# generated using pymatgen
data_Bi12SbO20
_symmetry_space_group_name_H-M   'P 1'
_cell_length_a   9.00269261
_cell_length_b   9.00269261
_cell_length_c   9.00269261
_cell_angle_alpha   109.47122063
_cell_angle_beta   109.47122063
_cell_angle_gamma   109.47122063
_symmetry_Int_Tables_number   1
_chemical_formula_structural   Bi12SbO20
_chemical_formula_sum   'Bi12 Sb1 O20'
_cell_volume   561.68829540
_cell_formula_units_Z   1
loop_
 _symmetry_equiv_pos_site_id
 _symmetry_equiv_pos_as_xyz
  1  'x, y, z'
loop_
 _atom_site_type_symbol
 _atom_site_label
 _atom_site_symmetry_multiplicity
 _atom_site_fract_x
 _atom_site_fract_y
 _atom_site_fract_z
 _atom_site_occupancy
  Bi  Bi0  1  0.49973700  0.33660300  0.19567300  1
  Bi  Bi1  1  0.50026300  0.69593600  0.83686500  1
  Bi  Bi2  1  0.85907000  0.66339700  0.16313500  1
  Bi  Bi3  1  0.33660300  0.19567300  0.49973700  1
  Bi  Bi4  1  0.14093000  0.30406400  0.80432700  1
  Bi  Bi5  1  0.69593600  0.83686500  0.50026300  1
  Bi  Bi6  1  0.66339700  0.16313500  0.85907000  1
  Bi  Bi7  1  0.30406400  0.80432700  0.14093000  1
  Bi  Bi8  1  0.19567300  0.49973700  0.33660300  1
  Bi  Bi9  1  0.16313500  0.85907000  0.66339700  1
  Bi  Bi10  1  0.80432700  0.14093000  0.30406400  1
  Bi  Bi11  1  0.83686500  0.50026300  0.69593600  1
  Sb  Sb0  1  0.00000000  0.00000000  0.00000000  1
  O  O0  1  0.38321200  0.38321200  0.38321200  1
  O  O1  1  0.61678800  0.00000000  0.00000000  1
  O  O2  1  0.00000000  0.61678800  0.00000000  1
  O  O3  1  0.00000000  0.00000000  0.61678800  1
  O  O4  1  0.74063200  0.62277400  0.37960800  1
  O  O5  1  0.25936800  0.63897600  0.88214200  1
  O  O6  1  0.75683400  0.37722600  0.11785800  1
  O  O7  1  0.62277400  0.37960800  0.74063200  1
  O  O8  1  0.24316600  0.36102400  0.62039200  1
  O  O9  1  0.63897600  0.88214200  0.25936800  1
  O  O10  1  0.37722600  0.11785800  0.75683400  1
  O  O11  1  0.36102400  0.62039200  0.24316600  1
  O  O12  1  0.37960800  0.74063200  0.62277400  1
  O  O13  1  0.11785800  0.75683400  0.37722600  1
  O  O14  1  0.62039200  0.24316600  0.36102400  1
  O  O15  1  0.88214200  0.25936800  0.63897600  1
  O  O16  1  0.77607800  0.77607800  0.77607800  1
  O  O17  1  0.22392200  0.00000000  0.00000000  1
  O  O18  1  0.00000000  0.22392200  0.00000000  1
  O  O19  1  0.00000000  0.00000000  0.22392200  1
loop_
_geom_bond_atom_site_label_1
_geom_bond_atom_site_label_2
_geom_bond_distance
_geom_bond_site_symmetry_2
Bi0 O14 2.114090 1_555
Bi0 O4 2.262662 1_555
Bi0 O0 2.264735 1_555
Bi0 O6 2.582475 1_555
Bi0 O17 2.638278 1_555
Bi1 O12 2.114082 1_555
Bi1 O5 2.262667 1_555
Bi1 O1 2.264736 1_566
Bi1 O8 2.582475 1_555
Bi1 O16 2.638273 1_555
Bi2 O13 2.114086 1_655
Bi2 O6 2.262659 1_555
Bi2 O2 2.264742 1_655
Bi2 O4 2.582467 1_555
Bi2 O19 2.638281 1_665
Bi3 O8 2.114090 1_555
Bi3 O7 2.262662 1_555
Bi3 O0 2.264735 1_555
Bi3 O10 2.582475 1_555
Bi3 O19 2.638278 1_555
Bi4 O15 2.114090 1_455
Bi4 O8 2.262662 1_555
Bi4 O3 2.264735 1_555
Bi4 O5 2.582475 1_555
Bi4 O18 2.638278 1_556
Bi5 O4 2.114082 1_555
Bi5 O9 2.262667 1_555
Bi5 O3 2.264736 1_665
Bi5 O11 2.582475 1_555
Bi5 O16 2.638273 1_555
Bi6 O6 2.114086 1_556
Bi6 O10 2.262659 1_555
Bi6 O1 2.264742 1_556
Bi6 O7 2.582467 1_555
Bi6 O18 2.638281 1_656
Bi7 O5 2.114090 1_554
Bi7 O11 2.262662 1_555
Bi7 O2 2.264735 1_555
Bi7 O9 2.582475 1_555
Bi7 O17 2.638278 1_565
Bi8 O11 2.114090 1_555
Bi8 O12 2.262662 1_555
Bi8 O0 2.264735 1_555
Bi8 O13 2.582475 1_555
Bi8 O18 2.638278 1_555
Bi9 O10 2.114086 1_565
Bi9 O13 2.262659 1_555
Bi9 O3 2.264742 1_565
Bi9 O12 2.582467 1_555
Bi9 O17 2.638281 1_566
Bi10 O9 2.114090 1_545
Bi10 O14 2.262662 1_555
Bi10 O1 2.264735 1_555
Bi10 O15 2.582475 1_555
Bi10 O19 2.638278 1_655
Bi11 O7 2.114082 1_555
Bi11 O15 2.262667 1_555
Bi11 O2 2.264736 1_656
Bi11 O14 2.582475 1_555
Bi11 O16 2.638273 1_555
O16 Sb0 2.015901 1_666
O17 Sb0 2.015901 1_555
O18 Sb0 2.015901 1_555
O19 Sb0 2.015901 1_555
