# generated using pymatgen
data_Sr14GaAs11
_symmetry_space_group_name_H-M   'P 1'
_cell_length_a   16.14594251
_cell_length_b   16.14594251
_cell_length_c   16.14594251
_cell_angle_alpha   61.73493305
_cell_angle_beta   61.69382902
_cell_angle_gamma   92.99596715
_symmetry_Int_Tables_number   1
_chemical_formula_structural   Sr14GaAs11
_chemical_formula_sum   'Sr56 Ga4 As44'
_cell_volume   3048.90460983
_cell_formula_units_Z   4
loop_
 _symmetry_equiv_pos_site_id
 _symmetry_equiv_pos_as_xyz
  1  'x, y, z'
loop_
 _atom_site_type_symbol
 _atom_site_label
 _atom_site_symmetry_multiplicity
 _atom_site_fract_x
 _atom_site_fract_y
 _atom_site_fract_z
 _atom_site_occupancy
  Sr  Sr0  1  0.75394952  0.37318830  0.53493552  1
  Sr  Sr1  1  0.25394952  0.78888504  0.61923878  1
  Sr  Sr2  1  0.37471283  0.75973329  0.02218741  1
  Sr  Sr3  1  0.87471283  0.89690023  0.38502046  1
  Sr  Sr4  1  0.24174364  0.62693789  0.47675864  1
  Sr  Sr5  1  0.74174364  0.21850228  0.38519426  1
  Sr  Sr6  1  0.62812584  0.24748144  0.96415963  1
  Sr  Sr7  1  0.12812584  0.09228547  0.61935560  1
  Sr  Sr8  1  0.89630346  0.87306211  0.88519426  1
  Sr  Sr9  1  0.39630346  0.28149772  0.97675864  1
  Sr  Sr10  1  0.78835894  0.25251856  0.11935560  1
  Sr  Sr11  1  0.28835894  0.40771453  0.46415963  1
  Sr  Sr12  1  0.09187618  0.12681170  0.11923878  1
  Sr  Sr13  1  0.59187618  0.71111496  0.03493552  1
  Sr  Sr14  1  0.21807930  0.74026671  0.88502046  1
  Sr  Sr15  1  0.71807930  0.60309977  0.52218741  1
  Sr  Sr16  1  0.98059366  0.62502756  0.90063065  1
  Sr  Sr17  1  0.48059366  0.38122431  0.64443389  1
  Sr  Sr18  1  0.62417735  0.98016348  0.40070033  1
  Sr  Sr19  1  0.12417735  0.52487768  0.35598613  1
  Sr  Sr20  1  0.01772356  0.37070057  0.10017656  1
  Sr  Sr21  1  0.51772356  0.61790010  0.35297701  1
  Sr  Sr22  1  0.36997641  0.01754497  0.60014120  1
  Sr  Sr23  1  0.86997641  0.47011761  0.64756856  1
  Sr  Sr24  1  0.52912289  0.12929943  0.85297701  1
  Sr  Sr25  1  0.02912289  0.88209990  0.60017656  1
  Sr  Sr26  1  0.38231383  0.48245503  0.14756856  1
  Sr  Sr27  1  0.88231383  0.02988239  0.10014120  1
  Sr  Sr28  1  0.47434179  0.87497244  0.14443389  1
  Sr  Sr29  1  0.97434179  0.11877569  0.40063065  1
  Sr  Sr30  1  0.61913619  0.51983652  0.85598613  1
  Sr  Sr31  1  0.11913619  0.97512232  0.90070033  1
  Sr  Sr32  1  0.66384708  0.43303690  0.08819269  1
  Sr  Sr33  1  0.16384708  0.25203977  0.76918982  1
  Sr  Sr34  1  0.43694064  0.66488811  0.58470403  1
  Sr  Sr35  1  0.93694064  0.52164466  0.22794748  1
  Sr  Sr36  1  0.33359515  0.55522407  0.92029437  1
  Sr  Sr37  1  0.83359515  0.75388953  0.22162892  1
  Sr  Sr38  1  0.55930647  0.33442339  0.41664054  1
  Sr  Sr39  1  0.05930647  0.47594701  0.77511692  1
  Sr  Sr40  1  0.52448155  0.94477593  0.72162892  1
  Sr  Sr41  1  0.02448155  0.74611047  0.42029437  1
  Sr  Sr42  1  0.24893606  0.16557661  0.27511692  1
  Sr  Sr43  1  0.74893606  0.02405299  0.91664054  1
  Sr  Sr44  1  0.47877041  0.06696310  0.26918982  1
  Sr  Sr45  1  0.97877041  0.24796023  0.58819269  1
  Sr  Sr46  1  0.75040786  0.83511189  0.72794748  1
  Sr  Sr47  1  0.25040786  0.97835534  0.08470403  1
  Sr  Sr48  1  0.60128826  0.75000000  0.64871174  1
  Sr  Sr49  1  0.10128826  0.75000000  0.14871174  1
  Sr  Sr50  1  0.74622857  0.59768755  0.14960348  1
  Sr  Sr51  1  0.24622857  0.39583205  0.85145898  1
  Sr  Sr52  1  0.39910231  0.25000000  0.35089769  1
  Sr  Sr53  1  0.89910231  0.25000000  0.85089769  1
  Sr  Sr54  1  0.75270897  0.10416795  0.64960348  1
  Sr  Sr55  1  0.25270897  0.90231245  0.35145898  1
  Ga  Ga0  1  0.62397580  0.87520186  0.25061815  1
  Ga  Ga1  1  0.12397580  0.37459395  0.25122606  1
  Ga  Ga2  1  0.87417999  0.62479814  0.75122606  1
  Ga  Ga3  1  0.37417999  0.12540605  0.75061815  1
  As  As0  1  0.26205737  0.01195475  0.47659782  1
  As  As1  1  0.76205737  0.23865520  0.74989738  1
  As  As2  1  0.01144742  0.26134480  0.97659782  1
  As  As3  1  0.51144742  0.48804525  0.24989738  1
  As  As4  1  0.74542763  0.99545367  0.50929646  1
  As  As5  1  0.24542763  0.75472410  0.25002604  1
  As  As6  1  0.99524987  0.74527590  0.00929646  1
  As  As7  1  0.49524987  0.50454633  0.75002604  1
  As  As8  1  0.81524341  0.42914282  0.87870399  1
  As  As9  1  0.31524341  0.19394740  0.61389941  1
  As  As10  1  0.42894680  0.81682518  0.37929460  1
  As  As11  1  0.92894680  0.30824139  0.38787838  1
  As  As12  1  0.18404952  0.56990135  0.12178649  1
  As  As13  1  0.68404952  0.80583602  0.38585182  1
  As  As14  1  0.57035327  0.18642348  0.62226258  1
  As  As15  1  0.07035327  0.69261585  0.61607022  1
  As  As16  1  0.30831216  0.93009865  0.88585182  1
  As  As17  1  0.80831216  0.69416398  0.62178649  1
  As  As18  1  0.19131394  0.31357652  0.11607022  1
  As  As19  1  0.69131394  0.80738415  0.12226258  1
  As  As20  1  0.69215319  0.07085718  0.11389941  1
  As  As21  1  0.19215319  0.30605260  0.37870399  1
  As  As22  1  0.80388022  0.68317482  0.88787838  1
  As  As23  1  0.30388022  0.19175861  0.87929460  1
  As  As24  1  0.82560234  0.42779196  0.15451393  1
  As  As25  1  0.32560234  0.48011628  0.60218962  1
  As  As26  1  0.42837043  0.82340884  0.65637567  1
  As  As27  1  0.92837043  0.58474610  0.39503841  1
  As  As28  1  0.17878651  0.57200857  0.84310570  1
  As  As29  1  0.67878651  0.52189221  0.39322207  1
  As  As30  1  0.57244532  0.17634228  0.34497860  1
  As  As31  1  0.07244532  0.41742393  0.60389695  1
  As  As32  1  0.58488572  0.92799143  0.89322207  1
  As  As33  1  0.08488572  0.97810779  0.34310570  1
  As  As34  1  0.47867912  0.32365772  0.10389695  1
  As  As35  1  0.97867912  0.08257607  0.84497860  1
  As  As36  1  0.41769410  0.07220804  0.10218962  1
  As  As37  1  0.91769410  0.01988372  0.65451393  1
  As  As38  1  0.52021550  0.67659116  0.89503841  1
  As  As39  1  0.02021550  0.91525390  0.15637567  1
  As  As40  1  0.11029811  0.86008894  0.77982752  1
  As  As41  1  0.61029811  0.39012564  0.74979083  1
  As  As42  1  0.86008354  0.10987436  0.27982752  1
  As  As43  1  0.36008354  0.63991106  0.24979083  1
loop_
_geom_bond_atom_site_label_1
_geom_bond_atom_site_label_2
_geom_bond_distance
_geom_bond_site_symmetry_2
Ga0 Sr18 3.555324 1_555
Ga0 Sr28 3.565050 1_555
Ga1 Sr19 3.555324 1_555
Ga1 Sr29 3.565050 1_455
Ga2 Sr30 3.555324 1_555
Ga2 Sr16 3.565050 1_555
Ga3 Sr31 3.555324 1_545
Ga3 Sr17 3.565050 1_555
As0 Sr42 3.137871 1_555
As0 Sr44 3.161043 1_555
As0 Sr7 3.173151 1_555
As0 Sr1 3.178360 1_545
As0 Sr22 3.236287 1_555
As0 Sr25 3.258632 1_545
As0 Sr55 3.299687 1_545
As0 Sr52 3.354343 1_555
As1 Sr43 3.137871 1_555
As1 Sr45 3.161044 1_555
As1 Sr6 3.173151 1_555
As1 Sr0 3.178360 1_555
As1 Sr23 3.236286 1_555
As1 Sr24 3.258632 1_555
As1 Sr54 3.299687 1_555
As1 Sr53 3.354343 1_555
As2 Sr39 3.137871 1_555
As2 Sr33 3.161043 1_555
As2 Sr10 3.173151 1_456
As2 Sr12 3.178360 1_556
As2 Sr27 3.236286 1_456
As2 Sr20 3.258633 1_556
As2 Sr51 3.299687 1_555
As2 Sr53 3.354343 1_455
As3 Sr38 3.137871 1_555
As3 Sr32 3.161044 1_555
As3 Sr11 3.173151 1_555
As3 Sr13 3.178360 1_555
As3 Sr26 3.236286 1_555
As3 Sr21 3.258632 1_555
As3 Sr50 3.299687 1_555
As3 Sr52 3.354343 1_555
As4 As42 2.687420 1_565
As4 Sr5 3.207663 1_565
As4 Sr3 3.211637 1_555
As4 Sr29 3.236630 1_565
As4 Sr18 3.253109 1_555
As4 Sr40 3.254000 1_555
As4 Sr46 3.287370 1_555
As4 Sr48 3.436262 1_555
As4 Sr54 3.496277 1_565
As5 Sr4 3.207663 1_555
As5 Sr2 3.211637 1_555
As5 Sr28 3.236630 1_555
As5 Sr19 3.253109 1_555
As5 Sr41 3.254000 1_555
As5 Sr47 3.287370 1_555
As5 Sr49 3.436262 1_555
As5 Sr55 3.496277 1_555
As6 Sr8 3.207663 1_554
As6 Sr14 3.211637 1_654
As6 Sr16 3.236630 1_554
As6 Sr31 3.253109 1_654
As6 Sr37 3.254000 1_555
As6 Sr35 3.287370 1_555
As6 Sr49 3.436262 1_655
As6 Sr50 3.496277 1_555
As7 Sr9 3.207663 1_555
As7 Sr15 3.211637 1_555
As7 Sr17 3.236631 1_555
As7 Sr30 3.253109 1_555
As7 Sr36 3.254000 1_555
As7 Sr34 3.287370 1_555
As7 Sr48 3.436262 1_555
As7 Sr51 3.496277 1_555
As8 Ga2 2.606067 1_555
As8 Sr23 3.101388 1_555
As8 Sr32 3.129880 1_556
As8 Sr6 3.304828 1_555
As8 Sr39 3.337386 1_655
As8 Sr10 3.345893 1_556
As8 Sr53 3.385816 1_555
As8 Sr30 3.658129 1_555
As9 Ga3 2.606067 1_555
As9 Sr22 3.101388 1_555
As9 Sr33 3.129880 1_555
As9 Sr7 3.304828 1_555
As9 Sr38 3.337386 1_555
As9 Sr11 3.345893 1_555
As9 Sr52 3.385816 1_555
As9 Sr31 3.658129 1_545
As10 Ga0 2.598316 1_555
As10 Sr28 3.117477 1_555
As10 Sr34 3.125296 1_555
As10 Sr4 3.311057 1_555
As10 Sr1 3.320568 1_555
As10 Sr55 3.352615 1_555
As10 Sr44 3.409227 1_565
As10 Sr21 3.707724 1_555
As11 Ga1 2.598316 1_655
As11 Sr29 3.117477 1_555
As11 Sr35 3.125296 1_555
As11 Sr5 3.311057 1_555
As11 Sr0 3.320568 1_555
As11 Sr54 3.352615 1_555
As11 Sr45 3.409227 1_555
As11 Sr20 3.707724 1_655
As12 Ga1 2.601669 1_555
As12 Sr19 3.101312 1_555
As12 Sr36 3.132160 1_554
As12 Sr14 3.220718 1_554
As12 Sr2 3.332834 1_555
As12 Sr35 3.374633 1_455
As12 Sr49 3.388624 1_555
As12 Sr26 3.686973 1_555
As13 Ga0 2.601669 1_555
As13 Sr18 3.101312 1_555
As13 Sr37 3.132160 1_555
As13 Sr15 3.220718 1_555
As13 Sr3 3.332834 1_555
As13 Sr34 3.374633 1_555
As13 Sr48 3.388624 1_555
As13 Sr27 3.686973 1_565
As14 Ga3 2.610133 1_555
As14 Sr24 3.082251 1_555
As14 Sr38 3.139514 1_555
As14 Sr5 3.241055 1_555
As14 Sr0 3.308084 1_555
As14 Sr40 3.314777 1_545
As14 Sr54 3.422536 1_555
As14 Sr17 3.629307 1_555
As15 Ga2 2.610133 1_455
As15 Sr25 3.082251 1_555
As15 Sr39 3.139514 1_555
As15 Sr4 3.241055 1_555
As15 Sr1 3.308083 1_555
As15 Sr41 3.314778 1_555
As15 Sr55 3.422536 1_555
As15 Sr16 3.629307 1_455
As16 Ga3 2.601669 1_565
As16 Sr31 3.101312 1_555
As16 Sr40 3.132160 1_555
As16 Sr2 3.220718 1_556
As16 Sr14 3.332834 1_555
As16 Sr47 3.374633 1_556
As16 Sr49 3.388624 1_556
As16 Sr22 3.686973 1_565
As17 Ga2 2.601669 1_555
As17 Sr30 3.101312 1_555
As17 Sr41 3.132160 1_655
As17 Sr3 3.220718 1_555
As17 Sr15 3.332833 1_555
As17 Sr46 3.374633 1_555
As17 Sr48 3.388624 1_555
As17 Sr23 3.686973 1_555
As18 Ga1 2.610133 1_555
As18 Sr20 3.082251 1_555
As18 Sr42 3.139514 1_555
As18 Sr9 3.241055 1_554
As18 Sr12 3.308084 1_555
As18 Sr36 3.314777 1_554
As18 Sr51 3.422536 1_554
As18 Sr29 3.629307 1_455
As19 Ga0 2.610133 1_555
As19 Sr21 3.082251 1_555
As19 Sr43 3.139514 1_564
As19 Sr8 3.241055 1_554
As19 Sr13 3.308084 1_555
As19 Sr37 3.314777 1_555
As19 Sr50 3.422536 1_555
As19 Sr28 3.629307 1_555
As20 Ga0 2.606067 1_545
As20 Sr27 3.101388 1_555
As20 Sr44 3.129880 1_555
As20 Sr10 3.304829 1_555
As20 Sr43 3.337386 1_554
As20 Sr6 3.345893 1_554
As20 Sr53 3.385816 1_554
As20 Sr18 3.658129 1_545
As21 Ga1 2.606067 1_555
As21 Sr26 3.101388 1_555
As21 Sr45 3.129880 1_455
As21 Sr11 3.304829 1_555
As21 Sr42 3.337386 1_555
As21 Sr7 3.345893 1_555
As21 Sr52 3.385816 1_555
As21 Sr19 3.658129 1_555
As22 Ga2 2.598316 1_555
As22 Sr16 3.117477 1_555
As22 Sr46 3.125296 1_555
As22 Sr8 3.311057 1_555
As22 Sr13 3.320568 1_556
As22 Sr50 3.352615 1_556
As22 Sr32 3.409227 1_556
As22 Sr25 3.707724 1_655
As23 Ga3 2.598316 1_555
As23 Sr17 3.117477 1_555
As23 Sr47 3.125296 1_546
As23 Sr9 3.311057 1_555
As23 Sr12 3.320568 1_556
As23 Sr51 3.352615 1_555
As23 Sr33 3.409227 1_555
As23 Sr24 3.707724 1_555
As24 Sr50 3.071039 1_555
As24 Sr20 3.118586 1_655
As24 Sr5 3.153314 1_555
As24 Sr16 3.206565 1_554
As24 Sr10 3.218666 1_555
As24 Sr35 3.220536 1_555
As24 Sr32 3.250267 1_555
As25 Sr51 3.071039 1_555
As25 Sr21 3.118586 1_555
As25 Sr4 3.153314 1_555
As25 Sr17 3.206565 1_555
As25 Sr11 3.218666 1_555
As25 Sr34 3.220536 1_555
As25 Sr33 3.250267 1_555
As26 Sr48 3.061396 1_555
As26 Sr14 3.146680 1_555
As26 Sr22 3.156545 1_565
As26 Sr18 3.214523 1_555
As26 Sr1 3.217928 1_555
As26 Sr40 3.247478 1_555
As26 Sr34 3.255682 1_555
As27 Sr49 3.061396 1_655
As27 Sr15 3.146680 1_555
As27 Sr23 3.156545 1_555
As27 Sr19 3.214523 1_655
As27 Sr0 3.217928 1_555
As27 Sr41 3.247478 1_655
As27 Sr35 3.255681 1_555
As28 Sr51 3.065130 1_555
As28 Sr16 3.171154 1_455
As28 Sr1 3.194955 1_555
As28 Sr14 3.195177 1_555
As28 Sr36 3.252619 1_555
As28 Sr39 3.261941 1_555
As28 Sr20 3.264624 1_556
As28 Sr34 3.736014 1_555
As29 Sr50 3.065130 1_555
As29 Sr17 3.171154 1_555
As29 Sr0 3.194955 1_555
As29 Sr15 3.195177 1_555
As29 Sr37 3.252619 1_555
As29 Sr38 3.261941 1_555
As29 Sr21 3.264624 1_555
As29 Sr35 3.736014 1_555
As30 Sr52 3.075487 1_555
As30 Sr18 3.135336 1_545
As30 Sr10 3.193890 1_555
As30 Sr5 3.203791 1_555
As30 Sr44 3.229020 1_555
As30 Sr38 3.243327 1_555
As30 Sr22 3.252781 1_555
As30 Sr32 3.718662 1_555
As31 Sr53 3.075487 1_455
As31 Sr19 3.135336 1_555
As31 Sr11 3.193890 1_555
As31 Sr4 3.203791 1_555
As31 Sr45 3.229021 1_455
As31 Sr39 3.243327 1_555
As31 Sr23 3.252781 1_455
As31 Sr33 3.718662 1_555
As32 Sr54 3.065130 1_565
As32 Sr28 3.171154 1_556
As32 Sr13 3.194955 1_556
As32 Sr2 3.195177 1_556
As32 Sr40 3.252619 1_555
As32 Sr43 3.261941 1_565
As32 Sr24 3.264624 1_565
As32 Sr46 3.736014 1_555
As33 Sr55 3.065130 1_555
As33 Sr29 3.171154 1_465
As33 Sr12 3.194955 1_565
As33 Sr3 3.195177 1_455
As33 Sr41 3.252619 1_555
As33 Sr42 3.261941 1_565
As33 Sr25 3.264624 1_555
As33 Sr47 3.736014 1_555
As34 Sr52 3.075488 1_555
As34 Sr30 3.135336 1_554
As34 Sr6 3.193889 1_554
As34 Sr9 3.203791 1_554
As34 Sr32 3.229021 1_555
As34 Sr42 3.243327 1_555
As34 Sr26 3.252781 1_555
As34 Sr44 3.718662 1_555
As35 Sr53 3.075488 1_555
As35 Sr31 3.135336 1_645
As35 Sr7 3.193889 1_655
As35 Sr8 3.203791 1_545
As35 Sr33 3.229021 1_655
As35 Sr43 3.243327 1_555
As35 Sr27 3.252781 1_556
As35 Sr45 3.718662 1_555
As36 Sr55 3.071039 1_545
As36 Sr24 3.118586 1_554
As36 Sr9 3.153314 1_554
As36 Sr28 3.206565 1_545
As36 Sr6 3.218666 1_554
As36 Sr47 3.220535 1_545
As36 Sr44 3.250267 1_555
As37 Sr54 3.071039 1_555
As37 Sr25 3.118586 1_645
As37 Sr8 3.153314 1_545
As37 Sr29 3.206565 1_555
As37 Sr7 3.218666 1_655
As37 Sr46 3.220535 1_545
As37 Sr45 3.250267 1_555
As38 Sr48 3.061396 1_555
As38 Sr2 3.146680 1_556
As38 Sr26 3.156545 1_556
As38 Sr30 3.214522 1_555
As38 Sr13 3.217928 1_556
As38 Sr36 3.247478 1_555
As38 Sr46 3.255681 1_555
As39 Sr49 3.061396 1_555
As39 Sr3 3.146680 1_455
As39 Sr27 3.156545 1_465
As39 Sr31 3.214523 1_554
As39 Sr12 3.217928 1_565
As39 Sr37 3.247478 1_455
As39 Sr47 3.255681 1_555
As40 As6 2.687420 1_456
As40 Sr14 3.114300 1_555
As40 Sr8 3.116849 1_455
As40 Sr1 3.289800 1_555
As40 Sr7 3.291098 1_565
As40 Sr16 3.298271 1_455
As40 Sr31 3.308807 1_555
As40 Sr22 3.581011 1_565
As40 Sr25 3.596606 1_555
As41 As7 2.687420 1_555
As41 Sr15 3.114300 1_555
As41 Sr9 3.116849 1_555
As41 Sr0 3.289800 1_555
As41 Sr6 3.291098 1_555
As41 Sr17 3.298271 1_555
As41 Sr30 3.308806 1_555
As41 Sr23 3.581011 1_555
As41 Sr24 3.596606 1_555
As42 Sr3 3.114300 1_545
As42 Sr5 3.116849 1_555
As42 Sr12 3.289800 1_655
As42 Sr10 3.291097 1_555
As42 Sr29 3.298271 1_555
As42 Sr18 3.308807 1_545
As42 Sr27 3.581011 1_555
As42 Sr20 3.596606 1_655
As43 As5 2.687420 1_555
As43 Sr2 3.114300 1_555
As43 Sr4 3.116849 1_555
As43 Sr13 3.289800 1_555
As43 Sr11 3.291098 1_555
As43 Sr28 3.298271 1_555
As43 Sr19 3.308807 1_555
As43 Sr26 3.581011 1_555
As43 Sr21 3.596606 1_555
