# generated using pymatgen
data_Nd(Fe5Mo)2
_symmetry_space_group_name_H-M   'P 1'
_cell_length_a   4.71157400
_cell_length_b   6.57498405
_cell_length_c   6.57498405
_cell_angle_alpha   97.06849535
_cell_angle_beta   110.99555185
_cell_angle_gamma   69.00444815
_symmetry_Int_Tables_number   1
_chemical_formula_structural   Nd(Fe5Mo)2
_chemical_formula_sum   'Nd1 Fe10 Mo2'
_cell_volume   177.53201880
_cell_formula_units_Z   1
loop_
 _symmetry_equiv_pos_site_id
 _symmetry_equiv_pos_as_xyz
  1  'x, y, z'
loop_
 _atom_site_type_symbol
 _atom_site_label
 _atom_site_symmetry_multiplicity
 _atom_site_fract_x
 _atom_site_fract_y
 _atom_site_fract_z
 _atom_site_occupancy
  Nd  Nd0  1  0.00000000  0.00000000  0.00000000  1
  Fe  Fe0  1  0.50000000  0.00000000  0.50000000  1
  Fe  Fe1  1  0.00000000  0.00000000  0.50000000  1
  Fe  Fe2  1  0.50000000  0.50000000  0.00000000  1
  Fe  Fe3  1  0.00000000  0.50000000  0.00000000  1
  Fe  Fe4  1  0.72422200  0.77577800  0.22422200  1
  Fe  Fe5  1  0.27577800  0.22422200  0.77577800  1
  Fe  Fe6  1  0.50000000  0.77038700  0.77038700  1
  Fe  Fe7  1  0.50000000  0.22961300  0.22961300  1
  Fe  Fe8  1  0.64077800  0.35922200  0.64077800  1
  Fe  Fe9  1  0.35922200  0.64077800  0.35922200  1
  Mo  Mo0  1  0.00000000  0.35854900  0.35854900  1
  Mo  Mo1  1  0.00000000  0.64145100  0.64145100  1
loop_
_geom_bond_atom_site_label_1
_geom_bond_atom_site_label_2
_geom_bond_distance
_geom_bond_site_symmetry_2
Fe0 Fe1 2.355787 1_555
Fe0 Fe1 2.355787 1_655
Fe0 Fe7 2.469875 1_555
Fe0 Fe6 2.469875 1_545
Fe0 Fe4 2.485164 1_545
Fe0 Fe5 2.485164 1_555
Fe0 Mo1 2.638591 1_645
Fe0 Mo0 2.638591 1_555
Fe0 Fe8 2.649490 1_555
Fe0 Fe9 2.649490 1_545
Fe0 Nd0 3.287492 1_555
Fe0 Nd0 3.287492 1_656
Fe1 Fe7 2.469875 1_455
Fe1 Fe6 2.469875 1_545
Fe1 Fe4 2.485164 1_445
Fe1 Fe5 2.485164 1_555
Fe1 Mo1 2.638591 1_545
Fe1 Mo0 2.638591 1_555
Fe1 Fe8 2.649490 1_455
Fe1 Fe9 2.649490 1_545
Fe1 Nd0 3.287492 1_555
Fe1 Nd0 3.287492 1_556
Fe2 Fe3 2.355787 1_555
Fe2 Fe3 2.355787 1_655
Fe2 Fe6 2.469875 1_554
Fe2 Fe7 2.469875 1_555
Fe2 Fe5 2.485164 1_554
Fe2 Fe4 2.485164 1_555
Fe2 Mo1 2.638591 1_554
Fe2 Mo0 2.638591 1_655
Fe2 Fe9 2.649490 1_555
Fe2 Fe8 2.649490 1_554
Fe2 Nd0 3.287492 1_565
Fe2 Nd0 3.287492 1_655
Fe3 Fe6 2.469875 1_454
Fe3 Fe7 2.469875 1_555
Fe3 Fe4 2.485164 1_455
Fe3 Fe5 2.485164 1_554
Fe3 Mo1 2.638591 1_554
Fe3 Mo0 2.638591 1_555
Fe3 Fe9 2.649490 1_555
Fe3 Fe8 2.649490 1_454
Fe3 Nd0 3.287492 1_555
Fe3 Nd0 3.287492 1_565
Fe4 Fe9 2.629603 1_555
Fe4 Fe9 2.629603 1_655
Fe4 Mo0 2.685810 1_655
Fe4 Mo1 2.685810 1_655
Fe4 Fe6 2.786246 1_554
Fe4 Fe7 2.786246 1_565
Fe4 Nd0 3.052120 1_565
Fe4 Nd0 3.052120 1_665
Fe5 Fe8 2.629603 1_555
Fe5 Fe8 2.629603 1_455
Fe5 Mo0 2.685810 1_555
Fe5 Mo1 2.685810 1_555
Fe5 Fe6 2.786246 1_545
Fe5 Fe7 2.786246 1_556
Fe5 Nd0 3.052120 1_656
Fe5 Nd0 3.052120 1_556
Fe6 Mo1 2.609640 1_555
Fe6 Mo1 2.609640 1_655
Fe6 Fe8 2.650973 1_555
Fe6 Fe9 2.650973 1_555
Fe6 Nd0 3.089853 1_566
Fe6 Nd0 3.089853 1_666
Fe7 Mo0 2.609640 1_555
Fe7 Mo0 2.609640 1_655
Fe7 Fe9 2.650973 1_555
Fe7 Fe8 2.650973 1_555
Fe7 Nd0 3.089853 1_655
Fe7 Nd0 3.089853 1_555
Fe8 Fe9 2.436743 1_555
Fe8 Mo1 2.924248 1_555
Fe8 Mo0 2.924248 1_555
Fe8 Mo0 2.924248 1_655
Fe8 Mo1 2.924248 1_655
Fe8 Nd0 3.108908 1_656
Fe9 Mo0 2.924248 1_555
Fe9 Mo1 2.924248 1_555
Fe9 Mo1 2.924248 1_655
Fe9 Mo0 2.924248 1_655
Fe9 Nd0 3.108908 1_565
Mo0 Mo1 2.463382 1_555
Mo0 Nd0 3.122081 1_555
Mo1 Nd0 3.122081 1_566
