# generated using pymatgen
data_K2RbTaCl6
_symmetry_space_group_name_H-M   'P 1'
_cell_length_a   7.84327933
_cell_length_b   7.84327933
_cell_length_c   7.84327933
_cell_angle_alpha   60.00000000
_cell_angle_beta   60.00000000
_cell_angle_gamma   60.00000000
_symmetry_Int_Tables_number   1
_chemical_formula_structural   K2RbTaCl6
_chemical_formula_sum   'K2 Rb1 Ta1 Cl6'
_cell_volume   341.17566647
_cell_formula_units_Z   1
loop_
 _symmetry_equiv_pos_site_id
 _symmetry_equiv_pos_as_xyz
  1  'x, y, z'
loop_
 _atom_site_type_symbol
 _atom_site_label
 _atom_site_symmetry_multiplicity
 _atom_site_fract_x
 _atom_site_fract_y
 _atom_site_fract_z
 _atom_site_occupancy
  K  K0  1  0.75000000  0.75000000  0.75000000  1
  K  K1  1  0.25000000  0.25000000  0.25000000  1
  Rb  Rb0  1  0.50000000  0.50000000  0.50000000  1
  Ta  Ta0  1  0.00000000  0.00000000  0.00000000  1
  Cl  Cl0  1  0.77719800  0.22280200  0.22280200  1
  Cl  Cl1  1  0.22280200  0.22280200  0.77719800  1
  Cl  Cl2  1  0.22280200  0.77719800  0.77719800  1
  Cl  Cl3  1  0.22280200  0.77719800  0.22280200  1
  Cl  Cl4  1  0.77719800  0.22280200  0.77719800  1
  Cl  Cl5  1  0.77719800  0.77719800  0.22280200  1
loop_
_geom_bond_atom_site_label_1
_geom_bond_atom_site_label_2
_geom_bond_distance
_geom_bond_site_symmetry_2
Cl0 Ta0 2.471336 1_655
Cl0 Rb0 3.074700 1_555
Cl1 Ta0 2.471336 1_556
Cl1 Rb0 3.074700 1_555
Cl2 Ta0 2.471336 1_566
Cl2 Rb0 3.074700 1_555
Cl3 Ta0 2.471336 1_565
Cl3 Rb0 3.074700 1_555
Cl4 Ta0 2.471336 1_656
Cl4 Rb0 3.074700 1_555
Cl5 Ta0 2.471336 1_665
Cl5 Rb0 3.074700 1_555
