# generated using pymatgen
data_SrCaZnSi2O7
_symmetry_space_group_name_H-M   'P 1'
_cell_length_a   8.01373000
_cell_length_b   5.13329800
_cell_length_c   8.00587892
_cell_angle_alpha   89.10582542
_cell_angle_beta   90.00000000
_cell_angle_gamma   90.00000000
_symmetry_Int_Tables_number   1
_chemical_formula_structural   SrCaZnSi2O7
_chemical_formula_sum   'Sr2 Ca2 Zn2 Si4 O14'
_cell_volume   329.29664863
_cell_formula_units_Z   2
loop_
 _symmetry_equiv_pos_site_id
 _symmetry_equiv_pos_as_xyz
  1  'x, y, z'
loop_
 _atom_site_type_symbol
 _atom_site_label
 _atom_site_symmetry_multiplicity
 _atom_site_fract_x
 _atom_site_fract_y
 _atom_site_fract_z
 _atom_site_occupancy
  Sr  Sr0  1  0.16380300  0.49223900  0.08550900  1
  Sr  Sr1  1  0.66380300  0.50776100  0.91449100  1
  Ca  Ca0  1  0.82728700  0.49700300  0.42000100  1
  Ca  Ca1  1  0.32728700  0.50299700  0.57999900  1
  Zn  Zn0  1  0.50074200  0.99972800  0.25200100  1
  Zn  Zn1  1  0.00074200  0.00027200  0.74799900  1
  Si  Si0  1  0.63990700  0.06026000  0.60461500  1
  Si  Si1  1  0.13990700  0.93974000  0.39538500  1
  Si  Si2  1  0.36050800  0.05561000  0.88377100  1
  Si  Si3  1  0.86050800  0.94439000  0.11622900  1
  O  O0  1  0.64295900  0.74597700  0.60280700  1
  O  O1  1  0.14295900  0.25402300  0.39719300  1
  O  O2  1  0.36082000  0.74202600  0.88401200  1
  O  O3  1  0.86082000  0.25797400  0.11598800  1
  O  O4  1  0.58359600  0.21916900  0.43326600  1
  O  O5  1  0.08359600  0.78083100  0.56673400  1
  O  O6  1  0.42013400  0.19912100  0.05654800  1
  O  O7  1  0.92013400  0.80087900  0.94345200  1
  O  O8  1  0.68964600  0.79003100  0.17484600  1
  O  O9  1  0.18964600  0.20996900  0.82515400  1
  O  O10  1  0.31251400  0.79033300  0.33790800  1
  O  O11  1  0.81251400  0.20966700  0.66209200  1
  O  O12  1  0.99808500  0.82917900  0.25833800  1
  O  O13  1  0.49808500  0.17082100  0.74166200  1
loop_
_geom_bond_atom_site_label_1
_geom_bond_atom_site_label_2
_geom_bond_distance
_geom_bond_site_symmetry_2
Ca0 O4 2.419572 1_555
Ca0 O11 2.420081 1_555
Ca0 O0 2.452692 1_555
Ca0 O12 2.527291 1_555
Ca0 O8 2.690584 1_555
Ca0 O3 2.755866 1_555
Ca0 O5 2.788378 1_655
Ca0 O1 2.827652 1_655
Ca1 O5 2.419572 1_555
Ca1 O10 2.420081 1_555
Ca1 O1 2.452692 1_555
Ca1 O13 2.527291 1_555
Ca1 O9 2.690584 1_555
Ca1 O2 2.755866 1_555
Ca1 O4 2.788378 1_555
Ca1 O0 2.827652 1_555
O0 Si0 1.613784 1_565
O0 Sr1 2.766682 1_555
O1 Si1 1.613784 1_545
O1 Sr0 2.766682 1_555
O2 Si2 1.609693 1_565
O2 Sr0 2.583522 1_556
O2 Sr1 2.718789 1_555
O3 Si3 1.609693 1_545
O3 Sr1 2.583522 1_554
O3 Sr0 2.718789 1_655
O4 Si0 1.648016 1_555
O4 Zn0 1.966398 1_545
O5 Si1 1.648016 1_555
O5 Zn1 1.966398 1_565
O6 Si2 1.648077 1_554
O6 Zn0 1.965565 1_545
O6 Sr0 2.558957 1_555
O6 Sr1 2.749610 1_554
O7 Si3 1.648077 1_556
O7 Zn1 1.965565 1_665
O7 Sr1 2.558957 1_555
O7 Sr0 2.749610 1_656
O8 Si3 1.646601 1_555
O8 Zn0 1.962825 1_555
O8 Sr1 2.565402 1_554
O9 Si2 1.646601 1_555
O9 Zn1 1.962825 1_555
O9 Sr0 2.565402 1_556
O10 Si1 1.650540 1_555
O10 Zn0 1.969929 1_555
O10 Sr0 2.818046 1_555
O11 Si0 1.650540 1_555
O11 Zn1 1.969929 1_655
O11 Sr1 2.818046 1_555
O12 Si1 1.684349 1_655
O12 Si3 1.684833 1_555
O12 Sr0 2.596993 1_655
O13 Si0 1.684349 1_555
O13 Si2 1.684833 1_555
O13 Sr1 2.596993 1_555
