# generated using pymatgen
data_Sr2Nd2TlNi2O9
_symmetry_space_group_name_H-M   'P 1'
_cell_length_a   15.19873935
_cell_length_b   15.19508187
_cell_length_c   3.82846062
_cell_angle_alpha   82.81800197
_cell_angle_beta   82.70940004
_cell_angle_gamma   14.47259798
_symmetry_Int_Tables_number   1
_chemical_formula_structural   Sr2Nd2TlNi2O9
_chemical_formula_sum   'Sr2 Nd2 Tl1 Ni2 O9'
_cell_volume   219.17388709
_cell_formula_units_Z   1
loop_
 _symmetry_equiv_pos_site_id
 _symmetry_equiv_pos_as_xyz
  1  'x, y, z'
loop_
 _atom_site_type_symbol
 _atom_site_label
 _atom_site_symmetry_multiplicity
 _atom_site_fract_x
 _atom_site_fract_y
 _atom_site_fract_z
 _atom_site_occupancy
  Sr  Sr0  1  0.59306100  0.57591000  0.42409000  1
  Sr  Sr1  1  0.42409000  0.40693900  0.59306100  1
  Nd  Nd0  1  0.70447800  0.70069600  0.29930400  1
  Nd  Nd1  1  0.29930400  0.29552200  0.70447800  1
  Tl  Tl0  1  0.04365800  0.95634200  0.04365800  1
  Ni  Ni0  1  0.14950500  0.14395800  0.85604200  1
  Ni  Ni1  1  0.85604200  0.85049500  0.14950500  1
  O  O0  1  0.06967200  0.07178000  0.92822000  1
  O  O1  1  0.92822000  0.93032800  0.06967200  1
  O  O2  1  0.65173600  0.64671700  0.85356400  1
  O  O3  1  0.15201800  0.14643600  0.35328300  1
  O  O4  1  0.35328300  0.34826400  0.15201800  1
  O  O5  1  0.85356400  0.84798200  0.65173600  1
  O  O6  1  0.22055700  0.21815100  0.78184900  1
  O  O7  1  0.78184900  0.77944300  0.22055700  1
  O  O8  1  0.47296300  0.52703700  0.47296300  1
loop_
_geom_bond_atom_site_label_1
_geom_bond_atom_site_label_2
_geom_bond_distance
_geom_bond_site_symmetry_2
Nd0 O7 2.334568 1_555
Nd0 O3 2.489548 1_565
Nd0 O2 2.489559 1_554
Nd0 O3 2.494869 1_655
Nd0 O2 2.494877 1_555
Nd0 O6 2.743073 1_654
Nd0 O6 2.743073 1_565
Nd0 O6 2.759582 1_655
Nd0 O6 2.766936 1_564
Nd1 O6 2.334568 1_555
Nd1 O5 2.489548 1_455
Nd1 O4 2.489556 1_555
Nd1 O5 2.494869 1_545
Nd1 O4 2.494880 1_556
Nd1 O7 2.743073 1_545
Nd1 O7 2.743073 1_456
Nd1 O7 2.759582 1_546
Nd1 O7 2.766936 1_455
Ni0 O2 1.914675 1_545
Ni0 O3 1.914677 1_556
Ni0 O3 1.916692 1_555
Ni0 O2 1.916694 1_455
Ni0 O6 2.171988 1_555
Ni0 O0 2.273244 1_555
Ni1 O5 1.914673 1_555
Ni1 O4 1.914675 1_655
Ni1 O4 1.916694 1_565
Ni1 O5 1.916696 1_554
Ni1 O7 2.171988 1_555
Ni1 O1 2.273244 1_555
O0 Tl0 2.129164 1_546
O0 Sr0 2.696627 1_455
O0 Sr0 2.728563 1_545
O0 Sr0 2.728563 1_456
O0 Sr0 2.800115 1_546
O1 Tl0 2.129164 1_655
O1 Sr1 2.696627 1_564
O1 Sr1 2.728563 1_565
O1 Sr1 2.728563 1_654
O1 Sr1 2.800115 1_655
O2 Sr0 2.707200 1_555
O2 Sr0 2.738587 1_556
O3 Sr0 2.707212 1_455
O3 Sr0 2.738597 1_545
O4 Sr1 2.707202 1_554
O4 Sr1 2.738585 1_555
O5 Sr1 2.707212 1_565
O5 Sr1 2.738597 1_655
O8 Tl0 2.333167 1_555
O8 Sr1 2.534168 1_555
O8 Sr0 2.534168 1_555
O8 Tl0 2.724076 1_556
O8 Tl0 2.724076 1_645
