# generated using pymatgen
data_Ca2TiRuO6
_symmetry_space_group_name_H-M   'P 1'
_cell_length_a   5.53273400
_cell_length_b   5.42993400
_cell_length_c   9.44259786
_cell_angle_alpha   55.02292740
_cell_angle_beta   90.00000000
_cell_angle_gamma   90.00000000
_symmetry_Int_Tables_number   1
_chemical_formula_structural   Ca2TiRuO6
_chemical_formula_sum   'Ca4 Ti2 Ru2 O12'
_cell_volume   232.44060143
_cell_formula_units_Z   2
loop_
 _symmetry_equiv_pos_site_id
 _symmetry_equiv_pos_as_xyz
  1  'x, y, z'
loop_
 _atom_site_type_symbol
 _atom_site_label
 _atom_site_symmetry_multiplicity
 _atom_site_fract_x
 _atom_site_fract_y
 _atom_site_fract_z
 _atom_site_occupancy
  Ca  Ca0  1  0.45442900  0.75983500  0.74979000  1
  Ca  Ca1  1  0.95442900  0.24016500  0.75021000  1
  Ca  Ca2  1  0.54557100  0.24016500  0.25021000  1
  Ca  Ca3  1  0.04557100  0.75983500  0.24979000  1
  Ti  Ti0  1  0.50000000  0.50000000  0.50000000  1
  Ti  Ti1  1  0.00000000  0.50000000  0.00000000  1
  Ru  Ru0  1  0.50000000  0.00000000  0.00000000  1
  Ru  Ru1  1  0.00000000  0.00000000  0.50000000  1
  O  O0  1  0.52307900  0.33475600  0.74767600  1
  O  O1  1  0.02307900  0.66524400  0.75232400  1
  O  O2  1  0.47692100  0.66524400  0.25232400  1
  O  O3  1  0.97692100  0.33475600  0.24767600  1
  O  O4  1  0.70555600  0.16499600  0.54220500  1
  O  O5  1  0.20555600  0.83500400  0.95779500  1
  O  O6  1  0.28990300  0.25378900  0.04301500  1
  O  O7  1  0.78990300  0.74621100  0.45698500  1
  O  O8  1  0.29444400  0.83500400  0.45779500  1
  O  O9  1  0.79444400  0.16499600  0.04220500  1
  O  O10  1  0.71009700  0.74621100  0.95698500  1
  O  O11  1  0.21009700  0.25378900  0.54301500  1
loop_
_geom_bond_atom_site_label_1
_geom_bond_atom_site_label_2
_geom_bond_distance
_geom_bond_site_symmetry_2
Ca0 O0 2.350542 1_555
Ca0 O10 2.380798 1_555
Ca0 O4 2.380878 1_565
Ca0 O1 2.438419 1_555
Ca0 O11 2.613327 1_565
Ca0 O5 2.615228 1_555
Ca0 O8 2.694801 1_555
Ca0 O6 2.706029 1_556
Ca1 O1 2.350542 1_655
Ca1 O11 2.380798 1_655
Ca1 O5 2.380878 1_645
Ca1 O0 2.438419 1_555
Ca1 O10 2.613327 1_545
Ca1 O4 2.615228 1_555
Ca1 O9 2.694801 1_556
Ca1 O7 2.706029 1_555
Ca2 O2 2.350542 1_555
Ca2 O6 2.380798 1_555
Ca2 O8 2.380878 1_545
Ca2 O3 2.438419 1_555
Ca2 O7 2.613327 1_545
Ca2 O9 2.615228 1_555
Ca2 O4 2.694801 1_555
Ca2 O10 2.706029 1_554
Ca3 O3 2.350542 1_455
Ca3 O7 2.380798 1_455
Ca3 O9 2.380878 1_465
Ca3 O2 2.438419 1_555
Ca3 O6 2.613327 1_565
Ca3 O8 2.615228 1_555
Ca3 O5 2.694801 1_554
Ca3 O11 2.706029 1_555
O0 Ti0 1.971060 1_555
O0 Ru0 2.007934 1_556
O1 Ti1 1.971060 1_556
O1 Ru1 2.007934 1_565
O2 Ti0 1.971060 1_555
O2 Ru0 2.007934 1_565
O3 Ti1 1.971060 1_655
O3 Ru1 2.007934 1_655
O4 Ti0 1.982435 1_555
O4 Ru1 2.006177 1_655
O5 Ti1 1.982435 1_556
O5 Ru0 2.006177 1_566
O6 Ti1 1.975452 1_555
O6 Ru0 2.014187 1_555
O7 Ti0 1.975452 1_555
O7 Ru1 2.014187 1_665
O8 Ti0 1.982435 1_555
O8 Ru1 2.006177 1_565
O9 Ti1 1.982435 1_655
O9 Ru0 2.006177 1_555
O10 Ti1 1.975452 1_656
O10 Ru0 2.014187 1_566
O11 Ti0 1.975452 1_555
O11 Ru1 2.014187 1_555
