# generated using pymatgen
data_Rb2LiNd2(WO4)4
_symmetry_space_group_name_H-M   'P 1'
_cell_length_a   7.64705698
_cell_length_b   8.12202968
_cell_length_c   7.54805420
_cell_angle_alpha   63.96738354
_cell_angle_beta   61.57510142
_cell_angle_gamma   88.61486925
_symmetry_Int_Tables_number   1
_chemical_formula_structural   Rb2LiNd2(WO4)4
_chemical_formula_sum   'Rb2 Li1 Nd2 W4 O16'
_cell_volume   360.19358215
_cell_formula_units_Z   1
loop_
 _symmetry_equiv_pos_site_id
 _symmetry_equiv_pos_as_xyz
  1  'x, y, z'
loop_
 _atom_site_type_symbol
 _atom_site_label
 _atom_site_symmetry_multiplicity
 _atom_site_fract_x
 _atom_site_fract_y
 _atom_site_fract_z
 _atom_site_occupancy
  Rb  Rb0  1  0.79146800  0.20037600  0.75236200  1
  Rb  Rb1  1  0.20773900  0.79450700  0.24728700  1
  Li  Li0  1  0.08751900  0.47024900  0.06007200  1
  Nd  Nd0  1  0.25354900  0.82202100  0.71364500  1
  Nd  Nd1  1  0.74430000  0.18870700  0.27053400  1
  W  W0  1  0.68492600  0.68940000  0.79051500  1
  W  W1  1  0.69416700  0.67951200  0.28949200  1
  W  W2  1  0.32337600  0.30362500  0.20178000  1
  W  W3  1  0.30075300  0.31720200  0.70535900  1
  O  O0  1  0.60359600  0.38257700  0.45774900  1
  O  O1  1  0.23745800  0.06255700  0.80435200  1
  O  O2  1  0.05071400  0.35551300  0.89446000  1
  O  O3  1  0.40611600  0.07890400  0.34988100  1
  O  O4  1  0.75185300  0.62578100  0.55762400  1
  O  O5  1  0.38364800  0.26435500  0.92590500  1
  O  O6  1  0.61408700  0.91465700  0.64737000  1
  O  O7  1  0.40330300  0.62053100  0.53861800  1
  O  O8  1  0.04303800  0.24225900  0.30691400  1
  O  O9  1  0.76206200  0.92842700  0.20613700  1
  O  O10  1  0.36161300  0.58517400  0.96841100  1
  O  O11  1  0.95439800  0.65202000  0.10998500  1
  O  O12  1  0.24945700  0.36720400  0.45785000  1
  O  O13  1  0.61831500  0.73205800  0.06913300  1
  O  O14  1  0.95365400  0.77742300  0.68716700  1
  O  O15  1  0.63556000  0.41996200  0.02311200  1
loop_
_geom_bond_atom_site_label_1
_geom_bond_atom_site_label_2
_geom_bond_distance
_geom_bond_site_symmetry_2
Li0 O11 1.846153 1_455
Li0 O8 1.847913 1_555
Li0 O2 1.969871 1_554
Li0 O10 1.972406 1_554
Nd0 O3 2.300603 1_565
Nd0 O1 2.320102 1_565
Nd0 O14 2.443458 1_455
Nd0 O11 2.470034 1_456
Nd0 O7 2.470173 1_555
Nd0 O10 2.504049 1_555
Nd0 O6 2.621942 1_555
Nd1 O9 2.355618 1_545
Nd1 O2 2.414396 1_654
Nd1 O6 2.426913 1_545
Nd1 O3 2.451561 1_555
Nd1 O15 2.455813 1_555
Nd1 O0 2.461244 1_555
Nd1 O8 2.496689 1_655
O0 W3 2.050851 1_555
O0 W1 2.112779 1_555
O0 Rb0 3.041247 1_555
O1 W3 1.848724 1_555
O1 Rb1 2.980042 1_546
O2 W3 1.884939 1_555
O2 Rb0 3.162208 1_455
O3 W2 1.951381 1_555
O3 Rb1 3.330823 1_545
O4 W0 1.883364 1_555
O4 W1 2.132249 1_555
O4 Rb1 3.026132 1_655
O4 Rb0 3.178968 1_555
O5 W3 1.929130 1_555
O5 W2 2.076630 1_556
O5 Rb0 2.888208 1_555
O5 Rb1 3.357501 1_546
O6 W0 1.892684 1_555
O6 Rb0 3.262370 1_565
O7 W1 1.997938 1_555
O7 W3 2.168100 1_555
O7 Rb1 3.061019 1_555
O8 W2 1.886473 1_555
O8 Rb0 2.826887 1_455
O9 W1 1.837369 1_555
O9 Rb0 3.051375 1_564
O10 W2 2.103289 1_556
O10 W0 2.138985 1_555
O10 Rb1 3.064780 1_556
O11 W1 1.876953 1_555
O11 Rb1 3.039589 1_655
O12 W3 1.957806 1_555
O12 W2 2.035649 1_555
O12 Rb0 3.035974 1_455
O12 Rb1 3.203141 1_555
O13 W1 1.889054 1_555
O13 W0 2.100815 1_554
O13 Rb1 2.902676 1_555
O13 Rb0 3.344360 1_564
O14 W0 1.843355 1_555
O14 Rb1 2.878451 1_655
O15 W0 2.012565 1_554
O15 W2 2.082360 1_555
O15 Rb0 3.091211 1_554
