# generated using pymatgen
data_Ge3(WO6)2
_symmetry_space_group_name_H-M   'P 1'
_cell_length_a   10.72267622
_cell_length_b   10.72267622
_cell_length_c   10.72267622
_cell_angle_alpha   109.47122063
_cell_angle_beta   109.47122063
_cell_angle_gamma   109.47122063
_symmetry_Int_Tables_number   1
_chemical_formula_structural   Ge3(WO6)2
_chemical_formula_sum   'Ge12 W8 O48'
_cell_volume   949.04692365
_cell_formula_units_Z   4
loop_
 _symmetry_equiv_pos_site_id
 _symmetry_equiv_pos_as_xyz
  1  'x, y, z'
loop_
 _atom_site_type_symbol
 _atom_site_label
 _atom_site_symmetry_multiplicity
 _atom_site_fract_x
 _atom_site_fract_y
 _atom_site_fract_z
 _atom_site_occupancy
  Ge  Ge0  1  0.12500000  0.75000000  0.87500000  1
  Ge  Ge1  1  0.87500000  0.25000000  0.12500000  1
  Ge  Ge2  1  0.62500000  0.37500000  0.25000000  1
  Ge  Ge3  1  0.75000000  0.87500000  0.12500000  1
  Ge  Ge4  1  0.87500000  0.12500000  0.75000000  1
  Ge  Ge5  1  0.25000000  0.62500000  0.37500000  1
  Ge  Ge6  1  0.75000000  0.37500000  0.62500000  1
  Ge  Ge7  1  0.25000000  0.12500000  0.87500000  1
  Ge  Ge8  1  0.12500000  0.87500000  0.25000000  1
  Ge  Ge9  1  0.37500000  0.62500000  0.75000000  1
  Ge  Ge10  1  0.62500000  0.75000000  0.37500000  1
  Ge  Ge11  1  0.37500000  0.25000000  0.62500000  1
  W  W0  1  0.50000000  0.50000000  0.50000000  1
  W  W1  1  0.50000000  0.00000000  0.50000000  1
  W  W2  1  0.00000000  0.50000000  0.50000000  1
  W  W3  1  0.50000000  0.50000000  0.00000000  1
  W  W4  1  0.00000000  0.00000000  0.50000000  1
  W  W5  1  0.00000000  0.50000000  0.00000000  1
  W  W6  1  0.50000000  0.00000000  0.00000000  1
  W  W7  1  0.00000000  0.00000000  0.00000000  1
  O  O0  1  0.42024000  0.81623200  0.81081500  1
  O  O1  1  0.89057600  0.39599300  0.07976000  1
  O  O2  1  0.10400700  0.99458300  0.68376800  1
  O  O3  1  0.50541700  0.60942400  0.68918500  1
  O  O4  1  0.68376800  0.07976000  0.68918500  1
  O  O5  1  0.60942400  0.68918500  0.50541700  1
  O  O6  1  0.60942400  0.42024000  0.10400700  1
  O  O7  1  0.68918500  0.50541700  0.60942400  1
  O  O8  1  0.81623200  0.50541700  0.39599300  1
  O  O9  1  0.99458300  0.81081500  0.89057600  1
  O  O10  1  0.81081500  0.89057600  0.99458300  1
  O  O11  1  0.68918500  0.68376800  0.07976000  1
  O  O12  1  0.42024000  0.10400700  0.60942400  1
  O  O13  1  0.39599300  0.81623200  0.50541700  1
  O  O14  1  0.07976000  0.68918500  0.68376800  1
  O  O15  1  0.10400700  0.60942400  0.42024000  1
  O  O16  1  0.50541700  0.39599300  0.81623200  1
  O  O17  1  0.07976000  0.89057600  0.39599300  1
  O  O18  1  0.99458300  0.68376800  0.10400700  1
  O  O19  1  0.18376800  0.49458300  0.60400700  1
  O  O20  1  0.68376800  0.10400700  0.99458300  1
  O  O21  1  0.81081500  0.42024000  0.81623200  1
  O  O22  1  0.39599300  0.07976000  0.89057600  1
  O  O23  1  0.89057600  0.99458300  0.81081500  1
  O  O24  1  0.57976000  0.18376800  0.18918500  1
  O  O25  1  0.10942400  0.60400700  0.92024000  1
  O  O26  1  0.89599300  0.00541700  0.31623200  1
  O  O27  1  0.49458300  0.39057600  0.31081500  1
  O  O28  1  0.31623200  0.92024000  0.31081500  1
  O  O29  1  0.39057600  0.31081500  0.49458300  1
  O  O30  1  0.39057600  0.57976000  0.89599300  1
  O  O31  1  0.31081500  0.49458300  0.39057600  1
  O  O32  1  0.10942400  0.00541700  0.18918500  1
  O  O33  1  0.60400700  0.92024000  0.10942400  1
  O  O34  1  0.18918500  0.57976000  0.18376800  1
  O  O35  1  0.18376800  0.18918500  0.57976000  1
  O  O36  1  0.31623200  0.89599300  0.00541700  1
  O  O37  1  0.00541700  0.31623200  0.89599300  1
  O  O38  1  0.92024000  0.10942400  0.60400700  1
  O  O39  1  0.49458300  0.60400700  0.18376800  1
  O  O40  1  0.89599300  0.39057600  0.57976000  1
  O  O41  1  0.92024000  0.31081500  0.31623200  1
  O  O42  1  0.60400700  0.18376800  0.49458300  1
  O  O43  1  0.57976000  0.89599300  0.39057600  1
  O  O44  1  0.31081500  0.31623200  0.92024000  1
  O  O45  1  0.18918500  0.10942400  0.00541700  1
  O  O46  1  0.00541700  0.18918500  0.10942400  1
  O  O47  1  0.81623200  0.81081500  0.42024000  1
loop_
_geom_bond_atom_site_label_1
_geom_bond_atom_site_label_2
_geom_bond_distance
_geom_bond_site_symmetry_2
Ge0 O14 1.760606 1_555
Ge0 O9 1.760608 1_455
Ge0 O36 1.760608 1_556
Ge0 O25 1.760615 1_555
Ge1 O41 1.760606 1_555
Ge1 O20 1.760608 1_554
Ge1 O46 1.760608 1_655
Ge1 O1 1.760615 1_555
Ge2 O24 1.760606 1_555
Ge2 O8 1.760608 1_555
Ge2 O27 1.760608 1_555
Ge2 O6 1.760615 1_555
Ge3 O11 1.760606 1_555
Ge3 O10 1.760608 1_554
Ge3 O26 1.760608 1_565
Ge3 O33 1.760615 1_555
Ge4 O4 1.760606 1_555
Ge4 O23 1.760608 1_545
Ge4 O37 1.760608 1_655
Ge4 O38 1.760615 1_555
Ge5 O34 1.760606 1_555
Ge5 O13 1.760608 1_555
Ge5 O31 1.760608 1_555
Ge5 O15 1.760615 1_555
Ge6 O21 1.760606 1_555
Ge6 O7 1.760608 1_555
Ge6 O42 1.760608 1_555
Ge6 O40 1.760615 1_555
Ge7 O44 1.760606 1_555
Ge7 O2 1.760608 1_545
Ge7 O45 1.760608 1_556
Ge7 O22 1.760615 1_555
Ge8 O28 1.760606 1_555
Ge8 O18 1.760608 1_455
Ge8 O32 1.760608 1_565
Ge8 O17 1.760615 1_555
Ge9 O0 1.760606 1_555
Ge9 O3 1.760608 1_555
Ge9 O19 1.760608 1_555
Ge9 O30 1.760615 1_555
Ge10 O47 1.760606 1_555
Ge10 O5 1.760608 1_555
Ge10 O39 1.760608 1_555
Ge10 O43 1.760615 1_555
Ge11 O35 1.760606 1_555
Ge11 O16 1.760608 1_555
Ge11 O29 1.760608 1_555
Ge11 O12 1.760615 1_555
O0 W6 1.945352 1_566
O1 W5 1.945341 1_655
O2 W4 1.945350 1_565
O3 W0 1.945350 1_555
O4 W1 1.945352 1_555
O5 W0 1.945350 1_555
O6 W3 1.945341 1_555
O7 W0 1.945350 1_555
O8 W2 1.945350 1_655
O9 W7 1.945350 1_666
O10 W7 1.945350 1_666
O11 W3 1.945352 1_555
O12 W1 1.945341 1_555
O13 W1 1.945350 1_565
O14 W2 1.945352 1_555
O15 W2 1.945341 1_555
O16 W3 1.945350 1_556
O17 W4 1.945341 1_565
O18 W5 1.945350 1_655
O19 W2 1.945350 1_555
O20 W6 1.945350 1_556
O21 W5 1.945352 1_656
O22 W6 1.945341 1_556
O23 W7 1.945350 1_666
O24 W6 1.945352 1_555
O25 W5 1.945341 1_556
O26 W4 1.945350 1_655
O27 W0 1.945350 1_555
O28 W1 1.945352 1_565
O29 W0 1.945350 1_555
O30 W3 1.945341 1_556
O31 W0 1.945350 1_555
O32 W7 1.945350 1_555
O33 W6 1.945341 1_565
O34 W5 1.945352 1_555
O35 W4 1.945352 1_555
O36 W6 1.945350 1_565
O37 W5 1.945350 1_556
O38 W4 1.945341 1_655
O39 W3 1.945350 1_555
O40 W2 1.945341 1_655
O41 W2 1.945352 1_655
O42 W1 1.945350 1_555
O43 W1 1.945341 1_565
O44 W3 1.945352 1_556
O45 W7 1.945350 1_555
O46 W7 1.945350 1_555
O47 W4 1.945352 1_665
