# generated using pymatgen
data_Ba2Ga7Ag
_symmetry_space_group_name_H-M   'P 1'
_cell_length_a   4.56636332
_cell_length_b   4.56636332
_cell_length_c   10.87451912
_cell_angle_alpha   90.00000000
_cell_angle_beta   90.00000000
_cell_angle_gamma   90.00000000
_symmetry_Int_Tables_number   1
_chemical_formula_structural   Ba2Ga7Ag
_chemical_formula_sum   'Ba2 Ga7 Ag1'
_cell_volume   226.75192727
_cell_formula_units_Z   1
loop_
 _symmetry_equiv_pos_site_id
 _symmetry_equiv_pos_as_xyz
  1  'x, y, z'
loop_
 _atom_site_type_symbol
 _atom_site_label
 _atom_site_symmetry_multiplicity
 _atom_site_fract_x
 _atom_site_fract_y
 _atom_site_fract_z
 _atom_site_occupancy
  Ba  Ba0  1  0.50000000  -0.00000000  0.74641181  1
  Ba  Ba1  1  -0.00000000  0.50000000  0.25358819  1
  Ga  Ga0  1  0.00000000  0.50000000  0.87178032  1
  Ga  Ga1  1  0.50000000  -0.00000000  0.37121434  1
  Ga  Ga2  1  0.50000000  0.00000000  0.12821968  1
  Ga  Ga3  1  -0.00000000  0.50000000  0.62878566  1
  Ga  Ga4  1  -0.00000000  -0.00000000  0.50000000  1
  Ga  Ga5  1  -0.00000000  -0.00000000  0.00000000  1
  Ga  Ga6  1  0.50000000  0.50000000  0.50000000  1
  Ag  Ag0  1  0.50000000  0.50000000  0.00000000  1
loop_
_geom_bond_atom_site_label_1
_geom_bond_atom_site_label_2
_geom_bond_distance
_geom_bond_site_symmetry_2
Ba0 Ga3 3.473040 1_645
Ba0 Ga3 3.473040 1_655
Ba0 Ga3 3.473040 1_545
Ba0 Ga3 3.473040 1_555
Ba0 Ga0 3.504923 1_555
Ba0 Ga0 3.504923 1_645
Ba0 Ga0 3.504923 1_655
Ba0 Ga0 3.504923 1_545
Ba0 Ga4 3.520402 1_655
Ba0 Ga6 3.520402 1_555
Ba0 Ga6 3.520402 1_545
Ba0 Ga4 3.520402 1_555
Ba0 Ga5 3.580161 1_656
Ba0 Ga5 3.580161 1_556
Ba1 Ga1 3.473040 1_565
Ba1 Ga1 3.473040 1_465
Ba1 Ga1 3.473040 1_555
Ba1 Ga1 3.473040 1_455
Ba1 Ga2 3.504923 1_565
Ba1 Ga2 3.504923 1_555
Ba1 Ga2 3.504923 1_465
Ba1 Ga2 3.504923 1_455
Ba1 Ga6 3.520402 1_455
Ba1 Ga6 3.520402 1_555
Ba1 Ga4 3.520402 1_565
Ba1 Ga4 3.520402 1_555
Ba1 Ga5 3.580161 1_565
Ba1 Ga5 3.580161 1_555
Ga0 Ga3 2.642450 1_555
Ga0 Ga5 2.675270 1_556
Ga0 Ga5 2.675270 1_566
Ga1 Ga2 2.642450 1_555
Ga1 Ga6 2.678483 1_555
Ga1 Ga6 2.678483 1_545
Ga1 Ga4 2.678483 1_555
Ga1 Ga4 2.678483 1_655
Ga2 Ga5 2.675270 1_655
Ga2 Ga5 2.675270 1_555
Ga3 Ga6 2.678483 1_555
Ga3 Ga4 2.678483 1_555
Ga3 Ga6 2.678483 1_455
Ga3 Ga4 2.678483 1_565
Ag0 Ga0 2.675270 1_654
Ag0 Ga0 2.675270 1_554
Ag0 Ga2 2.675270 1_555
Ag0 Ga2 2.675270 1_565
Ag0 Ba0 3.580161 1_554
Ag0 Ba1 3.580161 1_555
Ag0 Ba0 3.580161 1_564
Ag0 Ba1 3.580161 1_655
