# generated using pymatgen
data_Te4Mo(OF4)5
_symmetry_space_group_name_H-M   'P 1'
_cell_length_a   9.60533000
_cell_length_b   10.26657610
_cell_length_c   10.56441037
_cell_angle_alpha   108.34143500
_cell_angle_beta   88.12184086
_cell_angle_gamma   97.77302337
_symmetry_Int_Tables_number   1
_chemical_formula_structural   Te4Mo(OF4)5
_chemical_formula_sum   'Te8 Mo2 O10 F40'
_cell_volume   979.73281439
_cell_formula_units_Z   2
loop_
 _symmetry_equiv_pos_site_id
 _symmetry_equiv_pos_as_xyz
  1  'x, y, z'
loop_
 _atom_site_type_symbol
 _atom_site_label
 _atom_site_symmetry_multiplicity
 _atom_site_fract_x
 _atom_site_fract_y
 _atom_site_fract_z
 _atom_site_occupancy
  Te  Te0  1  0.67397900  0.45748900  0.19534800  1
  Te  Te1  1  0.32602100  0.54251100  0.80465200  1
  Te  Te2  1  0.79912000  0.81858700  0.68225100  1
  Te  Te3  1  0.20088000  0.18141300  0.31774900  1
  Te  Te4  1  0.80233500  0.30634800  0.67948600  1
  Te  Te5  1  0.19766500  0.69365200  0.32051400  1
  Te  Te6  1  0.66965100  0.96758200  0.19026600  1
  Te  Te7  1  0.33034900  0.03241800  0.80973400  1
  Mo  Mo0  1  0.77266900  0.15742400  0.94618400  1
  Mo  Mo1  1  0.22733100  0.84257600  0.05381600  1
  O  O0  1  0.71794200  0.24769500  0.82255200  1
  O  O1  1  0.28205800  0.75230500  0.17744800  1
  O  O2  1  0.65580400  0.26989900  0.07842500  1
  O  O3  1  0.34419600  0.73010100  0.92157500  1
  O  O4  1  0.82028100  0.00468000  0.79753400  1
  O  O5  1  0.17971900  0.99532000  0.20246600  1
  O  O6  1  0.93428200  0.24191300  0.99282900  1
  O  O7  1  0.06571800  0.75808700  0.00717100  1
  O  O8  1  0.75223300  0.02554400  0.04970500  1
  O  O9  1  0.24776700  0.97445600  0.95029500  1
  F  F0  1  0.77475100  0.51816900  0.06474400  1
  F  F1  1  0.22524900  0.48183100  0.93525600  1
  F  F2  1  0.50516100  0.48322700  0.12956500  1
  F  F3  1  0.49483900  0.51677300  0.87043500  1
  F  F4  1  0.90455500  0.86936600  0.54971500  1
  F  F5  1  0.09544500  0.13063400  0.45028500  1
  F  F6  1  0.96551000  0.79047800  0.75121500  1
  F  F7  1  0.03449000  0.20952200  0.24878500  1
  F  F8  1  0.57973300  0.91154700  0.32736500  1
  F  F9  1  0.42026700  0.08845300  0.67263500  1
  F  F10  1  0.83047100  0.49064800  0.78897100  1
  F  F11  1  0.16952900  0.50935200  0.21102900  1
  F  F12  1  0.98031900  0.28038800  0.72827400  1
  F  F13  1  0.01968100  0.71961200  0.27172600  1
  F  F14  1  0.69355100  0.64114900  0.30577700  1
  F  F15  1  0.30644900  0.35885100  0.69422300  1
  F  F16  1  0.63450500  0.84456700  0.60906700  1
  F  F17  1  0.36549500  0.15543300  0.39093300  1
  F  F18  1  0.68221800  0.15013700  0.30377900  1
  F  F19  1  0.31778200  0.84986300  0.69622100  1
  F  F20  1  0.57267500  0.40346500  0.32838700  1
  F  F21  1  0.42732500  0.59653500  0.67161300  1
  F  F22  1  0.48583800  0.97942600  0.13225500  1
  F  F23  1  0.51416200  0.02057400  0.86774500  1
  F  F24  1  0.88629200  0.36130200  0.53936800  1
  F  F25  1  0.11370800  0.63869800  0.46063200  1
  F  F26  1  0.77369700  0.12357500  0.56526500  1
  F  F27  1  0.22630300  0.87642500  0.43473500  1
  F  F28  1  0.84287900  0.94600500  0.25065800  1
  F  F29  1  0.15712100  0.05399500  0.74934200  1
  F  F30  1  0.77641700  0.63460900  0.57302700  1
  F  F31  1  0.22358300  0.36539100  0.42697300  1
  F  F32  1  0.64824000  0.78267500  0.08331700  1
  F  F33  1  0.35176000  0.21732500  0.91668300  1
  F  F34  1  0.84161400  0.43499900  0.26707900  1
  F  F35  1  0.15838600  0.56500100  0.73292100  1
  F  F36  1  0.69604100  0.76081300  0.81279700  1
  F  F37  1  0.30395900  0.23918700  0.18720300  1
  F  F38  1  0.62766600  0.33326000  0.62690000  1
  F  F39  1  0.37233400  0.66674000  0.37310000  1
loop_
_geom_bond_atom_site_label_1
_geom_bond_atom_site_label_2
_geom_bond_distance
_geom_bond_site_symmetry_2
Mo0 O6 1.679854 1_555
Mo0 O4 1.931699 1_555
Mo0 O2 1.943645 1_556
Mo0 O0 1.944153 1_555
Mo0 O8 1.978314 1_556
Mo1 O7 1.679854 1_555
Mo1 O5 1.931699 1_555
Mo1 O3 1.943645 1_554
Mo1 O1 1.944153 1_555
Mo1 O9 1.978314 1_554
O0 Te4 1.914291 1_555
O1 Te5 1.914291 1_555
O2 Te0 1.921292 1_555
O3 Te1 1.921292 1_555
O4 Te2 1.903027 1_545
O5 Te3 1.903027 1_565
O8 Te6 1.881387 1_545
O9 Te7 1.881387 1_565
F0 Te0 1.875915 1_555
F1 Te1 1.875915 1_555
F2 Te0 1.867503 1_555
F3 Te1 1.867503 1_555
F4 Te2 1.865882 1_555
F5 Te3 1.865882 1_555
F6 Te2 1.871319 1_555
F7 Te3 1.871319 1_555
F8 Te6 1.866198 1_555
F9 Te7 1.866198 1_555
F10 Te4 1.869713 1_555
F11 Te5 1.869713 1_555
F12 Te4 1.877995 1_555
F13 Te5 1.877995 1_555
F14 Te0 1.867016 1_555
F15 Te1 1.867016 1_555
F16 Te2 1.868965 1_555
F17 Te3 1.868965 1_555
F18 Te6 1.870589 1_545
F19 Te7 1.870589 1_565
F20 Te0 1.866766 1_555
F21 Te1 1.866766 1_555
F22 Te6 1.919261 1_555
F23 Te7 1.919261 1_555
F24 Te4 1.866579 1_555
F25 Te5 1.866579 1_555
F26 Te4 1.873475 1_555
F27 Te5 1.873475 1_555
F28 Te6 1.866270 1_555
F29 Te7 1.866270 1_555
F30 Te2 1.865493 1_555
F31 Te3 1.865493 1_555
F32 Te6 1.866112 1_555
F33 Te7 1.866112 1_555
F34 Te0 1.873752 1_555
F35 Te1 1.873752 1_555
F36 Te2 1.870997 1_555
F37 Te3 1.870997 1_555
F38 Te4 1.866255 1_555
F39 Te5 1.866255 1_555
