# generated using pymatgen
data_Ba4LaTiNb3O15
_symmetry_space_group_name_H-M   'P 1'
_cell_length_a   5.81119655
_cell_length_b   5.81119655
_cell_length_c   11.84676000
_cell_angle_alpha   90.00000000
_cell_angle_beta   90.00000000
_cell_angle_gamma   120.00000629
_symmetry_Int_Tables_number   1
_chemical_formula_structural   Ba4LaTiNb3O15
_chemical_formula_sum   'Ba4 La1 Ti1 Nb3 O15'
_cell_volume   346.46656008
_cell_formula_units_Z   1
loop_
 _symmetry_equiv_pos_site_id
 _symmetry_equiv_pos_as_xyz
  1  'x, y, z'
loop_
 _atom_site_type_symbol
 _atom_site_label
 _atom_site_symmetry_multiplicity
 _atom_site_fract_x
 _atom_site_fract_y
 _atom_site_fract_z
 _atom_site_occupancy
  Ba  Ba0  1  0.66666700  0.33333300  0.42531600  1
  Ba  Ba1  1  0.00000000  0.00000000  0.57480400  1
  Ba  Ba2  1  0.33333300  0.66666700  0.00205600  1
  Ba  Ba3  1  0.66666700  0.33333300  0.79496900  1
  La  La0  1  0.00000000  0.00000000  0.21400900  1
  Ti  Ti0  1  0.66666700  0.33333300  0.10572300  1
  Nb  Nb0  1  0.33333300  0.66666700  0.68398100  1
  Nb  Nb1  1  0.33333300  0.66666700  0.30741000  1
  Nb  Nb2  1  0.00000000  0.00000000  0.90182700  1
  O  O0  1  0.00270800  0.50135400  0.61039200  1
  O  O1  1  0.49864600  0.50135400  0.61039200  1
  O  O2  1  0.49864600  0.99729200  0.61039200  1
  O  O3  1  0.67591000  0.83795500  0.37632200  1
  O  O4  1  0.16204500  0.83795500  0.37632200  1
  O  O5  1  0.16204500  0.32409000  0.37632200  1
  O  O6  1  0.99455800  0.49727900  0.19292500  1
  O  O7  1  0.50272100  0.49727900  0.19292500  1
  O  O8  1  0.50272100  0.00544200  0.19292500  1
  O  O9  1  0.67066400  0.83533200  0.80890800  1
  O  O10  1  0.16466800  0.83533200  0.80890800  1
  O  O11  1  0.16466800  0.32933600  0.80890800  1
  O  O12  1  0.83585800  0.16414200  0.00808600  1
  O  O13  1  0.83585800  0.67171500  0.00808600  1
  O  O14  1  0.32828500  0.16414200  0.00808600  1
loop_
_geom_bond_atom_site_label_1
_geom_bond_atom_site_label_2
_geom_bond_distance
_geom_bond_site_symmetry_2
Ba0 O0 2.768998 1_655
Ba0 O2 2.768998 1_545
Ba0 O1 2.769001 1_555
Ba0 O5 2.963366 1_655
Ba0 O3 2.963366 1_545
Ba0 O4 2.963368 1_545
Ba0 O4 2.963368 1_655
Ba0 O3 2.963371 1_555
Ba0 O5 2.963371 1_555
Ba0 O6 3.209747 1_555
Ba0 O8 3.209747 1_555
Ba0 O7 3.209750 1_555
Ba1 O3 2.861676 1_445
Ba1 O5 2.861676 1_555
Ba1 O4 2.861676 1_545
Ba1 O1 2.936058 1_555
Ba1 O1 2.936058 1_445
Ba1 O0 2.936058 1_555
Ba1 O2 2.936058 1_445
Ba1 O0 2.936058 1_545
Ba1 O2 2.936058 1_545
Ba1 O11 3.230895 1_555
Ba1 O9 3.230895 1_445
Ba1 O10 3.230895 1_545
Ba2 O8 2.831913 1_565
Ba2 O6 2.831913 1_455
Ba2 O7 2.831916 1_555
Ba2 O10 2.849178 1_554
Ba2 O9 2.849181 1_554
Ba2 O11 2.849181 1_554
Ba2 O14 2.906582 1_565
Ba2 O13 2.906582 1_455
Ba2 O12 2.906587 1_565
Ba2 O12 2.906587 1_455
Ba2 O13 2.906593 1_555
Ba2 O14 2.906593 1_555
Ba3 O0 2.764320 1_655
Ba3 O2 2.764320 1_545
Ba3 O1 2.764323 1_555
Ba3 O11 2.910354 1_655
Ba3 O9 2.910354 1_545
Ba3 O10 2.910356 1_655
Ba3 O10 2.910356 1_545
Ba3 O9 2.910359 1_555
Ba3 O11 2.910359 1_555
Ba3 O14 3.045390 1_556
Ba3 O13 3.045390 1_556
Ba3 O12 3.045390 1_556
La0 O5 2.521455 1_555
La0 O3 2.521455 1_445
La0 O4 2.521455 1_545
La0 O7 2.916443 1_555
La0 O7 2.916443 1_445
La0 O8 2.916443 1_555
La0 O6 2.916443 1_445
La0 O6 2.916443 1_455
La0 O8 2.916443 1_455
La0 O12 2.946322 1_455
La0 O13 2.946325 1_445
La0 O14 2.946325 1_555
Nb0 O0 1.878468 1_555
Nb0 O2 1.878468 1_555
Nb0 O1 1.878473 1_555
Nb0 O10 2.252198 1_555
Nb0 O9 2.252202 1_555
Nb0 O11 2.252202 1_555
Nb1 O4 1.907584 1_555
Nb1 O5 1.907588 1_555
Nb1 O3 1.907588 1_555
Nb1 O8 2.178597 1_565
Nb1 O6 2.178597 1_455
Nb1 O7 2.178601 1_555
Nb2 O11 1.989677 1_555
Nb2 O9 1.989677 1_445
Nb2 O10 1.989677 1_545
Nb2 O12 2.077064 1_456
Nb2 O14 2.077068 1_556
Nb2 O13 2.077068 1_446
O6 Ti0 1.946853 1_555
O7 Ti0 1.946858 1_555
O8 Ti0 1.946853 1_555
O12 Ti0 2.058634 1_555
O13 Ti0 2.058634 1_555
O14 Ti0 2.058634 1_555
