# generated using pymatgen
data_MnNb2ZnO8
_symmetry_space_group_name_H-M   'P 1'
_cell_length_a   10.24492945
_cell_length_b   10.24492945
_cell_length_c   5.10545078
_cell_angle_alpha   86.29549951
_cell_angle_beta   86.29549951
_cell_angle_gamma   32.80126732
_symmetry_Int_Tables_number   1
_chemical_formula_structural   MnNb2ZnO8
_chemical_formula_sum   'Mn2 Nb4 Zn2 O16'
_cell_volume   289.63103864
_cell_formula_units_Z   2
loop_
 _symmetry_equiv_pos_site_id
 _symmetry_equiv_pos_as_xyz
  1  'x, y, z'
loop_
 _atom_site_type_symbol
 _atom_site_label
 _atom_site_symmetry_multiplicity
 _atom_site_fract_x
 _atom_site_fract_y
 _atom_site_fract_z
 _atom_site_occupancy
  Mn  Mn0  1  0.35986900  0.64013100  0.00000000  1
  Mn  Mn1  1  0.64985500  0.35014500  0.50000000  1
  Nb  Nb0  1  0.69749100  0.06175500  0.00244200  1
  Nb  Nb1  1  0.93824500  0.30250900  0.99755800  1
  Nb  Nb2  1  0.29595300  0.93508300  0.49035500  1
  Nb  Nb3  1  0.06491700  0.70404700  0.50964500  1
  Zn  Zn0  1  0.43497800  0.11375600  0.55624100  1
  Zn  Zn1  1  0.88624400  0.56502200  0.44375900  1
  O  O0  1  0.81279300  0.06943700  0.65868300  1
  O  O1  1  0.93056300  0.18720700  0.34131700  1
  O  O2  1  0.19601800  0.92258900  0.83071300  1
  O  O3  1  0.07741100  0.80398200  0.16928700  1
  O  O4  1  0.55791500  0.33781400  0.18795900  1
  O  O5  1  0.66218600  0.44208500  0.81204100  1
  O  O6  1  0.44579100  0.65895100  0.31356600  1
  O  O7  1  0.34104900  0.55420900  0.68643400  1
  O  O8  1  0.72936800  0.93453000  0.34186900  1
  O  O9  1  0.06547000  0.27063200  0.65813100  1
  O  O10  1  0.16896800  0.44913400  0.41067300  1
  O  O11  1  0.55086600  0.83103200  0.58932700  1
  O  O12  1  0.79787300  0.56466300  0.11601400  1
  O  O13  1  0.43533700  0.20212700  0.88398600  1
  O  O14  1  0.92444700  0.75089600  0.83231500  1
  O  O15  1  0.24910400  0.07555300  0.16768500  1
loop_
_geom_bond_atom_site_label_1
_geom_bond_atom_site_label_2
_geom_bond_distance
_geom_bond_site_symmetry_2
Mn0 O3 1.907050 1_555
Mn0 O2 1.907050 1_554
Mn0 O6 1.970335 1_555
Mn0 O7 1.970335 1_554
Mn0 O5 1.983308 1_554
Mn0 O4 1.983308 1_555
Mn1 O1 1.875272 1_555
Mn1 O0 1.875272 1_555
Mn1 O5 1.964974 1_555
Mn1 O4 1.964974 1_555
Mn1 O6 2.008645 1_555
Mn1 O7 2.008645 1_555
Nb0 O13 1.803207 1_554
Nb0 O8 1.968309 1_545
Nb0 O14 1.987751 1_544
Nb0 O4 2.076777 1_555
Nb0 O0 2.086215 1_554
Nb0 O3 2.388967 1_645
Nb1 O12 1.803207 1_556
Nb1 O9 1.968309 1_655
Nb1 O15 1.987751 1_656
Nb1 O5 2.076777 1_555
Nb1 O1 2.086215 1_556
Nb1 O2 2.388967 1_645
Nb2 O11 1.905990 1_555
Nb2 O15 1.910467 1_565
Nb2 O6 2.006120 1_555
Nb2 O2 2.011421 1_555
Nb2 O9 2.144766 1_565
Nb2 O1 2.263408 1_465
Nb3 O10 1.905990 1_555
Nb3 O14 1.910467 1_455
Nb3 O7 2.006120 1_555
Nb3 O3 2.011421 1_555
Nb3 O8 2.144766 1_455
Nb3 O0 2.263408 1_465
O8 Zn0 2.046705 1_565
O9 Zn1 2.046705 1_455
O10 Zn0 1.993778 1_555
O10 Zn1 2.002324 1_455
O11 Zn1 1.993778 1_555
O11 Zn0 2.002324 1_565
O12 Zn1 1.954922 1_555
O13 Zn0 1.954922 1_555
