# generated using pymatgen
data_Dy2Re2Si2C
_symmetry_space_group_name_H-M   'P 1'
_cell_length_a   5.81457028
_cell_length_b   5.81457028
_cell_length_c   6.91474678
_cell_angle_alpha   54.82714108
_cell_angle_beta   54.82714108
_cell_angle_gamma   40.21303504
_symmetry_Int_Tables_number   1
_chemical_formula_structural   Dy2Re2Si2C
_chemical_formula_sum   'Dy2 Re2 Si2 C1'
_cell_volume   119.20242186
_cell_formula_units_Z   1
loop_
 _symmetry_equiv_pos_site_id
 _symmetry_equiv_pos_as_xyz
  1  'x, y, z'
loop_
 _atom_site_type_symbol
 _atom_site_label
 _atom_site_symmetry_multiplicity
 _atom_site_fract_x
 _atom_site_fract_y
 _atom_site_fract_z
 _atom_site_occupancy
  Dy  Dy0  1  0.42805068  0.42805068  0.29936973  1
  Dy  Dy1  1  0.57194932  0.57194932  0.70063027  1
  Re  Re0  1  0.79255394  0.79255394  0.09443210  1
  Re  Re1  1  0.20744606  0.20744606  0.90556790  1
  Si  Si0  1  0.85697479  0.85697479  0.68587499  1
  Si  Si1  1  0.14302521  0.14302521  0.31412501  1
  C  C0  1  0.00000000  0.00000000  -0.00000000  1
loop_
_geom_bond_atom_site_label_1
_geom_bond_atom_site_label_2
_geom_bond_distance
_geom_bond_site_symmetry_2
Dy0 Si0 3.032422 1_545
Dy0 Si0 3.032422 1_455
Dy0 Si1 3.051070 1_555
Dy0 Si1 3.132245 1_655
Dy0 Si1 3.132245 1_565
Dy1 Si1 3.032422 1_565
Dy1 Si1 3.032422 1_655
Dy1 Si0 3.051070 1_555
Dy1 Si0 3.132245 1_545
Dy1 Si0 3.132245 1_455
Re0 Si1 2.434381 1_655
Re0 Si1 2.434381 1_565
Re0 Si0 2.457156 1_554
Re1 Si0 2.434381 1_455
Re1 Si0 2.434381 1_545
Re1 Si1 2.457156 1_556
Si0 Si1 2.552306 1_665
C0 Re1 1.934829 1_554
C0 Re0 1.934829 1_445
C0 Dy0 2.627256 1_455
C0 Dy0 2.627256 1_545
C0 Dy1 2.627256 1_454
C0 Dy1 2.627256 1_544
