# generated using pymatgen
data_Ge13Sb13Te32
_symmetry_space_group_name_H-M   'P 1'
_cell_length_a   12.35538678
_cell_length_b   12.42291707
_cell_length_c   12.26784295
_cell_angle_alpha   90.00502507
_cell_angle_beta   90.25590119
_cell_angle_gamma   88.61684884
_symmetry_Int_Tables_number   1
_chemical_formula_structural   Ge13Sb13Te32
_chemical_formula_sum   'Ge13 Sb13 Te32'
_cell_volume   1882.42312292
_cell_formula_units_Z   1
loop_
 _symmetry_equiv_pos_site_id
 _symmetry_equiv_pos_as_xyz
  1  'x, y, z'
loop_
 _atom_site_type_symbol
 _atom_site_label
 _atom_site_symmetry_multiplicity
 _atom_site_fract_x
 _atom_site_fract_y
 _atom_site_fract_z
 _atom_site_occupancy
  Ge  Ge0  1  0.22793195  0.23966438  0.00196688  1
  Ge  Ge1  1  0.73742715  0.23470184  0.99965688  1
  Ge  Ge2  1  0.24262307  0.72510438  0.00080687  1
  Ge  Ge3  1  0.23078490  0.99008635  0.25022749  1
  Ge  Ge4  1  0.74356407  0.99460927  0.25377688  1
  Ge  Ge5  1  0.73230325  0.49096225  0.25967854  1
  Ge  Ge6  1  0.50489146  0.73095175  0.24834308  1
  Ge  Ge7  1  0.73715690  0.23566108  0.49678866  1
  Ge  Ge8  1  0.51367427  0.50678720  0.49844711  1
  Ge  Ge9  1  0.73756981  0.72297404  0.49961495  1
  Ge  Ge10  1  0.24392680  0.99464696  0.74832218  1
  Ge  Ge11  1  0.99838786  0.23846957  0.75513138  1
  Ge  Ge12  1  0.73916898  0.49662772  0.76567792  1
  Sb  Sb0  1  0.99579563  0.02080655  0.00284885  1
  Sb  Sb1  1  0.50172669  0.00955464  0.99759934  1
  Sb  Sb2  1  0.74386778  0.72464016  0.99573087  1
  Sb  Sb3  1  0.51457793  0.23884302  0.24809158  1
  Sb  Sb4  1  0.22491762  0.48918315  0.24349123  1
  Sb  Sb5  1  0.99726663  0.73696155  0.24836137  1
  Sb  Sb6  1  0.99136218  0.01772124  0.49903045  1
  Sb  Sb7  1  0.22615490  0.23599996  0.49597229  1
  Sb  Sb8  1  0.24075356  0.73354838  0.49762821  1
  Sb  Sb9  1  0.51026824  0.22978862  0.74744801  1
  Sb  Sb10  1  0.23096567  0.49223310  0.75779485  1
  Sb  Sb11  1  0.99508899  0.72938797  0.75146174  1
  Sb  Sb12  1  0.50594279  0.73126195  0.74112988  1
  Te  Te0  1  0.25036431  0.01286950  0.00150268  1
  Te  Te1  1  0.75323940  0.01189058  0.00302735  1
  Te  Te2  1  0.00423606  0.25776682  0.99207794  1
  Te  Te3  1  0.51017375  0.25884338  0.99678300  1
  Te  Te4  1  0.27585095  0.50581586  0.00099966  1
  Te  Te5  1  0.76045704  0.50047763  0.99633659  1
  Te  Te6  1  0.01002246  0.76381672  0.99883223  1
  Te  Te7  1  0.50158793  0.76379230  0.00485705  1
  Te  Te8  1  0.00900462  0.00619645  0.24909372  1
  Te  Te9  1  0.51459629  0.00582815  0.25361775  1
  Te  Te10  1  0.25311103  0.25375108  0.24445260  1
  Te  Te11  1  0.75232220  0.26110674  0.25217461  1
  Te  Te12  1  0.99679391  0.50525194  0.25122009  1
  Te  Te13  1  0.50795894  0.51088837  0.25468451  1
  Te  Te14  1  0.25850162  0.75613411  0.24450667  1
  Te  Te15  1  0.74849977  0.75811505  0.25728517  1
  Te  Te16  1  0.25827657  0.00728929  0.49968232  1
  Te  Te17  1  0.75490540  0.01322070  0.49398439  1
  Te  Te18  1  0.99670526  0.25829764  0.50485300  1
  Te  Te19  1  0.51125232  0.26589668  0.50010157  1
  Te  Te20  1  0.26258276  0.50409613  0.49982429  1
  Te  Te21  1  0.75073620  0.50534551  0.49411632  1
  Te  Te22  1  0.00130756  0.76192357  0.50078594  1
  Te  Te23  1  0.50909979  0.75765510  0.49684592  1
  Te  Te24  1  0.01059179  0.01145875  0.75077853  1
  Te  Te25  1  0.49920288  0.00330785  0.75153989  1
  Te  Te26  1  0.24975180  0.25591158  0.75579884  1
  Te  Te27  1  0.75613496  0.26614496  0.75316155  1
  Te  Te28  1  0.00032827  0.49910777  0.74306973  1
  Te  Te29  1  0.51111989  0.50247961  0.74718710  1
  Te  Te30  1  0.25122276  0.75859015  0.75524192  1
  Te  Te31  1  0.75196246  0.75555291  0.74654957  1
loop_
_geom_bond_atom_site_label_1
_geom_bond_atom_site_label_2
_geom_bond_distance
_geom_bond_site_symmetry_2
Ge0 Te2 2.769685 1_554
Ge0 Te0 2.824396 1_555
Ge0 Te10 2.995158 1_555
Ge0 Te26 3.040317 1_554
Ge1 Te1 2.770443 1_556
Ge1 Te3 2.816632 1_555
Ge1 Te27 3.059606 1_555
Ge1 Te11 3.120220 1_556
Ge1 Te5 3.321054 1_555
Ge2 Te4 2.745147 1_555
Ge2 Te6 2.902354 1_554
Ge2 Te14 3.020501 1_555
Ge2 Te30 3.043850 1_554
Ge2 Te7 3.247120 1_555
Ge3 Te8 2.742631 1_565
Ge3 Te14 2.919128 1_555
Ge3 Te0 3.075584 1_565
Ge3 Te16 3.085518 1_565
Ge3 Te10 3.294503 1_565
Ge4 Te9 2.829046 1_565
Ge4 Te15 2.937424 1_555
Ge4 Te17 2.958825 1_565
Ge4 Te1 3.086706 1_565
Ge4 Te8 3.287006 1_665
Ge4 Te11 3.315116 1_565
Ge5 Te13 2.777337 1_555
Ge5 Te11 2.861723 1_555
Ge5 Te21 2.889889 1_555
Ge5 Te5 3.253319 1_554
Ge5 Te12 3.279083 1_555
Ge5 Te15 3.329803 1_555
Ge6 Te13 2.734286 1_555
Ge6 Te7 3.014778 1_555
Ge6 Te15 3.038310 1_555
Ge6 Te14 3.052906 1_555
Ge6 Te23 3.066906 1_555
Ge7 Te17 2.766987 1_555
Ge7 Te19 2.807773 1_555
Ge7 Te11 3.024633 1_555
Ge7 Te27 3.176130 1_555
Ge7 Te18 3.226959 1_555
Ge8 Te21 2.929333 1_555
Ge8 Te13 2.991369 1_555
Ge8 Te19 2.993506 1_555
Ge8 Te29 3.052294 1_555
Ge8 Te20 3.103441 1_555
Ge8 Te23 3.115721 1_555
Ge9 Te21 2.705402 1_555
Ge9 Te23 2.845279 1_555
Ge9 Te15 3.008886 1_555
Ge9 Te31 3.061187 1_555
Ge9 Te22 3.305811 1_655
Ge10 Te24 2.885759 1_565
Ge10 Te30 2.932948 1_555
Ge10 Te16 3.060480 1_565
Ge10 Te0 3.114998 1_566
Ge10 Te25 3.158534 1_565
Ge10 Te26 3.249481 1_565
Ge11 Te24 2.821041 1_655
Ge11 Te2 2.917387 1_655
Ge11 Te27 3.004543 1_555
Ge11 Te18 3.080200 1_555
Ge11 Te26 3.118436 1_655
Ge11 Te28 3.241951 1_655
Ge12 Te29 2.824927 1_555
Ge12 Te5 2.841217 1_555
Ge12 Te27 2.870028 1_555
Ge12 Te31 3.232896 1_555
Ge12 Te28 3.240743 1_655
Ge12 Te21 3.337056 1_555
Sb0 Te2 2.951091 1_654
Sb0 Te1 3.001603 1_555
Sb0 Te8 3.029791 1_655
Sb0 Te24 3.100573 1_654
Sb0 Te0 3.144577 1_655
Sb0 Te6 3.193547 1_644
Sb1 Te25 3.019650 1_555
Sb1 Te7 3.054433 1_546
Sb1 Te3 3.101187 1_555
Sb1 Te0 3.105541 1_556
Sb1 Te1 3.108789 1_556
Sb1 Te9 3.144395 1_556
Sb2 Te5 2.787355 1_555
Sb2 Te7 3.023675 1_556
Sb2 Te31 3.083344 1_555
Sb2 Te15 3.235937 1_556
Sb2 Te6 3.335913 1_655
Sb3 Te9 2.895519 1_555
Sb3 Te11 2.957256 1_555
Sb3 Te3 3.093163 1_554
Sb3 Te19 3.110150 1_555
Sb3 Te10 3.231472 1_555
Sb3 Te13 3.379582 1_555
Sb4 Te12 2.822822 1_455
Sb4 Te10 2.937081 1_555
Sb4 Te4 3.051483 1_555
Sb4 Te20 3.182880 1_555
Sb4 Te14 3.352107 1_555
Sb4 Te13 3.516019 1_555
Sb5 Te12 2.878873 1_555
Sb5 Te15 3.080931 1_555
Sb5 Te6 3.084480 1_654
Sb5 Te22 3.112464 1_655
Sb5 Te14 3.242719 1_655
Sb5 Te8 3.351331 1_665
Sb6 Te17 2.923778 1_555
Sb6 Te18 2.991822 1_555
Sb6 Te8 3.077968 1_655
Sb6 Te24 3.097313 1_655
Sb6 Te22 3.177234 1_645
Sb6 Te16 3.297223 1_655
Sb7 Te18 2.844349 1_455
Sb7 Te16 2.859673 1_555
Sb7 Te10 3.113415 1_555
Sb7 Te26 3.209588 1_555
Sb7 Te20 3.371858 1_555
Sb8 Te20 2.856827 1_555
Sb8 Te22 2.971338 1_555
Sb8 Te14 3.127080 1_555
Sb8 Te30 3.177976 1_555
Sb8 Te23 3.336267 1_555
Sb8 Te16 3.412841 1_565
Sb9 Te25 2.820628 1_555
Sb9 Te19 3.067543 1_555
Sb9 Te3 3.079996 1_555
Sb9 Te27 3.082423 1_555
Sb9 Te26 3.229377 1_555
Sb9 Te29 3.387890 1_555
Sb10 Te28 2.853749 1_555
Sb10 Te26 2.939482 1_555
Sb10 Te4 3.037686 1_556
Sb10 Te20 3.194342 1_555
Sb10 Te30 3.324563 1_555
Sb10 Te29 3.469844 1_555
Sb11 Te28 2.861775 1_655
Sb11 Te31 3.013981 1_555
Sb11 Te6 3.070012 1_655
Sb11 Te22 3.103267 1_655
Sb11 Te30 3.194176 1_655
Sb12 Te29 2.842290 1_555
Sb12 Te23 3.015277 1_555
Sb12 Te31 3.062277 1_555
Sb12 Te30 3.162776 1_555
Sb12 Te7 3.260991 1_556
Sb12 Te25 3.381035 1_565
