# generated using pymatgen
data_Na2CeO3
_symmetry_space_group_name_H-M   'P 1'
_cell_length_a   5.99928546
_cell_length_b   5.99928546
_cell_length_c   11.06323138
_cell_angle_alpha   95.23536586
_cell_angle_beta   95.23536586
_cell_angle_gamma   120.09437301
_symmetry_Int_Tables_number   1
_chemical_formula_structural   Na2CeO3
_chemical_formula_sum   'Na8 Ce4 O12'
_cell_volume   338.70484202
_cell_formula_units_Z   4
loop_
 _symmetry_equiv_pos_site_id
 _symmetry_equiv_pos_as_xyz
  1  'x, y, z'
loop_
 _atom_site_type_symbol
 _atom_site_label
 _atom_site_symmetry_multiplicity
 _atom_site_fract_x
 _atom_site_fract_y
 _atom_site_fract_z
 _atom_site_occupancy
  Na  Na0  1  0.18582606  0.84268187  0.50032908  1
  Na  Na1  1  0.65731813  0.31417394  -0.00032908  1
  Na  Na2  1  0.81417394  0.15731813  0.49967092  1
  Na  Na3  1  0.34268187  0.68582606  0.00032908  1
  Na  Na4  1  0.50000000  0.50000000  0.50000000  1
  Na  Na5  1  0.00000000  -0.00000000  -0.00000000  1
  Na  Na6  1  0.41566681  0.08433319  0.25000000  1
  Na  Na7  1  0.58433319  0.91566681  0.75000000  1
  Ce  Ce0  1  0.75016831  0.74983169  0.25000000  1
  Ce  Ce1  1  0.24983169  0.25016831  0.75000000  1
  Ce  Ce2  1  0.08271461  0.41728539  0.25000000  1
  Ce  Ce3  1  0.91728539  0.58271461  0.75000000  1
  O  O0  1  0.45457010  0.76091262  0.36190202  1
  O  O1  1  0.73908738  0.04542990  0.13809798  1
  O  O2  1  0.54542990  0.23908738  0.63809798  1
  O  O3  1  0.26091262  0.95457010  0.86190202  1
  O  O4  1  0.09056675  0.12061291  0.35919756  1
  O  O5  1  0.37938709  0.40943325  0.14080244  1
  O  O6  1  0.90943325  0.87938709  0.64080244  1
  O  O7  1  0.62061291  0.59056675  0.85919756  1
  O  O8  1  0.81495649  0.48186402  0.35924000  1
  O  O9  1  0.01813598  0.68504351  0.14076000  1
  O  O10  1  0.18504351  0.51813598  0.64076000  1
  O  O11  1  0.98186402  0.31495649  0.85924000  1
loop_
_geom_bond_atom_site_label_1
_geom_bond_atom_site_label_2
_geom_bond_distance
_geom_bond_site_symmetry_2
Na0 O6 2.446870 1_455
Na0 O8 2.447887 1_455
Na0 O2 2.495232 1_565
Na0 O0 2.508401 1_555
Na0 O10 2.597872 1_555
Na0 O4 2.610083 1_565
Na1 O7 2.446870 1_554
Na1 O9 2.447887 1_655
Na1 O3 2.495232 1_544
Na1 O1 2.508401 1_555
Na1 O11 2.597872 1_554
Na1 O5 2.610083 1_555
Na2 O4 2.446870 1_655
Na2 O10 2.447887 1_655
Na2 O0 2.495232 1_545
Na2 O2 2.508401 1_555
Na2 O8 2.597872 1_555
Na2 O6 2.610083 1_545
Na3 O5 2.446870 1_555
Na3 O11 2.447887 1_454
Na3 O1 2.495232 1_565
Na3 O3 2.508401 1_554
Na3 O9 2.597872 1_555
Na3 O7 2.610083 1_554
Na4 O0 2.376318 1_555
Na4 O2 2.376318 1_555
Na4 O4 2.586204 1_555
Na4 O6 2.586204 1_555
Na4 O8 2.592180 1_555
Na4 O10 2.592180 1_555
Na5 O1 2.376318 1_455
Na5 O3 2.376318 1_544
Na5 O7 2.586204 1_444
Na5 O5 2.586204 1_555
Na5 O11 2.592180 1_454
Na5 O9 2.592180 1_545
Na6 O8 2.470426 1_555
Na6 O9 2.470426 1_545
Na6 O5 2.473556 1_555
Na6 O4 2.473556 1_555
Na6 O0 2.488297 1_545
Na6 O1 2.488297 1_555
Na7 O10 2.470426 1_555
Na7 O11 2.470426 1_565
Na7 O6 2.473556 1_555
Na7 O7 2.473556 1_555
Na7 O2 2.488297 1_565
Na7 O3 2.488297 1_555
Ce0 O4 2.254258 1_665
Ce0 O5 2.254258 1_555
Ce0 O9 2.256448 1_655
Ce0 O8 2.256448 1_555
Ce0 O1 2.277233 1_565
Ce0 O0 2.277233 1_555
Ce1 O7 2.254258 1_555
Ce1 O6 2.254258 1_445
Ce1 O10 2.256448 1_555
Ce1 O11 2.256448 1_455
Ce1 O2 2.277233 1_555
Ce1 O3 2.277233 1_545
Ce2 O9 2.254779 1_555
Ce2 O8 2.254779 1_455
Ce2 O5 2.257328 1_555
Ce2 O4 2.257328 1_555
Ce2 O0 2.275392 1_555
Ce2 O1 2.275392 1_455
Ce3 O10 2.254779 1_655
Ce3 O11 2.254779 1_555
Ce3 O7 2.257328 1_555
Ce3 O6 2.257328 1_555
Ce3 O2 2.275392 1_555
Ce3 O3 2.275392 1_655
