# generated using pymatgen
data_CsBa2Zn2F9
_symmetry_space_group_name_H-M   'P 1'
_cell_length_a   7.96196501
_cell_length_b   7.96196501
_cell_length_c   7.96196469
_cell_angle_alpha   44.29613031
_cell_angle_beta   44.29613031
_cell_angle_gamma   44.29613210
_symmetry_Int_Tables_number   1
_chemical_formula_structural   CsBa2Zn2F9
_chemical_formula_sum   'Cs1 Ba2 Zn2 F9'
_cell_volume   223.72371423
_cell_formula_units_Z   1
loop_
 _symmetry_equiv_pos_site_id
 _symmetry_equiv_pos_as_xyz
  1  'x, y, z'
loop_
 _atom_site_type_symbol
 _atom_site_label
 _atom_site_symmetry_multiplicity
 _atom_site_fract_x
 _atom_site_fract_y
 _atom_site_fract_z
 _atom_site_occupancy
  Cs  Cs0  1  0.21464700  0.21464700  0.21464700  1
  Ba  Ba0  1  0.99926200  0.99926200  0.99926200  1
  Ba  Ba1  1  0.79235100  0.79235100  0.79235100  1
  Zn  Zn0  1  0.39070300  0.39070300  0.39070300  1
  Zn  Zn1  1  0.60423200  0.60423200  0.60423200  1
  F  F0  1  0.26534000  0.77230700  0.26534000  1
  F  F1  1  0.77230700  0.26534000  0.26534000  1
  F  F2  1  0.26534000  0.26534000  0.77230700  1
  F  F3  1  0.73455200  0.21802100  0.73455200  1
  F  F4  1  0.21802100  0.73455200  0.73455200  1
  F  F5  1  0.73455200  0.73455200  0.21802100  1
  F  F6  1  0.98826300  0.51021400  0.51021400  1
  F  F7  1  0.51021400  0.51021400  0.98826300  1
  F  F8  1  0.51021400  0.98826300  0.51021400  1
loop_
_geom_bond_atom_site_label_1
_geom_bond_atom_site_label_2
_geom_bond_distance
_geom_bond_site_symmetry_2
Cs0 F2 2.982127 1_554
Cs0 F1 2.982127 1_455
Cs0 F0 2.982127 1_545
Cs0 F3 3.018134 1_455
Cs0 F4 3.018134 1_545
Cs0 F4 3.018134 1_554
Cs0 F3 3.018134 1_554
Cs0 F5 3.018134 1_455
Cs0 F5 3.018134 1_545
Cs0 F6 3.179387 1_455
Cs0 F8 3.179387 1_545
Cs0 F7 3.179387 1_554
Ba0 F0 2.775988 1_656
Ba0 F1 2.775988 1_566
Ba0 F2 2.775988 1_665
Ba0 F3 2.786877 1_565
Ba0 F4 2.786877 1_655
Ba0 F5 2.786877 1_556
Ba0 F6 3.003653 1_556
Ba0 F8 3.003653 1_556
Ba0 F8 3.003653 1_655
Ba0 F6 3.003653 1_565
Ba0 F7 3.003653 1_565
Ba0 F7 3.003653 1_655
Ba1 F5 2.783505 1_556
Ba1 F4 2.783505 1_655
Ba1 F3 2.783505 1_565
Ba1 F0 3.048356 1_655
Ba1 F1 3.048356 1_565
Ba1 F0 3.048356 1_556
Ba1 F1 3.048356 1_556
Ba1 F2 3.048356 1_655
Ba1 F2 3.048356 1_565
Ba1 F8 3.117233 1_555
Ba1 F6 3.117233 1_555
Ba1 F7 3.117233 1_555
F0 Zn0 1.991910 1_555
F1 Zn0 1.991910 1_555
F2 Zn0 1.991910 1_555
F3 Zn1 2.003841 1_555
F4 Zn1 2.003841 1_555
F5 Zn1 2.003840 1_555
F6 Zn0 2.155215 1_655
F6 Zn1 2.172354 1_555
F7 Zn0 2.155215 1_556
F7 Zn1 2.172354 1_555
F8 Zn0 2.155215 1_565
F8 Zn1 2.172354 1_555
