# generated using pymatgen
data_Nd3Pa
_symmetry_space_group_name_H-M   'P 1'
_cell_length_a   7.12897932
_cell_length_b   7.12897932
_cell_length_c   5.85649700
_cell_angle_alpha   90.00000000
_cell_angle_beta   90.00000000
_cell_angle_gamma   119.99999371
_symmetry_Int_Tables_number   1
_chemical_formula_structural   Nd3Pa
_chemical_formula_sum   'Nd6 Pa2'
_cell_volume   257.76461244
_cell_formula_units_Z   2
loop_
 _symmetry_equiv_pos_site_id
 _symmetry_equiv_pos_as_xyz
  1  'x, y, z'
loop_
 _atom_site_type_symbol
 _atom_site_label
 _atom_site_symmetry_multiplicity
 _atom_site_fract_x
 _atom_site_fract_y
 _atom_site_fract_z
 _atom_site_occupancy
  Nd  Nd0  1  0.83038900  0.16961100  0.75000000  1
  Nd  Nd1  1  0.33922200  0.16961100  0.75000000  1
  Nd  Nd2  1  0.83038900  0.66077800  0.75000000  1
  Nd  Nd3  1  0.16961100  0.83038900  0.25000000  1
  Nd  Nd4  1  0.66077800  0.83038900  0.25000000  1
  Nd  Nd5  1  0.16961100  0.33922200  0.25000000  1
  Pa  Pa0  1  0.66666700  0.33333300  0.25000000  1
  Pa  Pa1  1  0.33333300  0.66666700  0.75000000  1
loop_
_geom_bond_atom_site_label_1
_geom_bond_atom_site_label_2
_geom_bond_distance
_geom_bond_site_symmetry_2
Nd0 Nd2 3.501519 1_555
Nd0 Nd1 3.501519 1_555
Nd0 Pa0 3.558300 1_555
Nd0 Pa0 3.558300 1_556
Nd0 Pa1 3.564675 1_655
Nd0 Pa1 3.564675 1_545
Nd0 Nd4 3.600110 1_545
Nd0 Nd4 3.600110 1_546
Nd0 Nd5 3.600110 1_656
Nd0 Nd5 3.600110 1_655
Nd0 Nd1 3.627460 1_655
Nd0 Nd2 3.627460 1_545
Nd1 Nd2 3.501520 1_555
Nd1 Pa0 3.558304 1_555
Nd1 Pa0 3.558304 1_556
Nd1 Pa1 3.564672 1_545
Nd1 Pa1 3.564679 1_555
Nd1 Nd5 3.600110 1_555
Nd1 Nd5 3.600110 1_556
Nd1 Nd3 3.600110 1_545
Nd1 Nd3 3.600110 1_546
Nd1 Nd2 3.627460 1_445
Nd2 Pa0 3.558304 1_556
Nd2 Pa0 3.558304 1_555
Nd2 Pa1 3.564672 1_655
Nd2 Pa1 3.564679 1_555
Nd2 Nd4 3.600110 1_556
Nd2 Nd4 3.600110 1_555
Nd2 Nd3 3.600110 1_655
Nd2 Nd3 3.600110 1_656
Nd3 Nd4 3.501519 1_555
Nd3 Nd5 3.501519 1_555
Nd3 Pa1 3.558300 1_554
Nd3 Pa1 3.558300 1_555
Nd3 Pa0 3.564675 1_455
Nd3 Pa0 3.564675 1_565
Nd3 Nd5 3.627460 1_565
Nd3 Nd4 3.627460 1_455
Nd4 Nd5 3.501520 1_555
Nd4 Pa1 3.558304 1_554
Nd4 Pa1 3.558304 1_555
Nd4 Pa0 3.564672 1_565
Nd4 Pa0 3.564679 1_555
Nd4 Nd5 3.627460 1_665
Nd5 Pa1 3.558304 1_554
Nd5 Pa1 3.558304 1_555
Nd5 Pa0 3.564672 1_455
Nd5 Pa0 3.564679 1_555
