# generated using pymatgen
data_LiSnAu
_symmetry_space_group_name_H-M   'P 1'
_cell_length_a   4.70135482
_cell_length_b   4.70135414
_cell_length_c   6.05637505
_cell_angle_alpha   90.00000000
_cell_angle_beta   90.00000000
_cell_angle_gamma   119.99999054
_symmetry_Int_Tables_number   1
_chemical_formula_structural   LiSnAu
_chemical_formula_sum   'Li2 Sn2 Au2'
_cell_volume   115.92829038
_cell_formula_units_Z   2
loop_
 _symmetry_equiv_pos_site_id
 _symmetry_equiv_pos_as_xyz
  1  'x, y, z'
loop_
 _atom_site_type_symbol
 _atom_site_label
 _atom_site_symmetry_multiplicity
 _atom_site_fract_x
 _atom_site_fract_y
 _atom_site_fract_z
 _atom_site_occupancy
  Li  Li0  1  0.00000000  0.00000000  -0.00000000  1
  Li  Li1  1  0.00000000  0.00000000  0.50000000  1
  Sn  Sn0  1  0.66666700  0.33333300  0.25000000  1
  Sn  Sn1  1  0.33333300  0.66666700  0.75000000  1
  Au  Au0  1  0.33333300  0.66666700  0.25000000  1
  Au  Au1  1  0.66666700  0.33333300  0.75000000  1
loop_
_geom_bond_atom_site_label_1
_geom_bond_atom_site_label_2
_geom_bond_distance
_geom_bond_site_symmetry_2
Li0 Li1 3.028188 1_554
Li0 Li1 3.028188 1_555
Li0 Sn1 3.108061 1_544
Li0 Sn0 3.108061 1_455
Li0 Sn1 3.108065 1_554
Li0 Sn0 3.108065 1_445
Li0 Sn0 3.108065 1_555
Li0 Sn1 3.108065 1_444
Li1 Sn1 3.108061 1_545
Li1 Sn0 3.108061 1_455
Li1 Sn0 3.108065 1_445
Li1 Sn1 3.108065 1_555
Li1 Sn0 3.108065 1_555
Li1 Sn1 3.108065 1_445
Au0 Sn0 2.714326 1_565
Au0 Sn0 2.714326 1_455
Au0 Sn0 2.714334 1_555
Au0 Sn1 3.028188 1_555
Au0 Sn1 3.028188 1_554
Au0 Li0 3.108061 1_565
Au0 Li1 3.108061 1_565
Au0 Li0 3.108065 1_555
Au0 Li1 3.108065 1_555
Au0 Li0 3.108065 1_665
Au0 Li1 3.108065 1_665
Au1 Sn1 2.714326 1_545
Au1 Sn1 2.714326 1_655
Au1 Sn1 2.714334 1_555
Au1 Sn0 3.028188 1_556
Au1 Sn0 3.028188 1_555
Au1 Li0 3.108061 1_656
Au1 Li1 3.108061 1_655
Au1 Li1 3.108065 1_665
Au1 Li0 3.108065 1_666
Au1 Li0 3.108065 1_556
Au1 Li1 3.108065 1_555
