# generated using pymatgen
data_ScCoSi
_symmetry_space_group_name_H-M   'P 1'
_cell_length_a   3.97418340
_cell_length_b   6.42864627
_cell_length_c   6.78161376
_cell_angle_alpha   90.00000000
_cell_angle_beta   90.00000000
_cell_angle_gamma   90.00000000
_symmetry_Int_Tables_number   1
_chemical_formula_structural   ScCoSi
_chemical_formula_sum   'Sc4 Co4 Si4'
_cell_volume   173.26086813
_cell_formula_units_Z   4
loop_
 _symmetry_equiv_pos_site_id
 _symmetry_equiv_pos_as_xyz
  1  'x, y, z'
loop_
 _atom_site_type_symbol
 _atom_site_label
 _atom_site_symmetry_multiplicity
 _atom_site_fract_x
 _atom_site_fract_y
 _atom_site_fract_z
 _atom_site_occupancy
  Sc  Sc0  1  0.25000000  0.99037578  0.30472417  1
  Sc  Sc1  1  0.25000000  0.49037578  0.19527583  1
  Sc  Sc2  1  0.75000000  0.00962422  0.69527583  1
  Sc  Sc3  1  0.75000000  0.50962422  0.80472417  1
  Co  Co0  1  0.25000000  0.14997989  0.94047941  1
  Co  Co1  1  0.25000000  0.64997989  0.55952059  1
  Co  Co2  1  0.75000000  0.85002011  0.05952059  1
  Co  Co3  1  0.75000000  0.35002011  0.44047941  1
  Si  Si0  1  0.25000000  0.29491402  0.61020481  1
  Si  Si1  1  0.25000000  0.79491402  0.88979519  1
  Si  Si2  1  0.75000000  0.70508598  0.38979519  1
  Si  Si3  1  0.75000000  0.20508598  0.11020481  1
loop_
_geom_bond_atom_site_label_1
_geom_bond_atom_site_label_2
_geom_bond_distance
_geom_bond_site_symmetry_2
Sc0 Si3 2.755707 1_565
Sc0 Si3 2.755707 1_465
Sc0 Si2 2.764964 1_455
Sc0 Si2 2.764964 1_555
Sc0 Si0 2.850368 1_565
Sc1 Si2 2.755707 1_455
Sc1 Si2 2.755707 1_555
Sc1 Si3 2.764964 1_555
Sc1 Si3 2.764964 1_455
Sc1 Si1 2.850368 1_554
Sc2 Si1 2.755707 1_645
Sc2 Si1 2.755707 1_545
Sc2 Si0 2.764964 1_555
Sc2 Si0 2.764964 1_655
Sc2 Si2 2.850368 1_545
Sc3 Si0 2.755707 1_655
Sc3 Si0 2.755707 1_555
Sc3 Si1 2.764964 1_555
Sc3 Si1 2.764964 1_655
Sc3 Si3 2.850368 1_556
Co0 Si1 2.308327 1_545
Co0 Si3 2.323545 1_456
Co0 Si3 2.323545 1_556
Co0 Si0 2.425861 1_555
Co0 Sc0 2.674786 1_546
Co0 Sc2 2.743689 1_455
Co0 Sc2 2.743689 1_555
Co0 Sc1 2.788250 1_556
Co1 Si0 2.308327 1_555
Co1 Si2 2.323545 1_555
Co1 Si2 2.323545 1_455
Co1 Si1 2.425861 1_555
Co1 Sc1 2.674786 1_555
Co1 Sc3 2.743689 1_555
Co1 Sc3 2.743689 1_455
Co1 Sc0 2.788250 1_555
Co2 Si3 2.308327 1_565
Co2 Si1 2.323545 1_554
Co2 Si1 2.323545 1_654
Co2 Si2 2.425861 1_555
Co2 Sc2 2.674786 1_564
Co2 Sc0 2.743689 1_655
Co2 Sc0 2.743689 1_555
Co2 Sc3 2.788250 1_554
Co3 Si2 2.308327 1_555
Co3 Si0 2.323545 1_655
Co3 Si0 2.323545 1_555
Co3 Si3 2.425861 1_555
Co3 Sc3 2.674786 1_555
Co3 Sc1 2.743689 1_555
Co3 Sc1 2.743689 1_655
Co3 Sc2 2.788250 1_555
