# generated using pymatgen
data_NaAgI2O3
_symmetry_space_group_name_H-M   'P 1'
_cell_length_a   7.57177709
_cell_length_b   9.71063479
_cell_length_c   20.53388839
_cell_angle_alpha   90.00000000
_cell_angle_beta   90.00000000
_cell_angle_gamma   90.00000000
_symmetry_Int_Tables_number   1
_chemical_formula_structural   NaAgI2O3
_chemical_formula_sum   'Na8 Ag8 I16 O24'
_cell_volume   1509.79032525
_cell_formula_units_Z   8
loop_
 _symmetry_equiv_pos_site_id
 _symmetry_equiv_pos_as_xyz
  1  'x, y, z'
loop_
 _atom_site_type_symbol
 _atom_site_label
 _atom_site_symmetry_multiplicity
 _atom_site_fract_x
 _atom_site_fract_y
 _atom_site_fract_z
 _atom_site_occupancy
  Na  Na0  1  0.66251181  0.17881742  0.38886497  1
  Na  Na1  1  0.16251181  0.82118258  0.11113503  1
  Na  Na2  1  0.33748819  0.32118258  0.88886497  1
  Na  Na3  1  0.83748819  0.67881742  0.61113503  1
  Na  Na4  1  0.33748819  0.82118258  0.61113503  1
  Na  Na5  1  0.83748819  0.17881742  0.88886497  1
  Na  Na6  1  0.66251181  0.67881742  0.11113503  1
  Na  Na7  1  0.16251181  0.32118258  0.38886497  1
  Ag  Ag0  1  0.47418806  0.13281729  0.24288193  1
  Ag  Ag1  1  0.97418806  0.86718271  0.25711807  1
  Ag  Ag2  1  0.52581194  0.36718271  0.74288193  1
  Ag  Ag3  1  0.02581194  0.63281729  0.75711807  1
  Ag  Ag4  1  0.52581194  0.86718271  0.75711807  1
  Ag  Ag5  1  0.02581194  0.13281729  0.74288193  1
  Ag  Ag6  1  0.47418806  0.63281729  0.25711807  1
  Ag  Ag7  1  0.97418806  0.36718271  0.24288193  1
  I  I0  1  0.61617033  0.39102764  0.19874674  1
  I  I1  1  0.11617033  0.60897236  0.30125326  1
  I  I2  1  0.38382967  0.10897236  0.69874674  1
  I  I3  1  0.88382967  0.89102764  0.80125326  1
  I  I4  1  0.38382967  0.60897236  0.80125326  1
  I  I5  1  0.88382967  0.39102764  0.69874674  1
  I  I6  1  0.61617033  0.89102764  0.30125326  1
  I  I7  1  0.11617033  0.10897236  0.19874674  1
  I  I8  1  0.60545530  0.00768089  0.12128885  1
  I  I9  1  0.10545530  0.99231911  0.37871115  1
  I  I10  1  0.39454470  0.49231911  0.62128885  1
  I  I11  1  0.89454470  0.50768089  0.87871115  1
  I  I12  1  0.39454470  0.99231911  0.87871115  1
  I  I13  1  0.89454470  0.00768089  0.62128885  1
  I  I14  1  0.60545530  0.50768089  0.37871115  1
  I  I15  1  0.10545530  0.49231911  0.12128885  1
  O  O0  1  0.92908027  0.31882667  0.51205843  1
  O  O1  1  0.42908027  0.68117333  0.98794157  1
  O  O2  1  0.07091973  0.18117333  0.01205843  1
  O  O3  1  0.57091973  0.81882667  0.48794157  1
  O  O4  1  0.07091973  0.68117333  0.48794157  1
  O  O5  1  0.57091973  0.31882667  0.01205843  1
  O  O6  1  0.92908027  0.81882667  0.98794157  1
  O  O7  1  0.42908027  0.18117333  0.51205843  1
  O  O8  1  0.63603456  0.91842831  0.45888202  1
  O  O9  1  0.13603456  0.08157169  0.04111798  1
  O  O10  1  0.36396544  0.58157169  0.95888202  1
  O  O11  1  0.86396544  0.41842831  0.54111798  1
  O  O12  1  0.36396544  0.08157169  0.54111798  1
  O  O13  1  0.86396544  0.91842831  0.95888202  1
  O  O14  1  0.63603456  0.41842831  0.04111798  1
  O  O15  1  0.13603456  0.58157169  0.45888202  1
  O  O16  1  0.89111309  0.29729972  0.33852451  1
  O  O17  1  0.39111309  0.70270028  0.16147549  1
  O  O18  1  0.10888691  0.20270028  0.83852451  1
  O  O19  1  0.60888691  0.79729972  0.66147549  1
  O  O20  1  0.10888691  0.70270028  0.66147549  1
  O  O21  1  0.60888691  0.29729972  0.83852451  1
  O  O22  1  0.89111309  0.79729972  0.16147549  1
  O  O23  1  0.39111309  0.20270028  0.33852451  1
loop_
_geom_bond_atom_site_label_1
_geom_bond_atom_site_label_2
_geom_bond_distance
_geom_bond_site_symmetry_2
Na0 O23 2.311968 1_555
Na0 O16 2.321276 1_555
Na0 O8 2.915608 1_545
Na0 O7 3.086038 1_555
Na1 O22 2.311968 1_455
Na1 O17 2.321276 1_555
Na1 O9 2.915608 1_565
Na1 O6 3.086038 1_454
Na2 O21 2.311968 1_555
Na2 O18 2.321276 1_555
Na2 O10 2.915608 1_555
Na2 O5 3.086038 1_556
Na3 O20 2.311968 1_655
Na3 O19 2.321276 1_555
Na3 O11 2.915608 1_555
Na3 O4 3.086038 1_655
Na4 O19 2.311968 1_555
Na4 O20 2.321276 1_555
Na4 O12 2.915608 1_565
Na4 O3 3.086038 1_555
Na5 O18 2.311968 1_655
Na5 O21 2.321276 1_555
Na5 O13 2.915608 1_545
Na5 O2 3.086038 1_656
Na6 O17 2.311968 1_555
Na6 O22 2.321276 1_555
Na6 O14 2.915608 1_555
Na6 O1 3.086038 1_554
Na7 O16 2.311968 1_455
Na7 O23 2.321276 1_555
Na7 O15 2.915608 1_555
Na7 O0 3.086038 1_455
Ag0 O23 2.170977 1_555
Ag0 I6 2.846954 1_545
Ag0 I7 2.867671 1_555
Ag0 I0 2.874727 1_555
Ag0 I8 2.949304 1_555
Ag1 O22 2.170977 1_555
Ag1 I7 2.846954 1_665
Ag1 I6 2.867671 1_555
Ag1 I1 2.874727 1_655
Ag1 I9 2.949304 1_655
Ag2 O21 2.170977 1_555
Ag2 I4 2.846954 1_555
Ag2 I5 2.867671 1_555
Ag2 I2 2.874727 1_555
Ag2 I10 2.949304 1_555
Ag3 O20 2.170977 1_555
Ag3 I5 2.846954 1_455
Ag3 I4 2.867671 1_555
Ag3 I3 2.874727 1_455
Ag3 I11 2.949304 1_455
Ag4 O19 2.170977 1_555
Ag4 I2 2.846954 1_565
Ag4 I3 2.867671 1_555
Ag4 I4 2.874727 1_555
Ag4 I12 2.949304 1_555
Ag5 O18 2.170977 1_555
Ag5 I3 2.846954 1_445
Ag5 I2 2.867671 1_555
Ag5 I5 2.874727 1_455
Ag5 I13 2.949304 1_455
Ag6 O17 2.170977 1_555
Ag6 I0 2.846954 1_555
Ag6 I1 2.867671 1_555
Ag6 I6 2.874727 1_555
Ag6 I14 2.949304 1_555
Ag7 O16 2.170977 1_555
Ag7 I1 2.846954 1_655
Ag7 I0 2.867671 1_555
Ag7 I7 2.874727 1_655
Ag7 I15 2.949304 1_655
I0 Na6 3.342075 1_555
I1 Na7 3.342075 1_555
I2 Na4 3.342075 1_545
I3 Na5 3.342075 1_565
I4 Na2 3.342075 1_555
I5 Na3 3.342075 1_555
I6 Na0 3.342075 1_565
I7 Na1 3.342075 1_545
I8 Na6 3.229301 1_545
I9 Na7 3.229301 1_565
I10 Na4 3.229301 1_555
I11 Na5 3.229301 1_555
I12 Na2 3.229301 1_565
I13 Na3 3.229301 1_545
I14 Na0 3.229301 1_555
I15 Na1 3.229301 1_555
O0 O11 1.238793 1_555
O1 O10 1.238793 1_555
O2 O9 1.238793 1_555
O3 O8 1.238793 1_555
O12 O7 1.238793 1_555
O13 O6 1.238793 1_555
O14 O5 1.238793 1_555
O15 O4 1.238793 1_555
