# generated using pymatgen
data_Hf3ZnN
_symmetry_space_group_name_H-M   'P 1'
_cell_length_a   5.84082185
_cell_length_b   5.84082185
_cell_length_c   8.74354286
_cell_angle_alpha   90.00000000
_cell_angle_beta   90.00000000
_cell_angle_gamma   147.12637111
_symmetry_Int_Tables_number   1
_chemical_formula_structural   Hf3ZnN
_chemical_formula_sum   'Hf6 Zn2 N2'
_cell_volume   161.90697483
_cell_formula_units_Z   2
loop_
 _symmetry_equiv_pos_site_id
 _symmetry_equiv_pos_as_xyz
  1  'x, y, z'
loop_
 _atom_site_type_symbol
 _atom_site_label
 _atom_site_symmetry_multiplicity
 _atom_site_fract_x
 _atom_site_fract_y
 _atom_site_fract_z
 _atom_site_occupancy
  Hf  Hf0  1  0.62840974  0.37159026  0.04668683  1
  Hf  Hf1  1  0.37159026  0.62840974  0.54668683  1
  Hf  Hf2  1  0.37159026  0.62840974  0.95331317  1
  Hf  Hf3  1  0.62840974  0.37159026  0.45331317  1
  Hf  Hf4  1  0.95190492  0.04809508  0.25000000  1
  Hf  Hf5  1  0.04809508  0.95190492  0.75000000  1
  Zn  Zn0  1  0.25380812  0.74619188  0.25000000  1
  Zn  Zn1  1  0.74619188  0.25380812  0.75000000  1
  N  N0  1  -0.00000000  0.00000000  0.00000000  1
  N  N1  1  -0.00000000  0.00000000  0.50000000  1
loop_
_geom_bond_atom_site_label_1
_geom_bond_atom_site_label_2
_geom_bond_distance
_geom_bond_site_symmetry_2
Hf0 N0 2.228907 1_665
Hf0 N0 2.228907 1_555
Hf0 Zn0 2.804564 1_655
Hf0 Zn0 2.804564 1_545
Hf0 Zn1 2.910468 1_554
Hf1 N1 2.228907 1_665
Hf1 N1 2.228907 1_555
Hf1 Zn1 2.804564 1_565
Hf1 Zn1 2.804564 1_455
Hf1 Zn0 2.910468 1_555
Hf2 N0 2.228907 1_666
Hf2 N0 2.228907 1_556
Hf2 Zn1 2.804564 1_565
Hf2 Zn1 2.804564 1_455
Hf2 Zn0 2.910468 1_556
Hf3 N1 2.228907 1_665
Hf3 N1 2.228907 1_555
Hf3 Zn0 2.804564 1_655
Hf3 Zn0 2.804564 1_545
Hf3 Zn1 2.910468 1_555
Hf4 N1 2.251328 1_655
Hf4 N0 2.251328 1_655
Hf4 Zn0 2.767260 1_545
Hf4 Zn0 2.767260 1_655
Hf5 N0 2.251328 1_566
Hf5 N1 2.251328 1_565
Hf5 Zn1 2.767260 1_565
Hf5 Zn1 2.767260 1_455
