# generated using pymatgen
data_KLaZrVO6
_symmetry_space_group_name_H-M   'P 1'
_cell_length_a   5.70133421
_cell_length_b   5.70133421
_cell_length_c   5.70133421
_cell_angle_alpha   60.00000000
_cell_angle_beta   60.00000000
_cell_angle_gamma   60.00000000
_symmetry_Int_Tables_number   1
_chemical_formula_structural   KLaZrVO6
_chemical_formula_sum   'K1 La1 Zr1 V1 O6'
_cell_volume   131.04320351
_cell_formula_units_Z   1
loop_
 _symmetry_equiv_pos_site_id
 _symmetry_equiv_pos_as_xyz
  1  'x, y, z'
loop_
 _atom_site_type_symbol
 _atom_site_label
 _atom_site_symmetry_multiplicity
 _atom_site_fract_x
 _atom_site_fract_y
 _atom_site_fract_z
 _atom_site_occupancy
  K  K0  1  0.25000000  0.25000000  0.25000000  1
  La  La0  1  0.75000000  0.75000000  0.75000000  1
  Zr  Zr0  1  -0.00000000  0.00000000  0.00000000  1
  V  V0  1  0.50000000  0.50000000  0.50000000  1
  O  O0  1  0.74056917  0.25943083  0.25943083  1
  O  O1  1  0.25943083  0.74056917  0.74056917  1
  O  O2  1  0.74056917  0.25943083  0.74056917  1
  O  O3  1  0.25943083  0.74056917  0.25943083  1
  O  O4  1  0.74056917  0.74056917  0.25943083  1
  O  O5  1  0.25943083  0.25943083  0.74056917  1
loop_
_geom_bond_atom_site_label_1
_geom_bond_atom_site_label_2
_geom_bond_distance
_geom_bond_site_symmetry_2
K0 O1 2.851681 1_554
K0 O0 2.851681 1_455
K0 O2 2.851681 1_455
K0 O3 2.851681 1_545
K0 O5 2.851681 1_555
K0 O5 2.851681 1_554
K0 O2 2.851681 1_554
K0 O4 2.851681 1_545
K0 O3 2.851681 1_555
K0 O1 2.851681 1_545
K0 O0 2.851681 1_555
K0 O4 2.851681 1_455
La0 O4 2.851681 1_556
La0 O1 2.851681 1_655
La0 O2 2.851681 1_565
La0 O5 2.851681 1_655
La0 O5 2.851681 1_565
La0 O3 2.851681 1_556
La0 O0 2.851681 1_556
La0 O0 2.851681 1_565
La0 O3 2.851681 1_655
La0 O4 2.851681 1_555
La0 O1 2.851681 1_555
La0 O2 2.851681 1_555
O0 V0 1.939686 1_555
O0 Zr0 2.091766 1_655
O1 V0 1.939686 1_555
O1 Zr0 2.091766 1_566
O2 V0 1.939686 1_555
O2 Zr0 2.091766 1_656
O3 V0 1.939686 1_555
O3 Zr0 2.091766 1_565
O4 V0 1.939686 1_555
O4 Zr0 2.091766 1_665
O5 V0 1.939686 1_555
O5 Zr0 2.091766 1_556
