# generated using pymatgen
data_Ba2YbBiO6
_symmetry_space_group_name_H-M   'P 1'
_cell_length_a   10.36100894
_cell_length_b   8.62245452
_cell_length_c   6.07672703
_cell_angle_alpha   133.19046471
_cell_angle_beta   147.95734191
_cell_angle_gamma   35.38639313
_symmetry_Int_Tables_number   1
_chemical_formula_structural   Ba2YbBiO6
_chemical_formula_sum   'Ba2 Yb1 Bi1 O6'
_cell_volume   166.75248945
_cell_formula_units_Z   1
loop_
 _symmetry_equiv_pos_site_id
 _symmetry_equiv_pos_as_xyz
  1  'x, y, z'
loop_
 _atom_site_type_symbol
 _atom_site_label
 _atom_site_symmetry_multiplicity
 _atom_site_fract_x
 _atom_site_fract_y
 _atom_site_fract_z
 _atom_site_occupancy
  Ba  Ba0  1  0.50992200  0.74543100  0.01942900  1
  Ba  Ba1  1  0.49007800  0.25456900  0.98057100  1
  Yb  Yb0  1  0.00000000  0.50000000  0.00000000  1
  Bi  Bi0  1  0.00000000  0.00000000  0.00000000  1
  O  O0  1  0.92331500  0.77279300  0.87093000  1
  O  O1  1  0.48538000  0.68002200  0.39854500  1
  O  O2  1  0.93431800  0.82510100  0.45664000  1
  O  O3  1  0.07668500  0.22720700  0.12907000  1
  O  O4  1  0.51462000  0.31997800  0.60145500  1
  O  O5  1  0.06568200  0.17489900  0.54336000  1
loop_
_geom_bond_atom_site_label_1
_geom_bond_atom_site_label_2
_geom_bond_distance
_geom_bond_site_symmetry_2
Ba0 O4 2.659916 1_554
Ba0 O5 2.750670 1_564
Ba0 O0 2.753046 1_555
Ba0 O1 2.948842 1_555
Ba0 O3 2.954129 1_565
Ba0 O2 3.080142 1_555
Ba0 O3 3.090598 1_655
Ba0 O2 3.113473 1_454
Ba0 O1 3.211302 1_554
Ba1 O1 2.659916 1_556
Ba1 O2 2.750670 1_546
Ba1 O3 2.753046 1_555
Ba1 O4 2.948842 1_555
Ba1 O0 2.954129 1_545
Ba1 O5 3.080142 1_555
Ba1 O0 3.090598 1_455
Ba1 O5 3.113473 1_656
Ba1 O4 3.211302 1_556
Bi0 O0 2.112506 1_444
Bi0 O3 2.112506 1_555
Bi0 O1 2.154816 1_545
Bi0 O4 2.154816 1_454
Bi0 O5 2.165075 1_555
Bi0 O2 2.165075 1_444
O0 Yb0 2.280493 1_656
O1 Yb0 2.330373 1_656
O2 Yb0 2.337564 1_655
O3 Yb0 2.280493 1_555
O4 Yb0 2.330373 1_555
O5 Yb0 2.337564 1_556
