# generated using pymatgen
data_NaGe2N3
_symmetry_space_group_name_H-M   'P 1'
_cell_length_a   5.12513315
_cell_length_b   5.72266976
_cell_length_c   5.72266951
_cell_angle_alpha   119.31008435
_cell_angle_beta   90.00000000
_cell_angle_gamma   90.00000000
_symmetry_Int_Tables_number   1
_chemical_formula_structural   NaGe2N3
_chemical_formula_sum   'Na2 Ge4 N6'
_cell_volume   146.35601754
_cell_formula_units_Z   2
loop_
 _symmetry_equiv_pos_site_id
 _symmetry_equiv_pos_as_xyz
  1  'x, y, z'
loop_
 _atom_site_type_symbol
 _atom_site_label
 _atom_site_symmetry_multiplicity
 _atom_site_fract_x
 _atom_site_fract_y
 _atom_site_fract_z
 _atom_site_occupancy
  Na  Na0  1  0.49184237  0.66242176  0.66242176  1
  Na  Na1  1  0.99184237  0.33757824  0.33757824  1
  Ge  Ge0  1  0.02519352  0.01105451  0.67511511  1
  Ge  Ge1  1  0.52519352  0.98894549  0.32488489  1
  Ge  Ge2  1  0.52519352  0.32488489  0.98894549  1
  Ge  Ge3  1  0.02519352  0.67511511  0.01105451  1
  N  N0  1  0.95439723  0.74188886  0.74188886  1
  N  N1  1  0.45439723  0.25811114  0.25811114  1
  N  N2  1  0.38068818  0.65899674  0.07645819  1
  N  N3  1  0.38068818  0.07645819  0.65899674  1
  N  N4  1  0.88068818  0.92354181  0.34100326  1
  N  N5  1  0.88068818  0.34100326  0.92354181  1
loop_
_geom_bond_atom_site_label_1
_geom_bond_atom_site_label_2
_geom_bond_distance
_geom_bond_site_symmetry_2
Ge0 N0 1.796280 1_445
Ge0 N3 1.871344 1_555
Ge0 N5 1.872617 1_455
Ge0 N4 1.875524 1_445
Ge1 N1 1.796280 1_565
Ge1 N4 1.871344 1_555
Ge1 N2 1.872617 1_555
Ge1 N3 1.875524 1_565
Ge2 N1 1.796280 1_556
Ge2 N5 1.871344 1_555
Ge2 N3 1.872617 1_555
Ge2 N2 1.875524 1_556
Ge3 N0 1.796280 1_454
Ge3 N2 1.871344 1_555
Ge3 N4 1.872617 1_455
Ge3 N5 1.875524 1_454
N0 Na1 2.345686 1_555
N0 Na0 2.414776 1_555
N0 Na0 2.792541 1_655
N1 Na0 2.345686 1_555
N1 Na1 2.414776 1_455
N1 Na1 2.792541 1_555
N2 Na0 2.446306 1_554
N3 Na0 2.446306 1_545
N4 Na1 2.446306 1_565
N5 Na1 2.446306 1_556
