# generated using pymatgen
data_KNdHfZrO6
_symmetry_space_group_name_H-M   'P 1'
_cell_length_a   5.86702648
_cell_length_b   5.86702648
_cell_length_c   5.86702648
_cell_angle_alpha   60.00000000
_cell_angle_beta   60.00000000
_cell_angle_gamma   60.00000000
_symmetry_Int_Tables_number   1
_chemical_formula_structural   KNdHfZrO6
_chemical_formula_sum   'K1 Nd1 Hf1 Zr1 O6'
_cell_volume   142.80359720
_cell_formula_units_Z   1
loop_
 _symmetry_equiv_pos_site_id
 _symmetry_equiv_pos_as_xyz
  1  'x, y, z'
loop_
 _atom_site_type_symbol
 _atom_site_label
 _atom_site_symmetry_multiplicity
 _atom_site_fract_x
 _atom_site_fract_y
 _atom_site_fract_z
 _atom_site_occupancy
  K  K0  1  0.25000000  0.25000000  0.25000000  1
  Nd  Nd0  1  0.75000000  0.75000000  0.75000000  1
  Hf  Hf0  1  -0.00000000  -0.00000000  -0.00000000  1
  Zr  Zr0  1  0.50000000  0.50000000  0.50000000  1
  O  O0  1  0.75190620  0.24809380  0.24809380  1
  O  O1  1  0.24809380  0.75190620  0.75190620  1
  O  O2  1  0.75190620  0.24809380  0.75190620  1
  O  O3  1  0.24809380  0.75190620  0.24809380  1
  O  O4  1  0.75190620  0.75190620  0.24809380  1
  O  O5  1  0.24809380  0.24809380  0.75190620  1
loop_
_geom_bond_atom_site_label_1
_geom_bond_atom_site_label_2
_geom_bond_distance
_geom_bond_site_symmetry_2
K0 O3 2.933556 1_555
K0 O0 2.933556 1_555
K0 O5 2.933556 1_555
K0 O2 2.933556 1_554
K0 O1 2.933556 1_554
K0 O4 2.933556 1_545
K0 O1 2.933556 1_545
K0 O4 2.933556 1_455
K0 O2 2.933556 1_455
K0 O5 2.933556 1_554
K0 O3 2.933556 1_545
K0 O0 2.933556 1_455
Nd0 O1 2.933556 1_655
Nd0 O2 2.933556 1_565
Nd0 O4 2.933556 1_556
Nd0 O3 2.933556 1_655
Nd0 O5 2.933556 1_655
Nd0 O0 2.933556 1_565
Nd0 O5 2.933556 1_565
Nd0 O0 2.933556 1_556
Nd0 O3 2.933556 1_556
Nd0 O4 2.933556 1_555
Nd0 O2 2.933556 1_555
Nd0 O1 2.933556 1_555
Hf0 O5 2.058491 1_554
Hf0 O0 2.058491 1_455
Hf0 O3 2.058491 1_545
Hf0 O2 2.058491 1_454
Hf0 O1 2.058491 1_544
Hf0 O4 2.058491 1_445
O0 Zr0 2.090123 1_555
O1 Zr0 2.090123 1_555
O2 Zr0 2.090123 1_555
O3 Zr0 2.090123 1_555
O4 Zr0 2.090123 1_555
O5 Zr0 2.090123 1_555
