# generated using pymatgen
data_H6PbCNF3
_symmetry_space_group_name_H-M   'P 1'
_cell_length_a   7.09291937
_cell_length_b   7.06502084
_cell_length_c   10.78364602
_cell_angle_alpha   93.13044169
_cell_angle_beta   91.91981132
_cell_angle_gamma   89.63699190
_symmetry_Int_Tables_number   1
_chemical_formula_structural   H6PbCNF3
_chemical_formula_sum   'H24 Pb4 C4 N4 F12'
_cell_volume   539.27127138
_cell_formula_units_Z   4
loop_
 _symmetry_equiv_pos_site_id
 _symmetry_equiv_pos_as_xyz
  1  'x, y, z'
loop_
 _atom_site_type_symbol
 _atom_site_label
 _atom_site_symmetry_multiplicity
 _atom_site_fract_x
 _atom_site_fract_y
 _atom_site_fract_z
 _atom_site_occupancy
  H  H0  1  0.39776800  0.89769600  0.69350200  1
  H  H1  1  0.64439800  0.95365500  0.69548700  1
  H  H2  1  0.38444100  0.05337500  0.90093600  1
  H  H3  1  0.61122000  0.11326500  0.90264200  1
  H  H4  1  0.55485200  0.88485600  0.90160500  1
  H  H5  1  0.90263100  0.39521800  0.68721800  1
  H  H6  1  0.14645900  0.46214100  0.69637500  1
  H  H7  1  0.87315500  0.53472500  0.89762300  1
  H  H8  1  0.09782500  0.60308200  0.90568000  1
  H  H9  1  0.04951200  0.37302100  0.89701500  1
  H  H10  1  0.85651100  0.48617400  0.18668300  1
  H  H11  1  0.08329100  0.37411100  0.19437200  1
  H  H12  1  0.90428800  0.60936200  0.39954500  1
  H  H13  1  0.12028200  0.51654500  0.40678700  1
  H  H14  1  0.92964900  0.37617400  0.39328500  1
  H  H15  1  0.40402000  0.89545000  0.18775300  1
  H  H16  1  0.64652900  0.96810000  0.19602100  1
  H  H17  1  0.37715000  0.03096300  0.39965400  1
  H  H18  1  0.60076200  0.10333800  0.40545400  1
  H  H19  1  0.55665400  0.87316400  0.39633600  1
  H  H20  1  0.06593200  0.62794800  0.20088000  1
  H  H21  1  0.96660800  0.64115700  0.69748500  1
  H  H22  1  0.47172900  0.13997000  0.69474500  1
  H  H23  1  0.46213500  0.14258100  0.19978300  1
  Pb  Pb0  1  0.99058800  0.99288700  0.02632400  1
  Pb  Pb1  1  0.49856000  0.50028500  0.52854400  1
  Pb  Pb2  1  0.01207300  0.99929400  0.52853900  1
  Pb  Pb3  1  0.48834200  0.49589700  0.02679100  1
  C  C0  1  0.50449300  0.00146200  0.22691400  1
  C  C1  1  0.00477100  0.49966000  0.72622400  1
  C  C2  1  0.99997000  0.49689800  0.22644600  1
  C  C3  1  0.50569600  0.99942200  0.72728900  1
  N  N0  1  0.50771100  0.00047000  0.36442800  1
  N  N1  1  0.00454200  0.50117400  0.86380300  1
  N  N2  1  0.98915800  0.49863700  0.36356000  1
  N  N3  1  0.51271700  0.01173100  0.86495200  1
  F  F0  1  0.00520900  0.00374900  0.23296500  1
  F  F1  1  0.50186100  0.49528000  0.73423900  1
  F  F2  1  0.99930100  0.99806300  0.73419700  1
  F  F3  1  0.50473900  0.50307800  0.23324800  1
  F  F4  1  0.23523700  0.74494000  0.00055800  1
  F  F5  1  0.75523600  0.24827000  0.48754900  1
  F  F6  1  0.22222200  0.22854200  0.99379100  1
  F  F7  1  0.75689500  0.75325000  0.48742400  1
  F  F8  1  0.73715000  0.24703700  0.99439700  1
  F  F9  1  0.25201900  0.74476900  0.50566000  1
  F  F10  1  0.72348000  0.72676200  0.99370100  1
  F  F11  1  0.25956300  0.25115000  0.50375500  1
loop_
_geom_bond_atom_site_label_1
_geom_bond_atom_site_label_2
_geom_bond_distance
_geom_bond_site_symmetry_2
H2 N3 1.035742 1_555
H3 N3 1.059902 1_555
H4 N3 1.037505 1_565
H7 N1 1.033536 1_655
H8 N1 1.053845 1_555
H9 N1 1.036276 1_555
H12 N2 1.049495 1_555
H13 N2 1.031648 1_455
H14 N2 1.036084 1_555
H17 N0 1.029756 1_555
H18 N0 1.053999 1_555
H19 N0 1.034264 1_565
C0 H23 1.091816 1_555
C0 H16 1.091968 1_545
C0 H15 1.095090 1_545
C0 N0 1.482712 1_555
C1 H6 1.092171 1_555
C1 H21 1.092457 1_455
C1 H5 1.094859 1_455
C1 N1 1.483113 1_555
C2 H10 1.092333 1_555
C2 H20 1.092772 1_655
C2 H11 1.093558 1_655
C2 N2 1.482518 1_555
C3 H0 1.093154 1_555
C3 H1 1.093842 1_555
C3 H22 1.093878 1_565
C3 N3 1.481490 1_565
F0 Pb0 2.224432 1_445
F1 Pb1 2.219691 1_555
F2 Pb2 2.223116 1_655
F3 Pb3 2.223323 1_555
F4 H8 1.683680 1_554
F4 Pb0 2.469340 1_455
F4 Pb3 2.525686 1_555
F5 Pb2 2.568770 1_645
F5 Pb1 2.570405 1_555
F6 Pb0 2.394032 1_446
F6 Pb3 2.680323 1_556
F7 Pb2 2.529062 1_655
F7 Pb1 2.632625 1_555
F8 H3 1.587265 1_555
F8 Pb3 2.502526 1_556
F8 Pb0 2.561093 1_546
F9 Pb1 2.466113 1_555
F9 Pb2 2.476268 1_555
F10 Pb3 2.388979 1_556
F10 Pb0 2.678897 1_556
F11 Pb1 2.449343 1_555
F11 Pb2 2.538120 1_545
