# generated using pymatgen
data_CsV5Se8
_symmetry_space_group_name_H-M   'P 1'
_cell_length_a   3.68989733
_cell_length_b   9.27025231
_cell_length_c   9.53829027
_cell_angle_alpha   103.29995708
_cell_angle_beta   101.03086709
_cell_angle_gamma   90.03197297
_symmetry_Int_Tables_number   1
_chemical_formula_structural   CsV5Se8
_chemical_formula_sum   'Cs1 V5 Se8'
_cell_volume   311.31264156
_cell_formula_units_Z   1
loop_
 _symmetry_equiv_pos_site_id
 _symmetry_equiv_pos_as_xyz
  1  'x, y, z'
loop_
 _atom_site_type_symbol
 _atom_site_label
 _atom_site_symmetry_multiplicity
 _atom_site_fract_x
 _atom_site_fract_y
 _atom_site_fract_z
 _atom_site_occupancy
  Cs  Cs0  1  0.50005120  0.49999980  0.00001480  1
  V  V0  1  0.00005595  0.00004010  0.00009752  1
  V  V1  1  0.34517790  0.00355851  0.69524058  1
  V  V2  1  0.65467921  0.99645100  0.30468955  1
  V  V3  1  0.29258749  0.66348130  0.58732724  1
  V  V4  1  0.70745355  0.33647906  0.41268928  1
  Se  Se0  1  0.57128223  0.16828674  0.14212736  1
  Se  Se1  1  0.42891984  0.83179320  0.85787223  1
  Se  Se2  1  0.09131157  0.83258336  0.18001913  1
  Se  Se3  1  0.90868698  0.16738279  0.81999652  1
  Se  Se4  1  0.16927168  0.48987372  0.33570245  1
  Se  Se5  1  0.83069876  0.51004994  0.66422884  1
  Se  Se6  1  0.24042499  0.15204071  0.47856778  1
  Se  Se7  1  0.75939765  0.84797778  0.52142872  1
loop_
_geom_bond_atom_site_label_1
_geom_bond_atom_site_label_2
_geom_bond_distance
_geom_bond_site_symmetry_2
Cs0 Se0 3.625588 1_555
Cs0 Se1 3.626443 1_554
Cs0 Se2 3.645386 1_555
Cs0 Se3 3.645469 1_554
Cs0 Se2 3.651967 1_655
Cs0 Se3 3.652410 1_454
Cs0 Se4 3.658454 1_555
Cs0 Se5 3.658936 1_554
Cs0 Se4 3.670353 1_655
Cs0 Se5 3.671142 1_454
Se0 V2 2.447624 1_545
Se0 V0 2.573293 1_655
Se0 V0 2.577216 1_555
Se0 V4 2.644826 1_555
Se1 V1 2.447613 1_565
Se1 V0 2.574474 1_566
Se1 V0 2.577408 1_666
Se1 V3 2.645102 1_555
Se2 V2 2.494433 1_455
Se2 V2 2.502474 1_555
Se2 V0 2.544320 1_565
Se3 V1 2.494223 1_655
Se3 V1 2.502804 1_555
Se3 V0 2.544864 1_656
Se4 V3 2.522218 1_555
Se4 V4 2.534117 1_455
Se4 V4 2.535830 1_555
Se5 V4 2.521449 1_555
Se5 V3 2.534075 1_655
Se5 V3 2.535636 1_555
Se6 V2 2.650769 1_445
Se6 V2 2.653198 1_545
Se6 V4 2.682044 1_555
Se6 V4 2.685323 1_455
Se6 V1 2.705369 1_555
Se7 V1 2.650607 1_665
Se7 V1 2.652690 1_565
Se7 V3 2.681960 1_555
Se7 V3 2.686296 1_655
Se7 V2 2.705853 1_555
