# generated using pymatgen
data_Dy2Si4Mo3
_symmetry_space_group_name_H-M   'P 1'
_cell_length_a   6.90316092
_cell_length_b   6.72849543
_cell_length_c   6.84059788
_cell_angle_alpha   71.16265268
_cell_angle_beta   90.00000000
_cell_angle_gamma   90.00000000
_symmetry_Int_Tables_number   1
_chemical_formula_structural   Dy2Si4Mo3
_chemical_formula_sum   'Dy4 Si8 Mo6'
_cell_volume   300.71330684
_cell_formula_units_Z   2
loop_
 _symmetry_equiv_pos_site_id
 _symmetry_equiv_pos_as_xyz
  1  'x, y, z'
loop_
 _atom_site_type_symbol
 _atom_site_label
 _atom_site_symmetry_multiplicity
 _atom_site_fract_x
 _atom_site_fract_y
 _atom_site_fract_z
 _atom_site_occupancy
  Dy  Dy0  1  0.66977006  0.43757239  0.19118849  1
  Dy  Dy1  1  0.16977006  0.06242761  0.80881151  1
  Dy  Dy2  1  0.33022994  0.56242761  0.80881151  1
  Dy  Dy3  1  0.83022994  0.93757239  0.19118849  1
  Si  Si0  1  0.45479640  0.13106586  0.09031860  1
  Si  Si1  1  0.95479640  0.36893414  0.90968140  1
  Si  Si2  1  0.54520360  0.86893414  0.90968140  1
  Si  Si3  1  0.04520360  0.63106586  0.09031860  1
  Si  Si4  1  0.86887407  0.12729782  0.50524043  1
  Si  Si5  1  0.36887407  0.37270218  0.49475957  1
  Si  Si6  1  0.13112593  0.87270218  0.49475957  1
  Si  Si7  1  0.63112593  0.62729782  0.50524043  1
  Mo  Mo0  1  0.50000000  0.00000000  0.50000000  1
  Mo  Mo1  1  0.00000000  0.50000000  0.50000000  1
  Mo  Mo2  1  0.16250317  0.25149601  0.25024121  1
  Mo  Mo3  1  0.66250317  0.24850399  0.74975879  1
  Mo  Mo4  1  0.83749683  0.74850399  0.74975879  1
  Mo  Mo5  1  0.33749683  0.75149601  0.25024121  1
loop_
_geom_bond_atom_site_label_1
_geom_bond_atom_site_label_2
_geom_bond_distance
_geom_bond_site_symmetry_2
Dy0 Si0 2.801875 1_555
Dy0 Si4 2.822496 1_555
Dy0 Si7 2.843760 1_555
Dy0 Si5 2.869142 1_555
Dy0 Si3 2.882324 1_655
Dy0 Si1 2.892612 1_554
Dy0 Si2 3.043423 1_554
Dy1 Si1 2.801875 1_455
Dy1 Si5 2.822496 1_555
Dy1 Si6 2.843760 1_545
Dy1 Si4 2.869142 1_455
Dy1 Si2 2.882324 1_545
Dy1 Si0 2.892612 1_556
Dy1 Si3 3.043423 1_546
Dy2 Si2 2.801875 1_555
Dy2 Si6 2.822496 1_555
Dy2 Si5 2.843760 1_555
Dy2 Si7 2.869142 1_555
Dy2 Si1 2.882324 1_455
Dy2 Si3 2.892612 1_556
Dy2 Si0 3.043423 1_556
Dy3 Si3 2.801875 1_655
Dy3 Si7 2.822496 1_555
Dy3 Si4 2.843760 1_565
Dy3 Si6 2.869142 1_655
Dy3 Si0 2.882324 1_565
Dy3 Si2 2.892612 1_554
Dy3 Si1 3.043423 1_564
Si0 Si2 2.536646 1_544
Si1 Si3 2.536646 1_656
Si4 Si6 2.509264 1_645
Si5 Si7 2.509264 1_555
Mo0 Si7 2.655424 1_545
Mo0 Si5 2.655424 1_555
Mo0 Si2 2.670755 1_545
Mo0 Si0 2.670755 1_555
Mo0 Si6 2.690517 1_545
Mo0 Si4 2.690517 1_555
Mo1 Si4 2.655424 1_455
Mo1 Si6 2.655424 1_555
Mo1 Si3 2.670755 1_555
Mo1 Si1 2.670755 1_455
Mo1 Si7 2.690517 1_455
Mo1 Si5 2.690517 1_555
Mo2 Si5 2.524534 1_555
Mo2 Si0 2.548944 1_555
Mo2 Si3 2.563357 1_555
Mo2 Si6 2.566641 1_545
Mo2 Si4 2.628376 1_455
Mo2 Si1 2.630344 1_454
Mo3 Si4 2.524534 1_555
Mo3 Si1 2.548944 1_555
Mo3 Si2 2.563357 1_545
Mo3 Si7 2.566641 1_555
Mo3 Si5 2.628376 1_555
Mo3 Si0 2.630344 1_556
Mo4 Si7 2.524534 1_555
Mo4 Si2 2.548944 1_555
Mo4 Si1 2.563357 1_555
Mo4 Si4 2.566641 1_565
Mo4 Si6 2.628376 1_655
Mo4 Si3 2.630344 1_656
Mo5 Si6 2.524534 1_555
Mo5 Si3 2.548944 1_555
Mo5 Si0 2.563357 1_565
Mo5 Si5 2.566641 1_555
Mo5 Si7 2.628376 1_555
Mo5 Si2 2.630344 1_554
