# generated using pymatgen
data_ZnBi3O7
_symmetry_space_group_name_H-M   'P 1'
_cell_length_a   5.69250200
_cell_length_b   10.88529500
_cell_length_c   11.07735600
_cell_angle_alpha   90.00000000
_cell_angle_beta   90.00000000
_cell_angle_gamma   90.00000000
_symmetry_Int_Tables_number   1
_chemical_formula_structural   ZnBi3O7
_chemical_formula_sum   'Zn4 Bi12 O28'
_cell_volume   686.40352992
_cell_formula_units_Z   4
loop_
 _symmetry_equiv_pos_site_id
 _symmetry_equiv_pos_as_xyz
  1  'x, y, z'
loop_
 _atom_site_type_symbol
 _atom_site_label
 _atom_site_symmetry_multiplicity
 _atom_site_fract_x
 _atom_site_fract_y
 _atom_site_fract_z
 _atom_site_occupancy
  Zn  Zn0  1  0.69176800  0.75000000  0.08341000  1
  Zn  Zn1  1  0.19176800  0.25000000  0.41659000  1
  Zn  Zn2  1  0.30823200  0.25000000  0.91659000  1
  Zn  Zn3  1  0.80823200  0.75000000  0.58341000  1
  Bi  Bi0  1  0.32979900  0.98488300  0.63525400  1
  Bi  Bi1  1  0.82979900  0.01511700  0.86474600  1
  Bi  Bi2  1  0.67020100  0.48488300  0.36474600  1
  Bi  Bi3  1  0.17020100  0.51511700  0.13525400  1
  Bi  Bi4  1  0.28240400  0.75000000  0.85540600  1
  Bi  Bi5  1  0.78240400  0.25000000  0.64459400  1
  Bi  Bi6  1  0.71759600  0.25000000  0.14459400  1
  Bi  Bi7  1  0.21759600  0.75000000  0.35540600  1
  Bi  Bi8  1  0.82979900  0.48488300  0.86474600  1
  Bi  Bi9  1  0.32979900  0.51511700  0.63525400  1
  Bi  Bi10  1  0.17020100  0.98488300  0.13525400  1
  Bi  Bi11  1  0.67020100  0.01511700  0.36474600  1
  O  O0  1  0.95760200  0.12406000  0.22756200  1
  O  O1  1  0.45760200  0.87594000  0.27243800  1
  O  O2  1  0.04239800  0.62406000  0.77243800  1
  O  O3  1  0.54239800  0.37594000  0.72756200  1
  O  O4  1  0.04239800  0.87594000  0.77243800  1
  O  O5  1  0.54239800  0.12406000  0.72756200  1
  O  O6  1  0.95760200  0.37594000  0.22756200  1
  O  O7  1  0.45760200  0.62406000  0.27243800  1
  O  O8  1  0.48067500  0.11410400  0.20490200  1
  O  O9  1  0.98067500  0.88589600  0.29509800  1
  O  O10  1  0.51932500  0.61410400  0.79509800  1
  O  O11  1  0.01932500  0.38589600  0.70490200  1
  O  O12  1  0.51932500  0.88589600  0.79509800  1
  O  O13  1  0.01932500  0.11410400  0.70490200  1
  O  O14  1  0.48067500  0.38589600  0.20490200  1
  O  O15  1  0.98067500  0.61410400  0.29509800  1
  O  O16  1  0.15280500  0.75000000  0.54069200  1
  O  O17  1  0.65280500  0.25000000  0.95930800  1
  O  O18  1  0.84719500  0.25000000  0.45930800  1
  O  O19  1  0.34719500  0.75000000  0.04069200  1
  O  O20  1  0.14257800  0.40088600  0.96312000  1
  O  O21  1  0.64257800  0.59911400  0.53688000  1
  O  O22  1  0.85742200  0.90088600  0.03688000  1
  O  O23  1  0.35742200  0.09911400  0.46312000  1
  O  O24  1  0.85742200  0.59911400  0.03688000  1
  O  O25  1  0.35742200  0.40088600  0.46312000  1
  O  O26  1  0.14257800  0.09911400  0.96312000  1
  O  O27  1  0.64257800  0.90088600  0.53688000  1
loop_
_geom_bond_atom_site_label_1
_geom_bond_atom_site_label_2
_geom_bond_distance
_geom_bond_site_symmetry_2
Bi0 O5 2.192115 1_565
Bi0 O27 2.278961 1_555
Bi0 O23 2.281822 1_565
Bi0 O12 2.336704 1_555
Bi0 O13 2.386922 1_565
Bi0 O4 2.528279 1_555
Bi1 O4 2.192115 1_645
Bi1 O26 2.278961 1_655
Bi1 O22 2.281822 1_546
Bi1 O13 2.336704 1_655
Bi1 O12 2.386922 1_545
Bi1 O5 2.528279 1_555
Bi2 O7 2.192115 1_555
Bi2 O25 2.278961 1_555
Bi2 O21 2.281822 1_555
Bi2 O14 2.336704 1_555
Bi2 O15 2.386922 1_555
Bi2 O6 2.528279 1_555
Bi3 O6 2.192115 1_455
Bi3 O24 2.278961 1_455
Bi3 O20 2.281822 1_554
Bi3 O15 2.336704 1_455
Bi3 O14 2.386922 1_555
Bi3 O7 2.528279 1_555
Bi4 O19 2.085354 1_556
Bi4 O10 2.110320 1_555
Bi4 O12 2.110320 1_555
Bi4 O2 2.142576 1_555
Bi4 O4 2.142576 1_555
Bi5 O18 2.085354 1_555
Bi5 O13 2.110320 1_655
Bi5 O11 2.110320 1_655
Bi5 O5 2.142576 1_555
Bi5 O3 2.142576 1_555
Bi6 O17 2.085354 1_554
Bi6 O8 2.110320 1_555
Bi6 O14 2.110320 1_555
Bi6 O0 2.142576 1_555
Bi6 O6 2.142576 1_555
Bi7 O16 2.085354 1_555
Bi7 O15 2.110320 1_455
Bi7 O9 2.110320 1_455
Bi7 O7 2.142576 1_555
Bi7 O1 2.142576 1_555
Bi8 O2 2.192115 1_655
Bi8 O20 2.278961 1_655
Bi8 O24 2.281822 1_556
Bi8 O11 2.336704 1_655
Bi8 O10 2.386922 1_555
Bi8 O3 2.528279 1_555
Bi9 O3 2.192115 1_555
Bi9 O21 2.278961 1_555
Bi9 O25 2.281822 1_555
Bi9 O10 2.336704 1_555
Bi9 O11 2.386922 1_555
Bi9 O2 2.528279 1_555
Bi10 O0 2.192115 1_465
Bi10 O22 2.278961 1_455
Bi10 O26 2.281822 1_564
Bi10 O9 2.336704 1_455
Bi10 O8 2.386922 1_565
Bi10 O1 2.528279 1_555
Bi11 O1 2.192115 1_545
Bi11 O23 2.278961 1_555
Bi11 O27 2.281822 1_545
Bi11 O8 2.336704 1_555
Bi11 O9 2.386922 1_545
Bi11 O0 2.528279 1_555
O16 Zn3 2.017755 1_455
O17 Zn2 2.017755 1_555
O18 Zn1 2.017755 1_655
O19 Zn0 2.017755 1_555
O20 Zn2 1.962777 1_555
O21 Zn3 1.962777 1_555
O22 Zn0 1.962777 1_555
O23 Zn1 1.962777 1_555
O24 Zn0 1.962777 1_555
O25 Zn1 1.962777 1_555
O26 Zn2 1.962777 1_555
O27 Zn3 1.962777 1_555
