# generated using pymatgen
data_CaY(CO4)2
_symmetry_space_group_name_H-M   'P 1'
_cell_length_a   7.80204300
_cell_length_b   7.80204300
_cell_length_c   21.99658600
_cell_angle_alpha   90.00000000
_cell_angle_beta   90.00000000
_cell_angle_gamma   90.00000000
_symmetry_Int_Tables_number   1
_chemical_formula_structural   CaY(CO4)2
_chemical_formula_sum   'Ca8 Y8 C16 O64'
_cell_volume   1338.97343284
_cell_formula_units_Z   8
loop_
 _symmetry_equiv_pos_site_id
 _symmetry_equiv_pos_as_xyz
  1  'x, y, z'
loop_
 _atom_site_type_symbol
 _atom_site_label
 _atom_site_symmetry_multiplicity
 _atom_site_fract_x
 _atom_site_fract_y
 _atom_site_fract_z
 _atom_site_occupancy
  Ca  Ca0  1  0.99579900  0.26276100  0.18814800  1
  Ca  Ca1  1  0.00420100  0.73723900  0.68814800  1
  Ca  Ca2  1  0.23723900  0.49579900  0.43814800  1
  Ca  Ca3  1  0.50420100  0.76276100  0.06185200  1
  Ca  Ca4  1  0.76276100  0.50420100  0.93814800  1
  Ca  Ca5  1  0.49579900  0.23723900  0.56185200  1
  Ca  Ca6  1  0.26276100  0.99579900  0.81185200  1
  Ca  Ca7  1  0.73723900  0.00420100  0.31185200  1
  Y  Y0  1  0.50052100  0.24078700  0.08478800  1
  Y  Y1  1  0.49947900  0.75921300  0.58478800  1
  Y  Y2  1  0.25921300  0.00052100  0.33478800  1
  Y  Y3  1  0.99947900  0.74078700  0.16521200  1
  Y  Y4  1  0.74078700  0.99947900  0.83478800  1
  Y  Y5  1  0.00052100  0.25921300  0.66521200  1
  Y  Y6  1  0.24078700  0.50052100  0.91521200  1
  Y  Y7  1  0.75921300  0.49947900  0.41521200  1
  C  C0  1  0.05633600  0.31017600  0.33413900  1
  C  C1  1  0.94366400  0.68982400  0.83413900  1
  C  C2  1  0.18982400  0.55633600  0.58413900  1
  C  C3  1  0.44366400  0.81017600  0.91586100  1
  C  C4  1  0.81017600  0.44366400  0.08413900  1
  C  C5  1  0.55633600  0.18982400  0.41586100  1
  C  C6  1  0.31017600  0.05633600  0.66586100  1
  C  C7  1  0.68982400  0.94366400  0.16586100  1
  C  C8  1  0.18379600  0.04596200  0.08607600  1
  C  C9  1  0.81620400  0.95403800  0.58607600  1
  C  C10  1  0.45403800  0.68379600  0.33607600  1
  C  C11  1  0.31620400  0.54596200  0.16392400  1
  C  C12  1  0.54596200  0.31620400  0.83607600  1
  C  C13  1  0.68379600  0.45403800  0.66392400  1
  C  C14  1  0.04596200  0.18379600  0.91392400  1
  C  C15  1  0.95403800  0.81620400  0.41392400  1
  O  O0  1  0.45398400  0.46185900  0.15475300  1
  O  O1  1  0.54601600  0.53814100  0.65475300  1
  O  O2  1  0.03814100  0.95398400  0.40475300  1
  O  O3  1  0.04601600  0.96185900  0.09524700  1
  O  O4  1  0.96185900  0.04601600  0.90475300  1
  O  O5  1  0.95398400  0.03814100  0.59524700  1
  O  O6  1  0.46185900  0.45398400  0.84524700  1
  O  O7  1  0.53814100  0.54601600  0.34524700  1
  O  O8  1  0.47328900  0.11802300  0.27991100  1
  O  O9  1  0.52671100  0.88197700  0.77991100  1
  O  O10  1  0.38197700  0.97328900  0.52991100  1
  O  O11  1  0.02671100  0.61802300  0.97008900  1
  O  O12  1  0.61802300  0.02671100  0.02991100  1
  O  O13  1  0.97328900  0.38197700  0.47008900  1
  O  O14  1  0.11802300  0.47328900  0.72008900  1
  O  O15  1  0.88197700  0.52671100  0.22008900  1
  O  O16  1  0.55504700  0.03265400  0.15608800  1
  O  O17  1  0.44495300  0.96734600  0.65608800  1
  O  O18  1  0.46734600  0.05504700  0.40608800  1
  O  O19  1  0.94495300  0.53265400  0.09391200  1
  O  O20  1  0.53265400  0.94495300  0.90608800  1
  O  O21  1  0.05504700  0.46734600  0.59391200  1
  O  O22  1  0.03265400  0.55504700  0.84391200  1
  O  O23  1  0.96734600  0.44495300  0.34391200  1
  O  O24  1  0.17081300  0.92696000  0.23136200  1
  O  O25  1  0.82918700  0.07304000  0.73136200  1
  O  O26  1  0.57304000  0.67081300  0.48136200  1
  O  O27  1  0.32918700  0.42696000  0.01863800  1
  O  O28  1  0.42696000  0.32918700  0.98136200  1
  O  O29  1  0.67081300  0.57304000  0.51863800  1
  O  O30  1  0.92696000  0.17081300  0.76863800  1
  O  O31  1  0.07304000  0.82918700  0.26863800  1
  O  O32  1  0.21344800  0.18805800  0.11579500  1
  O  O33  1  0.78655200  0.81194200  0.61579500  1
  O  O34  1  0.31194200  0.71344800  0.36579500  1
  O  O35  1  0.28655200  0.68805800  0.13420500  1
  O  O36  1  0.68805800  0.28655200  0.86579500  1
  O  O37  1  0.71344800  0.31194200  0.63420500  1
  O  O38  1  0.18805800  0.21344800  0.88420500  1
  O  O39  1  0.81194200  0.78655200  0.38420500  1
  O  O40  1  0.30033900  0.99374700  0.04802300  1
  O  O41  1  0.69966100  0.00625300  0.54802300  1
  O  O42  1  0.50625300  0.80033900  0.29802300  1
  O  O43  1  0.19966100  0.49374700  0.20197700  1
  O  O44  1  0.49374700  0.19966100  0.79802300  1
  O  O45  1  0.80033900  0.50625300  0.70197700  1
  O  O46  1  0.99374700  0.30033900  0.95197700  1
  O  O47  1  0.00625300  0.69966100  0.45197700  1
  O  O48  1  0.50943700  0.30971800  0.45442700  1
  O  O49  1  0.49056300  0.69028200  0.95442700  1
  O  O50  1  0.19028200  0.00943700  0.70442700  1
  O  O51  1  0.99056300  0.80971800  0.79557300  1
  O  O52  1  0.80971800  0.99056300  0.20442700  1
  O  O53  1  0.00943700  0.19028200  0.29557300  1
  O  O54  1  0.30971800  0.50943700  0.54557300  1
  O  O55  1  0.69028200  0.49056300  0.04557300  1
  O  O56  1  0.19959500  0.28522100  0.36290100  1
  O  O57  1  0.80040500  0.71477900  0.86290100  1
  O  O58  1  0.21477900  0.69959500  0.61290100  1
  O  O59  1  0.30040500  0.78522100  0.88709900  1
  O  O60  1  0.78522100  0.30040500  0.11290100  1
  O  O61  1  0.69959500  0.21477900  0.38709900  1
  O  O62  1  0.28522100  0.19959500  0.63709900  1
  O  O63  1  0.71477900  0.80040500  0.13709900  1
loop_
_geom_bond_atom_site_label_1
_geom_bond_atom_site_label_2
_geom_bond_distance
_geom_bond_site_symmetry_2
Ca0 O15 2.350144 1_555
Ca0 O60 2.350557 1_555
Ca0 O32 2.399208 1_655
Ca0 O43 2.422837 1_655
Ca0 O53 2.432033 1_655
Ca0 O52 2.597323 1_545
Ca1 O14 2.350144 1_555
Ca1 O58 2.350557 1_555
Ca1 O33 2.399208 1_455
Ca1 O45 2.422837 1_455
Ca1 O51 2.432033 1_455
Ca1 O50 2.597323 1_565
Ca2 O13 2.350144 1_455
Ca2 O56 2.350557 1_555
Ca2 O34 2.399208 1_555
Ca2 O47 2.422837 1_555
Ca2 O54 2.432033 1_555
Ca2 O48 2.597323 1_555
Ca3 O12 2.350144 1_565
Ca3 O63 2.350557 1_555
Ca3 O35 2.399208 1_555
Ca3 O40 2.422837 1_555
Ca3 O49 2.432033 1_554
Ca3 O55 2.597323 1_555
Ca4 O11 2.350144 1_655
Ca4 O57 2.350557 1_555
Ca4 O36 2.399208 1_555
Ca4 O46 2.422837 1_555
Ca4 O55 2.432033 1_556
Ca4 O49 2.597323 1_555
Ca5 O10 2.350144 1_545
Ca5 O62 2.350557 1_555
Ca5 O37 2.399208 1_555
Ca5 O41 2.422837 1_555
Ca5 O48 2.432033 1_555
Ca5 O54 2.597323 1_555
Ca6 O9 2.350144 1_555
Ca6 O59 2.350557 1_555
Ca6 O38 2.399208 1_565
Ca6 O44 2.422837 1_565
Ca6 O50 2.432033 1_565
Ca6 O51 2.597323 1_455
Ca7 O8 2.350144 1_555
Ca7 O61 2.350557 1_555
Ca7 O39 2.399208 1_545
Ca7 O42 2.422837 1_545
Ca7 O52 2.432033 1_545
Ca7 O53 2.597323 1_655
C0 O23 1.278280 1_455
C0 O56 1.299021 1_555
C0 O53 1.314741 1_555
C1 O22 1.278280 1_655
C1 O57 1.299021 1_555
C1 O51 1.314741 1_555
C2 O21 1.278280 1_555
C2 O58 1.299021 1_555
C2 O54 1.314741 1_555
C3 O20 1.278280 1_555
C3 O59 1.299021 1_555
C3 O49 1.314741 1_555
C4 O19 1.278280 1_555
C4 O60 1.299021 1_555
C4 O55 1.314741 1_555
C5 O18 1.278280 1_555
C5 O61 1.299021 1_555
C5 O48 1.314741 1_555
C6 O17 1.278280 1_545
C6 O62 1.299021 1_555
C6 O50 1.314741 1_555
C7 O16 1.278280 1_565
C7 O63 1.299021 1_555
C7 O52 1.314741 1_555
C8 O3 1.275465 1_545
C8 O40 1.301295 1_545
C8 O32 1.307649 1_555
C9 O5 1.275465 1_565
C9 O41 1.301295 1_565
C9 O33 1.307649 1_555
C10 O7 1.275465 1_555
C10 O42 1.301295 1_555
C10 O34 1.307649 1_555
C11 O0 1.275465 1_555
C11 O43 1.301295 1_555
C11 O35 1.307649 1_555
C12 O6 1.275465 1_555
C12 O44 1.301295 1_555
C12 O36 1.307649 1_555
C13 O1 1.275465 1_555
C13 O45 1.301295 1_555
C13 O37 1.307649 1_555
C14 O4 1.275465 1_455
C14 O46 1.301295 1_455
C14 O38 1.307649 1_555
C15 O2 1.275465 1_655
C15 O47 1.301295 1_655
C15 O39 1.307649 1_555
O0 Y0 2.339937 1_555
O1 Y1 2.339937 1_555
O2 Y2 2.339937 1_565
O3 Y3 2.339937 1_455
O4 Y4 2.339937 1_545
O5 Y5 2.339937 1_655
O6 Y6 2.339937 1_555
O7 Y7 2.339937 1_555
O8 Y2 2.255486 1_555
O9 Y4 2.255486 1_555
O10 Y1 2.255486 1_555
O11 Y6 2.255486 1_555
O12 Y0 2.255486 1_555
O13 Y7 2.255486 1_555
O14 Y5 2.255486 1_555
O15 Y3 2.255486 1_555
O16 Y0 2.297314 1_555
O17 Y1 2.297314 1_555
O18 Y2 2.297314 1_555
O19 Y3 2.297314 1_555
O20 Y4 2.297314 1_555
O21 Y5 2.297314 1_555
O22 Y6 2.297314 1_555
O23 Y7 2.297314 1_555
O24 O31 1.355037 1_555
O24 Y2 2.445565 1_565
O24 Y3 2.452345 1_455
O25 O30 1.355037 1_555
O25 Y4 2.445565 1_545
O25 Y5 2.452345 1_655
O26 O29 1.355037 1_555
O26 Y1 2.445565 1_555
O26 Y7 2.452345 1_555
O27 O28 1.355037 1_554
O27 Y6 2.445565 1_554
O27 Y0 2.452345 1_555
O28 Y0 2.445565 1_556
O28 Y6 2.452345 1_555
O29 Y7 2.445565 1_555
O29 Y1 2.452345 1_555
O30 Y5 2.445565 1_655
O30 Y4 2.452345 1_545
O31 Y3 2.445565 1_455
O31 Y2 2.452345 1_565
O32 Y0 2.377171 1_555
O33 Y1 2.377171 1_555
O34 Y2 2.377171 1_565
O35 Y3 2.377171 1_455
O36 Y4 2.377171 1_545
O37 Y5 2.377171 1_655
O38 Y6 2.377171 1_555
O39 Y7 2.377171 1_555
O40 Y0 2.609262 1_565
O41 Y1 2.609262 1_545
O42 Y2 2.609262 1_565
O43 Y3 2.609262 1_455
O44 Y4 2.609262 1_545
O45 Y5 2.609262 1_655
O46 Y6 2.609262 1_655
O47 Y7 2.609262 1_455
O48 Y7 2.594937 1_555
O49 Y6 2.594937 1_555
O50 Y5 2.594937 1_555
O51 Y4 2.594937 1_555
O52 Y3 2.594937 1_555
O53 Y2 2.594937 1_555
O54 Y1 2.594937 1_555
O55 Y0 2.594937 1_555
O56 Y2 2.352165 1_555
O57 Y4 2.352165 1_555
O58 Y1 2.352165 1_555
O59 Y6 2.352165 1_555
O60 Y0 2.352165 1_555
O61 Y7 2.352165 1_555
O62 Y5 2.352165 1_555
O63 Y3 2.352165 1_555
