# generated using pymatgen
data_Ca(CoO2)2
_symmetry_space_group_name_H-M   'P 1'
_cell_length_a   6.18479871
_cell_length_b   6.18479871
_cell_length_c   15.25891500
_cell_angle_alpha   90.00000000
_cell_angle_beta   90.00000000
_cell_angle_gamma   120.00000755
_symmetry_Int_Tables_number   1
_chemical_formula_structural   Ca(CoO2)2
_chemical_formula_sum   'Ca6 Co12 O24'
_cell_volume   505.48164620
_cell_formula_units_Z   6
loop_
 _symmetry_equiv_pos_site_id
 _symmetry_equiv_pos_as_xyz
  1  'x, y, z'
loop_
 _atom_site_type_symbol
 _atom_site_label
 _atom_site_symmetry_multiplicity
 _atom_site_fract_x
 _atom_site_fract_y
 _atom_site_fract_z
 _atom_site_occupancy
  Ca  Ca0  1  0.66666700  0.33333300  0.04242400  1
  Ca  Ca1  1  0.00000000  0.00000000  0.37852800  1
  Ca  Ca2  1  0.33333300  0.66666700  0.33675500  1
  Ca  Ca3  1  0.33333300  0.66666700  0.72274100  1
  Ca  Ca4  1  0.00000000  0.00000000  0.99392100  1
  Ca  Ca5  1  0.00000000  0.00000000  0.62089100  1
  Co  Co0  1  0.16380700  0.83619300  0.16533400  1
  Co  Co1  1  0.67238600  0.83619300  0.16533400  1
  Co  Co2  1  0.49942900  0.50057100  0.50671100  1
  Co  Co3  1  0.16380700  0.32761400  0.16533400  1
  Co  Co4  1  0.00114200  0.50057100  0.50671100  1
  Co  Co5  1  0.66666700  0.33333300  0.66614200  1
  Co  Co6  1  0.66666700  0.33333300  0.28228400  1
  Co  Co7  1  0.83106800  0.16893200  0.82755600  1
  Co  Co8  1  0.49942900  0.99885800  0.50671100  1
  Co  Co9  1  0.33786300  0.16893200  0.82755600  1
  Co  Co10  1  0.83106800  0.66213700  0.82755600  1
  Co  Co11  1  0.33333300  0.66666700  0.95205100  1
  O  O0  1  0.85213500  0.14786500  0.09999300  1
  O  O1  1  0.00000000  0.00000000  0.23632700  1
  O  O2  1  0.29573000  0.14786500  0.09999300  1
  O  O3  1  0.85213500  0.70427000  0.09999300  1
  O  O4  1  0.18005500  0.81994500  0.44646900  1
  O  O5  1  0.49155200  0.98310400  0.23514100  1
  O  O6  1  0.33333300  0.66666700  0.57820500  1
  O  O7  1  0.01689600  0.50844800  0.23514100  1
  O  O8  1  0.33333300  0.66666700  0.08590500  1
  O  O9  1  0.63988900  0.81994500  0.44646900  1
  O  O10  1  0.18005500  0.36011100  0.44646900  1
  O  O11  1  0.49155200  0.50844800  0.23514100  1
  O  O12  1  0.53235300  0.46764700  0.74880300  1
  O  O13  1  0.80199200  0.60398500  0.58286200  1
  O  O14  1  0.39601500  0.19800800  0.58286200  1
  O  O15  1  0.66666700  0.33333300  0.89600200  1
  O  O16  1  0.66666700  0.33333300  0.42267600  1
  O  O17  1  0.93529500  0.46764700  0.74880300  1
  O  O18  1  0.53235300  0.06470500  0.74880300  1
  O  O19  1  0.80199200  0.19800800  0.58286200  1
  O  O20  1  0.16539300  0.33078600  0.89331100  1
  O  O21  1  0.66921400  0.83460700  0.89331100  1
  O  O22  1  0.00000000  0.00000000  0.76520400  1
  O  O23  1  0.16539300  0.83460700  0.89331100  1
loop_
_geom_bond_atom_site_label_1
_geom_bond_atom_site_label_2
_geom_bond_distance
_geom_bond_site_symmetry_2
Ca0 O0 2.172338 1_555
Ca0 O2 2.172342 1_555
Ca0 O3 2.172342 1_555
Ca0 O15 2.234241 1_554
Ca1 O1 2.169833 1_555
Ca1 O4 2.189772 1_545
Ca1 O10 2.189776 1_555
Ca1 O9 2.189776 1_445
Ca2 O5 2.297126 1_555
Ca2 O7 2.297126 1_555
Ca2 O11 2.297130 1_555
Ca2 O9 2.344940 1_555
Ca2 O10 2.344940 1_555
Ca2 O4 2.344940 1_555
Ca3 O17 2.168741 1_455
Ca3 O18 2.168741 1_565
Ca3 O12 2.168751 1_555
Ca3 O6 2.205463 1_555
Ca4 O3 2.264663 1_446
Ca4 O2 2.264663 1_556
Ca4 O0 2.264663 1_456
Ca4 O20 2.344344 1_555
Ca4 O21 2.344344 1_445
Ca4 O23 2.344344 1_545
Ca5 O14 2.199075 1_555
Ca5 O13 2.199075 1_445
Ca5 O19 2.199080 1_455
Ca5 O22 2.202060 1_555
Co0 O3 1.950067 1_455
Co0 O2 1.950067 1_565
Co0 O7 2.056032 1_555
Co0 O5 2.056032 1_555
Co0 O1 2.062203 1_565
Co0 O8 2.183324 1_555
Co1 O0 1.950067 1_565
Co1 O3 1.950067 1_555
Co1 O11 2.056032 1_555
Co1 O5 2.056033 1_555
Co1 O1 2.062203 1_665
Co1 O8 2.183328 1_555
Co2 O10 1.945603 1_555
Co2 O9 1.945603 1_555
Co2 O13 2.015973 1_555
Co2 O14 2.015973 1_555
Co2 O6 2.087094 1_555
Co2 O16 2.203131 1_555
Co3 O0 1.950067 1_455
Co3 O2 1.950067 1_555
Co3 O11 2.056032 1_555
Co3 O7 2.056033 1_555
Co3 O1 2.062203 1_555
Co3 O8 2.183328 1_555
Co4 O10 1.945598 1_555
Co4 O4 1.945602 1_555
Co4 O19 2.015973 1_455
Co4 O13 2.015977 1_455
Co4 O6 2.087089 1_555
Co4 O16 2.203126 1_455
Co5 O17 1.913409 1_555
Co5 O18 1.913409 1_555
Co5 O12 1.913409 1_555
Co5 O19 1.927779 1_555
Co5 O13 1.927787 1_555
Co5 O14 1.927787 1_555
Co6 O7 2.009090 1_655
Co6 O5 2.009090 1_545
Co6 O11 2.009096 1_555
Co6 O16 2.142230 1_555
Co7 O18 2.020366 1_555
Co7 O17 2.020366 1_555
Co7 O22 2.044528 1_655
Co7 O15 2.047526 1_555
Co7 O21 2.052907 1_545
Co7 O20 2.052907 1_655
Co8 O9 1.945598 1_555
Co8 O4 1.945602 1_555
Co8 O19 2.015973 1_565
Co8 O14 2.015977 1_565
Co8 O6 2.087089 1_555
Co8 O16 2.203126 1_565
Co9 O12 2.020367 1_555
Co9 O18 2.020375 1_555
Co9 O22 2.044523 1_555
Co9 O15 2.047535 1_555
Co9 O20 2.052903 1_555
Co9 O23 2.052907 1_545
Co10 O12 2.020367 1_555
Co10 O17 2.020375 1_555
Co10 O22 2.044523 1_665
Co10 O15 2.047535 1_555
Co10 O21 2.052903 1_555
Co10 O23 2.052907 1_655
Co11 O23 2.009952 1_555
Co11 O21 2.009957 1_555
Co11 O20 2.009957 1_555
Co11 O8 2.042467 1_556
