# generated using pymatgen
data_La5Si3O13
_symmetry_space_group_name_H-M   'P 1'
_cell_length_a   9.82248652
_cell_length_b   9.82248652
_cell_length_c   7.29692300
_cell_angle_alpha   90.00000000
_cell_angle_beta   90.00000000
_cell_angle_gamma   120.00000347
_symmetry_Int_Tables_number   1
_chemical_formula_structural   La5Si3O13
_chemical_formula_sum   'La10 Si6 O26'
_cell_volume   609.69588310
_cell_formula_units_Z   2
loop_
 _symmetry_equiv_pos_site_id
 _symmetry_equiv_pos_as_xyz
  1  'x, y, z'
loop_
 _atom_site_type_symbol
 _atom_site_label
 _atom_site_symmetry_multiplicity
 _atom_site_fract_x
 _atom_site_fract_y
 _atom_site_fract_z
 _atom_site_occupancy
  La  La0  1  0.33333300  0.66666700  0.99518900  1
  La  La1  1  0.66666700  0.33333300  0.00481100  1
  La  La2  1  0.24280300  0.23109700  0.25000000  1
  La  La3  1  0.75719700  0.76890300  0.75000000  1
  La  La4  1  0.76890300  0.01170600  0.25000000  1
  La  La5  1  0.23109700  0.98829400  0.75000000  1
  La  La6  1  0.98829400  0.75719700  0.25000000  1
  La  La7  1  0.01170600  0.24280300  0.75000000  1
  La  La8  1  0.33333300  0.66666700  0.50481100  1
  La  La9  1  0.66666700  0.33333300  0.49518900  1
  Si  Si0  1  0.03009200  0.40023600  0.25000000  1
  Si  Si1  1  0.96990800  0.59976400  0.75000000  1
  Si  Si2  1  0.59976400  0.62985600  0.25000000  1
  Si  Si3  1  0.40023600  0.37014400  0.75000000  1
  Si  Si4  1  0.37014400  0.96990800  0.25000000  1
  Si  Si5  1  0.62985600  0.03009200  0.75000000  1
  O  O0  1  0.48372300  0.16212800  0.25000000  1
  O  O1  1  0.51627700  0.83787200  0.75000000  1
  O  O2  1  0.83787200  0.32159500  0.25000000  1
  O  O3  1  0.16212800  0.67840500  0.75000000  1
  O  O4  1  0.67840500  0.51627700  0.25000000  1
  O  O5  1  0.32159500  0.48372300  0.75000000  1
  O  O6  1  0.00000000  0.00000000  0.25000000  1
  O  O7  1  0.00000000  0.00000000  0.75000000  1
  O  O8  1  0.12408500  0.59426200  0.25000000  1
  O  O9  1  0.87591500  0.40573800  0.75000000  1
  O  O10  1  0.40573800  0.52982300  0.25000000  1
  O  O11  1  0.59426200  0.47017700  0.75000000  1
  O  O12  1  0.47017700  0.87591500  0.25000000  1
  O  O13  1  0.52982300  0.12408500  0.75000000  1
  O  O14  1  0.09072400  0.34289400  0.43083500  1
  O  O15  1  0.90927600  0.65710600  0.56916500  1
  O  O16  1  0.65710600  0.74783000  0.43083500  1
  O  O17  1  0.34289400  0.25217000  0.56916500  1
  O  O18  1  0.25217000  0.90927600  0.43083500  1
  O  O19  1  0.74783000  0.09072400  0.56916500  1
  O  O20  1  0.09072400  0.34289400  0.06916500  1
  O  O21  1  0.90927600  0.65710600  0.93083500  1
  O  O22  1  0.65710600  0.74783000  0.06916500  1
  O  O23  1  0.34289400  0.25217000  0.93083500  1
  O  O24  1  0.25217000  0.90927600  0.06916500  1
  O  O25  1  0.74783000  0.09072400  0.93083500  1
loop_
_geom_bond_atom_site_label_1
_geom_bond_atom_site_label_2
_geom_bond_distance
_geom_bond_site_symmetry_2
La0 O3 2.497224 1_555
La0 O1 2.497228 1_555
La0 O5 2.497231 1_555
La0 O8 2.593374 1_556
La0 O12 2.593375 1_556
La0 O10 2.593380 1_556
La0 O24 2.916427 1_556
La0 O20 2.916434 1_556
La0 O22 2.916436 1_556
La1 O2 2.497224 1_555
La1 O0 2.497228 1_555
La1 O4 2.497231 1_555
La1 O9 2.593374 1_554
La1 O13 2.593375 1_554
La1 O11 2.593380 1_554
La1 O25 2.916427 1_554
La1 O21 2.916434 1_554
La1 O23 2.916436 1_554
La2 O6 2.329567 1_555
La2 O23 2.495955 1_554
La2 O17 2.495955 1_555
La2 O10 2.544614 1_555
La2 O20 2.611293 1_555
La2 O14 2.611293 1_555
La2 O0 2.768045 1_555
La3 O7 2.329567 1_665
La3 O16 2.495955 1_555
La3 O22 2.495955 1_556
La3 O11 2.544614 1_555
La3 O21 2.611293 1_555
La3 O15 2.611293 1_555
La3 O1 2.768045 1_555
La4 O6 2.329567 1_655
La4 O25 2.495955 1_554
La4 O19 2.495955 1_555
La4 O12 2.544614 1_545
La4 O22 2.611293 1_545
La4 O16 2.611293 1_545
La4 O2 2.768045 1_555
La5 O7 2.329567 1_565
La5 O24 2.495955 1_556
La5 O18 2.495955 1_555
La5 O13 2.544614 1_565
La5 O23 2.611293 1_565
La5 O17 2.611293 1_565
La5 O3 2.768045 1_555
La6 O6 2.329567 1_665
La6 O21 2.495955 1_554
La6 O15 2.495955 1_555
La6 O8 2.544614 1_655
La6 O18 2.611293 1_655
La6 O24 2.611293 1_655
La6 O4 2.768045 1_555
La7 O7 2.329567 1_555
La7 O20 2.495955 1_556
La7 O14 2.495955 1_555
La7 O9 2.544614 1_455
La7 O25 2.611293 1_455
La7 O19 2.611293 1_455
La7 O5 2.768045 1_555
La8 O3 2.497224 1_555
La8 O1 2.497228 1_555
La8 O5 2.497231 1_555
La8 O8 2.593374 1_555
La8 O12 2.593375 1_555
La8 O10 2.593380 1_555
La8 O18 2.916427 1_555
La8 O14 2.916434 1_555
La8 O16 2.916436 1_555
La9 O2 2.497224 1_555
La9 O0 2.497228 1_555
La9 O4 2.497231 1_555
La9 O9 2.593374 1_555
La9 O13 2.593375 1_555
La9 O11 2.593380 1_555
La9 O19 2.916427 1_555
La9 O15 2.916434 1_555
La9 O17 2.916436 1_555
O0 Si4 1.644102 1_545
O1 Si5 1.644102 1_565
O2 Si0 1.644102 1_655
O3 Si1 1.644102 1_455
O4 Si2 1.644102 1_555
O5 Si3 1.644102 1_555
O8 Si0 1.650753 1_555
O9 Si1 1.650753 1_555
O10 Si2 1.650753 1_555
O11 Si3 1.650753 1_555
O12 Si4 1.650753 1_555
O13 Si5 1.650753 1_555
O14 Si0 1.657876 1_555
O15 Si1 1.657876 1_555
O16 Si2 1.657876 1_555
O17 Si3 1.657876 1_555
O18 Si4 1.657876 1_555
O19 Si5 1.657876 1_555
O20 Si0 1.657876 1_555
O21 Si1 1.657876 1_555
O22 Si2 1.657876 1_555
O23 Si3 1.657876 1_555
O24 Si4 1.657876 1_555
O25 Si5 1.657876 1_555
