# generated using pymatgen
data_PrSbSe
_symmetry_space_group_name_H-M   'P 1'
_cell_length_a   18.48658800
_cell_length_b   4.23649785
_cell_length_c   5.99646746
_cell_angle_alpha   44.97999795
_cell_angle_beta   90.00000000
_cell_angle_gamma   90.00000000
_symmetry_Int_Tables_number   1
_chemical_formula_structural   PrSbSe
_chemical_formula_sum   'Pr4 Sb4 Se4'
_cell_volume   331.96520870
_cell_formula_units_Z   4
loop_
 _symmetry_equiv_pos_site_id
 _symmetry_equiv_pos_as_xyz
  1  'x, y, z'
loop_
 _atom_site_type_symbol
 _atom_site_label
 _atom_site_symmetry_multiplicity
 _atom_site_fract_x
 _atom_site_fract_y
 _atom_site_fract_z
 _atom_site_occupancy
  Pr  Pr0  1  0.14794387  0.48061230  0.76377489  1
  Pr  Pr1  1  0.64794387  0.51938770  0.73622511  1
  Pr  Pr2  1  0.85205613  0.51938770  0.23622511  1
  Pr  Pr3  1  0.35205613  0.48061230  0.26377489  1
  Sb  Sb0  1  0.49962587  0.99356311  0.76349530  1
  Sb  Sb1  1  0.99962587  0.00643689  0.73650470  1
  Sb  Sb2  1  0.50037413  0.00643689  0.23650470  1
  Sb  Sb3  1  0.00037413  0.99356311  0.26349530  1
  Se  Se0  1  0.31343419  0.48348588  0.76262942  1
  Se  Se1  1  0.81343419  0.51651412  0.73737058  1
  Se  Se2  1  0.68656581  0.51651412  0.23737058  1
  Se  Se3  1  0.18656581  0.48348588  0.26262942  1
loop_
_geom_bond_atom_site_label_1
_geom_bond_atom_site_label_2
_geom_bond_distance
_geom_bond_site_symmetry_2
Pr0 Se0 3.059364 1_555
Pr0 Se3 3.070182 1_546
Pr0 Se3 3.080392 1_555
Pr0 Se3 3.083782 1_556
Pr0 Se3 3.086921 1_565
Pr0 Sb3 3.454276 1_546
Pr0 Sb3 3.455650 1_555
Pr0 Sb1 3.462921 1_465
Pr0 Sb1 3.470576 1_455
Pr1 Se1 3.059364 1_555
Pr1 Se2 3.070182 1_565
Pr1 Se2 3.080392 1_556
Pr1 Se2 3.083782 1_555
Pr1 Se2 3.086921 1_546
Pr1 Sb2 3.454276 1_565
Pr1 Sb2 3.455650 1_556
Pr1 Sb0 3.462921 1_545
Pr1 Sb0 3.470576 1_555
Pr2 Se2 3.059364 1_555
Pr2 Se1 3.070182 1_564
Pr2 Se1 3.080392 1_555
Pr2 Se1 3.083782 1_554
Pr2 Se1 3.086921 1_545
Pr2 Sb1 3.454276 1_564
Pr2 Sb1 3.455650 1_555
Pr2 Sb3 3.462921 1_645
Pr2 Sb3 3.470576 1_655
Pr3 Se3 3.059364 1_555
Pr3 Se0 3.070182 1_545
Pr3 Se0 3.080392 1_554
Pr3 Se0 3.083782 1_555
Pr3 Se0 3.086921 1_564
Pr3 Sb0 3.454276 1_545
Pr3 Sb0 3.455650 1_554
Pr3 Sb2 3.462921 1_565
Pr3 Sb2 3.470576 1_555
Sb0 Sb2 2.875256 1_566
Sb0 Sb2 2.958596 1_556
Sb0 Sb2 3.035760 1_575
Sb0 Sb2 3.121772 1_565
Sb1 Sb3 2.875256 1_645
Sb1 Sb3 2.958596 1_655
Sb1 Sb3 3.035760 1_636
Sb1 Sb3 3.121772 1_646
