# generated using pymatgen
data_Si5Pt12
_symmetry_space_group_name_H-M   'P 1'
_cell_length_a   7.34089358
_cell_length_b   7.34089358
_cell_length_c   7.34089358
_cell_angle_alpha   98.31644029
_cell_angle_beta   98.31644029
_cell_angle_gamma   135.29350608
_symmetry_Int_Tables_number   1
_chemical_formula_structural   Si5Pt12
_chemical_formula_sum   'Si5 Pt12'
_cell_volume   257.37718728
_cell_formula_units_Z   1
loop_
 _symmetry_equiv_pos_site_id
 _symmetry_equiv_pos_as_xyz
  1  'x, y, z'
loop_
 _atom_site_type_symbol
 _atom_site_label
 _atom_site_symmetry_multiplicity
 _atom_site_fract_x
 _atom_site_fract_y
 _atom_site_fract_z
 _atom_site_occupancy
  Si  Si0  1  0.80408100  0.42240900  0.22649000  1
  Si  Si1  1  0.42240900  0.19591900  0.61832800  1
  Si  Si2  1  0.57759100  0.80408100  0.38167200  1
  Si  Si3  1  0.19591900  0.57759100  0.77351000  1
  Si  Si4  1  0.00000000  0.00000000  0.00000000  1
  Pt  Pt0  1  0.57540700  0.62816900  0.70372400  1
  Pt  Pt1  1  0.92444500  0.87168300  0.29627600  1
  Pt  Pt2  1  0.62816900  0.92444500  0.05276300  1
  Pt  Pt3  1  0.12831700  0.42459300  0.05276300  1
  Pt  Pt4  1  0.42459300  0.37183100  0.29627600  1
  Pt  Pt5  1  0.07555500  0.12831700  0.70372400  1
  Pt  Pt6  1  0.37183100  0.07555500  0.94723700  1
  Pt  Pt7  1  0.87168300  0.57540700  0.94723700  1
  Pt  Pt8  1  0.63300100  0.05585400  0.68885500  1
  Pt  Pt9  1  0.05585400  0.36699900  0.42285300  1
  Pt  Pt10  1  0.94414600  0.63300100  0.57714700  1
  Pt  Pt11  1  0.36699900  0.94414600  0.31114500  1
loop_
_geom_bond_atom_site_label_1
_geom_bond_atom_site_label_2
_geom_bond_distance
_geom_bond_site_symmetry_2
Pt0 Si1 2.424482 1_555
Pt0 Si4 2.474716 1_666
Pt0 Si3 2.675538 1_555
Pt0 Si2 2.849867 1_555
Pt1 Si2 2.424482 1_555
Pt1 Si4 2.474716 1_665
Pt1 Si0 2.675538 1_555
Pt1 Si1 2.849867 1_665
Pt2 Si3 2.424486 1_554
Pt2 Si4 2.474718 1_665
Pt2 Si2 2.675531 1_555
Pt2 Si0 2.849865 1_565
Pt3 Si3 2.424489 1_554
Pt3 Si4 2.474715 1_555
Pt3 Si2 2.675534 1_555
Pt3 Si0 2.849863 1_455
Pt4 Si2 2.424482 1_555
Pt4 Si4 2.474716 1_555
Pt4 Si0 2.675538 1_555
Pt4 Si1 2.849867 1_555
Pt5 Si1 2.424482 1_555
Pt5 Si4 2.474716 1_556
Pt5 Si3 2.675538 1_555
Pt5 Si2 2.849867 1_445
Pt6 Si0 2.424486 1_556
Pt6 Si4 2.474718 1_556
Pt6 Si1 2.675531 1_555
Pt6 Si3 2.849865 1_545
Pt7 Si0 2.424489 1_556
Pt7 Si4 2.474715 1_666
Pt7 Si1 2.675534 1_555
Pt7 Si3 2.849863 1_655
Pt8 Si1 2.428382 1_555
Pt8 Si2 2.475245 1_545
Pt8 Si3 2.864083 1_655
Pt8 Si3 2.864083 1_545
Pt9 Si3 2.428382 1_555
Pt9 Si0 2.475245 1_455
Pt9 Si2 2.864083 1_445
Pt9 Si2 2.864083 1_555
Pt10 Si0 2.428382 1_555
Pt10 Si3 2.475245 1_655
Pt10 Si1 2.864083 1_555
Pt10 Si1 2.864083 1_665
Pt11 Si2 2.428382 1_555
Pt11 Si1 2.475245 1_565
Pt11 Si0 2.864083 1_455
Pt11 Si0 2.864083 1_565
