# generated using pymatgen
data_Y4Fe4Co12B3C
_symmetry_space_group_name_H-M   'P 1'
_cell_length_a   4.98109542
_cell_length_b   4.98109542
_cell_length_c   13.56626600
_cell_angle_alpha   90.00000000
_cell_angle_beta   90.00000000
_cell_angle_gamma   119.99999224
_symmetry_Int_Tables_number   1
_chemical_formula_structural   Y4Fe4Co12B3C
_chemical_formula_sum   'Y4 Fe4 Co12 B3 C1'
_cell_volume   291.50144760
_cell_formula_units_Z   1
loop_
 _symmetry_equiv_pos_site_id
 _symmetry_equiv_pos_as_xyz
  1  'x, y, z'
loop_
 _atom_site_type_symbol
 _atom_site_label
 _atom_site_symmetry_multiplicity
 _atom_site_fract_x
 _atom_site_fract_y
 _atom_site_fract_z
 _atom_site_occupancy
  Y  Y0  1  0.33333300  0.66666700  0.24940000  1
  Y  Y1  1  0.33333300  0.66666700  0.75060000  1
  Y  Y2  1  0.33333300  0.66666700  0.00000000  1
  Y  Y3  1  0.33333300  0.66666700  0.50000000  1
  Fe  Fe0  1  0.66666700  0.33333300  0.25043700  1
  Fe  Fe1  1  0.66666700  0.33333300  0.74956300  1
  Fe  Fe2  1  0.00000000  0.00000000  0.75035100  1
  Fe  Fe3  1  0.00000000  0.00000000  0.24964900  1
  Co  Co0  1  0.83127500  0.66254900  0.10385100  1
  Co  Co1  1  0.83330600  0.66661200  0.60699400  1
  Co  Co2  1  0.33745100  0.16872500  0.10385100  1
  Co  Co3  1  0.33338800  0.16669400  0.60699400  1
  Co  Co4  1  0.83127500  0.16872500  0.10385100  1
  Co  Co5  1  0.83330600  0.16669400  0.60699400  1
  Co  Co6  1  0.83127500  0.66254900  0.89614900  1
  Co  Co7  1  0.83330600  0.66661200  0.39300600  1
  Co  Co8  1  0.33745100  0.16872500  0.89614900  1
  Co  Co9  1  0.33338800  0.16669400  0.39300600  1
  Co  Co10  1  0.83127500  0.16872500  0.89614900  1
  Co  Co11  1  0.83330600  0.16669400  0.39300600  1
  B  B0  1  0.66666700  0.33333300  0.50000000  1
  B  B1  1  0.00000000  0.00000000  0.00000000  1
  B  B2  1  0.00000000  0.00000000  0.50000000  1
  C  C0  1  0.66666700  0.33333300  0.00000000  1
loop_
_geom_bond_atom_site_label_1
_geom_bond_atom_site_label_2
_geom_bond_distance
_geom_bond_site_symmetry_2
Fe0 Y0 2.875869 1_545
Fe0 Y0 2.875869 1_655
Fe0 Y0 2.875877 1_555
Fe1 Y1 2.875869 1_545
Fe1 Y1 2.875869 1_655
Fe1 Y1 2.875877 1_555
Fe2 Y1 2.875836 1_545
Fe2 Y1 2.875840 1_445
Fe2 Y1 2.875840 1_555
Fe3 Y0 2.875836 1_545
Fe3 Y0 2.875840 1_555
Fe3 Y0 2.875840 1_445
Co0 Fe0 2.443660 1_555
Co0 Fe3 2.455857 1_665
Co0 Y2 2.861474 1_655
Co0 Y2 2.861483 1_555
Co0 Y0 3.178363 1_655
Co0 Y0 3.178371 1_555
Co1 Fe1 2.409936 1_555
Co1 Fe2 2.418803 1_665
Co1 Y3 2.882654 1_655
Co1 Y3 2.882658 1_555
Co1 Y1 3.162007 1_655
Co1 Y1 3.162011 1_555
Co2 Fe0 2.443660 1_555
Co2 Fe3 2.455857 1_555
Co2 Y2 2.861474 1_545
Co2 Y2 2.861483 1_555
Co2 Y0 3.178363 1_545
Co2 Y0 3.178371 1_555
Co3 Fe1 2.409936 1_555
Co3 Fe2 2.418803 1_555
Co3 Y3 2.882654 1_545
Co3 Y3 2.882658 1_555
Co3 Y1 3.162007 1_545
Co3 Y1 3.162011 1_555
Co4 Fe0 2.443660 1_555
Co4 Fe3 2.455854 1_655
Co4 Y2 2.861479 1_545
Co4 Y2 2.861479 1_655
Co4 Y0 3.178367 1_545
Co4 Y0 3.178367 1_655
Co5 Fe1 2.409933 1_555
Co5 Fe2 2.418803 1_655
Co5 Y3 2.882656 1_545
Co5 Y3 2.882656 1_655
Co5 Y1 3.162009 1_545
Co5 Y1 3.162009 1_655
Co6 Fe1 2.443660 1_555
Co6 Fe2 2.455857 1_665
Co6 Y2 2.861474 1_656
Co6 Y2 2.861483 1_556
Co6 Y1 3.178363 1_655
Co6 Y1 3.178371 1_555
Co7 Fe0 2.409936 1_555
Co7 Fe3 2.418803 1_665
Co7 Y3 2.882654 1_655
Co7 Y3 2.882658 1_555
Co7 Y0 3.162007 1_655
Co7 Y0 3.162011 1_555
Co8 Fe1 2.443660 1_555
Co8 Fe2 2.455857 1_555
Co8 Y2 2.861474 1_546
Co8 Y2 2.861483 1_556
Co8 Y1 3.178363 1_545
Co8 Y1 3.178371 1_555
Co9 Fe0 2.409936 1_555
Co9 Fe3 2.418803 1_555
Co9 Y3 2.882654 1_545
Co9 Y3 2.882658 1_555
Co9 Y0 3.162007 1_545
Co9 Y0 3.162011 1_555
Co10 Fe1 2.443660 1_555
Co10 Fe2 2.455854 1_655
Co10 Y2 2.861479 1_546
Co10 Y2 2.861479 1_656
Co10 Y1 3.178367 1_545
Co10 Y1 3.178367 1_655
Co11 Fe0 2.409933 1_555
Co11 Fe3 2.418803 1_655
Co11 Y3 2.882656 1_545
Co11 Y3 2.882656 1_655
Co11 Y0 3.162009 1_545
Co11 Y0 3.162009 1_655
B0 Co5 2.042988 1_555
B0 Co11 2.042988 1_555
B0 Co1 2.042991 1_555
B0 Co3 2.042991 1_555
B0 Co7 2.042991 1_555
B0 Co9 2.042991 1_555
B0 Y3 2.875834 1_545
B0 Y3 2.875834 1_655
B0 Y3 2.875842 1_555
B1 Co4 2.025811 1_455
B1 Co10 2.025811 1_454
B1 Co8 2.025814 1_554
B1 Co2 2.025814 1_555
B1 Co6 2.025814 1_444
B1 Co0 2.025814 1_445
B1 Y2 2.875834 1_545
B1 Y2 2.875838 1_555
B1 Y2 2.875838 1_445
B2 Co5 2.043322 1_455
B2 Co11 2.043322 1_455
B2 Co3 2.043322 1_555
B2 Co1 2.043322 1_445
B2 Co9 2.043322 1_555
B2 Co7 2.043322 1_445
B2 Y3 2.875834 1_545
B2 Y3 2.875838 1_555
B2 Y3 2.875838 1_445
C0 Co10 2.000440 1_554
C0 Co4 2.000440 1_555
C0 Co6 2.000441 1_554
C0 Co0 2.000441 1_555
C0 Co2 2.000441 1_555
C0 Co8 2.000441 1_554
C0 Y2 2.875834 1_545
C0 Y2 2.875834 1_655
C0 Y2 2.875842 1_555
