# generated using pymatgen
data_Zn3(Ni10B3)2
_symmetry_space_group_name_H-M   'P 1'
_cell_length_a   7.34767292
_cell_length_b   7.34767292
_cell_length_c   7.34767292
_cell_angle_alpha   60.00000000
_cell_angle_beta   60.00000000
_cell_angle_gamma   60.00000000
_symmetry_Int_Tables_number   1
_chemical_formula_structural   Zn3(Ni10B3)2
_chemical_formula_sum   'Zn3 Ni20 B6'
_cell_volume   280.50102293
_cell_formula_units_Z   1
loop_
 _symmetry_equiv_pos_site_id
 _symmetry_equiv_pos_as_xyz
  1  'x, y, z'
loop_
 _atom_site_type_symbol
 _atom_site_label
 _atom_site_symmetry_multiplicity
 _atom_site_fract_x
 _atom_site_fract_y
 _atom_site_fract_z
 _atom_site_occupancy
  Zn  Zn0  1  0.25000000  0.25000000  0.25000000  1
  Zn  Zn1  1  0.75000000  0.75000000  0.75000000  1
  Zn  Zn2  1  0.00000000  0.00000000  0.00000000  1
  Ni  Ni0  1  -0.00000000  0.00000000  0.66180666  1
  Ni  Ni1  1  0.38303909  0.85088274  0.38303909  1
  Ni  Ni2  1  0.66180666  0.33819334  -0.00000000  1
  Ni  Ni3  1  0.00000000  0.33819334  0.66180666  1
  Ni  Ni4  1  0.66180666  0.00000000  -0.00000000  1
  Ni  Ni5  1  0.00000000  -0.00000000  0.33819334  1
  Ni  Ni6  1  0.66180666  -0.00000000  0.33819334  1
  Ni  Ni7  1  0.00000000  0.33819334  0.00000000  1
  Ni  Ni8  1  -0.00000000  0.66180666  0.33819334  1
  Ni  Ni9  1  0.33819334  0.00000000  0.00000000  1
  Ni  Ni10  1  0.00000000  0.66180666  -0.00000000  1
  Ni  Ni11  1  0.33819334  0.00000000  0.66180666  1
  Ni  Ni12  1  0.38303909  0.38303909  0.38303909  1
  Ni  Ni13  1  0.33819334  0.66180666  0.00000000  1
  Ni  Ni14  1  0.61696091  0.14911726  0.61696091  1
  Ni  Ni15  1  0.38303909  0.38303909  0.85088274  1
  Ni  Ni16  1  0.85088274  0.38303909  0.38303909  1
  Ni  Ni17  1  0.61696091  0.61696091  0.61696091  1
  Ni  Ni18  1  0.14911726  0.61696091  0.61696091  1
  Ni  Ni19  1  0.61696091  0.61696091  0.14911726  1
  B  B0  1  0.72519666  0.72519666  0.27480334  1
  B  B1  1  0.72519666  0.27480334  0.72519666  1
  B  B2  1  0.27480334  0.72519666  0.27480334  1
  B  B3  1  0.72519666  0.27480334  0.27480334  1
  B  B4  1  0.27480334  0.72519666  0.72519666  1
  B  B5  1  0.27480334  0.27480334  0.72519666  1
loop_
_geom_bond_atom_site_label_1
_geom_bond_atom_site_label_2
_geom_bond_distance
_geom_bond_site_symmetry_2
Ni0 Zn2 2.484934 1_556
Ni1 Zn0 2.394444 1_565
Ni2 Zn2 2.484934 1_655
Ni3 Zn2 2.484934 1_556
Ni4 Zn2 2.484934 1_655
Ni5 Zn2 2.484934 1_555
Ni6 Zn2 2.484934 1_655
Ni7 Zn2 2.484934 1_555
Ni8 Zn2 2.484934 1_565
Ni9 Zn2 2.484934 1_555
Ni10 Zn2 2.484934 1_565
Ni11 Zn2 2.484934 1_556
Ni12 Zn0 2.394444 1_555
Ni13 Zn2 2.484934 1_565
Ni14 Zn1 2.394444 1_545
Ni15 Zn0 2.394444 1_556
Ni16 Zn0 2.394444 1_655
Ni17 Zn1 2.394444 1_555
Ni18 Zn1 2.394444 1_455
Ni19 Zn1 2.394444 1_554
B0 Ni17 2.054057 1_555
B0 Ni16 2.054057 1_555
B0 Ni1 2.054057 1_555
B0 Ni19 2.054057 1_555
B0 Ni8 2.072189 1_655
B0 Ni6 2.072189 1_565
B0 Ni10 2.072189 1_655
B0 Ni4 2.072189 1_565
B1 Ni17 2.054057 1_555
B1 Ni16 2.054057 1_555
B1 Ni15 2.054057 1_555
B1 Ni14 2.054057 1_555
B1 Ni2 2.072189 1_556
B1 Ni3 2.072189 1_655
B1 Ni0 2.072189 1_655
B1 Ni4 2.072189 1_556
B2 Ni12 2.054057 1_555
B2 Ni18 2.054057 1_555
B2 Ni19 2.054057 1_555
B2 Ni1 2.054057 1_555
B2 Ni5 2.072189 1_565
B2 Ni9 2.072189 1_565
B2 Ni13 2.072189 1_555
B2 Ni8 2.072189 1_555
B3 Ni12 2.054057 1_555
B3 Ni14 2.054057 1_555
B3 Ni19 2.054057 1_555
B3 Ni16 2.054057 1_555
B3 Ni7 2.072189 1_655
B3 Ni5 2.072189 1_655
B3 Ni6 2.072189 1_555
B3 Ni2 2.072189 1_555
B4 Ni17 2.054057 1_555
B4 Ni1 2.054057 1_555
B4 Ni15 2.054057 1_555
B4 Ni18 2.054057 1_555
B4 Ni13 2.072189 1_556
B4 Ni11 2.072189 1_565
B4 Ni10 2.072189 1_556
B4 Ni0 2.072189 1_565
B5 Ni12 2.054057 1_555
B5 Ni14 2.054057 1_555
B5 Ni18 2.054057 1_555
B5 Ni15 2.054057 1_555
B5 Ni7 2.072189 1_556
B5 Ni9 2.072189 1_556
B5 Ni3 2.072189 1_555
B5 Ni11 2.072189 1_555
