# generated using pymatgen
data_Cs2BaTa6(Br5O)3
_symmetry_space_group_name_H-M   'P 1'
_cell_length_a   9.98310076
_cell_length_b   9.98310076
_cell_length_c   18.74710477
_cell_angle_alpha   89.74207268
_cell_angle_beta   89.74207268
_cell_angle_gamma   120.34230729
_symmetry_Int_Tables_number   1
_chemical_formula_structural   Cs2BaTa6(Br5O)3
_chemical_formula_sum   'Cs4 Ba2 Ta12 Br30 O6'
_cell_volume   1612.38809780
_cell_formula_units_Z   2
loop_
 _symmetry_equiv_pos_site_id
 _symmetry_equiv_pos_as_xyz
  1  'x, y, z'
loop_
 _atom_site_type_symbol
 _atom_site_label
 _atom_site_symmetry_multiplicity
 _atom_site_fract_x
 _atom_site_fract_y
 _atom_site_fract_z
 _atom_site_occupancy
  Cs  Cs0  1  0.33297000  0.66539700  0.95959700  1
  Cs  Cs1  1  0.66539700  0.33297000  0.45959700  1
  Cs  Cs2  1  0.66703000  0.33460300  0.04040300  1
  Cs  Cs3  1  0.33460300  0.66703000  0.54040300  1
  Ba  Ba0  1  0.33276300  0.66723700  0.25000000  1
  Ba  Ba1  1  0.66723700  0.33276300  0.75000000  1
  Ta  Ta0  1  0.16720000  0.98346800  0.31257100  1
  Ta  Ta1  1  0.01597300  0.18635800  0.31552600  1
  Ta  Ta2  1  0.82355200  0.83511300  0.31229400  1
  Ta  Ta3  1  0.98346800  0.16720000  0.81257100  1
  Ta  Ta4  1  0.83511300  0.82355200  0.81229400  1
  Ta  Ta5  1  0.18635800  0.01597300  0.81552600  1
  Ta  Ta6  1  0.83280000  0.01653200  0.68742900  1
  Ta  Ta7  1  0.98402700  0.81364200  0.68447400  1
  Ta  Ta8  1  0.17644800  0.16488700  0.68770600  1
  Ta  Ta9  1  0.01653200  0.83280000  0.18742900  1
  Ta  Ta10  1  0.16488700  0.17644800  0.18770600  1
  Ta  Ta11  1  0.81364200  0.98402700  0.18447400  1
  Br  Br0  1  0.78246800  0.98298100  0.90933600  1
  Br  Br1  1  0.01348200  0.79697200  0.90909900  1
  Br  Br2  1  0.20156000  0.21646800  0.90925100  1
  Br  Br3  1  0.98298100  0.78246800  0.40933600  1
  Br  Br4  1  0.21646800  0.20156000  0.40925100  1
  Br  Br5  1  0.79697200  0.01348200  0.40909900  1
  Br  Br6  1  0.21753200  0.01701900  0.09066400  1
  Br  Br7  1  0.98651800  0.20302800  0.09090100  1
  Br  Br8  1  0.79844000  0.78353200  0.09074900  1
  Br  Br9  1  0.01701900  0.21753200  0.59066400  1
  Br  Br10  1  0.78353200  0.79844000  0.59074900  1
  Br  Br11  1  0.20302800  0.98651800  0.59090100  1
  Br  Br12  1  0.38491100  0.94088700  0.38511900  1
  Br  Br13  1  0.05851800  0.44382100  0.38588200  1
  Br  Br14  1  0.55904400  0.61539300  0.38484400  1
  Br  Br15  1  0.94088700  0.38491100  0.88511900  1
  Br  Br16  1  0.61539300  0.55904400  0.88484400  1
  Br  Br17  1  0.44382100  0.05851800  0.88588200  1
  Br  Br18  1  0.61508900  0.05911300  0.61488100  1
  Br  Br19  1  0.94148200  0.55617900  0.61411800  1
  Br  Br20  1  0.44095600  0.38460700  0.61515600  1
  Br  Br21  1  0.05911300  0.61508900  0.11488100  1
  Br  Br22  1  0.38460700  0.44095600  0.11515600  1
  Br  Br23  1  0.55617900  0.94148200  0.11411800  1
  Br  Br24  1  0.58568700  0.79090400  0.75036500  1
  Br  Br25  1  0.20731200  0.79268800  0.75000000  1
  Br  Br26  1  0.20909600  0.41431300  0.74963500  1
  Br  Br27  1  0.79090400  0.58568700  0.25036500  1
  Br  Br28  1  0.41431300  0.20909600  0.24963500  1
  Br  Br29  1  0.79268800  0.20731200  0.25000000  1
  O  O0  1  0.83213800  0.66097700  0.75019800  1
  O  O1  1  0.33902300  0.16786200  0.74980200  1
  O  O2  1  0.82913100  0.17086900  0.75000000  1
  O  O3  1  0.66097700  0.83213800  0.25019800  1
  O  O4  1  0.17086900  0.82913100  0.25000000  1
  O  O5  1  0.16786200  0.33902300  0.24980200  1
loop_
_geom_bond_atom_site_label_1
_geom_bond_atom_site_label_2
_geom_bond_distance
_geom_bond_site_symmetry_2
Ba0 O4 2.804163 1_555
Ba0 O3 2.827821 1_555
Ba0 O5 2.827821 1_555
Ba0 Br23 3.560345 1_555
Ba0 Br13 3.560345 1_555
Ba0 Br12 3.576029 1_555
Ba0 Br21 3.576029 1_555
Ba0 Br14 3.603086 1_555
Ba0 Br22 3.603086 1_555
Ba1 O2 2.804163 1_555
Ba1 O0 2.827821 1_555
Ba1 O1 2.827821 1_555
Ba1 Br17 3.560345 1_555
Ba1 Br19 3.560345 1_555
Ba1 Br15 3.576029 1_555
Ba1 Br18 3.576029 1_555
Ba1 Br16 3.603086 1_555
Ba1 Br20 3.603086 1_555
Br0 Ta3 2.628357 1_565
Br0 Ta4 2.642284 1_555
Br0 Cs0 4.078883 1_555
Br1 Ta5 2.638519 1_565
Br1 Ta4 2.652717 1_455
Br1 Cs0 4.128329 1_555
Br2 Ta5 2.616056 1_555
Br2 Ta3 2.688668 1_455
Br2 Cs0 4.099582 1_555
Br3 Ta0 2.628357 1_655
Br3 Ta2 2.642284 1_555
Br3 Cs1 4.078883 1_555
Br4 Ta1 2.616056 1_555
Br4 Ta0 2.688668 1_545
Br4 Cs1 4.099582 1_555
Br5 Ta1 2.638519 1_655
Br5 Ta2 2.652717 1_545
Br5 Cs1 4.128329 1_555
Br6 Ta9 2.628357 1_545
Br6 Ta10 2.642284 1_555
Br6 Cs2 4.078883 1_555
Br7 Ta11 2.638519 1_545
Br7 Ta10 2.652717 1_655
Br7 Cs2 4.128329 1_555
Br8 Ta11 2.616056 1_555
Br8 Ta9 2.688668 1_655
Br8 Cs2 4.099582 1_555
Br9 Ta6 2.628357 1_455
Br9 Ta8 2.642284 1_555
Br9 Cs3 4.078883 1_555
Br10 Ta7 2.616056 1_555
Br10 Ta6 2.688668 1_565
Br10 Cs3 4.099582 1_555
Br11 Ta7 2.638519 1_455
Br11 Ta8 2.652717 1_565
Br11 Cs3 4.128329 1_555
Br12 Ta0 2.776533 1_555
Br12 Cs1 3.757940 1_565
Br12 Cs3 3.837871 1_555
Br13 Ta1 2.731122 1_555
Br13 Cs1 3.753146 1_455
Br13 Cs3 3.857257 1_555
Br14 Ta2 2.779013 1_555
Br14 Cs1 3.747372 1_555
Br14 Cs3 3.861666 1_555
Br15 Ta3 2.776533 1_555
Br15 Cs0 3.757940 1_655
Br15 Cs2 3.837871 1_556
Br16 Ta4 2.779013 1_555
Br16 Cs0 3.747372 1_555
Br16 Cs2 3.861666 1_556
Br17 Ta5 2.731122 1_555
Br17 Cs0 3.753146 1_545
Br17 Cs2 3.857257 1_556
Br18 Ta6 2.776533 1_555
Br18 Cs3 3.757940 1_545
Br18 Cs1 3.837871 1_555
Br19 Ta7 2.731122 1_555
Br19 Cs3 3.753146 1_655
Br19 Cs1 3.857257 1_555
Br20 Ta8 2.779013 1_555
Br20 Cs3 3.747372 1_555
Br20 Cs1 3.861666 1_555
Br21 Ta9 2.776533 1_555
Br21 Cs2 3.757940 1_455
Br21 Cs0 3.837871 1_554
Br22 Ta10 2.779013 1_555
Br22 Cs2 3.747372 1_555
Br22 Cs0 3.861666 1_554
Br23 Ta11 2.731122 1_555
Br23 Cs2 3.753146 1_565
Br23 Cs0 3.857257 1_554
Br24 Ta4 2.619909 1_555
Br24 Ta6 2.624365 1_565
Br25 Ta5 2.648587 1_565
Br25 Ta7 2.648587 1_455
Br26 Ta8 2.619909 1_555
Br26 Ta3 2.624365 1_455
Br27 Ta2 2.619909 1_555
Br27 Ta9 2.624365 1_655
Br28 Ta10 2.619909 1_555
Br28 Ta0 2.624365 1_545
Br29 Ta1 2.648587 1_655
Br29 Ta11 2.648587 1_545
O0 Ta7 1.942060 1_555
O0 Ta4 1.989678 1_555
O1 Ta5 1.942060 1_555
O1 Ta8 1.989678 1_555
O2 Ta3 1.955551 1_555
O2 Ta6 1.955551 1_555
O3 Ta11 1.942060 1_555
O3 Ta2 1.989678 1_555
O4 Ta0 1.955551 1_555
O4 Ta9 1.955551 1_555
O5 Ta1 1.942060 1_555
O5 Ta10 1.989678 1_555
