# generated using pymatgen
data_Ho6InCo2
_symmetry_space_group_name_H-M   'P 1'
_cell_length_a   8.33241337
_cell_length_b   8.33241051
_cell_length_c   8.33241395
_cell_angle_alpha   111.34283703
_cell_angle_beta   109.88571439
_cell_angle_gamma   107.21210096
_symmetry_Int_Tables_number   1
_chemical_formula_structural   Ho6InCo2
_chemical_formula_sum   'Ho12 In2 Co4'
_cell_volume   444.74603614
_cell_formula_units_Z   2
loop_
 _symmetry_equiv_pos_site_id
 _symmetry_equiv_pos_as_xyz
  1  'x, y, z'
loop_
 _atom_site_type_symbol
 _atom_site_label
 _atom_site_symmetry_multiplicity
 _atom_site_fract_x
 _atom_site_fract_y
 _atom_site_fract_z
 _atom_site_occupancy
  Ho  Ho0  1  0.31573686  0.61598922  0.30025652  1
  Ho  Ho1  1  0.68427168  0.38400936  0.69973895  1
  Ho  Ho2  1  0.31573669  0.01548028  0.69974534  1
  Ho  Ho3  1  0.68427204  0.98453419  0.30026380  1
  Ho  Ho4  1  0.18647564  0.28978756  0.47626914  1
  Ho  Ho5  1  0.81352060  0.71022102  0.52374667  1
  Ho  Ho6  1  0.18647602  0.71020694  0.89668973  1
  Ho  Ho7  1  0.81352281  0.28977437  0.10330187  1
  Ho  Ho8  1  0.44198137  0.22867554  0.21330487  1
  Ho  Ho9  1  0.55804252  0.77134683  0.78669704  1
  Ho  Ho10  1  0.01534352  0.22865238  0.78669128  1
  Ho  Ho11  1  0.98462521  0.77132351  0.21330197  1
  In  In0  1  0.49999820  0.50000004  -0.00000165  1
  In  In1  1  0.00001086  0.00000029  0.00000952  1
  Co  Co0  1  0.11004015  0.61003920  0.49999699  1
  Co  Co1  1  0.88996473  0.38996403  0.50000030  1
  Co  Co2  1  0.38275855  -0.00000157  0.38276120  1
  Co  Co3  1  0.61722256  -0.00000317  0.61722545  1
loop_
_geom_bond_atom_site_label_1
_geom_bond_atom_site_label_2
_geom_bond_distance
_geom_bond_site_symmetry_2
Ho0 In0 3.358870 1_555
Ho1 In0 3.358961 1_556
Ho2 In0 3.358868 1_556
Ho3 In0 3.358963 1_555
Ho4 In1 3.256222 1_555
Ho4 In0 3.592921 1_556
Ho5 In1 3.256199 1_666
Ho5 In0 3.593035 1_555
Ho6 In1 3.256216 1_566
Ho6 In0 3.592924 1_556
Ho7 In1 3.256204 1_655
Ho7 In0 3.593056 1_555
Ho8 In1 3.046484 1_555
Ho8 In0 3.371411 1_555
Ho9 In1 3.046451 1_666
Ho9 In0 3.371556 1_556
Ho10 In1 3.046466 1_556
Ho10 In0 3.371592 1_556
Ho11 In1 3.046483 1_665
Ho11 In0 3.371381 1_555
Co0 Co1 2.176078 1_455
Co0 Ho0 2.767740 1_555
Co0 Ho2 2.767760 1_565
Co0 Ho4 2.876264 1_555
Co0 Ho6 2.876300 1_555
Co0 Ho7 2.876309 1_455
Co0 Ho5 2.876357 1_455
Co0 Ho11 3.174022 1_455
Co0 Ho9 3.174132 1_555
Co1 Ho3 2.767687 1_545
Co1 Ho1 2.767705 1_555
Co1 Ho4 2.876225 1_655
Co1 Ho6 2.876228 1_655
Co1 Ho7 2.876298 1_555
Co1 Ho5 2.876314 1_555
Co1 Ho8 3.174030 1_555
Co1 Ho10 3.174116 1_655
Co2 Co3 2.244336 1_555
Co2 Ho11 2.782746 1_445
Co2 Ho8 2.782761 1_555
Co2 Ho2 2.846531 1_555
Co2 Ho0 2.846552 1_545
Co2 Ho1 2.846554 1_555
Co2 Ho3 2.846562 1_545
Co2 Ho6 3.308635 1_544
Co2 Ho4 3.308643 1_555
Co3 Ho9 2.782627 1_545
Co3 Ho10 2.782630 1_655
Co3 Ho0 2.846470 1_545
Co3 Ho2 2.846471 1_555
Co3 Ho3 2.846506 1_545
Co3 Ho1 2.846512 1_555
Co3 Ho5 3.308621 1_545
Co3 Ho7 3.308631 1_556
