# generated using pymatgen
data_NaMg14Co
_symmetry_space_group_name_H-M   'P 1'
_cell_length_a   6.33747334
_cell_length_b   6.42192140
_cell_length_c   9.96747495
_cell_angle_alpha   90.00000000
_cell_angle_beta   90.00000000
_cell_angle_gamma   120.44178689
_symmetry_Int_Tables_number   1
_chemical_formula_structural   NaMg14Co
_chemical_formula_sum   'Na1 Mg14 Co1'
_cell_volume   349.74078916
_cell_formula_units_Z   1
loop_
 _symmetry_equiv_pos_site_id
 _symmetry_equiv_pos_as_xyz
  1  'x, y, z'
loop_
 _atom_site_type_symbol
 _atom_site_label
 _atom_site_symmetry_multiplicity
 _atom_site_fract_x
 _atom_site_fract_y
 _atom_site_fract_z
 _atom_site_occupancy
  Na  Na0  1  0.16523401  0.83261650  0.12500000  1
  Mg  Mg0  1  0.16730399  0.33365149  0.62500000  1
  Mg  Mg1  1  0.17095401  0.83547650  0.62500000  1
  Mg  Mg2  1  0.66753324  0.33776534  0.12500000  1
  Mg  Mg3  1  0.66532024  0.33014908  0.62500000  1
  Mg  Mg4  1  0.66753324  0.82976690  0.12500000  1
  Mg  Mg5  1  0.66532024  0.83517016  0.62500000  1
  Mg  Mg6  1  0.32619313  0.17579770  0.36491616  1
  Mg  Mg7  1  0.32619313  0.17579770  0.88508384  1
  Mg  Mg8  1  0.32619313  0.65039643  0.36491616  1
  Mg  Mg9  1  0.32619313  0.65039643  0.88508384  1
  Mg  Mg10  1  0.84659425  0.17329762  0.36064893  1
  Mg  Mg11  1  0.84659425  0.17329762  0.88935107  1
  Mg  Mg12  1  0.83014648  0.66507374  0.38227392  1
  Mg  Mg13  1  0.83014648  0.66507374  0.86772608  1
  Co  Co0  1  0.17254706  0.33627303  0.12500000  1
loop_
_geom_bond_atom_site_label_1
_geom_bond_atom_site_label_2
_geom_bond_distance
_geom_bond_site_symmetry_2
Mg0 Mg6 3.129921 1_555
Mg0 Mg7 3.129921 1_555
Mg0 Mg8 3.129927 1_555
Mg0 Mg9 3.129927 1_555
Mg0 Mg11 3.164383 1_455
Mg0 Mg10 3.164383 1_455
Mg0 Mg5 3.167620 1_555
Mg0 Mg3 3.167620 1_555
Mg0 Mg5 3.169972 1_445
Mg0 Mg3 3.169972 1_455
Mg0 Mg1 3.211023 1_555
Mg0 Mg1 3.211023 1_545
Mg1 Mg12 3.052996 1_455
Mg1 Mg13 3.052996 1_455
Mg1 Mg3 3.134030 1_565
Mg1 Mg5 3.134030 1_555
Mg1 Mg3 3.203444 1_455
Mg1 Mg5 3.203444 1_455
Mg1 Mg8 3.207173 1_555
Mg1 Mg9 3.207173 1_555
Mg1 Mg6 3.207180 1_565
Mg1 Mg7 3.207180 1_565
Mg2 Mg7 3.033153 1_554
Mg2 Mg6 3.033153 1_555
Mg2 Na0 3.144933 1_655
Mg2 Mg4 3.159595 1_555
Mg2 Na0 3.192619 1_545
Mg2 Mg4 3.262326 1_545
Mg3 Mg5 3.178716 1_545
Mg3 Mg6 3.187996 1_555
Mg3 Mg7 3.187996 1_555
Mg3 Mg5 3.243206 1_555
Mg4 Mg9 3.033153 1_554
Mg4 Mg8 3.033153 1_555
Mg4 Na0 3.144933 1_655
Mg4 Na0 3.192619 1_555
Mg5 Mg8 3.187995 1_555
Mg5 Mg9 3.187995 1_555
Mg6 Mg8 3.047836 1_555
Mg6 Na0 3.055841 1_545
Mg6 Mg8 3.374086 1_545
Mg7 Mg9 3.047836 1_555
Mg7 Na0 3.055841 1_546
Mg7 Mg9 3.374086 1_545
Mg8 Na0 3.055834 1_555
Mg9 Na0 3.055834 1_556
Mg10 Mg2 3.022388 1_555
Mg10 Mg4 3.022395 1_545
Mg10 Mg8 3.031640 1_655
Mg10 Mg6 3.031640 1_655
Mg10 Mg12 3.219442 1_545
Mg10 Mg12 3.219442 1_555
Mg10 Mg3 3.232614 1_555
Mg10 Mg5 3.232620 1_545
Mg10 Mg8 3.306465 1_545
Mg10 Mg6 3.306465 1_555
Mg11 Mg2 3.022388 1_556
Mg11 Mg4 3.022395 1_546
Mg11 Mg9 3.031640 1_655
Mg11 Mg7 3.031640 1_655
Mg11 Mg13 3.219442 1_545
Mg11 Mg13 3.219442 1_555
Mg11 Mg3 3.232614 1_555
Mg11 Mg5 3.232620 1_545
Mg11 Mg9 3.306465 1_545
Mg11 Mg7 3.306465 1_555
Mg12 Mg5 3.048598 1_555
Mg12 Mg3 3.048605 1_555
Mg12 Mg4 3.140247 1_555
Mg12 Mg2 3.140254 1_555
Mg12 Na0 3.150879 1_655
Mg12 Mg6 3.151836 1_555
Mg12 Mg8 3.151836 1_555
Mg12 Mg6 3.197158 1_665
Mg12 Mg8 3.197158 1_655
Mg13 Mg5 3.048598 1_555
Mg13 Mg3 3.048605 1_555
Mg13 Mg4 3.140247 1_556
Mg13 Mg2 3.140254 1_556
Mg13 Na0 3.150879 1_656
Mg13 Mg7 3.151836 1_555
Mg13 Mg9 3.151836 1_555
Mg13 Mg7 3.197158 1_665
Mg13 Mg9 3.197158 1_655
Co0 Mg11 2.947668 1_454
Co0 Mg10 2.947668 1_455
Co0 Mg7 2.957305 1_554
Co0 Mg6 2.957305 1_555
Co0 Mg9 2.957311 1_554
Co0 Mg8 2.957311 1_555
Co0 Mg4 3.132117 1_555
Co0 Mg2 3.132117 1_555
Co0 Mg4 3.205378 1_445
Co0 Mg2 3.205378 1_455
Co0 Na0 3.211209 1_555
Co0 Na0 3.211209 1_545
