# generated using pymatgen
data_ScBr2O7
_symmetry_space_group_name_H-M   'P 1'
_cell_length_a   6.48172800
_cell_length_b   9.07671400
_cell_length_c   11.89332200
_cell_angle_alpha   90.00000000
_cell_angle_beta   90.00000000
_cell_angle_gamma   90.00000000
_symmetry_Int_Tables_number   1
_chemical_formula_structural   ScBr2O7
_chemical_formula_sum   'Sc4 Br8 O28'
_cell_volume   699.71733087
_cell_formula_units_Z   4
loop_
 _symmetry_equiv_pos_site_id
 _symmetry_equiv_pos_as_xyz
  1  'x, y, z'
loop_
 _atom_site_type_symbol
 _atom_site_label
 _atom_site_symmetry_multiplicity
 _atom_site_fract_x
 _atom_site_fract_y
 _atom_site_fract_z
 _atom_site_occupancy
  Sc  Sc0  1  0.00000000  0.40264800  0.59936000  1
  Sc  Sc1  1  0.00000000  0.59735200  0.40064000  1
  Sc  Sc2  1  0.50000000  0.90264800  0.90064000  1
  Sc  Sc3  1  0.50000000  0.09735200  0.09936000  1
  Br  Br0  1  0.50000000  0.36623600  0.76198700  1
  Br  Br1  1  0.50000000  0.63376400  0.23801300  1
  Br  Br2  1  0.00000000  0.86623600  0.73801300  1
  Br  Br3  1  0.00000000  0.13376400  0.26198700  1
  Br  Br4  1  0.50000000  0.74186300  0.63086100  1
  Br  Br5  1  0.50000000  0.25813700  0.36913900  1
  Br  Br6  1  0.00000000  0.24186300  0.86913900  1
  Br  Br7  1  0.00000000  0.75813700  0.13086100  1
  O  O0  1  0.00000000  0.38368300  0.43746200  1
  O  O1  1  0.00000000  0.61631700  0.56253800  1
  O  O2  1  0.50000000  0.88368300  0.06253800  1
  O  O3  1  0.50000000  0.11631700  0.93746200  1
  O  O4  1  0.00000000  0.20826000  0.72334100  1
  O  O5  1  0.00000000  0.79174000  0.27665900  1
  O  O6  1  0.50000000  0.70826000  0.77665900  1
  O  O7  1  0.50000000  0.29174000  0.22334100  1
  O  O8  1  0.67186800  0.18285700  0.55614000  1
  O  O9  1  0.67186800  0.81714300  0.44386000  1
  O  O10  1  0.82813200  0.68285700  0.94386000  1
  O  O11  1  0.82813200  0.31714300  0.05614000  1
  O  O12  1  0.32813200  0.81714300  0.44386000  1
  O  O13  1  0.32813200  0.18285700  0.55614000  1
  O  O14  1  0.17186800  0.31714300  0.05614000  1
  O  O15  1  0.17186800  0.68285700  0.94386000  1
  O  O16  1  0.70782000  0.43085500  0.68920500  1
  O  O17  1  0.70782000  0.56914500  0.31079500  1
  O  O18  1  0.79218000  0.93085500  0.81079500  1
  O  O19  1  0.79218000  0.06914500  0.18920500  1
  O  O20  1  0.29218000  0.56914500  0.31079500  1
  O  O21  1  0.29218000  0.43085500  0.68920500  1
  O  O22  1  0.20782000  0.06914500  0.18920500  1
  O  O23  1  0.20782000  0.93085500  0.81079500  1
  O  O24  1  0.50000000  0.14493700  0.61113600  1
  O  O25  1  0.50000000  0.85506300  0.38886400  1
  O  O26  1  0.00000000  0.64493700  0.88886400  1
  O  O27  1  0.00000000  0.35506300  0.11113600  1
loop_
_geom_bond_atom_site_label_1
_geom_bond_atom_site_label_2
_geom_bond_distance
_geom_bond_site_symmetry_2
Br0 O21 1.705230 1_555
Br0 O16 1.705230 1_555
Br1 O20 1.705230 1_555
Br1 O17 1.705230 1_555
Br2 O23 1.705230 1_555
Br2 O18 1.705230 1_455
Br3 O19 1.705230 1_455
Br3 O22 1.705230 1_555
Br4 O6 1.760643 1_555
Br4 O12 2.579602 1_555
Br4 O9 2.579602 1_555
Br5 O7 1.760643 1_555
Br5 O8 2.579602 1_555
Br5 O13 2.579602 1_555
Br6 O4 1.760643 1_555
Br6 O11 2.579602 1_456
Br6 O14 2.579602 1_556
Br7 O5 1.760643 1_555
Br7 O15 2.579602 1_554
Br7 O10 2.579602 1_454
O0 Sc0 1.933184 1_555
O0 Sc1 1.988243 1_555
O1 Sc1 1.933184 1_555
O1 Sc0 1.988243 1_555
O2 Sc2 1.933184 1_554
O2 Sc3 1.988243 1_565
O3 Sc3 1.933184 1_556
O3 Sc2 1.988243 1_545
O4 Sc0 2.299437 1_555
O5 Sc1 2.299437 1_555
O6 Sc2 2.299437 1_555
O7 Sc3 2.299437 1_555
O8 Sc0 2.961033 1_655
O9 Sc1 2.961033 1_655
O10 O26 1.336897 1_655
O10 Sc2 2.961033 1_555
O11 O27 1.336897 1_655
O11 Sc3 2.961033 1_555
O12 O25 1.336897 1_555
O12 Sc1 2.961033 1_555
O13 O24 1.336897 1_555
O13 Sc0 2.961033 1_555
O14 O27 1.336897 1_555
O14 Sc3 2.961033 1_555
O15 O26 1.336897 1_555
O15 Sc2 2.961033 1_555
O16 Sc0 2.189511 1_655
O17 Sc1 2.189511 1_655
O18 Sc2 2.189511 1_555
O19 Sc3 2.189511 1_555
O20 Sc1 2.189511 1_555
O21 Sc0 2.189511 1_555
O22 Sc3 2.189511 1_555
O23 Sc2 2.189511 1_555
O24 O8 1.336897 1_555
O25 O9 1.336897 1_555
