# generated using pymatgen
data_GdTiFe11C
_symmetry_space_group_name_H-M   'P 1'
_cell_length_a   4.87841900
_cell_length_b   6.49490081
_cell_length_c   6.49490081
_cell_angle_alpha   97.58418770
_cell_angle_beta   112.05877666
_cell_angle_gamma   67.94122334
_symmetry_Int_Tables_number   1
_chemical_formula_structural   GdTiFe11C
_chemical_formula_sum   'Gd1 Ti1 Fe11 C1'
_cell_volume   176.75478023
_cell_formula_units_Z   1
loop_
 _symmetry_equiv_pos_site_id
 _symmetry_equiv_pos_as_xyz
  1  'x, y, z'
loop_
 _atom_site_type_symbol
 _atom_site_label
 _atom_site_symmetry_multiplicity
 _atom_site_fract_x
 _atom_site_fract_y
 _atom_site_fract_z
 _atom_site_occupancy
  Gd  Gd0  1  0.00813100  0.99186900  0.00813100  1
  Ti  Ti0  1  0.63371100  0.36628900  0.63371100  1
  Fe  Fe0  1  0.72588000  0.77412000  0.22588000  1
  Fe  Fe1  1  0.27662300  0.22337700  0.77662300  1
  Fe  Fe2  1  0.49747500  0.78164700  0.77659600  1
  Fe  Fe3  1  0.49747500  0.22340400  0.21835300  1
  Fe  Fe4  1  0.49997000  0.99762800  0.49882700  1
  Fe  Fe5  1  0.00122900  0.99762800  0.49882700  1
  Fe  Fe6  1  0.49997000  0.50117300  0.00237200  1
  Fe  Fe7  1  0.00122900  0.50117300  0.00237200  1
  Fe  Fe8  1  0.35727600  0.64272400  0.35727600  1
  Fe  Fe9  1  0.99978900  0.35909900  0.35867600  1
  Fe  Fe10  1  0.99978900  0.64132400  0.64090100  1
  C  C0  1  0.50145500  0.99854500  0.00145500  1
loop_
_geom_bond_atom_site_label_1
_geom_bond_atom_site_label_2
_geom_bond_distance
_geom_bond_site_symmetry_2
Gd0 Ti0 3.170512 1_464
Fe0 Fe4 2.459899 1_555
Fe0 Fe6 2.459899 1_555
Fe0 Fe5 2.459899 1_655
Fe0 Fe7 2.459899 1_655
Fe0 Fe10 2.614934 1_555
Fe0 Fe9 2.614934 1_555
Fe1 Fe6 2.484084 1_556
Fe1 Fe4 2.484084 1_545
Fe1 Fe7 2.484084 1_556
Fe1 Fe5 2.484084 1_545
Fe1 Fe9 2.636935 1_455
Fe1 Fe10 2.636935 1_455
Fe1 Ti0 2.722904 1_555
Fe1 Ti0 2.722904 1_455
Fe2 Fe4 2.433101 1_555
Fe2 Fe5 2.433104 1_555
Fe2 Fe7 2.478692 1_656
Fe2 Fe6 2.478695 1_556
Fe2 Ti0 2.652602 1_555
Fe3 Fe6 2.433101 1_555
Fe3 Fe7 2.433104 1_555
Fe3 Fe5 2.478692 1_645
Fe3 Fe4 2.478695 1_545
Fe3 Ti0 2.652602 1_555
Fe3 Fe9 2.710156 1_455
Fe3 Fe9 2.710156 1_555
Fe4 Fe5 2.433068 1_555
Fe4 Fe5 2.445351 1_655
Fe4 Fe8 2.609269 1_555
Fe4 Fe9 2.624371 1_465
Fe4 Ti0 2.667728 1_565
Fe4 Gd0 3.194970 1_555
Fe4 Gd0 3.300402 1_656
Fe5 Fe8 2.609269 1_555
Fe5 Fe9 2.624373 1_465
Fe5 Ti0 2.667728 1_465
Fe5 Gd0 3.194970 1_555
Fe5 Gd0 3.300402 1_556
Fe6 Fe7 2.433068 1_555
Fe6 Fe7 2.445351 1_655
Fe6 Fe9 2.605308 1_555
Fe6 Fe8 2.609269 1_555
Fe6 Ti0 2.667728 1_554
Fe6 Gd0 3.194970 1_555
Fe6 Gd0 3.300402 1_645
Fe7 Fe9 2.605305 1_455
Fe7 Fe8 2.609269 1_555
Fe7 Ti0 2.667728 1_454
Fe7 Gd0 3.194970 1_555
Fe7 Gd0 3.300402 1_545
Fe8 Ti0 2.340795 1_555
Fe8 Fe9 2.977293 1_455
Fe8 Fe9 2.977297 1_555
Fe9 Ti0 2.948561 1_655
Fe9 Ti0 2.948564 1_555
Fe9 Gd0 3.072026 1_645
Fe10 Fe9 2.415167 1_555
Fe10 Fe5 2.605305 1_655
Fe10 Fe4 2.605308 1_555
Fe10 Fe6 2.624371 1_656
Fe10 Fe7 2.624373 1_656
Fe10 Fe2 2.710156 1_655
Fe10 Fe2 2.710156 1_555
Fe10 Ti0 2.948561 1_655
Fe10 Ti0 2.948564 1_555
Fe10 Fe8 2.977293 1_655
Fe10 Fe8 2.977297 1_555
Fe10 Gd0 3.072026 1_656
C0 Fe2 1.890489 1_554
C0 Fe3 1.890489 1_565
C0 Fe0 1.900385 1_555
C0 Fe1 1.903832 1_564
C0 Gd0 2.439864 1_555
C0 Gd0 2.439864 1_655
