# generated using pymatgen
data_MnZnAs2O7
_symmetry_space_group_name_H-M   'P 1'
_cell_length_a   8.86838900
_cell_length_b   7.41833900
_cell_length_c   9.76719023
_cell_angle_alpha   65.28499456
_cell_angle_beta   90.00000000
_cell_angle_gamma   90.00000000
_symmetry_Int_Tables_number   1
_chemical_formula_structural   MnZnAs2O7
_chemical_formula_sum   'Mn4 Zn4 As8 O28'
_cell_volume   583.71057995
_cell_formula_units_Z   4
loop_
 _symmetry_equiv_pos_site_id
 _symmetry_equiv_pos_as_xyz
  1  'x, y, z'
loop_
 _atom_site_type_symbol
 _atom_site_label
 _atom_site_symmetry_multiplicity
 _atom_site_fract_x
 _atom_site_fract_y
 _atom_site_fract_z
 _atom_site_occupancy
  Mn  Mn0  1  0.94870100  0.19121900  0.67561100  1
  Mn  Mn1  1  0.44870100  0.80878100  0.82438900  1
  Mn  Mn2  1  0.05129900  0.80878100  0.32438900  1
  Mn  Mn3  1  0.55129900  0.19121900  0.17561100  1
  Zn  Zn0  1  0.07915900  0.72084600  0.89294100  1
  Zn  Zn1  1  0.57915900  0.27915400  0.60705900  1
  Zn  Zn2  1  0.92084100  0.27915400  0.10705900  1
  Zn  Zn3  1  0.42084100  0.72084600  0.39294100  1
  As  As0  1  0.77823600  0.56450900  0.75138000  1
  As  As1  1  0.27823600  0.43549100  0.74862000  1
  As  As2  1  0.22176400  0.43549100  0.24862000  1
  As  As3  1  0.72176400  0.56450900  0.25138000  1
  As  As4  1  0.72789500  0.98450300  0.95663800  1
  As  As5  1  0.22789500  0.01549700  0.54336200  1
  As  As6  1  0.27210500  0.01549700  0.04336200  1
  As  As7  1  0.77210500  0.98450300  0.45663800  1
  O  O0  1  0.73484600  0.14208900  0.04397100  1
  O  O1  1  0.23484600  0.85791100  0.45602900  1
  O  O2  1  0.26515400  0.85791100  0.95602900  1
  O  O3  1  0.76515400  0.14208900  0.54397100  1
  O  O4  1  0.60976400  0.63523400  0.78798300  1
  O  O5  1  0.10976400  0.36476600  0.71201700  1
  O  O6  1  0.39023600  0.36476600  0.21201700  1
  O  O7  1  0.89023600  0.63523400  0.28798300  1
  O  O8  1  0.91232000  0.52763400  0.88831100  1
  O  O9  1  0.41232000  0.47236600  0.61168900  1
  O  O10  1  0.08768000  0.47236600  0.11168900  1
  O  O11  1  0.58768000  0.52763400  0.38831100  1
  O  O12  1  0.85496700  0.75489900  0.58287800  1
  O  O13  1  0.35496700  0.24510100  0.91712200  1
  O  O14  1  0.14503300  0.24510100  0.41712200  1
  O  O15  1  0.64503300  0.75489900  0.08287800  1
  O  O16  1  0.91276400  0.04049900  0.32410300  1
  O  O17  1  0.41276400  0.95950100  0.17589700  1
  O  O18  1  0.08723600  0.95950100  0.67589700  1
  O  O19  1  0.58723600  0.04049900  0.82410300  1
  O  O20  1  0.73071400  0.37001800  0.20051100  1
  O  O21  1  0.23071400  0.62998200  0.29948900  1
  O  O22  1  0.26928600  0.62998200  0.79948900  1
  O  O23  1  0.76928600  0.37001800  0.70051100  1
  O  O24  1  0.60184700  0.94795000  0.39194300  1
  O  O25  1  0.10184700  0.05205000  0.10805700  1
  O  O26  1  0.39815300  0.05205000  0.60805700  1
  O  O27  1  0.89815300  0.94795000  0.89194300  1
loop_
_geom_bond_atom_site_label_1
_geom_bond_atom_site_label_2
_geom_bond_distance
_geom_bond_site_symmetry_2
Mn0 O5 2.051089 1_655
Mn0 O18 2.111928 1_645
Mn0 O23 2.149390 1_555
Mn0 O27 2.175709 1_545
Mn0 O3 2.197151 1_555
Mn1 O4 2.051089 1_555
Mn1 O19 2.111928 1_565
Mn1 O22 2.149390 1_555
Mn1 O26 2.175709 1_565
Mn1 O2 2.197151 1_555
Mn2 O7 2.051089 1_455
Mn2 O16 2.111928 1_465
Mn2 O21 2.149390 1_555
Mn2 O25 2.175709 1_565
Mn2 O1 2.197151 1_555
Mn3 O6 2.051089 1_555
Mn3 O17 2.111928 1_545
Mn3 O20 2.149390 1_555
Mn3 O24 2.175709 1_545
Mn3 O0 2.197151 1_555
As0 O4 1.670985 1_555
As0 O23 1.712970 1_555
As0 O8 1.723833 1_555
As0 O12 1.795199 1_555
As1 O5 1.670985 1_555
As1 O22 1.712970 1_555
As1 O9 1.723833 1_555
As1 O13 1.795199 1_555
As2 O6 1.670985 1_555
As2 O21 1.712970 1_555
As2 O10 1.723833 1_555
As2 O14 1.795199 1_555
As3 O7 1.670985 1_555
As3 O20 1.712970 1_555
As3 O11 1.723833 1_555
As3 O15 1.795199 1_555
As4 O27 1.701744 1_555
As4 O0 1.712273 1_566
As4 O19 1.718915 1_565
As4 O15 1.790338 1_556
As5 O26 1.701744 1_555
As5 O1 1.712273 1_545
As5 O18 1.718915 1_545
As5 O14 1.790338 1_555
As6 O25 1.701744 1_555
As6 O2 1.712273 1_544
As6 O17 1.718915 1_545
As6 O13 1.790338 1_554
As7 O24 1.701744 1_555
As7 O3 1.712273 1_565
As7 O16 1.718915 1_565
As7 O12 1.790338 1_555
O0 Zn2 2.158299 1_555
O1 Zn3 2.158299 1_555
O2 Zn0 2.158299 1_555
O3 Zn1 2.158299 1_555
O8 Zn0 2.073602 1_655
O8 Zn2 2.162195 1_556
O9 Zn1 2.073602 1_555
O9 Zn3 2.162195 1_555
O10 Zn2 2.073602 1_455
O10 Zn0 2.162195 1_554
O11 Zn3 2.073602 1_555
O11 Zn1 2.162195 1_555
O16 Zn2 2.120174 1_555
O17 Zn3 2.120174 1_555
O18 Zn0 2.120174 1_555
O19 Zn1 2.120174 1_555
O20 Zn2 2.155221 1_555
O21 Zn3 2.155221 1_555
O22 Zn0 2.155221 1_555
O23 Zn1 2.155221 1_555
O24 Zn3 2.324104 1_555
O25 Zn2 2.324104 1_455
O26 Zn1 2.324104 1_555
O27 Zn0 2.324104 1_655
