# generated using pymatgen
data_Fe3O4
_symmetry_space_group_name_H-M   'P 1'
_cell_length_a   6.09147700
_cell_length_b   6.09223100
_cell_length_c   16.97859873
_cell_angle_alpha   89.84056737
_cell_angle_beta   90.00000000
_cell_angle_gamma   90.00000000
_symmetry_Int_Tables_number   1
_chemical_formula_structural   Fe3O4
_chemical_formula_sum   'Fe24 O32'
_cell_volume   630.08499018
_cell_formula_units_Z   8
loop_
 _symmetry_equiv_pos_site_id
 _symmetry_equiv_pos_as_xyz
  1  'x, y, z'
loop_
 _atom_site_type_symbol
 _atom_site_label
 _atom_site_symmetry_multiplicity
 _atom_site_fract_x
 _atom_site_fract_y
 _atom_site_fract_z
 _atom_site_occupancy
  Fe  Fe0  1  0.25157400  0.50023200  0.50338300  1
  Fe  Fe1  1  0.25155500  0.50484700  0.00456800  1
  Fe  Fe2  1  0.24788400  0.99741200  0.75721800  1
  Fe  Fe3  1  0.50000000  0.49818400  0.69365200  1
  Fe  Fe4  1  0.50000000  0.74832700  0.87708900  1
  Fe  Fe5  1  0.00000000  0.25178600  0.13171500  1
  Fe  Fe6  1  0.25604000  0.99553500  0.25274500  1
  Fe  Fe7  1  0.50000000  0.75558200  0.37665800  1
  Fe  Fe8  1  0.50000000  0.24706400  0.88120500  1
  Fe  Fe9  1  0.50000000  0.24420600  0.37583800  1
  Fe  Fe10  1  0.50000000  0.99814500  0.56923300  1
  Fe  Fe11  1  0.00000000  0.49369500  0.81738700  1
  Fe  Fe12  1  0.50000000  0.50155300  0.19083300  1
  Fe  Fe13  1  0.00000000  0.24482500  0.63034500  1
  Fe  Fe14  1  0.00000000  0.50118300  0.31405200  1
  Fe  Fe15  1  0.00000000  0.00015200  0.44416400  1
  Fe  Fe16  1  0.74842600  0.50023200  0.50338300  1
  Fe  Fe17  1  0.74844500  0.50484700  0.00456800  1
  Fe  Fe18  1  0.00000000  0.00644900  0.94481500  1
  Fe  Fe19  1  0.00000000  0.75156100  0.12942200  1
  Fe  Fe20  1  0.74396000  0.99553500  0.25274500  1
  Fe  Fe21  1  0.75211600  0.99741200  0.75721800  1
  Fe  Fe22  1  0.00000000  0.75244700  0.63135400  1
  Fe  Fe23  1  0.50000000  0.99501800  0.07099700  1
  O  O0  1  0.74080000  0.49088700  0.88477800  1
  O  O1  1  0.00000000  0.27240200  0.00996600  1
  O  O2  1  0.50000000  0.27454200  0.49638100  1
  O  O3  1  0.76316400  0.49714800  0.62504100  1
  O  O4  1  0.26519000  0.49991200  0.38002100  1
  O  O5  1  0.00000000  0.24583200  0.74878300  1
  O  O6  1  0.78469400  0.99097500  0.13185700  1
  O  O7  1  0.50000000  0.72236200  0.00115500  1
  O  O8  1  0.50000000  0.77070700  0.25819700  1
  O  O9  1  0.50000000  0.75217200  0.75618900  1
  O  O10  1  0.25626700  0.01614700  0.88309800  1
  O  O11  1  0.00000000  0.27939700  0.50923500  1
  O  O12  1  0.23683600  0.49714800  0.62504100  1
  O  O13  1  0.50000000  0.27824000  0.00134400  1
  O  O14  1  0.00000000  0.24048600  0.25101100  1
  O  O15  1  0.21612100  0.51020600  0.12388900  1
  O  O16  1  0.25920000  0.49088700  0.88477800  1
  O  O17  1  0.72431200  0.99949300  0.37542200  1
  O  O18  1  0.00000000  0.71944200  0.50963900  1
  O  O19  1  0.50000000  0.24881200  0.76180200  1
  O  O20  1  0.27568800  0.99949300  0.37542200  1
  O  O21  1  0.78387900  0.51020600  0.12388900  1
  O  O22  1  0.00000000  0.74705200  0.75032500  1
  O  O23  1  0.50000000  0.72329400  0.49683500  1
  O  O24  1  0.73481000  0.49991200  0.38002100  1
  O  O25  1  0.00000000  0.73734600  0.01008100  1
  O  O26  1  0.21530600  0.99097500  0.13185700  1
  O  O27  1  0.00000000  0.76005600  0.24806600  1
  O  O28  1  0.77920800  0.99896600  0.63026100  1
  O  O29  1  0.50000000  0.22771700  0.25664800  1
  O  O30  1  0.22079200  0.99896600  0.63026100  1
  O  O31  1  0.74373300  0.01614700  0.88309800  1
loop_
_geom_bond_atom_site_label_1
_geom_bond_atom_site_label_2
_geom_bond_distance
_geom_bond_site_symmetry_2
Fe0 O18 2.035681 1_555
Fe0 O23 2.036731 1_555
Fe0 O11 2.041469 1_555
Fe0 O2 2.048308 1_555
Fe0 O12 2.067566 1_555
Fe0 O4 2.096162 1_555
Fe1 O7 2.012294 1_555
Fe1 O16 2.036413 1_554
Fe1 O15 2.037721 1_555
Fe1 O13 2.049313 1_555
Fe1 O1 2.088327 1_555
Fe1 O25 2.088987 1_555
Fe2 O10 2.141238 1_565
Fe2 O5 2.142386 1_565
Fe2 O9 2.142713 1_555
Fe2 O22 2.149679 1_555
Fe2 O30 2.161855 1_555
Fe2 O19 2.170492 1_565
Fe3 O9 1.879055 1_555
Fe3 O19 1.907130 1_555
Fe3 O3 1.981643 1_555
Fe3 O12 1.981643 1_555
Fe4 O9 2.052781 1_555
Fe4 O7 2.111959 1_556
Fe4 O0 2.151119 1_555
Fe4 O16 2.151119 1_555
Fe4 O31 2.208583 1_565
Fe4 O10 2.208583 1_565
Fe5 O14 2.026457 1_555
Fe5 O21 2.056270 1_455
Fe5 O15 2.056270 1_555
Fe5 O26 2.060284 1_545
Fe5 O6 2.060284 1_445
Fe5 O1 2.070591 1_555
Fe6 O8 2.022962 1_555
Fe6 O29 2.052843 1_565
Fe6 O26 2.067716 1_555
Fe6 O20 2.086526 1_555
Fe6 O27 2.120742 1_555
Fe6 O14 2.158731 1_565
Fe7 O8 2.013155 1_555
Fe7 O17 2.018756 1_555
Fe7 O20 2.018756 1_555
Fe7 O23 2.049352 1_555
Fe7 O24 2.115362 1_555
Fe7 O4 2.115362 1_555
Fe8 O19 2.027294 1_555
Fe8 O31 2.045528 1_555
Fe8 O10 2.045528 1_555
Fe8 O13 2.049142 1_556
Fe8 O16 2.088601 1_555
Fe8 O0 2.088601 1_555
Fe9 O17 2.022316 1_545
Fe9 O20 2.022316 1_545
Fe9 O29 2.026450 1_555
Fe9 O2 2.055491 1_555
Fe9 O24 2.116208 1_555
Fe9 O4 2.116208 1_555
Fe10 O28 1.991579 1_555
Fe10 O30 1.991579 1_555
Fe10 O23 2.079959 1_555
Fe10 O2 2.086582 1_565
Fe11 O5 1.909650 1_555
Fe11 O22 1.915488 1_555
Fe11 O0 1.949961 1_455
Fe11 O16 1.949961 1_555
Fe12 O8 2.001841 1_555
Fe12 O29 2.005354 1_555
Fe12 O15 2.069932 1_555
Fe12 O21 2.069932 1_555
Fe13 O5 2.010938 1_555
Fe13 O30 2.013057 1_545
Fe13 O28 2.013057 1_445
Fe13 O11 2.066454 1_555
Fe13 O12 2.109901 1_555
Fe13 O3 2.109901 1_455
Fe14 O14 1.917699 1_555
Fe14 O27 1.932004 1_555
Fe14 O24 1.965722 1_455
Fe14 O4 1.965722 1_555
Fe15 O11 2.031069 1_555
Fe15 O18 2.037119 1_545
Fe15 O17 2.045109 1_445
Fe15 O20 2.045109 1_545
Fe16 O18 2.035681 1_655
Fe16 O23 2.036731 1_555
Fe16 O11 2.041469 1_655
Fe16 O2 2.048308 1_555
Fe16 O3 2.067566 1_555
Fe16 O24 2.096162 1_555
Fe17 O7 2.012294 1_555
Fe17 O0 2.036413 1_554
Fe17 O21 2.037721 1_555
Fe17 O13 2.049313 1_555
Fe17 O1 2.088327 1_655
Fe17 O25 2.088987 1_655
Fe18 O31 1.880966 1_455
Fe18 O10 1.880966 1_555
Fe18 O1 1.964381 1_556
Fe18 O25 1.976256 1_546
Fe19 O26 1.962033 1_555
Fe19 O6 1.962033 1_455
Fe19 O15 1.976058 1_555
Fe19 O21 1.976058 1_455
Fe19 O27 2.015218 1_555
Fe19 O25 2.028334 1_555
Fe20 O8 2.022962 1_555
Fe20 O29 2.052843 1_565
Fe20 O6 2.067716 1_555
Fe20 O17 2.086526 1_555
Fe20 O27 2.120742 1_655
Fe20 O14 2.158731 1_665
Fe21 O31 2.141238 1_565
Fe21 O5 2.142386 1_665
Fe21 O9 2.142713 1_555
Fe21 O22 2.149679 1_655
Fe21 O28 2.161855 1_555
Fe21 O19 2.170492 1_565
Fe22 O28 2.016094 1_455
Fe22 O30 2.016094 1_555
Fe22 O22 2.020137 1_555
Fe22 O18 2.076866 1_555
Fe22 O12 2.124342 1_555
Fe22 O3 2.124342 1_455
Fe23 O26 2.018832 1_555
Fe23 O6 2.018832 1_555
Fe23 O7 2.043606 1_555
Fe23 O13 2.089115 1_565
