# generated using pymatgen
data_Ce2Al3GaPd4
_symmetry_space_group_name_H-M   'P 1'
_cell_length_a   4.29070200
_cell_length_b   4.29070200
_cell_length_c   10.41949200
_cell_angle_alpha   90.00000000
_cell_angle_beta   90.00000000
_cell_angle_gamma   90.00000000
_symmetry_Int_Tables_number   1
_chemical_formula_structural   Ce2Al3GaPd4
_chemical_formula_sum   'Ce2 Al3 Ga1 Pd4'
_cell_volume   191.82413612
_cell_formula_units_Z   1
loop_
 _symmetry_equiv_pos_site_id
 _symmetry_equiv_pos_as_xyz
  1  'x, y, z'
loop_
 _atom_site_type_symbol
 _atom_site_label
 _atom_site_symmetry_multiplicity
 _atom_site_fract_x
 _atom_site_fract_y
 _atom_site_fract_z
 _atom_site_occupancy
  Ce  Ce0  1  0.50000000  0.00000000  0.25498800  1
  Ce  Ce1  1  0.00000000  0.50000000  0.74501200  1
  Al  Al0  1  0.00000000  0.00000000  0.50000000  1
  Al  Al1  1  0.50000000  0.00000000  0.87504300  1
  Al  Al2  1  0.00000000  0.50000000  0.12495700  1
  Ga  Ga0  1  0.50000000  0.50000000  0.50000000  1
  Pd  Pd0  1  0.50000000  0.50000000  0.00000000  1
  Pd  Pd1  1  0.00000000  0.00000000  0.00000000  1
  Pd  Pd2  1  0.50000000  0.00000000  0.63612500  1
  Pd  Pd3  1  0.00000000  0.50000000  0.36387500  1
loop_
_geom_bond_atom_site_label_1
_geom_bond_atom_site_label_2
_geom_bond_distance
_geom_bond_site_symmetry_2
Ce0 Pd3 3.239176 1_655
Ce0 Pd3 3.239176 1_545
Ce0 Pd3 3.239176 1_645
Ce0 Pd3 3.239176 1_555
Ce0 Ga0 3.334641 1_545
Ce0 Ga0 3.334641 1_555
Ce0 Pd1 3.414873 1_555
Ce0 Pd0 3.414873 1_545
Ce0 Pd1 3.414873 1_655
Ce0 Pd0 3.414873 1_555
Ce1 Pd2 3.239176 1_565
Ce1 Pd2 3.239176 1_465
Ce1 Pd2 3.239176 1_455
Ce1 Pd2 3.239176 1_555
Ce1 Ga0 3.334641 1_555
Ce1 Ga0 3.334641 1_455
Ce1 Pd0 3.414873 1_556
Ce1 Pd0 3.414873 1_456
Ce1 Pd1 3.414873 1_566
Ce1 Pd1 3.414873 1_556
Al0 Pd3 2.571820 1_555
Al0 Pd3 2.571820 1_545
Al0 Pd2 2.571820 1_555
Al0 Pd2 2.571820 1_455
Al0 Ce0 3.334641 1_555
Al0 Ce1 3.334641 1_555
Al0 Ce1 3.334641 1_545
Al0 Ce0 3.334641 1_455
Al1 Pd2 2.489404 1_555
Al1 Pd1 2.509523 1_656
Al1 Pd0 2.509523 1_556
Al1 Pd1 2.509523 1_556
Al1 Pd0 2.509523 1_546
Al1 Ce1 3.322755 1_555
Al1 Ce1 3.322755 1_545
Al1 Ce1 3.322755 1_655
Al1 Ce1 3.322755 1_645
Al2 Pd3 2.489404 1_555
Al2 Pd1 2.509523 1_565
Al2 Pd0 2.509523 1_555
Al2 Pd1 2.509523 1_555
Al2 Pd0 2.509523 1_455
Al2 Ce0 3.322755 1_565
Al2 Ce0 3.322755 1_455
Al2 Ce0 3.322755 1_555
Al2 Ce0 3.322755 1_465
Ga0 Pd3 2.571820 1_555
Ga0 Pd3 2.571820 1_655
Ga0 Pd2 2.571820 1_555
Ga0 Pd2 2.571820 1_565
