# generated using pymatgen
data_Ti20(AlSi3)3
_symmetry_space_group_name_H-M   'P 1'
_cell_length_a   5.17007400
_cell_length_b   7.55182400
_cell_length_c   13.05067866
_cell_angle_alpha   89.95160624
_cell_angle_beta   90.00000000
_cell_angle_gamma   90.00000000
_symmetry_Int_Tables_number   1
_chemical_formula_structural   Ti20(AlSi3)3
_chemical_formula_sum   'Ti20 Al3 Si9'
_cell_volume   509.54384565
_cell_formula_units_Z   1
loop_
 _symmetry_equiv_pos_site_id
 _symmetry_equiv_pos_as_xyz
  1  'x, y, z'
loop_
 _atom_site_type_symbol
 _atom_site_label
 _atom_site_symmetry_multiplicity
 _atom_site_fract_x
 _atom_site_fract_y
 _atom_site_fract_z
 _atom_site_occupancy
  Ti  Ti0  1  0.75376500  0.00604300  0.66665100  1
  Ti  Ti1  1  0.75188500  0.50253700  0.17011100  1
  Ti  Ti2  1  0.75363100  0.49598900  0.83046400  1
  Ti  Ti3  1  0.75188600  0.00262400  0.33035000  1
  Ti  Ti4  1  0.24636900  0.49598900  0.83046400  1
  Ti  Ti5  1  0.24811400  0.00262400  0.33035000  1
  Ti  Ti6  1  0.24623500  0.00604300  0.66665100  1
  Ti  Ti7  1  0.24811500  0.50253700  0.17011100  1
  Ti  Ti8  1  0.50000000  0.25614900  0.49953900  1
  Ti  Ti9  1  0.50000000  0.75678800  0.00341800  1
  Ti  Ti10  1  0.50000000  0.61588700  0.62172100  1
  Ti  Ti11  1  0.50000000  0.12043900  0.12715100  1
  Ti  Ti12  1  0.50000000  0.12437100  0.87497800  1
  Ti  Ti13  1  0.50000000  0.61982800  0.37412500  1
  Ti  Ti14  1  0.00000000  0.74477400  0.49988400  1
  Ti  Ti15  1  0.00000000  0.24492800  0.00027200  1
  Ti  Ti16  1  0.00000000  0.87721100  0.87805000  1
  Ti  Ti17  1  0.00000000  0.37531400  0.37441600  1
  Ti  Ti18  1  0.00000000  0.37471300  0.62511700  1
  Ti  Ti19  1  0.00000000  0.87455200  0.12581600  1
  Al  Al0  1  0.50000000  0.39431800  0.00099500  1
  Al  Al1  1  0.50000000  0.89227200  0.49948400  1
  Al  Al2  1  0.50000000  0.80147500  0.80222800  1
  Si  Si0  1  0.50000000  0.30313400  0.30412100  1
  Si  Si1  1  0.50000000  0.30301100  0.69545000  1
  Si  Si2  1  0.50000000  0.80354600  0.19750800  1
  Si  Si3  1  0.00000000  0.60668100  0.99984700  1
  Si  Si4  1  0.00000000  0.10690900  0.49857800  1
  Si  Si5  1  0.00000000  0.69961000  0.69650300  1
  Si  Si6  1  0.00000000  0.19746200  0.19465000  1
  Si  Si7  1  0.00000000  0.19409600  0.80567700  1
  Si  Si8  1  0.00000000  0.69813500  0.30531300  1
loop_
_geom_bond_atom_site_label_1
_geom_bond_atom_site_label_2
_geom_bond_distance
_geom_bond_site_symmetry_2
Ti0 Ti6 2.546106 1_655
Ti0 Ti6 2.623968 1_555
Ti1 Ti7 2.565546 1_655
Ti1 Ti7 2.604528 1_555
Ti2 Ti4 2.547492 1_655
Ti2 Ti4 2.622582 1_555
Ti3 Ti5 2.565535 1_655
Ti3 Ti5 2.604539 1_555
Al0 Ti12 2.620354 1_554
Al0 Ti11 2.642491 1_555
Al0 Ti7 2.690359 1_555
Al0 Ti1 2.690359 1_555
Al0 Ti2 2.694284 1_554
Al0 Ti4 2.694284 1_554
Al0 Ti9 2.737519 1_555
Al0 Ti15 2.820511 1_655
Al0 Ti15 2.820511 1_555
Al1 Ti10 2.625972 1_555
Al1 Ti13 2.629704 1_555
Al1 Ti0 2.687419 1_565
Al1 Ti6 2.687419 1_565
Al1 Ti5 2.694349 1_565
Al1 Ti3 2.694349 1_565
Al1 Ti8 2.747936 1_565
Al1 Ti14 2.814811 1_655
Al1 Ti14 2.814811 1_555
Al2 Ti12 2.617518 1_565
Al2 Ti9 2.646981 1_556
Al2 Ti4 2.678802 1_555
Al2 Ti2 2.678802 1_555
Al2 Ti0 2.689602 1_565
Al2 Ti6 2.689602 1_565
Al2 Ti10 2.742146 1_555
Al2 Ti16 2.826599 1_555
Al2 Ti16 2.826599 1_655
Si0 Ti13 2.560896 1_555
Si0 Ti8 2.574605 1_555
Si0 Ti5 2.638548 1_555
Si0 Ti3 2.638548 1_555
Si0 Ti7 2.649108 1_555
Si0 Ti1 2.649108 1_555
Si0 Ti11 2.691292 1_555
Si0 Ti17 2.796784 1_655
Si0 Ti17 2.796784 1_555
Si1 Ti10 2.550444 1_555
Si1 Ti8 2.581443 1_555
Si1 Ti6 2.625541 1_555
Si1 Ti0 2.625541 1_555
Si1 Ti2 2.636737 1_555
Si1 Ti4 2.636737 1_555
Si1 Ti12 2.702608 1_555
Si1 Ti18 2.795945 1_655
Si1 Ti18 2.795945 1_555
Si2 Ti9 2.557795 1_555
Si2 Ti11 2.562502 1_565
Si2 Ti5 2.639350 1_565
Si2 Ti3 2.639350 1_565
Si2 Ti7 2.644314 1_555
Si2 Ti1 2.644314 1_555
Si2 Ti13 2.689310 1_555
Si2 Ti19 2.800805 1_555
Si2 Ti19 2.800805 1_655
Si3 Ti16 2.587462 1_555
Si3 Ti19 2.607772 1_556
Si3 Ti7 2.683031 1_556
Si3 Ti1 2.683031 1_456
Si3 Ti4 2.685314 1_555
Si3 Ti2 2.685314 1_455
Si3 Ti15 2.731896 1_556
Si3 Ti9 2.823063 1_556
Si3 Ti9 2.823063 1_456
Si4 Ti17 2.593966 1_555
Si4 Ti18 2.612081 1_555
Si4 Ti6 2.647519 1_555
Si4 Ti0 2.647519 1_455
Si4 Ti3 2.662482 1_455
Si4 Ti5 2.662482 1_555
Si4 Ti14 2.734819 1_545
Si4 Ti8 2.820072 1_455
Si4 Ti8 2.820072 1_555
Si5 Ti14 2.588294 1_555
Si5 Ti18 2.625221 1_555
Si5 Ti2 2.653098 1_455
Si5 Ti4 2.653098 1_555
Si5 Ti0 2.669477 1_465
Si5 Ti6 2.669477 1_565
Si5 Ti16 2.723574 1_555
Si5 Ti10 2.834732 1_455
Si5 Ti10 2.834732 1_555
Si6 Ti15 2.561665 1_555
Si6 Ti19 2.599475 1_545
Si6 Ti3 2.634847 1_455
Si6 Ti5 2.634847 1_555
Si6 Ti7 2.656059 1_555
Si6 Ti1 2.656059 1_455
Si6 Ti17 2.704311 1_555
Si6 Ti11 2.792421 1_455
Si6 Ti11 2.792421 1_555
Si7 Ti15 2.568766 1_556
Si7 Ti16 2.571970 1_545
Si7 Ti4 2.631730 1_555
Si7 Ti2 2.631730 1_455
Si7 Ti0 2.633213 1_455
Si7 Ti6 2.633213 1_555
Si7 Ti18 2.721727 1_555
Si7 Ti12 2.788701 1_555
Si7 Ti12 2.788701 1_455
Si8 Ti14 2.563888 1_555
Si8 Ti17 2.598634 1_555
Si8 Ti7 2.635371 1_555
Si8 Ti1 2.635371 1_455
Si8 Ti3 2.653486 1_465
Si8 Ti5 2.653486 1_565
Si8 Ti19 2.693928 1_555
Si8 Ti13 2.799591 1_455
Si8 Ti13 2.799591 1_555
