# generated using pymatgen
data_Fe3(GeN)8
_symmetry_space_group_name_H-M   'P 1'
_cell_length_a   10.42958689
_cell_length_b   3.05554481
_cell_length_c   7.86738529
_cell_angle_alpha   89.99999947
_cell_angle_beta   87.83009549
_cell_angle_gamma   81.57676011
_symmetry_Int_Tables_number   1
_chemical_formula_structural   Fe3(GeN)8
_chemical_formula_sum   'Fe3 Ge8 N8'
_cell_volume   247.83214456
_cell_formula_units_Z   1
loop_
 _symmetry_equiv_pos_site_id
 _symmetry_equiv_pos_as_xyz
  1  'x, y, z'
loop_
 _atom_site_type_symbol
 _atom_site_label
 _atom_site_symmetry_multiplicity
 _atom_site_fract_x
 _atom_site_fract_y
 _atom_site_fract_z
 _atom_site_occupancy
  Fe  Fe0  1  0.00000000  0.50000000  0.50000000  1
  Fe  Fe1  1  0.36514500  0.81742700  0.72837600  1
  Fe  Fe2  1  0.63485500  0.18257300  0.27162400  1
  Ge  Ge0  1  0.04349300  0.97825400  0.73843700  1
  Ge  Ge1  1  0.95650700  0.02174600  0.26156300  1
  Ge  Ge2  1  0.77290200  0.61354900  0.55457800  1
  Ge  Ge3  1  0.22709800  0.38645100  0.44542200  1
  Ge  Ge4  1  0.80701100  0.59649400  0.96750200  1
  Ge  Ge5  1  0.19298900  0.40350600  0.03249800  1
  Ge  Ge6  1  0.56200900  0.21899500  0.74041500  1
  Ge  Ge7  1  0.43799100  0.78100500  0.25958500  1
  N  N0  1  0.20396000  0.89802000  0.89014800  1
  N  N1  1  0.79604000  0.10198000  0.10985200  1
  N  N2  1  0.33823900  0.83088100  0.48745200  1
  N  N3  1  0.66176100  0.16911900  0.51254800  1
  N  N4  1  0.68576600  0.65711700  0.79589900  1
  N  N5  1  0.31423400  0.34288300  0.20410100  1
  N  N6  1  0.96311300  0.51844400  0.83948300  1
  N  N7  1  0.03688700  0.48155600  0.16051700  1
loop_
_geom_bond_atom_site_label_1
_geom_bond_atom_site_label_2
_geom_bond_distance
_geom_bond_site_symmetry_2
Fe0 Ge3 2.365788 1_555
Fe0 Ge2 2.365788 1_455
Fe0 Ge0 2.473617 1_545
Fe0 Ge1 2.473617 1_465
Fe0 Ge0 2.473619 1_555
Fe0 Ge1 2.473619 1_455
Fe0 N7 2.683361 1_555
Fe0 N6 2.683361 1_455
Fe1 N2 1.926145 1_555
Fe1 N0 2.055051 1_555
Fe2 N3 1.926145 1_555
Fe2 N1 2.055051 1_555
Ge0 N6 1.898239 1_455
Ge0 N6 1.898239 1_465
Ge0 N0 2.077673 1_555
Ge1 N7 1.898239 1_655
Ge1 N7 1.898239 1_645
Ge1 N1 2.077673 1_555
Ge2 N3 1.946088 1_565
Ge2 N3 1.946090 1_555
Ge2 N4 2.069317 1_555
Ge3 N2 1.946088 1_545
Ge3 N2 1.946090 1_555
Ge3 N5 2.069317 1_555
Ge4 N6 1.866546 1_555
Ge4 N4 1.875286 1_555
Ge4 N1 1.895104 1_556
Ge4 N1 1.895106 1_566
Ge5 N7 1.866546 1_555
Ge5 N5 1.875286 1_555
Ge5 N0 1.895104 1_554
Ge5 N0 1.895106 1_544
Ge6 N3 2.032670 1_555
Ge6 N4 2.048790 1_545
Ge6 N4 2.048792 1_555
Ge7 N2 2.032670 1_555
Ge7 N5 2.048790 1_565
Ge7 N5 2.048792 1_555
