# generated using pymatgen
data_SrSc4Si5O17
_symmetry_space_group_name_H-M   'P 1'
_cell_length_a   19.45089500
_cell_length_b   5.33276600
_cell_length_c   6.63277128
_cell_angle_alpha   73.43397603
_cell_angle_beta   90.00000000
_cell_angle_gamma   90.00000000
_symmetry_Int_Tables_number   1
_chemical_formula_structural   SrSc4Si5O17
_chemical_formula_sum   'Sr2 Sc8 Si10 O34'
_cell_volume   659.44039696
_cell_formula_units_Z   2
loop_
 _symmetry_equiv_pos_site_id
 _symmetry_equiv_pos_as_xyz
  1  'x, y, z'
loop_
 _atom_site_type_symbol
 _atom_site_label
 _atom_site_symmetry_multiplicity
 _atom_site_fract_x
 _atom_site_fract_y
 _atom_site_fract_z
 _atom_site_occupancy
  Sr  Sr0  1  0.25000000  0.76740300  0.77725000  1
  Sr  Sr1  1  0.75000000  0.23259700  0.22275000  1
  Sc  Sc0  1  0.03797300  0.69626100  0.11203300  1
  Sc  Sc1  1  0.53797300  0.30373900  0.88796700  1
  Sc  Sc2  1  0.96202700  0.30373900  0.88796700  1
  Sc  Sc3  1  0.46202700  0.69626100  0.11203300  1
  Sc  Sc4  1  0.15992100  0.35827000  0.46214400  1
  Sc  Sc5  1  0.65992100  0.64173000  0.53785600  1
  Sc  Sc6  1  0.84007900  0.64173000  0.53785600  1
  Sc  Sc7  1  0.34007900  0.35827000  0.46214400  1
  Si  Si0  1  0.25000000  0.93802600  0.25834800  1
  Si  Si1  1  0.75000000  0.06197400  0.74165200  1
  Si  Si2  1  0.13299300  0.23499100  0.98506800  1
  Si  Si3  1  0.63299300  0.76500900  0.01493200  1
  Si  Si4  1  0.86700700  0.76500900  0.01493200  1
  Si  Si5  1  0.36700700  0.23499100  0.98506800  1
  Si  Si6  1  0.06330500  0.80244500  0.59050100  1
  Si  Si7  1  0.56330500  0.19755500  0.40949900  1
  Si  Si8  1  0.93669500  0.19755500  0.40949900  1
  Si  Si9  1  0.43669500  0.80244500  0.59050100  1
  O  O0  1  0.25000000  0.14975000  0.39561100  1
  O  O1  1  0.75000000  0.85025000  0.60438900  1
  O  O2  1  0.25000000  0.63652300  0.40829500  1
  O  O3  1  0.75000000  0.36347700  0.59170500  1
  O  O4  1  0.18345200  0.97811500  0.09900300  1
  O  O5  1  0.68345200  0.02188500  0.90099700  1
  O  O6  1  0.81654800  0.02188500  0.90099700  1
  O  O7  1  0.31654800  0.97811500  0.09900300  1
  O  O8  1  0.17091000  0.38909500  0.76614800  1
  O  O9  1  0.67091000  0.61090500  0.23385200  1
  O  O10  1  0.82909000  0.61090500  0.23385200  1
  O  O11  1  0.32909000  0.38909500  0.76614800  1
  O  O12  1  0.05951400  0.09205700  0.96685600  1
  O  O13  1  0.55951400  0.90794300  0.03314400  1
  O  O14  1  0.94048600  0.90794300  0.03314400  1
  O  O15  1  0.44048600  0.09205700  0.96685600  1
  O  O16  1  0.12748500  0.42159700  0.14491400  1
  O  O17  1  0.62748500  0.57840300  0.85508600  1
  O  O18  1  0.87251500  0.57840300  0.85508600  1
  O  O19  1  0.37251500  0.42159700  0.14491400  1
  O  O20  1  0.13194100  0.97282000  0.60201700  1
  O  O21  1  0.63194100  0.02718000  0.39798300  1
  O  O22  1  0.86805900  0.02718000  0.39798300  1
  O  O23  1  0.36805900  0.97282000  0.60201700  1
  O  O24  1  0.03531500  0.61456100  0.81880300  1
  O  O25  1  0.53531500  0.38543900  0.18119700  1
  O  O26  1  0.96468500  0.38543900  0.18119700  1
  O  O27  1  0.46468500  0.61456100  0.81880300  1
  O  O28  1  0.00000000  0.00000000  0.50000000  1
  O  O29  1  0.50000000  0.00000000  0.50000000  1
  O  O30  1  0.07548100  0.62657100  0.42370100  1
  O  O31  1  0.57548100  0.37342900  0.57629900  1
  O  O32  1  0.92451900  0.37342900  0.57629900  1
  O  O33  1  0.42451900  0.62657100  0.42370100  1
loop_
_geom_bond_atom_site_label_1
_geom_bond_atom_site_label_2
_geom_bond_distance
_geom_bond_site_symmetry_2
O0 Si0 1.640084 1_545
O0 Sc7 2.186551 1_555
O0 Sc4 2.186551 1_555
O0 Sr0 2.760764 1_545
O1 Si1 1.640084 1_565
O1 Sc6 2.186551 1_555
O1 Sc5 2.186551 1_555
O1 Sr1 2.760764 1_565
O2 Si0 1.631701 1_555
O2 Sc7 2.257676 1_555
O2 Sc4 2.257676 1_555
O2 Sr0 2.729447 1_555
O3 Si1 1.631701 1_555
O3 Sc6 2.257676 1_555
O3 Sc5 2.257676 1_555
O3 Sr1 2.729447 1_555
O4 Si0 1.646029 1_555
O4 Si2 1.679457 1_564
O4 Sr0 2.976589 1_554
O5 Si1 1.646029 1_555
O5 Si3 1.679457 1_546
O5 Sr1 2.976589 1_556
O6 Si1 1.646029 1_555
O6 Si4 1.679457 1_546
O6 Sr1 2.976589 1_556
O7 Si0 1.646029 1_555
O7 Si5 1.679457 1_564
O7 Sr0 2.976589 1_554
O8 Si2 1.627042 1_555
O8 Sc4 2.080275 1_555
O8 Sr0 2.554748 1_555
O9 Si3 1.627042 1_555
O9 Sc5 2.080275 1_555
O9 Sr1 2.554748 1_555
O10 Si4 1.627042 1_555
O10 Sc6 2.080275 1_555
O10 Sr1 2.554748 1_555
O11 Si5 1.627042 1_555
O11 Sc7 2.080275 1_555
O11 Sr0 2.554748 1_555
O12 Si2 1.640366 1_555
O12 Sc0 2.097333 1_546
O12 Sc2 2.192460 1_455
O13 Si3 1.640366 1_555
O13 Sc1 2.097333 1_564
O13 Sc3 2.192460 1_555
O14 Si4 1.640366 1_555
O14 Sc2 2.097333 1_564
O14 Sc0 2.192460 1_655
O15 Si5 1.640366 1_555
O15 Sc3 2.097333 1_546
O15 Sc1 2.192460 1_555
O16 Si2 1.651502 1_554
O16 Sc4 2.129364 1_555
O16 Sc0 2.245483 1_555
O17 Si3 1.651502 1_556
O17 Sc5 2.129364 1_555
O17 Sc1 2.245483 1_555
O18 Si4 1.651502 1_556
O18 Sc6 2.129364 1_555
O18 Sc2 2.245483 1_555
O19 Si5 1.651502 1_554
O19 Sc7 2.129364 1_555
O19 Sc3 2.245483 1_555
O20 Si6 1.628870 1_555
O20 Sc4 2.072342 1_565
O20 Sr0 2.664224 1_555
O21 Si7 1.628870 1_555
O21 Sc5 2.072342 1_545
O21 Sr1 2.664224 1_555
O22 Si8 1.628870 1_555
O22 Sc6 2.072342 1_545
O22 Sr1 2.664224 1_555
O23 Si9 1.628870 1_555
O23 Sc7 2.072342 1_565
O23 Sr0 2.664224 1_555
O24 Si6 1.651709 1_555
O24 Sc0 2.111504 1_556
O24 Sc2 2.134569 1_455
O25 Si7 1.651709 1_555
O25 Sc1 2.111504 1_554
O25 Sc3 2.134569 1_555
O26 Si8 1.651709 1_555
O26 Sc2 2.111504 1_554
O26 Sc0 2.134569 1_655
O27 Si9 1.651709 1_555
O27 Sc3 2.111504 1_556
O27 Sc1 2.134569 1_555
O28 Si6 1.620431 1_545
O28 Si8 1.620431 1_455
O29 Si7 1.620431 1_555
O29 Si9 1.620431 1_545
O30 Si6 1.658747 1_555
O30 Sc0 2.122662 1_555
O30 Sc4 2.145161 1_555
O31 Si7 1.658747 1_555
O31 Sc1 2.122662 1_555
O31 Sc5 2.145161 1_555
O32 Si8 1.658747 1_555
O32 Sc2 2.122662 1_555
O32 Sc6 2.145161 1_555
O33 Si9 1.658747 1_555
O33 Sc3 2.122662 1_555
O33 Sc7 2.145161 1_555
