# generated using pymatgen
data_LaNO4
_symmetry_space_group_name_H-M   'P 1'
_cell_length_a   4.02485921
_cell_length_b   4.77072204
_cell_length_c   8.02679616
_cell_angle_alpha   90.00000000
_cell_angle_beta   90.00000000
_cell_angle_gamma   90.00000000
_symmetry_Int_Tables_number   1
_chemical_formula_structural   LaNO4
_chemical_formula_sum   'La2 N2 O8'
_cell_volume   154.12640238
_cell_formula_units_Z   2
loop_
 _symmetry_equiv_pos_site_id
 _symmetry_equiv_pos_as_xyz
  1  'x, y, z'
loop_
 _atom_site_type_symbol
 _atom_site_label
 _atom_site_symmetry_multiplicity
 _atom_site_fract_x
 _atom_site_fract_y
 _atom_site_fract_z
 _atom_site_occupancy
  La  La0  1  0.75000000  0.75000000  0.13029462  1
  La  La1  1  0.25000000  0.25000000  0.86970538  1
  N  N0  1  0.75000000  0.75000000  0.63100817  1
  N  N1  1  0.25000000  0.25000000  0.36899183  1
  O  O0  1  0.75000000  0.75000000  0.47763891  1
  O  O1  1  0.25000000  0.25000000  0.52236109  1
  O  O2  1  0.25000000  0.75000000  0.97196117  1
  O  O3  1  0.75000000  0.25000000  0.02803883  1
  O  O4  1  0.25000000  0.47712921  0.28748240  1
  O  O5  1  0.25000000  0.02287079  0.28748240  1
  O  O6  1  0.75000000  0.52287079  0.71251760  1
  O  O7  1  0.75000000  0.97712921  0.71251760  1
loop_
_geom_bond_atom_site_label_1
_geom_bond_atom_site_label_2
_geom_bond_distance
_geom_bond_site_symmetry_2
La0 O2 2.380144 1_654
La0 O2 2.380144 1_554
La0 O3 2.522625 1_555
La0 O3 2.522625 1_565
La0 O4 2.708589 1_655
La0 O4 2.708589 1_555
La0 O5 2.708589 1_665
La0 O5 2.708589 1_565
La0 O0 2.788062 1_555
La1 O3 2.380144 1_456
La1 O3 2.380144 1_556
La1 O2 2.522625 1_555
La1 O2 2.522625 1_545
La1 O6 2.708589 1_555
La1 O7 2.708589 1_445
La1 O7 2.708589 1_545
La1 O6 2.708589 1_455
La1 O1 2.788062 1_555
N0 O0 1.231064 1_555
N0 O6 1.265773 1_555
N0 O7 1.265773 1_555
N1 O1 1.231064 1_555
N1 O5 1.265773 1_555
N1 O4 1.265773 1_555
