# generated using pymatgen
data_TiCrCuS4
_symmetry_space_group_name_H-M   'P 1'
_cell_length_a   6.86404708
_cell_length_b   5.90831276
_cell_length_c   5.86549317
_cell_angle_alpha   92.11112011
_cell_angle_beta   89.99928374
_cell_angle_gamma   90.00032033
_symmetry_Int_Tables_number   1
_chemical_formula_structural   TiCrCuS4
_chemical_formula_sum   'Ti2 Cr2 Cu2 S8'
_cell_volume   237.71325135
_cell_formula_units_Z   2
loop_
 _symmetry_equiv_pos_site_id
 _symmetry_equiv_pos_as_xyz
  1  'x, y, z'
loop_
 _atom_site_type_symbol
 _atom_site_label
 _atom_site_symmetry_multiplicity
 _atom_site_fract_x
 _atom_site_fract_y
 _atom_site_fract_z
 _atom_site_occupancy
  Ti  Ti0  1  0.75751800  0.50000500  0.49999300  1
  Ti  Ti1  1  0.49135100  0.00000700  0.49999500  1
  Cr  Cr0  1  0.25421400  0.49999300  0.50003200  1
  Cr  Cr1  1  0.99380400  0.00001300  0.49999900  1
  Cu  Cu0  1  0.00180700  0.00000900  0.00000400  1
  Cu  Cu1  1  0.49702000  0.00000300  0.99999200  1
  S  S0  1  0.00520100  0.32254000  0.26782500  1
  S  S1  1  0.50023900  0.32686100  0.26189200  1
  S  S2  1  0.24529200  0.82276100  0.26001600  1
  S  S3  1  0.75141700  0.82654800  0.25370300  1
  S  S4  1  0.24528500  0.17722100  0.73999200  1
  S  S5  1  0.75141400  0.17344800  0.74627400  1
  S  S6  1  0.50024700  0.67313600  0.73810500  1
  S  S7  1  0.00519200  0.67745500  0.73217900  1
loop_
_geom_bond_atom_site_label_1
_geom_bond_atom_site_label_2
_geom_bond_distance
_geom_bond_site_symmetry_2
Cr0 S6 2.396508 1_555
Cr0 S1 2.396649 1_555
Cr0 S7 2.402070 1_555
Cr0 S0 2.402214 1_555
Cr0 S4 2.412325 1_555
Cr0 S2 2.412507 1_555
Cr1 S0 2.383930 1_655
Cr1 S7 2.384101 1_645
Cr1 S5 2.407433 1_555
Cr1 S3 2.407579 1_545
Cr1 S4 2.439038 1_655
Cr1 S2 2.439129 1_645
Cu0 S0 2.424684 1_555
Cu0 S7 2.424801 1_544
Cu0 S3 2.516120 1_445
Cu0 S5 2.516222 1_454
Cu0 S4 2.516507 1_554
Cu0 S2 2.516665 1_545
Cu1 S6 2.423052 1_545
Cu1 S1 2.423056 1_556
Cu1 S5 2.534999 1_555
Cu1 S3 2.535048 1_546
Cu1 S4 2.554503 1_555
Cu1 S2 2.554584 1_546
S0 Ti0 2.395614 1_455
S1 Ti1 2.425336 1_555
S1 Ti0 2.451610 1_555
S2 Ti1 2.412888 1_565
S3 Ti0 2.452809 1_555
S3 Ti1 2.492937 1_565
S4 Ti1 2.412887 1_555
S5 Ti0 2.452842 1_555
S5 Ti1 2.492855 1_555
S6 Ti1 2.425446 1_565
S6 Ti0 2.451559 1_555
S7 Ti0 2.395607 1_455
