# generated using pymatgen
data_K2Zn3S4
_symmetry_space_group_name_H-M   'P 1'
_cell_length_a   9.02182866
_cell_length_b   9.02182866
_cell_length_c   9.02182866
_cell_angle_alpha   143.22077457
_cell_angle_beta   105.74010349
_cell_angle_gamma   85.85833710
_symmetry_Int_Tables_number   1
_chemical_formula_structural   K2Zn3S4
_chemical_formula_sum   'K4 Zn6 S8'
_cell_volume   409.54912949
_cell_formula_units_Z   2
loop_
 _symmetry_equiv_pos_site_id
 _symmetry_equiv_pos_as_xyz
  1  'x, y, z'
loop_
 _atom_site_type_symbol
 _atom_site_label
 _atom_site_symmetry_multiplicity
 _atom_site_fract_x
 _atom_site_fract_y
 _atom_site_fract_z
 _atom_site_occupancy
  K  K0  1  0.62227289  0.73540131  0.35767420  1
  K  K1  1  0.37772711  0.26459869  0.64232580  1
  K  K2  1  0.12227289  0.76459869  0.88687159  1
  K  K3  1  0.87772711  0.23540131  0.11312841  1
  Zn  Zn0  1  0.75000000  0.25000000  0.50000000  1
  Zn  Zn1  1  0.25000000  0.75000000  0.50000000  1
  Zn  Zn2  1  0.97374789  0.75000000  0.22374789  1
  Zn  Zn3  1  0.52625211  0.75000000  0.77625211  1
  Zn  Zn4  1  0.02625211  0.25000000  0.77625211  1
  Zn  Zn5  1  0.47374789  0.25000000  0.22374789  1
  S  S0  1  0.01508380  0.87076134  0.59182737  1
  S  S1  1  0.27893297  0.42325644  0.40817263  1
  S  S2  1  0.22106703  0.62923866  0.14432347  1
  S  S3  1  0.48491620  0.07674356  0.85567653  1
  S  S4  1  0.98491620  0.12923866  0.40817263  1
  S  S5  1  0.72106703  0.57674356  0.59182737  1
  S  S6  1  0.77893297  0.37076134  0.85567653  1
  S  S7  1  0.51508380  0.92325644  0.14432347  1
loop_
_geom_bond_atom_site_label_1
_geom_bond_atom_site_label_2
_geom_bond_distance
_geom_bond_site_symmetry_2
K0 S0 3.308148 1_655
K0 S5 3.308149 1_555
K0 S2 3.389903 1_555
K0 S7 3.389904 1_555
K0 S3 3.392765 1_565
K0 S6 3.392771 1_565
K0 S3 3.502257 1_554
K0 S6 3.502258 1_554
K1 S4 3.308148 1_455
K1 S1 3.308149 1_555
K1 S6 3.389903 1_555
K1 S3 3.389904 1_555
K1 S7 3.392765 1_545
K1 S2 3.392771 1_545
K1 S7 3.502257 1_556
K1 S2 3.502258 1_556
K2 S7 3.308149 1_556
K2 S2 3.308157 1_556
K2 S5 3.389904 1_455
K2 S0 3.389912 1_555
K2 S1 3.392765 1_555
K2 S4 3.392772 1_455
K2 S1 3.502257 1_566
K2 S4 3.502258 1_466
K3 S3 3.308149 1_554
K3 S6 3.308157 1_554
K3 S1 3.389904 1_655
K3 S4 3.389912 1_555
K3 S5 3.392765 1_555
K3 S0 3.392772 1_655
K3 S5 3.502257 1_544
K3 S0 3.502258 1_644
S0 Zn4 2.307459 1_565
S0 Zn1 2.353356 1_555
S0 Zn2 2.438177 1_455
S1 Zn5 2.307467 1_555
S1 Zn1 2.353355 1_555
S1 Zn3 2.438183 1_555
S2 Zn4 2.307463 1_554
S2 Zn1 2.353349 1_555
S2 Zn2 2.438184 1_455
S3 Zn5 2.307467 1_556
S3 Zn1 2.353355 1_545
S3 Zn3 2.438183 1_545
S4 Zn2 2.307459 1_545
S4 Zn0 2.353356 1_555
S4 Zn4 2.438177 1_655
S5 Zn3 2.307467 1_555
S5 Zn0 2.353355 1_555
S5 Zn5 2.438183 1_555
S6 Zn2 2.307463 1_556
S6 Zn0 2.353349 1_555
S6 Zn4 2.438184 1_655
S7 Zn3 2.307467 1_554
S7 Zn0 2.353355 1_565
S7 Zn5 2.438183 1_565
