# generated using pymatgen
data_Tm3Sn
_symmetry_space_group_name_H-M   'P 1'
_cell_length_a   6.71475509
_cell_length_b   6.71475555
_cell_length_c   5.48404746
_cell_angle_alpha   90.00001676
_cell_angle_beta   90.00001054
_cell_angle_gamma   120.00012595
_symmetry_Int_Tables_number   1
_chemical_formula_structural   Tm3Sn
_chemical_formula_sum   'Tm6 Sn2'
_cell_volume   214.13697777
_cell_formula_units_Z   2
loop_
 _symmetry_equiv_pos_site_id
 _symmetry_equiv_pos_as_xyz
  1  'x, y, z'
loop_
 _atom_site_type_symbol
 _atom_site_label
 _atom_site_symmetry_multiplicity
 _atom_site_fract_x
 _atom_site_fract_y
 _atom_site_fract_z
 _atom_site_occupancy
  Tm  Tm0  1  0.16976382  0.33952623  0.24999997  1
  Tm  Tm1  1  0.66047292  0.83023596  0.24999903  1
  Tm  Tm2  1  0.16976345  0.83023534  0.24999953  1
  Tm  Tm3  1  0.83023612  0.66047281  0.74999887  1
  Tm  Tm4  1  0.33952614  0.16976340  0.74999997  1
  Tm  Tm5  1  0.83023584  0.16976391  0.74999972  1
  Sn  Sn0  1  0.33333321  0.66666642  0.74999940  1
  Sn  Sn1  1  0.66666650  0.33333293  0.24999950  1
loop_
_geom_bond_atom_site_label_1
_geom_bond_atom_site_label_2
_geom_bond_distance
_geom_bond_site_symmetry_2
Tm0 Tm1 3.294987 1_555
Tm0 Tm2 3.294993 1_555
Tm0 Tm4 3.378892 1_554
Tm0 Tm4 3.378892 1_555
Tm0 Tm5 3.378899 1_455
Tm0 Tm5 3.378900 1_454
Tm0 Tm1 3.419755 1_445
Tm0 Tm2 3.419763 1_545
Tm1 Tm2 3.294992 1_555
Tm1 Tm3 3.378896 1_555
Tm1 Tm3 3.378897 1_554
Tm1 Tm5 3.378897 1_564
Tm1 Tm5 3.378902 1_565
Tm1 Tm2 3.419763 1_655
Tm2 Tm3 3.378895 1_455
Tm2 Tm4 3.378899 1_564
Tm2 Tm3 3.378900 1_454
Tm2 Tm4 3.378901 1_565
Tm3 Tm4 3.294989 1_555
Tm3 Tm5 3.294989 1_555
Tm3 Tm4 3.419753 1_665
Tm3 Tm5 3.419766 1_565
Tm4 Tm5 3.294994 1_555
Tm4 Tm5 3.419761 1_455
Sn0 Tm1 3.337314 1_556
Sn0 Tm2 3.337315 1_555
Sn0 Tm0 3.337315 1_555
Sn0 Tm2 3.337316 1_556
Sn0 Tm1 3.337319 1_555
Sn0 Tm0 3.337321 1_556
Sn0 Tm5 3.357564 1_455
Sn0 Tm5 3.357565 1_565
Sn0 Tm4 3.357568 1_555
Sn0 Tm3 3.357569 1_555
Sn0 Tm3 3.357573 1_455
Sn0 Tm4 3.357574 1_565
Sn1 Tm5 3.337313 1_554
Sn1 Tm3 3.337314 1_555
Sn1 Tm5 3.337315 1_555
Sn1 Tm4 3.337316 1_554
Sn1 Tm3 3.337321 1_554
Sn1 Tm4 3.337321 1_555
Sn1 Tm2 3.357562 1_655
Sn1 Tm0 3.357566 1_555
Sn1 Tm2 3.357567 1_545
Sn1 Tm1 3.357570 1_555
Sn1 Tm1 3.357572 1_545
Sn1 Tm0 3.357575 1_655
