# generated using pymatgen
data_Na2O
_symmetry_space_group_name_H-M   'P 1'
_cell_length_a   12.26098068
_cell_length_b   11.13129146
_cell_length_c   12.77793377
_cell_angle_alpha   87.85039575
_cell_angle_beta   90.80304022
_cell_angle_gamma   90.96239151
_symmetry_Int_Tables_number   1
_chemical_formula_structural   Na2O
_chemical_formula_sum   'Na68 O34'
_cell_volume   1742.31000363
_cell_formula_units_Z   34
loop_
 _symmetry_equiv_pos_site_id
 _symmetry_equiv_pos_as_xyz
  1  'x, y, z'
loop_
 _atom_site_type_symbol
 _atom_site_label
 _atom_site_symmetry_multiplicity
 _atom_site_fract_x
 _atom_site_fract_y
 _atom_site_fract_z
 _atom_site_occupancy
  Na  Na0  1  0.70653087  0.37059302  0.42221532  1
  Na  Na1  1  0.47085816  0.89858097  0.01523990  1
  Na  Na2  1  0.17622966  0.29594357  0.15655528  1
  Na  Na3  1  0.03492186  0.15446782  0.00410251  1
  Na  Na4  1  0.80100495  0.07514314  0.72816658  1
  Na  Na5  1  0.83963171  0.51021603  0.07133517  1
  Na  Na6  1  0.40709427  0.45795856  0.43992674  1
  Na  Na7  1  0.82175687  0.12661568  0.28151369  1
  Na  Na8  1  0.25089940  0.23602891  0.39106433  1
  Na  Na9  1  0.59326484  0.49901534  0.84403865  1
  Na  Na10  1  0.01752534  0.89574483  0.39569803  1
  Na  Na11  1  0.91446893  0.77588555  0.99383045  1
  Na  Na12  1  0.53181932  0.05129884  0.58875939  1
  Na  Na13  1  0.14890039  0.33838890  0.71679376  1
  Na  Na14  1  0.58268766  0.66147173  0.04573152  1
  Na  Na15  1  0.76994711  0.88859329  0.85494410  1
  Na  Na16  1  0.89702938  0.33625170  0.58707613  1
  Na  Na17  1  0.88953831  0.24209468  0.83523838  1
  Na  Na18  1  0.09778210  0.38382970  0.92266942  1
  Na  Na19  1  0.00268486  0.86368336  0.80769210  1
  Na  Na20  1  0.97398464  0.69038752  0.22963159  1
  Na  Na21  1  0.61722123  0.82542878  0.55928707  1
  Na  Na22  1  0.42458651  0.57912601  0.22729098  1
  Na  Na23  1  0.42645412  0.68083622  0.54766680  1
  Na  Na24  1  0.53155308  0.23422491  0.39784627  1
  Na  Na25  1  0.86229889  0.49695410  0.83473106  1
  Na  Na26  1  0.51075291  0.76439800  0.82443280  1
  Na  Na27  1  0.28083697  0.04229151  0.81905626  1
  Na  Na28  1  0.01893388  0.64208781  0.67737914  1
  Na  Na29  1  0.84275203  0.02184941  0.08748306  1
  Na  Na30  1  0.54936107  0.11140840  0.19307812  1
  Na  Na31  1  0.05884009  0.99850651  0.60060592  1
  Na  Na32  1  0.06379965  0.61004012  0.93699598  1
  Na  Na33  1  0.23595623  0.81142122  0.04972587  1
  Na  Na34  1  0.74927990  0.29373016  0.99524987  1
  Na  Na35  1  0.44963507  0.28456826  0.62694264  1
  Na  Na36  1  0.66797757  0.85750255  0.14378425  1
  Na  Na37  1  0.40278361  0.32836970  0.22680980  1
  Na  Na38  1  0.18276481  0.48192292  0.44494469  1
  Na  Na39  1  0.69357298  0.31783657  0.69442246  1
  Na  Na40  1  0.31444651  0.58465565  0.97439552  1
  Na  Na41  1  0.44716939  0.79152863  0.34972767  1
  Na  Na42  1  0.08224925  0.08498756  0.27858623  1
  Na  Na43  1  0.86766545  0.58426056  0.47780604  1
  Na  Na44  1  0.04610642  0.91791423  0.10997485  1
  Na  Na45  1  0.19044937  0.74542766  0.46421871  1
  Na  Na46  1  0.67246595  0.41641361  0.19169138  1
  Na  Na47  1  0.18278544  0.54428074  0.20734840  1
  Na  Na48  1  0.93901169  0.39799530  0.29389465  1
  Na  Na49  1  0.63220530  0.60913738  0.32201856  1
  Na  Na50  1  0.27791402  0.14383085  0.00342014  1
  Na  Na51  1  0.03347762  0.22081127  0.45645570  1
  Na  Na52  1  0.30383515  0.36257775  0.90409947  1
  Na  Na53  1  0.24529998  0.16046773  0.60622065  1
  Na  Na54  1  0.32833178  0.92128991  0.64597751  1
  Na  Na55  1  0.50544762  0.32070339  0.03352997  1
  Na  Na56  1  0.33122525  0.05051559  0.18076865  1
  Na  Na57  1  0.79344250  0.76354887  0.31866610  1
  Na  Na58  1  0.77060008  0.13046582  0.51874988  1
  Na  Na59  1  0.33119682  0.00543321  0.42334962  1
  Na  Na60  1  0.78549001  0.69376189  0.71578180  1
  Na  Na61  1  0.23377278  0.74274691  0.80628378  1
  Na  Na62  1  0.64458989  0.07295814  0.98496596  1
  Na  Na63  1  0.52292027  0.12784796  0.82355024  1
  Na  Na64  1  0.84450057  0.81869306  0.53842261  1
  Na  Na65  1  0.06246303  0.08211827  0.80600231  1
  Na  Na66  1  0.64806568  0.55240789  0.58906625  1
  Na  Na67  1  0.32985841  0.51002317  0.69661545  1
  O  O0  1  0.64095707  0.46738903  0.01375184  1
  O  O1  1  0.15984024  0.08194997  0.12620774  1
  O  O2  1  0.92406331  0.68743091  0.83661965  1
  O  O3  1  0.92811854  0.37053546  0.96814866  1
  O  O4  1  0.17871367  0.21680321  0.87086075  1
  O  O5  1  0.82603582  0.56179002  0.25084222  1
  O  O6  1  0.14704206  0.05435358  0.44832076  1
  O  O7  1  0.70959270  0.69343338  0.46872845  1
  O  O8  1  0.54056487  0.42362914  0.31845642  1
  O  O9  1  0.31802922  0.41836840  0.08484530  1
  O  O10  1  0.70168545  0.19515435  0.83852866  1
  O  O11  1  0.86075367  0.26107841  0.41096565  1
  O  O12  1  0.81135762  0.48923898  0.65960397  1
  O  O13  1  0.71662734  0.15331564  0.13828286  1
  O  O14  1  0.50635517  0.58999407  0.70090254  1
  O  O15  1  0.91010544  0.92003034  0.24767577  1
  O  O16  1  0.31501313  0.62761563  0.38849124  1
  O  O17  1  0.96773515  0.17505271  0.67083035  1
  O  O18  1  0.36021447  0.77475161  0.93043565  1
  O  O19  1  0.28115105  0.36321009  0.56670160  1
  O  O20  1  0.45587816  0.10944343  0.02758305  1
  O  O21  1  0.16258050  0.91674251  0.73199437  1
  O  O22  1  0.53566333  0.74299155  0.20626134  1
  O  O23  1  0.61846592  0.23916275  0.55070978  1
  O  O24  1  0.64282108  0.85150570  0.96964388  1
  O  O25  1  0.00847115  0.72628964  0.50274005  1
  O  O26  1  0.08521161  0.70584388  0.09224434  1
  O  O27  1  0.39872376  0.10296328  0.69602854  1
  O  O28  1  0.94039714  0.98280680  0.94089362  1
  O  O29  1  0.75274206  0.90047772  0.66553851  1
  O  O30  1  0.20000566  0.52525117  0.82475088  1
  O  O31  1  0.44119450  0.87799413  0.51529916  1
  O  O32  1  0.12467637  0.36315326  0.31214994  1
  O  O33  1  0.40026331  0.14636499  0.31135728  1
loop_
_geom_bond_atom_site_label_1
_geom_bond_atom_site_label_2
_geom_bond_distance
_geom_bond_site_symmetry_2
Na0 O11 2.276073 1_555
Na0 O23 2.412150 1_555
Na0 O8 2.480563 1_555
Na1 O18 2.218686 1_554
Na1 O24 2.270238 1_554
Na1 O20 2.368732 1_565
Na2 O32 2.252729 1_555
Na2 O9 2.364492 1_555
Na2 O1 2.432247 1_555
Na3 O1 2.304760 1_555
Na3 O28 2.379471 1_444
Na3 O4 2.538276 1_554
Na3 O3 2.777858 1_454
Na4 O29 2.198975 1_545
Na4 O10 2.345265 1_555
Na4 O17 2.420150 1_555
Na5 O3 2.362962 1_554
Na5 O5 2.394007 1_555
Na5 O0 2.576733 1_555
Na6 O16 2.287087 1_555
Na6 O8 2.317311 1_555
Na6 O19 2.451170 1_555
Na7 O13 2.237270 1_555
Na7 O11 2.311822 1_555
Na7 O15 2.611463 1_545
Na8 O32 2.310214 1_555
Na8 O33 2.361621 1_555
Na8 O6 2.464758 1_555
Na8 O19 2.715867 1_555
Na9 O0 2.254490 1_556
Na9 O14 2.312776 1_555
Na10 O25 2.290147 1_555
Na10 O15 2.299783 1_455
Na10 O6 2.460872 1_565
Na11 O2 2.275432 1_555
Na11 O28 2.393399 1_555
Na11 O26 2.545456 1_656
Na12 O27 2.241849 1_555
Na12 O23 2.366766 1_555
Na12 O31 2.423180 1_545
Na13 O4 2.374344 1_555
Na13 O19 2.533034 1_555
Na13 O30 2.601784 1_555
Na13 O17 2.914184 1_455
Na14 O0 2.339007 1_555
Na14 O22 2.356646 1_555
Na14 O24 2.403513 1_554
Na15 O24 2.178310 1_555
Na15 O29 2.425291 1_555
Na15 O28 2.573332 1_555
Na16 O17 2.235797 1_555
Na16 O12 2.251234 1_555
Na16 O11 2.462255 1_555
Na17 O3 2.299790 1_555
Na17 O10 2.353811 1_555
Na17 O17 2.467304 1_555
Na18 O3 2.168896 1_455
Na18 O4 2.247740 1_555
Na18 O30 2.333333 1_555
Na19 O2 2.192500 1_455
Na19 O21 2.258162 1_555
Na19 O28 2.340560 1_455
Na20 O26 2.237824 1_655
Na20 O5 2.304465 1_555
Na20 O15 2.705068 1_555
Na21 O7 2.236216 1_555
Na21 O29 2.297249 1_555
Na21 O31 2.302200 1_555
Na22 O22 2.268072 1_555
Na22 O8 2.502010 1_555
Na22 O16 2.554290 1_555
Na22 O9 2.884642 1_555
Na23 O31 2.222784 1_555
Na23 O14 2.376370 1_555
Na23 O16 2.517961 1_555
Na24 O33 2.178859 1_555
Na24 O23 2.213966 1_555
Na24 O8 2.306762 1_555
Na25 O2 2.240298 1_555
Na25 O3 2.314617 1_555
Na25 O12 2.319160 1_555
Na26 O18 2.311638 1_555
Na26 O14 2.547004 1_555
Na26 O24 2.646342 1_555
Na27 O27 2.228873 1_555
Na27 O21 2.301377 1_545
Na27 O4 2.445585 1_555
Na28 O25 2.390348 1_555
Na28 O2 2.431291 1_455
Na29 O13 2.264877 1_555
Na29 O28 2.296120 1_544
Na29 O15 2.442637 1_545
Na30 O13 2.213015 1_555
Na30 O20 2.391822 1_555
Na30 O33 2.433717 1_555
Na31 O21 2.264785 1_555
Na31 O6 2.299589 1_565
Na31 O17 2.479726 1_465
Na32 O2 2.286414 1_455
Na32 O26 2.296987 1_556
Na32 O30 2.441000 1_555
Na33 O18 2.223476 1_554
Na33 O26 2.236002 1_555
Na34 O3 2.365385 1_555
Na34 O10 2.380216 1_555
Na34 O0 2.384504 1_556
Na34 O13 2.393489 1_556
Na35 O27 2.257119 1_555
Na35 O19 2.364718 1_555
Na35 O23 2.370222 1_555
Na36 O22 2.187336 1_555
Na36 O24 2.245466 1_554
Na37 O33 2.259911 1_555
Na37 O9 2.284717 1_555
Na37 O8 2.308052 1_555
Na38 O32 2.288484 1_555
Na38 O19 2.338502 1_555
Na38 O16 2.374102 1_555
Na39 O23 2.243499 1_555
Na39 O10 2.253055 1_555
Na39 O12 2.405306 1_555
Na40 O18 2.233321 1_555
Na40 O9 2.285814 1_556
Na40 O30 2.459856 1_555
Na41 O22 2.231492 1_555
Na41 O31 2.359494 1_555
Na41 O16 2.460761 1_555
Na42 O1 2.180657 1_555
Na42 O6 2.314443 1_555
Na42 O15 2.807719 1_445
Na43 O7 2.304089 1_555
Na43 O25 2.347799 1_655
Na43 O12 2.613012 1_555
Na43 O5 2.956767 1_555
Na44 O1 2.292686 1_565
Na44 O26 2.436169 1_555
Na44 O15 2.442081 1_455
Na44 O28 2.589465 1_454
Na45 O16 2.278720 1_555
Na45 O25 2.296304 1_555
Na46 O8 2.309371 1_555
Na46 O0 2.350933 1_555
Na46 O5 2.585501 1_555
Na47 O32 2.478280 1_555
Na47 O26 2.579394 1_555
Na47 O9 2.734919 1_555
Na47 O16 2.975196 1_555
Na48 O11 2.302458 1_555
Na48 O32 2.322704 1_655
Na48 O5 2.352416 1_555
Na49 O7 2.312414 1_555
Na49 O8 2.335858 1_555
Na49 O22 2.377781 1_555
Na49 O5 2.625177 1_555
Na50 O4 2.209178 1_554
Na50 O1 2.231831 1_555
Na50 O20 2.236815 1_555
Na51 O11 2.236413 1_455
Na51 O6 2.342645 1_555
Na51 O32 2.634389 1_555
Na51 O17 2.890707 1_455
Na52 O4 2.262018 1_555
Na52 O30 2.414761 1_555
Na52 O9 2.417171 1_556
Na53 O27 2.278177 1_555
Na53 O19 2.329957 1_555
Na53 O6 2.642024 1_555
Na54 O31 2.254542 1_555
Na54 O27 2.294858 1_565
Na54 O21 2.322873 1_555
Na55 O0 2.319505 1_555
Na55 O20 2.422656 1_555
Na55 O9 2.659313 1_555
Na56 O33 2.168613 1_555
Na56 O1 2.233716 1_555
Na56 O20 2.559575 1_555
Na57 O7 2.293226 1_555
Na57 O15 2.395214 1_555
Na57 O5 2.477989 1_555
Na58 O11 2.251877 1_555
Na58 O23 2.290056 1_555
Na59 O33 2.246525 1_555
Na59 O31 2.259761 1_545
Na59 O6 2.360311 1_555
Na60 O2 2.279947 1_555
Na60 O29 2.404381 1_555
Na60 O12 2.439680 1_555
Na61 O18 2.236499 1_555
Na61 O21 2.304313 1_555
Na61 O30 2.452465 1_555
Na62 O13 2.339789 1_556
Na62 O10 2.378082 1_555
Na62 O20 2.428701 1_556
Na62 O24 2.479833 1_545
Na63 O27 2.236258 1_555
Na63 O10 2.312126 1_555
Na63 O20 2.743914 1_556
Na64 O29 2.220213 1_555
Na64 O25 2.331964 1_655
Na64 O7 2.334008 1_555
Na65 O4 2.225852 1_555
Na65 O17 2.291834 1_455
Na65 O21 2.455381 1_545
Na65 O28 2.511316 1_445
Na66 O7 2.282417 1_555
Na66 O12 2.294441 1_555
Na66 O14 2.318405 1_555
Na67 O30 2.312426 1_555
Na67 O14 2.326809 1_555
Na67 O19 2.434330 1_555
