# generated using pymatgen
data_Cr3C8(NCl2)6
_symmetry_space_group_name_H-M   'P 1'
_cell_length_a   6.99743700
_cell_length_b   11.68704200
_cell_length_c   19.98013200
_cell_angle_alpha   90.00000000
_cell_angle_beta   90.00000000
_cell_angle_gamma   90.00000000
_symmetry_Int_Tables_number   1
_chemical_formula_structural   Cr3C8(NCl2)6
_chemical_formula_sum   'Cr6 C16 N12 Cl24'
_cell_volume   1633.96201030
_cell_formula_units_Z   2
loop_
 _symmetry_equiv_pos_site_id
 _symmetry_equiv_pos_as_xyz
  1  'x, y, z'
loop_
 _atom_site_type_symbol
 _atom_site_label
 _atom_site_symmetry_multiplicity
 _atom_site_fract_x
 _atom_site_fract_y
 _atom_site_fract_z
 _atom_site_occupancy
  Cr  Cr0  1  0.50000000  0.50000000  0.50000000  1
  Cr  Cr1  1  0.00000000  0.00000000  0.00000000  1
  Cr  Cr2  1  0.50000000  0.65752700  0.38402300  1
  Cr  Cr3  1  0.50000000  0.34247300  0.61597700  1
  Cr  Cr4  1  0.00000000  0.15752600  0.11597700  1
  Cr  Cr5  1  0.00000000  0.84247300  0.88402300  1
  C  C0  1  0.50000000  0.07924000  0.20023900  1
  C  C1  1  0.50000000  0.92076000  0.79976100  1
  C  C2  1  0.00000000  0.57924000  0.29976100  1
  C  C3  1  0.00000000  0.42076000  0.70023900  1
  C  C4  1  0.50000000  0.90193300  0.12798300  1
  C  C5  1  0.50000000  0.09806700  0.87201700  1
  C  C6  1  0.00000000  0.40193300  0.37201700  1
  C  C7  1  0.00000000  0.59806700  0.62798300  1
  C  C8  1  0.50000000  0.38857400  0.06290600  1
  C  C9  1  0.50000000  0.61142600  0.93709400  1
  C  C10  1  0.00000000  0.88857400  0.43709400  1
  C  C11  1  0.00000000  0.11142600  0.56290600  1
  C  C12  1  0.50000000  0.40660300  0.18801100  1
  C  C13  1  0.50000000  0.59339700  0.81198900  1
  C  C14  1  0.00000000  0.90660300  0.31198900  1
  C  C15  1  0.00000000  0.09339700  0.68801100  1
  N  N0  1  0.50000000  0.98638600  0.16249300  1
  N  N1  1  0.50000000  0.01361400  0.83750700  1
  N  N2  1  0.00000000  0.48638600  0.33750700  1
  N  N3  1  0.00000000  0.51361400  0.66249300  1
  N  N4  1  0.50000000  0.39826700  0.12565900  1
  N  N5  1  0.50000000  0.60173300  0.87434100  1
  N  N6  1  0.00000000  0.89826700  0.37434100  1
  N  N7  1  0.00000000  0.10173300  0.62565900  1
  N  N8  1  0.50000000  0.15212300  0.42418800  1
  N  N9  1  0.50000000  0.84787700  0.57581200  1
  N  N10  1  0.00000000  0.65212300  0.07581200  1
  N  N11  1  0.00000000  0.34787700  0.92418800  1
  Cl  Cl0  1  0.79134000  0.64406200  0.27703300  1
  Cl  Cl1  1  0.79134000  0.35593800  0.72296700  1
  Cl  Cl2  1  0.70866000  0.14406200  0.22296700  1
  Cl  Cl3  1  0.70866000  0.85593800  0.77703300  1
  Cl  Cl4  1  0.20866000  0.35593800  0.72296700  1
  Cl  Cl5  1  0.20866000  0.64406200  0.27703300  1
  Cl  Cl6  1  0.29134000  0.85593800  0.77703300  1
  Cl  Cl7  1  0.29134000  0.14406200  0.22296700  1
  Cl  Cl8  1  0.50000000  0.45376100  0.38472700  1
  Cl  Cl9  1  0.50000000  0.54623900  0.61527300  1
  Cl  Cl10  1  0.00000000  0.95376100  0.11527300  1
  Cl  Cl11  1  0.00000000  0.04623900  0.88472700  1
  Cl  Cl12  1  0.73071400  0.64054900  0.46828500  1
  Cl  Cl13  1  0.73071400  0.35945100  0.53171500  1
  Cl  Cl14  1  0.76928600  0.14054900  0.03171500  1
  Cl  Cl15  1  0.76928600  0.85945100  0.96828500  1
  Cl  Cl16  1  0.26928600  0.35945100  0.53171500  1
  Cl  Cl17  1  0.26928600  0.64054900  0.46828500  1
  Cl  Cl18  1  0.23071400  0.85945100  0.96828500  1
  Cl  Cl19  1  0.23071400  0.14054900  0.03171500  1
  Cl  Cl20  1  0.50000000  0.84400700  0.36120900  1
  Cl  Cl21  1  0.50000000  0.15599300  0.63879100  1
  Cl  Cl22  1  0.00000000  0.34400700  0.13879100  1
  Cl  Cl23  1  0.00000000  0.65599300  0.86120900  1
loop_
_geom_bond_atom_site_label_1
_geom_bond_atom_site_label_2
_geom_bond_distance
_geom_bond_site_symmetry_2
C0 N0 1.321517 1_545
C0 Cl7 1.706454 1_555
C0 Cl2 1.706454 1_555
C1 N1 1.321517 1_565
C1 Cl6 1.706454 1_555
C1 Cl3 1.706454 1_555
C2 N2 1.321517 1_555
C2 Cl0 1.706454 1_455
C2 Cl5 1.706454 1_555
C3 N3 1.321517 1_555
C3 Cl1 1.706454 1_455
C3 Cl4 1.706454 1_555
C4 N0 1.203998 1_555
C5 N1 1.203998 1_555
C6 N2 1.203998 1_555
C7 N3 1.203998 1_555
C8 N4 1.258920 1_555
C9 N5 1.258920 1_555
C10 N6 1.258920 1_555
C11 N7 1.258920 1_555
C12 N4 1.249605 1_555
C13 N5 1.249605 1_555
C14 N6 1.249605 1_555
C15 N7 1.249605 1_555
Cl0 Cr2 2.958114 1_555
Cl1 Cr3 2.958114 1_555
Cl2 Cr4 2.958114 1_655
Cl3 Cr5 2.958114 1_655
Cl4 Cr3 2.958114 1_555
Cl5 Cr2 2.958114 1_555
Cl6 Cr5 2.958114 1_555
Cl7 Cr4 2.958114 1_555
Cl8 Cr0 2.365718 1_555
Cl8 Cr2 2.381463 1_555
Cl9 Cr0 2.365718 1_555
Cl9 Cr3 2.381463 1_555
Cl10 Cr1 2.365718 1_565
Cl10 Cr4 2.381452 1_565
Cl11 Cr1 2.365718 1_556
Cl11 Cr5 2.381463 1_545
Cl12 Cr2 2.340956 1_555
Cl12 Cr0 2.388721 1_555
Cl13 Cr3 2.340956 1_555
Cl13 Cr0 2.388721 1_555
Cl14 Cr4 2.340955 1_655
Cl14 Cr1 2.388721 1_655
Cl15 Cr5 2.340956 1_655
Cl15 Cr1 2.388721 1_666
Cl16 Cr3 2.340956 1_555
Cl16 Cr0 2.388721 1_555
Cl17 Cr2 2.340956 1_555
Cl17 Cr0 2.388721 1_555
Cl18 Cr5 2.340956 1_555
Cl18 Cr1 2.388721 1_566
Cl19 Cr4 2.340955 1_555
Cl19 Cr1 2.388721 1_555
Cl20 Cr2 2.226558 1_555
Cl21 Cr3 2.226558 1_555
Cl22 Cr4 2.226569 1_555
Cl23 Cr5 2.226558 1_555
