# generated using pymatgen
data_SmCu(WO4)2
_symmetry_space_group_name_H-M   'P 1'
_cell_length_a   7.27690600
_cell_length_b   7.45564840
_cell_length_c   7.56061727
_cell_angle_alpha   114.37047697
_cell_angle_beta   115.52065086
_cell_angle_gamma   91.90101994
_symmetry_Int_Tables_number   1
_chemical_formula_structural   SmCu(WO4)2
_chemical_formula_sum   'Sm2 Cu2 W4 O16'
_cell_volume   325.89580179
_cell_formula_units_Z   2
loop_
 _symmetry_equiv_pos_site_id
 _symmetry_equiv_pos_as_xyz
  1  'x, y, z'
loop_
 _atom_site_type_symbol
 _atom_site_label
 _atom_site_symmetry_multiplicity
 _atom_site_fract_x
 _atom_site_fract_y
 _atom_site_fract_z
 _atom_site_occupancy
  Sm  Sm0  1  0.18268600  0.28480600  0.46003200  1
  Sm  Sm1  1  0.81731400  0.71519400  0.53996800  1
  Cu  Cu0  1  0.77713800  0.32813300  0.04228900  1
  Cu  Cu1  1  0.22286200  0.67186700  0.95771100  1
  W  W0  1  0.72784100  0.70350500  0.96224600  1
  W  W1  1  0.35151900  0.89624800  0.70601000  1
  W  W2  1  0.27215900  0.29649500  0.03775400  1
  W  W3  1  0.64848100  0.10375200  0.29399000  1
  O  O0  1  0.53255400  0.46450000  0.73310900  1
  O  O1  1  0.46744600  0.53550000  0.26689100  1
  O  O2  1  0.05472200  0.30994600  0.10325500  1
  O  O3  1  0.94527800  0.69005400  0.89674500  1
  O  O4  1  0.19481600  0.36049200  0.80781200  1
  O  O5  1  0.80518400  0.63950800  0.19218800  1
  O  O6  1  0.82555400  0.36253500  0.45149100  1
  O  O7  1  0.17444600  0.63746500  0.54850900  1
  O  O8  1  0.61259900  0.82886300  0.73718100  1
  O  O9  1  0.38740100  0.17113700  0.26281900  1
  O  O10  1  0.47800400  0.82606800  0.00549900  1
  O  O11  1  0.52199600  0.17393200  0.99450100  1
  O  O12  1  0.14129500  0.99009100  0.80038700  1
  O  O13  1  0.85870500  0.00990900  0.19961300  1
  O  O14  1  0.28898500  0.99476300  0.51323100  1
  O  O15  1  0.71101500  0.00523700  0.48676900  1
loop_
_geom_bond_atom_site_label_1
_geom_bond_atom_site_label_2
_geom_bond_distance
_geom_bond_site_symmetry_2
Cu0 O2 1.891700 1_655
Cu0 O11 1.958817 1_554
Cu0 O5 2.076876 1_555
Cu1 O3 1.891700 1_455
Cu1 O10 1.958817 1_556
Cu1 O4 2.076876 1_555
O0 W0 1.832764 1_555
O0 Sm0 2.345440 1_555
O1 W2 1.832764 1_555
O1 Sm1 2.345440 1_555
O2 W2 1.844889 1_555
O2 Sm0 2.538298 1_555
O3 W0 1.844889 1_555
O3 Sm1 2.538298 1_555
O4 W2 1.850971 1_556
O4 Sm0 2.410877 1_555
O5 W0 1.850971 1_554
O5 Sm1 2.410877 1_555
O6 W3 1.848714 1_555
O6 Sm1 2.440861 1_555
O6 Sm0 2.660838 1_655
O7 W1 1.848714 1_555
O7 Sm0 2.440861 1_555
O7 Sm1 2.660838 1_455
O8 W1 1.921620 1_555
O8 W0 2.146445 1_555
O8 Sm1 2.472956 1_555
O9 W3 1.921620 1_555
O9 W2 2.146445 1_555
O9 Sm0 2.472956 1_555
O10 W3 2.086632 1_565
O10 W0 2.150144 1_554
O10 W1 2.337088 1_554
O11 W1 2.086632 1_545
O11 W2 2.150144 1_556
O11 W3 2.337088 1_556
O12 W1 1.984562 1_555
O12 W2 2.084685 1_566
O12 Sm1 2.446382 1_455
O13 W3 1.984562 1_555
O13 W0 2.084685 1_544
O13 Sm0 2.446382 1_655
O14 W1 1.790279 1_555
O14 Sm0 2.448886 1_565
O15 W3 1.790279 1_555
O15 Sm1 2.448886 1_545
