# generated using pymatgen
data_TmGa2Pd
_symmetry_space_group_name_H-M   'P 1'
_cell_length_a   4.37048852
_cell_length_b   5.45722516
_cell_length_c   6.51692022
_cell_angle_alpha   90.00000000
_cell_angle_beta   90.00000000
_cell_angle_gamma   113.60514373
_symmetry_Int_Tables_number   1
_chemical_formula_structural   TmGa2Pd
_chemical_formula_sum   'Tm2 Ga4 Pd2'
_cell_volume   142.42775931
_cell_formula_units_Z   2
loop_
 _symmetry_equiv_pos_site_id
 _symmetry_equiv_pos_as_xyz
  1  'x, y, z'
loop_
 _atom_site_type_symbol
 _atom_site_label
 _atom_site_symmetry_multiplicity
 _atom_site_fract_x
 _atom_site_fract_y
 _atom_site_fract_z
 _atom_site_occupancy
  Tm  Tm0  1  0.08771066  0.17542231  0.75000000  1
  Tm  Tm1  1  0.91228934  0.82457769  0.25000000  1
  Ga  Ga0  1  0.37300733  0.74601366  0.94647999  1
  Ga  Ga1  1  0.62699267  0.25398634  0.05352001  1
  Ga  Ga2  1  0.62699267  0.25398634  0.44647999  1
  Ga  Ga3  1  0.37300733  0.74601366  0.55352001  1
  Pd  Pd0  1  0.79861954  0.59724007  0.75000000  1
  Pd  Pd1  1  0.20138046  0.40275993  0.25000000  1
loop_
_geom_bond_atom_site_label_1
_geom_bond_atom_site_label_2
_geom_bond_distance
_geom_bond_site_symmetry_2
Tm0 Tm1 3.700757 1_445
Tm0 Tm1 3.700757 1_446
Ga0 Ga3 2.560889 1_555
Ga0 Pd1 2.618937 1_556
Ga0 Ga1 2.634210 1_566
Ga0 Pd0 2.639751 1_555
Ga0 Pd0 2.639758 1_455
Ga0 Tm1 2.973581 1_456
Ga0 Tm1 2.973581 1_556
Ga0 Tm0 3.127436 1_555
Ga0 Tm0 3.320499 1_665
Ga0 Tm0 3.320505 1_565
Ga1 Ga2 2.560889 1_555
Ga1 Pd0 2.618937 1_554
Ga1 Pd1 2.639751 1_555
Ga1 Pd1 2.639758 1_655
Ga1 Tm0 2.973581 1_654
Ga1 Tm0 2.973581 1_554
Ga1 Tm1 3.127436 1_555
Ga1 Tm1 3.320499 1_445
Ga1 Tm1 3.320505 1_545
Ga2 Pd0 2.618937 1_555
Ga2 Ga3 2.634210 1_545
Ga2 Pd1 2.639751 1_555
Ga2 Pd1 2.639758 1_655
Ga2 Tm0 2.973581 1_655
Ga2 Tm0 2.973581 1_555
Ga2 Tm1 3.127436 1_555
Ga2 Tm1 3.320499 1_445
Ga2 Tm1 3.320505 1_545
Ga3 Pd1 2.618937 1_555
Ga3 Pd0 2.639751 1_555
Ga3 Pd0 2.639758 1_455
Ga3 Tm1 2.973581 1_455
Ga3 Tm1 2.973581 1_555
Ga3 Tm0 3.127436 1_555
Ga3 Tm0 3.320499 1_665
Ga3 Tm0 3.320505 1_565
Pd0 Tm0 2.891259 1_665
Pd0 Tm0 3.037206 1_655
Pd0 Tm0 3.037206 1_555
Pd0 Tm1 3.451077 1_555
Pd0 Tm1 3.451077 1_556
Pd1 Tm1 2.891259 1_445
Pd1 Tm1 3.037206 1_455
Pd1 Tm1 3.037206 1_555
Pd1 Tm0 3.451077 1_554
Pd1 Tm0 3.451077 1_555
