# generated using pymatgen
data_Mg5Si6
_symmetry_space_group_name_H-M   'P 1'
_cell_length_a   5.24789500
_cell_length_b   6.35520845
_cell_length_c   13.37212178
_cell_angle_alpha   86.82834476
_cell_angle_beta   82.27305636
_cell_angle_gamma   78.94225206
_symmetry_Int_Tables_number   1
_chemical_formula_structural   Mg5Si6
_chemical_formula_sum   'Mg10 Si12'
_cell_volume   433.52557078
_cell_formula_units_Z   2
loop_
 _symmetry_equiv_pos_site_id
 _symmetry_equiv_pos_as_xyz
  1  'x, y, z'
loop_
 _atom_site_type_symbol
 _atom_site_label
 _atom_site_symmetry_multiplicity
 _atom_site_fract_x
 _atom_site_fract_y
 _atom_site_fract_z
 _atom_site_occupancy
  Mg  Mg0  1  0.86555100  0.30587200  0.00733900  1
  Mg  Mg1  1  0.99881800  0.33735500  0.39063700  1
  Mg  Mg2  1  0.65681100  0.74442900  0.27728100  1
  Mg  Mg3  1  0.21985000  0.23822800  0.69653800  1
  Mg  Mg4  1  0.68504700  0.45807500  0.79705800  1
  Mg  Mg5  1  0.95829200  0.79320700  0.04451500  1
  Mg  Mg6  1  0.48927300  0.08942100  0.47376200  1
  Mg  Mg7  1  0.41923300  0.72104600  0.63603400  1
  Mg  Mg8  1  0.46803000  0.00105500  0.91585800  1
  Mg  Mg9  1  0.31675000  0.14664100  0.14727900  1
  Si  Si0  1  0.48246400  0.68295500  0.06709700  1
  Si  Si1  1  0.34360300  0.42495700  0.96891000  1
  Si  Si2  1  0.01132300  0.98198200  0.55817400  1
  Si  Si3  1  0.85531500  0.73235300  0.46565000  1
  Si  Si4  1  0.80795500  0.10918700  0.19845900  1
  Si  Si5  1  0.00136300  0.97689100  0.85124600  1
  Si  Si6  1  0.71348400  0.31076200  0.60734300  1
  Si  Si7  1  0.22662100  0.60004600  0.22120300  1
  Si  Si8  1  0.52853100  0.35512500  0.31335000  1
  Si  Si9  1  0.13543900  0.59616100  0.82410700  1
  Si  Si10  1  0.72922500  0.97761800  0.71751000  1
  Si  Si11  1  0.08339000  0.91300700  0.32428200  1
loop_
_geom_bond_atom_site_label_1
_geom_bond_atom_site_label_2
_geom_bond_distance
_geom_bond_site_symmetry_2
Mg0 Si1 2.733012 1_654
Mg0 Si4 2.787294 1_555
Mg0 Si1 2.807121 1_554
Mg0 Si0 2.890502 1_555
Mg0 Si5 2.957572 1_644
Mg1 Si3 2.687977 1_555
Mg1 Si8 2.781730 1_555
Mg1 Si11 2.820796 1_645
Mg1 Si8 2.853688 1_655
Mg1 Si7 2.994714 1_655
Mg1 Si6 3.089367 1_555
Mg1 Si2 3.089797 1_645
Mg2 Si8 2.688232 1_555
Mg2 Si4 2.706268 1_565
Mg2 Si7 2.797680 1_555
Mg2 Si11 2.815525 1_655
Mg2 Si3 2.844197 1_555
Mg2 Si7 2.960881 1_655
Mg2 Si11 2.987914 1_555
Mg2 Si0 3.136784 1_555
Mg3 Si6 2.812891 1_555
Mg3 Si5 2.839960 1_545
Mg3 Si9 2.849615 1_555
Mg3 Si10 2.901609 1_545
Mg3 Si2 2.972265 1_545
Mg3 Si6 3.003030 1_455
Mg4 Si6 2.728000 1_555
Mg4 Si1 2.742236 1_555
Mg4 Si9 2.747414 1_655
Mg4 Si9 2.829081 1_555
Mg5 Si0 2.694921 1_555
Mg5 Si0 2.758556 1_655
Mg5 Si5 2.775482 1_654
Mg5 Si4 2.881946 1_565
Mg5 Si1 2.912857 1_654
Mg5 Si7 2.997134 1_655
Mg6 Si8 2.666246 1_555
Mg6 Si3 2.674013 1_545
Mg6 Si2 2.800339 1_545
Mg6 Si6 2.834085 1_555
Mg6 Si2 3.045456 1_645
Mg7 Si2 2.731846 1_555
Mg7 Si6 2.781611 1_555
Mg7 Si10 2.860595 1_555
Mg7 Si9 2.897973 1_555
Mg7 Si3 3.012707 1_555
Mg8 Si5 2.737830 1_545
Mg8 Si1 2.756689 1_555
Mg8 Si0 2.777168 1_546
Mg8 Si5 2.793442 1_645
Mg8 Si10 2.814908 1_545
Mg9 Si4 2.718248 1_455
Mg9 Si4 2.718650 1_555
Mg9 Si1 2.894098 1_554
Mg9 Si11 2.972506 1_545
Mg9 Si7 3.028282 1_555
Mg9 Si8 3.078391 1_555
Mg9 Si0 3.115367 1_545
Si0 Si7 2.394599 1_555
Si0 Si1 2.428407 1_554
Si1 Si9 2.450776 1_555
Si2 Si3 2.388656 1_455
Si2 Si6 2.421592 1_465
Si4 Si8 2.394635 1_555
Si5 Si9 2.420076 1_555
Si7 Si8 2.412080 1_555
Si10 Si2 2.427579 1_655
Si10 Si5 2.433335 1_655
Si10 Si6 2.506009 1_565
Si11 Si7 2.423235 1_555
Si11 Si3 2.450068 1_455
Si11 Si4 2.491023 1_465
