# generated using pymatgen
data_Na2U2FeH8(C3O7)4
_symmetry_space_group_name_H-M   'P 1'
_cell_length_a   6.54680800
_cell_length_b   7.97538040
_cell_length_c   13.03154572
_cell_angle_alpha   75.63254088
_cell_angle_beta   84.51677701
_cell_angle_gamma   67.80861256
_symmetry_Int_Tables_number   1
_chemical_formula_structural   Na2U2FeH8(C3O7)4
_chemical_formula_sum   'Na2 U2 Fe1 H8 C12 O28'
_cell_volume   610.31371560
_cell_formula_units_Z   1
loop_
 _symmetry_equiv_pos_site_id
 _symmetry_equiv_pos_as_xyz
  1  'x, y, z'
loop_
 _atom_site_type_symbol
 _atom_site_label
 _atom_site_symmetry_multiplicity
 _atom_site_fract_x
 _atom_site_fract_y
 _atom_site_fract_z
 _atom_site_occupancy
  Na  Na0  1  0.74963100  0.83699600  0.79258900  1
  Na  Na1  1  0.25036900  0.16300400  0.20741100  1
  U  U0  1  0.76364000  0.33798600  0.80391500  1
  U  U1  1  0.23636000  0.66201400  0.19608500  1
  Fe  Fe0  1  0.50000000  0.00000000  0.50000000  1
  H  H0  1  0.91927300  0.85033100  0.57396700  1
  H  H1  1  0.08072700  0.14966900  0.42603300  1
  H  H2  1  0.81714500  0.05597400  0.59570600  1
  H  H3  1  0.18285500  0.94402600  0.40429400  1
  H  H4  1  0.74159800  0.98013900  0.31050500  1
  H  H5  1  0.25840200  0.01986100  0.68949500  1
  H  H6  1  0.65446000  0.19267700  0.31947500  1
  H  H7  1  0.34554000  0.80732300  0.68052500  1
  C  C0  1  0.31050300  0.25146400  0.77468800  1
  C  C1  1  0.68949700  0.74853600  0.22531200  1
  C  C2  1  0.21635300  0.45510700  0.78128000  1
  C  C3  1  0.78364700  0.54489300  0.21872000  1
  C  C4  1  0.80514200  0.38298000  0.54583600  1
  C  C5  1  0.19485800  0.61702000  0.45416400  1
  C  C6  1  0.70079800  0.58435000  0.56150200  1
  C  C7  1  0.29920200  0.41565000  0.43849800  1
  C  C8  1  0.52441800  0.58926300  0.97861300  1
  C  C9  1  0.47558200  0.41073700  0.02138700  1
  C  C10  1  0.97365800  0.93302900  0.97485400  1
  C  C11  1  0.02634200  0.06697100  0.02514600  1
  O  O0  1  0.17099900  0.17888900  0.76739300  1
  O  O1  1  0.82900100  0.82111100  0.23260700  1
  O  O2  1  0.00894800  0.52729300  0.79069700  1
  O  O3  1  0.99105200  0.47270700  0.20930300  1
  O  O4  1  0.35391700  0.53359400  0.77626800  1
  O  O5  1  0.64608300  0.46640600  0.22373200  1
  O  O6  1  0.51805600  0.17098200  0.77585900  1
  O  O7  1  0.48194400  0.82901800  0.22414100  1
  O  O8  1  0.82314000  0.25840600  0.63391800  1
  O  O9  1  0.17686000  0.74159400  0.36608200  1
  O  O10  1  0.68450200  0.59562100  0.65878200  1
  O  O11  1  0.31549800  0.40437900  0.34121800  1
  O  O12  1  0.63999400  0.71851100  0.48313200  1
  O  O13  1  0.36000600  0.28148900  0.51686800  1
  O  O14  1  0.86175500  0.35225300  0.45684500  1
  O  O15  1  0.13824500  0.64774700  0.54315500  1
  O  O16  1  0.63237200  0.59796400  0.89215400  1
  O  O17  1  0.36762800  0.40203600  0.10784600  1
  O  O18  1  0.45600700  0.71238600  0.03154000  1
  O  O19  1  0.54399300  0.28761400  0.96846000  1
  O  O20  1  0.88811600  0.00138000  0.88258700  1
  O  O21  1  0.11188400  0.99862000  0.11741300  1
  O  O22  1  0.01727700  0.76847500  0.02764200  1
  O  O23  1  0.98272300  0.23152500  0.97235800  1
  O  O24  1  0.78476300  0.94298400  0.59832000  1
  O  O25  1  0.21523700  0.05701600  0.40168000  1
  O  O26  1  0.68294900  0.06495200  0.35971100  1
  O  O27  1  0.31705100  0.93504800  0.64028900  1
loop_
_geom_bond_atom_site_label_1
_geom_bond_atom_site_label_2
_geom_bond_distance
_geom_bond_site_symmetry_2
Na0 O16 2.365302 1_555
Na0 O20 2.404253 1_565
Na0 O2 2.416250 1_655
Na0 O24 2.479943 1_555
Na0 O6 2.483050 1_565
Na1 O17 2.365302 1_555
Na1 O21 2.404253 1_545
Na1 O3 2.416250 1_455
Na1 O25 2.479943 1_555
Na1 O7 2.483050 1_545
Fe0 O13 2.140182 1_555
Fe0 O12 2.140182 1_545
Fe0 O27 2.150671 1_545
Fe0 O26 2.150671 1_555
Fe0 O24 2.202485 1_545
Fe0 O25 2.202485 1_555
H0 O24 0.996817 1_555
H1 O25 0.996817 1_555
H2 O24 0.992901 1_545
H3 O25 0.992901 1_565
H4 O26 0.994059 1_565
H5 O27 0.994059 1_545
H6 O26 0.978505 1_555
H7 O27 0.978505 1_555
C0 O6 1.264456 1_555
C0 O0 1.273351 1_555
C1 O7 1.264456 1_555
C1 O1 1.273351 1_555
C2 O4 1.265508 1_555
C2 O2 1.266071 1_555
C3 O5 1.265508 1_555
C3 O3 1.266071 1_555
C4 O14 1.237979 1_555
C4 O8 1.299990 1_555
C5 O15 1.237979 1_555
C5 O9 1.299990 1_555
C6 O12 1.248991 1_555
C6 O10 1.284527 1_555
C7 O13 1.248991 1_555
C7 O11 1.284527 1_555
C8 O18 1.259126 1_556
C8 O16 1.272723 1_555
C9 O19 1.259126 1_554
C9 O17 1.272723 1_555
C10 O22 1.258375 1_656
C10 O20 1.276441 1_565
C11 O23 1.258375 1_454
C11 O21 1.276441 1_545
O0 U0 2.539643 1_455
O1 U1 2.539643 1_655
O2 U0 2.556959 1_455
O3 U1 2.556959 1_655
O4 U0 2.550170 1_555
O5 U1 2.550170 1_555
O6 U0 2.542508 1_555
O7 U1 2.542508 1_555
O8 U0 2.410046 1_555
O9 U1 2.410046 1_555
O10 U0 2.349872 1_555
O11 U1 2.349872 1_555
O16 U0 2.451169 1_555
O17 U1 2.451169 1_555
O18 U1 2.499344 1_555
O19 U0 2.499344 1_555
O20 U0 2.462359 1_555
O21 U1 2.462359 1_555
O22 U1 2.520566 1_555
O23 U0 2.520566 1_555
