# generated using pymatgen
data_Sr2ZrTiO6
_symmetry_space_group_name_H-M   'P 1'
_cell_length_a   5.74935971
_cell_length_b   5.74935971
_cell_length_c   5.74935971
_cell_angle_alpha   120.33852865
_cell_angle_beta   120.33852865
_cell_angle_gamma   89.41464450
_symmetry_Int_Tables_number   1
_chemical_formula_structural   Sr2ZrTiO6
_chemical_formula_sum   'Sr2 Zr1 Ti1 O6'
_cell_volume   133.68754563
_cell_formula_units_Z   1
loop_
 _symmetry_equiv_pos_site_id
 _symmetry_equiv_pos_as_xyz
  1  'x, y, z'
loop_
 _atom_site_type_symbol
 _atom_site_label
 _atom_site_symmetry_multiplicity
 _atom_site_fract_x
 _atom_site_fract_y
 _atom_site_fract_z
 _atom_site_occupancy
  Sr  Sr0  1  0.25000000  0.75000000  0.50000000  1
  Sr  Sr1  1  0.75000000  0.25000000  0.50000000  1
  Zr  Zr0  1  0.50000000  0.50000000  0.00000000  1
  Ti  Ti0  1  0.00000000  0.00000000  0.00000000  1
  O  O0  1  0.75773800  0.75773800  0.00000000  1
  O  O1  1  0.24226200  0.24226200  0.00000000  1
  O  O2  1  0.27814300  0.79469300  0.07283600  1
  O  O3  1  0.72185700  0.20530700  0.92716400  1
  O  O4  1  0.79469300  0.72185700  0.51655000  1
  O  O5  1  0.20530700  0.27814300  0.48345000  1
loop_
_geom_bond_atom_site_label_1
_geom_bond_atom_site_label_2
_geom_bond_distance
_geom_bond_site_symmetry_2
O0 Ti0 1.979826 1_665
O0 Zr0 2.106299 1_555
O0 Sr0 2.860657 1_655
O0 Sr1 2.860657 1_565
O0 Sr0 2.860657 1_554
O0 Sr1 2.860657 1_554
O1 Ti0 1.979826 1_555
O1 Zr0 2.106299 1_555
O1 Sr1 2.860657 1_454
O1 Sr0 2.860657 1_555
O1 Sr1 2.860657 1_555
O1 Sr0 2.860657 1_544
O2 Ti0 1.977425 1_565
O2 Zr0 2.109901 1_555
O2 Sr0 2.676480 1_555
O2 Sr1 2.676480 1_565
O2 Sr0 3.089750 1_554
O2 Sr1 3.089750 1_454
O3 Ti0 1.977425 1_656
O3 Zr0 2.109901 1_556
O3 Sr0 2.676480 1_545
O3 Sr1 2.676480 1_555
O3 Sr1 3.089750 1_556
O3 Sr0 3.089750 1_656
O4 Ti0 1.977425 1_666
O4 Zr0 2.109901 1_555
O4 Sr0 2.676480 1_655
O4 Sr1 2.676480 1_555
O4 Sr1 3.089750 1_565
O4 Sr0 3.089750 1_555
O5 Ti0 1.977425 1_555
O5 Zr0 2.109901 1_556
O5 Sr1 2.676480 1_455
O5 Sr0 2.676480 1_555
O5 Sr0 3.089750 1_545
O5 Sr1 3.089750 1_555
