# generated using pymatgen
data_Mg6ZrSi
_symmetry_space_group_name_H-M   'P 1'
_cell_length_a   5.05246100
_cell_length_b   5.87957400
_cell_length_c   11.29430800
_cell_angle_alpha   90.00000000
_cell_angle_beta   90.00000000
_cell_angle_gamma   90.00000000
_symmetry_Int_Tables_number   1
_chemical_formula_structural   Mg6ZrSi
_chemical_formula_sum   'Mg12 Zr2 Si2'
_cell_volume   335.51230878
_cell_formula_units_Z   2
loop_
 _symmetry_equiv_pos_site_id
 _symmetry_equiv_pos_as_xyz
  1  'x, y, z'
loop_
 _atom_site_type_symbol
 _atom_site_label
 _atom_site_symmetry_multiplicity
 _atom_site_fract_x
 _atom_site_fract_y
 _atom_site_fract_z
 _atom_site_occupancy
  Mg  Mg0  1  0.50000000  0.74948200  0.92394700  1
  Mg  Mg1  1  0.50000000  0.25051800  0.92394700  1
  Mg  Mg2  1  0.00000000  0.25087000  0.57851000  1
  Mg  Mg3  1  0.00000000  0.74913000  0.57851000  1
  Mg  Mg4  1  0.00000000  0.50000000  0.83163600  1
  Mg  Mg5  1  0.00000000  0.00000000  0.81927600  1
  Mg  Mg6  1  0.50000000  0.24948200  0.42394700  1
  Mg  Mg7  1  0.50000000  0.75051800  0.42394700  1
  Mg  Mg8  1  0.00000000  0.75087000  0.07851000  1
  Mg  Mg9  1  0.00000000  0.24913000  0.07851000  1
  Mg  Mg10  1  0.00000000  0.00000000  0.33163600  1
  Mg  Mg11  1  0.00000000  0.50000000  0.31927600  1
  Zr  Zr0  1  0.50000000  0.50000000  0.67710600  1
  Zr  Zr1  1  0.50000000  0.00000000  0.17710600  1
  Si  Si0  1  0.50000000  0.00000000  0.66706500  1
  Si  Si1  1  0.50000000  0.50000000  0.16706500  1
loop_
_geom_bond_atom_site_label_1
_geom_bond_atom_site_label_2
_geom_bond_distance
_geom_bond_site_symmetry_2
Mg0 Mg1 2.933696 1_555
Mg0 Mg1 2.945878 1_565
Mg0 Mg8 3.070719 1_556
Mg0 Mg8 3.070719 1_656
Mg0 Mg4 3.101689 1_555
Mg0 Mg4 3.101689 1_655
Mg0 Si1 3.113091 1_556
Mg0 Zr0 3.150241 1_555
Mg0 Mg5 3.154196 1_665
Mg0 Mg5 3.154196 1_565
Mg0 Zr1 3.216348 1_566
Mg0 Si0 3.253785 1_565
Mg1 Mg9 3.070719 1_656
Mg1 Mg9 3.070719 1_556
Mg1 Mg4 3.101689 1_655
Mg1 Mg4 3.101689 1_555
Mg1 Si1 3.113091 1_556
Mg1 Zr0 3.150241 1_555
Mg1 Mg5 3.154196 1_655
Mg1 Mg5 3.154196 1_555
Mg1 Zr1 3.216348 1_556
Mg1 Si0 3.253785 1_555
Mg2 Mg3 2.929557 1_555
Mg2 Mg3 2.950017 1_545
Mg2 Mg6 3.070719 1_455
Mg2 Mg6 3.070719 1_555
Mg2 Si0 3.091573 1_555
Mg2 Si0 3.091573 1_455
Mg2 Mg5 3.093568 1_555
Mg2 Zr0 3.125294 1_455
Mg2 Zr0 3.125294 1_555
Mg2 Mg4 3.212287 1_555
Mg3 Mg7 3.070719 1_455
Mg3 Mg7 3.070719 1_555
Mg3 Si0 3.091573 1_565
Mg3 Si0 3.091573 1_465
Mg3 Mg5 3.093568 1_565
Mg3 Zr0 3.125294 1_455
Mg3 Zr0 3.125294 1_555
Mg3 Mg4 3.212287 1_555
Mg4 Mg5 2.943100 1_555
Mg4 Mg5 2.943100 1_565
Mg4 Zr0 3.070496 1_555
Mg4 Zr0 3.070496 1_455
Mg4 Mg9 3.154379 1_556
Mg4 Mg8 3.154379 1_556
Mg5 Si0 3.055684 1_455
Mg5 Si0 3.055684 1_555
Mg5 Mg9 3.273834 1_556
Mg5 Mg8 3.273834 1_546
Mg6 Mg7 2.933696 1_545
Mg6 Mg7 2.945878 1_555
Mg6 Si0 3.113091 1_555
Mg6 Zr1 3.150241 1_555
Mg6 Zr0 3.216348 1_555
Mg6 Si1 3.253785 1_555
Mg7 Si0 3.113091 1_565
Mg7 Zr1 3.150241 1_565
Mg7 Zr0 3.216348 1_555
Mg7 Si1 3.253785 1_555
Mg8 Mg9 2.929557 1_565
Mg8 Mg9 2.950017 1_555
Mg8 Si1 3.091573 1_455
Mg8 Si1 3.091573 1_555
Mg8 Zr1 3.125294 1_565
Mg8 Zr1 3.125294 1_465
Mg9 Si1 3.091573 1_455
Mg9 Si1 3.091573 1_555
Mg9 Zr1 3.125294 1_455
Mg9 Zr1 3.125294 1_555
Mg10 Mg11 2.943100 1_555
Mg10 Mg11 2.943100 1_545
Mg10 Zr1 3.070496 1_455
Mg10 Zr1 3.070496 1_555
Mg10 Mg6 3.101689 1_455
Mg10 Mg6 3.101689 1_555
Mg10 Mg7 3.101689 1_545
Mg10 Mg7 3.101689 1_445
Mg10 Mg3 3.154379 1_545
Mg10 Mg2 3.154379 1_555
Mg10 Mg8 3.212287 1_545
Mg10 Mg9 3.212287 1_555
Mg11 Si1 3.055684 1_455
Mg11 Si1 3.055684 1_555
Mg11 Mg9 3.093568 1_555
Mg11 Mg8 3.093568 1_555
Mg11 Mg7 3.154196 1_555
Mg11 Mg7 3.154196 1_455
Mg11 Mg6 3.154196 1_555
Mg11 Mg6 3.154196 1_455
Mg11 Mg2 3.273834 1_555
Mg11 Mg3 3.273834 1_555
Si0 Zr0 2.941974 1_545
Si0 Zr0 2.941974 1_555
Si1 Zr1 2.941974 1_565
Si1 Zr1 2.941974 1_555
