# generated using pymatgen
data_Nb3Te4
_symmetry_space_group_name_H-M   'P 1'
_cell_length_a   11.89039154
_cell_length_b   11.89039154
_cell_length_c   3.60887400
_cell_angle_alpha   90.00000000
_cell_angle_beta   90.00000000
_cell_angle_gamma   119.99999743
_symmetry_Int_Tables_number   1
_chemical_formula_structural   Nb3Te4
_chemical_formula_sum   'Nb6 Te8'
_cell_volume   441.87015963
_cell_formula_units_Z   2
loop_
 _symmetry_equiv_pos_site_id
 _symmetry_equiv_pos_as_xyz
  1  'x, y, z'
loop_
 _atom_site_type_symbol
 _atom_site_label
 _atom_site_symmetry_multiplicity
 _atom_site_fract_x
 _atom_site_fract_y
 _atom_site_fract_z
 _atom_site_occupancy
  Nb  Nb0  1  0.39971400  0.92579200  0.75000000  1
  Nb  Nb1  1  0.07420800  0.47392200  0.75000000  1
  Nb  Nb2  1  0.52607800  0.60028600  0.75000000  1
  Nb  Nb3  1  0.60028600  0.07420800  0.25000000  1
  Nb  Nb4  1  0.92579200  0.52607800  0.25000000  1
  Nb  Nb5  1  0.47392200  0.39971400  0.25000000  1
  Te  Te0  1  0.33333300  0.66666700  0.75000000  1
  Te  Te1  1  0.66666700  0.33333300  0.25000000  1
  Te  Te2  1  0.07569000  0.72040300  0.75000000  1
  Te  Te3  1  0.27959700  0.35528700  0.75000000  1
  Te  Te4  1  0.64471300  0.92431000  0.75000000  1
  Te  Te5  1  0.92431000  0.27959700  0.25000000  1
  Te  Te6  1  0.72040300  0.64471300  0.25000000  1
  Te  Te7  1  0.35528700  0.07569000  0.25000000  1
loop_
_geom_bond_atom_site_label_1
_geom_bond_atom_site_label_2
_geom_bond_distance
_geom_bond_site_symmetry_2
Nb0 Te7 2.766466 1_566
Nb0 Te7 2.766466 1_565
Nb0 Te0 2.772049 1_555
Nb0 Nb3 2.801650 1_565
Nb0 Nb3 2.801650 1_566
Nb0 Te4 2.921985 1_555
Nb0 Te2 3.376227 1_555
Nb1 Te5 2.766466 1_456
Nb1 Te5 2.766466 1_455
Nb1 Te0 2.772052 1_555
Nb1 Nb4 2.801650 1_456
Nb1 Nb4 2.801650 1_455
Nb1 Te2 2.921985 1_555
Nb1 Te3 3.376227 1_555
Nb2 Te6 2.766466 1_555
Nb2 Te6 2.766466 1_556
Nb2 Te0 2.772060 1_555
Nb2 Nb5 2.801650 1_556
Nb2 Nb5 2.801650 1_555
Nb2 Te3 2.921985 1_555
Nb2 Te4 3.376227 1_555
Nb3 Te4 2.766466 1_545
Nb3 Te4 2.766466 1_544
Nb3 Te1 2.772049 1_555
Nb3 Te7 2.921985 1_555
Nb3 Te5 3.376227 1_555
Nb4 Te2 2.766466 1_655
Nb4 Te2 2.766466 1_654
Nb4 Te1 2.772052 1_555
Nb4 Te5 2.921985 1_555
Nb4 Te6 3.376227 1_555
Nb5 Te3 2.766466 1_554
Nb5 Te3 2.766466 1_555
Nb5 Te1 2.772060 1_555
Nb5 Te6 2.921985 1_555
Nb5 Te7 3.376227 1_555
