# generated using pymatgen
data_Fe5Bi4O13F
_symmetry_space_group_name_H-M   'P 1'
_cell_length_a   8.43702400
_cell_length_b   8.43702400
_cell_length_c   18.43685000
_cell_angle_alpha   90.00000000
_cell_angle_beta   90.00000000
_cell_angle_gamma   90.00000000
_symmetry_Int_Tables_number   1
_chemical_formula_structural   Fe5Bi4O13F
_chemical_formula_sum   'Fe20 Bi16 O52 F4'
_cell_volume   1312.39718850
_cell_formula_units_Z   4
loop_
 _symmetry_equiv_pos_site_id
 _symmetry_equiv_pos_as_xyz
  1  'x, y, z'
loop_
 _atom_site_type_symbol
 _atom_site_label
 _atom_site_symmetry_multiplicity
 _atom_site_fract_x
 _atom_site_fract_y
 _atom_site_fract_z
 _atom_site_occupancy
  Fe  Fe0  1  0.16381400  0.64966100  0.24989000  1
  Fe  Fe1  1  0.14966100  0.33618600  0.74989000  1
  Fe  Fe2  1  0.33618600  0.14966100  0.25011000  1
  Fe  Fe3  1  0.64966100  0.16381400  0.75011000  1
  Fe  Fe4  1  0.83618600  0.35033900  0.24989000  1
  Fe  Fe5  1  0.85033900  0.66381400  0.74989000  1
  Fe  Fe6  1  0.66381400  0.85033900  0.25011000  1
  Fe  Fe7  1  0.35033900  0.83618600  0.75011000  1
  Fe  Fe8  1  0.00000000  0.00000000  0.50000000  1
  Fe  Fe9  1  0.50000000  0.50000000  0.00000000  1
  Fe  Fe10  1  0.50000000  0.50000000  0.50000000  1
  Fe  Fe11  1  0.00000000  0.00000000  0.00000000  1
  Fe  Fe12  1  0.00000000  0.00000000  0.33074200  1
  Fe  Fe13  1  0.50000000  0.50000000  0.83074200  1
  Fe  Fe14  1  0.50000000  0.50000000  0.33047000  1
  Fe  Fe15  1  0.00000000  0.00000000  0.83047000  1
  Fe  Fe16  1  0.00000000  0.00000000  0.16953000  1
  Fe  Fe17  1  0.50000000  0.50000000  0.66953000  1
  Fe  Fe18  1  0.50000000  0.50000000  0.16925800  1
  Fe  Fe19  1  0.00000000  0.00000000  0.66925800  1
  Bi  Bi0  1  0.34049100  0.82705500  0.40689000  1
  Bi  Bi1  1  0.32705500  0.15950900  0.90689000  1
  Bi  Bi2  1  0.15908600  0.32801700  0.40757800  1
  Bi  Bi3  1  0.82801700  0.34091400  0.90757800  1
  Bi  Bi4  1  0.34091400  0.82801700  0.09242200  1
  Bi  Bi5  1  0.32801700  0.15908600  0.59242200  1
  Bi  Bi6  1  0.15950900  0.32705500  0.09311000  1
  Bi  Bi7  1  0.82705500  0.34049100  0.59311000  1
  Bi  Bi8  1  0.65908600  0.17198300  0.09242200  1
  Bi  Bi9  1  0.67198300  0.84091400  0.59242200  1
  Bi  Bi10  1  0.84049100  0.67294500  0.09311000  1
  Bi  Bi11  1  0.17294500  0.65950900  0.59311000  1
  Bi  Bi12  1  0.65950900  0.17294500  0.40689000  1
  Bi  Bi13  1  0.67294500  0.84049100  0.90689000  1
  Bi  Bi14  1  0.84091400  0.67198300  0.40757800  1
  Bi  Bi15  1  0.17198300  0.65908600  0.90757800  1
  O  O0  1  0.12352900  0.20972900  0.83625800  1
  O  O1  1  0.70972900  0.37647100  0.33625800  1
  O  O2  1  0.37380000  0.70906400  0.83657300  1
  O  O3  1  0.20906400  0.12620000  0.33657300  1
  O  O4  1  0.12620000  0.20906400  0.66342700  1
  O  O5  1  0.70906400  0.37380000  0.16342700  1
  O  O6  1  0.37647100  0.70972900  0.66374200  1
  O  O7  1  0.20972900  0.12352900  0.16374200  1
  O  O8  1  0.87380000  0.79093600  0.66342700  1
  O  O9  1  0.29093600  0.62620000  0.16342700  1
  O  O10  1  0.62352900  0.29027100  0.66374200  1
  O  O11  1  0.79027100  0.87647100  0.16374200  1
  O  O12  1  0.87647100  0.79027100  0.83625800  1
  O  O13  1  0.29027100  0.62352900  0.33625800  1
  O  O14  1  0.62620000  0.29093600  0.83657300  1
  O  O15  1  0.79093600  0.87380000  0.33657300  1
  O  O16  1  0.13978000  0.91991700  0.58388000  1
  O  O17  1  0.41991700  0.36022000  0.08388000  1
  O  O18  1  0.36044800  0.41952500  0.58390700  1
  O  O19  1  0.91952500  0.13955200  0.08390700  1
  O  O20  1  0.13955200  0.91952500  0.91609300  1
  O  O21  1  0.41952500  0.36044800  0.41609300  1
  O  O22  1  0.36022000  0.41991700  0.91612000  1
  O  O23  1  0.91991700  0.13978000  0.41612000  1
  O  O24  1  0.86044800  0.08047500  0.91609300  1
  O  O25  1  0.58047500  0.63955200  0.41609300  1
  O  O26  1  0.63978000  0.58008300  0.91612000  1
  O  O27  1  0.08008300  0.86022000  0.41612000  1
  O  O28  1  0.86022000  0.08008300  0.58388000  1
  O  O29  1  0.58008300  0.63978000  0.08388000  1
  O  O30  1  0.63955200  0.58047500  0.58390700  1
  O  O31  1  0.08047500  0.86044800  0.08390700  1
  O  O32  1  0.40903100  0.36475900  0.24971900  1
  O  O33  1  0.86475900  0.09096900  0.74971900  1
  O  O34  1  0.09096900  0.86475900  0.25028100  1
  O  O35  1  0.36475900  0.40903100  0.75028100  1
  O  O36  1  0.59096900  0.63524100  0.24971900  1
  O  O37  1  0.13524100  0.90903100  0.74971900  1
  O  O38  1  0.90903100  0.13524100  0.25028100  1
  O  O39  1  0.63524100  0.59096900  0.75028100  1
  O  O40  1  0.17195500  0.17195500  0.00000000  1
  O  O41  1  0.67195500  0.32804500  0.50000000  1
  O  O42  1  0.32830400  0.67169600  0.00000000  1
  O  O43  1  0.17169600  0.17169600  0.50000000  1
  O  O44  1  0.67169600  0.32830400  0.00000000  1
  O  O45  1  0.32804500  0.67195500  0.50000000  1
  O  O46  1  0.82830400  0.82830400  0.50000000  1
  O  O47  1  0.82804500  0.82804500  0.00000000  1
  O  O48  1  0.00000000  0.50000000  0.24981400  1
  O  O49  1  0.00000000  0.50000000  0.74981400  1
  O  O50  1  0.50000000  0.00000000  0.25018600  1
  O  O51  1  0.50000000  0.00000000  0.75018600  1
  F  F0  1  0.00000000  0.50000000  0.50387800  1
  F  F1  1  0.00000000  0.50000000  0.00387800  1
  F  F2  1  0.50000000  0.00000000  0.99612200  1
  F  F3  1  0.50000000  0.00000000  0.49612200  1
loop_
_geom_bond_atom_site_label_1
_geom_bond_atom_site_label_2
_geom_bond_distance
_geom_bond_site_symmetry_2
Fe0 O48 1.872059 1_555
Fe0 O34 1.916046 1_555
Fe0 O13 1.929383 1_555
Fe0 O9 1.931496 1_555
Fe1 O49 1.872059 1_555
Fe1 O35 1.916046 1_555
Fe1 O0 1.929383 1_555
Fe1 O4 1.931496 1_555
Fe2 O50 1.872059 1_555
Fe2 O32 1.916046 1_555
Fe2 O7 1.929383 1_555
Fe2 O3 1.931496 1_555
Fe3 O51 1.872059 1_555
Fe3 O33 1.916046 1_555
Fe3 O10 1.929383 1_555
Fe3 O14 1.931496 1_555
Fe4 O48 1.872059 1_655
Fe4 O38 1.916046 1_555
Fe4 O1 1.929383 1_555
Fe4 O5 1.931496 1_555
Fe5 O49 1.872059 1_655
Fe5 O39 1.916046 1_555
Fe5 O12 1.929383 1_555
Fe5 O8 1.931496 1_555
Fe6 O50 1.872059 1_565
Fe6 O36 1.916046 1_555
Fe6 O11 1.929383 1_555
Fe6 O15 1.931496 1_555
Fe7 O51 1.872059 1_565
Fe7 O37 1.916046 1_555
Fe7 O6 1.929383 1_555
Fe7 O2 1.931496 1_555
Fe8 O46 2.048634 1_445
Fe8 O43 2.048634 1_555
Fe8 O16 2.058869 1_545
Fe8 O28 2.058869 1_455
Fe8 O27 2.058869 1_545
Fe8 O23 2.058869 1_455
Fe9 O44 2.048634 1_555
Fe9 O42 2.048634 1_555
Fe9 O22 2.058869 1_554
Fe9 O26 2.058869 1_554
Fe9 O17 2.058869 1_555
Fe9 O29 2.058869 1_555
Fe10 O41 2.051725 1_555
Fe10 O45 2.051725 1_555
Fe10 O30 2.059230 1_555
Fe10 O18 2.059230 1_555
Fe10 O25 2.059230 1_555
Fe10 O21 2.059230 1_555
Fe11 O47 2.051725 1_445
Fe11 O40 2.051725 1_555
Fe11 O24 2.059230 1_454
Fe11 O19 2.059230 1_455
Fe11 O20 2.059230 1_544
Fe11 O31 2.059230 1_545
Fe12 O34 2.022780 1_545
Fe12 O38 2.022780 1_455
Fe12 O3 2.063134 1_555
Fe12 O15 2.063134 1_445
Fe12 O23 2.079694 1_455
Fe12 O27 2.079694 1_545
Fe13 O39 2.022780 1_555
Fe13 O35 2.022780 1_555
Fe13 O14 2.063134 1_555
Fe13 O2 2.063134 1_555
Fe13 O22 2.079694 1_555
Fe13 O26 2.079694 1_555
Fe14 O36 2.026704 1_555
Fe14 O32 2.026704 1_555
Fe14 O13 2.056379 1_555
Fe14 O1 2.056379 1_555
Fe14 O25 2.083102 1_555
Fe14 O21 2.083102 1_555
Fe15 O33 2.026704 1_455
Fe15 O37 2.026704 1_545
Fe15 O0 2.056379 1_555
Fe15 O12 2.056379 1_445
Fe15 O20 2.083102 1_545
Fe15 O24 2.083102 1_455
Fe16 O34 2.026704 1_545
Fe16 O38 2.026704 1_455
Fe16 O7 2.056379 1_555
Fe16 O11 2.056379 1_445
Fe16 O19 2.083102 1_455
Fe16 O31 2.083102 1_545
Fe17 O39 2.026704 1_555
Fe17 O35 2.026704 1_555
Fe17 O10 2.056379 1_555
Fe17 O6 2.056379 1_555
Fe17 O30 2.083102 1_555
Fe17 O18 2.083102 1_555
Fe18 O36 2.022780 1_555
Fe18 O32 2.022780 1_555
Fe18 O5 2.063134 1_555
Fe18 O9 2.063134 1_555
Fe18 O17 2.079694 1_555
Fe18 O29 2.079694 1_555
Fe19 O37 2.022780 1_545
Fe19 O33 2.022780 1_455
Fe19 O4 2.063134 1_555
Fe19 O8 2.063134 1_445
Fe19 O28 2.079694 1_455
Fe19 O16 2.079694 1_545
Bi0 O45 2.161092 1_555
Bi0 O13 2.196350 1_555
Bi0 O27 2.221343 1_555
Bi0 O25 2.575078 1_555
Bi0 F3 2.578131 1_565
Bi1 O40 2.161092 1_556
Bi1 O0 2.196350 1_555
Bi1 O22 2.221343 1_555
Bi1 O20 2.575078 1_545
Bi1 F2 2.578131 1_555
Bi2 O43 2.157380 1_555
Bi2 O3 2.188806 1_555
Bi2 O21 2.219859 1_555
Bi2 O23 2.572717 1_455
Bi2 F0 2.656934 1_555
Bi3 O44 2.157380 1_556
Bi3 O14 2.188806 1_555
Bi3 O24 2.219859 1_555
Bi3 O26 2.572717 1_555
Bi3 F1 2.656934 1_656
Bi4 O42 2.157380 1_555
Bi4 O9 2.188806 1_555
Bi4 O31 2.219859 1_555
Bi4 O29 2.572717 1_555
Bi4 F2 2.656934 1_564
Bi5 O43 2.157380 1_555
Bi5 O4 2.188806 1_555
Bi5 O18 2.219859 1_555
Bi5 O16 2.572717 1_545
Bi5 F3 2.656934 1_555
Bi6 O40 2.161092 1_555
Bi6 O7 2.196350 1_555
Bi6 O17 2.221343 1_555
Bi6 O19 2.575078 1_455
Bi6 F1 2.578131 1_555
Bi7 O41 2.161092 1_555
Bi7 O10 2.196350 1_555
Bi7 O28 2.221343 1_555
Bi7 O30 2.575078 1_555
Bi7 F0 2.578131 1_655
Bi8 O44 2.157380 1_555
Bi8 O5 2.188806 1_555
Bi8 O19 2.219859 1_555
Bi8 O17 2.572717 1_555
Bi8 F2 2.656934 1_554
Bi9 O46 2.157380 1_555
Bi9 O8 2.188806 1_555
Bi9 O30 2.219859 1_555
Bi9 O28 2.572717 1_565
Bi9 F3 2.656934 1_565
Bi10 O47 2.161092 1_555
Bi10 O11 2.196350 1_555
Bi10 O29 2.221343 1_555
Bi10 O31 2.575078 1_655
Bi10 F1 2.578131 1_655
Bi11 O45 2.161092 1_555
Bi11 O6 2.196350 1_555
Bi11 O16 2.221343 1_555
Bi11 O18 2.575078 1_555
Bi11 F0 2.578131 1_555
Bi12 O41 2.161092 1_555
Bi12 O1 2.196350 1_555
Bi12 O23 2.221343 1_555
Bi12 O21 2.575078 1_555
Bi12 F3 2.578131 1_555
Bi13 O47 2.161092 1_556
Bi13 O12 2.196350 1_555
Bi13 O26 2.221343 1_555
Bi13 O24 2.575078 1_565
Bi13 F2 2.578131 1_565
Bi14 O46 2.157380 1_555
Bi14 O15 2.188806 1_555
Bi14 O25 2.219859 1_555
Bi14 O27 2.572717 1_655
Bi14 F0 2.656934 1_655
Bi15 O42 2.157380 1_556
Bi15 O2 2.188806 1_555
Bi15 O20 2.219859 1_555
Bi15 O22 2.572717 1_555
Bi15 F1 2.656934 1_556
