# generated using pymatgen
data_UNi2
_symmetry_space_group_name_H-M   'P 1'
_cell_length_a   4.92232156
_cell_length_b   4.92232156
_cell_length_c   8.13605227
_cell_angle_alpha   90.00000000
_cell_angle_beta   90.00000000
_cell_angle_gamma   120.00000535
_symmetry_Int_Tables_number   1
_chemical_formula_structural   UNi2
_chemical_formula_sum   'U4 Ni8'
_cell_volume   170.71996019
_cell_formula_units_Z   4
loop_
 _symmetry_equiv_pos_site_id
 _symmetry_equiv_pos_as_xyz
  1  'x, y, z'
loop_
 _atom_site_type_symbol
 _atom_site_label
 _atom_site_symmetry_multiplicity
 _atom_site_fract_x
 _atom_site_fract_y
 _atom_site_fract_z
 _atom_site_occupancy
  U  U0  1  0.33333300  0.66666700  0.05828429  1
  U  U1  1  0.33333300  0.66666700  0.44175939  1
  U  U2  1  0.66666700  0.33333300  0.55824061  1
  U  U3  1  0.66666700  0.33333300  0.94171571  1
  Ni  Ni0  1  0.16559345  0.33118690  0.74996336  1
  Ni  Ni1  1  0.16559345  0.83440655  0.74996336  1
  Ni  Ni2  1  0.33118690  0.16559345  0.25003664  1
  Ni  Ni3  1  0.83440655  0.66881310  0.25003664  1
  Ni  Ni4  1  0.00000000  -0.00000000  -0.00000000  1
  Ni  Ni5  1  0.66881310  0.83440655  0.74996336  1
  Ni  Ni6  1  0.83440655  0.16559345  0.25003664  1
  Ni  Ni7  1  0.00000000  -0.00000000  0.50000000  1
loop_
_geom_bond_atom_site_label_1
_geom_bond_atom_site_label_2
_geom_bond_distance
_geom_bond_site_symmetry_2
Ni0 Ni5 2.445312 1_445
Ni0 Ni1 2.445313 1_545
Ni0 Ni7 2.475718 1_555
Ni0 Ni4 2.476208 1_556
Ni0 Ni5 2.477009 1_555
Ni0 Ni1 2.477009 1_555
Ni0 U1 2.886706 1_555
Ni0 U0 2.887532 1_556
Ni0 U2 2.913858 1_455
Ni0 U2 2.913862 1_555
Ni0 U3 2.913987 1_455
Ni0 U3 2.913991 1_555
Ni1 Ni5 2.445313 1_455
Ni1 Ni7 2.475718 1_565
Ni1 Ni4 2.476208 1_566
Ni1 Ni5 2.477009 1_555
Ni1 U1 2.886704 1_555
Ni1 U0 2.887530 1_556
Ni1 U2 2.913860 1_455
Ni1 U2 2.913860 1_565
Ni1 U3 2.913989 1_455
Ni1 U3 2.913989 1_565
Ni2 Ni3 2.445312 1_445
Ni2 Ni6 2.445313 1_455
Ni2 Ni7 2.475718 1_555
Ni2 Ni4 2.476208 1_555
Ni2 Ni3 2.477009 1_555
Ni2 Ni6 2.477009 1_555
Ni2 U2 2.886706 1_555
Ni2 U3 2.887532 1_554
Ni2 U1 2.913858 1_545
Ni2 U1 2.913862 1_555
Ni2 U0 2.913987 1_545
Ni2 U0 2.913991 1_555
Ni3 Ni6 2.445313 1_565
Ni3 Ni7 2.475718 1_665
Ni3 Ni4 2.476208 1_665
Ni3 Ni6 2.477009 1_555
Ni3 U2 2.886706 1_555
Ni3 U3 2.887532 1_554
Ni3 U1 2.913858 1_655
Ni3 U1 2.913862 1_555
Ni3 U0 2.913987 1_655
Ni3 U0 2.913991 1_555
Ni4 Ni5 2.476208 1_444
Ni4 Ni6 2.476208 1_455
Ni4 U3 2.881193 1_454
Ni4 U0 2.881193 1_545
Ni4 U3 2.881196 1_444
Ni4 U0 2.881196 1_555
Ni4 U0 2.881196 1_445
Ni4 U3 2.881196 1_554
Ni5 Ni7 2.475718 1_665
Ni5 U1 2.886706 1_555
Ni5 U0 2.887532 1_556
Ni5 U2 2.913858 1_565
Ni5 U2 2.913862 1_555
Ni5 U3 2.913987 1_565
Ni5 U3 2.913991 1_555
Ni6 Ni7 2.475718 1_655
Ni6 U2 2.886704 1_555
Ni6 U3 2.887530 1_554
Ni6 U1 2.913860 1_655
Ni6 U1 2.913860 1_545
Ni6 U0 2.913989 1_545
Ni6 U0 2.913989 1_655
Ni7 U1 2.881134 1_545
Ni7 U2 2.881134 1_455
Ni7 U1 2.881138 1_445
Ni7 U2 2.881138 1_555
Ni7 U1 2.881138 1_555
Ni7 U2 2.881138 1_445
