# generated using pymatgen
data_TiNi2Sn
_symmetry_space_group_name_H-M   'P 1'
_cell_length_a   6.39764200
_cell_length_b   6.39764200
_cell_length_c   11.65775600
_cell_angle_alpha   90.00000000
_cell_angle_beta   90.00000000
_cell_angle_gamma   90.00000000
_symmetry_Int_Tables_number   1
_chemical_formula_structural   TiNi2Sn
_chemical_formula_sum   'Ti8 Ni16 Sn8'
_cell_volume   477.14989152
_cell_formula_units_Z   8
loop_
 _symmetry_equiv_pos_site_id
 _symmetry_equiv_pos_as_xyz
  1  'x, y, z'
loop_
 _atom_site_type_symbol
 _atom_site_label
 _atom_site_symmetry_multiplicity
 _atom_site_fract_x
 _atom_site_fract_y
 _atom_site_fract_z
 _atom_site_occupancy
  Ti  Ti0_0  1  0.00000000  0.00000000  0.25000000  1
  Ti  Ti0_1  1  0.00000000  0.00000000  0.75000000  1
  Ti  Ti0_2  1  0.00000000  0.50000000  0.25000000  1
  Ti  Ti0_3  1  0.00000000  0.50000000  0.75000000  1
  Ti  Ti0_4  1  0.50000000  0.00000000  0.25000000  1
  Ti  Ti0_5  1  0.50000000  0.00000000  0.75000000  1
  Ti  Ti0_6  1  0.50000000  0.50000000  0.25000000  1
  Ti  Ti0_7  1  0.50000000  0.50000000  0.75000000  1
  Ni  Ni0_0  1  0.25000000  0.25000000  0.14262500  1
  Ni  Ni0_1  1  0.25000000  0.25000000  0.64262500  1
  Ni  Ni0_2  1  0.25000000  0.75000000  0.14262500  1
  Ni  Ni0_3  1  0.25000000  0.75000000  0.64262500  1
  Ni  Ni0_4  1  0.75000000  0.25000000  0.14262500  1
  Ni  Ni0_5  1  0.75000000  0.25000000  0.64262500  1
  Ni  Ni0_6  1  0.75000000  0.75000000  0.14262500  1
  Ni  Ni0_7  1  0.75000000  0.75000000  0.64262500  1
  Ni  Ni1_0  1  0.25000000  0.25000000  0.35737500  1
  Ni  Ni1_1  1  0.25000000  0.25000000  0.85737500  1
  Ni  Ni1_2  1  0.25000000  0.75000000  0.35737500  1
  Ni  Ni1_3  1  0.25000000  0.75000000  0.85737500  1
  Ni  Ni1_4  1  0.75000000  0.25000000  0.35737500  1
  Ni  Ni1_5  1  0.75000000  0.25000000  0.85737500  1
  Ni  Ni1_6  1  0.75000000  0.75000000  0.35737500  1
  Ni  Ni1_7  1  0.75000000  0.75000000  0.85737500  1
  Sn  Sn0_0  1  0.00000000  0.00000000  0.00000000  1
  Sn  Sn0_1  1  0.00000000  0.00000000  0.50000000  1
  Sn  Sn0_2  1  0.00000000  0.50000000  0.00000000  1
  Sn  Sn0_3  1  0.00000000  0.50000000  0.50000000  1
  Sn  Sn0_4  1  0.50000000  0.00000000  0.00000000  1
  Sn  Sn0_5  1  0.50000000  0.00000000  0.50000000  1
  Sn  Sn0_6  1  0.50000000  0.50000000  0.00000000  1
  Sn  Sn0_7  1  0.50000000  0.50000000  0.50000000  1
loop_
_geom_bond_atom_site_label_1
_geom_bond_atom_site_label_2
_geom_bond_distance
_geom_bond_site_symmetry_2
Ni0_0 Ni1_0 2.503503 1_555
Ni0_0 Ti0_0 2.585171 1_555
Ni0_0 Ti0_4 2.585171 1_555
Ni0_0 Ti0_6 2.585171 1_555
Ni0_0 Ti0_2 2.585171 1_555
Ni0_0 Sn0_6 2.807269 1_555
Ni0_0 Sn0_0 2.807269 1_555
Ni0_0 Sn0_4 2.807269 1_555
Ni0_0 Sn0_2 2.807269 1_555
Ni0_1 Ni1_1 2.503503 1_555
Ni0_1 Ti0_5 2.585171 1_555
Ni0_1 Ti0_3 2.585171 1_555
Ni0_1 Ti0_7 2.585171 1_555
Ni0_1 Ti0_1 2.585171 1_555
Ni0_1 Sn0_1 2.807269 1_555
Ni0_1 Sn0_5 2.807269 1_555
Ni0_1 Sn0_3 2.807269 1_555
Ni0_1 Sn0_7 2.807269 1_555
Ni0_2 Ni1_2 2.503503 1_555
Ni0_2 Ti0_2 2.585171 1_555
Ni0_2 Ti0_6 2.585171 1_555
Ni0_2 Ti0_4 2.585171 1_565
Ni0_2 Ti0_0 2.585171 1_565
Ni0_2 Sn0_2 2.807269 1_555
Ni0_2 Sn0_6 2.807269 1_555
Ni0_2 Sn0_0 2.807269 1_565
Ni0_2 Sn0_4 2.807269 1_565
Ni0_3 Ni1_3 2.503503 1_555
Ni0_3 Ti0_3 2.585171 1_555
Ni0_3 Ti0_7 2.585171 1_555
Ni0_3 Ti0_1 2.585171 1_565
Ni0_3 Ti0_5 2.585171 1_565
Ni0_3 Sn0_7 2.807269 1_555
Ni0_3 Sn0_3 2.807269 1_555
Ni0_3 Sn0_5 2.807269 1_565
Ni0_3 Sn0_1 2.807269 1_565
Ni0_4 Ni1_4 2.503503 1_555
Ni0_4 Ti0_4 2.585171 1_555
Ni0_4 Ti0_6 2.585171 1_555
Ni0_4 Ti0_2 2.585171 1_655
Ni0_4 Ti0_0 2.585171 1_655
Ni0_4 Sn0_6 2.807269 1_555
Ni0_4 Sn0_4 2.807269 1_555
Ni0_4 Sn0_0 2.807269 1_655
Ni0_4 Sn0_2 2.807269 1_655
Ni0_5 Ni1_5 2.503503 1_555
Ni0_5 Ti0_5 2.585171 1_555
Ni0_5 Ti0_7 2.585171 1_555
Ni0_5 Ti0_1 2.585171 1_655
Ni0_5 Ti0_3 2.585171 1_655
Ni0_5 Sn0_7 2.807269 1_555
Ni0_5 Sn0_5 2.807269 1_555
Ni0_5 Sn0_3 2.807269 1_655
Ni0_5 Sn0_1 2.807269 1_655
Ni0_6 Ni1_6 2.503503 1_555
Ni0_6 Ti0_6 2.585171 1_555
Ni0_6 Ti0_2 2.585171 1_655
Ni0_6 Ti0_4 2.585171 1_565
Ni0_6 Ti0_0 2.585171 1_665
Ni0_6 Sn0_6 2.807269 1_555
Ni0_6 Sn0_4 2.807269 1_565
Ni0_6 Sn0_2 2.807269 1_655
Ni0_6 Sn0_0 2.807269 1_665
Ni0_7 Ni1_7 2.503503 1_555
Ni0_7 Ti0_7 2.585171 1_555
Ni0_7 Ti0_5 2.585171 1_565
Ni0_7 Ti0_3 2.585171 1_655
Ni0_7 Ti0_1 2.585171 1_665
Ni0_7 Sn0_7 2.807269 1_555
Ni0_7 Sn0_3 2.807269 1_655
Ni0_7 Sn0_5 2.807269 1_565
Ni0_7 Sn0_1 2.807269 1_665
Ni1_0 Ti0_0 2.585171 1_555
Ni1_0 Ti0_4 2.585171 1_555
Ni1_0 Ti0_6 2.585171 1_555
Ni1_0 Ti0_2 2.585171 1_555
Ni1_0 Sn0_3 2.807269 1_555
Ni1_0 Sn0_7 2.807269 1_555
Ni1_0 Sn0_1 2.807269 1_555
Ni1_0 Sn0_5 2.807269 1_555
Ni1_1 Ti0_3 2.585171 1_555
Ni1_1 Ti0_7 2.585171 1_555
Ni1_1 Ti0_1 2.585171 1_555
Ni1_1 Ti0_5 2.585171 1_555
Ni1_1 Sn0_0 2.807269 1_556
Ni1_1 Sn0_4 2.807269 1_556
Ni1_1 Sn0_2 2.807269 1_556
Ni1_1 Sn0_6 2.807269 1_556
Ni1_2 Ti0_6 2.585171 1_555
Ni1_2 Ti0_2 2.585171 1_555
Ni1_2 Ti0_0 2.585171 1_565
Ni1_2 Ti0_4 2.585171 1_565
Ni1_2 Sn0_7 2.807269 1_555
Ni1_2 Sn0_3 2.807269 1_555
Ni1_2 Sn0_5 2.807269 1_565
Ni1_2 Sn0_1 2.807269 1_565
Ni1_3 Ti0_3 2.585171 1_555
Ni1_3 Ti0_7 2.585171 1_555
Ni1_3 Ti0_1 2.585171 1_565
Ni1_3 Ti0_5 2.585171 1_565
Ni1_3 Sn0_2 2.807269 1_556
Ni1_3 Sn0_6 2.807269 1_556
Ni1_3 Sn0_4 2.807269 1_566
Ni1_3 Sn0_0 2.807269 1_566
Ni1_4 Ti0_4 2.585171 1_555
Ni1_4 Ti0_6 2.585171 1_555
Ni1_4 Ti0_0 2.585171 1_655
Ni1_4 Ti0_2 2.585171 1_655
Ni1_4 Sn0_7 2.807269 1_555
Ni1_4 Sn0_5 2.807269 1_555
Ni1_4 Sn0_1 2.807269 1_655
Ni1_4 Sn0_3 2.807269 1_655
Ni1_5 Ti0_5 2.585171 1_555
Ni1_5 Ti0_7 2.585171 1_555
Ni1_5 Ti0_1 2.585171 1_655
Ni1_5 Ti0_3 2.585171 1_655
Ni1_5 Sn0_6 2.807269 1_556
Ni1_5 Sn0_4 2.807269 1_556
Ni1_5 Sn0_2 2.807269 1_656
Ni1_5 Sn0_0 2.807269 1_656
Ni1_6 Ti0_6 2.585171 1_555
Ni1_6 Ti0_4 2.585171 1_565
Ni1_6 Ti0_2 2.585171 1_655
Ni1_6 Ti0_0 2.585171 1_665
Ni1_6 Sn0_7 2.807269 1_555
Ni1_6 Sn0_5 2.807269 1_565
Ni1_6 Sn0_3 2.807269 1_655
Ni1_6 Sn0_1 2.807269 1_665
Ni1_7 Ti0_7 2.585171 1_555
Ni1_7 Ti0_3 2.585171 1_655
Ni1_7 Ti0_5 2.585171 1_565
Ni1_7 Ti0_1 2.585171 1_665
Ni1_7 Sn0_6 2.807269 1_556
Ni1_7 Sn0_4 2.807269 1_566
Ni1_7 Sn0_2 2.807269 1_656
Ni1_7 Sn0_0 2.807269 1_666
Sn0_0 Ti0_0 2.914439 1_555
Sn0_0 Ti0_1 2.914439 1_554
Sn0_0 Sn0_4 3.198821 1_455
Sn0_0 Sn0_4 3.198821 1_555
Sn0_0 Sn0_2 3.198821 1_555
Sn0_0 Sn0_2 3.198821 1_545
Sn0_1 Ti0_0 2.914439 1_555
Sn0_1 Ti0_1 2.914439 1_555
Sn0_1 Sn0_5 3.198821 1_555
Sn0_1 Sn0_5 3.198821 1_455
Sn0_1 Sn0_3 3.198821 1_555
Sn0_1 Sn0_3 3.198821 1_545
Sn0_2 Ti0_2 2.914439 1_555
Sn0_2 Ti0_3 2.914439 1_554
Sn0_2 Sn0_6 3.198821 1_455
Sn0_2 Sn0_6 3.198821 1_555
Sn0_3 Ti0_2 2.914439 1_555
Sn0_3 Ti0_3 2.914439 1_555
Sn0_3 Sn0_7 3.198821 1_555
Sn0_3 Sn0_7 3.198821 1_455
Sn0_4 Ti0_4 2.914439 1_555
Sn0_4 Ti0_5 2.914439 1_554
Sn0_4 Sn0_6 3.198821 1_545
Sn0_4 Sn0_6 3.198821 1_555
Sn0_5 Ti0_4 2.914439 1_555
Sn0_5 Ti0_5 2.914439 1_555
Sn0_5 Sn0_7 3.198821 1_555
Sn0_5 Sn0_7 3.198821 1_545
Sn0_6 Ti0_6 2.914439 1_555
Sn0_6 Ti0_7 2.914439 1_554
Sn0_7 Ti0_6 2.914439 1_555
Sn0_7 Ti0_7 2.914439 1_555
