# generated using pymatgen
data_Pb4Br3NO16
_symmetry_space_group_name_H-M   'P 1'
_cell_length_a   9.39600121
_cell_length_b   9.39600121
_cell_length_c   13.03201940
_cell_angle_alpha   89.41586658
_cell_angle_beta   89.41586658
_cell_angle_gamma   132.02509652
_symmetry_Int_Tables_number   1
_chemical_formula_structural   Pb4Br3NO16
_chemical_formula_sum   'Pb8 Br6 N2 O32'
_cell_volume   854.40414069
_cell_formula_units_Z   2
loop_
 _symmetry_equiv_pos_site_id
 _symmetry_equiv_pos_as_xyz
  1  'x, y, z'
loop_
 _atom_site_type_symbol
 _atom_site_label
 _atom_site_symmetry_multiplicity
 _atom_site_fract_x
 _atom_site_fract_y
 _atom_site_fract_z
 _atom_site_occupancy
  Pb  Pb0  1  0.96129300  0.02410100  0.32368900  1
  Pb  Pb1  1  0.02410100  0.96129300  0.82368900  1
  Pb  Pb2  1  0.09376200  0.83751500  0.11000300  1
  Pb  Pb3  1  0.83751500  0.09376200  0.61000300  1
  Pb  Pb4  1  0.58982800  0.50290900  0.22585300  1
  Pb  Pb5  1  0.50290900  0.58982800  0.72585300  1
  Pb  Pb6  1  0.02898700  0.68152200  0.38825000  1
  Pb  Pb7  1  0.68152200  0.02898700  0.88825000  1
  Br  Br0  1  0.50845600  0.88175200  0.18240700  1
  Br  Br1  1  0.88175200  0.50845600  0.68240700  1
  Br  Br2  1  0.33990700  0.57381000  0.47089000  1
  Br  Br3  1  0.57381000  0.33990700  0.97089000  1
  Br  Br4  1  0.07812900  0.29985200  0.09079000  1
  Br  Br5  1  0.29985200  0.07812900  0.59079000  1
  N  N0  1  0.15659800  0.61661300  0.90688200  1
  N  N1  1  0.61661300  0.15659800  0.40688200  1
  O  O0  1  0.26595800  0.74225500  0.19963800  1
  O  O1  1  0.74225500  0.26595800  0.69963800  1
  O  O2  1  0.56677800  0.81753000  0.28490300  1
  O  O3  1  0.81753000  0.56677800  0.78490300  1
  O  O4  1  0.52616200  0.78939900  0.07923200  1
  O  O5  1  0.78939900  0.52616200  0.57923200  1
  O  O6  1  0.55406400  0.69049300  0.52799800  1
  O  O7  1  0.69049300  0.55406400  0.02799800  1
  O  O8  1  0.18407800  0.48339200  0.57249300  1
  O  O9  1  0.48339200  0.18407800  0.07249300  1
  O  O10  1  0.28953700  0.38564300  0.41309700  1
  O  O11  1  0.38564300  0.28953700  0.91309700  1
  O  O12  1  0.96714500  0.12353500  0.00323500  1
  O  O13  1  0.12353500  0.96714500  0.50323500  1
  O  O14  1  0.19107700  0.25510900  0.16887300  1
  O  O15  1  0.25510900  0.19107700  0.66887300  1
  O  O16  1  0.90386400  0.24828400  0.16638800  1
  O  O17  1  0.24828400  0.90386400  0.66638800  1
  O  O18  1  0.85041900  0.82435100  0.18226700  1
  O  O19  1  0.82435100  0.85041900  0.68226700  1
  O  O20  1  0.13982400  0.94070300  0.27960200  1
  O  O21  1  0.94070300  0.13982400  0.77960200  1
  O  O22  1  0.88326200  0.57837700  0.22360500  1
  O  O23  1  0.57837700  0.88326200  0.72360500  1
  O  O24  1  0.79369800  0.69291500  0.36719000  1
  O  O25  1  0.69291500  0.79369800  0.86719000  1
  O  O26  1  0.54376900  0.19963700  0.34848300  1
  O  O27  1  0.19963700  0.54376900  0.84848300  1
  O  O28  1  0.79750800  0.26395300  0.41083600  1
  O  O29  1  0.26395300  0.79750800  0.91083600  1
  O  O30  1  0.51056300  0.00646400  0.46266900  1
  O  O31  1  0.00646400  0.51056300  0.96266900  1
loop_
_geom_bond_atom_site_label_1
_geom_bond_atom_site_label_2
_geom_bond_distance
_geom_bond_site_symmetry_2
Br0 O4 1.673642 1_555
Br0 O2 1.699951 1_555
Br0 O0 1.716085 1_555
Br1 O5 1.673642 1_555
Br1 O3 1.699951 1_555
Br1 O1 1.716085 1_555
Br2 O10 1.682615 1_555
Br2 O8 1.700242 1_555
Br2 O6 1.702437 1_555
Br3 O11 1.682615 1_555
Br3 O9 1.700242 1_556
Br3 O7 1.702437 1_556
Br4 O16 1.667801 1_455
Br4 O12 1.698132 1_455
Br4 O14 1.717307 1_555
Br5 O17 1.667801 1_545
Br5 O13 1.698132 1_545
Br5 O15 1.717307 1_555
N0 O27 1.259420 1_555
N0 O31 1.262418 1_555
N0 O29 1.271371 1_555
N1 O26 1.259420 1_555
N1 O30 1.262418 1_555
N1 O28 1.271371 1_555
O0 Pb2 2.596078 1_555
O1 Pb3 2.596078 1_555
O6 Pb5 2.662773 1_555
O7 Pb4 2.662773 1_555
O12 Pb7 2.674692 1_554
O13 Pb6 2.674692 1_555
O14 Pb0 2.643987 1_455
O15 Pb1 2.643987 1_545
O18 Pb4 2.339886 1_555
O18 Pb0 2.344425 1_565
O18 Pb2 2.388537 1_655
O19 Pb5 2.339886 1_555
O19 Pb1 2.344425 1_655
O19 Pb3 2.388537 1_565
O20 Pb0 2.346823 1_465
O20 Pb2 2.348143 1_555
O20 Pb6 2.350280 1_555
O21 Pb1 2.346823 1_645
O21 Pb3 2.348143 1_555
O21 Pb7 2.350280 1_555
O22 Pb2 2.334758 1_655
O22 Pb4 2.342134 1_555
O22 Pb6 2.396554 1_655
O23 Pb3 2.334758 1_565
O23 Pb5 2.342134 1_555
O23 Pb7 2.396554 1_565
O24 Pb6 2.302814 1_655
O24 Pb4 2.410269 1_555
O24 Pb0 2.422683 1_565
O25 Pb7 2.302814 1_565
O25 Pb5 2.410269 1_555
O25 Pb1 2.422683 1_655
