# generated using pymatgen
data_Fe
_symmetry_space_group_name_H-M   'P 1'
_cell_length_a   10.40633058
_cell_length_b   10.70864261
_cell_length_c   10.45599052
_cell_angle_alpha   87.98403791
_cell_angle_beta   91.19110178
_cell_angle_gamma   89.51251713
_symmetry_Int_Tables_number   1
_chemical_formula_structural   Fe
_chemical_formula_sum   Fe100
_cell_volume   1164.16870657
_cell_formula_units_Z   100
loop_
 _symmetry_equiv_pos_site_id
 _symmetry_equiv_pos_as_xyz
  1  'x, y, z'
loop_
 _atom_site_type_symbol
 _atom_site_label
 _atom_site_symmetry_multiplicity
 _atom_site_fract_x
 _atom_site_fract_y
 _atom_site_fract_z
 _atom_site_occupancy
  Fe  Fe0  1  0.56778100  0.46128600  0.60395000  1
  Fe  Fe1  1  0.82153600  0.24746700  0.37245200  1
  Fe  Fe2  1  0.85259800  0.82222700  0.73812000  1
  Fe  Fe3  1  0.16926800  0.65513600  0.96052100  1
  Fe  Fe4  1  0.78493000  0.19260400  0.58304200  1
  Fe  Fe5  1  0.70178000  0.76745200  0.12192100  1
  Fe  Fe6  1  0.38933600  0.44786300  0.73752800  1
  Fe  Fe7  1  0.00584300  0.48084000  0.77683800  1
  Fe  Fe8  1  0.97047400  0.35032200  0.54487800  1
  Fe  Fe9  1  0.03503700  0.28587100  0.96187200  1
  Fe  Fe10  1  0.21326300  0.42229900  0.89679200  1
  Fe  Fe11  1  0.14644100  0.10020300  0.08512000  1
  Fe  Fe12  1  0.90545900  0.24866100  0.76706400  1
  Fe  Fe13  1  0.03331000  0.07199700  0.87341000  1
  Fe  Fe14  1  0.12789200  0.61885000  0.23925800  1
  Fe  Fe15  1  0.41099300  0.54259900  0.94684000  1
  Fe  Fe16  1  0.41649300  0.17178100  0.48371300  1
  Fe  Fe17  1  0.08844800  0.83229400  0.82797700  1
  Fe  Fe18  1  0.80561500  0.17394600  0.95957600  1
  Fe  Fe19  1  0.56758000  0.99030000  0.21791700  1
  Fe  Fe20  1  0.59635300  0.66005500  0.50577700  1
  Fe  Fe21  1  0.38912700  0.97665300  0.61712100  1
  Fe  Fe22  1  0.27685800  0.50019000  0.12058300  1
  Fe  Fe23  1  0.50098200  0.21005100  0.27742100  1
  Fe  Fe24  1  0.18619100  0.00516100  0.47548300  1
  Fe  Fe25  1  0.64508600  0.03383400  0.87341800  1
  Fe  Fe26  1  0.38754900  0.78546600  0.48382000  1
  Fe  Fe27  1  0.60350700  0.28686000  0.47777400  1
  Fe  Fe28  1  0.82295900  0.04289100  0.76104900  1
  Fe  Fe29  1  0.90751200  0.90224000  0.20019800  1
  Fe  Fe30  1  0.93478000  0.11436700  0.14877800  1
  Fe  Fe31  1  0.33293000  0.35760800  0.29661100  1
  Fe  Fe32  1  0.04286800  0.20933500  0.35202300  1
  Fe  Fe33  1  0.44655300  0.31406100  0.90841700  1
  Fe  Fe34  1  0.24749000  0.81511000  0.31096200  1
  Fe  Fe35  1  0.73744300  0.86760500  0.33352100  1
  Fe  Fe36  1  0.37238000  0.38702400  0.50627000  1
  Fe  Fe37  1  0.87458500  0.32312100  0.12556900  1
  Fe  Fe38  1  0.68777900  0.38985300  0.24925700  1
  Fe  Fe39  1  0.96594300  0.57416100  0.46906100  1
  Fe  Fe40  1  0.02564100  0.81273500  0.39788800  1
  Fe  Fe41  1  0.24549400  0.95015700  0.95767400  1
  Fe  Fe42  1  0.42054600  0.98825800  0.38512200  1
  Fe  Fe43  1  0.57248300  0.87262900  0.72820600  1
  Fe  Fe44  1  0.00620300  0.12457700  0.59551200  1
  Fe  Fe45  1  0.53921600  0.59643000  0.14752800  1
  Fe  Fe46  1  0.91126200  0.66794700  0.92172300  1
  Fe  Fe47  1  0.91387300  0.90435800  0.96648800  1
  Fe  Fe48  1  0.35003600  0.60314400  0.32263300  1
  Fe  Fe49  1  0.60179200  0.45594600  0.82037100  1
  Fe  Fe50  1  0.32244600  0.24504000  0.10124100  1
  Fe  Fe51  1  0.26086500  0.14740600  0.30357300  1
  Fe  Fe52  1  0.64341700  0.24323100  0.78567900  1
  Fe  Fe53  1  0.83379900  0.42603600  0.90493000  1
  Fe  Fe54  1  0.65868300  0.34763500  0.02026300  1
  Fe  Fe55  1  0.24486100  0.63019300  0.74979600  1
  Fe  Fe56  1  0.92932500  0.44952300  0.29331800  1
  Fe  Fe57  1  0.14879400  0.43628800  0.38634400  1
  Fe  Fe58  1  0.10057000  0.98860200  0.27044500  1
  Fe  Fe59  1  0.77286200  0.39388600  0.68142800  1
  Fe  Fe60  1  0.67665600  0.60417300  0.93863200  1
  Fe  Fe61  1  0.50808400  0.78465800  0.28020900  1
  Fe  Fe62  1  0.71212700  0.81914900  0.90055600  1
  Fe  Fe63  1  0.71232100  0.17201500  0.18951500  1
  Fe  Fe64  1  0.33347600  0.73546000  0.10644500  1
  Fe  Fe65  1  0.02223000  0.50625900  0.05357200  1
  Fe  Fe66  1  0.72035900  0.62120000  0.31207000  1
  Fe  Fe67  1  0.37592300  0.59034600  0.56514800  1
  Fe  Fe68  1  0.52691700  0.47891300  0.36483800  1
  Fe  Fe69  1  0.58667900  0.88181500  0.50307500  1
  Fe  Fe70  1  0.65754500  0.08089700  0.40402300  1
  Fe  Fe71  1  0.01708400  0.68202000  0.66110600  1
  Fe  Fe72  1  0.81111700  0.73999000  0.51596200  1
  Fe  Fe73  1  0.34759100  0.82282500  0.81525800  1
  Fe  Fe74  1  0.58162900  0.08917000  0.63288700  1
  Fe  Fe75  1  0.21343100  0.81814200  0.61967000  1
  Fe  Fe76  1  0.73213400  0.98437100  0.07659600  1
  Fe  Fe77  1  0.50743000  0.72922000  0.95926900  1
  Fe  Fe78  1  0.76220900  0.61418800  0.70725000  1
  Fe  Fe79  1  0.12402500  0.26848400  0.73530000  1
  Fe  Fe80  1  0.33028500  0.97178400  0.17271700  1
  Fe  Fe81  1  0.19971800  0.23548400  0.52004600  1
  Fe  Fe82  1  0.90285900  0.02845200  0.39253400  1
  Fe  Fe83  1  0.48033000  0.39461500  0.13076300  1
  Fe  Fe84  1  0.19972400  0.03224100  0.72347700  1
  Fe  Fe85  1  0.48959900  0.92063600  0.01150500  1
  Fe  Fe86  1  0.77944800  0.96455500  0.56616500  1
  Fe  Fe87  1  0.91646100  0.68759800  0.21464400  1
  Fe  Fe88  1  0.53123400  0.14772300  0.03882400  1
  Fe  Fe89  1  0.17856300  0.65072700  0.47606200  1
  Fe  Fe90  1  0.10159400  0.82516900  0.10686600  1
  Fe  Fe91  1  0.36410900  0.23263700  0.69436800  1
  Fe  Fe92  1  0.75971200  0.46776800  0.46950900  1
  Fe  Fe93  1  0.25375300  0.18020500  0.90111300  1
  Fe  Fe94  1  0.43180600  0.05937800  0.83278400  1
  Fe  Fe95  1  0.17231100  0.46056800  0.61705900  1
  Fe  Fe96  1  0.12077300  0.33060600  0.17599400  1
  Fe  Fe97  1  0.78800200  0.53513100  0.10774200  1
  Fe  Fe98  1  0.50636800  0.65732400  0.74002400  1
  Fe  Fe99  1  0.00416400  0.90998100  0.60283400  1
loop_
_geom_bond_atom_site_label_1
_geom_bond_atom_site_label_2
_geom_bond_distance
_geom_bond_site_symmetry_2
Fe0 Fe49 2.281773 1_555
Fe0 Fe6 2.349030 1_555
Fe0 Fe20 2.354260 1_555
Fe0 Fe27 2.355765 1_555
Fe0 Fe59 2.364857 1_555
Fe0 Fe36 2.410107 1_555
Fe0 Fe67 2.437369 1_555
Fe0 Fe92 2.466225 1_555
Fe0 Fe68 2.527540 1_555
Fe0 Fe98 2.657995 1_555
Fe0 Fe78 2.833942 1_555
Fe0 Fe52 3.045826 1_555
Fe1 Fe4 2.299222 1_555
Fe1 Fe32 2.351156 1_655
Fe1 Fe63 2.374295 1_555
Fe1 Fe38 2.381756 1_555
Fe1 Fe82 2.486995 1_555
Fe1 Fe70 2.497354 1_555
Fe1 Fe56 2.564865 1_555
Fe1 Fe27 2.580464 1_555
Fe1 Fe8 2.630272 1_555
Fe1 Fe92 2.679368 1_555
Fe1 Fe37 2.746721 1_555
Fe1 Fe30 3.034880 1_555
Fe2 Fe62 2.263332 1_555
Fe2 Fe99 2.322971 1_655
Fe2 Fe28 2.401451 1_565
Fe2 Fe86 2.421917 1_555
Fe2 Fe71 2.435418 1_655
Fe2 Fe78 2.454737 1_555
Fe2 Fe72 2.542903 1_555
Fe2 Fe46 2.549240 1_555
Fe2 Fe47 2.641172 1_555
Fe2 Fe43 2.959026 1_555
Fe3 Fe55 2.377971 1_555
Fe3 Fe65 2.413269 1_556
Fe3 Fe64 2.448845 1_556
Fe3 Fe90 2.524244 1_556
Fe3 Fe46 2.708614 1_455
Fe3 Fe73 2.992849 1_555
Fe4 Fe44 2.408759 1_655
Fe4 Fe59 2.424213 1_555
Fe4 Fe74 2.453452 1_555
Fe4 Fe86 2.455707 1_545
Fe4 Fe70 2.602553 1_555
Fe4 Fe8 2.603842 1_555
Fe4 Fe52 2.673706 1_555
Fe5 Fe62 2.365719 1_554
Fe5 Fe76 2.379398 1_555
Fe5 Fe66 2.490573 1_555
Fe5 Fe87 2.545830 1_555
Fe5 Fe61 2.643842 1_555
Fe5 Fe97 2.647622 1_555
Fe5 Fe60 2.649745 1_554
Fe5 Fe77 2.659027 1_554
Fe5 Fe85 2.932286 1_555
Fe6 Fe67 2.321344 1_555
Fe6 Fe91 2.379731 1_555
Fe6 Fe98 2.562112 1_555
Fe6 Fe95 2.563226 1_555
Fe7 Fe71 2.438453 1_555
Fe7 Fe95 2.445110 1_555
Fe7 Fe79 2.629929 1_555
Fe7 Fe9 2.806264 1_555
Fe7 Fe8 2.860335 1_455
Fe8 Fe95 2.532583 1_655
Fe8 Fe92 2.612407 1_555
Fe8 Fe81 2.696118 1_655
Fe9 Fe96 2.457168 1_556
Fe9 Fe93 2.632711 1_555
Fe10 Fe9 2.462907 1_555
Fe10 Fe15 2.493010 1_555
Fe10 Fe6 2.511689 1_555
Fe10 Fe7 2.536583 1_555
Fe10 Fe79 2.565779 1_555
Fe10 Fe22 2.586780 1_556
Fe10 Fe93 2.621642 1_555
Fe10 Fe3 2.642095 1_555
Fe10 Fe33 2.679902 1_555
Fe10 Fe55 2.686900 1_555
Fe10 Fe65 2.767015 1_556
Fe10 Fe50 3.006789 1_556
Fe11 Fe58 2.301358 1_545
Fe11 Fe30 2.319465 1_455
Fe11 Fe41 2.366346 1_544
Fe11 Fe93 2.381669 1_554
Fe11 Fe50 2.417141 1_555
Fe11 Fe80 2.486751 1_545
Fe11 Fe13 2.514390 1_554
Fe11 Fe9 2.583841 1_554
Fe11 Fe51 2.620890 1_555
Fe11 Fe96 2.688131 1_555
Fe12 Fe59 2.222255 1_555
Fe12 Fe79 2.315868 1_655
Fe12 Fe4 2.372669 1_555
Fe12 Fe28 2.374068 1_555
Fe12 Fe18 2.399846 1_555
Fe12 Fe9 2.465382 1_655
Fe12 Fe44 2.510860 1_655
Fe12 Fe13 2.516595 1_655
Fe12 Fe53 2.540711 1_555
Fe12 Fe8 2.634385 1_555
Fe12 Fe7 2.709451 1_655
Fe12 Fe52 2.738831 1_555
Fe13 Fe47 2.383274 1_445
Fe13 Fe84 2.405243 1_555
Fe13 Fe28 2.489881 1_455
Fe13 Fe9 2.500080 1_555
Fe13 Fe93 2.594282 1_555
Fe13 Fe41 2.672706 1_545
Fe13 Fe17 2.686243 1_545
Fe13 Fe79 2.698238 1_555
Fe13 Fe18 2.780633 1_455
Fe13 Fe30 3.123134 1_456
Fe14 Fe87 2.320509 1_455
Fe14 Fe22 2.390579 1_555
Fe14 Fe57 2.449868 1_555
Fe14 Fe48 2.455917 1_555
Fe14 Fe65 2.555537 1_555
Fe14 Fe89 2.556071 1_555
Fe14 Fe90 2.575144 1_555
Fe14 Fe34 2.577732 1_555
Fe14 Fe56 2.813797 1_455
Fe14 Fe64 2.848104 1_555
Fe14 Fe40 2.910695 1_555
Fe15 Fe77 2.250516 1_555
Fe15 Fe22 2.347989 1_556
Fe15 Fe6 2.451407 1_555
Fe15 Fe33 2.519468 1_555
Fe15 Fe83 2.537453 1_556
Fe15 Fe45 2.549074 1_556
Fe15 Fe49 2.591547 1_555
Fe15 Fe98 2.663404 1_555
Fe15 Fe3 2.788525 1_555
Fe15 Fe55 2.793180 1_555
Fe15 Fe64 2.823329 1_556
Fe15 Fe60 2.849899 1_555
Fe16 Fe42 2.251607 1_545
Fe16 Fe27 2.313091 1_555
Fe16 Fe36 2.367265 1_555
Fe16 Fe23 2.369886 1_555
Fe16 Fe91 2.391274 1_555
Fe16 Fe81 2.392935 1_555
Fe16 Fe74 2.436018 1_555
Fe16 Fe51 2.480658 1_555
Fe16 Fe21 2.492929 1_545
Fe16 Fe70 2.834838 1_555
Fe17 Fe3 2.442640 1_555
Fe17 Fe47 2.481436 1_455
Fe17 Fe41 2.483203 1_555
Fe17 Fe71 2.519817 1_555
Fe17 Fe75 2.568294 1_555
Fe17 Fe99 2.601363 1_555
Fe17 Fe2 2.614168 1_455
Fe17 Fe84 2.655100 1_565
Fe17 Fe73 2.703981 1_555
Fe17 Fe46 2.732575 1_455
Fe17 Fe55 2.849794 1_555
Fe17 Fe90 2.914709 1_556
Fe18 Fe30 2.431760 1_556
Fe18 Fe25 2.434872 1_555
Fe18 Fe76 2.468529 1_546
Fe18 Fe37 2.498436 1_556
Fe18 Fe54 2.505002 1_556
Fe18 Fe52 2.541991 1_555
Fe18 Fe28 2.554863 1_555
Fe18 Fe63 2.610982 1_556
Fe18 Fe9 2.680549 1_655
Fe18 Fe53 2.758974 1_555
Fe19 Fe76 2.286866 1_555
Fe19 Fe42 2.346755 1_555
Fe19 Fe61 2.365598 1_555
Fe19 Fe70 2.382618 1_565
Fe19 Fe85 2.433891 1_555
Fe19 Fe35 2.464125 1_555
Fe19 Fe63 2.484214 1_565
Fe19 Fe88 2.495826 1_565
Fe19 Fe80 2.515327 1_555
Fe19 Fe23 2.549177 1_565
Fe19 Fe5 2.970315 1_555
Fe20 Fe69 2.375175 1_555
Fe20 Fe72 2.401654 1_555
Fe20 Fe66 2.469704 1_555
Fe20 Fe67 2.502035 1_555
Fe20 Fe26 2.546692 1_555
Fe20 Fe68 2.576285 1_555
Fe20 Fe98 2.639602 1_555
Fe20 Fe92 2.701092 1_555
Fe20 Fe78 2.723884 1_555
Fe20 Fe61 2.802595 1_555
Fe21 Fe74 2.352287 1_565
Fe21 Fe84 2.365070 1_565
Fe21 Fe43 2.451807 1_555
Fe21 Fe42 2.453407 1_555
Fe21 Fe94 2.484455 1_565
Fe21 Fe75 2.505299 1_555
Fe21 Fe26 2.516937 1_555
Fe21 Fe24 2.563871 1_565
Fe21 Fe69 2.613668 1_555
Fe21 Fe73 2.646063 1_555
Fe21 Fe91 2.896019 1_565
Fe22 Fe83 2.390461 1_555
Fe22 Fe31 2.408706 1_555
Fe22 Fe96 2.507416 1_555
Fe22 Fe48 2.523865 1_555
Fe22 Fe3 2.550051 1_554
Fe22 Fe64 2.592134 1_555
Fe22 Fe65 2.726348 1_555
Fe22 Fe50 2.784293 1_555
Fe23 Fe31 2.363319 1_555
Fe23 Fe63 2.437751 1_555
Fe23 Fe70 2.462276 1_555
Fe23 Fe83 2.463693 1_555
Fe23 Fe27 2.499327 1_555
Fe23 Fe50 2.604414 1_555
Fe23 Fe51 2.610079 1_555
Fe23 Fe88 2.629580 1_555
Fe23 Fe42 2.737652 1_545
Fe23 Fe38 2.760480 1_555
Fe24 Fe58 2.317660 1_545
Fe24 Fe51 2.457782 1_555
Fe24 Fe75 2.474732 1_545
Fe24 Fe81 2.530676 1_555
Fe24 Fe99 2.538173 1_545
Fe24 Fe84 2.620327 1_555
Fe24 Fe44 2.624583 1_555
Fe24 Fe42 2.640716 1_545
Fe24 Fe34 2.788896 1_545
Fe24 Fe40 2.795645 1_545
Fe24 Fe32 2.887427 1_555
Fe25 Fe28 2.213942 1_555
Fe25 Fe94 2.263546 1_555
Fe25 Fe76 2.333876 1_546
Fe25 Fe52 2.392495 1_555
Fe25 Fe62 2.402321 1_545
Fe25 Fe43 2.452579 1_545
Fe25 Fe88 2.468043 1_556
Fe25 Fe85 2.485866 1_546
Fe25 Fe74 2.632837 1_555
Fe26 Fe67 2.233207 1_555
Fe26 Fe34 2.309550 1_555
Fe26 Fe69 2.330835 1_555
Fe26 Fe75 2.356773 1_555
Fe26 Fe42 2.401794 1_555
Fe26 Fe61 2.493590 1_555
Fe26 Fe89 2.621528 1_555
Fe26 Fe48 2.649894 1_555
Fe27 Fe4 2.365937 1_555
Fe27 Fe70 2.427358 1_555
Fe27 Fe68 2.453874 1_555
Fe27 Fe92 2.539780 1_555
Fe27 Fe74 2.635509 1_555
Fe27 Fe36 2.651901 1_555
Fe27 Fe38 2.759121 1_555
Fe28 Fe86 2.269215 1_545
Fe28 Fe4 2.437168 1_555
Fe28 Fe47 2.716150 1_545
Fe28 Fe44 2.730636 1_655
Fe28 Fe74 2.853153 1_555
Fe28 Fe99 2.927097 1_645
Fe29 Fe87 2.299141 1_555
Fe29 Fe35 2.300087 1_555
Fe29 Fe58 2.334315 1_655
Fe29 Fe30 2.336900 1_565
Fe29 Fe76 2.359920 1_555
Fe29 Fe90 2.413060 1_655
Fe29 Fe47 2.445254 1_554
Fe29 Fe82 2.463250 1_565
Fe29 Fe40 2.537208 1_655
Fe29 Fe5 2.720229 1_555
Fe30 Fe37 2.319547 1_555
Fe30 Fe63 2.440665 1_555
Fe30 Fe58 2.481406 1_645
Fe30 Fe32 2.624448 1_655
Fe30 Fe76 2.648067 1_545
Fe30 Fe82 2.707056 1_555
Fe30 Fe9 2.854048 1_654
Fe30 Fe47 3.005083 1_544
Fe30 Fe96 3.047788 1_655
Fe31 Fe36 2.255403 1_555
Fe31 Fe57 2.316214 1_555
Fe31 Fe83 2.364229 1_555
Fe31 Fe51 2.377828 1_555
Fe31 Fe50 2.409194 1_555
Fe31 Fe68 2.514242 1_555
Fe31 Fe96 2.543461 1_555
Fe31 Fe48 2.659985 1_555
Fe32 Fe96 2.375534 1_555
Fe32 Fe81 2.398391 1_555
Fe32 Fe51 2.426637 1_555
Fe32 Fe82 2.463774 1_455
Fe32 Fe58 2.610449 1_545
Fe32 Fe8 2.677911 1_455
Fe32 Fe44 2.708283 1_555
Fe32 Fe57 2.709427 1_555
Fe32 Fe56 2.862789 1_455
Fe33 Fe6 2.315465 1_555
Fe33 Fe88 2.358197 1_556
Fe33 Fe49 2.402292 1_555
Fe33 Fe93 2.477132 1_555
Fe33 Fe50 2.509750 1_556
Fe33 Fe54 2.511114 1_556
Fe33 Fe83 2.526830 1_556
Fe33 Fe52 2.563305 1_555
Fe33 Fe91 2.564294 1_555
Fe33 Fe94 2.870711 1_555
Fe34 Fe80 2.356358 1_555
Fe34 Fe58 2.416201 1_555
Fe34 Fe48 2.497966 1_555
Fe34 Fe40 2.498628 1_555
Fe34 Fe64 2.509171 1_555
Fe34 Fe89 2.540164 1_555
Fe34 Fe90 2.591732 1_555
Fe34 Fe42 2.717045 1_555
Fe34 Fe61 2.755418 1_555
Fe35 Fe69 2.399619 1_555
Fe35 Fe72 2.415004 1_555
Fe35 Fe5 2.514494 1_555
Fe35 Fe82 2.528197 1_565
Fe35 Fe70 2.561896 1_565
Fe35 Fe61 2.609992 1_555
Fe35 Fe66 2.663160 1_555
Fe35 Fe86 2.706899 1_555
Fe35 Fe76 2.922270 1_555
Fe35 Fe87 2.989140 1_555
Fe35 Fe40 3.106604 1_655
Fe36 Fe67 2.283798 1_555
Fe36 Fe68 2.400991 1_555
Fe36 Fe81 2.434446 1_555
Fe36 Fe91 2.527751 1_555
Fe36 Fe6 2.529332 1_555
Fe36 Fe95 2.536408 1_555
Fe36 Fe57 2.659989 1_555
Fe37 Fe56 2.317710 1_555
Fe37 Fe97 2.435045 1_555
Fe37 Fe63 2.435984 1_555
Fe37 Fe9 2.456057 1_654
Fe37 Fe38 2.471466 1_555
Fe37 Fe54 2.489165 1_555
Fe37 Fe53 2.547434 1_554
Fe37 Fe65 2.601730 1_655
Fe37 Fe96 2.607321 1_655
Fe38 Fe68 2.304413 1_555
Fe38 Fe97 2.372195 1_555
Fe38 Fe63 2.448706 1_555
Fe38 Fe54 2.465233 1_555
Fe38 Fe83 2.465863 1_555
Fe38 Fe92 2.575702 1_555
Fe38 Fe66 2.608329 1_555
Fe38 Fe56 2.634135 1_555
Fe38 Fe45 2.850097 1_555
Fe39 Fe56 2.335678 1_555
Fe39 Fe89 2.366760 1_655
Fe39 Fe71 2.403885 1_655
Fe39 Fe92 2.438342 1_555
Fe39 Fe72 2.456679 1_555
Fe39 Fe8 2.497831 1_555
Fe39 Fe57 2.580507 1_655
Fe39 Fe40 2.716474 1_655
Fe39 Fe87 2.919316 1_555
Fe39 Fe66 3.037268 1_555
Fe40 Fe58 2.412900 1_555
Fe40 Fe99 2.428876 1_555
Fe40 Fe89 2.451436 1_555
Fe40 Fe87 2.621771 1_455
Fe40 Fe82 2.628621 1_465
Fe40 Fe72 2.681638 1_455
Fe40 Fe75 3.003793 1_555
Fe40 Fe71 3.046836 1_555
Fe40 Fe90 3.158339 1_555
Fe41 Fe73 2.321527 1_555
Fe41 Fe80 2.417753 1_556
Fe41 Fe93 2.515789 1_565
Fe41 Fe90 2.540008 1_556
Fe41 Fe85 2.604597 1_556
Fe41 Fe84 2.605551 1_565
Fe41 Fe94 2.620812 1_565
Fe41 Fe64 2.863088 1_556
Fe42 Fe69 2.363923 1_555
Fe42 Fe80 2.406129 1_555
Fe42 Fe51 2.486653 1_565
Fe42 Fe61 2.638713 1_555
Fe42 Fe70 2.672255 1_565
Fe43 Fe62 2.343417 1_555
Fe43 Fe69 2.360313 1_555
Fe43 Fe98 2.411435 1_555
Fe43 Fe74 2.494913 1_565
Fe43 Fe73 2.581780 1_555
Fe43 Fe94 2.740194 1_565
Fe44 Fe99 2.296907 1_545
Fe44 Fe81 2.475746 1_555
Fe44 Fe79 2.476004 1_555
Fe44 Fe8 2.479706 1_455
Fe44 Fe84 2.566035 1_555
Fe44 Fe82 2.607319 1_455
Fe45 Fe83 2.263093 1_555
Fe45 Fe77 2.402962 1_554
Fe45 Fe61 2.509345 1_555
Fe45 Fe5 2.514885 1_555
Fe45 Fe66 2.547439 1_555
Fe45 Fe68 2.564484 1_555
Fe45 Fe64 2.616777 1_555
Fe45 Fe60 2.634848 1_554
Fe45 Fe97 2.709555 1_555
Fe45 Fe48 2.718403 1_555
Fe46 Fe65 2.442103 1_656
Fe46 Fe60 2.548696 1_555
Fe46 Fe47 2.590953 1_555
Fe46 Fe62 2.619846 1_555
Fe46 Fe97 2.718707 1_556
Fe46 Fe53 2.730051 1_555
Fe46 Fe7 2.742326 1_655
Fe46 Fe78 2.779865 1_555
Fe46 Fe71 2.959688 1_655
Fe46 Fe87 3.076764 1_556
Fe46 Fe5 3.252145 1_556
Fe47 Fe62 2.394195 1_555
Fe47 Fe76 2.401822 1_556
Fe47 Fe90 2.540604 1_656
Fe47 Fe5 3.114252 1_556
Fe48 Fe68 2.288215 1_555
Fe48 Fe89 2.485642 1_555
Fe48 Fe67 2.543192 1_555
Fe48 Fe61 2.589229 1_555
Fe48 Fe64 2.627044 1_555
Fe48 Fe57 2.839013 1_555
Fe49 Fe60 2.185084 1_555
Fe49 Fe52 2.357088 1_555
Fe49 Fe6 2.361089 1_555
Fe49 Fe54 2.414639 1_556
Fe49 Fe59 2.424195 1_555
Fe49 Fe98 2.478649 1_555
Fe49 Fe53 2.567396 1_555
Fe49 Fe78 2.654518 1_555
Fe50 Fe83 2.327827 1_555
Fe50 Fe93 2.328138 1_554
Fe50 Fe51 2.427267 1_555
Fe50 Fe96 2.437381 1_555
Fe50 Fe88 2.510168 1_555
Fe50 Fe80 2.994559 1_545
Fe51 Fe58 2.420771 1_545
Fe51 Fe80 2.475857 1_545
Fe51 Fe81 2.572458 1_555
Fe51 Fe96 2.727615 1_555
Fe52 Fe59 2.362162 1_555
Fe52 Fe74 2.418326 1_555
Fe52 Fe54 2.733358 1_556
Fe52 Fe94 3.003112 1_555
Fe52 Fe91 3.044738 1_555
Fe53 Fe7 2.325045 1_655
Fe53 Fe54 2.350769 1_556
Fe53 Fe59 2.445532 1_555
Fe53 Fe97 2.509132 1_556
Fe53 Fe60 2.540758 1_555
Fe53 Fe9 2.612409 1_655
Fe53 Fe65 2.644709 1_656
Fe53 Fe78 2.916217 1_555
Fe54 Fe83 2.268682 1_555
Fe54 Fe88 2.531684 1_555
Fe54 Fe63 2.585953 1_555
Fe54 Fe97 2.608262 1_555
Fe54 Fe60 2.856724 1_554
Fe55 Fe75 2.405557 1_555
Fe55 Fe67 2.434601 1_555
Fe55 Fe95 2.439856 1_555
Fe55 Fe73 2.443982 1_555
Fe55 Fe6 2.462682 1_555
Fe55 Fe71 2.576128 1_555
Fe55 Fe98 2.742882 1_555
Fe55 Fe89 2.930417 1_555
Fe55 Fe7 2.981560 1_555
Fe56 Fe57 2.464686 1_655
Fe56 Fe97 2.549822 1_555
Fe56 Fe92 2.588842 1_555
Fe56 Fe87 2.652626 1_555
Fe56 Fe96 2.695186 1_655
Fe56 Fe65 2.755248 1_655
Fe56 Fe8 2.824754 1_555
Fe56 Fe66 2.849925 1_555
Fe57 Fe95 2.442870 1_555
Fe57 Fe96 2.521371 1_555
Fe57 Fe89 2.529978 1_555
Fe57 Fe81 2.568552 1_555
Fe57 Fe8 2.662378 1_455
Fe58 Fe82 2.485434 1_465
Fe58 Fe90 2.489893 1_555
Fe58 Fe80 2.626446 1_555
Fe59 Fe92 2.327395 1_555
Fe59 Fe78 2.385857 1_555
Fe59 Fe8 2.576353 1_555
Fe59 Fe7 2.782729 1_655
Fe60 Fe97 2.196376 1_556
Fe60 Fe77 2.221914 1_555
Fe60 Fe62 2.355952 1_555
Fe60 Fe78 2.594261 1_555
Fe60 Fe98 2.742870 1_555
Fe61 Fe64 2.612772 1_555
Fe61 Fe69 2.699529 1_555
Fe61 Fe66 2.813753 1_555
Fe61 Fe80 2.897253 1_555
Fe61 Fe85 3.120247 1_555
Fe62 Fe77 2.426824 1_555
Fe62 Fe76 2.604097 1_556
Fe63 Fe76 2.375761 1_545
Fe63 Fe88 2.452581 1_555
Fe63 Fe70 2.493235 1_555
Fe64 Fe77 2.402183 1_554
Fe64 Fe90 2.589778 1_555
Fe64 Fe80 2.647388 1_555
Fe64 Fe85 2.746012 1_555
Fe65 Fe96 2.443663 1_555
Fe65 Fe97 2.532682 1_455
Fe65 Fe9 2.581883 1_554
Fe65 Fe87 2.844229 1_455
Fe65 Fe7 2.917425 1_554
Fe66 Fe92 2.312456 1_555
Fe66 Fe87 2.401647 1_555
Fe66 Fe97 2.469705 1_555
Fe66 Fe68 2.591825 1_555
Fe66 Fe72 2.680054 1_555
Fe67 Fe89 2.315018 1_555
Fe67 Fe98 2.388762 1_555
Fe67 Fe95 2.600076 1_555
Fe68 Fe92 2.637501 1_555
Fe68 Fe83 2.674636 1_555
Fe69 Fe86 2.293616 1_555
Fe69 Fe70 2.462648 1_565
Fe69 Fe74 2.643608 1_565
Fe69 Fe72 2.773417 1_555
Fe70 Fe86 2.402239 1_545
Fe70 Fe74 2.539828 1_555
Fe70 Fe82 2.615306 1_555
Fe71 Fe99 2.496979 1_555
Fe71 Fe75 2.555479 1_555
Fe71 Fe89 2.617399 1_555
Fe71 Fe72 2.656763 1_455
Fe71 Fe78 2.802949 1_455
Fe71 Fe95 2.913384 1_555
Fe72 Fe78 2.436952 1_555
Fe72 Fe86 2.499933 1_555
Fe72 Fe99 2.877021 1_655
Fe73 Fe77 2.408347 1_555
Fe73 Fe75 2.454312 1_555
Fe73 Fe98 2.567523 1_555
Fe73 Fe94 2.698568 1_565
Fe73 Fe85 2.746442 1_556
Fe73 Fe84 2.836594 1_565
Fe74 Fe86 2.565864 1_545
Fe74 Fe94 2.645417 1_555
Fe74 Fe91 2.822801 1_555
Fe75 Fe99 2.382441 1_555
Fe75 Fe89 2.403800 1_555
Fe75 Fe84 2.575058 1_565
Fe76 Fe85 2.699940 1_555
Fe76 Fe88 2.727917 1_565
Fe77 Fe85 2.147313 1_556
Fe77 Fe98 2.443635 1_555
Fe78 Fe98 2.728946 1_555
Fe79 Fe93 2.342580 1_555
Fe79 Fe95 2.424163 1_555
Fe79 Fe81 2.436366 1_555
Fe79 Fe91 2.571418 1_555
Fe79 Fe9 2.573683 1_555
Fe79 Fe8 2.647026 1_455
Fe79 Fe84 2.651051 1_555
Fe80 Fe85 2.460811 1_555
Fe81 Fe91 2.472910 1_555
Fe81 Fe95 2.663154 1_555
Fe81 Fe84 2.989261 1_555
Fe82 Fe86 2.331948 1_545
Fe82 Fe99 2.690838 1_645
Fe83 Fe88 2.893264 1_555
Fe84 Fe93 2.540733 1_555
Fe84 Fe94 2.672839 1_555
Fe84 Fe99 2.738910 1_545
Fe84 Fe91 2.768083 1_555
Fe85 Fe94 2.409131 1_564
Fe85 Fe88 2.498918 1_565
Fe86 Fe99 2.425012 1_655
Fe87 Fe97 2.409476 1_555
Fe87 Fe90 2.678366 1_655
Fe88 Fe94 2.583447 1_554
Fe89 Fe95 2.473744 1_555
Fe91 Fe94 2.404109 1_555
Fe91 Fe93 2.517125 1_555
Fe93 Fe94 2.386846 1_555
