# generated using pymatgen
data_KMg14B
_symmetry_space_group_name_H-M   'P 1'
_cell_length_a   6.36827933
_cell_length_b   6.36827881
_cell_length_c   10.58010313
_cell_angle_alpha   90.00000000
_cell_angle_beta   90.00000000
_cell_angle_gamma   120.00000265
_symmetry_Int_Tables_number   1
_chemical_formula_structural   KMg14B
_chemical_formula_sum   'K1 Mg14 B1'
_cell_volume   371.59057888
_cell_formula_units_Z   1
loop_
 _symmetry_equiv_pos_site_id
 _symmetry_equiv_pos_as_xyz
  1  'x, y, z'
loop_
 _atom_site_type_symbol
 _atom_site_label
 _atom_site_symmetry_multiplicity
 _atom_site_fract_x
 _atom_site_fract_y
 _atom_site_fract_z
 _atom_site_occupancy
  K  K0  1  0.16666700  0.33333300  0.12500000  1
  Mg  Mg0  1  0.17519784  0.83759842  0.12500000  1
  Mg  Mg1  1  0.15779251  0.82889575  0.62500000  1
  Mg  Mg2  1  0.66240158  0.32480216  0.12500000  1
  Mg  Mg3  1  0.67110425  0.34220749  0.62500000  1
  Mg  Mg4  1  0.66240158  0.83759842  0.12500000  1
  Mg  Mg5  1  0.67110425  0.82889575  0.62500000  1
  Mg  Mg6  1  0.33004277  0.16995723  0.40326422  1
  Mg  Mg7  1  0.33004277  0.16995723  0.84673578  1
  Mg  Mg8  1  0.33004277  0.66008653  0.40326422  1
  Mg  Mg9  1  0.33004277  0.66008653  0.84673578  1
  Mg  Mg10  1  0.83991347  0.16995723  0.40326422  1
  Mg  Mg11  1  0.83991347  0.16995723  0.84673578  1
  Mg  Mg12  1  0.83333300  0.66666700  0.36585944  1
  Mg  Mg13  1  0.83333300  0.66666700  0.88414056  1
  B  B0  1  0.16666700  0.33333300  0.62500000  1
loop_
_geom_bond_atom_site_label_1
_geom_bond_atom_site_label_2
_geom_bond_distance
_geom_bond_site_symmetry_2
K0 Mg0 3.184487 1_555
K0 Mg4 3.184487 1_555
K0 Mg0 3.184487 1_545
K0 Mg4 3.184487 1_445
K0 Mg2 3.184487 1_555
K0 Mg2 3.184487 1_455
K0 Mg7 3.451804 1_554
K0 Mg6 3.451804 1_555
K0 Mg9 3.451810 1_554
K0 Mg8 3.451810 1_555
K0 Mg11 3.451810 1_454
K0 Mg10 3.451810 1_455
Mg0 Mg12 3.169971 1_455
Mg0 Mg13 3.169971 1_454
Mg1 Mg8 3.006965 1_555
Mg1 Mg9 3.006965 1_555
Mg1 Mg6 3.006972 1_565
Mg1 Mg7 3.006972 1_565
Mg1 Mg3 3.099367 1_455
Mg1 Mg5 3.099367 1_455
Mg1 Mg3 3.268912 1_565
Mg1 Mg5 3.268913 1_555
Mg1 Mg13 3.274010 1_455
Mg1 Mg12 3.274010 1_455
Mg3 Mg6 3.006972 1_555
Mg3 Mg7 3.006972 1_555
Mg3 Mg5 3.099367 1_555
Mg3 Mg5 3.268912 1_545
Mg5 Mg8 3.006972 1_555
Mg5 Mg9 3.006972 1_555
Mg10 Mg3 3.006965 1_555
Mg10 Mg5 3.006972 1_545
Mg10 Mg12 3.208843 1_545
Mg10 Mg12 3.208843 1_555
Mg11 Mg3 3.006965 1_555
Mg11 Mg5 3.006972 1_545
Mg11 Mg13 3.208843 1_545
Mg11 Mg13 3.208843 1_555
Mg12 Mg4 3.169964 1_555
Mg12 Mg2 3.169971 1_555
Mg12 Mg6 3.208843 1_665
Mg12 Mg6 3.208843 1_555
Mg12 Mg8 3.208844 1_555
Mg12 Mg8 3.208844 1_655
Mg12 Mg5 3.274004 1_555
Mg12 Mg3 3.274010 1_555
Mg13 Mg4 3.169964 1_556
Mg13 Mg2 3.169971 1_556
Mg13 Mg7 3.208843 1_665
Mg13 Mg7 3.208843 1_555
Mg13 Mg9 3.208844 1_555
Mg13 Mg9 3.208844 1_655
Mg13 Mg5 3.274004 1_555
Mg13 Mg3 3.274010 1_555
B0 Mg6 2.958225 1_555
B0 Mg7 2.958225 1_555
B0 Mg8 2.958231 1_555
B0 Mg9 2.958231 1_555
B0 Mg10 2.958231 1_455
B0 Mg11 2.958231 1_455
