# generated using pymatgen
data_Nb3N2Cl7O5
_symmetry_space_group_name_H-M   'P 1'
_cell_length_a   10.33102219
_cell_length_b   10.33102219
_cell_length_c   11.03173390
_cell_angle_alpha   76.79000843
_cell_angle_beta   76.79000843
_cell_angle_gamma   50.22526232
_symmetry_Int_Tables_number   1
_chemical_formula_structural   Nb3N2Cl7O5
_chemical_formula_sum   'Nb6 N4 Cl14 O10'
_cell_volume   875.62929789
_cell_formula_units_Z   2
loop_
 _symmetry_equiv_pos_site_id
 _symmetry_equiv_pos_as_xyz
  1  'x, y, z'
loop_
 _atom_site_type_symbol
 _atom_site_label
 _atom_site_symmetry_multiplicity
 _atom_site_fract_x
 _atom_site_fract_y
 _atom_site_fract_z
 _atom_site_occupancy
  Nb  Nb0  1  0.81936400  0.23672000  0.95253300  1
  Nb  Nb1  1  0.18063600  0.76328000  0.04746700  1
  Nb  Nb2  1  0.76328000  0.18063600  0.54746700  1
  Nb  Nb3  1  0.23672000  0.81936400  0.45253300  1
  Nb  Nb4  1  0.45689100  0.54310900  0.75000000  1
  Nb  Nb5  1  0.54310900  0.45689100  0.25000000  1
  N  N0  1  0.16628100  0.20098500  0.61358100  1
  N  N1  1  0.83371900  0.79901500  0.38641900  1
  N  N2  1  0.79901500  0.83371900  0.88641900  1
  N  N3  1  0.20098500  0.16628100  0.11358100  1
  Cl  Cl0  1  0.55318100  0.70701600  0.69904800  1
  Cl  Cl1  1  0.44681900  0.29298400  0.30095200  1
  Cl  Cl2  1  0.29298400  0.44681900  0.80095200  1
  Cl  Cl3  1  0.70701600  0.55318100  0.19904800  1
  Cl  Cl4  1  0.91170300  0.08829700  0.75000000  1
  Cl  Cl5  1  0.08829700  0.91170300  0.25000000  1
  Cl  Cl6  1  0.62148600  0.07091600  0.60355800  1
  Cl  Cl7  1  0.37851400  0.92908400  0.39644200  1
  Cl  Cl8  1  0.92908400  0.37851400  0.89644200  1
  Cl  Cl9  1  0.07091600  0.62148600  0.10355800  1
  Cl  Cl10  1  0.67917800  0.97941500  0.97879400  1
  Cl  Cl11  1  0.32082200  0.02058500  0.02120600  1
  Cl  Cl12  1  0.02058500  0.32082200  0.52120600  1
  Cl  Cl13  1  0.97941500  0.67917800  0.47879400  1
  O  O0  1  0.29153500  0.71538800  0.60964800  1
  O  O1  1  0.70846500  0.28461200  0.39035200  1
  O  O2  1  0.28461200  0.70846500  0.89035200  1
  O  O3  1  0.71538800  0.29153500  0.10964800  1
  O  O4  1  0.61035300  0.38826300  0.87392800  1
  O  O5  1  0.38964700  0.61173700  0.12607200  1
  O  O6  1  0.61173700  0.38964700  0.62607200  1
  O  O7  1  0.38826300  0.61035300  0.37392800  1
  O  O8  1  0.00000000  0.00000000  0.50000000  1
  O  O9  1  0.00000000  0.00000000  0.00000000  1
loop_
_geom_bond_atom_site_label_1
_geom_bond_atom_site_label_2
_geom_bond_distance
_geom_bond_site_symmetry_2
Nb0 O3 1.816048 1_556
Nb0 O9 1.938883 1_656
Nb0 O4 1.943013 1_555
Nb1 O2 1.816048 1_554
Nb1 O9 1.938883 1_565
Nb1 O5 1.943013 1_555
Nb2 O1 1.816048 1_555
Nb2 O8 1.938883 1_655
Nb2 O6 1.943013 1_555
Nb3 O0 1.816048 1_555
Nb3 O8 1.938883 1_565
Nb3 O7 1.943013 1_555
Nb4 O4 1.920309 1_555
Nb4 O6 1.920309 1_555
Nb4 O2 2.131276 1_555
Nb4 O0 2.131276 1_555
Nb5 O7 1.920309 1_555
Nb5 O5 1.920309 1_555
Nb5 O3 2.131276 1_555
Nb5 O1 2.131276 1_555
Cl0 Nb4 2.374377 1_555
Cl1 Nb5 2.374377 1_555
Cl2 Nb4 2.374377 1_555
Cl3 Nb5 2.374377 1_555
Cl4 Nb0 2.640698 1_555
Cl4 Nb2 2.640698 1_555
Cl5 Nb3 2.640698 1_555
Cl5 Nb1 2.640698 1_555
Cl6 Nb2 2.281098 1_555
Cl7 Nb3 2.281098 1_555
Cl8 Nb0 2.281098 1_555
Cl9 Nb1 2.281098 1_555
Cl10 N2 1.605251 1_555
Cl11 N3 1.605251 1_555
Cl12 N0 1.605251 1_555
Cl13 N1 1.605251 1_555
