# generated using pymatgen
data_Ho4MnSi7
_symmetry_space_group_name_H-M   'P 1'
_cell_length_a   4.10978200
_cell_length_b   3.91860300
_cell_length_c   14.57232523
_cell_angle_alpha   97.72702309
_cell_angle_beta   90.00000000
_cell_angle_gamma   90.00000000
_symmetry_Int_Tables_number   1
_chemical_formula_structural   Ho4MnSi7
_chemical_formula_sum   'Ho4 Mn1 Si7'
_cell_volume   232.55059557
_cell_formula_units_Z   1
loop_
 _symmetry_equiv_pos_site_id
 _symmetry_equiv_pos_as_xyz
  1  'x, y, z'
loop_
 _atom_site_type_symbol
 _atom_site_label
 _atom_site_symmetry_multiplicity
 _atom_site_fract_x
 _atom_site_fract_y
 _atom_site_fract_z
 _atom_site_occupancy
  Ho  Ho0  1  0.50000000  0.91411000  0.82821900  1
  Ho  Ho1  1  0.00000000  0.79325600  0.58651100  1
  Ho  Ho2  1  0.50000000  0.52574500  0.05149000  1
  Ho  Ho3  1  0.00000000  0.18570700  0.37141300  1
  Mn  Mn0  1  0.00000000  0.07663500  0.15327000  1
  Si  Si0  1  0.50000000  0.26461800  0.52923700  1
  Si  Si1  1  0.00000000  0.61170800  0.22341700  1
  Si  Si2  1  0.50000000  0.71299500  0.42599000  1
  Si  Si3  1  0.00000000  0.44972200  0.89944400  1
  Si  Si4  1  0.00000000  0.99557800  0.99115500  1
  Si  Si5  1  0.50000000  0.10728300  0.21456600  1
  Si  Si6  1  0.00000000  0.37004400  0.74008800  1
loop_
_geom_bond_atom_site_label_1
_geom_bond_atom_site_label_2
_geom_bond_distance
_geom_bond_site_symmetry_2
Ho0 Si3 3.019805 1_565
Ho0 Si3 3.019805 1_665
Ho0 Si3 3.019808 1_555
Ho0 Si3 3.019808 1_655
Ho0 Si6 3.111426 1_665
Ho0 Si6 3.111426 1_565
Ho0 Si6 3.111429 1_555
Ho0 Si6 3.111429 1_655
Ho0 Si4 3.123817 1_655
Ho0 Si4 3.123817 1_555
Ho1 Si0 2.957265 1_565
Ho1 Si0 2.957265 1_465
Ho1 Si0 2.957270 1_455
Ho1 Si0 2.957270 1_555
Ho1 Si6 2.959196 1_565
Ho1 Si6 2.959198 1_555
Ho1 Si2 3.097636 1_455
Ho1 Si2 3.097636 1_555
Ho2 Si4 2.969930 1_644
Ho2 Si4 2.969930 1_544
Ho2 Si4 2.969933 1_554
Ho2 Si4 2.969933 1_654
Ho2 Si3 3.007157 1_554
Ho2 Si3 3.007157 1_654
Ho2 Si5 3.063337 1_555
Ho2 Si5 3.063337 1_565
Ho2 Mn0 3.197103 1_555
Ho2 Mn0 3.197103 1_655
Ho2 Mn0 3.197103 1_665
Ho2 Mn0 3.197103 1_565
Ho2 Si1 3.222734 1_555
Ho2 Si1 3.222734 1_655
Ho3 Si1 2.899291 1_555
Ho3 Si1 2.899296 1_545
Ho3 Si2 2.946612 1_455
Ho3 Si2 2.946612 1_555
Ho3 Si2 2.946614 1_545
Ho3 Si2 2.946614 1_445
Ho3 Si5 3.058140 1_455
Ho3 Si5 3.058140 1_555
Ho3 Si0 3.068603 1_455
Ho3 Si0 3.068603 1_555
Mn0 Si1 2.205645 1_555
Mn0 Si1 2.205648 1_545
Mn0 Si5 2.237410 1_455
Mn0 Si5 2.237410 1_555
Mn0 Si4 2.340942 1_544
Si0 Si2 2.462032 1_545
Si0 Si2 2.462035 1_555
Si3 Si6 2.301102 1_555
Si3 Si4 2.364877 1_545
Si3 Si4 2.364881 1_555
