# generated using pymatgen
data_Nb3Co8Si
_symmetry_space_group_name_H-M   'P 1'
_cell_length_a   4.75450688
_cell_length_b   4.75450688
_cell_length_c   7.61394800
_cell_angle_alpha   90.00000000
_cell_angle_beta   90.00000000
_cell_angle_gamma   120.00001231
_symmetry_Int_Tables_number   1
_chemical_formula_structural   Nb3Co8Si
_chemical_formula_sum   'Nb3 Co8 Si1'
_cell_volume   149.05668058
_cell_formula_units_Z   1
loop_
 _symmetry_equiv_pos_site_id
 _symmetry_equiv_pos_as_xyz
  1  'x, y, z'
loop_
 _atom_site_type_symbol
 _atom_site_label
 _atom_site_symmetry_multiplicity
 _atom_site_fract_x
 _atom_site_fract_y
 _atom_site_fract_z
 _atom_site_occupancy
  Nb  Nb0  1  0.66666700  0.33333300  0.55523700  1
  Nb  Nb1  1  0.66666700  0.33333300  0.92895900  1
  Nb  Nb2  1  0.33333300  0.66666700  0.08871000  1
  Co  Co0  1  0.00000000  0.00000000  0.49489700  1
  Co  Co1  1  0.00000000  0.00000000  0.99269800  1
  Co  Co2  1  0.83106800  0.16893200  0.24795700  1
  Co  Co3  1  0.83106800  0.66213600  0.24795700  1
  Co  Co4  1  0.33786400  0.16893200  0.24795700  1
  Co  Co5  1  0.16986500  0.83013500  0.74513500  1
  Co  Co6  1  0.16986500  0.33973000  0.74513500  1
  Co  Co7  1  0.66027000  0.83013500  0.74513500  1
  Si  Si0  1  0.33333300  0.66666700  0.45996000  1
loop_
_geom_bond_atom_site_label_1
_geom_bond_atom_site_label_2
_geom_bond_distance
_geom_bond_site_symmetry_2
Nb0 Si0 2.839252 1_545
Nb0 Si0 2.839252 1_655
Nb0 Si0 2.839260 1_555
Nb0 Nb1 2.845500 1_555
Nb1 Nb2 3.002427 1_656
Nb1 Nb2 3.002427 1_546
Nb1 Nb2 3.002435 1_556
Nb2 Si0 2.826678 1_555
Co0 Co4 2.338898 1_555
Co0 Co3 2.338898 1_445
Co0 Co2 2.338898 1_455
Co0 Co6 2.363670 1_555
Co0 Co7 2.363670 1_445
Co0 Co5 2.363670 1_545
Co0 Si0 2.757872 1_545
Co0 Si0 2.757876 1_555
Co0 Si0 2.757876 1_445
Co0 Nb0 2.783194 1_455
Co0 Nb0 2.783198 1_445
Co0 Nb0 2.783198 1_555
Co1 Co7 2.347283 1_445
Co1 Co6 2.347283 1_555
Co1 Co5 2.347283 1_545
Co1 Co4 2.390113 1_556
Co1 Co3 2.390113 1_446
Co1 Co2 2.390113 1_456
Co1 Nb1 2.787583 1_455
Co1 Nb1 2.787587 1_445
Co1 Nb1 2.787587 1_555
Co1 Nb2 2.840687 1_546
Co1 Nb2 2.840691 1_446
Co1 Nb2 2.840691 1_556
Co2 Co4 2.344942 1_555
Co2 Co3 2.344942 1_555
Co2 Co3 2.409565 1_545
Co2 Co4 2.409565 1_655
Co2 Nb2 2.668676 1_545
Co2 Nb2 2.668676 1_655
Co2 Nb0 2.703091 1_555
Co2 Nb1 2.780674 1_554
Co2 Si0 2.873544 1_545
Co2 Si0 2.873544 1_655
Co3 Co4 2.344941 1_555
Co3 Co4 2.409565 1_665
Co3 Nb2 2.668674 1_655
Co3 Nb2 2.668679 1_555
Co3 Nb0 2.703093 1_555
Co3 Nb1 2.780675 1_554
Co3 Si0 2.873543 1_655
Co3 Si0 2.873547 1_555
Co4 Nb2 2.668674 1_545
Co4 Nb2 2.668679 1_555
Co4 Nb0 2.703093 1_555
Co4 Nb1 2.780675 1_554
Co4 Si0 2.873543 1_545
Co4 Si0 2.873547 1_555
Co5 Co6 2.331634 1_555
Co5 Co7 2.331634 1_555
Co5 Co7 2.422873 1_455
Co5 Co6 2.422873 1_565
Co5 Si0 2.554749 1_555
Co5 Nb1 2.758800 1_565
Co5 Nb1 2.758800 1_455
Co5 Nb0 2.782548 1_455
Co5 Nb0 2.782548 1_565
Co5 Nb2 2.942010 1_556
Co6 Co7 2.331634 1_555
Co6 Co7 2.422872 1_445
Co6 Si0 2.554751 1_555
Co6 Nb1 2.758799 1_455
Co6 Nb1 2.758803 1_555
Co6 Nb0 2.782547 1_455
Co6 Nb0 2.782551 1_555
Co6 Nb2 2.942012 1_556
Co7 Si0 2.554751 1_555
Co7 Nb1 2.758799 1_565
Co7 Nb1 2.758803 1_555
Co7 Nb0 2.782547 1_565
Co7 Nb0 2.782551 1_555
Co7 Nb2 2.942012 1_556
