# generated using pymatgen
data_Nd2Si4RuRh3
_symmetry_space_group_name_H-M   'P 1'
_cell_length_a   4.14039000
_cell_length_b   4.14039000
_cell_length_c   10.11512100
_cell_angle_alpha   90.00000000
_cell_angle_beta   90.00000000
_cell_angle_gamma   90.00000000
_symmetry_Int_Tables_number   1
_chemical_formula_structural   Nd2Si4RuRh3
_chemical_formula_sum   'Nd2 Si4 Ru1 Rh3'
_cell_volume   173.40179318
_cell_formula_units_Z   1
loop_
 _symmetry_equiv_pos_site_id
 _symmetry_equiv_pos_as_xyz
  1  'x, y, z'
loop_
 _atom_site_type_symbol
 _atom_site_label
 _atom_site_symmetry_multiplicity
 _atom_site_fract_x
 _atom_site_fract_y
 _atom_site_fract_z
 _atom_site_occupancy
  Nd  Nd0  1  0.00000000  0.00000000  0.00283500  1
  Nd  Nd1  1  0.50000000  0.50000000  0.49716500  1
  Si  Si0  1  0.50000000  0.50000000  0.13104100  1
  Si  Si1  1  0.00000000  0.00000000  0.62592000  1
  Si  Si2  1  0.00000000  0.00000000  0.36895900  1
  Si  Si3  1  0.50000000  0.50000000  0.87408000  1
  Ru  Ru0  1  0.00000000  0.50000000  0.25000000  1
  Rh  Rh0  1  0.50000000  0.00000000  0.75000000  1
  Rh  Rh1  1  0.50000000  0.00000000  0.25000000  1
  Rh  Rh2  1  0.00000000  0.50000000  0.75000000  1
loop_
_geom_bond_atom_site_label_1
_geom_bond_atom_site_label_2
_geom_bond_distance
_geom_bond_site_symmetry_2
Nd0 Si0 3.202055 1_455
Nd0 Si0 3.202055 1_445
Nd0 Si0 3.202055 1_555
Nd0 Si0 3.202055 1_545
Nd0 Si3 3.204308 1_544
Nd0 Si3 3.204308 1_454
Nd0 Si3 3.204308 1_444
Nd0 Si3 3.204308 1_554
Nd0 Rh1 3.245955 1_455
Nd0 Ru0 3.245955 1_545
Nd0 Ru0 3.245955 1_555
Nd0 Rh1 3.245955 1_555
Nd0 Rh0 3.290333 1_554
Nd0 Rh2 3.290333 1_544
Nd0 Rh0 3.290333 1_454
Nd0 Rh2 3.290333 1_554
Nd1 Si2 3.202055 1_565
Nd1 Si2 3.202055 1_655
Nd1 Si2 3.202055 1_555
Nd1 Si2 3.202055 1_665
Nd1 Si1 3.204308 1_565
Nd1 Si1 3.204308 1_665
Nd1 Si1 3.204308 1_555
Nd1 Si1 3.204308 1_655
Nd1 Ru0 3.245955 1_555
Nd1 Rh1 3.245955 1_555
Nd1 Rh1 3.245955 1_565
Nd1 Ru0 3.245955 1_655
Nd1 Rh0 3.290333 1_555
Nd1 Rh2 3.290333 1_655
Nd1 Rh2 3.290333 1_555
Nd1 Rh0 3.290333 1_565
Si0 Si3 2.599192 1_554
Si1 Si2 2.599192 1_555
Ru0 Si0 2.394494 1_455
Ru0 Si2 2.394494 1_555
Ru0 Si0 2.394494 1_555
Ru0 Si2 2.394494 1_565
Rh0 Si1 2.420939 1_555
Rh0 Si1 2.420939 1_655
Rh0 Si3 2.420939 1_545
Rh0 Si3 2.420939 1_555
Rh1 Si2 2.394494 1_655
Rh1 Si2 2.394494 1_555
Rh1 Si0 2.394494 1_555
Rh1 Si0 2.394494 1_545
Rh2 Si1 2.420939 1_555
Rh2 Si1 2.420939 1_565
Rh2 Si3 2.420939 1_455
Rh2 Si3 2.420939 1_555
