# generated using pymatgen
data_CaTaTi(PO4)3
_symmetry_space_group_name_H-M   'P 1'
_cell_length_a   8.90314812
_cell_length_b   8.89149987
_cell_length_c   8.90644198
_cell_angle_alpha   59.68007265
_cell_angle_beta   59.63062661
_cell_angle_gamma   59.65344424
_symmetry_Int_Tables_number   1
_chemical_formula_structural   CaTaTi(PO4)3
_chemical_formula_sum   'Ca2 Ta2 Ti2 P6 O24'
_cell_volume   494.63756678
_cell_formula_units_Z   2
loop_
 _symmetry_equiv_pos_site_id
 _symmetry_equiv_pos_as_xyz
  1  'x, y, z'
loop_
 _atom_site_type_symbol
 _atom_site_label
 _atom_site_symmetry_multiplicity
 _atom_site_fract_x
 _atom_site_fract_y
 _atom_site_fract_z
 _atom_site_occupancy
  Ca  Ca0  1  0.00188100  0.00221700  0.00205800  1
  Ca  Ca1  1  0.50264200  0.50236500  0.50266600  1
  Ta  Ta0  1  0.35490100  0.35499800  0.35526500  1
  Ta  Ta1  1  0.85514900  0.85472400  0.85503800  1
  Ti  Ti0  1  0.14570200  0.14601900  0.14524100  1
  Ti  Ti1  1  0.64622500  0.64600800  0.64634200  1
  P  P0  1  0.03861900  0.45681500  0.75104400  1
  P  P1  1  0.45678100  0.75169400  0.03868200  1
  P  P2  1  0.75146700  0.03848000  0.45707700  1
  P  P3  1  0.25176300  0.95663100  0.53874700  1
  P  P4  1  0.53860500  0.25174800  0.95702400  1
  P  P5  1  0.95684400  0.53860900  0.25156300  1
  O  O0  1  0.11879500  0.50901700  0.29768000  1
  O  O1  1  0.29770200  0.11933000  0.50907800  1
  O  O2  1  0.06064100  0.27359700  0.91424200  1
  O  O3  1  0.50917200  0.29829900  0.11826700  1
  O  O4  1  0.00895400  0.61901400  0.79750400  1
  O  O5  1  0.22591700  0.43921300  0.58517700  1
  O  O6  1  0.27373600  0.91475400  0.06089100  1
  O  O7  1  0.43926800  0.58499400  0.22609600  1
  O  O8  1  0.20098400  0.99237600  0.38135000  1
  O  O9  1  0.58532000  0.22604400  0.43955200  1
  O  O10  1  0.08532600  0.93922800  0.72586000  1
  O  O11  1  0.38130000  0.19994100  0.99324600  1
  O  O12  1  0.61865800  0.79802500  0.00873600  1
  O  O13  1  0.91468500  0.06045000  0.27376600  1
  O  O14  1  0.41491800  0.77353300  0.56181000  1
  O  O15  1  0.79773200  0.00871600  0.61878200  1
  O  O16  1  0.56153300  0.41480600  0.77370700  1
  O  O17  1  0.72616400  0.08532300  0.93915100  1
  O  O18  1  0.77361000  0.56129300  0.41474500  1
  O  O19  1  0.99263600  0.38143100  0.20025500  1
  O  O20  1  0.49276000  0.69965800  0.88158900  1
  O  O21  1  0.93896200  0.72604800  0.08524400  1
  O  O22  1  0.69917600  0.88141500  0.49328500  1
  O  O23  1  0.88146600  0.49318100  0.69923300  1
loop_
_geom_bond_atom_site_label_1
_geom_bond_atom_site_label_2
_geom_bond_distance
_geom_bond_site_symmetry_2
Ca0 O2 2.379957 1_554
Ca0 O13 2.384591 1_455
Ca0 O6 2.388834 1_545
Ca0 O17 2.454693 1_454
Ca0 O21 2.454768 1_445
Ca0 O10 2.457560 1_544
Ca1 O18 2.379191 1_555
Ca1 O14 2.379992 1_555
Ca1 O16 2.382915 1_555
Ca1 O9 2.458213 1_555
Ca1 O5 2.464918 1_555
Ca1 O7 2.466778 1_555
O0 P5 1.556697 1_455
O0 Ta0 2.007333 1_555
O1 P3 1.559646 1_545
O1 Ta0 2.000362 1_555
O2 P0 1.542631 1_555
O2 Ti0 2.108116 1_556
O3 P4 1.553194 1_554
O3 Ta0 2.009827 1_555
O4 P0 1.558217 1_555
O4 Ta1 2.001257 1_455
O5 P0 1.570477 1_555
O5 Ta0 2.091417 1_555
O6 P1 1.540501 1_555
O6 Ti0 2.101770 1_565
O7 P1 1.574752 1_555
O7 Ta0 2.091117 1_555
O8 P3 1.521963 1_555
O8 Ti0 1.999317 1_565
O9 P2 1.572159 1_555
O9 Ta0 2.097149 1_555
O10 P3 1.572044 1_555
O10 Ta1 2.094496 1_455
O11 P4 1.524034 1_555
O11 Ti0 1.987945 1_556
O12 P1 1.555073 1_555
O12 Ta1 2.005659 1_554
O13 P2 1.543131 1_555
O13 Ti0 2.107324 1_655
O14 P3 1.541798 1_555
O14 Ti1 2.107082 1_555
O15 P2 1.555246 1_555
O15 Ta1 2.008779 1_545
O16 P4 1.543194 1_555
O16 Ti1 2.104357 1_555
O17 P4 1.573436 1_555
O17 Ta1 2.094221 1_545
O18 P5 1.542853 1_555
O18 Ti1 2.109133 1_555
O19 P5 1.520221 1_555
O19 Ti0 1.989113 1_655
O20 P1 1.524775 1_556
O20 Ti1 1.984996 1_555
O21 P5 1.573204 1_555
O21 Ta1 2.094156 1_554
O22 P2 1.523653 1_565
O22 Ti1 1.981940 1_555
O23 P0 1.523211 1_655
O23 Ti1 1.982528 1_555
