# generated using pymatgen
data_MgSO5
_symmetry_space_group_name_H-M   'P 1'
_cell_length_a   5.19860316
_cell_length_b   5.19860316
_cell_length_c   7.62094673
_cell_angle_alpha   105.40536928
_cell_angle_beta   105.40536928
_cell_angle_gamma   96.51426103
_symmetry_Int_Tables_number   1
_chemical_formula_structural   MgSO5
_chemical_formula_sum   'Mg2 S2 O10'
_cell_volume   187.63606461
_cell_formula_units_Z   2
loop_
 _symmetry_equiv_pos_site_id
 _symmetry_equiv_pos_as_xyz
  1  'x, y, z'
loop_
 _atom_site_type_symbol
 _atom_site_label
 _atom_site_symmetry_multiplicity
 _atom_site_fract_x
 _atom_site_fract_y
 _atom_site_fract_z
 _atom_site_occupancy
  Mg  Mg0  1  0.00000000  0.00000000  0.50000000  1
  Mg  Mg1  1  0.50000000  0.50000000  0.00000000  1
  S  S0  1  0.09129400  0.40870600  0.25000000  1
  S  S1  1  0.90870600  0.59129400  0.75000000  1
  O  O0  1  0.23071300  0.32858700  0.10490300  1
  O  O1  1  0.17141300  0.26928700  0.39509700  1
  O  O2  1  0.76928700  0.67141300  0.89509700  1
  O  O3  1  0.82858700  0.73071300  0.60490300  1
  O  O4  1  0.17141600  0.71050400  0.34438500  1
  O  O5  1  0.78949600  0.32858400  0.15561500  1
  O  O6  1  0.82858400  0.28949600  0.65561500  1
  O  O7  1  0.21050400  0.67141600  0.84438500  1
  O  O8  1  0.64875700  0.85124300  0.25000000  1
  O  O9  1  0.35124300  0.14875700  0.75000000  1
loop_
_geom_bond_atom_site_label_1
_geom_bond_atom_site_label_2
_geom_bond_distance
_geom_bond_site_symmetry_2
Mg0 O1 2.020651 1_555
Mg0 O3 2.020651 1_445
Mg0 O6 2.093565 1_455
Mg0 O4 2.093565 1_545
Mg0 O9 2.147237 1_555
Mg0 O8 2.147237 1_445
Mg1 O2 2.020651 1_554
Mg1 O0 2.020651 1_555
Mg1 O5 2.093565 1_555
Mg1 O7 2.093565 1_554
Mg1 O8 2.147237 1_555
Mg1 O9 2.147237 1_554
O0 S0 1.473478 1_555
O1 S0 1.473478 1_555
O2 S1 1.473478 1_555
O3 S1 1.473478 1_555
O4 S0 1.498460 1_555
O5 S0 1.498460 1_655
O6 S1 1.498460 1_555
O7 S1 1.498460 1_455
