# generated using pymatgen
data_Li7Mn2(CoO4)3
_symmetry_space_group_name_H-M   'P 1'
_cell_length_a   7.71291215
_cell_length_b   7.71291215
_cell_length_c   9.89357844
_cell_angle_alpha   78.49490062
_cell_angle_beta   78.49490062
_cell_angle_gamma   22.11310066
_symmetry_Int_Tables_number   1
_chemical_formula_structural   Li7Mn2(CoO4)3
_chemical_formula_sum   'Li7 Mn2 Co3 O12'
_cell_volume   216.93143795
_cell_formula_units_Z   1
loop_
 _symmetry_equiv_pos_site_id
 _symmetry_equiv_pos_as_xyz
  1  'x, y, z'
loop_
 _atom_site_type_symbol
 _atom_site_label
 _atom_site_symmetry_multiplicity
 _atom_site_fract_x
 _atom_site_fract_y
 _atom_site_fract_z
 _atom_site_occupancy
  Li  Li0  1  0.92400500  0.92400500  0.73047100  1
  Li  Li1  1  0.07599500  0.07599500  0.26952900  1
  Li  Li2  1  0.25121100  0.25121100  0.73209900  1
  Li  Li3  1  0.58527200  0.58527200  0.73742700  1
  Li  Li4  1  0.74878900  0.74878900  0.26790100  1
  Li  Li5  1  0.41472800  0.41472800  0.26257300  1
  Li  Li6  1  0.50000000  0.50000000  0.50000000  1
  Mn  Mn0  1  0.33563400  0.33563400  0.99875700  1
  Mn  Mn1  1  0.66436600  0.66436600  0.00124300  1
  Co  Co0  1  0.83953500  0.83953500  0.50078700  1
  Co  Co1  1  0.00000000  0.00000000  0.00000000  1
  Co  Co2  1  0.16046500  0.16046500  0.49921300  1
  O  O0  1  0.79236100  0.79236100  0.89568600  1
  O  O1  1  0.94510000  0.94510000  0.37997400  1
  O  O2  1  0.13546200  0.13546200  0.88702100  1
  O  O3  1  0.45188000  0.45188000  0.88441500  1
  O  O4  1  0.62790400  0.62790400  0.38141600  1
  O  O5  1  0.28447600  0.28447600  0.38927300  1
  O  O6  1  0.05490000  0.05490000  0.62002600  1
  O  O7  1  0.20763900  0.20763900  0.10431400  1
  O  O8  1  0.37209600  0.37209600  0.61858400  1
  O  O9  1  0.71552400  0.71552400  0.61072700  1
  O  O10  1  0.86453800  0.86453800  0.11297900  1
  O  O11  1  0.54812000  0.54812000  0.11558500  1
loop_
_geom_bond_atom_site_label_1
_geom_bond_atom_site_label_2
_geom_bond_distance
_geom_bond_site_symmetry_2
Li0 O6 2.059352 1_665
Li0 O8 2.093917 1_565
Li0 O8 2.093917 1_655
Li0 O3 2.224180 1_565
Li0 O3 2.224180 1_655
Li0 O0 2.306477 1_555
Li1 O1 2.059352 1_445
Li1 O4 2.093917 1_455
Li1 O4 2.093917 1_545
Li1 O11 2.224180 1_545
Li1 O11 2.224180 1_455
Li1 O7 2.306477 1_555
Li2 O8 1.943007 1_555
Li2 O9 2.045840 1_455
Li2 O9 2.045840 1_545
Li2 O2 2.080481 1_555
Li2 O0 2.367548 1_455
Li2 O0 2.367548 1_545
Li3 O6 1.991372 1_565
Li3 O6 1.991372 1_655
Li3 O9 2.110731 1_555
Li3 O3 2.235946 1_555
Li3 O2 2.326555 1_565
Li3 O2 2.326555 1_655
Li4 O4 1.943007 1_555
Li4 O5 2.045840 1_565
Li4 O5 2.045840 1_655
Li4 O10 2.080481 1_555
Li4 O7 2.367548 1_655
Li4 O7 2.367548 1_565
Li5 O1 1.991372 1_545
Li5 O1 1.991372 1_455
Li5 O5 2.110731 1_555
Li5 O11 2.235946 1_555
Li5 O10 2.326555 1_545
Li5 O10 2.326555 1_455
Li6 O4 2.050050 1_555
Li6 O8 2.050050 1_555
Li6 O6 2.165651 1_655
Li6 O1 2.165651 1_455
Li6 O1 2.165651 1_545
Li6 O6 2.165651 1_565
Mn0 O3 1.888859 1_555
Mn0 O10 1.964041 1_456
Mn0 O10 1.964041 1_546
Mn0 O0 1.982053 1_545
Mn0 O0 1.982053 1_455
Mn0 O7 2.005764 1_556
Mn1 O11 1.888859 1_555
Mn1 O2 1.964041 1_654
Mn1 O2 1.964041 1_564
Mn1 O7 1.982053 1_565
Mn1 O7 1.982053 1_655
Mn1 O0 2.005764 1_554
Co0 O1 1.790664 1_555
Co0 O9 1.969247 1_555
Co0 O8 2.005663 1_655
Co0 O8 2.005663 1_565
Co0 O5 2.115128 1_565
Co0 O5 2.115128 1_655
Co1 O3 2.089253 1_454
Co1 O11 2.089253 1_545
Co1 O3 2.089253 1_544
Co1 O11 2.089253 1_455
Co1 O10 2.126865 1_445
Co1 O2 2.126865 1_554
Co2 O6 1.790664 1_555
Co2 O5 1.969247 1_555
Co2 O4 2.005663 1_545
Co2 O4 2.005663 1_455
Co2 O9 2.115128 1_545
Co2 O9 2.115128 1_455
