# generated using pymatgen
data_Nb2Zn2CrO8
_symmetry_space_group_name_H-M   'P 1'
_cell_length_a   10.22997494
_cell_length_b   10.22997494
_cell_length_c   5.28711958
_cell_angle_alpha   89.19238496
_cell_angle_beta   89.19238496
_cell_angle_gamma   34.08451898
_symmetry_Int_Tables_number   1
_chemical_formula_structural   Nb2Zn2CrO8
_chemical_formula_sum   'Nb4 Zn4 Cr2 O16'
_cell_volume   310.04948022
_cell_formula_units_Z   2
loop_
 _symmetry_equiv_pos_site_id
 _symmetry_equiv_pos_as_xyz
  1  'x, y, z'
loop_
 _atom_site_type_symbol
 _atom_site_label
 _atom_site_symmetry_multiplicity
 _atom_site_fract_x
 _atom_site_fract_y
 _atom_site_fract_z
 _atom_site_occupancy
  Nb  Nb0  1  0.04363700  0.72314600  0.73216400  1
  Nb  Nb1  1  0.27444600  0.95614100  0.75984600  1
  Nb  Nb2  1  0.95614100  0.27444600  0.25984600  1
  Nb  Nb3  1  0.72314600  0.04363700  0.23216400  1
  Zn  Zn0  1  0.87479400  0.56192100  0.76246100  1
  Zn  Zn1  1  0.43265800  0.12546600  0.73458700  1
  Zn  Zn2  1  0.12546600  0.43265800  0.23458700  1
  Zn  Zn3  1  0.56192100  0.87479400  0.26246100  1
  Cr  Cr0  1  0.64949800  0.35016300  0.75669200  1
  Cr  Cr1  1  0.35016300  0.64949800  0.25669200  1
  O  O0  1  0.03513900  0.81866400  0.06447100  1
  O  O1  1  0.19110600  0.94798700  0.42735700  1
  O  O2  1  0.94798700  0.19110600  0.92735700  1
  O  O3  1  0.81866400  0.03513900  0.56447100  1
  O  O4  1  0.32026600  0.56474800  0.59338200  1
  O  O5  1  0.41555900  0.69947200  0.92568300  1
  O  O6  1  0.69947200  0.41555900  0.42568300  1
  O  O7  1  0.56474800  0.32026600  0.09338200  1
  O  O8  1  0.92549200  0.71363200  0.43500800  1
  O  O9  1  0.28154400  0.07434900  0.06193600  1
  O  O10  1  0.45053100  0.15837100  0.36342900  1
  O  O11  1  0.83767400  0.54817000  0.13511600  1
  O  O12  1  0.54817000  0.83767400  0.63511600  1
  O  O13  1  0.15837100  0.45053100  0.86342900  1
  O  O14  1  0.71363200  0.92549200  0.93500800  1
  O  O15  1  0.07434900  0.28154400  0.56193600  1
loop_
_geom_bond_atom_site_label_1
_geom_bond_atom_site_label_2
_geom_bond_distance
_geom_bond_site_symmetry_2
Nb0 O4 1.884616 1_555
Nb0 O0 1.988119 1_556
Nb0 O3 2.019918 1_465
Nb0 O13 2.045313 1_555
Nb0 O8 2.047261 1_455
Nb0 O14 2.284111 1_455
Nb1 O5 1.854537 1_555
Nb1 O1 1.997061 1_555
Nb1 O12 2.023349 1_555
Nb1 O9 2.054692 1_566
Nb1 O2 2.096457 1_465
Nb1 O15 2.245323 1_565
Nb2 O6 1.854537 1_555
Nb2 O2 1.997061 1_554
Nb2 O11 2.023349 1_555
Nb2 O15 2.054692 1_655
Nb2 O1 2.096457 1_645
Nb2 O9 2.245323 1_655
Nb3 O7 1.884616 1_555
Nb3 O3 1.988119 1_555
Nb3 O0 2.019918 1_645
Nb3 O10 2.045313 1_555
Nb3 O14 2.047261 1_544
Nb3 O8 2.284111 1_545
Cr0 O6 2.068818 1_555
Cr0 O7 2.096285 1_556
Cr0 O2 2.142926 1_555
Cr0 O4 2.165607 1_555
Cr0 O5 2.271387 1_555
Cr0 O3 2.284335 1_555
Cr1 O5 2.068818 1_554
Cr1 O4 2.096285 1_555
Cr1 O1 2.142926 1_555
Cr1 O7 2.165607 1_555
Cr1 O6 2.271387 1_555
Cr1 O0 2.284335 1_555
O8 Zn2 1.963292 1_655
O9 Zn3 1.960640 1_545
O10 Zn2 1.987394 1_555
O10 Zn1 2.017622 1_555
O10 Zn3 2.133078 1_545
O11 Zn3 1.993112 1_555
O11 Zn0 2.026213 1_554
O11 Zn2 2.145727 1_655
O12 Zn0 1.993112 1_555
O12 Zn3 2.026213 1_555
O12 Zn1 2.145727 1_565
O13 Zn1 1.987394 1_555
O13 Zn2 2.017622 1_556
O13 Zn0 2.133078 1_455
O14 Zn1 1.963292 1_565
O15 Zn0 1.960640 1_455
