# generated using pymatgen
data_RbNaMg14O15
_symmetry_space_group_name_H-M   'P 1'
_cell_length_a   8.49398956
_cell_length_b   8.81616217
_cell_length_c   4.41922251
_cell_angle_alpha   90.00000000
_cell_angle_beta   90.00000000
_cell_angle_gamma   90.00000000
_symmetry_Int_Tables_number   1
_chemical_formula_structural   RbNaMg14O15
_chemical_formula_sum   'Rb1 Na1 Mg14 O15'
_cell_volume   330.93077942
_cell_formula_units_Z   1
loop_
 _symmetry_equiv_pos_site_id
 _symmetry_equiv_pos_as_xyz
  1  'x, y, z'
loop_
 _atom_site_type_symbol
 _atom_site_label
 _atom_site_symmetry_multiplicity
 _atom_site_fract_x
 _atom_site_fract_y
 _atom_site_fract_z
 _atom_site_occupancy
  Rb  Rb0  1  0.40941096  0.50000000  0.00000000  1
  Na  Na0  1  0.99832820  0.00000000  0.00000000  1
  Mg  Mg0  1  0.97668999  0.50000000  0.00000000  1
  Mg  Mg1  1  0.50889253  0.00000000  0.00000000  1
  Mg  Mg2  1  0.00353245  0.24912442  0.50000000  1
  Mg  Mg3  1  0.00353245  0.75087558  0.50000000  1
  Mg  Mg4  1  0.50722410  0.24461473  0.50000000  1
  Mg  Mg5  1  0.50722410  0.75538527  0.50000000  1
  Mg  Mg6  1  0.25254133  0.00000000  0.50000000  1
  Mg  Mg7  1  0.24323401  0.50000000  0.50000000  1
  Mg  Mg8  1  0.75904058  0.00000000  0.50000000  1
  Mg  Mg9  1  0.73951259  0.50000000  0.50000000  1
  Mg  Mg10  1  0.25235194  0.21682004  0.00000000  1
  Mg  Mg11  1  0.25235194  0.78317996  0.00000000  1
  Mg  Mg12  1  0.74370883  0.25125811  -0.00000000  1
  Mg  Mg13  1  0.74370883  0.74874189  -0.00000000  1
  O  O0  1  0.26303340  0.00000000  0.00000000  1
  O  O1  1  0.74450289  0.00000000  0.00000000  1
  O  O2  1  0.75007842  0.50000000  0.00000000  1
  O  O3  1  0.25650609  0.26261063  0.50000000  1
  O  O4  1  0.25650609  0.73738937  0.50000000  1
  O  O5  1  0.75606599  0.25050251  0.50000000  1
  O  O6  1  0.75606599  0.74949749  0.50000000  1
  O  O7  1  0.01101200  0.00000000  0.50000000  1
  O  O8  1  0.00959845  0.50000000  0.50000000  1
  O  O9  1  0.49972261  0.00000000  0.50000000  1
  O  O10  1  0.50324631  0.50000000  0.50000000  1
  O  O11  1  0.02244533  0.27655663  0.00000000  1
  O  O12  1  0.02244533  0.72344337  0.00000000  1
  O  O13  1  0.49874314  0.22938330  0.00000000  1
  O  O14  1  0.49874314  0.77061670  0.00000000  1
loop_
_geom_bond_atom_site_label_1
_geom_bond_atom_site_label_2
_geom_bond_distance
_geom_bond_site_symmetry_2
Na0 O1 2.155990 1_555
Na0 O7 2.212236 1_654
Na0 O7 2.212236 1_655
Na0 O0 2.248403 1_655
Na0 O12 2.446759 1_645
Na0 O11 2.446759 1_655
Mg0 O2 1.924836 1_555
Mg0 O11 2.007885 1_655
Mg0 O12 2.007885 1_655
Mg0 O8 2.227222 1_654
Mg0 O8 2.227222 1_655
Mg1 O1 2.001272 1_555
Mg1 O14 2.024117 1_545
Mg1 O13 2.024117 1_555
Mg1 O0 2.088325 1_555
Mg1 O9 2.210984 1_555
Mg1 O9 2.210984 1_554
Mg2 O5 2.102013 1_455
Mg2 O3 2.152042 1_555
Mg2 O7 2.197240 1_555
Mg2 O8 2.212360 1_555
Mg2 O11 2.228605 1_556
Mg2 O11 2.228605 1_555
Mg3 O6 2.102013 1_455
Mg3 O4 2.152042 1_555
Mg3 O7 2.197240 1_565
Mg3 O8 2.212360 1_555
Mg3 O12 2.228605 1_556
Mg3 O12 2.228605 1_555
Mg4 O5 2.114298 1_555
Mg4 O3 2.135498 1_555
Mg4 O9 2.157504 1_555
Mg4 O13 2.214860 1_556
Mg4 O13 2.214860 1_555
Mg4 O10 2.251771 1_555
Mg5 O6 2.114298 1_555
Mg5 O4 2.135498 1_555
Mg5 O9 2.157504 1_565
Mg5 O14 2.214860 1_555
Mg5 O14 2.214860 1_556
Mg5 O10 2.251771 1_555
Mg6 O7 2.051548 1_555
Mg6 O9 2.099555 1_555
Mg6 O0 2.211408 1_555
Mg6 O0 2.211408 1_556
Mg6 O4 2.315463 1_545
Mg6 O3 2.315463 1_555
Mg7 O8 1.984498 1_555
Mg7 O3 2.095897 1_555
Mg7 O4 2.095897 1_555
Mg7 O10 2.208542 1_555
Mg8 O7 2.140243 1_655
Mg8 O9 2.202644 1_555
Mg8 O6 2.208615 1_545
Mg8 O5 2.208615 1_555
Mg8 O1 2.213059 1_556
Mg8 O1 2.213059 1_555
Mg9 O10 2.006843 1_555
Mg9 O5 2.204100 1_555
Mg9 O6 2.204100 1_555
Mg9 O2 2.211433 1_556
Mg9 O2 2.211433 1_555
Mg9 O8 2.294106 1_655
Mg10 O0 1.913673 1_555
Mg10 O11 2.022593 1_555
Mg10 O13 2.095773 1_555
Mg10 O3 2.246464 1_554
Mg10 O3 2.246464 1_555
Mg11 O0 1.913673 1_565
Mg11 O12 2.022593 1_555
Mg11 O14 2.095773 1_555
Mg11 O4 2.246464 1_554
Mg11 O4 2.246464 1_555
Mg12 O13 2.089654 1_555
Mg12 O2 2.193616 1_555
Mg12 O5 2.212113 1_555
Mg12 O5 2.212113 1_554
Mg12 O1 2.215143 1_555
Mg12 O11 2.378067 1_655
Mg13 O14 2.089654 1_555
Mg13 O2 2.193616 1_555
Mg13 O6 2.212113 1_555
Mg13 O6 2.212113 1_554
Mg13 O1 2.215143 1_565
Mg13 O12 2.378067 1_655
O10 Rb0 2.348968 1_556
O10 Rb0 2.348968 1_555
O13 Rb0 2.503558 1_555
O14 Rb0 2.503558 1_555
