# generated using pymatgen
data_Li3Mn2O5
_symmetry_space_group_name_H-M   'P 1'
_cell_length_a   2.86796856
_cell_length_b   5.81075438
_cell_length_c   11.23603154
_cell_angle_alpha   82.80991367
_cell_angle_beta   97.33153752
_cell_angle_gamma   89.99994298
_symmetry_Int_Tables_number   1
_chemical_formula_structural   Li3Mn2O5
_chemical_formula_sum   'Li6 Mn4 O10'
_cell_volume   184.23357106
_cell_formula_units_Z   2
loop_
 _symmetry_equiv_pos_site_id
 _symmetry_equiv_pos_as_xyz
  1  'x, y, z'
loop_
 _atom_site_type_symbol
 _atom_site_label
 _atom_site_symmetry_multiplicity
 _atom_site_fract_x
 _atom_site_fract_y
 _atom_site_fract_z
 _atom_site_occupancy
  Li  Li0  1  0.60010800  0.70007700  0.20004000  1
  Li  Li1  1  0.60004500  0.19991600  0.19995400  1
  Li  Li2  1  0.18282000  0.91300600  0.36578800  1
  Li  Li3  1  0.01723400  0.48698300  0.03424600  1
  Li  Li4  1  0.41196000  0.29551600  0.82382700  1
  Li  Li5  1  0.78810900  0.10465900  0.57609300  1
  Mn  Mn0  1  0.18996200  0.40515800  0.37989100  1
  Mn  Mn1  1  0.79539200  0.60830200  0.59100600  1
  Mn  Mn2  1  0.01001000  0.99466400  0.02010000  1
  Mn  Mn3  1  0.40449200  0.79177800  0.80895400  1
  O  O0  1  0.28697700  0.38074000  0.57409100  1
  O  O1  1  0.91297800  0.01930500  0.82596700  1
  O  O2  1  0.50545400  0.76716000  0.01098800  1
  O  O3  1  0.69452500  0.63274500  0.38901500  1
  O  O4  1  0.69669200  0.17772200  0.39336300  1
  O  O5  1  0.50327100  0.22218400  0.00661000  1
  O  O6  1  0.90009200  0.56388600  0.80013300  1
  O  O7  1  0.29982100  0.83622100  0.59989500  1
  O  O8  1  0.09174200  0.95550700  0.18351200  1
  O  O9  1  0.10831500  0.44447000  0.21652600  1
loop_
_geom_bond_atom_site_label_1
_geom_bond_atom_site_label_2
_geom_bond_distance
_geom_bond_site_symmetry_2
Li0 O8 2.055084 1_655
Li0 O8 2.055493 1_555
Li0 O9 2.055949 1_655
Li0 O9 2.056092 1_555
Li0 O3 2.092899 1_555
Li0 O2 2.093656 1_555
Li1 O8 2.042510 1_645
Li1 O8 2.042846 1_545
Li1 O9 2.043501 1_655
Li1 O9 2.043560 1_555
Li1 O5 2.142179 1_555
Li1 O4 2.142931 1_555
Li2 O8 2.015097 1_555
Li2 O4 2.152996 1_465
Li2 O4 2.153326 1_565
Li2 O3 2.160617 1_455
Li2 O3 2.160968 1_555
Li2 O7 2.590712 1_555
Li3 O9 2.015141 1_555
Li3 O5 2.153392 1_555
Li3 O5 2.153954 1_455
Li3 O2 2.160152 1_555
Li3 O2 2.160729 1_455
Li3 O6 2.590809 1_454
Li4 O5 2.027741 1_556
Li4 O6 2.110393 1_555
Li4 O6 2.110478 1_455
Li4 O1 2.150068 1_555
Li4 O1 2.150269 1_455
Li5 O4 2.027033 1_555
Li5 O7 2.110393 1_645
Li5 O7 2.111127 1_545
Li5 O0 2.149485 1_655
Li5 O0 2.149984 1_555
Mn0 O9 1.806014 1_555
Mn0 O4 1.943010 1_555
Mn0 O4 1.943034 1_455
Mn0 O3 1.962002 1_455
Mn0 O3 1.962010 1_555
Mn0 O0 2.150903 1_555
Mn1 O7 1.962932 1_655
Mn1 O7 1.962993 1_555
Mn1 O0 1.975579 1_555
Mn1 O0 1.975750 1_655
Mn1 O3 2.237539 1_555
Mn1 O6 2.312196 1_555
Mn2 O8 1.806534 1_555
Mn2 O5 1.943335 1_465
Mn2 O5 1.943360 1_565
Mn2 O2 1.961657 1_555
Mn2 O2 1.961661 1_455
Mn2 O1 2.150079 1_464
Mn3 O6 1.962733 1_455
Mn3 O6 1.962773 1_555
Mn3 O1 1.975683 1_565
Mn3 O1 1.975762 1_465
Mn3 O2 2.237953 1_556
Mn3 O7 2.311440 1_555
