# generated using pymatgen
data_La2Te(Mo3O22)2
_symmetry_space_group_name_H-M   'P 1'
_cell_length_a   8.67925876
_cell_length_b   10.83905156
_cell_length_c   12.01472356
_cell_angle_alpha   95.46991821
_cell_angle_beta   96.86866121
_cell_angle_gamma   120.58117314
_symmetry_Int_Tables_number   1
_chemical_formula_structural   La2Te(Mo3O22)2
_chemical_formula_sum   'La2 Te1 Mo6 O44'
_cell_volume   949.82613636
_cell_formula_units_Z   1
loop_
 _symmetry_equiv_pos_site_id
 _symmetry_equiv_pos_as_xyz
  1  'x, y, z'
loop_
 _atom_site_type_symbol
 _atom_site_label
 _atom_site_symmetry_multiplicity
 _atom_site_fract_x
 _atom_site_fract_y
 _atom_site_fract_z
 _atom_site_occupancy
  La  La0  1  0.96484800  0.72790800  0.28439700  1
  La  La1  1  0.03515200  0.27209200  0.71560300  1
  Te  Te0  1  0.50000000  0.50000000  0.50000000  1
  Mo  Mo0  1  0.39904400  0.16042000  0.33912700  1
  Mo  Mo1  1  0.60095600  0.83958000  0.66087300  1
  Mo  Mo2  1  0.31890100  0.39949100  0.20965000  1
  Mo  Mo3  1  0.68109900  0.60050900  0.79035000  1
  Mo  Mo4  1  0.43595700  0.73442900  0.38168800  1
  Mo  Mo5  1  0.56404300  0.26557100  0.61831200  1
  O  O0  1  0.58345500  0.44127000  0.35853400  1
  O  O1  1  0.41654500  0.55873000  0.64146600  1
  O  O2  1  0.36580100  0.29294000  0.50306100  1
  O  O3  1  0.63419900  0.70706000  0.49693900  1
  O  O4  1  0.24671400  0.22291000  0.26834000  1
  O  O5  1  0.75328600  0.77709000  0.73166000  1
  O  O6  1  0.59187000  0.21368900  0.46942900  1
  O  O7  1  0.40813000  0.78631100  0.53057100  1
  O  O8  1  0.23574000  0.97947800  0.35033800  1
  O  O9  1  0.76426000  0.02052200  0.64966200  1
  O  O10  1  0.50303300  0.14666900  0.23061200  1
  O  O11  1  0.49696700  0.85333100  0.76938800  1
  O  O12  1  0.31447900  0.49354100  0.38635300  1
  O  O13  1  0.68552100  0.50645900  0.61364700  1
  O  O14  1  0.50488800  0.63083600  0.25009100  1
  O  O15  1  0.49511200  0.36916400  0.74990900  1
  O  O16  1  0.12030700  0.38435200  0.14589900  1
  O  O17  1  0.87969300  0.61564800  0.85410100  1
  O  O18  1  0.42443500  0.38510600  0.10136200  1
  O  O19  1  0.57556500  0.61489400  0.89863800  1
  O  O20  1  0.22081600  0.69208700  0.30299000  1
  O  O21  1  0.77918400  0.30791300  0.69701000  1
  O  O22  1  0.59835200  0.89849200  0.35409900  1
  O  O23  1  0.40164800  0.10150800  0.64590100  1
  O  O24  1  0.98198900  0.85829000  0.12828200  1
  O  O25  1  0.01801100  0.14171000  0.87171800  1
  O  O26  1  0.08738500  0.87923300  0.04554800  1
  O  O27  1  0.91261500  0.12076700  0.95445200  1
  O  O28  1  0.67410100  0.69749000  0.22111000  1
  O  O29  1  0.32589900  0.30251000  0.77889000  1
  O  O30  1  0.86843900  0.51747400  0.08905200  1
  O  O31  1  0.13156100  0.48252600  0.91094800  1
  O  O32  1  0.77010800  0.53310600  0.35341800  1
  O  O33  1  0.22989200  0.46689400  0.64658200  1
  O  O34  1  0.07008600  0.77002000  0.55994000  1
  O  O35  1  0.92991400  0.22998000  0.44006000  1
  O  O36  1  0.95367500  0.96039800  0.45391400  1
  O  O37  1  0.04632500  0.03960200  0.54608600  1
  O  O38  1  0.15391000  0.00310500  0.01666800  1
  O  O39  1  0.84609000  0.99689500  0.98333200  1
  O  O40  1  0.08139800  0.70315600  0.63454700  1
  O  O41  1  0.91860200  0.29684400  0.36545300  1
  O  O42  1  0.24649200  0.61211800  0.94738500  1
  O  O43  1  0.75350800  0.38788200  0.05261500  1
loop_
_geom_bond_atom_site_label_1
_geom_bond_atom_site_label_2
_geom_bond_distance
_geom_bond_site_symmetry_2
La0 O32 2.245108 1_555
La0 O28 2.387772 1_555
La0 O24 2.428097 1_555
La0 O20 2.431405 1_655
La0 O8 2.492013 1_655
La0 O30 2.824686 1_555
La0 O36 3.134520 1_555
La0 O34 3.250684 1_655
La1 O33 2.245108 1_555
La1 O29 2.387772 1_555
La1 O25 2.428097 1_555
La1 O21 2.431405 1_455
La1 O9 2.492013 1_455
La1 O31 2.824686 1_555
La1 O37 3.134520 1_555
La1 O35 3.250684 1_455
Mo0 O10 1.708196 1_555
Mo0 O8 1.772304 1_545
Mo0 O4 1.918894 1_555
Mo0 O6 1.950113 1_555
Mo0 O2 2.458481 1_555
Mo0 O0 2.588574 1_555
Mo1 O11 1.708196 1_555
Mo1 O9 1.772304 1_565
Mo1 O5 1.918894 1_555
Mo1 O7 1.950113 1_555
Mo1 O3 2.458481 1_555
Mo1 O1 2.588574 1_555
Mo2 O18 1.716888 1_555
Mo2 O16 1.719603 1_555
Mo2 O4 1.922462 1_555
Mo2 O14 2.142689 1_555
Mo2 O12 2.279179 1_555
Mo2 O0 2.546024 1_555
Mo3 O19 1.716888 1_555
Mo3 O17 1.719603 1_555
Mo3 O5 1.922462 1_555
Mo3 O15 2.142689 1_555
Mo3 O13 2.279179 1_555
Mo3 O1 2.546024 1_555
Mo4 O22 1.712473 1_555
Mo4 O20 1.792854 1_555
Mo4 O7 1.903704 1_555
Mo4 O14 2.165624 1_555
Mo4 O3 2.234652 1_555
Mo4 O12 2.274426 1_555
Mo5 O23 1.712473 1_555
Mo5 O21 1.792854 1_555
Mo5 O6 1.903704 1_555
Mo5 O15 2.165624 1_555
Mo5 O2 2.234652 1_555
Mo5 O13 2.274426 1_555
O0 O32 1.419054 1_555
O0 Te0 2.091922 1_555
O1 O33 1.419054 1_555
O1 Te0 2.091922 1_555
O2 Te0 1.939364 1_555
O3 Te0 1.939364 1_555
O12 Te0 1.950182 1_555
O13 Te0 1.950182 1_555
O14 O28 1.375048 1_555
O15 O29 1.375048 1_555
O24 O26 1.387668 1_655
O25 O27 1.387668 1_455
O26 O38 1.266659 1_565
O27 O39 1.266659 1_545
O30 O43 1.229776 1_555
O31 O42 1.229776 1_555
O34 O40 1.230283 1_555
O35 O41 1.230283 1_555
O36 O37 1.230178 1_665
