# generated using pymatgen
data_CoPSe
_symmetry_space_group_name_H-M   'P 1'
_cell_length_a   5.60804800
_cell_length_b   5.60804800
_cell_length_c   5.60804800
_cell_angle_alpha   90.00000000
_cell_angle_beta   90.00000000
_cell_angle_gamma   90.00000000
_symmetry_Int_Tables_number   1
_chemical_formula_structural   CoPSe
_chemical_formula_sum   'Co4 P4 Se4'
_cell_volume   176.37424450
_cell_formula_units_Z   4
loop_
 _symmetry_equiv_pos_site_id
 _symmetry_equiv_pos_as_xyz
  1  'x, y, z'
loop_
 _atom_site_type_symbol
 _atom_site_label
 _atom_site_symmetry_multiplicity
 _atom_site_fract_x
 _atom_site_fract_y
 _atom_site_fract_z
 _atom_site_occupancy
  Co  Co0  1  0.48882500  0.51117500  0.01117500  1
  Co  Co1  1  0.51117500  0.01117500  0.48882500  1
  Co  Co2  1  0.01117500  0.48882500  0.51117500  1
  Co  Co3  1  0.98882500  0.98882500  0.98882500  1
  P  P0  1  0.87961800  0.12038200  0.62038200  1
  P  P1  1  0.12038200  0.62038200  0.87961800  1
  P  P2  1  0.62038200  0.87961800  0.12038200  1
  P  P3  1  0.37961800  0.37961800  0.37961800  1
  Se  Se0  1  0.11985400  0.88014600  0.38014600  1
  Se  Se1  1  0.88014600  0.38014600  0.11985400  1
  Se  Se2  1  0.38014600  0.11985400  0.88014600  1
  Se  Se3  1  0.61985400  0.61985400  0.61985400  1
loop_
_geom_bond_atom_site_label_1
_geom_bond_atom_site_label_2
_geom_bond_distance
_geom_bond_site_symmetry_2
Co0 P2 2.277887 1_555
Co0 P3 2.277887 1_555
Co0 P1 2.277887 1_554
Co0 Se3 2.393210 1_554
Co0 Se1 2.393210 1_555
Co0 Se2 2.393210 1_554
Co1 P2 2.277887 1_545
Co1 P3 2.277887 1_555
Co1 P0 2.277887 1_555
Co1 Se3 2.393210 1_545
Co1 Se2 2.393210 1_555
Co1 Se0 2.393210 1_545
Co2 P0 2.277887 1_455
Co2 P3 2.277887 1_555
Co2 P1 2.277887 1_555
Co2 Se3 2.393210 1_455
Co2 Se1 2.393210 1_455
Co2 Se0 2.393210 1_555
Co3 P2 2.277887 1_556
Co3 P1 2.277887 1_655
Co3 P0 2.277887 1_565
Co3 Se1 2.393210 1_566
Co3 Se2 2.393210 1_665
Co3 Se0 2.393210 1_656
P0 Se0 2.333514 1_645
P1 Se1 2.333514 1_456
P2 Se2 2.333514 1_564
P3 Se3 2.333514 1_555
