# generated using pymatgen
data_Zr5CrSb2
_symmetry_space_group_name_H-M   'P 1'
_cell_length_a   5.57309200
_cell_length_b   8.36741279
_cell_length_c   8.36741279
_cell_angle_alpha   83.63253304
_cell_angle_beta   70.54760793
_cell_angle_gamma   70.54760793
_symmetry_Int_Tables_number   1
_chemical_formula_structural   Zr5CrSb2
_chemical_formula_sum   'Zr10 Cr2 Sb4'
_cell_volume   346.91808687
_cell_formula_units_Z   2
loop_
 _symmetry_equiv_pos_site_id
 _symmetry_equiv_pos_as_xyz
  1  'x, y, z'
loop_
 _atom_site_type_symbol
 _atom_site_label
 _atom_site_symmetry_multiplicity
 _atom_site_fract_x
 _atom_site_fract_y
 _atom_site_fract_z
 _atom_site_occupancy
  Zr  Zr0  1  0.07251900  0.13012800  0.72483500  1
  Zr  Zr1  1  0.92748100  0.86987200  0.27516500  1
  Zr  Zr2  1  0.79735400  0.27516500  0.13012800  1
  Zr  Zr3  1  0.42748100  0.27516500  0.86987200  1
  Zr  Zr4  1  0.20264600  0.72483500  0.86987200  1
  Zr  Zr5  1  0.57251900  0.72483500  0.13012800  1
  Zr  Zr6  1  0.70264600  0.86987200  0.72483500  1
  Zr  Zr7  1  0.29735400  0.13012800  0.27516500  1
  Zr  Zr8  1  0.25000000  0.50000000  0.50000000  1
  Zr  Zr9  1  0.75000000  0.50000000  0.50000000  1
  Cr  Cr0  1  0.25000000  0.00000000  0.00000000  1
  Cr  Cr1  1  0.75000000  0.00000000  0.00000000  1
  Sb  Sb0  1  0.16323800  0.50000000  0.17352300  1
  Sb  Sb1  1  0.83676200  0.50000000  0.82647700  1
  Sb  Sb2  1  0.33676200  0.82647700  0.50000000  1
  Sb  Sb3  1  0.66323800  0.17352300  0.50000000  1
loop_
_geom_bond_atom_site_label_1
_geom_bond_atom_site_label_2
_geom_bond_distance
_geom_bond_site_symmetry_2
Zr8 Zr9 2.786546 1_455
Zr8 Zr9 2.786546 1_555
Cr0 Zr3 2.776417 1_554
Cr0 Zr0 2.776417 1_554
Cr0 Zr6 2.776417 1_544
Cr0 Zr2 2.776417 1_455
Cr0 Zr7 2.776420 1_555
Cr0 Zr4 2.776420 1_544
Cr0 Zr1 2.776420 1_445
Cr0 Zr5 2.776420 1_545
Cr0 Cr1 2.786546 1_455
Cr0 Cr1 2.786546 1_555
Cr1 Zr5 2.776417 1_545
Cr1 Zr1 2.776417 1_545
Cr1 Zr4 2.776417 1_644
Cr1 Zr7 2.776417 1_555
Cr1 Zr6 2.776420 1_544
Cr1 Zr2 2.776420 1_555
Cr1 Zr0 2.776420 1_654
Cr1 Zr3 2.776420 1_554
Sb0 Zr9 2.928502 1_455
Sb0 Zr8 2.928505 1_555
Sb0 Zr4 2.980990 1_554
Sb0 Zr3 2.980990 1_554
Sb0 Zr1 3.026394 1_455
Sb0 Zr7 3.026394 1_555
Sb0 Zr2 3.320956 1_455
Sb0 Zr5 3.320957 1_455
Sb0 Zr5 3.320966 1_555
Sb0 Zr2 3.320966 1_555
Sb1 Zr8 2.928502 1_655
Sb1 Zr9 2.928505 1_555
Sb1 Zr2 2.980990 1_556
Sb1 Zr5 2.980990 1_556
Sb1 Zr0 3.026394 1_655
Sb1 Zr6 3.026394 1_555
Sb1 Zr4 3.320956 1_655
Sb1 Zr3 3.320957 1_655
Sb1 Zr3 3.320966 1_555
Sb1 Zr4 3.320966 1_555
Sb2 Zr9 2.928502 1_555
Sb2 Zr8 2.928505 1_555
Sb2 Zr7 2.980990 1_565
Sb2 Zr0 2.980990 1_565
Sb2 Zr5 3.026394 1_555
Sb2 Zr4 3.026394 1_555
Sb2 Zr6 3.320956 1_555
Sb2 Zr1 3.320957 1_555
Sb2 Zr1 3.320966 1_455
Sb2 Zr6 3.320966 1_455
Sb3 Zr8 2.928502 1_555
Sb3 Zr9 2.928505 1_555
Sb3 Zr6 2.980990 1_545
Sb3 Zr1 2.980990 1_545
Sb3 Zr3 3.026394 1_555
Sb3 Zr2 3.026394 1_555
Sb3 Zr7 3.320956 1_555
Sb3 Zr0 3.320957 1_555
Sb3 Zr0 3.320966 1_655
Sb3 Zr7 3.320966 1_655
