# generated using pymatgen
data_Te2MoW3(SeS2)2
_symmetry_space_group_name_H-M   'P 1'
_cell_length_a   3.30727014
_cell_length_b   3.30727014
_cell_length_c   40.95305700
_cell_angle_alpha   90.00000000
_cell_angle_beta   90.00000000
_cell_angle_gamma   120.00000282
_symmetry_Int_Tables_number   1
_chemical_formula_structural   Te2MoW3(SeS2)2
_chemical_formula_sum   'Te2 Mo1 W3 Se2 S4'
_cell_volume   387.93260709
_cell_formula_units_Z   1
loop_
 _symmetry_equiv_pos_site_id
 _symmetry_equiv_pos_as_xyz
  1  'x, y, z'
loop_
 _atom_site_type_symbol
 _atom_site_label
 _atom_site_symmetry_multiplicity
 _atom_site_fract_x
 _atom_site_fract_y
 _atom_site_fract_z
 _atom_site_occupancy
  Te  Te0  1  0.33333300  0.66666700  0.42144200  1
  Te  Te1  1  0.33333300  0.66666700  0.51484800  1
  Mo  Mo0  1  0.00000000  0.00000000  0.46814400  1
  W  W0  1  0.00000000  0.00000000  0.09396800  1
  W  W1  1  0.33333300  0.66666700  0.28054600  1
  W  W2  1  0.33333300  0.66666700  0.66023000  1
  Se  Se0  1  0.00000000  0.00000000  0.70148600  1
  Se  Se1  1  0.00000000  0.00000000  0.61897500  1
  S  S0  1  0.00000000  0.00000000  0.31802900  1
  S  S1  1  0.33333300  0.66666700  0.05652500  1
  S  S2  1  0.33333300  0.66666700  0.13144100  1
  S  S3  1  0.00000000  0.00000000  0.24311400  1
loop_
_geom_bond_atom_site_label_1
_geom_bond_atom_site_label_2
_geom_bond_distance
_geom_bond_site_symmetry_2
Mo0 Te0 2.702592 1_545
Mo0 Te0 2.702594 1_445
Mo0 Te0 2.702594 1_555
Mo0 Te1 2.702650 1_545
Mo0 Te1 2.702652 1_445
Mo0 Te1 2.702652 1_555
Se0 W2 2.549630 1_545
Se0 W2 2.549633 1_555
Se0 W2 2.549633 1_445
Se1 W2 2.549603 1_545
Se1 W2 2.549605 1_445
Se1 W2 2.549605 1_555
S0 W1 2.449972 1_545
S0 W1 2.449974 1_445
S0 W1 2.449974 1_555
S1 W0 2.448946 1_565
S1 W0 2.448948 1_555
S1 W0 2.448948 1_665
S2 W0 2.449715 1_565
S2 W0 2.449718 1_665
S2 W0 2.449718 1_555
S3 W1 2.448664 1_545
S3 W1 2.448666 1_445
S3 W1 2.448666 1_555
