# generated using pymatgen
data_Cs3LaI6
_symmetry_space_group_name_H-M   'P 1'
_cell_length_a   10.72609421
_cell_length_b   10.72609421
_cell_length_c   8.84658565
_cell_angle_alpha   90.00000000
_cell_angle_beta   90.00000000
_cell_angle_gamma   90.00000000
_symmetry_Int_Tables_number   1
_chemical_formula_structural   Cs3LaI6
_chemical_formula_sum   'Cs6 La2 I12'
_cell_volume   1017.79169058
_cell_formula_units_Z   2
loop_
 _symmetry_equiv_pos_site_id
 _symmetry_equiv_pos_as_xyz
  1  'x, y, z'
loop_
 _atom_site_type_symbol
 _atom_site_label
 _atom_site_symmetry_multiplicity
 _atom_site_fract_x
 _atom_site_fract_y
 _atom_site_fract_z
 _atom_site_occupancy
  Cs  Cs0  1  -0.00000000  -0.00000000  0.50000000  1
  Cs  Cs1  1  -0.00000000  -0.00000000  0.00000000  1
  Cs  Cs2  1  0.23206143  0.58838225  0.50000000  1
  Cs  Cs3  1  0.76793857  0.41161775  0.50000000  1
  Cs  Cs4  1  0.41161775  0.23206143  0.00000000  1
  Cs  Cs5  1  0.58838225  0.76793857  0.00000000  1
  La  La0  1  0.50000000  -0.00000000  0.50000000  1
  La  La1  1  -0.00000000  0.50000000  0.00000000  1
  I  I0  1  0.70148334  0.06166417  0.75225942  1
  I  I1  1  0.29851666  0.93833583  0.75225942  1
  I  I2  1  0.93833583  0.70148334  0.25225942  1
  I  I3  1  0.06166417  0.29851666  0.25225942  1
  I  I4  1  0.29851666  0.93833583  0.24774058  1
  I  I5  1  0.70148334  0.06166417  0.24774058  1
  I  I6  1  0.06166417  0.29851666  0.74774058  1
  I  I7  1  0.93833583  0.70148334  0.74774058  1
  I  I8  1  0.57115442  0.71354589  0.50000000  1
  I  I9  1  0.42884558  0.28645411  0.50000000  1
  I  I10  1  0.28645411  0.57115442  0.00000000  1
  I  I11  1  0.71354589  0.42884558  0.00000000  1
loop_
_geom_bond_atom_site_label_1
_geom_bond_atom_site_label_2
_geom_bond_distance
_geom_bond_site_symmetry_2
Cs0 I3 3.936129 1_555
Cs0 I7 3.936129 1_445
Cs0 I2 3.936129 1_445
Cs0 I6 3.936129 1_555
Cs0 I4 3.958528 1_545
Cs0 I1 3.958528 1_545
Cs0 I5 3.958528 1_455
Cs0 I0 3.958528 1_455
Cs1 I4 3.936129 1_545
Cs1 I1 3.936129 1_544
Cs1 I0 3.936129 1_454
Cs1 I5 3.936129 1_455
Cs1 I3 3.958528 1_555
Cs1 I6 3.958528 1_554
Cs1 I2 3.958528 1_445
Cs1 I7 3.958528 1_444
Cs2 I9 3.865631 1_555
Cs2 I8 3.877004 1_555
Cs2 I7 4.025033 1_455
Cs2 I2 4.025033 1_455
Cs2 I3 4.220249 1_555
Cs2 I6 4.220249 1_555
Cs2 I1 4.424710 1_555
Cs2 I4 4.424710 1_555
Cs2 I10 4.465428 1_555
Cs2 I10 4.465428 1_556
Cs3 I8 3.865631 1_555
Cs3 I9 3.877004 1_555
Cs3 I3 4.025033 1_655
Cs3 I6 4.025033 1_655
Cs3 I7 4.220249 1_555
Cs3 I2 4.220249 1_555
Cs3 I0 4.424710 1_555
Cs3 I5 4.424710 1_555
Cs3 I11 4.465428 1_555
Cs3 I11 4.465428 1_556
Cs4 I11 3.865631 1_555
Cs4 I10 3.877004 1_555
Cs4 I4 4.025033 1_545
Cs4 I1 4.025033 1_544
Cs4 I5 4.220249 1_555
Cs4 I0 4.220249 1_554
Cs4 I3 4.424710 1_555
Cs4 I6 4.424710 1_554
Cs4 I9 4.465428 1_555
Cs4 I9 4.465428 1_554
Cs5 I10 3.865631 1_555
Cs5 I11 3.877004 1_555
Cs5 I0 4.025033 1_564
Cs5 I5 4.025033 1_565
Cs5 I4 4.220249 1_555
Cs5 I1 4.220249 1_554
Cs5 I2 4.424710 1_555
Cs5 I7 4.424710 1_554
Cs5 I8 4.465428 1_554
Cs5 I8 4.465428 1_555
I0 La0 3.176184 1_555
I1 La0 3.176184 1_565
I2 La1 3.176184 1_655
I3 La1 3.176184 1_555
I4 La0 3.176184 1_565
I5 La0 3.176184 1_555
I6 La1 3.176184 1_556
I7 La1 3.176184 1_656
I8 La0 3.165905 1_565
I9 La0 3.165905 1_555
I10 La1 3.165905 1_555
I11 La1 3.165905 1_655
