# generated using pymatgen
data_Ca3Cu6(PO4)8
_symmetry_space_group_name_H-M   'P 1'
_cell_length_a   4.90528000
_cell_length_b   9.19730353
_cell_length_c   14.55826296
_cell_angle_alpha   84.80347664
_cell_angle_beta   89.88181327
_cell_angle_gamma   89.35624162
_symmetry_Int_Tables_number   1
_chemical_formula_structural   Ca3Cu6(PO4)8
_chemical_formula_sum   'Ca3 Cu6 P8 O32'
_cell_volume   654.05994740
_cell_formula_units_Z   1
loop_
 _symmetry_equiv_pos_site_id
 _symmetry_equiv_pos_as_xyz
  1  'x, y, z'
loop_
 _atom_site_type_symbol
 _atom_site_label
 _atom_site_symmetry_multiplicity
 _atom_site_fract_x
 _atom_site_fract_y
 _atom_site_fract_z
 _atom_site_occupancy
  Ca  Ca0  1  0.53461700  0.45409000  0.73575300  1
  Ca  Ca1  1  0.50356500  0.50160200  0.00625800  1
  Ca  Ca2  1  0.00050900  0.00026400  0.49823900  1
  Cu  Cu0  1  0.96614900  0.33114500  0.37557800  1
  Cu  Cu1  1  0.46479200  0.16670900  0.12287000  1
  Cu  Cu2  1  0.02353300  0.67591200  0.61943100  1
  Cu  Cu3  1  0.54128400  0.84029500  0.87938300  1
  Cu  Cu4  1  0.50311500  0.49980600  0.49662300  1
  Cu  Cu5  1  0.00126100  0.00042000  0.00019200  1
  P  P0  1  0.51139900  0.87504300  0.66137800  1
  P  P1  1  0.00918000  0.62227000  0.84104800  1
  P  P2  1  0.49179500  0.12298500  0.33927800  1
  P  P3  1  0.99007600  0.37719000  0.16016500  1
  P  P4  1  0.49227800  0.15463100  0.90997700  1
  P  P5  1  0.98970100  0.34429500  0.59175400  1
  P  P6  1  0.51075700  0.84670500  0.09178800  1
  P  P7  1  0.01054800  0.65398700  0.40708600  1
  O  O0  1  0.45457500  0.91546600  0.76124100  1
  O  O1  1  0.95955300  0.58347900  0.73823000  1
  O  O2  1  0.54509100  0.08437000  0.23878200  1
  O  O3  1  0.04401000  0.41643100  0.26047600  1
  O  O4  1  0.68431600  0.37009700  0.13767200  1
  O  O5  1  0.18434700  0.13084900  0.36256500  1
  O  O6  1  0.31930600  0.61354500  0.85795700  1
  O  O7  1  0.81954300  0.87064700  0.63756700  1
  O  O8  1  0.41391600  0.71460700  0.64896200  1
  O  O9  1  0.90693300  0.77952900  0.85430800  1
  O  O10  1  0.59413200  0.27972700  0.35445200  1
  O  O11  1  0.09686400  0.21966600  0.14598100  1
  O  O12  1  0.36555200  0.99138600  0.59871500  1
  O  O13  1  0.85158300  0.50381100  0.89746700  1
  O  O14  1  0.63454000  0.00383800  0.40080700  1
  O  O15  1  0.13099600  0.49608400  0.09913900  1
  O  O16  1  0.31397700  0.00864800  0.92235600  1
  O  O17  1  0.80493400  0.49313700  0.57860900  1
  O  O18  1  0.68745300  0.99308400  0.07683700  1
  O  O19  1  0.18567800  0.50599400  0.42298000  1
  O  O20  1  0.07865600  0.75303900  0.32340200  1
  O  O21  1  0.57908800  0.74784500  0.17533300  1
  O  O22  1  0.90288100  0.26237700  0.67997700  1
  O  O23  1  0.42166900  0.25314400  0.82556200  1
  O  O24  1  0.43027800  0.24089700  0.99567000  1
  O  O25  1  0.93979200  0.25961300  0.50592700  1
  O  O26  1  0.56706900  0.76098300  0.00422400  1
  O  O27  1  0.06896000  0.74211900  0.49320100  1
  O  O28  1  0.70903500  0.60121100  0.40357400  1
  O  O29  1  0.20791400  0.90143500  0.09437900  1
  O  O30  1  0.29076200  0.40131700  0.59641800  1
  O  O31  1  0.79232100  0.09881100  0.90510300  1
loop_
_geom_bond_atom_site_label_1
_geom_bond_atom_site_label_2
_geom_bond_distance
_geom_bond_site_symmetry_2
Ca0 O23 2.239291 1_555
Ca0 O1 2.413741 1_555
Ca0 O30 2.445923 1_555
Ca0 O6 2.619437 1_555
Ca0 O17 2.640138 1_555
Ca0 O8 2.666631 1_555
Ca0 O22 2.685762 1_555
Ca0 O13 2.897457 1_555
Ca0 O1 3.050670 1_455
Ca1 O15 2.269449 1_555
Ca1 O13 2.325282 1_554
Ca1 O4 2.339425 1_555
Ca1 O26 2.406843 1_555
Ca1 O24 2.447225 1_554
Ca1 O6 2.474416 1_554
Ca2 O14 2.288331 1_455
Ca2 O12 2.310539 1_545
Ca2 O5 2.396721 1_555
Ca2 O27 2.401803 1_545
Ca2 O25 2.413131 1_455
Ca2 O7 2.429360 1_445
Cu0 O3 1.826218 1_655
Cu0 O10 1.922591 1_555
Cu0 O25 1.955861 1_555
Cu0 O19 2.113043 1_655
Cu0 O5 2.143174 1_655
Cu1 O2 1.827780 1_555
Cu1 O11 1.901348 1_555
Cu1 O24 1.921784 1_554
Cu1 O18 2.084160 1_545
Cu1 O4 2.196465 1_555
Cu2 O1 1.884101 1_455
Cu2 O27 1.896366 1_555
Cu2 O8 2.006216 1_555
Cu2 O7 2.079202 1_455
Cu2 O17 2.133772 1_455
Cu3 O0 1.843396 1_555
Cu3 O26 1.900004 1_556
Cu3 O9 1.916867 1_555
Cu3 O16 2.041066 1_565
Cu3 O6 2.408828 1_555
Cu4 O28 1.873987 1_555
Cu4 O19 1.889742 1_555
Cu4 O17 1.900597 1_555
Cu4 O30 1.947534 1_555
Cu5 O29 1.869611 1_545
Cu5 O31 1.882498 1_454
Cu5 O18 1.897553 1_445
Cu5 O16 1.903341 1_554
O0 P0 1.556745 1_555
O1 P1 1.589750 1_655
O2 P2 1.557385 1_555
O3 P3 1.559518 1_455
O4 P3 1.539186 1_555
O5 P2 1.547407 1_555
O6 P1 1.541583 1_555
O7 P0 1.550978 1_555
O8 P0 1.582147 1_555
O9 P1 1.553914 1_655
O10 P2 1.566341 1_555
O11 P3 1.566121 1_455
O12 P0 1.515819 1_555
O13 P1 1.521012 1_655
O14 P2 1.516919 1_555
O15 P3 1.517024 1_455
O16 P4 1.606875 1_555
O17 P5 1.630170 1_555
O18 P6 1.607322 1_555
O19 P7 1.600535 1_555
O20 P7 1.493288 1_555
O21 P6 1.487581 1_555
O22 P5 1.492749 1_555
O23 P4 1.498060 1_555
O24 P4 1.565462 1_555
O25 P5 1.552288 1_555
O26 P6 1.580718 1_555
O27 P7 1.581657 1_555
O28 P7 1.564168 1_655
O29 P6 1.564611 1_555
O30 P5 1.576334 1_455
O31 P4 1.556913 1_555
