# generated using pymatgen
data_Li7V3P8O29
_symmetry_space_group_name_H-M   'P 1'
_cell_length_a   9.82974300
_cell_length_b   9.84234840
_cell_length_c   13.91904220
_cell_angle_alpha   89.80815344
_cell_angle_beta   89.72971473
_cell_angle_gamma   60.21379073
_symmetry_Int_Tables_number   1
_chemical_formula_structural   Li7V3P8O29
_chemical_formula_sum   'Li14 V6 P16 O58'
_cell_volume   1168.71153734
_cell_formula_units_Z   2
loop_
 _symmetry_equiv_pos_site_id
 _symmetry_equiv_pos_as_xyz
  1  'x, y, z'
loop_
 _atom_site_type_symbol
 _atom_site_label
 _atom_site_symmetry_multiplicity
 _atom_site_fract_x
 _atom_site_fract_y
 _atom_site_fract_z
 _atom_site_occupancy
  Li  Li0  1  0.23375200  0.09285000  0.56490000  1
  Li  Li1  1  0.09414900  0.66893200  0.56613500  1
  Li  Li2  1  0.33011300  0.33357400  0.38542800  1
  Li  Li3  1  0.33480700  0.32742700  0.88428400  1
  Li  Li4  1  0.23246300  0.68063500  0.06057500  1
  Li  Li5  1  0.67704500  0.08945000  0.06305100  1
  Li  Li6  1  0.33234400  0.76454300  0.44428300  1
  Li  Li7  1  0.67333200  0.23220300  0.56752300  1
  Li  Li8  1  0.33584900  0.89958400  0.93386800  1
  Li  Li9  1  0.76363500  0.33924900  0.93463300  1
  Li  Li10  1  0.90209500  0.33020100  0.43942600  1
  Li  Li11  1  0.89313700  0.76836600  0.94008200  1
  Li  Li12  1  0.01365200  0.04415300  0.00355800  1
  Li  Li13  1  0.96828300  0.97411500  0.49675200  1
  V  V0  1  0.44078500  0.56176000  0.24860500  1
  V  V1  1  0.56551400  0.43461500  0.74867800  1
  V  V2  1  0.43651600  0.99994100  0.74746800  1
  V  V3  1  0.56462400  0.99549900  0.25179600  1
  V  V4  1  0.00299600  0.43569400  0.24645500  1
  V  V5  1  0.99470400  0.56583300  0.75060800  1
  P  P0  1  0.08663600  0.22054000  0.84042700  1
  P  P1  1  0.22301800  0.08862800  0.34012500  1
  P  P2  1  0.09270600  0.68547700  0.34487600  1
  P  P3  1  0.33696100  0.33294000  0.12904300  1
  P  P4  1  0.32940200  0.33566700  0.62559200  1
  P  P5  1  0.22363600  0.68128100  0.84267300  1
  P  P6  1  0.31219000  0.77243900  0.65668800  1
  P  P7  1  0.68369100  0.08951000  0.84738300  1
  P  P8  1  0.31152400  0.91397900  0.15395400  1
  P  P9  1  0.68342600  0.22255300  0.34219300  1
  P  P10  1  0.77722000  0.31095000  0.15762700  1
  P  P11  1  0.66776700  0.66435500  0.37016400  1
  P  P12  1  0.66628500  0.66809800  0.87391300  1
  P  P13  1  0.91801800  0.31226300  0.65324600  1
  P  P14  1  0.77841500  0.91563000  0.65999600  1
  P  P15  1  0.91508900  0.77429400  0.16008600  1
  O  O0  1  0.00440900  0.23231600  0.56153700  1
  O  O1  1  0.07778900  0.25351500  0.34173800  1
  O  O2  1  0.22179800  0.98847200  0.06394100  1
  O  O3  1  0.25279700  0.08038200  0.84504500  1
  O  O4  1  0.09705600  0.37339800  0.83193200  1
  O  O5  1  0.18981000  0.33394300  0.17569600  1
  O  O6  1  0.10352800  0.52348300  0.33260700  1
  O  O7  1  0.00371100  0.77239500  0.07090500  1
  O  O8  1  0.07544600  0.66384600  0.84462100  1
  O  O9  1  0.31802700  0.19263600  0.66310900  1
  O  O10  1  0.37023400  0.10823200  0.32694300  1
  O  O11  1  0.18655800  0.48931100  0.66939600  1
  O  O12  1  0.33539900  0.33545900  0.02182300  1
  O  O13  1  0.31800600  0.34543400  0.51698400  1
  O  O14  1  0.33030200  0.48633600  0.16837700  1
  O  O15  1  0.51792000  0.11256700  0.83385800  1
  O  O16  1  0.48746900  0.18674500  0.16874700  1
  O  O17  1  0.26125000  0.66070100  0.34082300  1
  O  O18  1  0.20504800  0.78684100  0.75008800  1
  O  O19  1  0.22158900  0.77250100  0.56781600  1
  O  O20  1  0.22604000  0.77115100  0.93067700  1
  O  O21  1  0.36802000  0.51678300  0.83353500  1
  O  O22  1  0.48566000  0.32419900  0.66013700  1
  O  O23  1  0.33948000  0.74513900  0.16129100  1
  O  O24  1  0.52045200  0.37324900  0.32936800  1
  O  O25  1  0.65626900  0.08278100  0.34092400  1
  O  O26  1  0.20418600  0.00340500  0.24708300  1
  O  O27  1  0.23276400  0.99506300  0.42832200  1
  O  O28  1  0.80006800  0.00801200  0.58048000  1
  O  O29  1  0.32651600  0.92017800  0.65680900  1
  O  O30  1  0.46985300  0.62374300  0.66810200  1
  O  O31  1  0.67323700  0.25049800  0.84466800  1
  O  O32  1  0.51891600  0.66321500  0.32701500  1
  O  O33  1  0.61874500  0.46442400  0.16687700  1
  O  O34  1  0.78372400  0.21868200  0.06920500  1
  O  O35  1  0.76969200  0.22674900  0.43080600  1
  O  O36  1  0.79134400  0.20546500  0.25068700  1
  O  O37  1  0.75350800  0.33322700  0.65478500  1
  O  O38  1  0.51552800  0.81136500  0.83337500  1
  O  O39  1  0.46401400  0.92000200  0.16514300  1
  O  O40  1  0.67364800  0.51499100  0.83773000  1
  O  O41  1  0.67896700  0.67320400  0.98084500  1
  O  O42  1  0.65870600  0.66686500  0.47628200  1
  O  O43  1  0.81921400  0.51661400  0.33052000  1
  O  O44  1  0.62248600  0.91878500  0.66147000  1
  O  O45  1  0.66204800  0.81279000  0.32248100  1
  O  O46  1  0.91387000  0.34183300  0.16260700  1
  O  O47  1  0.01322400  0.20015600  0.74145900  1
  O  O48  1  0.98648500  0.21741100  0.92146900  1
  O  O49  1  0.91465000  0.46908100  0.66934800  1
  O  O50  1  0.81317200  0.67460600  0.82701200  1
  O  O51  1  0.90768700  0.62258600  0.17249400  1
  O  O52  1  0.74983000  0.91906200  0.16185500  1
  O  O53  1  0.76478400  0.99979800  0.93821500  1
  O  O54  1  0.79601800  0.98948800  0.76049400  1
  O  O55  1  0.92044000  0.74689800  0.66062600  1
  O  O56  1  0.01172500  0.77158000  0.43458600  1
  O  O57  1  0.00361900  0.79225600  0.25281600  1
loop_
_geom_bond_atom_site_label_1
_geom_bond_atom_site_label_2
_geom_bond_distance
_geom_bond_site_symmetry_2
Li0 O29 1.952721 1_545
Li0 O0 1.973504 1_555
Li0 O9 2.085055 1_555
Li0 O27 2.135898 1_545
Li1 O19 1.969275 1_555
Li1 O55 1.979402 1_455
Li1 O56 2.053822 1_555
Li1 O11 2.101472 1_555
Li2 O13 1.834779 1_555
Li2 O6 2.205694 1_555
Li2 O10 2.208462 1_555
Li2 O24 2.229799 1_555
Li3 O12 1.916463 1_556
Li3 O15 2.102565 1_555
Li3 O21 2.161594 1_555
Li3 O4 2.271719 1_555
Li4 O7 1.967893 1_555
Li4 O20 2.000286 1_554
Li4 O23 2.039192 1_555
Li4 O14 2.236217 1_555
Li5 O53 1.944662 1_544
Li5 O52 2.004337 1_545
Li5 O34 2.012846 1_555
Li5 O16 2.182797 1_555
Li6 O27 1.986805 1_555
Li6 O19 2.011580 1_555
Li6 O17 2.082238 1_555
Li6 O32 2.277664 1_555
Li7 O28 1.929189 1_555
Li7 O37 1.969953 1_555
Li7 O22 2.051980 1_555
Li7 O35 2.110572 1_555
Li8 O3 1.978127 1_565
Li8 O20 2.030126 1_555
Li8 O38 2.071499 1_555
Li8 O2 2.077767 1_556
Li9 O48 1.912578 1_555
Li9 O31 1.977295 1_555
Li9 O40 2.017202 1_555
Li9 O34 2.170600 1_556
Li10 O0 1.967491 1_655
Li10 O35 2.015918 1_555
Li10 O1 2.022570 1_655
Li10 O43 2.199045 1_555
Li11 O53 1.981325 1_555
Li11 O8 2.047027 1_655
Li11 O7 2.135585 1_656
Li11 O50 2.165282 1_555
Li12 O48 1.955038 1_454
Li12 O2 2.022881 1_545
Li12 O34 2.242237 1_455
Li13 O28 1.907860 1_565
Li13 O56 2.016714 1_655
Li13 O35 2.452568 1_565
Li13 O19 2.493388 1_655
O0 P13 1.517357 1_455
O1 P1 1.539591 1_555
O1 V4 2.048924 1_555
O2 P8 1.499000 1_555
O3 P0 1.528619 1_555
O3 V2 2.072755 1_545
O4 P0 1.561964 1_555
O4 V5 1.995992 1_455
O5 P3 1.578291 1_555
O5 V4 1.872830 1_555
O6 P2 1.554264 1_555
O6 V4 2.006876 1_555
O7 P15 1.507931 1_455
O8 P5 1.549198 1_555
O8 V5 2.012912 1_455
O9 P4 1.554960 1_555
O9 V2 2.033617 1_545
O10 P1 1.561937 1_555
O10 V3 1.964392 1_545
O11 P4 1.587010 1_555
O11 V5 1.993986 1_455
O12 P3 1.492547 1_555
O13 P4 1.515589 1_555
O14 P3 1.578122 1_555
O14 V0 1.948208 1_555
O15 P7 1.541875 1_555
O15 V2 2.052867 1_545
O16 P3 1.565889 1_555
O16 V3 2.007460 1_545
O17 P2 1.550893 1_555
O17 V0 1.997477 1_555
O18 P5 1.605678 1_555
O18 P6 1.630758 1_555
O19 P6 1.527479 1_555
O20 P5 1.520430 1_555
O21 P5 1.538987 1_555
O21 V1 2.059790 1_555
O22 P4 1.561256 1_555
O22 V1 2.044899 1_555
O23 P8 1.546897 1_555
O23 V0 1.984260 1_555
O24 P9 1.561523 1_555
O24 V0 1.967282 1_555
O25 P9 1.526154 1_555
O25 V3 1.968526 1_545
O26 P1 1.605869 1_555
O26 P8 1.624906 1_545
O27 P1 1.506707 1_565
O28 P14 1.510080 1_545
O29 P6 1.528953 1_555
O29 V2 2.059294 1_555
O30 P6 1.521928 1_555
O30 V1 1.965712 1_555
O31 P7 1.536390 1_555
O31 V1 2.069042 1_555
O32 P11 1.589447 1_555
O32 V0 1.885531 1_555
O33 P10 1.544837 1_555
O33 V0 1.896163 1_555
O34 P10 1.514133 1_555
O35 P9 1.512303 1_555
O36 P9 1.608501 1_555
O36 P10 1.620023 1_555
O37 P13 1.525194 1_555
O37 V1 2.066997 1_555
O38 P12 1.558597 1_555
O38 V2 2.009869 1_555
O39 P8 1.537898 1_555
O39 V3 1.931923 1_555
O40 P12 1.557597 1_555
O40 V1 2.036289 1_555
O41 P12 1.497281 1_555
O42 P11 1.478874 1_555
O43 P11 1.575449 1_555
O43 V4 1.955460 1_655
O44 P14 1.517598 1_555
O44 V2 1.986860 1_555
O45 P11 1.578066 1_555
O45 V3 1.845257 1_555
O46 P10 1.519258 1_555
O46 V4 1.950387 1_655
O47 P13 1.605219 1_455
O47 P0 1.616686 1_555
O48 P0 1.503983 1_655
O49 P13 1.544366 1_555
O49 V5 1.888240 1_555
O50 P12 1.611745 1_555
O50 V5 1.884931 1_555
O51 P15 1.539724 1_555
O51 V4 1.898779 1_655
O52 P15 1.539445 1_555
O52 V3 2.017817 1_555
O53 P7 1.521919 1_565
O54 P7 1.601995 1_565
O54 P14 1.627631 1_555
O55 P14 1.550359 1_555
O55 V5 1.994648 1_555
O56 P2 1.496164 1_555
O57 P2 1.612611 1_555
O57 P15 1.618476 1_455
