# generated using pymatgen
data_Al3Co(W3C)3
_symmetry_space_group_name_H-M   'P 1'
_cell_length_a   7.94736973
_cell_length_b   7.94736973
_cell_length_c   7.85413800
_cell_angle_alpha   90.00000000
_cell_angle_beta   90.00000000
_cell_angle_gamma   119.99999774
_symmetry_Int_Tables_number   1
_chemical_formula_structural   Al3Co(W3C)3
_chemical_formula_sum   'Al6 Co2 W18 C6'
_cell_volume   429.61160553
_cell_formula_units_Z   2
loop_
 _symmetry_equiv_pos_site_id
 _symmetry_equiv_pos_as_xyz
  1  'x, y, z'
loop_
 _atom_site_type_symbol
 _atom_site_label
 _atom_site_symmetry_multiplicity
 _atom_site_fract_x
 _atom_site_fract_y
 _atom_site_fract_z
 _atom_site_occupancy
  Al  Al0  1  0.11029600  0.88970400  0.25000000  1
  Al  Al1  1  0.11029600  0.22059100  0.25000000  1
  Al  Al2  1  0.77940900  0.88970400  0.25000000  1
  Al  Al3  1  0.88970400  0.11029600  0.75000000  1
  Al  Al4  1  0.88970400  0.77940900  0.75000000  1
  Al  Al5  1  0.22059100  0.11029600  0.75000000  1
  Co  Co0  1  0.00000000  0.00000000  0.50000000  1
  Co  Co1  1  0.00000000  0.00000000  0.00000000  1
  W  W0  1  0.79679000  0.20321000  0.42877300  1
  W  W1  1  0.79679000  0.59358000  0.42877300  1
  W  W2  1  0.40642000  0.20321000  0.42877300  1
  W  W3  1  0.20321000  0.79679000  0.57122700  1
  W  W4  1  0.20321000  0.40642000  0.57122700  1
  W  W5  1  0.59358000  0.79679000  0.57122700  1
  W  W6  1  0.20321000  0.79679000  0.92877300  1
  W  W7  1  0.20321000  0.40642000  0.92877300  1
  W  W8  1  0.59358000  0.79679000  0.92877300  1
  W  W9  1  0.79679000  0.20321000  0.07122700  1
  W  W10  1  0.79679000  0.59358000  0.07122700  1
  W  W11  1  0.40642000  0.20321000  0.07122700  1
  W  W12  1  0.55135800  0.44864200  0.75000000  1
  W  W13  1  0.55135800  0.10271600  0.75000000  1
  W  W14  1  0.89728400  0.44864200  0.75000000  1
  W  W15  1  0.44864200  0.55135800  0.25000000  1
  W  W16  1  0.44864200  0.89728400  0.25000000  1
  W  W17  1  0.10271600  0.55135800  0.25000000  1
  C  C0  1  0.00000000  0.50000000  0.50000000  1
  C  C1  1  0.50000000  0.50000000  0.50000000  1
  C  C2  1  0.50000000  0.00000000  0.50000000  1
  C  C3  1  0.00000000  0.50000000  0.00000000  1
  C  C4  1  0.50000000  0.50000000  0.00000000  1
  C  C5  1  0.50000000  0.00000000  0.00000000  1
loop_
_geom_bond_atom_site_label_1
_geom_bond_atom_site_label_2
_geom_bond_distance
_geom_bond_site_symmetry_2
Al0 Co1 2.482047 1_565
Al0 Co0 2.482047 1_565
Al0 Al1 2.629681 1_565
Al0 Al2 2.629681 1_455
Al0 W16 2.659352 1_555
Al0 W17 2.659352 1_555
Al0 W2 2.802540 1_565
Al0 W11 2.802540 1_565
Al0 W1 2.802540 1_455
Al0 W10 2.802540 1_455
Al0 W3 2.828628 1_555
Al0 W6 2.828628 1_554
Al1 Co0 2.482043 1_555
Al1 Co1 2.482043 1_555
Al1 Al2 2.629681 1_445
Al1 W15 2.659356 1_555
Al1 W17 2.659360 1_555
Al1 W11 2.802536 1_555
Al1 W2 2.802536 1_555
Al1 W0 2.802543 1_455
Al1 W9 2.802543 1_455
Al1 W7 2.828631 1_554
Al1 W4 2.828631 1_555
Al2 Co0 2.482043 1_665
Al2 Co1 2.482043 1_665
Al2 W15 2.659356 1_555
Al2 W16 2.659360 1_555
Al2 W10 2.802536 1_555
Al2 W1 2.802536 1_555
Al2 W0 2.802543 1_565
Al2 W9 2.802543 1_565
Al2 W8 2.828631 1_554
Al2 W5 2.828631 1_555
Al3 Co0 2.482047 1_655
Al3 Co1 2.482047 1_656
Al3 Al5 2.629681 1_655
Al3 Al4 2.629681 1_545
Al3 W14 2.659352 1_555
Al3 W13 2.659352 1_555
Al3 W4 2.802540 1_655
Al3 W7 2.802540 1_655
Al3 W8 2.802540 1_545
Al3 W5 2.802540 1_545
Al3 W0 2.828628 1_555
Al3 W9 2.828628 1_556
Al4 Co0 2.482043 1_665
Al4 Co1 2.482043 1_666
Al4 Al5 2.629681 1_665
Al4 W12 2.659356 1_555
Al4 W14 2.659360 1_555
Al4 W5 2.802536 1_555
Al4 W8 2.802536 1_555
Al4 W6 2.802543 1_655
Al4 W3 2.802543 1_655
Al4 W1 2.828631 1_555
Al4 W10 2.828631 1_556
Al5 Co1 2.482043 1_556
Al5 Co0 2.482043 1_555
Al5 W12 2.659356 1_555
Al5 W13 2.659360 1_555
Al5 W7 2.802536 1_555
Al5 W4 2.802536 1_555
Al5 W3 2.802543 1_545
Al5 W6 2.802543 1_545
Al5 W2 2.828631 1_555
Al5 W11 2.828631 1_556
Co0 W3 2.852628 1_545
Co0 W0 2.852628 1_455
Co0 W2 2.852628 1_555
Co0 W4 2.852628 1_555
Co0 W1 2.852628 1_445
Co0 W5 2.852628 1_445
Co1 W6 2.852628 1_544
Co1 W9 2.852628 1_455
Co1 W10 2.852628 1_445
Co1 W8 2.852628 1_444
Co1 W11 2.852628 1_555
Co1 W7 2.852628 1_554
C0 W17 2.086925 1_555
C0 W14 2.086925 1_455
C0 W1 2.162252 1_455
C0 W4 2.162252 1_555
C0 W0 2.162252 1_455
C0 W3 2.162252 1_555
C1 W15 2.086925 1_555
C1 W12 2.086925 1_555
C1 W1 2.162252 1_555
C1 W5 2.162252 1_555
C1 W2 2.162252 1_555
C1 W4 2.162252 1_555
C2 W13 2.086925 1_555
C2 W16 2.086925 1_545
C2 W5 2.162252 1_545
C2 W2 2.162252 1_555
C2 W3 2.162252 1_545
C2 W0 2.162252 1_555
C3 W17 2.086925 1_555
C3 W14 2.086925 1_454
C3 W7 2.162252 1_554
C3 W10 2.162252 1_455
C3 W9 2.162252 1_455
C3 W6 2.162252 1_554
C4 W15 2.086925 1_555
C4 W12 2.086925 1_554
C4 W11 2.162252 1_555
C4 W7 2.162252 1_554
C4 W8 2.162252 1_554
C4 W10 2.162252 1_555
C5 W13 2.086925 1_554
C5 W16 2.086925 1_545
C5 W8 2.162252 1_544
C5 W11 2.162252 1_555
C5 W6 2.162252 1_544
C5 W9 2.162252 1_555
