# generated using pymatgen
data_CaMg
_symmetry_space_group_name_H-M   'P 1'
_cell_length_a   11.17581392
_cell_length_b   7.78854310
_cell_length_c   35.54970532
_cell_angle_alpha   90.00000000
_cell_angle_beta   90.00000000
_cell_angle_gamma   90.00000000
_symmetry_Int_Tables_number   1
_chemical_formula_structural   CaMg
_chemical_formula_sum   'Ca48 Mg48'
_cell_volume   3094.36396347
_cell_formula_units_Z   48
loop_
 _symmetry_equiv_pos_site_id
 _symmetry_equiv_pos_as_xyz
  1  'x, y, z'
loop_
 _atom_site_type_symbol
 _atom_site_label
 _atom_site_symmetry_multiplicity
 _atom_site_fract_x
 _atom_site_fract_y
 _atom_site_fract_z
 _atom_site_occupancy
  Ca  Ca0_0  1  0.00000000  0.25000000  0.25907992  1
  Ca  Ca0_1  1  0.00000000  0.25000000  0.75907992  1
  Ca  Ca0_2  1  0.00000000  0.75000000  0.25907992  1
  Ca  Ca0_3  1  0.00000000  0.75000000  0.75907992  1
  Ca  Ca0_4  1  0.50000000  0.25000000  0.25907992  1
  Ca  Ca0_5  1  0.50000000  0.25000000  0.75907992  1
  Ca  Ca0_6  1  0.50000000  0.75000000  0.25907992  1
  Ca  Ca0_7  1  0.50000000  0.75000000  0.75907992  1
  Ca  Ca1_0  1  0.00000000  0.00000000  0.16122227  1
  Ca  Ca1_1  1  0.00000000  0.00000000  0.66122227  1
  Ca  Ca1_2  1  0.00000000  0.50000000  0.16122227  1
  Ca  Ca1_3  1  0.00000000  0.50000000  0.66122227  1
  Ca  Ca1_4  1  0.50000000  0.00000000  0.16122227  1
  Ca  Ca1_5  1  0.50000000  0.00000000  0.66122227  1
  Ca  Ca1_6  1  0.50000000  0.50000000  0.16122227  1
  Ca  Ca1_7  1  0.50000000  0.50000000  0.66122227  1
  Ca  Ca2_0  1  0.25000000  0.25000000  0.19328203  1
  Ca  Ca2_1  1  0.25000000  0.25000000  0.69328203  1
  Ca  Ca2_2  1  0.25000000  0.75000000  0.19328203  1
  Ca  Ca2_3  1  0.25000000  0.75000000  0.69328203  1
  Ca  Ca2_4  1  0.75000000  0.25000000  0.19328203  1
  Ca  Ca2_5  1  0.75000000  0.25000000  0.69328203  1
  Ca  Ca2_6  1  0.75000000  0.75000000  0.19328203  1
  Ca  Ca2_7  1  0.75000000  0.75000000  0.69328203  1
  Ca  Ca3_0  1  0.00000000  0.00000000  0.00907992  1
  Ca  Ca3_1  1  0.00000000  0.00000000  0.50907992  1
  Ca  Ca3_2  1  0.00000000  0.50000000  0.00907992  1
  Ca  Ca3_3  1  0.00000000  0.50000000  0.50907992  1
  Ca  Ca3_4  1  0.50000000  0.00000000  0.00907992  1
  Ca  Ca3_5  1  0.50000000  0.00000000  0.50907992  1
  Ca  Ca3_6  1  0.50000000  0.50000000  0.00907992  1
  Ca  Ca3_7  1  0.50000000  0.50000000  0.50907992  1
  Ca  Ca4_0  1  0.00000000  0.25000000  0.41122227  1
  Ca  Ca4_1  1  0.00000000  0.25000000  0.91122227  1
  Ca  Ca4_2  1  0.00000000  0.75000000  0.41122227  1
  Ca  Ca4_3  1  0.00000000  0.75000000  0.91122227  1
  Ca  Ca4_4  1  0.50000000  0.25000000  0.41122227  1
  Ca  Ca4_5  1  0.50000000  0.25000000  0.91122227  1
  Ca  Ca4_6  1  0.50000000  0.75000000  0.41122227  1
  Ca  Ca4_7  1  0.50000000  0.75000000  0.91122227  1
  Ca  Ca5_0  1  0.25000000  0.00000000  0.44328203  1
  Ca  Ca5_1  1  0.25000000  0.00000000  0.94328203  1
  Ca  Ca5_2  1  0.25000000  0.50000000  0.44328203  1
  Ca  Ca5_3  1  0.25000000  0.50000000  0.94328203  1
  Ca  Ca5_4  1  0.75000000  0.00000000  0.44328203  1
  Ca  Ca5_5  1  0.75000000  0.00000000  0.94328203  1
  Ca  Ca5_6  1  0.75000000  0.50000000  0.44328203  1
  Ca  Ca5_7  1  0.75000000  0.50000000  0.94328203  1
  Mg  Mg0_0  1  0.00000000  0.25000000  0.08470868  1
  Mg  Mg0_1  1  0.00000000  0.25000000  0.58470868  1
  Mg  Mg0_2  1  0.00000000  0.75000000  0.08470868  1
  Mg  Mg0_3  1  0.00000000  0.75000000  0.58470868  1
  Mg  Mg0_4  1  0.50000000  0.25000000  0.08470868  1
  Mg  Mg0_5  1  0.50000000  0.25000000  0.58470868  1
  Mg  Mg0_6  1  0.50000000  0.75000000  0.08470868  1
  Mg  Mg0_7  1  0.50000000  0.75000000  0.58470868  1
  Mg  Mg1_0  1  0.25000000  0.25000000  0.03166084  1
  Mg  Mg1_1  1  0.25000000  0.25000000  0.53166084  1
  Mg  Mg1_2  1  0.25000000  0.75000000  0.03166084  1
  Mg  Mg1_3  1  0.25000000  0.75000000  0.53166084  1
  Mg  Mg1_4  1  0.75000000  0.25000000  0.03166084  1
  Mg  Mg1_5  1  0.75000000  0.25000000  0.53166084  1
  Mg  Mg1_6  1  0.75000000  0.75000000  0.03166084  1
  Mg  Mg1_7  1  0.75000000  0.75000000  0.53166084  1
  Mg  Mg2_0  1  0.25000000  0.00000000  0.10337975  1
  Mg  Mg2_1  1  0.25000000  0.00000000  0.60337975  1
  Mg  Mg2_2  1  0.25000000  0.50000000  0.10337975  1
  Mg  Mg2_3  1  0.25000000  0.50000000  0.60337975  1
  Mg  Mg2_4  1  0.75000000  0.00000000  0.10337975  1
  Mg  Mg2_5  1  0.75000000  0.00000000  0.60337975  1
  Mg  Mg2_6  1  0.75000000  0.50000000  0.10337975  1
  Mg  Mg2_7  1  0.75000000  0.50000000  0.60337975  1
  Mg  Mg3_0  1  0.00000000  0.00000000  0.33470868  1
  Mg  Mg3_1  1  0.00000000  0.00000000  0.83470868  1
  Mg  Mg3_2  1  0.00000000  0.50000000  0.33470868  1
  Mg  Mg3_3  1  0.00000000  0.50000000  0.83470868  1
  Mg  Mg3_4  1  0.50000000  0.00000000  0.33470868  1
  Mg  Mg3_5  1  0.50000000  0.00000000  0.83470868  1
  Mg  Mg3_6  1  0.50000000  0.50000000  0.33470868  1
  Mg  Mg3_7  1  0.50000000  0.50000000  0.83470868  1
  Mg  Mg4_0  1  0.25000000  0.00000000  0.28166084  1
  Mg  Mg4_1  1  0.25000000  0.00000000  0.78166084  1
  Mg  Mg4_2  1  0.25000000  0.50000000  0.28166084  1
  Mg  Mg4_3  1  0.25000000  0.50000000  0.78166084  1
  Mg  Mg4_4  1  0.75000000  0.00000000  0.28166084  1
  Mg  Mg4_5  1  0.75000000  0.00000000  0.78166084  1
  Mg  Mg4_6  1  0.75000000  0.50000000  0.28166084  1
  Mg  Mg4_7  1  0.75000000  0.50000000  0.78166084  1
  Mg  Mg5_0  1  0.25000000  0.25000000  0.35337975  1
  Mg  Mg5_1  1  0.25000000  0.25000000  0.85337975  1
  Mg  Mg5_2  1  0.25000000  0.75000000  0.35337975  1
  Mg  Mg5_3  1  0.25000000  0.75000000  0.85337975  1
  Mg  Mg5_4  1  0.75000000  0.25000000  0.35337975  1
  Mg  Mg5_5  1  0.75000000  0.25000000  0.85337975  1
  Mg  Mg5_6  1  0.75000000  0.75000000  0.35337975  1
  Mg  Mg5_7  1  0.75000000  0.75000000  0.85337975  1
loop_
_geom_bond_atom_site_label_1
_geom_bond_atom_site_label_2
_geom_bond_distance
_geom_bond_site_symmetry_2
Ca0_0 Mg3_0 3.319608 1_555
Ca0_0 Mg3_2 3.319608 1_555
Ca0_0 Mg4_4 3.498845 1_455
Ca0_0 Mg4_6 3.498845 1_455
Ca0_0 Mg4_2 3.498845 1_555
Ca0_0 Mg4_0 3.498845 1_555
Ca0_0 Ca2_4 3.643837 1_455
Ca0_0 Ca2_0 3.643837 1_555
Ca0_0 Ca0_2 3.894272 1_555
Ca0_0 Ca0_2 3.894272 1_545
Ca0_0 Ca1_2 3.986661 1_555
Ca0_0 Ca1_0 3.986661 1_555
Ca0_1 Mg3_3 3.319608 1_555
Ca0_1 Mg3_1 3.319608 1_555
Ca0_1 Mg4_7 3.498845 1_455
Ca0_1 Mg4_5 3.498845 1_455
Ca0_1 Mg4_3 3.498845 1_555
Ca0_1 Mg4_1 3.498845 1_555
Ca0_1 Ca2_5 3.643837 1_455
Ca0_1 Ca2_1 3.643837 1_555
Ca0_1 Ca0_3 3.894272 1_545
Ca0_1 Ca0_3 3.894272 1_555
Ca0_1 Ca1_1 3.986661 1_555
Ca0_1 Ca1_3 3.986661 1_555
Ca0_2 Mg3_2 3.319608 1_555
Ca0_2 Mg3_0 3.319608 1_565
Ca0_2 Mg4_4 3.498845 1_465
Ca0_2 Mg4_6 3.498845 1_455
Ca0_2 Mg4_0 3.498845 1_565
Ca0_2 Mg4_2 3.498845 1_555
Ca0_2 Ca2_6 3.643837 1_455
Ca0_2 Ca2_2 3.643837 1_555
Ca0_2 Ca1_0 3.986661 1_565
Ca0_2 Ca1_2 3.986661 1_555
Ca0_3 Mg3_1 3.319608 1_565
Ca0_3 Mg3_3 3.319608 1_555
Ca0_3 Mg4_7 3.498845 1_455
Ca0_3 Mg4_5 3.498845 1_465
Ca0_3 Mg4_1 3.498845 1_565
Ca0_3 Mg4_3 3.498845 1_555
Ca0_3 Ca2_7 3.643837 1_455
Ca0_3 Ca2_3 3.643837 1_555
Ca0_3 Ca1_1 3.986661 1_565
Ca0_3 Ca1_3 3.986661 1_555
Ca0_4 Mg3_4 3.319608 1_555
Ca0_4 Mg3_6 3.319608 1_555
Ca0_4 Mg4_2 3.498845 1_555
Ca0_4 Mg4_0 3.498845 1_555
Ca0_4 Mg4_6 3.498845 1_555
Ca0_4 Mg4_4 3.498845 1_555
Ca0_4 Ca2_0 3.643837 1_555
Ca0_4 Ca2_4 3.643837 1_555
Ca0_4 Ca0_6 3.894272 1_555
Ca0_4 Ca0_6 3.894272 1_545
Ca0_4 Ca1_6 3.986661 1_555
Ca0_4 Ca1_4 3.986661 1_555
Ca0_5 Mg3_7 3.319608 1_555
Ca0_5 Mg3_5 3.319608 1_555
Ca0_5 Mg4_3 3.498845 1_555
Ca0_5 Mg4_1 3.498845 1_555
Ca0_5 Mg4_5 3.498845 1_555
Ca0_5 Mg4_7 3.498845 1_555
Ca0_5 Ca2_1 3.643837 1_555
Ca0_5 Ca2_5 3.643837 1_555
Ca0_5 Ca0_7 3.894272 1_545
Ca0_5 Ca0_7 3.894272 1_555
Ca0_5 Ca1_7 3.986661 1_555
Ca0_5 Ca1_5 3.986661 1_555
Ca0_6 Mg3_6 3.319608 1_555
Ca0_6 Mg3_4 3.319608 1_565
Ca0_6 Mg4_0 3.498845 1_565
Ca0_6 Mg4_2 3.498845 1_555
Ca0_6 Mg4_4 3.498845 1_565
Ca0_6 Mg4_6 3.498845 1_555
Ca0_6 Ca2_2 3.643837 1_555
Ca0_6 Ca2_6 3.643837 1_555
Ca0_6 Ca1_4 3.986661 1_565
Ca0_6 Ca1_6 3.986661 1_555
Ca0_7 Mg3_5 3.319608 1_565
Ca0_7 Mg3_7 3.319608 1_555
Ca0_7 Mg4_1 3.498845 1_565
Ca0_7 Mg4_3 3.498845 1_555
Ca0_7 Mg4_5 3.498845 1_565
Ca0_7 Mg4_7 3.498845 1_555
Ca0_7 Ca2_3 3.643837 1_555
Ca0_7 Ca2_7 3.643837 1_555
Ca0_7 Ca1_5 3.986661 1_565
Ca0_7 Ca1_7 3.986661 1_555
Ca1_0 Mg0_0 3.345135 1_555
Ca1_0 Mg0_2 3.345135 1_545
Ca1_0 Mg2_4 3.469075 1_455
Ca1_0 Mg2_0 3.469075 1_555
Ca1_0 Ca2_4 3.591165 1_455
Ca1_0 Ca2_6 3.591165 1_445
Ca1_0 Ca2_0 3.591165 1_555
Ca1_0 Ca2_2 3.591165 1_545
Ca1_0 Ca1_2 3.894272 1_555
Ca1_0 Ca1_2 3.894272 1_545
Ca1_1 Mg0_3 3.345135 1_545
Ca1_1 Mg0_1 3.345135 1_555
Ca1_1 Mg2_5 3.469075 1_455
Ca1_1 Mg2_1 3.469075 1_555
Ca1_1 Ca2_5 3.591165 1_455
Ca1_1 Ca2_7 3.591165 1_445
Ca1_1 Ca2_1 3.591165 1_555
Ca1_1 Ca2_3 3.591165 1_545
Ca1_1 Ca1_3 3.894272 1_555
Ca1_1 Ca1_3 3.894272 1_545
Ca1_2 Mg0_0 3.345135 1_555
Ca1_2 Mg0_2 3.345135 1_555
Ca1_2 Mg2_6 3.469075 1_455
Ca1_2 Mg2_2 3.469075 1_555
Ca1_2 Ca2_4 3.591165 1_455
Ca1_2 Ca2_6 3.591165 1_455
Ca1_2 Ca2_0 3.591165 1_555
Ca1_2 Ca2_2 3.591165 1_555
Ca1_3 Mg0_3 3.345135 1_555
Ca1_3 Mg0_1 3.345135 1_555
Ca1_3 Mg2_7 3.469075 1_455
Ca1_3 Mg2_3 3.469075 1_555
Ca1_3 Ca2_7 3.591165 1_455
Ca1_3 Ca2_5 3.591165 1_455
Ca1_3 Ca2_1 3.591165 1_555
Ca1_3 Ca2_3 3.591165 1_555
Ca1_4 Mg0_4 3.345135 1_555
Ca1_4 Mg0_6 3.345135 1_545
Ca1_4 Mg2_0 3.469075 1_555
Ca1_4 Mg2_4 3.469075 1_555
Ca1_4 Ca2_2 3.591165 1_545
Ca1_4 Ca2_0 3.591165 1_555
Ca1_4 Ca2_4 3.591165 1_555
Ca1_4 Ca2_6 3.591165 1_545
Ca1_4 Ca1_6 3.894272 1_555
Ca1_4 Ca1_6 3.894272 1_545
Ca1_5 Mg0_7 3.345135 1_545
Ca1_5 Mg0_5 3.345135 1_555
Ca1_5 Mg2_1 3.469075 1_555
Ca1_5 Mg2_5 3.469075 1_555
Ca1_5 Ca2_1 3.591165 1_555
Ca1_5 Ca2_3 3.591165 1_545
Ca1_5 Ca2_5 3.591165 1_555
Ca1_5 Ca2_7 3.591165 1_545
Ca1_5 Ca1_7 3.894272 1_555
Ca1_5 Ca1_7 3.894272 1_545
Ca1_6 Mg0_4 3.345135 1_555
Ca1_6 Mg0_6 3.345135 1_555
Ca1_6 Mg2_2 3.469075 1_555
Ca1_6 Mg2_6 3.469075 1_555
Ca1_6 Ca2_0 3.591165 1_555
Ca1_6 Ca2_2 3.591165 1_555
Ca1_6 Ca2_4 3.591165 1_555
Ca1_6 Ca2_6 3.591165 1_555
Ca1_7 Mg0_7 3.345135 1_555
Ca1_7 Mg0_5 3.345135 1_555
Ca1_7 Mg2_3 3.469075 1_555
Ca1_7 Mg2_7 3.469075 1_555
Ca1_7 Ca2_1 3.591165 1_555
Ca1_7 Ca2_3 3.591165 1_555
Ca1_7 Ca2_5 3.591165 1_555
Ca1_7 Ca2_7 3.591165 1_555
Ca2_0 Mg4_0 3.696282 1_555
Ca2_0 Mg4_2 3.696282 1_555
Ca2_0 Mg2_0 3.742426 1_555
Ca2_0 Mg2_2 3.742426 1_555
Ca2_0 Ca2_2 3.894272 1_555
Ca2_0 Ca2_2 3.894272 1_545
Ca2_1 Mg4_1 3.696282 1_555
Ca2_1 Mg4_3 3.696282 1_555
Ca2_1 Mg2_3 3.742426 1_555
Ca2_1 Mg2_1 3.742426 1_555
Ca2_1 Ca2_3 3.894272 1_555
Ca2_1 Ca2_3 3.894272 1_545
Ca2_2 Mg4_0 3.696282 1_565
Ca2_2 Mg4_2 3.696282 1_555
Ca2_2 Mg2_0 3.742426 1_565
Ca2_2 Mg2_2 3.742426 1_555
Ca2_3 Mg4_1 3.696282 1_565
Ca2_3 Mg4_3 3.696282 1_555
Ca2_3 Mg2_3 3.742426 1_555
Ca2_3 Mg2_1 3.742426 1_565
Ca2_4 Mg4_4 3.696282 1_555
Ca2_4 Mg4_6 3.696282 1_555
Ca2_4 Mg2_6 3.742426 1_555
Ca2_4 Mg2_4 3.742426 1_555
Ca2_4 Ca2_6 3.894272 1_545
Ca2_4 Ca2_6 3.894272 1_555
Ca2_5 Mg4_5 3.696282 1_555
Ca2_5 Mg4_7 3.696282 1_555
Ca2_5 Mg2_5 3.742426 1_555
Ca2_5 Mg2_7 3.742426 1_555
Ca2_5 Ca2_7 3.894272 1_545
Ca2_5 Ca2_7 3.894272 1_555
Ca2_6 Mg4_4 3.696282 1_565
Ca2_6 Mg4_6 3.696282 1_555
Ca2_6 Mg2_4 3.742426 1_565
Ca2_6 Mg2_6 3.742426 1_555
Ca2_7 Mg4_5 3.696282 1_565
Ca2_7 Mg4_7 3.696282 1_555
Ca2_7 Mg2_7 3.742426 1_555
Ca2_7 Mg2_5 3.742426 1_565
Ca3_0 Mg0_0 3.319608 1_555
Ca3_0 Mg0_2 3.319608 1_545
Ca3_0 Mg1_4 3.498845 1_455
Ca3_0 Mg1_6 3.498845 1_445
Ca3_0 Mg1_0 3.498845 1_555
Ca3_0 Mg1_2 3.498845 1_545
Ca3_0 Ca5_5 3.643837 1_454
Ca3_0 Ca5_1 3.643837 1_554
Ca3_0 Ca3_2 3.894272 1_555
Ca3_0 Ca3_2 3.894272 1_545
Ca3_0 Ca4_1 3.986661 1_554
Ca3_0 Ca4_3 3.986661 1_544
Ca3_1 Mg0_1 3.319608 1_555
Ca3_1 Mg0_3 3.319608 1_545
Ca3_1 Mg1_5 3.498845 1_455
Ca3_1 Mg1_7 3.498845 1_445
Ca3_1 Mg1_3 3.498845 1_545
Ca3_1 Mg1_1 3.498845 1_555
Ca3_1 Ca5_4 3.643837 1_455
Ca3_1 Ca5_0 3.643837 1_555
Ca3_1 Ca3_3 3.894272 1_555
Ca3_1 Ca3_3 3.894272 1_545
Ca3_1 Ca4_0 3.986661 1_555
Ca3_1 Ca4_2 3.986661 1_545
Ca3_2 Mg0_0 3.319608 1_555
Ca3_2 Mg0_2 3.319608 1_555
Ca3_2 Mg1_4 3.498845 1_455
Ca3_2 Mg1_6 3.498845 1_455
Ca3_2 Mg1_0 3.498845 1_555
Ca3_2 Mg1_2 3.498845 1_555
Ca3_2 Ca5_7 3.643837 1_454
Ca3_2 Ca5_3 3.643837 1_554
Ca3_2 Ca4_1 3.986661 1_554
Ca3_2 Ca4_3 3.986661 1_554
Ca3_3 Mg0_1 3.319608 1_555
Ca3_3 Mg0_3 3.319608 1_555
Ca3_3 Mg1_5 3.498845 1_455
Ca3_3 Mg1_7 3.498845 1_455
Ca3_3 Mg1_1 3.498845 1_555
Ca3_3 Mg1_3 3.498845 1_555
Ca3_3 Ca5_6 3.643837 1_455
Ca3_3 Ca5_2 3.643837 1_555
Ca3_3 Ca4_0 3.986661 1_555
Ca3_3 Ca4_2 3.986661 1_555
Ca3_4 Mg0_4 3.319608 1_555
Ca3_4 Mg0_6 3.319608 1_545
Ca3_4 Mg1_0 3.498845 1_555
Ca3_4 Mg1_2 3.498845 1_545
Ca3_4 Mg1_6 3.498845 1_545
Ca3_4 Mg1_4 3.498845 1_555
Ca3_4 Ca5_1 3.643837 1_554
Ca3_4 Ca5_5 3.643837 1_554
Ca3_4 Ca3_6 3.894272 1_555
Ca3_4 Ca3_6 3.894272 1_545
Ca3_4 Ca4_5 3.986661 1_554
Ca3_4 Ca4_7 3.986661 1_544
Ca3_5 Mg0_5 3.319608 1_555
Ca3_5 Mg0_7 3.319608 1_545
Ca3_5 Mg1_3 3.498845 1_545
Ca3_5 Mg1_1 3.498845 1_555
Ca3_5 Mg1_5 3.498845 1_555
Ca3_5 Mg1_7 3.498845 1_545
Ca3_5 Ca5_0 3.643837 1_555
Ca3_5 Ca5_4 3.643837 1_555
Ca3_5 Ca3_7 3.894272 1_555
Ca3_5 Ca3_7 3.894272 1_545
Ca3_5 Ca4_6 3.986661 1_545
Ca3_5 Ca4_4 3.986661 1_555
Ca3_6 Mg0_4 3.319608 1_555
Ca3_6 Mg0_6 3.319608 1_555
Ca3_6 Mg1_0 3.498845 1_555
Ca3_6 Mg1_2 3.498845 1_555
Ca3_6 Mg1_4 3.498845 1_555
Ca3_6 Mg1_6 3.498845 1_555
Ca3_6 Ca5_3 3.643837 1_554
Ca3_6 Ca5_7 3.643837 1_554
Ca3_6 Ca4_5 3.986661 1_554
Ca3_6 Ca4_7 3.986661 1_554
Ca3_7 Mg0_5 3.319608 1_555
Ca3_7 Mg0_7 3.319608 1_555
Ca3_7 Mg1_1 3.498845 1_555
Ca3_7 Mg1_3 3.498845 1_555
Ca3_7 Mg1_5 3.498845 1_555
Ca3_7 Mg1_7 3.498845 1_555
Ca3_7 Ca5_2 3.643837 1_555
Ca3_7 Ca5_6 3.643837 1_555
Ca3_7 Ca4_6 3.986661 1_555
Ca3_7 Ca4_4 3.986661 1_555
Ca4_0 Mg3_0 3.345135 1_555
Ca4_0 Mg3_2 3.345135 1_555
Ca4_0 Mg5_4 3.469075 1_455
Ca4_0 Mg5_0 3.469075 1_555
Ca4_0 Ca5_6 3.591165 1_455
Ca4_0 Ca5_4 3.591165 1_455
Ca4_0 Ca5_2 3.591165 1_555
Ca4_0 Ca5_0 3.591165 1_555
Ca4_0 Ca4_2 3.894272 1_545
Ca4_0 Ca4_2 3.894272 1_555
Ca4_1 Mg3_1 3.345135 1_555
Ca4_1 Mg3_3 3.345135 1_555
Ca4_1 Mg5_5 3.469075 1_455
Ca4_1 Mg5_1 3.469075 1_555
Ca4_1 Ca5_5 3.591165 1_455
Ca4_1 Ca5_7 3.591165 1_455
Ca4_1 Ca5_1 3.591165 1_555
Ca4_1 Ca5_3 3.591165 1_555
Ca4_1 Ca4_3 3.894272 1_545
Ca4_1 Ca4_3 3.894272 1_555
Ca4_2 Mg3_2 3.345135 1_555
Ca4_2 Mg3_0 3.345135 1_565
Ca4_2 Mg5_6 3.469075 1_455
Ca4_2 Mg5_2 3.469075 1_555
Ca4_2 Ca5_4 3.591165 1_465
Ca4_2 Ca5_6 3.591165 1_455
Ca4_2 Ca5_0 3.591165 1_565
Ca4_2 Ca5_2 3.591165 1_555
Ca4_3 Mg3_1 3.345135 1_565
Ca4_3 Mg3_3 3.345135 1_555
Ca4_3 Mg5_7 3.469075 1_455
Ca4_3 Mg5_3 3.469075 1_555
Ca4_3 Ca5_5 3.591165 1_465
Ca4_3 Ca5_7 3.591165 1_455
Ca4_3 Ca5_1 3.591165 1_565
Ca4_3 Ca5_3 3.591165 1_555
Ca4_4 Mg3_4 3.345135 1_555
Ca4_4 Mg3_6 3.345135 1_555
Ca4_4 Mg5_0 3.469075 1_555
Ca4_4 Mg5_4 3.469075 1_555
Ca4_4 Ca5_2 3.591165 1_555
Ca4_4 Ca5_0 3.591165 1_555
Ca4_4 Ca5_6 3.591165 1_555
Ca4_4 Ca5_4 3.591165 1_555
Ca4_4 Ca4_6 3.894272 1_545
Ca4_4 Ca4_6 3.894272 1_555
Ca4_5 Mg3_7 3.345135 1_555
Ca4_5 Mg3_5 3.345135 1_555
Ca4_5 Mg5_1 3.469075 1_555
Ca4_5 Mg5_5 3.469075 1_555
Ca4_5 Ca5_1 3.591165 1_555
Ca4_5 Ca5_3 3.591165 1_555
Ca4_5 Ca5_7 3.591165 1_555
Ca4_5 Ca5_5 3.591165 1_555
Ca4_5 Ca4_7 3.894272 1_545
Ca4_5 Ca4_7 3.894272 1_555
Ca4_6 Mg3_4 3.345135 1_565
Ca4_6 Mg3_6 3.345135 1_555
Ca4_6 Mg5_2 3.469075 1_555
Ca4_6 Mg5_6 3.469075 1_555
Ca4_6 Ca5_0 3.591165 1_565
Ca4_6 Ca5_2 3.591165 1_555
Ca4_6 Ca5_4 3.591165 1_565
Ca4_6 Ca5_6 3.591165 1_555
Ca4_7 Mg3_5 3.345135 1_565
Ca4_7 Mg3_7 3.345135 1_555
Ca4_7 Mg5_3 3.469075 1_555
Ca4_7 Mg5_7 3.469075 1_555
Ca4_7 Ca5_1 3.591165 1_565
Ca4_7 Ca5_3 3.591165 1_555
Ca4_7 Ca5_7 3.591165 1_555
Ca4_7 Ca5_5 3.591165 1_565
Ca5_0 Mg1_3 3.696282 1_545
Ca5_0 Mg1_1 3.696282 1_555
Ca5_0 Mg5_0 3.742426 1_555
Ca5_0 Mg5_2 3.742426 1_545
Ca5_0 Ca5_2 3.894272 1_555
Ca5_0 Ca5_2 3.894272 1_545
Ca5_1 Mg1_2 3.696282 1_546
Ca5_1 Mg1_0 3.696282 1_556
Ca5_1 Mg5_1 3.742426 1_555
Ca5_1 Mg5_3 3.742426 1_545
Ca5_1 Ca5_3 3.894272 1_555
Ca5_1 Ca5_3 3.894272 1_545
Ca5_2 Mg1_3 3.696282 1_555
Ca5_2 Mg1_1 3.696282 1_555
Ca5_2 Mg5_0 3.742426 1_555
Ca5_2 Mg5_2 3.742426 1_555
Ca5_3 Mg1_2 3.696282 1_556
Ca5_3 Mg1_0 3.696282 1_556
Ca5_3 Mg5_1 3.742426 1_555
Ca5_3 Mg5_3 3.742426 1_555
Ca5_4 Mg1_5 3.696282 1_555
Ca5_4 Mg1_7 3.696282 1_545
Ca5_4 Mg5_6 3.742426 1_545
Ca5_4 Mg5_4 3.742426 1_555
Ca5_4 Ca5_6 3.894272 1_555
Ca5_4 Ca5_6 3.894272 1_545
Ca5_5 Mg1_4 3.696282 1_556
Ca5_5 Mg1_6 3.696282 1_546
Ca5_5 Mg5_5 3.742426 1_555
Ca5_5 Mg5_7 3.742426 1_545
Ca5_5 Ca5_7 3.894272 1_555
Ca5_5 Ca5_7 3.894272 1_545
Ca5_6 Mg1_5 3.696282 1_555
Ca5_6 Mg1_7 3.696282 1_555
Ca5_6 Mg5_4 3.742426 1_555
Ca5_6 Mg5_6 3.742426 1_555
Ca5_7 Mg1_4 3.696282 1_556
Ca5_7 Mg1_6 3.696282 1_556
Ca5_7 Mg5_5 3.742426 1_555
Ca5_7 Mg5_7 3.742426 1_555
Mg0_0 Mg1_4 3.370838 1_455
Mg0_0 Mg1_0 3.370838 1_555
Mg0_0 Mg2_4 3.469594 1_455
Mg0_0 Mg2_6 3.469594 1_455
Mg0_0 Mg2_0 3.469594 1_555
Mg0_0 Mg2_2 3.469594 1_555
Mg0_1 Mg1_5 3.370838 1_455
Mg0_1 Mg1_1 3.370838 1_555
Mg0_1 Mg2_5 3.469594 1_455
Mg0_1 Mg2_7 3.469594 1_455
Mg0_1 Mg2_1 3.469594 1_555
Mg0_1 Mg2_3 3.469594 1_555
Mg0_2 Mg1_6 3.370838 1_455
Mg0_2 Mg1_2 3.370838 1_555
Mg0_2 Mg2_4 3.469594 1_465
Mg0_2 Mg2_6 3.469594 1_455
Mg0_2 Mg2_0 3.469594 1_565
Mg0_2 Mg2_2 3.469594 1_555
Mg0_3 Mg1_7 3.370838 1_455
Mg0_3 Mg1_3 3.370838 1_555
Mg0_3 Mg2_5 3.469594 1_465
Mg0_3 Mg2_7 3.469594 1_455
Mg0_3 Mg2_3 3.469594 1_555
Mg0_3 Mg2_1 3.469594 1_565
Mg0_4 Mg1_0 3.370838 1_555
Mg0_4 Mg1_4 3.370838 1_555
Mg0_4 Mg2_0 3.469594 1_555
Mg0_4 Mg2_2 3.469594 1_555
Mg0_4 Mg2_6 3.469594 1_555
Mg0_4 Mg2_4 3.469594 1_555
Mg0_5 Mg1_1 3.370838 1_555
Mg0_5 Mg1_5 3.370838 1_555
Mg0_5 Mg2_1 3.469594 1_555
Mg0_5 Mg2_3 3.469594 1_555
Mg0_5 Mg2_7 3.469594 1_555
Mg0_5 Mg2_5 3.469594 1_555
Mg0_6 Mg1_2 3.370838 1_555
Mg0_6 Mg1_6 3.370838 1_555
Mg0_6 Mg2_0 3.469594 1_565
Mg0_6 Mg2_2 3.469594 1_555
Mg0_6 Mg2_4 3.469594 1_565
Mg0_6 Mg2_6 3.469594 1_555
Mg0_7 Mg1_3 3.370838 1_555
Mg0_7 Mg1_7 3.370838 1_555
Mg0_7 Mg2_3 3.469594 1_555
Mg0_7 Mg2_1 3.469594 1_565
Mg0_7 Mg2_7 3.469594 1_555
Mg0_7 Mg2_5 3.469594 1_565
Mg1_0 Mg2_2 3.208072 1_555
Mg1_0 Mg2_0 3.208072 1_555
Mg1_1 Mg2_1 3.208072 1_555
Mg1_1 Mg2_3 3.208072 1_555
Mg1_2 Mg2_0 3.208072 1_565
Mg1_2 Mg2_2 3.208072 1_555
Mg1_3 Mg2_3 3.208072 1_555
Mg1_3 Mg2_1 3.208072 1_565
Mg1_4 Mg2_4 3.208072 1_555
Mg1_4 Mg2_6 3.208072 1_555
Mg1_5 Mg2_5 3.208072 1_555
Mg1_5 Mg2_7 3.208072 1_555
Mg1_6 Mg2_4 3.208072 1_565
Mg1_6 Mg2_6 3.208072 1_555
Mg1_7 Mg2_7 3.208072 1_555
Mg1_7 Mg2_5 3.208072 1_565
Mg3_0 Mg4_4 3.370838 1_455
Mg3_0 Mg4_0 3.370838 1_555
Mg3_0 Mg5_4 3.469594 1_455
Mg3_0 Mg5_6 3.469594 1_445
Mg3_0 Mg5_0 3.469594 1_555
Mg3_0 Mg5_2 3.469594 1_545
Mg3_1 Mg4_5 3.370838 1_455
Mg3_1 Mg4_1 3.370838 1_555
Mg3_1 Mg5_5 3.469594 1_455
Mg3_1 Mg5_7 3.469594 1_445
Mg3_1 Mg5_1 3.469594 1_555
Mg3_1 Mg5_3 3.469594 1_545
Mg3_2 Mg4_6 3.370838 1_455
Mg3_2 Mg4_2 3.370838 1_555
Mg3_2 Mg5_4 3.469594 1_455
Mg3_2 Mg5_6 3.469594 1_455
Mg3_2 Mg5_0 3.469594 1_555
Mg3_2 Mg5_2 3.469594 1_555
Mg3_3 Mg4_7 3.370838 1_455
Mg3_3 Mg4_3 3.370838 1_555
Mg3_3 Mg5_5 3.469594 1_455
Mg3_3 Mg5_7 3.469594 1_455
Mg3_3 Mg5_1 3.469594 1_555
Mg3_3 Mg5_3 3.469594 1_555
Mg3_4 Mg4_0 3.370838 1_555
Mg3_4 Mg4_4 3.370838 1_555
Mg3_4 Mg5_0 3.469594 1_555
Mg3_4 Mg5_2 3.469594 1_545
Mg3_4 Mg5_4 3.469594 1_555
Mg3_4 Mg5_6 3.469594 1_545
Mg3_5 Mg4_1 3.370838 1_555
Mg3_5 Mg4_5 3.370838 1_555
Mg3_5 Mg5_1 3.469594 1_555
Mg3_5 Mg5_3 3.469594 1_545
Mg3_5 Mg5_5 3.469594 1_555
Mg3_5 Mg5_7 3.469594 1_545
Mg3_6 Mg4_2 3.370838 1_555
Mg3_6 Mg4_6 3.370838 1_555
Mg3_6 Mg5_0 3.469594 1_555
Mg3_6 Mg5_2 3.469594 1_555
Mg3_6 Mg5_4 3.469594 1_555
Mg3_6 Mg5_6 3.469594 1_555
Mg3_7 Mg4_3 3.370838 1_555
Mg3_7 Mg4_7 3.370838 1_555
Mg3_7 Mg5_1 3.469594 1_555
Mg3_7 Mg5_3 3.469594 1_555
Mg3_7 Mg5_5 3.469594 1_555
Mg3_7 Mg5_7 3.469594 1_555
Mg4_0 Mg5_0 3.208072 1_555
Mg4_0 Mg5_2 3.208072 1_545
Mg4_1 Mg5_3 3.208072 1_545
Mg4_1 Mg5_1 3.208072 1_555
Mg4_2 Mg5_0 3.208072 1_555
Mg4_2 Mg5_2 3.208072 1_555
Mg4_3 Mg5_1 3.208072 1_555
Mg4_3 Mg5_3 3.208072 1_555
Mg4_4 Mg5_4 3.208072 1_555
Mg4_4 Mg5_6 3.208072 1_545
Mg4_5 Mg5_7 3.208072 1_545
Mg4_5 Mg5_5 3.208072 1_555
Mg4_6 Mg5_4 3.208072 1_555
Mg4_6 Mg5_6 3.208072 1_555
Mg4_7 Mg5_5 3.208072 1_555
Mg4_7 Mg5_7 3.208072 1_555
