# generated using pymatgen
data_Mg2Si3
_symmetry_space_group_name_H-M   'P 1'
_cell_length_a   5.42959707
_cell_length_b   5.42959707
_cell_length_c   18.53523443
_cell_angle_alpha   80.42024985
_cell_angle_beta   80.42024985
_cell_angle_gamma   41.39230718
_symmetry_Int_Tables_number   1
_chemical_formula_structural   Mg2Si3
_chemical_formula_sum   'Mg8 Si12'
_cell_volume   355.54120584
_cell_formula_units_Z   4
loop_
 _symmetry_equiv_pos_site_id
 _symmetry_equiv_pos_as_xyz
  1  'x, y, z'
loop_
 _atom_site_type_symbol
 _atom_site_label
 _atom_site_symmetry_multiplicity
 _atom_site_fract_x
 _atom_site_fract_y
 _atom_site_fract_z
 _atom_site_occupancy
  Mg  Mg0  1  0.10761800  0.10761800  0.19480900  1
  Mg  Mg1  1  0.19624200  0.19624200  0.80237700  1
  Mg  Mg2  1  0.77895700  0.77895700  0.05250500  1
  Mg  Mg3  1  0.52194200  0.52194200  0.94507500  1
  Mg  Mg4  1  0.93787600  0.93787600  0.69702500  1
  Mg  Mg5  1  0.37102700  0.37102700  0.30091800  1
  Mg  Mg6  1  0.60898500  0.60898500  0.55088000  1
  Mg  Mg7  1  0.03460700  0.03460700  0.40679100  1
  Si  Si0  1  0.06092300  0.06092300  0.05024700  1
  Si  Si1  1  0.23807000  0.23807000  0.94506100  1
  Si  Si2  1  0.44764300  0.44764300  0.12822300  1
  Si  Si3  1  0.86152100  0.86152100  0.87417000  1
  Si  Si4  1  0.65622700  0.65622700  0.69413000  1
  Si  Si5  1  0.64355100  0.64355100  0.30339000  1
  Si  Si6  1  0.91028000  0.91028000  0.55207500  1
  Si  Si7  1  0.74900400  0.74900400  0.40882400  1
  Si  Si8  1  0.27682100  0.27682100  0.62067800  1
  Si  Si9  1  0.32968000  0.32968000  0.47590700  1
  Si  Si10  1  0.81890300  0.81890300  0.19645300  1
  Si  Si11  1  0.48287500  0.48287500  0.80039100  1
loop_
_geom_bond_atom_site_label_1
_geom_bond_atom_site_label_2
_geom_bond_distance
_geom_bond_site_symmetry_2
Mg0 Si0 2.803017 1_555
Mg0 Si5 2.850825 1_545
Mg0 Si5 2.850825 1_455
Mg0 Si10 2.883231 1_455
Mg0 Si10 2.883231 1_545
Mg0 Si2 2.925729 1_455
Mg0 Si2 2.925729 1_545
Mg0 Si10 2.927623 1_445
Mg1 Si1 2.752220 1_555
Mg1 Si4 2.857116 1_545
Mg1 Si4 2.857116 1_455
Mg1 Si11 2.899966 1_545
Mg1 Si11 2.899966 1_455
Mg1 Si11 2.905417 1_555
Mg1 Si3 3.011108 1_455
Mg1 Si3 3.011108 1_545
Mg2 Si10 2.769241 1_555
Mg2 Si1 2.848686 1_654
Mg2 Si1 2.848686 1_564
Mg2 Si0 2.857182 1_665
Mg2 Si0 2.936419 1_655
Mg2 Si0 2.936419 1_565
Mg2 Si2 3.073084 1_565
Mg2 Si2 3.073084 1_655
Mg3 Si11 2.779921 1_555
Mg3 Si0 2.813128 1_656
Mg3 Si0 2.813128 1_566
Mg3 Si1 2.883739 1_555
Mg3 Si1 2.915858 1_565
Mg3 Si1 2.915858 1_655
Mg3 Si3 2.971036 1_545
Mg3 Si3 2.971036 1_455
Mg4 Si6 2.750422 1_555
Mg4 Si11 2.805960 1_565
Mg4 Si11 2.805960 1_655
Mg4 Si4 2.871142 1_555
Mg4 Si4 2.926197 1_565
Mg4 Si4 2.926197 1_655
Mg4 Si8 3.030696 1_565
Mg4 Si8 3.030696 1_655
Mg5 Si5 2.776932 1_555
Mg5 Si10 2.841913 1_545
Mg5 Si10 2.841913 1_455
Mg5 Si7 2.887349 1_455
Mg5 Si7 2.887349 1_545
Mg5 Si5 2.997722 1_545
Mg5 Si5 2.997722 1_455
Mg5 Si2 3.156798 1_555
Mg5 Si9 3.195583 1_555
Mg6 Si7 2.761072 1_555
Mg6 Si4 2.780939 1_555
Mg6 Si6 2.782295 1_455
Mg6 Si6 2.782295 1_545
Mg6 Si8 3.007905 1_565
Mg6 Si8 3.007905 1_655
Mg6 Si6 3.064701 1_555
Mg6 Si9 3.087219 1_655
Mg6 Si9 3.087219 1_565
Mg7 Si6 2.763434 1_445
Mg7 Si5 2.797398 1_455
Mg7 Si5 2.797398 1_545
Mg7 Si7 2.894811 1_445
Mg7 Si7 2.907945 1_545
Mg7 Si7 2.907945 1_455
Mg7 Si9 2.950938 1_545
Mg7 Si9 2.950938 1_455
Si0 Si1 2.406478 1_554
Si0 Si2 2.550192 1_455
Si0 Si2 2.550192 1_545
Si1 Si3 2.528845 1_455
Si1 Si3 2.528845 1_545
Si4 Si8 2.538303 1_655
Si4 Si8 2.538303 1_565
Si5 Si7 2.389869 1_555
Si6 Si8 2.554146 1_655
Si6 Si8 2.554146 1_565
Si6 Si9 2.599412 1_655
Si6 Si9 2.599412 1_565
Si7 Si9 2.502474 1_565
Si7 Si9 2.502474 1_655
Si8 Si9 2.641233 1_555
Si10 Si5 2.417752 1_555
Si10 Si2 2.530484 1_565
Si10 Si2 2.530484 1_655
Si11 Si4 2.397128 1_555
Si11 Si3 2.544032 1_455
Si11 Si3 2.544032 1_545
