# generated using pymatgen
data_ZrP2NO8
_symmetry_space_group_name_H-M   'P 1'
_cell_length_a   6.34196000
_cell_length_b   5.49371200
_cell_length_c   11.69689527
_cell_angle_alpha   88.39565091
_cell_angle_beta   90.00000000
_cell_angle_gamma   90.00000000
_symmetry_Int_Tables_number   1
_chemical_formula_structural   ZrP2NO8
_chemical_formula_sum   'Zr2 P4 N2 O16'
_cell_volume   407.37062401
_cell_formula_units_Z   2
loop_
 _symmetry_equiv_pos_site_id
 _symmetry_equiv_pos_as_xyz
  1  'x, y, z'
loop_
 _atom_site_type_symbol
 _atom_site_label
 _atom_site_symmetry_multiplicity
 _atom_site_fract_x
 _atom_site_fract_y
 _atom_site_fract_z
 _atom_site_occupancy
  Zr  Zr0  1  0.75000000  0.25541400  0.15342400  1
  Zr  Zr1  1  0.25000000  0.74458600  0.84657600  1
  P  P0  1  0.75000000  0.77328500  0.95369700  1
  P  P1  1  0.25000000  0.22671500  0.04630300  1
  P  P2  1  0.75000000  0.73407600  0.35098000  1
  P  P3  1  0.25000000  0.26592400  0.64902000  1
  N  N0  1  0.25000000  0.74894500  0.40588600  1
  N  N1  1  0.75000000  0.25105500  0.59411400  1
  O  O0  1  0.75000000  0.01930500  0.01083900  1
  O  O1  1  0.25000000  0.98069500  0.98916100  1
  O  O2  1  0.56426500  0.75215700  0.87001500  1
  O  O3  1  0.06426500  0.24784300  0.12998500  1
  O  O4  1  0.43573500  0.24784300  0.12998500  1
  O  O5  1  0.93573500  0.75215700  0.87001500  1
  O  O6  1  0.75000000  0.56325500  0.04236100  1
  O  O7  1  0.25000000  0.43674500  0.95763900  1
  O  O8  1  0.75000000  0.94580600  0.26254900  1
  O  O9  1  0.25000000  0.05419400  0.73745100  1
  O  O10  1  0.75000000  0.48517600  0.29427200  1
  O  O11  1  0.25000000  0.51482400  0.70572800  1
  O  O12  1  0.54443100  0.75436300  0.42755800  1
  O  O13  1  0.04443100  0.24563700  0.57244200  1
  O  O14  1  0.45556900  0.24563700  0.57244200  1
  O  O15  1  0.95556900  0.75436300  0.42755800  1
loop_
_geom_bond_atom_site_label_1
_geom_bond_atom_site_label_2
_geom_bond_distance
_geom_bond_site_symmetry_2
N0 O15 1.884745 1_455
N0 O12 1.884745 1_555
N1 O13 1.884745 1_655
N1 O14 1.884745 1_555
O0 P0 1.524481 1_544
O0 Zr0 2.141309 1_555
O1 P1 1.524481 1_566
O1 Zr1 2.141309 1_555
O2 P0 1.537994 1_555
O2 Zr1 2.012413 1_555
O3 P1 1.537994 1_555
O3 Zr0 2.012413 1_455
O4 P1 1.537994 1_555
O4 Zr0 2.012413 1_555
O5 P0 1.537994 1_555
O5 Zr1 2.012413 1_655
O6 P0 1.529678 1_554
O6 Zr0 2.103507 1_555
O7 P1 1.529678 1_556
O7 Zr1 2.103507 1_555
O8 P2 1.534778 1_555
O8 Zr0 2.097794 1_565
O9 P3 1.534778 1_555
O9 Zr1 2.097794 1_545
O10 P2 1.536394 1_555
O10 Zr0 2.103310 1_555
O11 P3 1.536394 1_555
O11 Zr1 2.103310 1_555
O12 P2 1.587449 1_555
O13 P3 1.587449 1_555
O14 P3 1.587449 1_555
O15 P2 1.587449 1_555
