# generated using pymatgen
data_La3(Al2Si3)2
_symmetry_space_group_name_H-M   'P 1'
_cell_length_a   4.18880057
_cell_length_b   4.18880057
_cell_length_c   18.56836898
_cell_angle_alpha   90.00000000
_cell_angle_beta   90.00000000
_cell_angle_gamma   119.99999259
_symmetry_Int_Tables_number   1
_chemical_formula_structural   La3(Al2Si3)2
_chemical_formula_sum   'La3 Al4 Si6'
_cell_volume   282.15242666
_cell_formula_units_Z   1
loop_
 _symmetry_equiv_pos_site_id
 _symmetry_equiv_pos_as_xyz
  1  'x, y, z'
loop_
 _atom_site_type_symbol
 _atom_site_label
 _atom_site_symmetry_multiplicity
 _atom_site_fract_x
 _atom_site_fract_y
 _atom_site_fract_z
 _atom_site_occupancy
  La  La0  1  -0.00000000  -0.00000000  0.11339523  1
  La  La1  1  0.00000000  -0.00000000  0.88660477  1
  La  La2  1  -0.00000000  -0.00000000  0.50000000  1
  Al  Al0  1  0.33333300  0.66666700  0.74074528  1
  Al  Al1  1  0.66666700  0.33333300  0.25925472  1
  Al  Al2  1  0.33333300  0.66666700  0.35933528  1
  Al  Al3  1  0.66666700  0.33333300  0.64066472  1
  Si  Si0  1  0.33333300  0.66666700  0.60437289  1
  Si  Si1  1  0.66666700  0.33333300  0.39562711  1
  Si  Si2  1  0.33333300  0.66666700  0.99693103  1
  Si  Si3  1  0.66666700  0.33333300  0.00306897  1
  Si  Si4  1  0.33333300  0.66666700  0.22257952  1
  Si  Si5  1  0.66666700  0.33333300  0.77742048  1
loop_
_geom_bond_atom_site_label_1
_geom_bond_atom_site_label_2
_geom_bond_distance
_geom_bond_site_symmetry_2
La0 Si4 3.155775 1_545
La0 Si4 3.155778 1_555
La0 Si4 3.155778 1_445
La0 Si3 3.169439 1_455
La0 Si3 3.169442 1_445
La0 Si3 3.169442 1_555
La0 Si2 3.244271 1_544
La0 Si2 3.244274 1_554
La0 Si2 3.244274 1_444
La1 Si5 3.155775 1_455
La1 Si5 3.155778 1_445
La1 Si5 3.155778 1_555
La1 Si2 3.169439 1_545
La1 Si2 3.169442 1_445
La1 Si2 3.169442 1_555
La1 Si3 3.244271 1_456
La1 Si3 3.244274 1_556
La1 Si3 3.244274 1_446
La2 Si1 3.099137 1_455
La2 Si0 3.099137 1_545
La2 Si1 3.099140 1_555
La2 Si1 3.099140 1_445
La2 Si0 3.099140 1_555
La2 Si0 3.099140 1_445
Al0 Si5 2.512455 1_455
Al0 Si5 2.512455 1_565
Al0 Si5 2.512462 1_555
Al0 Si0 2.532213 1_555
Al1 Si4 2.512455 1_545
Al1 Si4 2.512455 1_655
Al1 Si4 2.512462 1_555
Al1 Si1 2.532213 1_555
Al2 Si1 2.510535 1_565
Al2 Si1 2.510535 1_455
Al2 Si1 2.510542 1_555
Al2 Si4 2.539331 1_555
Al3 Si0 2.510535 1_545
Al3 Si0 2.510535 1_655
Al3 Si0 2.510542 1_555
Al3 Si5 2.539331 1_555
Si2 Si3 2.421087 1_456
Si2 Si3 2.421087 1_566
Si2 Si3 2.421094 1_556
