# generated using pymatgen
data_Sr2FeSnO6
_symmetry_space_group_name_H-M   'P 1'
_cell_length_a   8.10202401
_cell_length_b   8.96551352
_cell_length_c   9.03283463
_cell_angle_alpha   78.30883979
_cell_angle_beta   63.34959303
_cell_angle_gamma   63.14310175
_symmetry_Int_Tables_number   1
_chemical_formula_structural   Sr2FeSnO6
_chemical_formula_sum   'Sr8 Fe4 Sn4 O24'
_cell_volume   523.17322681
_cell_formula_units_Z   4
loop_
 _symmetry_equiv_pos_site_id
 _symmetry_equiv_pos_as_xyz
  1  'x, y, z'
loop_
 _atom_site_type_symbol
 _atom_site_label
 _atom_site_symmetry_multiplicity
 _atom_site_fract_x
 _atom_site_fract_y
 _atom_site_fract_z
 _atom_site_occupancy
  Sr  Sr0  1  0.25837800  0.98518300  0.50001500  1
  Sr  Sr1  1  0.00853000  0.98291300  0.00000600  1
  Sr  Sr2  1  0.75638600  0.98520000  0.49999100  1
  Sr  Sr3  1  0.50852800  0.98294000  0.99997800  1
  Sr  Sr4  1  0.49362100  0.51478200  0.50000900  1
  Sr  Sr5  1  0.24145300  0.51708600  0.00000900  1
  Sr  Sr6  1  0.99161900  0.51482400  0.49998500  1
  Sr  Sr7  1  0.74148800  0.51705700  0.00000900  1
  Fe  Fe0  1  0.75056500  0.75007900  0.24885500  1
  Fe  Fe1  1  0.49933600  0.75003800  0.75125900  1
  Fe  Fe2  1  0.00009900  0.74995500  0.74986500  1
  Fe  Fe3  1  0.24993400  0.75002000  0.25011200  1
  Sn  Sn0  1  0.24989600  0.25038500  0.74980800  1
  Sn  Sn1  1  0.00012000  0.24959800  0.25018500  1
  Sn  Sn2  1  0.75029900  0.24961000  0.74982500  1
  Sn  Sn3  1  0.49972200  0.25037400  0.25015800  1
  O  O0  1  0.88111600  0.99131200  0.74657300  1
  O  O1  1  0.63064100  0.98993100  0.24891500  1
  O  O2  1  0.37956300  0.98994600  0.75113500  1
  O  O3  1  0.12772200  0.99132800  0.25340400  1
  O  O4  1  0.12230100  0.50865700  0.74658600  1
  O  O5  1  0.87043600  0.51005600  0.24886100  1
  O  O6  1  0.61933900  0.51006800  0.75110000  1
  O  O7  1  0.36890500  0.50867600  0.25340100  1
  O  O8  1  0.37764100  0.24468200  0.49998900  1
  O  O9  1  0.12500500  0.24999700  0.99999200  1
  O  O10  1  0.87235900  0.25533500  0.50000100  1
  O  O11  1  0.62500500  0.24999400  0.99999700  1
  O  O12  1  0.50010700  0.25002800  0.74976700  1
  O  O13  1  0.24991100  0.25000100  0.25019100  1
  O  O14  1  0.00010400  0.25001000  0.74979300  1
  O  O15  1  0.74989900  0.24996900  0.25021900  1
  O  O16  1  0.12501000  0.74999200  0.49999200  1
  O  O17  1  0.87734400  0.75001000  0.99546100  1
  O  O18  1  0.62500200  0.74999000  0.49999700  1
  O  O19  1  0.37264300  0.74999200  0.00453900  1
  O  O20  1  0.25764300  0.75001400  0.74992200  1
  O  O21  1  0.99234400  0.74998200  0.25008400  1
  O  O22  1  0.74242400  0.74999100  0.75000300  1
  O  O23  1  0.50756300  0.74999500  0.25000600  1
loop_
_geom_bond_atom_site_label_1
_geom_bond_atom_site_label_2
_geom_bond_distance
_geom_bond_site_symmetry_2
Fe0 O1 1.918450 1_555
Fe0 O5 1.919817 1_555
Fe0 O21 1.963511 1_555
Fe0 O23 1.964507 1_555
Fe0 O18 2.027516 1_555
Fe0 O17 2.045697 1_554
Fe1 O2 1.918898 1_555
Fe1 O6 1.919394 1_555
Fe1 O20 1.963746 1_555
Fe1 O22 1.964252 1_555
Fe1 O18 2.028485 1_555
Fe1 O19 2.044777 1_556
Fe2 O4 1.930197 1_555
Fe2 O0 1.930670 1_455
Fe2 O17 1.982742 1_455
Fe2 O16 2.017271 1_555
Fe2 O22 2.086984 1_455
Fe2 O20 2.087098 1_555
Fe3 O3 1.930278 1_555
Fe3 O7 1.930566 1_555
Fe3 O19 1.982557 1_555
Fe3 O16 2.017328 1_555
Fe3 O23 2.086786 1_555
Fe3 O21 2.087268 1_455
O0 Sn2 2.066156 1_565
O0 Sr0 2.845487 1_655
O0 Sr2 2.846752 1_555
O0 Sr1 2.879541 1_656
O0 Sr3 2.879944 1_555
O1 Sn3 2.083170 1_565
O1 Sr1 2.853211 1_655
O1 Sr3 2.854451 1_554
O1 Sr2 2.859714 1_555
O1 Sr0 2.860595 1_555
O2 Sn0 2.083142 1_565
O2 Sr3 2.852814 1_555
O2 Sr1 2.854075 1_556
O2 Sr2 2.859657 1_555
O2 Sr0 2.861159 1_555
O3 Sn1 2.065929 1_565
O3 Sr0 2.845838 1_555
O3 Sr2 2.846732 1_455
O3 Sr3 2.879093 1_554
O3 Sr1 2.880289 1_555
O4 Sn0 2.065945 1_555
O4 Sr6 2.845842 1_455
O4 Sr4 2.846603 1_555
O4 Sr7 2.879092 1_456
O4 Sr5 2.880318 1_556
O5 Sn1 2.083294 1_655
O5 Sr7 2.852807 1_555
O5 Sr5 2.853920 1_655
O5 Sr4 2.859678 1_555
O5 Sr6 2.861196 1_555
O6 Sn2 2.083292 1_555
O6 Sr5 2.853194 1_556
O6 Sr7 2.854413 1_556
O6 Sr4 2.859735 1_555
O6 Sr6 2.860759 1_555
O7 Sn3 2.066187 1_555
O7 Sr6 2.845645 1_455
O7 Sr4 2.846874 1_555
O7 Sr5 2.879376 1_555
O7 Sr7 2.879905 1_555
O8 Sn0 2.017351 1_555
O8 Sn3 2.017446 1_555
O8 Sr0 2.894347 1_545
O8 Sr2 2.894541 1_545
O8 Sr4 2.967046 1_555
O8 Sr6 2.967074 1_455
O9 Sn0 2.019784 1_555
O9 Sn1 2.019857 1_556
O9 Sr7 2.943731 1_456
O9 Sr5 2.943760 1_556
O9 Sr3 2.943763 1_545
O9 Sr1 2.943781 1_546
O10 Sn1 2.017333 1_655
O10 Sn2 2.017395 1_555
O10 Sr6 2.894273 1_555
O10 Sr4 2.894371 1_555
O10 Sr0 2.967115 1_645
O10 Sr2 2.967281 1_545
O11 Sn3 2.019599 1_556
O11 Sn2 2.019687 1_555
O11 Sr3 2.943627 1_545
O11 Sr7 2.943718 1_556
O11 Sr1 2.943911 1_646
O11 Sr5 2.944036 1_556
O12 Sn0 2.025605 1_555
O12 Sn2 2.025606 1_555
O12 Sr4 2.924047 1_555
O12 Sr2 2.924575 1_545
O12 Sr5 2.940092 1_556
O12 Sr3 2.940096 1_545
O13 Sn3 2.025354 1_555
O13 Sn1 2.025472 1_555
O13 Sr6 2.924646 1_455
O13 Sr0 2.924786 1_545
O13 Sr5 2.939918 1_555
O13 Sr3 2.939949 1_544
O14 Sn0 2.025403 1_555
O14 Sn2 2.025419 1_455
O14 Sr0 2.924580 1_545
O14 Sr6 2.924674 1_455
O14 Sr7 2.939884 1_456
O14 Sr1 2.940159 1_546
O15 Sn3 2.025549 1_555
O15 Sn1 2.025658 1_655
O15 Sr2 2.924212 1_545
O15 Sr4 2.924566 1_555
O15 Sr1 2.939920 1_645
O15 Sr7 2.940090 1_555
O16 Sr6 2.769886 1_455
O16 Sr0 2.769990 1_555
O16 Sr4 2.770576 1_555
O16 Sr2 2.770601 1_455
O17 Sr1 2.751487 1_656
O17 Sr5 2.751913 1_656
O17 Sr7 2.752639 1_556
O17 Sr3 2.752960 1_555
O18 Sr4 2.758235 1_555
O18 Sr2 2.758287 1_555
O18 Sr6 2.758543 1_555
O18 Sr0 2.758634 1_555
O19 Sr5 2.751489 1_555
O19 Sr1 2.751883 1_555
O19 Sr3 2.752733 1_554
O19 Sr7 2.753108 1_555
O20 Sr1 2.747768 1_556
O20 Sr5 2.747935 1_556
O20 Sr0 2.758904 1_555
O20 Sr4 2.759269 1_555
O21 Sr5 2.747698 1_655
O21 Sr1 2.747898 1_655
O21 Sr6 2.758811 1_555
O21 Sr2 2.759159 1_555
O22 Sr3 2.747382 1_555
O22 Sr7 2.747499 1_556
O22 Sr6 2.759536 1_555
O22 Sr2 2.759718 1_555
O23 Sr7 2.747448 1_555
O23 Sr3 2.747685 1_554
O23 Sr0 2.759595 1_555
O23 Sr4 2.759685 1_555
