# generated using pymatgen
data_Ba2Mg2Tl2Cu3O10
_symmetry_space_group_name_H-M   'P 1'
_cell_length_a   3.76554400
_cell_length_b   3.79850187
_cell_length_c   18.74711245
_cell_angle_alpha   95.53207790
_cell_angle_beta   94.39564349
_cell_angle_gamma   89.96124976
_symmetry_Int_Tables_number   1
_chemical_formula_structural   Ba2Mg2Tl2Cu3O10
_chemical_formula_sum   'Ba2 Mg2 Tl2 Cu3 O10'
_cell_volume   266.10785504
_cell_formula_units_Z   1
loop_
 _symmetry_equiv_pos_site_id
 _symmetry_equiv_pos_as_xyz
  1  'x, y, z'
loop_
 _atom_site_type_symbol
 _atom_site_label
 _atom_site_symmetry_multiplicity
 _atom_site_fract_x
 _atom_site_fract_y
 _atom_site_fract_z
 _atom_site_occupancy
  Ba  Ba0  1  0.83387600  0.89951900  0.72324300  1
  Ba  Ba1  1  0.17150800  0.19644300  0.27709900  1
  Mg  Mg0  1  0.08643700  0.12626400  0.08724400  1
  Mg  Mg1  1  0.93447800  0.00423000  0.91368200  1
  Tl  Tl0  1  0.27714900  0.35889800  0.56486800  1
  Tl  Tl1  1  0.73043300  0.79937000  0.43584400  1
  Cu  Cu0  1  0.62318900  0.64787200  0.15722800  1
  Cu  Cu1  1  0.38471700  0.46344300  0.84314300  1
  Cu  Cu2  1  0.48269000  0.58959700  0.00016300  1
  O  O0  1  0.12977200  0.64741300  0.17254500  1
  O  O1  1  0.68833700  0.70840100  0.32292700  1
  O  O2  1  0.61417200  0.14067000  0.14247000  1
  O  O3  1  0.23527500  0.18643000  0.45087000  1
  O  O4  1  0.45140400  0.08028700  0.97949900  1
  O  O5  1  0.36797900  0.95590500  0.82827800  1
  O  O6  1  0.31797600  0.37110100  0.67782300  1
  O  O7  1  0.89017100  0.47400400  0.85984600  1
  O  O8  1  0.77109200  0.73165700  0.54987600  1
  O  O9  1  0.99138100  0.61741100  0.02238700  1
loop_
_geom_bond_atom_site_label_1
_geom_bond_atom_site_label_2
_geom_bond_distance
_geom_bond_site_symmetry_2
Ba0 O5 2.698210 1_655
Ba0 O5 2.729232 1_555
Ba0 O6 2.782715 1_565
Ba0 O6 2.791632 1_665
Ba0 O6 2.819563 1_555
Ba0 O6 2.824942 1_655
Ba0 O7 3.151204 1_555
Ba0 O7 3.194537 1_565
Ba0 O8 3.241707 1_555
Ba1 O0 2.716798 1_545
Ba1 O0 2.720447 1_555
Ba1 O1 2.781015 1_555
Ba1 O1 2.782587 1_455
Ba1 O1 2.829873 1_545
Ba1 O1 2.834833 1_445
Ba1 O2 3.120055 1_555
Ba1 O2 3.147218 1_455
Ba1 O3 3.252032 1_555
Mg0 O2 2.123333 1_455
Mg0 O2 2.167429 1_555
Mg0 O9 2.196272 1_445
Mg0 O9 2.335975 1_455
Mg0 O0 2.419244 1_555
Mg0 O4 2.521191 1_554
Mg0 O0 2.532345 1_545
Mg1 O7 2.133472 1_555
Mg1 O7 2.164633 1_545
Mg1 O4 2.226811 1_655
Mg1 O4 2.278030 1_555
Mg1 O5 2.367556 1_645
Mg1 O5 2.562796 1_545
Mg1 O9 2.620663 1_546
Cu0 O0 1.901695 1_555
Cu0 O0 1.907190 1_655
Cu0 O2 1.918336 1_565
Cu0 O2 1.919738 1_555
Cu1 O7 1.904881 1_555
Cu1 O7 1.911660 1_455
Cu1 O5 1.917942 1_555
Cu1 O5 1.921524 1_545
Cu2 O9 1.927905 1_455
Cu2 O9 1.929595 1_555
Cu2 O4 1.937911 1_554
Cu2 O4 1.941635 1_564
O1 Tl1 2.105532 1_555
O3 Tl0 2.167931 1_555
O3 Tl1 2.386764 1_445
O3 Tl1 2.390489 1_545
O6 Tl0 2.107394 1_555
O8 Tl1 2.171509 1_555
O8 Tl0 2.388248 1_555
O8 Tl0 2.388735 1_655
