# generated using pymatgen
data_Mn5Si2
_symmetry_space_group_name_H-M   'P 1'
_cell_length_a   8.68791300
_cell_length_b   8.68791300
_cell_length_c   8.83005600
_cell_angle_alpha   90.00000000
_cell_angle_beta   90.00000000
_cell_angle_gamma   90.00000000
_symmetry_Int_Tables_number   1
_chemical_formula_structural   Mn5Si2
_chemical_formula_sum   'Mn40 Si16'
_cell_volume   666.49114604
_cell_formula_units_Z   8
loop_
 _symmetry_equiv_pos_site_id
 _symmetry_equiv_pos_as_xyz
  1  'x, y, z'
loop_
 _atom_site_type_symbol
 _atom_site_label
 _atom_site_symmetry_multiplicity
 _atom_site_fract_x
 _atom_site_fract_y
 _atom_site_fract_z
 _atom_site_occupancy
  Mn  Mn0  1  0.92132800  0.32413800  0.42332000  1
  Mn  Mn1  1  0.07867200  0.67586200  0.92332000  1
  Mn  Mn2  1  0.82413800  0.57867200  0.17332000  1
  Mn  Mn3  1  0.17586200  0.42132800  0.67332000  1
  Mn  Mn4  1  0.67586200  0.07867200  0.07668000  1
  Mn  Mn5  1  0.32413800  0.92132800  0.57668000  1
  Mn  Mn6  1  0.57867200  0.82413800  0.82668000  1
  Mn  Mn7  1  0.42132800  0.17586200  0.32668000  1
  Mn  Mn8  1  0.67151500  0.26859400  0.59584100  1
  Mn  Mn9  1  0.32848500  0.73140600  0.09584100  1
  Mn  Mn10  1  0.76859400  0.82848500  0.34584100  1
  Mn  Mn11  1  0.23140600  0.17151500  0.84584100  1
  Mn  Mn12  1  0.73140600  0.32848500  0.90415900  1
  Mn  Mn13  1  0.26859400  0.67151500  0.40415900  1
  Mn  Mn14  1  0.82848500  0.76859400  0.65415900  1
  Mn  Mn15  1  0.17151500  0.23140600  0.15415900  1
  Mn  Mn16  1  0.63250700  0.36749300  0.25000000  1
  Mn  Mn17  1  0.36749300  0.63250700  0.75000000  1
  Mn  Mn18  1  0.86749300  0.86749300  0.00000000  1
  Mn  Mn19  1  0.13250700  0.13250700  0.50000000  1
  Mn  Mn20  1  0.95874600  0.04125400  0.25000000  1
  Mn  Mn21  1  0.04125400  0.95874600  0.75000000  1
  Mn  Mn22  1  0.54125400  0.54125400  0.00000000  1
  Mn  Mn23  1  0.45874600  0.45874600  0.50000000  1
  Mn  Mn24  1  0.87027100  0.04593300  0.53347900  1
  Mn  Mn25  1  0.12972900  0.95406700  0.03347900  1
  Mn  Mn26  1  0.54593300  0.62972900  0.28347900  1
  Mn  Mn27  1  0.45406700  0.37027100  0.78347900  1
  Mn  Mn28  1  0.95406700  0.12972900  0.96652100  1
  Mn  Mn29  1  0.04593300  0.87027100  0.46652100  1
  Mn  Mn30  1  0.62972900  0.54593300  0.71652100  1
  Mn  Mn31  1  0.37027100  0.45406700  0.21652100  1
  Mn  Mn32  1  0.95925500  0.22382700  0.70499100  1
  Mn  Mn33  1  0.04074500  0.77617300  0.20499100  1
  Mn  Mn34  1  0.72382700  0.54074500  0.45499100  1
  Mn  Mn35  1  0.27617300  0.45925500  0.95499100  1
  Mn  Mn36  1  0.77617300  0.04074500  0.79500900  1
  Mn  Mn37  1  0.22382700  0.95925500  0.29500900  1
  Mn  Mn38  1  0.54074500  0.72382700  0.54500900  1
  Mn  Mn39  1  0.45925500  0.27617300  0.04500900  1
  Si  Si0  1  0.88419600  0.47405500  0.66142300  1
  Si  Si1  1  0.11580400  0.52594500  0.16142300  1
  Si  Si2  1  0.97405500  0.61580400  0.41142300  1
  Si  Si3  1  0.02594500  0.38419600  0.91142300  1
  Si  Si4  1  0.52594500  0.11580400  0.83857700  1
  Si  Si5  1  0.47405500  0.88419600  0.33857700  1
  Si  Si6  1  0.61580400  0.97405500  0.58857700  1
  Si  Si7  1  0.38419600  0.02594500  0.08857700  1
  Si  Si8  1  0.87316600  0.29606200  0.15342900  1
  Si  Si9  1  0.12683400  0.70393800  0.65342900  1
  Si  Si10  1  0.79606200  0.62683400  0.90342900  1
  Si  Si11  1  0.20393800  0.37316600  0.40342900  1
  Si  Si12  1  0.70393800  0.12683400  0.34657100  1
  Si  Si13  1  0.29606200  0.87316600  0.84657100  1
  Si  Si14  1  0.62683400  0.79606200  0.09657100  1
  Si  Si15  1  0.37316600  0.20393800  0.59657100  1
loop_
_geom_bond_atom_site_label_1
_geom_bond_atom_site_label_2
_geom_bond_distance
_geom_bond_site_symmetry_2
Mn0 Si8 2.431871 1_555
Mn0 Si0 2.494161 1_555
Mn0 Si11 2.498147 1_655
Mn0 Si2 2.577184 1_555
Mn0 Si12 2.639067 1_555
Mn0 Mn24 2.642899 1_555
Mn1 Si9 2.431871 1_555
Mn1 Si1 2.494161 1_556
Mn1 Si10 2.498147 1_455
Mn1 Si3 2.577184 1_555
Mn1 Si13 2.639067 1_555
Mn1 Mn25 2.642899 1_556
Mn2 Si10 2.431871 1_554
Mn2 Si2 2.494161 1_555
Mn2 Si8 2.498147 1_555
Mn2 Si1 2.577184 1_655
Mn2 Si14 2.639067 1_555
Mn2 Mn26 2.642899 1_555
Mn3 Si11 2.431871 1_555
Mn3 Si3 2.494161 1_555
Mn3 Si9 2.498147 1_555
Mn3 Si0 2.577184 1_455
Mn3 Si15 2.639067 1_555
Mn4 Si12 2.431871 1_555
Mn4 Si4 2.494161 1_554
Mn4 Si14 2.498147 1_545
Mn4 Si7 2.577184 1_555
Mn4 Si8 2.639067 1_555
Mn5 Si13 2.431871 1_555
Mn5 Si5 2.494161 1_555
Mn5 Si15 2.498147 1_565
Mn5 Si6 2.577184 1_555
Mn5 Si9 2.639067 1_555
Mn6 Si14 2.431871 1_556
Mn6 Si6 2.494161 1_555
Mn6 Si13 2.498147 1_555
Mn6 Si4 2.577184 1_565
Mn6 Si10 2.639067 1_555
Mn7 Si15 2.431871 1_555
Mn7 Si7 2.494161 1_555
Mn7 Si12 2.498147 1_555
Mn7 Si5 2.577184 1_545
Mn7 Si11 2.639067 1_555
Mn8 Si12 2.537890 1_555
Mn8 Si6 2.605091 1_545
Mn8 Si0 2.633603 1_555
Mn8 Si15 2.652206 1_555
Mn9 Si13 2.537890 1_554
Mn9 Si7 2.605091 1_565
Mn9 Si1 2.633603 1_555
Mn9 Si14 2.652206 1_555
Mn10 Si14 2.537890 1_555
Mn10 Si5 2.605091 1_555
Mn10 Si2 2.633603 1_555
Mn10 Mn26 2.650870 1_555
Mn10 Si12 2.652206 1_565
Mn10 Mn29 2.659511 1_655
Mn10 Mn24 2.663541 1_565
Mn11 Si15 2.537890 1_555
Mn11 Si4 2.605091 1_555
Mn11 Si3 2.633603 1_555
Mn11 Mn27 2.650870 1_555
Mn11 Si13 2.652206 1_545
Mn11 Mn28 2.659511 1_455
Mn11 Mn25 2.663541 1_546
Mn12 Si8 2.537890 1_556
Mn12 Si3 2.605091 1_655
Mn12 Si4 2.633603 1_555
Mn12 Mn28 2.650870 1_555
Mn12 Si10 2.652206 1_555
Mn12 Mn27 2.659511 1_555
Mn12 Mn30 2.663541 1_555
Mn13 Si9 2.537890 1_555
Mn13 Si2 2.605091 1_455
Mn13 Si5 2.633603 1_555
Mn13 Mn29 2.650870 1_555
Mn13 Si11 2.652206 1_555
Mn13 Mn26 2.659511 1_555
Mn13 Mn31 2.663541 1_555
Mn14 Si10 2.537890 1_555
Mn14 Si0 2.605091 1_555
Mn14 Si6 2.633603 1_555
Mn14 Mn30 2.650870 1_555
Mn14 Si9 2.652206 1_655
Mn14 Mn24 2.659511 1_565
Mn14 Mn29 2.663541 1_655
Mn15 Si11 2.537890 1_555
Mn15 Si1 2.605091 1_555
Mn15 Si7 2.633603 1_555
Mn15 Mn31 2.650870 1_555
Mn15 Si8 2.652206 1_455
Mn15 Mn25 2.659511 1_545
Mn15 Mn28 2.663541 1_454
Mn16 Si8 2.341755 1_555
Mn16 Si12 2.341755 1_555
Mn16 Mn31 2.417373 1_555
Mn16 Mn26 2.417373 1_555
Mn17 Si9 2.341755 1_555
Mn17 Si13 2.341755 1_555
Mn17 Mn27 2.417373 1_555
Mn17 Mn30 2.417373 1_555
Mn18 Si10 2.341755 1_554
Mn18 Si14 2.341755 1_555
Mn18 Mn25 2.417373 1_655
Mn18 Mn28 2.417373 1_564
Mn19 Si11 2.341755 1_555
Mn19 Si15 2.341755 1_555
Mn19 Mn24 2.417373 1_455
Mn19 Mn29 2.417373 1_545
Mn20 Si8 2.486090 1_555
Mn20 Si12 2.486090 1_555
Mn20 Mn25 2.536881 1_645
Mn20 Mn29 2.536881 1_645
Mn20 Mn28 2.618813 1_554
Mn20 Mn24 2.618813 1_555
Mn21 Si13 2.486090 1_555
Mn21 Si9 2.486090 1_555
Mn21 Mn24 2.536881 1_465
Mn21 Mn28 2.536881 1_465
Mn21 Mn29 2.618813 1_555
Mn21 Mn25 2.618813 1_556
Mn22 Si10 2.486090 1_554
Mn22 Si14 2.486090 1_555
Mn22 Mn27 2.536881 1_554
Mn22 Mn31 2.536881 1_555
Mn22 Mn26 2.618813 1_555
Mn22 Mn30 2.618813 1_554
Mn23 Si15 2.486090 1_555
Mn23 Si11 2.486090 1_555
Mn23 Mn30 2.536881 1_555
Mn23 Mn26 2.536881 1_555
Mn23 Mn27 2.618813 1_555
Mn23 Mn31 2.618813 1_555
Mn24 Mn29 2.237801 1_645
Mn24 Mn32 2.297805 1_555
Mn24 Si12 2.303505 1_555
Mn24 Si6 2.348242 1_545
Mn24 Mn36 2.450172 1_555
Mn24 Mn8 2.650870 1_555
Mn25 Mn28 2.237801 1_464
Mn25 Mn33 2.297805 1_555
Mn25 Si13 2.303505 1_554
Mn25 Si7 2.348242 1_565
Mn25 Mn37 2.450172 1_555
Mn25 Mn9 2.650870 1_555
Mn26 Mn31 2.237801 1_555
Mn26 Mn34 2.297805 1_555
Mn26 Si14 2.303505 1_555
Mn26 Si5 2.348242 1_555
Mn26 Mn38 2.450172 1_555
Mn26 Mn9 2.663541 1_555
Mn27 Mn30 2.237801 1_555
Mn27 Mn35 2.297805 1_555
Mn27 Si15 2.303505 1_555
Mn27 Si4 2.348242 1_555
Mn27 Mn39 2.450172 1_556
Mn27 Mn3 2.642899 1_555
Mn27 Mn8 2.663541 1_555
Mn28 Mn36 2.297805 1_555
Mn28 Si8 2.303505 1_556
Mn28 Si3 2.348242 1_655
Mn28 Mn32 2.450172 1_555
Mn28 Mn4 2.642899 1_556
Mn29 Mn37 2.297805 1_555
Mn29 Si9 2.303505 1_555
Mn29 Si2 2.348242 1_455
Mn29 Mn33 2.450172 1_555
Mn29 Mn5 2.642899 1_555
Mn30 Mn38 2.297805 1_555
Mn30 Si10 2.303505 1_555
Mn30 Si0 2.348242 1_555
Mn30 Mn34 2.450172 1_555
Mn30 Mn6 2.642899 1_555
Mn30 Mn8 2.659511 1_555
Mn31 Mn39 2.297805 1_555
Mn31 Si11 2.303505 1_555
Mn31 Si1 2.348242 1_555
Mn31 Mn35 2.450172 1_554
Mn31 Mn7 2.642899 1_555
Mn31 Mn9 2.659511 1_555
Mn32 Si0 2.302030 1_555
Mn32 Si3 2.366333 1_655
Mn33 Si1 2.302030 1_555
Mn33 Si2 2.366333 1_455
Mn34 Si2 2.302030 1_555
Mn34 Si0 2.366333 1_555
Mn35 Si3 2.302030 1_555
Mn35 Si1 2.366333 1_556
Mn36 Si4 2.302030 1_555
Mn36 Si6 2.366333 1_545
Mn37 Si5 2.302030 1_555
Mn37 Si7 2.366333 1_565
Mn38 Si6 2.302030 1_555
Mn38 Si5 2.366333 1_555
Mn39 Si7 2.302030 1_555
Mn39 Si4 2.366333 1_554
