# generated using pymatgen
data_Zr2FePt
_symmetry_space_group_name_H-M   'P 1'
_cell_length_a   10.92434429
_cell_length_b   10.92434429
_cell_length_c   10.92434429
_cell_angle_alpha   128.29623003
_cell_angle_beta   117.60124352
_cell_angle_gamma   85.23652031
_symmetry_Int_Tables_number   1
_chemical_formula_structural   Zr2FePt
_chemical_formula_sum   'Zr2 Fe1 Pt1'
_cell_volume   866.82425937
_cell_formula_units_Z   1
loop_
 _symmetry_equiv_pos_site_id
 _symmetry_equiv_pos_as_xyz
  1  'x, y, z'
loop_
 _atom_site_type_symbol
 _atom_site_label
 _atom_site_symmetry_multiplicity
 _atom_site_fract_x
 _atom_site_fract_y
 _atom_site_fract_z
 _atom_site_occupancy
  Zr  Zr0  1  0.00000000  0.23329500  0.23329500  1
  Zr  Zr1  1  0.00000000  0.76670500  0.76670500  1
  Fe  Fe0  1  0.00000000  0.00000000  0.00000000  1
  Pt  Pt0  1  0.00000000  0.50000000  0.50000000  1
loop_
_geom_bond_atom_site_label_1
_geom_bond_atom_site_label_2
_geom_bond_distance
_geom_bond_site_symmetry_2
Fe0 Zr0 2.222610 1_555
Fe0 Zr1 2.222610 1_544
Pt0 Zr0 2.540909 1_555
Pt0 Zr1 2.540909 1_555
