# generated using pymatgen
data_NdZr6(PO4)9
_symmetry_space_group_name_H-M   'P 1'
_cell_length_a   8.92211231
_cell_length_b   8.92211231
_cell_length_c   23.32313300
_cell_angle_alpha   90.00000000
_cell_angle_beta   90.00000000
_cell_angle_gamma   120.00000226
_symmetry_Int_Tables_number   1
_chemical_formula_structural   NdZr6(PO4)9
_chemical_formula_sum   'Nd2 Zr12 P18 O72'
_cell_volume   1607.87721790
_cell_formula_units_Z   2
loop_
 _symmetry_equiv_pos_site_id
 _symmetry_equiv_pos_as_xyz
  1  'x, y, z'
loop_
 _atom_site_type_symbol
 _atom_site_label
 _atom_site_symmetry_multiplicity
 _atom_site_fract_x
 _atom_site_fract_y
 _atom_site_fract_z
 _atom_site_occupancy
  Nd  Nd0  1  0.00000000  0.00000000  0.50000000  1
  Nd  Nd1  1  0.00000000  0.00000000  0.00000000  1
  Zr  Zr0  1  0.33333300  0.66666700  0.52521700  1
  Zr  Zr1  1  0.66666700  0.33333300  0.47478300  1
  Zr  Zr2  1  0.66666700  0.33333300  0.97478300  1
  Zr  Zr3  1  0.33333300  0.66666700  0.02521700  1
  Zr  Zr4  1  0.00000000  0.00000000  0.65045100  1
  Zr  Zr5  1  0.00000000  0.00000000  0.34954900  1
  Zr  Zr6  1  0.00000000  0.00000000  0.84954900  1
  Zr  Zr7  1  0.00000000  0.00000000  0.15045100  1
  Zr  Zr8  1  0.33333300  0.66666700  0.81310400  1
  Zr  Zr9  1  0.66666700  0.33333300  0.18689600  1
  Zr  Zr10  1  0.66666700  0.33333300  0.68689600  1
  Zr  Zr11  1  0.33333300  0.66666700  0.31310400  1
  P  P0  1  0.37442100  0.32227700  0.57958200  1
  P  P1  1  0.62557900  0.67772300  0.42041800  1
  P  P2  1  0.67772300  0.05214400  0.57958200  1
  P  P3  1  0.32227700  0.37442100  0.92041800  1
  P  P4  1  0.32227700  0.94785600  0.42041800  1
  P  P5  1  0.67772300  0.62557900  0.07958200  1
  P  P6  1  0.94785600  0.62557900  0.57958200  1
  P  P7  1  0.05214400  0.67772300  0.92041800  1
  P  P8  1  0.05214400  0.37442100  0.42041800  1
  P  P9  1  0.94785600  0.32227700  0.07958200  1
  P  P10  1  0.62557900  0.94785600  0.92041800  1
  P  P11  1  0.37442100  0.05214400  0.07958200  1
  P  P12  1  0.29226000  0.00000000  0.75000000  1
  P  P13  1  0.70774000  0.00000000  0.25000000  1
  P  P14  1  0.00000000  0.29226000  0.75000000  1
  P  P15  1  0.00000000  0.70774000  0.25000000  1
  P  P16  1  0.70774000  0.70774000  0.75000000  1
  P  P17  1  0.29226000  0.29226000  0.25000000  1
  O  O0  1  0.45078000  0.27877300  0.52723300  1
  O  O1  1  0.54922000  0.72122700  0.47276700  1
  O  O2  1  0.72122700  0.17200700  0.52723300  1
  O  O3  1  0.27877300  0.45078000  0.97276700  1
  O  O4  1  0.27877300  0.82799300  0.47276700  1
  O  O5  1  0.72122700  0.54922000  0.02723300  1
  O  O6  1  0.82799300  0.54922000  0.52723300  1
  O  O7  1  0.17200700  0.72122700  0.97276700  1
  O  O8  1  0.17200700  0.45078000  0.47276700  1
  O  O9  1  0.82799300  0.27877300  0.02723300  1
  O  O10  1  0.54922000  0.82799300  0.97276700  1
  O  O11  1  0.45078000  0.17200700  0.02723300  1
  O  O12  1  0.37788700  0.49509100  0.57164200  1
  O  O13  1  0.62211300  0.50490900  0.42835800  1
  O  O14  1  0.50490900  0.88279700  0.57164200  1
  O  O15  1  0.49509100  0.37788700  0.92835800  1
  O  O16  1  0.49509100  0.11720300  0.42835800  1
  O  O17  1  0.50490900  0.62211300  0.07164200  1
  O  O18  1  0.11720300  0.62211300  0.57164200  1
  O  O19  1  0.88279700  0.50490900  0.92835800  1
  O  O20  1  0.88279700  0.37788700  0.42835800  1
  O  O21  1  0.11720300  0.49509100  0.07164200  1
  O  O22  1  0.62211300  0.11720300  0.92835800  1
  O  O23  1  0.37788700  0.88279700  0.07164200  1
  O  O24  1  0.17789300  0.17297900  0.58167700  1
  O  O25  1  0.82210700  0.82702100  0.41832300  1
  O  O26  1  0.82702100  0.00491400  0.58167700  1
  O  O27  1  0.17297900  0.17789300  0.91832300  1
  O  O28  1  0.17297900  0.99508600  0.41832300  1
  O  O29  1  0.82702100  0.82210700  0.08167700  1
  O  O30  1  0.99508600  0.82210700  0.58167700  1
  O  O31  1  0.00491400  0.82702100  0.91832300  1
  O  O32  1  0.00491400  0.17789300  0.41832300  1
  O  O33  1  0.99508600  0.17297900  0.08167700  1
  O  O34  1  0.82210700  0.99508600  0.91832300  1
  O  O35  1  0.17789300  0.00491400  0.08167700  1
  O  O36  1  0.03025900  0.20513700  0.69677500  1
  O  O37  1  0.96974100  0.79486300  0.30322500  1
  O  O38  1  0.79486300  0.82512200  0.69677500  1
  O  O39  1  0.20513700  0.03025900  0.80322500  1
  O  O40  1  0.20513700  0.17487800  0.30322500  1
  O  O41  1  0.79486300  0.96974100  0.19677500  1
  O  O42  1  0.17487800  0.96974100  0.69677500  1
  O  O43  1  0.82512200  0.79486300  0.80322500  1
  O  O44  1  0.82512200  0.03025900  0.30322500  1
  O  O45  1  0.17487800  0.20513700  0.19677500  1
  O  O46  1  0.96974100  0.17487800  0.80322500  1
  O  O47  1  0.03025900  0.82512200  0.19677500  1
  O  O48  1  0.46791200  0.32607300  0.63492100  1
  O  O49  1  0.53208800  0.67392700  0.36507900  1
  O  O50  1  0.67392700  0.14183900  0.63492100  1
  O  O51  1  0.32607300  0.46791200  0.86507900  1
  O  O52  1  0.32607300  0.85816100  0.36507900  1
  O  O53  1  0.67392700  0.53208800  0.13492100  1
  O  O54  1  0.85816100  0.53208800  0.63492100  1
  O  O55  1  0.14183900  0.67392700  0.86507900  1
  O  O56  1  0.14183900  0.46791200  0.36507900  1
  O  O57  1  0.85816100  0.32607300  0.13492100  1
  O  O58  1  0.53208800  0.85816100  0.86507900  1
  O  O59  1  0.46791200  0.14183900  0.13492100  1
  O  O60  1  0.46917300  0.15946200  0.73963600  1
  O  O61  1  0.53082700  0.84053800  0.26036400  1
  O  O62  1  0.84053800  0.30971100  0.73963600  1
  O  O63  1  0.15946200  0.46917300  0.76036400  1
  O  O64  1  0.15946200  0.69028900  0.26036400  1
  O  O65  1  0.84053800  0.53082700  0.23963600  1
  O  O66  1  0.69028900  0.53082700  0.73963600  1
  O  O67  1  0.30971100  0.84053800  0.76036400  1
  O  O68  1  0.30971100  0.46917300  0.26036400  1
  O  O69  1  0.69028900  0.15946200  0.23963600  1
  O  O70  1  0.53082700  0.69028900  0.76036400  1
  O  O71  1  0.46917300  0.30971100  0.23963600  1
loop_
_geom_bond_atom_site_label_1
_geom_bond_atom_site_label_2
_geom_bond_distance
_geom_bond_site_symmetry_2
Nd0 O24 2.465840 1_555
Nd0 O25 2.465840 1_445
Nd0 O32 2.465840 1_555
Nd0 O30 2.465840 1_445
Nd0 O26 2.465840 1_455
Nd0 O28 2.465840 1_545
Nd1 O27 2.465840 1_554
Nd1 O29 2.465840 1_445
Nd1 O35 2.465840 1_555
Nd1 O34 2.465840 1_444
Nd1 O31 2.465840 1_544
Nd1 O33 2.465840 1_455
O0 P0 1.539463 1_555
O0 Zr1 2.122712 1_555
O1 P1 1.539463 1_555
O1 Zr0 2.122712 1_555
O2 P2 1.539463 1_555
O2 Zr1 2.122705 1_555
O3 P3 1.539463 1_555
O3 Zr3 2.122712 1_556
O4 P4 1.539463 1_555
O4 Zr0 2.122705 1_555
O5 P5 1.539463 1_555
O5 Zr2 2.122712 1_554
O6 P6 1.539463 1_555
O6 Zr1 2.122710 1_555
O7 P7 1.539463 1_555
O7 Zr3 2.122705 1_556
O8 P8 1.539463 1_555
O8 Zr0 2.122710 1_555
O9 P9 1.539463 1_555
O9 Zr2 2.122705 1_554
O10 P10 1.539463 1_555
O10 Zr3 2.122710 1_556
O11 P11 1.539463 1_555
O11 Zr2 2.122710 1_554
O12 P0 1.537830 1_555
O12 Zr0 2.069386 1_555
O13 P1 1.537830 1_555
O13 Zr1 2.069386 1_555
O14 P2 1.537825 1_565
O14 Zr0 2.069386 1_555
O15 P3 1.537830 1_555
O15 Zr2 2.069386 1_555
O16 P4 1.537825 1_545
O16 Zr1 2.069386 1_555
O17 P5 1.537830 1_555
O17 Zr3 2.069386 1_555
O18 P6 1.537821 1_455
O18 Zr0 2.069386 1_555
O19 P7 1.537825 1_655
O19 Zr2 2.069386 1_555
O20 P8 1.537821 1_655
O20 Zr1 2.069386 1_555
O21 P9 1.537825 1_455
O21 Zr3 2.069386 1_555
O22 P10 1.537821 1_545
O22 Zr2 2.069386 1_555
O23 P11 1.537821 1_565
O23 Zr3 2.069386 1_555
O24 P0 1.586077 1_555
O24 Zr4 2.241512 1_555
O25 P1 1.586077 1_555
O25 Zr5 2.241512 1_665
O26 P2 1.586077 1_555
O26 Zr4 2.241512 1_655
O27 P3 1.586077 1_555
O27 Zr6 2.241512 1_555
O28 P4 1.586077 1_555
O28 Zr5 2.241512 1_565
O29 P5 1.586077 1_555
O29 Zr7 2.241512 1_665
O30 P6 1.586077 1_555
O30 Zr4 2.241512 1_665
O31 P7 1.586077 1_555
O31 Zr6 2.241512 1_565
O32 P8 1.586077 1_555
O32 Zr5 2.241512 1_555
O33 P9 1.586077 1_555
O33 Zr7 2.241512 1_655
O34 P10 1.586077 1_555
O34 Zr6 2.241512 1_665
O35 P11 1.586077 1_555
O35 Zr7 2.241512 1_555
O36 P14 1.558198 1_555
O36 Zr4 2.023835 1_555
O37 P15 1.558198 1_655
O37 Zr5 2.023835 1_665
O38 P16 1.558198 1_555
O38 Zr4 2.023835 1_665
O39 P12 1.558198 1_555
O39 Zr6 2.023835 1_555
O40 P17 1.558198 1_555
O40 Zr5 2.023835 1_555
O41 P13 1.558198 1_565
O41 Zr7 2.023835 1_665
O42 P12 1.558198 1_565
O42 Zr4 2.023835 1_565
O43 P16 1.558198 1_555
O43 Zr6 2.023835 1_665
O44 P13 1.558198 1_555
O44 Zr5 2.023835 1_655
O45 P17 1.558198 1_555
O45 Zr7 2.023835 1_555
O46 P14 1.558198 1_655
O46 Zr6 2.023835 1_655
O47 P15 1.558198 1_555
O47 Zr7 2.023835 1_565
O48 P0 1.527918 1_555
O48 Zr10 2.122134 1_555
O49 P1 1.527918 1_555
O49 Zr11 2.122134 1_555
O50 P2 1.527918 1_555
O50 Zr10 2.122126 1_555
O51 P3 1.527918 1_555
O51 Zr8 2.122134 1_555
O52 P4 1.527918 1_555
O52 Zr11 2.122126 1_555
O53 P5 1.527918 1_555
O53 Zr9 2.122134 1_555
O54 P6 1.527918 1_555
O54 Zr10 2.122130 1_555
O55 P7 1.527918 1_555
O55 Zr8 2.122126 1_555
O56 P8 1.527918 1_555
O56 Zr11 2.122130 1_555
O57 P9 1.527918 1_555
O57 Zr9 2.122126 1_555
O58 P10 1.527918 1_555
O58 Zr8 2.122130 1_555
O59 P11 1.527918 1_555
O59 Zr9 2.122130 1_555
O60 P12 1.525901 1_555
O60 Zr10 2.071463 1_555
O61 P13 1.525901 1_565
O61 Zr11 2.071463 1_555
O62 P14 1.525901 1_655
O62 Zr10 2.071459 1_555
O63 P14 1.525901 1_555
O63 Zr8 2.071463 1_555
O64 P15 1.525901 1_555
O64 Zr11 2.071459 1_555
O65 P15 1.525901 1_655
O65 Zr9 2.071463 1_555
O66 P16 1.525901 1_555
O66 Zr10 2.071466 1_555
O67 P12 1.525901 1_565
O67 Zr8 2.071459 1_555
O68 P17 1.525901 1_555
O68 Zr11 2.071466 1_555
O69 P13 1.525901 1_555
O69 Zr9 2.071459 1_555
O70 P16 1.525901 1_555
O70 Zr8 2.071466 1_555
O71 P17 1.525901 1_555
O71 Zr9 2.071466 1_555
