# generated using pymatgen
data_Li5Fe6P5O24
_symmetry_space_group_name_H-M   'P 1'
_cell_length_a   6.50359300
_cell_length_b   6.85825484
_cell_length_c   10.51741308
_cell_angle_alpha   106.91172827
_cell_angle_beta   107.58098046
_cell_angle_gamma   90.17997654
_symmetry_Int_Tables_number   1
_chemical_formula_structural   Li5Fe6P5O24
_chemical_formula_sum   'Li5 Fe6 P5 O24'
_cell_volume   425.72469434
_cell_formula_units_Z   1
loop_
 _symmetry_equiv_pos_site_id
 _symmetry_equiv_pos_as_xyz
  1  'x, y, z'
loop_
 _atom_site_type_symbol
 _atom_site_label
 _atom_site_symmetry_multiplicity
 _atom_site_fract_x
 _atom_site_fract_y
 _atom_site_fract_z
 _atom_site_occupancy
  Li  Li0  1  0.75404300  0.76511600  0.51599400  1
  Li  Li1  1  0.53149200  0.52022600  0.02008100  1
  Li  Li2  1  0.75924400  0.22502400  0.47519900  1
  Li  Li3  1  0.01535800  0.50353600  0.03490100  1
  Li  Li4  1  0.48412800  0.98762500  0.98161100  1
  Fe  Fe0  1  0.88888700  0.37944400  0.24311900  1
  Fe  Fe1  1  0.81322900  0.87353600  0.24368700  1
  Fe  Fe2  1  0.62988700  0.64962600  0.75391900  1
  Fe  Fe3  1  0.38455800  0.85338700  0.24392600  1
  Fe  Fe4  1  0.23234200  0.24492600  0.45728900  1
  Fe  Fe5  1  0.12443000  0.10929700  0.75637500  1
  P  P0  1  0.99631400  0.99437300  0.00110100  1
  P  P1  1  0.47910800  0.37916100  0.25556100  1
  P  P2  1  0.61983400  0.23732400  0.74712600  1
  P  P3  1  0.25078200  0.76273400  0.50884200  1
  P  P4  1  0.12606300  0.50982000  0.74979400  1
  O  O0  1  0.97351700  0.21885100  0.07532100  1
  O  O1  1  0.95152400  0.15664300  0.32833400  1
  O  O2  1  0.86735600  0.60102800  0.17633800  1
  O  O3  1  0.91465800  0.61275400  0.71542800  1
  O  O4  1  0.69178700  0.47485400  0.37891600  1
  O  O5  1  0.55759600  0.26852400  0.12874400  1
  O  O6  1  0.52883900  0.82534700  0.10646600  1
  O  O7  1  0.66793300  0.92085600  0.38426900  1
  O  O8  1  0.80244400  0.10672500  0.72017200  1
  O  O9  1  0.76080500  0.89180200  0.91130900  1
  O  O10  1  0.70379900  0.44620800  0.86654500  1
  O  O11  1  0.37092900  0.21830200  0.30258800  1
  O  O12  1  0.33293900  0.54217600  0.21397200  1
  O  O13  1  0.52270400  0.31037100  0.61136500  1
  O  O14  1  0.49139600  0.75124100  0.59060700  1
  O  O15  1  0.24622800  0.89860200  0.41054400  1
  O  O16  1  0.08867600  0.86649900  0.10161800  1
  O  O17  1  0.44663800  0.12855300  0.78175300  1
  O  O18  1  0.33066500  0.64637700  0.77517600  1
  O  O19  1  0.15530000  0.53375600  0.42955400  1
  O  O20  1  0.09891600  0.86094600  0.59359100  1
  O  O21  1  0.09430000  0.30523700  0.62098600  1
  O  O22  1  0.16135200  0.42071300  0.87530100  1
  O  O23  1  0.15000400  0.99848200  0.91257900  1
loop_
_geom_bond_atom_site_label_1
_geom_bond_atom_site_label_2
_geom_bond_distance
_geom_bond_site_symmetry_2
Li0 O7 1.941597 1_555
Li0 O4 2.043979 1_555
Li0 O14 2.096386 1_555
Li0 O20 2.168301 1_655
Li0 O3 2.557553 1_555
Li1 O6 2.026892 1_555
Li1 O10 2.177358 1_554
Li1 O2 2.252362 1_555
Li1 O5 2.312412 1_555
Li1 O22 2.397900 1_554
Li2 O7 2.026662 1_545
Li2 O21 2.210268 1_655
Li2 O4 2.213471 1_555
Li2 O1 2.217825 1_555
Li2 O13 2.368330 1_555
Li2 O11 2.618519 1_555
Li3 O2 1.968940 1_455
Li3 O22 2.110280 1_554
Li3 O0 2.148544 1_455
Li3 O10 2.195014 1_454
Li3 O12 2.288993 1_555
Li3 O16 2.385477 1_555
Li4 O6 1.915516 1_556
Li4 O5 2.036510 1_566
Li4 O23 2.081829 1_555
Li4 O9 2.178274 1_555
Li4 O17 2.507155 1_565
Li4 O18 2.628184 1_555
Fe0 O2 1.839908 1_555
Fe0 O1 1.970830 1_555
Fe0 O0 2.022441 1_555
Fe0 O5 2.135306 1_555
Fe0 O4 2.163035 1_555
Fe0 O19 2.166943 1_655
Fe1 O2 1.871663 1_555
Fe1 O6 1.928486 1_555
Fe1 O7 1.936794 1_555
Fe1 O1 1.967498 1_565
Fe1 O16 2.649463 1_655
Fe2 O9 1.940052 1_555
Fe2 O14 2.003225 1_555
Fe2 O3 2.013499 1_555
Fe2 O18 2.025567 1_555
Fe2 O10 2.049913 1_555
Fe2 O13 2.340134 1_555
Fe3 O6 1.914810 1_555
Fe3 O7 1.934745 1_555
Fe3 O16 2.071387 1_555
Fe3 O12 2.075540 1_555
Fe3 O15 2.148110 1_555
Fe3 O11 2.405828 1_565
Fe4 O1 1.886917 1_455
Fe4 O13 2.028876 1_555
Fe4 O11 2.051125 1_555
Fe4 O21 2.112578 1_555
Fe4 O19 2.124641 1_555
Fe4 O15 2.289132 1_545
Fe5 O23 1.966315 1_545
Fe5 O20 1.997453 1_545
Fe5 O8 2.011115 1_455
Fe5 O17 2.029707 1_555
Fe5 O22 2.108265 1_555
Fe5 O21 2.195037 1_555
O0 P0 1.540661 1_545
O3 P4 1.540672 1_655
O4 P1 1.562668 1_555
O5 P1 1.562120 1_555
O8 P2 1.534730 1_555
O9 P0 1.570216 1_556
O10 P2 1.569044 1_555
O11 P1 1.574640 1_555
O12 P1 1.544321 1_555
O13 P2 1.600642 1_555
O14 P3 1.556204 1_555
O15 P3 1.574845 1_555
O16 P0 1.551339 1_455
O17 P2 1.535735 1_555
O18 P4 1.533337 1_555
O19 P3 1.570440 1_555
O20 P3 1.552542 1_555
O21 P4 1.603073 1_555
O22 P4 1.567085 1_555
O23 P0 1.563309 1_456
