# generated using pymatgen
data_In2Ni7B
_symmetry_space_group_name_H-M   'P 1'
_cell_length_a   4.11888700
_cell_length_b   4.11888700
_cell_length_c   8.19163000
_cell_angle_alpha   90.00000000
_cell_angle_beta   90.00000000
_cell_angle_gamma   90.00000000
_symmetry_Int_Tables_number   1
_chemical_formula_structural   In2Ni7B
_chemical_formula_sum   'In2 Ni7 B1'
_cell_volume   138.97288800
_cell_formula_units_Z   1
loop_
 _symmetry_equiv_pos_site_id
 _symmetry_equiv_pos_as_xyz
  1  'x, y, z'
loop_
 _atom_site_type_symbol
 _atom_site_label
 _atom_site_symmetry_multiplicity
 _atom_site_fract_x
 _atom_site_fract_y
 _atom_site_fract_z
 _atom_site_occupancy
  In  In0  1  0.00000000  0.00000000  0.99808800  1
  In  In1  1  0.00000000  0.00000000  0.50191200  1
  Ni  Ni0  1  0.50000000  0.50000000  0.02742500  1
  Ni  Ni1  1  0.50000000  0.50000000  0.47257500  1
  Ni  Ni2  1  0.50000000  0.00000000  0.25000000  1
  Ni  Ni3  1  0.50000000  0.00000000  0.75000000  1
  Ni  Ni4  1  0.00000000  0.50000000  0.25000000  1
  Ni  Ni5  1  0.00000000  0.50000000  0.75000000  1
  Ni  Ni6  1  0.50000000  0.50000000  0.75000000  1
  B  B0  1  0.50000000  0.50000000  0.25000000  1
loop_
_geom_bond_atom_site_label_1
_geom_bond_atom_site_label_2
_geom_bond_distance
_geom_bond_site_symmetry_2
In0 Ni3 2.893325 1_555
In0 Ni5 2.893325 1_545
In0 Ni3 2.893325 1_455
In0 Ni5 2.893325 1_555
In0 Ni4 2.915412 1_556
In0 Ni4 2.915412 1_546
In0 Ni2 2.915412 1_556
In0 Ni2 2.915412 1_456
In0 Ni0 2.922391 1_456
In0 Ni0 2.922391 1_556
In0 Ni0 2.922391 1_546
In0 Ni0 2.922391 1_446
In1 Ni3 2.893325 1_555
In1 Ni5 2.893325 1_545
In1 Ni3 2.893325 1_455
In1 Ni5 2.893325 1_555
In1 Ni4 2.915412 1_545
In1 Ni4 2.915412 1_555
In1 Ni2 2.915412 1_555
In1 Ni2 2.915412 1_455
In1 Ni1 2.922391 1_545
In1 Ni1 2.922391 1_445
In1 Ni1 2.922391 1_555
In1 Ni1 2.922391 1_455
Ni0 Ni6 2.272563 1_554
Ni1 Ni6 2.272563 1_555
Ni3 Ni6 2.059443 1_555
Ni3 Ni6 2.059443 1_545
Ni5 Ni6 2.059443 1_555
Ni5 Ni6 2.059443 1_455
B0 Ni0 1.823252 1_555
B0 Ni1 1.823252 1_555
B0 Ni4 2.059443 1_555
B0 Ni2 2.059443 1_555
B0 Ni4 2.059443 1_655
B0 Ni2 2.059443 1_565
