# generated using pymatgen
data_Mn3Zn9(PO4)8
_symmetry_space_group_name_H-M   'P 1'
_cell_length_a   5.12652600
_cell_length_b   11.58555722
_cell_length_c   11.59284797
_cell_angle_alpha   96.86762605
_cell_angle_beta   93.18361435
_cell_angle_gamma   93.45128502
_symmetry_Int_Tables_number   1
_chemical_formula_structural   Mn3Zn9(PO4)8
_chemical_formula_sum   'Mn3 Zn9 P8 O32'
_cell_volume   680.99305553
_cell_formula_units_Z   1
loop_
 _symmetry_equiv_pos_site_id
 _symmetry_equiv_pos_as_xyz
  1  'x, y, z'
loop_
 _atom_site_type_symbol
 _atom_site_label
 _atom_site_symmetry_multiplicity
 _atom_site_fract_x
 _atom_site_fract_y
 _atom_site_fract_z
 _atom_site_occupancy
  Mn  Mn0  1  0.00000000  0.50000000  0.00000000  1
  Mn  Mn1  1  0.50000000  0.00000000  0.00000000  1
  Mn  Mn2  1  0.50000000  0.50000000  0.50000000  1
  Zn  Zn0  1  0.42059200  0.12122100  0.75705200  1
  Zn  Zn1  1  0.42113600  0.62153900  0.25739000  1
  Zn  Zn2  1  0.92156500  0.75797000  0.62141100  1
  Zn  Zn3  1  0.92074400  0.25728400  0.12162600  1
  Zn  Zn4  1  0.57940800  0.87877900  0.24294800  1
  Zn  Zn5  1  0.57886400  0.37846100  0.74261000  1
  Zn  Zn6  1  0.07843500  0.24203000  0.37858900  1
  Zn  Zn7  1  0.07925600  0.74271600  0.87837400  1
  Zn  Zn8  1  0.00000000  0.00000000  0.50000000  1
  P  P0  1  0.46863300  0.80485400  0.49634200  1
  P  P1  1  0.46623500  0.30306600  0.99669700  1
  P  P2  1  0.96597300  0.99674600  0.80216900  1
  P  P3  1  0.96629100  0.49676900  0.30321000  1
  P  P4  1  0.53136700  0.19514600  0.50365800  1
  P  P5  1  0.53376500  0.69693400  0.00330300  1
  P  P6  1  0.03402700  0.00325400  0.19783100  1
  P  P7  1  0.03370900  0.50323100  0.69679000  1
  O  O0  1  0.56749600  0.69541200  0.54961600  1
  O  O1  1  0.56773400  0.19396000  0.04953200  1
  O  O2  1  0.06756600  0.04907500  0.69227300  1
  O  O3  1  0.06801000  0.54959100  0.19402400  1
  O  O4  1  0.43250400  0.30458800  0.45038400  1
  O  O5  1  0.43226600  0.80604000  0.95046800  1
  O  O6  1  0.93243400  0.95092500  0.30772700  1
  O  O7  1  0.93199000  0.45040900  0.80597600  1
  O  O8  1  0.45343500  0.77906000  0.36047900  1
  O  O9  1  0.45294700  0.27882700  0.86061700  1
  O  O10  1  0.95264000  0.86037500  0.77876600  1
  O  O11  1  0.95284300  0.36039400  0.27901800  1
  O  O12  1  0.54656500  0.22094000  0.63952100  1
  O  O13  1  0.54705300  0.72117300  0.13938300  1
  O  O14  1  0.04736000  0.13962500  0.22123400  1
  O  O15  1  0.04715700  0.63960600  0.72098200  1
  O  O16  1  0.18986900  0.83256700  0.53352600  1
  O  O17  1  0.18767700  0.33019300  0.03358300  1
  O  O18  1  0.68780900  0.03357900  0.83005900  1
  O  O19  1  0.68764400  0.53354300  0.33031700  1
  O  O20  1  0.81013100  0.16743300  0.46647400  1
  O  O21  1  0.81232300  0.66980700  0.96641700  1
  O  O22  1  0.31219100  0.96642100  0.16994100  1
  O  O23  1  0.31235600  0.46645700  0.66968300  1
  O  O24  1  0.67136200  0.90705700  0.53956400  1
  O  O25  1  0.66444700  0.40547300  0.04076200  1
  O  O26  1  0.16413400  0.04081900  0.90437800  1
  O  O27  1  0.16437900  0.54066900  0.40535900  1
  O  O28  1  0.32863800  0.09294300  0.46043600  1
  O  O29  1  0.33555300  0.59452700  0.95923800  1
  O  O30  1  0.83586600  0.95918100  0.09562200  1
  O  O31  1  0.83562100  0.45933100  0.59464100  1
loop_
_geom_bond_atom_site_label_1
_geom_bond_atom_site_label_2
_geom_bond_distance
_geom_bond_site_symmetry_2
Mn0 O25 2.090226 1_455
Mn0 O29 2.090226 1_554
Mn0 O7 2.256254 1_454
Mn0 O3 2.256254 1_555
Mn0 O17 2.305869 1_555
Mn0 O21 2.305869 1_454
Mn1 O30 2.104419 1_545
Mn1 O26 2.104419 1_554
Mn1 O1 2.252828 1_555
Mn1 O5 2.252828 1_544
Mn1 O22 2.304022 1_545
Mn1 O18 2.304022 1_554
Mn2 O31 2.097065 1_555
Mn2 O27 2.097065 1_555
Mn2 O4 2.268970 1_555
Mn2 O0 2.268970 1_555
Mn2 O19 2.300848 1_555
Mn2 O23 2.300848 1_555
O0 P0 1.573488 1_555
O0 Zn2 2.010551 1_555
O1 P1 1.572483 1_554
O1 Zn3 2.009311 1_555
O2 P2 1.575531 1_445
O2 Zn0 2.013645 1_555
O2 Zn8 2.235866 1_555
O3 P3 1.571232 1_455
O3 Zn1 2.008939 1_555
O4 P4 1.573488 1_555
O4 Zn6 2.010551 1_555
O5 P5 1.572483 1_556
O5 Zn7 2.009311 1_555
O6 P6 1.575531 1_665
O6 Zn4 2.013645 1_555
O6 Zn8 2.235866 1_665
O7 P7 1.571232 1_655
O7 Zn5 2.008939 1_555
O8 P0 1.564329 1_555
O8 Zn4 1.998148 1_555
O8 Zn1 2.050908 1_555
O9 P1 1.565884 1_555
O9 Zn5 2.001672 1_555
O9 Zn0 2.054318 1_555
O10 P2 1.567449 1_555
O10 Zn7 2.003158 1_655
O10 Zn2 2.046467 1_555
O11 P3 1.567964 1_555
O11 Zn6 2.007434 1_655
O11 Zn3 2.050627 1_555
O12 P4 1.564329 1_555
O12 Zn0 1.998148 1_555
O12 Zn5 2.050908 1_555
O13 P5 1.565884 1_555
O13 Zn1 2.001672 1_555
O13 Zn4 2.054318 1_555
O14 P6 1.567449 1_555
O14 Zn3 2.003158 1_455
O14 Zn6 2.046467 1_555
O15 P7 1.567964 1_555
O15 Zn2 2.007434 1_455
O15 Zn7 2.050627 1_555
O16 P0 1.556206 1_555
O16 Zn2 1.974835 1_455
O16 Zn8 2.286255 1_565
O17 P1 1.552621 1_554
O17 Zn3 1.962153 1_455
O18 P2 1.552945 1_545
O18 Zn0 1.966761 1_555
O19 P3 1.553052 1_555
O19 Zn1 1.966290 1_555
O20 P4 1.556206 1_555
O20 Zn6 1.974835 1_655
O20 Zn8 2.286255 1_655
O21 P5 1.552621 1_556
O21 Zn7 1.962153 1_655
O22 P6 1.552945 1_565
O22 Zn4 1.966761 1_555
O23 P7 1.553052 1_555
O23 Zn5 1.966290 1_555
O24 P0 1.544458 1_555
O24 Zn8 2.047885 1_665
O24 Zn2 2.460176 1_555
O25 P1 1.534075 1_554
O25 Zn3 2.464232 1_555
O26 P2 1.534881 1_445
O26 Zn0 2.448609 1_555
O27 P3 1.533772 1_455
O27 Zn1 2.457560 1_555
O28 P4 1.544458 1_555
O28 Zn8 2.047885 1_555
O28 Zn6 2.460176 1_555
O29 P5 1.534075 1_556
O29 Zn7 2.464232 1_555
O30 P6 1.534881 1_665
O30 Zn4 2.448609 1_555
O31 P7 1.533772 1_655
O31 Zn5 2.457560 1_555
