# generated using pymatgen
data_Tm3Co29(Si2B5)2
_symmetry_space_group_name_H-M   'P 1'
_cell_length_a   11.11455700
_cell_length_b   11.11455700
_cell_length_c   7.81163600
_cell_angle_alpha   90.00000000
_cell_angle_beta   90.00000000
_cell_angle_gamma   90.00000000
_symmetry_Int_Tables_number   1
_chemical_formula_structural   Tm3Co29(Si2B5)2
_chemical_formula_sum   'Tm6 Co58 Si8 B20'
_cell_volume   964.99777737
_cell_formula_units_Z   2
loop_
 _symmetry_equiv_pos_site_id
 _symmetry_equiv_pos_as_xyz
  1  'x, y, z'
loop_
 _atom_site_type_symbol
 _atom_site_label
 _atom_site_symmetry_multiplicity
 _atom_site_fract_x
 _atom_site_fract_y
 _atom_site_fract_z
 _atom_site_occupancy
  Tm  Tm0  1  0.25000000  0.75000000  0.00000000  1
  Tm  Tm1  1  0.25000000  0.25000000  0.00000000  1
  Tm  Tm2  1  0.75000000  0.75000000  0.00000000  1
  Tm  Tm3  1  0.75000000  0.25000000  0.00000000  1
  Tm  Tm4  1  0.00000000  0.00000000  0.50000000  1
  Tm  Tm5  1  0.50000000  0.50000000  0.50000000  1
  Co  Co0  1  0.33858400  0.67421800  0.33560400  1
  Co  Co1  1  0.27161600  0.00000000  0.52663600  1
  Co  Co2  1  0.50000000  0.77161600  0.52663600  1
  Co  Co3  1  0.50000000  0.22838400  0.52663600  1
  Co  Co4  1  0.83514200  0.50000000  0.97006900  1
  Co  Co5  1  0.00000000  0.66485800  0.97006900  1
  Co  Co6  1  0.00000000  0.33514200  0.97006900  1
  Co  Co7  1  0.16485800  0.50000000  0.97006900  1
  Co  Co8  1  0.66485800  0.00000000  0.02993100  1
  Co  Co9  1  0.33514200  0.00000000  0.02993100  1
  Co  Co10  1  0.50000000  0.83514200  0.02993100  1
  Co  Co11  1  0.50000000  0.16485800  0.02993100  1
  Co  Co12  1  0.88378300  0.38378300  0.24803300  1
  Co  Co13  1  0.88378300  0.61621700  0.24803300  1
  Co  Co14  1  0.11621700  0.38378300  0.24803300  1
  Co  Co15  1  0.11621700  0.61621700  0.24803300  1
  Co  Co16  1  0.61621700  0.88378300  0.75196700  1
  Co  Co17  1  0.38378300  0.11621700  0.75196700  1
  Co  Co18  1  0.38378300  0.88378300  0.75196700  1
  Co  Co19  1  0.61621700  0.11621700  0.75196700  1
  Co  Co20  1  0.88987000  0.38987000  0.69843600  1
  Co  Co21  1  0.88987000  0.61013000  0.69843600  1
  Co  Co22  1  0.11013000  0.38987000  0.69843600  1
  Co  Co23  1  0.11013000  0.61013000  0.69843600  1
  Co  Co24  1  0.61013000  0.88987000  0.30156400  1
  Co  Co25  1  0.38987000  0.11013000  0.30156400  1
  Co  Co26  1  0.38987000  0.88987000  0.30156400  1
  Co  Co27  1  0.61013000  0.11013000  0.30156400  1
  Co  Co28  1  0.33858400  0.32578200  0.33560400  1
  Co  Co29  1  0.82578200  0.16141600  0.33560400  1
  Co  Co30  1  0.17421800  0.83858400  0.33560400  1
  Co  Co31  1  0.66141600  0.67421800  0.33560400  1
  Co  Co32  1  0.16141600  0.82578200  0.66439600  1
  Co  Co33  1  0.83858400  0.17421800  0.66439600  1
  Co  Co34  1  0.32578200  0.33858400  0.66439600  1
  Co  Co35  1  0.61020000  0.50000000  0.88867300  1
  Co  Co36  1  0.16141600  0.17421800  0.66439600  1
  Co  Co37  1  0.67421800  0.33858400  0.66439600  1
  Co  Co38  1  0.32578200  0.66141600  0.66439600  1
  Co  Co39  1  0.83858400  0.82578200  0.66439600  1
  Co  Co40  1  0.72838400  0.00000000  0.52663600  1
  Co  Co41  1  0.00000000  0.88980000  0.88867300  1
  Co  Co42  1  0.17421800  0.16141600  0.33560400  1
  Co  Co43  1  0.82578200  0.83858400  0.33560400  1
  Co  Co44  1  0.00000000  0.11020000  0.88867300  1
  Co  Co45  1  0.38980000  0.50000000  0.88867300  1
  Co  Co46  1  0.50000000  0.00000000  0.53444400  1
  Co  Co47  1  0.00000000  0.50000000  0.46555600  1
  Co  Co48  1  0.11020000  0.00000000  0.11132700  1
  Co  Co49  1  0.22838400  0.50000000  0.47336400  1
  Co  Co50  1  0.00000000  0.27161600  0.47336400  1
  Co  Co51  1  0.00000000  0.72838400  0.47336400  1
  Co  Co52  1  0.77161600  0.50000000  0.47336400  1
  Co  Co53  1  0.50000000  0.61020000  0.11132700  1
  Co  Co54  1  0.50000000  0.38980000  0.11132700  1
  Co  Co55  1  0.88980000  0.00000000  0.11132700  1
  Co  Co56  1  0.67421800  0.66141600  0.66439600  1
  Co  Co57  1  0.66141600  0.32578200  0.33560400  1
  Si  Si0  1  0.50000000  0.68212400  0.82510600  1
  Si  Si1  1  0.31787600  0.50000000  0.17489400  1
  Si  Si2  1  0.00000000  0.18212400  0.17489400  1
  Si  Si3  1  0.00000000  0.81787600  0.17489400  1
  Si  Si4  1  0.68212400  0.50000000  0.17489400  1
  Si  Si5  1  0.18212400  0.00000000  0.82510600  1
  Si  Si6  1  0.81787600  0.00000000  0.82510600  1
  Si  Si7  1  0.50000000  0.31787600  0.82510600  1
  B  B0  1  0.68636100  0.18636100  0.51819200  1
  B  B1  1  0.31363900  0.81363900  0.51819200  1
  B  B2  1  0.31363900  0.18636100  0.51819200  1
  B  B3  1  0.68636100  0.81363900  0.51819200  1
  B  B4  1  0.18636100  0.68636100  0.48180800  1
  B  B5  1  0.18636100  0.31363900  0.48180800  1
  B  B6  1  0.50000000  0.25626800  0.26410200  1
  B  B7  1  0.50000000  0.74373200  0.26410200  1
  B  B8  1  0.24373200  0.00000000  0.26410200  1
  B  B9  1  0.75626800  0.00000000  0.26410200  1
  B  B10  1  0.25626800  0.50000000  0.73589800  1
  B  B11  1  0.00000000  0.24373200  0.73589800  1
  B  B12  1  0.00000000  0.75626800  0.73589800  1
  B  B13  1  0.74373200  0.50000000  0.73589800  1
  B  B14  1  0.50000000  0.00000000  0.14946000  1
  B  B15  1  0.00000000  0.50000000  0.85054000  1
  B  B16  1  0.50000000  0.00000000  0.89265300  1
  B  B17  1  0.00000000  0.50000000  0.10734700  1
  B  B18  1  0.81363900  0.68636100  0.48180800  1
  B  B19  1  0.81363900  0.31363900  0.48180800  1
loop_
_geom_bond_atom_site_label_1
_geom_bond_atom_site_label_2
_geom_bond_distance
_geom_bond_site_symmetry_2
Co0 Si1 2.319159 1_555
Co0 Tm0 2.924328 1_555
Co0 Tm5 2.935528 1_555
Co1 Si5 2.534843 1_555
Co1 Co46 2.539120 1_555
Co1 Tm4 3.026053 1_555
Co2 Si0 2.534843 1_555
Co2 Co46 2.539120 1_565
Co2 Tm5 3.026053 1_555
Co3 Si7 2.534843 1_555
Co3 Co46 2.539120 1_555
Co3 Tm5 3.026053 1_555
Co4 Si4 2.335066 1_556
Co4 Tm2 2.944659 1_556
Co4 Tm3 2.944659 1_556
Co5 Si3 2.335066 1_556
Co5 Tm2 2.944659 1_456
Co5 Tm0 2.944659 1_556
Co6 Si2 2.335066 1_556
Co6 Tm3 2.944659 1_456
Co6 Tm1 2.944659 1_556
Co7 Si1 2.335066 1_556
Co7 Tm0 2.944659 1_556
Co7 Tm1 2.944659 1_556
Co8 Si6 2.335066 1_554
Co8 Tm3 2.944659 1_555
Co8 Tm2 2.944659 1_545
Co9 Si5 2.335066 1_554
Co9 Tm0 2.944659 1_545
Co9 Tm1 2.944659 1_555
Co10 Si0 2.335066 1_554
Co10 Tm0 2.944659 1_555
Co10 Tm2 2.944659 1_555
Co11 Si7 2.335066 1_554
Co11 Tm3 2.944659 1_555
Co11 Tm1 2.944659 1_555
Co12 Co47 2.494854 1_655
Co12 Si2 2.649258 1_655
Co12 Si4 2.649258 1_555
Co12 Tm3 2.859379 1_555
Co13 Co47 2.494854 1_655
Co13 Si4 2.649258 1_555
Co13 Si3 2.649258 1_655
Co13 Tm2 2.859379 1_555
Co14 Co47 2.494854 1_555
Co14 Si2 2.649258 1_555
Co14 Si1 2.649258 1_555
Co14 Tm1 2.859379 1_555
Co15 Co47 2.494854 1_555
Co15 Si1 2.649258 1_555
Co15 Si3 2.649258 1_555
Co15 Tm0 2.859379 1_555
Co16 Co46 2.494854 1_565
Co16 Si0 2.649258 1_555
Co16 Si6 2.649258 1_565
Co16 Tm2 2.859379 1_556
Co17 Co46 2.494854 1_555
Co17 Si5 2.649258 1_555
Co17 Si7 2.649258 1_555
Co17 Tm1 2.859379 1_556
Co18 Co46 2.494854 1_565
Co18 Si5 2.649258 1_565
Co18 Si0 2.649258 1_555
Co18 Tm0 2.859379 1_556
Co19 Co46 2.494854 1_555
Co19 Si7 2.649258 1_555
Co19 Si6 2.649258 1_555
Co19 Tm3 2.859379 1_556
Co20 Co47 2.511169 1_655
Co20 Tm3 3.222248 1_556
Co21 Co47 2.511169 1_655
Co21 Tm2 3.222248 1_556
Co22 Co47 2.511169 1_555
Co22 Tm1 3.222248 1_556
Co23 Co47 2.511169 1_555
Co23 Tm0 3.222248 1_556
Co24 Co46 2.511169 1_565
Co24 Tm2 3.222248 1_555
Co25 Co46 2.511169 1_555
Co25 Tm1 3.222248 1_555
Co26 Co46 2.511169 1_565
Co26 Tm0 3.222248 1_555
Co27 Co46 2.511169 1_555
Co27 Tm3 3.222248 1_555
Co28 Si1 2.319159 1_555
Co28 Tm1 2.924328 1_555
Co28 Tm5 2.935528 1_555
Co29 Si2 2.319159 1_655
Co29 Tm3 2.924328 1_555
Co29 Tm4 2.935528 1_655
Co30 Si3 2.319159 1_555
Co30 Tm0 2.924328 1_555
Co30 Tm4 2.935528 1_565
Co31 Si4 2.319159 1_555
Co31 Tm2 2.924328 1_555
Co31 Tm5 2.935528 1_555
Co32 Si5 2.319159 1_565
Co32 Tm0 2.924328 1_556
Co32 Tm4 2.935528 1_565
Co33 Si6 2.319159 1_555
Co33 Tm3 2.924328 1_556
Co33 Tm4 2.935528 1_655
Co34 Si7 2.319159 1_555
Co34 Tm1 2.924328 1_556
Co34 Tm5 2.935528 1_555
Co35 Si4 2.374466 1_556
Co35 Si0 2.417492 1_555
Co35 Si7 2.417492 1_555
Co35 Tm2 3.300221 1_556
Co35 Tm3 3.300221 1_556
Co36 Si5 2.319159 1_555
Co36 Tm1 2.924328 1_556
Co36 Tm4 2.935528 1_555
Co37 Si7 2.319159 1_555
Co37 Tm3 2.924328 1_556
Co37 Tm5 2.935528 1_555
Co38 Si0 2.319159 1_555
Co38 Tm0 2.924328 1_556
Co38 Tm5 2.935528 1_555
Co39 Si6 2.319159 1_565
Co39 Tm2 2.924328 1_556
Co39 Tm4 2.935528 1_665
Co40 Si6 2.534843 1_555
Co40 Co46 2.539120 1_555
Co40 Tm4 3.026053 1_655
Co41 Si3 2.374466 1_556
Co41 Si6 2.417492 1_465
Co41 Si5 2.417492 1_565
Co41 Tm2 3.300221 1_456
Co41 Tm0 3.300221 1_556
Co42 Si2 2.319159 1_555
Co42 Tm1 2.924328 1_555
Co42 Tm4 2.935528 1_555
Co43 Si3 2.319159 1_655
Co43 Tm2 2.924328 1_555
Co43 Tm4 2.935528 1_665
Co44 Si2 2.374466 1_556
Co44 Si6 2.417492 1_455
Co44 Si5 2.417492 1_555
Co44 Tm3 3.300221 1_456
Co44 Tm1 3.300221 1_556
Co45 Si1 2.374466 1_556
Co45 Si0 2.417492 1_555
Co45 Si7 2.417492 1_555
Co45 Tm0 3.300221 1_556
Co45 Tm1 3.300221 1_556
Co47 Co50 2.539120 1_555
Co47 Co49 2.539120 1_555
Co47 Co52 2.539120 1_455
Co47 Co51 2.539120 1_555
Co48 Si5 2.374466 1_554
Co48 Si3 2.417492 1_545
Co48 Si2 2.417492 1_555
Co48 Tm1 3.300221 1_555
Co48 Tm0 3.300221 1_545
Co49 Si1 2.534843 1_555
Co49 Tm5 3.026053 1_555
Co50 Si2 2.534843 1_555
Co50 Tm4 3.026053 1_555
Co51 Si3 2.534843 1_555
Co51 Tm4 3.026053 1_565
Co52 Si4 2.534843 1_555
Co52 Tm5 3.026053 1_555
Co53 Si0 2.374466 1_554
Co53 Si4 2.417492 1_555
Co53 Si1 2.417492 1_555
Co53 Tm0 3.300221 1_555
Co53 Tm2 3.300221 1_555
Co54 Si7 2.374466 1_554
Co54 Si4 2.417492 1_555
Co54 Si1 2.417492 1_555
Co54 Tm1 3.300221 1_555
Co54 Tm3 3.300221 1_555
Co55 Si6 2.374466 1_554
Co55 Si2 2.417492 1_655
Co55 Si3 2.417492 1_645
Co55 Tm2 3.300221 1_545
Co55 Tm3 3.300221 1_555
Co56 Si0 2.319159 1_555
Co56 Tm2 2.924328 1_556
Co56 Tm5 2.935528 1_555
Co57 Si4 2.319159 1_555
Co57 Tm3 2.924328 1_555
Co57 Tm5 2.935528 1_555
Si0 Tm2 3.186926 1_556
Si0 Tm0 3.186926 1_556
Si0 Tm5 3.247632 1_555
Si1 Tm0 3.186926 1_555
Si1 Tm1 3.186926 1_555
Si1 Tm5 3.247632 1_555
Si2 Tm3 3.186926 1_455
Si2 Tm1 3.186926 1_555
Si2 Tm4 3.247632 1_555
Si3 Tm2 3.186926 1_455
Si3 Tm0 3.186926 1_555
Si3 Tm4 3.247632 1_565
Si4 Tm3 3.186926 1_555
Si4 Tm2 3.186926 1_555
Si4 Tm5 3.247632 1_555
Si5 Tm0 3.186926 1_546
Si5 Tm1 3.186926 1_556
Si5 Tm4 3.247632 1_555
Si6 Tm3 3.186926 1_556
Si6 Tm2 3.186926 1_546
Si6 Tm4 3.247632 1_655
Si7 Tm3 3.186926 1_556
Si7 Tm1 3.186926 1_556
Si7 Tm5 3.247632 1_555
B0 B19 2.020689 1_555
B0 Co33 2.045748 1_555
B0 Co37 2.045748 1_555
B0 Co27 2.073488 1_555
B0 Co57 2.124265 1_555
B0 Co29 2.124265 1_555
B0 Co3 2.124351 1_555
B0 Co40 2.124351 1_555
B0 Co19 2.133188 1_555
B1 B4 2.020689 1_555
B1 Co38 2.045748 1_555
B1 Co32 2.045748 1_555
B1 Co26 2.073488 1_555
B1 Co30 2.124265 1_555
B1 Co0 2.124265 1_555
B1 Co1 2.124351 1_565
B1 Co2 2.124351 1_555
B1 Co18 2.133188 1_555
B2 B5 2.020689 1_555
B2 Co34 2.045748 1_555
B2 Co36 2.045748 1_555
B2 Co25 2.073488 1_555
B2 Co28 2.124265 1_555
B2 Co42 2.124265 1_555
B2 Co1 2.124351 1_555
B2 Co3 2.124351 1_555
B2 Co17 2.133188 1_555
B3 Co56 2.045748 1_555
B3 Co39 2.045748 1_555
B3 Co24 2.073488 1_555
B3 Co31 2.124265 1_555
B3 Co43 2.124265 1_555
B3 Co2 2.124351 1_555
B3 Co40 2.124351 1_565
B3 Co16 2.133188 1_555
B4 Co0 2.045748 1_555
B4 Co30 2.045748 1_555
B4 Co23 2.073488 1_555
B4 Co32 2.124265 1_555
B4 Co38 2.124265 1_555
B4 Co51 2.124351 1_555
B4 Co49 2.124351 1_555
B4 Co15 2.133188 1_555
B5 Co28 2.045748 1_555
B5 Co42 2.045748 1_555
B5 Co22 2.073488 1_555
B5 Co36 2.124265 1_555
B5 Co34 2.124265 1_555
B5 Co50 2.124351 1_555
B5 Co49 2.124351 1_555
B5 Co14 2.133188 1_555
B6 Co54 1.904457 1_555
B6 Co57 2.031647 1_555
B6 Co28 2.031647 1_555
B6 Co27 2.054786 1_555
B6 Co25 2.054786 1_555
B6 Co3 2.074105 1_555
B6 Co11 2.092464 1_555
B7 Co53 1.904457 1_555
B7 Co31 2.031647 1_555
B7 Co0 2.031647 1_555
B7 Co24 2.054786 1_555
B7 Co26 2.054786 1_555
B7 Co2 2.074105 1_555
B7 Co10 2.092464 1_555
B8 Co48 1.904457 1_555
B8 Co42 2.031647 1_555
B8 Co30 2.031647 1_545
B8 Co26 2.054786 1_545
B8 Co25 2.054786 1_555
B8 Co1 2.074105 1_555
B8 Co9 2.092464 1_555
B9 Co55 1.904457 1_555
B9 Co43 2.031647 1_545
B9 Co29 2.031647 1_555
B9 Co27 2.054786 1_555
B9 Co24 2.054786 1_545
B9 Co40 2.074105 1_555
B9 Co8 2.092464 1_555
B10 Co45 1.904457 1_555
B10 Co34 2.031647 1_555
B10 Co38 2.031647 1_555
B10 Co23 2.054786 1_555
B10 Co22 2.054786 1_555
B10 Co49 2.074105 1_555
B10 Co7 2.092464 1_555
B11 Co44 1.904457 1_555
B11 Co33 2.031647 1_455
B11 Co36 2.031647 1_555
B11 Co20 2.054786 1_455
B11 Co22 2.054786 1_555
B11 Co50 2.074105 1_555
B11 Co6 2.092464 1_555
B12 Co41 1.904457 1_555
B12 Co32 2.031647 1_555
B12 Co39 2.031647 1_455
B12 Co21 2.054786 1_455
B12 Co23 2.054786 1_555
B12 Co51 2.074105 1_555
B12 Co5 2.092464 1_555
B13 Co35 1.904457 1_555
B13 Co56 2.031647 1_555
B13 Co37 2.031647 1_555
B13 Co21 2.054786 1_555
B13 Co20 2.054786 1_555
B13 Co52 2.074105 1_555
B13 Co4 2.092464 1_555
B14 B16 2.006083 1_554
B14 Co8 2.056511 1_555
B14 Co10 2.056511 1_545
B14 Co11 2.056511 1_555
B14 Co9 2.056511 1_555
B14 Co27 2.099608 1_555
B14 Co24 2.099608 1_545
B14 Co26 2.099608 1_545
B14 Co25 2.099608 1_555
B15 B17 2.006083 1_556
B15 Co4 2.056511 1_455
B15 Co5 2.056511 1_555
B15 Co6 2.056511 1_555
B15 Co7 2.056511 1_555
B15 Co21 2.099608 1_455
B15 Co23 2.099608 1_555
B15 Co20 2.099608 1_455
B15 Co22 2.099608 1_555
B16 Co8 2.123059 1_556
B16 Co10 2.123059 1_546
B16 Co9 2.123059 1_556
B16 Co11 2.123059 1_556
B16 Co17 2.131843 1_555
B16 Co19 2.131843 1_555
B16 Co16 2.131843 1_545
B16 Co18 2.131843 1_545
B17 Co4 2.123059 1_454
B17 Co5 2.123059 1_554
B17 Co7 2.123059 1_554
B17 Co6 2.123059 1_554
B17 Co15 2.131843 1_555
B17 Co14 2.131843 1_555
B17 Co12 2.131843 1_455
B17 Co13 2.131843 1_455
B18 B3 2.020689 1_555
B18 Co43 2.045748 1_555
B18 Co31 2.045748 1_555
B18 Co21 2.073488 1_555
B18 Co39 2.124265 1_555
B18 Co56 2.124265 1_555
B18 Co51 2.124351 1_655
B18 Co52 2.124351 1_555
B18 Co13 2.133188 1_555
B19 Co57 2.045748 1_555
B19 Co29 2.045748 1_555
B19 Co20 2.073488 1_555
B19 Co33 2.124265 1_555
B19 Co37 2.124265 1_555
B19 Co50 2.124351 1_655
B19 Co52 2.124351 1_555
B19 Co12 2.133188 1_555
