# generated using pymatgen
data_Ti5S8
_symmetry_space_group_name_H-M   'P 1'
_cell_length_a   12.16743144
_cell_length_b   12.16743144
_cell_length_c   5.94890515
_cell_angle_alpha   76.73375627
_cell_angle_beta   76.73375627
_cell_angle_gamma   16.15716427
_symmetry_Int_Tables_number   1
_chemical_formula_structural   Ti5S8
_chemical_formula_sum   'Ti5 S8'
_cell_volume   238.40525693
_cell_formula_units_Z   1
loop_
 _symmetry_equiv_pos_site_id
 _symmetry_equiv_pos_as_xyz
  1  'x, y, z'
loop_
 _atom_site_type_symbol
 _atom_site_label
 _atom_site_symmetry_multiplicity
 _atom_site_fract_x
 _atom_site_fract_y
 _atom_site_fract_z
 _atom_site_occupancy
  Ti  Ti0  1  0.75779400  0.75779400  0.91160100  1
  Ti  Ti1  1  0.62490000  0.62490000  0.03431300  1
  Ti  Ti2  1  0.12497300  0.12497300  0.55301600  1
  Ti  Ti3  1  0.37487600  0.37487600  0.95584800  1
  Ti  Ti4  1  0.87730700  0.87730700  0.45017100  1
  S  S0  1  0.31220000  0.31220000  0.67456700  1
  S  S1  1  0.81264900  0.81264900  0.19364000  1
  S  S2  1  0.06366200  0.06366200  0.93443800  1
  S  S3  1  0.56726700  0.56726700  0.43144900  1
  S  S4  1  0.43708800  0.43708800  0.23173000  1
  S  S5  1  0.93505100  0.93505100  0.73526400  1
  S  S6  1  0.68884800  0.68884800  0.65113400  1
  S  S7  1  0.19029400  0.19029400  0.14748000  1
loop_
_geom_bond_atom_site_label_1
_geom_bond_atom_site_label_2
_geom_bond_distance
_geom_bond_site_symmetry_2
S0 Ti0 2.402825 1_545
S0 Ti0 2.402825 1_455
S0 Ti4 2.489122 1_545
S0 Ti4 2.489122 1_455
S0 Ti3 2.500326 1_555
S1 Ti0 2.364265 1_554
S1 Ti4 2.420286 1_555
S1 Ti3 2.487873 1_654
S1 Ti3 2.487873 1_564
S2 Ti2 2.403519 1_555
S2 Ti1 2.420750 1_456
S2 Ti1 2.420750 1_546
S3 Ti2 2.417827 1_565
S3 Ti2 2.417827 1_655
S3 Ti1 2.447234 1_555
S4 Ti4 2.412332 1_455
S4 Ti4 2.412332 1_545
S4 Ti3 2.465877 1_554
S5 Ti3 2.421939 1_655
S5 Ti3 2.421939 1_565
S5 Ti4 2.430171 1_555
S6 Ti1 2.437601 1_556
S6 Ti2 2.459529 1_565
S6 Ti2 2.459529 1_655
S6 Ti0 2.520610 1_555
S7 Ti1 2.520135 1_455
S7 Ti1 2.520135 1_545
S7 Ti0 2.545546 1_544
S7 Ti0 2.545546 1_454
S7 Ti2 2.556751 1_555
