# generated using pymatgen
data_MgCoSiO4
_symmetry_space_group_name_H-M   'P 1'
_cell_length_a   4.81636600
_cell_length_b   6.09147700
_cell_length_c   10.29633200
_cell_angle_alpha   90.00000000
_cell_angle_beta   90.00000000
_cell_angle_gamma   90.00000000
_symmetry_Int_Tables_number   1
_chemical_formula_structural   MgCoSiO4
_chemical_formula_sum   'Mg4 Co4 Si4 O16'
_cell_volume   302.08184728
_cell_formula_units_Z   4
loop_
 _symmetry_equiv_pos_site_id
 _symmetry_equiv_pos_as_xyz
  1  'x, y, z'
loop_
 _atom_site_type_symbol
 _atom_site_label
 _atom_site_symmetry_multiplicity
 _atom_site_fract_x
 _atom_site_fract_y
 _atom_site_fract_z
 _atom_site_occupancy
  Mg  Mg0  1  0.50000000  0.00000000  0.50000000  1
  Mg  Mg1  1  0.00000000  0.50000000  0.00000000  1
  Mg  Mg2  1  0.50000000  0.50000000  0.50000000  1
  Mg  Mg3  1  0.00000000  0.00000000  0.00000000  1
  Co  Co0  1  0.49882500  0.75000000  0.77513100  1
  Co  Co1  1  0.00117500  0.75000000  0.27513100  1
  Co  Co2  1  0.50117500  0.25000000  0.22486900  1
  Co  Co3  1  0.99882500  0.25000000  0.72486900  1
  Si  Si0  1  0.92704100  0.75000000  0.59408300  1
  Si  Si1  1  0.57295900  0.75000000  0.09408300  1
  Si  Si2  1  0.07295900  0.25000000  0.40591700  1
  Si  Si3  1  0.42704100  0.25000000  0.90591700  1
  O  O0  1  0.26569700  0.75000000  0.59066400  1
  O  O1  1  0.23430300  0.75000000  0.09066400  1
  O  O2  1  0.73430300  0.25000000  0.40933600  1
  O  O3  1  0.76569700  0.25000000  0.90933600  1
  O  O4  1  0.72319000  0.75000000  0.94685500  1
  O  O5  1  0.77681000  0.75000000  0.44685500  1
  O  O6  1  0.27681000  0.25000000  0.05314500  1
  O  O7  1  0.22319000  0.25000000  0.55314500  1
  O  O8  1  0.77621700  0.96728700  0.66161700  1
  O  O9  1  0.72378300  0.53271300  0.16161700  1
  O  O10  1  0.22378300  0.46728700  0.33838300  1
  O  O11  1  0.27621700  0.03271300  0.83838300  1
  O  O12  1  0.22378300  0.03271300  0.33838300  1
  O  O13  1  0.27621700  0.46728700  0.83838300  1
  O  O14  1  0.77621700  0.53271300  0.66161700  1
  O  O15  1  0.72378300  0.96728700  0.16161700  1
loop_
_geom_bond_atom_site_label_1
_geom_bond_atom_site_label_2
_geom_bond_distance
_geom_bond_site_symmetry_2
Mg0 O7 2.096671 1_555
Mg0 O5 2.096671 1_545
Mg0 O0 2.112831 1_545
Mg0 O2 2.112831 1_555
Mg0 O12 2.139784 1_555
Mg0 O8 2.139784 1_545
Mg1 O6 2.096671 1_555
Mg1 O4 2.096671 1_454
Mg1 O1 2.112831 1_555
Mg1 O3 2.112831 1_454
Mg1 O13 2.139784 1_554
Mg1 O9 2.139784 1_455
Mg2 O7 2.096671 1_555
Mg2 O5 2.096671 1_555
Mg2 O0 2.112831 1_555
Mg2 O2 2.112831 1_555
Mg2 O10 2.139784 1_555
Mg2 O14 2.139784 1_555
Mg3 O6 2.096671 1_555
Mg3 O4 2.096671 1_444
Mg3 O3 2.112831 1_454
Mg3 O1 2.112831 1_545
Mg3 O15 2.139784 1_445
Mg3 O11 2.139784 1_554
Co0 O4 2.072202 1_555
Co0 O11 2.130596 1_565
Co0 O13 2.130596 1_555
Co0 O0 2.206403 1_555
Co0 O14 2.214251 1_555
Co0 O8 2.214251 1_555
Co1 O5 2.072202 1_455
Co1 O10 2.130596 1_555
Co1 O12 2.130596 1_565
Co1 O1 2.206403 1_555
Co1 O15 2.214251 1_455
Co1 O9 2.214251 1_455
Co2 O6 2.072202 1_555
Co2 O9 2.130596 1_555
Co2 O15 2.130596 1_545
Co2 O2 2.206403 1_555
Co2 O10 2.214251 1_555
Co2 O12 2.214251 1_555
Co3 O7 2.072202 1_655
Co3 O8 2.130596 1_545
Co3 O14 2.130596 1_555
Co3 O3 2.206403 1_555
Co3 O11 2.214251 1_655
Co3 O13 2.214251 1_655
O0 Si0 1.631471 1_455
O1 Si1 1.631471 1_555
O2 Si2 1.631471 1_655
O3 Si3 1.631471 1_555
O4 Si1 1.679740 1_556
O5 Si0 1.679740 1_555
O6 Si3 1.679740 1_554
O7 Si2 1.679740 1_555
O8 Si0 1.662264 1_555
O9 Si1 1.662264 1_555
O10 Si2 1.662264 1_555
O11 Si3 1.662264 1_555
O12 Si2 1.662264 1_555
O13 Si3 1.662264 1_555
O14 Si0 1.662264 1_555
O15 Si1 1.662264 1_555
