# generated using pymatgen
data_Eu2HoTaO6
_symmetry_space_group_name_H-M   'P 1'
_cell_length_a   5.90178900
_cell_length_b   5.79287000
_cell_length_c   10.08921699
_cell_angle_alpha   54.84046997
_cell_angle_beta   90.00000000
_cell_angle_gamma   90.00000000
_symmetry_Int_Tables_number   1
_chemical_formula_structural   Eu2HoTaO6
_chemical_formula_sum   'Eu4 Ho2 Ta2 O12'
_cell_volume   282.00072731
_cell_formula_units_Z   2
loop_
 _symmetry_equiv_pos_site_id
 _symmetry_equiv_pos_as_xyz
  1  'x, y, z'
loop_
 _atom_site_type_symbol
 _atom_site_label
 _atom_site_symmetry_multiplicity
 _atom_site_fract_x
 _atom_site_fract_y
 _atom_site_fract_z
 _atom_site_occupancy
  Eu  Eu0  1  0.45718400  0.73650700  0.75058300  1
  Eu  Eu1  1  0.04281600  0.73650700  0.25058300  1
  Eu  Eu2  1  0.54281600  0.26349300  0.24941700  1
  Eu  Eu3  1  0.95718400  0.26349300  0.74941700  1
  Ho  Ho0  1  0.50000000  0.50000000  0.50000000  1
  Ho  Ho1  1  0.00000000  0.50000000  0.00000000  1
  Ta  Ta0  1  0.50000000  0.00000000  0.00000000  1
  Ta  Ta1  1  0.00000000  0.00000000  0.50000000  1
  O  O0  1  0.02816300  0.85729100  0.73544100  1
  O  O1  1  0.47183700  0.85729100  0.23544100  1
  O  O2  1  0.97183700  0.14270900  0.26455900  1
  O  O3  1  0.52816300  0.14270900  0.76455900  1
  O  O4  1  0.80435900  0.32430600  0.45321700  1
  O  O5  1  0.69564100  0.32430600  0.95321700  1
  O  O6  1  0.19564100  0.67569400  0.54678300  1
  O  O7  1  0.30435900  0.67569400  0.04678300  1
  O  O8  1  0.77804300  0.75662400  0.05175900  1
  O  O9  1  0.72195700  0.75662400  0.55175900  1
  O  O10  1  0.22195700  0.24337600  0.94824100  1
  O  O11  1  0.27804300  0.24337600  0.44824100  1
loop_
_geom_bond_atom_site_label_1
_geom_bond_atom_site_label_2
_geom_bond_distance
_geom_bond_site_symmetry_2
Eu0 O3 2.472744 1_565
Eu0 O9 2.492012 1_555
Eu0 O5 2.497919 1_555
Eu0 O0 2.607829 1_555
Eu0 O10 2.739262 1_555
Eu0 O6 2.751154 1_555
Eu0 O7 2.942075 1_556
Eu0 O11 2.954429 1_565
Eu1 O2 2.472744 1_465
Eu1 O8 2.492012 1_455
Eu1 O4 2.497919 1_455
Eu1 O1 2.607829 1_555
Eu1 O11 2.739262 1_555
Eu1 O7 2.751154 1_555
Eu1 O6 2.942075 1_555
Eu1 O10 2.954429 1_564
Eu2 O1 2.472744 1_545
Eu2 O11 2.492012 1_555
Eu2 O7 2.497919 1_555
Eu2 O2 2.607829 1_555
Eu2 O8 2.739262 1_555
Eu2 O4 2.751154 1_555
Eu2 O5 2.942075 1_554
Eu2 O9 2.954429 1_545
Eu3 O0 2.472744 1_645
Eu3 O10 2.492012 1_655
Eu3 O6 2.497919 1_655
Eu3 O3 2.607829 1_555
Eu3 O9 2.739262 1_555
Eu3 O5 2.751154 1_555
Eu3 O4 2.942075 1_555
Eu3 O8 2.954429 1_546
Ho0 O6 2.244656 1_555
Ho0 O4 2.244656 1_555
Ho0 O3 2.252416 1_555
Ho0 O1 2.252416 1_555
Ho0 O9 2.256697 1_555
Ho0 O11 2.256697 1_555
Ho1 O7 2.244656 1_555
Ho1 O5 2.244656 1_454
Ho1 O0 2.252416 1_554
Ho1 O2 2.252416 1_455
Ho1 O8 2.256697 1_455
Ho1 O10 2.256697 1_554
O0 Ta1 2.022866 1_565
O1 Ta0 2.022866 1_565
O2 Ta1 2.022866 1_655
O3 Ta0 2.022866 1_556
O4 Ta1 2.015955 1_655
O5 Ta0 2.015955 1_556
O6 Ta1 2.015955 1_565
O7 Ta0 2.015955 1_565
O8 Ta0 2.026119 1_565
O9 Ta1 2.026119 1_665
O10 Ta0 2.026119 1_556
O11 Ta1 2.026119 1_555
