# generated using pymatgen
data_Sr2FeCoO6
_symmetry_space_group_name_H-M   'P 1'
_cell_length_a   5.53927681
_cell_length_b   7.74065301
_cell_length_c   5.53937014
_cell_angle_alpha   90.00355247
_cell_angle_beta   90.03542860
_cell_angle_gamma   90.00582130
_symmetry_Int_Tables_number   1
_chemical_formula_structural   Sr2FeCoO6
_chemical_formula_sum   'Sr4 Fe2 Co2 O12'
_cell_volume   237.51495913
_cell_formula_units_Z   2
loop_
 _symmetry_equiv_pos_site_id
 _symmetry_equiv_pos_as_xyz
  1  'x, y, z'
loop_
 _atom_site_type_symbol
 _atom_site_label
 _atom_site_symmetry_multiplicity
 _atom_site_fract_x
 _atom_site_fract_y
 _atom_site_fract_z
 _atom_site_occupancy
  Sr  Sr0  1  0.50000300  0.25340700  0.99999800  1
  Sr  Sr1  1  0.00000200  0.74659100  0.49999000  1
  Sr  Sr2  1  0.49999700  0.74659200  0.00000300  1
  Sr  Sr3  1  0.99999800  0.25340800  0.50000700  1
  Fe  Fe0  1  0.00000600  0.00001200  0.00000300  1
  Fe  Fe1  1  0.50000100  0.50000100  0.50001000  1
  Co  Co0  1  0.49999800  0.00000000  0.49999700  1
  Co  Co1  1  0.99999800  0.50000600  0.00000200  1
  O  O0  1  0.00000300  0.26627800  0.99998500  1
  O  O1  1  0.50001900  0.75089700  0.50001200  1
  O  O2  1  0.25017600  0.50001200  0.25017700  1
  O  O3  1  0.75153000  0.99998900  0.75153600  1
  O  O4  1  0.25026400  0.49999300  0.74973100  1
  O  O5  1  0.75175100  0.00000100  0.24824000  1
  O  O6  1  0.99999800  0.73371900  0.00001200  1
  O  O7  1  0.49998200  0.24910100  0.49998700  1
  O  O8  1  0.74982700  0.49998500  0.74982500  1
  O  O9  1  0.24846800  0.00000500  0.24846100  1
  O  O10  1  0.74973200  0.50000300  0.25026700  1
  O  O11  1  0.24824700  0.00000000  0.75175700  1
loop_
_geom_bond_atom_site_label_1
_geom_bond_atom_site_label_2
_geom_bond_distance
_geom_bond_site_symmetry_2
Fe0 O11 1.945288 1_554
Fe0 O5 1.945307 1_455
Fe0 O9 1.945781 1_555
Fe0 O3 1.945871 1_444
Fe0 O0 2.061073 1_554
Fe0 O6 2.061282 1_445
Fe1 O1 1.942099 1_555
Fe1 O7 1.942130 1_555
Fe1 O8 1.956435 1_555
Fe1 O2 1.956502 1_555
Fe1 O4 1.956928 1_555
Fe1 O10 1.956991 1_555
Co0 O7 1.928204 1_555
Co0 O1 1.928220 1_545
Co0 O9 1.969846 1_555
Co0 O3 1.969866 1_545
Co0 O5 1.972805 1_555
Co0 O11 1.972808 1_555
Co1 O6 1.809091 1_555
Co1 O0 1.809207 1_654
Co1 O8 1.959204 1_554
Co1 O2 1.959223 1_655
Co1 O10 1.961133 1_555
Co1 O4 1.961156 1_654
O0 Sr3 2.771348 1_455
O0 Sr0 2.771420 1_455
O0 Sr0 2.771440 1_555
O0 Sr3 2.771604 1_456
O1 Sr1 2.769748 1_655
O1 Sr2 2.769838 1_556
O1 Sr1 2.769930 1_555
O1 Sr2 2.769933 1_555
O2 Sr2 2.735087 1_555
O2 Sr1 2.735135 1_555
O2 Sr3 2.735253 1_455
O2 Sr0 2.735329 1_554
O3 Sr2 2.772206 1_556
O3 Sr3 2.772320 1_565
O3 Sr1 2.772339 1_655
O3 Sr0 2.772370 1_565
O4 Sr3 2.734113 1_455
O4 Sr2 2.734231 1_556
O4 Sr0 2.734480 1_555
O4 Sr1 2.734536 1_555
O5 Sr2 2.771279 1_545
O5 Sr3 2.771332 1_555
O5 Sr0 2.771580 1_554
O5 Sr1 2.771632 1_645
O6 Sr1 2.771349 1_655
O6 Sr2 2.771415 1_655
O6 Sr2 2.771446 1_555
O6 Sr1 2.771605 1_654
O7 Sr3 2.769754 1_455
O7 Sr0 2.769827 1_554
O7 Sr3 2.769924 1_555
O7 Sr0 2.769944 1_555
O8 Sr0 2.735082 1_555
O8 Sr3 2.735130 1_555
O8 Sr1 2.735269 1_655
O8 Sr2 2.735345 1_556
O9 Sr0 2.772228 1_554
O9 Sr1 2.772287 1_545
O9 Sr2 2.772337 1_545
O9 Sr3 2.772361 1_455
O10 Sr1 2.734138 1_655
O10 Sr0 2.734195 1_554
O10 Sr2 2.734476 1_555
O10 Sr3 2.734528 1_555
O11 Sr0 2.771284 1_555
O11 Sr1 2.771338 1_545
O11 Sr2 2.771608 1_546
O11 Sr3 2.771616 1_455
