# generated using pymatgen
data_KMg14Nb
_symmetry_space_group_name_H-M   'P 1'
_cell_length_a   6.48735757
_cell_length_b   6.65344103
_cell_length_c   10.24989657
_cell_angle_alpha   90.00000000
_cell_angle_beta   90.00000000
_cell_angle_gamma   120.85055922
_symmetry_Int_Tables_number   1
_chemical_formula_structural   KMg14Nb
_chemical_formula_sum   'K1 Mg14 Nb1'
_cell_volume   379.82000735
_cell_formula_units_Z   1
loop_
 _symmetry_equiv_pos_site_id
 _symmetry_equiv_pos_as_xyz
  1  'x, y, z'
loop_
 _atom_site_type_symbol
 _atom_site_label
 _atom_site_symmetry_multiplicity
 _atom_site_fract_x
 _atom_site_fract_y
 _atom_site_fract_z
 _atom_site_occupancy
  K  K0  1  0.16404474  0.33202187  0.12500000  1
  Mg  Mg0  1  0.17059300  0.33529600  0.62500000  1
  Mg  Mg1  1  0.16575184  0.83287542  0.62500000  1
  Mg  Mg2  1  0.66436914  0.33234235  0.12500000  1
  Mg  Mg3  1  0.66753014  0.33788578  0.62500000  1
  Mg  Mg4  1  0.66436914  0.83202579  0.12500000  1
  Mg  Mg5  1  0.66753014  0.82964336  0.62500000  1
  Mg  Mg6  1  0.33060444  0.15045074  0.37882038  1
  Mg  Mg7  1  0.33060444  0.15045074  0.87117962  1
  Mg  Mg8  1  0.33060444  0.68015470  0.37882038  1
  Mg  Mg9  1  0.33060444  0.68015470  0.87117962  1
  Mg  Mg10  1  0.82031839  0.16015970  0.38742868  1
  Mg  Mg11  1  0.82031839  0.16015970  0.86257132  1
  Mg  Mg12  1  0.84303321  0.67151711  0.36608722  1
  Mg  Mg13  1  0.84303321  0.67151711  0.88391278  1
  Nb  Nb0  1  0.18669086  0.84334493  0.12500000  1
loop_
_geom_bond_atom_site_label_1
_geom_bond_atom_site_label_2
_geom_bond_distance
_geom_bond_site_symmetry_2
K0 Mg4 3.242668 1_445
K0 Mg2 3.242668 1_455
K0 Mg4 3.244690 1_555
K0 Mg2 3.244690 1_555
K0 Mg7 3.276319 1_554
K0 Mg6 3.276319 1_555
K0 Mg8 3.276326 1_555
K0 Mg9 3.276326 1_554
K0 Mg11 3.301542 1_454
K0 Mg10 3.301542 1_455
K0 Nb0 3.329111 1_555
K0 Nb0 3.329111 1_545
Mg0 Mg10 3.120157 1_455
Mg0 Mg11 3.120157 1_455
Mg0 Mg6 3.204147 1_555
Mg0 Mg7 3.204147 1_555
Mg0 Mg8 3.204154 1_555
Mg0 Mg9 3.204154 1_555
Mg0 Mg5 3.215007 1_555
Mg0 Mg3 3.215007 1_555
Mg0 Mg5 3.272418 1_445
Mg0 Mg3 3.272418 1_455
Mg0 Mg1 3.326830 1_545
Mg0 Mg1 3.326830 1_555
Mg1 Mg8 3.107712 1_555
Mg1 Mg9 3.107712 1_555
Mg1 Mg6 3.107719 1_565
Mg1 Mg7 3.107719 1_565
Mg1 Mg12 3.205203 1_455
Mg1 Mg13 3.205203 1_455
Mg1 Mg3 3.221168 1_455
Mg1 Mg5 3.221168 1_455
Mg1 Mg3 3.266295 1_565
Mg1 Mg5 3.266295 1_555
Mg2 Nb0 3.138155 1_545
Mg2 Mg7 3.199049 1_554
Mg2 Mg6 3.199049 1_555
Mg2 Mg4 3.324614 1_555
Mg2 Mg4 3.328827 1_545
Mg2 Nb0 3.350492 1_655
Mg3 Mg6 3.147105 1_555
Mg3 Mg7 3.147105 1_555
Mg3 Mg5 3.271880 1_555
Mg3 Mg5 3.381561 1_545
Mg4 Nb0 3.138156 1_555
Mg4 Mg9 3.199050 1_554
Mg4 Mg8 3.199050 1_555
Mg4 Nb0 3.350492 1_655
Mg5 Mg8 3.147105 1_555
Mg5 Mg9 3.147105 1_555
Mg6 Nb0 3.139863 1_545
Mg7 Nb0 3.139863 1_546
Mg8 Nb0 3.139857 1_555
Mg9 Nb0 3.139857 1_556
Mg10 Mg3 3.084226 1_555
Mg10 Mg5 3.084233 1_545
Mg10 Mg8 3.145550 1_545
Mg10 Mg6 3.145550 1_555
Mg10 Mg2 3.280246 1_555
Mg10 Mg4 3.280253 1_545
Mg10 Mg12 3.336304 1_555
Mg10 Mg12 3.336304 1_545
Mg10 Mg8 3.345157 1_655
Mg10 Mg6 3.345158 1_655
Mg11 Mg3 3.084226 1_555
Mg11 Mg5 3.084233 1_545
Mg11 Mg9 3.145550 1_545
Mg11 Mg7 3.145550 1_555
Mg11 Mg2 3.280246 1_556
Mg11 Mg4 3.280253 1_546
Mg11 Mg13 3.336304 1_555
Mg11 Mg13 3.336304 1_545
Mg11 Mg9 3.345157 1_655
Mg11 Mg7 3.345158 1_655
Mg12 Nb0 3.125662 1_655
Mg12 Mg6 3.136683 1_665
Mg12 Mg8 3.136683 1_655
Mg12 Mg4 3.140035 1_555
Mg12 Mg2 3.140042 1_555
Mg12 Mg5 3.267186 1_555
Mg12 Mg3 3.267193 1_555
Mg12 Mg6 3.356680 1_555
Mg12 Mg8 3.356680 1_555
Mg13 Nb0 3.125662 1_656
Mg13 Mg7 3.136683 1_665
Mg13 Mg9 3.136683 1_655
Mg13 Mg4 3.140035 1_556
Mg13 Mg2 3.140042 1_556
Mg13 Mg5 3.267186 1_555
Mg13 Mg3 3.267193 1_555
Mg13 Mg7 3.356680 1_555
Mg13 Mg9 3.356680 1_555
