# generated using pymatgen
data_Sr5Mn4CO13
_symmetry_space_group_name_H-M   'P 1'
_cell_length_a   3.82436100
_cell_length_b   8.94062500
_cell_length_c   8.96783726
_cell_angle_alpha   89.88126619
_cell_angle_beta   90.00000000
_cell_angle_gamma   90.00000000
_symmetry_Int_Tables_number   1
_chemical_formula_structural   Sr5Mn4CO13
_chemical_formula_sum   'Sr5 Mn4 C1 O13'
_cell_volume   306.62922543
_cell_formula_units_Z   1
loop_
 _symmetry_equiv_pos_site_id
 _symmetry_equiv_pos_as_xyz
  1  'x, y, z'
loop_
 _atom_site_type_symbol
 _atom_site_label
 _atom_site_symmetry_multiplicity
 _atom_site_fract_x
 _atom_site_fract_y
 _atom_site_fract_z
 _atom_site_occupancy
  Sr  Sr0  1  0.00000000  0.99784300  0.00015600  1
  Sr  Sr1  1  0.00000000  0.17524200  0.39487200  1
  Sr  Sr2  1  0.00000000  0.82307100  0.61476900  1
  Sr  Sr3  1  0.00000000  0.39677600  0.82137300  1
  Sr  Sr4  1  0.00000000  0.61301300  0.17797100  1
  Mn  Mn0  1  0.50000000  0.30217200  0.10127900  1
  Mn  Mn1  1  0.50000000  0.70245600  0.90404000  1
  Mn  Mn2  1  0.50000000  0.10182900  0.70208700  1
  Mn  Mn3  1  0.50000000  0.90084100  0.30268200  1
  C  C0  1  0.50000000  0.50761100  0.51211700  1
  O  O0  1  0.50000000  0.11269900  0.20188400  1
  O  O1  1  0.50000000  0.89302900  0.80402500  1
  O  O2  1  0.50000000  0.20668300  0.88930500  1
  O  O3  1  0.50000000  0.80366600  0.11227000  1
  O  O4  1  0.00000000  0.32784200  0.14516100  1
  O  O5  1  0.00000000  0.68419900  0.87612700  1
  O  O6  1  0.00000000  0.13342500  0.68137200  1
  O  O7  1  0.00000000  0.86627300  0.32567300  1
  O  O8  1  0.50000000  0.49962800  0.99860300  1
  O  O9  1  0.50000000  0.99713200  0.50367900  1
  O  O10  1  0.50000000  0.58569700  0.63594200  1
  O  O11  1  0.50000000  0.36213000  0.51999400  1
  O  O12  1  0.50000000  0.57674400  0.38461700  1
loop_
_geom_bond_atom_site_label_1
_geom_bond_atom_site_label_2
_geom_bond_distance
_geom_bond_site_symmetry_2
Mn0 O0 1.917631 1_555
Mn0 O4 1.965794 1_655
Mn0 O4 1.965794 1_555
Mn0 O8 1.989389 1_554
Mn0 O2 2.085471 1_554
Mn1 O1 1.923852 1_555
Mn1 O5 1.935435 1_555
Mn1 O5 1.935435 1_655
Mn1 O8 2.000307 1_555
Mn1 O3 2.076751 1_556
Mn1 O10 2.623088 1_555
Mn2 O2 1.924629 1_555
Mn2 O6 1.941784 1_555
Mn2 O6 1.941784 1_655
Mn2 O9 2.012208 1_545
Mn2 O1 2.076914 1_545
Mn3 O3 1.917502 1_555
Mn3 O7 1.947870 1_655
Mn3 O7 1.947870 1_555
Mn3 O9 1.999155 1_555
Mn3 O0 2.097091 1_565
C0 O12 1.298642 1_555
C0 O11 1.302462 1_555
C0 O10 1.312894 1_555
O0 Sr1 2.639771 1_655
O0 Sr1 2.639771 1_555
O0 Sr0 2.826895 1_545
O0 Sr0 2.826895 1_645
O1 Sr2 2.632981 1_555
O1 Sr2 2.632981 1_655
O1 Sr0 2.763160 1_556
O1 Sr0 2.763160 1_656
O2 Sr3 2.629019 1_555
O2 Sr3 2.629019 1_655
O2 Sr0 2.850132 1_646
O2 Sr0 2.850132 1_546
O3 Sr4 2.627725 1_555
O3 Sr4 2.627725 1_655
O3 Sr0 2.770196 1_655
O3 Sr0 2.770196 1_555
O4 Sr4 2.567134 1_555
O4 Sr1 2.619833 1_555
O4 Sr3 2.967115 1_554
O4 Sr0 3.226722 1_545
O5 Sr3 2.617232 1_555
O5 Sr2 2.650092 1_555
O5 Sr4 2.779418 1_556
O5 Sr0 3.018851 1_556
O6 Sr1 2.595578 1_555
O6 Sr3 2.670641 1_555
O6 Sr2 2.839525 1_545
O6 Sr0 3.102868 1_546
O7 Sr2 2.620389 1_555
O7 Sr4 2.625638 1_555
O7 Sr1 2.832477 1_565
O7 Sr0 3.145016 1_555
O8 Sr3 2.652203 1_555
O8 Sr3 2.652203 1_655
O8 Sr4 2.697825 1_556
O8 Sr4 2.697825 1_656
O9 Sr2 2.657875 1_555
O9 Sr2 2.657875 1_655
O9 Sr1 2.671684 1_565
O9 Sr1 2.671684 1_665
O10 Sr2 2.862666 1_555
O10 Sr2 2.862666 1_655
O10 Sr3 3.043525 1_555
O10 Sr3 3.043525 1_655
O11 Sr1 2.777615 1_555
O11 Sr1 2.777615 1_655
O12 Sr4 2.682037 1_655
O12 Sr4 2.682037 1_555
