# generated using pymatgen
data_Sr2HoCu2(BiO4)2
_symmetry_space_group_name_H-M   'P 1'
_cell_length_a   15.54074601
_cell_length_b   15.54074601
_cell_length_c   15.54074601
_cell_angle_alpha   166.03692518
_cell_angle_beta   166.03692518
_cell_angle_gamma   19.79626131
_symmetry_Int_Tables_number   1
_chemical_formula_structural   Sr2HoCu2(BiO4)2
_chemical_formula_sum   'Sr2 Ho1 Cu2 Bi2 O8'
_cell_volume   218.50877318
_cell_formula_units_Z   1
loop_
 _symmetry_equiv_pos_site_id
 _symmetry_equiv_pos_as_xyz
  1  'x, y, z'
loop_
 _atom_site_type_symbol
 _atom_site_label
 _atom_site_symmetry_multiplicity
 _atom_site_fract_x
 _atom_site_fract_y
 _atom_site_fract_z
 _atom_site_occupancy
  Sr  Sr0  1  0.11484800  0.11484800  0.00000000  1
  Sr  Sr1  1  0.88515200  0.88515200  0.00000000  1
  Ho  Ho0  1  0.00000000  0.00000000  0.00000000  1
  Cu  Cu0  1  0.44885400  0.44885400  0.00000000  1
  Cu  Cu1  1  0.55114600  0.55114600  0.00000000  1
  Bi  Bi0  1  0.29549500  0.29549500  0.00000000  1
  Bi  Bi1  1  0.70450500  0.70450500  0.00000000  1
  O  O0  1  0.54802800  0.04802800  0.50000000  1
  O  O1  1  0.45197200  0.95197200  0.50000000  1
  O  O2  1  0.04802800  0.54802800  0.50000000  1
  O  O3  1  0.95197200  0.45197200  0.50000000  1
  O  O4  1  0.19952800  0.19952800  0.00000000  1
  O  O5  1  0.80047200  0.80047200  0.00000000  1
  O  O6  1  0.36501300  0.36501300  0.00000000  1
  O  O7  1  0.63498700  0.63498700  0.00000000  1
loop_
_geom_bond_atom_site_label_1
_geom_bond_atom_site_label_2
_geom_bond_distance
_geom_bond_site_symmetry_2
Ho0 O0 2.393900 1_555
Ho0 O2 2.393900 1_555
Ho0 O2 2.393900 1_544
Ho0 O0 2.393900 1_454
Ho0 O3 2.393900 1_444
Ho0 O1 2.393900 1_444
Ho0 O1 2.393900 1_545
Ho0 O3 2.393900 1_455
Cu0 O1 1.891381 1_555
Cu0 O3 1.891381 1_555
Cu0 O1 1.891381 1_544
Cu0 O3 1.891381 1_454
Cu0 O6 2.567114 1_555
Cu1 O2 1.891381 1_554
Cu1 O2 1.891381 1_655
Cu1 O0 1.891381 1_554
Cu1 O0 1.891381 1_565
Cu1 O7 2.567114 1_555
Bi0 O6 2.128561 1_555
Bi0 O5 2.675750 1_556
Bi0 O5 2.675750 1_444
Bi0 O5 2.675750 1_545
Bi0 O5 2.675750 1_455
Bi1 O7 2.128561 1_555
Bi1 O4 2.675750 1_554
Bi1 O4 2.675750 1_655
Bi1 O4 2.675750 1_565
Bi1 O4 2.675750 1_666
O0 Sr0 2.784623 1_656
O0 Sr0 2.784623 1_555
O1 Sr1 2.784623 1_556
O1 Sr1 2.784623 1_455
O2 Sr0 2.784623 1_566
O2 Sr0 2.784623 1_555
O3 Sr1 2.784623 1_556
O3 Sr1 2.784623 1_545
O4 Sr0 2.592804 1_555
O5 Sr1 2.592804 1_555
O6 Sr1 2.741651 1_556
O6 Sr1 2.741651 1_545
O6 Sr1 2.741651 1_455
O6 Sr1 2.741651 1_444
O7 Sr0 2.741651 1_565
O7 Sr0 2.741651 1_666
O7 Sr0 2.741651 1_655
O7 Sr0 2.741651 1_554
