# generated using pymatgen
data_EuYAl4
_symmetry_space_group_name_H-M   'P 1'
_cell_length_a   5.63345891
_cell_length_b   5.63345891
_cell_length_c   5.63345891
_cell_angle_alpha   90.00000000
_cell_angle_beta   60.00000000
_cell_angle_gamma   120.00000000
_symmetry_Int_Tables_number   1
_chemical_formula_structural   EuYAl4
_chemical_formula_sum   'Eu1 Y1 Al4'
_cell_volume   126.41843105
_cell_formula_units_Z   1
loop_
 _symmetry_equiv_pos_site_id
 _symmetry_equiv_pos_as_xyz
  1  'x, y, z'
loop_
 _atom_site_type_symbol
 _atom_site_label
 _atom_site_symmetry_multiplicity
 _atom_site_fract_x
 _atom_site_fract_y
 _atom_site_fract_z
 _atom_site_occupancy
  Eu  Eu0  1  0.50000000  0.75000000  0.75000000  1
  Y  Y0  1  0.00000000  0.00000000  0.00000000  1
  Al  Al0  1  0.74966800  0.37483400  0.87549900  1
  Al  Al1  1  0.25033200  0.37483400  0.37483400  1
  Al  Al2  1  0.25033200  0.87549900  0.37483400  1
  Al  Al3  1  0.74966800  0.37483400  0.37483400  1
loop_
_geom_bond_atom_site_label_1
_geom_bond_atom_site_label_2
_geom_bond_distance
_geom_bond_site_symmetry_2
Eu0 Y0 3.449775 1_665
Eu0 Y0 3.449775 1_666
Eu0 Y0 3.449775 1_566
Eu0 Y0 3.449775 1_556
Al0 Al3 2.812983 1_556
Al0 Al2 2.812983 1_546
Al0 Al1 2.812986 1_556
Al0 Al1 2.820473 1_655
Al0 Al3 2.820476 1_555
Al0 Al2 2.820476 1_655
Al0 Y0 3.302508 1_666
Al0 Y0 3.302508 1_656
Al0 Y0 3.302512 1_556
Al0 Eu0 3.303305 1_655
Al0 Eu0 3.303310 1_555
Al0 Eu0 3.303310 1_545
Al1 Al2 2.812983 1_545
Al1 Al3 2.812989 1_555
Al1 Al3 2.820470 1_455
Al1 Al2 2.820476 1_555
Al1 Y0 3.302510 1_665
Al1 Y0 3.302510 1_556
Al1 Y0 3.302510 1_555
Al1 Eu0 3.303308 1_554
Al1 Eu0 3.303308 1_555
Al1 Eu0 3.303308 1_445
Al2 Al3 2.812986 1_565
Al2 Al3 2.820473 1_455
Al2 Y0 3.302508 1_565
Al2 Y0 3.302508 1_566
Al2 Y0 3.302512 1_665
Al2 Eu0 3.303305 1_455
Al2 Eu0 3.303310 1_554
Al2 Eu0 3.303310 1_555
Al3 Y0 3.302510 1_556
Al3 Y0 3.302510 1_655
Al3 Y0 3.302510 1_665
Al3 Eu0 3.303308 1_555
Al3 Eu0 3.303308 1_545
Al3 Eu0 3.303308 1_654
