# generated using pymatgen
data_Nd23Cd4Ru7
_symmetry_space_group_name_H-M   'P 1'
_cell_length_a   10.02849301
_cell_length_b   10.02849301
_cell_length_c   22.48968200
_cell_angle_alpha   90.00000000
_cell_angle_beta   90.00000000
_cell_angle_gamma   120.00000666
_symmetry_Int_Tables_number   1
_chemical_formula_structural   Nd23Cd4Ru7
_chemical_formula_sum   'Nd46 Cd8 Ru14'
_cell_volume   1958.77823380
_cell_formula_units_Z   2
loop_
 _symmetry_equiv_pos_site_id
 _symmetry_equiv_pos_as_xyz
  1  'x, y, z'
loop_
 _atom_site_type_symbol
 _atom_site_label
 _atom_site_symmetry_multiplicity
 _atom_site_fract_x
 _atom_site_fract_y
 _atom_site_fract_z
 _atom_site_occupancy
  Nd  Nd0  1  0.20703300  0.41406500  0.71946800  1
  Nd  Nd1  1  0.20703300  0.79296700  0.71946800  1
  Nd  Nd2  1  0.79296700  0.58593500  0.21946800  1
  Nd  Nd3  1  0.58593500  0.79296700  0.71946800  1
  Nd  Nd4  1  0.79296700  0.20703300  0.21946800  1
  Nd  Nd5  1  0.41406500  0.20703300  0.21946800  1
  Nd  Nd6  1  0.79322100  0.58644100  0.94735000  1
  Nd  Nd7  1  0.79322100  0.20677900  0.94735000  1
  Nd  Nd8  1  0.20677900  0.41355900  0.44735000  1
  Nd  Nd9  1  0.41355900  0.20677900  0.94735000  1
  Nd  Nd10  1  0.20677900  0.79322100  0.44735000  1
  Nd  Nd11  1  0.58644100  0.79322100  0.44735000  1
  Nd  Nd12  1  0.20697400  0.41394900  0.99029900  1
  Nd  Nd13  1  0.20697400  0.79302600  0.99029900  1
  Nd  Nd14  1  0.79302600  0.58605100  0.49029900  1
  Nd  Nd15  1  0.58605100  0.79302600  0.99029900  1
  Nd  Nd16  1  0.79302600  0.20697400  0.49029900  1
  Nd  Nd17  1  0.41394900  0.20697400  0.49029900  1
  Nd  Nd18  1  0.87304200  0.74608400  0.63693100  1
  Nd  Nd19  1  0.87304200  0.12695800  0.63693100  1
  Nd  Nd20  1  0.12695800  0.25391600  0.13693100  1
  Nd  Nd21  1  0.25391600  0.12695800  0.63693100  1
  Nd  Nd22  1  0.12695800  0.87304200  0.13693100  1
  Nd  Nd23  1  0.74608400  0.87304200  0.13693100  1
  Nd  Nd24  1  0.45983300  0.91966700  0.85477500  1
  Nd  Nd25  1  0.45983300  0.54016700  0.85477500  1
  Nd  Nd26  1  0.54016700  0.08033300  0.35477500  1
  Nd  Nd27  1  0.08033300  0.54016700  0.85477500  1
  Nd  Nd28  1  0.54016700  0.45983300  0.35477500  1
  Nd  Nd29  1  0.91966700  0.45983300  0.35477500  1
  Nd  Nd30  1  0.00000000  0.00000000  0.00080800  1
  Nd  Nd31  1  0.00000000  0.00000000  0.50080800  1
  Nd  Nd32  1  0.45890600  0.91781300  0.58458900  1
  Nd  Nd33  1  0.45890600  0.54109400  0.58458900  1
  Nd  Nd34  1  0.54109400  0.08218700  0.08458900  1
  Nd  Nd35  1  0.08218700  0.54109400  0.58458900  1
  Nd  Nd36  1  0.54109400  0.45890600  0.08458900  1
  Nd  Nd37  1  0.91781300  0.45890600  0.08458900  1
  Nd  Nd38  1  0.79511800  0.59023700  0.78214100  1
  Nd  Nd39  1  0.79511800  0.20488200  0.78214100  1
  Nd  Nd40  1  0.20488200  0.40976300  0.28214100  1
  Nd  Nd41  1  0.40976300  0.20488200  0.78214100  1
  Nd  Nd42  1  0.20488200  0.79511800  0.28214100  1
  Nd  Nd43  1  0.59023700  0.79511800  0.28214100  1
  Nd  Nd44  1  0.66666700  0.33333300  0.64497300  1
  Nd  Nd45  1  0.33333300  0.66666700  0.14497300  1
  Cd  Cd0  1  0.00000000  0.00000000  0.75077500  1
  Cd  Cd1  1  0.00000000  0.00000000  0.25077500  1
  Cd  Cd2  1  0.10584100  0.21168300  0.86336300  1
  Cd  Cd3  1  0.10584100  0.89415900  0.86336300  1
  Cd  Cd4  1  0.89415900  0.78831700  0.36336300  1
  Cd  Cd5  1  0.78831700  0.89415900  0.86336300  1
  Cd  Cd6  1  0.89415900  0.10584100  0.36336300  1
  Cd  Cd7  1  0.21168300  0.10584100  0.36336300  1
  Ru  Ru0  1  0.51728300  0.03456600  0.70972500  1
  Ru  Ru1  1  0.51728300  0.48271700  0.70972500  1
  Ru  Ru2  1  0.48271700  0.96543400  0.20972500  1
  Ru  Ru3  1  0.96543400  0.48271700  0.70972500  1
  Ru  Ru4  1  0.48271700  0.51728300  0.20972500  1
  Ru  Ru5  1  0.03456600  0.51728300  0.20972500  1
  Ru  Ru6  1  0.66666700  0.33333300  0.86758400  1
  Ru  Ru7  1  0.33333300  0.66666700  0.36758400  1
  Ru  Ru8  1  0.14669700  0.29339300  0.56221900  1
  Ru  Ru9  1  0.14669700  0.85330300  0.56221900  1
  Ru  Ru10  1  0.85330300  0.70660700  0.06221900  1
  Ru  Ru11  1  0.70660700  0.85330300  0.56221900  1
  Ru  Ru12  1  0.85330300  0.14669700  0.06221900  1
  Ru  Ru13  1  0.29339300  0.14669700  0.06221900  1
loop_
_geom_bond_atom_site_label_1
_geom_bond_atom_site_label_2
_geom_bond_distance
_geom_bond_site_symmetry_2
Nd0 Ru1 2.839078 1_555
Nd0 Ru3 2.839088 1_455
Nd0 Nd25 3.752382 1_555
Nd0 Nd27 3.752392 1_555
Nd1 Ru0 2.839081 1_565
Nd1 Ru3 2.839081 1_455
Nd1 Nd27 3.752382 1_555
Nd1 Nd24 3.752382 1_555
Nd2 Ru4 2.839078 1_555
Nd2 Ru5 2.839088 1_655
Nd2 Nd28 3.752382 1_555
Nd2 Nd29 3.752392 1_555
Nd3 Ru1 2.839078 1_555
Nd3 Ru0 2.839088 1_565
Nd4 Ru5 2.839081 1_655
Nd4 Ru2 2.839081 1_545
Nd5 Ru4 2.839078 1_555
Nd5 Ru2 2.839088 1_545
Nd6 Ru10 2.786208 1_556
Nd6 Ru6 2.837307 1_555
Nd7 Ru12 2.786202 1_556
Nd7 Ru6 2.837308 1_555
Nd8 Ru8 2.786208 1_555
Nd8 Ru7 2.837307 1_555
Nd9 Ru13 2.786208 1_556
Nd9 Ru6 2.837307 1_555
Nd10 Ru9 2.786202 1_555
Nd10 Ru7 2.837308 1_555
Nd10 Nd14 3.720971 1_455
Nd10 Nd17 3.720971 1_565
Nd10 Nd26 3.765184 1_565
Nd10 Nd29 3.765184 1_455
Nd11 Ru11 2.786208 1_555
Nd11 Ru7 2.837307 1_555
Nd11 Nd16 3.720971 1_565
Nd11 Nd14 3.720988 1_555
Nd11 Nd26 3.765174 1_565
Nd11 Nd28 3.765191 1_555
Nd12 Nd20 3.578635 1_556
Nd12 Ru12 3.587913 1_456
Nd12 Ru13 3.587914 1_556
Nd12 Nd30 3.602878 1_556
Nd12 Nd7 3.720971 1_455
Nd12 Nd9 3.720988 1_555
Nd12 Nd25 3.756639 1_555
Nd12 Nd27 3.756639 1_555
Nd12 Nd37 3.796911 1_456
Nd12 Nd36 3.796927 1_556
Nd12 Nd15 3.801571 1_555
Nd12 Nd13 3.801571 1_555
Nd12 Nd45 4.113120 1_556
Nd13 Nd22 3.578631 1_556
Nd13 Ru13 3.587914 1_566
Nd13 Ru10 3.587914 1_456
Nd13 Nd30 3.602870 1_566
Nd13 Nd6 3.720971 1_455
Nd13 Nd9 3.720971 1_565
Nd13 Nd27 3.756639 1_555
Nd13 Nd24 3.756639 1_555
Nd13 Nd34 3.796921 1_566
Nd13 Nd37 3.796921 1_456
Nd13 Nd15 3.801571 1_555
Nd13 Nd45 4.113120 1_556
Nd14 Nd18 3.578635 1_555
Nd14 Ru9 3.587913 1_655
Nd14 Ru11 3.587914 1_555
Nd14 Nd31 3.602878 1_665
Nd14 Nd28 3.756639 1_555
Nd14 Nd29 3.756639 1_555
Nd14 Nd35 3.796911 1_655
Nd14 Nd33 3.796927 1_555
Nd14 Nd17 3.801571 1_555
Nd14 Nd16 3.801571 1_555
Nd14 Nd44 4.113120 1_555
Nd15 Nd23 3.578635 1_556
Nd15 Ru12 3.587913 1_566
Nd15 Ru10 3.587914 1_556
Nd15 Nd30 3.602878 1_666
Nd15 Nd7 3.720971 1_565
Nd15 Nd6 3.720988 1_555
Nd15 Nd25 3.756639 1_555
Nd15 Nd24 3.756639 1_555
Nd15 Nd34 3.796911 1_566
Nd15 Nd36 3.796927 1_556
Nd15 Nd45 4.113120 1_556
Nd16 Nd19 3.578631 1_555
Nd16 Ru8 3.587914 1_655
Nd16 Ru11 3.587914 1_545
Nd16 Nd31 3.602870 1_655
Nd16 Nd8 3.720971 1_655
Nd16 Nd29 3.756639 1_555
Nd16 Nd26 3.756639 1_555
Nd16 Nd35 3.796921 1_655
Nd16 Nd32 3.796921 1_545
Nd16 Nd17 3.801571 1_555
Nd16 Nd44 4.113120 1_555
Nd17 Nd21 3.578635 1_555
Nd17 Ru9 3.587913 1_545
Nd17 Ru8 3.587914 1_555
Nd17 Nd31 3.602878 1_555
Nd17 Nd8 3.720988 1_555
Nd17 Nd28 3.756639 1_555
Nd17 Nd26 3.756639 1_555
Nd17 Nd32 3.796911 1_545
Nd17 Nd33 3.796927 1_555
Nd17 Nd44 4.113120 1_555
Nd18 Ru11 2.925738 1_555
Nd18 Ru9 2.925745 1_655
Nd18 Ru1 3.600226 1_555
Nd18 Ru3 3.600226 1_555
Nd19 Ru8 2.925744 1_655
Nd19 Ru11 2.925744 1_545
Nd19 Ru3 3.600226 1_555
Nd19 Ru0 3.600226 1_555
Nd20 Ru13 2.925738 1_555
Nd20 Ru12 2.925745 1_455
Nd20 Ru4 3.600226 1_555
Nd20 Ru5 3.600226 1_555
Nd21 Ru8 2.925738 1_555
Nd21 Ru9 2.925745 1_545
Nd21 Ru1 3.600226 1_555
Nd21 Ru0 3.600226 1_555
Nd22 Ru13 2.925744 1_565
Nd22 Ru10 2.925744 1_455
Nd22 Ru2 3.600226 1_555
Nd22 Ru5 3.600226 1_555
Nd23 Ru10 2.925738 1_555
Nd23 Ru12 2.925745 1_565
Nd23 Ru4 3.600226 1_555
Nd23 Ru2 3.600226 1_555
Nd24 Ru0 3.411344 1_565
Nd24 Nd39 3.540891 1_565
Nd24 Nd41 3.540891 1_565
Nd24 Ru6 3.604191 1_565
Nd24 Nd3 3.752392 1_555
Nd24 Nd9 3.765174 1_565
Nd24 Nd7 3.765184 1_565
Nd24 Nd27 3.805813 1_555
Nd24 Nd25 3.805813 1_555
Nd25 Ru1 3.411346 1_555
Nd25 Nd38 3.540891 1_555
Nd25 Nd41 3.540891 1_555
Nd25 Ru6 3.604208 1_555
Nd25 Nd3 3.752382 1_555
Nd25 Nd9 3.765191 1_555
Nd25 Nd6 3.765191 1_555
Nd25 Nd27 3.805813 1_555
Nd26 Ru2 3.411344 1_545
Nd26 Nd42 3.540891 1_545
Nd26 Nd43 3.540891 1_545
Nd26 Ru7 3.604191 1_545
Nd26 Nd4 3.752382 1_555
Nd26 Nd5 3.752392 1_555
Nd26 Nd29 3.805813 1_555
Nd26 Nd28 3.805813 1_555
Nd27 Ru3 3.411344 1_455
Nd27 Nd39 3.540891 1_455
Nd27 Nd38 3.540891 1_455
Nd27 Ru6 3.604191 1_455
Nd27 Nd6 3.765174 1_455
Nd27 Nd7 3.765184 1_455
Nd28 Ru4 3.411346 1_555
Nd28 Nd43 3.540891 1_555
Nd28 Nd40 3.540891 1_555
Nd28 Ru7 3.604208 1_555
Nd28 Nd5 3.752382 1_555
Nd28 Nd8 3.765191 1_555
Nd28 Nd29 3.805813 1_555
Nd29 Ru5 3.411344 1_655
Nd29 Nd42 3.540891 1_655
Nd29 Nd40 3.540891 1_655
Nd29 Ru7 3.604191 1_655
Nd29 Nd4 3.752382 1_555
Nd29 Nd8 3.765174 1_655
Nd30 Ru13 2.898323 1_555
Nd30 Ru10 2.898323 1_445
Nd30 Ru12 2.898331 1_455
Nd31 Ru8 2.898323 1_555
Nd31 Ru11 2.898323 1_445
Nd31 Ru9 2.898331 1_545
Nd32 Ru9 2.906742 1_555
Nd32 Ru11 2.906762 1_555
Nd32 Ru0 2.991369 1_565
Nd33 Ru11 2.906748 1_555
Nd33 Ru8 2.906748 1_555
Nd33 Ru1 2.991372 1_555
Nd34 Ru12 2.906742 1_555
Nd34 Ru13 2.906762 1_555
Nd34 Ru2 2.991369 1_545
Nd35 Ru9 2.906742 1_555
Nd35 Ru8 2.906762 1_555
Nd35 Ru3 2.991369 1_455
Nd36 Ru10 2.906748 1_555
Nd36 Ru13 2.906748 1_555
Nd36 Ru4 2.991372 1_555
Nd37 Ru12 2.906742 1_555
Nd37 Ru10 2.906762 1_555
Nd37 Ru5 2.991369 1_655
Nd38 Ru1 2.928136 1_555
Nd38 Ru3 2.928144 1_555
Nd38 Ru6 2.944608 1_555
Nd39 Ru3 2.928137 1_555
Nd39 Ru0 2.928137 1_555
Nd39 Ru6 2.944595 1_555
Nd40 Ru4 2.928136 1_555
Nd40 Ru5 2.928144 1_555
Nd40 Ru7 2.944608 1_555
Nd41 Ru1 2.928136 1_555
Nd41 Ru0 2.928144 1_555
Nd41 Ru6 2.944608 1_555
Nd42 Ru2 2.928137 1_555
Nd42 Ru5 2.928137 1_555
Nd42 Ru7 2.944595 1_555
Nd43 Ru4 2.928136 1_555
Nd43 Ru2 2.928144 1_555
Nd43 Ru7 2.944608 1_555
Nd44 Ru3 2.975483 1_555
Nd44 Ru0 2.975483 1_555
Nd44 Ru1 2.975491 1_555
Nd45 Ru2 2.975483 1_555
Nd45 Ru5 2.975483 1_555
Nd45 Ru4 2.975491 1_555
Cd0 Cd3 3.129096 1_545
Cd0 Cd2 3.129101 1_555
Cd0 Cd5 3.129101 1_445
Cd0 Nd21 3.379099 1_555
Cd0 Nd18 3.379099 1_445
Cd0 Nd19 3.379099 1_455
Cd0 Nd38 3.628002 1_445
Cd0 Nd41 3.628002 1_555
Cd0 Nd39 3.628011 1_455
Cd0 Nd0 3.664403 1_555
Cd0 Nd3 3.664403 1_445
Cd0 Nd1 3.664412 1_545
Cd1 Cd6 3.129096 1_455
Cd1 Cd7 3.129101 1_555
Cd1 Cd4 3.129101 1_445
Cd1 Nd20 3.379099 1_555
Cd1 Nd23 3.379099 1_445
Cd1 Nd22 3.379099 1_545
Cd1 Nd43 3.628002 1_445
Cd1 Nd40 3.628002 1_555
Cd1 Nd42 3.628011 1_545
Cd1 Nd5 3.664403 1_555
Cd1 Nd2 3.664403 1_445
Cd1 Nd4 3.664412 1_455
Cd2 Cd5 3.184287 1_445
Cd2 Cd3 3.184287 1_545
Cd2 Nd12 3.351936 1_555
Cd2 Nd25 3.434700 1_555
Cd2 Nd27 3.434701 1_555
Cd2 Nd39 3.583124 1_455
Cd2 Nd41 3.583124 1_555
Cd2 Nd30 3.596494 1_556
Cd2 Nd7 3.639348 1_455
Cd2 Nd9 3.639365 1_555
Cd2 Nd0 3.682676 1_555
Cd3 Cd5 3.184287 1_455
Cd3 Nd13 3.351936 1_555
Cd3 Nd27 3.434701 1_555
Cd3 Nd24 3.434701 1_555
Cd3 Nd38 3.583123 1_455
Cd3 Nd41 3.583123 1_565
Cd3 Nd30 3.596490 1_566
Cd3 Nd6 3.639356 1_455
Cd3 Nd9 3.639356 1_565
Cd3 Nd1 3.682684 1_555
Cd4 Cd7 3.184287 1_665
Cd4 Cd6 3.184287 1_565
Cd4 Nd14 3.351936 1_555
Cd4 Nd28 3.434700 1_555
Cd4 Nd29 3.434701 1_555
Cd4 Nd42 3.583124 1_655
Cd4 Nd43 3.583124 1_555
Cd4 Nd31 3.596494 1_665
Cd4 Nd10 3.639348 1_655
Cd4 Nd11 3.639365 1_555
Cd4 Nd2 3.682676 1_555
Cd5 Nd15 3.351936 1_555
Cd5 Nd25 3.434700 1_555
Cd5 Nd24 3.434701 1_555
Cd5 Nd39 3.583124 1_565
Cd5 Nd38 3.583124 1_555
Cd5 Nd30 3.596494 1_666
Cd5 Nd7 3.639348 1_565
Cd5 Nd6 3.639365 1_555
Cd5 Nd3 3.682676 1_555
Cd6 Cd7 3.184287 1_655
Cd6 Nd16 3.351936 1_555
Cd6 Nd26 3.434701 1_555
Cd6 Nd29 3.434701 1_555
Cd6 Nd43 3.583123 1_545
Cd6 Nd40 3.583123 1_655
Cd6 Nd31 3.596490 1_655
Cd6 Nd11 3.639356 1_545
Cd6 Nd8 3.639356 1_655
Cd6 Nd4 3.682684 1_555
Cd7 Nd17 3.351936 1_555
Cd7 Nd28 3.434700 1_555
Cd7 Nd26 3.434701 1_555
Cd7 Nd42 3.583124 1_545
Cd7 Nd40 3.583124 1_555
Cd7 Nd31 3.596494 1_555
Cd7 Nd10 3.639348 1_545
Cd7 Nd8 3.639365 1_555
Cd7 Nd5 3.682676 1_555
