# generated using pymatgen
data_Eu(GaGe2)2
_symmetry_space_group_name_H-M   'P 1'
_cell_length_a   5.97070760
_cell_length_b   5.97070760
_cell_length_c   13.02686500
_cell_angle_alpha   90.00000000
_cell_angle_beta   90.00000000
_cell_angle_gamma   136.87322931
_symmetry_Int_Tables_number   1
_chemical_formula_structural   Eu(GaGe2)2
_chemical_formula_sum   'Eu2 Ga4 Ge8'
_cell_volume   317.47023423
_cell_formula_units_Z   2
loop_
 _symmetry_equiv_pos_site_id
 _symmetry_equiv_pos_as_xyz
  1  'x, y, z'
loop_
 _atom_site_type_symbol
 _atom_site_label
 _atom_site_symmetry_multiplicity
 _atom_site_fract_x
 _atom_site_fract_y
 _atom_site_fract_z
 _atom_site_occupancy
  Eu  Eu0  1  0.79226400  0.20773600  0.25000000  1
  Eu  Eu1  1  0.20773600  0.79226400  0.75000000  1
  Ga  Ga0  1  0.06305800  0.93694200  0.15442100  1
  Ga  Ga1  1  0.93694200  0.06305800  0.84557900  1
  Ga  Ga2  1  0.06305800  0.93694200  0.34557900  1
  Ga  Ga3  1  0.93694200  0.06305800  0.65442100  1
  Ge  Ge0  1  0.25195600  0.74804400  0.04984300  1
  Ge  Ge1  1  0.74804400  0.25195600  0.95015700  1
  Ge  Ge2  1  0.25195600  0.74804400  0.45015700  1
  Ge  Ge3  1  0.74804400  0.25195600  0.54984300  1
  Ge  Ge4  1  0.47407000  0.52593000  0.09459500  1
  Ge  Ge5  1  0.52593000  0.47407000  0.90540500  1
  Ge  Ge6  1  0.47407000  0.52593000  0.40540500  1
  Ge  Ge7  1  0.52593000  0.47407000  0.59459500  1
loop_
_geom_bond_atom_site_label_1
_geom_bond_atom_site_label_2
_geom_bond_distance
_geom_bond_site_symmetry_2
Eu0 Ga2 3.254901 1_645
Eu0 Ga0 3.254901 1_645
Eu0 Ge2 3.437220 1_655
Eu0 Ge0 3.437220 1_655
Eu0 Ge2 3.437220 1_545
Eu0 Ge0 3.437220 1_545
Eu0 Ga2 3.584021 1_655
Eu0 Ga2 3.584021 1_545
Eu0 Ga0 3.584021 1_655
Eu0 Ga0 3.584021 1_545
Eu0 Ge6 3.604231 1_655
Eu0 Ge6 3.604231 1_545
Eu0 Ge4 3.604231 1_545
Eu0 Ge4 3.604231 1_655
Eu1 Ga1 3.254901 1_465
Eu1 Ga3 3.254901 1_465
Eu1 Ge1 3.437220 1_565
Eu1 Ge1 3.437220 1_455
Eu1 Ge3 3.437220 1_565
Eu1 Ge3 3.437220 1_455
Eu1 Ga1 3.584021 1_565
Eu1 Ga1 3.584021 1_455
Eu1 Ga3 3.584021 1_565
Eu1 Ga3 3.584021 1_455
Eu1 Ge5 3.604231 1_565
Eu1 Ge5 3.604231 1_455
Eu1 Ge7 3.604231 1_565
Eu1 Ge7 3.604231 1_455
Ga0 Ga2 2.490189 1_555
Ga0 Ge0 2.501368 1_555
Ga0 Ge4 2.529727 1_455
Ga0 Ge4 2.529727 1_565
Ga1 Ga3 2.490189 1_555
Ga1 Ge1 2.501368 1_555
Ga1 Ge5 2.529727 1_545
Ga1 Ge5 2.529727 1_655
Ga2 Ge2 2.501368 1_555
Ga2 Ge6 2.529727 1_455
Ga2 Ge6 2.529727 1_565
Ga3 Ge3 2.501368 1_555
Ga3 Ge7 2.529727 1_545
Ga3 Ge7 2.529727 1_655
Ge0 Ge4 2.534675 1_555
Ge0 Ge1 2.550235 1_564
Ge0 Ge1 2.550235 1_454
Ge1 Ge5 2.534675 1_555
Ge2 Ge6 2.534675 1_555
Ge2 Ge3 2.550235 1_455
Ge2 Ge3 2.550235 1_565
Ge3 Ge7 2.534675 1_555
Ge4 Ge5 2.530953 1_554
Ge6 Ge7 2.530953 1_555
