# generated using pymatgen
data_Si6NiMo9
_symmetry_space_group_name_H-M   'P 1'
_cell_length_a   7.22297708
_cell_length_b   7.22297708
_cell_length_c   7.22297708
_cell_angle_alpha   96.69119992
_cell_angle_beta   96.69119992
_cell_angle_gamma   140.08200133
_symmetry_Int_Tables_number   1
_chemical_formula_structural   Si6NiMo9
_chemical_formula_sum   'Si6 Ni1 Mo9'
_cell_volume   227.28626355
_cell_formula_units_Z   1
loop_
 _symmetry_equiv_pos_site_id
 _symmetry_equiv_pos_as_xyz
  1  'x, y, z'
loop_
 _atom_site_type_symbol
 _atom_site_label
 _atom_site_symmetry_multiplicity
 _atom_site_fract_x
 _atom_site_fract_y
 _atom_site_fract_z
 _atom_site_occupancy
  Si  Si0  1  0.61095500  0.93204600  0.00000000  1
  Si  Si1  1  0.93204600  0.61095500  0.00000000  1
  Si  Si2  1  0.06795400  0.06795400  0.67890900  1
  Si  Si3  1  0.38904500  0.38904500  0.32109100  1
  Si  Si4  1  0.50000000  0.00000000  0.50000000  1
  Si  Si5  1  0.00000000  0.50000000  0.50000000  1
  Ni  Ni0  1  0.00000000  0.00000000  0.00000000  1
  Mo  Mo0  1  0.67063000  0.47303900  0.64655900  1
  Mo  Mo1  1  0.82648000  0.02407100  0.35344100  1
  Mo  Mo2  1  0.17352000  0.52696100  0.19759100  1
  Mo  Mo3  1  0.32937000  0.97592900  0.80240900  1
  Mo  Mo4  1  0.97592900  0.32937000  0.80240900  1
  Mo  Mo5  1  0.52696100  0.17352000  0.19759100  1
  Mo  Mo6  1  0.02407100  0.82648000  0.35344100  1
  Mo  Mo7  1  0.47303900  0.67063000  0.64655900  1
  Mo  Mo8  1  0.50000000  0.50000000  0.00000000  1
loop_
_geom_bond_atom_site_label_1
_geom_bond_atom_site_label_2
_geom_bond_distance
_geom_bond_site_symmetry_2
Si4 Si5 2.465546 1_545
Si4 Si5 2.465546 1_655
Ni0 Si0 2.453911 1_445
Ni0 Si2 2.453911 1_554
Ni0 Si3 2.453911 1_555
Ni0 Si1 2.453911 1_445
Mo0 Si1 2.544349 1_556
Mo0 Si3 2.586867 1_555
Mo0 Si4 2.589878 1_555
Mo0 Si5 2.596653 1_655
Mo0 Si2 2.729253 1_665
Mo0 Si2 2.902438 1_555
Mo0 Ni0 3.015758 1_666
Mo1 Si0 2.544349 1_545
Mo1 Si2 2.586867 1_655
Mo1 Si4 2.589878 1_555
Mo1 Si5 2.596653 1_655
Mo1 Si3 2.729253 1_655
Mo1 Si3 2.902438 1_545
Mo1 Ni0 3.015758 1_655
Mo2 Si3 2.544349 1_555
Mo2 Si1 2.586867 1_455
Mo2 Si4 2.589878 1_565
Mo2 Si5 2.596653 1_555
Mo2 Si0 2.729253 1_445
Mo2 Si0 2.902438 1_555
Mo2 Ni0 3.015758 1_555
Mo3 Si2 2.544349 1_565
Mo3 Si0 2.586867 1_556
Mo3 Si4 2.589878 1_565
Mo3 Si5 2.596653 1_555
Mo3 Si1 2.729253 1_456
Mo3 Si1 2.902438 1_566
Mo3 Ni0 3.015758 1_566
Mo4 Si2 2.544349 1_655
Mo4 Si1 2.586867 1_556
Mo4 Si5 2.589878 1_655
Mo4 Si4 2.596653 1_555
Mo4 Si0 2.729253 1_546
Mo4 Si0 2.902438 1_656
Mo4 Ni0 3.015758 1_656
Mo5 Si3 2.544349 1_555
Mo5 Si0 2.586867 1_545
Mo5 Si5 2.589878 1_655
Mo5 Si4 2.596653 1_555
Mo5 Si1 2.729253 1_445
Mo5 Si1 2.902438 1_555
Mo5 Ni0 3.015758 1_555
Mo6 Si1 2.544349 1_455
Mo6 Si2 2.586867 1_565
Mo6 Si5 2.589878 1_555
Mo6 Si4 2.596653 1_565
Mo6 Si3 2.729253 1_565
Mo6 Si3 2.902438 1_455
Mo6 Ni0 3.015758 1_565
Mo7 Si0 2.544349 1_556
Mo7 Si3 2.586867 1_555
Mo7 Si5 2.589878 1_555
Mo7 Si4 2.596653 1_565
Mo7 Si2 2.729253 1_665
Mo7 Si2 2.902438 1_555
Mo7 Ni0 3.015758 1_666
Mo8 Ni0 2.465546 1_555
Mo8 Ni0 2.465546 1_665
Mo8 Si2 2.558218 1_554
Mo8 Si1 2.558218 1_555
Mo8 Si3 2.558218 1_555
Mo8 Si0 2.558218 1_555
