# generated using pymatgen
data_MnFe2P2O11
_symmetry_space_group_name_H-M   'P 1'
_cell_length_a   7.92090200
_cell_length_b   9.54619800
_cell_length_c   9.67398700
_cell_angle_alpha   90.00000000
_cell_angle_beta   90.00000000
_cell_angle_gamma   90.00000000
_symmetry_Int_Tables_number   1
_chemical_formula_structural   MnFe2P2O11
_chemical_formula_sum   'Mn4 Fe8 P8 O44'
_cell_volume   731.49367870
_cell_formula_units_Z   4
loop_
 _symmetry_equiv_pos_site_id
 _symmetry_equiv_pos_as_xyz
  1  'x, y, z'
loop_
 _atom_site_type_symbol
 _atom_site_label
 _atom_site_symmetry_multiplicity
 _atom_site_fract_x
 _atom_site_fract_y
 _atom_site_fract_z
 _atom_site_occupancy
  Mn  Mn0  1  0.35997700  0.38333300  0.79241700  1
  Mn  Mn1  1  0.85997700  0.61666700  0.20758300  1
  Mn  Mn2  1  0.85997700  0.11666700  0.29241700  1
  Mn  Mn3  1  0.35997700  0.88333300  0.70758300  1
  Fe  Fe0  1  0.99881000  0.50208100  0.75123500  1
  Fe  Fe1  1  0.49881000  0.99791900  0.25123500  1
  Fe  Fe2  1  0.49881000  0.49791900  0.24876500  1
  Fe  Fe3  1  0.99881000  0.00208100  0.74876500  1
  Fe  Fe4  1  0.13749200  0.87988400  0.20813100  1
  Fe  Fe5  1  0.63749200  0.12011600  0.79186900  1
  Fe  Fe6  1  0.63749200  0.62011600  0.70813100  1
  Fe  Fe7  1  0.13749200  0.37988400  0.29186900  1
  P  P0  1  0.71543900  0.39241600  0.96175200  1
  P  P1  1  0.78471300  0.89280600  0.04307900  1
  P  P2  1  0.21543900  0.60758400  0.03824800  1
  P  P3  1  0.28471300  0.10719400  0.95692100  1
  P  P4  1  0.28471300  0.60719400  0.54307900  1
  P  P5  1  0.21543900  0.10758400  0.46175200  1
  P  P6  1  0.78471300  0.39280600  0.45692100  1
  P  P7  1  0.71543900  0.89241600  0.53824800  1
  O  O0  1  0.58256900  0.47075500  0.86657800  1
  O  O1  1  0.91277800  0.97509700  0.14027900  1
  O  O2  1  0.08256900  0.52924500  0.13342200  1
  O  O3  1  0.41277800  0.02490300  0.85972100  1
  O  O4  1  0.41277800  0.52490300  0.64027900  1
  O  O5  1  0.08256900  0.02924500  0.36657800  1
  O  O6  1  0.91277800  0.47509700  0.35972100  1
  O  O7  1  0.58256900  0.97075500  0.63342200  1
  O  O8  1  0.67477700  0.23428500  0.96205500  1
  O  O9  1  0.83139800  0.73446200  0.04996700  1
  O  O10  1  0.17477700  0.76571500  0.03794500  1
  O  O11  1  0.33139800  0.26553800  0.95003300  1
  O  O12  1  0.33139800  0.76553800  0.54996700  1
  O  O13  1  0.17477700  0.26571500  0.46205500  1
  O  O14  1  0.83139800  0.23446200  0.45003300  1
  O  O15  1  0.67477700  0.73428500  0.53794500  1
  O  O16  1  0.85729900  0.14949200  0.72060600  1
  O  O17  1  0.65036300  0.65455300  0.27520500  1
  O  O18  1  0.35729900  0.85050800  0.27939400  1
  O  O19  1  0.15036300  0.34544700  0.72479500  1
  O  O20  1  0.15036300  0.84544700  0.77520500  1
  O  O21  1  0.35729900  0.35050800  0.22060600  1
  O  O22  1  0.65036300  0.15455300  0.22479500  1
  O  O23  1  0.85729900  0.64949200  0.77939400  1
  O  O24  1  0.48931900  0.25589100  0.70492200  1
  O  O25  1  0.98931900  0.74410900  0.29507800  1
  O  O26  1  0.48931900  0.75589100  0.79507800  1
  O  O27  1  0.98931900  0.24410900  0.20492200  1
  O  O28  1  0.70940500  0.45361400  0.11130700  1
  O  O29  1  0.79682800  0.94317600  0.89162800  1
  O  O30  1  0.20940500  0.54638600  0.88869300  1
  O  O31  1  0.29682800  0.05682400  0.10837200  1
  O  O32  1  0.29682800  0.55682400  0.39162800  1
  O  O33  1  0.20940500  0.04638600  0.61130700  1
  O  O34  1  0.79682800  0.44317600  0.60837200  1
  O  O35  1  0.70940500  0.95361400  0.38869300  1
  O  O36  1  0.89550300  0.41194200  0.90446800  1
  O  O37  1  0.60333000  0.91362200  0.09443900  1
  O  O38  1  0.39550300  0.58805800  0.09553200  1
  O  O39  1  0.10333000  0.08637800  0.90556100  1
  O  O40  1  0.10333000  0.58637800  0.59443900  1
  O  O41  1  0.39550300  0.08805800  0.40446800  1
  O  O42  1  0.60333000  0.41362200  0.40556100  1
  O  O43  1  0.89550300  0.91194200  0.59553200  1
loop_
_geom_bond_atom_site_label_1
_geom_bond_atom_site_label_2
_geom_bond_distance
_geom_bond_site_symmetry_2
Mn0 O24 1.801702 1_555
Mn0 O19 1.820838 1_555
Mn0 O11 1.908054 1_555
Mn0 O4 2.041443 1_555
Mn0 O0 2.078414 1_555
Mn0 O30 2.170878 1_555
Mn1 O25 1.801702 1_555
Mn1 O17 1.820838 1_555
Mn1 O9 1.908054 1_555
Mn1 O6 2.041443 1_555
Mn1 O2 2.078414 1_655
Mn1 O28 2.170878 1_555
Mn2 O27 1.801702 1_555
Mn2 O22 1.820838 1_555
Mn2 O14 1.908054 1_555
Mn2 O1 2.041443 1_545
Mn2 O5 2.078414 1_655
Mn2 O35 2.170878 1_545
Mn3 O26 1.801702 1_555
Mn3 O20 1.820838 1_555
Mn3 O12 1.908054 1_555
Mn3 O3 2.041443 1_565
Mn3 O7 2.078414 1_555
Mn3 O33 2.170878 1_565
Fe0 O23 1.819578 1_555
Fe0 O36 1.899331 1_555
Fe0 O40 1.906249 1_655
Fe0 O19 1.934495 1_655
Fe0 O30 2.174794 1_655
Fe0 O34 2.187668 1_555
Fe1 O18 1.819578 1_555
Fe1 O41 1.899331 1_565
Fe1 O37 1.906249 1_555
Fe1 O22 1.934495 1_565
Fe1 O35 2.174794 1_555
Fe1 O31 2.187668 1_565
Fe2 O21 1.819578 1_555
Fe2 O38 1.899331 1_555
Fe2 O42 1.906249 1_555
Fe2 O17 1.934495 1_555
Fe2 O28 2.174794 1_555
Fe2 O32 2.187668 1_555
Fe3 O16 1.819578 1_555
Fe3 O43 1.899331 1_545
Fe3 O39 1.906249 1_655
Fe3 O20 1.934495 1_645
Fe3 O33 2.174794 1_655
Fe3 O29 2.187668 1_545
Fe4 O18 1.893471 1_555
Fe4 O25 1.940346 1_455
Fe4 O10 1.996401 1_555
Fe4 O1 2.103611 1_455
Fe4 O5 2.138170 1_565
Fe4 O31 2.318898 1_565
Fe5 O16 1.893471 1_555
Fe5 O24 1.940346 1_555
Fe5 O8 1.996401 1_555
Fe5 O3 2.103611 1_555
Fe5 O7 2.138170 1_545
Fe5 O29 2.318898 1_545
Fe6 O23 1.893471 1_555
Fe6 O26 1.940346 1_555
Fe6 O15 1.996401 1_555
Fe6 O4 2.103611 1_555
Fe6 O0 2.138170 1_555
Fe6 O34 2.318898 1_555
Fe7 O21 1.893471 1_555
Fe7 O27 1.940346 1_455
Fe7 O13 1.996401 1_555
Fe7 O6 2.103611 1_455
Fe7 O2 2.138170 1_555
Fe7 O32 2.318898 1_555
O0 P0 1.585757 1_555
O1 P1 1.590688 1_555
O2 P2 1.585757 1_555
O3 P3 1.590688 1_555
O4 P4 1.590688 1_555
O5 P5 1.585757 1_555
O6 P6 1.590688 1_555
O7 P7 1.585757 1_555
O8 P0 1.543530 1_555
O9 P1 1.557584 1_555
O10 P2 1.543530 1_555
O11 P3 1.557584 1_555
O12 P4 1.557584 1_555
O13 P5 1.543530 1_555
O14 P6 1.557584 1_555
O15 P7 1.543530 1_555
O28 P0 1.561023 1_554
O29 P1 1.545004 1_556
O30 P2 1.561023 1_556
O31 P3 1.545004 1_554
O32 P4 1.545004 1_555
O33 P5 1.561023 1_555
O34 P6 1.545004 1_555
O35 P7 1.561023 1_555
O36 P0 1.541456 1_555
O37 P1 1.533137 1_555
O38 P2 1.541456 1_555
O39 P3 1.533137 1_555
O40 P4 1.533137 1_555
O41 P5 1.541456 1_555
O42 P6 1.533137 1_555
O43 P7 1.541456 1_555
