# generated using pymatgen
data_Na8Zr3Si12SnO40
_symmetry_space_group_name_H-M   'P 1'
_cell_length_a   7.16623200
_cell_length_b   10.22458501
_cell_length_c   13.31912509
_cell_angle_alpha   90.24321980
_cell_angle_beta   90.07718234
_cell_angle_gamma   90.00212381
_symmetry_Int_Tables_number   1
_chemical_formula_structural   Na8Zr3Si12SnO40
_chemical_formula_sum   'Na8 Zr3 Si12 Sn1 O40'
_cell_volume   975.90590156
_cell_formula_units_Z   1
loop_
 _symmetry_equiv_pos_site_id
 _symmetry_equiv_pos_as_xyz
  1  'x, y, z'
loop_
 _atom_site_type_symbol
 _atom_site_label
 _atom_site_symmetry_multiplicity
 _atom_site_fract_x
 _atom_site_fract_y
 _atom_site_fract_z
 _atom_site_occupancy
  Na  Na0  1  0.68625900  0.76062800  0.85963400  1
  Na  Na1  1  0.18498500  0.73942500  0.13821300  1
  Na  Na2  1  0.31324500  0.25834600  0.63879400  1
  Na  Na3  1  0.81235500  0.24881500  0.36823200  1
  Na  Na4  1  0.24993400  0.56896600  0.40477400  1
  Na  Na5  1  0.75121100  0.91692200  0.58844000  1
  Na  Na6  1  0.74535000  0.08126000  0.09125200  1
  Na  Na7  1  0.25190100  0.41982000  0.90885700  1
  Zr  Zr0  1  0.26468400  0.95645300  0.70289300  1
  Zr  Zr1  1  0.23704600  0.04212000  0.20398200  1
  Zr  Zr2  1  0.73848200  0.45792200  0.79607300  1
  Si  Si0  1  0.50663000  0.80977600  0.32897400  1
  Si  Si1  1  0.00565700  0.68519500  0.66799800  1
  Si  Si2  1  0.49073800  0.31966800  0.17115600  1
  Si  Si3  1  0.99545700  0.18474800  0.83066500  1
  Si  Si4  1  0.23408100  0.97173200  0.44641000  1
  Si  Si5  1  0.73252700  0.52476600  0.55065400  1
  Si  Si6  1  0.76618200  0.48140200  0.05502600  1
  Si  Si7  1  0.26888800  0.02369600  0.94713000  1
  Si  Si8  1  0.06655100  0.34926300  0.16935600  1
  Si  Si9  1  0.57217500  0.15169900  0.83433200  1
  Si  Si10  1  0.92963100  0.84364900  0.33330200  1
  Si  Si11  1  0.42865600  0.65021400  0.66487300  1
  Sn  Sn0  1  0.76251000  0.54282200  0.29487600  1
  O  O0  1  0.02083100  0.90730000  0.43770300  1
  O  O1  1  0.51910000  0.58719500  0.56047800  1
  O  O2  1  0.97488300  0.41121100  0.06527000  1
  O  O3  1  0.48156100  0.08910700  0.93856700  1
  O  O4  1  0.98692500  0.41645600  0.27163800  1
  O  O5  1  0.49205000  0.08277800  0.73332800  1
  O  O6  1  0.01089800  0.91382000  0.23355100  1
  O  O7  1  0.50821900  0.58085300  0.76548200  1
  O  O8  1  0.74939900  0.59069300  0.14415000  1
  O  O9  1  0.24721200  0.91868200  0.85609400  1
  O  O10  1  0.25731600  0.07721400  0.35674600  1
  O  O11  1  0.75683300  0.41949500  0.64116600  1
  O  O12  1  0.49244500  0.29236500  0.42379800  1
  O  O13  1  0.99057300  0.22710800  0.58101700  1
  O  O14  1  0.50661000  0.78052300  0.07887900  1
  O  O15  1  0.00698400  0.72067200  0.91894600  1
  O  O16  1  0.52587700  0.65140100  0.32439700  1
  O  O17  1  0.02751600  0.84260900  0.67289500  1
  O  O18  1  0.47004500  0.16192800  0.17411800  1
  O  O19  1  0.97373000  0.34256000  0.82645100  1
  O  O20  1  0.70833000  0.88080600  0.34911700  1
  O  O21  1  0.20685500  0.61270000  0.64942500  1
  O  O22  1  0.28766000  0.39077900  0.15615500  1
  O  O23  1  0.79369300  0.11332300  0.84975800  1
  O  O24  1  0.76958600  0.46533700  0.43990800  1
  O  O25  1  0.27141800  0.03263500  0.55627800  1
  O  O26  1  0.23273600  0.96393500  0.05697700  1
  O  O27  1  0.73483900  0.53848400  0.94346100  1
  O  O28  1  0.59619000  0.37510200  0.27124800  1
  O  O29  1  0.09519700  0.12684100  0.73027100  1
  O  O30  1  0.40672700  0.87060400  0.22991200  1
  O  O31  1  0.90472900  0.62764500  0.76774500  1
  O  O32  1  0.37602500  0.84461600  0.42771400  1
  O  O33  1  0.87515900  0.65117300  0.56903100  1
  O  O34  1  0.61570300  0.35903700  0.07186300  1
  O  O35  1  0.12529900  0.14993400  0.92941200  1
  O  O36  1  0.96273200  0.68524400  0.32666800  1
  O  O37  1  0.46226600  0.80790200  0.67226200  1
  O  O38  1  0.03956400  0.19089000  0.17441800  1
  O  O39  1  0.54115100  0.30973700  0.82781000  1
loop_
_geom_bond_atom_site_label_1
_geom_bond_atom_site_label_2
_geom_bond_distance
_geom_bond_site_symmetry_2
Na0 O31 2.406029 1_555
Na0 O15 2.464039 1_655
Na0 O27 2.558761 1_555
Na0 O7 2.560289 1_555
Na1 O30 2.407582 1_555
Na1 O14 2.474076 1_555
Na1 O6 2.516650 1_555
Na1 O26 2.565005 1_555
Na2 O29 2.398528 1_555
Na2 O13 2.456460 1_455
Na2 O5 2.542572 1_555
Na2 O25 2.569282 1_555
Na3 O28 2.396763 1_555
Na3 O24 2.426795 1_555
Na3 O12 2.450233 1_555
Na3 O4 2.486188 1_555
Na4 O16 2.404191 1_555
Na4 O36 2.595500 1_455
Na4 O1 2.835868 1_555
Na4 O32 2.974057 1_555
Na4 O4 3.015911 1_455
Na5 O17 2.400974 1_655
Na5 O37 2.606367 1_555
Na5 O0 2.789714 1_655
Na5 O33 2.869436 1_555
Na6 O18 2.406042 1_555
Na6 O38 2.629035 1_655
Na6 O3 2.776084 1_554
Na7 O19 2.406059 1_455
Na7 O39 2.593194 1_555
Na7 O2 2.881220 1_456
Na7 O35 2.918845 1_555
O0 Si10 1.665563 1_455
O0 Si4 1.667826 1_555
O1 Si11 1.662369 1_555
O1 Si5 1.662448 1_555
O2 Si8 1.661228 1_655
O2 Si6 1.664588 1_555
O3 Si9 1.663914 1_555
O3 Si7 1.668566 1_555
O4 Si8 1.627163 1_655
O4 Sn0 2.085570 1_555
O5 Si9 1.620468 1_555
O5 Zr0 2.116845 1_545
O6 Si10 1.621493 1_455
O6 Zr1 2.123287 1_565
O7 Si11 1.621648 1_555
O7 Zr2 2.114577 1_555
O8 Si6 1.631380 1_555
O8 Sn0 2.070374 1_555
O9 Si7 1.623467 1_565
O9 Zr0 2.082271 1_555
O10 Si4 1.621292 1_545
O10 Zr1 2.069490 1_555
O11 Si5 1.628701 1_555
O11 Zr2 2.102954 1_555
O16 Si0 1.626080 1_555
O16 Sn0 2.064206 1_555
O17 Si1 1.618123 1_555
O17 Zr0 2.096967 1_555
O18 Si2 1.620275 1_555
O18 Zr1 2.110110 1_555
O19 Si3 1.622264 1_555
O19 Zr2 2.097479 1_555
O20 Si0 1.638874 1_555
O20 Si10 1.644394 1_555
O21 Si1 1.639811 1_555
O21 Si11 1.647513 1_555
O22 Si2 1.639208 1_555
O22 Si8 1.650192 1_555
O23 Si3 1.640449 1_555
O23 Si9 1.648036 1_555
O24 Si5 1.615225 1_555
O24 Sn0 2.091514 1_555
O25 Si4 1.609948 1_545
O25 Zr0 2.106084 1_545
O26 Si7 1.609236 1_564
O26 Zr1 2.111926 1_565
O27 Si6 1.614187 1_556
O27 Zr2 2.125859 1_555
O28 Si2 1.631079 1_555
O28 Sn0 2.110607 1_555
O29 Si3 1.626443 1_455
O29 Zr0 2.153883 1_545
O30 Si0 1.626249 1_555
O30 Zr1 2.162737 1_565
O31 Si1 1.625912 1_655
O31 Zr2 2.140036 1_555
O32 Si0 1.652822 1_555
O32 Si4 1.668528 1_555
O33 Si1 1.651017 1_655
O33 Si5 1.664831 1_555
O34 Si2 1.649449 1_555
O34 Si6 1.667762 1_555
O35 Si3 1.650155 1_455
O35 Si7 1.668092 1_555
O36 Si10 1.638942 1_555
O36 Sn0 2.086042 1_555
O37 Si11 1.632713 1_555
O37 Zr0 2.115348 1_555
O38 Si8 1.632487 1_555
O38 Zr1 2.115508 1_555
O39 Si9 1.633764 1_555
O39 Zr2 2.116820 1_555
