# generated using pymatgen
data_Mn3Zn2O8
_symmetry_space_group_name_H-M   'P 1'
_cell_length_a   5.74431273
_cell_length_b   5.74431260
_cell_length_c   9.24212111
_cell_angle_alpha   90.00001650
_cell_angle_beta   89.99998175
_cell_angle_gamma   119.99984230
_symmetry_Int_Tables_number   1
_chemical_formula_structural   Mn3Zn2O8
_chemical_formula_sum   'Mn6 Zn4 O16'
_cell_volume   264.10651763
_cell_formula_units_Z   2
loop_
 _symmetry_equiv_pos_site_id
 _symmetry_equiv_pos_as_xyz
  1  'x, y, z'
loop_
 _atom_site_type_symbol
 _atom_site_label
 _atom_site_symmetry_multiplicity
 _atom_site_fract_x
 _atom_site_fract_y
 _atom_site_fract_z
 _atom_site_occupancy
  Mn  Mn0  1  0.67282794  0.83641369  0.24522816  1
  Mn  Mn1  1  0.83641527  0.16358596  0.74523023  1
  Mn  Mn2  1  0.16358514  0.32717220  0.24522803  1
  Mn  Mn3  1  0.83641441  0.67282968  0.74523041  1
  Mn  Mn4  1  0.32717005  0.16358416  0.74523039  1
  Mn  Mn5  1  0.16358681  0.83641428  0.24522786  1
  Zn  Zn0  1  0.66666782  0.33333216  0.03291818  1
  Zn  Zn1  1  0.33333217  0.66666782  0.53291697  1
  Zn  Zn2  1  0.66666520  0.33333501  0.42017478  1
  Zn  Zn3  1  0.33333461  0.66666514  0.92018292  1
  O  O0  1  0.84225068  0.15774774  0.14257786  1
  O  O1  1  0.68450005  0.84225031  0.64258015  1
  O  O2  1  0.15775121  0.31549989  0.64258010  1
  O  O3  1  0.84225232  0.68450370  0.14257794  1
  O  O4  1  0.31549630  0.15774941  0.14257804  1
  O  O5  1  0.15774946  0.84224871  0.64258008  1
  O  O6  1  0.51811751  0.48188288  0.86285612  1
  O  O7  1  0.03623787  0.51811879  0.36284823  1
  O  O8  1  0.48188088  0.96376240  0.36284815  1
  O  O9  1  0.51811714  0.03623464  0.86285564  1
  O  O10  1  -0.00000045  0.00000031  0.35098469  1
  O  O11  1  0.00000020  -0.00000036  0.85098977  1
  O  O12  1  0.33333337  0.66666656  0.13743630  1
  O  O13  1  0.96376522  0.48188227  0.86285563  1
  O  O14  1  0.48188122  0.51811931  0.36284861  1
  O  O15  1  0.66666659  0.33333333  0.63743476  1
loop_
_geom_bond_atom_site_label_1
_geom_bond_atom_site_label_2
_geom_bond_distance
_geom_bond_site_symmetry_2
Mn0 O3 1.859550 1_555
Mn0 O0 1.859553 1_565
Mn0 O10 1.898523 1_665
Mn0 O8 1.929330 1_555
Mn0 O14 1.929331 1_555
Mn0 O12 1.960823 1_555
Mn1 O1 1.859557 1_545
Mn1 O2 1.859559 1_655
Mn1 O11 1.898532 1_655
Mn1 O13 1.929363 1_555
Mn1 O9 1.929370 1_555
Mn1 O15 1.960843 1_555
Mn2 O4 1.859547 1_555
Mn2 O0 1.859554 1_455
Mn2 O10 1.898525 1_555
Mn2 O7 1.929324 1_555
Mn2 O14 1.929339 1_555
Mn2 O12 1.960821 1_555
Mn3 O1 1.859553 1_555
Mn3 O5 1.859556 1_655
Mn3 O11 1.898529 1_665
Mn3 O13 1.929368 1_555
Mn3 O6 1.929368 1_555
Mn3 O15 1.960848 1_555
Mn4 O2 1.859551 1_555
Mn4 O5 1.859558 1_545
Mn4 O11 1.898529 1_555
Mn4 O9 1.929362 1_555
Mn4 O6 1.929375 1_555
Mn4 O15 1.960849 1_555
Mn5 O3 1.859553 1_455
Mn5 O4 1.859555 1_565
Mn5 O10 1.898528 1_565
Mn5 O8 1.929328 1_555
Mn5 O7 1.929334 1_555
Mn5 O12 1.960816 1_555
O0 Zn0 2.019659 1_555
O1 Zn1 2.019681 1_555
O2 Zn1 2.019681 1_555
O3 Zn0 2.019680 1_555
O4 Zn0 2.019681 1_555
O5 Zn1 2.019658 1_555
O6 Zn3 1.913302 1_555
O6 Zn0 2.157502 1_556
O7 Zn2 1.913342 1_455
O7 Zn1 2.157526 1_555
O8 Zn2 1.913342 1_565
O8 Zn1 2.157528 1_555
O9 Zn3 1.913329 1_545
O9 Zn0 2.157495 1_556
O12 Zn3 2.007882 1_554
O13 Zn3 1.913328 1_655
O13 Zn0 2.157495 1_556
O14 Zn2 1.913316 1_555
O14 Zn1 2.157532 1_555
O15 Zn2 2.007943 1_555
