# generated using pymatgen
data_Ce11(Ni2Ge3)2
_symmetry_space_group_name_H-M   'P 1'
_cell_length_a   9.16313490
_cell_length_b   9.16313490
_cell_length_c   13.68981673
_cell_angle_alpha   73.17683656
_cell_angle_beta   73.17683656
_cell_angle_gamma   26.69817687
_symmetry_Int_Tables_number   1
_chemical_formula_structural   Ce11(Ni2Ge3)2
_chemical_formula_sum   'Ce11 Ni4 Ge6'
_cell_volume   493.05598712
_cell_formula_units_Z   1
loop_
 _symmetry_equiv_pos_site_id
 _symmetry_equiv_pos_as_xyz
  1  'x, y, z'
loop_
 _atom_site_type_symbol
 _atom_site_label
 _atom_site_symmetry_multiplicity
 _atom_site_fract_x
 _atom_site_fract_y
 _atom_site_fract_z
 _atom_site_occupancy
  Ce  Ce0  1  0.90358500  0.90358500  0.28300300  1
  Ce  Ce1  1  0.09641500  0.09641500  0.71699700  1
  Ce  Ce2  1  0.55007500  0.55007500  0.37209600  1
  Ce  Ce3  1  0.44992500  0.44992500  0.62790400  1
  Ce  Ce4  1  0.78378300  0.78378300  0.59978100  1
  Ce  Ce5  1  0.21621700  0.21621700  0.40021900  1
  Ce  Ce6  1  0.85755800  0.85755800  0.84862900  1
  Ce  Ce7  1  0.14244200  0.14244200  0.15137100  1
  Ce  Ce8  1  0.34161500  0.34161500  0.09274000  1
  Ce  Ce9  1  0.65838500  0.65838500  0.90726000  1
  Ce  Ce10  1  0.00000000  0.00000000  0.00000000  1
  Ni  Ni0  1  0.94000100  0.94000100  0.47513900  1
  Ni  Ni1  1  0.05999900  0.05999900  0.52486100  1
  Ni  Ni2  1  0.75223200  0.75223200  0.04932100  1
  Ni  Ni3  1  0.24776800  0.24776800  0.95067900  1
  Ge  Ge0  1  0.73722700  0.73722700  0.23634700  1
  Ge  Ge1  1  0.26277300  0.26277300  0.76365300  1
  Ge  Ge2  1  0.62904900  0.62904900  0.54906800  1
  Ge  Ge3  1  0.37095100  0.37095100  0.45093200  1
  Ge  Ge4  1  0.51433900  0.51433900  0.15121800  1
  Ge  Ge5  1  0.48566100  0.48566100  0.84878200  1
loop_
_geom_bond_atom_site_label_1
_geom_bond_atom_site_label_2
_geom_bond_distance
_geom_bond_site_symmetry_2
Ce0 Ni0 2.890716 1_555
Ce0 Ge3 3.050184 1_655
Ce0 Ge3 3.050184 1_565
Ce0 Ge4 3.084016 1_655
Ce0 Ge4 3.084016 1_565
Ce0 Ge0 3.214705 1_555
Ce1 Ni1 2.890716 1_555
Ce1 Ge2 3.050184 1_545
Ce1 Ge2 3.050184 1_455
Ce1 Ge5 3.084016 1_455
Ce1 Ge5 3.084016 1_545
Ce1 Ge1 3.214705 1_555
Ce2 Ni0 2.944648 1_455
Ce2 Ni0 2.944648 1_545
Ce2 Ni1 3.016777 1_655
Ce2 Ni1 3.016777 1_565
Ce2 Ge3 3.052143 1_555
Ce2 Ge2 3.143595 1_555
Ce2 Ge4 3.270405 1_555
Ce2 Ge0 3.301602 1_555
Ce3 Ni1 2.944648 1_565
Ce3 Ni1 2.944648 1_655
Ce3 Ni0 3.016777 1_545
Ce3 Ni0 3.016777 1_455
Ce3 Ge2 3.052143 1_555
Ce3 Ge3 3.143595 1_555
Ce3 Ge5 3.270405 1_555
Ce3 Ge1 3.301602 1_555
Ce4 Ni0 2.800563 1_555
Ce4 Ge1 3.024721 1_655
Ce4 Ge1 3.024721 1_565
Ce4 Ge3 3.026509 1_565
Ce4 Ge3 3.026509 1_655
Ce4 Ge2 3.038760 1_555
Ce5 Ni1 2.800563 1_555
Ce5 Ge0 3.024721 1_545
Ce5 Ge0 3.024721 1_455
Ce5 Ge2 3.026509 1_455
Ce5 Ge2 3.026509 1_545
Ce5 Ge3 3.038760 1_555
Ce6 Ni2 2.829471 1_556
Ce6 Ni3 2.938199 1_565
Ce6 Ni3 2.938199 1_655
Ce6 Ge5 3.113895 1_565
Ce6 Ge5 3.113895 1_655
Ce6 Ge1 3.139315 1_565
Ce6 Ge1 3.139315 1_655
Ce7 Ni3 2.829471 1_554
Ce7 Ni2 2.938199 1_455
Ce7 Ni2 2.938199 1_545
Ce7 Ge4 3.113895 1_545
Ce7 Ge4 3.113895 1_455
Ce7 Ge0 3.139315 1_545
Ce7 Ge0 3.139315 1_455
Ce8 Ni2 2.816545 1_545
Ce8 Ni2 2.816545 1_455
Ce8 Ni3 2.918655 1_554
Ce8 Ge0 3.102977 1_545
Ce8 Ge0 3.102977 1_455
Ce8 Ge4 3.404886 1_555
Ce8 Ge5 3.556380 1_554
Ce9 Ni3 2.816545 1_565
Ce9 Ni3 2.816545 1_655
Ce9 Ni2 2.918655 1_556
Ce9 Ge1 3.102977 1_565
Ce9 Ge1 3.102977 1_655
Ce9 Ge5 3.404886 1_555
Ce9 Ge4 3.556380 1_556
Ce10 Ge5 3.023507 1_454
Ce10 Ge5 3.023507 1_544
Ce10 Ge4 3.023507 1_545
Ce10 Ge4 3.023507 1_455
Ni0 Ni1 2.430660 1_665
Ni2 Ni3 2.523820 1_564
Ni2 Ni3 2.523820 1_654
Ge0 Ni2 2.493883 1_555
Ge1 Ni3 2.493883 1_555
Ge2 Ni1 2.518796 1_565
Ge2 Ni1 2.518796 1_655
Ge3 Ni0 2.518796 1_455
Ge3 Ni0 2.518796 1_545
