# generated using pymatgen
data_Cs2HgBr4
_symmetry_space_group_name_H-M   'P 1'
_cell_length_a   10.39349499
_cell_length_b   7.91583537
_cell_length_c   16.17319528
_cell_angle_alpha   60.85079463
_cell_angle_beta   90.00000000
_cell_angle_gamma   90.00000000
_symmetry_Int_Tables_number   1
_chemical_formula_structural   Cs2HgBr4
_chemical_formula_sum   'Cs8 Hg4 Br16'
_cell_volume   1162.10301194
_cell_formula_units_Z   4
loop_
 _symmetry_equiv_pos_site_id
 _symmetry_equiv_pos_as_xyz
  1  'x, y, z'
loop_
 _atom_site_type_symbol
 _atom_site_label
 _atom_site_symmetry_multiplicity
 _atom_site_fract_x
 _atom_site_fract_y
 _atom_site_fract_z
 _atom_site_occupancy
  Cs  Cs0  1  0.38445796  0.83866692  0.39755526  1
  Cs  Cs1  1  0.61554204  0.16133308  0.60244474  1
  Cs  Cs2  1  0.11554204  0.83866692  0.89755526  1
  Cs  Cs3  1  0.88445796  0.16133308  0.10244474  1
  Cs  Cs4  1  0.51411634  0.40639536  0.82949267  1
  Cs  Cs5  1  0.48588366  0.59360464  0.17050733  1
  Cs  Cs6  1  0.98588366  0.40639536  0.32949267  1
  Cs  Cs7  1  0.01411634  0.59360464  0.67050733  1
  Hg  Hg0  1  0.27908153  0.17924700  0.07468452  1
  Hg  Hg1  1  0.72091847  0.82075300  0.92531548  1
  Hg  Hg2  1  0.22091847  0.17924700  0.57468452  1
  Hg  Hg3  1  0.77908153  0.82075300  0.42531548  1
  Br  Br0  1  0.52990657  0.15269706  0.08914117  1
  Br  Br1  1  0.47009343  0.84730294  0.91085883  1
  Br  Br2  1  0.97009343  0.15269706  0.58914117  1
  Br  Br3  1  0.02990657  0.84730294  0.41085883  1
  Br  Br4  1  0.17165503  0.30200458  0.90609917  1
  Br  Br5  1  0.82834497  0.69799542  0.09390083  1
  Br  Br6  1  0.32834497  0.30200458  0.40609917  1
  Br  Br7  1  0.67165503  0.69799542  0.59390083  1
  Br  Br8  1  0.17551785  0.40827902  0.13341388  1
  Br  Br9  1  0.82448215  0.59172098  0.86658612  1
  Br  Br10  1  0.32448215  0.40827902  0.63341388  1
  Br  Br11  1  0.67551785  0.59172098  0.36658612  1
  Br  Br12  1  0.18749999  0.82850522  0.18913440  1
  Br  Br13  1  0.81250001  0.17149478  0.81086560  1
  Br  Br14  1  0.31250001  0.82850522  0.68913440  1
  Br  Br15  1  0.68749999  0.17149478  0.31086560  1
loop_
_geom_bond_atom_site_label_1
_geom_bond_atom_site_label_2
_geom_bond_distance
_geom_bond_site_symmetry_2
Br0 Hg0 2.616706 1_555
Br0 Cs4 3.671375 1_554
Br0 Cs3 3.693877 1_555
Br0 Cs5 3.981733 1_545
Br0 Cs5 4.312364 1_555
Br1 Hg1 2.616706 1_555
Br1 Cs5 3.671375 1_556
Br1 Cs2 3.693877 1_555
Br1 Cs4 3.981733 1_565
Br1 Cs4 4.312364 1_555
Br2 Hg2 2.616706 1_655
Br2 Cs6 3.671375 1_555
Br2 Cs1 3.693877 1_555
Br2 Cs7 3.981733 1_645
Br2 Cs7 4.312364 1_655
Br3 Hg3 2.616706 1_455
Br3 Cs7 3.671375 1_555
Br3 Cs0 3.693877 1_555
Br3 Cs6 3.981733 1_465
Br3 Cs6 4.312364 1_455
Br4 Hg0 2.654056 1_556
Br4 Cs4 3.726880 1_555
Br4 Cs7 3.736216 1_555
Br4 Cs2 3.782196 1_545
Br4 Cs3 4.097482 1_456
Br4 Cs2 4.223031 1_555
Br5 Hg1 2.654056 1_554
Br5 Cs5 3.726880 1_555
Br5 Cs6 3.736216 1_555
Br5 Cs3 3.782196 1_565
Br5 Cs2 4.097482 1_654
Br5 Cs3 4.223031 1_555
Br6 Hg2 2.654056 1_555
Br6 Cs6 3.726880 1_455
Br6 Cs5 3.736216 1_555
Br6 Cs0 3.782196 1_545
Br6 Cs1 4.097482 1_555
Br6 Cs0 4.223031 1_555
Br7 Hg3 2.654056 1_555
Br7 Cs7 3.726880 1_655
Br7 Cs4 3.736216 1_555
Br7 Cs1 3.782196 1_565
Br7 Cs0 4.097482 1_555
Br7 Cs1 4.223031 1_555
Br8 Hg0 2.650523 1_555
Br8 Cs5 3.711477 1_555
Br8 Cs2 3.726434 1_554
Br8 Cs6 3.727665 1_455
Br8 Cs3 3.765270 1_455
Br9 Hg1 2.650523 1_555
Br9 Cs4 3.711477 1_555
Br9 Cs3 3.726434 1_556
Br9 Cs7 3.727665 1_655
Br9 Cs2 3.765270 1_655
Br10 Hg2 2.650523 1_555
Br10 Cs7 3.711477 1_555
Br10 Cs0 3.726434 1_555
Br10 Cs4 3.727665 1_555
Br10 Cs1 3.765270 1_555
Br11 Hg3 2.650523 1_555
Br11 Cs6 3.711477 1_555
Br11 Cs1 3.726434 1_555
Br11 Cs5 3.727665 1_555
Br11 Cs0 3.765270 1_555
Br12 Hg0 2.652228 1_565
Br12 Cs6 3.649622 1_455
Br12 Cs5 3.702932 1_555
Br12 Cs3 3.902418 1_465
Br12 Cs0 3.977896 1_555
Br13 Hg1 2.652228 1_545
Br13 Cs7 3.649622 1_655
Br13 Cs4 3.702932 1_555
Br13 Cs2 3.902418 1_645
Br13 Cs1 3.977896 1_555
Br14 Hg2 2.652228 1_565
Br14 Cs4 3.649622 1_555
Br14 Cs7 3.702932 1_555
Br14 Cs1 3.902418 1_565
Br14 Cs2 3.977896 1_555
Br15 Hg3 2.652228 1_545
Br15 Cs5 3.649622 1_555
Br15 Cs6 3.702932 1_555
Br15 Cs0 3.902418 1_545
Br15 Cs3 3.977896 1_555
