# generated using pymatgen
data_GdTiFe9Si2
_symmetry_space_group_name_H-M   'P 1'
_cell_length_a   4.80649200
_cell_length_b   6.30130386
_cell_length_c   6.38260672
_cell_angle_alpha   98.35505843
_cell_angle_beta   112.11894745
_cell_angle_gamma   67.58026252
_symmetry_Int_Tables_number   1
_chemical_formula_structural   GdTiFe9Si2
_chemical_formula_sum   'Gd1 Ti1 Fe9 Si2'
_cell_volume   165.54772525
_cell_formula_units_Z   1
loop_
 _symmetry_equiv_pos_site_id
 _symmetry_equiv_pos_as_xyz
  1  'x, y, z'
loop_
 _atom_site_type_symbol
 _atom_site_label
 _atom_site_symmetry_multiplicity
 _atom_site_fract_x
 _atom_site_fract_y
 _atom_site_fract_z
 _atom_site_occupancy
  Gd  Gd0  1  0.00086600  0.00328000  0.00501300  1
  Ti  Ti0  1  0.99636600  0.63067100  0.62340200  1
  Fe  Fe0  1  0.71233600  0.78738300  0.21205500  1
  Fe  Fe1  1  0.28307500  0.21761300  0.78376400  1
  Fe  Fe2  1  0.50064400  0.77432100  0.77560800  1
  Fe  Fe3  1  0.50182200  0.22521000  0.22885500  1
  Fe  Fe4  1  0.49687800  0.00404900  0.50143700  1
  Fe  Fe5  1  0.00051000  0.00404900  0.50143700  1
  Fe  Fe6  1  0.64408400  0.36150500  0.64967300  1
  Fe  Fe7  1  0.35831700  0.64003800  0.35667300  1
  Fe  Fe8  1  0.99558200  0.35747200  0.34863500  1
  Si  Si0  1  0.50605200  0.49720400  0.00672400  1
  Si  Si1  1  0.00346800  0.49720400  0.00672400  1
loop_
_geom_bond_atom_site_label_1
_geom_bond_atom_site_label_2
_geom_bond_distance
_geom_bond_site_symmetry_2
Gd0 Si0 3.115572 1_455
Gd0 Si1 3.115574 1_555
Gd0 Ti0 3.127750 1_444
Gd0 Si1 3.185781 1_545
Gd0 Si0 3.185783 1_545
Fe0 Si1 2.398331 1_655
Fe0 Si0 2.398331 1_555
Fe0 Fe5 2.444793 1_665
Fe0 Fe4 2.444793 1_565
Fe0 Fe3 2.552087 1_565
Fe0 Fe2 2.581626 1_554
Fe0 Ti0 2.599601 1_555
Fe0 Fe8 2.632763 1_555
Fe0 Fe7 2.691907 1_655
Fe0 Fe7 2.691912 1_555
Fe0 Gd0 2.976906 1_665
Fe0 Gd0 2.976909 1_565
Fe1 Fe5 2.397724 1_555
Fe1 Fe4 2.397727 1_555
Fe1 Si1 2.416761 1_556
Fe1 Si0 2.416764 1_556
Fe1 Fe2 2.582538 1_545
Fe1 Ti0 2.587920 1_455
Fe1 Fe3 2.632051 1_556
Fe1 Fe6 2.666343 1_455
Fe1 Fe6 2.666348 1_555
Fe1 Fe8 2.700308 1_455
Fe1 Gd0 3.008696 1_656
Fe1 Gd0 3.008697 1_556
Fe2 Fe4 2.418761 1_565
Fe2 Fe5 2.418763 1_565
Fe2 Si1 2.431242 1_656
Fe2 Si0 2.431245 1_556
Fe2 Fe6 2.515901 1_555
Fe2 Fe7 2.596191 1_555
Fe2 Ti0 2.698653 1_455
Fe2 Ti0 2.698653 1_555
Fe2 Gd0 3.063828 1_666
Fe2 Gd0 3.063836 1_566
Fe3 Si1 2.387982 1_555
Fe3 Si0 2.387985 1_555
Fe3 Fe4 2.393856 1_555
Fe3 Fe5 2.393858 1_655
Fe3 Fe7 2.530380 1_555
Fe3 Fe6 2.610328 1_555
Fe3 Fe8 2.620795 1_455
Fe3 Fe8 2.620804 1_555
Fe3 Gd0 3.031792 1_555
Fe3 Gd0 3.031792 1_655
Fe4 Fe5 2.385789 1_555
Fe4 Fe5 2.420703 1_655
Fe4 Fe8 2.546551 1_455
Fe4 Fe6 2.561534 1_555
Fe4 Fe7 2.577682 1_545
Fe4 Ti0 2.592606 1_545
Fe4 Gd0 3.168424 1_555
Fe4 Gd0 3.214188 1_656
Fe5 Fe8 2.546554 1_455
Fe5 Fe6 2.561533 1_455
Fe5 Fe7 2.577680 1_545
Fe5 Ti0 2.592604 1_445
Fe5 Gd0 3.168422 1_555
Fe5 Gd0 3.214191 1_556
Fe6 Fe7 2.375923 1_555
Fe6 Si1 2.550361 1_656
Fe6 Si0 2.550361 1_556
Fe6 Ti0 2.873844 1_455
Fe6 Ti0 2.873848 1_555
Fe6 Gd0 2.964144 1_656
Fe7 Si1 2.534927 1_555
Fe7 Si0 2.534930 1_555
Fe7 Ti0 2.875107 1_455
Fe7 Ti0 2.875115 1_555
Fe7 Fe8 2.913190 1_455
Fe7 Fe8 2.913197 1_555
Fe7 Gd0 2.969523 1_565
Fe8 Ti0 2.271952 1_555
Fe8 Si1 2.487012 1_655
Fe8 Si0 2.487013 1_555
Fe8 Gd0 2.892785 1_655
Si0 Si1 2.390826 1_655
Si0 Si1 2.415666 1_555
Si0 Ti0 2.684672 1_454
Si1 Ti0 2.684674 1_454
