# generated using pymatgen
data_Ho2MnNiO6
_symmetry_space_group_name_H-M   'P 1'
_cell_length_a   5.60254000
_cell_length_b   5.25963000
_cell_length_c   9.16610052
_cell_angle_alpha   55.73231425
_cell_angle_beta   90.00000000
_cell_angle_gamma   90.00000000
_symmetry_Int_Tables_number   1
_chemical_formula_structural   Ho2MnNiO6
_chemical_formula_sum   'Ho4 Mn2 Ni2 O12'
_cell_volume   223.21505612
_cell_formula_units_Z   2
loop_
 _symmetry_equiv_pos_site_id
 _symmetry_equiv_pos_as_xyz
  1  'x, y, z'
loop_
 _atom_site_type_symbol
 _atom_site_label
 _atom_site_symmetry_multiplicity
 _atom_site_fract_x
 _atom_site_fract_y
 _atom_site_fract_z
 _atom_site_occupancy
  Ho  Ho0  1  0.07068200  0.72563800  0.75303900  1
  Ho  Ho1  1  0.92931800  0.27436200  0.24696100  1
  Ho  Ho2  1  0.57068200  0.27436200  0.74696100  1
  Ho  Ho3  1  0.42931800  0.72563800  0.25303900  1
  Mn  Mn0  1  0.50000000  0.00000000  0.50000000  1
  Mn  Mn1  1  0.00000000  0.00000000  0.00000000  1
  Ni  Ni0  1  0.50000000  0.50000000  0.00000000  1
  Ni  Ni1  1  0.00000000  0.50000000  0.50000000  1
  O  O0  1  0.45842100  0.87031700  0.74230400  1
  O  O1  1  0.54157900  0.12968300  0.25769600  1
  O  O2  1  0.95842100  0.12968300  0.75769600  1
  O  O3  1  0.04157900  0.87031700  0.24230400  1
  O  O4  1  0.79089800  0.75307300  0.56158800  1
  O  O5  1  0.20910200  0.24692700  0.43841200  1
  O  O6  1  0.29089800  0.24692700  0.93841200  1
  O  O7  1  0.70910200  0.75307300  0.06158800  1
  O  O8  1  0.31153100  0.64945600  0.55187400  1
  O  O9  1  0.68846900  0.35054400  0.44812600  1
  O  O10  1  0.81153100  0.35054400  0.94812600  1
  O  O11  1  0.18846900  0.64945600  0.05187400  1
loop_
_geom_bond_atom_site_label_1
_geom_bond_atom_site_label_2
_geom_bond_distance
_geom_bond_site_symmetry_2
Ho0 O2 2.239580 1_465
Ho0 O0 2.285477 1_555
Ho0 O10 2.285833 1_455
Ho0 O4 2.296139 1_455
Ho0 O6 2.435379 1_555
Ho0 O8 2.492652 1_555
Ho0 O11 2.619734 1_556
Ho0 O5 2.744342 1_565
Ho1 O3 2.239580 1_645
Ho1 O1 2.285477 1_555
Ho1 O11 2.285833 1_655
Ho1 O5 2.296139 1_655
Ho1 O7 2.435379 1_555
Ho1 O9 2.492652 1_555
Ho1 O10 2.619734 1_554
Ho1 O4 2.744342 1_545
Ho2 O0 2.239580 1_545
Ho2 O2 2.285477 1_555
Ho2 O8 2.285833 1_555
Ho2 O6 2.296139 1_555
Ho2 O4 2.435379 1_555
Ho2 O10 2.492652 1_555
Ho2 O9 2.619734 1_555
Ho2 O7 2.744342 1_546
Ho3 O1 2.239580 1_565
Ho3 O3 2.285477 1_555
Ho3 O9 2.285833 1_555
Ho3 O7 2.296139 1_555
Ho3 O5 2.435379 1_555
Ho3 O11 2.492652 1_555
Ho3 O8 2.619734 1_555
Ho3 O6 2.744342 1_564
Mn0 O1 1.935539 1_555
Mn0 O0 1.935539 1_545
Mn0 O9 1.937302 1_555
Mn0 O8 1.937302 1_545
Mn0 O4 1.958553 1_545
Mn0 O5 1.958553 1_555
Mn1 O3 1.935539 1_545
Mn1 O2 1.935539 1_454
Mn1 O10 1.937302 1_454
Mn1 O11 1.937302 1_545
Mn1 O6 1.958553 1_554
Mn1 O7 1.958553 1_445
Ni0 O1 2.060673 1_555
Ni0 O0 2.060673 1_554
Ni0 O7 2.075822 1_555
Ni0 O6 2.075822 1_554
Ni0 O11 2.076347 1_555
Ni0 O10 2.076347 1_554
Ni1 O2 2.060673 1_455
Ni1 O3 2.060673 1_555
Ni1 O4 2.075822 1_455
Ni1 O5 2.075822 1_555
Ni1 O8 2.076347 1_555
Ni1 O9 2.076347 1_455
