# generated using pymatgen
data_Ba2Tl2Zn2Sn3O10
_symmetry_space_group_name_H-M   'P 1'
_cell_length_a   4.11919600
_cell_length_b   4.31268614
_cell_length_c   19.09348637
_cell_angle_alpha   86.90271123
_cell_angle_beta   84.17281706
_cell_angle_gamma   89.07489710
_symmetry_Int_Tables_number   1
_chemical_formula_structural   Ba2Tl2Zn2Sn3O10
_chemical_formula_sum   'Ba2 Tl2 Zn2 Sn3 O10'
_cell_volume   336.92691268
_cell_formula_units_Z   1
loop_
 _symmetry_equiv_pos_site_id
 _symmetry_equiv_pos_as_xyz
  1  'x, y, z'
loop_
 _atom_site_type_symbol
 _atom_site_label
 _atom_site_symmetry_multiplicity
 _atom_site_fract_x
 _atom_site_fract_y
 _atom_site_fract_z
 _atom_site_occupancy
  Ba  Ba0  1  0.21945500  0.15567400  0.69932600  1
  Ba  Ba1  1  0.91382700  0.81883600  0.30402500  1
  Tl  Tl0  1  0.88335600  0.71980600  0.54675600  1
  Tl  Tl1  1  0.38322600  0.26721100  0.44248300  1
  Zn  Zn0  1  0.94820300  0.93499500  0.09160300  1
  Zn  Zn1  1  0.98117100  0.02940000  0.90621800  1
  Sn  Sn0  1  0.46674700  0.33524900  0.17955100  1
  Sn  Sn1  1  0.64081900  0.62540500  0.82190800  1
  Sn  Sn2  1  0.58273400  0.57482600  0.98309300  1
  O  O0  1  0.51569400  0.81952800  0.15629700  1
  O  O1  1  0.41034300  0.32241800  0.28582000  1
  O  O2  1  0.98056500  0.25598300  0.16222200  1
  O  O3  1  0.74248400  0.77557800  0.43237200  1
  O  O4  1  0.10761400  0.62012600  0.02737900  1
  O  O5  1  0.13767000  0.67326400  0.84699700  1
  O  O6  1  0.65864100  0.64759600  0.71739900  1
  O  O7  1  0.69672900  0.13796300  0.82825500  1
  O  O8  1  0.99625000  0.20650500  0.57914100  1
  O  O9  1  0.72434800  0.09759800  0.99819200  1
loop_
_geom_bond_atom_site_label_1
_geom_bond_atom_site_label_2
_geom_bond_distance
_geom_bond_site_symmetry_2
Ba0 O8 2.554766 1_455
Ba0 O6 2.847845 1_545
Ba0 O6 2.867488 1_555
Ba0 O7 3.100131 1_455
Ba0 O6 3.116958 1_455
Ba0 O6 3.190110 1_445
Ba0 O7 3.299769 1_555
Ba0 O5 3.404062 1_545
Ba1 O3 2.478304 1_555
Ba1 O1 2.946516 1_655
Ba1 O1 2.989654 1_665
Ba1 O1 3.009672 1_565
Ba1 O1 3.061976 1_555
O0 Zn0 2.112618 1_555
O0 Sn0 2.120144 1_555
O0 Sn0 2.293176 1_565
O1 Sn0 2.016588 1_555
O2 Zn0 1.999090 1_545
O2 Sn0 2.099033 1_655
O2 Sn0 2.133692 1_555
O3 Tl0 2.315265 1_555
O3 Tl1 2.570533 1_565
O3 Tl1 2.652356 1_555
O4 Zn0 1.940752 1_455
O4 Sn2 2.062261 1_554
O4 Sn2 2.414640 1_454
O5 Zn1 2.015148 1_465
O5 Sn1 2.088753 1_555
O5 Sn1 2.164292 1_455
O6 Sn1 1.986499 1_555
O7 Zn1 2.017187 1_555
O7 Sn1 2.109362 1_555
O7 Sn1 2.237208 1_545
O8 Tl0 2.287899 1_545
O8 Tl0 2.318690 1_555
O9 Zn1 1.989497 1_555
O9 Sn2 2.142562 1_555
O9 Zn0 2.168171 1_546
O9 Sn2 2.377656 1_545
