# generated using pymatgen
data_YW2O9
_symmetry_space_group_name_H-M   'P 1'
_cell_length_a   6.04140836
_cell_length_b   6.81775312
_cell_length_c   8.66390700
_cell_angle_alpha   90.00000000
_cell_angle_beta   90.00000000
_cell_angle_gamma   102.19398317
_symmetry_Int_Tables_number   1
_chemical_formula_structural   YW2O9
_chemical_formula_sum   'Y2 W4 O18'
_cell_volume   348.80483798
_cell_formula_units_Z   2
loop_
 _symmetry_equiv_pos_site_id
 _symmetry_equiv_pos_as_xyz
  1  'x, y, z'
loop_
 _atom_site_type_symbol
 _atom_site_label
 _atom_site_symmetry_multiplicity
 _atom_site_fract_x
 _atom_site_fract_y
 _atom_site_fract_z
 _atom_site_occupancy
  Y  Y0  1  0.30559000  0.74538500  0.25000000  1
  Y  Y1  1  0.69441000  0.25461500  0.75000000  1
  W  W0  1  0.18116600  0.18944700  0.43509000  1
  W  W1  1  0.81883400  0.81055300  0.93509000  1
  W  W2  1  0.81883400  0.81055300  0.56491000  1
  W  W3  1  0.18116600  0.18944700  0.06491000  1
  O  O0  1  0.04164400  0.82595300  0.75000000  1
  O  O1  1  0.95835600  0.17404700  0.25000000  1
  O  O2  1  0.35459300  0.12429300  0.25000000  1
  O  O3  1  0.64540700  0.87570700  0.75000000  1
  O  O4  1  0.22437100  0.46553800  0.41377700  1
  O  O5  1  0.77562900  0.53446200  0.91377700  1
  O  O6  1  0.77562900  0.53446200  0.58622300  1
  O  O7  1  0.22437100  0.46553800  0.08622300  1
  O  O8  1  0.07606000  0.87016500  0.42765300  1
  O  O9  1  0.92394000  0.12983500  0.92765300  1
  O  O10  1  0.92394000  0.12983500  0.57234700  1
  O  O11  1  0.07606000  0.87016500  0.07234700  1
  O  O12  1  0.40910900  0.19089600  0.57098800  1
  O  O13  1  0.59089100  0.80910400  0.07098800  1
  O  O14  1  0.59089100  0.80910400  0.42901200  1
  O  O15  1  0.40910900  0.19089600  0.92901200  1
  O  O16  1  0.94982100  0.48325800  0.25000000  1
  O  O17  1  0.05017900  0.51674200  0.75000000  1
loop_
_geom_bond_atom_site_label_1
_geom_bond_atom_site_label_2
_geom_bond_distance
_geom_bond_site_symmetry_2
O0 W2 2.082020 1_455
O0 W1 2.082020 1_455
O1 W3 2.082020 1_655
O1 W0 2.082020 1_655
O2 W0 2.015747 1_555
O2 W3 2.015747 1_555
O2 Y0 2.537324 1_545
O3 W1 2.015747 1_555
O3 W2 2.015747 1_555
O3 Y1 2.537324 1_565
O4 W0 1.854131 1_555
O4 Y0 2.344970 1_555
O5 W1 1.854131 1_555
O5 Y1 2.344970 1_555
O6 W2 1.854131 1_555
O6 Y1 2.344970 1_555
O7 W3 1.854131 1_555
O7 Y0 2.344970 1_555
O8 W2 1.930664 1_455
O8 W0 2.135847 1_565
O8 Y0 2.348192 1_555
O9 W3 1.930664 1_656
O9 W1 2.135847 1_545
O9 Y1 2.348192 1_555
O10 W0 1.930664 1_655
O10 W2 2.135847 1_545
O10 Y1 2.348192 1_555
O11 W1 1.930664 1_454
O11 W3 2.135847 1_565
O11 Y0 2.348192 1_555
O12 W0 1.810258 1_555
O12 Y1 2.291003 1_555
O13 W1 1.810258 1_554
O13 Y0 2.291003 1_555
O14 W2 1.810258 1_555
O14 Y0 2.291003 1_555
O15 W3 1.810258 1_556
O15 Y1 2.291003 1_555
O16 Y0 2.488134 1_655
O17 Y1 2.488134 1_455
