# generated using pymatgen
data_Tm6Ga17Pt5
_symmetry_space_group_name_H-M   'P 1'
_cell_length_a   4.23993600
_cell_length_b   8.11821657
_cell_length_c   16.13292391
_cell_angle_alpha   103.62046859
_cell_angle_beta   97.55086515
_cell_angle_gamma   105.13754774
_symmetry_Int_Tables_number   1
_chemical_formula_structural   Tm6Ga17Pt5
_chemical_formula_sum   'Tm6 Ga17 Pt5'
_cell_volume   509.83182348
_cell_formula_units_Z   1
loop_
 _symmetry_equiv_pos_site_id
 _symmetry_equiv_pos_as_xyz
  1  'x, y, z'
loop_
 _atom_site_type_symbol
 _atom_site_label
 _atom_site_symmetry_multiplicity
 _atom_site_fract_x
 _atom_site_fract_y
 _atom_site_fract_z
 _atom_site_occupancy
  Tm  Tm0  1  0.49689500  0.24692900  0.74686200  1
  Tm  Tm1  1  0.50310500  0.75307100  0.25313800  1
  Tm  Tm2  1  0.80638500  0.70796200  0.90480900  1
  Tm  Tm3  1  0.82027400  0.23144400  0.40910400  1
  Tm  Tm4  1  0.17972600  0.76855600  0.59089600  1
  Tm  Tm5  1  0.19361500  0.29203800  0.09519100  1
  Ga  Ga0  1  0.63825800  0.31653900  0.95997800  1
  Ga  Ga1  1  0.63145900  0.80638300  0.45653500  1
  Ga  Ga2  1  0.36854100  0.19361700  0.54346500  1
  Ga  Ga3  1  0.36174200  0.68346100  0.04002200  1
  Ga  Ga4  1  0.63180500  0.58837000  0.67523900  1
  Ga  Ga5  1  0.63701800  0.09714400  0.17689200  1
  Ga  Ga6  1  0.36298200  0.90285600  0.82310800  1
  Ga  Ga7  1  0.36819500  0.41163000  0.32476100  1
  Ga  Ga8  1  0.83345100  0.06307200  0.60383000  1
  Ga  Ga9  1  0.84576900  0.58328400  0.10825300  1
  Ga  Ga10  1  0.15423100  0.41671600  0.89174700  1
  Ga  Ga11  1  0.16654900  0.93692800  0.39617000  1
  Ga  Ga12  1  0.83843500  0.94209900  0.73477100  1
  Ga  Ga13  1  0.83944900  0.44658500  0.23231300  1
  Ga  Ga14  1  0.16055100  0.55341500  0.76768700  1
  Ga  Ga15  1  0.16156500  0.05790100  0.26522900  1
  Ga  Ga16  1  0.50000000  0.00000000  0.00000000  1
  Pt  Pt0  1  0.99842100  0.39312900  0.60371400  1
  Pt  Pt1  1  0.00178900  0.90657000  0.09700800  1
  Pt  Pt2  1  0.99821100  0.09343000  0.90299200  1
  Pt  Pt3  1  0.00157900  0.60687100  0.39628600  1
  Pt  Pt4  1  0.50000000  0.50000000  0.50000000  1
loop_
_geom_bond_atom_site_label_1
_geom_bond_atom_site_label_2
_geom_bond_distance
_geom_bond_site_symmetry_2
Ga0 Ga10 2.604683 1_655
Ga0 Ga10 2.604683 1_555
Ga0 Ga9 2.682860 1_556
Ga0 Ga16 2.730975 1_556
Ga0 Pt2 2.735549 1_455
Ga0 Pt2 2.735552 1_555
Ga0 Tm5 3.072702 1_556
Ga0 Tm5 3.072708 1_656
Ga0 Tm0 3.296381 1_555
Ga0 Tm2 3.422507 1_555
Ga1 Ga8 2.631265 1_565
Ga1 Pt3 2.649088 1_555
Ga1 Pt3 2.649092 1_655
Ga1 Ga11 2.651376 1_655
Ga1 Ga11 2.651376 1_555
Ga1 Pt4 2.681243 1_555
Ga1 Tm4 3.091737 1_655
Ga1 Tm4 3.091737 1_555
Ga1 Tm1 3.160661 1_555
Ga2 Pt0 2.649088 1_555
Ga2 Pt0 2.649092 1_455
Ga2 Ga8 2.651376 1_555
Ga2 Ga8 2.651376 1_455
Ga2 Pt4 2.681243 1_555
Ga2 Tm3 3.091737 1_455
Ga2 Tm3 3.091737 1_555
Ga2 Tm0 3.160661 1_555
Ga3 Ga9 2.604683 1_555
Ga3 Ga9 2.604683 1_455
Ga3 Pt1 2.735549 1_655
Ga3 Pt1 2.735552 1_555
Ga3 Tm2 3.072702 1_554
Ga3 Tm2 3.072708 1_454
Ga3 Tm1 3.296381 1_555
Ga3 Tm5 3.422507 1_555
Ga4 Pt0 2.675215 1_555
Ga4 Pt0 2.675221 1_455
Ga4 Pt4 2.690674 1_555
Ga4 Tm4 3.062951 1_655
Ga4 Tm4 3.062954 1_555
Ga4 Tm0 3.193719 1_555
Ga5 Pt1 2.698322 1_545
Ga5 Pt1 2.698322 1_645
Ga5 Tm5 3.107978 1_555
Ga5 Tm5 3.107981 1_655
Ga5 Tm1 3.257488 1_545
Ga6 Pt2 2.698322 1_465
Ga6 Pt2 2.698322 1_565
Ga6 Tm2 3.107978 1_555
Ga6 Tm2 3.107981 1_455
Ga6 Tm0 3.257488 1_565
Ga7 Pt3 2.675215 1_555
Ga7 Pt3 2.675221 1_655
Ga7 Pt4 2.690674 1_555
Ga7 Tm3 3.062951 1_455
Ga7 Tm3 3.062954 1_555
Ga7 Tm1 3.193719 1_555
Ga8 Pt0 2.587025 1_555
Ga8 Tm4 3.097519 1_545
Ga8 Tm4 3.097519 1_645
Ga8 Tm0 3.153470 1_655
Ga8 Tm0 3.153473 1_555
Ga9 Pt1 2.589900 1_655
Ga9 Tm5 3.078669 1_655
Ga9 Tm5 3.078669 1_555
Ga9 Tm1 3.145674 1_555
Ga9 Tm1 3.145674 1_655
Ga10 Ga14 2.506538 1_555
Ga10 Pt2 2.589900 1_455
Ga10 Ga3 2.682860 1_556
Ga10 Tm2 3.078669 1_455
Ga10 Tm2 3.078669 1_555
Ga10 Tm0 3.145674 1_455
Ga10 Tm0 3.145674 1_555
Ga11 Ga15 2.530541 1_565
Ga11 Pt3 2.587025 1_555
Ga11 Ga2 2.631265 1_565
Ga11 Tm3 3.097519 1_465
Ga11 Tm3 3.097519 1_565
Ga11 Tm1 3.153470 1_455
Ga11 Tm1 3.153473 1_555
Ga12 Ga8 2.530541 1_565
Ga12 Ga6 2.613383 1_655
Ga12 Ga6 2.613383 1_555
Ga12 Pt2 2.616355 1_565
Ga12 Ga4 2.665008 1_555
Ga12 Tm4 3.142258 1_555
Ga12 Tm4 3.142258 1_655
Ga12 Tm0 3.158730 1_665
Ga12 Tm0 3.158733 1_565
Ga13 Ga9 2.506538 1_555
Ga13 Pt3 2.568540 1_655
Ga13 Ga5 2.629790 1_555
Ga13 Ga7 2.642670 1_655
Ga13 Ga7 2.642673 1_555
Ga13 Tm5 3.045093 1_555
Ga13 Tm5 3.045096 1_655
Ga13 Tm1 3.150029 1_555
Ga13 Tm1 3.150032 1_655
Ga14 Pt0 2.568540 1_455
Ga14 Ga6 2.629790 1_555
Ga14 Ga4 2.642670 1_455
Ga14 Ga4 2.642673 1_555
Ga14 Tm2 3.045093 1_555
Ga14 Tm2 3.045096 1_455
Ga14 Tm0 3.150029 1_555
Ga14 Tm0 3.150032 1_455
Ga15 Ga5 2.613383 1_555
Ga15 Ga5 2.613383 1_455
Ga15 Pt1 2.616355 1_545
Ga15 Ga7 2.665008 1_555
Ga15 Tm3 3.142258 1_455
Ga15 Tm3 3.142258 1_555
Ga15 Tm1 3.158730 1_445
Ga15 Tm1 3.158733 1_545
Ga16 Ga5 2.714508 1_555
Ga16 Ga6 2.714508 1_544
Ga16 Ga3 2.730975 1_545
Ga16 Pt1 2.842160 1_645
Ga16 Pt1 2.842160 1_545
Ga16 Pt2 2.842160 1_454
Ga16 Pt2 2.842160 1_554
Ga16 Tm5 3.175657 1_555
Ga16 Tm2 3.175657 1_544
Ga16 Tm5 3.175660 1_655
Ga16 Tm2 3.175660 1_444
Pt0 Pt4 2.954706 1_555
Pt0 Pt4 2.954709 1_655
Pt0 Tm4 3.006284 1_655
Pt0 Tm3 3.011430 1_555
Pt1 Tm2 3.028720 1_454
Pt1 Tm5 3.029052 1_565
Pt2 Tm5 3.028720 1_656
Pt2 Tm2 3.029052 1_545
Pt3 Pt4 2.954706 1_555
Pt3 Pt4 2.954709 1_455
Pt3 Tm3 3.006284 1_455
Pt3 Tm4 3.011430 1_555
Pt4 Tm4 3.051468 1_555
Pt4 Tm4 3.051468 1_655
Pt4 Tm3 3.051468 1_455
Pt4 Tm3 3.051468 1_555
