# generated using pymatgen
data_TbNi4B
_symmetry_space_group_name_H-M   'P 1'
_cell_length_a   4.94118368
_cell_length_b   4.94118330
_cell_length_c   6.88882466
_cell_angle_alpha   90.00000000
_cell_angle_beta   90.00000000
_cell_angle_gamma   119.99999570
_symmetry_Int_Tables_number   1
_chemical_formula_structural   TbNi4B
_chemical_formula_sum   'Tb2 Ni8 B2'
_cell_volume   145.65914114
_cell_formula_units_Z   2
loop_
 _symmetry_equiv_pos_site_id
 _symmetry_equiv_pos_as_xyz
  1  'x, y, z'
loop_
 _atom_site_type_symbol
 _atom_site_label
 _atom_site_symmetry_multiplicity
 _atom_site_fract_x
 _atom_site_fract_y
 _atom_site_fract_z
 _atom_site_occupancy
  Tb  Tb0  1  -0.00000000  0.00000000  0.50000000  1
  Tb  Tb1  1  -0.00000000  0.00000000  -0.00000000  1
  Ni  Ni0  1  0.33333300  0.66666700  -0.00000000  1
  Ni  Ni1  1  0.66666700  0.33333300  -0.00000000  1
  Ni  Ni2  1  0.50000000  -0.00000000  0.29143264  1
  Ni  Ni3  1  0.50000000  0.50000000  0.29143264  1
  Ni  Ni4  1  -0.00000000  0.50000000  0.29143264  1
  Ni  Ni5  1  0.50000000  0.00000000  0.70856736  1
  Ni  Ni6  1  0.50000000  0.50000000  0.70856736  1
  Ni  Ni7  1  -0.00000000  0.50000000  0.70856736  1
  B  B0  1  0.66666700  0.33333300  0.50000000  1
  B  B1  1  0.33333300  0.66666700  0.50000000  1
loop_
_geom_bond_atom_site_label_1
_geom_bond_atom_site_label_2
_geom_bond_distance
_geom_bond_site_symmetry_2
Ni0 Ni5 2.462758 1_564
Ni0 Ni2 2.462758 1_565
Ni0 Ni7 2.462758 1_554
Ni0 Ni4 2.462758 1_555
Ni0 Ni3 2.462760 1_555
Ni0 Ni6 2.462760 1_554
Ni0 Tb1 2.852791 1_565
Ni0 Tb1 2.852795 1_555
Ni0 Tb1 2.852795 1_665
Ni1 Ni5 2.462758 1_554
Ni1 Ni2 2.462758 1_555
Ni1 Ni7 2.462758 1_654
Ni1 Ni4 2.462758 1_655
Ni1 Ni3 2.462760 1_555
Ni1 Ni6 2.462760 1_554
Ni1 Tb1 2.852791 1_655
Ni1 Tb1 2.852795 1_665
Ni1 Tb1 2.852795 1_555
Ni2 Tb0 2.858001 1_555
Ni2 Tb0 2.858001 1_655
Ni3 Tb0 2.858001 1_555
Ni3 Tb0 2.858001 1_665
Ni4 Tb0 2.858001 1_565
Ni4 Tb0 2.858001 1_555
Ni5 Tb0 2.858001 1_555
Ni5 Tb0 2.858001 1_655
Ni6 Tb0 2.858001 1_555
Ni6 Tb0 2.858001 1_665
Ni7 Tb0 2.858001 1_565
Ni7 Tb0 2.858001 1_555
B0 Ni5 2.024587 1_555
B0 Ni2 2.024587 1_555
B0 Ni7 2.024587 1_655
B0 Ni4 2.024587 1_655
B0 Ni3 2.024590 1_555
B0 Ni6 2.024590 1_555
B0 Tb0 2.852791 1_655
B0 Tb0 2.852795 1_665
B0 Tb0 2.852795 1_555
B1 Ni2 2.024587 1_565
B1 Ni5 2.024587 1_565
B1 Ni7 2.024587 1_555
B1 Ni4 2.024587 1_555
B1 Ni3 2.024590 1_555
B1 Ni6 2.024590 1_555
B1 Tb0 2.852791 1_565
B1 Tb0 2.852795 1_555
B1 Tb0 2.852795 1_665
