# generated using pymatgen
data_Na9Al2(H9O7)3
_symmetry_space_group_name_H-M   'P 1'
_cell_length_a   8.88309800
_cell_length_b   11.49514822
_cell_length_c   11.70767215
_cell_angle_alpha   105.42527193
_cell_angle_beta   87.96022665
_cell_angle_gamma   109.20045998
_symmetry_Int_Tables_number   1
_chemical_formula_structural   Na9Al2(H9O7)3
_chemical_formula_sum   'Na18 Al4 H54 O42'
_cell_volume   1086.56139443
_cell_formula_units_Z   2
loop_
 _symmetry_equiv_pos_site_id
 _symmetry_equiv_pos_as_xyz
  1  'x, y, z'
loop_
 _atom_site_type_symbol
 _atom_site_label
 _atom_site_symmetry_multiplicity
 _atom_site_fract_x
 _atom_site_fract_y
 _atom_site_fract_z
 _atom_site_occupancy
  Na  Na0  1  0.41792500  0.96852400  0.36200300  1
  Na  Na1  1  0.58207500  0.03147600  0.63799700  1
  Na  Na2  1  0.60580200  0.77429000  0.37981000  1
  Na  Na3  1  0.39419800  0.22571000  0.62019000  1
  Na  Na4  1  0.20625300  0.67673500  0.36773000  1
  Na  Na5  1  0.79374700  0.32326500  0.63227000  1
  Na  Na6  1  0.42654200  0.49155000  0.37148200  1
  Na  Na7  1  0.57345800  0.50845000  0.62851800  1
  Na  Na8  1  0.40558900  0.96635700  0.86619900  1
  Na  Na9  1  0.59441100  0.03364300  0.13380100  1
  Na  Na10  1  0.59111600  0.77708100  0.88027400  1
  Na  Na11  1  0.40888400  0.22291900  0.11972600  1
  Na  Na12  1  0.20363900  0.67996400  0.86874500  1
  Na  Na13  1  0.79636100  0.32003600  0.13125500  1
  Na  Na14  1  0.40263700  0.48515200  0.88025400  1
  Na  Na15  1  0.59736300  0.51484800  0.11974600  1
  Na  Na16  1  0.00717400  0.59904800  0.62025800  1
  Na  Na17  1  0.99282600  0.40095200  0.37974200  1
  Al  Al0  1  0.41238600  0.72619400  0.12667200  1
  Al  Al1  1  0.58761400  0.27380600  0.87332800  1
  Al  Al2  1  0.40370300  0.72488500  0.62269900  1
  Al  Al3  1  0.59629700  0.27511500  0.37730100  1
  H  H0  1  0.16208200  0.77794100  0.18387300  1
  H  H1  1  0.83791800  0.22205900  0.81612700  1
  H  H2  1  0.68522800  0.87005200  0.20426500  1
  H  H3  1  0.31477200  0.12994800  0.79573500  1
  H  H4  1  0.67127100  0.71694700  0.05487300  1
  H  H5  1  0.32872900  0.28305300  0.94512700  1
  H  H6  1  0.14495100  0.59491100  0.03398500  1
  H  H7  1  0.85504900  0.40508900  0.96601500  1
  H  H8  1  0.32755500  0.54066100  0.19092800  1
  H  H9  1  0.67244500  0.45933900  0.80907200  1
  H  H10  1  0.32674200  0.87455000  0.05696700  1
  H  H11  1  0.67325800  0.12545000  0.94303300  1
  H  H12  1  0.19359400  0.83030400  0.68724400  1
  H  H13  1  0.80640600  0.16969600  0.31275600  1
  H  H14  1  0.67161200  0.87927600  0.71335600  1
  H  H15  1  0.32838800  0.12072400  0.28664400  1
  H  H16  1  0.66981000  0.71803200  0.56527900  1
  H  H17  1  0.33019000  0.28196800  0.43472100  1
  H  H18  1  0.23408200  0.50029400  0.53709900  1
  H  H19  1  0.76591800  0.49970600  0.46290100  1
  H  H20  1  0.29785400  0.54786500  0.71342500  1
  H  H21  1  0.70214600  0.45213500  0.28657500  1
  H  H22  1  0.31580300  0.86657800  0.53731000  1
  H  H23  1  0.68419700  0.13342200  0.46269000  1
  H  H24  1  0.01333000  0.90968000  0.17945200  1
  H  H25  1  0.98667000  0.09032000  0.82054800  1
  H  H26  1  0.00168900  0.94249000  0.70150100  1
  H  H27  1  0.99831100  0.05751000  0.29849900  1
  H  H28  1  0.02856300  0.52624700  0.18800900  1
  H  H29  1  0.97143700  0.47375300  0.81199100  1
  H  H30  1  0.87906900  0.02393400  0.96585400  1
  H  H31  1  0.12093100  0.97606600  0.03414600  1
  H  H32  1  0.85248800  0.93664800  0.05547100  1
  H  H33  1  0.14751200  0.06335200  0.94452900  1
  H  H34  1  0.85411600  0.73436300  0.22829900  1
  H  H35  1  0.14588400  0.26563700  0.77170100  1
  H  H36  1  0.88333900  0.60852300  0.26084300  1
  H  H37  1  0.11666100  0.39147700  0.73915700  1
  H  H38  1  0.95682300  0.79125300  0.55606200  1
  H  H39  1  0.04317700  0.20874700  0.44393800  1
  H  H40  1  0.92597300  0.71835200  0.41698100  1
  H  H41  1  0.07402700  0.28164800  0.58301900  1
  H  H42  1  0.87528700  0.03722400  0.49038800  1
  H  H43  1  0.12471300  0.96277600  0.50961200  1
  H  H44  1  0.83978500  0.94146100  0.57210500  1
  H  H45  1  0.16021500  0.05853900  0.42789500  1
  H  H46  1  0.86248800  0.68734700  0.82847000  1
  H  H47  1  0.13751200  0.31265300  0.17153000  1
  H  H48  1  0.84791700  0.76255100  0.73121600  1
  H  H49  1  0.15208300  0.23744900  0.26878400  1
  H  H50  1  0.87470300  0.59018800  0.97100900  1
  H  H51  1  0.12529700  0.40981200  0.02899100  1
  H  H52  1  0.94392000  0.74596000  0.02840200  1
  H  H53  1  0.05608000  0.25404000  0.97159800  1
  O  O0  1  0.26207800  0.78918000  0.22314800  1
  O  O1  1  0.73792200  0.21082000  0.77685200  1
  O  O2  1  0.57792600  0.86697500  0.22839800  1
  O  O3  1  0.42207400  0.13302500  0.77160200  1
  O  O4  1  0.56185800  0.66687500  0.02505900  1
  O  O5  1  0.43814200  0.33312500  0.97494100  1
  O  O6  1  0.24311600  0.57386900  0.02794300  1
  O  O7  1  0.75688400  0.42613100  0.97205700  1
  O  O8  1  0.41433400  0.61657400  0.23199700  1
  O  O9  1  0.58566600  0.38342600  0.76800300  1
  O  O10  1  0.39875900  0.83085300  0.01677500  1
  O  O11  1  0.60124100  0.16914700  0.98322500  1
  O  O12  1  0.23885900  0.77703200  0.71674600  1
  O  O13  1  0.76114100  0.22296800  0.28325400  1
  O  O14  1  0.56002900  0.86642700  0.73160100  1
  O  O15  1  0.43997100  0.13357300  0.26839900  1
  O  O16  1  0.56302300  0.66813800  0.53003300  1
  O  O17  1  0.43697700  0.33186200  0.46996700  1
  O  O18  1  0.23970200  0.57601700  0.51245900  1
  O  O19  1  0.76029800  0.42398300  0.48754100  1
  O  O20  1  0.39937500  0.61768400  0.73005200  1
  O  O21  1  0.60062500  0.38231600  0.26994800  1
  O  O22  1  0.40054800  0.83005800  0.51548000  1
  O  O23  1  0.59945200  0.16994200  0.48452000  1
  O  O24  1  0.92050000  0.85986800  0.12462100  1
  O  O25  1  0.07950000  0.14013200  0.87537900  1
  O  O26  1  0.90232500  0.87994700  0.66116500  1
  O  O27  1  0.09767500  0.12005300  0.33883500  1
  O  O28  1  0.96473100  0.52446300  0.25727000  1
  O  O29  1  0.03526900  0.47553700  0.74273000  1
  O  O30  1  0.79521900  0.97309700  0.00650900  1
  O  O31  1  0.20478100  0.02690300  0.99349100  1
  O  O32  1  0.80908700  0.67178400  0.27459300  1
  O  O33  1  0.19091300  0.32821600  0.72540700  1
  O  O34  1  0.99385000  0.73160800  0.48792200  1
  O  O35  1  0.00615000  0.26839200  0.51207800  1
  O  O36  1  0.78893800  0.96976500  0.51175900  1
  O  O37  1  0.21106200  0.03023500  0.48824100  1
  O  O38  1  0.80279800  0.68000500  0.75517500  1
  O  O39  1  0.19720200  0.31999500  0.24482500  1
  O  O40  1  0.95351900  0.67094600  0.95991300  1
  O  O41  1  0.04648100  0.32905400  0.04008700  1
loop_
_geom_bond_atom_site_label_1
_geom_bond_atom_site_label_2
_geom_bond_distance
_geom_bond_site_symmetry_2
Na0 O0 2.304260 1_555
Na0 O15 2.384387 1_565
Na0 O2 2.406485 1_555
Na0 O23 2.441453 1_565
Na0 O37 2.484074 1_565
Na0 O22 2.669471 1_555
Na1 O1 2.304260 1_555
Na1 O14 2.384387 1_545
Na1 O3 2.406485 1_555
Na1 O22 2.441453 1_545
Na1 O36 2.484074 1_545
Na1 O23 2.669471 1_555
Na2 O16 2.348550 1_555
Na2 O2 2.355490 1_555
Na2 O8 2.384701 1_555
Na2 O36 2.451532 1_555
Na2 O22 2.505848 1_555
Na2 O32 2.576018 1_555
Na3 O17 2.348550 1_555
Na3 O3 2.355490 1_555
Na3 O9 2.384701 1_555
Na3 O37 2.451532 1_555
Na3 O23 2.505848 1_555
Na3 O33 2.576018 1_555
Na4 O0 2.337628 1_555
Na4 O18 2.367602 1_555
Na4 O22 2.380612 1_555
Na4 O28 2.421269 1_455
Na4 O34 2.461633 1_455
Na4 O8 2.543074 1_555
Na5 O1 2.337628 1_555
Na5 O19 2.367602 1_555
Na5 O23 2.380612 1_555
Na5 O29 2.421269 1_655
Na5 O35 2.461633 1_655
Na5 O9 2.543074 1_555
Na6 O16 2.360743 1_555
Na6 O21 2.394451 1_555
Na6 O17 2.439894 1_555
Na6 O8 2.471369 1_555
Na6 O39 2.501028 1_555
Na6 O18 2.536548 1_555
Na7 O17 2.360743 1_555
Na7 O20 2.394451 1_555
Na7 O16 2.439894 1_555
Na7 O9 2.471369 1_555
Na7 O38 2.501028 1_555
Na7 O19 2.536548 1_555
Na8 O14 2.367407 1_555
Na8 O3 2.418938 1_565
Na8 O31 2.441903 1_565
Na8 O12 2.455650 1_555
Na8 O11 2.477401 1_565
Na8 O10 2.632240 1_556
Na9 O15 2.367407 1_555
Na9 O2 2.418938 1_545
Na9 O30 2.441903 1_545
Na9 O13 2.455650 1_555
Na9 O10 2.477401 1_545
Na9 O11 2.632240 1_554
Na10 O14 2.309236 1_555
Na10 O4 2.332419 1_556
Na10 O20 2.407863 1_555
Na10 O10 2.414664 1_556
Na10 O30 2.506133 1_556
Na10 O38 2.690896 1_555
Na11 O15 2.309236 1_555
Na11 O5 2.332419 1_554
Na11 O21 2.407863 1_555
Na11 O11 2.414664 1_554
Na11 O31 2.506133 1_554
Na11 O39 2.690896 1_555
Na12 O12 2.301471 1_555
Na12 O10 2.377731 1_556
Na12 O40 2.413532 1_455
Na13 O13 2.301471 1_555
Na13 O11 2.377731 1_554
Na13 O41 2.413532 1_655
Na14 O4 2.362559 1_556
Na14 O5 2.408400 1_555
Na14 O6 2.424017 1_556
Na14 O9 2.453336 1_555
Na14 O33 2.519836 1_555
Na14 O20 2.621453 1_555
Na15 O5 2.362559 1_554
Na15 O4 2.408400 1_555
Na15 O7 2.424017 1_554
Na15 O8 2.453336 1_555
Na15 O32 2.519836 1_555
Na15 O21 2.621453 1_555
Na16 O29 2.339979 1_555
Na16 O12 2.421600 1_555
Na16 O18 2.434311 1_555
Na16 O34 2.474677 1_455
Na16 O38 2.604275 1_455
Na16 O19 2.636248 1_455
Na17 O28 2.339979 1_555
Na17 O13 2.421600 1_555
Na17 O19 2.434311 1_555
Na17 O35 2.474677 1_655
Na17 O39 2.604275 1_655
Na17 O18 2.636248 1_655
Al0 O0 1.917353 1_555
Al0 O4 1.922175 1_555
Al0 O2 1.932314 1_555
Al0 O8 1.987751 1_555
Al0 O6 1.994567 1_555
Al0 O10 2.011909 1_555
Al1 O1 1.917353 1_555
Al1 O5 1.922175 1_555
Al1 O3 1.932314 1_555
Al1 O9 1.987751 1_555
Al1 O7 1.994567 1_555
Al1 O11 2.011909 1_555
Al2 O16 1.930527 1_555
Al2 O14 1.933294 1_555
Al2 O12 1.956375 1_555
Al2 O22 1.967298 1_555
Al2 O20 1.972057 1_555
Al2 O18 2.008910 1_555
Al3 O17 1.930527 1_555
Al3 O15 1.933294 1_555
Al3 O13 1.956375 1_555
Al3 O23 1.967298 1_555
Al3 O21 1.972057 1_555
Al3 O19 2.008910 1_555
H0 O0 0.969096 1_555
H1 O1 0.969096 1_555
H2 O2 0.976520 1_555
H3 O3 0.976520 1_555
H4 O4 0.973185 1_555
H4 Na15 2.510951 1_555
H4 Na10 2.518405 1_554
H5 O5 0.973185 1_555
H5 Na14 2.510951 1_555
H5 Na11 2.518405 1_556
H6 O6 0.974244 1_555
H7 O7 0.974244 1_555
H8 O8 0.973467 1_555
H8 Na6 2.579530 1_555
H8 Na15 2.592473 1_555
H9 O9 0.973467 1_555
H9 Na7 2.579530 1_555
H9 Na14 2.592473 1_555
H10 O10 0.973235 1_555
H10 Na9 2.494849 1_565
H11 O11 0.973235 1_555
H11 Na8 2.494849 1_545
H12 O12 0.969710 1_555
H13 O13 0.969710 1_555
H14 O14 0.977416 1_555
H14 Na1 2.501672 1_565
H14 Na10 2.505905 1_555
H15 O15 0.977416 1_555
H15 Na0 2.501672 1_545
H15 Na11 2.505905 1_555
H16 O16 0.971174 1_555
H16 Na7 2.575331 1_555
H17 O17 0.971174 1_555
H17 Na6 2.575331 1_555
H18 O18 0.973324 1_555
H18 Na6 2.542838 1_555
H19 O19 0.973324 1_555
H19 Na7 2.542838 1_555
H20 O20 0.973976 1_555
H20 Na14 2.553582 1_555
H21 O21 0.973976 1_555
H21 Na15 2.553582 1_555
H22 O22 0.972293 1_555
H22 Na1 2.576462 1_565
H22 Na0 2.618483 1_555
H23 O23 0.972293 1_555
H23 Na0 2.576462 1_545
H23 Na1 2.618483 1_555
H24 O24 0.975463 1_455
H25 O25 0.975463 1_655
H26 O26 0.975011 1_455
H27 O27 0.975011 1_655
H28 O28 0.973622 1_455
H29 O29 0.973622 1_655
H30 O30 0.979427 1_546
H31 O31 0.979427 1_564
H32 O30 1.025509 1_555
H32 O24 1.601583 1_555
H33 O31 1.025509 1_555
H33 O25 1.601583 1_555
H34 O32 0.986884 1_555
H35 O33 0.986884 1_555
H36 O32 1.111503 1_555
H36 O28 1.376252 1_555
H37 O33 1.111503 1_555
H37 O29 1.376252 1_555
H38 O34 1.026342 1_555
H38 O26 1.550118 1_555
H39 O35 1.026342 1_555
H39 O27 1.550118 1_555
H40 O34 0.992214 1_555
H41 O35 0.992214 1_555
H42 O36 0.974989 1_545
H43 O37 0.974989 1_565
H44 O36 1.025032 1_555
H44 O26 1.608624 1_555
H45 O37 1.025032 1_555
H45 O27 1.608624 1_555
H46 O38 0.994514 1_555
H47 O39 0.994514 1_555
H48 O38 1.011499 1_555
H49 O39 1.011499 1_555
H50 O40 0.999511 1_555
H51 O41 0.999511 1_555
H52 O40 1.034150 1_554
H52 O24 1.550683 1_555
H53 O41 1.034150 1_556
H53 O25 1.550683 1_555
