# generated using pymatgen
data_Ba4Ce(RuO4)3
_symmetry_space_group_name_H-M   'P 1'
_cell_length_a   5.95635020
_cell_length_b   5.95635020
_cell_length_c   29.85948404
_cell_angle_alpha   89.07902810
_cell_angle_beta   89.07902810
_cell_angle_gamma   60.01110552
_symmetry_Int_Tables_number   1
_chemical_formula_structural   Ba4Ce(RuO4)3
_chemical_formula_sum   'Ba12 Ce3 Ru9 O36'
_cell_volume   917.37551794
_cell_formula_units_Z   3
loop_
 _symmetry_equiv_pos_site_id
 _symmetry_equiv_pos_as_xyz
  1  'x, y, z'
loop_
 _atom_site_type_symbol
 _atom_site_label
 _atom_site_symmetry_multiplicity
 _atom_site_fract_x
 _atom_site_fract_y
 _atom_site_fract_z
 _atom_site_occupancy
  Ba  Ba0  1  0.99792400  0.99792400  0.86805300  1
  Ba  Ba1  1  0.00207600  0.00207600  0.13194700  1
  Ba  Ba2  1  0.33334600  0.33334600  0.46384200  1
  Ba  Ba3  1  0.66665400  0.66665400  0.53615800  1
  Ba  Ba4  1  0.66814200  0.66814200  0.95012500  1
  Ba  Ba5  1  0.33185800  0.33185800  0.04987500  1
  Ba  Ba6  1  0.00238300  0.00238300  0.28363700  1
  Ba  Ba7  1  0.99761700  0.99761700  0.71636300  1
  Ba  Ba8  1  0.33652100  0.33652100  0.61644400  1
  Ba  Ba9  1  0.66347900  0.66347900  0.38355700  1
  Ba  Ba10  1  0.66450700  0.66450700  0.79605400  1
  Ba  Ba11  1  0.33549300  0.33549300  0.20394600  1
  Ce  Ce0  1  0.66795600  0.66795600  0.66671100  1
  Ce  Ce1  1  0.33204400  0.33204400  0.33328900  1
  Ce  Ce2  1  0.00000000  0.00000000  0.00000000  1
  Ru  Ru0  1  0.33243100  0.33243100  0.83363600  1
  Ru  Ru1  1  0.66756900  0.66756900  0.16636400  1
  Ru  Ru2  1  0.33675700  0.33675700  0.91900700  1
  Ru  Ru3  1  0.66324300  0.66324300  0.08099300  1
  Ru  Ru4  1  0.32908900  0.32908900  0.74780100  1
  Ru  Ru5  1  0.67091100  0.67091100  0.25219900  1
  Ru  Ru6  1  0.00630800  0.00630800  0.58578700  1
  Ru  Ru7  1  0.99369200  0.99369200  0.41421300  1
  Ru  Ru8  1  0.00000000  0.00000000  0.50000000  1
  O  O0  1  0.18203700  0.18203700  0.95908400  1
  O  O1  1  0.81796300  0.81796300  0.04091600  1
  O  O2  1  0.32864500  0.85147000  0.62136200  1
  O  O3  1  0.67135500  0.14853000  0.37863800  1
  O  O4  1  0.14853000  0.67135500  0.37863800  1
  O  O5  1  0.85147000  0.32864500  0.62136200  1
  O  O6  1  0.17612900  0.17612900  0.79294200  1
  O  O7  1  0.82387100  0.82387100  0.20705800  1
  O  O8  1  0.15783600  0.15783600  0.54013800  1
  O  O9  1  0.84216400  0.84216400  0.45986200  1
  O  O10  1  0.65671700  0.18050700  0.95526300  1
  O  O11  1  0.34328300  0.81949300  0.04473700  1
  O  O12  1  0.81949300  0.34328300  0.04473700  1
  O  O13  1  0.18050700  0.65671700  0.95526300  1
  O  O14  1  0.30670700  0.84372700  0.45624200  1
  O  O15  1  0.69329300  0.15627300  0.54375800  1
  O  O16  1  0.15627300  0.69329300  0.54375800  1
  O  O17  1  0.84372700  0.30670700  0.45624200  1
  O  O18  1  0.64080700  0.17700700  0.79038100  1
  O  O19  1  0.35919300  0.82299300  0.20961900  1
  O  O20  1  0.82299300  0.35919300  0.20961900  1
  O  O21  1  0.17700700  0.64080700  0.79038100  1
  O  O22  1  0.48425100  0.00874400  0.71171000  1
  O  O23  1  0.51574900  0.99125600  0.28829000  1
  O  O24  1  0.99125600  0.51574900  0.28829000  1
  O  O25  1  0.00874400  0.48425100  0.71171000  1
  O  O26  1  0.14581200  0.14581200  0.37272600  1
  O  O27  1  0.85418800  0.85418800  0.62727400  1
  O  O28  1  0.48970400  0.48970400  0.87360300  1
  O  O29  1  0.51029600  0.51029600  0.12639700  1
  O  O30  1  0.48353600  0.48353600  0.70703300  1
  O  O31  1  0.51646400  0.51646400  0.29296700  1
  O  O32  1  0.48900500  0.02400700  0.87664900  1
  O  O33  1  0.51099500  0.97599300  0.12335100  1
  O  O34  1  0.97599300  0.51099500  0.12335100  1
  O  O35  1  0.02400700  0.48900500  0.87664900  1
loop_
_geom_bond_atom_site_label_1
_geom_bond_atom_site_label_2
_geom_bond_distance
_geom_bond_site_symmetry_2
Ba0 O6 2.873438 1_665
Ba0 O35 2.963829 1_655
Ba0 O32 2.963829 1_565
Ba0 O18 2.975264 1_565
Ba0 O21 2.975264 1_655
Ba0 O28 2.984399 1_655
Ba0 O28 2.984399 1_565
Ba0 O35 3.020867 1_665
Ba0 O32 3.020867 1_665
Ba0 O13 3.131393 1_655
Ba0 O10 3.131393 1_565
Ba0 O0 3.344755 1_665
Ba1 O7 2.873438 1_445
Ba1 O33 2.963829 1_545
Ba1 O34 2.963829 1_455
Ba1 O20 2.975264 1_455
Ba1 O19 2.975264 1_545
Ba1 O29 2.984399 1_455
Ba1 O29 2.984399 1_545
Ba1 O34 3.020867 1_445
Ba1 O33 3.020867 1_445
Ba1 O12 3.131393 1_455
Ba1 O11 3.131393 1_545
Ba1 O1 3.344755 1_445
Ba2 O8 2.883592 1_555
Ba2 O17 2.969024 1_555
Ba2 O14 2.969024 1_555
Ba2 O9 2.982365 1_545
Ba2 O9 2.982365 1_455
Ba2 O14 3.011103 1_545
Ba2 O17 3.011103 1_455
Ba2 O15 3.037476 1_555
Ba2 O16 3.037476 1_555
Ba2 O4 3.073712 1_555
Ba2 O3 3.073712 1_555
Ba2 O26 3.367528 1_555
Ba3 O9 2.883592 1_555
Ba3 O15 2.969024 1_555
Ba3 O16 2.969024 1_555
Ba3 O8 2.982365 1_565
Ba3 O8 2.982365 1_655
Ba3 O16 3.011103 1_655
Ba3 O15 3.011103 1_565
Ba3 O14 3.037476 1_555
Ba3 O17 3.037476 1_555
Ba3 O2 3.073712 1_555
Ba3 O5 3.073712 1_555
Ba3 O27 3.367528 1_555
Ba4 O35 2.847757 1_655
Ba4 O32 2.847757 1_565
Ba4 O13 2.940640 1_555
Ba4 O10 2.940640 1_555
Ba4 O28 2.960649 1_555
Ba4 O0 2.994334 1_565
Ba4 O0 2.994334 1_655
Ba4 O13 3.024717 1_655
Ba4 O10 3.024717 1_565
Ba4 O1 3.145426 1_556
Ba4 O11 3.271112 1_556
Ba4 O12 3.271112 1_556
Ba5 O34 2.847757 1_455
Ba5 O33 2.847757 1_545
Ba5 O12 2.940640 1_555
Ba5 O11 2.940640 1_555
Ba5 O29 2.960649 1_555
Ba5 O1 2.994334 1_545
Ba5 O1 2.994334 1_455
Ba5 O11 3.024717 1_545
Ba5 O12 3.024717 1_455
Ba5 O0 3.145426 1_554
Ba5 O13 3.271112 1_554
Ba5 O10 3.271112 1_554
Ba6 O19 2.863225 1_545
Ba6 O20 2.863225 1_455
Ba6 O23 2.933285 1_445
Ba6 O24 2.933285 1_445
Ba6 O7 2.962467 1_445
Ba6 O31 2.995450 1_545
Ba6 O31 2.995450 1_455
Ba6 O24 3.030599 1_455
Ba6 O23 3.030599 1_545
Ba6 O26 3.067870 1_555
Ba6 O3 3.297875 1_455
Ba6 O4 3.297875 1_545
Ba7 O21 2.863225 1_655
Ba7 O18 2.863225 1_565
Ba7 O22 2.933285 1_665
Ba7 O25 2.933285 1_665
Ba7 O6 2.962467 1_665
Ba7 O30 2.995450 1_565
Ba7 O30 2.995450 1_655
Ba7 O25 3.030599 1_655
Ba7 O22 3.030599 1_565
Ba7 O27 3.067870 1_555
Ba7 O2 3.297875 1_655
Ba7 O5 3.297875 1_565
Ba8 O15 2.832830 1_555
Ba8 O16 2.832830 1_555
Ba8 O2 2.914187 1_545
Ba8 O5 2.914187 1_455
Ba8 O8 2.957223 1_555
Ba8 O27 3.002080 1_455
Ba8 O27 3.002080 1_545
Ba8 O5 3.049918 1_555
Ba8 O2 3.049918 1_555
Ba8 O30 3.125563 1_555
Ba8 O22 3.295793 1_555
Ba8 O25 3.295793 1_555
Ba9 O17 2.832808 1_555
Ba9 O14 2.832808 1_555
Ba9 O3 2.914188 1_565
Ba9 O4 2.914188 1_655
Ba9 O9 2.957200 1_555
Ba9 O26 3.002083 1_565
Ba9 O26 3.002083 1_655
Ba9 O4 3.049920 1_555
Ba9 O3 3.049920 1_555
Ba9 O31 3.125589 1_555
Ba9 O24 3.295819 1_555
Ba9 O23 3.295819 1_555
Ba10 O28 2.908389 1_555
Ba10 O6 2.982465 1_565
Ba10 O6 2.982465 1_655
Ba10 O18 2.984387 1_555
Ba10 O21 2.984387 1_555
Ba10 O18 2.986726 1_565
Ba10 O21 2.986726 1_655
Ba10 O32 3.052284 1_565
Ba10 O35 3.052284 1_655
Ba10 O25 3.069167 1_655
Ba10 O22 3.069167 1_565
Ba10 O30 3.276463 1_555
Ba11 O29 2.908389 1_555
Ba11 O7 2.982465 1_455
Ba11 O7 2.982465 1_545
Ba11 O20 2.984387 1_555
Ba11 O19 2.984387 1_555
Ba11 O19 2.986726 1_545
Ba11 O20 2.986726 1_455
Ba11 O33 3.052284 1_545
Ba11 O34 3.052284 1_455
Ba11 O24 3.069167 1_455
Ba11 O23 3.069167 1_545
Ba11 O31 3.276463 1_555
Ce0 O22 2.223299 1_565
Ce0 O25 2.223299 1_655
Ce0 O5 2.223742 1_555
Ce0 O2 2.223742 1_555
Ce0 O30 2.232504 1_555
Ce0 O27 2.234651 1_555
Ce1 O23 2.223299 1_545
Ce1 O24 2.223299 1_455
Ce1 O4 2.223742 1_555
Ce1 O3 2.223742 1_555
Ce1 O31 2.232504 1_555
Ce1 O26 2.234651 1_555
Ce2 O1 2.221267 1_445
Ce2 O0 2.221267 1_554
Ce2 O10 2.228279 1_454
Ce2 O13 2.228279 1_544
Ce2 O11 2.228279 1_545
Ce2 O12 2.228279 1_455
O0 Ru2 1.977045 1_555
O1 Ru3 1.977045 1_555
O2 Ru6 1.982202 1_565
O3 Ru7 1.982202 1_545
O4 Ru7 1.982202 1_455
O5 Ru6 1.982202 1_655
O6 Ru0 2.036943 1_555
O6 Ru4 2.056158 1_555
O7 Ru1 2.036943 1_555
O7 Ru5 2.056158 1_555
O8 Ru8 2.039623 1_555
O8 Ru6 2.054839 1_555
O9 Ru8 2.039623 1_665
O9 Ru7 2.054839 1_555
O10 Ru2 1.982688 1_555
O11 Ru3 1.982688 1_555
O12 Ru3 1.982688 1_555
O13 Ru2 1.982688 1_555
O14 Ru8 2.042906 1_565
O14 Ru7 2.055057 1_455
O15 Ru8 2.042906 1_655
O15 Ru6 2.055057 1_655
O16 Ru8 2.042906 1_565
O16 Ru6 2.055057 1_565
O17 Ru8 2.042906 1_655
O17 Ru7 2.055057 1_545
O18 Ru0 2.039932 1_555
O18 Ru4 2.059597 1_555
O19 Ru1 2.039932 1_555
O19 Ru5 2.059597 1_555
O20 Ru1 2.039932 1_555
O20 Ru5 2.059597 1_555
O21 Ru0 2.039932 1_555
O21 Ru4 2.059597 1_555
O22 Ru4 1.981795 1_555
O23 Ru5 1.981795 1_555
O24 Ru5 1.981795 1_555
O25 Ru4 1.981795 1_555
O26 Ru7 1.981181 1_445
O27 Ru6 1.981181 1_665
O28 Ru0 2.031847 1_555
O28 Ru2 2.061102 1_555
O29 Ru1 2.031847 1_555
O29 Ru3 2.061102 1_555
O30 Ru4 1.987067 1_555
O31 Ru5 1.987067 1_555
O32 Ru0 2.035713 1_555
O32 Ru2 2.059705 1_555
O33 Ru1 2.035713 1_555
O33 Ru3 2.059705 1_555
O34 Ru1 2.035713 1_555
O34 Ru3 2.059705 1_555
O35 Ru0 2.035713 1_555
O35 Ru2 2.059705 1_555
