# generated using pymatgen
data_Mg3Ti2O7
_symmetry_space_group_name_H-M   'P 1'
_cell_length_a   9.31494548
_cell_length_b   9.31494548
_cell_length_c   5.36285700
_cell_angle_alpha   90.00000000
_cell_angle_beta   90.00000000
_cell_angle_gamma   147.58940477
_symmetry_Int_Tables_number   1
_chemical_formula_structural   Mg3Ti2O7
_chemical_formula_sum   'Mg6 Ti4 O14'
_cell_volume   249.40651949
_cell_formula_units_Z   2
loop_
 _symmetry_equiv_pos_site_id
 _symmetry_equiv_pos_as_xyz
  1  'x, y, z'
loop_
 _atom_site_type_symbol
 _atom_site_label
 _atom_site_symmetry_multiplicity
 _atom_site_fract_x
 _atom_site_fract_y
 _atom_site_fract_z
 _atom_site_occupancy
  Mg  Mg0  1  0.25365700  0.25365700  0.29563400  1
  Mg  Mg1  1  0.74634300  0.74634300  0.79563400  1
  Mg  Mg2  1  0.03554400  0.42390300  0.18503900  1
  Mg  Mg3  1  0.96445600  0.57609700  0.68503900  1
  Mg  Mg4  1  0.42390300  0.03554400  0.18503900  1
  Mg  Mg5  1  0.57609700  0.96445600  0.68503900  1
  Ti  Ti0  1  0.85806600  0.64704200  0.23581300  1
  Ti  Ti1  1  0.14193400  0.35295800  0.73581300  1
  Ti  Ti2  1  0.35295800  0.14193400  0.73581300  1
  Ti  Ti3  1  0.64704200  0.85806600  0.23581300  1
  O  O0  1  0.65315700  0.06601800  0.30736600  1
  O  O1  1  0.34684300  0.93398200  0.80736600  1
  O  O2  1  0.93398200  0.34684300  0.80736600  1
  O  O3  1  0.06601800  0.65315700  0.30736600  1
  O  O4  1  0.44047300  0.69956800  0.94108700  1
  O  O5  1  0.55952700  0.30043200  0.44108700  1
  O  O6  1  0.30043200  0.55952700  0.44108700  1
  O  O7  1  0.69956800  0.44047300  0.94108700  1
  O  O8  1  0.99326300  0.15347400  0.07627700  1
  O  O9  1  0.00673700  0.84652600  0.57627700  1
  O  O10  1  0.63325000  0.63325000  0.19319900  1
  O  O11  1  0.36675000  0.36675000  0.69319900  1
  O  O12  1  0.15347400  0.99326300  0.07627700  1
  O  O13  1  0.84652600  0.00673700  0.57627700  1
loop_
_geom_bond_atom_site_label_1
_geom_bond_atom_site_label_2
_geom_bond_distance
_geom_bond_site_symmetry_2
Mg0 O10 2.048619 1_555
Mg0 O8 2.077543 1_455
Mg0 O12 2.077543 1_545
Mg0 O11 2.211679 1_555
Mg0 O5 2.611510 1_555
Mg0 O6 2.611510 1_555
Mg1 O11 2.048619 1_555
Mg1 O9 2.077543 1_655
Mg1 O13 2.077543 1_565
Mg1 O10 2.211679 1_556
Mg1 O4 2.611510 1_555
Mg1 O7 2.611510 1_555
Mg2 O3 2.011898 1_555
Mg2 O0 2.044944 1_455
Mg2 O6 2.075209 1_555
Mg2 O2 2.089479 1_454
Mg2 O8 2.272820 1_455
Mg2 O4 2.485731 1_554
Mg3 O2 2.011898 1_555
Mg3 O1 2.044944 1_655
Mg3 O7 2.075209 1_555
Mg3 O3 2.089479 1_655
Mg3 O9 2.272820 1_655
Mg3 O5 2.485731 1_555
Mg4 O0 2.011898 1_555
Mg4 O3 2.044944 1_545
Mg4 O5 2.075209 1_555
Mg4 O1 2.089479 1_544
Mg4 O12 2.272820 1_545
Mg4 O7 2.485731 1_554
Mg5 O1 2.011898 1_555
Mg5 O2 2.044944 1_565
Mg5 O4 2.075209 1_555
Mg5 O0 2.089479 1_565
Mg5 O13 2.272820 1_565
Mg5 O6 2.485731 1_555
O0 Ti3 1.927797 1_545
O1 Ti2 1.927797 1_565
O2 Ti1 1.927797 1_655
O3 Ti0 1.927797 1_455
O4 Ti3 1.893084 1_556
O4 Ti1 2.051722 1_555
O5 Ti2 1.893084 1_555
O5 Ti0 2.051722 1_555
O6 Ti1 1.893084 1_555
O6 Ti3 2.051722 1_555
O7 Ti0 1.893084 1_556
O7 Ti2 2.051722 1_555
O8 Ti3 1.928928 1_545
O8 Ti1 2.087941 1_654
O9 Ti2 1.928928 1_565
O9 Ti0 2.087941 1_455
O10 Ti0 1.999983 1_555
O10 Ti3 1.999983 1_555
O11 Ti1 1.999983 1_555
O11 Ti2 1.999983 1_555
O12 Ti0 1.928928 1_455
O12 Ti2 2.087941 1_564
O13 Ti1 1.928928 1_655
O13 Ti3 2.087941 1_545
