# generated using pymatgen
data_Ba3GdInS6
_symmetry_space_group_name_H-M   'P 1'
_cell_length_a   8.47182117
_cell_length_b   8.47182117
_cell_length_c   8.47182106
_cell_angle_alpha   92.69302829
_cell_angle_beta   92.69302829
_cell_angle_gamma   92.69302841
_symmetry_Int_Tables_number   1
_chemical_formula_structural   Ba3GdInS6
_chemical_formula_sum   'Ba6 Gd2 In2 S12'
_cell_volume   605.95739356
_cell_formula_units_Z   2
loop_
 _symmetry_equiv_pos_site_id
 _symmetry_equiv_pos_as_xyz
  1  'x, y, z'
loop_
 _atom_site_type_symbol
 _atom_site_label
 _atom_site_symmetry_multiplicity
 _atom_site_fract_x
 _atom_site_fract_y
 _atom_site_fract_z
 _atom_site_occupancy
  Ba  Ba0  1  0.86910900  0.63089100  0.25000000  1
  Ba  Ba1  1  0.25000000  0.86910900  0.63089100  1
  Ba  Ba2  1  0.63089100  0.25000000  0.86910900  1
  Ba  Ba3  1  0.75000000  0.13089100  0.36910900  1
  Ba  Ba4  1  0.36910900  0.75000000  0.13089100  1
  Ba  Ba5  1  0.13089100  0.36910900  0.75000000  1
  Gd  Gd0  1  0.25000000  0.25000000  0.25000000  1
  Gd  Gd1  1  0.75000000  0.75000000  0.75000000  1
  In  In0  1  0.50000000  0.50000000  0.50000000  1
  In  In1  1  0.00000000  0.00000000  0.00000000  1
  S  S0  1  0.19995600  0.53892100  0.41039800  1
  S  S1  1  0.41039800  0.19995600  0.53892100  1
  S  S2  1  0.53892100  0.41039800  0.19995600  1
  S  S3  1  0.91039800  0.03892100  0.69995600  1
  S  S4  1  0.69995600  0.91039800  0.03892100  1
  S  S5  1  0.03892100  0.69995600  0.91039800  1
  S  S6  1  0.80004400  0.46107900  0.58960200  1
  S  S7  1  0.58960200  0.80004400  0.46107900  1
  S  S8  1  0.46107900  0.58960200  0.80004400  1
  S  S9  1  0.08960200  0.96107900  0.30004400  1
  S  S10  1  0.30004400  0.08960200  0.96107900  1
  S  S11  1  0.96107900  0.30004400  0.08960200  1
loop_
_geom_bond_atom_site_label_1
_geom_bond_atom_site_label_2
_geom_bond_distance
_geom_bond_site_symmetry_2
Ba0 S11 3.202579 1_555
Ba0 S0 3.202579 1_655
Ba0 S2 3.288929 1_555
Ba0 S9 3.288929 1_655
Ba0 S6 3.340269 1_555
Ba0 S5 3.340269 1_654
Ba0 S7 3.366661 1_555
Ba0 S4 3.366661 1_555
Ba1 S9 3.202579 1_555
Ba1 S1 3.202579 1_565
Ba1 S10 3.288929 1_565
Ba1 S0 3.288929 1_555
Ba1 S7 3.340269 1_555
Ba1 S3 3.340269 1_465
Ba1 S5 3.366661 1_555
Ba1 S8 3.366661 1_555
Ba2 S2 3.202579 1_556
Ba2 S10 3.202579 1_555
Ba2 S1 3.288929 1_555
Ba2 S11 3.288929 1_556
Ba2 S4 3.340269 1_546
Ba2 S8 3.340269 1_555
Ba2 S6 3.366661 1_555
Ba2 S3 3.366661 1_555
Ba3 S3 3.202579 1_555
Ba3 S7 3.202579 1_545
Ba3 S4 3.288929 1_545
Ba3 S6 3.288929 1_555
Ba3 S1 3.340269 1_555
Ba3 S9 3.340269 1_645
Ba3 S11 3.366661 1_555
Ba3 S2 3.366661 1_555
Ba4 S8 3.202579 1_554
Ba4 S4 3.202579 1_555
Ba4 S7 3.288929 1_555
Ba4 S5 3.288929 1_554
Ba4 S10 3.340269 1_564
Ba4 S2 3.340269 1_555
Ba4 S0 3.366661 1_555
Ba4 S9 3.366661 1_555
Ba5 S6 3.202579 1_455
Ba5 S5 3.202579 1_555
Ba5 S8 3.288929 1_555
Ba5 S3 3.288929 1_455
Ba5 S11 3.340269 1_456
Ba5 S0 3.340269 1_555
Ba5 S10 3.366661 1_555
Ba5 S1 3.366661 1_555
Gd0 S1 2.802950 1_555
Gd0 S10 2.802950 1_554
Gd0 S0 2.802950 1_555
Gd0 S11 2.802950 1_455
Gd0 S2 2.802950 1_555
Gd0 S9 2.802950 1_545
Gd1 S4 2.802950 1_556
Gd1 S7 2.802950 1_555
Gd1 S5 2.802950 1_655
Gd1 S6 2.802950 1_555
Gd1 S3 2.802950 1_565
Gd1 S8 2.802950 1_555
In0 S2 2.658432 1_555
In0 S8 2.658432 1_555
In0 S1 2.658432 1_555
In0 S7 2.658432 1_555
In0 S0 2.658432 1_555
In0 S6 2.658432 1_555
In1 S9 2.658432 1_545
In1 S3 2.658432 1_454
In1 S10 2.658432 1_554
In1 S4 2.658432 1_445
In1 S11 2.658432 1_455
In1 S5 2.658432 1_544
