# generated using pymatgen
data_LiMn6O5F7
_symmetry_space_group_name_H-M   'P 1'
_cell_length_a   7.32482990
_cell_length_b   5.81086072
_cell_length_c   5.88160729
_cell_angle_alpha   75.90519786
_cell_angle_beta   73.26550700
_cell_angle_gamma   72.34092622
_symmetry_Int_Tables_number   1
_chemical_formula_structural   LiMn6O5F7
_chemical_formula_sum   'Li1 Mn6 O5 F7'
_cell_volume   225.07231219
_cell_formula_units_Z   1
loop_
 _symmetry_equiv_pos_site_id
 _symmetry_equiv_pos_as_xyz
  1  'x, y, z'
loop_
 _atom_site_type_symbol
 _atom_site_label
 _atom_site_symmetry_multiplicity
 _atom_site_fract_x
 _atom_site_fract_y
 _atom_site_fract_z
 _atom_site_occupancy
  Li  Li0  1  0.66550000  0.33848900  0.82259200  1
  Mn  Mn0  1  0.84675200  0.70716800  0.63007500  1
  Mn  Mn1  1  0.67916700  0.32778200  0.32650900  1
  Mn  Mn2  1  0.33097900  0.68619400  0.64498200  1
  Mn  Mn3  1  0.16169300  0.28965500  0.34030100  1
  Mn  Mn4  1  0.51033800  0.96285200  0.05353900  1
  Mn  Mn5  1  0.00333200  0.99021400  0.00750100  1
  O  O0  1  0.62773400  0.57323300  0.53029600  1
  O  O1  1  0.96790500  0.20561500  0.23932200  1
  O  O2  1  0.71408500  0.09102000  0.11465300  1
  O  O3  1  0.04545800  0.78626500  0.76726700  1
  O  O4  1  0.32556400  0.96633300  0.37505700  1
  F  F0  1  0.65678700  0.05473800  0.67257900  1
  F  F1  1  0.36313600  0.38335600  0.93614800  1
  F  F2  1  0.29727000  0.91597700  0.91179300  1
  F  F3  1  0.37174500  0.40875500  0.41472700  1
  F  F4  1  0.66547000  0.60481600  0.99601300  1
  F  F5  1  0.97800100  0.31583700  0.69971600  1
  F  F6  1  0.02982600  0.65211700  0.28776100  1
loop_
_geom_bond_atom_site_label_1
_geom_bond_atom_site_label_2
_geom_bond_distance
_geom_bond_site_symmetry_2
Li0 O0 1.948206 1_555
Li0 O2 1.995934 1_556
Mn0 O3 2.060009 1_655
Mn0 O0 2.246319 1_555
Mn1 O0 1.964544 1_555
Mn1 O1 1.970226 1_555
Mn1 O2 1.987161 1_555
Mn2 O3 1.956781 1_555
Mn2 O4 1.977443 1_555
Mn2 O0 2.028888 1_555
Mn3 O4 1.896950 1_545
Mn3 O1 1.911390 1_455
Mn4 O4 1.984029 1_555
Mn4 O2 2.006200 1_565
Mn5 O3 1.959293 1_554
Mn5 O2 1.971560 1_465
Mn5 O1 1.980779 1_465
F0 Li0 2.075105 1_555
F0 Mn0 2.101984 1_545
F0 Mn4 2.199315 1_546
F0 Mn1 2.253886 1_555
F1 Li0 2.074096 1_555
F1 Mn2 2.144285 1_555
F1 Mn4 2.370337 1_546
F1 Mn3 2.441582 1_556
F2 Mn5 1.998848 1_556
F2 Mn4 2.079132 1_556
F2 Mn2 2.214464 1_555
F3 Mn3 2.054095 1_555
F3 Mn1 2.089143 1_555
F3 Mn2 2.249602 1_555
F4 Li0 2.050345 1_555
F4 Mn4 2.102687 1_556
F4 Mn1 2.206877 1_556
F4 Mn0 2.226927 1_555
F5 Li0 2.165664 1_555
F5 Mn3 2.167200 1_655
F5 Mn0 2.170191 1_555
F5 Mn5 2.281196 1_646
F6 Mn3 2.021191 1_555
F6 Mn0 2.110170 1_455
F6 Mn5 2.233875 1_555
