# generated using pymatgen
data_CaLaMnNbO6
_symmetry_space_group_name_H-M   'P 1'
_cell_length_a   5.82463000
_cell_length_b   9.83068652
_cell_length_c   9.85411266
_cell_angle_alpha   69.84495328
_cell_angle_beta   90.00014989
_cell_angle_gamma   90.00023586
_symmetry_Int_Tables_number   1
_chemical_formula_structural   CaLaMnNbO6
_chemical_formula_sum   'Ca4 La4 Mn4 Nb4 O24'
_cell_volume   529.69512723
_cell_formula_units_Z   4
loop_
 _symmetry_equiv_pos_site_id
 _symmetry_equiv_pos_as_xyz
  1  'x, y, z'
loop_
 _atom_site_type_symbol
 _atom_site_label
 _atom_site_symmetry_multiplicity
 _atom_site_fract_x
 _atom_site_fract_y
 _atom_site_fract_z
 _atom_site_occupancy
  Ca  Ca0  1  0.55262000  0.88020300  0.36792000  1
  Ca  Ca1  1  0.55260800  0.38019100  0.86791600  1
  Ca  Ca2  1  0.94738000  0.88019500  0.86791200  1
  Ca  Ca3  1  0.94738300  0.38019700  0.36792700  1
  La  La0  1  0.44870800  0.12057600  0.63209600  1
  La  La1  1  0.44870800  0.62058200  0.13209100  1
  La  La2  1  0.05128400  0.12057700  0.13209500  1
  La  La3  1  0.05129200  0.62057600  0.63209300  1
  Mn  Mn0  1  0.50247800  0.74927300  0.75041800  1
  Mn  Mn1  1  0.99751400  0.74927200  0.25041900  1
  Mn  Mn2  1  0.50244800  0.24928100  0.25042000  1
  Mn  Mn3  1  0.99754500  0.24927500  0.75042500  1
  Nb  Nb0  1  0.50290800  0.00060400  0.00100100  1
  Nb  Nb1  1  0.50290500  0.50060300  0.50099900  1
  Nb  Nb2  1  0.99708800  0.00060300  0.50100000  1
  Nb  Nb3  1  0.99708800  0.50060100  0.00100200  1
  O  O0  1  0.80839600  0.12019300  0.32956400  1
  O  O1  1  0.80839900  0.62019700  0.82956400  1
  O  O2  1  0.69159600  0.12019600  0.82956100  1
  O  O3  1  0.69159600  0.62019400  0.32956100  1
  O  O4  1  0.18739800  0.87951400  0.67056800  1
  O  O5  1  0.18739600  0.37951400  0.17056800  1
  O  O6  1  0.31260300  0.87951400  0.17056900  1
  O  O7  1  0.31260000  0.37951300  0.67057000  1
  O  O8  1  0.28578700  0.06313400  0.37864300  1
  O  O9  1  0.28578500  0.56313400  0.87864100  1
  O  O10  1  0.21421600  0.06313500  0.87864100  1
  O  O11  1  0.21420800  0.56313400  0.37863900  1
  O  O12  1  0.71009900  0.93484700  0.62181600  1
  O  O13  1  0.71010000  0.43484500  0.12181900  1
  O  O14  1  0.78999700  0.93487300  0.12178000  1
  O  O15  1  0.78989500  0.43484800  0.62181600  1
  O  O16  1  0.95849600  0.82982100  0.43079900  1
  O  O17  1  0.95849700  0.32982200  0.93079700  1
  O  O18  1  0.54149500  0.32982000  0.43080300  1
  O  O19  1  0.54149700  0.82982100  0.93079900  1
  O  O20  1  0.03702400  0.17182900  0.56719000  1
  O  O21  1  0.03702300  0.67183000  0.06718900  1
  O  O22  1  0.46297200  0.67183400  0.56718300  1
  O  O23  1  0.46296800  0.17183000  0.06718600  1
loop_
_geom_bond_atom_site_label_1
_geom_bond_atom_site_label_2
_geom_bond_distance
_geom_bond_site_symmetry_2
Ca0 O22 2.356360 1_555
Ca0 O6 2.396972 1_555
Ca0 O8 2.406596 1_565
Ca0 O16 2.450840 1_555
Ca0 O14 2.680527 1_555
Ca0 O0 2.704435 1_565
Ca0 O3 2.827977 1_555
Ca0 O12 2.883696 1_555
Ca1 O23 2.356340 1_556
Ca1 O7 2.396871 1_555
Ca1 O9 2.406654 1_555
Ca1 O17 2.450902 1_555
Ca1 O15 2.679941 1_555
Ca1 O1 2.704619 1_555
Ca1 O2 2.827849 1_555
Ca1 O13 2.883832 1_556
Ca2 O21 2.356405 1_656
Ca2 O4 2.396903 1_655
Ca2 O10 2.406683 1_665
Ca2 O19 2.450884 1_555
Ca2 O12 2.679891 1_555
Ca2 O2 2.704568 1_565
Ca2 O1 2.827828 1_555
Ca2 O14 2.883429 1_556
Ca3 O20 2.356346 1_655
Ca3 O5 2.397011 1_655
Ca3 O11 2.406568 1_655
Ca3 O18 2.450895 1_555
Ca3 O13 2.680000 1_555
Ca3 O3 2.704521 1_555
Ca3 O0 2.827960 1_555
Ca3 O15 2.883687 1_555
La0 O18 2.376160 1_555
La0 O2 2.404737 1_555
La0 O12 2.406132 1_545
La0 O20 2.488137 1_555
La0 O10 2.672330 1_555
La0 O4 2.730777 1_545
La0 O7 2.813721 1_555
La0 O8 2.903285 1_555
La1 O19 2.376129 1_554
La1 O3 2.404755 1_555
La1 O13 2.406173 1_555
La1 O21 2.488130 1_555
La1 O11 2.672372 1_555
La1 O5 2.730824 1_555
La1 O6 2.813687 1_555
La1 O9 2.903290 1_554
La2 O17 2.376193 1_454
La2 O0 2.404764 1_455
La2 O14 2.405654 1_445
La2 O23 2.488142 1_555
La2 O8 2.672382 1_555
La2 O6 2.730821 1_545
La2 O5 2.813717 1_555
La2 O10 2.903321 1_554
La3 O16 2.376184 1_455
La3 O1 2.404811 1_455
La3 O15 2.406128 1_455
La3 O22 2.488127 1_555
La3 O9 2.672353 1_555
La3 O7 2.730780 1_555
La3 O4 2.813725 1_555
La3 O11 2.903290 1_555
Mn0 O1 2.170599 1_555
Mn0 O12 2.191654 1_555
Mn0 O19 2.192735 1_555
Mn0 O22 2.200001 1_555
Mn0 O4 2.220868 1_555
Mn0 O9 2.223656 1_555
Mn1 O3 2.170582 1_555
Mn1 O14 2.191599 1_555
Mn1 O16 2.192733 1_555
Mn1 O21 2.199976 1_655
Mn1 O6 2.220910 1_655
Mn1 O11 2.223649 1_655
Mn2 O0 2.170779 1_555
Mn2 O13 2.191688 1_555
Mn2 O18 2.192714 1_555
Mn2 O23 2.200050 1_555
Mn2 O5 2.220700 1_555
Mn2 O8 2.223599 1_555
Mn3 O2 2.170726 1_555
Mn3 O15 2.191766 1_555
Mn3 O17 2.192665 1_555
Mn3 O20 2.200029 1_655
Mn3 O7 2.220737 1_655
Mn3 O10 2.223574 1_655
Nb0 O6 2.016691 1_545
Nb0 O23 2.017278 1_555
Nb0 O2 2.018764 1_554
Nb0 O14 2.024915 1_545
Nb0 O19 2.036715 1_544
Nb0 O10 2.036776 1_554
Nb1 O7 2.016710 1_555
Nb1 O22 2.017313 1_555
Nb1 O3 2.018758 1_555
Nb1 O15 2.024646 1_555
Nb1 O18 2.036679 1_555
Nb1 O11 2.036800 1_555
Nb2 O4 2.016705 1_645
Nb2 O20 2.017303 1_655
Nb2 O0 2.018746 1_555
Nb2 O12 2.024638 1_545
Nb2 O16 2.036699 1_545
Nb2 O8 2.036796 1_655
Nb3 O5 2.016680 1_655
Nb3 O21 2.017312 1_655
Nb3 O1 2.018767 1_554
Nb3 O13 2.024638 1_555
Nb3 O17 2.036696 1_554
Nb3 O9 2.036808 1_654
