# generated using pymatgen
data_NbPd4
_symmetry_space_group_name_H-M   'P 1'
_cell_length_a   23.22245279
_cell_length_b   23.22245279
_cell_length_c   23.22245402
_cell_angle_alpha   14.02533255
_cell_angle_beta   14.02533255
_cell_angle_gamma   14.02533014
_symmetry_Int_Tables_number   1
_chemical_formula_structural   NbPd4
_chemical_formula_sum   'Nb8 Pd32'
_cell_volume   640.18742707
_cell_formula_units_Z   8
loop_
 _symmetry_equiv_pos_site_id
 _symmetry_equiv_pos_as_xyz
  1  'x, y, z'
loop_
 _atom_site_type_symbol
 _atom_site_label
 _atom_site_symmetry_multiplicity
 _atom_site_fract_x
 _atom_site_fract_y
 _atom_site_fract_z
 _atom_site_occupancy
  Nb  Nb0_0  1  0.00000000  0.00000000  0.00000000  1
  Nb  Nb0_1  1  0.00000000  0.00000000  0.50000000  1
  Nb  Nb0_2  1  0.00000000  0.50000000  0.00000000  1
  Nb  Nb0_3  1  0.00000000  0.50000000  0.50000000  1
  Nb  Nb0_4  1  0.50000000  0.00000000  0.00000000  1
  Nb  Nb0_5  1  0.50000000  0.00000000  0.50000000  1
  Nb  Nb0_6  1  0.50000000  0.50000000  0.00000000  1
  Nb  Nb0_7  1  0.50000000  0.50000000  0.50000000  1
  Pd  Pd0_0  1  0.30031050  0.30031050  0.30031050  1
  Pd  Pd0_1  1  0.30031050  0.30031050  0.80031050  1
  Pd  Pd0_2  1  0.30031050  0.80031050  0.30031050  1
  Pd  Pd0_3  1  0.30031050  0.80031050  0.80031050  1
  Pd  Pd0_4  1  0.80031050  0.30031050  0.30031050  1
  Pd  Pd0_5  1  0.80031050  0.30031050  0.80031050  1
  Pd  Pd0_6  1  0.80031050  0.80031050  0.30031050  1
  Pd  Pd0_7  1  0.80031050  0.80031050  0.80031050  1
  Pd  Pd1_0  1  0.09995800  0.09995800  0.09995800  1
  Pd  Pd1_1  1  0.09995800  0.09995800  0.59995800  1
  Pd  Pd1_2  1  0.09995800  0.59995800  0.09995800  1
  Pd  Pd1_3  1  0.09995800  0.59995800  0.59995800  1
  Pd  Pd1_4  1  0.59995800  0.09995800  0.09995800  1
  Pd  Pd1_5  1  0.59995800  0.09995800  0.59995800  1
  Pd  Pd1_6  1  0.59995800  0.59995800  0.09995800  1
  Pd  Pd1_7  1  0.59995800  0.59995800  0.59995800  1
  Pd  Pd2_0  1  0.40004200  0.40004200  0.40004200  1
  Pd  Pd2_1  1  0.40004200  0.40004200  0.90004200  1
  Pd  Pd2_2  1  0.40004200  0.90004200  0.40004200  1
  Pd  Pd2_3  1  0.40004200  0.90004200  0.90004200  1
  Pd  Pd2_4  1  0.90004200  0.40004200  0.40004200  1
  Pd  Pd2_5  1  0.90004200  0.40004200  0.90004200  1
  Pd  Pd2_6  1  0.90004200  0.90004200  0.40004200  1
  Pd  Pd2_7  1  0.90004200  0.90004200  0.90004200  1
  Pd  Pd3_0  1  0.19968950  0.19968950  0.19968950  1
  Pd  Pd3_1  1  0.19968950  0.19968950  0.69968950  1
  Pd  Pd3_2  1  0.19968950  0.69968950  0.19968950  1
  Pd  Pd3_3  1  0.19968950  0.69968950  0.69968950  1
  Pd  Pd3_4  1  0.69968950  0.19968950  0.19968950  1
  Pd  Pd3_5  1  0.69968950  0.19968950  0.69968950  1
  Pd  Pd3_6  1  0.69968950  0.69968950  0.19968950  1
  Pd  Pd3_7  1  0.69968950  0.69968950  0.69968950  1
loop_
_geom_bond_atom_site_label_1
_geom_bond_atom_site_label_2
_geom_bond_distance
_geom_bond_site_symmetry_2
Nb0_0 Pd3_1 2.804832 1_554
Nb0_0 Pd0_6 2.804832 1_445
Nb0_0 Pd3_2 2.804833 1_545
Nb0_0 Pd3_4 2.804833 1_455
Nb0_0 Pd0_3 2.804833 1_544
Nb0_0 Pd0_5 2.804833 1_454
Nb0_0 Nb0_6 2.835200 1_545
Nb0_0 Nb0_6 2.835200 1_455
Nb0_0 Nb0_5 2.835201 1_554
Nb0_0 Nb0_3 2.835201 1_554
Nb0_0 Nb0_3 2.835201 1_545
Nb0_0 Nb0_5 2.835201 1_455
Nb0_1 Pd0_7 2.804832 1_445
Nb0_1 Pd3_0 2.804832 1_555
Nb0_1 Pd3_3 2.804833 1_545
Nb0_1 Pd3_5 2.804833 1_455
Nb0_1 Pd0_2 2.804833 1_545
Nb0_1 Pd0_4 2.804833 1_455
Nb0_1 Nb0_7 2.835200 1_545
Nb0_1 Nb0_7 2.835200 1_455
Nb0_1 Nb0_4 2.835201 1_555
Nb0_1 Nb0_2 2.835201 1_555
Nb0_1 Nb0_4 2.835201 1_456
Nb0_1 Nb0_2 2.835201 1_546
Nb0_2 Pd3_3 2.804832 1_554
Nb0_2 Pd0_4 2.804832 1_455
Nb0_2 Pd3_6 2.804833 1_455
Nb0_2 Pd0_7 2.804833 1_454
Nb0_2 Pd3_0 2.804833 1_555
Nb0_2 Pd0_1 2.804833 1_554
Nb0_2 Nb0_4 2.835200 1_555
Nb0_2 Nb0_4 2.835200 1_465
Nb0_2 Nb0_7 2.835201 1_554
Nb0_2 Nb0_7 2.835201 1_455
Nb0_3 Pd3_2 2.804832 1_555
Nb0_3 Pd0_5 2.804832 1_455
Nb0_3 Pd3_7 2.804833 1_455
Nb0_3 Pd3_1 2.804833 1_555
Nb0_3 Pd0_0 2.804833 1_555
Nb0_3 Pd0_6 2.804833 1_455
Nb0_3 Nb0_5 2.835200 1_555
Nb0_3 Nb0_5 2.835200 1_465
Nb0_3 Nb0_6 2.835201 1_555
Nb0_3 Nb0_6 2.835201 1_456
Nb0_4 Pd0_2 2.804832 1_545
Nb0_4 Pd3_5 2.804832 1_554
Nb0_4 Pd3_6 2.804833 1_545
Nb0_4 Pd0_7 2.804833 1_544
Nb0_4 Pd0_1 2.804833 1_554
Nb0_4 Pd3_0 2.804833 1_555
Nb0_4 Nb0_7 2.835201 1_554
Nb0_4 Nb0_7 2.835201 1_545
Nb0_5 Pd0_3 2.804832 1_545
Nb0_5 Pd3_4 2.804832 1_555
Nb0_5 Pd3_7 2.804833 1_545
Nb0_5 Pd0_6 2.804833 1_545
Nb0_5 Pd0_0 2.804833 1_555
Nb0_5 Pd3_1 2.804833 1_555
Nb0_5 Nb0_6 2.835201 1_546
Nb0_5 Nb0_6 2.835201 1_555
Nb0_6 Pd3_7 2.804832 1_554
Nb0_6 Pd0_0 2.804832 1_555
Nb0_6 Pd0_3 2.804833 1_554
Nb0_6 Pd3_4 2.804833 1_555
Nb0_6 Pd3_2 2.804833 1_555
Nb0_6 Pd0_5 2.804833 1_554
Nb0_7 Pd3_6 2.804832 1_555
Nb0_7 Pd0_1 2.804832 1_555
Nb0_7 Pd3_3 2.804833 1_555
Nb0_7 Pd3_5 2.804833 1_555
Nb0_7 Pd0_2 2.804833 1_555
Nb0_7 Pd0_4 2.804833 1_555
Pd0_0 Pd0_6 2.835200 1_455
Pd0_0 Pd0_6 2.835200 1_545
Pd0_0 Pd0_5 2.835201 1_554
Pd0_0 Pd0_3 2.835201 1_545
Pd0_0 Pd0_3 2.835201 1_554
Pd0_0 Pd0_5 2.835201 1_455
Pd0_0 Pd1_1 2.842091 1_555
Pd0_0 Pd1_2 2.842091 1_555
Pd0_0 Pd1_4 2.842091 1_555
Pd0_1 Pd0_7 2.835200 1_455
Pd0_1 Pd0_7 2.835200 1_545
Pd0_1 Pd0_4 2.835201 1_456
Pd0_1 Pd0_2 2.835201 1_546
Pd0_1 Pd0_2 2.835201 1_555
Pd0_1 Pd0_4 2.835201 1_555
Pd0_1 Pd1_0 2.842091 1_556
Pd0_1 Pd1_5 2.842091 1_555
Pd0_1 Pd1_3 2.842091 1_555
Pd0_2 Pd0_4 2.835200 1_465
Pd0_2 Pd0_4 2.835200 1_555
Pd0_2 Pd0_7 2.835201 1_455
Pd0_2 Pd0_7 2.835201 1_554
Pd0_2 Pd1_3 2.842091 1_555
Pd0_2 Pd1_0 2.842091 1_565
Pd0_2 Pd1_6 2.842091 1_555
Pd0_3 Pd0_5 2.835200 1_555
Pd0_3 Pd0_5 2.835200 1_465
Pd0_3 Pd0_6 2.835201 1_456
Pd0_3 Pd0_6 2.835201 1_555
Pd0_3 Pd1_2 2.842091 1_556
Pd0_3 Pd1_7 2.842091 1_555
Pd0_3 Pd1_1 2.842091 1_565
Pd0_4 Pd0_7 2.835201 1_545
Pd0_4 Pd0_7 2.835201 1_554
Pd0_4 Pd1_5 2.842091 1_555
Pd0_4 Pd1_0 2.842091 1_655
Pd0_4 Pd1_6 2.842091 1_555
Pd0_5 Pd0_6 2.835201 1_546
Pd0_5 Pd0_6 2.835201 1_555
Pd0_5 Pd1_4 2.842091 1_556
Pd0_5 Pd1_7 2.842091 1_555
Pd0_5 Pd1_1 2.842091 1_655
Pd0_6 Pd1_7 2.842091 1_555
Pd0_6 Pd1_4 2.842091 1_565
Pd0_6 Pd1_2 2.842091 1_655
Pd0_7 Pd1_6 2.842091 1_556
Pd0_7 Pd1_3 2.842091 1_655
Pd0_7 Pd1_5 2.842091 1_565
Pd1_0 Pd2_6 2.817533 1_445
Pd1_0 Pd2_5 2.817533 1_454
Pd1_0 Pd2_3 2.817533 1_544
Pd1_0 Pd1_6 2.835200 1_455
Pd1_0 Pd1_6 2.835200 1_545
Pd1_0 Pd1_3 2.835201 1_554
Pd1_0 Pd1_5 2.835201 1_455
Pd1_0 Pd1_3 2.835201 1_545
Pd1_0 Pd1_5 2.835201 1_554
Pd1_1 Pd2_7 2.817533 1_445
Pd1_1 Pd2_2 2.817533 1_545
Pd1_1 Pd2_4 2.817533 1_455
Pd1_1 Pd1_7 2.835200 1_545
Pd1_1 Pd1_7 2.835200 1_455
Pd1_1 Pd1_2 2.835201 1_555
Pd1_1 Pd1_4 2.835201 1_456
Pd1_1 Pd1_2 2.835201 1_546
Pd1_1 Pd1_4 2.835201 1_555
Pd1_2 Pd2_4 2.817533 1_455
Pd1_2 Pd2_1 2.817533 1_554
Pd1_2 Pd2_7 2.817533 1_454
Pd1_2 Pd1_4 2.835200 1_555
Pd1_2 Pd1_4 2.835200 1_465
Pd1_2 Pd1_7 2.835201 1_455
Pd1_2 Pd1_7 2.835201 1_554
Pd1_3 Pd2_5 2.817533 1_455
Pd1_3 Pd2_0 2.817533 1_555
Pd1_3 Pd2_6 2.817533 1_455
Pd1_3 Pd1_5 2.835200 1_465
Pd1_3 Pd1_5 2.835200 1_555
Pd1_3 Pd1_6 2.835201 1_555
Pd1_3 Pd1_6 2.835201 1_456
Pd1_4 Pd2_2 2.817533 1_545
Pd1_4 Pd2_1 2.817533 1_554
Pd1_4 Pd2_7 2.817533 1_544
Pd1_4 Pd1_7 2.835201 1_545
Pd1_4 Pd1_7 2.835201 1_554
Pd1_5 Pd2_3 2.817533 1_545
Pd1_5 Pd2_0 2.817533 1_555
Pd1_5 Pd2_6 2.817533 1_545
Pd1_5 Pd1_6 2.835201 1_555
Pd1_5 Pd1_6 2.835201 1_546
Pd1_6 Pd2_0 2.817533 1_555
Pd1_6 Pd2_3 2.817533 1_554
Pd1_6 Pd2_5 2.817533 1_554
Pd1_7 Pd2_1 2.817533 1_555
Pd1_7 Pd2_2 2.817533 1_555
Pd1_7 Pd2_4 2.817533 1_555
Pd2_0 Pd2_6 2.835200 1_455
Pd2_0 Pd2_6 2.835200 1_545
Pd2_0 Pd2_5 2.835201 1_554
Pd2_0 Pd2_3 2.835201 1_554
Pd2_0 Pd2_5 2.835201 1_455
Pd2_0 Pd2_3 2.835201 1_545
Pd2_0 Pd3_1 2.842091 1_555
Pd2_0 Pd3_4 2.842091 1_555
Pd2_0 Pd3_2 2.842091 1_555
Pd2_1 Pd2_7 2.835200 1_455
Pd2_1 Pd2_7 2.835200 1_545
Pd2_1 Pd2_2 2.835201 1_546
Pd2_1 Pd2_4 2.835201 1_456
Pd2_1 Pd2_4 2.835201 1_555
Pd2_1 Pd2_2 2.835201 1_555
Pd2_1 Pd3_0 2.842091 1_556
Pd2_1 Pd3_3 2.842091 1_555
Pd2_1 Pd3_5 2.842091 1_555
Pd2_2 Pd2_4 2.835200 1_465
Pd2_2 Pd2_4 2.835200 1_555
Pd2_2 Pd2_7 2.835201 1_554
Pd2_2 Pd2_7 2.835201 1_455
Pd2_2 Pd3_3 2.842091 1_555
Pd2_2 Pd3_0 2.842091 1_565
Pd2_2 Pd3_6 2.842091 1_555
Pd2_3 Pd2_5 2.835200 1_555
Pd2_3 Pd2_5 2.835200 1_465
Pd2_3 Pd2_6 2.835201 1_555
Pd2_3 Pd2_6 2.835201 1_456
Pd2_3 Pd3_2 2.842091 1_556
Pd2_3 Pd3_1 2.842091 1_565
Pd2_3 Pd3_7 2.842091 1_555
Pd2_4 Pd2_7 2.835201 1_554
Pd2_4 Pd2_7 2.835201 1_545
Pd2_4 Pd3_5 2.842091 1_555
Pd2_4 Pd3_0 2.842091 1_655
Pd2_4 Pd3_6 2.842091 1_555
Pd2_5 Pd2_6 2.835201 1_555
Pd2_5 Pd2_6 2.835201 1_546
Pd2_5 Pd3_4 2.842091 1_556
Pd2_5 Pd3_1 2.842091 1_655
Pd2_5 Pd3_7 2.842091 1_555
Pd2_6 Pd3_7 2.842091 1_555
Pd2_6 Pd3_4 2.842091 1_565
Pd2_6 Pd3_2 2.842091 1_655
Pd2_7 Pd3_6 2.842091 1_556
Pd2_7 Pd3_5 2.842091 1_565
Pd2_7 Pd3_3 2.842091 1_655
Pd3_0 Pd3_6 2.835200 1_545
Pd3_0 Pd3_6 2.835200 1_455
Pd3_0 Pd3_5 2.835201 1_554
Pd3_0 Pd3_3 2.835201 1_554
Pd3_0 Pd3_3 2.835201 1_545
Pd3_0 Pd3_5 2.835201 1_455
Pd3_1 Pd3_7 2.835200 1_545
Pd3_1 Pd3_7 2.835200 1_455
Pd3_1 Pd3_2 2.835201 1_555
Pd3_1 Pd3_4 2.835201 1_555
Pd3_1 Pd3_2 2.835201 1_546
Pd3_1 Pd3_4 2.835201 1_456
Pd3_2 Pd3_4 2.835200 1_555
Pd3_2 Pd3_4 2.835200 1_465
Pd3_2 Pd3_7 2.835201 1_554
Pd3_2 Pd3_7 2.835201 1_455
Pd3_3 Pd3_5 2.835200 1_555
Pd3_3 Pd3_5 2.835200 1_465
Pd3_3 Pd3_6 2.835201 1_555
Pd3_3 Pd3_6 2.835201 1_456
Pd3_4 Pd3_7 2.835201 1_554
Pd3_4 Pd3_7 2.835201 1_545
Pd3_5 Pd3_6 2.835201 1_555
Pd3_5 Pd3_6 2.835201 1_546
