# generated using pymatgen
data_Er3Fe2Ge3
_symmetry_space_group_name_H-M   'P 1'
_cell_length_a   4.13528500
_cell_length_b   5.67869240
_cell_length_c   13.69419000
_cell_angle_alpha   90.00000000
_cell_angle_beta   90.00000000
_cell_angle_gamma   111.35254256
_symmetry_Int_Tables_number   1
_chemical_formula_structural   Er3Fe2Ge3
_chemical_formula_sum   'Er6 Fe4 Ge6'
_cell_volume   299.50678014
_cell_formula_units_Z   2
loop_
 _symmetry_equiv_pos_site_id
 _symmetry_equiv_pos_as_xyz
  1  'x, y, z'
loop_
 _atom_site_type_symbol
 _atom_site_label
 _atom_site_symmetry_multiplicity
 _atom_site_fract_x
 _atom_site_fract_y
 _atom_site_fract_z
 _atom_site_occupancy
  Er  Er0  1  0.08060500  0.16121000  0.38845800  1
  Er  Er1  1  0.91939500  0.83879000  0.61154200  1
  Er  Er2  1  0.08060500  0.16121000  0.11154200  1
  Er  Er3  1  0.91939500  0.83879000  0.88845800  1
  Er  Er4  1  0.36136800  0.72273500  0.25000000  1
  Er  Er5  1  0.63863200  0.27726500  0.75000000  1
  Fe  Fe0  1  0.21422800  0.42845500  0.91587700  1
  Fe  Fe1  1  0.78577200  0.57154500  0.08412300  1
  Fe  Fe2  1  0.21422800  0.42845500  0.58412300  1
  Fe  Fe3  1  0.78577200  0.57154500  0.41587700  1
  Ge  Ge0  1  0.37647100  0.75294100  0.45919200  1
  Ge  Ge1  1  0.62352900  0.24705900  0.54080800  1
  Ge  Ge2  1  0.37647100  0.75294100  0.04080800  1
  Ge  Ge3  1  0.62352900  0.24705900  0.95919200  1
  Ge  Ge4  1  0.66870000  0.33740000  0.25000000  1
  Ge  Ge5  1  0.33130000  0.66260000  0.75000000  1
loop_
_geom_bond_atom_site_label_1
_geom_bond_atom_site_label_2
_geom_bond_distance
_geom_bond_site_symmetry_2
Er0 Ge4 2.956108 1_555
Er0 Ge4 2.956108 1_455
Er0 Ge1 2.972202 1_555
Er0 Ge1 2.972205 1_455
Er0 Fe3 3.020922 1_555
Er0 Fe3 3.020925 1_455
Er0 Fe2 3.029417 1_555
Er0 Fe3 3.141198 1_445
Er0 Ge0 3.142602 1_445
Er0 Ge0 3.142605 1_545
Er0 Ge0 3.276078 1_555
Er1 Ge5 2.956108 1_555
Er1 Ge5 2.956108 1_655
Er1 Ge0 2.972202 1_555
Er1 Ge0 2.972205 1_655
Er1 Fe2 3.020922 1_555
Er1 Fe2 3.020925 1_655
Er1 Fe3 3.029417 1_555
Er1 Fe2 3.141198 1_665
Er1 Ge1 3.142602 1_665
Er1 Ge1 3.142605 1_565
Er1 Ge1 3.276078 1_555
Er2 Ge4 2.956108 1_555
Er2 Ge4 2.956108 1_455
Er2 Ge3 2.972202 1_554
Er2 Ge3 2.972205 1_454
Er2 Fe1 3.020922 1_555
Er2 Fe1 3.020925 1_455
Er2 Fe0 3.029417 1_554
Er2 Fe1 3.141198 1_445
Er2 Ge2 3.142602 1_445
Er2 Ge2 3.142605 1_545
Er2 Ge2 3.276078 1_555
Er3 Ge5 2.956108 1_555
Er3 Ge5 2.956108 1_655
Er3 Ge2 2.972202 1_556
Er3 Ge2 2.972205 1_656
Er3 Fe0 3.020922 1_555
Er3 Fe0 3.020925 1_655
Er3 Fe1 3.029417 1_556
Er3 Fe0 3.141198 1_665
Er3 Ge3 3.142602 1_665
Er3 Ge3 3.142605 1_565
Er3 Ge3 3.276078 1_555
Er4 Ge0 2.869166 1_555
Er4 Ge2 2.869166 1_555
Er4 Ge4 2.903199 1_555
Er4 Ge4 2.903202 1_455
Er4 Fe3 3.174032 1_555
Er4 Fe1 3.174032 1_555
Er4 Fe3 3.174037 1_455
Er4 Fe1 3.174037 1_455
Er4 Ge4 3.250898 1_565
Er5 Ge3 2.869166 1_555
Er5 Ge1 2.869166 1_555
Er5 Ge5 2.903199 1_555
Er5 Ge5 2.903202 1_655
Er5 Fe0 3.174032 1_555
Er5 Fe2 3.174032 1_555
Er5 Fe0 3.174037 1_655
Er5 Fe2 3.174037 1_655
Er5 Ge5 3.250898 1_545
Fe0 Ge3 2.355290 1_555
Fe0 Ge3 2.355297 1_455
Fe0 Ge2 2.423259 1_556
Fe0 Ge5 2.587180 1_555
Fe1 Ge2 2.355290 1_555
Fe1 Ge2 2.355297 1_655
Fe1 Ge3 2.423259 1_554
Fe1 Ge4 2.587180 1_555
Fe2 Ge1 2.355290 1_555
Fe2 Ge1 2.355297 1_455
Fe2 Ge0 2.423259 1_555
Fe2 Ge5 2.587180 1_555
Fe3 Ge0 2.355290 1_555
Fe3 Ge0 2.355297 1_655
Fe3 Ge1 2.423259 1_555
Fe3 Ge4 2.587180 1_555
Ge0 Ge1 2.842307 1_565
Ge2 Ge3 2.842307 1_564
