# generated using pymatgen
data_AlV2O4
_symmetry_space_group_name_H-M   'P 1'
_cell_length_a   5.93445948
_cell_length_b   5.93445948
_cell_length_c   5.93445948
_cell_angle_alpha   120.31384030
_cell_angle_beta   118.69854356
_cell_angle_gamma   90.86305775
_symmetry_Int_Tables_number   1
_chemical_formula_structural   AlV2O4
_chemical_formula_sum   'Al2 V4 O8'
_cell_volume   148.83283528
_cell_formula_units_Z   2
loop_
 _symmetry_equiv_pos_site_id
 _symmetry_equiv_pos_as_xyz
  1  'x, y, z'
loop_
 _atom_site_type_symbol
 _atom_site_label
 _atom_site_symmetry_multiplicity
 _atom_site_fract_x
 _atom_site_fract_y
 _atom_site_fract_z
 _atom_site_occupancy
  Al  Al0  1  0.00000000  0.00000000  0.50000000  1
  Al  Al1  1  0.00000000  0.50000000  0.00000000  1
  V  V0  1  0.50000000  0.50000000  0.00000000  1
  V  V1  1  0.50000000  0.00000000  0.00000000  1
  V  V2  1  0.00000000  0.50000000  0.50000000  1
  V  V3  1  0.50000000  0.50000000  0.50000000  1
  O  O0  1  0.23282700  0.25819400  0.52536700  1
  O  O1  1  0.77446400  0.74648600  0.02797800  1
  O  O2  1  0.23282700  0.70745900  0.97463300  1
  O  O3  1  0.78149200  0.25351400  0.52797800  1
  O  O4  1  0.76717300  0.29254100  0.02536700  1
  O  O5  1  0.22553600  0.25351400  0.97202200  1
  O  O6  1  0.21850800  0.74648600  0.47202200  1
  O  O7  1  0.76717300  0.74180600  0.47463300  1
loop_
_geom_bond_atom_site_label_1
_geom_bond_atom_site_label_2
_geom_bond_distance
_geom_bond_site_symmetry_2
Al0 O0 1.945029 1_555
Al0 O7 1.945029 1_445
Al0 O6 1.996467 1_545
Al0 O5 1.996467 1_555
Al0 O1 1.996467 1_445
Al0 O3 1.996467 1_455
Al1 O4 1.945025 1_455
Al1 O2 1.945025 1_554
Al1 O1 1.996467 1_455
Al1 O6 1.996467 1_555
Al1 O5 1.996467 1_554
Al1 O3 1.996467 1_454
O0 V0 2.017173 1_556
O0 V2 2.017173 1_555
O0 V3 2.230361 1_555
O1 V0 2.059986 1_555
O1 V3 2.238352 1_554
O1 V1 2.238352 1_565
O2 V0 2.017169 1_556
O2 V2 2.017174 1_555
O2 V1 2.230365 1_566
O3 V2 2.059986 1_655
O3 V3 2.238352 1_555
O3 V1 2.238352 1_555
O4 V0 2.017169 1_555
O4 V2 2.017174 1_655
O4 V1 2.230365 1_555
O5 V0 2.059986 1_556
O5 V3 2.238352 1_556
O5 V1 2.238352 1_556
O6 V2 2.059986 1_555
O6 V3 2.238352 1_555
O6 V1 2.238352 1_566
O7 V0 2.017173 1_555
O7 V2 2.017173 1_655
O7 V3 2.230361 1_555
