# generated using pymatgen
data_Li9Mn2Co5O16
_symmetry_space_group_name_H-M   'P 1'
_cell_length_a   4.96991200
_cell_length_b   5.87874804
_cell_length_c   9.74100532
_cell_angle_alpha   98.58240541
_cell_angle_beta   93.59134958
_cell_angle_gamma   90.08213172
_symmetry_Int_Tables_number   1
_chemical_formula_structural   Li9Mn2Co5O16
_chemical_formula_sum   'Li9 Mn2 Co5 O16'
_cell_volume   280.84529226
_cell_formula_units_Z   1
loop_
 _symmetry_equiv_pos_site_id
 _symmetry_equiv_pos_as_xyz
  1  'x, y, z'
loop_
 _atom_site_type_symbol
 _atom_site_label
 _atom_site_symmetry_multiplicity
 _atom_site_fract_x
 _atom_site_fract_y
 _atom_site_fract_z
 _atom_site_occupancy
  Li  Li0  1  0.38522700  0.80897700  0.24726700  1
  Li  Li1  1  0.61477300  0.19102300  0.75273300  1
  Li  Li2  1  0.86222800  0.56051800  0.24622400  1
  Li  Li3  1  0.86481600  0.06001000  0.24734700  1
  Li  Li4  1  0.13777200  0.43948200  0.75377600  1
  Li  Li5  1  0.38453800  0.31336500  0.24627400  1
  Li  Li6  1  0.61546200  0.68663500  0.75372600  1
  Li  Li7  1  0.13518400  0.93999000  0.75265300  1
  Li  Li8  1  0.50000000  0.50000000  0.00000000  1
  Mn  Mn0  1  0.00021600  0.74691300  0.00006300  1
  Mn  Mn1  1  0.99978400  0.25308700  0.99993700  1
  Co  Co0  1  0.24921600  0.12487200  0.49956100  1
  Co  Co1  1  0.75078400  0.87512800  0.50043900  1
  Co  Co2  1  0.24901700  0.62505400  0.49948900  1
  Co  Co3  1  0.50000000  0.00000000  0.00000000  1
  Co  Co4  1  0.75098300  0.37494600  0.50051100  1
  O  O0  1  0.15608300  0.52720300  0.11098200  1
  O  O1  1  0.44658600  0.90487300  0.61711600  1
  O  O2  1  0.69305800  0.26124300  0.11006200  1
  O  O3  1  0.69296000  0.79259300  0.11015800  1
  O  O4  1  0.94519200  0.15499400  0.61702800  1
  O  O5  1  0.18296600  0.02630100  0.10713400  1
  O  O6  1  0.44632900  0.40589400  0.61849300  1
  O  O7  1  0.94537000  0.65533900  0.61684200  1
  O  O8  1  0.55341400  0.09512700  0.38288400  1
  O  O9  1  0.84391700  0.47279700  0.88901800  1
  O  O10  1  0.05480800  0.84500600  0.38297200  1
  O  O11  1  0.05463000  0.34466100  0.38315800  1
  O  O12  1  0.30694200  0.73875700  0.88993800  1
  O  O13  1  0.55367100  0.59410600  0.38150700  1
  O  O14  1  0.81703400  0.97369900  0.89286600  1
  O  O15  1  0.30704000  0.20740700  0.88984200  1
loop_
_geom_bond_atom_site_label_1
_geom_bond_atom_site_label_2
_geom_bond_distance
_geom_bond_site_symmetry_2
Li0 O3 2.085680 1_555
Li0 O13 2.089309 1_555
Li0 O8 2.113770 1_565
Li0 O10 2.162947 1_555
Li0 O5 2.204160 1_565
Li0 O0 2.225329 1_555
Li1 O15 2.085680 1_555
Li1 O6 2.089309 1_555
Li1 O1 2.113770 1_545
Li1 O4 2.162947 1_555
Li1 O14 2.204160 1_545
Li1 O9 2.225329 1_555
Li2 O0 2.017819 1_655
Li2 O13 2.074504 1_555
Li2 O11 2.157022 1_655
Li2 O10 2.158298 1_655
Li2 O2 2.172793 1_555
Li2 O3 2.174646 1_555
Li3 O3 2.052538 1_545
Li3 O2 2.061205 1_555
Li3 O8 2.087215 1_555
Li3 O10 2.140110 1_645
Li3 O5 2.143715 1_655
Li3 O11 2.149119 1_655
Li4 O9 2.017819 1_455
Li4 O6 2.074504 1_555
Li4 O7 2.157022 1_455
Li4 O4 2.158298 1_455
Li4 O12 2.172793 1_555
Li4 O15 2.174646 1_555
Li5 O2 2.083348 1_555
Li5 O13 2.091439 1_555
Li5 O8 2.119896 1_555
Li5 O11 2.168327 1_555
Li5 O5 2.197931 1_555
Li5 O0 2.217508 1_555
Li6 O12 2.083348 1_555
Li6 O6 2.091439 1_555
Li6 O1 2.119896 1_555
Li6 O7 2.168327 1_555
Li6 O14 2.197931 1_555
Li6 O9 2.217508 1_555
Li7 O15 2.052538 1_565
Li7 O12 2.061205 1_555
Li7 O1 2.087215 1_555
Li7 O4 2.140110 1_465
Li7 O14 2.143715 1_455
Li7 O7 2.149119 1_455
Li8 O9 2.072793 1_554
Li8 O0 2.072793 1_555
Li8 O3 2.084527 1_555
Li8 O15 2.084527 1_554
Li8 O12 2.089073 1_554
Li8 O2 2.089073 1_555
Mn0 O12 1.914828 1_554
Mn0 O3 1.916887 1_455
Mn0 O9 1.934206 1_454
Mn0 O0 1.936566 1_555
Mn0 O5 1.994026 1_565
Mn0 O14 1.999138 1_454
Mn1 O2 1.914828 1_556
Mn1 O15 1.916887 1_655
Mn1 O0 1.934206 1_656
Mn1 O9 1.936566 1_555
Mn1 O14 1.994026 1_545
Mn1 O5 1.999138 1_656
Co0 O8 1.940280 1_555
Co0 O4 1.944373 1_455
Co0 O11 2.047897 1_555
Co0 O10 2.056818 1_545
Co0 O1 2.061810 1_545
Co0 O6 2.076795 1_555
Co1 O1 1.940280 1_555
Co1 O10 1.944373 1_655
Co1 O7 2.047897 1_555
Co1 O4 2.056818 1_565
Co1 O8 2.061810 1_565
Co1 O13 2.076795 1_555
Co2 O7 1.942160 1_455
Co2 O13 1.950077 1_555
Co2 O10 2.048448 1_555
Co2 O11 2.057984 1_555
Co2 O6 2.066959 1_555
Co2 O1 2.067569 1_555
Co3 O5 1.937561 1_555
Co3 O14 1.937561 1_544
Co3 O12 1.950419 1_544
Co3 O2 1.950419 1_555
Co3 O3 1.955176 1_545
Co3 O15 1.955176 1_554
Co4 O11 1.942160 1_655
Co4 O6 1.950077 1_555
Co4 O4 2.048448 1_555
Co4 O7 2.057984 1_555
Co4 O13 2.066959 1_555
Co4 O8 2.067569 1_555
