# generated using pymatgen
data_Ga7Te10
_symmetry_space_group_name_H-M   'P 1'
_cell_length_a   10.34446576
_cell_length_b   10.34446625
_cell_length_c   10.34446608
_cell_angle_alpha   89.63052165
_cell_angle_beta   89.63053054
_cell_angle_gamma   89.63052205
_symmetry_Int_Tables_number   1
_chemical_formula_structural   Ga7Te10
_chemical_formula_sum   'Ga14 Te20'
_cell_volume   1106.87163694
_cell_formula_units_Z   2
loop_
 _symmetry_equiv_pos_site_id
 _symmetry_equiv_pos_as_xyz
  1  'x, y, z'
loop_
 _atom_site_type_symbol
 _atom_site_label
 _atom_site_symmetry_multiplicity
 _atom_site_fract_x
 _atom_site_fract_y
 _atom_site_fract_z
 _atom_site_occupancy
  Ga  Ga0  1  0.56915333  0.56915333  0.56915333  1
  Ga  Ga1  1  0.43084667  0.43084667  0.43084667  1
  Ga  Ga2  1  0.16659037  0.34118757  0.74477314  1
  Ga  Ga3  1  0.74477314  0.16659037  0.34118757  1
  Ga  Ga4  1  0.34118757  0.74477314  0.16659037  1
  Ga  Ga5  1  0.65881243  0.83340963  0.25522686  1
  Ga  Ga6  1  0.25522686  0.65881243  0.83340963  1
  Ga  Ga7  1  0.83340963  0.25522686  0.65881243  1
  Ga  Ga8  1  0.88570671  0.57754877  0.84674522  1
  Ga  Ga9  1  0.84674522  0.88570671  0.57754877  1
  Ga  Ga10  1  0.57754877  0.84674522  0.88570671  1
  Ga  Ga11  1  0.42245123  0.11429329  0.15325478  1
  Ga  Ga12  1  0.15325478  0.42245123  0.11429329  1
  Ga  Ga13  1  0.11429329  0.15325478  0.42245123  1
  Te  Te0  1  0.83110973  0.83110973  0.83110973  1
  Te  Te1  1  0.16889027  0.16889027  0.16889027  1
  Te  Te2  1  0.82413981  -0.00000000  0.17586019  1
  Te  Te3  1  0.17586019  0.82413981  0.00000000  1
  Te  Te4  1  -0.00000000  0.17586019  0.82413981  1
  Te  Te5  1  0.91642160  0.50000000  0.08357840  1
  Te  Te6  1  0.08357840  0.91642160  0.50000000  1
  Te  Te7  1  0.50000000  0.08357840  0.91642160  1
  Te  Te8  1  0.68526558  0.43836043  0.76185963  1
  Te  Te9  1  0.76185963  0.68526558  0.43836043  1
  Te  Te10  1  0.43836043  0.76185963  0.68526558  1
  Te  Te11  1  0.56163957  0.31473442  0.23814037  1
  Te  Te12  1  0.23814037  0.56163957  0.31473442  1
  Te  Te13  1  0.31473442  0.23814037  0.56163957  1
  Te  Te14  1  0.07441235  0.57288895  0.67149998  1
  Te  Te15  1  0.67149998  0.07441235  0.57288895  1
  Te  Te16  1  0.57288895  0.67149998  0.07441235  1
  Te  Te17  1  0.42711105  0.92558765  0.32850002  1
  Te  Te18  1  0.32850002  0.42711105  0.92558765  1
  Te  Te19  1  0.92558765  0.32850002  0.42711105  1
loop_
_geom_bond_atom_site_label_1
_geom_bond_atom_site_label_2
_geom_bond_distance
_geom_bond_site_symmetry_2
Ga0 Ga1 2.493989 1_555
Ga0 Te8 2.687416 1_555
Ga0 Te10 2.687416 1_555
Ga0 Te9 2.687416 1_555
Ga1 Te12 2.687416 1_555
Ga1 Te13 2.687416 1_555
Ga1 Te11 2.687416 1_555
Ga2 Te4 2.563258 1_555
Ga2 Te13 2.653510 1_555
Ga2 Te18 2.678574 1_555
Ga2 Te14 2.680474 1_555
Ga3 Te2 2.563258 1_555
Ga3 Te11 2.653509 1_555
Ga3 Te19 2.678574 1_555
Ga3 Te15 2.680474 1_555
Ga4 Te3 2.563258 1_555
Ga4 Te12 2.653510 1_555
Ga4 Te17 2.678574 1_555
Ga4 Te16 2.680474 1_555
Ga5 Te2 2.563258 1_565
Ga5 Te9 2.653509 1_555
Ga5 Te16 2.678574 1_555
Ga5 Te17 2.680474 1_555
Ga6 Te3 2.563258 1_556
Ga6 Te10 2.653510 1_555
Ga6 Te14 2.678574 1_555
Ga6 Te18 2.680474 1_555
Ga7 Te4 2.563258 1_655
Ga7 Te8 2.653510 1_555
Ga7 Te15 2.678574 1_555
Ga7 Te19 2.680474 1_555
Ga8 Te5 2.593830 1_556
Ga8 Te14 2.655832 1_655
Ga8 Te0 2.683583 1_555
Ga8 Te8 2.687317 1_555
Ga9 Te6 2.593830 1_655
Ga9 Te15 2.655832 1_565
Ga9 Te0 2.683583 1_555
Ga9 Te9 2.687317 1_555
Ga10 Te7 2.593830 1_565
Ga10 Te16 2.655832 1_556
Ga10 Te0 2.683582 1_555
Ga10 Te10 2.687317 1_555
Ga11 Te7 2.593830 1_554
Ga11 Te17 2.655832 1_545
Ga11 Te1 2.683582 1_555
Ga11 Te11 2.687317 1_555
Ga12 Te5 2.593830 1_455
Ga12 Te18 2.655832 1_554
Ga12 Te1 2.683583 1_555
Ga12 Te12 2.687317 1_555
Ga13 Te6 2.593830 1_545
Ga13 Te19 2.655832 1_455
Ga13 Te1 2.683583 1_555
Ga13 Te13 2.687317 1_555
