# generated using pymatgen
data_CsSnN
_symmetry_space_group_name_H-M   'P 1'
_cell_length_a   3.59170000
_cell_length_b   3.59170048
_cell_length_c   13.35355200
_cell_angle_alpha   90.00000000
_cell_angle_beta   90.00000000
_cell_angle_gamma   119.99999556
_symmetry_Int_Tables_number   1
_chemical_formula_structural   CsSnN
_chemical_formula_sum   'Cs2 Sn2 N2'
_cell_volume   149.18584578
_cell_formula_units_Z   2
loop_
 _symmetry_equiv_pos_site_id
 _symmetry_equiv_pos_as_xyz
  1  'x, y, z'
loop_
 _atom_site_type_symbol
 _atom_site_label
 _atom_site_symmetry_multiplicity
 _atom_site_fract_x
 _atom_site_fract_y
 _atom_site_fract_z
 _atom_site_occupancy
  Cs  Cs0  1  0.66666900  0.33333800  0.75055200  1
  Cs  Cs1  1  0.33333100  0.66666200  0.25055200  1
  Sn  Sn0  1  0.99999700  0.99999400  0.50872500  1
  Sn  Sn1  1  0.00000300  0.00000600  0.00872500  1
  N  N0  1  0.33333100  0.66666200  0.58536200  1
  N  N1  1  0.66666900  0.33333800  0.08536200  1
loop_
_geom_bond_atom_site_label_1
_geom_bond_atom_site_label_2
_geom_bond_distance
_geom_bond_site_symmetry_2
Cs0 N0 3.027527 1_655
Cs0 N0 3.027527 1_555
Cs0 N0 3.027557 1_545
Cs1 N1 3.027527 1_455
Cs1 N1 3.027527 1_555
Cs1 N1 3.027557 1_565
N0 Sn0 2.312443 1_555
N0 Sn0 2.312443 1_455
N0 Sn0 2.312449 1_445
N1 Sn1 2.312443 1_655
N1 Sn1 2.312443 1_555
N1 Sn1 2.312449 1_665
