# generated using pymatgen
data_MnC4ClO4
_symmetry_space_group_name_H-M   'P 1'
_cell_length_a   11.97372100
_cell_length_b   9.71615900
_cell_length_c   13.07077558
_cell_angle_alpha   70.41552291
_cell_angle_beta   90.00000000
_cell_angle_gamma   90.00000000
_symmetry_Int_Tables_number   1
_chemical_formula_structural   MnC4ClO4
_chemical_formula_sum   'Mn8 C32 Cl8 O32'
_cell_volume   1432.66408808
_cell_formula_units_Z   8
loop_
 _symmetry_equiv_pos_site_id
 _symmetry_equiv_pos_as_xyz
  1  'x, y, z'
loop_
 _atom_site_type_symbol
 _atom_site_label
 _atom_site_symmetry_multiplicity
 _atom_site_fract_x
 _atom_site_fract_y
 _atom_site_fract_z
 _atom_site_occupancy
  Mn  Mn0  1  0.87958400  0.40561100  0.82502200  1
  Mn  Mn1  1  0.37958400  0.59438900  0.67497800  1
  Mn  Mn2  1  0.12041600  0.59438900  0.17497800  1
  Mn  Mn3  1  0.62041600  0.40561100  0.32502200  1
  Mn  Mn4  1  0.87359000  0.81072900  0.72281900  1
  Mn  Mn5  1  0.37359000  0.18927100  0.77718100  1
  Mn  Mn6  1  0.12641000  0.18927100  0.27718100  1
  Mn  Mn7  1  0.62641000  0.81072900  0.22281900  1
  C  C0  1  0.96701200  0.41292200  0.70297600  1
  C  C1  1  0.46701200  0.58707800  0.79702400  1
  C  C2  1  0.03298800  0.58707800  0.29702400  1
  C  C3  1  0.53298800  0.41292200  0.20297600  1
  C  C4  1  0.97320300  0.26804800  0.91475600  1
  C  C5  1  0.47320300  0.73195200  0.58524400  1
  C  C6  1  0.02679700  0.73195200  0.08524400  1
  C  C7  1  0.52679700  0.26804800  0.41475600  1
  C  C8  1  0.79272700  0.26273900  0.80425700  1
  C  C9  1  0.29272700  0.73726100  0.69574300  1
  C  C10  1  0.20727300  0.73726100  0.19574300  1
  C  C11  1  0.70727300  0.26273900  0.30425700  1
  C  C12  1  0.79088000  0.40483100  0.94495000  1
  C  C13  1  0.29088000  0.59516900  0.55505000  1
  C  C14  1  0.20912000  0.59516900  0.05505000  1
  C  C15  1  0.70912000  0.40483100  0.44495000  1
  C  C16  1  0.96496900  0.80647500  0.60695900  1
  C  C17  1  0.46496900  0.19352500  0.89304100  1
  C  C18  1  0.03503100  0.19352500  0.39304100  1
  C  C19  1  0.53503100  0.80647500  0.10695900  1
  C  C20  1  0.96089800  0.95336900  0.74405200  1
  C  C21  1  0.46089800  0.04663100  0.75594800  1
  C  C22  1  0.03910200  0.04663100  0.25594800  1
  C  C23  1  0.53910200  0.95336900  0.24405200  1
  C  C24  1  0.78315600  0.94849900  0.62966900  1
  C  C25  1  0.28315600  0.05150100  0.87033100  1
  C  C26  1  0.21684400  0.05150100  0.37033100  1
  C  C27  1  0.71684400  0.94849900  0.12966900  1
  C  C28  1  0.78155200  0.80525200  0.84192500  1
  C  C29  1  0.28155200  0.19474800  0.65807500  1
  C  C30  1  0.21844800  0.19474800  0.15807500  1
  C  C31  1  0.71844800  0.80525200  0.34192500  1
  Cl  Cl0  1  0.98583600  0.61163500  0.84207500  1
  Cl  Cl1  1  0.48583600  0.38836500  0.65792500  1
  Cl  Cl2  1  0.01416400  0.38836500  0.15792500  1
  Cl  Cl3  1  0.51416400  0.61163500  0.34207500  1
  Cl  Cl4  1  0.76576500  0.60523800  0.70690700  1
  Cl  Cl5  1  0.26576500  0.39476200  0.79309300  1
  Cl  Cl6  1  0.23423500  0.39476200  0.29309300  1
  Cl  Cl7  1  0.73423500  0.60523800  0.20690700  1
  O  O0  1  0.01903600  0.41503600  0.62827600  1
  O  O1  1  0.51903600  0.58496400  0.87172400  1
  O  O2  1  0.98096400  0.58496400  0.37172400  1
  O  O3  1  0.48096400  0.41503600  0.12827600  1
  O  O4  1  0.03151500  0.17987500  0.97091400  1
  O  O5  1  0.53151500  0.82012500  0.52908600  1
  O  O6  1  0.96848500  0.82012500  0.02908600  1
  O  O7  1  0.46848500  0.17987500  0.47091400  1
  O  O8  1  0.73904700  0.17038400  0.79151100  1
  O  O9  1  0.23904700  0.82961600  0.70848900  1
  O  O10  1  0.26095300  0.82961600  0.20848900  1
  O  O11  1  0.76095300  0.17038400  0.29151100  1
  O  O12  1  0.73625200  0.40069300  0.01853200  1
  O  O13  1  0.23625200  0.59930700  0.48146800  1
  O  O14  1  0.26374800  0.59930700  0.98146800  1
  O  O15  1  0.76374800  0.40069300  0.51853200  1
  O  O16  1  0.02210700  0.80665000  0.53572200  1
  O  O17  1  0.52210700  0.19335000  0.96427800  1
  O  O18  1  0.97789300  0.19335000  0.46427800  1
  O  O19  1  0.47789300  0.80665000  0.03572200  1
  O  O20  1  0.01534000  0.04487500  0.75698700  1
  O  O21  1  0.51534000  0.95512500  0.74301300  1
  O  O22  1  0.98466000  0.95512500  0.24301300  1
  O  O23  1  0.48466000  0.04487500  0.25698700  1
  O  O24  1  0.72751000  0.03717100  0.57018000  1
  O  O25  1  0.22751000  0.96282900  0.92982000  1
  O  O26  1  0.27249000  0.96282900  0.42982000  1
  O  O27  1  0.77249000  0.03717100  0.07018000  1
  O  O28  1  0.72471400  0.80361000  0.91347100  1
  O  O29  1  0.22471400  0.19639000  0.58652900  1
  O  O30  1  0.27528600  0.19639000  0.08652900  1
  O  O31  1  0.77528600  0.80361000  0.41347100  1
loop_
_geom_bond_atom_site_label_1
_geom_bond_atom_site_label_2
_geom_bond_distance
_geom_bond_site_symmetry_2
C0 O0 1.152536 1_655
C0 Mn0 1.889372 1_555
C1 O1 1.152536 1_555
C1 Mn1 1.889372 1_555
C2 O2 1.152536 1_455
C2 Mn2 1.889372 1_555
C3 O3 1.152536 1_555
C3 Mn3 1.889372 1_555
C4 O4 1.157007 1_655
C4 Mn0 1.835143 1_555
C5 O5 1.157007 1_555
C5 Mn1 1.835143 1_555
C6 O6 1.157007 1_455
C6 Mn2 1.835143 1_555
C7 O7 1.157007 1_555
C7 Mn3 1.835143 1_555
C8 O8 1.160308 1_555
C8 Mn0 1.826160 1_555
C9 O9 1.160308 1_555
C9 Mn1 1.826160 1_555
C10 O10 1.160308 1_555
C10 Mn2 1.826160 1_555
C11 O11 1.160308 1_555
C11 Mn3 1.826160 1_555
C12 O12 1.152627 1_556
C12 Mn0 1.891403 1_555
C13 O13 1.152627 1_555
C13 Mn1 1.891403 1_555
C14 O14 1.152627 1_554
C14 Mn2 1.891403 1_555
C15 O15 1.152627 1_555
C15 Mn3 1.891403 1_555
C16 O16 1.154989 1_655
C16 Mn4 1.879940 1_555
C17 O17 1.154989 1_555
C17 Mn5 1.879940 1_555
C18 O18 1.154989 1_455
C18 Mn6 1.879940 1_555
C19 O19 1.154989 1_555
C19 Mn7 1.879940 1_555
C20 O20 1.159643 1_665
C20 Mn4 1.829891 1_555
C21 O21 1.159643 1_545
C21 Mn5 1.829891 1_555
C22 O22 1.159643 1_445
C22 Mn6 1.829891 1_555
C23 O23 1.159643 1_565
C23 Mn7 1.829891 1_555
C24 O24 1.158326 1_565
C24 Mn4 1.831439 1_555
C25 O25 1.158326 1_545
C25 Mn5 1.831439 1_555
C26 O26 1.158326 1_545
C26 Mn6 1.831439 1_555
C27 O27 1.158326 1_565
C27 Mn7 1.831439 1_555
C28 O28 1.152365 1_555
C28 Mn4 1.893523 1_555
C29 O29 1.152365 1_555
C29 Mn5 1.893523 1_555
C30 O30 1.152365 1_555
C30 Mn6 1.893523 1_555
C31 O31 1.152365 1_555
C31 Mn7 1.893523 1_555
Cl0 Mn4 2.440628 1_555
Cl0 Mn0 2.444264 1_555
Cl1 Mn5 2.440628 1_555
Cl1 Mn1 2.444264 1_555
Cl2 Mn6 2.440628 1_555
Cl2 Mn2 2.444264 1_555
Cl3 Mn7 2.440628 1_555
Cl3 Mn3 2.444264 1_555
Cl4 Mn4 2.444348 1_555
Cl4 Mn0 2.448554 1_555
Cl5 Mn5 2.444348 1_555
Cl5 Mn1 2.448554 1_555
Cl6 Mn6 2.444348 1_555
Cl6 Mn2 2.448554 1_555
Cl7 Mn7 2.444348 1_555
Cl7 Mn3 2.448554 1_555
