# generated using pymatgen
data_Y3(GaNi3)2
_symmetry_space_group_name_H-M   'P 1'
_cell_length_a   7.71390824
_cell_length_b   7.71390824
_cell_length_c   7.71390824
_cell_angle_alpha   109.47122063
_cell_angle_beta   109.47122063
_cell_angle_gamma   109.47122063
_symmetry_Int_Tables_number   1
_chemical_formula_structural   Y3(GaNi3)2
_chemical_formula_sum   'Y6 Ga4 Ni12'
_cell_volume   353.34708668
_cell_formula_units_Z   2
loop_
 _symmetry_equiv_pos_site_id
 _symmetry_equiv_pos_as_xyz
  1  'x, y, z'
loop_
 _atom_site_type_symbol
 _atom_site_label
 _atom_site_symmetry_multiplicity
 _atom_site_fract_x
 _atom_site_fract_y
 _atom_site_fract_z
 _atom_site_occupancy
  Y  Y0  1  0.71001400  0.71001400  0.00000000  1
  Y  Y1  1  0.28998600  0.00000000  0.28998600  1
  Y  Y2  1  0.00000000  0.28998600  0.28998600  1
  Y  Y3  1  0.28998600  0.28998600  0.00000000  1
  Y  Y4  1  0.71001400  0.00000000  0.71001400  1
  Y  Y5  1  0.00000000  0.71001400  0.71001400  1
  Ga  Ga0  1  0.00000000  0.00000000  0.50000000  1
  Ga  Ga1  1  0.00000000  0.50000000  0.00000000  1
  Ga  Ga2  1  0.50000000  0.00000000  0.00000000  1
  Ga  Ga3  1  0.50000000  0.50000000  0.50000000  1
  Ni  Ni0  1  0.33612200  0.33612200  0.67224500  1
  Ni  Ni1  1  0.66387800  0.00000000  0.33612200  1
  Ni  Ni2  1  0.00000000  0.66387800  0.33612200  1
  Ni  Ni3  1  0.66387800  0.33612200  0.00000000  1
  Ni  Ni4  1  0.33612200  0.67224500  0.33612200  1
  Ni  Ni5  1  0.00000000  0.33612200  0.66387800  1
  Ni  Ni6  1  0.33612200  0.66387800  0.00000000  1
  Ni  Ni7  1  0.33612200  0.00000000  0.66387800  1
  Ni  Ni8  1  0.67224500  0.33612200  0.33612200  1
  Ni  Ni9  1  0.66387800  0.66387800  0.32775500  1
  Ni  Ni10  1  0.66387800  0.32775500  0.66387800  1
  Ni  Ni11  1  0.32775500  0.66387800  0.66387800  1
loop_
_geom_bond_atom_site_label_1
_geom_bond_atom_site_label_2
_geom_bond_distance
_geom_bond_site_symmetry_2
Ga0 Ni0 2.477016 1_555
Ga0 Ni9 2.477016 1_445
Ga0 Ni7 2.477017 1_555
Ga0 Ni5 2.477017 1_555
Ga0 Ni1 2.477017 1_455
Ga0 Ni2 2.477017 1_545
Ga0 Y1 3.169267 1_555
Ga0 Y3 3.169267 1_556
Ga0 Y2 3.169267 1_555
Ga0 Y5 3.169267 1_545
Ga0 Y0 3.169267 1_445
Ga0 Y4 3.169267 1_455
Ga1 Ni4 2.477016 1_555
Ga1 Ni10 2.477016 1_454
Ga1 Ni6 2.477017 1_555
Ga1 Ni2 2.477017 1_555
Ga1 Ni3 2.477017 1_455
Ga1 Ni5 2.477017 1_554
Ga1 Y1 3.169267 1_565
Ga1 Y0 3.169267 1_455
Ga1 Y2 3.169267 1_555
Ga1 Y3 3.169267 1_555
Ga1 Y4 3.169267 1_454
Ga1 Y5 3.169267 1_554
Ga2 Ni8 2.477016 1_555
Ga2 Ni11 2.477016 1_544
Ga2 Ni3 2.477017 1_555
Ga2 Ni1 2.477017 1_555
Ga2 Ni7 2.477017 1_554
Ga2 Ni6 2.477017 1_545
Ga2 Y1 3.169267 1_555
Ga2 Y2 3.169267 1_655
Ga2 Y3 3.169267 1_555
Ga2 Y4 3.169267 1_554
Ga2 Y0 3.169267 1_545
Ga2 Y5 3.169267 1_544
Ga3 Ni9 2.477024 1_555
Ga3 Ni10 2.477024 1_555
Ga3 Ni11 2.477024 1_555
Ga3 Ni8 2.477024 1_555
Ga3 Ni0 2.477024 1_555
Ga3 Ni4 2.477024 1_555
Ga3 Y0 3.169267 1_556
Ga3 Y1 3.169267 1_555
Ga3 Y2 3.169267 1_555
Ga3 Y4 3.169267 1_565
Ga3 Y3 3.169267 1_555
Ga3 Y5 3.169267 1_655
Ni0 Ni7 2.572020 1_555
Ni0 Ni5 2.572020 1_555
Ni0 Ni10 2.572028 1_555
Ni0 Ni11 2.572028 1_555
Ni0 Y3 2.785812 1_556
Ni0 Y0 2.785818 1_556
Ni0 Ni6 2.919401 1_556
Ni0 Ni3 2.919401 1_556
Ni0 Y1 3.022001 1_555
Ni0 Y2 3.022001 1_555
Ni1 Ni8 2.572020 1_555
Ni1 Ni9 2.572020 1_545
Ni1 Ni5 2.572023 1_655
Ni1 Ni6 2.572023 1_545
Ni1 Y1 2.785819 1_555
Ni1 Y4 2.785819 1_555
Ni1 Ni10 2.919401 1_555
Ni1 Ni4 2.919401 1_545
Ni1 Y0 3.021996 1_545
Ni1 Y2 3.021996 1_655
Ni2 Ni4 2.572020 1_555
Ni2 Ni9 2.572020 1_455
Ni2 Ni7 2.572023 1_565
Ni2 Ni3 2.572023 1_455
Ni2 Y2 2.785819 1_555
Ni2 Y5 2.785819 1_555
Ni2 Ni8 2.919401 1_455
Ni2 Y0 3.021996 1_455
Ni2 Y1 3.021996 1_565
Ni3 Ni8 2.572020 1_555
Ni3 Ni7 2.572023 1_554
Ni3 Y3 2.785819 1_555
Ni3 Y0 2.785819 1_555
Ni3 Ni9 2.919401 1_555
Ni3 Y2 3.021996 1_655
Ni3 Y4 3.021996 1_554
Ni4 Ni6 2.572020 1_555
Ni4 Ni9 2.572028 1_555
Ni4 Y1 2.785812 1_565
Ni4 Y4 2.785818 1_565
Ni4 Ni7 2.919401 1_565
Ni4 Y2 3.022001 1_555
Ni4 Y3 3.022001 1_555
Ni5 Ni6 2.572023 1_556
Ni5 Y2 2.785819 1_555
Ni5 Y5 2.785819 1_555
Ni5 Ni8 2.919401 1_455
Ni5 Y4 3.021996 1_455
Ni5 Y3 3.021996 1_556
Ni6 Y3 2.785819 1_555
Ni6 Y0 2.785819 1_555
Ni6 Ni9 2.919401 1_555
Ni6 Y1 3.021996 1_565
Ni6 Y5 3.021996 1_554
Ni7 Y1 2.785819 1_555
Ni7 Y4 2.785819 1_555
Ni7 Y3 3.021996 1_556
Ni7 Y5 3.021996 1_545
Ni8 Ni9 2.572028 1_555
Ni8 Y2 2.785812 1_655
Ni8 Y5 2.785818 1_655
Ni8 Y1 3.022001 1_555
Ni8 Y3 3.022001 1_555
Ni9 Y0 2.785812 1_555
Ni9 Y3 2.785818 1_555
Ni9 Y4 3.022001 1_565
Ni9 Y5 3.022001 1_655
Ni10 Ni5 2.572020 1_655
Ni10 Ni3 2.572020 1_556
Ni10 Ni8 2.572028 1_555
Ni10 Y4 2.785812 1_555
Ni10 Y1 2.785818 1_555
Ni10 Ni7 2.919401 1_555
Ni10 Y0 3.022001 1_556
Ni10 Y5 3.022001 1_655
Ni11 Ni7 2.572020 1_565
Ni11 Ni6 2.572020 1_556
Ni11 Ni4 2.572028 1_555
Ni11 Y5 2.785812 1_555
Ni11 Y2 2.785818 1_555
Ni11 Ni2 2.919401 1_555
Ni11 Ni5 2.919401 1_555
Ni11 Y4 3.022001 1_565
Ni11 Y0 3.022001 1_556
