# generated using pymatgen
data_CaNiGe2
_symmetry_space_group_name_H-M   'P 1'
_cell_length_a   4.05554515
_cell_length_b   4.21248772
_cell_length_c   8.79981804
_cell_angle_alpha   103.84822999
_cell_angle_beta   90.00000000
_cell_angle_gamma   90.00000000
_symmetry_Int_Tables_number   1
_chemical_formula_structural   CaNiGe2
_chemical_formula_sum   'Ca2 Ni2 Ge4'
_cell_volume   145.96573147
_cell_formula_units_Z   2
loop_
 _symmetry_equiv_pos_site_id
 _symmetry_equiv_pos_as_xyz
  1  'x, y, z'
loop_
 _atom_site_type_symbol
 _atom_site_label
 _atom_site_symmetry_multiplicity
 _atom_site_fract_x
 _atom_site_fract_y
 _atom_site_fract_z
 _atom_site_occupancy
  Ca  Ca0  1  0.25000000  0.89111347  0.78222694  1
  Ca  Ca1  1  0.75000000  0.10888653  0.21777306  1
  Ni  Ni0  1  0.75000000  0.32138692  0.64277383  1
  Ni  Ni1  1  0.25000000  0.67861308  0.35722617  1
  Ge  Ge0  1  0.75000000  0.74997142  0.49994183  1
  Ge  Ge1  1  0.25000000  0.25002858  0.50005817  1
  Ge  Ge2  1  0.25000000  0.54293775  0.08587449  1
  Ge  Ge3  1  0.75000000  0.45706225  0.91412551  1
loop_
_geom_bond_atom_site_label_1
_geom_bond_atom_site_label_2
_geom_bond_distance
_geom_bond_site_symmetry_2
Ca0 Ge3 3.133388 1_565
Ca0 Ge3 3.133388 1_465
Ca0 Ge3 3.133391 1_455
Ca0 Ge3 3.133391 1_555
Ca0 Ge0 3.151016 1_455
Ca0 Ge0 3.151016 1_555
Ca0 Ni0 3.157179 1_455
Ca0 Ni0 3.157179 1_555
Ca0 Ni0 3.157179 1_565
Ca0 Ni0 3.157179 1_465
Ca0 Ge1 3.201328 1_565
Ca0 Ge1 3.201331 1_555
Ca0 Ge2 3.341712 1_556
Ca0 Ge2 3.341714 1_566
Ca1 Ge2 3.133388 1_645
Ca1 Ge2 3.133388 1_545
Ca1 Ge2 3.133391 1_555
Ca1 Ge2 3.133391 1_655
Ca1 Ge1 3.151016 1_655
Ca1 Ge1 3.151016 1_555
Ca1 Ni1 3.157179 1_655
Ca1 Ni1 3.157179 1_555
Ca1 Ni1 3.157179 1_645
Ca1 Ni1 3.157179 1_545
Ca1 Ge0 3.201328 1_545
Ca1 Ge0 3.201331 1_555
Ca1 Ge3 3.341712 1_554
Ca1 Ge3 3.341714 1_544
Ge0 Ni1 2.366161 1_555
Ge0 Ni1 2.366161 1_655
Ge0 Ni0 2.434243 1_565
Ge0 Ni0 2.434246 1_555
Ge1 Ni0 2.366161 1_455
Ge1 Ni0 2.366161 1_555
Ge1 Ni1 2.434243 1_545
Ge1 Ni1 2.434246 1_555
Ge2 Ni1 2.318438 1_555
Ge2 Ge3 2.503040 1_554
Ge2 Ge3 2.503040 1_454
Ge3 Ni0 2.318438 1_555
