# generated using pymatgen
data_Fe3Au
_symmetry_space_group_name_H-M   'P 1'
_cell_length_a   4.67886283
_cell_length_b   4.67886283
_cell_length_c   4.67886283
_cell_angle_alpha   132.72021425
_cell_angle_beta   132.72021425
_cell_angle_gamma   69.09387784
_symmetry_Int_Tables_number   1
_chemical_formula_structural   Fe3Au
_chemical_formula_sum   'Fe3 Au1'
_cell_volume   54.26132697
_cell_formula_units_Z   1
loop_
 _symmetry_equiv_pos_site_id
 _symmetry_equiv_pos_as_xyz
  1  'x, y, z'
loop_
 _atom_site_type_symbol
 _atom_site_label
 _atom_site_symmetry_multiplicity
 _atom_site_fract_x
 _atom_site_fract_y
 _atom_site_fract_z
 _atom_site_occupancy
  Fe  Fe0  1  0.75000000  0.25000000  0.50000000  1
  Fe  Fe1  1  0.25000000  0.75000000  0.50000000  1
  Fe  Fe2  1  0.50000000  0.50000000  0.00000000  1
  Au  Au0  1  0.00000000  0.00000000  0.00000000  1
loop_
_geom_bond_atom_site_label_1
_geom_bond_atom_site_label_2
_geom_bond_distance
_geom_bond_site_symmetry_2
Fe0 Fe1 2.653295 1_656
Fe0 Fe1 2.653295 1_544
Fe0 Fe1 2.653295 1_645
Fe0 Fe1 2.653295 1_555
Fe0 Fe2 2.689411 1_555
Fe0 Fe2 2.689411 1_656
Fe0 Fe2 2.689411 1_556
Fe0 Fe2 2.689411 1_545
Fe1 Fe2 2.689411 1_555
Fe1 Fe2 2.689411 1_556
Fe1 Fe2 2.689411 1_566
Fe1 Fe2 2.689411 1_455
Au0 Fe2 2.653295 1_556
Au0 Fe2 2.653295 1_444
Au0 Fe2 2.653295 1_545
Au0 Fe2 2.653295 1_455
Au0 Fe1 2.689411 1_544
Au0 Fe1 2.689411 1_545
Au0 Fe1 2.689411 1_444
Au0 Fe0 2.689411 1_455
Au0 Fe0 2.689411 1_454
Au0 Fe0 2.689411 1_444
Au0 Fe1 2.689411 1_555
Au0 Fe0 2.689411 1_555
