# generated using pymatgen
data_Mg7Si4
_symmetry_space_group_name_H-M   'P 1'
_cell_length_a   5.21083300
_cell_length_b   5.92571144
_cell_length_c   14.03445227
_cell_angle_alpha   85.22094966
_cell_angle_beta   85.76456986
_cell_angle_gamma   85.49009696
_symmetry_Int_Tables_number   1
_chemical_formula_structural   Mg7Si4
_chemical_formula_sum   'Mg14 Si8'
_cell_volume   429.52147660
_cell_formula_units_Z   2
loop_
 _symmetry_equiv_pos_site_id
 _symmetry_equiv_pos_as_xyz
  1  'x, y, z'
loop_
 _atom_site_type_symbol
 _atom_site_label
 _atom_site_symmetry_multiplicity
 _atom_site_fract_x
 _atom_site_fract_y
 _atom_site_fract_z
 _atom_site_occupancy
  Mg  Mg0  1  0.02826400  0.10940400  0.71622700  1
  Mg  Mg1  1  0.75388700  0.50501600  0.83685800  1
  Mg  Mg2  1  0.57718800  0.87297100  0.63719300  1
  Mg  Mg3  1  0.51259900  0.38072200  0.65302600  1
  Mg  Mg4  1  0.69629300  0.31882500  0.07786100  1
  Mg  Mg5  1  0.66058600  0.67226000  0.44312100  1
  Mg  Mg6  1  0.45207600  0.08244200  0.30637100  1
  Mg  Mg7  1  0.17974900  0.43451700  0.46982100  1
  Mg  Mg8  1  0.24658200  0.33160000  0.93495600  1
  Mg  Mg9  1  0.42643600  0.78475200  0.98752500  1
  Mg  Mg10  1  0.91802000  0.94595600  0.92993300  1
  Mg  Mg11  1  0.76209300  0.80571400  0.15593200  1
  Mg  Mg12  1  0.91688800  0.34038500  0.28859100  1
  Mg  Mg13  1  0.12984600  0.93421100  0.50354900  1
  Si  Si0  1  0.19171400  0.07694600  0.11178900  1
  Si  Si1  1  0.50155700  0.04258500  0.80875700  1
  Si  Si2  1  0.26013600  0.68645800  0.79860700  1
  Si  Si3  1  0.38478900  0.55179800  0.26650000  1
  Si  Si4  1  0.17843100  0.49644200  0.11725000  1
  Si  Si5  1  0.65105200  0.18090800  0.48090800  1
  Si  Si6  1  0.02672300  0.60535900  0.65559400  1
  Si  Si7  1  0.04505300  0.83331100  0.32329900  1
loop_
_geom_bond_atom_site_label_1
_geom_bond_atom_site_label_2
_geom_bond_distance
_geom_bond_site_symmetry_2
Mg0 Si1 2.856462 1_555
Mg0 Si2 2.885338 1_545
Mg0 Si1 2.989089 1_455
Mg0 Si6 2.990288 1_555
Mg0 Si6 3.173893 1_545
Mg1 Si2 2.781470 1_555
Mg1 Si6 2.862359 1_655
Mg1 Si2 2.922979 1_655
Mg1 Si1 3.196330 1_555
Mg2 Si1 2.676533 1_565
Mg2 Si6 2.739607 1_655
Mg2 Si5 2.758185 1_565
Mg2 Si2 2.898268 1_555
Mg3 Si6 2.765472 1_555
Mg3 Si5 2.800411 1_555
Mg3 Si1 2.839864 1_555
Mg3 Si2 3.005383 1_555
Mg3 Si6 3.087622 1_655
Mg4 Si4 2.850469 1_555
Mg4 Si0 2.903701 1_655
Mg4 Si4 2.905710 1_655
Mg4 Si0 3.080292 1_555
Mg5 Si7 2.699608 1_655
Mg5 Si5 2.919375 1_555
Mg5 Si5 3.099583 1_565
Mg5 Si3 3.114737 1_555
Mg6 Si7 2.663403 1_545
Mg6 Si3 2.790664 1_555
Mg6 Si5 2.850282 1_555
Mg6 Si0 3.141382 1_555
Mg7 Si5 2.784076 1_555
Mg7 Si6 2.909310 1_555
Mg7 Si3 3.017116 1_555
Mg7 Si7 3.073807 1_555
Mg7 Si5 3.228194 1_455
Mg8 Si2 2.724226 1_555
Mg8 Si1 2.763194 1_555
Mg8 Si4 2.802376 1_556
Mg8 Si0 2.803029 1_556
Mg9 Si4 2.717517 1_556
Mg9 Si0 2.718530 1_566
Mg9 Si1 2.844721 1_565
Mg9 Si2 2.965802 1_555
Mg10 Si1 2.849021 1_565
Mg10 Si2 2.914686 1_655
Mg11 Si4 2.779657 1_655
Mg11 Si3 2.857068 1_555
Mg11 Si0 2.858988 1_665
Mg11 Si7 2.886454 1_655
Mg12 Si4 2.799750 1_655
Mg12 Si3 2.813207 1_655
Mg12 Si3 2.978138 1_555
Mg12 Si7 3.033240 1_645
Mg12 Si5 3.053760 1_555
Mg12 Si7 3.131625 1_655
Mg13 Si7 2.722282 1_555
Mg13 Si5 2.815799 1_465
Mg13 Si6 2.818145 1_555
Mg13 Si5 3.167602 1_565
Si0 Si4 2.488741 1_555
Si1 Si2 2.559358 1_545
Si2 Si6 2.520316 1_555
Si3 Si7 2.470001 1_555
Si3 Si4 2.480734 1_555
