# generated using pymatgen
data_CrPbO4
_symmetry_space_group_name_H-M   'P 1'
_cell_length_a   7.43348116
_cell_length_b   6.80690603
_cell_length_c   8.71718994
_cell_angle_alpha   52.85346862
_cell_angle_beta   90.00000000
_cell_angle_gamma   90.00000000
_symmetry_Int_Tables_number   1
_chemical_formula_structural   CrPbO4
_chemical_formula_sum   'Cr4 Pb4 O16'
_cell_volume   351.58305246
_cell_formula_units_Z   4
loop_
 _symmetry_equiv_pos_site_id
 _symmetry_equiv_pos_as_xyz
  1  'x, y, z'
loop_
 _atom_site_type_symbol
 _atom_site_label
 _atom_site_symmetry_multiplicity
 _atom_site_fract_x
 _atom_site_fract_y
 _atom_site_fract_z
 _atom_site_occupancy
  Cr  Cr0  1  0.66446176  0.31949110  0.79925317  1
  Cr  Cr1  1  0.83553824  0.31949110  0.29925317  1
  Cr  Cr2  1  0.16446176  0.68050890  0.70074683  1
  Cr  Cr3  1  0.33553824  0.68050890  0.20074683  1
  Pb  Pb0  1  0.64204237  0.82106445  0.77980072  1
  Pb  Pb1  1  0.14204237  0.17893555  0.72019928  1
  Pb  Pb2  1  0.35795763  0.17893555  0.22019928  1
  Pb  Pb3  1  0.85795763  0.82106445  0.27980072  1
  O  O0  1  0.71187674  0.60192983  0.61240438  1
  O  O1  1  0.21187674  0.39807017  0.88759562  1
  O  O2  1  0.28812326  0.39807017  0.38759562  1
  O  O3  1  0.78812326  0.60192983  0.11240438  1
  O  O4  1  0.59886354  0.34557826  0.96830039  1
  O  O5  1  0.09886354  0.65442174  0.53169961  1
  O  O6  1  0.40113646  0.65442174  0.03169961  1
  O  O7  1  0.90113646  0.34557826  0.46830039  1
  O  O8  1  0.99210059  0.19288254  0.25058143  1
  O  O9  1  0.49210059  0.80711746  0.24941857  1
  O  O10  1  0.00789941  0.80711746  0.74941857  1
  O  O11  1  0.50789941  0.19288254  0.75058143  1
  O  O12  1  0.65546394  0.14080888  0.37515768  1
  O  O13  1  0.15546394  0.85919112  0.12484232  1
  O  O14  1  0.34453606  0.85919112  0.62484232  1
  O  O15  1  0.84453606  0.14080888  0.87515768  1
loop_
_geom_bond_atom_site_label_1
_geom_bond_atom_site_label_2
_geom_bond_distance
_geom_bond_site_symmetry_2
Cr0 O0 1.640578 1_555
Cr0 O11 1.648870 1_555
Cr0 O15 1.654385 1_555
Cr0 O4 1.660386 1_555
Cr1 O3 1.640578 1_555
Cr1 O8 1.648870 1_555
Cr1 O12 1.654385 1_555
Cr1 O7 1.660386 1_555
Cr2 O1 1.640578 1_555
Cr2 O10 1.648870 1_555
Cr2 O14 1.654385 1_555
Cr2 O5 1.660386 1_555
Cr3 O2 1.640578 1_555
Cr3 O9 1.648870 1_555
Cr3 O13 1.654385 1_555
Cr3 O6 1.660386 1_555
O0 Pb3 2.566587 1_555
O0 Pb0 2.693048 1_555
O1 Pb2 2.566587 1_556
O1 Pb1 2.693048 1_555
O2 Pb1 2.566587 1_555
O2 Pb2 2.693048 1_555
O3 Pb0 2.566587 1_554
O3 Pb3 2.693048 1_555
O4 Pb2 2.511401 1_556
O4 Pb0 2.618320 1_555
O5 Pb3 2.511401 1_455
O5 Pb1 2.618320 1_555
O6 Pb0 2.511401 1_554
O6 Pb2 2.618320 1_555
O7 Pb1 2.511401 1_655
O7 Pb3 2.618320 1_555
O8 Pb3 2.585776 1_545
O8 Pb2 2.739653 1_655
O9 Pb2 2.585776 1_565
O9 Pb3 2.739653 1_555
O10 Pb1 2.585776 1_565
O10 Pb0 2.739653 1_455
O11 Pb0 2.585776 1_545
O11 Pb1 2.739653 1_555
O12 Pb2 2.521785 1_555
O12 Pb0 2.813782 1_545
O13 Pb3 2.521785 1_455
O13 Pb1 2.813782 1_564
O14 Pb0 2.521785 1_555
O14 Pb2 2.813782 1_565
O15 Pb1 2.521785 1_655
O15 Pb3 2.813782 1_546
