# generated using pymatgen
data_Sr2Y2V2O7
_symmetry_space_group_name_H-M   'P 1'
_cell_length_a   12.68176350
_cell_length_b   12.68176350
_cell_length_c   12.68176350
_cell_angle_alpha   154.25600716
_cell_angle_beta   153.83585829
_cell_angle_gamma   37.03399556
_symmetry_Int_Tables_number   1
_chemical_formula_structural   Sr2Y2V2O7
_chemical_formula_sum   'Sr4 Y4 V4 O14'
_cell_volume   390.07675408
_cell_formula_units_Z   2
loop_
 _symmetry_equiv_pos_site_id
 _symmetry_equiv_pos_as_xyz
  1  'x, y, z'
loop_
 _atom_site_type_symbol
 _atom_site_label
 _atom_site_symmetry_multiplicity
 _atom_site_fract_x
 _atom_site_fract_y
 _atom_site_fract_z
 _atom_site_occupancy
  Sr  Sr0  1  0.83224600  0.83872200  0.95999100  1
  Sr  Sr1  1  0.16775400  0.12774500  0.00647600  1
  Sr  Sr2  1  0.62127000  0.62774500  0.95999100  1
  Sr  Sr3  1  0.37873000  0.33872200  0.00647600  1
  Y  Y0  1  0.50000000  0.47447600  0.97447600  1
  Y  Y1  1  0.00000000  0.97447600  0.97447600  1
  Y  Y2  1  0.19970300  0.77185500  0.47155800  1
  Y  Y3  1  0.80029700  0.27185500  0.57215200  1
  V  V0  1  0.92932000  0.39779900  0.46809900  1
  V  V1  1  0.07068000  0.53877900  0.46847900  1
  V  V2  1  0.57030100  0.03877900  0.46809900  1
  V  V3  1  0.42969900  0.89779900  0.46847900  1
  O  O0  1  0.83314900  0.66288400  0.99603300  1
  O  O1  1  0.16685100  0.16288400  0.82973500  1
  O  O2  1  0.72812100  0.69662000  0.55008500  1
  O  O3  1  0.27187900  0.82196400  0.96849900  1
  O  O4  1  0.35346500  0.32196400  0.55008500  1
  O  O5  1  0.64653500  0.19662000  0.96849900  1
  O  O6  1  0.13746600  0.10444300  0.37569000  1
  O  O7  1  0.86253400  0.23822400  0.96697700  1
  O  O8  1  0.77124700  0.73822400  0.37569000  1
  O  O9  1  0.22875300  0.60444300  0.96697700  1
  O  O10  1  0.37582200  0.78926500  0.49304700  1
  O  O11  1  0.62417800  0.11722400  0.41344200  1
  O  O12  1  0.20378200  0.61722400  0.49304700  1
  O  O13  1  0.79621800  0.28926500  0.41344200  1
loop_
_geom_bond_atom_site_label_1
_geom_bond_atom_site_label_2
_geom_bond_distance
_geom_bond_site_symmetry_2
O0 Y2 2.192595 1_656
O0 Y3 2.217476 1_555
O0 Sr2 2.639621 1_555
O0 Sr0 2.639633 1_555
O1 Y3 2.192595 1_455
O1 Y2 2.217476 1_545
O1 Sr3 2.639622 1_556
O1 Sr1 2.639633 1_556
O2 V0 2.044222 1_555
O2 V3 2.052620 1_555
O2 Y1 2.278760 1_655
O2 Sr0 2.571964 1_555
O2 Y0 2.765640 1_554
O2 Sr3 2.943887 1_555
O3 V1 2.044222 1_555
O3 V2 2.052616 1_566
O3 Y1 2.278760 1_555
O3 Sr1 2.571964 1_566
O3 Y0 2.765640 1_555
O3 Sr2 2.943890 1_555
O4 V2 2.044227 1_555
O4 V1 2.052615 1_555
O4 Y0 2.278760 1_555
O4 Sr2 2.571973 1_555
O4 Y1 2.765640 1_544
O4 Sr1 2.943879 1_555
O5 V3 2.044223 1_545
O5 V0 2.052615 1_556
O5 Y0 2.278760 1_555
O5 Sr3 2.571976 1_556
O5 Y1 2.765640 1_645
O5 Sr0 2.943879 1_545
O6 V0 2.049826 1_455
O6 V3 2.051376 1_545
O6 Y1 2.280722 1_544
O6 Sr0 2.514340 1_444
O6 Y0 2.898736 1_555
O6 Sr3 3.153154 1_556
O7 V1 2.049826 1_656
O7 V2 2.051379 1_555
O7 Y1 2.280722 1_645
O7 Sr1 2.514340 1_656
O7 Y0 2.898736 1_555
O7 Sr2 3.153151 1_555
O8 V2 2.049822 1_565
O8 V1 2.051380 1_655
O8 Y0 2.280722 1_554
O8 Sr2 2.514349 1_554
O8 Y1 2.898736 1_655
O8 Sr1 3.153147 1_666
O9 V3 2.049827 1_556
O9 V0 2.051380 1_455
O9 Y0 2.280722 1_555
O9 Sr3 2.514346 1_556
O9 Y1 2.898736 1_555
O9 Sr0 3.153147 1_455
O10 Y2 2.167453 1_555
O10 V3 2.261533 1_555
O10 Sr0 2.557481 1_555
O10 Sr3 2.698349 1_555
O10 Sr3 3.032483 1_566
O10 Sr0 3.270537 1_454
O11 Y3 2.167454 1_555
O11 V2 2.261533 1_555
O11 Sr1 2.557482 1_555
O11 Sr2 2.698349 1_544
O11 Sr2 3.032483 1_555
O11 Sr1 3.270537 1_656
O12 Y2 2.167465 1_555
O12 V1 2.261533 1_555
O12 Sr2 2.557477 1_555
O12 Sr1 2.698349 1_555
O12 Sr1 3.032483 1_566
O12 Sr2 3.270533 1_454
O13 Y3 2.167465 1_555
O13 V0 2.261533 1_555
O13 Sr3 2.557477 1_555
O13 Sr0 2.698349 1_544
O13 Sr0 3.032483 1_555
O13 Sr3 3.270533 1_656
