# generated using pymatgen
data_Er4In(NiGe2)2
_symmetry_space_group_name_H-M   'P 1'
_cell_length_a   7.98703074
_cell_length_b   7.98703074
_cell_length_c   7.01254989
_cell_angle_alpha   72.02920310
_cell_angle_beta   72.02920310
_cell_angle_gamma   30.56043357
_symmetry_Int_Tables_number   1
_chemical_formula_structural   Er4In(NiGe2)2
_chemical_formula_sum   'Er4 In1 Ni2 Ge4'
_cell_volume   215.50562870
_cell_formula_units_Z   1
loop_
 _symmetry_equiv_pos_site_id
 _symmetry_equiv_pos_as_xyz
  1  'x, y, z'
loop_
 _atom_site_type_symbol
 _atom_site_label
 _atom_site_symmetry_multiplicity
 _atom_site_fract_x
 _atom_site_fract_y
 _atom_site_fract_z
 _atom_site_occupancy
  Er  Er0  1  0.34411400  0.34411400  0.93753600  1
  Er  Er1  1  0.65588600  0.65588600  0.06246400  1
  Er  Er2  1  0.40848100  0.40848100  0.39114900  1
  Er  Er3  1  0.59151900  0.59151900  0.60885100  1
  In  In0  1  0.00000000  0.00000000  0.00000000  1
  Ni  Ni0  1  0.21749900  0.21749900  0.35929900  1
  Ni  Ni1  1  0.78250100  0.78250100  0.64070100  1
  Ge  Ge0  1  0.06582100  0.06582100  0.33733600  1
  Ge  Ge1  1  0.93417900  0.93417900  0.66266400  1
  Ge  Ge2  1  0.20251600  0.20251600  0.73218900  1
  Ge  Ge3  1  0.79748400  0.79748400  0.26781100  1
loop_
_geom_bond_atom_site_label_1
_geom_bond_atom_site_label_2
_geom_bond_distance
_geom_bond_site_symmetry_2
Er0 Ge1 2.891532 1_545
Er0 Ge1 2.891532 1_455
Er0 Ge2 2.973940 1_555
Er0 Ni0 2.977071 1_556
Er0 Ge3 3.040814 1_456
Er0 Ge3 3.040814 1_546
Er0 Ni1 3.305922 1_455
Er0 Ni1 3.305922 1_545
Er0 In0 3.326507 1_656
Er0 In0 3.326507 1_566
Er1 Ge0 2.891532 1_565
Er1 Ge0 2.891532 1_655
Er1 Ge3 2.973940 1_555
Er1 Ni1 2.977071 1_554
Er1 Ge2 3.040814 1_564
Er1 Ge2 3.040814 1_654
Er1 Ni0 3.305922 1_655
Er1 Ni0 3.305922 1_565
Er1 In0 3.326507 1_565
Er1 In0 3.326507 1_655
Er2 Ge1 2.948725 1_545
Er2 Ge1 2.948725 1_455
Er2 Ge3 3.008394 1_545
Er2 Ge3 3.008394 1_455
Er2 Ni1 3.014715 1_455
Er2 Ni1 3.014715 1_545
Er2 Ni0 3.021764 1_555
Er2 Ge0 3.141018 1_565
Er2 Ge0 3.141018 1_655
Er2 Ge2 3.307134 1_555
Er2 In0 3.386557 1_655
Er2 In0 3.386557 1_565
Er3 Ge0 2.948725 1_565
Er3 Ge0 2.948725 1_655
Er3 Ge2 3.008394 1_565
Er3 Ge2 3.008394 1_655
Er3 Ni0 3.014715 1_565
Er3 Ni0 3.014715 1_655
Er3 Ni1 3.021764 1_555
Er3 Ge1 3.141018 1_455
Er3 Ge1 3.141018 1_545
Er3 Ge3 3.307134 1_555
Er3 In0 3.386557 1_656
Er3 In0 3.386557 1_566
Ge0 Ni0 2.390978 1_555
Ge0 Ge1 2.521758 1_445
Ge0 In0 2.856485 1_555
Ge1 Ni1 2.390978 1_555
Ge1 In0 2.856485 1_666
Ge2 Ni1 2.419813 1_455
Ge2 Ni1 2.419813 1_545
Ge2 Ni0 2.550464 1_555
Ge2 In0 3.084879 1_556
Ge3 Ni0 2.419813 1_655
Ge3 Ni0 2.419813 1_565
Ge3 Ni1 2.550464 1_555
Ge3 In0 3.084879 1_665
