# generated using pymatgen
data_SrCaSn(PO4)2
_symmetry_space_group_name_H-M   'P 1'
_cell_length_a   5.71834000
_cell_length_b   6.92596446
_cell_length_c   10.37044317
_cell_angle_alpha   108.58881212
_cell_angle_beta   100.53043311
_cell_angle_gamma   96.70861795
_symmetry_Int_Tables_number   1
_chemical_formula_structural   SrCaSn(PO4)2
_chemical_formula_sum   'Sr2 Ca2 Sn2 P4 O16'
_cell_volume   375.92227409
_cell_formula_units_Z   2
loop_
 _symmetry_equiv_pos_site_id
 _symmetry_equiv_pos_as_xyz
  1  'x, y, z'
loop_
 _atom_site_type_symbol
 _atom_site_label
 _atom_site_symmetry_multiplicity
 _atom_site_fract_x
 _atom_site_fract_y
 _atom_site_fract_z
 _atom_site_occupancy
  Sr  Sr0  1  0.26383700  0.74343100  0.04525200  1
  Sr  Sr1  1  0.73616300  0.25656900  0.95474800  1
  Ca  Ca0  1  0.03486100  0.75541000  0.66636900  1
  Ca  Ca1  1  0.96513900  0.24459000  0.33363100  1
  Sn  Sn0  1  0.63416400  0.24498100  0.59127200  1
  Sn  Sn1  1  0.36583600  0.75501900  0.40872800  1
  P  P0  1  0.35676300  0.19488100  0.20341100  1
  P  P1  1  0.64323700  0.80511900  0.79658900  1
  P  P2  1  0.81673100  0.75213200  0.27417900  1
  P  P3  1  0.18326900  0.24786800  0.72582100  1
  O  O0  1  0.86187700  0.66391200  0.88254700  1
  O  O1  1  0.59697500  0.28877800  0.16382700  1
  O  O2  1  0.69315400  0.02456100  0.81090000  1
  O  O3  1  0.97765600  0.40047300  0.70214800  1
  O  O4  1  0.40302500  0.71122200  0.83617300  1
  O  O5  1  0.08849300  0.13209900  0.61455700  1
  O  O6  1  0.91150700  0.86790100  0.38544300  1
  O  O7  1  0.23912800  0.10365500  0.87723700  1
  O  O8  1  0.30684600  0.97543900  0.18910000  1
  O  O9  1  0.76087200  0.89634500  0.12276300  1
  O  O10  1  0.13812300  0.33608800  0.11745300  1
  O  O11  1  0.36565700  0.15545900  0.36093600  1
  O  O12  1  0.63434300  0.84454100  0.63906400  1
  O  O13  1  0.58500300  0.61927800  0.30579800  1
  O  O14  1  0.02234400  0.59952700  0.29785200  1
  O  O15  1  0.41499700  0.38072200  0.69420200  1
loop_
_geom_bond_atom_site_label_1
_geom_bond_atom_site_label_2
_geom_bond_distance
_geom_bond_site_symmetry_2
Ca0 O12 2.431349 1_455
Ca0 O3 2.593422 1_455
Ca0 O4 2.601129 1_555
Ca0 O7 2.647509 1_565
Ca0 O5 2.820695 1_565
Ca0 O0 2.824161 1_455
Ca1 O11 2.431349 1_655
Ca1 O14 2.593422 1_655
Ca1 O1 2.601129 1_555
Ca1 O9 2.647509 1_545
Ca1 O6 2.820695 1_545
Ca1 O10 2.824161 1_655
O0 P1 1.936074 1_555
O0 Sr0 2.475448 1_656
O0 Sr1 3.179072 1_555
O1 P0 1.626607 1_555
O1 Sr1 2.397589 1_554
O2 P1 1.467238 1_545
O2 Sr1 1.764432 1_555
O3 P3 1.705895 1_655
O3 Sn0 2.056887 1_555
O4 P1 1.626607 1_555
O4 Sr0 2.397589 1_556
O5 P3 1.161061 1_555
O6 P2 1.161061 1_555
O7 P3 2.111038 1_555
O7 Sr1 2.786549 1_555
O8 P0 1.467238 1_565
O8 Sr0 1.764432 1_555
O9 P2 2.111038 1_555
O9 Sr0 2.786549 1_555
O10 P0 1.936074 1_555
O10 Sr1 2.475448 1_454
O10 Sr0 3.179072 1_555
O11 P0 1.732928 1_555
O11 O8 1.763426 1_545
O11 Sn0 2.437317 1_555
O12 P1 1.732928 1_555
O12 O2 1.763426 1_565
O12 Sn1 2.437317 1_555
O13 P2 1.666246 1_555
O13 Sn1 1.928320 1_555
O14 P2 1.705895 1_455
O14 Sn1 2.056887 1_555
O15 P3 1.666246 1_555
O15 Sn0 1.928320 1_555
