# generated using pymatgen
data_Ba2Mn2F11
_symmetry_space_group_name_H-M   'P 1'
_cell_length_a   7.73605958
_cell_length_b   7.73605958
_cell_length_c   14.08752300
_cell_angle_alpha   90.00000000
_cell_angle_beta   90.00000000
_cell_angle_gamma   119.99999641
_symmetry_Int_Tables_number   1
_chemical_formula_structural   Ba2Mn2F11
_chemical_formula_sum   'Ba6 Mn6 F33'
_cell_volume   730.13790810
_cell_formula_units_Z   3
loop_
 _symmetry_equiv_pos_site_id
 _symmetry_equiv_pos_as_xyz
  1  'x, y, z'
loop_
 _atom_site_type_symbol
 _atom_site_label
 _atom_site_symmetry_multiplicity
 _atom_site_fract_x
 _atom_site_fract_y
 _atom_site_fract_z
 _atom_site_occupancy
  Ba  Ba0  1  0.53848500  0.16395600  0.66284600  1
  Ba  Ba1  1  0.14944800  0.41349600  0.81548300  1
  Ba  Ba2  1  0.62547000  0.46151500  0.99617900  1
  Ba  Ba3  1  0.58650400  0.73595200  0.48214900  1
  Ba  Ba4  1  0.26404800  0.85055200  0.14881600  1
  Ba  Ba5  1  0.83604400  0.37453000  0.32951200  1
  Mn  Mn0  1  0.54024600  0.96091100  0.90689300  1
  Mn  Mn1  1  0.85008000  0.80434200  0.72207500  1
  Mn  Mn2  1  0.19565800  0.04573800  0.38874200  1
  Mn  Mn3  1  0.42066500  0.45975400  0.24022600  1
  Mn  Mn4  1  0.95426200  0.14992000  0.05540800  1
  Mn  Mn5  1  0.03908900  0.57933500  0.57356000  1
  F  F0  1  0.67752300  0.04613500  0.03113100  1
  F  F1  1  0.44059800  0.69722600  0.94559700  1
  F  F2  1  0.36861200  0.32247700  0.36446400  1
  F  F3  1  0.13503300  0.51591800  0.46713900  1
  F  F4  1  0.52193600  0.30076300  0.19134800  1
  F  F5  1  0.92590300  0.57739300  0.17617300  1
  F  F6  1  0.48408200  0.61911500  0.13380600  1
  F  F7  1  0.42260700  0.34851000  0.84284000  1
  F  F8  1  0.77882700  0.47806400  0.52468200  1
  F  F9  1  0.21926300  0.25588900  0.07939800  1
  F  F10  1  0.38088500  0.86496700  0.80047300  1
  F  F11  1  0.95386500  0.63138800  0.69779700  1
  F  F12  1  0.35958500  0.02409200  0.98458100  1
  F  F13  1  0.99642600  0.39997500  0.01430100  1
  F  F14  1  0.66450700  0.64041500  0.31791400  1
  F  F15  1  0.30277400  0.74337200  0.61226400  1
  F  F16  1  0.97568100  0.10122700  0.92993500  1
  F  F17  1  0.03662600  0.78073700  0.41273100  1
  F  F18  1  0.99099500  0.09170700  0.41447600  1
  F  F19  1  0.97590800  0.33549300  0.65124800  1
  F  F20  1  0.10071200  0.00900500  0.74780900  1
  F  F21  1  0.60002500  0.59645100  0.68096800  1
  F  F22  1  0.40354900  0.00357400  0.34763400  1
  F  F23  1  0.12554500  0.02431900  0.26326800  1
  F  F24  1  0.74411100  0.96337400  0.74606500  1
  F  F25  1  0.69923700  0.22117300  0.85801500  1
  F  F26  1  0.25662800  0.55940200  0.27893000  1
  F  F27  1  0.81143000  0.71106800  0.84469300  1
  F  F28  1  0.89963800  0.18857000  0.17802600  1
  F  F29  1  0.90829300  0.89928800  0.08114300  1
  F  F30  1  0.65149000  0.07409700  0.50950700  1
  F  F31  1  0.89877300  0.87445500  0.59660200  1
  F  F32  1  0.28893200  0.10036200  0.51135900  1
loop_
_geom_bond_atom_site_label_1
_geom_bond_atom_site_label_2
_geom_bond_distance
_geom_bond_site_symmetry_2
Ba0 F30 2.553727 1_555
Ba0 F32 2.752016 1_555
Ba0 F10 2.788447 1_545
Ba0 F15 2.913104 1_545
Ba0 F8 2.938044 1_555
Ba0 F19 2.957722 1_555
Ba0 F25 2.958284 1_555
Ba0 F24 2.963279 1_545
Ba0 F21 3.145376 1_555
Ba0 F20 3.206125 1_555
Ba0 F7 3.248303 1_555
Ba1 F7 2.434983 1_555
Ba1 F19 2.590252 1_455
Ba1 F16 2.644822 1_455
Ba1 F1 2.882175 1_555
Ba1 F13 3.022126 1_456
Ba1 F10 3.032389 1_555
Ba1 F25 3.085620 1_455
Ba1 F20 3.108529 1_555
Ba1 F11 3.229504 1_455
Ba2 F7 2.553724 1_555
Ba2 F27 2.752007 1_555
Ba2 F6 2.788442 1_556
Ba2 F1 2.913097 1_555
Ba2 F25 2.938048 1_555
Ba2 F12 2.957721 1_555
Ba2 F4 2.958283 1_556
Ba2 F9 2.963273 1_556
Ba2 F13 3.145383 1_556
Ba2 F29 3.206132 1_556
Ba2 F5 3.248308 1_556
Ba3 F30 2.434986 1_565
Ba3 F14 2.590252 1_555
Ba3 F31 2.644830 1_555
Ba3 F15 2.882184 1_555
Ba3 F21 3.022140 1_555
Ba3 F3 3.032389 1_555
Ba3 F8 3.085623 1_555
Ba3 F18 3.108525 1_565
Ba3 F2 3.229497 1_555
Ba4 F5 2.434983 1_455
Ba4 F12 2.590252 1_564
Ba4 F23 2.644827 1_565
Ba4 F26 2.882175 1_555
Ba4 F22 3.022127 1_565
Ba4 F6 3.032389 1_555
Ba4 F4 3.085620 1_565
Ba4 F29 3.108524 1_455
Ba4 F0 3.229497 1_565
Ba5 F5 2.553724 1_555
Ba5 F28 2.752010 1_555
Ba5 F3 2.788447 1_655
Ba5 F26 2.913104 1_655
Ba5 F4 2.938042 1_555
Ba5 F14 2.957715 1_555
Ba5 F8 2.958294 1_555
Ba5 F17 2.963273 1_655
Ba5 F22 3.145379 1_555
Ba5 F18 3.206137 1_555
Ba5 F30 3.248318 1_555
F0 Mn4 1.904216 1_555
F0 Mn0 1.981297 1_544
F1 Mn0 1.865519 1_555
F2 Mn2 1.904219 1_555
F2 Mn3 1.981297 1_555
F3 Mn5 1.844817 1_555
F4 Mn3 1.887940 1_555
F6 Mn3 1.844806 1_555
F8 Mn5 1.887940 1_655
F9 Mn4 1.818905 1_455
F10 Mn0 1.844806 1_555
F11 Mn1 1.904219 1_555
F11 Mn5 1.981285 1_655
F12 Mn0 2.018189 1_545
F13 Mn4 1.884894 1_555
F14 Mn3 2.018189 1_555
F15 Mn5 1.865519 1_555
F16 Mn4 1.831992 1_556
F17 Mn2 1.818902 1_565
F18 Mn2 1.824207 1_655
F19 Mn5 2.018189 1_655
F20 Mn1 1.824207 1_445
F21 Mn1 1.884894 1_555
F22 Mn2 1.884898 1_555
F23 Mn2 1.832007 1_555
F24 Mn1 1.818905 1_555
F25 Mn0 1.887940 1_545
F26 Mn3 1.865519 1_555
F27 Mn1 1.837981 1_555
F28 Mn4 1.837981 1_555
F29 Mn4 1.824209 1_565
F31 Mn1 1.831993 1_555
F32 Mn2 1.837968 1_555
