# generated using pymatgen
data_V3As2H4O13
_symmetry_space_group_name_H-M   'P 1'
_cell_length_a   5.25134087
_cell_length_b   7.99040501
_cell_length_c   12.62003057
_cell_angle_alpha   71.55389400
_cell_angle_beta   80.66614656
_cell_angle_gamma   85.65259995
_symmetry_Int_Tables_number   1
_chemical_formula_structural   V3As2H4O13
_chemical_formula_sum   'V6 As4 H8 O26'
_cell_volume   495.51338868
_cell_formula_units_Z   2
loop_
 _symmetry_equiv_pos_site_id
 _symmetry_equiv_pos_as_xyz
  1  'x, y, z'
loop_
 _atom_site_type_symbol
 _atom_site_label
 _atom_site_symmetry_multiplicity
 _atom_site_fract_x
 _atom_site_fract_y
 _atom_site_fract_z
 _atom_site_occupancy
  V  V0  1  0.01736900  0.20849600  0.67913300  1
  V  V1  1  0.98263100  0.79150400  0.32086700  1
  V  V2  1  0.48341700  0.31527800  0.83445000  1
  V  V3  1  0.51658300  0.68472200  0.16555000  1
  V  V4  1  0.24857100  0.76904100  0.74074400  1
  V  V5  1  0.75142900  0.23095900  0.25925600  1
  As  As0  1  0.68346100  0.86714700  0.88598400  1
  As  As1  1  0.31653900  0.13285300  0.11401600  1
  As  As2  1  0.82411900  0.63471200  0.61072600  1
  As  As3  1  0.17588100  0.36528800  0.38927400  1
  H  H0  1  0.74596200  0.21375400  0.50651400  1
  H  H1  1  0.25403800  0.78624600  0.49348600  1
  H  H2  1  0.65525700  0.03876000  0.60931000  1
  H  H3  1  0.34474300  0.96124000  0.39069000  1
  H  H4  1  0.83561800  0.47653300  0.89770200  1
  H  H5  1  0.16438200  0.52346700  0.10229800  1
  H  H6  1  0.74967800  0.29682100  0.00143400  1
  H  H7  1  0.25032200  0.70317900  0.99856600  1
  O  O0  1  0.68283300  0.84529300  0.02584100  1
  O  O1  1  0.31716700  0.15470700  0.97415900  1
  O  O2  1  0.38081100  0.81885000  0.86939300  1
  O  O3  1  0.61918900  0.18115000  0.13060700  1
  O  O4  1  0.90787500  0.71999200  0.84778100  1
  O  O5  1  0.09212500  0.28000800  0.15221900  1
  O  O6  1  0.74191300  0.08889300  0.81209300  1
  O  O7  1  0.25808700  0.91110700  0.18790700  1
  O  O8  1  0.75737600  0.41516200  0.69034600  1
  O  O9  1  0.24262400  0.58483800  0.30965400  1
  O  O10  1  0.13129200  0.67394300  0.62772200  1
  O  O11  1  0.86870800  0.32605700  0.37227800  1
  O  O12  1  0.82011400  0.65286700  0.47336500  1
  O  O13  1  0.17988600  0.34713300  0.52663500  1
  O  O14  1  0.60652300  0.77890100  0.65491900  1
  O  O15  1  0.39347700  0.22109900  0.34508100  1
  O  O16  1  0.24134700  0.24742100  0.75139500  1
  O  O17  1  0.75865300  0.75257900  0.24860500  1
  O  O18  1  0.16879400  0.98353900  0.67240600  1
  O  O19  1  0.83120600  0.01646100  0.32759400  1
  O  O20  1  0.33303300  0.51221000  0.82577400  1
  O  O21  1  0.66696700  0.48779000  0.17422600  1
  O  O22  1  0.73178300  0.15494900  0.58951600  1
  O  O23  1  0.26821700  0.84505100  0.41048400  1
  O  O24  1  0.77022000  0.35575100  0.91770500  1
  O  O25  1  0.22978000  0.64424900  0.08229500  1
loop_
_geom_bond_atom_site_label_1
_geom_bond_atom_site_label_2
_geom_bond_distance
_geom_bond_site_symmetry_2
As0 O0 1.717232 1_556
As0 O4 1.722841 1_555
As0 O2 1.723590 1_555
As0 O6 1.745631 1_565
As1 O1 1.717232 1_554
As1 O5 1.722841 1_555
As1 O3 1.723590 1_555
As1 O7 1.745631 1_545
As2 O12 1.696683 1_555
As2 O14 1.715944 1_555
As2 O10 1.725603 1_655
As2 O8 1.753143 1_555
As3 O13 1.696683 1_555
As3 O15 1.715944 1_555
As3 O11 1.725603 1_455
As3 O9 1.753143 1_555
H0 O22 0.996039 1_555
H0 O11 1.691761 1_555
H1 O23 0.996039 1_555
H1 O10 1.691761 1_555
H2 O22 0.981354 1_555
H3 O23 0.981354 1_555
H4 O24 0.990471 1_555
H5 O25 0.990471 1_555
H6 O24 1.002874 1_554
H6 O3 1.661763 1_555
H7 O25 1.002874 1_556
H7 O2 1.661763 1_555
O0 V3 1.938030 1_555
O1 V2 1.938030 1_555
O2 V4 2.023141 1_555
O3 V5 2.023141 1_555
O4 V4 2.041215 1_655
O5 V5 2.041215 1_455
O6 V0 2.056390 1_655
O6 V2 2.240736 1_555
O7 V1 2.056390 1_455
O7 V3 2.240736 1_555
O8 V0 2.086728 1_655
O8 V2 2.102593 1_555
O9 V1 2.086728 1_455
O9 V3 2.102593 1_555
O10 V4 2.008214 1_555
O11 V5 2.008214 1_555
O12 V1 1.980083 1_555
O13 V0 1.980083 1_555
O14 V4 2.005183 1_555
O15 V5 2.005183 1_555
O16 V0 1.701377 1_555
O16 V2 1.976078 1_555
O17 V1 1.701377 1_555
O17 V3 1.976078 1_555
O18 V4 1.711656 1_555
O18 V0 1.930931 1_565
O19 V5 1.711656 1_555
O19 V1 1.930931 1_545
O20 V2 1.685934 1_555
O20 V4 2.045115 1_555
O21 V3 1.685934 1_555
O21 V5 2.045115 1_555
O22 V0 2.159854 1_655
O23 V1 2.159854 1_455
O24 V2 2.068579 1_555
O25 V3 2.068579 1_555
