# generated using pymatgen
data_CsMo2H2C7S7(OF)21
_symmetry_space_group_name_H-M   'P 1'
_cell_length_a   12.00663900
_cell_length_b   15.89541000
_cell_length_c   12.08712527
_cell_angle_alpha   90.00000000
_cell_angle_beta   113.25431605
_cell_angle_gamma   90.00000000
_symmetry_Int_Tables_number   1
_chemical_formula_structural   CsMo2H2C7S7(OF)21
_chemical_formula_sum   'Cs2 Mo4 H4 C14 S14 O42 F42'
_cell_volume   2119.42955044
_cell_formula_units_Z   2
loop_
 _symmetry_equiv_pos_site_id
 _symmetry_equiv_pos_as_xyz
  1  'x, y, z'
loop_
 _atom_site_type_symbol
 _atom_site_label
 _atom_site_symmetry_multiplicity
 _atom_site_fract_x
 _atom_site_fract_y
 _atom_site_fract_z
 _atom_site_occupancy
  Cs  Cs0  1  0.04187800  0.75000000  0.09591000  1
  Cs  Cs1  1  0.95812200  0.25000000  0.90409000  1
  Mo  Mo0  1  0.97275100  0.84050600  0.55697500  1
  Mo  Mo1  1  0.02724900  0.34050600  0.44302500  1
  Mo  Mo2  1  0.02724900  0.15949400  0.44302500  1
  Mo  Mo3  1  0.97275100  0.65949400  0.55697500  1
  H  H0  1  0.16790000  0.99378700  0.21147300  1
  H  H1  1  0.83210000  0.49378700  0.78852700  1
  H  H2  1  0.83210000  0.00621300  0.78852700  1
  H  H3  1  0.16790000  0.50621300  0.21147300  1
  C  C0  1  0.65256900  0.75000000  0.64546300  1
  C  C1  1  0.34743100  0.25000000  0.35453700  1
  C  C2  1  0.33890300  0.75000000  0.78936900  1
  C  C3  1  0.66109700  0.25000000  0.21063100  1
  C  C4  1  0.63748500  0.75000000  0.21472300  1
  C  C5  1  0.36251500  0.25000000  0.78527700  1
  C  C6  1  0.29252700  0.95273300  0.52241600  1
  C  C7  1  0.70747300  0.45273300  0.47758400  1
  C  C8  1  0.70747300  0.04726700  0.47758400  1
  C  C9  1  0.29252700  0.54726700  0.52241600  1
  C  C10  1  0.34263800  0.98175200  0.07796700  1
  C  C11  1  0.65736200  0.48175200  0.92203300  1
  C  C12  1  0.65736200  0.01824800  0.92203300  1
  C  C13  1  0.34263800  0.51824800  0.07796700  1
  S  S0  1  0.82150700  0.75000000  0.70070700  1
  S  S1  1  0.17849300  0.25000000  0.29929300  1
  S  S2  1  0.18545500  0.75000000  0.79607000  1
  S  S3  1  0.81454500  0.25000000  0.20393000  1
  S  S4  1  0.80436200  0.75000000  0.30754300  1
  S  S5  1  0.19563800  0.25000000  0.69245700  1
  S  S6  1  0.13194400  0.93472600  0.41500100  1
  S  S7  1  0.86805600  0.43472600  0.58499900  1
  S  S8  1  0.86805600  0.06527400  0.58499900  1
  S  S9  1  0.13194400  0.56527400  0.41500100  1
  S  S10  1  0.17999000  0.01138500  0.03902900  1
  S  S11  1  0.82001000  0.51138500  0.96097100  1
  S  S12  1  0.82001000  0.98861500  0.96097100  1
  S  S13  1  0.17999000  0.48861500  0.03902900  1
  O  O0  1  0.82093200  0.82820600  0.38048000  1
  O  O1  1  0.17906800  0.32820600  0.61952000  1
  O  O2  1  0.17906800  0.17179400  0.61952000  1
  O  O3  1  0.82093200  0.67179400  0.38048000  1
  O  O4  1  0.09630900  0.85961500  0.46599200  1
  O  O5  1  0.90369100  0.35961500  0.53400800  1
  O  O6  1  0.90369100  0.14038500  0.53400800  1
  O  O7  1  0.09630900  0.64038500  0.46599200  1
  O  O8  1  0.84716800  0.82734500  0.64598500  1
  O  O9  1  0.15283200  0.32734500  0.35401500  1
  O  O10  1  0.15283200  0.17265500  0.35401500  1
  O  O11  1  0.84716800  0.67265500  0.64598500  1
  O  O12  1  0.12821100  0.82810500  0.73016200  1
  O  O13  1  0.87178900  0.32810500  0.26983800  1
  O  O14  1  0.87178900  0.17189500  0.26983800  1
  O  O15  1  0.12821100  0.67189500  0.73016200  1
  O  O16  1  0.20751700  0.75000000  0.92158000  1
  O  O17  1  0.79248300  0.25000000  0.07842000  1
  O  O18  1  0.06662600  0.01085000  0.42038100  1
  O  O19  1  0.93337400  0.51085000  0.57961900  1
  O  O20  1  0.93337400  0.98915000  0.57961900  1
  O  O21  1  0.06662600  0.48915000  0.42038100  1
  O  O22  1  0.86627700  0.75000000  0.82951100  1
  O  O23  1  0.13372300  0.25000000  0.17048900  1
  O  O24  1  0.14030000  0.91696000  0.30014300  1
  O  O25  1  0.85970000  0.41696000  0.69985700  1
  O  O26  1  0.85970000  0.08304000  0.69985700  1
  O  O27  1  0.14030000  0.58304000  0.30014300  1
  O  O28  1  0.86192700  0.75000000  0.22359100  1
  O  O29  1  0.13807300  0.25000000  0.77640900  1
  O  O30  1  0.18783600  0.04059900  0.16605200  1
  O  O31  1  0.81216400  0.54059900  0.83394800  1
  O  O32  1  0.81216400  0.95940100  0.83394800  1
  O  O33  1  0.18783600  0.45940100  0.16605200  1
  O  O34  1  0.11033000  0.93527700  0.00177400  1
  O  O35  1  0.88967000  0.43527700  0.99822600  1
  O  O36  1  0.88967000  0.06472300  0.99822600  1
  O  O37  1  0.11033000  0.56472300  0.00177400  1
  O  O38  1  0.15665800  0.08366500  0.96236000  1
  O  O39  1  0.84334200  0.58366500  0.03764000  1
  O  O40  1  0.84334200  0.91633500  0.03764000  1
  O  O41  1  0.15665800  0.41633500  0.96236000  1
  F  F0  1  0.61748800  0.81922400  0.68750400  1
  F  F1  1  0.38251200  0.31922400  0.31249600  1
  F  F2  1  0.38251200  0.18077600  0.31249600  1
  F  F3  1  0.61748800  0.68077600  0.68750400  1
  F  F4  1  0.60010800  0.75000000  0.52415600  1
  F  F5  1  0.39989200  0.25000000  0.47584400  1
  F  F6  1  0.29804800  0.96407500  0.63505100  1
  F  F7  1  0.70195200  0.46407500  0.36494900  1
  F  F8  1  0.70195200  0.03592500  0.36494900  1
  F  F9  1  0.29804800  0.53592500  0.63505100  1
  F  F10  1  0.33440600  0.02244600  0.48742100  1
  F  F11  1  0.66559400  0.52244600  0.51257900  1
  F  F12  1  0.66559400  0.97755400  0.51257900  1
  F  F13  1  0.33440600  0.47755400  0.48742100  1
  F  F14  1  0.36261700  0.88669700  0.52144800  1
  F  F15  1  0.63738300  0.38669700  0.47855200  1
  F  F16  1  0.63738300  0.11330300  0.47855200  1
  F  F17  1  0.36261700  0.61330300  0.52144800  1
  F  F18  1  0.40044700  0.81909500  0.84513600  1
  F  F19  1  0.59955300  0.31909500  0.15486400  1
  F  F20  1  0.59955300  0.18090500  0.15486400  1
  F  F21  1  0.40044700  0.68090500  0.84513600  1
  F  F22  1  0.60979700  0.81927500  0.14475800  1
  F  F23  1  0.39020300  0.31927500  0.85524200  1
  F  F24  1  0.39020300  0.18072500  0.85524200  1
  F  F25  1  0.60979700  0.68072500  0.14475800  1
  F  F26  1  0.32822300  0.75000000  0.67381500  1
  F  F27  1  0.67177700  0.25000000  0.32618500  1
  F  F28  1  0.57240500  0.75000000  0.28356700  1
  F  F29  1  0.42759500  0.25000000  0.71643300  1
  F  F30  1  0.41756500  0.04647700  0.12974000  1
  F  F31  1  0.58243500  0.54647700  0.87026000  1
  F  F32  1  0.58243500  0.95352300  0.87026000  1
  F  F33  1  0.41756500  0.45352300  0.12974000  1
  F  F34  1  0.35622700  0.95900300  0.97670500  1
  F  F35  1  0.64377300  0.45900300  0.02329500  1
  F  F36  1  0.64377300  0.04099700  0.02329500  1
  F  F37  1  0.35622700  0.54099700  0.97670500  1
  F  F38  1  0.37183500  0.91610900  0.15569200  1
  F  F39  1  0.62816500  0.41610900  0.84430800  1
  F  F40  1  0.62816500  0.08389100  0.84430800  1
  F  F41  1  0.37183500  0.58389100  0.15569200  1
loop_
_geom_bond_atom_site_label_1
_geom_bond_atom_site_label_2
_geom_bond_distance
_geom_bond_site_symmetry_2
Cs0 O22 3.074556 1_454
Cs0 O28 3.111745 1_455
Cs0 O37 3.373710 1_555
Cs0 O34 3.373710 1_555
Cs0 O16 3.421155 1_554
Cs0 O40 3.441388 1_455
Cs0 O39 3.441388 1_455
Cs0 O24 3.497154 1_555
Cs0 O27 3.497154 1_555
Cs1 O23 3.074556 1_656
Cs1 O29 3.111745 1_655
Cs1 O36 3.373710 1_555
Cs1 O35 3.373710 1_555
Cs1 O17 3.421155 1_556
Cs1 O38 3.441388 1_655
Cs1 O41 3.441388 1_655
Cs1 O25 3.497154 1_555
Cs1 O26 3.497154 1_555
Mo0 O8 2.180776 1_555
Mo0 O4 2.188770 1_655
Mo0 O12 2.195358 1_655
Mo0 O0 2.200316 1_555
Mo0 O20 2.446066 1_555
Mo1 O9 2.180776 1_555
Mo1 O5 2.188770 1_455
Mo1 O13 2.195358 1_455
Mo1 O1 2.200316 1_555
Mo1 O21 2.446066 1_555
Mo2 O10 2.180776 1_555
Mo2 O6 2.188770 1_455
Mo2 O14 2.195358 1_455
Mo2 O2 2.200316 1_555
Mo2 O18 2.446066 1_555
Mo3 O11 2.180776 1_555
Mo3 O7 2.188770 1_655
Mo3 O15 2.195358 1_655
Mo3 O3 2.200316 1_555
Mo3 O19 2.446066 1_555
H0 O30 1.008044 1_565
H1 O31 1.008044 1_555
H2 O32 1.008044 1_545
H3 O33 1.008044 1_555
C0 F0 1.347368 1_555
C0 F3 1.347368 1_555
C0 F4 1.348101 1_555
C1 F2 1.347368 1_555
C1 F1 1.347368 1_555
C1 F5 1.348101 1_555
C2 F21 1.346600 1_555
C2 F18 1.346600 1_555
C2 F26 1.351234 1_555
C3 F20 1.346600 1_555
C3 F19 1.346600 1_555
C3 F27 1.351234 1_555
C4 F22 1.347677 1_555
C4 F25 1.347677 1_555
C4 F28 1.347752 1_555
C5 F23 1.347677 1_555
C5 F24 1.347677 1_555
C5 F29 1.347752 1_555
C6 F14 1.348301 1_555
C6 F6 1.348754 1_555
C6 F10 1.351896 1_565
C7 F15 1.348301 1_555
C7 F7 1.348754 1_555
C7 F11 1.351896 1_555
C8 F16 1.348301 1_555
C8 F8 1.348754 1_555
C8 F12 1.351896 1_545
C9 F17 1.348301 1_555
C9 F9 1.348754 1_555
C9 F13 1.351896 1_555
C10 F34 1.346537 1_554
C10 F30 1.347176 1_565
C10 F38 1.354317 1_555
C11 F35 1.346537 1_556
C11 F31 1.347176 1_555
C11 F39 1.354317 1_555
C12 F36 1.346537 1_556
C12 F32 1.347176 1_545
C12 F40 1.354317 1_555
C13 F37 1.346537 1_554
C13 F33 1.347176 1_555
C13 F41 1.354317 1_555
O0 S4 1.491187 1_555
O1 S5 1.491187 1_555
O2 S5 1.491187 1_555
O3 S4 1.491187 1_555
O4 S6 1.482094 1_555
O5 S7 1.482094 1_555
O6 S8 1.482094 1_555
O7 S9 1.482094 1_555
O8 S0 1.484869 1_555
O9 S1 1.484869 1_555
O10 S1 1.484869 1_555
O11 S0 1.484869 1_555
O12 S2 1.488632 1_555
O13 S3 1.488632 1_555
O14 S3 1.488632 1_555
O15 S2 1.488632 1_555
O16 S2 1.433286 1_555
O17 S3 1.433286 1_555
O18 S6 1.457292 1_545
O19 S7 1.457292 1_555
O20 S8 1.457292 1_565
O21 S9 1.457292 1_555
O22 S0 1.432471 1_555
O23 S1 1.432471 1_555
O24 S6 1.458486 1_555
O25 S7 1.458486 1_555
O26 S8 1.458486 1_555
O27 S9 1.458486 1_555
O28 S4 1.435689 1_555
O29 S5 1.435689 1_555
O30 S10 1.570854 1_555
O31 S11 1.570854 1_555
O32 S12 1.570854 1_555
O33 S13 1.570854 1_555
O34 S10 1.438212 1_565
O35 S11 1.438212 1_555
O36 S12 1.438212 1_545
O37 S13 1.438212 1_555
O38 S10 1.432582 1_556
O39 S11 1.432582 1_554
O40 S12 1.432582 1_554
O41 S13 1.432582 1_556
