# generated using pymatgen
data_Tb2Fe17C
_symmetry_space_group_name_H-M   'P 1'
_cell_length_a   6.44947494
_cell_length_b   6.42492510
_cell_length_c   6.44947494
_cell_angle_alpha   83.35593562
_cell_angle_beta   83.54408694
_cell_angle_gamma   83.35593562
_symmetry_Int_Tables_number   1
_chemical_formula_structural   Tb2Fe17C
_chemical_formula_sum   'Tb2 Fe17 C1'
_cell_volume   262.33964702
_cell_formula_units_Z   1
loop_
 _symmetry_equiv_pos_site_id
 _symmetry_equiv_pos_as_xyz
  1  'x, y, z'
loop_
 _atom_site_type_symbol
 _atom_site_label
 _atom_site_symmetry_multiplicity
 _atom_site_fract_x
 _atom_site_fract_y
 _atom_site_fract_z
 _atom_site_occupancy
  Tb  Tb0  1  0.66061200  0.64962800  0.66061200  1
  Tb  Tb1  1  0.33938800  0.35037200  0.33938800  1
  Fe  Fe0  1  0.71466700  0.00000000  0.28533300  1
  Fe  Fe1  1  0.00048400  0.28996000  0.71070100  1
  Fe  Fe2  1  0.28929900  0.71004000  0.99951600  1
  Fe  Fe3  1  0.99951600  0.71004000  0.28929900  1
  Fe  Fe4  1  0.71070100  0.28996000  0.00048400  1
  Fe  Fe5  1  0.28533300  0.00000000  0.71466700  1
  Fe  Fe6  1  0.34346700  0.84970100  0.34346700  1
  Fe  Fe7  1  0.84997200  0.34445200  0.34324200  1
  Fe  Fe8  1  0.34324200  0.34445200  0.84997200  1
  Fe  Fe9  1  0.65653300  0.15029900  0.65653300  1
  Fe  Fe10  1  0.15002800  0.65554800  0.65675800  1
  Fe  Fe11  1  0.65675800  0.65554800  0.15002800  1
  Fe  Fe12  1  0.90260800  0.90236100  0.90260800  1
  Fe  Fe13  1  0.09739200  0.09763900  0.09739200  1
  Fe  Fe14  1  0.00000000  0.50000000  0.00000000  1
  Fe  Fe15  1  0.50000000  0.00000000  0.00000000  1
  Fe  Fe16  1  0.00000000  0.00000000  0.50000000  1
  C  C0  1  0.50000000  0.00000000  0.50000000  1
loop_
_geom_bond_atom_site_label_1
_geom_bond_atom_site_label_2
_geom_bond_distance
_geom_bond_site_symmetry_2
Fe0 Fe15 2.424101 1_555
Fe0 Fe16 2.424101 1_655
Fe0 Fe4 2.460470 1_555
Fe0 Fe3 2.460470 1_545
Fe0 Fe11 2.551502 1_545
Fe0 Fe7 2.551502 1_555
Fe0 Fe13 2.732249 1_655
Fe0 Fe12 2.732249 1_544
Fe1 Fe14 2.425451 1_556
Fe1 Fe16 2.430109 1_555
Fe1 Fe5 2.460470 1_555
Fe1 Fe4 2.490069 1_456
Fe1 Fe8 2.552364 1_555
Fe1 Fe9 2.560373 1_455
Fe1 Fe10 2.613073 1_555
Fe1 Fe7 2.632125 1_455
Fe1 Fe13 2.756080 1_556
Fe1 Fe12 2.758038 1_445
Fe1 Tb0 3.010573 1_455
Fe1 Tb1 3.076889 1_555
Fe2 Fe5 2.460470 1_565
Fe2 Fe3 2.490069 1_456
Fe2 Fe6 2.560373 1_556
Fe2 Fe8 2.613073 1_555
Fe2 Tb1 3.010573 1_556
Fe2 Tb0 3.076889 1_555
Fe3 Fe6 2.560373 1_655
Fe3 Fe7 2.613073 1_555
Fe3 Tb1 3.010573 1_655
Fe3 Tb0 3.076889 1_555
Fe4 Fe7 2.552364 1_555
Fe4 Fe9 2.560373 1_554
Fe4 Fe8 2.632125 1_554
Fe4 Tb0 3.010573 1_554
Fe4 Tb1 3.076889 1_555
Fe5 Fe8 2.551502 1_555
Fe7 Fe9 2.530846 1_555
Fe7 Tb0 3.055830 1_555
Fe7 Tb1 3.158374 1_655
Fe7 Tb1 3.291673 1_555
Fe8 Fe9 2.530846 1_555
Fe8 Tb0 3.055830 1_555
Fe8 Tb1 3.158374 1_556
Fe8 Tb1 3.291673 1_555
Fe10 Fe16 2.462280 1_565
Fe10 Fe14 2.462876 1_556
Fe10 Fe8 2.509428 1_555
Fe10 Fe6 2.530846 1_555
Fe10 Fe5 2.551502 1_565
Fe10 Fe2 2.552364 1_555
Fe10 Fe3 2.632125 1_455
Fe10 Fe12 2.646207 1_455
Fe10 Tb1 3.055830 1_555
Fe10 Tb0 3.158374 1_455
Fe10 Tb0 3.291673 1_555
Fe11 Fe15 2.462280 1_565
Fe11 Fe14 2.462876 1_655
Fe11 Fe7 2.509428 1_555
Fe11 Fe6 2.530846 1_555
Fe11 Fe3 2.552364 1_555
Fe11 Fe4 2.613073 1_555
Fe11 Fe2 2.632125 1_554
Fe11 Fe12 2.646207 1_554
Fe11 Tb1 3.055830 1_555
Fe11 Tb0 3.158374 1_554
Fe11 Tb0 3.291673 1_555
Fe12 Fe13 2.411397 1_666
Fe12 Fe14 2.609455 1_656
Fe12 Fe15 2.622582 1_566
Fe12 Fe16 2.622582 1_665
Fe12 Fe9 2.640350 1_565
Fe12 Fe5 2.732249 1_665
Fe12 Fe2 2.756080 1_655
Fe12 Fe3 2.756080 1_556
Fe12 Fe4 2.758038 1_566
Fe12 Tb0 3.037967 1_555
Fe13 Fe14 2.609455 1_555
Fe13 Fe15 2.622582 1_555
Fe13 Fe16 2.622582 1_555
Fe13 Fe6 2.640350 1_545
Fe13 Fe7 2.646207 1_455
Fe13 Fe8 2.646207 1_554
Fe13 Fe5 2.732249 1_554
Fe13 Fe4 2.756080 1_455
Fe13 Fe3 2.758038 1_445
Fe13 Fe2 2.758038 1_544
Fe13 Tb1 3.037967 1_555
Fe14 Fe2 2.425451 1_554
Fe14 Fe3 2.425451 1_455
Fe14 Fe4 2.425451 1_455
Fe14 Fe8 2.462876 1_554
Fe14 Fe7 2.462876 1_455
Fe14 Tb1 3.257314 1_555
Fe14 Tb0 3.257314 1_454
Fe15 Fe5 2.424101 1_554
Fe15 Fe4 2.430109 1_555
Fe15 Fe2 2.430109 1_544
Fe15 Fe8 2.462280 1_554
Fe15 Fe6 2.467068 1_545
Fe15 Fe9 2.467068 1_554
Fe15 Tb1 3.320005 1_555
Fe15 Tb0 3.320005 1_544
Fe16 Fe5 2.424101 1_555
Fe16 Fe3 2.430109 1_445
Fe16 Fe7 2.462280 1_455
Fe16 Fe6 2.467068 1_545
Fe16 Fe9 2.467068 1_455
Fe16 Tb1 3.320005 1_555
Fe16 Tb0 3.320005 1_445
C0 Fe0 1.844607 1_555
C0 Fe5 1.844607 1_555
C0 Fe9 1.910833 1_555
C0 Fe6 1.910833 1_545
C0 Tb0 2.525004 1_545
C0 Tb1 2.525004 1_555
