# generated using pymatgen
data_AlHg2O2F5
_symmetry_space_group_name_H-M   'P 1'
_cell_length_a   7.04008227
_cell_length_b   7.04008227
_cell_length_c   7.04008227
_cell_angle_alpha   112.67789752
_cell_angle_beta   112.67789752
_cell_angle_gamma   103.23230299
_symmetry_Int_Tables_number   1
_chemical_formula_structural   AlHg2O2F5
_chemical_formula_sum   'Al2 Hg4 O4 F10'
_cell_volume   266.25028489
_cell_formula_units_Z   2
loop_
 _symmetry_equiv_pos_site_id
 _symmetry_equiv_pos_as_xyz
  1  'x, y, z'
loop_
 _atom_site_type_symbol
 _atom_site_label
 _atom_site_symmetry_multiplicity
 _atom_site_fract_x
 _atom_site_fract_y
 _atom_site_fract_z
 _atom_site_occupancy
  Al  Al0  1  0.72430300  0.72430300  0.00000000  1
  Al  Al1  1  0.22430300  0.22430300  0.00000000  1
  Hg  Hg0  1  0.32507600  0.82507600  0.16400300  1
  Hg  Hg1  1  0.66107300  0.16107300  0.83599700  1
  Hg  Hg2  1  0.16107300  0.32507600  0.50000000  1
  Hg  Hg3  1  0.82507600  0.66107300  0.50000000  1
  O  O0  1  0.13305900  0.63305900  0.76345000  1
  O  O1  1  0.86960900  0.36960900  0.23655000  1
  O  O2  1  0.36960900  0.13305900  0.50000000  1
  O  O3  1  0.63305900  0.86960900  0.50000000  1
  F  F0  1  0.51791900  0.51791900  0.00000000  1
  F  F1  1  0.01791900  0.01791900  0.00000000  1
  F  F2  1  0.52639800  0.75062200  0.77199000  1
  F  F3  1  0.97863100  0.75440800  0.22801000  1
  F  F4  1  0.47863100  0.25062200  0.22422400  1
  F  F5  1  0.02639800  0.25440800  0.77577600  1
  F  F6  1  0.75440700  0.52639800  0.77577600  1
  F  F7  1  0.75062200  0.97863100  0.22422400  1
  F  F8  1  0.25440700  0.47863100  0.22801000  1
  F  F9  1  0.25062200  0.02639800  0.77199000  1
loop_
_geom_bond_atom_site_label_1
_geom_bond_atom_site_label_2
_geom_bond_distance
_geom_bond_site_symmetry_2
Al0 F7 1.781904 1_555
Al0 F6 1.781904 1_554
Al0 F3 1.781904 1_555
Al0 F2 1.781908 1_554
Al0 F0 1.804364 1_555
Al1 F4 1.781904 1_555
Al1 F8 1.781907 1_555
Al1 F5 1.781908 1_554
Al1 F9 1.781908 1_554
Al1 F1 1.804364 1_555
Hg0 O0 2.211630 1_554
Hg0 O3 2.357317 1_555
Hg0 O2 2.357317 1_565
Hg1 O1 2.211630 1_556
Hg1 O3 2.357317 1_545
Hg1 O2 2.357317 1_555
Hg2 O2 2.211630 1_555
Hg2 O1 2.357317 1_455
Hg2 O0 2.357317 1_555
Hg3 O3 2.211630 1_555
Hg3 O0 2.357317 1_655
Hg3 O1 2.357317 1_555
