# generated using pymatgen
data_NiH8C4(NO2)3
_symmetry_space_group_name_H-M   'P 1'
_cell_length_a   8.47727200
_cell_length_b   8.78838300
_cell_length_c   11.92025700
_cell_angle_alpha   90.00000000
_cell_angle_beta   89.99994893
_cell_angle_gamma   90.00000000
_symmetry_Int_Tables_number   1
_chemical_formula_structural   NiH8C4(NO2)3
_chemical_formula_sum   'Ni4 H32 C16 N12 O24'
_cell_volume   888.07718341
_cell_formula_units_Z   4
loop_
 _symmetry_equiv_pos_site_id
 _symmetry_equiv_pos_as_xyz
  1  'x, y, z'
loop_
 _atom_site_type_symbol
 _atom_site_label
 _atom_site_symmetry_multiplicity
 _atom_site_fract_x
 _atom_site_fract_y
 _atom_site_fract_z
 _atom_site_occupancy
  Ni  Ni0  1  0.24905600  0.25022300  0.74921600  1
  Ni  Ni1  1  0.25094200  0.24977900  0.24921500  1
  Ni  Ni2  1  0.75094300  0.75022200  0.24921500  1
  Ni  Ni3  1  0.74905600  0.74977600  0.74921700  1
  H  H0  1  0.24254900  0.32906600  0.99674700  1
  H  H1  1  0.25745100  0.17093400  0.49674700  1
  H  H2  1  0.74254900  0.67093400  0.99674700  1
  H  H3  1  0.75745100  0.82906600  0.49674700  1
  H  H4  1  0.08016000  0.74960700  0.88194100  1
  H  H5  1  0.42206800  0.75811500  0.12064000  1
  H  H6  1  0.07793200  0.74188500  0.62064000  1
  H  H7  1  0.41984000  0.75039300  0.38194000  1
  H  H8  1  0.92206800  0.24188500  0.12064000  1
  H  H9  1  0.58016000  0.25039300  0.88194100  1
  H  H10  1  0.91984000  0.24960700  0.38194100  1
  H  H11  1  0.57793200  0.25811500  0.62064000  1
  H  H12  1  0.90896000  0.07239000  0.78935600  1
  H  H13  1  0.59758500  0.07173700  0.20970600  1
  H  H14  1  0.90241500  0.42826300  0.70970600  1
  H  H15  1  0.59104100  0.42761000  0.28935600  1
  H  H16  1  0.09758500  0.92826300  0.20970600  1
  H  H17  1  0.40896000  0.92761000  0.78935600  1
  H  H18  1  0.09104100  0.57239000  0.28935600  1
  H  H19  1  0.40241500  0.57173800  0.70970600  1
  H  H20  1  0.17443400  0.92954900  0.91427800  1
  H  H21  1  0.32822700  0.93524200  0.08348300  1
  H  H22  1  0.17177300  0.56475800  0.58348300  1
  H  H23  1  0.32556600  0.57045100  0.41427800  1
  H  H24  1  0.82822700  0.06475800  0.08348300  1
  H  H25  1  0.67443400  0.07045100  0.91427800  1
  H  H26  1  0.82556600  0.42954900  0.41427800  1
  H  H27  1  0.67177300  0.43524200  0.58348300  1
  H  H28  1  0.33105900  0.54052000  0.05000100  1
  H  H29  1  0.16894200  0.95947900  0.55000100  1
  H  H30  1  0.83105800  0.45948000  0.05000100  1
  H  H31  1  0.66894200  0.04052100  0.55000100  1
  C  C0  1  0.97986200  0.01482300  0.72375400  1
  C  C1  1  0.52254300  0.01654200  0.27447500  1
  C  C2  1  0.97745800  0.48345800  0.77447500  1
  C  C3  1  0.52013700  0.48517700  0.22375400  1
  C  C4  1  0.02254300  0.98345800  0.27447500  1
  C  C5  1  0.47986300  0.98517700  0.72375400  1
  C  C6  1  0.02013700  0.51482300  0.22375400  1
  C  C7  1  0.47745800  0.51654200  0.77447500  1
  C  C8  1  0.24809000  0.20375800  0.99810300  1
  C  C9  1  0.25191000  0.29624300  0.49810300  1
  C  C10  1  0.74809000  0.79624200  0.99810300  1
  C  C11  1  0.75191000  0.70375800  0.49810300  1
  C  C12  1  0.24946000  0.74330500  0.00211800  1
  C  C13  1  0.25054000  0.75669600  0.50211800  1
  C  C14  1  0.74946000  0.25669500  0.00211800  1
  C  C15  1  0.75054000  0.24330500  0.50211800  1
  N  N0  1  0.23256400  0.59051400  0.01358200  1
  N  N1  1  0.26743400  0.90948500  0.51358200  1
  N  N2  1  0.73256500  0.40948500  0.01358200  1
  N  N3  1  0.76743500  0.09051500  0.51358200  1
  N  N4  1  0.15952100  0.81429800  0.92690800  1
  N  N5  1  0.34532100  0.81978300  0.07160200  1
  N  N6  1  0.15467900  0.68021800  0.57160200  1
  N  N7  1  0.34047900  0.68570300  0.42690900  1
  N  N8  1  0.84532100  0.18021700  0.07160200  1
  N  N9  1  0.65952100  0.18570300  0.92690800  1
  N  N10  1  0.84048000  0.31429700  0.42690800  1
  N  N11  1  0.65467900  0.31978300  0.57160200  1
  O  O0  1  0.93774100  0.88282700  0.69248400  1
  O  O1  1  0.56323500  0.88436000  0.30732600  1
  O  O2  1  0.93676400  0.61564000  0.80732500  1
  O  O3  1  0.56226000  0.61717300  0.19248400  1
  O  O4  1  0.06323600  0.11564000  0.30732600  1
  O  O5  1  0.43774000  0.11717300  0.69248400  1
  O  O6  1  0.06226000  0.38282700  0.19248500  1
  O  O7  1  0.43676400  0.38436000  0.80732500  1
  O  O8  1  0.24330900  0.13394700  0.90449700  1
  O  O9  1  0.25750800  0.13626800  0.09248700  1
  O  O10  1  0.24249200  0.36373200  0.59248600  1
  O  O11  1  0.25669100  0.36605300  0.40449800  1
  O  O12  1  0.75750800  0.86373200  0.09248700  1
  O  O13  1  0.74331000  0.86605300  0.90449700  1
  O  O14  1  0.75669000  0.63394700  0.40449800  1
  O  O15  1  0.74249200  0.63626800  0.59248700  1
  O  O16  1  0.09934400  0.08340300  0.68452200  1
  O  O17  1  0.40300500  0.08704800  0.31007300  1
  O  O18  1  0.09699500  0.41295100  0.81007200  1
  O  O19  1  0.40065600  0.41659600  0.18452300  1
  O  O20  1  0.90300500  0.91295100  0.31007300  1
  O  O21  1  0.59934400  0.91659700  0.68452200  1
  O  O22  1  0.90065600  0.58340400  0.18452300  1
  O  O23  1  0.59699500  0.58704900  0.81007200  1
loop_
_geom_bond_atom_site_label_1
_geom_bond_atom_site_label_2
_geom_bond_distance
_geom_bond_site_symmetry_2
Ni0 O18 2.057461 1_555
Ni0 O16 2.086823 1_555
Ni0 O5 2.093575 1_555
Ni0 O7 2.097990 1_555
Ni0 O8 2.114892 1_555
Ni0 O10 2.118638 1_555
Ni1 O17 2.057499 1_555
Ni1 O19 2.086805 1_555
Ni1 O6 2.093546 1_555
Ni1 O4 2.097994 1_555
Ni1 O11 2.114905 1_555
Ni1 O9 2.118625 1_555
Ni2 O20 2.057481 1_555
Ni2 O22 2.086806 1_555
Ni2 O3 2.093561 1_555
Ni2 O1 2.098002 1_555
Ni2 O14 2.114909 1_555
Ni2 O12 2.118621 1_555
Ni3 O23 2.057451 1_555
Ni3 O21 2.086833 1_555
Ni3 O0 2.093590 1_555
Ni3 O2 2.097981 1_555
Ni3 O13 2.114886 1_555
Ni3 O15 2.118634 1_555
H4 N4 1.031094 1_555
H5 N5 1.028933 1_555
H6 N6 1.028928 1_555
H7 N7 1.031101 1_555
H8 N8 1.028933 1_555
H9 N9 1.031089 1_555
H10 N10 1.031083 1_555
H11 N11 1.028933 1_555
H20 N4 1.031772 1_555
H21 N5 1.034731 1_555
H22 N6 1.034740 1_555
H23 N7 1.031783 1_555
H24 N8 1.034731 1_555
H25 N9 1.031781 1_555
H26 N10 1.031782 1_555
H27 N11 1.034731 1_555
H28 N0 1.038595 1_555
H29 N1 1.038574 1_555
H30 N2 1.038585 1_555
H31 N3 1.038581 1_555
C0 H12 1.108483 1_555
C0 O16 1.268024 1_655
C0 O0 1.269690 1_545
C1 H13 1.111785 1_555
C1 O17 1.261308 1_555
C1 O1 1.273502 1_545
C2 H14 1.111791 1_555
C2 O18 1.261302 1_655
C2 O2 1.273503 1_555
C3 H15 1.108493 1_555
C3 O19 1.268018 1_555
C3 O3 1.269695 1_555
C4 H16 1.111785 1_555
C4 O20 1.261312 1_455
C4 O4 1.273505 1_565
C5 H17 1.108488 1_555
C5 O21 1.268018 1_555
C5 O5 1.269695 1_565
C6 H18 1.108493 1_555
C6 O22 1.268018 1_455
C6 O6 1.269691 1_555
C7 H19 1.111795 1_555
C7 O23 1.261302 1_555
C7 O7 1.273503 1_555
C8 H0 1.102375 1_555
C8 O8 1.274003 1_555
C8 O9 1.274356 1_556
C9 H1 1.102383 1_555
C9 O11 1.273988 1_555
C9 O10 1.274341 1_555
C10 H2 1.102375 1_555
C10 O13 1.274003 1_555
C10 O12 1.274356 1_556
C11 H3 1.102375 1_555
C11 O14 1.273992 1_555
C11 O15 1.274356 1_555
C12 N4 1.332041 1_554
C12 N5 1.340952 1_555
C12 N0 1.357300 1_555
C13 N7 1.332032 1_555
C13 N6 1.340952 1_555
C13 N1 1.357281 1_555
C14 N9 1.332037 1_554
C14 N8 1.340952 1_555
C14 N2 1.357290 1_555
C15 N10 1.332041 1_555
C15 N11 1.340952 1_555
C15 N3 1.357290 1_555
