# generated using pymatgen
data_Sr2CoWO6
_symmetry_space_group_name_H-M   'P 1'
_cell_length_a   5.59457402
_cell_length_b   5.71985509
_cell_length_c   9.76236789
_cell_angle_alpha   88.55686030
_cell_angle_beta   73.35117028
_cell_angle_gamma   60.72827333
_symmetry_Int_Tables_number   1
_chemical_formula_structural   Sr2CoWO6
_chemical_formula_sum   'Sr4 Co2 W2 O12'
_cell_volume   258.60430700
_cell_formula_units_Z   2
loop_
 _symmetry_equiv_pos_site_id
 _symmetry_equiv_pos_as_xyz
  1  'x, y, z'
loop_
 _atom_site_type_symbol
 _atom_site_label
 _atom_site_symmetry_multiplicity
 _atom_site_fract_x
 _atom_site_fract_y
 _atom_site_fract_z
 _atom_site_occupancy
  Sr  Sr0  1  0.25006000  0.37505000  0.12494800  1
  Sr  Sr1  1  0.25027400  0.87506900  0.62495200  1
  Sr  Sr2  1  0.74972600  0.62493100  0.87504800  1
  Sr  Sr3  1  0.74993800  0.12495100  0.37505300  1
  Co  Co0  1  0.49999800  0.75000100  0.25000100  1
  Co  Co1  1  0.50000000  0.24999900  0.75000000  1
  W  W0  1  0.00009400  0.49997000  0.49993000  1
  W  W1  1  0.99992100  0.00002900  0.00006300  1
  O  O0  1  0.76374400  0.35438000  0.11831800  1
  O  O1  1  0.76375000  0.85446900  0.61829500  1
  O  O2  1  0.23624900  0.64553300  0.88170600  1
  O  O3  1  0.23625500  0.14562200  0.38168300  1
  O  O4  1  0.28611000  0.09973300  0.90012500  1
  O  O5  1  0.28600700  0.59997600  0.40014300  1
  O  O6  1  0.71398700  0.90002300  0.09985800  1
  O  O7  1  0.71388600  0.40026500  0.59987700  1
  O  O8  1  0.80008000  0.14328600  0.85709300  1
  O  O9  1  0.80018800  0.64313200  0.35700800  1
  O  O10  1  0.19981000  0.85686800  0.14299200  1
  O  O11  1  0.19992100  0.35671300  0.64290600  1
loop_
_geom_bond_atom_site_label_1
_geom_bond_atom_site_label_2
_geom_bond_distance
_geom_bond_site_symmetry_2
Co0 O6 2.062463 1_555
Co0 O5 2.062476 1_555
Co0 O9 2.062681 1_555
Co0 O10 2.062687 1_555
Co0 O3 2.178278 1_565
Co0 O0 2.178282 1_555
Co1 O8 2.062897 1_555
Co1 O11 2.062899 1_555
Co1 O7 2.062977 1_555
Co1 O4 2.063000 1_555
Co1 O1 2.177996 1_545
Co1 O2 2.178017 1_555
O0 W1 1.952325 1_555
O0 Sr3 2.798637 1_555
O0 Sr0 2.799357 1_655
O0 Sr0 2.799764 1_555
O0 Sr2 2.800710 1_554
O1 W0 1.953391 1_655
O1 Sr1 2.798714 1_555
O1 Sr2 2.799079 1_555
O1 Sr3 2.800275 1_565
O1 Sr1 2.800392 1_655
O2 W1 1.953345 1_466
O2 Sr2 2.798712 1_555
O2 Sr1 2.799082 1_555
O2 Sr0 2.800278 1_556
O2 Sr2 2.800395 1_455
O3 W0 1.952279 1_555
O3 Sr0 2.798635 1_555
O3 Sr3 2.799365 1_455
O3 Sr3 2.799756 1_555
O3 Sr1 2.800708 1_545
O4 W1 1.952033 1_456
O4 Sr2 2.635181 1_545
O4 Sr0 2.635833 1_556
O4 Sr1 3.105220 1_545
O4 Sr2 3.107690 1_455
O5 W0 1.951564 1_555
O5 Sr1 2.635781 1_555
O5 Sr3 2.636664 1_555
O5 Sr3 3.106195 1_465
O5 Sr0 3.106432 1_555
O6 W1 1.951681 1_565
O6 Sr2 2.635771 1_554
O6 Sr0 2.636660 1_565
O6 Sr0 3.106201 1_655
O6 Sr3 3.106449 1_565
O7 W0 1.952147 1_655
O7 Sr1 2.635180 1_555
O7 Sr3 2.635826 1_555
O7 Sr2 3.105220 1_555
O7 Sr1 3.107689 1_645
O8 W1 1.951957 1_556
O8 Sr2 2.633792 1_555
O8 Sr1 2.637977 1_645
O8 Sr0 3.104617 1_556
O8 Sr2 3.108557 1_545
O9 W0 1.951692 1_655
O9 Sr3 2.635084 1_565
O9 Sr0 2.636633 1_655
O9 Sr1 3.104755 1_555
O9 Sr3 3.107256 1_555
O10 W1 1.951696 1_465
O10 Sr0 2.635078 1_555
O10 Sr3 2.636639 1_465
O10 Sr2 3.104761 1_554
O10 Sr0 3.107262 1_565
O11 W0 1.951963 1_555
O11 Sr1 2.633788 1_545
O11 Sr2 2.637986 1_455
O11 Sr3 3.104597 1_555
O11 Sr1 3.108559 1_555
