# generated using pymatgen
data_CaMg14CO16
_symmetry_space_group_name_H-M   'P 1'
_cell_length_a   8.58497200
_cell_length_b   8.58497200
_cell_length_c   4.30020600
_cell_angle_alpha   90.00000000
_cell_angle_beta   90.00000000
_cell_angle_gamma   90.00000000
_symmetry_Int_Tables_number   1
_chemical_formula_structural   CaMg14CO16
_chemical_formula_sum   'Ca1 Mg14 C1 O16'
_cell_volume   316.93268279
_cell_formula_units_Z   1
loop_
 _symmetry_equiv_pos_site_id
 _symmetry_equiv_pos_as_xyz
  1  'x, y, z'
loop_
 _atom_site_type_symbol
 _atom_site_label
 _atom_site_symmetry_multiplicity
 _atom_site_fract_x
 _atom_site_fract_y
 _atom_site_fract_z
 _atom_site_occupancy
  Ca  Ca0  1  0.00000000  0.00000000  0.00000000  1
  Mg  Mg0  1  0.50000000  0.00000000  0.00000000  1
  Mg  Mg1  1  0.00000000  0.50000000  0.00000000  1
  Mg  Mg2  1  0.25594900  0.00000000  0.50000000  1
  Mg  Mg3  1  0.74405100  0.00000000  0.50000000  1
  Mg  Mg4  1  0.25339000  0.50000000  0.50000000  1
  Mg  Mg5  1  0.74661000  0.50000000  0.50000000  1
  Mg  Mg6  1  0.00000000  0.25594900  0.50000000  1
  Mg  Mg7  1  0.50000000  0.25339000  0.50000000  1
  Mg  Mg8  1  0.00000000  0.74405100  0.50000000  1
  Mg  Mg9  1  0.50000000  0.74661000  0.50000000  1
  Mg  Mg10  1  0.25516400  0.25516400  0.00000000  1
  Mg  Mg11  1  0.74483600  0.25516400  0.00000000  1
  Mg  Mg12  1  0.25516400  0.74483600  0.00000000  1
  Mg  Mg13  1  0.74483600  0.74483600  0.00000000  1
  C  C0  1  0.50000000  0.50000000  0.00000000  1
  O  O0  1  0.00000000  0.26380900  0.00000000  1
  O  O1  1  0.50000000  0.25089700  0.00000000  1
  O  O2  1  0.00000000  0.73619100  0.00000000  1
  O  O3  1  0.50000000  0.74910300  0.00000000  1
  O  O4  1  0.25057200  0.25057200  0.50000000  1
  O  O5  1  0.74942800  0.25057200  0.50000000  1
  O  O6  1  0.25057200  0.74942800  0.50000000  1
  O  O7  1  0.74942800  0.74942800  0.50000000  1
  O  O8  1  0.00000000  0.00000000  0.50000000  1
  O  O9  1  0.50000000  0.00000000  0.50000000  1
  O  O10  1  0.00000000  0.50000000  0.50000000  1
  O  O11  1  0.50000000  0.50000000  0.50000000  1
  O  O12  1  0.26380900  0.00000000  0.00000000  1
  O  O13  1  0.73619100  0.00000000  0.00000000  1
  O  O14  1  0.25089700  0.50000000  0.00000000  1
  O  O15  1  0.74910300  0.50000000  0.00000000  1
loop_
_geom_bond_atom_site_label_1
_geom_bond_atom_site_label_2
_geom_bond_distance
_geom_bond_site_symmetry_2
Ca0 O8 2.150103 1_554
Ca0 O8 2.150103 1_555
Ca0 O13 2.264793 1_455
Ca0 O2 2.264793 1_545
Ca0 O12 2.264793 1_555
Ca0 O0 2.264793 1_555
Mg0 O12 2.027693 1_555
Mg0 O13 2.027693 1_555
Mg0 O9 2.150103 1_554
Mg0 O9 2.150103 1_555
Mg0 O1 2.153944 1_555
Mg0 O3 2.153944 1_545
Mg1 O0 2.027693 1_555
Mg1 O2 2.027693 1_555
Mg1 O10 2.150103 1_555
Mg1 O10 2.150103 1_554
Mg1 O14 2.153944 1_555
Mg1 O15 2.153944 1_455
Mg2 O9 2.095171 1_555
Mg2 O12 2.151162 1_556
Mg2 O12 2.151162 1_555
Mg2 O6 2.151649 1_545
Mg2 O4 2.151649 1_555
Mg2 O8 2.197315 1_555
Mg3 O9 2.095171 1_555
Mg3 O13 2.151162 1_555
Mg3 O13 2.151162 1_556
Mg3 O5 2.151649 1_555
Mg3 O7 2.151649 1_545
Mg3 O8 2.197315 1_655
Mg4 O11 2.117140 1_555
Mg4 O4 2.141469 1_555
Mg4 O6 2.141469 1_555
Mg4 O14 2.150210 1_556
Mg4 O14 2.150210 1_555
Mg4 O10 2.175346 1_555
Mg5 O11 2.117140 1_555
Mg5 O7 2.141469 1_555
Mg5 O5 2.141469 1_555
Mg5 O15 2.150210 1_556
Mg5 O15 2.150210 1_555
Mg5 O10 2.175346 1_655
Mg6 O10 2.095171 1_555
Mg6 O0 2.151162 1_555
Mg6 O0 2.151162 1_556
Mg6 O5 2.151649 1_455
Mg6 O4 2.151649 1_555
Mg6 O8 2.197315 1_555
Mg7 O11 2.117140 1_555
Mg7 O4 2.141469 1_555
Mg7 O5 2.141469 1_555
Mg7 O1 2.150210 1_556
Mg7 O1 2.150210 1_555
Mg7 O9 2.175346 1_555
Mg8 O10 2.095171 1_555
Mg8 O2 2.151162 1_555
Mg8 O2 2.151162 1_556
Mg8 O6 2.151649 1_555
Mg8 O7 2.151649 1_455
Mg8 O8 2.197315 1_565
Mg9 O11 2.117140 1_555
Mg9 O6 2.141469 1_555
Mg9 O7 2.141469 1_555
Mg9 O3 2.150210 1_556
Mg9 O3 2.150210 1_555
Mg9 O9 2.175346 1_565
Mg10 O1 2.102229 1_555
Mg10 O14 2.102229 1_555
Mg10 O4 2.150826 1_554
Mg10 O4 2.150826 1_555
Mg10 O12 2.191833 1_555
Mg10 O0 2.191833 1_555
Mg11 O15 2.102229 1_555
Mg11 O1 2.102229 1_555
Mg11 O5 2.150826 1_555
Mg11 O5 2.150826 1_554
Mg11 O0 2.191833 1_655
Mg11 O13 2.191833 1_555
Mg12 O3 2.102229 1_555
Mg12 O14 2.102229 1_555
Mg12 O6 2.150826 1_554
Mg12 O6 2.150826 1_555
Mg12 O12 2.191833 1_565
Mg12 O2 2.191833 1_555
Mg13 O15 2.102229 1_555
Mg13 O3 2.102229 1_555
Mg13 O7 2.150826 1_555
Mg13 O7 2.150826 1_554
Mg13 O2 2.191833 1_655
Mg13 O13 2.191833 1_565
C0 O3 2.138542 1_555
C0 O15 2.138542 1_555
C0 O14 2.138542 1_555
C0 O1 2.138542 1_555
C0 O11 2.150103 1_554
C0 O11 2.150103 1_555
