# generated using pymatgen
data_Ca2Ni10H
_symmetry_space_group_name_H-M   'P 1'
_cell_length_a   4.98106403
_cell_length_b   4.98308905
_cell_length_c   7.91419700
_cell_angle_alpha   90.00038123
_cell_angle_beta   90.00000078
_cell_angle_gamma   119.98655691
_symmetry_Int_Tables_number   1
_chemical_formula_structural   Ca2Ni10H
_chemical_formula_sum   'Ca2 Ni10 H1'
_cell_volume   170.14417127
_cell_formula_units_Z   1
loop_
 _symmetry_equiv_pos_site_id
 _symmetry_equiv_pos_as_xyz
  1  'x, y, z'
loop_
 _atom_site_type_symbol
 _atom_site_label
 _atom_site_symmetry_multiplicity
 _atom_site_fract_x
 _atom_site_fract_y
 _atom_site_fract_z
 _atom_site_occupancy
  Ca  Ca0  1  0.99998900  0.99997700  0.00007200  1
  Ca  Ca1  1  0.00000900  0.00001800  0.49851100  1
  Ni  Ni0  1  0.66667200  0.33334500  0.01215800  1
  Ni  Ni1  1  0.33333600  0.66667200  0.00358500  1
  Ni  Ni2  1  0.49295500  0.50725200  0.74580800  1
  Ni  Ni3  1  0.01429700  0.50725200  0.74580800  1
  Ni  Ni4  1  0.49282200  0.98564300  0.74584300  1
  Ni  Ni5  1  0.66666500  0.33332900  0.49920200  1
  Ni  Ni6  1  0.33335000  0.66670100  0.49671200  1
  Ni  Ni7  1  0.49905600  0.50088700  0.25249300  1
  Ni  Ni8  1  0.00183100  0.50088700  0.25249300  1
  Ni  Ni9  1  0.49908800  0.99817700  0.25247700  1
  H  H0  1  0.66652900  0.33305800  0.81023800  1
loop_
_geom_bond_atom_site_label_1
_geom_bond_atom_site_label_2
_geom_bond_distance
_geom_bond_site_symmetry_2
Ca0 Ni1 2.876280 1_655
Ca0 Ni1 2.876284 1_555
Ca0 Ni1 2.877634 1_665
Ca0 Ni0 2.877869 1_665
Ca0 Ni0 2.877877 1_565
Ca0 Ni0 2.878818 1_555
Ca0 Ni9 3.192667 1_655
Ca0 Ni9 3.192675 1_555
Ca0 Ni7 3.193488 1_665
Ca0 Ni8 3.193490 1_665
Ca0 Ni8 3.193591 1_655
Ca0 Ni7 3.193593 1_555
Ca0 Ni4 3.202311 1_554
Ca0 Ni4 3.202311 1_654
Ca0 Ni3 3.202768 1_654
Ca0 Ni2 3.202770 1_554
Ca0 Ni2 3.203770 1_664
Ca0 Ni3 3.203772 1_664
Ca1 Ni5 2.876163 1_455
Ca1 Ni5 2.876168 1_555
Ca1 Ni6 2.876206 1_545
Ca1 Ni6 2.876211 1_445
Ca1 Ni5 2.877479 1_445
Ca1 Ni6 2.877483 1_555
Ca1 Ni9 3.161367 1_545
Ca1 Ni9 3.161370 1_445
Ca1 Ni8 3.161936 1_555
Ca1 Ni7 3.161936 1_555
Ca1 Ni8 3.162240 1_545
Ca1 Ni7 3.162240 1_445
Ca1 Ni4 3.168302 1_445
Ca1 Ni4 3.168306 1_545
Ca1 Ni3 3.168555 1_545
Ca1 Ni2 3.168555 1_445
Ca1 Ni3 3.169286 1_555
Ca1 Ni2 3.169286 1_555
Ni0 Ni7 2.389279 1_555
Ni0 Ni8 2.389281 1_655
Ni0 Ni9 2.389573 1_545
Ni1 Ni7 2.434353 1_555
Ni1 Ni8 2.434353 1_555
Ni1 Ni9 2.434579 1_555
Ni1 Ni4 2.460938 1_554
Ni1 Ni3 2.461006 1_554
Ni1 Ni2 2.461006 1_554
Ni2 Ni6 2.404406 1_555
Ni2 Ni5 2.461394 1_555
Ni3 Ni6 2.404403 1_555
Ni3 Ni5 2.461391 1_455
Ni4 Ni6 2.404663 1_555
Ni4 Ni5 2.462138 1_565
Ni5 Ni8 2.429658 1_655
Ni5 Ni7 2.429661 1_555
Ni5 Ni9 2.430061 1_545
Ni6 Ni8 2.404449 1_555
Ni6 Ni7 2.404452 1_555
Ni6 Ni9 2.404800 1_555
Ni7 Ni8 2.476710 1_555
Ni7 Ni9 2.477961 1_555
Ni7 Ni8 2.504354 1_655
Ni7 Ni9 2.505128 1_545
Ni8 Ni9 2.477958 1_555
Ni8 Ni9 2.505131 1_445
H0 Ni4 1.583703 1_545
H0 Ni2 1.584664 1_555
H0 Ni3 1.584664 1_655
H0 Ni0 1.598035 1_556
