# generated using pymatgen
data_YGe2Pd
_symmetry_space_group_name_H-M   'P 1'
_cell_length_a   4.32392232
_cell_length_b   8.71614755
_cell_length_c   9.52873471
_cell_angle_alpha   117.21651364
_cell_angle_beta   103.02124483
_cell_angle_gamma   90.00081875
_symmetry_Int_Tables_number   1
_chemical_formula_structural   YGe2Pd
_chemical_formula_sum   'Y4 Ge8 Pd4'
_cell_volume   308.93756353
_cell_formula_units_Z   4
loop_
 _symmetry_equiv_pos_site_id
 _symmetry_equiv_pos_as_xyz
  1  'x, y, z'
loop_
 _atom_site_type_symbol
 _atom_site_label
 _atom_site_symmetry_multiplicity
 _atom_site_fract_x
 _atom_site_fract_y
 _atom_site_fract_z
 _atom_site_occupancy
  Y  Y0  1  0.20147169  0.20135862  0.40271341  1
  Y  Y1  1  0.79852864  0.79864246  0.59728782  1
  Y  Y2  1  0.00000146  0.76053928  -0.00000168  1
  Y  Y3  1  0.99999694  0.23945981  0.99999928  1
  Ge  Ge0  1  0.57397903  0.07401222  0.14803357  1
  Ge  Ge1  1  0.42601995  0.92598822  0.85196606  1
  Ge  Ge2  1  0.19734711  0.84793446  0.39549631  1
  Ge  Ge3  1  0.80265222  0.15206570  0.60450589  1
  Ge  Ge4  1  0.19731801  0.54755541  0.39549374  1
  Ge  Ge5  1  0.80268285  0.45244391  0.60450566  1
  Ge  Ge6  1  0.42619908  0.42645877  0.85290058  1
  Ge  Ge7  1  0.57379926  0.57354181  0.14709944  1
  Pd  Pd0  1  0.35194903  0.10338217  0.70375128  1
  Pd  Pd1  1  0.64805031  0.89662080  0.29625297  1
  Pd  Pd2  1  0.35196855  0.60036689  0.70373652  1
  Pd  Pd3  1  0.64803288  0.39963146  0.29626012  1
loop_
_geom_bond_atom_site_label_1
_geom_bond_atom_site_label_2
_geom_bond_distance
_geom_bond_site_symmetry_2
Ge0 Ge1 2.426943 1_544
Ge0 Pd1 2.506308 1_545
Ge0 Pd3 2.506383 1_555
Ge0 Y0 3.002192 1_555
Ge0 Y0 3.008622 1_655
Ge0 Y3 3.239441 1_554
Ge0 Y2 3.239452 1_645
Ge0 Y2 3.242135 1_545
Ge0 Y3 3.242232 1_454
Ge1 Pd0 2.506291 1_565
Ge1 Pd2 2.506399 1_555
Ge1 Y1 3.002184 1_555
Ge1 Y1 3.008612 1_455
Ge1 Y2 3.239435 1_556
Ge1 Y3 3.239442 1_465
Ge1 Y3 3.242128 1_565
Ge1 Y2 3.242229 1_656
Ge2 Pd1 2.463679 1_555
Ge2 Pd1 2.463840 1_455
Ge2 Ge4 2.618137 1_555
Ge2 Pd0 2.676734 1_565
Ge2 Y1 3.017516 1_455
Ge2 Y1 3.023632 1_555
Ge2 Y0 3.049619 1_565
Ge2 Y2 3.381672 1_555
Ge3 Pd0 2.463683 1_555
Ge3 Pd0 2.463836 1_655
Ge3 Ge5 2.618142 1_555
Ge3 Pd1 2.676713 1_545
Ge3 Y0 3.017530 1_655
Ge3 Y0 3.023637 1_555
Ge3 Y1 3.049607 1_545
Ge3 Y3 3.381633 1_555
Ge4 Pd3 2.463700 1_555
Ge4 Pd3 2.463766 1_455
Ge4 Pd2 2.676604 1_555
Ge4 Y1 3.017483 1_455
Ge4 Y1 3.023718 1_555
Ge4 Y0 3.049541 1_555
Ge4 Y3 3.381639 1_454
Ge5 Pd2 2.463686 1_555
Ge5 Pd2 2.463767 1_655
Ge5 Pd3 2.676626 1_555
Ge5 Y0 3.017467 1_655
Ge5 Y0 3.023711 1_555
Ge5 Y1 3.049548 1_555
Ge5 Y2 3.381626 1_656
Ge6 Ge7 2.411631 1_556
Ge6 Pd2 2.487183 1_555
Ge6 Pd0 2.487223 1_555
Ge6 Y2 3.357175 1_556
Ge6 Y3 3.357241 1_455
Ge6 Y2 3.361376 1_656
Ge6 Y3 3.361498 1_555
Ge7 Pd3 2.487174 1_555
Ge7 Pd1 2.487242 1_555
Ge7 Y3 3.357187 1_554
Ge7 Y2 3.357250 1_655
Ge7 Y3 3.361381 1_454
Ge7 Y2 3.361500 1_555
Pd0 Y1 3.198608 1_545
Pd0 Y1 3.201820 1_445
Pd0 Y3 3.250322 1_455
Pd0 Y3 3.255776 1_555
Pd0 Y0 3.283390 1_555
Pd1 Y0 3.198592 1_565
Pd1 Y0 3.201818 1_665
Pd1 Y2 3.250369 1_655
Pd1 Y2 3.255810 1_555
Pd1 Y1 3.283374 1_555
Pd2 Y1 3.198401 1_555
Pd2 Y1 3.201854 1_455
Pd2 Y2 3.250470 1_556
Pd2 Y2 3.255795 1_656
Pd2 Y0 3.283321 1_555
Pd3 Y0 3.198419 1_555
Pd3 Y0 3.201852 1_655
Pd3 Y3 3.250454 1_554
Pd3 Y3 3.255799 1_454
Pd3 Y1 3.283352 1_555
