# generated using pymatgen
data_NaPHO3
_symmetry_space_group_name_H-M   'P 1'
_cell_length_a   12.44026800
_cell_length_b   6.17724000
_cell_length_c   9.84264575
_cell_angle_alpha   88.25208942
_cell_angle_beta   90.00000000
_cell_angle_gamma   90.00000000
_symmetry_Int_Tables_number   1
_chemical_formula_structural   NaPHO3
_chemical_formula_sum   'Na8 P8 H8 O24'
_cell_volume   756.02114646
_cell_formula_units_Z   8
loop_
 _symmetry_equiv_pos_site_id
 _symmetry_equiv_pos_as_xyz
  1  'x, y, z'
loop_
 _atom_site_type_symbol
 _atom_site_label
 _atom_site_symmetry_multiplicity
 _atom_site_fract_x
 _atom_site_fract_y
 _atom_site_fract_z
 _atom_site_occupancy
  Na  Na0  1  0.07520200  0.69387300  0.52464800  1
  Na  Na1  1  0.92479800  0.30612700  0.47535200  1
  Na  Na2  1  0.57520200  0.30612700  0.97535200  1
  Na  Na3  1  0.42479800  0.69387300  0.02464800  1
  Na  Na4  1  0.12778200  0.94124100  0.95028900  1
  Na  Na5  1  0.87221800  0.05875900  0.04971100  1
  Na  Na6  1  0.62778200  0.05875900  0.54971100  1
  Na  Na7  1  0.37221800  0.94124100  0.45028900  1
  P  P0  1  0.31870400  0.45669200  0.50655200  1
  P  P1  1  0.68129600  0.54330800  0.49344800  1
  P  P2  1  0.81870400  0.54330800  0.99344800  1
  P  P3  1  0.18129600  0.45669200  0.00655200  1
  P  P4  1  0.49637800  0.59916800  0.68519100  1
  P  P5  1  0.50362200  0.40083200  0.31480900  1
  P  P6  1  0.99637800  0.40083200  0.81480900  1
  P  P7  1  0.00362200  0.59916800  0.18519100  1
  H  H0  1  0.18701500  0.95065000  0.69455600  1
  H  H1  1  0.81298500  0.04935000  0.30544400  1
  H  H2  1  0.68701500  0.04935000  0.80544400  1
  H  H3  1  0.31298500  0.95065000  0.19455600  1
  H  H4  1  0.90990100  0.93877600  0.62825400  1
  H  H5  1  0.09009900  0.06122400  0.37174600  1
  H  H6  1  0.40990100  0.06122400  0.87174600  1
  H  H7  1  0.59009900  0.93877600  0.12825400  1
  O  O0  1  0.72929100  0.76206400  0.50909300  1
  O  O1  1  0.27070900  0.23793600  0.49090700  1
  O  O2  1  0.22929100  0.23793600  0.99090700  1
  O  O3  1  0.77070900  0.76206400  0.00909300  1
  O  O4  1  0.25025200  0.65587000  0.51673500  1
  O  O5  1  0.74974800  0.34413000  0.48326500  1
  O  O6  1  0.75025200  0.34413000  0.98326500  1
  O  O7  1  0.24974800  0.65587000  0.01673500  1
  O  O8  1  0.48637800  0.82353600  0.62414700  1
  O  O9  1  0.51362200  0.17646400  0.37585300  1
  O  O10  1  0.98637800  0.17646400  0.87585300  1
  O  O11  1  0.01362200  0.82353600  0.12414700  1
  O  O12  1  0.09927900  0.52459500  0.88031200  1
  O  O13  1  0.90072100  0.47540500  0.11968800  1
  O  O14  1  0.59927900  0.47540500  0.61968800  1
  O  O15  1  0.40072100  0.52459500  0.38031200  1
  O  O16  1  0.39985700  0.44133100  0.63736600  1
  O  O17  1  0.60014300  0.55866900  0.36263400  1
  O  O18  1  0.89985700  0.55866900  0.86263400  1
  O  O19  1  0.10014300  0.44133100  0.13736600  1
  O  O20  1  0.00504100  0.43281500  0.66330800  1
  O  O21  1  0.99495900  0.56718500  0.33669200  1
  O  O22  1  0.50504100  0.56718500  0.83669200  1
  O  O23  1  0.49495900  0.43281500  0.16330800  1
loop_
_geom_bond_atom_site_label_1
_geom_bond_atom_site_label_2
_geom_bond_distance
_geom_bond_site_symmetry_2
Na0 O4 2.191924 1_555
Na0 O20 2.256262 1_555
Na0 O21 2.262673 1_455
Na1 O5 2.191924 1_555
Na1 O21 2.256262 1_555
Na1 O20 2.262673 1_655
Na2 O6 2.191924 1_555
Na2 O22 2.256262 1_555
Na2 O23 2.262673 1_556
Na3 O7 2.191924 1_555
Na3 O23 2.256262 1_555
Na3 O22 2.262673 1_554
Na4 O2 2.271164 1_565
Na4 O11 2.323351 1_556
Na4 O10 2.382765 1_465
Na4 O7 2.401467 1_556
Na4 O12 2.707823 1_555
Na5 O3 2.271164 1_545
Na5 O10 2.323351 1_554
Na5 O11 2.382765 1_645
Na5 O6 2.401467 1_554
Na5 O13 2.707823 1_555
Na6 O0 2.271164 1_545
Na6 O9 2.323351 1_555
Na6 O8 2.382765 1_545
Na6 O5 2.401467 1_555
Na6 O14 2.707823 1_555
Na7 O1 2.271164 1_565
Na7 O8 2.323351 1_555
Na7 O9 2.382765 1_565
Na7 O4 2.401467 1_555
Na7 O15 2.707823 1_555
H0 Na4 2.621674 1_555
H0 Na0 2.722010 1_555
H1 Na5 2.621674 1_555
H1 Na1 2.722010 1_555
H2 Na6 2.621674 1_555
H2 Na2 2.722010 1_555
H3 Na7 2.621674 1_555
H3 Na3 2.722010 1_555
H4 Na1 2.690772 1_565
H4 Na0 2.766115 1_655
H5 Na0 2.690772 1_545
H5 Na1 2.766115 1_455
H6 Na3 2.690772 1_546
H6 Na2 2.766115 1_555
H7 Na2 2.690772 1_564
H7 Na3 2.766115 1_555
O0 P1 1.489609 1_555
O1 P0 1.489609 1_555
O2 P3 1.489609 1_556
O3 P2 1.489609 1_554
O4 P0 1.502177 1_555
O5 P1 1.502177 1_555
O6 P2 1.502177 1_555
O7 P3 1.502177 1_555
O8 P4 1.498868 1_555
O9 P5 1.498868 1_555
O10 P6 1.498868 1_555
O11 P7 1.498868 1_555
O12 P6 1.633681 1_455
O12 P3 1.651993 1_556
O13 P7 1.633681 1_655
O13 P2 1.651993 1_554
O14 P4 1.633681 1_555
O14 P1 1.651993 1_555
O15 P5 1.633681 1_555
O15 P0 1.651993 1_555
O16 P4 1.625421 1_555
O16 P0 1.636634 1_555
O17 P5 1.625421 1_555
O17 P1 1.636634 1_555
O18 P6 1.625421 1_555
O18 P2 1.636634 1_555
O19 P7 1.625421 1_555
O19 P3 1.636634 1_555
O20 P6 1.502087 1_455
O21 P7 1.502087 1_655
O22 P4 1.502087 1_555
O23 P5 1.502087 1_555
