# generated using pymatgen
data_Si7RuN10
_symmetry_space_group_name_H-M   'P 1'
_cell_length_a   6.71518495
_cell_length_b   6.92972700
_cell_length_c   9.75905196
_cell_angle_alpha   90.00000000
_cell_angle_beta   105.18737017
_cell_angle_gamma   90.00000000
_symmetry_Int_Tables_number   1
_chemical_formula_structural   Si7RuN10
_chemical_formula_sum   'Si14 Ru2 N20'
_cell_volume   438.27073284
_cell_formula_units_Z   2
loop_
 _symmetry_equiv_pos_site_id
 _symmetry_equiv_pos_as_xyz
  1  'x, y, z'
loop_
 _atom_site_type_symbol
 _atom_site_label
 _atom_site_symmetry_multiplicity
 _atom_site_fract_x
 _atom_site_fract_y
 _atom_site_fract_z
 _atom_site_occupancy
  Si  Si0  1  0.53620400  0.98225100  0.81843200  1
  Si  Si1  1  0.53620400  0.01774900  0.31843200  1
  Si  Si2  1  0.34893600  0.01976000  0.01810300  1
  Si  Si3  1  0.34893600  0.98024000  0.51810300  1
  Si  Si4  1  0.11476500  0.39848300  0.07604600  1
  Si  Si5  1  0.11476500  0.60151700  0.57604600  1
  Si  Si6  1  0.65688900  0.36007300  0.98649000  1
  Si  Si7  1  0.65688900  0.63992700  0.48649000  1
  Si  Si8  1  0.84915600  0.62037300  0.81178400  1
  Si  Si9  1  0.84915600  0.37962700  0.31178400  1
  Si  Si10  1  0.29512900  0.61834400  0.88058900  1
  Si  Si11  1  0.29512900  0.38165600  0.38058900  1
  Si  Si12  1  0.48736100  0.36972700  0.68422700  1
  Si  Si13  1  0.48736100  0.63027300  0.18422700  1
  Ru  Ru0  1  0.99697500  0.89781200  0.70744700  1
  Ru  Ru1  1  0.99697500  0.10218800  0.20744700  1
  N  N0  1  0.74088000  0.84249600  0.81281900  1
  N  N1  1  0.74088000  0.15750400  0.31281900  1
  N  N2  1  0.55124400  0.13349900  0.96539300  1
  N  N3  1  0.55124400  0.86650100  0.46539300  1
  N  N4  1  0.30531400  0.87057500  0.85937800  1
  N  N5  1  0.30531400  0.12942500  0.35937800  1
  N  N6  1  0.15875500  0.16053200  0.04716500  1
  N  N7  1  0.15875500  0.83946800  0.54716500  1
  N  N8  1  0.29081600  0.50387700  0.72349600  1
  N  N9  1  0.29081600  0.49612300  0.22349600  1
  N  N10  1  0.44634100  0.12357400  0.66671100  1
  N  N11  1  0.44634100  0.87642600  0.16671100  1
  N  N12  1  0.88154100  0.37495700  0.12990800  1
  N  N13  1  0.88154100  0.62504300  0.62990800  1
  N  N14  1  0.07887600  0.56508300  0.93799900  1
  N  N15  1  0.07887600  0.43491700  0.43799900  1
  N  N16  1  0.70278600  0.41537300  0.82329500  1
  N  N17  1  0.70278600  0.58462700  0.32329500  1
  N  N18  1  0.50033500  0.54168600  0.02001800  1
  N  N19  1  0.50033500  0.45831400  0.52001800  1
loop_
_geom_bond_atom_site_label_1
_geom_bond_atom_site_label_2
_geom_bond_distance
_geom_bond_site_symmetry_2
N0 Si0 1.693945 1_555
N0 Si8 1.703500 1_555
N0 Ru0 2.255757 1_555
N1 Si1 1.693945 1_555
N1 Si9 1.703500 1_555
N1 Ru1 2.255757 1_555
N2 Si6 1.712993 1_555
N2 Si0 1.757773 1_545
N2 Si2 1.760002 1_556
N3 Si7 1.712993 1_555
N3 Si1 1.757773 1_565
N3 Si3 1.760002 1_555
N4 Si10 1.763539 1_555
N4 Si2 1.821057 1_566
N4 Si0 1.867390 1_555
N4 Ru0 2.216457 1_455
N5 Si11 1.763539 1_555
N5 Si3 1.821057 1_545
N5 Si1 1.867390 1_555
N5 Ru1 2.216457 1_455
N6 Si2 1.689032 1_555
N6 Si4 1.711524 1_555
N6 Ru1 2.163511 1_455
N7 Si3 1.689032 1_555
N7 Si5 1.711524 1_555
N7 Ru0 2.163511 1_455
N8 Si10 1.719625 1_555
N8 Si12 1.737252 1_555
N8 Si5 1.742054 1_555
N9 Si11 1.719625 1_555
N9 Si13 1.737252 1_555
N9 Si4 1.742054 1_555
N10 Si12 1.729187 1_555
N10 Si3 1.738010 1_545
N10 Si0 1.745686 1_545
N11 Si13 1.729187 1_555
N11 Si2 1.738010 1_565
N11 Si1 1.745686 1_565
N12 Si6 1.771751 1_554
N12 Si4 1.785221 1_655
N12 Si9 1.844177 1_555
N12 Ru1 2.106907 1_555
N13 Si7 1.771751 1_555
N13 Si5 1.785221 1_655
N13 Si8 1.844177 1_555
N13 Ru0 2.106907 1_555
N14 Si10 1.727784 1_555
N14 Si4 1.742351 1_556
N14 Si8 1.745873 1_455
N15 Si11 1.727784 1_555
N15 Si5 1.742351 1_555
N15 Si9 1.745873 1_455
N16 Si12 1.733780 1_555
N16 Si6 1.742268 1_555
N16 Si8 1.747757 1_555
N17 Si13 1.733780 1_555
N17 Si7 1.742268 1_555
N17 Si9 1.747757 1_555
N18 Si6 1.725223 1_554
N18 Si13 1.739448 1_555
N18 Si10 1.746462 1_554
N19 Si7 1.725223 1_555
N19 Si12 1.739448 1_555
N19 Si11 1.746462 1_555
