# generated using pymatgen
data_NaCo2Se2O7
_symmetry_space_group_name_H-M   'P 1'
_cell_length_a   6.05322200
_cell_length_b   8.37970000
_cell_length_c   13.51361300
_cell_angle_alpha   90.00000000
_cell_angle_beta   90.00000000
_cell_angle_gamma   90.00000000
_symmetry_Int_Tables_number   1
_chemical_formula_structural   NaCo2Se2O7
_chemical_formula_sum   'Na4 Co8 Se8 O28'
_cell_volume   685.46699763
_cell_formula_units_Z   4
loop_
 _symmetry_equiv_pos_site_id
 _symmetry_equiv_pos_as_xyz
  1  'x, y, z'
loop_
 _atom_site_type_symbol
 _atom_site_label
 _atom_site_symmetry_multiplicity
 _atom_site_fract_x
 _atom_site_fract_y
 _atom_site_fract_z
 _atom_site_occupancy
  Na  Na0  1  0.25000000  0.63037200  0.24886600  1
  Na  Na1  1  0.75000000  0.36962800  0.75113400  1
  Na  Na2  1  0.75000000  0.13037200  0.25113400  1
  Na  Na3  1  0.25000000  0.86962800  0.74886600  1
  Co  Co0  1  0.00000000  0.00000000  0.00000000  1
  Co  Co1  1  0.00000000  0.50000000  0.50000000  1
  Co  Co2  1  0.50000000  0.00000000  0.00000000  1
  Co  Co3  1  0.50000000  0.50000000  0.50000000  1
  Co  Co4  1  0.25000000  0.27459700  0.11566500  1
  Co  Co5  1  0.75000000  0.72540300  0.88433500  1
  Co  Co6  1  0.75000000  0.77459700  0.38433500  1
  Co  Co7  1  0.25000000  0.22540300  0.61566500  1
  Se  Se0  1  0.25000000  0.27380300  0.32806900  1
  Se  Se1  1  0.75000000  0.72619700  0.67193100  1
  Se  Se2  1  0.75000000  0.77380300  0.17193100  1
  Se  Se3  1  0.25000000  0.22619700  0.82806900  1
  Se  Se4  1  0.25000000  0.87971500  0.47449900  1
  Se  Se5  1  0.75000000  0.12028500  0.52550100  1
  Se  Se6  1  0.75000000  0.37971500  0.02550100  1
  Se  Se7  1  0.25000000  0.62028500  0.97449900  1
  O  O0  1  0.52554200  0.24910900  0.01398700  1
  O  O1  1  0.47445800  0.75089100  0.98601300  1
  O  O2  1  0.47445800  0.74910900  0.48601300  1
  O  O3  1  0.02554200  0.75089100  0.98601300  1
  O  O4  1  0.52554200  0.25089100  0.51398700  1
  O  O5  1  0.97445800  0.24910900  0.01398700  1
  O  O6  1  0.97445800  0.25089100  0.51398700  1
  O  O7  1  0.02554200  0.74910900  0.48601300  1
  O  O8  1  0.04073600  0.30078200  0.24275600  1
  O  O9  1  0.95926400  0.69921800  0.75724400  1
  O  O10  1  0.95926400  0.80078200  0.25724400  1
  O  O11  1  0.54073600  0.69921800  0.75724400  1
  O  O12  1  0.04073600  0.19921800  0.74275600  1
  O  O13  1  0.45926400  0.30078200  0.24275600  1
  O  O14  1  0.45926400  0.19921800  0.74275600  1
  O  O15  1  0.54073600  0.80078200  0.25724400  1
  O  O16  1  0.25000000  0.46439300  0.38701700  1
  O  O17  1  0.75000000  0.53560700  0.61298300  1
  O  O18  1  0.75000000  0.96439300  0.11298300  1
  O  O19  1  0.25000000  0.03560700  0.88701700  1
  O  O20  1  0.25000000  0.52747100  0.08750400  1
  O  O21  1  0.75000000  0.47252900  0.91249600  1
  O  O22  1  0.75000000  0.02747100  0.41249600  1
  O  O23  1  0.25000000  0.97252900  0.58750400  1
  O  O24  1  0.25000000  0.02989600  0.08239500  1
  O  O25  1  0.75000000  0.97010400  0.91760500  1
  O  O26  1  0.75000000  0.52989600  0.41760500  1
  O  O27  1  0.25000000  0.47010400  0.58239500  1
loop_
_geom_bond_atom_site_label_1
_geom_bond_atom_site_label_2
_geom_bond_distance
_geom_bond_site_symmetry_2
Na0 O15 2.269178 1_555
Na0 O10 2.269178 1_455
Na0 O16 2.328060 1_555
Na0 O20 2.344882 1_555
Na1 O12 2.269178 1_655
Na1 O14 2.269178 1_555
Na1 O17 2.328060 1_555
Na1 O21 2.344882 1_555
Na2 O13 2.269178 1_555
Na2 O8 2.269178 1_655
Na2 O18 2.328060 1_545
Na2 O22 2.344882 1_555
Na3 O11 2.269178 1_555
Na3 O9 2.269178 1_455
Na3 O19 2.328060 1_565
Na3 O23 2.344882 1_555
Co0 O25 1.895424 1_444
Co0 O24 1.895424 1_555
Co0 O5 2.101693 1_455
Co0 O3 2.101693 1_544
Co0 O18 2.170315 1_445
Co0 O19 2.170315 1_554
Co1 O26 1.895424 1_455
Co1 O27 1.895424 1_555
Co1 O7 2.101693 1_555
Co1 O6 2.101693 1_455
Co1 O17 2.170315 1_455
Co1 O16 2.170315 1_555
Co2 O25 1.895424 1_544
Co2 O24 1.895424 1_555
Co2 O0 2.101693 1_555
Co2 O1 2.101693 1_544
Co2 O18 2.170315 1_545
Co2 O19 2.170315 1_554
Co3 O26 1.895424 1_555
Co3 O27 1.895424 1_555
Co3 O2 2.101693 1_555
Co3 O4 2.101693 1_555
Co3 O17 2.170315 1_555
Co3 O16 2.170315 1_555
Co4 O24 2.099232 1_555
Co4 O8 2.145319 1_555
Co4 O13 2.145319 1_555
Co4 O20 2.152910 1_555
Co4 O0 2.171530 1_555
Co4 O5 2.171530 1_455
Co5 O25 2.099232 1_555
Co5 O11 2.145319 1_555
Co5 O9 2.145319 1_555
Co5 O21 2.152910 1_555
Co5 O3 2.171530 1_655
Co5 O1 2.171530 1_555
Co6 O26 2.099232 1_555
Co6 O15 2.145319 1_555
Co6 O10 2.145319 1_555
Co6 O22 2.152910 1_565
Co6 O7 2.171530 1_655
Co6 O2 2.171530 1_555
Co7 O27 2.099232 1_555
Co7 O14 2.145319 1_555
Co7 O12 2.145319 1_555
Co7 O23 2.152910 1_545
Co7 O4 2.171530 1_555
Co7 O6 2.171530 1_455
O0 Se6 1.751587 1_555
O1 Se7 1.751587 1_555
O2 Se4 1.751587 1_555
O3 Se7 1.751587 1_555
O4 Se5 1.751587 1_555
O5 Se6 1.751587 1_555
O6 Se5 1.751587 1_555
O7 Se4 1.751587 1_555
O8 Se0 1.727669 1_555
O9 Se1 1.727669 1_555
O10 Se2 1.727669 1_555
O11 Se1 1.727669 1_555
O12 Se3 1.727669 1_555
O13 Se0 1.727669 1_555
O14 Se3 1.727669 1_555
O15 Se2 1.727669 1_555
O16 Se0 1.784729 1_555
O17 Se1 1.784729 1_555
O18 Se2 1.784729 1_555
O19 Se3 1.784729 1_555
O20 Se7 1.713754 1_554
O21 Se6 1.713754 1_556
O22 Se5 1.713754 1_555
O23 Se4 1.713754 1_555
