# generated using pymatgen
data_Mn3Si6N11
_symmetry_space_group_name_H-M   'P 1'
_cell_length_a   9.76239911
_cell_length_b   9.76239911
_cell_length_c   4.79488211
_cell_angle_alpha   90.00000000
_cell_angle_beta   90.00000000
_cell_angle_gamma   90.00000000
_symmetry_Int_Tables_number   1
_chemical_formula_structural   Mn3Si6N11
_chemical_formula_sum   'Mn6 Si12 N22'
_cell_volume   456.97353702
_cell_formula_units_Z   2
loop_
 _symmetry_equiv_pos_site_id
 _symmetry_equiv_pos_as_xyz
  1  'x, y, z'
loop_
 _atom_site_type_symbol
 _atom_site_label
 _atom_site_symmetry_multiplicity
 _atom_site_fract_x
 _atom_site_fract_y
 _atom_site_fract_z
 _atom_site_occupancy
  Mn  Mn0  1  0.29394408  0.79394408  0.96518215  1
  Mn  Mn1  1  0.70605592  0.20605592  0.96518215  1
  Mn  Mn2  1  0.20605592  0.29394408  0.96518215  1
  Mn  Mn3  1  0.79394408  0.70605592  0.96518215  1
  Mn  Mn4  1  0.50000000  0.50000000  0.91181732  1
  Mn  Mn5  1  -0.00000000  0.00000000  0.91181732  1
  Si  Si0  1  0.41989143  0.29048689  0.53167010  1
  Si  Si1  1  0.58010857  0.70951311  0.53167010  1
  Si  Si2  1  0.08010857  0.79048689  0.53167010  1
  Si  Si3  1  0.91989143  0.20951311  0.53167010  1
  Si  Si4  1  0.29048689  0.58010857  0.53167010  1
  Si  Si5  1  0.70951311  0.41989143  0.53167010  1
  Si  Si6  1  0.79048689  0.91989143  0.53167010  1
  Si  Si7  1  0.20951311  0.08010857  0.53167010  1
  Si  Si8  1  0.88427899  0.38427899  0.04696474  1
  Si  Si9  1  0.11572101  0.61572101  0.04696474  1
  Si  Si10  1  0.61572101  0.88427899  0.04696474  1
  Si  Si11  1  0.38427899  0.11572101  0.04696474  1
  N  N0  1  0.31932453  0.42027173  0.67709557  1
  N  N1  1  0.68067547  0.57972827  0.67709557  1
  N  N2  1  0.18067547  0.92027173  0.67709557  1
  N  N3  1  0.81932453  0.07972827  0.67709557  1
  N  N4  1  0.42027173  0.68067547  0.67709557  1
  N  N5  1  0.57972827  0.31932453  0.67709557  1
  N  N6  1  0.92027173  0.81932453  0.67709557  1
  N  N7  1  0.07972827  0.18067547  0.67709557  1
  N  N8  1  0.40286143  0.28596173  0.17279650  1
  N  N9  1  0.59713857  0.71403827  0.17279650  1
  N  N10  1  0.09713857  0.78596173  0.17279650  1
  N  N11  1  0.90286143  0.21403827  0.17279650  1
  N  N12  1  0.28596173  0.59713857  0.17279650  1
  N  N13  1  0.71403827  0.40286143  0.17279650  1
  N  N14  1  0.78596173  0.90286143  0.17279650  1
  N  N15  1  0.21403827  0.09713857  0.17279650  1
  N  N16  1  0.85638326  0.35638326  0.68901435  1
  N  N17  1  0.14361674  0.64361674  0.68901435  1
  N  N18  1  0.64361674  0.85638326  0.68901435  1
  N  N19  1  0.35638326  0.14361674  0.68901435  1
  N  N20  1  0.50000000  0.00000000  0.12815152  1
  N  N21  1  -0.00000000  0.50000000  0.12815152  1
loop_
_geom_bond_atom_site_label_1
_geom_bond_atom_site_label_2
_geom_bond_distance
_geom_bond_site_symmetry_2
Mn0 N4 2.156796 1_555
Mn0 N2 2.156796 1_555
Mn0 N10 2.165280 1_556
Mn0 N12 2.165280 1_556
Mn0 N17 2.461894 1_555
Mn1 N5 2.156796 1_555
Mn1 N3 2.156796 1_555
Mn1 N11 2.165280 1_556
Mn1 N13 2.165280 1_556
Mn1 N16 2.461894 1_555
Mn2 N7 2.156796 1_555
Mn2 N0 2.156796 1_555
Mn2 N15 2.165280 1_556
Mn2 N8 2.165280 1_556
Mn2 N19 2.461894 1_555
Mn3 N1 2.156796 1_555
Mn3 N6 2.156796 1_555
Mn3 N14 2.165280 1_556
Mn3 N9 2.165280 1_556
Mn3 N18 2.461894 1_555
Mn4 N0 2.232389 1_555
Mn4 N5 2.232389 1_555
Mn4 N4 2.232389 1_555
Mn4 N1 2.232389 1_555
Mn4 N13 2.613679 1_556
Mn4 N8 2.613679 1_556
Mn4 N12 2.613679 1_556
Mn4 N9 2.613679 1_556
Mn5 N6 2.232389 1_445
Mn5 N3 2.232389 1_455
Mn5 N7 2.232389 1_555
Mn5 N2 2.232389 1_545
Mn5 N10 2.613679 1_546
Mn5 N15 2.613679 1_556
Mn5 N14 2.613679 1_446
Mn5 N11 2.613679 1_456
N0 Si4 1.732138 1_555
N0 Si0 1.747977 1_555
N1 Si5 1.732138 1_555
N1 Si1 1.747977 1_555
N2 Si7 1.732138 1_565
N2 Si2 1.747977 1_555
N3 Si6 1.732138 1_545
N3 Si3 1.747977 1_555
N4 Si1 1.732138 1_555
N4 Si4 1.747977 1_555
N5 Si0 1.732138 1_555
N5 Si5 1.747977 1_555
N6 Si2 1.732138 1_655
N6 Si6 1.747977 1_555
N7 Si3 1.732138 1_455
N7 Si7 1.747977 1_555
N8 Si0 1.729334 1_555
N8 Si11 1.777370 1_555
N9 Si1 1.729334 1_555
N9 Si10 1.777370 1_555
N10 Si2 1.729334 1_555
N10 Si9 1.777370 1_555
N11 Si3 1.729334 1_555
N11 Si8 1.777370 1_555
N12 Si4 1.729334 1_555
N12 Si9 1.777370 1_555
N13 Si5 1.729334 1_555
N13 Si8 1.777370 1_555
N14 Si6 1.729334 1_555
N14 Si10 1.777370 1_555
N15 Si7 1.729334 1_555
N15 Si11 1.777370 1_555
N16 Si5 1.734756 1_555
N16 Si3 1.734756 1_555
N16 Si8 1.759010 1_556
N17 Si4 1.734756 1_555
N17 Si2 1.734756 1_555
N17 Si9 1.759010 1_556
N18 Si1 1.734756 1_555
N18 Si6 1.734756 1_555
N18 Si10 1.759010 1_556
N19 Si0 1.734756 1_555
N19 Si7 1.734756 1_555
N19 Si11 1.759010 1_556
N20 Si11 1.644400 1_555
N20 Si10 1.644400 1_545
N21 Si8 1.644400 1_455
N21 Si9 1.644400 1_555
