# generated using pymatgen
data_Sm3Ge13Os4
_symmetry_space_group_name_H-M   'P 1'
_cell_length_a   9.13598000
_cell_length_b   9.13598000
_cell_length_c   9.13598000
_cell_angle_alpha   90.00000000
_cell_angle_beta   90.00000000
_cell_angle_gamma   90.00000000
_symmetry_Int_Tables_number   1
_chemical_formula_structural   Sm3Ge13Os4
_chemical_formula_sum   'Sm6 Ge26 Os8'
_cell_volume   762.54489948
_cell_formula_units_Z   2
loop_
 _symmetry_equiv_pos_site_id
 _symmetry_equiv_pos_as_xyz
  1  'x, y, z'
loop_
 _atom_site_type_symbol
 _atom_site_label
 _atom_site_symmetry_multiplicity
 _atom_site_fract_x
 _atom_site_fract_y
 _atom_site_fract_z
 _atom_site_occupancy
  Sm  Sm0  1  0.00000000  0.50000000  0.75000000  1
  Sm  Sm1  1  0.50000000  0.25000000  0.00000000  1
  Sm  Sm2  1  0.75000000  0.00000000  0.50000000  1
  Sm  Sm3  1  0.00000000  0.50000000  0.25000000  1
  Sm  Sm4  1  0.50000000  0.75000000  0.00000000  1
  Sm  Sm5  1  0.25000000  0.00000000  0.50000000  1
  Ge  Ge0  1  0.50000000  0.50000000  0.50000000  1
  Ge  Ge1  1  0.00000000  0.00000000  0.00000000  1
  Ge  Ge2  1  0.79943500  0.35397700  0.50000000  1
  Ge  Ge3  1  0.64602300  0.50000000  0.79943500  1
  Ge  Ge4  1  0.50000000  0.20056500  0.64602300  1
  Ge  Ge5  1  0.20056500  0.64602300  0.50000000  1
  Ge  Ge6  1  0.35397700  0.50000000  0.20056500  1
  Ge  Ge7  1  0.50000000  0.79943500  0.35397700  1
  Ge  Ge8  1  0.79943500  0.64602300  0.50000000  1
  Ge  Ge9  1  0.64602300  0.50000000  0.20056500  1
  Ge  Ge10  1  0.20056500  0.35397700  0.50000000  1
  Ge  Ge11  1  0.35397700  0.50000000  0.79943500  1
  Ge  Ge12  1  0.50000000  0.79943500  0.64602300  1
  Ge  Ge13  1  0.50000000  0.20056500  0.35397700  1
  Ge  Ge14  1  0.29943500  0.00000000  0.85397700  1
  Ge  Ge15  1  0.14602300  0.29943500  0.00000000  1
  Ge  Ge16  1  0.00000000  0.14602300  0.70056500  1
  Ge  Ge17  1  0.70056500  0.00000000  0.14602300  1
  Ge  Ge18  1  0.85397700  0.70056500  0.00000000  1
  Ge  Ge19  1  0.00000000  0.85397700  0.29943500  1
  Ge  Ge20  1  0.29943500  0.00000000  0.14602300  1
  Ge  Ge21  1  0.14602300  0.70056500  0.00000000  1
  Ge  Ge22  1  0.70056500  0.00000000  0.85397700  1
  Ge  Ge23  1  0.85397700  0.29943500  0.00000000  1
  Ge  Ge24  1  0.00000000  0.14602300  0.29943500  1
  Ge  Ge25  1  0.00000000  0.85397700  0.70056500  1
  Os  Os0  1  0.75000000  0.25000000  0.75000000  1
  Os  Os1  1  0.25000000  0.75000000  0.25000000  1
  Os  Os2  1  0.75000000  0.75000000  0.25000000  1
  Os  Os3  1  0.25000000  0.25000000  0.75000000  1
  Os  Os4  1  0.25000000  0.75000000  0.75000000  1
  Os  Os5  1  0.75000000  0.25000000  0.25000000  1
  Os  Os6  1  0.25000000  0.25000000  0.25000000  1
  Os  Os7  1  0.75000000  0.75000000  0.75000000  1
loop_
_geom_bond_atom_site_label_1
_geom_bond_atom_site_label_2
_geom_bond_distance
_geom_bond_site_symmetry_2
Ge0 Ge12 3.043585 1_555
Ge0 Ge6 3.043585 1_555
Ge0 Ge2 3.043585 1_555
Ge0 Ge13 3.043585 1_555
Ge0 Ge10 3.043585 1_555
Ge0 Ge11 3.043585 1_555
Ge0 Ge4 3.043585 1_555
Ge0 Ge3 3.043585 1_555
Ge0 Ge9 3.043585 1_555
Ge0 Ge8 3.043585 1_555
Ge0 Ge5 3.043585 1_555
Ge0 Ge7 3.043585 1_555
Ge1 Ge17 3.043585 1_455
Ge1 Ge20 3.043585 1_555
Ge1 Ge16 3.043585 1_554
Ge1 Ge23 3.043585 1_455
Ge1 Ge21 3.043585 1_545
Ge1 Ge25 3.043585 1_544
Ge1 Ge14 3.043585 1_554
Ge1 Ge18 3.043585 1_445
Ge1 Ge19 3.043585 1_545
Ge1 Ge22 3.043585 1_454
Ge1 Ge24 3.043585 1_555
Ge1 Ge15 3.043585 1_555
Ge2 Os5 2.514554 1_555
Ge2 Os0 2.514554 1_555
Ge2 Sm0 3.217747 1_655
Ge2 Sm3 3.217747 1_655
Ge2 Sm2 3.265311 1_555
Ge3 Os7 2.514554 1_555
Ge3 Os0 2.514554 1_555
Ge3 Sm4 3.217747 1_556
Ge3 Sm1 3.217747 1_556
Ge3 Sm0 3.265311 1_655
Ge4 Os3 2.514554 1_555
Ge4 Os0 2.514554 1_555
Ge4 Sm2 3.217747 1_555
Ge4 Sm5 3.217747 1_555
Ge4 Sm1 3.265311 1_556
Ge5 Os1 2.514554 1_555
Ge5 Os4 2.514554 1_555
Ge5 Sm3 3.217747 1_555
Ge5 Sm0 3.217747 1_555
Ge5 Sm5 3.265311 1_565
Ge6 Os1 2.514554 1_555
Ge6 Os6 2.514554 1_555
Ge6 Sm1 3.217747 1_555
Ge6 Sm4 3.217747 1_555
Ge6 Sm3 3.265311 1_555
Ge7 Os1 2.514554 1_555
Ge7 Os2 2.514554 1_555
Ge7 Sm5 3.217747 1_565
Ge7 Sm2 3.217747 1_565
Ge7 Sm4 3.265311 1_555
Ge8 Os7 2.514554 1_555
Ge8 Os2 2.514554 1_555
Ge8 Sm0 3.217747 1_655
Ge8 Sm3 3.217747 1_655
Ge8 Sm2 3.265311 1_565
Ge9 Os5 2.514554 1_555
Ge9 Os2 2.514554 1_555
Ge9 Sm1 3.217747 1_555
Ge9 Sm4 3.217747 1_555
Ge9 Sm3 3.265311 1_655
Ge10 Os6 2.514554 1_555
Ge10 Os3 2.514554 1_555
Ge10 Sm3 3.217747 1_555
Ge10 Sm0 3.217747 1_555
Ge10 Sm5 3.265311 1_555
Ge11 Os3 2.514554 1_555
Ge11 Os4 2.514554 1_555
Ge11 Sm4 3.217747 1_556
Ge11 Sm1 3.217747 1_556
Ge11 Sm0 3.265311 1_555
Ge12 Os7 2.514554 1_555
Ge12 Os4 2.514554 1_555
Ge12 Sm5 3.217747 1_565
Ge12 Sm2 3.217747 1_565
Ge12 Sm4 3.265311 1_556
Ge13 Os5 2.514554 1_555
Ge13 Os6 2.514554 1_555
Ge13 Sm2 3.217747 1_555
Ge13 Sm5 3.217747 1_555
Ge13 Sm1 3.265311 1_555
Ge14 Os4 2.514554 1_545
Ge14 Os3 2.514554 1_555
Ge14 Sm1 3.217747 1_556
Ge14 Sm4 3.217747 1_546
Ge14 Sm5 3.265311 1_555
Ge15 Os3 2.514554 1_554
Ge15 Os6 2.514554 1_555
Ge15 Sm3 3.217747 1_555
Ge15 Sm0 3.217747 1_554
Ge15 Sm1 3.265311 1_555
Ge16 Os0 2.514554 1_455
Ge16 Os3 2.514554 1_555
Ge16 Sm5 3.217747 1_555
Ge16 Sm2 3.217747 1_455
Ge16 Sm0 3.265311 1_555
Ge17 Os5 2.514554 1_555
Ge17 Os2 2.514554 1_545
Ge17 Sm1 3.217747 1_555
Ge17 Sm4 3.217747 1_545
Ge17 Sm2 3.265311 1_555
Ge18 Os2 2.514554 1_555
Ge18 Os7 2.514554 1_554
Ge18 Sm0 3.217747 1_654
Ge18 Sm3 3.217747 1_655
Ge18 Sm4 3.265311 1_555
Ge19 Os2 2.514554 1_455
Ge19 Os1 2.514554 1_555
Ge19 Sm5 3.217747 1_565
Ge19 Sm2 3.217747 1_465
Ge19 Sm3 3.265311 1_555
Ge20 Os1 2.514554 1_545
Ge20 Os6 2.514554 1_555
Ge20 Sm1 3.217747 1_555
Ge20 Sm4 3.217747 1_545
Ge20 Sm5 3.265311 1_555
Ge21 Os1 2.514554 1_555
Ge21 Os4 2.514554 1_554
Ge21 Sm3 3.217747 1_555
Ge21 Sm0 3.217747 1_554
Ge21 Sm4 3.265311 1_555
Ge22 Os7 2.514554 1_545
Ge22 Os0 2.514554 1_555
Ge22 Sm1 3.217747 1_556
Ge22 Sm4 3.217747 1_546
Ge22 Sm2 3.265311 1_555
Ge23 Os0 2.514554 1_554
Ge23 Os5 2.514554 1_555
Ge23 Sm3 3.217747 1_655
Ge23 Sm0 3.217747 1_654
Ge23 Sm1 3.265311 1_555
Ge24 Os6 2.514554 1_555
Ge24 Os5 2.514554 1_455
Ge24 Sm5 3.217747 1_555
Ge24 Sm2 3.217747 1_455
Ge24 Sm3 3.265311 1_555
Ge25 Os7 2.514554 1_455
Ge25 Os4 2.514554 1_555
Ge25 Sm5 3.217747 1_565
Ge25 Sm2 3.217747 1_465
Ge25 Sm0 3.265311 1_555
Os0 Sm1 3.230057 1_556
Os0 Sm0 3.230057 1_655
Os0 Sm2 3.230057 1_555
Os1 Sm4 3.230057 1_555
Os1 Sm5 3.230057 1_565
Os1 Sm3 3.230057 1_555
Os2 Sm4 3.230057 1_555
Os2 Sm2 3.230057 1_565
Os2 Sm3 3.230057 1_655
Os3 Sm1 3.230057 1_556
Os3 Sm5 3.230057 1_555
Os3 Sm0 3.230057 1_555
Os4 Sm4 3.230057 1_556
Os4 Sm5 3.230057 1_565
Os4 Sm0 3.230057 1_555
Os5 Sm2 3.230057 1_555
Os5 Sm1 3.230057 1_555
Os5 Sm3 3.230057 1_655
Os6 Sm5 3.230057 1_555
Os6 Sm1 3.230057 1_555
Os6 Sm3 3.230057 1_555
Os7 Sm4 3.230057 1_556
Os7 Sm0 3.230057 1_655
Os7 Sm2 3.230057 1_565
