# generated using pymatgen
data_Te2Mo3W(SeS2)2
_symmetry_space_group_name_H-M   'P 1'
_cell_length_a   3.30899548
_cell_length_b   3.30899548
_cell_length_c   38.53505300
_cell_angle_alpha   90.00000000
_cell_angle_beta   90.00000000
_cell_angle_gamma   119.99998966
_symmetry_Int_Tables_number   1
_chemical_formula_structural   Te2Mo3W(SeS2)2
_chemical_formula_sum   'Te2 Mo3 W1 Se2 S4'
_cell_volume   365.40878663
_cell_formula_units_Z   1
loop_
 _symmetry_equiv_pos_site_id
 _symmetry_equiv_pos_as_xyz
  1  'x, y, z'
loop_
 _atom_site_type_symbol
 _atom_site_label
 _atom_site_symmetry_multiplicity
 _atom_site_fract_x
 _atom_site_fract_y
 _atom_site_fract_z
 _atom_site_occupancy
  Te  Te0  1  0.33333300  0.66666700  0.42033000  1
  Te  Te1  1  0.33333300  0.66666700  0.52011900  1
  Mo  Mo0  1  0.00000000  0.00000000  0.09381100  1
  Mo  Mo1  1  0.33333300  0.66666700  0.28096700  1
  Mo  Mo2  1  0.33333300  0.66666700  0.65790800  1
  W  W0  1  0.00000000  0.00000000  0.47022900  1
  Se  Se0  1  0.00000000  0.00000000  0.32457600  1
  Se  Se1  1  0.00000000  0.00000000  0.23739300  1
  S  S0  1  0.00000000  0.00000000  0.69754000  1
  S  S1  1  0.33333300  0.66666700  0.05425500  1
  S  S2  1  0.33333300  0.66666700  0.13337200  1
  S  S3  1  0.00000000  0.00000000  0.61824800  1
loop_
_geom_bond_atom_site_label_1
_geom_bond_atom_site_label_2
_geom_bond_distance
_geom_bond_site_symmetry_2
Te0 W0 2.710572 1_565
Te0 W0 2.710575 1_555
Te0 W0 2.710575 1_665
Te1 W0 2.710326 1_565
Te1 W0 2.710329 1_665
Te1 W0 2.710329 1_555
Mo0 S1 2.444029 1_545
Mo0 S1 2.444031 1_445
Mo0 S1 2.444031 1_555
Mo0 S2 2.444149 1_545
Mo0 S2 2.444152 1_555
Mo0 S2 2.444152 1_445
Mo1 Se1 2.543477 1_565
Mo1 Se1 2.543479 1_555
Mo1 Se1 2.543479 1_665
Mo1 Se0 2.544368 1_565
Mo1 Se0 2.544370 1_665
Mo1 Se0 2.544370 1_555
Mo2 S0 2.445856 1_565
Mo2 S0 2.445859 1_665
Mo2 S0 2.445859 1_555
Mo2 S3 2.446530 1_565
Mo2 S3 2.446533 1_665
Mo2 S3 2.446533 1_555
