# generated using pymatgen
data_MgCu2(MoO4)2
_symmetry_space_group_name_H-M   'P 1'
_cell_length_a   8.56239900
_cell_length_b   6.74732000
_cell_length_c   12.32876465
_cell_angle_alpha   88.81456865
_cell_angle_beta   90.00000000
_cell_angle_gamma   90.00000000
_symmetry_Int_Tables_number   1
_chemical_formula_structural   MgCu2(MoO4)2
_chemical_formula_sum   'Mg4 Cu8 Mo8 O32'
_cell_volume   712.12030988
_cell_formula_units_Z   4
loop_
 _symmetry_equiv_pos_site_id
 _symmetry_equiv_pos_as_xyz
  1  'x, y, z'
loop_
 _atom_site_type_symbol
 _atom_site_label
 _atom_site_symmetry_multiplicity
 _atom_site_fract_x
 _atom_site_fract_y
 _atom_site_fract_z
 _atom_site_occupancy
  Mg  Mg0  1  0.83902500  0.88686000  0.05008000  1
  Mg  Mg1  1  0.16097500  0.11314000  0.94992000  1
  Mg  Mg2  1  0.33902500  0.11314000  0.44992000  1
  Mg  Mg3  1  0.66097500  0.88686000  0.55008000  1
  Cu  Cu0  1  0.81844100  0.23332500  0.87033200  1
  Cu  Cu1  1  0.94537700  0.62145800  0.62221700  1
  Cu  Cu2  1  0.05462300  0.37854200  0.37778300  1
  Cu  Cu3  1  0.18155900  0.76667500  0.12966800  1
  Cu  Cu4  1  0.68155900  0.23332500  0.37033200  1
  Cu  Cu5  1  0.55462300  0.62145800  0.12221700  1
  Cu  Cu6  1  0.31844100  0.76667500  0.62966800  1
  Cu  Cu7  1  0.44537700  0.37854200  0.87778300  1
  Mo  Mo0  1  0.54038400  0.89764700  0.84567400  1
  Mo  Mo1  1  0.95961600  0.89764700  0.34567400  1
  Mo  Mo2  1  0.91605000  0.38786900  0.13192200  1
  Mo  Mo3  1  0.04038400  0.10235300  0.65432600  1
  Mo  Mo4  1  0.08395000  0.61213100  0.86807800  1
  Mo  Mo5  1  0.41605000  0.61213100  0.36807800  1
  Mo  Mo6  1  0.58395000  0.38786900  0.63192200  1
  Mo  Mo7  1  0.45961600  0.10235300  0.15432600  1
  O  O0  1  0.76564300  0.95660500  0.39905400  1
  O  O1  1  0.98635200  0.33882800  0.59804500  1
  O  O2  1  0.42757500  0.81896900  0.46722800  1
  O  O3  1  0.92757500  0.18103100  0.03277200  1
  O  O4  1  0.73435700  0.95660500  0.89905400  1
  O  O5  1  0.23435700  0.04339500  0.60094600  1
  O  O6  1  0.89143600  0.92185400  0.61322700  1
  O  O7  1  0.10514800  0.49215900  0.13720000  1
  O  O8  1  0.39485200  0.49215900  0.63720000  1
  O  O9  1  0.13097000  0.69175300  0.72919300  1
  O  O10  1  0.63097000  0.30824700  0.77080700  1
  O  O11  1  0.89485200  0.50784100  0.86280000  1
  O  O12  1  0.10856400  0.07814600  0.38677300  1
  O  O13  1  0.45742000  0.12178500  0.30101900  1
  O  O14  1  0.71258700  0.58828300  0.58505900  1
  O  O15  1  0.78741300  0.58828300  0.08505900  1
  O  O16  1  0.95742000  0.87821500  0.19898100  1
  O  O17  1  0.60514800  0.50784100  0.36280000  1
  O  O18  1  0.54258000  0.87821500  0.69898100  1
  O  O19  1  0.57242500  0.18103100  0.53277200  1
  O  O20  1  0.51364800  0.33882800  0.09804500  1
  O  O21  1  0.86903000  0.30824700  0.27080700  1
  O  O22  1  0.26564300  0.04339500  0.10094600  1
  O  O23  1  0.60856400  0.92185400  0.11322700  1
  O  O24  1  0.07242500  0.81896900  0.96722800  1
  O  O25  1  0.21258700  0.41171700  0.91494100  1
  O  O26  1  0.01364800  0.66117200  0.40195500  1
  O  O27  1  0.48635200  0.66117200  0.90195500  1
  O  O28  1  0.39143600  0.07814600  0.88677300  1
  O  O29  1  0.28741300  0.41171700  0.41494100  1
  O  O30  1  0.36903000  0.69175300  0.22919300  1
  O  O31  1  0.04258000  0.12178500  0.80101900  1
loop_
_geom_bond_atom_site_label_1
_geom_bond_atom_site_label_2
_geom_bond_distance
_geom_bond_site_symmetry_2
Mg0 O16 2.096828 1_555
Mg0 O15 2.098550 1_555
Mg0 O4 2.110759 1_554
Mg0 O3 2.131330 1_565
Mg0 O23 2.136204 1_555
Mg0 O24 2.294873 1_654
Mg1 O31 2.096828 1_555
Mg1 O25 2.098550 1_555
Mg1 O22 2.110759 1_556
Mg1 O24 2.131330 1_545
Mg1 O28 2.136204 1_555
Mg1 O3 2.294873 1_456
Mg2 O13 2.096828 1_555
Mg2 O29 2.098550 1_555
Mg2 O5 2.110759 1_555
Mg2 O2 2.131330 1_545
Mg2 O12 2.136204 1_555
Mg2 O19 2.294873 1_555
Mg3 O18 2.096828 1_555
Mg3 O14 2.098550 1_555
Mg3 O0 2.110759 1_555
Mg3 O19 2.131330 1_565
Mg3 O6 2.136204 1_555
Mg3 O2 2.294873 1_555
Cu0 O11 1.964786 1_555
Cu0 O4 2.025465 1_545
Cu0 O10 2.076569 1_555
Cu0 O3 2.231412 1_556
Cu0 O31 2.237512 1_655
Cu1 O1 1.967752 1_555
Cu1 O14 2.058452 1_555
Cu1 O6 2.079544 1_555
Cu1 O9 2.124995 1_655
Cu2 O26 1.967752 1_555
Cu2 O29 2.058452 1_555
Cu2 O12 2.079544 1_555
Cu2 O21 2.124995 1_455
Cu3 O7 1.964786 1_555
Cu3 O22 2.025465 1_565
Cu3 O30 2.076569 1_555
Cu3 O24 2.231412 1_554
Cu3 O16 2.237512 1_455
Cu4 O17 1.964786 1_555
Cu4 O0 2.025465 1_545
Cu4 O21 2.076569 1_555
Cu4 O19 2.231412 1_555
Cu4 O13 2.237512 1_555
Cu5 O20 1.967752 1_555
Cu5 O15 2.058452 1_555
Cu5 O23 2.079544 1_555
Cu5 O30 2.124995 1_555
Cu6 O8 1.964786 1_555
Cu6 O5 2.025465 1_565
Cu6 O9 2.076569 1_555
Cu6 O2 2.231412 1_555
Cu6 O18 2.237512 1_555
Cu7 O27 1.967752 1_555
Cu7 O25 2.058452 1_555
Cu7 O28 2.079544 1_555
Cu7 O10 2.124995 1_555
Mo0 O27 1.787609 1_555
Mo0 O18 1.816091 1_555
Mo0 O4 1.833220 1_555
Mo0 O28 1.841750 1_565
Mo1 O26 1.787609 1_655
Mo1 O16 1.816091 1_555
Mo1 O0 1.833220 1_555
Mo1 O12 1.841750 1_665
Mo2 O7 1.767168 1_655
Mo2 O15 1.828457 1_555
Mo2 O21 1.828812 1_555
Mo2 O3 1.876775 1_555
Mo3 O1 1.787609 1_455
Mo3 O31 1.816091 1_555
Mo3 O5 1.833220 1_555
Mo3 O6 1.841750 1_445
Mo4 O11 1.767168 1_455
Mo4 O25 1.828457 1_555
Mo4 O9 1.828812 1_555
Mo4 O24 1.876775 1_555
Mo5 O17 1.767168 1_555
Mo5 O29 1.828457 1_555
Mo5 O30 1.828812 1_555
Mo5 O2 1.876775 1_555
Mo6 O8 1.767168 1_555
Mo6 O14 1.828457 1_555
Mo6 O10 1.828812 1_555
Mo6 O19 1.876775 1_555
Mo7 O20 1.787609 1_555
Mo7 O13 1.816091 1_555
Mo7 O22 1.833220 1_555
Mo7 O23 1.841750 1_545
