# generated using pymatgen
data_HfOs3
_symmetry_space_group_name_H-M   'P 1'
_cell_length_a   3.97356100
_cell_length_b   3.97356100
_cell_length_c   3.97356100
_cell_angle_alpha   90.00000000
_cell_angle_beta   90.00000000
_cell_angle_gamma   90.00000000
_symmetry_Int_Tables_number   1
_chemical_formula_structural   HfOs3
_chemical_formula_sum   'Hf1 Os3'
_cell_volume   62.73929777
_cell_formula_units_Z   1
loop_
 _symmetry_equiv_pos_site_id
 _symmetry_equiv_pos_as_xyz
  1  'x, y, z'
loop_
 _atom_site_type_symbol
 _atom_site_label
 _atom_site_symmetry_multiplicity
 _atom_site_fract_x
 _atom_site_fract_y
 _atom_site_fract_z
 _atom_site_occupancy
  Hf  Hf0  1  0.00000000  0.00000000  0.00000000  1
  Os  Os0  1  0.50000000  0.50000000  0.00000000  1
  Os  Os1  1  0.50000000  0.00000000  0.50000000  1
  Os  Os2  1  0.00000000  0.50000000  0.50000000  1
loop_
_geom_bond_atom_site_label_1
_geom_bond_atom_site_label_2
_geom_bond_distance
_geom_bond_site_symmetry_2
Hf0 Os0 2.809732 1_555
Hf0 Os1 2.809732 1_554
Hf0 Os1 2.809732 1_454
Hf0 Os2 2.809732 1_554
Hf0 Os2 2.809732 1_544
Hf0 Os1 2.809732 1_555
Hf0 Os2 2.809732 1_555
Hf0 Os0 2.809732 1_545
Hf0 Os1 2.809732 1_455
Hf0 Os2 2.809732 1_545
Hf0 Os0 2.809732 1_455
Hf0 Os0 2.809732 1_445
Os0 Os2 2.809732 1_655
Os0 Os2 2.809732 1_654
Os0 Os1 2.809732 1_555
Os0 Os2 2.809732 1_554
Os0 Os2 2.809732 1_555
Os0 Os1 2.809732 1_554
Os0 Os1 2.809732 1_565
Os0 Os1 2.809732 1_564
Os1 Os2 2.809732 1_655
Os1 Os2 2.809732 1_555
Os1 Os2 2.809732 1_645
Os1 Os2 2.809732 1_545
