# generated using pymatgen
data_SrCa3(CoO3)4
_symmetry_space_group_name_H-M   'P 1'
_cell_length_a   7.52735000
_cell_length_b   7.52735000
_cell_length_c   3.88542100
_cell_angle_alpha   90.00000000
_cell_angle_beta   90.00000000
_cell_angle_gamma   90.00000000
_symmetry_Int_Tables_number   1
_chemical_formula_structural   SrCa3(CoO3)4
_chemical_formula_sum   'Sr1 Ca3 Co4 O12'
_cell_volume   220.15183160
_cell_formula_units_Z   1
loop_
 _symmetry_equiv_pos_site_id
 _symmetry_equiv_pos_as_xyz
  1  'x, y, z'
loop_
 _atom_site_type_symbol
 _atom_site_label
 _atom_site_symmetry_multiplicity
 _atom_site_fract_x
 _atom_site_fract_y
 _atom_site_fract_z
 _atom_site_occupancy
  Sr  Sr0  1  0.50000000  0.50000000  0.50000000  1
  Ca  Ca0  1  0.00000000  0.50000000  0.50000000  1
  Ca  Ca1  1  0.00000000  0.00000000  0.50000000  1
  Ca  Ca2  1  0.50000000  0.00000000  0.50000000  1
  Co  Co0  1  0.75110000  0.24890000  0.00000000  1
  Co  Co1  1  0.24890000  0.24890000  0.00000000  1
  Co  Co2  1  0.75110000  0.75110000  0.00000000  1
  Co  Co3  1  0.24890000  0.75110000  0.00000000  1
  O  O0  1  0.75390600  0.24609400  0.50000000  1
  O  O1  1  0.24609400  0.24609400  0.50000000  1
  O  O2  1  0.75390600  0.75390600  0.50000000  1
  O  O3  1  0.24609400  0.75390600  0.50000000  1
  O  O4  1  0.75662500  0.50000000  0.00000000  1
  O  O5  1  0.24337500  0.50000000  0.00000000  1
  O  O6  1  0.74965800  0.00000000  0.00000000  1
  O  O7  1  0.25034200  0.00000000  0.00000000  1
  O  O8  1  0.00000000  0.25034200  0.00000000  1
  O  O9  1  0.50000000  0.24337500  0.00000000  1
  O  O10  1  0.00000000  0.74965800  0.00000000  1
  O  O11  1  0.50000000  0.75662500  0.00000000  1
loop_
_geom_bond_atom_site_label_1
_geom_bond_atom_site_label_2
_geom_bond_distance
_geom_bond_site_symmetry_2
Ca0 O3 2.661645 1_555
Ca0 O1 2.661645 1_555
Ca0 O2 2.661645 1_455
Ca0 O0 2.661645 1_455
Ca0 O5 2.670250 1_556
Ca0 O5 2.670250 1_555
Ca0 O4 2.670250 1_455
Ca0 O4 2.670250 1_456
Ca0 O10 2.702916 1_555
Ca0 O10 2.702916 1_556
Ca0 O8 2.702916 1_555
Ca0 O8 2.702916 1_556
Ca1 O1 2.619740 1_555
Ca1 O3 2.619740 1_545
Ca1 O0 2.619740 1_455
Ca1 O2 2.619740 1_445
Ca1 O7 2.706498 1_555
Ca1 O7 2.706498 1_556
Ca1 O8 2.706498 1_555
Ca1 O8 2.706498 1_556
Ca1 O10 2.706498 1_545
Ca1 O10 2.706498 1_546
Ca1 O6 2.706498 1_455
Ca1 O6 2.706498 1_456
Ca2 O0 2.661645 1_555
Ca2 O1 2.661645 1_555
Ca2 O2 2.661645 1_545
Ca2 O3 2.661645 1_545
Ca2 O9 2.670250 1_555
Ca2 O9 2.670250 1_556
Ca2 O11 2.670250 1_545
Ca2 O11 2.670250 1_546
Ca2 O6 2.702916 1_556
Ca2 O6 2.702916 1_555
Ca2 O7 2.702916 1_555
Ca2 O7 2.702916 1_556
Co0 O8 1.873589 1_655
Co0 O6 1.873589 1_555
Co0 O9 1.890575 1_555
Co0 O4 1.890575 1_555
Co0 O0 1.942940 1_555
Co0 O0 1.942940 1_554
Co1 O8 1.873589 1_555
Co1 O7 1.873589 1_555
Co1 O9 1.890575 1_555
Co1 O5 1.890575 1_555
Co1 O1 1.942940 1_555
Co1 O1 1.942940 1_554
Co2 O6 1.873589 1_565
Co2 O10 1.873589 1_655
Co2 O11 1.890575 1_555
Co2 O4 1.890575 1_555
Co2 O2 1.942940 1_555
Co2 O2 1.942940 1_554
Co3 O10 1.873589 1_555
Co3 O7 1.873589 1_565
Co3 O11 1.890575 1_555
Co3 O5 1.890575 1_555
Co3 O3 1.942940 1_555
Co3 O3 1.942940 1_554
O0 Sr0 2.702901 1_555
O1 Sr0 2.702901 1_555
O2 Sr0 2.702901 1_555
O3 Sr0 2.702901 1_555
O4 Sr0 2.739637 1_555
O4 Sr0 2.739637 1_554
O5 Sr0 2.739637 1_555
O5 Sr0 2.739637 1_554
O9 Sr0 2.739637 1_555
O9 Sr0 2.739637 1_554
O11 Sr0 2.739637 1_555
O11 Sr0 2.739637 1_554
