# generated using pymatgen
data_Co5NiN4
_symmetry_space_group_name_H-M   'P 1'
_cell_length_a   7.24215300
_cell_length_b   5.78271000
_cell_length_c   4.44811400
_cell_angle_alpha   90.00000000
_cell_angle_beta   90.00000000
_cell_angle_gamma   90.00000000
_symmetry_Int_Tables_number   1
_chemical_formula_structural   Co5NiN4
_chemical_formula_sum   'Co10 Ni2 N8'
_cell_volume   186.28376975
_cell_formula_units_Z   2
loop_
 _symmetry_equiv_pos_site_id
 _symmetry_equiv_pos_as_xyz
  1  'x, y, z'
loop_
 _atom_site_type_symbol
 _atom_site_label
 _atom_site_symmetry_multiplicity
 _atom_site_fract_x
 _atom_site_fract_y
 _atom_site_fract_z
 _atom_site_occupancy
  Co  Co0  1  0.57460700  0.52458000  0.25797200  1
  Co  Co1  1  0.92539300  0.52458000  0.25797200  1
  Co  Co2  1  0.57460700  0.97542000  0.25797200  1
  Co  Co3  1  0.92539300  0.97542000  0.25797200  1
  Co  Co4  1  0.42539300  0.47542000  0.74202800  1
  Co  Co5  1  0.07460700  0.47542000  0.74202800  1
  Co  Co6  1  0.42539300  0.02458000  0.74202800  1
  Co  Co7  1  0.07460700  0.02458000  0.74202800  1
  Co  Co8  1  0.75000000  0.75000000  0.75075200  1
  Co  Co9  1  0.25000000  0.25000000  0.24924800  1
  Ni  Ni0  1  0.75000000  0.25000000  0.67334400  1
  Ni  Ni1  1  0.25000000  0.75000000  0.32665600  1
  N  N0  1  0.75000000  0.01901900  0.97878900  1
  N  N1  1  0.75000000  0.48098100  0.97878900  1
  N  N2  1  0.25000000  0.98098100  0.02121100  1
  N  N3  1  0.25000000  0.51901900  0.02121100  1
  N  N4  1  0.50126600  0.75000000  0.55480100  1
  N  N5  1  0.99873400  0.75000000  0.55480100  1
  N  N6  1  0.49873400  0.25000000  0.44519900  1
  N  N7  1  0.00126600  0.25000000  0.44519900  1
loop_
_geom_bond_atom_site_label_1
_geom_bond_atom_site_label_2
_geom_bond_distance
_geom_bond_site_symmetry_2
Co0 N1 1.794211 1_554
Co0 N6 1.875276 1_555
Co0 N4 1.929922 1_555
Co1 N1 1.794211 1_554
Co1 N7 1.875276 1_655
Co1 N5 1.929922 1_555
Co2 N0 1.794211 1_564
Co2 N6 1.875276 1_565
Co2 N4 1.929922 1_555
Co3 N0 1.794211 1_564
Co3 N7 1.875276 1_665
Co3 N5 1.929922 1_555
Co4 N3 1.794211 1_556
Co4 N4 1.875276 1_555
Co4 N6 1.929922 1_555
Co5 N3 1.794211 1_556
Co5 N5 1.875276 1_455
Co5 N7 1.929922 1_555
Co6 N2 1.794211 1_546
Co6 N4 1.875276 1_545
Co6 N6 1.929922 1_555
Co7 N2 1.794211 1_546
Co7 N5 1.875276 1_445
Co7 N7 1.929922 1_555
Co8 N0 1.857135 1_565
Co8 N1 1.857135 1_555
Co8 N5 2.001160 1_555
Co8 N4 2.001160 1_555
Co9 N3 1.857135 1_555
Co9 N2 1.857135 1_545
Co9 N6 2.001160 1_555
Co9 N7 2.001160 1_555
N0 Ni0 1.905263 1_555
N1 Ni0 1.905263 1_555
N2 Ni1 1.905263 1_555
N3 Ni1 1.905263 1_555
N4 Ni1 2.083550 1_555
N5 Ni1 2.083550 1_655
N6 Ni0 2.083550 1_555
N7 Ni0 2.083550 1_455
