# generated using pymatgen
data_CdFe5N4
_symmetry_space_group_name_H-M   'P 1'
_cell_length_a   8.20584600
_cell_length_b   5.40847800
_cell_length_c   4.65494900
_cell_angle_alpha   90.00000000
_cell_angle_beta   90.00000000
_cell_angle_gamma   90.00000000
_symmetry_Int_Tables_number   1
_chemical_formula_structural   CdFe5N4
_chemical_formula_sum   'Cd2 Fe10 N8'
_cell_volume   206.59193191
_cell_formula_units_Z   2
loop_
 _symmetry_equiv_pos_site_id
 _symmetry_equiv_pos_as_xyz
  1  'x, y, z'
loop_
 _atom_site_type_symbol
 _atom_site_label
 _atom_site_symmetry_multiplicity
 _atom_site_fract_x
 _atom_site_fract_y
 _atom_site_fract_z
 _atom_site_occupancy
  Cd  Cd0  1  0.75000000  0.25000000  0.69437700  1
  Cd  Cd1  1  0.25000000  0.75000000  0.30562300  1
  Fe  Fe0  1  0.55149800  0.50447400  0.26206600  1
  Fe  Fe1  1  0.94850200  0.50447400  0.26206600  1
  Fe  Fe2  1  0.55149800  0.99552600  0.26206600  1
  Fe  Fe3  1  0.94850200  0.99552600  0.26206600  1
  Fe  Fe4  1  0.44850200  0.49552600  0.73793400  1
  Fe  Fe5  1  0.05149800  0.49552600  0.73793400  1
  Fe  Fe6  1  0.44850200  0.00447400  0.73793400  1
  Fe  Fe7  1  0.05149800  0.00447400  0.73793400  1
  Fe  Fe8  1  0.75000000  0.75000000  0.85398300  1
  Fe  Fe9  1  0.25000000  0.25000000  0.14601700  1
  N  N0  1  0.75000000  0.99002300  0.13785700  1
  N  N1  1  0.75000000  0.50997700  0.13785700  1
  N  N2  1  0.25000000  0.00997700  0.86214300  1
  N  N3  1  0.25000000  0.49002300  0.86214300  1
  N  N4  1  0.57509900  0.75000000  0.55951900  1
  N  N5  1  0.92490100  0.75000000  0.55951900  1
  N  N6  1  0.42490100  0.25000000  0.44048100  1
  N  N7  1  0.07509900  0.25000000  0.44048100  1
loop_
_geom_bond_atom_site_label_1
_geom_bond_atom_site_label_2
_geom_bond_distance
_geom_bond_site_symmetry_2
Cd0 N1 2.497741 1_556
Cd0 N0 2.497741 1_546
Cd1 N2 2.497741 1_564
Cd1 N3 2.497741 1_554
Fe0 N1 1.728706 1_555
Fe0 N6 1.913943 1_555
Fe0 N4 1.928232 1_555
Fe1 N1 1.728706 1_555
Fe1 N7 1.913943 1_655
Fe1 N5 1.928232 1_555
Fe2 N0 1.728706 1_555
Fe2 N6 1.913943 1_565
Fe2 N4 1.928232 1_555
Fe3 N0 1.728706 1_555
Fe3 N7 1.913943 1_665
Fe3 N5 1.928232 1_555
Fe4 N3 1.728706 1_555
Fe4 N4 1.913943 1_555
Fe4 N6 1.928232 1_555
Fe5 N3 1.728706 1_555
Fe5 N5 1.913943 1_455
Fe5 N7 1.928232 1_555
Fe6 N2 1.728706 1_555
Fe6 N4 1.913943 1_545
Fe6 N6 1.928232 1_555
Fe7 N2 1.728706 1_555
Fe7 N5 1.913943 1_445
Fe7 N7 1.928232 1_555
Fe8 N1 1.852394 1_556
Fe8 N0 1.852394 1_556
Fe8 N4 1.984613 1_555
Fe8 N5 1.984613 1_555
Fe9 N2 1.852394 1_554
Fe9 N3 1.852394 1_554
Fe9 N6 1.984613 1_555
Fe9 N7 1.984613 1_555
