# generated using pymatgen
data_Mn3CoN3
_symmetry_space_group_name_H-M   'P 1'
_cell_length_a   6.30874038
_cell_length_b   7.22717205
_cell_length_c   3.86309700
_cell_angle_alpha   90.00000000
_cell_angle_beta   90.00000000
_cell_angle_gamma   125.01948971
_symmetry_Int_Tables_number   1
_chemical_formula_structural   Mn3CoN3
_chemical_formula_sum   'Mn6 Co2 N6'
_cell_volume   144.24730330
_cell_formula_units_Z   2
loop_
 _symmetry_equiv_pos_site_id
 _symmetry_equiv_pos_as_xyz
  1  'x, y, z'
loop_
 _atom_site_type_symbol
 _atom_site_label
 _atom_site_symmetry_multiplicity
 _atom_site_fract_x
 _atom_site_fract_y
 _atom_site_fract_z
 _atom_site_occupancy
  Mn  Mn0  1  0.81115200  0.68241700  0.25000000  1
  Mn  Mn1  1  0.81007200  0.12831800  0.25000000  1
  Mn  Mn2  1  0.35713900  0.17879700  0.25000000  1
  Mn  Mn3  1  0.18884800  0.31758300  0.75000000  1
  Mn  Mn4  1  0.18992800  0.87168200  0.75000000  1
  Mn  Mn5  1  0.64286100  0.82120300  0.75000000  1
  Co  Co0  1  0.77585900  0.38817600  0.75000000  1
  Co  Co1  1  0.22414100  0.61182400  0.25000000  1
  N  N0  1  0.81319700  0.66140100  0.75000000  1
  N  N1  1  0.81141100  0.15121300  0.75000000  1
  N  N2  1  0.41163700  0.20632200  0.75000000  1
  N  N3  1  0.18680300  0.33859900  0.25000000  1
  N  N4  1  0.18858900  0.84878700  0.25000000  1
  N  N5  1  0.58836300  0.79367800  0.25000000  1
loop_
_geom_bond_atom_site_label_1
_geom_bond_atom_site_label_2
_geom_bond_distance
_geom_bond_site_symmetry_2
Mn0 N0 1.938134 1_554
Mn0 N0 1.938134 1_555
Mn0 N4 1.956949 1_655
Mn0 N5 1.979692 1_555
Mn1 N1 1.938227 1_555
Mn1 N1 1.938227 1_554
Mn1 N3 1.952643 1_655
Mn1 N5 1.980678 1_545
Mn2 N2 1.951964 1_555
Mn2 N2 1.951964 1_554
Mn2 N4 1.976964 1_545
Mn2 N3 1.978133 1_555
Mn3 N3 1.938134 1_555
Mn3 N3 1.938134 1_556
Mn3 N1 1.956949 1_455
Mn3 N2 1.979692 1_555
Mn4 N4 1.938227 1_555
Mn4 N4 1.938227 1_556
Mn4 N0 1.952643 1_455
Mn4 N2 1.980678 1_565
Mn5 N5 1.951964 1_556
Mn5 N5 1.951964 1_555
Mn5 N1 1.976964 1_565
Mn5 N0 1.978133 1_555
Co0 N0 1.849557 1_555
Co0 N1 1.850421 1_555
Co0 N2 1.881789 1_555
Co1 N3 1.849557 1_555
Co1 N4 1.850421 1_555
Co1 N5 1.881789 1_555
