# generated using pymatgen
data_Gd2Co17
_symmetry_space_group_name_H-M   'P 1'
_cell_length_a   7.97792387
_cell_length_b   8.22901480
_cell_length_c   8.22902946
_cell_angle_alpha   119.99186212
_cell_angle_beta   90.00017403
_cell_angle_gamma   89.99980193
_symmetry_Int_Tables_number   1
_chemical_formula_structural   Gd2Co17
_chemical_formula_sum   'Gd4 Co34'
_cell_volume   467.89950651
_cell_formula_units_Z   2
loop_
 _symmetry_equiv_pos_site_id
 _symmetry_equiv_pos_as_xyz
  1  'x, y, z'
loop_
 _atom_site_type_symbol
 _atom_site_label
 _atom_site_symmetry_multiplicity
 _atom_site_fract_x
 _atom_site_fract_y
 _atom_site_fract_z
 _atom_site_occupancy
  Gd  Gd0  1  0.75000246  0.00003648  -0.00003636  1
  Gd  Gd1  1  0.24999754  -0.00003648  0.00003636  1
  Gd  Gd2  1  0.24999884  0.66680945  0.33319038  1
  Gd  Gd3  1  0.75000116  0.33319055  0.66680962  1
  Co  Co0  1  0.60827534  0.66667904  0.33332123  1
  Co  Co1  1  0.39172466  0.33332096  0.66667877  1
  Co  Co2  1  0.10827715  0.33332140  0.66667869  1
  Co  Co3  1  0.89172285  0.66667860  0.33332131  1
  Co  Co4  1  0.50000000  0.50000000  -0.00000000  1
  Co  Co5  1  0.50000000  0.50000000  0.50000000  1
  Co  Co6  1  0.50000000  -0.00000000  0.50000000  1
  Co  Co7  1  -0.00000000  0.50000000  -0.00000000  1
  Co  Co8  1  -0.00000000  0.50000000  0.50000000  1
  Co  Co9  1  -0.00000000  -0.00000000  0.50000000  1
  Co  Co10  1  0.74999853  0.67069533  0.04713998  1
  Co  Co11  1  0.74999885  0.37652593  0.32940380  1
  Co  Co12  1  0.74999920  0.95247390  0.62313839  1
  Co  Co13  1  0.74999910  0.37686163  0.04752594  1
  Co  Co14  1  0.74999846  0.95286087  0.32930510  1
  Co  Co15  1  0.74999888  0.67059620  0.62347395  1
  Co  Co16  1  0.25000147  0.32930467  0.95286002  1
  Co  Co17  1  0.25000115  0.62347407  0.67059620  1
  Co  Co18  1  0.25000080  0.04752610  0.37686161  1
  Co  Co19  1  0.25000090  0.62313837  0.95247406  1
  Co  Co20  1  0.25000154  0.04713913  0.67069490  1
  Co  Co21  1  0.25000112  0.32940380  0.37652605  1
  Co  Co22  1  0.47990461  0.83388287  0.66774118  1
  Co  Co23  1  0.47977750  0.83389712  0.16610326  1
  Co  Co24  1  0.47990423  0.33225887  0.16611732  1
  Co  Co25  1  0.52009539  0.16611713  0.33225882  1
  Co  Co26  1  0.52022250  0.16610288  0.83389674  1
  Co  Co27  1  0.52009577  0.66774113  0.83388268  1
  Co  Co28  1  0.97990526  0.16611755  0.33225944  1
  Co  Co29  1  0.97977980  0.16610327  0.83389719  1
  Co  Co30  1  0.97990580  0.66774049  0.83388272  1
  Co  Co31  1  0.02009474  0.83388245  0.66774056  1
  Co  Co32  1  0.02022020  0.83389673  0.16610281  1
  Co  Co33  1  0.02009420  0.33225951  0.16611728  1
loop_
_geom_bond_atom_site_label_1
_geom_bond_atom_site_label_2
_geom_bond_distance
_geom_bond_site_symmetry_2
Co0 Co3 2.261323 1_555
Co0 Co5 2.527770 1_555
Co0 Co6 2.527791 1_565
Co0 Co4 2.527797 1_555
Co0 Co24 2.594169 1_555
Co0 Co22 2.594169 1_555
Co0 Co23 2.594399 1_555
Co0 Co12 2.624831 1_555
Co0 Co13 2.624833 1_555
Co0 Co10 2.627414 1_555
Co0 Co14 2.627414 1_555
Co0 Co11 2.627441 1_555
Co0 Co15 2.627444 1_555
Co0 Gd2 2.858303 1_555
Co1 Co2 2.261323 1_555
Co1 Co5 2.527770 1_555
Co1 Co6 2.527791 1_555
Co1 Co4 2.527797 1_556
Co1 Co27 2.594169 1_555
Co1 Co25 2.594169 1_555
Co1 Co26 2.594399 1_555
Co1 Co18 2.624831 1_555
Co1 Co19 2.624833 1_555
Co1 Co16 2.627414 1_555
Co1 Co20 2.627414 1_555
Co1 Co17 2.627441 1_555
Co1 Co21 2.627444 1_555
Co1 Gd3 2.858303 1_555
Co2 Co8 2.527765 1_555
Co2 Co9 2.527802 1_555
Co2 Co7 2.527805 1_556
Co2 Co30 2.594158 1_455
Co2 Co28 2.594165 1_455
Co2 Co29 2.594408 1_455
Co2 Co20 2.627415 1_555
Co2 Co21 2.627449 1_555
Co2 Gd3 2.858299 1_455
Co3 Co8 2.527765 1_655
Co3 Co9 2.527802 1_665
Co3 Co7 2.527805 1_655
Co3 Co33 2.594158 1_655
Co3 Co31 2.594165 1_655
Co3 Co32 2.594408 1_655
Co3 Gd2 2.858299 1_655
Co4 Gd3 3.101157 1_554
Co4 Gd2 3.101157 1_555
Co5 Gd3 3.103262 1_555
Co5 Gd2 3.103262 1_555
Co6 Gd3 3.101155 1_555
Co6 Gd2 3.101155 1_545
Co7 Gd2 3.101140 1_555
Co7 Gd3 3.101140 1_454
Co8 Gd2 3.103262 1_555
Co8 Gd3 3.103262 1_455
Co9 Gd2 3.101137 1_545
Co9 Gd3 3.101137 1_455
Co10 Co14 2.322230 1_555
Co10 Co4 2.357266 1_555
Co10 Co7 2.357279 1_655
Co10 Co13 2.419551 1_555
Co10 Co23 2.468815 1_555
Co10 Co32 2.468821 1_655
Co10 Co27 2.530156 1_554
Co10 Co30 2.530188 1_554
Co10 Co3 2.627414 1_555
Co10 Gd0 2.923612 1_565
Co10 Gd3 2.969628 1_554
Co11 Co13 2.320963 1_555
Co11 Co5 2.356913 1_555
Co11 Co8 2.356927 1_655
Co11 Co15 2.420208 1_555
Co11 Co24 2.468192 1_555
Co11 Co33 2.468203 1_655
Co11 Co25 2.530475 1_555
Co11 Co28 2.530482 1_555
Co11 Co3 2.627446 1_555
Co11 Gd0 2.924197 1_555
Co11 Gd3 2.970880 1_555
Co12 Co15 2.320957 1_555
Co12 Co6 2.356663 1_565
Co12 Co9 2.356682 1_665
Co12 Co14 2.419556 1_555
Co12 Co31 2.467453 1_655
Co12 Co22 2.467454 1_555
Co12 Co26 2.531916 1_565
Co12 Co29 2.531942 1_565
Co12 Co3 2.624831 1_555
Co12 Gd0 2.924967 1_566
Co12 Gd3 2.969638 1_565
Co13 Co4 2.356661 1_555
Co13 Co7 2.356681 1_655
Co13 Co33 2.467450 1_655
Co13 Co24 2.467458 1_555
Co13 Co26 2.531918 1_554
Co13 Co29 2.531939 1_554
Co13 Co3 2.624832 1_555
Co13 Gd0 2.924961 1_555
Co13 Gd3 2.969641 1_554
Co14 Co6 2.357265 1_565
Co14 Co9 2.357281 1_665
Co14 Co23 2.468817 1_555
Co14 Co32 2.468825 1_655
Co14 Co25 2.530151 1_565
Co14 Co28 2.530182 1_565
Co14 Co3 2.627415 1_555
Co14 Gd0 2.923615 1_565
Co14 Gd3 2.969623 1_565
Co15 Co5 2.356913 1_555
Co15 Co8 2.356925 1_655
Co15 Co22 2.468188 1_555
Co15 Co31 2.468205 1_655
Co15 Co27 2.530474 1_555
Co15 Co30 2.530490 1_555
Co15 Co3 2.627449 1_555
Co15 Gd0 2.924200 1_566
Co15 Gd3 2.970876 1_555
Co16 Co20 2.322230 1_555
Co16 Co4 2.357266 1_556
Co16 Co7 2.357279 1_556
Co16 Co19 2.419551 1_555
Co16 Co26 2.468815 1_555
Co16 Co29 2.468821 1_455
Co16 Co24 2.530156 1_556
Co16 Co33 2.530188 1_556
Co16 Co2 2.627414 1_555
Co16 Gd1 2.923612 1_556
Co16 Gd2 2.969628 1_556
Co17 Co19 2.320963 1_555
Co17 Co5 2.356913 1_555
Co17 Co8 2.356927 1_555
Co17 Co21 2.420208 1_555
Co17 Co27 2.468192 1_555
Co17 Co30 2.468203 1_455
Co17 Co22 2.530475 1_555
Co17 Co31 2.530482 1_555
Co17 Co2 2.627446 1_555
Co17 Gd1 2.924197 1_566
Co17 Gd2 2.970880 1_555
Co18 Co21 2.320957 1_555
Co18 Co6 2.356663 1_555
Co18 Co9 2.356682 1_555
Co18 Co20 2.419556 1_555
Co18 Co28 2.467453 1_455
Co18 Co25 2.467454 1_555
Co18 Co23 2.531916 1_545
Co18 Co32 2.531942 1_545
Co18 Co2 2.624831 1_555
Co18 Gd1 2.924967 1_555
Co18 Gd2 2.969638 1_545
Co19 Co4 2.356661 1_556
Co19 Co7 2.356681 1_556
Co19 Co30 2.467450 1_455
Co19 Co27 2.467458 1_555
Co19 Co23 2.531918 1_556
Co19 Co32 2.531939 1_556
Co19 Co2 2.624832 1_555
Co19 Gd1 2.924961 1_566
Co19 Gd2 2.969641 1_556
Co20 Co6 2.357265 1_555
Co20 Co9 2.357281 1_555
Co20 Co26 2.468817 1_555
Co20 Co29 2.468825 1_455
Co20 Co22 2.530151 1_545
Co20 Co31 2.530182 1_545
Co20 Gd1 2.923615 1_556
Co20 Gd2 2.969623 1_545
Co21 Co5 2.356913 1_555
Co21 Co8 2.356925 1_555
Co21 Co25 2.468188 1_555
Co21 Co28 2.468205 1_455
Co21 Co24 2.530474 1_555
Co21 Co33 2.530490 1_555
Co21 Gd1 2.924200 1_555
Co21 Gd2 2.970876 1_555
Co22 Co6 2.384563 1_565
Co22 Co5 2.385027 1_555
Co22 Co26 2.389521 1_565
Co22 Co27 2.389543 1_555
Co22 Gd1 2.995519 1_566
Co22 Gd2 3.008235 1_555
Co22 Gd0 3.201512 1_566
Co23 Co4 2.385196 1_555
Co23 Co6 2.385198 1_565
Co23 Co25 2.389521 1_565
Co23 Co27 2.389529 1_554
Co23 Gd1 2.993747 1_565
Co23 Gd2 3.005266 1_555
Co23 Gd0 3.202284 1_565
Co24 Co4 2.384564 1_555
Co24 Co5 2.385031 1_555
Co24 Co26 2.389529 1_554
Co24 Co25 2.389543 1_555
Co24 Gd1 2.995516 1_555
Co24 Gd2 3.008227 1_555
Co24 Gd0 3.201510 1_555
Co25 Co6 2.384563 1_555
Co25 Co5 2.385027 1_555
Co25 Gd0 2.995519 1_555
Co25 Gd3 3.008235 1_555
Co25 Gd1 3.201512 1_555
Co26 Co4 2.385196 1_556
Co26 Co6 2.385198 1_555
Co26 Gd0 2.993747 1_556
Co26 Gd3 3.005266 1_555
Co26 Gd1 3.202284 1_556
Co27 Co4 2.384564 1_556
Co27 Co5 2.385031 1_555
Co27 Gd0 2.995516 1_566
Co27 Gd3 3.008227 1_555
Co27 Gd1 3.201510 1_566
Co28 Co9 2.384560 1_655
Co28 Co8 2.385025 1_655
Co28 Co32 2.389522 1_645
Co28 Co33 2.389549 1_655
Co28 Gd0 2.995497 1_555
Co28 Gd3 3.008228 1_555
Co28 Gd1 3.201491 1_655
Co29 Co7 2.385193 1_656
Co29 Co9 2.385200 1_655
Co29 Co33 2.389520 1_656
Co29 Co31 2.389522 1_645
Co29 Gd0 2.993744 1_556
Co29 Gd3 3.005255 1_555
Co29 Gd1 3.202233 1_656
Co30 Co7 2.384557 1_656
Co30 Co8 2.385031 1_655
Co30 Co32 2.389520 1_656
Co30 Co31 2.389549 1_655
Co30 Gd0 2.995497 1_566
Co30 Gd3 3.008227 1_555
Co30 Gd1 3.201485 1_666
Co31 Co9 2.384560 1_565
Co31 Co8 2.385025 1_555
Co31 Gd1 2.995497 1_566
Co31 Gd2 3.008228 1_555
Co31 Gd0 3.201491 1_466
Co32 Co7 2.385193 1_555
Co32 Co9 2.385200 1_565
Co32 Gd1 2.993744 1_565
Co32 Gd2 3.005255 1_555
Co32 Gd0 3.202233 1_465
Co33 Co7 2.384557 1_555
Co33 Co8 2.385031 1_555
Co33 Gd1 2.995497 1_555
Co33 Gd2 3.008227 1_555
Co33 Gd0 3.201485 1_455
