# generated using pymatgen
data_Zr6Ga2Ni
_symmetry_space_group_name_H-M   'P 1'
_cell_length_a   15.63536756
_cell_length_b   15.63547299
_cell_length_c   6.77473580
_cell_angle_alpha   89.99999944
_cell_angle_beta   90.00000119
_cell_angle_gamma   120.00072972
_symmetry_Int_Tables_number   1
_chemical_formula_structural   Zr6Ga2Ni
_chemical_formula_sum   'Zr48 Ga16 Ni8'
_cell_volume   1434.29643974
_cell_formula_units_Z   8
loop_
 _symmetry_equiv_pos_site_id
 _symmetry_equiv_pos_as_xyz
  1  'x, y, z'
loop_
 _atom_site_type_symbol
 _atom_site_label
 _atom_site_symmetry_multiplicity
 _atom_site_fract_x
 _atom_site_fract_y
 _atom_site_fract_z
 _atom_site_occupancy
  Zr  Zr0_0  1  0.12632010  0.49999731  0.25000001  1
  Zr  Zr0_1  1  0.12632010  0.49999731  0.75000001  1
  Zr  Zr0_2  1  0.12632010  0.99999730  0.25000001  1
  Zr  Zr0_3  1  0.12632010  0.99999731  0.75000001  1
  Zr  Zr0_4  1  0.62632010  0.49999731  0.25000001  1
  Zr  Zr0_5  1  0.62632010  0.49999730  0.75000001  1
  Zr  Zr0_6  1  0.62632010  0.99999731  0.25000001  1
  Zr  Zr0_7  1  0.62632010  0.99999731  0.75000001  1
  Zr  Zr1_0  1  0.49999933  0.12632219  0.25000002  1
  Zr  Zr1_1  1  0.49999933  0.12632218  0.75000002  1
  Zr  Zr1_2  1  0.49999933  0.62632219  0.25000002  1
  Zr  Zr1_3  1  0.49999933  0.62632219  0.75000002  1
  Zr  Zr1_4  1  0.99999933  0.12632218  0.25000002  1
  Zr  Zr1_5  1  0.99999933  0.12632218  0.75000002  1
  Zr  Zr1_6  1  0.99999933  0.62632218  0.25000002  1
  Zr  Zr1_7  1  0.99999933  0.62632219  0.75000002  1
  Zr  Zr2_0  1  0.37367855  0.37367921  0.25000001  1
  Zr  Zr2_1  1  0.37367855  0.37367921  0.75000001  1
  Zr  Zr2_2  1  0.37367855  0.87367921  0.25000001  1
  Zr  Zr2_3  1  0.37367855  0.87367921  0.75000001  1
  Zr  Zr2_4  1  0.87367855  0.37367921  0.25000001  1
  Zr  Zr2_5  1  0.87367855  0.37367921  0.75000001  1
  Zr  Zr2_6  1  0.87367855  0.87367921  0.25000001  1
  Zr  Zr2_7  1  0.87367855  0.87367921  0.75000001  1
  Zr  Zr3_0  1  0.29751477  0.99999288  0.99999998  1
  Zr  Zr3_1  1  0.29751477  0.99999288  0.49999999  1
  Zr  Zr3_2  1  0.29751477  0.49999288  0.99999998  1
  Zr  Zr3_3  1  0.29751477  0.49999288  0.49999999  1
  Zr  Zr3_4  1  0.79751477  0.99999288  0.99999998  1
  Zr  Zr3_5  1  0.79751477  0.99999288  0.49999999  1
  Zr  Zr3_6  1  0.79751477  0.49999288  0.99999998  1
  Zr  Zr3_7  1  0.79751477  0.49999288  0.49999999  1
  Zr  Zr4_0  1  0.99999635  0.29751335  0.99999998  1
  Zr  Zr4_1  1  0.99999635  0.29751335  0.49999999  1
  Zr  Zr4_2  1  0.99999635  0.79751335  0.99999998  1
  Zr  Zr4_3  1  0.99999635  0.79751335  0.49999999  1
  Zr  Zr4_4  1  0.49999635  0.29751335  0.99999998  1
  Zr  Zr4_5  1  0.49999635  0.29751335  0.49999999  1
  Zr  Zr4_6  1  0.49999635  0.79751335  0.99999998  1
  Zr  Zr4_7  1  0.49999635  0.79751335  0.49999998  1
  Zr  Zr5_0  1  0.20247866  0.20247606  0.00000000  1
  Zr  Zr5_1  1  0.20247866  0.20247606  0.50000000  1
  Zr  Zr5_2  1  0.20247866  0.70247606  0.00000000  1
  Zr  Zr5_3  1  0.20247866  0.70247605  0.50000000  1
  Zr  Zr5_4  1  0.70247866  0.20247605  0.00000000  1
  Zr  Zr5_5  1  0.70247866  0.20247605  0.50000000  1
  Zr  Zr5_6  1  0.70247866  0.70247605  0.00000000  1
  Zr  Zr5_7  1  0.70247866  0.70247606  0.50000000  1
  Ga  Ga0_0  1  0.16665898  0.33333346  0.25000000  1
  Ga  Ga0_1  1  0.16665898  0.33333346  0.75000000  1
  Ga  Ga0_2  1  0.16665898  0.83333347  0.25000000  1
  Ga  Ga0_3  1  0.16665898  0.83333347  0.75000000  1
  Ga  Ga0_4  1  0.66665898  0.33333346  0.25000000  1
  Ga  Ga0_5  1  0.66665898  0.33333347  0.75000000  1
  Ga  Ga0_6  1  0.66665898  0.83333347  0.25000000  1
  Ga  Ga0_7  1  0.66665898  0.83333347  0.75000000  1
  Ga  Ga1_0  1  0.33334122  0.16666523  0.25000000  1
  Ga  Ga1_1  1  0.33334122  0.16666523  0.75000000  1
  Ga  Ga1_2  1  0.33334122  0.66666523  0.25000000  1
  Ga  Ga1_3  1  0.33334122  0.66666523  0.75000000  1
  Ga  Ga1_4  1  0.83334122  0.16666523  0.25000000  1
  Ga  Ga1_5  1  0.83334122  0.16666523  0.75000000  1
  Ga  Ga1_6  1  0.83334122  0.66666523  0.25000000  1
  Ga  Ga1_7  1  0.83334122  0.66666523  0.75000000  1
  Ni  Ni0_0  1  0.00001207  0.00002033  0.00000001  1
  Ni  Ni0_1  1  0.00001207  0.00002033  0.50000001  1
  Ni  Ni0_2  1  0.00001207  0.50002033  0.00000001  1
  Ni  Ni0_3  1  0.00001207  0.50002033  0.50000001  1
  Ni  Ni0_4  1  0.50001207  0.00002033  0.00000000  1
  Ni  Ni0_5  1  0.50001207  0.00002033  0.50000001  1
  Ni  Ni0_6  1  0.50001207  0.50002033  0.00000001  1
  Ni  Ni0_7  1  0.50001207  0.50002033  0.50000001  1
loop_
_geom_bond_atom_site_label_1
_geom_bond_atom_site_label_2
_geom_bond_distance
_geom_bond_site_symmetry_2
Zr0_0 Zr3_3 3.167559 1_555
Zr0_0 Zr3_2 3.167559 1_554
Zr0_0 Zr5_3 3.246418 1_555
Zr0_0 Zr5_2 3.246418 1_555
Zr0_0 Zr4_1 3.246468 1_455
Zr0_0 Zr4_0 3.246468 1_454
Zr0_1 Zr3_2 3.167559 1_555
Zr0_1 Zr3_3 3.167559 1_555
Zr0_1 Zr5_2 3.246418 1_556
Zr0_1 Zr5_3 3.246418 1_555
Zr0_1 Zr4_0 3.246468 1_455
Zr0_1 Zr4_1 3.246468 1_455
Zr0_2 Zr3_1 3.167559 1_555
Zr0_2 Zr3_0 3.167559 1_554
Zr0_2 Zr5_1 3.246418 1_565
Zr0_2 Zr5_0 3.246418 1_565
Zr0_2 Zr4_3 3.246468 1_455
Zr0_2 Zr4_2 3.246468 1_454
Zr0_3 Zr3_0 3.167559 1_555
Zr0_3 Zr3_1 3.167559 1_555
Zr0_3 Zr5_0 3.246418 1_566
Zr0_3 Zr5_1 3.246418 1_565
Zr0_3 Zr4_2 3.246468 1_455
Zr0_3 Zr4_3 3.246468 1_455
Zr0_4 Zr3_7 3.167559 1_555
Zr0_4 Zr3_6 3.167559 1_554
Zr0_4 Zr5_7 3.246418 1_555
Zr0_4 Zr5_6 3.246418 1_555
Zr0_4 Zr4_5 3.246468 1_555
Zr0_4 Zr4_4 3.246468 1_554
Zr0_5 Zr3_6 3.167559 1_555
Zr0_5 Zr3_7 3.167559 1_555
Zr0_5 Zr5_6 3.246418 1_556
Zr0_5 Zr5_7 3.246418 1_555
Zr0_5 Zr4_4 3.246468 1_555
Zr0_5 Zr4_5 3.246468 1_555
Zr0_6 Zr3_5 3.167559 1_555
Zr0_6 Zr3_4 3.167559 1_554
Zr0_6 Zr5_5 3.246418 1_565
Zr0_6 Zr5_4 3.246418 1_565
Zr0_6 Zr4_7 3.246468 1_555
Zr0_6 Zr4_6 3.246468 1_554
Zr0_7 Zr3_4 3.167559 1_555
Zr0_7 Zr3_5 3.167559 1_555
Zr0_7 Zr5_4 3.246418 1_566
Zr0_7 Zr5_5 3.246418 1_565
Zr0_7 Zr4_6 3.246468 1_555
Zr0_7 Zr4_7 3.246468 1_555
Zr1_0 Zr4_5 3.167518 1_555
Zr1_0 Zr4_4 3.167518 1_554
Zr1_0 Zr5_5 3.246416 1_555
Zr1_0 Zr5_4 3.246416 1_555
Zr1_0 Zr3_1 3.246472 1_545
Zr1_0 Zr3_0 3.246473 1_544
Zr1_1 Zr4_4 3.167518 1_555
Zr1_1 Zr4_5 3.167518 1_555
Zr1_1 Zr5_4 3.246416 1_556
Zr1_1 Zr5_5 3.246416 1_555
Zr1_1 Zr3_0 3.246472 1_545
Zr1_1 Zr3_1 3.246473 1_545
Zr1_2 Zr4_7 3.167518 1_555
Zr1_2 Zr4_6 3.167518 1_554
Zr1_2 Zr5_7 3.246416 1_555
Zr1_2 Zr5_6 3.246416 1_555
Zr1_2 Zr3_3 3.246472 1_555
Zr1_2 Zr3_2 3.246473 1_554
Zr1_3 Zr4_6 3.167518 1_555
Zr1_3 Zr4_7 3.167518 1_555
Zr1_3 Zr5_6 3.246416 1_556
Zr1_3 Zr5_7 3.246416 1_555
Zr1_3 Zr3_2 3.246472 1_555
Zr1_3 Zr3_3 3.246473 1_555
Zr1_4 Zr4_1 3.167518 1_555
Zr1_4 Zr4_0 3.167518 1_554
Zr1_4 Zr5_1 3.246416 1_655
Zr1_4 Zr5_0 3.246416 1_655
Zr1_4 Zr3_5 3.246472 1_545
Zr1_4 Zr3_4 3.246473 1_544
Zr1_5 Zr4_0 3.167518 1_555
Zr1_5 Zr4_1 3.167518 1_555
Zr1_5 Zr5_0 3.246416 1_656
Zr1_5 Zr5_1 3.246416 1_655
Zr1_5 Zr3_4 3.246472 1_545
Zr1_5 Zr3_5 3.246473 1_545
Zr1_6 Zr4_3 3.167518 1_555
Zr1_6 Zr4_2 3.167518 1_554
Zr1_6 Zr5_3 3.246416 1_655
Zr1_6 Zr5_2 3.246416 1_655
Zr1_6 Zr3_7 3.246472 1_555
Zr1_6 Zr3_6 3.246473 1_554
Zr1_7 Zr4_2 3.167518 1_555
Zr1_7 Zr4_3 3.167518 1_555
Zr1_7 Zr5_2 3.246416 1_656
Zr1_7 Zr5_3 3.246416 1_655
Zr1_7 Zr3_6 3.246472 1_555
Zr1_7 Zr3_7 3.246473 1_555
Zr2_0 Zr5_1 3.167603 1_555
Zr2_0 Zr5_0 3.167603 1_555
Zr2_0 Zr3_3 3.246406 1_555
Zr2_0 Zr3_2 3.246406 1_554
Zr2_0 Zr4_5 3.246474 1_555
Zr2_0 Zr4_4 3.246474 1_554
Zr2_1 Zr5_0 3.167603 1_556
Zr2_1 Zr5_1 3.167603 1_555
Zr2_1 Zr3_2 3.246406 1_555
Zr2_1 Zr3_3 3.246406 1_555
Zr2_1 Zr4_4 3.246474 1_555
Zr2_1 Zr4_5 3.246474 1_555
Zr2_2 Zr5_3 3.167603 1_555
Zr2_2 Zr5_2 3.167603 1_555
Zr2_2 Zr3_1 3.246406 1_555
Zr2_2 Zr3_0 3.246406 1_554
Zr2_2 Zr4_7 3.246474 1_555
Zr2_2 Zr4_6 3.246474 1_554
Zr2_3 Zr5_2 3.167603 1_556
Zr2_3 Zr5_3 3.167603 1_555
Zr2_3 Zr3_0 3.246406 1_555
Zr2_3 Zr3_1 3.246406 1_555
Zr2_3 Zr4_6 3.246474 1_555
Zr2_3 Zr4_7 3.246474 1_555
Zr2_4 Zr5_5 3.167603 1_555
Zr2_4 Zr5_4 3.167603 1_555
Zr2_4 Zr3_7 3.246406 1_555
Zr2_4 Zr3_6 3.246406 1_554
Zr2_4 Zr4_1 3.246474 1_555
Zr2_4 Zr4_0 3.246474 1_554
Zr2_5 Zr5_4 3.167603 1_556
Zr2_5 Zr5_5 3.167603 1_555
Zr2_5 Zr3_6 3.246406 1_555
Zr2_5 Zr3_7 3.246406 1_555
Zr2_5 Zr4_0 3.246474 1_555
Zr2_5 Zr4_1 3.246474 1_555
Zr2_6 Zr5_7 3.167603 1_555
Zr2_6 Zr5_6 3.167603 1_555
Zr2_6 Zr3_5 3.246406 1_555
Zr2_6 Zr3_4 3.246406 1_554
Zr2_6 Zr4_3 3.246474 1_555
Zr2_6 Zr4_2 3.246474 1_554
Zr2_7 Zr5_6 3.167603 1_556
Zr2_7 Zr5_7 3.167603 1_555
Zr2_7 Zr3_4 3.246406 1_555
Zr2_7 Zr3_5 3.246406 1_555
Zr2_7 Zr4_2 3.246474 1_555
Zr2_7 Zr4_3 3.246474 1_555
Zr3_0 Zr3_1 3.387368 1_555
Zr3_0 Zr3_1 3.387368 1_556
Zr3_2 Zr3_3 3.387368 1_555
Zr3_2 Zr3_3 3.387368 1_556
Zr3_4 Zr3_5 3.387368 1_555
Zr3_4 Zr3_5 3.387368 1_556
Zr3_6 Zr3_7 3.387368 1_555
Zr3_6 Zr3_7 3.387368 1_556
Zr4_0 Zr4_1 3.387368 1_555
Zr4_0 Zr4_1 3.387368 1_556
Zr4_2 Zr4_3 3.387368 1_555
Zr4_2 Zr4_3 3.387368 1_556
Zr4_4 Zr4_5 3.387368 1_555
Zr4_4 Zr4_5 3.387368 1_556
Zr4_6 Zr4_7 3.387368 1_555
Zr4_6 Zr4_7 3.387368 1_556
Zr5_0 Zr5_1 3.387368 1_554
Zr5_0 Zr5_1 3.387368 1_555
Zr5_2 Zr5_3 3.387368 1_554
Zr5_2 Zr5_3 3.387368 1_555
Zr5_4 Zr5_5 3.387368 1_554
Zr5_4 Zr5_5 3.387368 1_555
Zr5_6 Zr5_7 3.387368 1_554
Zr5_6 Zr5_7 3.387368 1_555
Ga0_0 Zr4_1 2.917727 1_455
Ga0_0 Zr4_0 2.917727 1_454
Ga0_0 Zr3_3 2.917748 1_555
Ga0_0 Zr3_2 2.917748 1_554
Ga0_0 Zr5_0 2.917931 1_555
Ga0_0 Zr5_1 2.917931 1_555
Ga0_0 Zr0_0 2.971858 1_555
Ga0_0 Zr1_4 2.971883 1_455
Ga0_0 Zr2_0 2.972049 1_555
Ga0_1 Zr4_0 2.917727 1_455
Ga0_1 Zr4_1 2.917727 1_455
Ga0_1 Zr3_2 2.917748 1_555
Ga0_1 Zr3_3 2.917748 1_555
Ga0_1 Zr5_1 2.917931 1_555
Ga0_1 Zr5_0 2.917931 1_556
Ga0_1 Zr0_1 2.971858 1_555
Ga0_1 Zr1_5 2.971883 1_455
Ga0_1 Zr2_1 2.972049 1_555
Ga0_2 Zr4_3 2.917727 1_455
Ga0_2 Zr4_2 2.917727 1_454
Ga0_2 Zr3_1 2.917748 1_555
Ga0_2 Zr3_0 2.917748 1_554
Ga0_2 Zr5_2 2.917931 1_555
Ga0_2 Zr5_3 2.917931 1_555
Ga0_2 Zr0_2 2.971858 1_555
Ga0_2 Zr1_6 2.971883 1_455
Ga0_2 Zr2_2 2.972049 1_555
Ga0_3 Zr4_2 2.917727 1_455
Ga0_3 Zr4_3 2.917727 1_455
Ga0_3 Zr3_0 2.917748 1_555
Ga0_3 Zr3_1 2.917748 1_555
Ga0_3 Zr5_3 2.917931 1_555
Ga0_3 Zr5_2 2.917931 1_556
Ga0_3 Zr0_3 2.971858 1_555
Ga0_3 Zr1_7 2.971883 1_455
Ga0_3 Zr2_3 2.972049 1_555
Ga0_4 Zr4_5 2.917727 1_555
Ga0_4 Zr4_4 2.917727 1_554
Ga0_4 Zr3_7 2.917748 1_555
Ga0_4 Zr3_6 2.917748 1_554
Ga0_4 Zr5_4 2.917931 1_555
Ga0_4 Zr5_5 2.917931 1_555
Ga0_4 Zr0_4 2.971858 1_555
Ga0_4 Zr1_0 2.971883 1_555
Ga0_4 Zr2_4 2.972049 1_555
Ga0_5 Zr4_4 2.917727 1_555
Ga0_5 Zr4_5 2.917727 1_555
Ga0_5 Zr3_6 2.917748 1_555
Ga0_5 Zr3_7 2.917748 1_555
Ga0_5 Zr5_5 2.917931 1_555
Ga0_5 Zr5_4 2.917931 1_556
Ga0_5 Zr0_5 2.971858 1_555
Ga0_5 Zr1_1 2.971883 1_555
Ga0_5 Zr2_5 2.972049 1_555
Ga0_6 Zr4_7 2.917727 1_555
Ga0_6 Zr4_6 2.917727 1_554
Ga0_6 Zr3_5 2.917748 1_555
Ga0_6 Zr3_4 2.917748 1_554
Ga0_6 Zr5_6 2.917931 1_555
Ga0_6 Zr5_7 2.917931 1_555
Ga0_6 Zr0_6 2.971858 1_555
Ga0_6 Zr1_2 2.971883 1_555
Ga0_6 Zr2_6 2.972049 1_555
Ga0_7 Zr4_6 2.917727 1_555
Ga0_7 Zr4_7 2.917727 1_555
Ga0_7 Zr3_4 2.917748 1_555
Ga0_7 Zr3_5 2.917748 1_555
Ga0_7 Zr5_7 2.917931 1_555
Ga0_7 Zr5_6 2.917931 1_556
Ga0_7 Zr0_7 2.971858 1_555
Ga0_7 Zr1_3 2.971883 1_555
Ga0_7 Zr2_7 2.972049 1_555
Ga1_0 Zr4_5 2.917675 1_555
Ga1_0 Zr4_4 2.917675 1_554
Ga1_0 Zr3_1 2.917838 1_545
Ga1_0 Zr3_0 2.917838 1_544
Ga1_0 Zr5_0 2.917911 1_555
Ga1_0 Zr5_1 2.917911 1_555
Ga1_0 Zr1_0 2.971798 1_555
Ga1_0 Zr0_2 2.972017 1_545
Ga1_0 Zr2_0 2.972029 1_555
Ga1_1 Zr4_4 2.917675 1_555
Ga1_1 Zr4_5 2.917675 1_555
Ga1_1 Zr3_0 2.917838 1_545
Ga1_1 Zr3_1 2.917838 1_545
Ga1_1 Zr5_1 2.917911 1_555
Ga1_1 Zr5_0 2.917911 1_556
Ga1_1 Zr1_1 2.971798 1_555
Ga1_1 Zr0_3 2.972017 1_545
Ga1_1 Zr2_1 2.972029 1_555
Ga1_2 Zr4_7 2.917675 1_555
Ga1_2 Zr4_6 2.917675 1_554
Ga1_2 Zr3_3 2.917838 1_555
Ga1_2 Zr3_2 2.917838 1_554
Ga1_2 Zr5_2 2.917911 1_555
Ga1_2 Zr5_3 2.917911 1_555
Ga1_2 Zr1_2 2.971798 1_555
Ga1_2 Zr0_0 2.972017 1_555
Ga1_2 Zr2_2 2.972029 1_555
Ga1_3 Zr4_6 2.917675 1_555
Ga1_3 Zr4_7 2.917675 1_555
Ga1_3 Zr3_2 2.917838 1_555
Ga1_3 Zr3_3 2.917838 1_555
Ga1_3 Zr5_3 2.917911 1_555
Ga1_3 Zr5_2 2.917911 1_556
Ga1_3 Zr1_3 2.971798 1_555
Ga1_3 Zr0_1 2.972017 1_555
Ga1_3 Zr2_3 2.972029 1_555
Ga1_4 Zr4_1 2.917675 1_555
Ga1_4 Zr4_0 2.917675 1_554
Ga1_4 Zr3_5 2.917838 1_545
Ga1_4 Zr3_4 2.917838 1_544
Ga1_4 Zr5_4 2.917911 1_555
Ga1_4 Zr5_5 2.917911 1_555
Ga1_4 Zr1_4 2.971798 1_555
Ga1_4 Zr0_6 2.972017 1_545
Ga1_4 Zr2_4 2.972029 1_555
Ga1_5 Zr4_0 2.917675 1_555
Ga1_5 Zr4_1 2.917675 1_555
Ga1_5 Zr3_4 2.917838 1_545
Ga1_5 Zr3_5 2.917838 1_545
Ga1_5 Zr5_5 2.917911 1_555
Ga1_5 Zr5_4 2.917911 1_556
Ga1_5 Zr1_5 2.971798 1_555
Ga1_5 Zr0_7 2.972017 1_545
Ga1_5 Zr2_5 2.972029 1_555
Ga1_6 Zr4_3 2.917675 1_555
Ga1_6 Zr4_2 2.917675 1_554
Ga1_6 Zr3_7 2.917838 1_555
Ga1_6 Zr3_6 2.917838 1_554
Ga1_6 Zr5_6 2.917911 1_555
Ga1_6 Zr5_7 2.917911 1_555
Ga1_6 Zr1_6 2.971798 1_555
Ga1_6 Zr0_4 2.972017 1_555
Ga1_6 Zr2_6 2.972029 1_555
Ga1_7 Zr4_2 2.917675 1_555
Ga1_7 Zr4_3 2.917675 1_555
Ga1_7 Zr3_6 2.917838 1_555
Ga1_7 Zr3_7 2.917838 1_555
Ga1_7 Zr5_7 2.917911 1_555
Ga1_7 Zr5_6 2.917911 1_556
Ga1_7 Zr1_7 2.971798 1_555
Ga1_7 Zr0_5 2.972017 1_555
Ga1_7 Zr2_7 2.972029 1_555
Ni0_0 Zr1_5 2.601682 1_454
Ni0_0 Zr1_4 2.601682 1_455
Ni0_0 Zr0_2 2.601807 1_545
Ni0_0 Zr0_3 2.601807 1_544
Ni0_0 Zr2_7 2.602006 1_444
Ni0_0 Zr2_6 2.602006 1_445
Ni0_0 Zr5_0 3.165530 1_555
Ni0_0 Zr3_4 3.165905 1_444
Ni0_0 Zr4_2 3.166170 1_444
Ni0_1 Zr1_4 2.601682 1_455
Ni0_1 Zr1_5 2.601682 1_455
Ni0_1 Zr0_3 2.601807 1_545
Ni0_1 Zr0_2 2.601807 1_545
Ni0_1 Zr2_6 2.602006 1_445
Ni0_1 Zr2_7 2.602006 1_445
Ni0_1 Zr5_1 3.165530 1_555
Ni0_1 Zr3_5 3.165905 1_445
Ni0_1 Zr4_3 3.166170 1_445
Ni0_2 Zr1_7 2.601682 1_454
Ni0_2 Zr1_6 2.601682 1_455
Ni0_2 Zr0_0 2.601807 1_555
Ni0_2 Zr0_1 2.601807 1_554
Ni0_2 Zr2_5 2.602006 1_454
Ni0_2 Zr2_4 2.602006 1_455
Ni0_2 Zr5_2 3.165530 1_555
Ni0_2 Zr3_6 3.165905 1_454
Ni0_2 Zr4_0 3.166170 1_454
Ni0_3 Zr1_6 2.601682 1_455
Ni0_3 Zr1_7 2.601682 1_455
Ni0_3 Zr0_1 2.601807 1_555
Ni0_3 Zr0_0 2.601807 1_555
Ni0_3 Zr2_4 2.602006 1_455
Ni0_3 Zr2_5 2.602006 1_455
Ni0_3 Zr5_3 3.165530 1_555
Ni0_3 Zr3_7 3.165905 1_455
Ni0_3 Zr4_1 3.166170 1_455
Ni0_4 Zr1_1 2.601682 1_554
Ni0_4 Zr1_0 2.601682 1_555
Ni0_4 Zr0_6 2.601807 1_545
Ni0_4 Zr0_7 2.601807 1_544
Ni0_4 Zr2_3 2.602006 1_544
Ni0_4 Zr2_2 2.602006 1_545
Ni0_4 Zr5_4 3.165530 1_555
Ni0_4 Zr3_0 3.165905 1_544
Ni0_4 Zr4_6 3.166170 1_544
Ni0_5 Zr1_0 2.601682 1_555
Ni0_5 Zr1_1 2.601682 1_555
Ni0_5 Zr0_7 2.601807 1_545
Ni0_5 Zr0_6 2.601807 1_545
Ni0_5 Zr2_2 2.602006 1_545
Ni0_5 Zr2_3 2.602006 1_545
Ni0_5 Zr5_5 3.165530 1_555
Ni0_5 Zr3_1 3.165905 1_545
Ni0_5 Zr4_7 3.166170 1_545
Ni0_6 Zr1_3 2.601682 1_554
Ni0_6 Zr1_2 2.601682 1_555
Ni0_6 Zr0_4 2.601807 1_555
Ni0_6 Zr0_5 2.601807 1_554
Ni0_6 Zr2_1 2.602006 1_554
Ni0_6 Zr2_0 2.602006 1_555
Ni0_6 Zr5_6 3.165530 1_555
Ni0_6 Zr3_2 3.165905 1_554
Ni0_6 Zr4_4 3.166170 1_554
Ni0_7 Zr1_2 2.601682 1_555
Ni0_7 Zr1_3 2.601682 1_555
Ni0_7 Zr0_5 2.601807 1_555
Ni0_7 Zr0_4 2.601807 1_555
Ni0_7 Zr2_0 2.602006 1_555
Ni0_7 Zr2_1 2.602006 1_555
Ni0_7 Zr5_7 3.165530 1_555
Ni0_7 Zr3_3 3.165905 1_555
Ni0_7 Zr4_5 3.166170 1_555
