# generated using pymatgen
data_Cd4SF6
_symmetry_space_group_name_H-M   'P 1'
_cell_length_a   7.89101126
_cell_length_b   7.89101126
_cell_length_c   5.51059734
_cell_angle_alpha   90.00000000
_cell_angle_beta   90.00000000
_cell_angle_gamma   90.00000000
_symmetry_Int_Tables_number   1
_chemical_formula_structural   Cd4SF6
_chemical_formula_sum   'Cd8 S2 F12'
_cell_volume   343.13419867
_cell_formula_units_Z   2
loop_
 _symmetry_equiv_pos_site_id
 _symmetry_equiv_pos_as_xyz
  1  'x, y, z'
loop_
 _atom_site_type_symbol
 _atom_site_label
 _atom_site_symmetry_multiplicity
 _atom_site_fract_x
 _atom_site_fract_y
 _atom_site_fract_z
 _atom_site_occupancy
  Cd  Cd0  1  0.50000000  0.76499896  0.23358962  1
  Cd  Cd1  1  0.50000000  0.23500104  0.23358962  1
  Cd  Cd2  1  0.26499896  0.00000000  0.73358962  1
  Cd  Cd3  1  0.73500104  0.00000000  0.73358962  1
  Cd  Cd4  1  0.00000000  0.73500104  0.26641038  1
  Cd  Cd5  1  0.00000000  0.26499896  0.26641038  1
  Cd  Cd6  1  0.23500104  0.50000000  0.76641038  1
  Cd  Cd7  1  0.76499896  0.50000000  0.76641038  1
  S  S0  1  0.00000000  0.00000000  0.50000000  1
  S  S1  1  0.50000000  0.50000000  0.00000000  1
  F  F0  1  0.28556445  0.28556445  0.50000000  1
  F  F1  1  0.28556445  0.71443555  0.50000000  1
  F  F2  1  0.71443555  0.28556445  0.50000000  1
  F  F3  1  0.71443555  0.71443555  0.50000000  1
  F  F4  1  0.78556445  0.78556445  0.00000000  1
  F  F5  1  0.78556445  0.21443555  0.00000000  1
  F  F6  1  0.21443555  0.78556445  0.00000000  1
  F  F7  1  0.21443555  0.21443555  0.00000000  1
  F  F8  1  0.50000000  0.00000000  0.97354038  1
  F  F9  1  0.50000000  0.00000000  0.47354038  1
  F  F10  1  0.00000000  0.50000000  0.52645962  1
  F  F11  1  0.00000000  0.50000000  0.02645962  1
loop_
_geom_bond_atom_site_label_1
_geom_bond_atom_site_label_2
_geom_bond_distance
_geom_bond_site_symmetry_2
Cd0 F1 2.275457 1_555
Cd0 F3 2.275457 1_555
Cd0 F9 2.277540 1_565
Cd0 F8 2.343576 1_564
Cd0 S1 2.455539 1_555
Cd0 F6 2.600201 1_555
Cd0 F4 2.600201 1_555
Cd1 F0 2.275457 1_555
Cd1 F2 2.275457 1_555
Cd1 F9 2.277540 1_555
Cd1 F8 2.343576 1_554
Cd1 S1 2.455539 1_555
Cd1 F5 2.600201 1_555
Cd1 F7 2.600201 1_555
Cd2 F7 2.275457 1_556
Cd2 F6 2.275457 1_546
Cd2 F8 2.277540 1_555
Cd2 F9 2.343576 1_555
Cd2 S0 2.455539 1_555
Cd2 F1 2.600201 1_545
Cd2 F0 2.600201 1_555
Cd3 F5 2.275457 1_556
Cd3 F4 2.275457 1_546
Cd3 F8 2.277540 1_555
Cd3 F9 2.343576 1_555
Cd3 S0 2.455539 1_655
Cd3 F3 2.600201 1_545
Cd3 F2 2.600201 1_555
Cd4 F4 2.275457 1_455
Cd4 F6 2.275457 1_555
Cd4 F11 2.277540 1_555
Cd4 F10 2.343576 1_555
Cd4 S0 2.455539 1_565
Cd4 F1 2.600201 1_555
Cd4 F3 2.600201 1_455
Cd5 F7 2.275457 1_555
Cd5 F5 2.275457 1_455
Cd5 F11 2.277540 1_555
Cd5 F10 2.343576 1_555
Cd5 S0 2.455539 1_555
Cd5 F2 2.600201 1_455
Cd5 F0 2.600201 1_555
Cd6 F0 2.275457 1_555
Cd6 F1 2.275457 1_555
Cd6 F10 2.277540 1_555
Cd6 F11 2.343576 1_556
Cd6 S1 2.455539 1_556
Cd6 F6 2.600201 1_556
Cd6 F7 2.600201 1_556
Cd7 F2 2.275457 1_555
Cd7 F3 2.275457 1_555
Cd7 F10 2.277540 1_655
Cd7 F11 2.343576 1_656
Cd7 S1 2.455539 1_556
Cd7 F5 2.600201 1_556
Cd7 F4 2.600201 1_556
