# generated using pymatgen
data_K3Ti
_symmetry_space_group_name_H-M   'P 1'
_cell_length_a   8.38143917
_cell_length_b   8.38143917
_cell_length_c   6.79517700
_cell_angle_alpha   90.00000000
_cell_angle_beta   90.00000000
_cell_angle_gamma   119.99999344
_symmetry_Int_Tables_number   1
_chemical_formula_structural   K3Ti
_chemical_formula_sum   'K6 Ti2'
_cell_volume   413.39824509
_cell_formula_units_Z   2
loop_
 _symmetry_equiv_pos_site_id
 _symmetry_equiv_pos_as_xyz
  1  'x, y, z'
loop_
 _atom_site_type_symbol
 _atom_site_label
 _atom_site_symmetry_multiplicity
 _atom_site_fract_x
 _atom_site_fract_y
 _atom_site_fract_z
 _atom_site_occupancy
  K  K0  1  0.17560400  0.35120900  0.25000000  1
  K  K1  1  0.64879100  0.82439600  0.25000000  1
  K  K2  1  0.17560400  0.82439600  0.25000000  1
  K  K3  1  0.82439600  0.64879100  0.75000000  1
  K  K4  1  0.35120900  0.17560400  0.75000000  1
  K  K5  1  0.82439600  0.17560400  0.75000000  1
  Ti  Ti0  1  0.33333300  0.66666700  0.75000000  1
  Ti  Ti1  1  0.66666700  0.33333300  0.25000000  1
loop_
_geom_bond_atom_site_label_1
_geom_bond_atom_site_label_2
_geom_bond_distance
_geom_bond_site_symmetry_2
K0 K2 3.965988 1_555
K0 K1 3.965988 1_555
K0 Ti0 4.097149 1_555
K0 Ti0 4.097149 1_554
K0 Ti1 4.192719 1_455
K0 Ti1 4.192736 1_555
K0 K5 4.247625 1_454
K0 K5 4.247625 1_455
K0 K4 4.247634 1_554
K0 K4 4.247634 1_555
K0 K2 4.415451 1_545
K0 K1 4.415452 1_445
K1 K2 3.965988 1_555
K1 Ti0 4.097149 1_555
K1 Ti0 4.097149 1_554
K1 Ti1 4.192719 1_565
K1 Ti1 4.192736 1_555
K1 K5 4.247625 1_564
K1 K5 4.247625 1_565
K1 K3 4.247634 1_555
K1 K3 4.247634 1_554
K1 K2 4.415451 1_655
K2 Ti0 4.097149 1_555
K2 Ti0 4.097149 1_554
K2 Ti1 4.192728 1_455
K2 Ti1 4.192728 1_565
K2 K3 4.247625 1_455
K2 K3 4.247625 1_454
K2 K4 4.247625 1_564
K2 K4 4.247625 1_565
K3 K5 3.965988 1_555
K3 K4 3.965988 1_555
K3 Ti1 4.097149 1_555
K3 Ti1 4.097149 1_556
K3 Ti0 4.192719 1_655
K3 Ti0 4.192736 1_555
K3 K5 4.415451 1_565
K3 K4 4.415452 1_665
K4 K5 3.965988 1_555
K4 Ti1 4.097149 1_555
K4 Ti1 4.097149 1_556
K4 Ti0 4.192719 1_545
K4 Ti0 4.192736 1_555
K4 K5 4.415451 1_455
K5 Ti1 4.097149 1_555
K5 Ti1 4.097149 1_556
K5 Ti0 4.192728 1_545
K5 Ti0 4.192728 1_655
