# generated using pymatgen
data_CsMg14BO16
_symmetry_space_group_name_H-M   'P 1'
_cell_length_a   4.65696000
_cell_length_b   8.20425400
_cell_length_c   9.08107400
_cell_angle_alpha   90.00000000
_cell_angle_beta   90.00000000
_cell_angle_gamma   90.00000000
_symmetry_Int_Tables_number   1
_chemical_formula_structural   CsMg14BO16
_chemical_formula_sum   'Cs1 Mg14 B1 O16'
_cell_volume   346.95952918
_cell_formula_units_Z   1
loop_
 _symmetry_equiv_pos_site_id
 _symmetry_equiv_pos_as_xyz
  1  'x, y, z'
loop_
 _atom_site_type_symbol
 _atom_site_label
 _atom_site_symmetry_multiplicity
 _atom_site_fract_x
 _atom_site_fract_y
 _atom_site_fract_z
 _atom_site_occupancy
  Cs  Cs0  1  0.00000000  0.00000000  0.00000000  1
  Mg  Mg0  1  0.00000000  0.00000000  0.50000000  1
  Mg  Mg1  1  0.00000000  0.50000000  0.50000000  1
  Mg  Mg2  1  0.50000000  0.73969100  0.00000000  1
  Mg  Mg3  1  0.50000000  0.26030900  0.00000000  1
  Mg  Mg4  1  0.50000000  0.74768600  0.50000000  1
  Mg  Mg5  1  0.50000000  0.25231400  0.50000000  1
  Mg  Mg6  1  0.50000000  0.00000000  0.73872300  1
  Mg  Mg7  1  0.50000000  0.50000000  0.75337200  1
  Mg  Mg8  1  0.50000000  0.00000000  0.26127700  1
  Mg  Mg9  1  0.50000000  0.50000000  0.24662800  1
  Mg  Mg10  1  0.00000000  0.74462600  0.72913700  1
  Mg  Mg11  1  0.00000000  0.25537400  0.72913700  1
  Mg  Mg12  1  0.00000000  0.74462600  0.27086300  1
  Mg  Mg13  1  0.00000000  0.25537400  0.27086300  1
  B  B0  1  0.00000000  0.50000000  0.00000000  1
  O  O0  1  0.00000000  0.00000000  0.71479200  1
  O  O1  1  0.00000000  0.50000000  0.72812200  1
  O  O2  1  0.00000000  0.00000000  0.28520800  1
  O  O3  1  0.00000000  0.50000000  0.27187800  1
  O  O4  1  0.50000000  0.75074200  0.75436800  1
  O  O5  1  0.50000000  0.24925800  0.75436800  1
  O  O6  1  0.50000000  0.75074200  0.24563200  1
  O  O7  1  0.50000000  0.24925800  0.24563200  1
  O  O8  1  0.50000000  0.00000000  0.00000000  1
  O  O9  1  0.50000000  0.50000000  0.00000000  1
  O  O10  1  0.50000000  0.00000000  0.50000000  1
  O  O11  1  0.50000000  0.50000000  0.50000000  1
  O  O12  1  0.00000000  0.66216200  0.00000000  1
  O  O13  1  0.00000000  0.33783800  0.00000000  1
  O  O14  1  0.00000000  0.74732600  0.50000000  1
  O  O15  1  0.00000000  0.25267400  0.50000000  1
loop_
_geom_bond_atom_site_label_1
_geom_bond_atom_site_label_2
_geom_bond_distance
_geom_bond_site_symmetry_2
Cs0 O8 2.328480 1_455
Cs0 O8 2.328480 1_555
Cs0 O0 2.589995 1_554
Cs0 O2 2.589995 1_555
Cs0 O12 2.771709 1_545
Cs0 O13 2.771709 1_555
Mg0 O2 1.950542 1_555
Mg0 O0 1.950542 1_555
Mg0 O14 2.073002 1_545
Mg0 O15 2.073002 1_555
Mg0 O10 2.328480 1_555
Mg0 O10 2.328480 1_455
Mg1 O15 2.029125 1_555
Mg1 O14 2.029125 1_555
Mg1 O3 2.071593 1_555
Mg1 O1 2.071593 1_555
Mg1 O11 2.328480 1_455
Mg1 O11 2.328480 1_555
Mg2 O9 1.966486 1_555
Mg2 O8 2.135641 1_565
Mg2 O4 2.232444 1_554
Mg2 O6 2.232444 1_555
Mg2 O12 2.413794 1_655
Mg2 O12 2.413794 1_555
Mg3 O9 1.966486 1_555
Mg3 O8 2.135641 1_555
Mg3 O5 2.232444 1_554
Mg3 O7 2.232444 1_555
Mg3 O13 2.413794 1_655
Mg3 O13 2.413794 1_555
Mg4 O11 2.032079 1_555
Mg4 O10 2.070048 1_565
Mg4 O6 2.310071 1_555
Mg4 O4 2.310071 1_555
Mg4 O14 2.328482 1_655
Mg4 O14 2.328482 1_555
Mg5 O11 2.032079 1_555
Mg5 O10 2.070048 1_555
Mg5 O5 2.310071 1_555
Mg5 O7 2.310071 1_555
Mg5 O15 2.328482 1_555
Mg5 O15 2.328482 1_655
Mg6 O5 2.049905 1_555
Mg6 O4 2.049905 1_545
Mg6 O10 2.167861 1_555
Mg6 O0 2.338599 1_555
Mg6 O0 2.338599 1_655
Mg6 O8 2.372676 1_556
Mg7 O5 2.057171 1_555
Mg7 O4 2.057171 1_555
Mg7 O9 2.239647 1_556
Mg7 O11 2.300890 1_555
Mg7 O1 2.339743 1_555
Mg7 O1 2.339743 1_655
Mg8 O7 2.049905 1_555
Mg8 O6 2.049905 1_545
Mg8 O10 2.167861 1_555
Mg8 O2 2.338599 1_655
Mg8 O2 2.338599 1_555
Mg8 O8 2.372676 1_555
Mg9 O6 2.057171 1_555
Mg9 O7 2.057171 1_555
Mg9 O9 2.239647 1_555
Mg9 O11 2.300890 1_555
Mg9 O3 2.339743 1_555
Mg9 O3 2.339743 1_655
Mg10 O1 2.006995 1_555
Mg10 O14 2.080928 1_555
Mg10 O0 2.099199 1_565
Mg10 O4 2.340264 1_555
Mg10 O4 2.340264 1_455
Mg10 O12 2.551075 1_556
Mg11 O1 2.006995 1_555
Mg11 O15 2.080928 1_555
Mg11 O0 2.099199 1_555
Mg11 O5 2.340264 1_455
Mg11 O5 2.340264 1_555
Mg11 O13 2.551075 1_556
Mg12 O3 2.006995 1_555
Mg12 O14 2.080928 1_555
Mg12 O2 2.099199 1_565
Mg12 O6 2.340264 1_455
Mg12 O6 2.340264 1_555
Mg12 O12 2.551075 1_555
Mg13 O3 2.006995 1_555
Mg13 O15 2.080928 1_555
Mg13 O2 2.099199 1_555
Mg13 O7 2.340264 1_555
Mg13 O7 2.340264 1_455
Mg13 O13 2.551075 1_555
B0 O13 1.330418 1_555
B0 O12 1.330418 1_555
