# generated using pymatgen
data_Li3Mn5(PO4)6
_symmetry_space_group_name_H-M   'P 1'
_cell_length_a   15.63044250
_cell_length_b   15.63044250
_cell_length_c   11.16644525
_cell_angle_alpha   89.85203318
_cell_angle_beta   89.85203318
_cell_angle_gamma   157.14046290
_symmetry_Int_Tables_number   1
_chemical_formula_structural   Li3Mn5(PO4)6
_chemical_formula_sum   'Li6 Mn10 P12 O48'
_cell_volume   1059.69718990
_cell_formula_units_Z   2
loop_
 _symmetry_equiv_pos_site_id
 _symmetry_equiv_pos_as_xyz
  1  'x, y, z'
loop_
 _atom_site_type_symbol
 _atom_site_label
 _atom_site_symmetry_multiplicity
 _atom_site_fract_x
 _atom_site_fract_y
 _atom_site_fract_z
 _atom_site_occupancy
  Li  Li0  1  0.78704800  0.51843000  0.45108000  1
  Li  Li1  1  0.96148900  0.03851100  0.25000000  1
  Li  Li2  1  0.48157000  0.21295200  0.04892000  1
  Li  Li3  1  0.51843000  0.78704800  0.95108000  1
  Li  Li4  1  0.03851100  0.96148900  0.75000000  1
  Li  Li5  1  0.21295200  0.48157000  0.54892000  1
  Mn  Mn0  1  0.79782700  0.69510500  0.09099400  1
  Mn  Mn1  1  0.00000000  0.50000000  0.00000000  1
  Mn  Mn2  1  0.81039700  0.18960300  0.75000000  1
  Mn  Mn3  1  0.81289200  0.18710800  0.25000000  1
  Mn  Mn4  1  0.69510500  0.79782700  0.59099400  1
  Mn  Mn5  1  0.50000000  0.00000000  0.50000000  1
  Mn  Mn6  1  0.30489500  0.20217300  0.40900600  1
  Mn  Mn7  1  0.18710800  0.81289200  0.75000000  1
  Mn  Mn8  1  0.18960300  0.81039700  0.25000000  1
  Mn  Mn9  1  0.20217300  0.30489500  0.90900600  1
  P  P0  1  0.78854700  0.73767900  0.36653700  1
  P  P1  1  0.99507900  0.28981000  0.00101500  1
  P  P2  1  0.71827000  0.28173000  0.75000000  1
  P  P3  1  0.71953100  0.28046900  0.25000000  1
  P  P4  1  0.71019000  0.00492100  0.49898500  1
  P  P5  1  0.73767900  0.78854700  0.86653700  1
  P  P6  1  0.26232100  0.21145300  0.13346300  1
  P  P7  1  0.28981000  0.99507900  0.50101500  1
  P  P8  1  0.28046900  0.71953100  0.75000000  1
  P  P9  1  0.28173000  0.71827000  0.25000000  1
  P  P10  1  0.00492100  0.71019000  0.99898500  1
  P  P11  1  0.21145300  0.26232100  0.63346300  1
  O  O0  1  0.00406000  0.88978800  0.40539100  1
  O  O1  1  0.78685700  0.76145700  0.22966600  1
  O  O2  1  0.79249500  0.75458700  0.92756400  1
  O  O3  1  0.80003600  0.57945400  0.02326600  1
  O  O4  1  0.89805900  0.52107400  0.99756800  1
  O  O5  1  0.88110300  0.50579600  0.72680500  1
  O  O6  1  0.87795600  0.50312100  0.26793500  1
  O  O7  1  0.61697300  0.50895400  0.39418400  1
  O  O8  1  0.78012500  0.27745400  0.85642000  1
  O  O9  1  0.77791100  0.27396200  0.14296600  1
  O  O10  1  0.87853100  0.15942300  0.11930900  1
  O  O11  1  0.82388200  0.12487800  0.89933300  1
  O  O12  1  0.87512200  0.17611800  0.60066700  1
  O  O13  1  0.84057700  0.12146900  0.38069100  1
  O  O14  1  0.72254600  0.21987500  0.64358000  1
  O  O15  1  0.72603800  0.22208900  0.35703400  1
  O  O16  1  0.49104600  0.38302700  0.10581600  1
  O  O17  1  0.88978800  0.00406000  0.90539100  1
  O  O18  1  0.49420400  0.11889700  0.77319500  1
  O  O19  1  0.49687900  0.12204400  0.23206500  1
  O  O20  1  0.47892600  0.10194100  0.50243200  1
  O  O21  1  0.76145700  0.78685700  0.72966600  1
  O  O22  1  0.42054600  0.19996400  0.47673400  1
  O  O23  1  0.75458700  0.79249500  0.42756400  1
  O  O24  1  0.24541300  0.20750500  0.57243600  1
  O  O25  1  0.57945400  0.80003600  0.52326600  1
  O  O26  1  0.23854300  0.21314300  0.27033400  1
  O  O27  1  0.52107400  0.89805900  0.49756800  1
  O  O28  1  0.50312100  0.87795600  0.76793500  1
  O  O29  1  0.50579600  0.88110300  0.22680500  1
  O  O30  1  0.11021200  0.99594000  0.09460900  1
  O  O31  1  0.50895400  0.61697300  0.89418400  1
  O  O32  1  0.27396200  0.77791100  0.64296600  1
  O  O33  1  0.27745400  0.78012500  0.35642000  1
  O  O34  1  0.15942300  0.87853100  0.61930900  1
  O  O35  1  0.12487800  0.82388200  0.39933300  1
  O  O36  1  0.17611800  0.87512200  0.10066700  1
  O  O37  1  0.12146900  0.84057700  0.88069100  1
  O  O38  1  0.22208900  0.72603800  0.85703400  1
  O  O39  1  0.21987500  0.72254600  0.14358000  1
  O  O40  1  0.38302700  0.49104600  0.60581600  1
  O  O41  1  0.12204400  0.49687900  0.73206500  1
  O  O42  1  0.11889700  0.49420400  0.27319500  1
  O  O43  1  0.10194100  0.47892600  0.00243200  1
  O  O44  1  0.19996400  0.42054600  0.97673400  1
  O  O45  1  0.20750500  0.24541300  0.07243600  1
  O  O46  1  0.21314300  0.23854300  0.77033400  1
  O  O47  1  0.99594000  0.11021200  0.59460900  1
loop_
_geom_bond_atom_site_label_1
_geom_bond_atom_site_label_2
_geom_bond_distance
_geom_bond_site_symmetry_2
Li0 O35 2.126049 1_655
Li0 O22 2.260350 1_555
Li0 O7 2.603069 1_555
Li0 O6 2.621599 1_555
Li1 O26 2.116474 1_655
Li1 O1 2.116474 1_545
Li1 O23 2.487168 1_545
Li1 O45 2.487168 1_655
Li2 O36 2.126049 1_545
Li2 O3 2.260350 1_555
Li2 O16 2.603069 1_555
Li2 O19 2.621599 1_555
Li3 O11 2.126049 1_565
Li3 O44 2.260350 1_555
Li3 O31 2.603069 1_555
Li3 O28 2.621599 1_555
Li4 O46 2.116474 1_565
Li4 O21 2.116474 1_455
Li4 O2 2.487168 1_455
Li4 O24 2.487168 1_565
Li5 O12 2.126049 1_455
Li5 O25 2.260350 1_555
Li5 O40 2.603069 1_555
Li5 O41 2.621599 1_555
Mn0 O30 1.908583 1_655
Mn0 O16 1.923568 1_555
Mn0 O1 1.958933 1_555
Mn0 O3 1.990678 1_555
Mn0 O2 2.082437 1_554
Mn1 O43 1.901460 1_555
Mn1 O4 1.901460 1_454
Mn1 O9 2.102649 1_455
Mn1 O38 2.102649 1_554
Mn1 O8 2.123052 1_454
Mn1 O39 2.123052 1_555
Mn2 O28 1.926071 1_545
Mn2 O41 1.926071 1_655
Mn2 O11 2.057821 1_555
Mn2 O12 2.057821 1_555
Mn2 O14 2.173587 1_555
Mn2 O8 2.173587 1_555
Mn3 O42 1.920034 1_655
Mn3 O29 1.920034 1_545
Mn3 O13 2.045311 1_555
Mn3 O10 2.045311 1_555
Mn3 O15 2.221119 1_555
Mn3 O9 2.221119 1_555
Mn4 O47 1.908583 1_565
Mn4 O40 1.923568 1_555
Mn4 O21 1.958933 1_555
Mn4 O25 1.990678 1_555
Mn4 O23 2.082437 1_555
Mn5 O20 1.901460 1_555
Mn5 O27 1.901460 1_545
Mn5 O32 2.102649 1_545
Mn5 O15 2.102649 1_555
Mn5 O33 2.123052 1_545
Mn5 O14 2.123052 1_555
Mn6 O0 1.908583 1_545
Mn6 O7 1.923568 1_555
Mn6 O26 1.958933 1_555
Mn6 O22 1.990678 1_555
Mn6 O24 2.082437 1_555
Mn7 O18 1.920034 1_565
Mn7 O5 1.920034 1_455
Mn7 O37 2.045311 1_555
Mn7 O34 2.045311 1_555
Mn7 O38 2.221119 1_555
Mn7 O32 2.221119 1_555
Mn8 O6 1.926071 1_455
Mn8 O19 1.926071 1_565
Mn8 O36 2.057821 1_555
Mn8 O35 2.057821 1_555
Mn8 O39 2.173587 1_555
Mn8 O33 2.173587 1_555
Mn9 O17 1.908583 1_455
Mn9 O31 1.923568 1_555
Mn9 O46 1.958933 1_555
Mn9 O44 1.990678 1_555
Mn9 O45 2.082437 1_556
O0 P0 1.562463 1_455
O1 P0 1.578002 1_555
O2 P5 1.523005 1_555
O3 P10 1.561201 1_654
O4 P10 1.558565 1_655
O5 P2 1.541170 1_555
O6 P3 1.551693 1_555
O7 P0 1.545743 1_555
O8 P2 1.573517 1_555
O9 P3 1.561256 1_555
O10 P1 1.532474 1_555
O11 P1 1.553442 1_556
O12 P4 1.553442 1_555
O13 P4 1.532474 1_555
O14 P2 1.573517 1_555
O15 P3 1.561256 1_555
O16 P6 1.545743 1_555
O17 P5 1.562463 1_545
O18 P2 1.541170 1_555
O19 P3 1.551693 1_555
O20 P7 1.558565 1_545
O21 P5 1.578002 1_555
O22 P7 1.561201 1_545
O23 P0 1.523005 1_555
O24 P11 1.523005 1_555
O25 P4 1.561201 1_565
O26 P6 1.578002 1_555
O27 P4 1.558565 1_565
O28 P8 1.551693 1_555
O29 P9 1.541170 1_555
O30 P6 1.562463 1_565
O31 P5 1.545743 1_555
O32 P8 1.561256 1_555
O33 P9 1.573517 1_555
O34 P7 1.532474 1_555
O35 P7 1.553442 1_555
O36 P10 1.553442 1_554
O37 P10 1.532474 1_555
O38 P8 1.561256 1_555
O39 P9 1.573517 1_555
O40 P11 1.545743 1_555
O41 P8 1.551693 1_555
O42 P9 1.541170 1_555
O43 P1 1.558565 1_455
O44 P1 1.561201 1_456
O45 P6 1.523005 1_555
O46 P11 1.578002 1_555
O47 P11 1.562463 1_655
