# generated using pymatgen
data_Be4AlCr
_symmetry_space_group_name_H-M   'P 1'
_cell_length_a   4.30681565
_cell_length_b   4.30655941
_cell_length_c   7.01732922
_cell_angle_alpha   90.00015025
_cell_angle_beta   90.00111537
_cell_angle_gamma   60.00261182
_symmetry_Int_Tables_number   1
_chemical_formula_structural   Be4AlCr
_chemical_formula_sum   'Be8 Al2 Cr2'
_cell_volume   112.71991141
_cell_formula_units_Z   2
loop_
 _symmetry_equiv_pos_site_id
 _symmetry_equiv_pos_as_xyz
  1  'x, y, z'
loop_
 _atom_site_type_symbol
 _atom_site_label
 _atom_site_symmetry_multiplicity
 _atom_site_fract_x
 _atom_site_fract_y
 _atom_site_fract_z
 _atom_site_occupancy
  Be  Be0  1  0.00000031  -0.00000017  0.50000342  1
  Be  Be1  1  0.00000009  -0.00000002  0.00000107  1
  Be  Be2  1  0.83148262  0.33706663  0.75937429  1
  Be  Be3  1  0.33708153  0.83145738  0.75937189  1
  Be  Be4  1  0.83148764  0.83145025  0.75938538  1
  Be  Be5  1  0.16852168  0.66292435  0.24062889  1
  Be  Be6  1  0.66291001  0.16854671  0.24063115  1
  Be  Be7  1  0.16851716  0.16855516  0.24061784  1
  Al  Al0  1  0.33332948  0.33333449  0.57786271  1
  Al  Al1  1  0.66667058  0.66666545  0.42214871  1
  Cr  Cr0  1  0.66657649  0.66671041  0.05237355  1
  Cr  Cr1  1  0.33342241  0.33329037  0.94760110  1
loop_
_geom_bond_atom_site_label_1
_geom_bond_atom_site_label_2
_geom_bond_distance
_geom_bond_site_symmetry_2
Be0 Be2 2.212059 1_455
Be0 Be3 2.212088 1_545
Be0 Be5 2.212098 1_545
Be0 Be4 2.212111 1_445
Be0 Be6 2.212129 1_455
Be0 Be7 2.212153 1_555
Be1 Be4 2.105058 1_444
Be1 Be7 2.105087 1_555
Be1 Be2 2.105143 1_454
Be1 Be5 2.105169 1_545
Be1 Be3 2.105263 1_544
Be1 Be6 2.105288 1_455
Be1 Cr0 2.513278 1_545
Be1 Cr1 2.513311 1_454
Be1 Cr0 2.513625 1_445
Be1 Cr0 2.513637 1_455
Be1 Cr1 2.513651 1_554
Be1 Cr1 2.513662 1_544
Be2 Be4 2.129103 1_555
Be2 Be3 2.129293 1_555
Be2 Be4 2.177456 1_545
Be2 Be3 2.177565 1_645
Be2 Cr0 2.395635 1_556
Be2 Cr1 2.526095 1_555
Be2 Cr1 2.526432 1_655
Be3 Be4 2.129301 1_555
Be3 Be4 2.177515 1_455
Be3 Cr0 2.395371 1_556
Be3 Cr1 2.526151 1_555
Be3 Cr1 2.526171 1_565
Be4 Cr0 2.395581 1_556
Be4 Cr1 2.526085 1_565
Be4 Cr1 2.526396 1_655
Be5 Be7 2.129040 1_555
Be5 Be6 2.129237 1_555
Be5 Be7 2.177519 1_565
Be5 Be6 2.177620 1_465
Be5 Cr1 2.395788 1_554
Be5 Cr0 2.526198 1_555
Be5 Cr0 2.526539 1_455
Be6 Be7 2.129241 1_555
Be6 Be7 2.177575 1_655
Be6 Cr1 2.395528 1_554
Be6 Cr0 2.526257 1_555
Be6 Cr0 2.526274 1_545
Be7 Cr1 2.395733 1_554
Be7 Cr0 2.526188 1_545
Be7 Cr0 2.526503 1_455
Al0 Be3 2.501821 1_555
Al0 Be3 2.501835 1_545
Al0 Be2 2.501898 1_455
Al0 Be4 2.501945 1_455
Al0 Be2 2.501996 1_555
Al0 Be4 2.502064 1_545
Al0 Be0 2.545738 1_555
Al0 Be0 2.545770 1_565
Al0 Be0 2.545950 1_655
Al0 Cr1 2.594576 1_555
Al0 Be5 2.666699 1_555
Al0 Be6 2.666734 1_555
Al0 Be7 2.666760 1_555
Al0 Al1 2.715973 1_555
Al0 Al1 2.715981 1_545
Al0 Al1 2.716052 1_455
Al1 Be6 2.501852 1_555
Al1 Be6 2.501865 1_565
Al1 Be5 2.501927 1_655
Al1 Be7 2.501973 1_655
Al1 Be5 2.502026 1_555
Al1 Be7 2.502095 1_565
Al1 Be0 2.545732 1_665
Al1 Be0 2.545764 1_655
Al1 Be0 2.545941 1_565
Al1 Cr0 2.594834 1_555
Al1 Be2 2.666663 1_555
Al1 Be3 2.666697 1_555
Al1 Be4 2.666727 1_555
Cr0 Cr1 2.592517 1_554
Cr0 Cr1 2.592565 1_564
Cr0 Cr1 2.593678 1_654
