# generated using pymatgen
data_Ca(BiO3)2
_symmetry_space_group_name_H-M   'P 1'
_cell_length_a   5.67182700
_cell_length_b   5.91557900
_cell_length_c   8.16907100
_cell_angle_alpha   90.00000000
_cell_angle_beta   90.00000000
_cell_angle_gamma   90.00000000
_symmetry_Int_Tables_number   1
_chemical_formula_structural   Ca(BiO3)2
_chemical_formula_sum   'Ca2 Bi4 O12'
_cell_volume   274.08981952
_cell_formula_units_Z   2
loop_
 _symmetry_equiv_pos_site_id
 _symmetry_equiv_pos_as_xyz
  1  'x, y, z'
loop_
 _atom_site_type_symbol
 _atom_site_label
 _atom_site_symmetry_multiplicity
 _atom_site_fract_x
 _atom_site_fract_y
 _atom_site_fract_z
 _atom_site_occupancy
  Ca  Ca0  1  0.52177500  0.32759100  0.50000000  1
  Ca  Ca1  1  0.02177500  0.67240900  0.00000000  1
  Bi  Bi0  1  0.50415300  0.76304500  0.74983800  1
  Bi  Bi1  1  0.00415300  0.23695500  0.75016200  1
  Bi  Bi2  1  0.00415300  0.23695500  0.24983800  1
  Bi  Bi3  1  0.50415300  0.76304500  0.25016200  1
  O  O0  1  0.67955900  0.06933900  0.31069500  1
  O  O1  1  0.17955900  0.93066100  0.18930500  1
  O  O2  1  0.79641100  0.53895400  0.69679000  1
  O  O3  1  0.29641100  0.46104600  0.80321000  1
  O  O4  1  0.29641100  0.46104600  0.19679000  1
  O  O5  1  0.79641100  0.53895400  0.30321000  1
  O  O6  1  0.17955900  0.93066100  0.81069500  1
  O  O7  1  0.67955900  0.06933900  0.68930500  1
  O  O8  1  0.12675200  0.22139800  0.50000000  1
  O  O9  1  0.62675200  0.77860200  0.00000000  1
  O  O10  1  0.40182500  0.70824200  0.50000000  1
  O  O11  1  0.90182500  0.29175800  0.00000000  1
loop_
_geom_bond_atom_site_label_1
_geom_bond_atom_site_label_2
_geom_bond_distance
_geom_bond_site_symmetry_2
Ca0 O8 2.326903 1_555
Ca0 O7 2.350804 1_555
Ca0 O0 2.350804 1_555
Ca0 O10 2.352303 1_555
Ca0 O5 2.563997 1_555
Ca0 O2 2.563997 1_555
Ca0 O4 2.896958 1_555
Ca0 O3 2.896958 1_555
Ca1 O9 2.326903 1_455
Ca1 O6 2.350804 1_554
Ca1 O1 2.350804 1_555
Ca1 O11 2.352303 1_455
Ca1 O3 2.563997 1_554
Ca1 O4 2.563997 1_555
Ca1 O5 2.896958 1_455
Ca1 O2 2.896958 1_454
Bi0 O7 2.125395 1_565
Bi0 O10 2.146486 1_555
Bi0 O6 2.149360 1_555
Bi0 O9 2.160616 1_556
Bi0 O2 2.166297 1_555
Bi0 O3 2.184035 1_555
Bi1 O6 2.125395 1_545
Bi1 O11 2.146486 1_456
Bi1 O7 2.149360 1_455
Bi1 O8 2.160616 1_555
Bi1 O3 2.166297 1_555
Bi1 O2 2.184035 1_455
Bi2 O1 2.125395 1_545
Bi2 O11 2.146486 1_455
Bi2 O0 2.149360 1_455
Bi2 O8 2.160616 1_555
Bi2 O4 2.166297 1_555
Bi2 O5 2.184035 1_455
Bi3 O0 2.125395 1_565
Bi3 O10 2.146486 1_555
Bi3 O1 2.149360 1_555
Bi3 O9 2.160616 1_555
Bi3 O5 2.166297 1_555
Bi3 O4 2.184035 1_555
