# generated using pymatgen
data_Y3HoFe4(Ge2O7)4
_symmetry_space_group_name_H-M   'P 1'
_cell_length_a   6.75551500
_cell_length_b   8.65185101
_cell_length_c   9.82039714
_cell_angle_alpha   89.99527914
_cell_angle_beta   79.45251013
_cell_angle_gamma   89.99680802
_symmetry_Int_Tables_number   1
_chemical_formula_structural   Y3HoFe4(Ge2O7)4
_chemical_formula_sum   'Y3 Ho1 Fe4 Ge8 O28'
_cell_volume   564.28147978
_cell_formula_units_Z   1
loop_
 _symmetry_equiv_pos_site_id
 _symmetry_equiv_pos_as_xyz
  1  'x, y, z'
loop_
 _atom_site_type_symbol
 _atom_site_label
 _atom_site_symmetry_multiplicity
 _atom_site_fract_x
 _atom_site_fract_y
 _atom_site_fract_z
 _atom_site_occupancy
  Y  Y0  1  0.75525700  0.95892700  0.25282500  1
  Y  Y1  1  0.24484700  0.45881400  0.74714600  1
  Y  Y2  1  0.24479700  0.04151900  0.74727100  1
  Ho  Ho0  1  0.75509400  0.54272600  0.25276300  1
  Fe  Fe0  1  0.25581900  0.05592500  0.24805500  1
  Fe  Fe1  1  0.74419400  0.55568700  0.75197500  1
  Fe  Fe2  1  0.74415900  0.94425700  0.75195000  1
  Fe  Fe3  1  0.25568300  0.44448600  0.24807200  1
  Ge  Ge0  1  0.54585000  0.25003400  0.96691600  1
  Ge  Ge1  1  0.45421900  0.74983900  0.03325500  1
  Ge  Ge2  1  0.04565400  0.74982700  0.46980600  1
  Ge  Ge3  1  0.95428200  0.25006600  0.53001900  1
  Ge  Ge4  1  0.48156300  0.25040800  0.44700400  1
  Ge  Ge5  1  0.51927300  0.74976900  0.55257000  1
  Ge  Ge6  1  0.02047000  0.25047800  0.05035000  1
  Ge  Ge7  1  0.97901000  0.74974500  0.95018500  1
  O  O0  1  0.03234400  0.42632300  0.14030300  1
  O  O1  1  0.96545500  0.92586100  0.86111600  1
  O  O2  1  0.96538000  0.57388800  0.86091400  1
  O  O3  1  0.03445900  0.07410200  0.13935800  1
  O  O4  1  0.04506200  0.91457000  0.36100400  1
  O  O5  1  0.95503600  0.41454300  0.63885700  1
  O  O6  1  0.95527100  0.08561000  0.63900800  1
  O  O7  1  0.04317200  0.58565100  0.36055700  1
  O  O8  1  0.35368400  0.25020000  0.61839200  1
  O  O9  1  0.64760800  0.74904800  0.38082700  1
  O  O10  1  0.47306500  0.07241600  0.35996600  1
  O  O11  1  0.52715200  0.57223500  0.63976900  1
  O  O12  1  0.52691200  0.92755900  0.63959100  1
  O  O13  1  0.47517400  0.42780600  0.35893800  1
  O  O14  1  0.53733600  0.41548400  0.86114600  1
  O  O15  1  0.46271700  0.91545700  0.13905600  1
  O  O16  1  0.46387300  0.58460500  0.13937200  1
  O  O17  1  0.53710300  0.08463800  0.86097700  1
  O  O18  1  0.35259300  0.25047000  0.11912900  1
  O  O19  1  0.64636300  0.75004000  0.88070900  1
  O  O20  1  0.75089300  0.24904800  0.05933500  1
  O  O21  1  0.24847500  0.74946900  0.94140100  1
  O  O22  1  0.16031800  0.25057400  0.38493600  1
  O  O23  1  0.84037300  0.75008100  0.61507400  1
  O  O24  1  0.15668800  0.25030600  0.88126000  1
  O  O25  1  0.84256800  0.74900400  0.11962100  1
  O  O26  1  0.75689600  0.24906600  0.43042500  1
  O  O27  1  0.24385700  0.74944000  0.56879700  1
loop_
_geom_bond_atom_site_label_1
_geom_bond_atom_site_label_2
_geom_bond_distance
_geom_bond_site_symmetry_2
Ho0 O13 2.220325 1_555
Ho0 O25 2.227274 1_555
Ho0 O9 2.227393 1_555
Ho0 O0 2.232633 1_655
Ho0 O7 2.408368 1_655
Ho0 O16 2.458374 1_555
Fe0 O10 1.993137 1_555
Fe0 O3 1.996181 1_555
Fe0 O15 2.007144 1_545
Fe0 O4 2.043270 1_545
Fe0 O18 2.135471 1_555
Fe0 O22 2.177621 1_555
Fe1 O11 1.993984 1_555
Fe1 O2 1.996827 1_555
Fe1 O14 2.006268 1_555
Fe1 O5 2.043225 1_555
Fe1 O19 2.134682 1_555
Fe1 O23 2.176755 1_555
Fe2 O12 1.996293 1_555
Fe2 O1 1.999063 1_555
Fe2 O17 2.007439 1_565
Fe2 O6 2.044665 1_565
Fe2 O19 2.133733 1_555
Fe2 O23 2.175319 1_555
Fe3 O13 1.998948 1_555
Fe3 O0 2.001447 1_555
Fe3 O16 2.009362 1_555
Fe3 O7 2.047527 1_555
Fe3 O18 2.132244 1_555
Fe3 O22 2.172315 1_555
Ge0 O14 1.775634 1_555
Ge0 O17 1.776602 1_555
Ge0 O20 1.789621 1_556
Ge0 O18 1.795668 1_556
Ge1 O15 1.777114 1_555
Ge1 O16 1.777238 1_555
Ge1 O21 1.790121 1_554
Ge1 O19 1.793651 1_554
Ge2 O4 1.781726 1_555
Ge2 O7 1.782071 1_555
Ge2 O27 1.792876 1_555
Ge2 O23 1.798343 1_455
Ge3 O5 1.780362 1_555
Ge3 O6 1.781147 1_555
Ge3 O26 1.792261 1_555
Ge3 O22 1.800363 1_655
Ge4 O8 1.745512 1_555
Ge4 O13 1.766050 1_555
Ge4 O10 1.767359 1_555
Ge4 O26 1.837235 1_555
Ge4 O22 2.359124 1_555
Ge5 O9 1.749550 1_555
Ge5 O11 1.764053 1_555
Ge5 O12 1.765061 1_555
Ge5 O27 1.838098 1_555
Ge5 O23 2.360009 1_555
Ge6 O24 1.744922 1_554
Ge6 O0 1.768495 1_555
Ge6 O3 1.769629 1_555
Ge6 O20 1.807106 1_455
Ge6 O18 2.458667 1_555
Ge7 O25 1.748372 1_556
Ge7 O2 1.766849 1_555
Ge7 O1 1.767572 1_555
Ge7 O21 1.806578 1_655
O1 Y2 2.244999 1_665
O2 Y1 2.243113 1_655
O3 Y0 2.241153 1_445
O4 Y0 2.422827 1_455
O5 Y1 2.423441 1_655
O6 Y2 2.421274 1_655
O8 Y1 2.248749 1_555
O8 Y2 2.249805 1_555
O9 Y0 2.251969 1_555
O10 Y0 2.229569 1_545
O11 Y1 2.230646 1_555
O12 Y2 2.232642 1_565
O14 Y1 2.471397 1_555
O15 Y0 2.470588 1_555
O17 Y2 2.468361 1_555
O24 Y1 2.248606 1_555
O24 Y2 2.249952 1_555
O25 Y0 2.252894 1_555
