# generated using pymatgen
data_YbCo3P2
_symmetry_space_group_name_H-M   'P 1'
_cell_length_a   3.70045200
_cell_length_b   10.54116200
_cell_length_c   12.12426200
_cell_angle_alpha   90.00000000
_cell_angle_beta   90.00000000
_cell_angle_gamma   90.00000000
_symmetry_Int_Tables_number   1
_chemical_formula_structural   YbCo3P2
_chemical_formula_sum   'Yb6 Co18 P12'
_cell_volume   472.93186385
_cell_formula_units_Z   6
loop_
 _symmetry_equiv_pos_site_id
 _symmetry_equiv_pos_as_xyz
  1  'x, y, z'
loop_
 _atom_site_type_symbol
 _atom_site_label
 _atom_site_symmetry_multiplicity
 _atom_site_fract_x
 _atom_site_fract_y
 _atom_site_fract_z
 _atom_site_occupancy
  Yb  Yb0  1  0.00000000  0.50000000  0.52565800  1
  Yb  Yb1  1  0.50000000  0.00000000  0.47434200  1
  Yb  Yb2  1  0.50000000  0.81975200  0.20569800  1
  Yb  Yb3  1  0.50000000  0.18024800  0.20569800  1
  Yb  Yb4  1  0.00000000  0.68024800  0.79430200  1
  Yb  Yb5  1  0.00000000  0.31975200  0.79430200  1
  Co  Co0  1  0.50000000  0.50000000  0.15659800  1
  Co  Co1  1  0.00000000  0.00000000  0.84340200  1
  Co  Co2  1  0.50000000  0.50000000  0.70011700  1
  Co  Co3  1  0.00000000  0.00000000  0.29988300  1
  Co  Co4  1  0.00000000  0.50000000  0.98658300  1
  Co  Co5  1  0.50000000  0.00000000  0.01341700  1
  Co  Co6  1  0.50000000  0.33262300  0.99462000  1
  Co  Co7  1  0.50000000  0.66737700  0.99462000  1
  Co  Co8  1  0.00000000  0.16737700  0.00538000  1
  Co  Co9  1  0.00000000  0.83262300  0.00538000  1
  Co  Co10  1  0.50000000  0.29819500  0.43088300  1
  Co  Co11  1  0.50000000  0.70180500  0.43088300  1
  Co  Co12  1  0.00000000  0.20180500  0.56911700  1
  Co  Co13  1  0.00000000  0.79819500  0.56911700  1
  Co  Co14  1  0.50000000  0.88032500  0.70941500  1
  Co  Co15  1  0.50000000  0.11967500  0.70941500  1
  Co  Co16  1  0.00000000  0.61967500  0.29058500  1
  Co  Co17  1  0.00000000  0.38032500  0.29058500  1
  P  P0  1  0.50000000  0.50000000  0.88167600  1
  P  P1  1  0.00000000  0.00000000  0.11832400  1
  P  P2  1  0.50000000  0.50000000  0.34201900  1
  P  P3  1  0.00000000  0.00000000  0.65798100  1
  P  P4  1  0.50000000  0.30769600  0.61714400  1
  P  P5  1  0.50000000  0.69230400  0.61714400  1
  P  P6  1  0.00000000  0.19230400  0.38285600  1
  P  P7  1  0.00000000  0.80769600  0.38285600  1
  P  P8  1  0.50000000  0.84680900  0.89302500  1
  P  P9  1  0.50000000  0.15319100  0.89302500  1
  P  P10  1  0.00000000  0.65319100  0.10697500  1
  P  P11  1  0.00000000  0.34680900  0.10697500  1
loop_
_geom_bond_atom_site_label_1
_geom_bond_atom_site_label_2
_geom_bond_distance
_geom_bond_site_symmetry_2
Co0 P2 2.248093 1_555
Co0 P11 2.528423 1_655
Co0 P11 2.528423 1_555
Co0 P10 2.528423 1_655
Co0 P10 2.528423 1_555
Co1 P3 2.248093 1_555
Co1 P8 2.528423 1_545
Co1 P8 2.528423 1_445
Co1 P9 2.528423 1_555
Co1 P9 2.528423 1_455
Co2 P0 2.201269 1_555
Co2 P4 2.263001 1_555
Co2 P5 2.263001 1_555
Co2 Yb0 2.810223 1_555
Co2 Yb0 2.810223 1_655
Co2 Yb5 2.887458 1_655
Co2 Yb4 2.887458 1_555
Co2 Yb4 2.887458 1_655
Co2 Yb5 2.887458 1_555
Co3 P1 2.201269 1_555
Co3 P6 2.263001 1_555
Co3 P7 2.263001 1_545
Co3 Yb1 2.810223 1_455
Co3 Yb1 2.810223 1_555
Co3 Yb2 2.887458 1_545
Co3 Yb3 2.887458 1_455
Co3 Yb2 2.887458 1_445
Co3 Yb3 2.887458 1_555
Co4 P10 2.176749 1_556
Co4 P11 2.176749 1_556
Co4 P0 2.245243 1_455
Co4 P0 2.245243 1_555
Co4 Yb4 3.007472 1_555
Co4 Yb5 3.007472 1_555
Co5 P8 2.176749 1_544
Co5 P9 2.176749 1_554
Co5 P1 2.245243 1_655
Co5 P1 2.245243 1_555
Co5 Yb2 3.007472 1_545
Co5 Yb3 3.007472 1_555
Co6 P0 2.233401 1_555
Co6 P9 2.257149 1_555
Co6 P11 2.302465 1_556
Co6 P11 2.302465 1_656
Co6 Yb3 3.021462 1_556
Co6 Yb5 3.056201 1_555
Co6 Yb5 3.056201 1_655
Co7 P0 2.233401 1_555
Co7 P8 2.257149 1_555
Co7 P10 2.302465 1_556
Co7 P10 2.302465 1_656
Co7 Yb2 3.021462 1_556
Co7 Yb4 3.056201 1_655
Co7 Yb4 3.056201 1_555
Co8 P1 2.233401 1_555
Co8 P11 2.257149 1_555
Co8 P9 2.302465 1_554
Co8 P9 2.302465 1_454
Co8 Yb5 3.021462 1_554
Co8 Yb3 3.056201 1_455
Co8 Yb3 3.056201 1_555
Co9 P1 2.233401 1_565
Co9 P10 2.257149 1_555
Co9 P8 2.302465 1_454
Co9 P8 2.302465 1_554
Co9 Yb4 3.021462 1_554
Co9 Yb2 3.056201 1_455
Co9 Yb2 3.056201 1_555
Co10 P6 2.237931 1_655
Co10 P6 2.237931 1_555
Co10 P4 2.260497 1_555
Co10 P2 2.384543 1_555
Co10 Yb3 2.999966 1_555
Co10 Yb0 3.044494 1_655
Co10 Yb0 3.044494 1_555
Co10 Yb1 3.187178 1_555
Co11 P7 2.237931 1_555
Co11 P7 2.237931 1_655
Co11 P5 2.260497 1_555
Co11 P2 2.384543 1_555
Co11 Yb2 2.999966 1_555
Co11 Yb0 3.044494 1_655
Co11 Yb0 3.044494 1_555
Co11 Yb1 3.187178 1_565
Co12 P4 2.237931 1_555
Co12 P4 2.237931 1_455
Co12 P6 2.260497 1_555
Co12 P3 2.384543 1_555
Co12 Yb5 2.999966 1_555
Co12 Yb1 3.044494 1_455
Co12 Yb1 3.044494 1_555
Co12 Yb0 3.187178 1_555
Co13 P5 2.237931 1_555
Co13 P5 2.237931 1_455
Co13 P7 2.260497 1_555
Co13 P3 2.384543 1_565
Co13 Yb4 2.999966 1_555
Co13 Yb1 3.044494 1_465
Co13 Yb1 3.044494 1_565
Co13 Yb0 3.187178 1_555
Co14 P8 2.253996 1_555
Co14 P5 2.275894 1_555
Co14 P3 2.324571 1_565
Co14 P3 2.324571 1_665
Co14 Yb4 2.988418 1_555
Co14 Yb4 2.988418 1_655
Co14 Yb1 3.116795 1_565
Co15 P9 2.253996 1_555
Co15 P4 2.275894 1_555
Co15 P3 2.324571 1_655
Co15 P3 2.324571 1_555
Co15 Yb5 2.988418 1_655
Co15 Yb5 2.988418 1_555
Co15 Yb1 3.116795 1_555
Co16 P10 2.253996 1_555
Co16 P7 2.275894 1_555
Co16 P2 2.324571 1_555
Co16 P2 2.324571 1_455
Co16 Yb2 2.988418 1_455
Co16 Yb2 2.988418 1_555
Co16 Yb0 3.116795 1_555
Co17 P11 2.253996 1_555
Co17 P6 2.275894 1_555
Co17 P2 2.324571 1_555
Co17 P2 2.324571 1_455
Co17 Yb3 2.988418 1_455
Co17 Yb3 2.988418 1_555
Co17 Yb0 3.116795 1_555
P0 Yb4 2.855808 1_655
P0 Yb4 2.855808 1_555
P0 Yb5 2.855808 1_555
P0 Yb5 2.855808 1_655
P1 Yb2 2.855808 1_545
P1 Yb2 2.855808 1_445
P1 Yb3 2.855808 1_555
P1 Yb3 2.855808 1_455
P2 Yb0 2.894924 1_655
P2 Yb0 2.894924 1_555
P3 Yb1 2.894924 1_455
P3 Yb1 2.894924 1_555
P4 Yb5 2.837782 1_555
P4 Yb5 2.837782 1_655
P4 Yb0 2.960207 1_555
P4 Yb0 2.960207 1_655
P5 Yb4 2.837782 1_555
P5 Yb4 2.837782 1_655
P5 Yb0 2.960207 1_555
P5 Yb0 2.960207 1_655
P6 Yb3 2.837782 1_555
P6 Yb3 2.837782 1_455
P6 Yb1 2.960207 1_455
P6 Yb1 2.960207 1_555
P7 Yb2 2.837782 1_455
P7 Yb2 2.837782 1_555
P7 Yb1 2.960207 1_465
P7 Yb1 2.960207 1_565
P8 Yb4 2.817562 1_555
P8 Yb4 2.817562 1_655
P9 Yb5 2.817562 1_555
P9 Yb5 2.817562 1_655
P10 Yb2 2.817562 1_455
P10 Yb2 2.817562 1_555
P11 Yb3 2.817562 1_455
P11 Yb3 2.817562 1_555
