# generated using pymatgen
data_SrEuTiInO6
_symmetry_space_group_name_H-M   'P 1'
_cell_length_a   5.75199496
_cell_length_b   5.75199496
_cell_length_c   5.75199496
_cell_angle_alpha   60.00000000
_cell_angle_beta   60.00000000
_cell_angle_gamma   60.00000000
_symmetry_Int_Tables_number   1
_chemical_formula_structural   SrEuTiInO6
_chemical_formula_sum   'Sr1 Eu1 Ti1 In1 O6'
_cell_volume   134.56759545
_cell_formula_units_Z   1
loop_
 _symmetry_equiv_pos_site_id
 _symmetry_equiv_pos_as_xyz
  1  'x, y, z'
loop_
 _atom_site_type_symbol
 _atom_site_label
 _atom_site_symmetry_multiplicity
 _atom_site_fract_x
 _atom_site_fract_y
 _atom_site_fract_z
 _atom_site_occupancy
  Sr  Sr0  1  0.75000000  0.75000000  0.75000000  1
  Eu  Eu0  1  0.25000000  0.25000000  0.25000000  1
  Ti  Ti0  1  0.50000000  0.50000000  0.50000000  1
  In  In0  1  -0.00000000  0.00000000  0.00000000  1
  O  O0  1  0.73958846  0.26041154  0.26041154  1
  O  O1  1  0.26041154  0.73958846  0.73958846  1
  O  O2  1  0.73958846  0.26041154  0.73958846  1
  O  O3  1  0.26041154  0.73958846  0.26041154  1
  O  O4  1  0.73958846  0.73958846  0.26041154  1
  O  O5  1  0.26041154  0.26041154  0.73958846  1
loop_
_geom_bond_atom_site_label_1
_geom_bond_atom_site_label_2
_geom_bond_distance
_geom_bond_site_symmetry_2
Eu0 O1 2.877244 1_554
Eu0 O3 2.877244 1_545
Eu0 O2 2.877244 1_455
Eu0 O2 2.877244 1_554
Eu0 O0 2.877244 1_455
Eu0 O3 2.877244 1_555
Eu0 O1 2.877244 1_545
Eu0 O0 2.877244 1_555
Eu0 O5 2.877244 1_555
Eu0 O4 2.877244 1_455
Eu0 O5 2.877244 1_554
Eu0 O4 2.877244 1_545
In0 O4 2.118331 1_445
In0 O3 2.118331 1_545
In0 O5 2.118331 1_554
In0 O2 2.118331 1_454
In0 O1 2.118331 1_544
In0 O0 2.118331 1_455
O0 Ti0 1.948944 1_555
O0 Sr0 2.877244 1_554
O0 Sr0 2.877244 1_545
O1 Ti0 1.948944 1_555
O1 Sr0 2.877244 1_455
O1 Sr0 2.877244 1_555
O2 Ti0 1.948944 1_555
O2 Sr0 2.877244 1_545
O2 Sr0 2.877244 1_555
O3 Ti0 1.948944 1_555
O3 Sr0 2.877244 1_554
O3 Sr0 2.877244 1_455
O4 Ti0 1.948944 1_555
O4 Sr0 2.877244 1_555
O4 Sr0 2.877244 1_554
O5 Ti0 1.948944 1_555
O5 Sr0 2.877244 1_545
O5 Sr0 2.877244 1_455
