# generated using pymatgen
data_Mn2RuN3
_symmetry_space_group_name_H-M   'P 1'
_cell_length_a   6.23366420
_cell_length_b   11.09102144
_cell_length_c   7.72439188
_cell_angle_alpha   89.99999682
_cell_angle_beta   89.38749786
_cell_angle_gamma   152.82390384
_symmetry_Int_Tables_number   1
_chemical_formula_structural   Mn2RuN3
_chemical_formula_sum   'Mn8 Ru4 N12'
_cell_volume   243.84663790
_cell_formula_units_Z   4
loop_
 _symmetry_equiv_pos_site_id
 _symmetry_equiv_pos_as_xyz
  1  'x, y, z'
loop_
 _atom_site_type_symbol
 _atom_site_label
 _atom_site_symmetry_multiplicity
 _atom_site_fract_x
 _atom_site_fract_y
 _atom_site_fract_z
 _atom_site_occupancy
  Mn  Mn0  1  0.71168500  0.15510500  0.86894000  1
  Mn  Mn1  1  0.28831500  0.44342000  0.63106000  1
  Mn  Mn2  1  0.28831500  0.84489500  0.13106000  1
  Mn  Mn3  1  0.71168500  0.55658000  0.36894000  1
  Mn  Mn4  1  0.61062000  0.96055700  0.61662100  1
  Mn  Mn5  1  0.38938000  0.34993800  0.88337900  1
  Mn  Mn6  1  0.38938000  0.03944300  0.38337900  1
  Mn  Mn7  1  0.61062000  0.65006200  0.11662100  1
  Ru  Ru0  1  0.61297700  0.31848600  0.63531000  1
  Ru  Ru1  1  0.38702300  0.70551000  0.86469000  1
  Ru  Ru2  1  0.38702300  0.68151400  0.36469000  1
  Ru  Ru3  1  0.61297700  0.29449000  0.13531000  1
  N  N0  1  0.00000000  0.63558300  0.75000000  1
  N  N1  1  0.00000000  0.36441700  0.25000000  1
  N  N2  1  0.64415200  0.15368000  0.62856200  1
  N  N3  1  0.35584800  0.50952800  0.87143800  1
  N  N4  1  0.35584800  0.84632000  0.37143800  1
  N  N5  1  0.64415200  0.49047200  0.12856200  1
  N  N6  1  0.24438400  0.97344500  0.00749000  1
  N  N7  1  0.75561600  0.72906200  0.49251000  1
  N  N8  1  0.75561600  0.02655500  0.99251000  1
  N  N9  1  0.24438400  0.27093800  0.50749000  1
  N  N10  1  0.00000000  0.04905900  0.75000000  1
  N  N11  1  0.00000000  0.95094100  0.25000000  1
loop_
_geom_bond_atom_site_label_1
_geom_bond_atom_site_label_2
_geom_bond_distance
_geom_bond_site_symmetry_2
Mn0 N6 1.783616 1_546
Mn0 N3 1.869276 1_655
Mn0 N2 1.905244 1_555
Mn0 N8 1.928499 1_555
Mn1 N7 1.783620 1_555
Mn1 N2 1.869277 1_455
Mn1 N3 1.905244 1_555
Mn1 N9 1.928508 1_555
Mn2 N8 1.783616 1_564
Mn2 N5 1.869276 1_455
Mn2 N4 1.905244 1_555
Mn2 N6 1.928499 1_555
Mn3 N9 1.783620 1_555
Mn3 N4 1.869277 1_655
Mn3 N5 1.905244 1_555
Mn3 N7 1.928508 1_555
Mn4 N10 1.931572 1_665
Mn4 N2 1.960584 1_565
Mn4 N9 1.974937 1_665
Mn4 N0 2.011842 1_555
Mn4 N4 2.049033 1_555
Mn5 N10 1.931578 1_555
Mn5 N3 1.960573 1_555
Mn5 N8 1.974937 1_455
Mn5 N0 2.011844 1_655
Mn5 N5 2.049032 1_556
Mn6 N11 1.931572 1_545
Mn6 N4 1.960584 1_545
Mn6 N7 1.974937 1_445
Mn6 N1 2.011842 1_655
Mn6 N2 2.049033 1_555
Mn7 N11 1.931578 1_655
Mn7 N5 1.960573 1_555
Mn7 N6 1.974937 1_655
Mn7 N1 2.011844 1_555
Mn7 N3 2.049032 1_554
N0 Ru1 1.980769 1_555
N0 Ru0 1.980776 1_455
N1 Ru3 1.980769 1_455
N1 Ru2 1.980776 1_555
N2 Ru0 2.003340 1_555
N3 Ru1 2.003351 1_555
N4 Ru2 2.003340 1_555
N5 Ru3 2.003351 1_555
N6 Ru3 2.103548 1_565
N7 Ru2 2.103549 1_555
N8 Ru1 2.103548 1_545
N9 Ru0 2.103549 1_555
N10 Ru1 1.981697 1_445
N10 Ru0 1.981699 1_555
N11 Ru3 1.981697 1_565
N11 Ru2 1.981699 1_455
