# generated using pymatgen
data_YVO3
_symmetry_space_group_name_H-M   'P 1'
_cell_length_a   3.51266961
_cell_length_b   3.51266961
_cell_length_c   12.41986900
_cell_angle_alpha   90.00000000
_cell_angle_beta   90.00000000
_cell_angle_gamma   119.99999258
_symmetry_Int_Tables_number   1
_chemical_formula_structural   YVO3
_chemical_formula_sum   'Y2 V2 O6'
_cell_volume   132.71569481
_cell_formula_units_Z   2
loop_
 _symmetry_equiv_pos_site_id
 _symmetry_equiv_pos_as_xyz
  1  'x, y, z'
loop_
 _atom_site_type_symbol
 _atom_site_label
 _atom_site_symmetry_multiplicity
 _atom_site_fract_x
 _atom_site_fract_y
 _atom_site_fract_z
 _atom_site_occupancy
  Y  Y0  1  0.00000000  0.00000000  0.50000000  1
  Y  Y1  1  0.00000000  0.00000000  0.00000000  1
  V  V0  1  0.66666700  0.33333300  0.75000000  1
  V  V1  1  0.33333300  0.66666700  0.25000000  1
  O  O0  1  0.33333300  0.66666700  0.41376100  1
  O  O1  1  0.66666700  0.33333300  0.91376100  1
  O  O2  1  0.66666700  0.33333300  0.58623900  1
  O  O3  1  0.33333300  0.66666700  0.08623900  1
  O  O4  1  0.00000000  0.00000000  0.25000000  1
  O  O5  1  0.00000000  0.00000000  0.75000000  1
loop_
_geom_bond_atom_site_label_1
_geom_bond_atom_site_label_2
_geom_bond_distance
_geom_bond_site_symmetry_2
O0 V1 2.033890 1_555
O0 Y0 2.293501 1_565
O0 Y0 2.293504 1_555
O0 Y0 2.293504 1_665
O1 V0 2.033890 1_555
O1 Y1 2.293501 1_656
O1 Y1 2.293504 1_666
O1 Y1 2.293504 1_556
O2 V0 2.033890 1_555
O2 Y0 2.293501 1_655
O2 Y0 2.293504 1_665
O2 Y0 2.293504 1_555
O3 V1 2.033890 1_555
O3 Y1 2.293501 1_565
O3 Y1 2.293504 1_665
O3 Y1 2.293504 1_555
O4 V1 2.028039 1_545
O4 V1 2.028042 1_555
O4 V1 2.028042 1_445
O5 V0 2.028039 1_455
O5 V0 2.028042 1_555
O5 V0 2.028042 1_445
