# generated using pymatgen
data_InAgS2
_symmetry_space_group_name_H-M   'P 1'
_cell_length_a   7.27049481
_cell_length_b   7.27049481
_cell_length_c   7.27049497
_cell_angle_alpha   30.96962572
_cell_angle_beta   30.96962572
_cell_angle_gamma   30.96962424
_symmetry_Int_Tables_number   1
_chemical_formula_structural   InAgS2
_chemical_formula_sum   'In1 Ag1 S2'
_cell_volume   90.27433126
_cell_formula_units_Z   1
loop_
 _symmetry_equiv_pos_site_id
 _symmetry_equiv_pos_as_xyz
  1  'x, y, z'
loop_
 _atom_site_type_symbol
 _atom_site_label
 _atom_site_symmetry_multiplicity
 _atom_site_fract_x
 _atom_site_fract_y
 _atom_site_fract_z
 _atom_site_occupancy
  In  In0  1  0.99911900  0.99911900  0.99911900  1
  Ag  Ag0  1  0.15017300  0.15017300  0.15017300  1
  S  S0  1  0.26807300  0.26807300  0.26807300  1
  S  S1  1  0.74163500  0.74163500  0.74163500  1
loop_
_geom_bond_atom_site_label_1
_geom_bond_atom_site_label_2
_geom_bond_distance
_geom_bond_site_symmetry_2
In0 S0 2.609256 1_656
In0 S0 2.609256 1_566
In0 S0 2.609256 1_665
In0 S1 2.738738 1_655
In0 S1 2.738738 1_565
In0 S1 2.738738 1_556
Ag0 S0 2.446323 1_555
Ag0 S1 2.731073 1_544
Ag0 S1 2.731073 1_454
Ag0 S1 2.731074 1_445
