# generated using pymatgen
data_Li9Mn7O16
_symmetry_space_group_name_H-M   'P 1'
_cell_length_a   11.47637200
_cell_length_b   5.27710000
_cell_length_c   5.33776258
_cell_angle_alpha   66.48224092
_cell_angle_beta   90.00000000
_cell_angle_gamma   90.00000000
_symmetry_Int_Tables_number   1
_chemical_formula_structural   Li9Mn7O16
_chemical_formula_sum   'Li9 Mn7 O16'
_cell_volume   296.41380397
_cell_formula_units_Z   1
loop_
 _symmetry_equiv_pos_site_id
 _symmetry_equiv_pos_as_xyz
  1  'x, y, z'
loop_
 _atom_site_type_symbol
 _atom_site_label
 _atom_site_symmetry_multiplicity
 _atom_site_fract_x
 _atom_site_fract_y
 _atom_site_fract_z
 _atom_site_occupancy
  Li  Li0  1  0.24820300  0.50000000  0.00000000  1
  Li  Li1  1  0.37594900  0.50000000  0.50000000  1
  Li  Li2  1  0.50000000  0.50000000  0.00000000  1
  Li  Li3  1  0.62405100  0.50000000  0.50000000  1
  Li  Li4  1  0.75179700  0.50000000  0.00000000  1
  Li  Li5  1  0.87871400  0.50000000  0.50000000  1
  Li  Li6  1  0.00000000  0.50000000  0.00000000  1
  Li  Li7  1  0.12128600  0.50000000  0.50000000  1
  Li  Li8  1  0.00000000  0.00000000  0.50000000  1
  Mn  Mn0  1  0.12339400  0.00000000  0.00000000  1
  Mn  Mn1  1  0.87660600  0.00000000  0.00000000  1
  Mn  Mn2  1  0.24695300  0.00000000  0.50000000  1
  Mn  Mn3  1  0.37378800  0.00000000  0.00000000  1
  Mn  Mn4  1  0.50000000  0.00000000  0.50000000  1
  Mn  Mn5  1  0.62621200  0.00000000  0.00000000  1
  Mn  Mn6  1  0.75304700  0.00000000  0.50000000  1
  O  O0  1  0.24725200  0.23533500  0.77437000  1
  O  O1  1  0.37480200  0.23281700  0.27584700  1
  O  O2  1  0.50000000  0.23457800  0.77865400  1
  O  O3  1  0.62519800  0.23281700  0.27584700  1
  O  O4  1  0.75274800  0.23533500  0.77437000  1
  O  O5  1  0.87023000  0.20833900  0.23537300  1
  O  O6  1  0.00000000  0.23636800  0.78030700  1
  O  O7  1  0.12977000  0.20833900  0.23537300  1
  O  O8  1  0.24725200  0.76466500  0.22563000  1
  O  O9  1  0.37480200  0.76718300  0.72415300  1
  O  O10  1  0.50000000  0.76542200  0.22134600  1
  O  O11  1  0.62519800  0.76718300  0.72415300  1
  O  O12  1  0.75274800  0.76466500  0.22563000  1
  O  O13  1  0.87023000  0.79166100  0.76462700  1
  O  O14  1  0.00000000  0.76363200  0.21969300  1
  O  O15  1  0.12977000  0.79166100  0.76462700  1
loop_
_geom_bond_atom_site_label_1
_geom_bond_atom_site_label_2
_geom_bond_distance
_geom_bond_site_symmetry_2
Li0 O15 2.061918 1_554
Li0 O7 2.061918 1_555
Li0 O1 2.147103 1_555
Li0 O9 2.147103 1_554
Li0 O8 2.178000 1_555
Li0 O0 2.178000 1_554
Li1 O10 2.130336 1_555
Li1 O2 2.130336 1_555
Li1 O8 2.155121 1_555
Li1 O0 2.155121 1_555
Li1 O9 2.183118 1_555
Li1 O1 2.183118 1_555
Li2 O3 2.136255 1_555
Li2 O11 2.136255 1_554
Li2 O1 2.136255 1_555
Li2 O9 2.136255 1_554
Li2 O10 2.162975 1_555
Li2 O2 2.162975 1_554
Li3 O10 2.130336 1_555
Li3 O2 2.130336 1_555
Li3 O12 2.155121 1_555
Li3 O4 2.155121 1_555
Li3 O11 2.183118 1_555
Li3 O3 2.183118 1_555
Li4 O13 2.061918 1_554
Li4 O5 2.061918 1_555
Li4 O3 2.147103 1_555
Li4 O11 2.147103 1_554
Li4 O12 2.178000 1_555
Li4 O4 2.178000 1_554
Li5 O6 2.109587 1_655
Li5 O14 2.109587 1_655
Li5 O12 2.133764 1_555
Li5 O4 2.133764 1_555
Li5 O13 2.471561 1_555
Li5 O5 2.471561 1_555
Li6 O14 2.147700 1_555
Li6 O6 2.147700 1_554
Li6 O5 2.149910 1_455
Li6 O13 2.149910 1_454
Li6 O7 2.149910 1_555
Li6 O15 2.149910 1_554
Li7 O14 2.109587 1_555
Li7 O6 2.109587 1_555
Li7 O8 2.133764 1_555
Li7 O0 2.133764 1_555
Li7 O15 2.471561 1_555
Li7 O7 2.471561 1_555
Li8 O13 2.045130 1_445
Li8 O5 2.045130 1_455
Li8 O7 2.045130 1_555
Li8 O15 2.045130 1_545
Li8 O14 2.298678 1_545
Li8 O6 2.298678 1_555
Mn0 O14 1.941402 1_545
Mn0 O6 1.941402 1_554
Mn0 O0 1.954381 1_554
Mn0 O8 1.954381 1_545
Mn0 O7 1.973550 1_555
Mn0 O15 1.973550 1_544
Mn1 O14 1.941402 1_645
Mn1 O6 1.941402 1_654
Mn1 O4 1.954381 1_554
Mn1 O12 1.954381 1_545
Mn1 O5 1.973550 1_555
Mn1 O13 1.973550 1_544
Mn2 O15 1.942462 1_545
Mn2 O7 1.942462 1_555
Mn2 O9 1.980066 1_545
Mn2 O1 1.980066 1_555
Mn2 O0 2.266852 1_555
Mn2 O8 2.266852 1_545
Mn3 O2 1.964460 1_554
Mn3 O10 1.964460 1_545
Mn3 O0 1.976847 1_554
Mn3 O8 1.976847 1_545
Mn3 O1 2.263022 1_555
Mn3 O9 2.263022 1_544
Mn4 O11 1.957628 1_545
Mn4 O3 1.957628 1_555
Mn4 O9 1.957628 1_545
Mn4 O1 1.957628 1_555
Mn4 O2 2.283445 1_555
Mn4 O10 2.283445 1_545
Mn5 O2 1.964460 1_554
Mn5 O10 1.964460 1_545
Mn5 O4 1.976847 1_554
Mn5 O12 1.976847 1_545
Mn5 O3 2.263022 1_555
Mn5 O11 2.263022 1_544
Mn6 O13 1.942462 1_545
Mn6 O5 1.942462 1_555
Mn6 O11 1.980066 1_545
Mn6 O3 1.980066 1_555
Mn6 O4 2.266852 1_555
Mn6 O12 2.266852 1_545
