# generated using pymatgen
data_LiTi8O16
_symmetry_space_group_name_H-M   'P 1'
_cell_length_a   5.19027407
_cell_length_b   5.56584228
_cell_length_c   9.30009547
_cell_angle_alpha   90.75648861
_cell_angle_beta   90.65293002
_cell_angle_gamma   89.29977364
_symmetry_Int_Tables_number   1
_chemical_formula_structural   LiTi8O16
_chemical_formula_sum   'Li1 Ti8 O16'
_cell_volume   268.60301814
_cell_formula_units_Z   1
loop_
 _symmetry_equiv_pos_site_id
 _symmetry_equiv_pos_as_xyz
  1  'x, y, z'
loop_
 _atom_site_type_symbol
 _atom_site_label
 _atom_site_symmetry_multiplicity
 _atom_site_fract_x
 _atom_site_fract_y
 _atom_site_fract_z
 _atom_site_occupancy
  Li  Li0  1  0.55876200  0.62322900  0.59988000  1
  Ti  Ti0  1  0.12159600  0.39112400  0.62841300  1
  Ti  Ti1  1  0.64586400  0.60430700  0.88705900  1
  Ti  Ti2  1  0.37410200  0.90784700  0.36819600  1
  Ti  Ti3  1  0.87192900  0.10355300  0.12942800  1
  Ti  Ti4  1  0.88276500  0.60894000  0.36479900  1
  Ti  Ti5  1  0.37041700  0.39579100  0.12968600  1
  Ti  Ti6  1  0.63358000  0.11115300  0.63500600  1
  Ti  Ti7  1  0.14335900  0.89363600  0.87045000  1
  O  O0  1  0.45699500  0.38818700  0.73412200  1
  O  O1  1  0.95485800  0.61224000  0.76821600  1
  O  O2  1  0.04724100  0.88502000  0.26975600  1
  O  O3  1  0.54561300  0.10835600  0.23192600  1
  O  O4  1  0.55214600  0.60885400  0.26890100  1
  O  O5  1  0.04839700  0.38394500  0.23431600  1
  O  O6  1  0.95971100  0.10966900  0.73151500  1
  O  O7  1  0.46481800  0.87801500  0.76250700  1
  O  O8  1  0.82156800  0.84856500  0.99301500  1
  O  O9  1  0.30994600  0.14580000  0.51025500  1
  O  O10  1  0.68964900  0.34412300  0.01294600  1
  O  O11  1  0.20548700  0.64020800  0.49393600  1
  O  O12  1  0.18870200  0.14436100  0.01014200  1
  O  O13  1  0.69511200  0.86355500  0.48833500  1
  O  O14  1  0.31795100  0.64614000  0.99098100  1
  O  O15  1  0.80193300  0.37243000  0.51478500  1
loop_
_geom_bond_atom_site_label_1
_geom_bond_atom_site_label_2
_geom_bond_distance
_geom_bond_site_symmetry_2
Li0 O13 1.855455 1_555
Li0 O0 1.903708 1_555
Li0 O15 2.029371 1_555
Li0 O11 2.073365 1_555
Li0 O7 2.116488 1_555
O0 Ti0 1.989451 1_555
O0 Ti6 2.003605 1_555
O0 Ti1 2.093509 1_555
O1 Ti1 1.959338 1_555
O1 Ti0 1.977724 1_655
O1 Ti7 2.071506 1_655
O2 Ti2 1.923328 1_555
O2 Ti4 1.989064 1_455
O2 Ti3 1.999594 1_465
O3 Ti2 1.931669 1_545
O3 Ti3 1.952669 1_555
O3 Ti5 2.067674 1_555
O4 Ti4 1.924892 1_555
O4 Ti5 1.982729 1_555
O4 Ti2 2.101759 1_555
O5 Ti4 1.933182 1_455
O5 Ti5 1.945803 1_555
O5 Ti3 2.049475 1_455
O6 Ti6 1.906868 1_555
O6 Ti7 2.002205 1_645
O6 Ti0 2.041964 1_655
O7 Ti7 1.957401 1_555
O7 Ti6 1.987250 1_565
O7 Ti1 2.128933 1_555
O8 Ti1 1.904039 1_555
O8 Ti3 1.909441 1_566
O8 Ti7 2.052539 1_655
O9 Ti2 1.887711 1_545
O9 Ti0 1.994960 1_555
O9 Ti6 2.039209 1_555
O10 Ti1 1.884173 1_554
O10 Ti3 1.960977 1_555
O10 Ti5 2.006953 1_555
O11 Ti0 1.936146 1_555
O11 Ti4 2.057691 1_455
O11 Ti2 2.110352 1_555
O12 Ti7 1.908866 1_544
O12 Ti3 2.010680 1_455
O12 Ti5 2.012765 1_555
O13 Ti6 1.952258 1_565
O13 Ti2 2.009960 1_555
O13 Ti4 2.055641 1_555
O14 Ti5 1.926118 1_556
O14 Ti1 1.976570 1_555
O14 Ti7 1.990572 1_555
O15 Ti0 1.960012 1_655
O15 Ti4 1.982394 1_555
O15 Ti6 2.055390 1_555
