# generated using pymatgen
data_CoAg(N3O4)2
_symmetry_space_group_name_H-M   'P 1'
_cell_length_a   7.94869500
_cell_length_b   7.94869500
_cell_length_c   7.36717200
_cell_angle_alpha   90.00000000
_cell_angle_beta   90.00000000
_cell_angle_gamma   90.00000000
_symmetry_Int_Tables_number   1
_chemical_formula_structural   CoAg(N3O4)2
_chemical_formula_sum   'Co2 Ag2 N12 O16'
_cell_volume   465.47083574
_cell_formula_units_Z   2
loop_
 _symmetry_equiv_pos_site_id
 _symmetry_equiv_pos_as_xyz
  1  'x, y, z'
loop_
 _atom_site_type_symbol
 _atom_site_label
 _atom_site_symmetry_multiplicity
 _atom_site_fract_x
 _atom_site_fract_y
 _atom_site_fract_z
 _atom_site_occupancy
  Co  Co0  1  0.00000000  0.00000000  0.50000000  1
  Co  Co1  1  0.50000000  0.50000000  0.00000000  1
  Ag  Ag0  1  0.50000000  0.50000000  0.50000000  1
  Ag  Ag1  1  0.00000000  0.00000000  0.00000000  1
  N  N0  1  0.72223800  0.72223800  0.50000000  1
  N  N1  1  0.27776200  0.27776200  0.50000000  1
  N  N2  1  0.22223800  0.22223800  0.00000000  1
  N  N3  1  0.77776200  0.77776200  0.00000000  1
  N  N4  1  0.27776200  0.72223800  0.50000000  1
  N  N5  1  0.72223800  0.27776200  0.50000000  1
  N  N6  1  0.77776200  0.22223800  0.00000000  1
  N  N7  1  0.22223800  0.77776200  0.00000000  1
  N  N8  1  0.50000000  0.50000000  0.77347900  1
  N  N9  1  0.00000000  0.00000000  0.72652100  1
  N  N10  1  0.50000000  0.50000000  0.22652100  1
  N  N11  1  0.00000000  0.00000000  0.27347900  1
  O  O0  1  0.84768500  0.69576500  0.59227600  1
  O  O1  1  0.15231500  0.30423500  0.59227600  1
  O  O2  1  0.34768500  0.19576500  0.90772400  1
  O  O3  1  0.65231500  0.80423500  0.90772400  1
  O  O4  1  0.15231500  0.69576500  0.40772400  1
  O  O5  1  0.84768500  0.30423500  0.40772400  1
  O  O6  1  0.65231500  0.19576500  0.09227600  1
  O  O7  1  0.34768500  0.80423500  0.09227600  1
  O  O8  1  0.30423500  0.84768500  0.59227600  1
  O  O9  1  0.69576500  0.15231500  0.59227600  1
  O  O10  1  0.80423500  0.34768500  0.90772400  1
  O  O11  1  0.19576500  0.65231500  0.90772400  1
  O  O12  1  0.30423500  0.15231500  0.40772400  1
  O  O13  1  0.69576500  0.84768500  0.40772400  1
  O  O14  1  0.80423500  0.65231500  0.09227600  1
  O  O15  1  0.19576500  0.34768500  0.09227600  1
loop_
_geom_bond_atom_site_label_1
_geom_bond_atom_site_label_2
_geom_bond_distance
_geom_bond_site_symmetry_2
Co0 N9 1.668819 1_555
Co0 N11 1.668819 1_555
Co1 N8 1.668819 1_554
Co1 N10 1.668819 1_555
Ag0 N8 2.014767 1_555
Ag0 N10 2.014767 1_555
Ag0 N1 2.498211 1_555
Ag0 N5 2.498211 1_555
Ag0 N0 2.498211 1_555
Ag0 N4 2.498211 1_555
Ag1 N9 2.014767 1_554
Ag1 N11 2.014767 1_555
Ag1 N6 2.498211 1_455
Ag1 N2 2.498211 1_555
Ag1 N3 2.498211 1_445
Ag1 N7 2.498211 1_545
N0 O13 1.225036 1_555
N0 O0 1.225036 1_555
N1 O12 1.225036 1_555
N1 O1 1.225036 1_555
N2 O15 1.225036 1_555
N2 O2 1.225036 1_554
N3 O14 1.225036 1_555
N3 O3 1.225036 1_554
N4 O8 1.225036 1_555
N4 O4 1.225036 1_555
N5 O5 1.225036 1_555
N5 O9 1.225036 1_555
N6 O6 1.225036 1_555
N6 O10 1.225036 1_554
N7 O11 1.225036 1_554
N7 O7 1.225036 1_555
