# generated using pymatgen
data_SrBi3Cl3O4
_symmetry_space_group_name_H-M   'P 1'
_cell_length_a   14.11529794
_cell_length_b   14.11529794
_cell_length_c   14.11529794
_cell_angle_alpha   163.80130273
_cell_angle_beta   163.80130273
_cell_angle_gamma   22.98603550
_symmetry_Int_Tables_number   1
_chemical_formula_structural   SrBi3Cl3O4
_chemical_formula_sum   'Sr1 Bi3 Cl3 O4'
_cell_volume   218.82342246
_cell_formula_units_Z   1
loop_
 _symmetry_equiv_pos_site_id
 _symmetry_equiv_pos_as_xyz
  1  'x, y, z'
loop_
 _atom_site_type_symbol
 _atom_site_label
 _atom_site_symmetry_multiplicity
 _atom_site_fract_x
 _atom_site_fract_y
 _atom_site_fract_z
 _atom_site_occupancy
  Sr  Sr0  1  0.66627500  0.66627500  0.00000000  1
  Bi  Bi0  1  0.92930300  0.92930300  0.00000000  1
  Bi  Bi1  1  0.07539800  0.07539800  0.00000000  1
  Bi  Bi2  1  0.33822400  0.33822400  0.00000000  1
  Cl  Cl0  1  0.48445700  0.48445700  0.00000000  1
  Cl  Cl1  1  0.79501000  0.79501000  0.00000000  1
  Cl  Cl2  1  0.21697900  0.21697900  0.00000000  1
  O  O0  1  0.88591700  0.38591700  0.50000000  1
  O  O1  1  0.38591700  0.88591700  0.50000000  1
  O  O2  1  0.11126100  0.61126100  0.50000000  1
  O  O3  1  0.61126100  0.11126100  0.50000000  1
loop_
_geom_bond_atom_site_label_1
_geom_bond_atom_site_label_2
_geom_bond_distance
_geom_bond_site_symmetry_2
Bi0 O1 2.322833 1_554
Bi0 O0 2.322833 1_554
Bi0 O1 2.322833 1_655
Bi0 O0 2.322833 1_565
Bi0 Cl0 3.199685 1_565
Bi0 Cl0 3.199685 1_655
Bi0 Cl0 3.199685 1_666
Bi0 Cl0 3.199685 1_554
Bi1 O2 2.222447 1_555
Bi1 O3 2.222447 1_555
Bi1 O2 2.222447 1_544
Bi1 O3 2.222447 1_454
Bi2 O0 2.386582 1_555
Bi2 O0 2.386582 1_454
Bi2 O1 2.386582 1_555
Bi2 O1 2.386582 1_544
Bi2 Cl1 3.055994 1_556
Bi2 Cl1 3.055994 1_444
Bi2 Cl1 3.055994 1_545
Bi2 Cl1 3.055994 1_455
Cl1 Sr0 3.561395 1_555
Cl2 Sr0 3.142843 1_455
Cl2 Sr0 3.142843 1_545
Cl2 Sr0 3.142843 1_556
Cl2 Sr0 3.142843 1_444
O2 Sr0 2.504244 1_556
O2 Sr0 2.504244 1_455
O3 Sr0 2.504244 1_556
O3 Sr0 2.504244 1_545
