# generated using pymatgen
data_KNb4AsO13
_symmetry_space_group_name_H-M   'P 1'
_cell_length_a   7.48686803
_cell_length_b   7.48686803
_cell_length_c   10.19735700
_cell_angle_alpha   90.00000000
_cell_angle_beta   90.00000000
_cell_angle_gamma   90.92948923
_symmetry_Int_Tables_number   1
_chemical_formula_structural   KNb4AsO13
_chemical_formula_sum   'K2 Nb8 As2 O26'
_cell_volume   571.51920642
_cell_formula_units_Z   2
loop_
 _symmetry_equiv_pos_site_id
 _symmetry_equiv_pos_as_xyz
  1  'x, y, z'
loop_
 _atom_site_type_symbol
 _atom_site_label
 _atom_site_symmetry_multiplicity
 _atom_site_fract_x
 _atom_site_fract_y
 _atom_site_fract_z
 _atom_site_occupancy
  K  K0  1  0.44015400  0.44015400  0.44007700  1
  K  K1  1  0.55984600  0.55984600  0.94007700  1
  Nb  Nb0  1  0.55640600  0.89745000  0.25067400  1
  Nb  Nb1  1  0.10255000  0.44359400  0.75067400  1
  Nb  Nb2  1  0.44359400  0.10255000  0.75067400  1
  Nb  Nb3  1  0.89745000  0.55640600  0.25067400  1
  Nb  Nb4  1  0.17370200  0.82761300  0.50063200  1
  Nb  Nb5  1  0.17238700  0.82629800  0.00063200  1
  Nb  Nb6  1  0.82761300  0.17370200  0.50063200  1
  Nb  Nb7  1  0.82629800  0.17238700  0.00063200  1
  As  As0  1  0.16310900  0.16310900  0.24879800  1
  As  As1  1  0.83689100  0.83689100  0.74879800  1
  O  O0  1  0.65954900  0.65954900  0.24983800  1
  O  O1  1  0.34045100  0.34045100  0.74983800  1
  O  O2  1  0.38794900  0.13010000  0.25141000  1
  O  O3  1  0.86990000  0.61205100  0.75141000  1
  O  O4  1  0.61205100  0.86990000  0.75141000  1
  O  O5  1  0.13010000  0.38794900  0.25141000  1
  O  O6  1  0.79760300  0.36036000  0.38524300  1
  O  O7  1  0.63863300  0.20145000  0.61372300  1
  O  O8  1  0.79855000  0.36136700  0.11372300  1
  O  O9  1  0.63964000  0.20239700  0.88524300  1
  O  O10  1  0.20145000  0.63863300  0.61372300  1
  O  O11  1  0.36036000  0.79760300  0.38524300  1
  O  O12  1  0.20239700  0.63964000  0.88524300  1
  O  O13  1  0.36136700  0.79855000  0.11372300  1
  O  O14  1  0.06861800  0.06861800  0.38934000  1
  O  O15  1  0.93219900  0.93219900  0.60993300  1
  O  O16  1  0.06780100  0.06780100  0.10993300  1
  O  O17  1  0.93138200  0.93138200  0.88934000  1
  O  O18  1  0.69290400  0.99214800  0.38884600  1
  O  O19  1  0.00922800  0.30700600  0.61067800  1
  O  O20  1  0.69299400  0.99077200  0.11067800  1
  O  O21  1  0.00785200  0.30709600  0.88884600  1
  O  O22  1  0.30700600  0.00922800  0.61067800  1
  O  O23  1  0.99214800  0.69290400  0.38884600  1
  O  O24  1  0.30709600  0.00785200  0.88884600  1
  O  O25  1  0.99077200  0.69299400  0.11067800  1
loop_
_geom_bond_atom_site_label_1
_geom_bond_atom_site_label_2
_geom_bond_distance
_geom_bond_site_symmetry_2
K0 O11 2.807727 1_555
K0 O6 2.807727 1_555
K0 O10 2.936612 1_555
K0 O7 2.936612 1_555
K0 O0 3.011969 1_555
K0 O5 3.035346 1_555
K0 O2 3.035346 1_555
K0 O1 3.327762 1_555
K1 O12 2.807727 1_555
K1 O9 2.807727 1_555
K1 O8 2.936612 1_556
K1 O13 2.936612 1_556
K1 O1 3.011969 1_555
K1 O4 3.035346 1_555
K1 O3 3.035346 1_555
K1 O0 3.327762 1_556
Nb0 O18 1.873173 1_555
Nb0 O20 1.883810 1_555
Nb0 O0 1.952807 1_555
Nb0 O11 2.135564 1_555
Nb0 O13 2.143778 1_555
Nb0 O2 2.167009 1_565
Nb1 O21 1.873173 1_555
Nb1 O19 1.883810 1_555
Nb1 O1 1.952807 1_555
Nb1 O12 2.135564 1_555
Nb1 O10 2.143778 1_555
Nb1 O3 2.167009 1_455
Nb2 O24 1.873173 1_555
Nb2 O22 1.883810 1_555
Nb2 O1 1.952807 1_555
Nb2 O9 2.135564 1_555
Nb2 O7 2.143778 1_555
Nb2 O4 2.167009 1_545
Nb3 O23 1.873173 1_555
Nb3 O25 1.883810 1_555
Nb3 O0 1.952807 1_555
Nb3 O6 2.135564 1_555
Nb3 O8 2.143778 1_555
Nb3 O5 2.167009 1_655
Nb4 O10 1.839697 1_555
Nb4 O11 1.843411 1_555
Nb4 O22 2.014988 1_565
Nb4 O23 2.029712 1_455
Nb4 O15 2.273890 1_455
Nb4 O14 2.282270 1_565
Nb5 O13 1.839697 1_555
Nb5 O12 1.843411 1_554
Nb5 O25 2.014988 1_455
Nb5 O24 2.029712 1_564
Nb5 O16 2.273890 1_565
Nb5 O17 2.282270 1_454
Nb6 O7 1.839697 1_555
Nb6 O6 1.843411 1_555
Nb6 O19 2.014988 1_655
Nb6 O18 2.029712 1_545
Nb6 O15 2.273890 1_545
Nb6 O14 2.282270 1_655
Nb7 O8 1.839697 1_555
Nb7 O9 1.843411 1_554
Nb7 O20 2.014988 1_545
Nb7 O21 2.029712 1_654
Nb7 O16 2.273890 1_655
Nb7 O17 2.282270 1_544
As0 O5 1.705562 1_555
As0 O2 1.705562 1_555
As0 O16 1.734078 1_555
As0 O14 1.743172 1_555
As1 O4 1.705562 1_555
As1 O3 1.705562 1_555
As1 O15 1.734078 1_555
As1 O17 1.743172 1_555
