# generated using pymatgen
data_Li9Co7O16
_symmetry_space_group_name_H-M   'P 1'
_cell_length_a   3.00941100
_cell_length_b   6.37333197
_cell_length_c   15.45778974
_cell_angle_alpha   89.63620823
_cell_angle_beta   88.77779818
_cell_angle_gamma   76.70109324
_symmetry_Int_Tables_number   1
_chemical_formula_structural   Li9Co7O16
_chemical_formula_sum   'Li9 Co7 O16'
_cell_volume   288.46343948
_cell_formula_units_Z   1
loop_
 _symmetry_equiv_pos_site_id
 _symmetry_equiv_pos_as_xyz
  1  'x, y, z'
loop_
 _atom_site_type_symbol
 _atom_site_label
 _atom_site_symmetry_multiplicity
 _atom_site_fract_x
 _atom_site_fract_y
 _atom_site_fract_z
 _atom_site_occupancy
  Li  Li0  1  0.56248200  0.87698500  0.68724000  1
  Li  Li1  1  0.81288100  0.37469200  0.43752300  1
  Li  Li2  1  0.05874100  0.88013200  0.18652200  1
  Li  Li3  1  0.18711900  0.62530800  0.56247700  1
  Li  Li4  1  0.43751800  0.12301500  0.31276000  1
  Li  Li5  1  0.68130900  0.63090900  0.06136100  1
  Li  Li6  1  0.31869100  0.36909100  0.93863900  1
  Li  Li7  1  0.94125900  0.11986800  0.81347800  1
  Li  Li8  1  0.00000000  0.00000000  0.00000000  1
  Co  Co0  1  0.61902500  0.75754900  0.88049400  1
  Co  Co1  1  0.38097500  0.24245100  0.11950600  1
  Co  Co2  1  0.87281500  0.25350700  0.62523900  1
  Co  Co3  1  0.12718500  0.74649300  0.37476100  1
  Co  Co4  1  0.50000000  0.00000000  0.50000000  1
  Co  Co5  1  0.75239500  0.49801700  0.24839200  1
  Co  Co6  1  0.24760500  0.50198300  0.75160800  1
  O  O0  1  0.06602900  0.79557400  0.78492900  1
  O  O1  1  0.35326700  0.29974700  0.53362600  1
  O  O2  1  0.60933300  0.79595900  0.28297600  1
  O  O3  1  0.72199000  0.55075800  0.65889300  1
  O  O4  1  0.98114800  0.04655900  0.40850300  1
  O  O5  1  0.23601000  0.54096700  0.15738700  1
  O  O6  1  0.81875400  0.30831900  0.04007600  1
  O  O7  1  0.48112400  0.03301800  0.90147600  1
  O  O8  1  0.01885200  0.95344100  0.59149700  1
  O  O9  1  0.27801000  0.44924200  0.34110700  1
  O  O10  1  0.51887600  0.96698200  0.09852400  1
  O  O11  1  0.64673300  0.70025300  0.46637400  1
  O  O12  1  0.93397100  0.20442600  0.21507100  1
  O  O13  1  0.18124600  0.69168100  0.95992400  1
  O  O14  1  0.76399000  0.45903300  0.84261300  1
  O  O15  1  0.39066700  0.20404100  0.71702400  1
loop_
_geom_bond_atom_site_label_1
_geom_bond_atom_site_label_2
_geom_bond_distance
_geom_bond_site_symmetry_2
Li0 O3 2.070927 1_555
Li0 O15 2.080955 1_565
Li0 O8 2.127447 1_655
Li0 O0 2.138176 1_655
Li0 O8 2.198103 1_555
Li0 O0 2.243225 1_555
Li1 O11 2.068594 1_555
Li1 O4 2.084756 1_555
Li1 O1 2.134341 1_555
Li1 O9 2.148093 1_655
Li1 O9 2.186192 1_555
Li1 O1 2.194614 1_655
Li2 O12 2.062769 1_465
Li2 O10 2.082520 1_555
Li2 O10 2.113583 1_455
Li2 O2 2.139513 1_455
Li2 O5 2.152108 1_555
Li2 O2 2.223188 1_555
Li3 O1 2.068594 1_555
Li3 O8 2.084756 1_555
Li3 O11 2.134341 1_555
Li3 O3 2.148093 1_455
Li3 O3 2.186192 1_555
Li3 O11 2.194614 1_455
Li4 O9 2.070927 1_555
Li4 O2 2.080955 1_545
Li4 O4 2.127447 1_455
Li4 O12 2.138176 1_455
Li4 O4 2.198103 1_555
Li4 O12 2.243225 1_555
Li5 O6 2.029264 1_555
Li5 O5 2.141371 1_555
Li5 O10 2.163021 1_555
Li5 O13 2.167514 1_554
Li5 O5 2.230065 1_655
Li5 O13 2.243195 1_654
Li6 O13 2.029264 1_555
Li6 O14 2.141371 1_555
Li6 O7 2.163021 1_555
Li6 O6 2.167514 1_556
Li6 O14 2.230065 1_455
Li6 O6 2.243195 1_456
Li7 O0 2.062769 1_645
Li7 O7 2.082520 1_555
Li7 O7 2.113583 1_655
Li7 O15 2.139513 1_655
Li7 O14 2.152108 1_555
Li7 O15 2.223188 1_555
Li8 O13 2.012590 1_544
Li8 O6 2.012590 1_455
Li8 O10 2.121827 1_445
Li8 O7 2.121827 1_554
Li8 O10 2.179042 1_545
Li8 O7 2.179042 1_454
Co0 O7 1.739550 1_565
Co0 O13 1.896929 1_555
Co0 O14 1.942745 1_555
Co0 O0 2.027609 1_655
Co0 O13 2.074070 1_655
Co0 O0 2.219288 1_555
Co1 O10 1.739550 1_545
Co1 O6 1.896929 1_555
Co1 O5 1.942745 1_555
Co1 O12 2.027609 1_455
Co1 O6 2.074070 1_455
Co1 O12 2.219288 1_555
Co2 O3 1.916386 1_555
Co2 O8 1.933586 1_645
Co2 O1 2.070323 1_655
Co2 O15 2.081985 1_555
Co2 O15 2.098494 1_655
Co2 O1 2.100974 1_555
Co3 O9 1.916386 1_555
Co3 O4 1.933586 1_465
Co3 O11 2.070323 1_455
Co3 O2 2.081985 1_555
Co3 O2 2.098494 1_455
Co3 O11 2.100974 1_555
Co4 O1 1.931181 1_555
Co4 O11 1.931181 1_545
Co4 O8 2.071236 1_545
Co4 O4 2.071236 1_555
Co4 O8 2.098147 1_645
Co4 O4 2.098147 1_455
Co5 O12 1.896032 1_555
Co5 O2 1.924542 1_555
Co5 O5 2.064721 1_655
Co5 O9 2.073628 1_555
Co5 O5 2.088411 1_555
Co5 O9 2.125442 1_655
Co6 O0 1.896032 1_555
Co6 O15 1.924542 1_555
Co6 O14 2.064721 1_455
Co6 O3 2.073628 1_555
Co6 O14 2.088411 1_555
Co6 O3 2.125442 1_455
