# generated using pymatgen
data_Mn2Cu2AsP
_symmetry_space_group_name_H-M   'P 1'
_cell_length_a   3.60256700
_cell_length_b   6.13915900
_cell_length_c   7.38357400
_cell_angle_alpha   90.00000000
_cell_angle_beta   90.00000000
_cell_angle_gamma   90.00000000
_symmetry_Int_Tables_number   1
_chemical_formula_structural   Mn2Cu2AsP
_chemical_formula_sum   'Mn4 Cu4 As2 P2'
_cell_volume   163.30052456
_cell_formula_units_Z   2
loop_
 _symmetry_equiv_pos_site_id
 _symmetry_equiv_pos_as_xyz
  1  'x, y, z'
loop_
 _atom_site_type_symbol
 _atom_site_label
 _atom_site_symmetry_multiplicity
 _atom_site_fract_x
 _atom_site_fract_y
 _atom_site_fract_z
 _atom_site_occupancy
  Mn  Mn0  1  0.75000000  0.95966900  0.14420700  1
  Mn  Mn1  1  0.75000000  0.45966900  0.35579300  1
  Mn  Mn2  1  0.25000000  0.03048000  0.83190500  1
  Mn  Mn3  1  0.25000000  0.53048000  0.66809500  1
  Cu  Cu0  1  0.75000000  0.86669300  0.57341500  1
  Cu  Cu1  1  0.75000000  0.36669300  0.92658500  1
  Cu  Cu2  1  0.25000000  0.14134300  0.45436400  1
  Cu  Cu3  1  0.25000000  0.64134300  0.04563600  1
  As  As0  1  0.25000000  0.75331200  0.35970900  1
  As  As1  1  0.25000000  0.25331200  0.14029100  1
  P  P0  1  0.75000000  0.24850400  0.63563800  1
  P  P1  1  0.75000000  0.74850400  0.86436200  1
loop_
_geom_bond_atom_site_label_1
_geom_bond_atom_site_label_2
_geom_bond_distance
_geom_bond_site_symmetry_2
Mn0 P1 2.439263 1_554
Mn1 P0 2.439263 1_555
Mn2 P1 2.509730 1_445
Mn2 P1 2.509730 1_545
Mn2 P0 2.671367 1_455
Mn2 P0 2.671367 1_555
Mn3 P0 2.509730 1_555
Mn3 P0 2.509730 1_455
Mn3 P1 2.671367 1_455
Mn3 P1 2.671367 1_555
Cu0 P1 2.267456 1_555
Cu0 P0 2.388599 1_565
Cu0 Cu2 2.619218 1_665
Cu0 Cu2 2.619218 1_565
Cu1 P0 2.267456 1_555
Cu1 P1 2.388599 1_555
Cu1 Cu3 2.619218 1_656
Cu1 Cu3 2.619218 1_556
Cu2 P0 2.338563 1_455
Cu2 P0 2.338563 1_555
Cu2 Mn1 2.755618 1_555
Cu2 Mn1 2.755618 1_455
Cu2 Mn3 2.863144 1_555
Cu2 Mn2 2.869486 1_555
Cu2 Mn0 3.119773 1_545
Cu2 Mn0 3.119773 1_445
Cu3 P1 2.338563 1_554
Cu3 P1 2.338563 1_454
Cu3 Mn0 2.755618 1_455
Cu3 Mn0 2.755618 1_555
Cu3 Mn2 2.863144 1_564
Cu3 Mn3 2.869486 1_554
Cu3 Mn1 3.119773 1_455
Cu3 Mn1 3.119773 1_555
As0 Cu3 2.418716 1_555
As0 Cu2 2.482590 1_565
As0 Cu0 2.493780 1_555
As0 Cu0 2.493780 1_455
As0 Mn1 2.548580 1_555
As0 Mn1 2.548580 1_455
As0 Mn3 2.656335 1_555
As0 Mn0 2.716871 1_555
As0 Mn0 2.716871 1_455
As1 Cu2 2.418716 1_555
As1 Cu3 2.482590 1_555
As1 Cu1 2.493780 1_554
As1 Cu1 2.493780 1_454
As1 Mn0 2.548580 1_545
As1 Mn0 2.548580 1_445
As1 Mn2 2.656335 1_554
As1 Mn1 2.716871 1_455
As1 Mn1 2.716871 1_555
