# generated using pymatgen
data_Ag2H12C3S3(BrN3)2
_symmetry_space_group_name_H-M   'P 1'
_cell_length_a   4.44249100
_cell_length_b   8.40714400
_cell_length_c   22.01302039
_cell_angle_alpha   90.00000000
_cell_angle_beta   101.07856111
_cell_angle_gamma   90.00000000
_symmetry_Int_Tables_number   1
_chemical_formula_structural   Ag2H12C3S3(BrN3)2
_chemical_formula_sum   'Ag4 H24 C6 S6 Br4 N12'
_cell_volume   806.83565449
_cell_formula_units_Z   2
loop_
 _symmetry_equiv_pos_site_id
 _symmetry_equiv_pos_as_xyz
  1  'x, y, z'
loop_
 _atom_site_type_symbol
 _atom_site_label
 _atom_site_symmetry_multiplicity
 _atom_site_fract_x
 _atom_site_fract_y
 _atom_site_fract_z
 _atom_site_occupancy
  Ag  Ag0  1  0.52419100  0.44279500  0.17825900  1
  Ag  Ag1  1  0.47580900  0.44279500  0.32174100  1
  Ag  Ag2  1  0.47580900  0.55720500  0.82174100  1
  Ag  Ag3  1  0.52419100  0.55720500  0.67825900  1
  H  H0  1  0.82296800  0.61508100  0.02152000  1
  H  H1  1  0.17703200  0.61508100  0.47848000  1
  H  H2  1  0.17703200  0.38491900  0.97848000  1
  H  H3  1  0.82296800  0.38491900  0.52152000  1
  H  H4  1  0.02046200  0.48944800  0.07931400  1
  H  H5  1  0.97953800  0.48944800  0.42068600  1
  H  H6  1  0.97953800  0.51055200  0.92068600  1
  H  H7  1  0.02046200  0.51055200  0.57931400  1
  H  H8  1  0.85679200  0.88167700  0.03000900  1
  H  H9  1  0.14320800  0.88167700  0.46999100  1
  H  H10  1  0.14320800  0.11832300  0.96999100  1
  H  H11  1  0.85679200  0.11832300  0.53000900  1
  H  H12  1  0.09955800  0.97402500  0.09197900  1
  H  H13  1  0.90044200  0.97402500  0.40802100  1
  H  H14  1  0.90044200  0.02597500  0.90802100  1
  H  H15  1  0.09955800  0.02597500  0.59197900  1
  H  H16  1  0.18528900  0.93261200  0.29541200  1
  H  H17  1  0.81471100  0.93261200  0.20458800  1
  H  H18  1  0.81471100  0.06738800  0.70458800  1
  H  H19  1  0.18528900  0.06738800  0.79541200  1
  H  H20  1  0.30554400  0.11111200  0.33301300  1
  H  H21  1  0.69445600  0.11111200  0.16698700  1
  H  H22  1  0.69445600  0.88888800  0.66698700  1
  H  H23  1  0.30554400  0.88888800  0.83301300  1
  C  C0  1  0.08589000  0.72916300  0.09572200  1
  C  C1  1  0.91411000  0.72916300  0.40427800  1
  C  C2  1  0.91411000  0.27083700  0.90427800  1
  C  C3  1  0.08589000  0.27083700  0.59572200  1
  C  C4  1  0.00000000  0.13324500  0.25000000  1
  C  C5  1  0.00000000  0.86675500  0.75000000  1
  S  S0  1  0.32701500  0.71672600  0.16658700  1
  S  S1  1  0.67298500  0.71672600  0.33341300  1
  S  S2  1  0.67298500  0.28327400  0.83341300  1
  S  S3  1  0.32701500  0.28327400  0.66658700  1
  S  S4  1  0.00000000  0.33989600  0.25000000  1
  S  S5  1  0.00000000  0.66010300  0.75000000  1
  Br  Br0  1  0.43274300  0.24357300  0.07821200  1
  Br  Br1  1  0.56725700  0.24357300  0.42178800  1
  Br  Br2  1  0.56725700  0.75642700  0.92178800  1
  Br  Br3  1  0.43274300  0.75642700  0.57821200  1
  N  N0  1  0.96973900  0.60135100  0.06312900  1
  N  N1  1  0.03026100  0.60135100  0.43687100  1
  N  N2  1  0.03026100  0.39864900  0.93687100  1
  N  N3  1  0.96973900  0.39864900  0.56312900  1
  N  N4  1  0.00131800  0.87280200  0.07186600  1
  N  N5  1  0.99868200  0.87280200  0.42813400  1
  N  N6  1  0.99868200  0.12719800  0.92813400  1
  N  N7  1  0.00131800  0.12719800  0.57186600  1
  N  N8  1  0.17852600  0.05366200  0.29544400  1
  N  N9  1  0.82147400  0.05366200  0.20455600  1
  N  N10  1  0.82147400  0.94633800  0.70455600  1
  N  N11  1  0.17852600  0.94633800  0.79544400  1
loop_
_geom_bond_atom_site_label_1
_geom_bond_atom_site_label_2
_geom_bond_distance
_geom_bond_site_symmetry_2
Ag0 S0 2.459780 1_555
Ag0 S4 2.535258 1_655
Ag0 Br0 2.734362 1_555
Ag1 S1 2.459780 1_555
Ag1 S4 2.535258 1_555
Ag1 Br1 2.734362 1_555
Ag2 S2 2.459780 1_555
Ag2 S5 2.535255 1_555
Ag2 Br2 2.734362 1_555
Ag3 S3 2.459780 1_555
Ag3 S5 2.535255 1_655
Ag3 Br3 2.734362 1_555
H0 N0 1.023667 1_555
H1 N1 1.023667 1_555
H2 N2 1.023667 1_555
H3 N3 1.023667 1_555
H4 N0 1.015842 1_455
H5 N1 1.015842 1_655
H6 N2 1.015842 1_655
H7 N3 1.015842 1_455
H8 N4 1.019522 1_655
H9 N5 1.019522 1_455
H10 N6 1.019522 1_455
H11 N7 1.019522 1_655
H12 N4 1.018053 1_555
H13 N5 1.018053 1_555
H14 N6 1.018053 1_555
H15 N7 1.018053 1_555
H16 N8 1.018132 1_565
H17 N9 1.018132 1_565
H18 N10 1.018132 1_545
H19 N11 1.018132 1_545
H20 N8 1.027758 1_555
H21 N9 1.027758 1_555
H22 N10 1.027758 1_555
H23 N11 1.027758 1_555
C0 N0 1.339166 1_455
C0 N4 1.341414 1_555
C0 S0 1.717457 1_555
C1 N1 1.339166 1_655
C1 N5 1.341414 1_555
C1 S1 1.717457 1_555
C2 N2 1.339166 1_655
C2 N6 1.341414 1_555
C2 S2 1.717457 1_555
C3 N3 1.339166 1_455
C3 N7 1.341414 1_555
C3 S3 1.717457 1_555
C4 N8 1.331342 1_555
C4 N9 1.331342 1_455
C4 S4 1.737345 1_555
C5 N11 1.331342 1_555
C5 N10 1.331342 1_455
C5 S5 1.737353 1_555
