# generated using pymatgen
data_Th(BRu)2
_symmetry_space_group_name_H-M   'P 1'
_cell_length_a   6.46632100
_cell_length_b   6.46632100
_cell_length_c   14.69745760
_cell_angle_alpha   102.70791536
_cell_angle_beta   102.70791536
_cell_angle_gamma   90.00000000
_symmetry_Int_Tables_number   1
_chemical_formula_structural   Th(BRu)2
_chemical_formula_sum   'Th8 B16 Ru16'
_cell_volume   584.05362812
_cell_formula_units_Z   8
loop_
 _symmetry_equiv_pos_site_id
 _symmetry_equiv_pos_as_xyz
  1  'x, y, z'
loop_
 _atom_site_type_symbol
 _atom_site_label
 _atom_site_symmetry_multiplicity
 _atom_site_fract_x
 _atom_site_fract_y
 _atom_site_fract_z
 _atom_site_occupancy
  Th  Th0  1  0.12500000  0.37500000  0.25000000  1
  Th  Th1  1  0.12500000  0.87500000  0.25000000  1
  Th  Th2  1  0.12500000  0.87500000  0.75000000  1
  Th  Th3  1  0.62500000  0.37500000  0.25000000  1
  Th  Th4  1  0.62500000  0.87500000  0.75000000  1
  Th  Th5  1  0.62500000  0.87500000  0.25000000  1
  Th  Th6  1  0.62500000  0.37500000  0.75000000  1
  Th  Th7  1  0.12500000  0.37500000  0.75000000  1
  B  B0  1  0.41559200  0.24840200  0.55947900  1
  B  B1  1  0.14388700  0.31107700  0.55947900  1
  B  B2  1  0.56107700  0.16559200  0.05947900  1
  B  B3  1  0.33440800  0.93892300  0.94052100  1
  B  B4  1  0.83440800  0.50159800  0.94052100  1
  B  B5  1  0.49840200  0.89388700  0.05947900  1
  B  B6  1  0.60611300  0.00159800  0.94052100  1
  B  B7  1  0.10611300  0.43892300  0.94052100  1
  B  B8  1  0.18892300  0.35611300  0.44052100  1
  B  B9  1  0.68892300  0.58440800  0.44052100  1
  B  B10  1  0.25159800  0.08440800  0.44052100  1
  B  B11  1  0.75159800  0.85611300  0.44052100  1
  B  B12  1  0.91559200  0.81107700  0.55947900  1
  B  B13  1  0.64388700  0.74840200  0.55947900  1
  B  B14  1  0.99840200  0.66559200  0.05947900  1
  B  B15  1  0.06107700  0.39388700  0.05947900  1
  Ru  Ru0  1  0.51315700  0.28582900  0.43020400  1
  Ru  Ru1  1  0.91704800  0.14437500  0.43020400  1
  Ru  Ru2  1  0.39437500  0.26315700  0.93020400  1
  Ru  Ru3  1  0.23684300  0.10562500  0.06979600  1
  Ru  Ru4  1  0.73684300  0.46417100  0.06979600  1
  Ru  Ru5  1  0.53582900  0.66704800  0.93020400  1
  Ru  Ru6  1  0.83295200  0.96417100  0.06979600  1
  Ru  Ru7  1  0.33295200  0.60562500  0.06979600  1
  Ru  Ru8  1  0.35562500  0.58295200  0.56979600  1
  Ru  Ru9  1  0.85562500  0.48684300  0.56979600  1
  Ru  Ru10  1  0.21417100  0.98684300  0.56979600  1
  Ru  Ru11  1  0.71417100  0.08295200  0.56979600  1
  Ru  Ru12  1  0.01315700  0.64437500  0.43020400  1
  Ru  Ru13  1  0.41704800  0.78582900  0.43020400  1
  Ru  Ru14  1  0.03582900  0.76315700  0.93020400  1
  Ru  Ru15  1  0.89437500  0.16704800  0.93020400  1
loop_
_geom_bond_atom_site_label_1
_geom_bond_atom_site_label_2
_geom_bond_distance
_geom_bond_site_symmetry_2
B0 B1 1.803069 1_555
B0 B10 1.916890 1_555
B0 Ru8 2.175960 1_555
B0 Ru10 2.186248 1_545
B0 Ru0 2.190052 1_555
B0 Ru11 2.199495 1_555
B0 Th6 2.769111 1_555
B1 B8 1.916890 1_555
B1 Ru10 2.175967 1_545
B1 Ru8 2.186242 1_555
B1 Ru1 2.190049 1_455
B1 Ru9 2.199492 1_455
B1 Th7 2.769111 1_555
B2 B5 1.803069 1_545
B2 B6 1.916890 1_554
B2 Ru3 2.175967 1_555
B2 Ru6 2.186242 1_545
B2 Ru2 2.190052 1_554
B2 Ru4 2.199492 1_555
B2 Th3 2.769111 1_555
B3 B6 1.803069 1_565
B3 B5 1.916890 1_556
B3 Ru2 2.175967 1_565
B3 Ru5 2.186242 1_555
B3 Ru3 2.190052 1_566
B3 Ru14 2.199492 1_555
B3 Th2 2.769111 1_555
B4 B7 1.803069 1_655
B4 Ru15 2.175960 1_555
B4 Ru14 2.186248 1_655
B4 Ru4 2.190052 1_556
B4 Ru5 2.199495 1_555
B4 Th6 2.769111 1_555
B5 Ru6 2.175960 1_555
B5 Ru3 2.186248 1_565
B5 Ru5 2.190049 1_554
B5 Ru7 2.199495 1_555
B5 Th5 2.769111 1_555
B6 Ru5 2.175960 1_545
B6 Ru2 2.186248 1_555
B6 Ru6 2.190049 1_546
B6 Ru15 2.199495 1_555
B6 Th4 2.769111 1_545
B7 Ru14 2.175967 1_555
B7 Ru15 2.186242 1_455
B7 Ru7 2.190049 1_556
B7 Ru2 2.199492 1_555
B7 Th7 2.769111 1_555
B8 Ru0 2.175967 1_555
B8 Ru1 2.186242 1_455
B8 Ru8 2.190049 1_555
B8 Ru12 2.199492 1_555
B8 Th0 2.769111 1_555
B9 Ru12 2.175967 1_655
B9 Ru13 2.186242 1_555
B9 Ru9 2.190052 1_555
B9 Ru0 2.199492 1_555
B9 Th3 2.769111 1_555
B10 B8 1.803069 1_555
B10 Ru1 2.175960 1_455
B10 Ru0 2.186248 1_555
B10 Ru10 2.190052 1_545
B10 Ru13 2.199495 1_545
B10 Th1 2.769111 1_545
B11 B9 1.803069 1_555
B11 B12 1.916890 1_555
B11 Ru13 2.175960 1_555
B11 Ru12 2.186248 1_655
B11 Ru11 2.190049 1_565
B11 Ru1 2.199495 1_565
B11 Th5 2.769111 1_555
B12 B13 1.803069 1_555
B12 Ru9 2.175967 1_555
B12 Ru11 2.186242 1_565
B12 Ru12 2.190052 1_655
B12 Ru10 2.199492 1_655
B12 Th2 2.769111 1_655
B13 B9 1.916890 1_555
B13 Ru11 2.175960 1_565
B13 Ru9 2.186248 1_555
B13 Ru13 2.190049 1_555
B13 Ru8 2.199495 1_555
B13 Th4 2.769111 1_555
B14 B15 1.803069 1_655
B14 B4 1.916890 1_554
B14 Ru7 2.175960 1_655
B14 Ru4 2.186248 1_555
B14 Ru14 2.190052 1_654
B14 Ru6 2.199495 1_555
B14 Th1 2.769111 1_655
B15 B7 1.916890 1_554
B15 Ru4 2.175967 1_455
B15 Ru7 2.186242 1_555
B15 Ru15 2.190049 1_454
B15 Ru3 2.199492 1_555
B15 Th0 2.769111 1_555
Ru0 Th3 3.063480 1_555
Ru1 Th5 3.063482 1_545
Ru2 Th7 3.063480 1_555
Ru3 Th0 3.063480 1_555
Ru4 Th3 3.063480 1_555
Ru5 Th6 3.063482 1_555
Ru6 Th1 3.063482 1_655
Ru7 Th5 3.063482 1_555
Ru8 Th4 3.063482 1_555
Ru9 Th7 3.063480 1_655
Ru10 Th2 3.063480 1_555
Ru11 Th6 3.063482 1_555
Ru12 Th0 3.063480 1_555
Ru13 Th1 3.063482 1_555
Ru14 Th2 3.063480 1_555
Ru15 Th4 3.063482 1_545
