# generated using pymatgen
data_Th3Se
_symmetry_space_group_name_H-M   'P 1'
_cell_length_a   6.85633140
_cell_length_b   6.85633140
_cell_length_c   5.59172800
_cell_angle_alpha   90.00000000
_cell_angle_beta   90.00000000
_cell_angle_gamma   119.99999424
_symmetry_Int_Tables_number   1
_chemical_formula_structural   Th3Se
_chemical_formula_sum   'Th6 Se2'
_cell_volume   227.64614331
_cell_formula_units_Z   2
loop_
 _symmetry_equiv_pos_site_id
 _symmetry_equiv_pos_as_xyz
  1  'x, y, z'
loop_
 _atom_site_type_symbol
 _atom_site_label
 _atom_site_symmetry_multiplicity
 _atom_site_fract_x
 _atom_site_fract_y
 _atom_site_fract_z
 _atom_site_occupancy
  Th  Th0  1  0.83010000  0.16990000  0.75000000  1
  Th  Th1  1  0.33980000  0.16990000  0.75000000  1
  Th  Th2  1  0.83010000  0.66020000  0.75000000  1
  Th  Th3  1  0.16990000  0.33980000  0.25000000  1
  Th  Th4  1  0.66020000  0.83010000  0.25000000  1
  Th  Th5  1  0.16990000  0.83010000  0.25000000  1
  Se  Se0  1  0.66666700  0.33333300  0.25000000  1
  Se  Se1  1  0.33333300  0.66666700  0.75000000  1
loop_
_geom_bond_atom_site_label_1
_geom_bond_atom_site_label_2
_geom_bond_distance
_geom_bond_site_symmetry_2
Se0 Th0 3.403492 1_554
Se0 Th0 3.403492 1_555
Se0 Th1 3.403495 1_555
Se0 Th1 3.403495 1_554
Se0 Th2 3.403495 1_555
Se0 Th2 3.403495 1_554
Se0 Th3 3.428377 1_655
Se0 Th4 3.428377 1_545
Se0 Th5 3.428381 1_655
Se0 Th5 3.428381 1_545
Se0 Th4 3.428384 1_555
Se0 Th3 3.428384 1_555
Se1 Th5 3.403492 1_555
Se1 Th5 3.403492 1_556
Se1 Th3 3.403495 1_555
Se1 Th4 3.403495 1_555
Se1 Th3 3.403495 1_556
Se1 Th4 3.403495 1_556
Se1 Th1 3.428377 1_565
Se1 Th2 3.428377 1_455
Se1 Th0 3.428381 1_565
Se1 Th0 3.428381 1_455
Se1 Th1 3.428384 1_555
Se1 Th2 3.428384 1_555
