# generated using pymatgen
data_Fe3Si4Ir
_symmetry_space_group_name_H-M   'P 1'
_cell_length_a   4.55003085
_cell_length_b   4.55003085
_cell_length_c   4.55003025
_cell_angle_alpha   89.79462288
_cell_angle_beta   89.79462288
_cell_angle_gamma   89.79461638
_symmetry_Int_Tables_number   1
_chemical_formula_structural   Fe3Si4Ir
_chemical_formula_sum   'Fe3 Si4 Ir1'
_cell_volume   94.19646742
_cell_formula_units_Z   1
loop_
 _symmetry_equiv_pos_site_id
 _symmetry_equiv_pos_as_xyz
  1  'x, y, z'
loop_
 _atom_site_type_symbol
 _atom_site_label
 _atom_site_symmetry_multiplicity
 _atom_site_fract_x
 _atom_site_fract_y
 _atom_site_fract_z
 _atom_site_occupancy
  Fe  Fe0  1  0.13889500  0.36581100  0.63421900  1
  Fe  Fe1  1  0.63421900  0.13889500  0.36581100  1
  Fe  Fe2  1  0.36581100  0.63421900  0.13889500  1
  Si  Si0  1  0.17094600  0.17094600  0.17094600  1
  Si  Si1  1  0.83391600  0.64482100  0.34424000  1
  Si  Si2  1  0.34424000  0.83391600  0.64482100  1
  Si  Si3  1  0.64482100  0.34424000  0.83391600  1
  Ir  Ir0  1  0.86715200  0.86715200  0.86715200  1
loop_
_geom_bond_atom_site_label_1
_geom_bond_atom_site_label_2
_geom_bond_distance
_geom_bond_site_symmetry_2
Fe0 Si0 2.293673 1_555
Fe0 Si1 2.294905 1_455
Fe0 Si2 2.329605 1_555
Fe0 Si3 2.423896 1_455
Fe0 Si3 2.479330 1_555
Fe0 Si2 2.591455 1_545
Fe0 Si0 2.599514 1_556
Fe0 Ir0 2.791687 1_445
Fe0 Ir0 2.800586 1_455
Fe1 Si0 2.293673 1_555
Fe1 Si2 2.294906 1_545
Fe1 Si3 2.329605 1_555
Fe1 Si1 2.423896 1_545
Fe1 Si1 2.479331 1_555
Fe1 Si3 2.591455 1_554
Fe1 Si0 2.599515 1_655
Fe1 Ir0 2.791687 1_544
Fe1 Ir0 2.800586 1_545
Fe2 Si0 2.293674 1_555
Fe2 Si3 2.294905 1_554
Fe2 Si1 2.329605 1_555
Fe2 Si2 2.423896 1_554
Fe2 Si2 2.479330 1_555
Fe2 Si1 2.591455 1_455
Fe2 Si0 2.599514 1_565
Fe2 Ir0 2.791687 1_454
Fe2 Ir0 2.800586 1_554
Ir0 Si1 2.396132 1_556
Ir0 Si3 2.396132 1_565
Ir0 Si2 2.396132 1_655
Ir0 Si0 2.402732 1_666
Ir0 Si1 2.593851 1_555
Ir0 Si2 2.593852 1_555
Ir0 Si3 2.593852 1_555
