# generated using pymatgen
data_Tb(Mg4Al3)4
_symmetry_space_group_name_H-M   'P 1'
_cell_length_a   9.25488913
_cell_length_b   9.25488913
_cell_length_c   9.25488919
_cell_angle_alpha   110.36495351
_cell_angle_beta   110.36495351
_cell_angle_gamma   110.36495066
_symmetry_Int_Tables_number   1
_chemical_formula_structural   Tb(Mg4Al3)4
_chemical_formula_sum   'Tb1 Mg16 Al12'
_cell_volume   589.17164660
_cell_formula_units_Z   1
loop_
 _symmetry_equiv_pos_site_id
 _symmetry_equiv_pos_as_xyz
  1  'x, y, z'
loop_
 _atom_site_type_symbol
 _atom_site_label
 _atom_site_symmetry_multiplicity
 _atom_site_fract_x
 _atom_site_fract_y
 _atom_site_fract_z
 _atom_site_occupancy
  Tb  Tb0  1  0.37229600  0.37229600  0.37229600  1
  Mg  Mg0  1  0.31475000  0.71669000  0.31475000  1
  Mg  Mg1  1  0.99715400  0.99715400  0.99715400  1
  Mg  Mg2  1  0.99553500  0.65452700  0.99553500  1
  Mg  Mg3  1  0.61107700  0.28016600  0.61107700  1
  Mg  Mg4  1  0.39412800  0.00176300  0.68890400  1
  Mg  Mg5  1  0.68890400  0.39412800  0.00176300  1
  Mg  Mg6  1  0.28016600  0.61107700  0.61107700  1
  Mg  Mg7  1  0.65452700  0.99553500  0.99553500  1
  Mg  Mg8  1  0.00176300  0.68890400  0.39412800  1
  Mg  Mg9  1  0.31475000  0.31475000  0.71669000  1
  Mg  Mg10  1  0.71669000  0.31475000  0.31475000  1
  Mg  Mg11  1  0.39412800  0.68890400  0.00176300  1
  Mg  Mg12  1  0.99553500  0.99553500  0.65452700  1
  Mg  Mg13  1  0.61107700  0.61107700  0.28016600  1
  Mg  Mg14  1  0.00176300  0.39412800  0.68890400  1
  Mg  Mg15  1  0.68890400  0.00176300  0.39412800  1
  Al  Al0  1  0.81051400  0.17477400  0.81051400  1
  Al  Al1  1  0.62967000  0.81042500  0.62967000  1
  Al  Al2  1  0.18486500  0.00171700  0.36405900  1
  Al  Al3  1  0.62967000  0.62967000  0.81042500  1
  Al  Al4  1  0.00171700  0.36405900  0.18486500  1
  Al  Al5  1  0.81051400  0.81051400  0.17477400  1
  Al  Al6  1  0.00171700  0.18486500  0.36405900  1
  Al  Al7  1  0.36405900  0.18486500  0.00171700  1
  Al  Al8  1  0.17477400  0.81051400  0.81051400  1
  Al  Al9  1  0.18486500  0.36405900  0.00171700  1
  Al  Al10  1  0.81042500  0.62967000  0.62967000  1
  Al  Al11  1  0.36405900  0.00171700  0.18486500  1
loop_
_geom_bond_atom_site_label_1
_geom_bond_atom_site_label_2
_geom_bond_distance
_geom_bond_site_symmetry_2
Mg0 Mg2 3.057168 1_454
Mg0 Mg4 3.164341 1_565
Mg0 Mg15 3.164341 1_565
Mg0 Mg8 3.176566 1_555
Mg0 Mg11 3.176566 1_555
Mg0 Tb0 3.590524 1_555
Mg1 Mg2 3.160575 1_555
Mg1 Mg7 3.160575 1_555
Mg1 Mg12 3.160575 1_555
Mg1 Tb0 3.315631 1_666
Mg2 Mg5 3.052066 1_556
Mg2 Mg3 3.369387 1_555
Mg3 Mg5 3.115976 1_556
Mg3 Tb0 3.117397 1_555
Mg3 Mg4 3.144298 1_555
Mg4 Mg5 3.049914 1_556
Mg4 Mg8 3.049914 1_545
Mg4 Mg7 3.052065 1_545
Mg4 Mg6 3.115976 1_545
Mg4 Mg9 3.176566 1_555
Mg5 Mg8 3.049914 1_655
Mg5 Mg9 3.164341 1_554
Mg6 Tb0 3.117397 1_555
Mg6 Mg8 3.144298 1_555
Mg6 Mg7 3.369387 1_555
Mg9 Tb0 3.590524 1_555
Mg10 Mg7 3.057168 1_544
Mg10 Mg14 3.164341 1_655
Mg10 Mg8 3.164341 1_655
Mg10 Mg15 3.176566 1_555
Mg10 Mg5 3.176566 1_555
Mg10 Tb0 3.590524 1_555
Mg11 Mg15 3.049914 1_565
Mg11 Mg14 3.049914 1_554
Mg11 Mg7 3.052066 1_554
Mg11 Mg6 3.115976 1_554
Mg11 Mg13 3.144298 1_555
Mg11 Mg9 3.164341 1_554
Mg12 Mg15 3.052065 1_565
Mg12 Mg8 3.052065 1_655
Mg12 Mg9 3.057168 1_665
Mg12 Mg13 3.369387 1_555
Mg13 Mg15 3.115976 1_565
Mg13 Mg8 3.115976 1_655
Mg13 Tb0 3.117398 1_555
Mg13 Mg5 3.144298 1_555
Mg14 Mg15 3.049914 1_455
Mg14 Mg2 3.052065 1_455
Mg14 Mg3 3.115976 1_455
Mg14 Mg6 3.144298 1_555
Mg14 Mg9 3.176566 1_555
Mg15 Mg3 3.144298 1_555
Al0 Al1 2.677176 1_545
Al0 Al4 2.748585 1_656
Al0 Al9 2.748585 1_656
Al0 Mg3 2.810696 1_555
Al0 Mg5 2.999454 1_556
Al0 Mg14 2.999454 1_655
Al0 Mg12 3.130293 1_545
Al0 Mg7 3.130293 1_545
Al0 Mg15 3.180145 1_555
Al0 Mg4 3.180145 1_555
Al0 Mg1 3.247387 1_545
Al1 Al10 2.746763 1_555
Al1 Al3 2.746764 1_555
Al1 Mg0 2.882714 1_555
Al1 Mg13 3.022309 1_555
Al1 Mg6 3.022309 1_555
Al1 Mg7 3.098275 1_555
Al1 Mg12 3.098275 1_555
Al1 Mg1 3.144587 1_555
Al1 Tb0 3.224242 1_555
Al1 Mg4 3.321314 1_565
Al1 Mg15 3.321314 1_565
Al2 Al5 2.748585 1_445
Al2 Al6 2.783128 1_555
Al2 Mg4 2.955567 1_555
Al2 Mg9 2.958741 1_555
Al2 Mg8 2.967293 1_545
Al2 Mg2 3.053180 1_444
Al2 Mg3 3.158353 1_555
Al2 Mg1 3.208383 1_444
Al2 Mg0 3.219104 1_545
Al2 Tb0 3.219124 1_555
Al3 Al5 2.677176 1_556
Al3 Mg9 2.882714 1_555
Al3 Mg6 3.022308 1_555
Al3 Mg3 3.022308 1_555
Al3 Mg2 3.098275 1_555
Al3 Mg7 3.098275 1_555
Al3 Mg1 3.144587 1_555
Al3 Tb0 3.224242 1_555
Al3 Mg5 3.321314 1_556
Al3 Mg11 3.321314 1_556
Al4 Al6 2.723042 1_555
Al4 Al9 2.783128 1_555
Al4 Mg8 2.955567 1_555
Al4 Mg0 2.958741 1_555
Al4 Mg5 2.967293 1_455
Al4 Mg7 3.053180 1_444
Al4 Mg6 3.158353 1_555
Al4 Mg1 3.208383 1_444
Al4 Mg10 3.219104 1_455
Al4 Tb0 3.219124 1_555
Al5 Al6 2.748585 1_665
Al5 Mg13 2.810696 1_555
Al5 Mg15 2.999454 1_565
Al5 Mg8 2.999454 1_655
Al5 Mg2 3.130293 1_554
Al5 Mg7 3.130293 1_554
Al5 Mg11 3.180145 1_555
Al5 Mg5 3.180145 1_555
Al5 Mg1 3.247387 1_554
Al6 Mg14 2.955567 1_555
Al6 Mg9 2.958741 1_555
Al6 Mg15 2.967293 1_455
Al6 Mg7 3.053180 1_444
Al6 Mg6 3.158353 1_555
Al6 Mg1 3.208383 1_444
Al6 Mg10 3.219104 1_455
Al6 Tb0 3.219124 1_555
Al7 Al9 2.723042 1_555
Al7 Al8 2.748585 1_544
Al7 Mg5 2.955567 1_555
Al7 Mg10 2.958741 1_555
Al7 Mg4 2.967293 1_554
Al7 Mg12 3.053180 1_444
Al7 Mg13 3.158353 1_555
Al7 Mg1 3.208383 1_444
Al7 Mg9 3.219104 1_554
Al7 Tb0 3.219124 1_555
Al8 Mg6 2.810696 1_555
Al8 Mg11 2.999454 1_556
Al8 Mg4 2.999454 1_565
Al8 Mg12 3.130293 1_455
Al8 Mg2 3.130293 1_455
Al8 Mg8 3.180145 1_555
Al8 Mg14 3.180145 1_555
Al8 Mg1 3.247387 1_455
Al9 Mg11 2.955567 1_555
Al9 Mg0 2.958741 1_555
Al9 Mg14 2.967293 1_554
Al9 Mg12 3.053180 1_444
Al9 Mg13 3.158353 1_555
Al9 Mg1 3.208383 1_444
Al9 Mg9 3.219104 1_554
Al9 Tb0 3.219124 1_555
Al10 Al8 2.677176 1_655
Al10 Al3 2.746764 1_555
Al10 Mg10 2.882714 1_555
Al10 Mg13 3.022309 1_555
Al10 Mg3 3.022309 1_555
Al10 Mg2 3.098275 1_555
Al10 Mg12 3.098275 1_555
Al10 Mg1 3.144587 1_555
Al10 Tb0 3.224242 1_555
Al10 Mg14 3.321314 1_655
Al10 Mg8 3.321314 1_655
Al11 Al2 2.723042 1_555
Al11 Al8 2.748585 1_544
Al11 Al7 2.783128 1_555
Al11 Mg15 2.955567 1_555
Al11 Mg10 2.958741 1_555
Al11 Mg11 2.967293 1_545
Al11 Mg2 3.053180 1_444
Al11 Mg3 3.158353 1_555
Al11 Mg1 3.208383 1_444
Al11 Mg0 3.219104 1_545
Al11 Tb0 3.219124 1_555
