# generated using pymatgen
data_La6Al3Fe10As
_symmetry_space_group_name_H-M   'P 1'
_cell_length_a   8.12480890
_cell_length_b   8.12480890
_cell_length_c   13.01101027
_cell_angle_alpha   71.65584033
_cell_angle_beta   71.65584033
_cell_angle_gamma   89.54197436
_symmetry_Int_Tables_number   1
_chemical_formula_structural   La6Al3Fe10As
_chemical_formula_sum   'La12 Al6 Fe20 As2'
_cell_volume   769.85314482
_cell_formula_units_Z   2
loop_
 _symmetry_equiv_pos_site_id
 _symmetry_equiv_pos_as_xyz
  1  'x, y, z'
loop_
 _atom_site_type_symbol
 _atom_site_label
 _atom_site_symmetry_multiplicity
 _atom_site_fract_x
 _atom_site_fract_y
 _atom_site_fract_z
 _atom_site_occupancy
  La  La0  1  0.89281500  0.89281500  0.21437100  1
  La  La1  1  0.39281500  0.39281500  0.21437100  1
  La  La2  1  0.10687100  0.10687100  0.78625700  1
  La  La3  1  0.60687100  0.60687100  0.78625700  1
  La  La4  1  0.99117500  0.13109800  0.37772700  1
  La  La5  1  0.63109800  0.49117500  0.37772700  1
  La  La6  1  0.15536600  0.65536600  0.36897000  1
  La  La7  1  0.47566400  0.97566400  0.36897000  1
  La  La8  1  0.02052400  0.85954300  0.61993200  1
  La  La9  1  0.35954300  0.52052400  0.61993200  1
  La  La10  1  0.86463300  0.36463300  0.61299000  1
  La  La11  1  0.52237800  0.02237800  0.61299000  1
  Al  Al0  1  0.02439700  0.52439700  0.18702700  1
  Al  Al1  1  0.78857600  0.28857600  0.18702700  1
  Al  Al2  1  0.71453500  0.97272400  0.81274000  1
  Al  Al3  1  0.47272400  0.21453500  0.81274000  1
  Al  Al4  1  0.97406500  0.47406500  0.81483900  1
  Al  Al5  1  0.21109600  0.71109600  0.81483900  1
  Fe  Fe0  1  0.06964600  0.78860900  0.00287100  1
  Fe  Fe1  1  0.92748300  0.20851900  0.00287100  1
  Fe  Fe2  1  0.43057700  0.28954100  0.00075100  1
  Fe  Fe3  1  0.56867200  0.70970800  0.00075100  1
  Fe  Fe4  1  0.78954100  0.93057700  0.00075100  1
  Fe  Fe5  1  0.20970800  0.06867200  0.00075100  1
  Fe  Fe6  1  0.28860900  0.56964600  0.00287100  1
  Fe  Fe7  1  0.70851900  0.42748300  0.00287100  1
  Fe  Fe8  1  0.12195000  0.25834500  0.11970500  1
  Fe  Fe9  1  0.75834500  0.62195000  0.11970500  1
  Fe  Fe10  1  0.26992900  0.76992900  0.11499800  1
  Fe  Fe11  1  0.61507300  0.11507300  0.11499800  1
  Fe  Fe12  1  0.87991900  0.72809200  0.89198900  1
  Fe  Fe13  1  0.22809200  0.37991900  0.89198900  1
  Fe  Fe14  1  0.73290400  0.23290400  0.88461300  1
  Fe  Fe15  1  0.38248300  0.88248300  0.88461300  1
  Fe  Fe16  1  0.99796700  0.49796700  0.00406500  1
  Fe  Fe17  1  0.50128900  0.00128900  0.99742100  1
  Fe  Fe18  1  0.29256800  0.02182800  0.18560400  1
  Fe  Fe19  1  0.52182800  0.79256800  0.18560400  1
  As  As0  1  0.74987500  0.74987500  0.50025000  1
  As  As1  1  0.24987500  0.24987500  0.50025000  1
loop_
_geom_bond_atom_site_label_1
_geom_bond_atom_site_label_2
_geom_bond_distance
_geom_bond_site_symmetry_2
Al0 Fe16 2.530489 1_455
Al0 Fe10 2.558825 1_555
Al0 Fe6 2.589400 1_555
Al0 Fe0 2.589400 1_555
Al0 Fe9 2.606816 1_455
Al0 Fe8 2.606816 1_555
Al0 Al1 2.720443 1_455
Al0 La1 3.257186 1_555
Al0 La0 3.257186 1_455
Al0 La5 3.322931 1_455
Al0 La4 3.322931 1_455
Al0 La6 3.325327 1_555
Al1 Fe16 2.530483 1_555
Al1 Fe11 2.558825 1_555
Al1 Fe1 2.589404 1_555
Al1 Fe7 2.589404 1_555
Al1 Fe9 2.606816 1_555
Al1 Fe8 2.606816 1_655
Al1 La0 3.257180 1_545
Al1 La1 3.257180 1_555
Al1 La4 3.322931 1_555
Al1 La5 3.322931 1_555
Al1 La7 3.325328 1_545
Al2 Fe12 2.521639 1_555
Al2 Fe17 2.560010 1_565
Al2 Fe15 2.588925 1_555
Al2 Fe14 2.588934 1_565
Al2 Fe3 2.623035 1_556
Al2 Fe4 2.623040 1_556
Al2 Al3 2.767333 1_565
Al2 La3 3.255086 1_555
Al2 La2 3.255086 1_665
Al2 La8 3.287758 1_655
Al2 La11 3.352425 1_565
Al2 La10 3.352439 1_565
Al3 Fe13 2.521639 1_555
Al3 Fe17 2.560010 1_555
Al3 Fe15 2.588925 1_545
Al3 Fe14 2.588934 1_555
Al3 Fe5 2.623035 1_556
Al3 Fe2 2.623040 1_556
Al3 La2 3.255086 1_555
Al3 La3 3.255086 1_555
Al3 La9 3.287758 1_555
Al3 La11 3.352425 1_555
Al3 La10 3.352439 1_555
Al4 Fe14 2.514879 1_555
Al4 Fe12 2.578372 1_555
Al4 Fe13 2.578372 1_655
Al4 Fe16 2.596052 1_556
Al4 Fe7 2.625108 1_556
Al4 Fe1 2.625108 1_556
Al4 Al5 2.734401 1_655
Al4 La3 3.255373 1_555
Al4 La2 3.255373 1_655
Al4 La8 3.286263 1_655
Al4 La9 3.286263 1_655
Al4 La10 3.380903 1_555
Al5 Fe15 2.514879 1_555
Al5 Fe13 2.578372 1_555
Al5 Fe12 2.578372 1_455
Al5 Fe16 2.596058 1_456
Al5 Fe6 2.625104 1_556
Al5 Fe0 2.625104 1_556
Al5 La3 3.255368 1_555
Al5 La2 3.255368 1_565
Al5 La9 3.286267 1_555
Al5 La8 3.286267 1_555
Al5 La11 3.380911 1_565
Fe0 Fe16 2.430816 1_455
Fe0 Fe10 2.479989 1_555
Fe0 Fe15 2.498050 1_554
Fe0 Fe6 2.505856 1_555
Fe0 Fe5 2.540787 1_565
Fe0 Fe4 2.547159 1_455
Fe0 Fe12 2.560812 1_454
Fe0 Fe9 2.623067 1_455
Fe0 La0 3.051561 1_455
Fe0 La2 3.099967 1_564
Fe1 Fe16 2.430814 1_555
Fe1 Fe11 2.479988 1_555
Fe1 Fe14 2.498049 1_554
Fe1 Fe7 2.505867 1_555
Fe1 Fe4 2.540780 1_545
Fe1 Fe5 2.547155 1_655
Fe1 Fe13 2.560815 1_654
Fe1 Fe8 2.623070 1_655
Fe1 La0 3.051554 1_545
Fe1 La2 3.099966 1_654
Fe2 Fe8 2.463285 1_555
Fe2 Fe7 2.540780 1_555
Fe2 Fe6 2.547159 1_555
Fe2 Fe5 2.547956 1_555
Fe2 La1 3.074152 1_555
Fe2 La3 3.082413 1_554
Fe3 Fe9 2.463285 1_555
Fe3 Fe6 2.540787 1_555
Fe3 Fe7 2.547155 1_555
Fe3 Fe4 2.547956 1_555
Fe3 La1 3.074147 1_555
Fe3 La3 3.082419 1_554
Fe4 Fe9 2.463285 1_555
Fe4 La0 3.074152 1_555
Fe4 La2 3.082413 1_664
Fe5 Fe8 2.463285 1_555
Fe5 La0 3.074147 1_445
Fe5 La2 3.082419 1_554
Fe6 Fe8 2.623067 1_555
Fe6 La1 3.051561 1_555
Fe6 La3 3.099967 1_554
Fe7 Fe9 2.623070 1_555
Fe7 La1 3.051554 1_555
Fe7 La3 3.099966 1_554
Fe8 La4 3.009276 1_455
Fe8 La0 3.185208 1_445
Fe8 La1 3.185219 1_555
Fe9 La5 3.009276 1_555
Fe9 La1 3.185208 1_555
Fe9 La0 3.185219 1_555
Fe10 Fe17 2.417353 1_564
Fe10 Fe6 2.479989 1_555
Fe10 Fe18 2.522359 1_565
Fe10 Fe19 2.522359 1_555
Fe10 Fe3 2.551117 1_555
Fe10 Fe5 2.551117 1_565
Fe10 Fe15 2.687061 1_554
Fe10 La6 2.965439 1_555
Fe10 La1 3.213500 1_555
Fe10 La0 3.213500 1_455
Fe11 Fe17 2.417362 1_554
Fe11 Fe7 2.479988 1_555
Fe11 Fe18 2.522359 1_555
Fe11 Fe19 2.522359 1_545
Fe11 Fe2 2.551117 1_555
Fe11 Fe4 2.551117 1_545
Fe11 Fe14 2.687061 1_554
Fe11 La7 2.965439 1_545
Fe11 La1 3.213503 1_555
Fe11 La0 3.213503 1_545
Fe12 Fe16 2.382789 1_556
Fe12 Fe4 2.457693 1_556
Fe12 Fe3 2.457693 1_556
Fe12 Fe7 2.560815 1_556
Fe12 Fe9 2.657229 1_556
Fe12 La8 3.173325 1_655
Fe12 La2 3.254661 1_665
Fe12 La3 3.254671 1_555
Fe13 Fe16 2.382789 1_456
Fe13 Fe2 2.457693 1_556
Fe13 Fe5 2.457693 1_556
Fe13 Fe6 2.560812 1_556
Fe13 Fe8 2.657229 1_556
Fe13 La9 3.173325 1_555
Fe13 La3 3.254661 1_555
Fe13 La2 3.254671 1_555
Fe14 Fe17 2.411704 1_555
Fe14 Fe7 2.498049 1_556
Fe14 Fe2 2.571384 1_556
Fe14 Fe4 2.571384 1_546
Fe14 La10 3.168181 1_555
Fe14 La2 3.200903 1_655
Fe14 La3 3.200903 1_555
Fe15 Fe17 2.411695 1_565
Fe15 Fe6 2.498050 1_556
Fe15 Fe3 2.571384 1_556
Fe15 Fe5 2.571384 1_566
Fe15 La11 3.168181 1_565
Fe15 La3 3.200906 1_555
Fe15 La2 3.200906 1_565
Fe16 Fe7 2.430814 1_555
Fe16 Fe6 2.430816 1_655
Fe16 Fe9 2.479460 1_555
Fe16 Fe8 2.479460 1_655
Fe17 Fe3 2.417342 1_546
Fe17 Fe5 2.417342 1_556
Fe17 Fe2 2.417348 1_556
Fe17 Fe4 2.417348 1_546
Fe17 Fe19 2.556887 1_546
Fe17 Fe18 2.556887 1_556
Fe18 Fe8 2.453165 1_555
Fe18 Fe5 2.611821 1_555
Fe18 Fe2 2.611822 1_555
Fe18 Fe19 2.623697 1_545
Fe18 La7 3.115677 1_545
Fe18 La6 3.115677 1_545
Fe18 La4 3.246898 1_455
Fe18 La0 3.290908 1_445
Fe18 La1 3.290918 1_555
Fe19 Fe9 2.453165 1_555
Fe19 Fe3 2.611821 1_555
Fe19 Fe4 2.611822 1_555
Fe19 La7 3.115677 1_555
Fe19 La6 3.115677 1_555
Fe19 La5 3.246898 1_555
Fe19 La1 3.290908 1_555
Fe19 La0 3.290918 1_555
As0 La10 3.277541 1_555
As0 La11 3.277544 1_565
As0 La5 3.316690 1_555
As0 La4 3.316690 1_565
As0 La8 3.333808 1_655
As0 La9 3.333818 1_555
As0 La0 3.334093 1_555
As0 La3 3.335586 1_555
As0 La7 3.406487 1_555
As0 La6 3.406487 1_655
As1 La10 3.277541 1_455
As1 La11 3.277544 1_555
As1 La4 3.316690 1_455
As1 La5 3.316690 1_555
As1 La9 3.333808 1_555
As1 La8 3.333818 1_545
As1 La1 3.334093 1_555
As1 La2 3.335586 1_555
As1 La7 3.406487 1_545
As1 La6 3.406487 1_555
