# generated using pymatgen
data_TmTaO4
_symmetry_space_group_name_H-M   'P 1'
_cell_length_a   5.06011649
_cell_length_b   5.24541358
_cell_length_c   5.39309219
_cell_angle_alpha   90.00000000
_cell_angle_beta   90.00000000
_cell_angle_gamma   96.17974867
_symmetry_Int_Tables_number   1
_chemical_formula_structural   TmTaO4
_chemical_formula_sum   'Tm2 Ta2 O8'
_cell_volume   142.31382196
_cell_formula_units_Z   2
loop_
 _symmetry_equiv_pos_site_id
 _symmetry_equiv_pos_as_xyz
  1  'x, y, z'
loop_
 _atom_site_type_symbol
 _atom_site_label
 _atom_site_symmetry_multiplicity
 _atom_site_fract_x
 _atom_site_fract_y
 _atom_site_fract_z
 _atom_site_occupancy
  Tm  Tm0  1  -0.00000000  0.75000000  0.76630374  1
  Tm  Tm1  1  -0.00000000  0.25000000  0.23369626  1
  Ta  Ta0  1  0.50000000  0.25000000  0.69878917  1
  Ta  Ta1  1  0.50000000  0.75000000  0.30121083  1
  O  O0  1  0.73532836  0.00677909  0.56288378  1
  O  O1  1  0.26467164  0.49322091  0.56288378  1
  O  O2  1  0.26467164  0.99322091  0.43711622  1
  O  O3  1  0.73532836  0.50677909  0.43711622  1
  O  O4  1  0.24821881  0.59384355  0.07868162  1
  O  O5  1  0.75178119  0.90615645  0.07868162  1
  O  O6  1  0.75178119  0.40615645  0.92131838  1
  O  O7  1  0.24821881  0.09384355  0.92131838  1
loop_
_geom_bond_atom_site_label_1
_geom_bond_atom_site_label_2
_geom_bond_distance
_geom_bond_site_symmetry_2
O0 Ta0 1.977353 1_555
O0 Ta1 2.208710 1_545
O0 Tm0 2.280292 1_645
O0 Tm1 2.491036 1_655
O1 Ta0 1.977353 1_555
O1 Ta1 2.208710 1_555
O1 Tm0 2.280292 1_555
O1 Tm1 2.491036 1_555
O2 Ta1 1.977353 1_555
O2 Ta0 2.208710 1_565
O2 Tm1 2.280292 1_565
O2 Tm0 2.491036 1_555
O3 Ta1 1.977353 1_555
O3 Ta0 2.208710 1_555
O3 Tm1 2.280292 1_655
O3 Tm0 2.491036 1_655
O4 Ta1 1.873427 1_555
O4 Tm1 2.245383 1_555
O4 Tm0 2.303945 1_554
O5 Ta1 1.873427 1_555
O5 Tm1 2.245383 1_665
O5 Tm0 2.303945 1_654
O6 Ta0 1.873427 1_555
O6 Tm0 2.245383 1_655
O6 Tm1 2.303945 1_656
O7 Ta0 1.873427 1_555
O7 Tm0 2.245383 1_545
O7 Tm1 2.303945 1_556
