# generated using pymatgen
data_Ba4Yb8Mg(CoO5)4
_symmetry_space_group_name_H-M   'P 1'
_cell_length_a   5.67098523
_cell_length_b   7.23059088
_cell_length_c   12.37238842
_cell_angle_alpha   91.25725524
_cell_angle_beta   90.21099179
_cell_angle_gamma   89.94993708
_symmetry_Int_Tables_number   1
_chemical_formula_structural   Ba4Yb8Mg(CoO5)4
_chemical_formula_sum   'Ba4 Yb8 Mg1 Co4 O20'
_cell_volume   507.19878410
_cell_formula_units_Z   1
loop_
 _symmetry_equiv_pos_site_id
 _symmetry_equiv_pos_as_xyz
  1  'x, y, z'
loop_
 _atom_site_type_symbol
 _atom_site_label
 _atom_site_symmetry_multiplicity
 _atom_site_fract_x
 _atom_site_fract_y
 _atom_site_fract_z
 _atom_site_occupancy
  Ba  Ba0  1  0.24885586  0.92074455  0.89515549  1
  Ba  Ba1  1  0.74910298  0.07866489  0.10585309  1
  Ba  Ba2  1  0.75132429  0.31586801  0.60265453  1
  Ba  Ba3  1  0.25234153  0.56812171  0.38650927  1
  Yb  Yb0  1  0.25223605  0.08838197  0.56444447  1
  Yb  Yb1  1  0.75138980  0.93028621  0.39195802  1
  Yb  Yb2  1  0.74870411  0.60338125  0.92610273  1
  Yb  Yb3  1  0.24942797  0.39985690  0.07590595  1
  Yb  Yb4  1  0.24906080  0.38372865  0.80173723  1
  Yb  Yb5  1  0.75038088  0.61881123  0.20158377  1
  Yb  Yb6  1  0.74854364  0.87984944  0.72392341  1
  Yb  Yb7  1  0.25005948  0.12711716  0.28982523  1
  Mg  Mg0  1  0.75384730  0.68379026  0.54082113  1
  Co  Co0  1  0.24994797  0.67223484  0.65533174  1
  Co  Co1  1  0.75162526  0.30728159  0.33777317  1
  Co  Co2  1  0.74938670  0.19478006  0.85641982  1
  Co  Co3  1  0.24979068  0.81244680  0.14950623  1
  O  O0  1  0.25049586  0.43739143  0.59825404  1
  O  O1  1  0.75135065  0.57547804  0.40190571  1
  O  O2  1  0.74956321  0.95292877  0.90648560  1
  O  O3  1  0.24918657  0.05306697  0.09937264  1
  O  O4  1  0.01816522  0.85329690  0.25976563  1
  O  O5  1  0.51441171  0.14885993  0.74615170  1
  O  O6  1  0.98506995  0.35426974  0.23066342  1
  O  O7  1  0.48756660  0.65198878  0.77237282  1
  O  O8  1  0.98405135  0.14803398  0.74715471  1
  O  O9  1  0.48222444  0.85361956  0.25993357  1
  O  O10  1  0.00516320  0.64773931  0.76945815  1
  O  O11  1  0.51249240  0.35632255  0.23147144  1
  O  O12  1  0.47499416  0.68233234  0.06674292  1
  O  O13  1  0.97518542  0.32416933  0.93783026  1
  O  O14  1  0.51768762  0.18536775  0.42679511  1
  O  O15  1  0.01284419  0.83936240  0.56860502  1
  O  O16  1  0.98418129  0.18485242  0.42642272  1
  O  O17  1  0.49144293  0.83684518  0.56793591  1
  O  O18  1  0.02407415  0.68080212  0.06699525  1
  O  O19  1  0.52382378  0.32385198  0.93795611  1
loop_
_geom_bond_atom_site_label_1
_geom_bond_atom_site_label_2
_geom_bond_distance
_geom_bond_site_symmetry_2
Ba0 O3 2.682028 1_566
Ba0 O7 2.792411 1_555
Ba0 O10 2.842409 1_555
Ba0 O2 2.844544 1_455
Ba0 O2 2.851908 1_555
Ba0 O8 2.901121 1_465
Ba0 O5 2.923237 1_565
Ba0 O12 3.043008 1_556
Ba0 O18 3.056267 1_556
Ba1 O2 2.610088 1_544
Ba1 O6 2.828576 1_555
Ba1 O3 2.841937 1_555
Ba1 O3 2.843150 1_655
Ba1 O11 2.849614 1_555
Ba1 O4 2.953012 1_645
Ba1 O9 2.955370 1_545
Ba1 O19 3.037822 1_554
Ba1 O13 3.049930 1_554
Ba1 O12 3.286982 1_545
Ba1 O18 3.297817 1_645
Ba2 O8 2.546730 1_555
Ba2 O5 2.555352 1_555
Ba2 O14 2.696448 1_555
Ba2 O16 2.706246 1_555
Ba2 Mg0 2.784259 1_555
Ba2 O0 2.965811 1_655
Ba2 O0 2.972934 1_555
Ba3 O0 2.804604 1_555
Ba3 O1 2.836044 1_555
Ba3 O11 2.844163 1_555
Ba3 O1 2.848563 1_455
Ba3 O6 2.873661 1_455
Ba3 O9 2.928317 1_555
Ba3 O4 2.931923 1_555
Ba3 O14 3.196838 1_555
Ba3 O16 3.210816 1_455
Ba3 O17 3.231613 1_555
Ba3 O15 3.254366 1_555
Mg0 O1 1.873045 1_555
Mg0 O15 1.876965 1_655
Mg0 O17 1.880479 1_555
Co0 O0 1.824689 1_555
Co0 O7 1.982117 1_555
Co0 O10 1.994497 1_555
Co0 O15 2.112602 1_555
Co0 O17 2.128767 1_555
Co1 O6 1.912503 1_555
Co1 O11 1.923812 1_555
Co1 O16 1.937997 1_555
Co1 O14 1.950795 1_555
Co1 O1 2.079099 1_555
Co2 O13 1.865673 1_555
Co2 O2 1.867960 1_545
Co2 O19 1.868428 1_555
Co2 O8 1.924886 1_555
Co2 O5 1.927348 1_555
Co3 O3 1.859859 1_565
Co3 O12 1.878817 1_555
Co3 O18 1.880574 1_555
Co3 O9 1.913714 1_555
Co3 O4 1.915319 1_555
O0 Yb0 2.548925 1_555
O0 Yb4 2.555742 1_555
O1 Yb5 2.504984 1_555
O1 Yb1 2.571119 1_555
O2 Yb6 2.308385 1_555
O2 Yb2 2.544368 1_555
O3 Yb7 2.404924 1_555
O3 Yb3 2.530571 1_555
O4 Yb1 2.291390 1_455
O4 Yb5 2.375256 1_455
O4 Yb7 2.399227 1_565
O5 Yb4 2.360787 1_555
O5 Yb6 2.365737 1_545
O5 Yb0 2.718335 1_555
O6 Yb7 2.352025 1_655
O6 Yb5 2.362580 1_555
O6 Yb3 2.464146 1_655
O7 Yb6 2.306149 1_555
O7 Yb4 2.400605 1_555
O7 Yb2 2.437605 1_555
O8 Yb4 2.359129 1_655
O8 Yb6 2.367237 1_545
O8 Yb0 2.755107 1_655
O9 Yb1 2.291039 1_555
O9 Yb5 2.380349 1_555
O9 Yb7 2.397470 1_565
O10 Yb6 2.298500 1_455
O10 Yb4 2.396131 1_555
O10 Yb2 2.454188 1_455
O11 Yb7 2.355311 1_555
O11 Yb5 2.365980 1_555
O11 Yb3 2.456381 1_555
O12 Yb5 2.333736 1_555
O12 Yb2 2.395364 1_554
O12 Yb3 2.415909 1_555
O13 Yb4 2.342036 1_655
O13 Yb3 2.361673 1_656
O13 Yb2 2.398633 1_555
O14 Yb7 2.302939 1_555
O14 Yb1 2.304144 1_545
O14 Yb0 2.394042 1_555
O15 Yb0 2.257556 1_565
O15 Yb6 2.453726 1_455
O15 Yb1 2.728502 1_455
O16 Yb1 2.297464 1_545
O16 Yb7 2.300139 1_655
O16 Yb0 2.396824 1_655
O17 Yb0 2.269065 1_565
O17 Yb6 2.429174 1_555
O17 Yb1 2.731307 1_555
O18 Yb5 2.331478 1_455
O18 Yb2 2.393607 1_454
O18 Yb3 2.403377 1_555
O19 Yb4 2.338219 1_555
O19 Yb3 2.369264 1_556
O19 Yb2 2.398304 1_555
