# generated using pymatgen
data_CeSbPt
_symmetry_space_group_name_H-M   'P 1'
_cell_length_a   5.08661812
_cell_length_b   5.08829700
_cell_length_c   5.92820400
_cell_angle_alpha   90.00000000
_cell_angle_beta   89.99230034
_cell_angle_gamma   59.98908764
_symmetry_Int_Tables_number   1
_chemical_formula_structural   CeSbPt
_chemical_formula_sum   'Ce2 Sb2 Pt2'
_cell_volume   132.86408091
_cell_formula_units_Z   2
loop_
 _symmetry_equiv_pos_site_id
 _symmetry_equiv_pos_as_xyz
  1  'x, y, z'
loop_
 _atom_site_type_symbol
 _atom_site_label
 _atom_site_symmetry_multiplicity
 _atom_site_fract_x
 _atom_site_fract_y
 _atom_site_fract_z
 _atom_site_occupancy
  Ce  Ce0  1  0.99991700  0.00004200  0.72899000  1
  Ce  Ce1  1  0.00008300  0.99995800  0.27101000  1
  Sb  Sb0  1  0.66675100  0.66662500  0.00351700  1
  Sb  Sb1  1  0.33324900  0.33337500  0.99648300  1
  Pt  Pt0  1  0.33321600  0.33339200  0.50020700  1
  Pt  Pt1  1  0.66678400  0.66660800  0.49979300  1
loop_
_geom_bond_atom_site_label_1
_geom_bond_atom_site_label_2
_geom_bond_distance
_geom_bond_site_symmetry_2
Ce0 Ce1 2.714999 1_645
Ce0 Ce1 3.213205 1_646
Ce0 Pt0 3.234851 1_555
Ce0 Pt0 3.235237 1_655
Ce0 Pt0 3.235241 1_645
Ce0 Pt1 3.236126 1_555
Ce0 Pt1 3.236130 1_545
Ce0 Pt1 3.236162 1_645
Ce0 Sb1 3.337045 1_555
Ce0 Sb1 3.338210 1_655
Ce0 Sb1 3.338218 1_645
Ce0 Sb0 3.357686 1_546
Ce0 Sb0 3.357686 1_556
Ce0 Sb0 3.358136 1_646
Ce1 Pt1 3.234851 1_555
Ce1 Pt1 3.235237 1_455
Ce1 Pt1 3.235241 1_465
Ce1 Pt0 3.236126 1_555
Ce1 Pt0 3.236130 1_565
Ce1 Pt0 3.236162 1_465
Ce1 Sb0 3.337045 1_555
Ce1 Sb0 3.338210 1_455
Ce1 Sb0 3.338218 1_465
Ce1 Sb1 3.357686 1_564
Ce1 Sb1 3.357686 1_554
Ce1 Sb1 3.358136 1_464
Sb0 Sb1 2.935984 1_654
Sb0 Sb1 2.938073 1_564
Sb0 Sb1 2.938081 1_554
Pt0 Pt1 2.935405 1_455
Pt0 Pt1 2.937924 1_555
Pt0 Pt1 2.937924 1_545
Pt0 Sb1 2.942025 1_555
Pt0 Sb1 2.986179 1_554
Pt1 Sb0 2.942025 1_555
Pt1 Sb0 2.986179 1_556
