# generated using pymatgen
data_Zn(NiO2)2
_symmetry_space_group_name_H-M   'P 1'
_cell_length_a   5.89618627
_cell_length_b   5.90335058
_cell_length_c   23.50044245
_cell_angle_alpha   59.84454838
_cell_angle_beta   60.61260492
_cell_angle_gamma   60.16127933
_symmetry_Int_Tables_number   1
_chemical_formula_structural   Zn(NiO2)2
_chemical_formula_sum   'Zn8 Ni16 O32'
_cell_volume   581.05068403
_cell_formula_units_Z   8
loop_
 _symmetry_equiv_pos_site_id
 _symmetry_equiv_pos_as_xyz
  1  'x, y, z'
loop_
 _atom_site_type_symbol
 _atom_site_label
 _atom_site_symmetry_multiplicity
 _atom_site_fract_x
 _atom_site_fract_y
 _atom_site_fract_z
 _atom_site_occupancy
  Zn  Zn0  1  0.14057700  0.12267200  0.02851600  1
  Zn  Zn1  1  0.99841800  0.50064600  0.12530600  1
  Zn  Zn2  1  0.13836900  0.11770800  0.28170900  1
  Zn  Zn3  1  0.00012000  0.50026400  0.37495200  1
  Zn  Zn4  1  0.99945200  0.49956200  0.62530000  1
  Zn  Zn5  1  0.50025200  0.50214400  0.49903700  1
  Zn  Zn6  1  0.99844000  0.50107800  0.87482600  1
  Zn  Zn7  1  0.50052100  0.49826200  0.75071700  1
  Ni  Ni0  1  0.49748200  0.50201100  0.12529200  1
  Ni  Ni1  1  0.49977000  0.50113200  0.24972500  1
  Ni  Ni2  1  0.49812700  0.99976000  0.12544000  1
  Ni  Ni3  1  0.12936500  0.11855700  0.53328300  1
  Ni  Ni4  1  0.50437600  0.49793000  0.37365700  1
  Ni  Ni5  1  0.86446800  0.88170000  0.21855000  1
  Ni  Ni6  1  0.13239500  0.11985300  0.78185600  1
  Ni  Ni7  1  0.50309400  0.00438400  0.37378100  1
  Ni  Ni8  1  0.49977700  0.50009400  0.62521800  1
  Ni  Ni9  1  0.87112000  0.88055000  0.46697900  1
  Ni  Ni10  1  0.49957700  0.99911700  0.62525100  1
  Ni  Ni11  1  0.49944200  0.99625100  0.87574500  1
  Ni  Ni12  1  0.49938300  0.50126900  0.87576100  1
  Ni  Ni13  1  0.87056600  0.88018000  0.71740900  1
  Ni  Ni14  1  0.49982500  0.49841300  0.00086100  1
  Ni  Ni15  1  0.86398200  0.87890800  0.96959100  1
  O  O0  1  0.28094700  0.25757000  0.06288100  1
  O  O1  1  0.27863700  0.25307500  0.17865400  1
  O  O2  1  0.28244400  0.71002900  0.06276900  1
  O  O3  1  0.72796400  0.26316100  0.06198800  1
  O  O4  1  0.26271300  0.74283700  0.18549300  1
  O  O5  1  0.28545900  0.25327400  0.31424700  1
  O  O6  1  0.71095800  0.29067800  0.18803300  1
  O  O7  1  0.27884100  0.25437500  0.43111500  1
  O  O8  1  0.28522000  0.70536400  0.31325300  1
  O  O9  1  0.71876300  0.74821500  0.07129600  1
  O  O10  1  0.72913000  0.25406300  0.31619500  1
  O  O11  1  0.72064900  0.74336500  0.18729400  1
  O  O12  1  0.27082700  0.24309200  0.56776600  1
  O  O13  1  0.27026100  0.75326500  0.42876000  1
  O  O14  1  0.72976100  0.28139500  0.43234000  1
  O  O15  1  0.27023200  0.24606500  0.68401500  1
  O  O16  1  0.26916800  0.71541000  0.56778500  1
  O  O17  1  0.72414300  0.74560900  0.31911300  1
  O  O18  1  0.72362700  0.24591300  0.57061400  1
  O  O19  1  0.72824300  0.76291400  0.43139100  1
  O  O20  1  0.27745900  0.75300900  0.67938000  1
  O  O21  1  0.26509500  0.24141400  0.81613600  1
  O  O22  1  0.73107200  0.28389000  0.68200800  1
  O  O23  1  0.28462800  0.25520700  0.92614900  1
  O  O24  1  0.26522300  0.72887000  0.81615000  1
  O  O25  1  0.72325500  0.75638500  0.56675900  1
  O  O26  1  0.75078300  0.24328500  0.81571300  1
  O  O27  1  0.73044400  0.75780100  0.68188900  1
  O  O28  1  0.26974500  0.73132000  0.94180900  1
  O  O29  1  0.71554900  0.28523900  0.93926100  1
  O  O30  1  0.71409500  0.74947700  0.82175300  1
  O  O31  1  0.71576800  0.74198800  0.93922500  1
loop_
_geom_bond_atom_site_label_1
_geom_bond_atom_site_label_2
_geom_bond_distance
_geom_bond_site_symmetry_2
Ni0 O6 1.930120 1_555
Ni0 O2 1.934069 1_555
Ni0 O9 1.958105 1_555
Ni0 O1 1.960761 1_555
Ni0 O4 2.019718 1_555
Ni0 O3 2.065099 1_555
Ni1 O6 1.922074 1_555
Ni1 O8 1.928705 1_555
Ni1 O11 1.940011 1_555
Ni1 O5 1.940936 1_555
Ni1 O4 2.046999 1_555
Ni1 O10 2.053684 1_555
Ni2 O0 1.943626 1_565
Ni2 O11 1.952023 1_555
Ni2 O1 1.959499 1_565
Ni2 O9 1.966704 1_555
Ni2 O4 2.059292 1_555
Ni2 O3 2.064466 1_565
Ni3 O12 1.940360 1_555
Ni3 O16 1.940596 1_545
Ni3 O18 1.967510 1_455
Ni3 O7 1.968929 1_555
Ni4 O14 1.907598 1_555
Ni4 O8 1.914014 1_555
Ni4 O17 1.957610 1_555
Ni4 O7 1.961815 1_555
Ni4 O10 1.987621 1_555
Ni4 O13 1.997651 1_555
Ni5 O4 1.929574 1_655
Ni5 O17 1.936486 1_555
Ni5 O11 1.956679 1_555
Ni5 O6 1.971156 1_565
Ni6 O26 1.849516 1_455
Ni6 O21 1.879978 1_555
Ni6 O24 1.882013 1_545
Ni6 O15 1.884108 1_555
Ni7 O19 1.889193 1_545
Ni7 O5 1.892965 1_555
Ni7 O10 1.990177 1_555
Ni7 O17 2.007499 1_545
Ni7 O7 2.012255 1_555
Ni7 O13 2.027733 1_545
Ni8 O22 1.900723 1_555
Ni8 O16 1.908866 1_555
Ni8 O20 1.972771 1_555
Ni8 O18 1.985385 1_555
Ni8 O25 2.007902 1_555
Ni8 O15 2.022977 1_555
Ni9 O25 1.923155 1_555
Ni9 O14 1.929961 1_565
Ni9 O19 1.936116 1_555
Ni9 O13 1.937442 1_655
Ni10 O27 1.896681 1_555
Ni10 O12 1.902314 1_565
Ni10 O20 1.961063 1_555
Ni10 O18 1.971678 1_565
Ni10 O25 2.000323 1_555
Ni10 O15 2.022162 1_565
Ni11 O23 1.940189 1_565
Ni11 O30 1.944302 1_555
Ni11 O31 1.953956 1_555
Ni11 O21 1.959315 1_565
Ni11 O28 2.072514 1_555
Ni11 O26 2.084448 1_565
Ni12 O23 1.935513 1_555
Ni12 O30 1.939362 1_555
Ni12 O29 1.953173 1_555
Ni12 O24 1.958337 1_555
Ni12 O28 2.076600 1_555
Ni12 O26 2.089944 1_555
Ni13 O22 1.943542 1_565
Ni13 O27 1.943702 1_555
Ni13 O20 1.973720 1_655
Ni13 O30 2.011627 1_555
Ni14 O31 1.925128 1_554
Ni14 O0 1.925925 1_555
Ni14 O2 1.929405 1_555
Ni14 O29 1.930672 1_554
Ni14 O28 1.931613 1_554
Ni14 O3 1.958255 1_555
Ni15 O31 1.954671 1_555
Ni15 O29 1.957857 1_565
Ni15 O9 1.958887 1_556
Ni15 O28 1.968104 1_655
O0 Zn0 1.982270 1_555
O0 Zn1 2.079448 1_455
O1 Zn2 1.983782 1_555
O1 Zn1 2.055889 1_455
O2 Zn0 1.986125 1_565
O2 Zn1 2.076431 1_455
O3 Zn0 1.998689 1_655
O5 Zn2 1.983351 1_555
O5 Zn3 2.069987 1_555
O6 Zn1 2.094021 1_555
O7 Zn3 2.092806 1_555
O8 Zn2 1.986003 1_565
O8 Zn3 2.064847 1_555
O9 Zn1 2.063499 1_555
O10 Zn2 1.982538 1_655
O11 Zn1 2.068296 1_555
O12 Zn4 2.050210 1_455
O12 Zn5 2.051828 1_555
O13 Zn5 2.121757 1_555
O14 Zn5 2.049845 1_555
O14 Zn3 2.053862 1_655
O15 Zn4 2.098172 1_455
O16 Zn4 2.038670 1_455
O16 Zn5 2.056171 1_555
O17 Zn3 2.075659 1_655
O18 Zn5 2.118386 1_555
O19 Zn5 2.051180 1_555
O19 Zn3 2.058905 1_655
O20 Zn7 2.112954 1_555
O21 Zn7 2.060946 1_555
O21 Zn6 2.078850 1_455
O22 Zn4 2.032628 1_555
O22 Zn7 2.059988 1_555
O23 Zn0 1.971230 1_556
O23 Zn6 2.051858 1_455
O24 Zn7 2.067027 1_555
O24 Zn6 2.072988 1_455
O25 Zn4 2.118858 1_555
O26 Zn7 2.113751 1_555
O27 Zn4 2.041781 1_555
O27 Zn7 2.055876 1_555
O29 Zn6 2.096724 1_555
O30 Zn6 2.070009 1_555
O31 Zn6 2.102139 1_555
