# generated using pymatgen
data_Zr3Bi
_symmetry_space_group_name_H-M   'P 1'
_cell_length_a   6.35020346
_cell_length_b   6.35020865
_cell_length_c   5.27371149
_cell_angle_alpha   89.99999995
_cell_angle_beta   89.99999986
_cell_angle_gamma   120.00000289
_symmetry_Int_Tables_number   1
_chemical_formula_structural   Zr3Bi
_chemical_formula_sum   'Zr6 Bi2'
_cell_volume   184.17158341
_cell_formula_units_Z   2
loop_
 _symmetry_equiv_pos_site_id
 _symmetry_equiv_pos_as_xyz
  1  'x, y, z'
loop_
 _atom_site_type_symbol
 _atom_site_label
 _atom_site_symmetry_multiplicity
 _atom_site_fract_x
 _atom_site_fract_y
 _atom_site_fract_z
 _atom_site_occupancy
  Zr  Zr0  1  0.16367218  0.32733771  0.25000001  1
  Zr  Zr1  1  0.67266104  0.83632770  0.25000000  1
  Zr  Zr2  1  0.16366806  0.83633419  0.25000000  1
  Zr  Zr3  1  0.83633761  0.67266596  0.75000000  1
  Zr  Zr4  1  0.32733404  0.16366304  0.74999999  1
  Zr  Zr5  1  0.83633116  0.16366895  0.75000000  1
  Bi  Bi0  1  0.33333635  0.66667132  0.75000000  1
  Bi  Bi1  1  0.66665956  0.33333113  0.25000000  1
loop_
_geom_bond_atom_site_label_1
_geom_bond_atom_site_label_2
_geom_bond_distance
_geom_bond_site_symmetry_2
Zr0 Zr2 3.117962 1_545
Zr0 Zr1 3.118018 1_445
Zr0 Zr4 3.192743 1_555
Zr0 Zr4 3.192744 1_554
Zr0 Zr5 3.192757 1_455
Zr0 Zr5 3.192757 1_454
Zr0 Zr1 3.232188 1_555
Zr0 Zr2 3.232247 1_555
Zr1 Zr2 3.117974 1_655
Zr1 Zr3 3.192749 1_554
Zr1 Zr3 3.192749 1_555
Zr1 Zr5 3.192759 1_564
Zr1 Zr5 3.192759 1_565
Zr1 Zr2 3.232230 1_555
Zr2 Zr4 3.192720 1_565
Zr2 Zr4 3.192720 1_564
Zr2 Zr3 3.192724 1_455
Zr2 Zr3 3.192724 1_454
Zr3 Zr4 3.117930 1_665
Zr3 Zr5 3.117992 1_565
Zr3 Zr5 3.232217 1_555
Zr3 Zr4 3.232275 1_555
Zr4 Zr5 3.117987 1_455
Zr4 Zr5 3.232217 1_555
Bi0 Zr4 3.175231 1_565
Bi0 Zr3 3.175248 1_455
Bi0 Zr5 3.175250 1_565
Bi0 Zr3 3.175298 1_555
Bi0 Zr5 3.175298 1_455
Bi0 Zr4 3.175321 1_555
Bi0 Zr1 3.230374 1_555
Bi0 Zr1 3.230374 1_556
Bi0 Zr2 3.230395 1_556
Bi0 Zr2 3.230395 1_555
Bi0 Zr0 3.230404 1_555
Bi0 Zr0 3.230404 1_556
Bi1 Zr0 3.175214 1_555
Bi1 Zr2 3.175237 1_545
Bi1 Zr1 3.175249 1_555
Bi1 Zr1 3.175302 1_545
Bi1 Zr2 3.175311 1_655
Bi1 Zr0 3.175332 1_655
Bi1 Zr4 3.230377 1_555
Bi1 Zr4 3.230377 1_554
Bi1 Zr5 3.230404 1_554
Bi1 Zr5 3.230404 1_555
Bi1 Zr3 3.230407 1_554
Bi1 Zr3 3.230407 1_555
