# generated using pymatgen
data_CaLa3Si8
_symmetry_space_group_name_H-M   'P 1'
_cell_length_a   4.26484300
_cell_length_b   4.26484300
_cell_length_c   14.16153500
_cell_angle_alpha   90.00000000
_cell_angle_beta   90.00000000
_cell_angle_gamma   90.00000000
_symmetry_Int_Tables_number   1
_chemical_formula_structural   CaLa3Si8
_chemical_formula_sum   'Ca1 La3 Si8'
_cell_volume   257.58254308
_cell_formula_units_Z   1
loop_
 _symmetry_equiv_pos_site_id
 _symmetry_equiv_pos_as_xyz
  1  'x, y, z'
loop_
 _atom_site_type_symbol
 _atom_site_label
 _atom_site_symmetry_multiplicity
 _atom_site_fract_x
 _atom_site_fract_y
 _atom_site_fract_z
 _atom_site_occupancy
  Ca  Ca0  1  0.50000000  0.50000000  0.00000000  1
  La  La0  1  0.00000000  0.00000000  0.50000000  1
  La  La1  1  0.50000000  0.00000000  0.75075300  1
  La  La2  1  0.00000000  0.50000000  0.24924700  1
  Si  Si0  1  0.00000000  0.00000000  0.91652400  1
  Si  Si1  1  0.50000000  0.50000000  0.41547400  1
  Si  Si2  1  0.00000000  0.50000000  0.83526200  1
  Si  Si3  1  0.50000000  0.00000000  0.33377400  1
  Si  Si4  1  0.00000000  0.00000000  0.08347600  1
  Si  Si5  1  0.50000000  0.50000000  0.58452600  1
  Si  Si6  1  0.50000000  0.00000000  0.16473800  1
  Si  Si7  1  0.00000000  0.50000000  0.66622600  1
loop_
_geom_bond_atom_site_label_1
_geom_bond_atom_site_label_2
_geom_bond_distance
_geom_bond_site_symmetry_2
Ca0 Si6 3.160671 1_565
Ca0 Si6 3.160671 1_555
Ca0 Si2 3.160671 1_554
Ca0 Si2 3.160671 1_654
Ca0 Si4 3.239123 1_565
Ca0 Si4 3.239123 1_665
Ca0 Si0 3.239123 1_564
Ca0 Si4 3.239123 1_655
Ca0 Si0 3.239123 1_654
Ca0 Si0 3.239123 1_664
Ca0 Si4 3.239123 1_555
Ca0 Si0 3.239123 1_554
La0 Si3 3.176257 1_455
La0 Si3 3.176257 1_555
La0 Si7 3.176257 1_555
La0 Si7 3.176257 1_545
La0 Si5 3.244579 1_555
La0 Si5 3.244579 1_455
La0 Si1 3.244579 1_455
La0 Si1 3.244579 1_445
La0 Si1 3.244579 1_545
La0 Si5 3.244579 1_545
La0 Si1 3.244579 1_555
La0 Si5 3.244579 1_445
La1 Si0 3.171485 1_655
La1 Si0 3.171485 1_555
La1 Si5 3.176268 1_545
La1 Si5 3.176268 1_555
La1 Si2 3.244490 1_545
La1 Si2 3.244490 1_645
La1 Si2 3.244490 1_555
La1 Si2 3.244490 1_655
La1 Si7 3.244585 1_645
La1 Si7 3.244585 1_655
La1 Si7 3.244585 1_555
La1 Si7 3.244585 1_545
La2 Si4 3.171485 1_555
La2 Si4 3.171485 1_565
La2 Si1 3.176268 1_455
La2 Si1 3.176268 1_555
La2 Si6 3.244490 1_455
La2 Si6 3.244490 1_555
La2 Si6 3.244490 1_565
La2 Si6 3.244490 1_465
La2 Si3 3.244585 1_465
La2 Si3 3.244585 1_555
La2 Si3 3.244585 1_455
La2 Si3 3.244585 1_565
Si0 Si4 2.364297 1_556
Si0 Si2 2.423128 1_555
Si0 Si2 2.423128 1_545
Si1 Si5 2.394036 1_555
Si1 Si3 2.426080 1_565
Si1 Si3 2.426080 1_555
Si2 Si7 2.393809 1_555
Si3 Si6 2.393809 1_555
Si4 Si6 2.423128 1_455
Si4 Si6 2.423128 1_555
Si5 Si7 2.426080 1_655
Si5 Si7 2.426080 1_555
