# generated using pymatgen
data_ZrAl2Si
_symmetry_space_group_name_H-M   'P 1'
_cell_length_a   3.91833700
_cell_length_b   3.91833700
_cell_length_c   5.15317204
_cell_angle_alpha   67.65474591
_cell_angle_beta   67.65474591
_cell_angle_gamma   90.00000000
_symmetry_Int_Tables_number   1
_chemical_formula_structural   ZrAl2Si
_chemical_formula_sum   'Zr1 Al2 Si1'
_cell_volume   66.70944905
_cell_formula_units_Z   1
loop_
 _symmetry_equiv_pos_site_id
 _symmetry_equiv_pos_as_xyz
  1  'x, y, z'
loop_
 _atom_site_type_symbol
 _atom_site_label
 _atom_site_symmetry_multiplicity
 _atom_site_fract_x
 _atom_site_fract_y
 _atom_site_fract_z
 _atom_site_occupancy
  Zr  Zr0  1  0.00000000  0.00000000  0.00000000  1
  Al  Al0  1  0.25000000  0.75000000  0.50000000  1
  Al  Al1  1  0.50000000  0.50000000  0.00000000  1
  Si  Si0  1  0.75000000  0.25000000  0.50000000  1
loop_
_geom_bond_atom_site_label_1
_geom_bond_atom_site_label_2
_geom_bond_distance
_geom_bond_site_symmetry_2
Al0 Si0 2.770683 1_455
Al0 Si0 2.770683 1_465
Al0 Si0 2.770683 1_565
Al0 Si0 2.770683 1_555
Al0 Al1 2.925400 1_555
Al0 Zr0 2.925400 1_566
Al0 Zr0 2.925400 1_565
Al0 Al1 2.925400 1_556
Al0 Al1 2.925401 1_456
Al0 Al1 2.925401 1_565
Al0 Zr0 2.925401 1_556
Al0 Zr0 2.925401 1_665
Al1 Zr0 2.770683 1_655
Al1 Zr0 2.770683 1_565
Al1 Zr0 2.770683 1_665
Al1 Zr0 2.770683 1_555
Al1 Si0 2.925400 1_555
Al1 Si0 2.925400 1_554
Al1 Si0 2.925401 1_455
Al1 Si0 2.925401 1_564
Si0 Zr0 2.925400 1_655
Si0 Zr0 2.925400 1_656
Si0 Zr0 2.925401 1_556
Si0 Zr0 2.925401 1_665
