# generated using pymatgen
data_ZnCr(GeO3)2
_symmetry_space_group_name_H-M   'P 1'
_cell_length_a   5.47728401
_cell_length_b   10.04402003
_cell_length_c   9.22848060
_cell_angle_alpha   89.95270255
_cell_angle_beta   89.97871180
_cell_angle_gamma   76.00604393
_symmetry_Int_Tables_number   1
_chemical_formula_structural   ZnCr(GeO3)2
_chemical_formula_sum   'Zn4 Cr4 Ge8 O24'
_cell_volume   492.62723408
_cell_formula_units_Z   4
loop_
 _symmetry_equiv_pos_site_id
 _symmetry_equiv_pos_as_xyz
  1  'x, y, z'
loop_
 _atom_site_type_symbol
 _atom_site_label
 _atom_site_symmetry_multiplicity
 _atom_site_fract_x
 _atom_site_fract_y
 _atom_site_fract_z
 _atom_site_occupancy
  Zn  Zn0  1  0.75013800  0.50007400  0.25085800  1
  Zn  Zn1  1  0.75001600  0.00002200  0.75081700  1
  Zn  Zn2  1  0.24993200  0.49998900  0.74923400  1
  Zn  Zn3  1  0.24991400  0.99994000  0.24909200  1
  Cr  Cr0  1  0.74972800  0.00014800  0.09590400  1
  Cr  Cr1  1  0.25037200  0.49984900  0.40408300  1
  Cr  Cr2  1  0.74997700  0.50002400  0.59599200  1
  Cr  Cr3  1  0.25004100  0.99996200  0.90399800  1
  Ge  Ge0  1  0.74295000  0.30269300  0.91193300  1
  Ge  Ge1  1  0.74301000  0.80281900  0.41185300  1
  Ge  Ge2  1  0.75699100  0.69726900  0.91181000  1
  Ge  Ge3  1  0.75720000  0.19720300  0.41186800  1
  Ge  Ge4  1  0.25691900  0.69727500  0.08812500  1
  Ge  Ge5  1  0.25705400  0.19722800  0.58810500  1
  Ge  Ge6  1  0.24284300  0.30267900  0.08809300  1
  Ge  Ge7  1  0.24296800  0.80282500  0.58824000  1
  O  O0  1  0.52816800  0.35977000  0.06025900  1
  O  O1  1  0.52814100  0.85997400  0.56012400  1
  O  O2  1  0.97169700  0.64016900  0.06023300  1
  O  O3  1  0.97185500  0.14009600  0.56030200  1
  O  O4  1  0.47175100  0.64013800  0.93982400  1
  O  O5  1  0.47184700  0.14021400  0.43978800  1
  O  O6  1  0.02823700  0.35980500  0.93962600  1
  O  O7  1  0.02824800  0.85984200  0.43981800  1
  O  O8  1  0.10363300  0.38703800  0.24489500  1
  O  O9  1  0.10369300  0.88716200  0.74493800  1
  O  O10  1  0.39614600  0.61279700  0.24502100  1
  O  O11  1  0.39627400  0.11290800  0.74491800  1
  O  O12  1  0.89627000  0.61285000  0.75505000  1
  O  O13  1  0.89637700  0.11294100  0.25512400  1
  O  O14  1  0.60364700  0.38707800  0.75506600  1
  O  O15  1  0.60386700  0.88721500  0.25501100  1
  O  O16  1  0.83275900  0.12173100  0.91720800  1
  O  O17  1  0.83279200  0.62177000  0.41710300  1
  O  O18  1  0.66701100  0.87817600  0.91695600  1
  O  O19  1  0.66732900  0.37824200  0.41719800  1
  O  O20  1  0.16712100  0.87821100  0.08288900  1
  O  O21  1  0.16728700  0.37830900  0.58276300  1
  O  O22  1  0.33279600  0.12174900  0.08278300  1
  O  O23  1  0.33300300  0.62181700  0.58309800  1
loop_
_geom_bond_atom_site_label_1
_geom_bond_atom_site_label_2
_geom_bond_distance
_geom_bond_site_symmetry_2
Cr0 O15 2.124977 1_545
Cr0 O13 2.128706 1_555
Cr0 O16 2.163871 1_554
Cr0 O18 2.169246 1_544
Cr0 O22 2.317861 1_555
Cr0 O20 2.320968 1_645
Cr1 O10 2.124544 1_555
Cr1 O8 2.128864 1_555
Cr1 O21 2.163596 1_555
Cr1 O23 2.169530 1_555
Cr1 O19 2.317993 1_555
Cr1 O17 2.321802 1_455
Cr2 O14 2.126147 1_555
Cr2 O12 2.126893 1_555
Cr2 O17 2.165825 1_555
Cr2 O19 2.166858 1_555
Cr2 O23 2.318507 1_555
Cr2 O21 2.320036 1_655
Cr3 O11 2.125916 1_565
Cr3 O9 2.126895 1_555
Cr3 O20 2.166069 1_556
Cr3 O22 2.167028 1_566
Cr3 O18 2.318498 1_555
Cr3 O16 2.320052 1_465
Ge0 O14 1.755631 1_555
Ge0 O16 1.765055 1_555
Ge0 O0 1.805608 1_556
Ge0 O6 1.808351 1_655
Ge1 O15 1.755204 1_555
Ge1 O17 1.765885 1_555
Ge1 O1 1.805623 1_555
Ge1 O7 1.807987 1_655
Ge2 O12 1.755591 1_555
Ge2 O18 1.764591 1_555
Ge2 O2 1.806030 1_556
Ge2 O4 1.808331 1_555
Ge3 O13 1.754695 1_555
Ge3 O19 1.765897 1_555
Ge3 O3 1.805958 1_555
Ge3 O5 1.808040 1_555
Ge4 O10 1.756072 1_555
Ge4 O20 1.764792 1_555
Ge4 O4 1.805688 1_554
Ge4 O2 1.808246 1_455
Ge5 O11 1.754829 1_555
Ge5 O21 1.766215 1_555
Ge5 O5 1.805479 1_555
Ge5 O3 1.808148 1_455
Ge6 O8 1.755562 1_555
Ge6 O22 1.764851 1_555
Ge6 O6 1.806065 1_554
Ge6 O0 1.808322 1_555
Ge7 O9 1.754800 1_555
Ge7 O23 1.765575 1_555
Ge7 O7 1.805934 1_555
Ge7 O1 1.808215 1_555
O8 Zn0 1.994425 1_455
O9 Zn1 1.994644 1_465
O10 Zn0 1.995603 1_555
O11 Zn1 1.995021 1_555
O12 Zn2 1.994563 1_655
O13 Zn3 1.994517 1_645
O14 Zn2 1.994965 1_555
O15 Zn3 1.995452 1_555
O16 Zn1 2.080675 1_555
O17 Zn0 2.079421 1_555
O18 Zn1 2.078620 1_565
O19 Zn0 2.079510 1_555
O20 Zn3 2.079622 1_555
O21 Zn2 2.080841 1_555
O22 Zn3 2.079295 1_545
O23 Zn2 2.078614 1_555
