# generated using pymatgen
data_Na4SrU3O12
_symmetry_space_group_name_H-M   'P 1'
_cell_length_a   7.52650381
_cell_length_b   7.52650381
_cell_length_c   7.52650381
_cell_angle_alpha   109.47122063
_cell_angle_beta   109.47122063
_cell_angle_gamma   109.47122063
_symmetry_Int_Tables_number   1
_chemical_formula_structural   Na4SrU3O12
_chemical_formula_sum   'Na4 Sr1 U3 O12'
_cell_volume   328.21465332
_cell_formula_units_Z   1
loop_
 _symmetry_equiv_pos_site_id
 _symmetry_equiv_pos_as_xyz
  1  'x, y, z'
loop_
 _atom_site_type_symbol
 _atom_site_label
 _atom_site_symmetry_multiplicity
 _atom_site_fract_x
 _atom_site_fract_y
 _atom_site_fract_z
 _atom_site_occupancy
  Na  Na0  1  0.50000000  0.50000000  0.50000000  1
  Na  Na1  1  0.00000000  0.00000000  0.50000000  1
  Na  Na2  1  0.00000000  0.50000000  0.00000000  1
  Na  Na3  1  0.50000000  0.00000000  0.00000000  1
  Sr  Sr0  1  0.00000000  0.00000000  0.00000000  1
  U  U0  1  0.00000000  0.50000000  0.50000000  1
  U  U1  1  0.50000000  0.00000000  0.50000000  1
  U  U2  1  0.50000000  0.50000000  0.00000000  1
  O  O0  1  0.50000000  0.75000000  0.25000000  1
  O  O1  1  0.50000000  0.25000000  0.75000000  1
  O  O2  1  0.25000000  0.50000000  0.75000000  1
  O  O3  1  0.75000000  0.50000000  0.25000000  1
  O  O4  1  0.75000000  0.25000000  0.50000000  1
  O  O5  1  0.25000000  0.75000000  0.50000000  1
  O  O6  1  0.00000000  0.27635200  0.27635200  1
  O  O7  1  0.00000000  0.72364800  0.72364800  1
  O  O8  1  0.27635200  0.00000000  0.27635200  1
  O  O9  1  0.72364800  0.00000000  0.72364800  1
  O  O10  1  0.27635200  0.27635200  0.00000000  1
  O  O11  1  0.72364800  0.72364800  0.00000000  1
loop_
_geom_bond_atom_site_label_1
_geom_bond_atom_site_label_2
_geom_bond_distance
_geom_bond_site_symmetry_2
Na0 O4 3.072682 1_555
Na0 O1 3.072682 1_555
Na0 O5 3.072682 1_555
Na0 O2 3.072682 1_555
Na0 O3 3.072682 1_555
Na0 O0 3.072682 1_555
Na0 O10 3.081206 1_555
Na0 O11 3.081206 1_556
Na0 O6 3.081206 1_555
Na0 O9 3.081206 1_565
Na0 O7 3.081206 1_655
Na0 O8 3.081206 1_555
Na1 O5 3.072682 1_545
Na1 O4 3.072682 1_455
Na1 O3 3.072682 1_445
Na1 O0 3.072682 1_445
Na1 O1 3.072682 1_555
Na1 O2 3.072682 1_555
Na1 O7 3.081206 1_545
Na1 O11 3.081206 1_445
Na1 O6 3.081206 1_555
Na1 O10 3.081206 1_556
Na1 O8 3.081206 1_555
Na1 O9 3.081206 1_455
Na2 O2 3.072682 1_554
Na2 O3 3.072682 1_455
Na2 O4 3.072682 1_454
Na2 O5 3.072682 1_555
Na2 O0 3.072682 1_555
Na2 O1 3.072682 1_454
Na2 O10 3.081206 1_555
Na2 O8 3.081206 1_565
Na2 O6 3.081206 1_555
Na2 O7 3.081206 1_554
Na2 O11 3.081206 1_455
Na2 O9 3.081206 1_454
Na3 O4 3.072682 1_555
Na3 O1 3.072682 1_554
Na3 O0 3.072682 1_545
Na3 O5 3.072682 1_544
Na3 O2 3.072682 1_544
Na3 O3 3.072682 1_555
Na3 O9 3.081206 1_554
Na3 O7 3.081206 1_544
Na3 O10 3.081206 1_555
Na3 O11 3.081206 1_545
Na3 O6 3.081206 1_655
Na3 O8 3.081206 1_555
O0 U2 2.172715 1_555
O0 U1 2.172715 1_565
O1 U1 2.172715 1_555
O1 U2 2.172715 1_556
O2 U0 2.172715 1_555
O2 U2 2.172715 1_556
O3 U0 2.172715 1_655
O3 U2 2.172715 1_555
O4 U0 2.172715 1_655
O4 U1 2.172715 1_555
O5 U0 2.172715 1_555
O5 U1 2.172715 1_565
O6 U0 1.943693 1_555
O6 Sr0 2.401736 1_555
O7 U0 1.943693 1_555
O7 Sr0 2.401736 1_566
O8 U1 1.943693 1_555
O8 Sr0 2.401736 1_555
O9 U1 1.943693 1_555
O9 Sr0 2.401736 1_656
O10 U2 1.943693 1_555
O10 Sr0 2.401736 1_555
O11 U2 1.943693 1_555
O11 Sr0 2.401736 1_665
