# generated using pymatgen
data_CaTiH6(OF3)2
_symmetry_space_group_name_H-M   'P 1'
_cell_length_a   5.86343787
_cell_length_b   6.73271408
_cell_length_c   6.73271408
_cell_angle_alpha   133.35703651
_cell_angle_beta   94.81320134
_cell_angle_gamma   85.18679866
_symmetry_Int_Tables_number   1
_chemical_formula_structural   CaTiH6(OF3)2
_chemical_formula_sum   'Ca1 Ti1 H6 O2 F6'
_cell_volume   192.44209794
_cell_formula_units_Z   1
loop_
 _symmetry_equiv_pos_site_id
 _symmetry_equiv_pos_as_xyz
  1  'x, y, z'
loop_
 _atom_site_type_symbol
 _atom_site_label
 _atom_site_symmetry_multiplicity
 _atom_site_fract_x
 _atom_site_fract_y
 _atom_site_fract_z
 _atom_site_occupancy
  Ca  Ca0  1  0.50000000  0.34087800  0.34087800  1
  Ti  Ti0  1  0.00000000  0.95223100  0.95223100  1
  H  H0  1  0.75382200  0.86279100  0.28498800  1
  H  H1  1  0.74698600  0.51554200  0.15075700  1
  H  H2  1  0.24939000  0.48120100  0.77362800  1
  H  H3  1  0.75061000  0.77362800  0.48120100  1
  H  H4  1  0.24617800  0.28498800  0.86279100  1
  H  H5  1  0.25301400  0.15075700  0.51554200  1
  O  O0  1  0.71131000  0.72657500  0.30446500  1
  O  O1  1  0.28869000  0.30446500  0.72657500  1
  F  F0  1  0.75438200  0.68491900  0.64921000  1
  F  F1  1  0.78319600  0.03903200  0.25764100  1
  F  F2  1  0.26081000  0.02074000  0.24111700  1
  F  F3  1  0.73918900  0.24111700  0.02074000  1
  F  F4  1  0.24561700  0.64921000  0.68491900  1
  F  F5  1  0.21680300  0.25764100  0.03903200  1
loop_
_geom_bond_atom_site_label_1
_geom_bond_atom_site_label_2
_geom_bond_distance
_geom_bond_site_symmetry_2
Ca0 F1 2.286353 1_555
Ca0 F5 2.286357 1_555
Ca0 F0 2.314568 1_555
Ca0 F4 2.314572 1_555
Ca0 F3 2.329202 1_555
Ca0 F2 2.329206 1_555
H0 O0 1.062726 1_555
H1 O0 1.049270 1_555
H2 O1 1.008956 1_555
H3 O0 1.008956 1_555
H4 O1 1.062726 1_555
H5 O1 1.049270 1_555
F0 H3 1.599355 1_555
F0 Ti0 2.091803 1_655
F1 H0 1.345784 1_545
F1 Ti0 2.202184 1_644
F2 H5 1.403130 1_555
F2 Ti0 2.172949 1_544
F3 H1 1.403131 1_555
F3 Ti0 2.172953 1_644
F4 H2 1.599355 1_555
F4 Ti0 2.091799 1_555
F5 H4 1.345786 1_554
F5 Ti0 2.202181 1_544
