# generated using pymatgen
data_Tb(BIr)2
_symmetry_space_group_name_H-M   'P 1'
_cell_length_a   6.47572875
_cell_length_b   6.47572875
_cell_length_c   8.29749619
_cell_angle_alpha   112.93292155
_cell_angle_beta   112.93292155
_cell_angle_gamma   90.08349686
_symmetry_Int_Tables_number   1
_chemical_formula_structural   Tb(BIr)2
_chemical_formula_sum   'Tb4 B8 Ir8'
_cell_volume   290.26627148
_cell_formula_units_Z   4
loop_
 _symmetry_equiv_pos_site_id
 _symmetry_equiv_pos_as_xyz
  1  'x, y, z'
loop_
 _atom_site_type_symbol
 _atom_site_label
 _atom_site_symmetry_multiplicity
 _atom_site_fract_x
 _atom_site_fract_y
 _atom_site_fract_z
 _atom_site_occupancy
  Tb  Tb0  1  0.62500000  0.87500000  0.75000000  1
  Tb  Tb1  1  0.12500000  0.87500000  0.75000000  1
  Tb  Tb2  1  0.12500000  0.37500000  0.25000000  1
  Tb  Tb3  1  0.12500000  0.87500000  0.25000000  1
  B  B0  1  0.38821900  0.24574800  0.77910700  1
  B  B1  1  0.39088800  0.53335900  0.77910700  1
  B  B2  1  0.75425200  0.61178100  0.22089300  1
  B  B3  1  0.86178100  0.50425200  0.72089300  1
  B  B4  1  0.46664100  0.60911200  0.22089300  1
  B  B5  1  0.85911200  0.21664100  0.72089300  1
  B  B6  1  0.49574800  0.13821900  0.27910700  1
  B  B7  1  0.78335900  0.14088800  0.27910700  1
  Ir  Ir0  1  0.18129200  0.46966900  0.94091200  1
  Ir  Ir1  1  0.75962000  0.47124200  0.94091200  1
  Ir  Ir2  1  0.53033100  0.81870800  0.05908800  1
  Ir  Ir3  1  0.06870800  0.28033100  0.55908800  1
  Ir  Ir4  1  0.52875800  0.24038000  0.05908800  1
  Ir  Ir5  1  0.49038000  0.27875800  0.55908800  1
  Ir  Ir6  1  0.71966900  0.93129200  0.44091200  1
  Ir  Ir7  1  0.72124200  0.50962000  0.44091200  1
loop_
_geom_bond_atom_site_label_1
_geom_bond_atom_site_label_2
_geom_bond_distance
_geom_bond_site_symmetry_2
B0 B1 1.862546 1_555
B0 Ir4 2.154489 1_556
B0 Ir3 2.245066 1_555
B0 Ir5 2.249696 1_555
B0 Ir0 2.364591 1_555
B0 Ir1 2.380090 1_555
B0 Tb1 2.818385 1_545
B0 Tb0 2.832141 1_545
B1 Ir2 2.154489 1_556
B1 Ir5 2.245063 1_555
B1 Ir3 2.249694 1_555
B1 Ir1 2.364594 1_555
B1 Ir0 2.380092 1_555
B1 Tb0 2.818385 1_555
B1 Tb1 2.832141 1_555
B2 B4 1.862546 1_555
B2 Ir1 2.154489 1_554
B2 Ir6 2.245066 1_555
B2 Ir7 2.249696 1_555
B2 Ir2 2.364591 1_555
B2 Ir4 2.380090 1_555
B2 Tb3 2.818385 1_655
B2 Tb2 2.832141 1_655
B3 B5 1.862546 1_555
B3 Ir7 2.154489 1_555
B3 Ir0 2.245066 1_655
B3 Ir1 2.249696 1_555
B3 Ir3 2.364591 1_655
B3 Ir5 2.380090 1_555
B3 Tb1 2.818385 1_655
B3 Tb0 2.832141 1_555
B4 Ir0 2.154489 1_554
B4 Ir7 2.245063 1_555
B4 Ir6 2.249694 1_555
B4 Ir4 2.364594 1_555
B4 Ir2 2.380092 1_555
B4 Tb2 2.818385 1_555
B4 Tb3 2.832141 1_555
B5 Ir6 2.154489 1_545
B5 Ir1 2.245063 1_555
B5 Ir0 2.249694 1_655
B5 Ir5 2.364594 1_555
B5 Ir3 2.380092 1_655
B5 Tb0 2.818385 1_545
B5 Tb1 2.832141 1_645
B6 B7 1.862546 1_555
B6 Ir5 2.154489 1_555
B6 Ir2 2.245066 1_545
B6 Ir4 2.249696 1_555
B6 Ir6 2.364591 1_545
B6 Ir7 2.380090 1_555
B6 Tb3 2.818385 1_545
B6 Tb2 2.832141 1_555
B7 Ir3 2.154489 1_655
B7 Ir4 2.245063 1_555
B7 Ir2 2.249694 1_545
B7 Ir7 2.364594 1_555
B7 Ir6 2.380092 1_545
B7 Tb2 2.818385 1_655
B7 Tb3 2.832141 1_645
Ir0 Tb2 3.006555 1_556
Ir0 Tb3 3.014177 1_556
Ir1 Tb3 3.006559 1_656
Ir1 Tb2 3.014173 1_656
Ir2 Tb0 3.006555 1_554
Ir2 Tb1 3.014177 1_554
Ir3 Tb2 3.006555 1_555
Ir3 Tb3 3.014177 1_545
Ir4 Tb1 3.006559 1_544
Ir4 Tb0 3.014173 1_544
Ir5 Tb3 3.006559 1_545
Ir5 Tb2 3.014173 1_555
Ir6 Tb0 3.006555 1_555
Ir6 Tb1 3.014177 1_655
Ir7 Tb1 3.006559 1_655
Ir7 Tb0 3.014173 1_555
