# generated using pymatgen
data_Sr5W3O14
_symmetry_space_group_name_H-M   'P 1'
_cell_length_a   10.82182900
_cell_length_b   10.91169100
_cell_length_c   11.06534200
_cell_angle_alpha   90.00000000
_cell_angle_beta   90.00000000
_cell_angle_gamma   90.00000000
_symmetry_Int_Tables_number   1
_chemical_formula_structural   Sr5W3O14
_chemical_formula_sum   'Sr20 W12 O56'
_cell_volume   1306.64486953
_cell_formula_units_Z   4
loop_
 _symmetry_equiv_pos_site_id
 _symmetry_equiv_pos_as_xyz
  1  'x, y, z'
loop_
 _atom_site_type_symbol
 _atom_site_label
 _atom_site_symmetry_multiplicity
 _atom_site_fract_x
 _atom_site_fract_y
 _atom_site_fract_z
 _atom_site_occupancy
  Sr  Sr0  1  0.00000000  0.00000000  0.50000000  1
  Sr  Sr1  1  0.50000000  0.00000000  0.00000000  1
  Sr  Sr2  1  0.74941800  0.99722100  0.22393400  1
  Sr  Sr3  1  0.75058200  0.99722100  0.72393400  1
  Sr  Sr4  1  0.48553000  0.75826300  0.25684300  1
  Sr  Sr5  1  0.01447000  0.75826300  0.75684300  1
  Sr  Sr6  1  0.51447000  0.74173700  0.75684300  1
  Sr  Sr7  1  0.98553000  0.74173700  0.25684300  1
  Sr  Sr8  1  0.24941800  0.50277900  0.22393400  1
  Sr  Sr9  1  0.25058200  0.50277900  0.72393400  1
  Sr  Sr10  1  0.50000000  0.50000000  0.50000000  1
  Sr  Sr11  1  0.00000000  0.50000000  0.00000000  1
  Sr  Sr12  1  0.74941800  0.49722100  0.27606600  1
  Sr  Sr13  1  0.75058200  0.49722100  0.77606600  1
  Sr  Sr14  1  0.01447000  0.25826300  0.74315700  1
  Sr  Sr15  1  0.48553000  0.25826300  0.24315700  1
  Sr  Sr16  1  0.98553000  0.24173700  0.24315700  1
  Sr  Sr17  1  0.51447000  0.24173700  0.74315700  1
  Sr  Sr18  1  0.25058200  0.00277900  0.77606600  1
  Sr  Sr19  1  0.24941800  0.00277900  0.27606600  1
  W  W0  1  0.00000000  0.00000000  0.00000000  1
  W  W1  1  0.50000000  0.00000000  0.50000000  1
  W  W2  1  0.25394200  0.75292900  0.00233600  1
  W  W3  1  0.24605800  0.75292900  0.50233600  1
  W  W4  1  0.75394200  0.74707100  0.00233600  1
  W  W5  1  0.74605800  0.74707100  0.50233600  1
  W  W6  1  0.00000000  0.50000000  0.50000000  1
  W  W7  1  0.50000000  0.50000000  0.00000000  1
  W  W8  1  0.24605800  0.25292900  0.99766400  1
  W  W9  1  0.25394200  0.25292900  0.49766400  1
  W  W10  1  0.74605800  0.24707100  0.99766400  1
  W  W11  1  0.75394200  0.24707100  0.49766400  1
  O  O0  1  0.54495700  0.99133100  0.33273200  1
  O  O1  1  0.95504300  0.99133100  0.83273200  1
  O  O2  1  0.37334600  0.87821800  0.45949100  1
  O  O3  1  0.12665400  0.87821800  0.95949100  1
  O  O4  1  0.88267900  0.87006500  0.04816900  1
  O  O5  1  0.61732100  0.87006500  0.54816900  1
  O  O6  1  0.32479700  0.85692700  0.12634300  1
  O  O7  1  0.17520300  0.85692700  0.62634300  1
  O  O8  1  0.81562200  0.84737800  0.37574300  1
  O  O9  1  0.68437800  0.84737800  0.87574300  1
  O  O10  1  0.13494100  0.83761500  0.39129800  1
  O  O11  1  0.36505900  0.83761500  0.89129800  1
  O  O12  1  0.64050400  0.82935200  0.11093300  1
  O  O13  1  0.85949600  0.82935200  0.61093300  1
  O  O14  1  0.35949600  0.67064800  0.61093300  1
  O  O15  1  0.14050400  0.67064800  0.11093300  1
  O  O16  1  0.86505900  0.66238500  0.89129800  1
  O  O17  1  0.63494100  0.66238500  0.39129800  1
  O  O18  1  0.18437800  0.65262200  0.87574300  1
  O  O19  1  0.31562200  0.65262200  0.37574300  1
  O  O20  1  0.67520300  0.64307300  0.62634300  1
  O  O21  1  0.82479700  0.64307300  0.12634300  1
  O  O22  1  0.38267900  0.62993500  0.04816900  1
  O  O23  1  0.11732100  0.62993500  0.54816900  1
  O  O24  1  0.87334600  0.62178200  0.45949100  1
  O  O25  1  0.62665400  0.62178200  0.95949100  1
  O  O26  1  0.45504300  0.50866900  0.83273200  1
  O  O27  1  0.04495700  0.50866900  0.33273200  1
  O  O28  1  0.54495700  0.49133100  0.16726800  1
  O  O29  1  0.95504300  0.49133100  0.66726800  1
  O  O30  1  0.37334600  0.37821800  0.04050900  1
  O  O31  1  0.12665400  0.37821800  0.54050900  1
  O  O32  1  0.88267900  0.37006500  0.45183100  1
  O  O33  1  0.61732100  0.37006500  0.95183100  1
  O  O34  1  0.32479700  0.35692700  0.37365700  1
  O  O35  1  0.17520300  0.35692700  0.87365700  1
  O  O36  1  0.81562200  0.34737800  0.12425700  1
  O  O37  1  0.68437800  0.34737800  0.62425700  1
  O  O38  1  0.36505900  0.33761500  0.60870200  1
  O  O39  1  0.13494100  0.33761500  0.10870200  1
  O  O40  1  0.64050400  0.32935200  0.38906700  1
  O  O41  1  0.85949600  0.32935200  0.88906700  1
  O  O42  1  0.35949600  0.17064800  0.88906700  1
  O  O43  1  0.14050400  0.17064800  0.38906700  1
  O  O44  1  0.86505900  0.16238500  0.60870200  1
  O  O45  1  0.63494100  0.16238500  0.10870200  1
  O  O46  1  0.31562200  0.15262200  0.12425700  1
  O  O47  1  0.18437800  0.15262200  0.62425700  1
  O  O48  1  0.82479700  0.14307300  0.37365700  1
  O  O49  1  0.67520300  0.14307300  0.87365700  1
  O  O50  1  0.38267900  0.12993500  0.45183100  1
  O  O51  1  0.11732100  0.12993500  0.95183100  1
  O  O52  1  0.87334600  0.12178200  0.04050900  1
  O  O53  1  0.62665400  0.12178200  0.54050900  1
  O  O54  1  0.04495700  0.00866900  0.16726800  1
  O  O55  1  0.45504300  0.00866900  0.66726800  1
loop_
_geom_bond_atom_site_label_1
_geom_bond_atom_site_label_2
_geom_bond_distance
_geom_bond_site_symmetry_2
O0 W1 1.916088 1_565
O0 Sr2 2.519774 1_555
O0 Sr4 2.754350 1_555
O0 Sr15 3.143203 1_565
O1 W0 1.916088 1_666
O1 Sr3 2.519774 1_555
O1 Sr5 2.754350 1_655
O1 Sr14 3.143203 1_665
O2 W1 1.960964 1_565
O2 W3 1.997810 1_555
O2 Sr19 2.786663 1_565
O2 Sr4 2.866244 1_555
O3 W0 1.960964 1_566
O3 W2 1.997810 1_556
O3 Sr18 2.786663 1_565
O3 Sr5 2.866244 1_555
O4 W0 1.976420 1_665
O4 W4 1.999822 1_555
O4 Sr2 2.790607 1_555
O4 Sr7 2.920844 1_555
O5 W1 1.976420 1_565
O5 W5 1.999822 1_555
O5 Sr3 2.790607 1_555
O5 Sr6 2.920844 1_555
O6 W2 1.938708 1_555
O6 Sr19 2.437837 1_565
O6 Sr4 2.503969 1_555
O6 Sr1 2.826059 1_565
O7 W3 1.938708 1_555
O7 Sr18 2.437837 1_565
O7 Sr5 2.503969 1_555
O7 Sr0 2.826059 1_565
O8 W5 1.930523 1_555
O8 Sr2 2.451213 1_555
O8 Sr7 2.537839 1_555
O8 Sr0 2.940266 1_665
O9 W4 1.930523 1_556
O9 Sr3 2.451213 1_555
O9 Sr6 2.537839 1_555
O9 Sr1 2.940266 1_566
O10 W3 1.951799 1_555
O10 Sr7 2.433599 1_455
O10 Sr19 2.531516 1_565
O10 Sr0 2.592084 1_565
O11 W2 1.951799 1_556
O11 Sr6 2.433599 1_555
O11 Sr18 2.531516 1_565
O11 Sr1 2.592084 1_566
O12 W4 1.938324 1_555
O12 Sr4 2.453800 1_555
O12 Sr2 2.511564 1_555
O12 Sr1 2.699259 1_565
O13 W5 1.938324 1_555
O13 Sr5 2.453800 1_655
O13 Sr3 2.511564 1_555
O13 Sr0 2.699259 1_665
O14 W3 1.938324 1_555
O14 Sr6 2.453800 1_555
O14 Sr9 2.511564 1_555
O14 Sr10 2.699259 1_555
O15 W2 1.938324 1_555
O15 Sr7 2.453800 1_455
O15 Sr8 2.511564 1_555
O15 Sr11 2.699259 1_555
O16 W4 1.951799 1_556
O16 Sr5 2.433599 1_655
O16 Sr13 2.531516 1_555
O16 Sr11 2.592084 1_656
O17 W5 1.951799 1_555
O17 Sr4 2.433599 1_555
O17 Sr12 2.531516 1_555
O17 Sr10 2.592084 1_555
O18 W2 1.930523 1_556
O18 Sr9 2.451213 1_555
O18 Sr5 2.537839 1_555
O18 Sr11 2.940266 1_556
O19 W3 1.930523 1_555
O19 Sr8 2.451213 1_555
O19 Sr4 2.537839 1_555
O19 Sr10 2.940266 1_555
O20 W5 1.938708 1_555
O20 Sr13 2.437837 1_555
O20 Sr6 2.503969 1_555
O20 Sr10 2.826059 1_555
O21 W4 1.938708 1_555
O21 Sr12 2.437837 1_555
O21 Sr7 2.503969 1_555
O21 Sr11 2.826059 1_655
O22 W7 1.976420 1_555
O22 W2 1.999822 1_555
O22 Sr8 2.790607 1_555
O22 Sr4 2.920844 1_555
O23 W6 1.976420 1_555
O23 W3 1.999822 1_555
O23 Sr9 2.790607 1_555
O23 Sr5 2.920844 1_555
O24 W6 1.960964 1_655
O24 W5 1.997810 1_555
O24 Sr12 2.786663 1_555
O24 Sr7 2.866244 1_555
O25 W7 1.960964 1_556
O25 W4 1.997810 1_556
O25 Sr13 2.786663 1_555
O25 Sr6 2.866244 1_555
O26 W7 1.916088 1_556
O26 Sr9 2.519774 1_555
O26 Sr6 2.754350 1_555
O26 Sr17 3.143203 1_555
O27 W6 1.916088 1_555
O27 Sr8 2.519774 1_555
O27 Sr7 2.754350 1_455
O27 Sr16 3.143203 1_455
O28 W7 1.916088 1_555
O28 Sr12 2.519774 1_555
O28 Sr15 2.754350 1_555
O28 Sr4 3.143203 1_555
O29 W6 1.916088 1_655
O29 Sr13 2.519774 1_555
O29 Sr14 2.754350 1_655
O29 Sr5 3.143203 1_655
O30 W7 1.960964 1_555
O30 W8 1.997810 1_554
O30 Sr8 2.786663 1_555
O30 Sr15 2.866244 1_555
O31 W6 1.960964 1_555
O31 W9 1.997810 1_555
O31 Sr9 2.786663 1_555
O31 Sr14 2.866244 1_555
O32 W6 1.976420 1_655
O32 W11 1.999822 1_555
O32 Sr12 2.790607 1_555
O32 Sr16 2.920844 1_555
O33 W7 1.976420 1_556
O33 W10 1.999822 1_555
O33 Sr13 2.790607 1_555
O33 Sr17 2.920844 1_555
O34 W9 1.938708 1_555
O34 Sr8 2.437837 1_555
O34 Sr15 2.503969 1_555
O34 Sr10 2.826059 1_555
O35 W8 1.938708 1_555
O35 Sr9 2.437837 1_555
O35 Sr14 2.503969 1_555
O35 Sr11 2.826059 1_556
O36 W10 1.930523 1_554
O36 Sr12 2.451213 1_555
O36 Sr16 2.537839 1_555
O36 Sr11 2.940266 1_655
O37 W11 1.930523 1_555
O37 Sr13 2.451213 1_555
O37 Sr17 2.537839 1_555
O37 Sr10 2.940266 1_555
O38 W9 1.951799 1_555
O38 Sr17 2.433599 1_555
O38 Sr9 2.531516 1_555
O38 Sr10 2.592084 1_555
O39 W8 1.951799 1_554
O39 Sr16 2.433599 1_455
O39 Sr8 2.531516 1_555
O39 Sr11 2.592084 1_555
O40 W11 1.938324 1_555
O40 Sr15 2.453800 1_555
O40 Sr12 2.511564 1_555
O40 Sr10 2.699259 1_555
O41 W10 1.938324 1_555
O41 Sr14 2.453800 1_655
O41 Sr13 2.511564 1_555
O41 Sr11 2.699259 1_656
O42 W8 1.938324 1_555
O42 Sr17 2.453800 1_555
O42 Sr18 2.511564 1_555
O42 Sr1 2.699259 1_556
O43 W9 1.938324 1_555
O43 Sr16 2.453800 1_455
O43 Sr19 2.511564 1_555
O43 Sr0 2.699259 1_555
O44 W11 1.951799 1_555
O44 Sr14 2.433599 1_655
O44 Sr3 2.531516 1_545
O44 Sr0 2.592084 1_655
O45 W10 1.951799 1_554
O45 Sr15 2.433599 1_555
O45 Sr2 2.531516 1_545
O45 Sr1 2.592084 1_555
O46 W8 1.930523 1_554
O46 Sr19 2.451213 1_555
O46 Sr15 2.537839 1_555
O46 Sr1 2.940266 1_555
O47 W9 1.930523 1_555
O47 Sr18 2.451213 1_555
O47 Sr14 2.537839 1_555
O47 Sr0 2.940266 1_555
O48 W11 1.938708 1_555
O48 Sr2 2.437837 1_545
O48 Sr16 2.503969 1_555
O48 Sr0 2.826059 1_655
O49 W10 1.938708 1_555
O49 Sr3 2.437837 1_545
O49 Sr17 2.503969 1_555
O49 Sr1 2.826059 1_556
O50 W1 1.976420 1_555
O50 W9 1.999822 1_555
O50 Sr19 2.790607 1_555
O50 Sr15 2.920844 1_555
O51 W0 1.976420 1_556
O51 W8 1.999822 1_555
O51 Sr18 2.790607 1_555
O51 Sr14 2.920844 1_555
O52 W0 1.960964 1_655
O52 W10 1.997810 1_554
O52 Sr2 2.786663 1_545
O52 Sr16 2.866244 1_555
O53 W1 1.960964 1_555
O53 W11 1.997810 1_555
O53 Sr3 2.786663 1_545
O53 Sr17 2.866244 1_555
O54 W0 1.916088 1_555
O54 Sr19 2.519774 1_555
O54 Sr16 2.754350 1_455
O54 Sr7 3.143203 1_445
O55 W1 1.916088 1_555
O55 Sr18 2.519774 1_555
O55 Sr17 2.754350 1_555
O55 Sr6 3.143203 1_545
