# generated using pymatgen
data_Na(SmTe2)3
_symmetry_space_group_name_H-M   'P 1'
_cell_length_a   12.59855544
_cell_length_b   11.91495158
_cell_length_c   64.57172939
_cell_angle_alpha   90.00000000
_cell_angle_beta   90.00000000
_cell_angle_gamma   121.91676992
_symmetry_Int_Tables_number   1
_chemical_formula_structural   Na(SmTe2)3
_chemical_formula_sum   'Na1 Sm3 Te6'
_cell_volume   8227.53069824
_cell_formula_units_Z   1
loop_
 _symmetry_equiv_pos_site_id
 _symmetry_equiv_pos_as_xyz
  1  'x, y, z'
loop_
 _atom_site_type_symbol
 _atom_site_label
 _atom_site_symmetry_multiplicity
 _atom_site_fract_x
 _atom_site_fract_y
 _atom_site_fract_z
 _atom_site_occupancy
  Na  Na0  1  0.00000000  -0.00000000  -0.00000000  1
  Sm  Sm0  1  0.00000000  -0.00000000  0.50000000  1
  Sm  Sm1  1  0.50000000  0.50000000  -0.00000000  1
  Sm  Sm2  1  0.00000000  0.50000000  -0.00000000  1
  Te  Te0  1  0.00000000  -0.00000000  0.76899596  1
  Te  Te1  1  0.00000000  -0.00000000  0.23100404  1
  Te  Te2  1  0.73717301  0.73985697  0.00000000  1
  Te  Te3  1  0.26282699  0.26014303  -0.00000000  1
  Te  Te4  1  0.99731604  0.26014303  0.00000000  1
  Te  Te5  1  0.00268396  0.73985697  -0.00000000  1
loop_
_geom_bond_atom_site_label_1
_geom_bond_atom_site_label_2
_geom_bond_distance
_geom_bond_site_symmetry_2
Na0 Te5 3.117601 1_545
Na0 Te4 3.117601 1_455
Na0 Te3 3.117601 1_555
Na0 Te2 3.117601 1_445
Sm1 Te2 2.840152 1_555
Sm1 Te3 2.840152 1_555
Sm2 Te4 2.840152 1_455
Sm2 Te5 2.840152 1_555
