# generated using pymatgen
data_Na9Sm(SiSe3)4
_symmetry_space_group_name_H-M   'P 1'
_cell_length_a   9.85792325
_cell_length_b   9.85792325
_cell_length_c   7.07114365
_cell_angle_alpha   83.23215647
_cell_angle_beta   83.23215647
_cell_angle_gamma   76.61943305
_symmetry_Int_Tables_number   1
_chemical_formula_structural   Na9Sm(SiSe3)4
_chemical_formula_sum   'Na9 Sm1 Si4 Se12'
_cell_volume   660.92831933
_cell_formula_units_Z   1
loop_
 _symmetry_equiv_pos_site_id
 _symmetry_equiv_pos_as_xyz
  1  'x, y, z'
loop_
 _atom_site_type_symbol
 _atom_site_label
 _atom_site_symmetry_multiplicity
 _atom_site_fract_x
 _atom_site_fract_y
 _atom_site_fract_z
 _atom_site_occupancy
  Na  Na0  1  0.50237300  0.00146800  0.24680200  1
  Na  Na1  1  0.99853200  0.49762700  0.75319800  1
  Na  Na2  1  0.17388500  0.32679800  0.24866700  1
  Na  Na3  1  0.67320200  0.82611500  0.75133300  1
  Na  Na4  1  0.82359200  0.67056400  0.25152500  1
  Na  Na5  1  0.32943600  0.17640800  0.74847500  1
  Na  Na6  1  0.58548500  0.41451500  0.00000000  1
  Na  Na7  1  0.42232900  0.57767100  0.50000000  1
  Na  Na8  1  0.90921300  0.09078700  0.00000000  1
  Sm  Sm0  1  0.08215800  0.91784200  0.50000000  1
  Si  Si0  1  0.82402200  0.32948400  0.46764400  1
  Si  Si1  1  0.32827800  0.82366000  0.97835600  1
  Si  Si2  1  0.67051600  0.17597800  0.53235600  1
  Si  Si3  1  0.17634000  0.67172200  0.02164400  1
  Se  Se0  1  0.02840300  0.20707700  0.60689600  1
  Se  Se1  1  0.52996800  0.71999000  0.11089900  1
  Se  Se2  1  0.72241700  0.52776200  0.61574300  1
  Se  Se3  1  0.21141500  0.02263700  0.12587200  1
  Se  Se4  1  0.47223800  0.27758300  0.38425700  1
  Se  Se5  1  0.97736300  0.78858500  0.87412800  1
  Se  Se6  1  0.79292300  0.97159700  0.39310400  1
  Se  Se7  1  0.28001000  0.47003200  0.88910100  1
  Se  Se8  1  0.87651600  0.37394200  0.14720000  1
  Se  Se9  1  0.35976300  0.87643900  0.64955200  1
  Se  Se10  1  0.62605800  0.12348400  0.85280000  1
  Se  Se11  1  0.12356100  0.64023700  0.35044800  1
loop_
_geom_bond_atom_site_label_1
_geom_bond_atom_site_label_2
_geom_bond_distance
_geom_bond_site_symmetry_2
Na0 Se4 2.936506 1_555
Na0 Se1 2.985710 1_545
Na0 Se3 3.043118 1_555
Na0 Se6 3.097890 1_545
Na0 Se10 3.127903 1_554
Na0 Se9 3.261452 1_545
Na1 Se2 2.936506 1_555
Na1 Se7 2.985710 1_655
Na1 Se5 3.043118 1_555
Na1 Se0 3.097890 1_655
Na1 Se8 3.127903 1_556
Na1 Se11 3.261452 1_655
Na2 Se7 2.960292 1_554
Na2 Se0 3.014753 1_555
Na2 Se8 3.018394 1_455
Na2 Se4 3.114403 1_555
Na2 Se3 3.147330 1_555
Na2 Se11 3.168885 1_555
Na3 Se1 2.960292 1_556
Na3 Se6 3.014753 1_555
Na3 Se10 3.018394 1_565
Na3 Se2 3.114403 1_555
Na3 Se5 3.147330 1_555
Na3 Se9 3.168885 1_555
Na4 Se2 2.966353 1_555
Na4 Se8 3.013011 1_555
Na4 Se11 3.058106 1_655
Na4 Se1 3.084788 1_555
Na4 Se5 3.147071 1_554
Na4 Se6 3.180205 1_555
Na5 Se4 2.966353 1_555
Na5 Se10 3.013011 1_555
Na5 Se9 3.058106 1_545
Na5 Se7 3.084788 1_555
Na5 Se3 3.147071 1_556
Na5 Se0 3.180205 1_555
Na6 Se8 3.090136 1_555
Na6 Se10 3.090136 1_554
Na6 Se2 3.093435 1_554
Na6 Se4 3.093435 1_555
Na6 Se1 3.110519 1_555
Na6 Se7 3.110519 1_554
Na7 Se2 3.076558 1_555
Na7 Se4 3.076558 1_555
Na7 Se1 3.123380 1_555
Na7 Se7 3.123380 1_555
Na7 Se9 3.148447 1_555
Na7 Se11 3.148447 1_555
Na8 Se8 3.027882 1_555
Na8 Se10 3.027882 1_554
Na8 Se0 3.086099 1_654
Na8 Se6 3.086099 1_545
Na8 Se3 3.110657 1_655
Na8 Se5 3.110657 1_544
Si1 Si3 2.324364 1_556
Se0 Si0 2.355262 1_455
Se0 Sm0 2.948911 1_545
Se1 Si1 2.269128 1_554
Se2 Si0 2.291182 1_555
Se3 Si1 2.327200 1_544
Se3 Sm0 2.976600 1_545
Se4 Si2 2.291182 1_555
Se5 Si3 2.327200 1_656
Se5 Sm0 2.976600 1_655
Se6 Si2 2.355262 1_565
Se6 Sm0 2.948911 1_655
Se7 Si3 2.269128 1_556
Se8 Si0 2.277879 1_555
Se9 Si1 2.322132 1_555
Se9 Sm0 2.972764 1_555
Se10 Si2 2.277879 1_555
Se11 Si3 2.322132 1_555
Se11 Sm0 2.972764 1_555
