# generated using pymatgen
data_Sr7CaMnFe7O20
_symmetry_space_group_name_H-M   'P 1'
_cell_length_a   11.16928569
_cell_length_b   11.46560165
_cell_length_c   17.62707434
_cell_angle_alpha   108.92569492
_cell_angle_beta   108.59999492
_cell_angle_gamma   89.99000790
_symmetry_Int_Tables_number   1
_chemical_formula_structural   Sr7CaMnFe7O20
_chemical_formula_sum   'Sr28 Ca4 Mn4 Fe28 O80'
_cell_volume   2010.33035896
_cell_formula_units_Z   4
loop_
 _symmetry_equiv_pos_site_id
 _symmetry_equiv_pos_as_xyz
  1  'x, y, z'
loop_
 _atom_site_type_symbol
 _atom_site_label
 _atom_site_symmetry_multiplicity
 _atom_site_fract_x
 _atom_site_fract_y
 _atom_site_fract_z
 _atom_site_occupancy
  Sr  Sr0  1  0.30620100  0.06144800  0.60903100  1
  Sr  Sr1  1  0.30669500  0.55940700  0.60795700  1
  Sr  Sr2  1  0.80675000  0.06405200  0.60904200  1
  Sr  Sr3  1  0.80559600  0.56498300  0.10931800  1
  Sr  Sr4  1  0.80727700  0.56168500  0.60817400  1
  Sr  Sr5  1  0.19579600  0.43427400  0.38966600  1
  Sr  Sr6  1  0.19799800  0.43876200  0.89154600  1
  Sr  Sr7  1  0.19628300  0.93665400  0.38873700  1
  Sr  Sr8  1  0.19823400  0.93754300  0.89407900  1
  Sr  Sr9  1  0.69618500  0.43546200  0.39044600  1
  Sr  Sr10  1  0.69918400  0.44046700  0.89154600  1
  Sr  Sr11  1  0.69621000  0.93645600  0.39033200  1
  Sr  Sr12  1  0.70019800  0.93822100  0.89393000  1
  Sr  Sr13  1  0.05623100  0.29494200  0.11007100  1
  Sr  Sr14  1  0.05748700  0.29775500  0.60964400  1
  Sr  Sr15  1  0.05559300  0.79450100  0.60744300  1
  Sr  Sr16  1  0.55664100  0.29486200  0.10988900  1
  Sr  Sr17  1  0.55771700  0.29913500  0.60946500  1
  Sr  Sr18  1  0.55538700  0.79487400  0.10999100  1
  Sr  Sr19  1  0.55585700  0.79546200  0.60708900  1
  Sr  Sr20  1  0.44541500  0.20318000  0.38795700  1
  Sr  Sr21  1  0.44668100  0.20270100  0.89180800  1
  Sr  Sr22  1  0.44502800  0.70374500  0.38795900  1
  Sr  Sr23  1  0.44889000  0.70231800  0.89322300  1
  Sr  Sr24  1  0.94602300  0.20276000  0.38864400  1
  Sr  Sr25  1  0.94877800  0.20550800  0.89244700  1
  Sr  Sr26  1  0.94607900  0.70427900  0.38940500  1
  Sr  Sr27  1  0.95037300  0.70487000  0.89351200  1
  Ca  Ca0  1  0.30215100  0.06608900  0.10555300  1
  Ca  Ca1  1  0.30409000  0.56685200  0.10501300  1
  Ca  Ca2  1  0.80171000  0.06632400  0.10550500  1
  Ca  Ca3  1  0.05445600  0.78792000  0.10587900  1
  Mn  Mn0  1  0.11182800  0.59695900  0.75114200  1
  Mn  Mn1  1  0.61170100  0.60041500  0.75097300  1
  Mn  Mn2  1  0.36337100  0.40567800  0.75086500  1
  Mn  Mn3  1  0.36040800  0.90216700  0.75068500  1
  Fe  Fe0  1  0.00831700  0.00245900  0.00690900  1
  Fe  Fe1  1  0.00398300  0.99985500  0.49886100  1
  Fe  Fe2  1  0.00723100  0.50225400  0.00372400  1
  Fe  Fe3  1  0.00365400  0.49883000  0.49941100  1
  Fe  Fe4  1  0.50571700  0.00221900  0.00394700  1
  Fe  Fe5  1  0.50364700  0.00077900  0.49961600  1
  Fe  Fe6  1  0.50452400  0.50058000  0.00131000  1
  Fe  Fe7  1  0.50367300  0.49969300  0.49975500  1
  Fe  Fe8  1  0.25684400  0.25214200  0.00451800  1
  Fe  Fe9  1  0.25453100  0.24974500  0.50076800  1
  Fe  Fe10  1  0.25601200  0.75190900  0.00447300  1
  Fe  Fe11  1  0.25318300  0.74997000  0.49893900  1
  Fe  Fe12  1  0.75532100  0.25050300  0.00144500  1
  Fe  Fe13  1  0.75402000  0.24980400  0.49983300  1
  Fe  Fe14  1  0.75692400  0.75230400  0.00383600  1
  Fe  Fe15  1  0.75327600  0.74957300  0.49915800  1
  Fe  Fe16  1  0.10300800  0.08502700  0.24513400  1
  Fe  Fe17  1  0.10954100  0.08674000  0.75094500  1
  Fe  Fe18  1  0.10901500  0.59208200  0.24903800  1
  Fe  Fe19  1  0.60375100  0.08866000  0.24724400  1
  Fe  Fe20  1  0.61023900  0.08973400  0.75064100  1
  Fe  Fe21  1  0.60372500  0.58959500  0.24799800  1
  Fe  Fe22  1  0.35646100  0.40902300  0.24726600  1
  Fe  Fe23  1  0.35117900  0.90785600  0.24536300  1
  Fe  Fe24  1  0.85736900  0.40740500  0.24921400  1
  Fe  Fe25  1  0.86142500  0.41292400  0.75089800  1
  Fe  Fe26  1  0.85692700  0.91225300  0.24735200  1
  Fe  Fe27  1  0.85906100  0.90801700  0.75085600  1
  O  O0  1  0.12355500  0.12100900  0.49066500  1
  O  O1  1  0.12622200  0.12161600  0.99273800  1
  O  O2  1  0.12328000  0.62146100  0.49098800  1
  O  O3  1  0.12674900  0.62392000  0.99630500  1
  O  O4  1  0.62387400  0.12195000  0.49119100  1
  O  O5  1  0.62675700  0.12210600  0.99304200  1
  O  O6  1  0.62350800  0.62254800  0.49169100  1
  O  O7  1  0.62576000  0.62427900  0.99406800  1
  O  O8  1  0.13747300  0.38236300  0.01364800  1
  O  O9  1  0.13129500  0.37616800  0.50565800  1
  O  O10  1  0.13673700  0.88098200  0.01640600  1
  O  O11  1  0.13129300  0.87799400  0.50668100  1
  O  O12  1  0.63288900  0.37703200  0.00902300  1
  O  O13  1  0.63212000  0.37683300  0.50716000  1
  O  O14  1  0.63654000  0.88255600  0.01191700  1
  O  O15  1  0.63190200  0.87809700  0.50776400  1
  O  O16  1  0.37411500  0.11958300  0.49137300  1
  O  O17  1  0.37522800  0.12113800  0.99470400  1
  O  O18  1  0.37327200  0.62014200  0.49096900  1
  O  O19  1  0.37483400  0.62031900  0.99518400  1
  O  O20  1  0.87388700  0.11911700  0.49103000  1
  O  O21  1  0.87465100  0.11871700  0.99366100  1
  O  O22  1  0.87313900  0.61927700  0.49015400  1
  O  O23  1  0.87853000  0.62227000  0.99461000  1
  O  O24  1  0.38295500  0.38429400  0.01356300  1
  O  O25  1  0.38049700  0.37811400  0.50435600  1
  O  O26  1  0.38262900  0.88476000  0.01320600  1
  O  O27  1  0.38267400  0.88056300  0.50726200  1
  O  O28  1  0.88438600  0.38140800  0.01050500  1
  O  O29  1  0.88103700  0.37817500  0.50610600  1
  O  O30  1  0.88666800  0.88376900  0.01478400  1
  O  O31  1  0.88224200  0.88008400  0.50757600  1
  O  O32  1  0.08904900  0.09859400  0.13909500  1
  O  O33  1  0.08377400  0.09491400  0.64109600  1
  O  O34  1  0.08549300  0.60357500  0.14098800  1
  O  O35  1  0.07485100  0.58499900  0.63499500  1
  O  O36  1  0.58910100  0.09604200  0.13942000  1
  O  O37  1  0.58232600  0.09664700  0.64032400  1
  O  O38  1  0.58587400  0.59645300  0.14013900  1
  O  O39  1  0.57347500  0.58635000  0.63466300  1
  O  O40  1  0.44230900  0.40641400  0.35802600  1
  O  O41  1  0.44174800  0.41387000  0.86697100  1
  O  O42  1  0.43805700  0.90717900  0.35738700  1
  O  O43  1  0.43877100  0.91311600  0.86573400  1
  O  O44  1  0.94091800  0.40363900  0.35935200  1
  O  O45  1  0.94565700  0.40592200  0.86167500  1
  O  O46  1  0.94157200  0.90662100  0.35802000  1
  O  O47  1  0.94225600  0.90283800  0.86094000  1
  O  O48  1  0.33188600  0.28360300  0.14109000  1
  O  O49  1  0.32659300  0.29850300  0.63428000  1
  O  O50  1  0.33434000  0.78327100  0.14102800  1
  O  O51  1  0.32411700  0.79927000  0.63589300  1
  O  O52  1  0.83191200  0.28647300  0.14077500  1
  O  O53  1  0.83381600  0.29543400  0.63974700  1
  O  O54  1  0.83638000  0.79237300  0.14044300  1
  O  O55  1  0.83129800  0.79398100  0.63996600  1
  O  O56  1  0.18866700  0.19915700  0.35583600  1
  O  O57  1  0.19330300  0.20514100  0.86017800  1
  O  O58  1  0.19132000  0.70618400  0.35984700  1
  O  O59  1  0.19010700  0.70163800  0.86698400  1
  O  O60  1  0.68654300  0.20328700  0.35795500  1
  O  O61  1  0.69357600  0.20685700  0.86060700  1
  O  O62  1  0.68689800  0.70468200  0.35897400  1
  O  O63  1  0.69135500  0.70376800  0.86683400  1
  O  O64  1  0.42659600  0.05697600  0.23993600  1
  O  O65  1  0.44143900  0.05473000  0.75086100  1
  O  O66  1  0.42746500  0.55820000  0.24058900  1
  O  O67  1  0.44033100  0.56610000  0.75107600  1
  O  O68  1  0.92686500  0.06209300  0.24106200  1
  O  O69  1  0.93659200  0.05971500  0.75087400  1
  O  O70  1  0.93749300  0.55652600  0.24858300  1
  O  O71  1  0.93439700  0.56513600  0.75092400  1
  O  O72  1  0.18605900  0.44129800  0.24922200  1
  O  O73  1  0.19107500  0.44458100  0.75069800  1
  O  O74  1  0.17518100  0.92979800  0.24098700  1
  O  O75  1  0.18264300  0.93389300  0.75086100  1
  O  O76  1  0.68618200  0.44116800  0.24981000  1
  O  O77  1  0.69257300  0.44399400  0.75065700  1
  O  O78  1  0.68518800  0.94007700  0.24962600  1
  O  O79  1  0.68681900  0.93763100  0.75056700  1
loop_
_geom_bond_atom_site_label_1
_geom_bond_atom_site_label_2
_geom_bond_distance
_geom_bond_site_symmetry_2
Ca0 O48 2.361474 1_555
Ca0 O64 2.369424 1_555
Ca0 O10 2.524501 1_545
Ca0 O26 2.552960 1_545
Ca0 O1 2.559135 1_554
Ca0 O17 2.588444 1_554
Ca0 O32 2.628363 1_555
Ca1 O50 2.348617 1_555
Ca1 O66 2.381783 1_555
Ca1 O8 2.531997 1_555
Ca1 O3 2.532793 1_554
Ca1 O24 2.544034 1_555
Ca1 O19 2.548330 1_554
Ca1 O34 2.711974 1_555
Ca1 O38 3.004188 1_555
Ca2 O68 2.368632 1_555
Ca2 O52 2.391683 1_555
Ca2 O14 2.523790 1_545
Ca2 O5 2.551138 1_554
Ca2 O30 2.575823 1_545
Ca2 O21 2.589276 1_554
Ca2 O36 2.624089 1_555
Ca3 O74 2.361222 1_555
Ca3 O34 2.383693 1_555
Ca3 O23 2.538025 1_454
Ca3 O10 2.546977 1_555
Ca3 O30 2.553935 1_455
Ca3 O3 2.560615 1_554
Ca3 O54 2.689453 1_455
Ca3 O50 2.990828 1_555
Mn0 O59 1.909507 1_555
Mn0 O35 1.912969 1_555
Mn0 O73 1.957271 1_555
Mn0 O71 2.013721 1_455
Mn1 O63 1.907381 1_555
Mn1 O39 1.907562 1_555
Mn1 O67 1.954852 1_555
Mn1 O77 2.007141 1_555
Mn2 O41 1.922550 1_555
Mn2 O49 1.930164 1_555
Mn2 O73 1.974667 1_555
Mn2 O67 2.028825 1_555
Mn3 O51 1.891803 1_555
Mn3 O43 1.896606 1_555
Mn3 O65 1.968292 1_565
Mn3 O75 2.019286 1_555
Fe0 O30 1.990187 1_445
Fe0 O10 2.005667 1_545
Fe0 O21 2.009744 1_454
Fe0 O1 2.023619 1_554
Fe0 O32 2.109793 1_555
Fe0 O47 2.313486 1_444
Fe1 O0 1.997009 1_565
Fe1 O11 1.998093 1_555
Fe1 O20 1.998525 1_465
Fe1 O31 2.007262 1_455
Fe1 O46 2.228629 1_455
Fe1 O33 2.251777 1_565
Fe2 O3 1.993852 1_554
Fe2 O23 1.995278 1_454
Fe2 O8 2.007317 1_555
Fe2 O28 2.007349 1_455
Fe2 O34 2.189923 1_555
Fe2 O45 2.251718 1_454
Fe3 O29 2.003245 1_455
Fe3 O9 2.005539 1_555
Fe3 O2 2.011684 1_555
Fe3 O22 2.013101 1_455
Fe3 O35 2.139285 1_555
Fe3 O44 2.219488 1_455
Fe4 O17 2.000441 1_554
Fe4 O26 2.004194 1_545
Fe4 O14 2.007643 1_545
Fe4 O5 2.022857 1_554
Fe4 O36 2.154609 1_555
Fe4 O43 2.182189 1_544
Fe5 O16 1.990819 1_555
Fe5 O27 1.995251 1_545
Fe5 O4 2.004284 1_555
Fe5 O15 2.012566 1_545
Fe5 O37 2.230165 1_555
Fe5 O42 2.248817 1_545
Fe6 O19 1.997606 1_554
Fe6 O24 2.010610 1_555
Fe6 O12 2.020050 1_555
Fe6 O7 2.022338 1_554
Fe6 O41 2.121648 1_554
Fe6 O38 2.204408 1_555
Fe7 O25 1.996929 1_555
Fe7 O18 2.011641 1_555
Fe7 O6 2.011913 1_555
Fe7 O13 2.014630 1_555
Fe7 O39 2.129544 1_555
Fe7 O40 2.242693 1_555
Fe8 O24 2.001524 1_555
Fe8 O17 2.002774 1_554
Fe8 O8 2.003275 1_555
Fe8 O1 2.004315 1_554
Fe8 O48 2.185789 1_555
Fe8 O57 2.286120 1_554
Fe9 O9 1.999276 1_555
Fe9 O0 2.003632 1_555
Fe9 O16 2.004679 1_555
Fe9 O25 2.008323 1_555
Fe9 O49 2.106495 1_555
Fe9 O56 2.290038 1_555
Fe10 O10 1.996320 1_555
Fe10 O3 1.997440 1_554
Fe10 O19 2.010518 1_554
Fe10 O26 2.013375 1_555
Fe10 O59 2.168766 1_554
Fe10 O50 2.187221 1_555
Fe11 O11 2.003654 1_555
Fe11 O18 2.004620 1_555
Fe11 O2 2.008207 1_555
Fe11 O27 2.019470 1_555
Fe11 O51 2.161008 1_555
Fe11 O58 2.204925 1_555
Fe12 O5 1.993683 1_554
Fe12 O12 1.995642 1_555
Fe12 O28 2.013636 1_555
Fe12 O21 2.014913 1_554
Fe12 O52 2.221836 1_555
Fe12 O61 2.234102 1_554
Fe13 O13 1.995297 1_555
Fe13 O29 1.996581 1_555
Fe13 O4 1.999957 1_555
Fe13 O20 2.010662 1_555
Fe13 O53 2.216198 1_555
Fe13 O60 2.244876 1_555
Fe14 O7 2.001616 1_554
Fe14 O14 2.010480 1_555
Fe14 O30 2.010714 1_555
Fe14 O23 2.019172 1_554
Fe14 O63 2.162901 1_554
Fe14 O54 2.171711 1_555
Fe15 O6 1.998492 1_555
Fe15 O15 2.004451 1_555
Fe15 O22 2.007580 1_555
Fe15 O31 2.014070 1_555
Fe15 O62 2.219691 1_555
Fe15 O55 2.231533 1_555
Fe16 O32 1.882804 1_555
Fe16 O56 1.894352 1_555
Fe16 O74 1.943074 1_545
Fe16 O68 1.960301 1_455
Fe17 O57 1.892432 1_555
Fe17 O33 1.898196 1_555
Fe17 O75 1.932991 1_545
Fe17 O69 1.956006 1_455
Fe18 O34 1.886133 1_555
Fe18 O58 1.889214 1_555
Fe18 O72 1.931503 1_555
Fe18 O70 1.955714 1_455
Fe19 O36 1.884743 1_555
Fe19 O60 1.891109 1_555
Fe19 O78 1.937227 1_545
Fe19 O64 1.967509 1_555
Fe20 O61 1.894200 1_555
Fe20 O37 1.896853 1_555
Fe20 O65 1.929163 1_555
Fe20 O79 1.942087 1_545
Fe21 O38 1.875046 1_555
Fe21 O62 1.896731 1_555
Fe21 O76 1.939413 1_555
Fe21 O66 1.956563 1_555
Fe22 O48 1.890134 1_555
Fe22 O40 1.890961 1_555
Fe22 O66 1.938785 1_555
Fe22 O72 1.947793 1_555
Fe23 O50 1.879756 1_555
Fe23 O42 1.904871 1_555
Fe23 O64 1.949349 1_565
Fe23 O74 1.961935 1_555
Fe24 O44 1.881601 1_555
Fe24 O52 1.895064 1_555
Fe24 O70 1.934819 1_555
Fe24 O76 1.953399 1_555
Fe25 O45 1.906372 1_555
Fe25 O53 1.910792 1_555
Fe25 O77 1.918174 1_555
Fe25 O71 1.926076 1_555
Fe26 O54 1.880746 1_555
Fe26 O46 1.899637 1_555
Fe26 O68 1.937350 1_565
Fe26 O78 1.955356 1_555
Fe27 O47 1.885961 1_555
Fe27 O55 1.892630 1_555
Fe27 O69 1.942958 1_565
Fe27 O79 1.952189 1_555
O0 Sr7 2.612044 1_545
O0 Sr24 2.619639 1_455
O0 Sr0 2.681392 1_555
O0 Sr14 2.698053 1_555
O1 Sr8 2.576116 1_545
O1 Sr25 2.616440 1_455
O1 Sr13 2.683787 1_556
O2 Sr26 2.620445 1_455
O2 Sr5 2.624456 1_555
O2 Sr15 2.658808 1_555
O2 Sr1 2.685281 1_555
O3 Sr27 2.615084 1_455
O3 Sr6 2.635143 1_555
O4 Sr11 2.607632 1_545
O4 Sr20 2.633772 1_555
O4 Sr2 2.667505 1_555
O4 Sr17 2.693402 1_555
O5 Sr12 2.587360 1_545
O5 Sr21 2.619743 1_555
O5 Sr16 2.675994 1_556
O6 Sr9 2.624013 1_555
O6 Sr22 2.638642 1_555
O6 Sr19 2.646347 1_555
O6 Sr4 2.675133 1_555
O7 Sr23 2.579553 1_555
O7 Sr10 2.618060 1_555
O7 Sr3 2.629885 1_556
O7 Sr18 2.655270 1_556
O8 Sr13 2.608868 1_555
O8 Sr6 2.709005 1_554
O8 Sr25 2.727077 1_454
O9 Sr1 2.606529 1_555
O9 Sr14 2.623140 1_555
O9 Sr5 2.639447 1_555
O9 Sr24 2.666095 1_455
O10 Sr27 2.718521 1_454
O10 Sr8 2.719174 1_554
O11 Sr0 2.605223 1_565
O11 Sr15 2.616718 1_555
O11 Sr26 2.668810 1_455
O11 Sr7 2.677959 1_555
O12 Sr16 2.612829 1_555
O12 Sr3 2.616312 1_555
O12 Sr21 2.677885 1_554
O12 Sr10 2.705685 1_554
O13 Sr17 2.595117 1_555
O13 Sr4 2.611733 1_555
O13 Sr9 2.651957 1_555
O13 Sr20 2.687086 1_555
O14 Sr18 2.635944 1_555
O14 Sr12 2.653833 1_554
O14 Sr23 2.727695 1_554
O15 Sr19 2.590252 1_555
O15 Sr2 2.618225 1_565
O15 Sr11 2.663752 1_555
O15 Sr22 2.695117 1_555
O16 Sr7 2.620118 1_545
O16 Sr20 2.633574 1_555
O16 Sr0 2.687290 1_555
O16 Sr17 2.697246 1_555
O17 Sr21 2.612492 1_555
O17 Sr8 2.613035 1_545
O17 Sr16 2.636126 1_556
O18 Sr22 2.629798 1_555
O18 Sr5 2.633347 1_555
O18 Sr19 2.656849 1_555
O18 Sr1 2.683336 1_555
O19 Sr6 2.608564 1_555
O19 Sr23 2.615915 1_555
O19 Sr18 2.634099 1_556
O20 Sr11 2.611145 1_545
O20 Sr24 2.622342 1_555
O20 Sr2 2.671211 1_555
O20 Sr14 2.694496 1_655
O21 Sr12 2.574152 1_545
O21 Sr25 2.636859 1_555
O21 Sr13 2.657731 1_656
O22 Sr26 2.610246 1_555
O22 Sr9 2.611478 1_555
O22 Sr15 2.661384 1_655
O22 Sr4 2.678162 1_555
O23 Sr27 2.593037 1_555
O23 Sr10 2.623289 1_555
O23 Sr3 2.663797 1_556
O24 Sr16 2.593317 1_555
O24 Sr6 2.705568 1_554
O24 Sr21 2.742822 1_554
O25 Sr1 2.613899 1_555
O25 Sr17 2.630409 1_555
O25 Sr5 2.634580 1_555
O25 Sr20 2.652823 1_555
O26 Sr18 2.595349 1_555
O26 Sr8 2.661299 1_554
O26 Sr23 2.743090 1_554
O27 Sr19 2.594585 1_555
O27 Sr0 2.610046 1_565
O27 Sr22 2.680627 1_555
O27 Sr7 2.684990 1_555
O28 Sr13 2.593493 1_655
O28 Sr3 2.614854 1_555
O28 Sr25 2.673410 1_554
O28 Sr10 2.699642 1_554
O29 Sr4 2.613822 1_555
O29 Sr14 2.619483 1_655
O29 Sr9 2.652119 1_555
O29 Sr24 2.667555 1_555
O30 Sr12 2.701426 1_554
O30 Sr27 2.721902 1_554
O31 Sr15 2.599270 1_655
O31 Sr2 2.621687 1_565
O31 Sr11 2.670763 1_555
O31 Sr26 2.670897 1_555
O32 Sr13 2.468082 1_555
O33 Sr14 2.556315 1_555
O33 Sr0 2.719087 1_555
O33 Sr2 2.962048 1_455
O34 Sr3 3.001300 1_455
O35 Sr15 2.596533 1_555
O35 Sr1 2.777633 1_555
O35 Sr4 2.871188 1_455
O35 Sr14 3.173990 1_555
O36 Sr16 2.499603 1_555
O37 Sr17 2.546582 1_555
O37 Sr2 2.734002 1_555
O37 Sr0 2.957993 1_555
O38 Sr18 2.498521 1_555
O38 Sr3 2.677911 1_555
O39 Sr19 2.591947 1_555
O39 Sr4 2.794517 1_555
O39 Sr1 2.864799 1_555
O39 Sr17 3.173994 1_555
O40 Sr20 2.548565 1_555
O40 Sr9 2.705799 1_555
O40 Sr5 2.976219 1_555
O41 Sr21 2.594030 1_555
O41 Sr10 2.769201 1_555
O41 Sr6 2.890163 1_555
O41 Sr23 3.184660 1_555
O42 Sr22 2.554514 1_555
O42 Sr11 2.751281 1_555
O42 Sr7 2.922751 1_555
O43 Sr23 2.610316 1_555
O43 Sr12 2.799591 1_555
O43 Sr8 2.882935 1_555
O43 Sr21 3.198047 1_565
O44 Sr24 2.515387 1_555
O44 Sr5 2.724227 1_655
O44 Sr9 2.954858 1_555
O45 Sr25 2.524295 1_555
O45 Sr6 2.699603 1_655
O45 Sr10 2.966773 1_555
O46 Sr26 2.550613 1_555
O46 Sr7 2.720694 1_655
O46 Sr11 2.969997 1_555
O47 Sr27 2.510390 1_555
O47 Sr8 2.730967 1_655
O47 Sr12 2.943093 1_555
O48 Sr16 2.747349 1_555
O48 Sr13 2.960975 1_555
O49 Sr0 2.605421 1_555
O49 Sr17 2.752792 1_555
O49 Sr14 2.896197 1_555
O49 Sr1 3.169803 1_555
O50 Sr18 2.705854 1_555
O51 Sr1 2.627618 1_555
O51 Sr19 2.789854 1_555
O51 Sr15 2.876213 1_555
O51 Sr0 3.187962 1_565
O52 Sr13 2.734776 1_655
O52 Sr16 2.953770 1_555
O53 Sr2 2.527225 1_555
O53 Sr14 2.716309 1_655
O53 Sr17 2.959949 1_555
O54 Sr3 2.483672 1_555
O54 Sr18 3.012366 1_555
O55 Sr4 2.532968 1_555
O55 Sr15 2.742845 1_655
O55 Sr19 2.944467 1_555
O56 Sr5 2.560478 1_555
O56 Sr20 2.737461 1_555
O56 Sr24 2.943704 1_455
O57 Sr6 2.550335 1_555
O57 Sr21 2.706356 1_555
O57 Sr25 2.961808 1_455
O58 Sr7 2.520758 1_555
O58 Sr22 2.718380 1_555
O58 Sr26 2.948354 1_455
O59 Sr8 2.585865 1_555
O59 Sr23 2.777296 1_555
O59 Sr27 2.859606 1_455
O59 Sr6 3.178312 1_555
O60 Sr9 2.529380 1_555
O60 Sr24 2.773852 1_555
O60 Sr20 2.905541 1_555
O61 Sr10 2.550745 1_555
O61 Sr25 2.724928 1_555
O61 Sr21 2.982261 1_555
O62 Sr11 2.527618 1_555
O62 Sr26 2.771106 1_555
O62 Sr22 2.905754 1_555
O63 Sr12 2.569269 1_555
O63 Sr27 2.778364 1_555
O63 Sr23 2.891267 1_555
O63 Sr10 3.184310 1_555
O64 Sr20 2.544617 1_555
O65 Sr21 2.495480 1_555
O65 Sr0 2.500738 1_555
O66 Sr22 2.536599 1_555
O67 Sr23 2.456696 1_555
O67 Sr1 2.463842 1_555
O68 Sr24 2.517508 1_555
O69 Sr25 2.473420 1_555
O69 Sr2 2.474630 1_555
O70 Sr3 2.460341 1_555
O70 Sr26 2.482173 1_555
O71 Sr4 2.450601 1_555
O71 Sr27 2.453114 1_555
O72 Sr13 2.448858 1_555
O72 Sr5 2.470742 1_555
O73 Sr6 2.481814 1_555
O73 Sr14 2.482226 1_555
O74 Sr7 2.514011 1_555
O75 Sr15 2.459754 1_555
O75 Sr8 2.460950 1_555
O76 Sr16 2.455829 1_555
O76 Sr9 2.467940 1_555
O77 Sr10 2.474435 1_555
O77 Sr17 2.479826 1_555
O78 Sr18 2.449114 1_555
O78 Sr11 2.457735 1_555
O79 Sr12 2.481224 1_555
O79 Sr19 2.481875 1_555
