# generated using pymatgen
data_Ca(AgO2)2
_symmetry_space_group_name_H-M   'P 1'
_cell_length_a   6.60571299
_cell_length_b   6.60571299
_cell_length_c   6.60571323
_cell_angle_alpha   60.43235543
_cell_angle_beta   60.43235543
_cell_angle_gamma   60.43235012
_symmetry_Int_Tables_number   1
_chemical_formula_structural   Ca(AgO2)2
_chemical_formula_sum   'Ca2 Ag4 O8'
_cell_volume   205.81116333
_cell_formula_units_Z   2
loop_
 _symmetry_equiv_pos_site_id
 _symmetry_equiv_pos_as_xyz
  1  'x, y, z'
loop_
 _atom_site_type_symbol
 _atom_site_label
 _atom_site_symmetry_multiplicity
 _atom_site_fract_x
 _atom_site_fract_y
 _atom_site_fract_z
 _atom_site_occupancy
  Ca  Ca0  1  0.01921800  0.01921800  0.01921800  1
  Ca  Ca1  1  0.62300100  0.62300100  0.62300100  1
  Ag  Ag0  1  0.24281800  0.24281800  0.24281800  1
  Ag  Ag1  1  0.62604800  0.12301300  0.62604800  1
  Ag  Ag2  1  0.62604800  0.62604800  0.12301300  1
  Ag  Ag3  1  0.12301300  0.62604800  0.62604800  1
  O  O0  1  0.82011500  0.37193400  0.37193400  1
  O  O1  1  0.37193400  0.37193400  0.82011500  1
  O  O2  1  0.37193400  0.82011500  0.37193400  1
  O  O3  1  0.37434800  0.37434800  0.37434800  1
  O  O4  1  0.87840900  0.87840900  0.87840900  1
  O  O5  1  0.86901500  0.43508800  0.86901500  1
  O  O6  1  0.86901500  0.86901500  0.43508800  1
  O  O7  1  0.43508800  0.86901500  0.86901500  1
loop_
_geom_bond_atom_site_label_1
_geom_bond_atom_site_label_2
_geom_bond_distance
_geom_bond_site_symmetry_2
Ca0 O7 2.259904 1_544
Ca0 O5 2.259904 1_454
Ca0 O6 2.259904 1_445
Ca0 O4 2.270905 1_444
Ca1 O5 2.333975 1_555
Ca1 O7 2.333975 1_555
Ca1 O6 2.333975 1_555
Ca1 O0 2.376689 1_555
Ca1 O2 2.376689 1_555
Ca1 O1 2.376689 1_555
Ag0 O3 2.121257 1_555
Ag0 O0 2.295394 1_455
Ag0 O2 2.295394 1_545
Ag0 O1 2.295394 1_554
Ag1 O1 2.097012 1_555
Ag1 O0 2.097012 1_555
Ag1 O6 2.101279 1_545
Ag1 O7 2.101279 1_545
Ag1 O3 2.359020 1_555
Ag1 O4 2.365318 1_545
Ag2 O0 2.097012 1_555
Ag2 O2 2.097012 1_555
Ag2 O5 2.101279 1_554
Ag2 O7 2.101279 1_554
Ag2 O3 2.359020 1_555
Ag2 O4 2.365318 1_554
Ag3 O1 2.097012 1_555
Ag3 O2 2.097012 1_555
Ag3 O6 2.101279 1_455
Ag3 O5 2.101279 1_455
Ag3 O3 2.359020 1_555
Ag3 O4 2.365318 1_455
