# generated using pymatgen
data_Sc3Ga
_symmetry_space_group_name_H-M   'P 1'
_cell_length_a   6.22548225
_cell_length_b   6.22548367
_cell_length_c   5.04700554
_cell_angle_alpha   90.00000000
_cell_angle_beta   90.00000000
_cell_angle_gamma   119.99960755
_symmetry_Int_Tables_number   1
_chemical_formula_structural   Sc3Ga
_chemical_formula_sum   'Sc6 Ga2'
_cell_volume   169.39954061
_cell_formula_units_Z   2
loop_
 _symmetry_equiv_pos_site_id
 _symmetry_equiv_pos_as_xyz
  1  'x, y, z'
loop_
 _atom_site_type_symbol
 _atom_site_label
 _atom_site_symmetry_multiplicity
 _atom_site_fract_x
 _atom_site_fract_y
 _atom_site_fract_z
 _atom_site_occupancy
  Sc  Sc0  1  0.17183923  0.34368941  0.25000000  1
  Sc  Sc1  1  0.65630859  0.82816077  0.25000000  1
  Sc  Sc2  1  0.17185071  0.82815229  0.25000000  1
  Sc  Sc3  1  0.82814616  0.65630217  0.75000000  1
  Sc  Sc4  1  0.34369583  0.17185484  0.75000000  1
  Sc  Sc5  1  0.82815780  0.17184520  0.75000000  1
  Ga  Ga0  1  0.33333330  0.66666470  0.75000000  1
  Ga  Ga1  1  0.66666738  0.33333062  0.25000000  1
loop_
_geom_bond_atom_site_label_1
_geom_bond_atom_site_label_2
_geom_bond_distance
_geom_bond_site_symmetry_2
Sc0 Sc2 3.015980 1_555
Sc0 Sc1 3.016080 1_555
Sc0 Sc5 3.130727 1_455
Sc0 Sc5 3.130727 1_454
Sc0 Sc4 3.130752 1_555
Sc0 Sc4 3.130752 1_554
Sc0 Sc1 3.209440 1_445
Sc0 Sc2 3.209504 1_545
Sc1 Sc2 3.015958 1_555
Sc1 Sc5 3.130737 1_564
Sc1 Sc5 3.130737 1_565
Sc1 Sc3 3.130768 1_555
Sc1 Sc3 3.130768 1_554
Sc1 Sc2 3.209525 1_655
Sc2 Sc4 3.130795 1_565
Sc2 Sc4 3.130795 1_564
Sc2 Sc3 3.130801 1_454
Sc2 Sc3 3.130801 1_455
Sc3 Sc4 3.015946 1_555
Sc3 Sc5 3.016015 1_555
Sc3 Sc5 3.209468 1_565
Sc3 Sc4 3.209574 1_665
Sc4 Sc5 3.016039 1_555
Sc4 Sc5 3.209443 1_455
Ga0 Sc2 3.065954 1_556
Ga0 Sc2 3.065954 1_555
Ga0 Sc1 3.065976 1_555
Ga0 Sc1 3.065976 1_556
Ga0 Sc0 3.065976 1_555
Ga0 Sc0 3.065976 1_556
Ga0 Sc4 3.113188 1_555
Ga0 Sc3 3.113206 1_555
Ga0 Sc5 3.113245 1_455
Ga0 Sc5 3.113276 1_565
Ga0 Sc3 3.113279 1_455
Ga0 Sc4 3.113299 1_565
Ga1 Sc4 3.065964 1_555
Ga1 Sc4 3.065964 1_554
Ga1 Sc3 3.065964 1_554
Ga1 Sc3 3.065964 1_555
Ga1 Sc5 3.065972 1_555
Ga1 Sc5 3.065972 1_554
Ga1 Sc1 3.113184 1_545
Ga1 Sc0 3.113196 1_655
Ga1 Sc2 3.113246 1_545
Ga1 Sc2 3.113277 1_655
Ga1 Sc0 3.113289 1_555
Ga1 Sc1 3.113302 1_555
