# generated using pymatgen
data_NaTaWO7
_symmetry_space_group_name_H-M   'P 1'
_cell_length_a   7.45218796
_cell_length_b   7.45218796
_cell_length_c   7.45218796
_cell_angle_alpha   120.47443491
_cell_angle_beta   120.46554252
_cell_angle_gamma   89.18786539
_symmetry_Int_Tables_number   1
_chemical_formula_structural   NaTaWO7
_chemical_formula_sum   'Na2 Ta2 W2 O14'
_cell_volume   290.53129179
_cell_formula_units_Z   2
loop_
 _symmetry_equiv_pos_site_id
 _symmetry_equiv_pos_as_xyz
  1  'x, y, z'
loop_
 _atom_site_type_symbol
 _atom_site_label
 _atom_site_symmetry_multiplicity
 _atom_site_fract_x
 _atom_site_fract_y
 _atom_site_fract_z
 _atom_site_occupancy
  Na  Na0  1  0.00000000  0.00000000  0.50000000  1
  Na  Na1  1  0.00000000  0.50000000  0.00000000  1
  Ta  Ta0  1  0.50000000  0.00000000  0.50000000  1
  Ta  Ta1  1  0.00000000  0.00000000  0.00000000  1
  W  W0  1  0.50000000  0.50000000  0.50000000  1
  W  W1  1  0.50000000  0.00000000  0.00000000  1
  O  O0  1  0.85530100  0.60530100  0.25000000  1
  O  O1  1  0.14469900  0.39469900  0.75000000  1
  O  O2  1  0.19231800  0.31646300  0.25150800  1
  O  O3  1  0.56495500  0.31646300  0.62414400  1
  O  O4  1  0.55512300  0.30512300  0.25000000  1
  O  O5  1  0.56495500  0.94081000  0.24849200  1
  O  O6  1  0.19231800  0.94081000  0.87585600  1
  O  O7  1  0.18489100  0.93489100  0.25000000  1
  O  O8  1  0.80768200  0.68353700  0.74849200  1
  O  O9  1  0.43504500  0.68353700  0.37585600  1
  O  O10  1  0.44487700  0.69487700  0.75000000  1
  O  O11  1  0.43504500  0.05919000  0.75150800  1
  O  O12  1  0.80768200  0.05919000  0.12414400  1
  O  O13  1  0.81510900  0.06510900  0.75000000  1
loop_
_geom_bond_atom_site_label_1
_geom_bond_atom_site_label_2
_geom_bond_distance
_geom_bond_site_symmetry_2
Na0 O1 2.404124 1_555
Na0 O0 2.404124 1_445
Na0 O11 2.694155 1_555
Na0 O5 2.694155 1_445
Na0 O6 2.694161 1_545
Na0 O12 2.694161 1_455
Na0 O7 2.696665 1_545
Na0 O13 2.696665 1_455
Na1 O1 2.404124 1_554
Na1 O0 2.404124 1_455
Na1 O8 2.694155 1_454
Na1 O2 2.694155 1_555
Na1 O3 2.694156 1_454
Na1 O9 2.694156 1_555
Na1 O13 2.696665 1_454
Na1 O7 2.696665 1_555
O2 W0 1.942052 1_555
O2 Ta1 2.004295 1_555
O3 W0 1.942046 1_555
O3 Ta0 2.004297 1_555
O4 W1 1.939989 1_555
O4 W0 1.939989 1_555
O5 W1 1.942052 1_565
O5 Ta0 2.004295 1_565
O6 W1 1.942053 1_566
O6 Ta1 2.004290 1_566
O7 Ta1 1.974774 1_565
O7 Ta0 1.974774 1_565
O8 W0 1.942052 1_555
O8 Ta1 2.004295 1_666
O9 W0 1.942046 1_555
O9 Ta0 2.004297 1_565
O10 W0 1.939989 1_555
O10 W1 1.939989 1_566
O11 W1 1.942052 1_556
O11 Ta0 2.004295 1_555
O12 W1 1.942053 1_555
O12 Ta1 2.004290 1_655
O13 Ta0 1.974774 1_555
O13 Ta1 1.974774 1_656
