# generated using pymatgen
data_Ca2AlPd2
_symmetry_space_group_name_H-M   'P 1'
_cell_length_a   5.75527240
_cell_length_b   5.75527240
_cell_length_c   7.73987404
_cell_angle_alpha   79.29396929
_cell_angle_beta   79.29396929
_cell_angle_gamma   60.17454648
_symmetry_Int_Tables_number   1
_chemical_formula_structural   Ca2AlPd2
_chemical_formula_sum   'Ca4 Al2 Pd4'
_cell_volume   217.22509377
_cell_formula_units_Z   2
loop_
 _symmetry_equiv_pos_site_id
 _symmetry_equiv_pos_as_xyz
  1  'x, y, z'
loop_
 _atom_site_type_symbol
 _atom_site_label
 _atom_site_symmetry_multiplicity
 _atom_site_fract_x
 _atom_site_fract_y
 _atom_site_fract_z
 _atom_site_occupancy
  Ca  Ca0  1  0.78128966  0.51830458  0.35108579  1
  Ca  Ca1  1  0.48169542  0.21871034  0.14891421  1
  Ca  Ca2  1  0.21871034  0.48169542  0.64891421  1
  Ca  Ca3  1  0.51830458  0.78128966  0.85108579  1
  Al  Al0  1  0.12033540  0.87966460  0.25000000  1
  Al  Al1  1  0.87966460  0.12033540  0.75000000  1
  Pd  Pd0  1  0.00432670  0.74082059  0.00322364  1
  Pd  Pd1  1  0.25917941  0.99567330  0.49677636  1
  Pd  Pd2  1  0.99567330  0.25917941  0.99677636  1
  Pd  Pd3  1  0.74082059  0.00432670  0.50322364  1
loop_
_geom_bond_atom_site_label_1
_geom_bond_atom_site_label_2
_geom_bond_distance
_geom_bond_site_symmetry_2
Ca0 Pd3 3.079017 1_555
Ca0 Pd1 3.086932 1_555
Ca0 Pd1 3.089741 1_645
Ca0 Pd0 3.099498 1_655
Ca0 Pd2 3.114276 1_554
Ca0 Pd3 3.120722 1_565
Ca1 Pd2 3.079017 1_554
Ca1 Pd0 3.086932 1_555
Ca1 Pd0 3.089741 1_645
Ca1 Pd1 3.099498 1_545
Ca1 Pd3 3.114276 1_555
Ca1 Pd2 3.120722 1_454
Ca2 Pd1 3.079017 1_555
Ca2 Pd3 3.086932 1_555
Ca2 Pd3 3.089741 1_465
Ca2 Pd2 3.099498 1_455
Ca2 Pd0 3.114276 1_556
Ca2 Pd1 3.120722 1_545
Ca3 Pd0 3.079017 1_556
Ca3 Pd2 3.086932 1_555
Ca3 Pd2 3.089741 1_465
Ca3 Pd3 3.099498 1_565
Ca3 Pd1 3.114276 1_555
Ca3 Pd0 3.120722 1_656
Al0 Pd0 2.510787 1_555
Al0 Pd1 2.510787 1_555
Al0 Pd3 2.549496 1_465
Al0 Pd2 2.549496 1_464
Al1 Pd3 2.510787 1_555
Al1 Pd2 2.510787 1_555
Al1 Pd0 2.549496 1_646
Al1 Pd1 2.549496 1_645
