# generated using pymatgen
data_RbMg6Sn
_symmetry_space_group_name_H-M   'P 1'
_cell_length_a   5.22437100
_cell_length_b   7.05343700
_cell_length_c   12.19634600
_cell_angle_alpha   90.00000000
_cell_angle_beta   90.00000000
_cell_angle_gamma   90.00000000
_symmetry_Int_Tables_number   1
_chemical_formula_structural   RbMg6Sn
_chemical_formula_sum   'Rb2 Mg12 Sn2'
_cell_volume   449.43256583
_cell_formula_units_Z   2
loop_
 _symmetry_equiv_pos_site_id
 _symmetry_equiv_pos_as_xyz
  1  'x, y, z'
loop_
 _atom_site_type_symbol
 _atom_site_label
 _atom_site_symmetry_multiplicity
 _atom_site_fract_x
 _atom_site_fract_y
 _atom_site_fract_z
 _atom_site_occupancy
  Rb  Rb0  1  0.50000000  0.50000000  0.16750800  1
  Rb  Rb1  1  0.50000000  0.00000000  0.66750800  1
  Mg  Mg0  1  0.00000000  0.21643000  0.07351100  1
  Mg  Mg1  1  0.00000000  0.78357000  0.07351100  1
  Mg  Mg2  1  0.00000000  0.50000000  0.83243900  1
  Mg  Mg3  1  0.50000000  0.24159100  0.91871400  1
  Mg  Mg4  1  0.50000000  0.75840900  0.91871400  1
  Mg  Mg5  1  0.50000000  0.50000000  0.66138100  1
  Mg  Mg6  1  0.00000000  0.71643000  0.57351100  1
  Mg  Mg7  1  0.00000000  0.28357000  0.57351100  1
  Mg  Mg8  1  0.00000000  0.00000000  0.33243900  1
  Mg  Mg9  1  0.50000000  0.74159100  0.41871400  1
  Mg  Mg10  1  0.50000000  0.25840900  0.41871400  1
  Mg  Mg11  1  0.50000000  0.00000000  0.16138100  1
  Sn  Sn0  1  0.00000000  0.50000000  0.35422300  1
  Sn  Sn1  1  0.00000000  0.00000000  0.85422300  1
loop_
_geom_bond_atom_site_label_1
_geom_bond_atom_site_label_2
_geom_bond_distance
_geom_bond_site_symmetry_2
Rb0 Sn0 3.465449 1_555
Rb0 Sn0 3.465449 1_655
Rb1 Sn1 3.465449 1_555
Rb1 Sn1 3.465449 1_655
Mg0 Sn1 3.079521 1_554
Mg0 Mg11 3.209746 1_455
Mg0 Mg11 3.209746 1_555
Mg0 Mg3 3.227909 1_454
Mg0 Mg3 3.227909 1_554
Mg0 Rb0 3.484016 1_455
Mg0 Rb0 3.484016 1_555
Mg1 Sn1 3.079521 1_564
Mg1 Mg11 3.209746 1_565
Mg1 Mg11 3.209746 1_465
Mg1 Mg4 3.227909 1_554
Mg1 Mg4 3.227909 1_454
Mg1 Rb0 3.484016 1_455
Mg1 Rb0 3.484016 1_555
Mg2 Mg5 3.343066 1_455
Mg2 Mg5 3.343066 1_555
Mg2 Mg3 3.354527 1_455
Mg2 Mg4 3.354527 1_455
Mg2 Mg3 3.354527 1_555
Mg2 Mg4 3.354527 1_555
Mg3 Sn1 3.216513 1_655
Mg3 Sn1 3.216513 1_555
Mg3 Mg4 3.408094 1_545
Mg3 Rb1 3.505798 1_555
Mg3 Rb0 3.539715 1_556
Mg4 Sn1 3.216513 1_665
Mg4 Sn1 3.216513 1_565
Mg4 Rb1 3.505798 1_565
Mg4 Rb0 3.539715 1_556
Mg5 Mg7 3.209746 1_555
Mg5 Mg6 3.209746 1_655
Mg5 Mg7 3.209746 1_655
Mg5 Mg6 3.209746 1_555
Mg5 Mg9 3.415159 1_555
Mg5 Rb1 3.527510 1_565
Mg5 Rb1 3.527510 1_555
Mg6 Sn0 3.079521 1_555
Mg6 Mg9 3.227909 1_555
Mg6 Mg9 3.227909 1_455
Mg6 Rb1 3.484016 1_465
Mg6 Rb1 3.484016 1_565
Mg7 Sn0 3.079521 1_555
Mg7 Rb1 3.484016 1_555
Mg7 Rb1 3.484016 1_455
Mg8 Mg9 3.354527 1_445
Mg8 Mg9 3.354527 1_545
Mg9 Sn0 3.216513 1_555
Mg9 Sn0 3.216513 1_655
Mg9 Rb0 3.505798 1_555
Mg9 Rb1 3.539715 1_565
Mg10 Sn0 3.216513 1_555
Mg10 Sn0 3.216513 1_655
Mg10 Mg7 3.227909 1_555
Mg10 Mg7 3.227909 1_655
Mg10 Mg8 3.354527 1_555
Mg10 Mg8 3.354527 1_655
Mg10 Mg9 3.408094 1_555
Mg10 Mg5 3.415159 1_555
Mg10 Rb0 3.505798 1_555
Mg10 Rb1 3.539715 1_555
Mg11 Mg8 3.343066 1_555
Mg11 Mg8 3.343066 1_655
Mg11 Mg3 3.415159 1_554
Mg11 Mg4 3.415159 1_544
Mg11 Rb0 3.527510 1_545
Mg11 Rb0 3.527510 1_555
