# generated using pymatgen
data_ZnSnP14
_symmetry_space_group_name_H-M   'P 1'
_cell_length_a   9.87380400
_cell_length_b   10.63485100
_cell_length_c   12.86020300
_cell_angle_alpha   90.00000000
_cell_angle_beta   90.00000000
_cell_angle_gamma   90.00000000
_symmetry_Int_Tables_number   1
_chemical_formula_structural   ZnSnP14
_chemical_formula_sum   'Zn4 Sn4 P56'
_cell_volume   1350.40406196
_cell_formula_units_Z   4
loop_
 _symmetry_equiv_pos_site_id
 _symmetry_equiv_pos_as_xyz
  1  'x, y, z'
loop_
 _atom_site_type_symbol
 _atom_site_label
 _atom_site_symmetry_multiplicity
 _atom_site_fract_x
 _atom_site_fract_y
 _atom_site_fract_z
 _atom_site_occupancy
  Zn  Zn0  1  0.25000000  0.49574200  0.67864900  1
  Zn  Zn1  1  0.25000000  0.00425800  0.17864900  1
  Zn  Zn2  1  0.75000000  0.50425800  0.32135100  1
  Zn  Zn3  1  0.75000000  0.99574200  0.82135100  1
  Sn  Sn0  1  0.25000000  0.90164200  0.82902000  1
  Sn  Sn1  1  0.25000000  0.59835800  0.32902000  1
  Sn  Sn2  1  0.75000000  0.09835800  0.17098000  1
  Sn  Sn3  1  0.75000000  0.40164200  0.67098000  1
  P  P0  1  0.25000000  0.65654600  0.53504100  1
  P  P1  1  0.25000000  0.84345400  0.03504100  1
  P  P2  1  0.75000000  0.34345400  0.46495900  1
  P  P3  1  0.75000000  0.15654600  0.96495900  1
  P  P4  1  0.25000000  0.28014100  0.94381600  1
  P  P5  1  0.25000000  0.21985900  0.44381700  1
  P  P6  1  0.75000000  0.71985900  0.05618400  1
  P  P7  1  0.75000000  0.78014100  0.55618400  1
  P  P8  1  0.25000000  0.09711200  0.58542300  1
  P  P9  1  0.25000000  0.40288800  0.08542300  1
  P  P10  1  0.75000000  0.90288800  0.41457700  1
  P  P11  1  0.75000000  0.59711200  0.91457700  1
  P  P12  1  0.25000000  0.64404300  0.82518200  1
  P  P13  1  0.25000000  0.85595700  0.32518200  1
  P  P14  1  0.75000000  0.35595700  0.17481800  1
  P  P15  1  0.75000000  0.14404300  0.67481800  1
  P  P16  1  0.07747200  0.14974200  0.97060800  1
  P  P17  1  0.42252800  0.35025800  0.47060800  1
  P  P18  1  0.57747200  0.85025800  0.02939200  1
  P  P19  1  0.92252800  0.64974200  0.52939200  1
  P  P20  1  0.92252800  0.85025800  0.02939200  1
  P  P21  1  0.57747200  0.64974200  0.52939200  1
  P  P22  1  0.42252800  0.14974200  0.97060800  1
  P  P23  1  0.07747200  0.35025800  0.47060800  1
  P  P24  1  0.08273700  0.79009100  0.56783500  1
  P  P25  1  0.41726300  0.70990900  0.06783500  1
  P  P26  1  0.58273700  0.20990900  0.43216500  1
  P  P27  1  0.91726300  0.29009100  0.93216500  1
  P  P28  1  0.91726300  0.20990900  0.43216500  1
  P  P29  1  0.58273700  0.29009100  0.93216500  1
  P  P30  1  0.41726300  0.79009100  0.56783500  1
  P  P31  1  0.08273700  0.70990900  0.06783500  1
  P  P32  1  0.07946800  0.58105100  0.92475600  1
  P  P33  1  0.42053200  0.91894900  0.42475600  1
  P  P34  1  0.57946800  0.41894900  0.07524400  1
  P  P35  1  0.92053200  0.08105100  0.57524400  1
  P  P36  1  0.92053200  0.41894900  0.07524400  1
  P  P37  1  0.57946800  0.08105100  0.57524400  1
  P  P38  1  0.42053200  0.58105100  0.92475600  1
  P  P39  1  0.07946800  0.91894900  0.42475600  1
  P  P40  1  0.07673200  0.16628300  0.67944600  1
  P  P41  1  0.42326800  0.33371700  0.17944600  1
  P  P42  1  0.57673200  0.83371700  0.32055400  1
  P  P43  1  0.92326800  0.66628300  0.82055400  1
  P  P44  1  0.92326800  0.83371700  0.32055400  1
  P  P45  1  0.57673200  0.66628300  0.82055400  1
  P  P46  1  0.42326800  0.16628300  0.67944600  1
  P  P47  1  0.07673200  0.33371700  0.17944600  1
  P  P48  1  0.05066700  0.36673200  0.64033500  1
  P  P49  1  0.44933300  0.13326800  0.14033500  1
  P  P50  1  0.55066700  0.63326800  0.35966500  1
  P  P51  1  0.94933300  0.86673200  0.85966500  1
  P  P52  1  0.94933300  0.63326800  0.35966500  1
  P  P53  1  0.55066700  0.86673200  0.85966500  1
  P  P54  1  0.44933300  0.36673200  0.64033500  1
  P  P55  1  0.05066700  0.13326800  0.14033500  1
loop_
_geom_bond_atom_site_label_1
_geom_bond_atom_site_label_2
_geom_bond_distance
_geom_bond_site_symmetry_2
P0 P30 2.218658 1_555
P0 P24 2.218658 1_555
P0 Zn0 2.517004 1_555
P0 Sn1 2.720779 1_555
P1 P25 2.218658 1_555
P1 P31 2.218658 1_555
P1 Zn1 2.517004 1_565
P1 Sn0 2.720779 1_554
P2 P28 2.218658 1_555
P2 P26 2.218658 1_555
P2 Zn2 2.517004 1_555
P2 Sn3 2.720779 1_555
P3 Zn3 2.517004 1_545
P3 Sn2 2.720779 1_556
P4 P9 2.240635 1_556
P5 P8 2.240625 1_555
P10 P42 2.220379 1_555
P10 P44 2.220379 1_555
P10 P7 2.240635 1_555
P11 P45 2.220379 1_555
P11 P43 2.220379 1_555
P11 P6 2.240635 1_556
P12 P38 2.218952 1_555
P12 P32 2.218952 1_555
P12 Zn0 2.457348 1_555
P12 Sn0 2.739972 1_555
P13 P33 2.218952 1_555
P13 P39 2.218952 1_555
P13 Zn1 2.457348 1_565
P13 Sn1 2.739972 1_555
P14 P36 2.218952 1_555
P14 P34 2.218952 1_555
P14 Zn2 2.457348 1_555
P14 Sn2 2.739972 1_555
P15 P35 2.218952 1_555
P15 P37 2.218952 1_555
P15 Zn3 2.457348 1_545
P15 Sn3 2.739972 1_555
P16 P55 2.205680 1_556
P16 P4 2.223465 1_555
P16 P27 2.230373 1_455
P17 P54 2.205680 1_555
P17 P5 2.223463 1_555
P17 P26 2.230373 1_555
P18 P53 2.205680 1_554
P18 P6 2.223465 1_555
P18 P25 2.230373 1_555
P19 P52 2.205680 1_555
P19 P7 2.223465 1_555
P19 P24 2.230373 1_655
P20 P51 2.205680 1_554
P20 P6 2.223465 1_555
P20 P31 2.230373 1_655
P21 P50 2.205680 1_555
P21 P7 2.223465 1_555
P21 P30 2.230373 1_555
P22 P49 2.205680 1_556
P22 P4 2.223465 1_555
P22 P29 2.230373 1_555
P23 P48 2.205680 1_555
P23 P5 2.223463 1_555
P23 P28 2.230373 1_455
P24 P39 2.294491 1_555
P25 P38 2.294491 1_554
P26 P37 2.294491 1_555
P27 P3 2.218658 1_555
P27 P36 2.294491 1_556
P28 P35 2.294491 1_555
P29 P3 2.218658 1_555
P29 P34 2.294491 1_556
P30 P33 2.294491 1_555
P31 P32 2.294491 1_554
P32 P43 2.235179 1_455
P33 P42 2.235179 1_555
P34 P41 2.235179 1_555
P35 P40 2.235179 1_655
P36 P47 2.235179 1_655
P37 P46 2.235179 1_555
P38 P45 2.235179 1_555
P39 P44 2.235179 1_455
P40 P48 2.205347 1_555
P40 P8 2.220379 1_555
P41 P49 2.205347 1_555
P41 P9 2.220379 1_555
P42 P50 2.205347 1_555
P43 P51 2.205347 1_555
P44 P52 2.205347 1_555
P45 P53 2.205347 1_555
P46 P54 2.205347 1_555
P46 P8 2.220379 1_555
P47 P55 2.205347 1_555
P47 P9 2.220379 1_555
P48 Zn0 2.449261 1_555
P48 Sn3 3.017696 1_455
P49 Zn1 2.449261 1_555
P49 Sn2 3.017696 1_555
P50 Zn2 2.449261 1_555
P50 Sn1 3.017696 1_555
P51 Zn3 2.449261 1_555
P51 Sn0 3.017696 1_655
P52 Zn2 2.449261 1_555
P52 Sn1 3.017696 1_655
P53 Zn3 2.449261 1_555
P53 Sn0 3.017696 1_555
P54 Zn0 2.449261 1_555
P54 Sn3 3.017696 1_555
P55 Zn1 2.449261 1_555
P55 Sn2 3.017696 1_455
