# generated using pymatgen
data_K2MnH4(I2O7)2
_symmetry_space_group_name_H-M   'P 1'
_cell_length_a   8.09691433
_cell_length_b   14.13543841
_cell_length_c   8.09675089
_cell_angle_alpha   75.38154760
_cell_angle_beta   59.54961105
_cell_angle_gamma   75.38056570
_symmetry_Int_Tables_number   1
_chemical_formula_structural   K2MnH4(I2O7)2
_chemical_formula_sum   'K4 Mn2 H8 I8 O28'
_cell_volume   764.36073539
_cell_formula_units_Z   2
loop_
 _symmetry_equiv_pos_site_id
 _symmetry_equiv_pos_as_xyz
  1  'x, y, z'
loop_
 _atom_site_type_symbol
 _atom_site_label
 _atom_site_symmetry_multiplicity
 _atom_site_fract_x
 _atom_site_fract_y
 _atom_site_fract_z
 _atom_site_occupancy
  K  K0  1  0.84886100  0.49996800  0.15119900  1
  K  K1  1  0.34876200  0.00002400  0.65115400  1
  K  K2  1  0.86915800  0.99998000  0.13083100  1
  K  K3  1  0.36917300  0.50000400  0.63080400  1
  Mn  Mn0  1  0.66445500  0.75000600  0.83553000  1
  Mn  Mn1  1  0.16416800  0.25008200  0.33604200  1
  H  H0  1  0.77084700  0.26409000  0.60505600  1
  H  H1  1  0.27101500  0.76409200  0.10491100  1
  H  H2  1  0.89492100  0.23589600  0.72917300  1
  H  H3  1  0.39507700  0.73590200  0.22899400  1
  H  H4  1  0.51452100  0.18750900  0.01701500  1
  H  H5  1  0.01461300  0.68751400  0.51692600  1
  H  H6  1  0.48299400  0.31247200  0.98545100  1
  H  H7  1  0.98308000  0.81250200  0.48535100  1
  I  I0  1  0.34888400  0.49183800  0.14304700  1
  I  I1  1  0.84884200  0.99182300  0.64306500  1
  I  I2  1  0.35693400  0.00816500  0.15112000  1
  I  I3  1  0.85690600  0.50818800  0.65117000  1
  I  I4  1  0.10490700  0.25877100  0.92810700  1
  I  I5  1  0.60484300  0.75877100  0.42812400  1
  I  I6  1  0.57193200  0.24121200  0.39508500  1
  I  I7  1  0.07187800  0.74122700  0.89514300  1
  O  O0  1  0.43242500  0.24999600  0.06757400  1
  O  O1  1  0.93254400  0.75000200  0.56744000  1
  O  O2  1  0.90143300  0.24998700  0.59857300  1
  O  O3  1  0.40160900  0.75000000  0.09839600  1
  O  O4  1  0.98536000  0.26598000  0.19072100  1
  O  O5  1  0.48539000  0.76599400  0.69072300  1
  O  O6  1  0.30931100  0.23401100  0.51466400  1
  O  O7  1  0.80928300  0.73401100  0.01460500  1
  O  O8  1  0.91838200  0.20800400  0.92832000  1
  O  O9  1  0.41828300  0.70797800  0.42844600  1
  O  O10  1  0.57169700  0.29198400  0.58161200  1
  O  O11  1  0.07156500  0.79200700  0.08171700  1
  O  O12  1  0.49337500  0.43713200  0.26958700  1
  O  O13  1  0.99335900  0.93715500  0.76959800  1
  O  O14  1  0.23039300  0.06285700  0.00662500  1
  O  O15  1  0.73039500  0.56284100  0.50662900  1
  O  O16  1  0.15309200  0.41503700  0.26633400  1
  O  O17  1  0.65303000  0.91503800  0.76633900  1
  O  O18  1  0.23365800  0.08497200  0.34691000  1
  O  O19  1  0.73362100  0.58498100  0.84697700  1
  O  O20  1  0.05461300  0.39091900  0.84432200  1
  O  O21  1  0.55454900  0.89092600  0.34438000  1
  O  O22  1  0.65567400  0.10907000  0.44539300  1
  O  O23  1  0.15561200  0.60906800  0.94543900  1
  O  O24  1  0.49585800  0.43429500  0.92043300  1
  O  O25  1  0.99578800  0.93425800  0.42046600  1
  O  O26  1  0.57954800  0.06571100  0.00413400  1
  O  O27  1  0.07950100  0.56575200  0.50422600  1
loop_
_geom_bond_atom_site_label_1
_geom_bond_atom_site_label_2
_geom_bond_distance
_geom_bond_site_symmetry_2
K0 O23 2.786642 1_654
K0 O20 2.786858 1_654
K0 O15 2.838056 1_555
K0 O12 2.838460 1_555
K0 O16 2.940771 1_655
K0 O19 2.941362 1_554
K0 O4 3.200399 1_555
K0 O7 3.201236 1_555
K1 O21 2.786687 1_545
K1 O22 2.787113 1_555
K1 O13 2.837951 1_445
K1 O14 2.838289 1_556
K1 O18 2.940711 1_555
K1 O17 2.941389 1_545
K1 O6 3.200378 1_555
K1 O5 3.201092 1_545
K2 O22 2.833234 1_565
K2 O21 2.833282 1_555
K2 O13 2.869404 1_554
K2 O14 2.869840 1_665
K2 O25 2.875837 1_555
K2 O26 2.876051 1_565
K2 O11 2.997306 1_655
K2 O8 2.998252 1_564
K3 O20 2.833259 1_555
K3 O23 2.833448 1_555
K3 O15 2.869534 1_555
K3 O12 2.869601 1_555
K3 O27 2.875853 1_555
K3 O24 2.876094 1_555
K3 O9 2.997250 1_555
K3 O10 2.998174 1_555
Mn0 O3 2.113796 1_556
Mn0 O1 2.155882 1_555
Mn0 O5 2.225253 1_555
Mn0 O7 2.225442 1_556
Mn0 O19 2.246718 1_555
Mn0 O17 2.246839 1_555
Mn1 O2 2.112004 1_455
Mn1 O0 2.158078 1_555
Mn1 O6 2.224079 1_555
Mn1 O4 2.227108 1_455
Mn1 O16 2.246094 1_555
Mn1 O18 2.248345 1_555
H0 O2 1.001547 1_555
H0 O10 1.656253 1_555
H1 O3 1.001507 1_555
H1 O11 1.657494 1_555
H2 O2 1.001548 1_555
H2 O8 1.656282 1_555
H3 O3 1.001457 1_555
H3 O9 1.657534 1_555
H4 O0 0.999970 1_555
H4 O26 1.682149 1_555
H5 O1 0.999823 1_455
H5 O27 1.681398 1_555
H6 O0 0.999933 1_556
H6 O24 1.682475 1_555
H7 O1 1.000068 1_555
H7 O25 1.681337 1_555
I0 O12 1.837062 1_555
I0 O24 1.844970 1_554
I0 O16 1.845535 1_555
I1 O13 1.837125 1_555
I1 O25 1.845032 1_555
I1 O17 1.845507 1_555
I2 O14 1.837069 1_555
I2 O26 1.845044 1_555
I2 O18 1.845534 1_555
I3 O15 1.837118 1_555
I3 O27 1.845048 1_655
I3 O19 1.845500 1_555
I4 O8 1.827495 1_455
I4 O20 1.836228 1_555
I4 O4 1.855261 1_456
I4 O14 2.729721 1_556
I5 O9 1.827522 1_555
I5 O21 1.836240 1_555
I5 O5 1.855250 1_555
I5 O15 2.730024 1_555
I6 O10 1.827423 1_555
I6 O22 1.836091 1_555
I6 O6 1.855312 1_555
I6 O12 2.729873 1_555
I7 O11 1.827516 1_556
I7 O23 1.836270 1_555
I7 O7 1.855238 1_456
I7 O13 2.730009 1_455
