# generated using pymatgen
data_Rb(Nb3Se4)2
_symmetry_space_group_name_H-M   'P 1'
_cell_length_a   3.51650999
_cell_length_b   10.24340962
_cell_length_c   10.24333286
_cell_angle_alpha   119.99972488
_cell_angle_beta   89.99970864
_cell_angle_gamma   90.00093495
_symmetry_Int_Tables_number   1
_chemical_formula_structural   Rb(Nb3Se4)2
_chemical_formula_sum   'Rb1 Nb6 Se8'
_cell_volume   319.54315349
_cell_formula_units_Z   1
loop_
 _symmetry_equiv_pos_site_id
 _symmetry_equiv_pos_as_xyz
  1  'x, y, z'
loop_
 _atom_site_type_symbol
 _atom_site_label
 _atom_site_symmetry_multiplicity
 _atom_site_fract_x
 _atom_site_fract_y
 _atom_site_fract_z
 _atom_site_occupancy
  Rb  Rb0  1  0.50003102  -0.00000017  0.99999707  1
  Nb  Nb0  1  0.74876254  0.38368481  0.89610747  1
  Nb  Nb1  1  0.74877048  0.10388420  0.48757256  1
  Nb  Nb2  1  0.74877598  0.51243448  0.61632074  1
  Nb  Nb3  1  0.25123898  0.61629979  0.10388191  1
  Nb  Nb4  1  0.25123799  0.89611628  0.51242362  1
  Nb  Nb5  1  0.25122718  0.48758941  0.38370442  1
  Se  Se0  1  0.75301578  0.06073054  0.71709415  1
  Se  Se1  1  0.75297545  0.28291747  0.34363999  1
  Se  Se2  1  0.75299950  0.65635226  0.93926045  1
  Se  Se3  1  0.24697643  0.93931366  0.28290832  1
  Se  Se4  1  0.24698511  0.71708397  0.65641003  1
  Se  Se5  1  0.24697429  0.34359186  0.06067720  1
  Se  Se6  1  0.75107144  0.66668340  0.33335055  1
  Se  Se7  1  0.24895885  0.33331805  0.66665053  1
loop_
_geom_bond_atom_site_label_1
_geom_bond_atom_site_label_2
_geom_bond_distance
_geom_bond_site_symmetry_2
Rb0 Se4 3.373066 1_545
Rb0 Se3 3.373105 1_546
Rb0 Se5 3.373124 1_556
Rb0 Se0 3.373239 1_555
Rb0 Se1 3.373329 1_556
Rb0 Se2 3.373388 1_545
Nb0 Se2 2.600405 1_555
Nb0 Se5 2.602334 1_656
Nb0 Se5 2.610797 1_556
Nb0 Se7 2.768934 1_555
Nb0 Se7 2.769806 1_655
Nb0 Se0 2.870617 1_555
Nb1 Se0 2.600460 1_555
Nb1 Se3 2.602340 1_645
Nb1 Se3 2.610828 1_545
Nb1 Se7 2.768831 1_555
Nb1 Se7 2.769635 1_655
Nb1 Se1 2.870707 1_555
Nb2 Se1 2.600494 1_555
Nb2 Se4 2.602219 1_655
Nb2 Se4 2.610759 1_555
Nb2 Se7 2.768957 1_555
Nb2 Se7 2.769815 1_655
Nb2 Se2 2.870475 1_555
Nb3 Se5 2.600622 1_555
Nb3 Se2 2.602585 1_454
Nb3 Se2 2.610916 1_554
Nb3 Se6 2.769048 1_555
Nb3 Se6 2.769792 1_455
Nb3 Se3 2.871135 1_555
Nb4 Se3 2.600675 1_555
Nb4 Se0 2.602519 1_465
Nb4 Se0 2.610930 1_565
Nb4 Se6 2.768862 1_555
Nb4 Se6 2.769569 1_455
Nb4 Se4 2.871158 1_555
Nb5 Se4 2.600569 1_555
Nb5 Se1 2.602550 1_455
Nb5 Se1 2.610887 1_555
Nb5 Se6 2.768971 1_555
Nb5 Se6 2.769708 1_455
Nb5 Se5 2.871227 1_555
