# generated using pymatgen
data_Ca4Ni5(TeO6)3
_symmetry_space_group_name_H-M   'P 1'
_cell_length_a   9.14802022
_cell_length_b   9.14802022
_cell_length_c   10.51432853
_cell_angle_alpha   86.85997864
_cell_angle_beta   86.85997864
_cell_angle_gamma   58.46607737
_symmetry_Int_Tables_number   1
_chemical_formula_structural   Ca4Ni5(TeO6)3
_chemical_formula_sum   'Ca8 Ni10 Te6 O36'
_cell_volume   748.49103361
_cell_formula_units_Z   2
loop_
 _symmetry_equiv_pos_site_id
 _symmetry_equiv_pos_as_xyz
  1  'x, y, z'
loop_
 _atom_site_type_symbol
 _atom_site_label
 _atom_site_symmetry_multiplicity
 _atom_site_fract_x
 _atom_site_fract_y
 _atom_site_fract_z
 _atom_site_occupancy
  Ca  Ca0  1  0.32271400  0.03924500  0.09230000  1
  Ca  Ca1  1  0.34452900  0.66196400  0.91750400  1
  Ca  Ca2  1  0.96075500  0.67728600  0.40770000  1
  Ca  Ca3  1  0.33803600  0.65547100  0.58249600  1
  Ca  Ca4  1  0.66196400  0.34452900  0.41750400  1
  Ca  Ca5  1  0.03924500  0.32271400  0.59230000  1
  Ca  Ca6  1  0.67728600  0.96075500  0.90770000  1
  Ca  Ca7  1  0.65547100  0.33803600  0.08249600  1
  Ni  Ni0  1  0.31877000  0.99537800  0.73179800  1
  Ni  Ni1  1  0.99537800  0.31877000  0.23179800  1
  Ni  Ni2  1  0.13673100  0.52162200  0.06054200  1
  Ni  Ni3  1  0.52162200  0.13673100  0.56054200  1
  Ni  Ni4  1  0.47837800  0.86326900  0.43945800  1
  Ni  Ni5  1  0.82886800  0.17113200  0.75000000  1
  Ni  Ni6  1  0.17113200  0.82886800  0.25000000  1
  Ni  Ni7  1  0.86326900  0.47837800  0.93945800  1
  Ni  Ni8  1  0.68123000  0.00462200  0.26820200  1
  Ni  Ni9  1  0.00462200  0.68123000  0.76820200  1
  Te  Te0  1  0.68188300  0.66102900  0.68360200  1
  Te  Te1  1  0.00000000  0.00000000  0.00000000  1
  Te  Te2  1  0.00000000  0.00000000  0.50000000  1
  Te  Te3  1  0.66102900  0.68188300  0.18360200  1
  Te  Te4  1  0.31811700  0.33897100  0.31639800  1
  Te  Te5  1  0.33897100  0.31811700  0.81639800  1
  O  O0  1  0.90266400  0.61118200  0.60840400  1
  O  O1  1  0.22339600  0.96371600  0.55995400  1
  O  O2  1  0.43061300  0.78968700  0.26844500  1
  O  O3  1  0.91592700  0.95392300  0.16379700  1
  O  O4  1  0.03628400  0.77660400  0.94004600  1
  O  O5  1  0.04607700  0.08407300  0.33620300  1
  O  O6  1  0.60239400  0.60852100  0.03267700  1
  O  O7  1  0.86607000  0.22609000  0.56812900  1
  O  O8  1  0.13393000  0.77391000  0.43187100  1
  O  O9  1  0.23117000  0.28807300  0.16890200  1
  O  O10  1  0.45534000  0.73540900  0.75902300  1
  O  O11  1  0.76883000  0.71192700  0.83109800  1
  O  O12  1  0.77660400  0.03628400  0.44004600  1
  O  O13  1  0.55702900  0.90065300  0.61442100  1
  O  O14  1  0.26459100  0.54466000  0.74097700  1
  O  O15  1  0.39760600  0.39147900  0.96732300  1
  O  O16  1  0.54466000  0.26459100  0.24097700  1
  O  O17  1  0.09934700  0.44297100  0.88557900  1
  O  O18  1  0.21031300  0.56938700  0.23155500  1
  O  O19  1  0.73540900  0.45534000  0.25902300  1
  O  O20  1  0.61118200  0.90266400  0.10840400  1
  O  O21  1  0.44297100  0.09934700  0.38557900  1
  O  O22  1  0.77391000  0.13393000  0.93187100  1
  O  O23  1  0.60852100  0.60239400  0.53267700  1
  O  O24  1  0.56938700  0.21031300  0.73155500  1
  O  O25  1  0.95392300  0.91592700  0.66379700  1
  O  O26  1  0.28807300  0.23117000  0.66890200  1
  O  O27  1  0.39147900  0.39760600  0.46732300  1
  O  O28  1  0.96371600  0.22339600  0.05995400  1
  O  O29  1  0.90065300  0.55702900  0.11442100  1
  O  O30  1  0.09733600  0.38881800  0.39159600  1
  O  O31  1  0.08407300  0.04607700  0.83620300  1
  O  O32  1  0.22609000  0.86607000  0.06812900  1
  O  O33  1  0.71192700  0.76883000  0.33109800  1
  O  O34  1  0.78968700  0.43061300  0.76844500  1
  O  O35  1  0.38881800  0.09733600  0.89159600  1
loop_
_geom_bond_atom_site_label_1
_geom_bond_atom_site_label_2
_geom_bond_distance
_geom_bond_site_symmetry_2
Ca0 O9 2.159739 1_555
Ca0 O32 2.211124 1_545
Ca0 O20 2.265070 1_545
Ca0 O35 2.274820 1_554
Ca0 O2 2.645043 1_545
Ca0 O28 2.830482 1_455
Ca1 O10 2.158784 1_555
Ca1 O32 2.277777 1_556
Ca1 O15 2.293895 1_555
Ca1 O4 2.442986 1_555
Ca1 O6 2.512344 1_556
Ca1 O14 2.513762 1_555
Ca2 O33 2.159739 1_555
Ca2 O8 2.211124 1_655
Ca2 O30 2.265070 1_655
Ca2 O0 2.274820 1_555
Ca2 O18 2.645043 1_655
Ca2 O12 2.830482 1_565
Ca3 O14 2.158784 1_555
Ca3 O8 2.277777 1_555
Ca3 O23 2.293895 1_555
Ca3 O1 2.442986 1_555
Ca3 O27 2.512344 1_555
Ca3 O10 2.513762 1_555
Ca4 O19 2.158784 1_555
Ca4 O7 2.277777 1_555
Ca4 O27 2.293895 1_555
Ca4 O12 2.442986 1_555
Ca4 O23 2.512344 1_555
Ca4 O16 2.513762 1_555
Ca5 O26 2.159739 1_555
Ca5 O7 2.211124 1_455
Ca5 O0 2.265070 1_455
Ca5 O30 2.274820 1_555
Ca5 O34 2.645043 1_455
Ca5 O1 2.830482 1_545
Ca6 O11 2.159739 1_555
Ca6 O22 2.211124 1_565
Ca6 O35 2.265070 1_565
Ca6 O20 2.274820 1_556
Ca6 O24 2.645043 1_565
Ca6 O4 2.830482 1_655
Ca7 O16 2.158784 1_555
Ca7 O22 2.277777 1_554
Ca7 O6 2.293895 1_555
Ca7 O28 2.442986 1_555
Ca7 O15 2.512344 1_554
Ca7 O19 2.513762 1_555
Ni0 O10 2.038469 1_555
Ni0 O26 2.097484 1_565
Ni0 O1 2.145718 1_555
Ni0 O31 2.187649 1_565
Ni0 O13 2.207149 1_555
Ni0 O35 2.240170 1_565
Ni1 O19 2.038469 1_555
Ni1 O9 2.097484 1_655
Ni1 O28 2.145718 1_555
Ni1 O5 2.187649 1_655
Ni1 O29 2.207149 1_555
Ni1 O30 2.240170 1_655
Ni2 O29 2.060165 1_455
Ni2 O18 2.098447 1_555
Ni2 O17 2.118996 1_554
Ni2 O9 2.125930 1_555
Ni2 O15 2.230032 1_554
Ni2 O4 2.334995 1_554
Ni3 O13 2.060165 1_545
Ni3 O24 2.098447 1_555
Ni3 O21 2.118996 1_555
Ni3 O26 2.125930 1_555
Ni3 O27 2.230032 1_555
Ni3 O12 2.334995 1_555
Ni4 O21 2.060165 1_565
Ni4 O2 2.098447 1_555
Ni4 O13 2.118996 1_555
Ni4 O33 2.125930 1_555
Ni4 O23 2.230032 1_555
Ni4 O1 2.334995 1_555
Ni5 O22 2.006899 1_555
Ni5 O7 2.006899 1_555
Ni5 O25 2.214775 1_545
Ni5 O31 2.214775 1_655
Ni5 O34 2.225662 1_555
Ni5 O24 2.225662 1_555
Ni6 O32 2.006899 1_555
Ni6 O8 2.006899 1_555
Ni6 O3 2.214775 1_455
Ni6 O5 2.214775 1_565
Ni6 O2 2.225662 1_555
Ni6 O18 2.225662 1_555
Ni7 O17 2.060165 1_655
Ni7 O34 2.098447 1_555
Ni7 O29 2.118996 1_556
Ni7 O11 2.125930 1_555
Ni7 O6 2.230032 1_556
Ni7 O28 2.334995 1_556
Ni8 O16 2.038469 1_555
Ni8 O33 2.097484 1_545
Ni8 O12 2.145718 1_555
Ni8 O3 2.187649 1_545
Ni8 O21 2.207149 1_555
Ni8 O20 2.240170 1_545
Ni9 O14 2.038469 1_555
Ni9 O11 2.097484 1_455
Ni9 O4 2.145718 1_555
Ni9 O25 2.187649 1_455
Ni9 O17 2.207149 1_555
Ni9 O0 2.240170 1_455
O0 Te0 1.952816 1_555
O1 Te2 2.023028 1_565
O2 Te3 1.981765 1_555
O3 Te1 1.962060 1_665
O4 Te1 2.023028 1_566
O5 Te2 1.962060 1_555
O6 Te3 1.960295 1_555
O7 Te2 1.925496 1_655
O8 Te2 1.925496 1_565
O9 Te4 1.963701 1_555
O10 Te0 1.947002 1_555
O11 Te0 1.963701 1_555
O12 Te2 2.023028 1_655
O13 Te0 1.984011 1_555
O14 Te5 1.947002 1_555
O15 Te5 1.960295 1_555
O16 Te4 1.947002 1_555
O17 Te5 1.984011 1_555
O18 Te4 1.981765 1_555
O19 Te3 1.947002 1_555
O20 Te3 1.952816 1_555
O21 Te4 1.984011 1_555
O22 Te1 1.925496 1_656
O23 Te0 1.960295 1_555
O24 Te5 1.981765 1_555
O25 Te2 1.962060 1_665
O26 Te5 1.963701 1_555
O27 Te4 1.960295 1_555
O28 Te1 2.023028 1_655
O29 Te3 1.984011 1_555
O30 Te4 1.952816 1_555
O31 Te1 1.962060 1_556
O32 Te1 1.925496 1_565
O33 Te3 1.963701 1_555
O34 Te0 1.981765 1_555
O35 Te5 1.952816 1_555
