# generated using pymatgen
data_Tm2MgSe4
_symmetry_space_group_name_H-M   'P 1'
_cell_length_a   7.39196600
_cell_length_b   8.56252710
_cell_length_c   13.80262497
_cell_angle_alpha   99.03050735
_cell_angle_beta   95.28939617
_cell_angle_gamma   89.99114051
_symmetry_Int_Tables_number   1
_chemical_formula_structural   Tm2MgSe4
_chemical_formula_sum   'Tm8 Mg4 Se16'
_cell_volume   859.02847005
_cell_formula_units_Z   4
loop_
 _symmetry_equiv_pos_site_id
 _symmetry_equiv_pos_as_xyz
  1  'x, y, z'
loop_
 _atom_site_type_symbol
 _atom_site_label
 _atom_site_symmetry_multiplicity
 _atom_site_fract_x
 _atom_site_fract_y
 _atom_site_fract_z
 _atom_site_occupancy
  Tm  Tm0  1  0.86356600  0.30028700  0.70020700  1
  Tm  Tm1  1  0.13643400  0.69971300  0.29979300  1
  Tm  Tm2  1  0.75841000  0.12561000  0.00043100  1
  Tm  Tm3  1  0.24159000  0.87439000  0.99956900  1
  Tm  Tm4  1  0.63150000  0.44495200  0.29868800  1
  Tm  Tm5  1  0.36850000  0.55504800  0.70131200  1
  Tm  Tm6  1  0.63167900  0.95469300  0.30127400  1
  Tm  Tm7  1  0.36832100  0.04530700  0.69872600  1
  Mg  Mg0  1  0.86745200  0.80066900  0.70252100  1
  Mg  Mg1  1  0.13254800  0.19933100  0.29747900  1
  Mg  Mg2  1  0.75116400  0.62391100  0.99769000  1
  Mg  Mg3  1  0.24883600  0.37608900  0.00231000  1
  Se  Se0  1  0.90294700  0.35269000  0.89627100  1
  Se  Se1  1  0.09705300  0.64731000  0.10372900  1
  Se  Se2  1  0.89457300  0.84536000  0.89183100  1
  Se  Se3  1  0.10542700  0.15464000  0.10816900  1
  Se  Se4  1  0.82341400  0.21917200  0.37523400  1
  Se  Se5  1  0.17658600  0.78082800  0.62476600  1
  Se  Se6  1  0.81123500  0.71898200  0.37701100  1
  Se  Se7  1  0.18876500  0.28101800  0.62298900  1
  Se  Se8  1  0.69303800  0.02369100  0.62501700  1
  Se  Se9  1  0.30696200  0.97630900  0.37498300  1
  Se  Se10  1  0.69210800  0.53905300  0.62585900  1
  Se  Se11  1  0.30789200  0.46094700  0.37414100  1
  Se  Se12  1  0.60268200  0.89850400  0.10451200  1
  Se  Se13  1  0.39731800  0.10149600  0.89548800  1
  Se  Se14  1  0.59812400  0.40444400  0.10263400  1
  Se  Se15  1  0.40187600  0.59555600  0.89736600  1
loop_
_geom_bond_atom_site_label_1
_geom_bond_atom_site_label_2
_geom_bond_distance
_geom_bond_site_symmetry_2
Mg0 Se2 2.569789 1_555
Mg0 Se5 2.607143 1_655
Mg0 Se10 2.611816 1_555
Mg0 Se8 2.615247 1_565
Mg1 Se3 2.569789 1_555
Mg1 Se4 2.607143 1_455
Mg1 Se11 2.611816 1_555
Mg1 Se9 2.615247 1_545
Mg2 Se15 2.806821 1_555
Mg2 Se0 2.807114 1_555
Mg2 Se1 2.817391 1_656
Mg2 Se2 2.830199 1_555
Mg2 Se14 2.840169 1_556
Mg2 Se12 2.848875 1_556
Mg3 Se14 2.806821 1_555
Mg3 Se1 2.807114 1_555
Mg3 Se0 2.817391 1_454
Mg3 Se3 2.830199 1_555
Mg3 Se15 2.840169 1_554
Mg3 Se13 2.848875 1_554
Se0 Tm0 2.661426 1_555
Se0 Tm2 2.854894 1_556
Se1 Tm1 2.661426 1_555
Se1 Tm3 2.854894 1_554
Se2 Tm3 2.834423 1_655
Se2 Tm2 2.857714 1_566
Se3 Tm2 2.834423 1_455
Se3 Tm3 2.857714 1_544
Se4 Tm6 2.681010 1_545
Se4 Tm4 2.688905 1_555
Se5 Tm7 2.681010 1_565
Se5 Tm5 2.688905 1_555
Se6 Tm6 2.708060 1_555
Se6 Tm1 2.712705 1_655
Se6 Tm4 2.716480 1_555
Se7 Tm7 2.708060 1_555
Se7 Tm0 2.712705 1_455
Se7 Tm5 2.716480 1_555
Se8 Tm7 2.687328 1_555
Se8 Tm0 2.695048 1_555
Se9 Tm6 2.687328 1_555
Se9 Tm1 2.695048 1_555
Se10 Tm5 2.690716 1_555
Se10 Tm0 2.693911 1_555
Se11 Tm4 2.690716 1_555
Se11 Tm1 2.693911 1_555
Se12 Tm6 2.671271 1_555
Se12 Tm2 2.890146 1_565
Se12 Tm3 2.908388 1_554
Se13 Tm7 2.671271 1_555
Se13 Tm3 2.890146 1_545
Se13 Tm2 2.908388 1_556
Se14 Tm4 2.661996 1_555
Se14 Tm2 2.888611 1_555
Se15 Tm5 2.661996 1_555
Se15 Tm3 2.888611 1_555
