# generated using pymatgen
data_CrMoF6
_symmetry_space_group_name_H-M   'P 1'
_cell_length_a   5.62634554
_cell_length_b   5.62670400
_cell_length_c   5.64340960
_cell_angle_alpha   118.55599533
_cell_angle_beta   118.43177205
_cell_angle_gamma   90.23553438
_symmetry_Int_Tables_number   1
_chemical_formula_structural   CrMoF6
_chemical_formula_sum   'Cr1 Mo1 F6'
_cell_volume   131.64169149
_cell_formula_units_Z   1
loop_
 _symmetry_equiv_pos_site_id
 _symmetry_equiv_pos_as_xyz
  1  'x, y, z'
loop_
 _atom_site_type_symbol
 _atom_site_label
 _atom_site_symmetry_multiplicity
 _atom_site_fract_x
 _atom_site_fract_y
 _atom_site_fract_z
 _atom_site_occupancy
  Cr  Cr0  1  0.00000000  0.00000000  0.00000000  1
  Mo  Mo0  1  0.50000000  0.50000000  0.00000000  1
  F  F0  1  0.33981300  0.25812800  0.53493200  1
  F  F1  1  0.66018700  0.74187200  0.46506800  1
  F  F2  1  0.82229200  0.73754200  0.06129700  1
  F  F3  1  0.17770800  0.26245800  0.93870300  1
  F  F4  1  0.74627000  0.25456600  0.07652300  1
  F  F5  1  0.25373000  0.74543400  0.92347700  1
loop_
_geom_bond_atom_site_label_1
_geom_bond_atom_site_label_2
_geom_bond_distance
_geom_bond_site_symmetry_2
Cr0 F2 2.026281 1_445
Cr0 F3 2.026281 1_554
Cr0 F5 2.070898 1_544
Cr0 F4 2.070898 1_455
Cr0 F0 2.273243 1_555
Cr0 F1 2.273243 1_444
F0 Mo0 1.968616 1_556
F1 Mo0 1.968616 1_555
F2 Mo0 2.033470 1_555
F3 Mo0 2.033470 1_556
F4 Mo0 2.007388 1_555
F5 Mo0 2.007388 1_556
