# generated using pymatgen
data_MnHO2
_symmetry_space_group_name_H-M   'P 1'
_cell_length_a   6.07632008
_cell_length_b   6.10186773
_cell_length_c   9.00165216
_cell_angle_alpha   89.97086393
_cell_angle_beta   90.07363990
_cell_angle_gamma   90.05863157
_symmetry_Int_Tables_number   1
_chemical_formula_structural   MnHO2
_chemical_formula_sum   'Mn8 H8 O16'
_cell_volume   333.75287670
_cell_formula_units_Z   8
loop_
 _symmetry_equiv_pos_site_id
 _symmetry_equiv_pos_as_xyz
  1  'x, y, z'
loop_
 _atom_site_type_symbol
 _atom_site_label
 _atom_site_symmetry_multiplicity
 _atom_site_fract_x
 _atom_site_fract_y
 _atom_site_fract_z
 _atom_site_occupancy
  Mn  Mn0  1  0.21846900  0.74988600  0.75066000  1
  Mn  Mn1  1  0.78064700  0.24993300  0.24926300  1
  Mn  Mn2  1  0.71834600  0.74942400  0.74959300  1
  Mn  Mn3  1  0.28065400  0.24837400  0.25070200  1
  Mn  Mn4  1  0.99940900  0.52854300  0.50045300  1
  Mn  Mn5  1  0.49910300  0.97067200  0.99931500  1
  Mn  Mn6  1  0.00054100  0.02855400  0.49976300  1
  Mn  Mn7  1  0.49885700  0.47049500  0.00053500  1
  H  H0  1  0.04406500  0.66976300  0.23918900  1
  H  H1  1  0.45446600  0.33036100  0.73838400  1
  H  H2  1  0.57376300  0.78424700  0.48959100  1
  H  H3  1  0.92391900  0.22726900  0.98755600  1
  H  H4  1  0.97013100  0.16982600  0.76263000  1
  H  H5  1  0.54271000  0.82744100  0.26003100  1
  H  H6  1  0.42790900  0.27591500  0.51036800  1
  H  H7  1  0.07265000  0.72524000  0.01147900  1
  O  O0  1  0.97034100  0.55315600  0.72134900  1
  O  O1  1  0.52852000  0.97636200  0.22046600  1
  O  O2  1  0.97424900  0.02172600  0.72115100  1
  O  O3  1  0.52829700  0.44545800  0.22166000  1
  O  O4  1  0.19547200  0.77626500  0.52869500  1
  O  O5  1  0.77419100  0.22700100  0.02772200  1
  O  O6  1  0.72413600  0.77546300  0.52842300  1
  O  O7  1  0.30315000  0.22229600  0.02894100  1
  O  O8  1  0.02832500  0.05296100  0.27855300  1
  O  O9  1  0.46925400  0.47816400  0.77936200  1
  O  O10  1  0.02870700  0.52155700  0.27958100  1
  O  O11  1  0.47064200  0.94613300  0.77831000  1
  O  O12  1  0.27687100  0.27237100  0.47219900  1
  O  O13  1  0.69478800  0.72265700  0.97095600  1
  O  O14  1  0.80435000  0.27628800  0.47088900  1
  O  O15  1  0.22313800  0.72621100  0.97252900  1
loop_
_geom_bond_atom_site_label_1
_geom_bond_atom_site_label_2
_geom_bond_distance
_geom_bond_site_symmetry_2
Mn0 O0 1.944067 1_455
Mn0 O11 1.959427 1_555
Mn0 O15 2.002499 1_555
Mn0 O4 2.009141 1_555
Mn0 O2 2.242245 1_465
Mn0 O9 2.267509 1_555
Mn1 O8 1.944574 1_655
Mn1 O3 1.959286 1_555
Mn1 O5 1.999541 1_555
Mn1 O14 2.006532 1_555
Mn1 O10 2.255597 1_655
Mn1 O1 2.279246 1_545
Mn2 O11 1.943695 1_555
Mn2 O0 1.961768 1_555
Mn2 O6 1.997497 1_555
Mn2 O13 2.004522 1_555
Mn2 O9 2.257832 1_555
Mn2 O2 2.288988 1_565
Mn3 O3 1.943149 1_555
Mn3 O8 1.957645 1_555
Mn3 O12 1.999446 1_555
Mn3 O7 2.007474 1_555
Mn3 O1 2.259194 1_545
Mn3 O10 2.279604 1_555
Mn4 O4 1.940280 1_655
Mn4 O14 1.959773 1_555
Mn4 O10 1.996876 1_655
Mn4 O0 2.002215 1_555
Mn4 O6 2.266678 1_555
Mn4 O12 2.314600 1_655
Mn5 O13 1.942702 1_555
Mn5 O7 1.962442 1_566
Mn5 O1 1.998820 1_556
Mn5 O11 2.002360 1_555
Mn5 O15 2.255937 1_555
Mn5 O5 2.302107 1_566
Mn6 O14 1.943258 1_455
Mn6 O4 1.960400 1_545
Mn6 O2 1.999865 1_455
Mn6 O8 2.004069 1_555
Mn6 O12 2.256056 1_555
Mn6 O6 2.295149 1_445
Mn7 O7 1.941616 1_555
Mn7 O13 1.962753 1_554
Mn7 O9 1.999330 1_554
Mn7 O3 2.004052 1_555
Mn7 O5 2.251677 1_555
Mn7 O15 2.304109 1_554
H0 O10 0.978932 1_555
H1 O9 0.978572 1_555
H2 O6 0.979384 1_555
H3 O5 0.979438 1_556
H4 O2 0.978316 1_555
H5 O1 0.979673 1_555
H6 O12 0.979770 1_555
H7 O15 0.979759 1_554
