# generated using pymatgen
data_K3YbF6
_symmetry_space_group_name_H-M   'P 1'
_cell_length_a   6.64978500
_cell_length_b   6.38042700
_cell_length_c   11.09438244
_cell_angle_alpha   55.39654715
_cell_angle_beta   90.00000000
_cell_angle_gamma   90.00000000
_symmetry_Int_Tables_number   1
_chemical_formula_structural   K3YbF6
_chemical_formula_sum   'K6 Yb2 F12'
_cell_volume   387.44870616
_cell_formula_units_Z   2
loop_
 _symmetry_equiv_pos_site_id
 _symmetry_equiv_pos_as_xyz
  1  'x, y, z'
loop_
 _atom_site_type_symbol
 _atom_site_label
 _atom_site_symmetry_multiplicity
 _atom_site_fract_x
 _atom_site_fract_y
 _atom_site_fract_z
 _atom_site_occupancy
  K  K0  1  0.00000000  0.50000000  0.50000000  1
  K  K1  1  0.50000000  0.50000000  0.00000000  1
  K  K2  1  0.44536000  0.23982800  0.74623700  1
  K  K3  1  0.55464000  0.76017200  0.25376300  1
  K  K4  1  0.94536000  0.76017200  0.75376300  1
  K  K5  1  0.05464000  0.23982800  0.24623700  1
  Yb  Yb0  1  0.00000000  0.00000000  0.00000000  1
  Yb  Yb1  1  0.50000000  0.00000000  0.50000000  1
  F  F0  1  0.72352300  0.89491100  0.93117500  1
  F  F1  1  0.27647700  0.10508900  0.06882500  1
  F  F2  1  0.22352300  0.10508900  0.56882500  1
  F  F3  1  0.77647700  0.89491100  0.43117500  1
  F  F4  1  0.05788800  0.33835800  0.77435100  1
  F  F5  1  0.94211200  0.66164200  0.22564900  1
  F  F6  1  0.55788800  0.66164200  0.72564900  1
  F  F7  1  0.44211200  0.33835800  0.27435100  1
  F  F8  1  0.17781100  0.76877500  0.94885800  1
  F  F9  1  0.82218900  0.23122500  0.05114200  1
  F  F10  1  0.67781100  0.23122500  0.55114200  1
  F  F11  1  0.32218900  0.76877500  0.44885800  1
loop_
_geom_bond_atom_site_label_1
_geom_bond_atom_site_label_2
_geom_bond_distance
_geom_bond_site_symmetry_2
F0 Yb0 2.234784 1_666
F0 K1 2.637430 1_556
F0 K2 2.710334 1_565
F0 K4 2.951471 1_555
F1 Yb0 2.234784 1_555
F1 K1 2.637430 1_555
F1 K3 2.710334 1_545
F1 K5 2.951471 1_555
F2 Yb1 2.234784 1_555
F2 K0 2.637430 1_555
F2 K4 2.710334 1_445
F2 K2 2.951471 1_555
F3 Yb1 2.234784 1_565
F3 K0 2.637430 1_655
F3 K5 2.710334 1_665
F3 K3 2.951471 1_555
F4 Yb0 2.222077 1_556
F4 K0 2.628855 1_555
F4 K4 2.675309 1_455
F4 K2 2.711846 1_555
F5 Yb0 2.222077 1_665
F5 K0 2.628855 1_655
F5 K5 2.675309 1_655
F5 K3 2.711846 1_555
F6 Yb1 2.222077 1_565
F6 K1 2.628855 1_556
F6 K2 2.675309 1_555
F6 K4 2.711846 1_555
F7 Yb1 2.222077 1_555
F7 K1 2.628855 1_555
F7 K3 2.675309 1_555
F7 K5 2.711846 1_555
F8 Yb0 2.201659 1_566
F8 K1 2.597677 1_556
F8 K4 2.685549 1_455
F8 K2 3.094853 1_565
F8 K5 3.209248 1_556
F9 Yb0 2.201659 1_655
F9 K1 2.597677 1_555
F9 K5 2.685549 1_655
F9 K3 3.094853 1_545
F9 K4 3.209248 1_554
F10 Yb1 2.201659 1_555
F10 K0 2.597677 1_655
F10 K2 2.685549 1_555
F10 K4 3.094853 1_545
F10 K3 3.209248 1_555
F11 Yb1 2.201659 1_565
F11 K0 2.597677 1_555
F11 K3 2.685549 1_555
F11 K5 3.094853 1_565
F11 K2 3.209248 1_555
