# generated using pymatgen
data_YbAlCu5
_symmetry_space_group_name_H-M   'P 1'
_cell_length_a   5.11215176
_cell_length_b   5.11215176
_cell_length_c   5.11215176
_cell_angle_alpha   103.19504365
_cell_angle_beta   103.19504365
_cell_angle_gamma   122.91994541
_symmetry_Int_Tables_number   1
_chemical_formula_structural   YbAlCu5
_chemical_formula_sum   'Yb1 Al1 Cu5'
_cell_volume   98.52120399
_cell_formula_units_Z   1
loop_
 _symmetry_equiv_pos_site_id
 _symmetry_equiv_pos_as_xyz
  1  'x, y, z'
loop_
 _atom_site_type_symbol
 _atom_site_label
 _atom_site_symmetry_multiplicity
 _atom_site_fract_x
 _atom_site_fract_y
 _atom_site_fract_z
 _atom_site_occupancy
  Yb  Yb0  1  0.00000000  0.00000000  0.00000000  1
  Al  Al0  1  0.25000000  0.75000000  0.50000000  1
  Cu  Cu0  1  0.69272300  0.30727700  0.00000000  1
  Cu  Cu1  1  0.30727700  0.69272300  0.00000000  1
  Cu  Cu2  1  0.30727700  0.30727700  0.61455500  1
  Cu  Cu3  1  0.69272300  0.69272300  0.38544500  1
  Cu  Cu4  1  0.75000000  0.25000000  0.50000000  1
loop_
_geom_bond_atom_site_label_1
_geom_bond_atom_site_label_2
_geom_bond_distance
_geom_bond_site_symmetry_2
Al0 Cu4 2.442446 1_565
Al0 Cu4 2.442446 1_455
Al0 Cu3 2.607333 1_455
Al0 Cu2 2.607333 1_565
Al0 Cu1 2.607334 1_555
Al0 Cu0 2.607334 1_455
Al0 Cu0 2.607334 1_566
Al0 Cu1 2.607334 1_556
Al0 Cu2 2.607336 1_555
Al0 Cu3 2.607336 1_555
Cu0 Cu2 2.448022 1_554
Cu0 Cu3 2.448022 1_555
Cu0 Cu4 2.607334 1_555
Cu0 Cu4 2.607334 1_554
Cu0 Cu1 2.650321 1_655
Cu0 Cu1 2.650321 1_545
Cu0 Yb0 2.759926 1_655
Cu0 Yb0 2.993653 1_665
Cu0 Yb0 2.993653 1_555
Cu1 Cu2 2.448022 1_554
Cu1 Cu3 2.448022 1_555
Cu1 Cu4 2.607334 1_454
Cu1 Cu4 2.607334 1_565
Cu1 Yb0 2.759926 1_565
Cu1 Yb0 2.993653 1_665
Cu1 Yb0 2.993653 1_555
Cu2 Cu4 2.607333 1_455
Cu2 Cu4 2.607336 1_555
Cu2 Cu3 2.650320 1_445
Cu2 Cu3 2.650329 1_555
Cu2 Yb0 2.759930 1_555
Cu2 Yb0 2.993648 1_556
Cu2 Yb0 2.993652 1_666
Cu3 Cu4 2.607333 1_565
Cu3 Cu4 2.607336 1_555
Cu3 Yb0 2.759930 1_666
Cu3 Yb0 2.993648 1_665
Cu3 Yb0 2.993652 1_555
