# generated using pymatgen
data_Sm3(Al3Ru)4
_symmetry_space_group_name_H-M   'P 1'
_cell_length_a   8.81627725
_cell_length_b   8.81610252
_cell_length_c   9.59198987
_cell_angle_alpha   90.00016878
_cell_angle_beta   89.99998939
_cell_angle_gamma   120.00000385
_symmetry_Int_Tables_number   1
_chemical_formula_structural   Sm3(Al3Ru)4
_chemical_formula_sum   'Sm6 Al24 Ru8'
_cell_volume   645.65600863
_cell_formula_units_Z   2
loop_
 _symmetry_equiv_pos_site_id
 _symmetry_equiv_pos_as_xyz
  1  'x, y, z'
loop_
 _atom_site_type_symbol
 _atom_site_label
 _atom_site_symmetry_multiplicity
 _atom_site_fract_x
 _atom_site_fract_y
 _atom_site_fract_z
 _atom_site_occupancy
  Sm  Sm0  1  0.19286146  0.38571781  0.25000027  1
  Sm  Sm1  1  0.80714424  0.61429404  0.75000207  1
  Sm  Sm2  1  0.61428043  0.80714337  0.25000683  1
  Sm  Sm3  1  0.38570816  0.19285083  0.74999499  1
  Sm  Sm4  1  0.19286532  0.80714654  0.25000570  1
  Sm  Sm5  1  0.80714135  0.19284690  0.74999633  1
  Al  Al0  1  0.33333596  0.66666518  0.00556215  1
  Al  Al1  1  0.66666722  0.33333465  0.99442731  1
  Al  Al2  1  0.66665634  0.33332591  0.50557361  1
  Al  Al3  1  0.33334477  0.66667717  0.49442810  1
  Al  Al4  1  0.16254624  0.32509048  0.57551898  1
  Al  Al5  1  0.83745563  0.67491258  0.42448612  1
  Al  Al6  1  0.67491559  0.83745639  0.57551870  1
  Al  Al7  1  0.83745675  0.67491440  0.07551249  1
  Al  Al8  1  0.32508241  0.16254198  0.42448673  1
  Al  Al9  1  0.16254521  0.32508865  0.92448628  1
  Al  Al10  1  0.16254395  0.83745571  0.57551792  1
  Al  Al11  1  0.32508214  0.16254287  0.07551800  1
  Al  Al12  1  0.83745814  0.16254267  0.42448733  1
  Al  Al13  1  0.67491456  0.83745522  0.92448059  1
  Al  Al14  1  0.83745836  0.16254411  0.07551523  1
  Al  Al15  1  0.16254100  0.83745635  0.92448134  1
  Al  Al16  1  0.56199918  0.12400870  0.25000442  1
  Al  Al17  1  0.43800609  0.87600010  0.74998912  1
  Al  Al18  1  0.87594760  0.43797437  0.24999293  1
  Al  Al19  1  0.12404139  0.56201960  0.75000031  1
  Al  Al20  1  0.56200054  0.43798160  0.24999782  1
  Al  Al21  1  0.43799612  0.56201388  0.75000002  1
  Al  Al22  1  0.00000472  0.00000425  0.24999908  1
  Al  Al23  1  -0.00000443  -0.00000467  0.75000313  1
  Ru  Ru0  1  0.50000637  0.00001228  0.00000170  1
  Ru  Ru1  1  -0.00001136  0.49999421  0.00000356  1
  Ru  Ru2  1  0.50000678  0.00001343  0.49999884  1
  Ru  Ru3  1  0.50000593  0.49999329  0.00000243  1
  Ru  Ru4  1  -0.00001159  0.49999297  0.49999795  1
  Ru  Ru5  1  0.50000679  0.49999327  0.49999918  1
  Ru  Ru6  1  0.00000002  -0.00000082  -0.00000972  1
  Ru  Ru7  1  0.00000062  -0.00000026  0.50001217  1
loop_
_geom_bond_atom_site_label_1
_geom_bond_atom_site_label_2
_geom_bond_distance
_geom_bond_site_symmetry_2
Al0 Ru3 2.545639 1_555
Al0 Ru0 2.545654 1_565
Al0 Ru1 2.545705 1_555
Al0 Sm0 3.177819 1_555
Al0 Sm2 3.177872 1_555
Al0 Sm4 3.177888 1_555
Al1 Ru0 2.545468 1_556
Al1 Ru3 2.545474 1_556
Al1 Ru1 2.545511 1_656
Al1 Sm1 3.177790 1_555
Al1 Sm5 3.177850 1_555
Al1 Sm3 3.177860 1_555
Al2 Ru2 2.545392 1_555
Al2 Ru5 2.545451 1_555
Al2 Ru4 2.545592 1_655
Al2 Sm3 3.177731 1_555
Al2 Sm5 3.177808 1_555
Al2 Sm1 3.177848 1_555
Al3 Ru2 2.545573 1_565
Al3 Ru5 2.545672 1_555
Al3 Ru4 2.545776 1_555
Al3 Sm2 3.177666 1_555
Al3 Sm4 3.177728 1_555
Al3 Sm0 3.177798 1_555
Al4 Ru7 2.585566 1_555
Al4 Ru4 2.676974 1_555
Al4 Ru5 2.676998 1_555
Al4 Sm0 3.156498 1_555
Al4 Sm3 3.213201 1_555
Al4 Sm5 3.213244 1_455
Al5 Ru7 2.585591 1_665
Al5 Ru4 2.676896 1_655
Al5 Ru5 2.676898 1_555
Al5 Sm1 3.156462 1_555
Al5 Sm2 3.213258 1_555
Al5 Sm4 3.213304 1_655
Al6 Ru7 2.585574 1_665
Al6 Ru5 2.676965 1_555
Al6 Ru2 2.677015 1_565
Al6 Sm2 3.156441 1_555
Al6 Sm5 3.213106 1_565
Al6 Sm1 3.213162 1_555
Al7 Ru6 2.585568 1_665
Al7 Ru1 2.676884 1_655
Al7 Ru3 2.676903 1_555
Al7 Sm1 3.156409 1_554
Al7 Sm2 3.213326 1_555
Al7 Sm4 3.213359 1_655
Al8 Ru7 2.585601 1_555
Al8 Ru5 2.676864 1_555
Al8 Ru2 2.676904 1_555
Al8 Sm3 3.156397 1_555
Al8 Sm4 3.213167 1_545
Al8 Sm0 3.213226 1_555
Al9 Ru6 2.585554 1_556
Al9 Ru1 2.676976 1_556
Al9 Ru3 2.676988 1_556
Al9 Sm0 3.156453 1_556
Al9 Sm3 3.213270 1_555
Al9 Sm5 3.213299 1_455
Al10 Ru7 2.585566 1_565
Al10 Ru4 2.676962 1_555
Al10 Ru2 2.677014 1_565
Al10 Sm4 3.156439 1_555
Al10 Sm3 3.213138 1_565
Al10 Sm1 3.213242 1_455
Al11 Ru6 2.585607 1_555
Al11 Ru3 2.676870 1_555
Al11 Ru0 2.676926 1_555
Al11 Sm3 3.156538 1_554
Al11 Sm0 3.213191 1_555
Al11 Sm4 3.213217 1_545
Al12 Ru7 2.585603 1_655
Al12 Ru4 2.676850 1_655
Al12 Ru2 2.676914 1_555
Al12 Sm5 3.156398 1_555
Al12 Sm2 3.213195 1_545
Al12 Sm0 3.213292 1_655
Al13 Ru6 2.585583 1_666
Al13 Ru3 2.676967 1_556
Al13 Ru0 2.677011 1_566
Al13 Sm2 3.156578 1_556
Al13 Sm1 3.213129 1_555
Al13 Sm5 3.213156 1_565
Al14 Ru6 2.585609 1_655
Al14 Ru1 2.676856 1_655
Al14 Ru0 2.676921 1_555
Al14 Sm5 3.156492 1_554
Al14 Sm2 3.213268 1_545
Al14 Sm0 3.213274 1_655
Al15 Ru6 2.585546 1_566
Al15 Ru1 2.676969 1_556
Al15 Ru0 2.677034 1_566
Al15 Sm4 3.156560 1_556
Al15 Sm3 3.213193 1_565
Al15 Sm1 3.213195 1_455
Al16 Ru2 2.578060 1_555
Al16 Ru0 2.578131 1_555
Al16 Sm4 3.050167 1_545
Al16 Sm2 3.050212 1_545
Al17 Ru2 2.578073 1_565
Al17 Ru0 2.578263 1_566
Al17 Sm5 3.050123 1_565
Al17 Sm3 3.050174 1_565
Al18 Ru1 2.578148 1_655
Al18 Ru4 2.578284 1_655
Al18 Sm4 3.050542 1_655
Al18 Sm0 3.050553 1_655
Al19 Ru4 2.578295 1_555
Al19 Ru1 2.578305 1_556
Al19 Sm5 3.050485 1_455
Al19 Sm1 3.050503 1_455
Al20 Ru3 2.578101 1_555
Al20 Ru5 2.578149 1_555
Al20 Sm0 3.050264 1_555
Al20 Sm2 3.050341 1_555
Al21 Ru5 2.578217 1_555
Al21 Ru3 2.578231 1_556
Al21 Sm1 3.050288 1_555
Al21 Sm3 3.050325 1_555
Al22 Ru6 2.398082 1_555
Al22 Ru7 2.398123 1_555
Al22 Sm0 2.944911 1_555
Al22 Sm4 2.944976 1_545
Al22 Sm2 2.945051 1_445
Al23 Ru6 2.397874 1_556
Al23 Ru7 2.397911 1_555
Al23 Sm1 2.944817 1_445
Al23 Sm5 2.944881 1_455
Al23 Sm3 2.944962 1_555
Ru0 Sm5 3.371879 1_554
Ru0 Sm3 3.371882 1_554
Ru0 Sm4 3.371927 1_545
Ru0 Sm2 3.371929 1_545
Ru1 Sm1 3.371898 1_454
Ru1 Sm0 3.371915 1_555
Ru1 Sm5 3.371928 1_454
Ru1 Sm4 3.371944 1_555
Ru2 Sm3 3.371798 1_555
Ru2 Sm5 3.371816 1_555
Ru2 Sm2 3.371837 1_545
Ru2 Sm4 3.371850 1_545
Ru3 Sm1 3.371868 1_554
Ru3 Sm3 3.371898 1_554
Ru3 Sm0 3.371909 1_555
Ru3 Sm2 3.371942 1_555
Ru4 Sm5 3.371873 1_455
Ru4 Sm4 3.371894 1_555
Ru4 Sm0 3.371913 1_555
Ru4 Sm1 3.371916 1_455
Ru5 Sm3 3.371829 1_555
Ru5 Sm2 3.371872 1_555
Ru5 Sm1 3.371876 1_555
Ru5 Sm0 3.371918 1_555
