# generated using pymatgen
data_UAlFe
_symmetry_space_group_name_H-M   'P 1'
_cell_length_a   5.29170852
_cell_length_b   5.22690410
_cell_length_c   8.04636700
_cell_angle_alpha   90.00000000
_cell_angle_beta   90.00000000
_cell_angle_gamma   119.59607528
_symmetry_Int_Tables_number   1
_chemical_formula_structural   UAlFe
_chemical_formula_sum   'U4 Al4 Fe4'
_cell_volume   193.51927820
_cell_formula_units_Z   4
loop_
 _symmetry_equiv_pos_site_id
 _symmetry_equiv_pos_as_xyz
  1  'x, y, z'
loop_
 _atom_site_type_symbol
 _atom_site_label
 _atom_site_symmetry_multiplicity
 _atom_site_fract_x
 _atom_site_fract_y
 _atom_site_fract_z
 _atom_site_occupancy
  U  U0  1  0.65751200  0.32875800  0.54457700  1
  U  U1  1  0.35357200  0.67677900  0.41678700  1
  U  U2  1  0.35357200  0.67677900  0.08321300  1
  U  U3  1  0.65751200  0.32875800  0.95542300  1
  Al  Al0  1  0.99390700  0.99696500  0.48853400  1
  Al  Al1  1  0.99390700  0.99696500  0.01146600  1
  Al  Al2  1  0.16986100  0.34035200  0.75000000  1
  Al  Al3  1  0.16983700  0.82950300  0.75000000  1
  Fe  Fe0  1  0.65765200  0.82885600  0.75000000  1
  Fe  Fe1  1  0.82907300  0.65742800  0.25000000  1
  Fe  Fe2  1  0.82906700  0.17161500  0.25000000  1
  Fe  Fe3  1  0.33452900  0.16724100  0.25000000  1
loop_
_geom_bond_atom_site_label_1
_geom_bond_atom_site_label_2
_geom_bond_distance
_geom_bond_site_symmetry_2
U0 U1 3.137367 1_555
U0 U1 3.137430 1_545
U0 U1 3.363787 1_655
U1 U2 2.684059 1_555
U2 U3 3.137367 1_554
U2 U3 3.137430 1_564
U2 U3 3.363787 1_454
Al0 Fe2 2.462643 1_565
Al0 Fe1 2.462772 1_555
Al0 Fe3 2.477957 1_665
Al0 Fe0 2.611521 1_555
Al0 Al2 2.619903 1_665
Al0 Al3 2.619919 1_655
Al0 U1 3.002394 1_555
Al0 U0 3.070687 1_565
Al0 U0 3.070755 1_555
Al0 U0 3.086560 1_665
Al0 U1 3.146684 1_665
Al0 U1 3.146862 1_655
Al1 Fe2 2.462643 1_565
Al1 Fe1 2.462772 1_555
Al1 Fe3 2.477957 1_665
Al1 Fe0 2.611521 1_554
Al1 Al2 2.619903 1_664
Al1 Al3 2.619919 1_654
Al1 U2 3.002394 1_555
Al1 U3 3.070687 1_564
Al1 U3 3.070755 1_554
Al1 U3 3.086560 1_664
Al1 U2 3.146684 1_665
Al1 U2 3.146862 1_655
Al2 Al3 2.556808 1_555
Al2 Fe0 2.583076 1_555
Al2 Al3 2.670096 1_545
Al2 Fe0 2.708607 1_445
Al2 U1 3.088252 1_555
Al2 U2 3.088252 1_556
Al2 U0 3.090188 1_555
Al2 U3 3.090188 1_555
Al2 U0 3.150255 1_455
Al2 U3 3.150255 1_455
Al3 Fe0 2.583047 1_555
Al3 Fe0 2.708665 1_455
Al3 U1 3.088330 1_555
Al3 U2 3.088330 1_556
Al3 U3 3.090252 1_565
Al3 U0 3.090252 1_565
Al3 U0 3.150164 1_455
Al3 U3 3.150164 1_455
Fe0 U2 3.024275 1_556
Fe0 U1 3.024275 1_555
Fe0 U3 3.092163 1_565
Fe0 U0 3.092163 1_565
Fe0 U3 3.092411 1_555
Fe0 U0 3.092411 1_555
Fe1 Fe2 2.539282 1_555
Fe1 Fe3 2.605796 1_555
Fe1 Fe3 2.686032 1_665
Fe1 Fe2 2.687622 1_565
Fe1 U0 2.802343 1_555
Fe1 U3 2.802343 1_554
Fe1 U2 2.897238 1_555
Fe1 U1 2.897238 1_555
Fe1 U2 3.039302 1_655
Fe1 U1 3.039302 1_655
Fe2 Fe3 2.605735 1_555
Fe2 Fe3 2.686123 1_655
Fe2 U3 2.802414 1_554
Fe2 U0 2.802414 1_555
Fe2 U2 2.897173 1_545
Fe2 U1 2.897173 1_545
Fe2 U1 3.039339 1_655
Fe2 U2 3.039339 1_655
Fe3 U3 2.797644 1_554
Fe3 U0 2.797644 1_555
Fe3 U1 2.939116 1_545
Fe3 U2 2.939116 1_545
Fe3 U1 2.939269 1_555
Fe3 U2 2.939269 1_555
