# generated using pymatgen
data_ErGaPt
_symmetry_space_group_name_H-M   'P 1'
_cell_length_a   4.38675477
_cell_length_b   6.83980601
_cell_length_c   7.58049280
_cell_angle_alpha   90.00000000
_cell_angle_beta   90.00000000
_cell_angle_gamma   90.00000000
_symmetry_Int_Tables_number   1
_chemical_formula_structural   ErGaPt
_chemical_formula_sum   'Er4 Ga4 Pt4'
_cell_volume   227.44928768
_cell_formula_units_Z   4
loop_
 _symmetry_equiv_pos_site_id
 _symmetry_equiv_pos_as_xyz
  1  'x, y, z'
loop_
 _atom_site_type_symbol
 _atom_site_label
 _atom_site_symmetry_multiplicity
 _atom_site_fract_x
 _atom_site_fract_y
 _atom_site_fract_z
 _atom_site_occupancy
  Er  Er0  1  0.25000000  0.98653674  0.30047043  1
  Er  Er1  1  0.25000000  0.48653674  0.19952957  1
  Er  Er2  1  0.75000000  0.01346326  0.69952957  1
  Er  Er3  1  0.75000000  0.51346326  0.80047043  1
  Ga  Ga0  1  0.25000000  0.32591659  0.57620151  1
  Ga  Ga1  1  0.25000000  0.82591659  0.92379849  1
  Ga  Ga2  1  0.75000000  0.67408341  0.42379849  1
  Ga  Ga3  1  0.75000000  0.17408341  0.07620151  1
  Pt  Pt0  1  0.25000000  0.22325040  0.90322875  1
  Pt  Pt1  1  0.25000000  0.72325040  0.59677125  1
  Pt  Pt2  1  0.75000000  0.77674960  0.09677125  1
  Pt  Pt3  1  0.75000000  0.27674960  0.40322875  1
loop_
_geom_bond_atom_site_label_1
_geom_bond_atom_site_label_2
_geom_bond_distance
_geom_bond_site_symmetry_2
Er0 Pt1 2.878884 1_555
Er0 Pt2 3.042075 1_555
Er0 Pt2 3.042075 1_455
Er0 Ga3 3.057232 1_465
Er0 Ga3 3.057232 1_565
Er0 Pt3 3.059069 1_565
Er0 Pt3 3.059069 1_465
Er0 Ga1 3.059415 1_554
Er0 Ga0 3.123658 1_565
Er0 Ga2 3.201906 1_555
Er0 Ga2 3.201906 1_455
Er1 Pt0 2.878884 1_554
Er1 Pt3 3.042075 1_555
Er1 Pt3 3.042075 1_455
Er1 Ga2 3.057232 1_455
Er1 Ga2 3.057232 1_555
Er1 Pt2 3.059069 1_455
Er1 Pt2 3.059069 1_555
Er1 Ga0 3.059415 1_555
Er1 Ga1 3.123658 1_554
Er1 Ga3 3.201906 1_455
Er1 Ga3 3.201906 1_555
Er2 Pt3 2.878884 1_555
Er2 Pt0 3.042075 1_655
Er2 Pt0 3.042075 1_555
Er2 Ga1 3.057232 1_645
Er2 Ga1 3.057232 1_545
Er2 Pt1 3.059069 1_645
Er2 Pt1 3.059069 1_545
Er2 Ga3 3.059415 1_556
Er2 Ga2 3.123658 1_545
Er2 Ga0 3.201906 1_655
Er2 Ga0 3.201906 1_555
Er3 Pt2 2.878884 1_556
Er3 Pt1 3.042075 1_655
Er3 Pt1 3.042075 1_555
Er3 Ga0 3.057232 1_555
Er3 Ga0 3.057232 1_655
Er3 Pt0 3.059069 1_655
Er3 Pt0 3.059069 1_555
Er3 Ga2 3.059415 1_555
Er3 Ga3 3.123658 1_556
Er3 Ga1 3.201906 1_655
Er3 Ga1 3.201906 1_555
Ga0 Pt0 2.576565 1_555
Ga0 Pt3 2.577458 1_455
Ga0 Pt3 2.577458 1_555
Ga0 Pt1 2.722156 1_555
Ga1 Pt1 2.576565 1_555
Ga1 Pt2 2.577458 1_456
Ga1 Pt2 2.577458 1_556
Ga1 Pt0 2.722156 1_565
Ga2 Pt2 2.576565 1_555
Ga2 Pt1 2.577458 1_555
Ga2 Pt1 2.577458 1_655
Ga2 Pt3 2.722156 1_555
Ga3 Pt3 2.576565 1_555
Ga3 Pt0 2.577458 1_554
Ga3 Pt0 2.577458 1_654
Ga3 Pt2 2.722156 1_545
