# generated using pymatgen
data_La9Sb5CO4
_symmetry_space_group_name_H-M   'P 1'
_cell_length_a   10.58493300
_cell_length_b   10.58493300
_cell_length_c   9.44475000
_cell_angle_alpha   90.00000000
_cell_angle_beta   90.00000000
_cell_angle_gamma   90.00000000
_symmetry_Int_Tables_number   1
_chemical_formula_structural   La9Sb5CO4
_chemical_formula_sum   'La18 Sb10 C2 O8'
_cell_volume   1058.19740827
_cell_formula_units_Z   2
loop_
 _symmetry_equiv_pos_site_id
 _symmetry_equiv_pos_as_xyz
  1  'x, y, z'
loop_
 _atom_site_type_symbol
 _atom_site_label
 _atom_site_symmetry_multiplicity
 _atom_site_fract_x
 _atom_site_fract_y
 _atom_site_fract_z
 _atom_site_occupancy
  La  La0  1  0.50000000  0.00000000  0.32255500  1
  La  La1  1  0.00000000  0.50000000  0.67744500  1
  La  La2  1  0.60378500  0.29662900  0.65906400  1
  La  La3  1  0.39621500  0.70337100  0.65906400  1
  La  La4  1  0.20337100  0.10378500  0.65906400  1
  La  La5  1  0.79662900  0.89621500  0.65906400  1
  La  La6  1  0.89621500  0.20337100  0.34093600  1
  La  La7  1  0.10378500  0.79662900  0.34093600  1
  La  La8  1  0.29662900  0.39621500  0.34093600  1
  La  La9  1  0.70337100  0.60378500  0.34093600  1
  La  La10  1  0.42059900  0.22621800  0.99836000  1
  La  La11  1  0.57940100  0.77378200  0.99836000  1
  La  La12  1  0.27378200  0.92059900  0.99836000  1
  La  La13  1  0.72621800  0.07940100  0.99836000  1
  La  La14  1  0.07940100  0.27378200  0.00164000  1
  La  La15  1  0.92059900  0.72621800  0.00164000  1
  La  La16  1  0.22621800  0.57940100  0.00164000  1
  La  La17  1  0.77378200  0.42059900  0.00164000  1
  Sb  Sb0  1  0.50000000  0.00000000  0.69221600  1
  Sb  Sb1  1  0.00000000  0.50000000  0.30778400  1
  Sb  Sb2  1  0.59790600  0.30454900  0.30183100  1
  Sb  Sb3  1  0.40209400  0.69545100  0.30183100  1
  Sb  Sb4  1  0.19545100  0.09790600  0.30183100  1
  Sb  Sb5  1  0.80454900  0.90209400  0.30183100  1
  Sb  Sb6  1  0.90209400  0.19545100  0.69816900  1
  Sb  Sb7  1  0.09790600  0.80454900  0.69816900  1
  Sb  Sb8  1  0.30454900  0.40209400  0.69816900  1
  Sb  Sb9  1  0.69545100  0.59790600  0.69816900  1
  C  C0  1  0.50000000  0.00000000  0.07326200  1
  C  C1  1  0.00000000  0.50000000  0.92673800  1
  O  O0  1  0.62093600  0.27586500  0.90322300  1
  O  O1  1  0.37906400  0.72413500  0.90322300  1
  O  O2  1  0.22413500  0.12093600  0.90322300  1
  O  O3  1  0.77586500  0.87906400  0.90322300  1
  O  O4  1  0.87906400  0.22413500  0.09677700  1
  O  O5  1  0.12093600  0.77586500  0.09677700  1
  O  O6  1  0.27586500  0.37906400  0.09677700  1
  O  O7  1  0.72413500  0.62093600  0.09677700  1
loop_
_geom_bond_atom_site_label_1
_geom_bond_atom_site_label_2
_geom_bond_distance
_geom_bond_site_symmetry_2
La0 Sb4 3.391767 1_555
La0 Sb3 3.391767 1_545
La0 Sb5 3.391767 1_545
La0 Sb2 3.391767 1_555
La0 Sb0 3.491356 1_555
La1 Sb7 3.391767 1_555
La1 Sb6 3.391767 1_455
La1 Sb9 3.391767 1_455
La1 Sb8 3.391767 1_555
La1 Sb1 3.491356 1_555
La2 O0 2.323574 1_555
La2 Sb0 3.341137 1_555
La2 Sb9 3.353737 1_555
La2 Sb6 3.354651 1_555
La2 Sb2 3.375591 1_555
La2 Sb8 3.378610 1_555
La3 O1 2.323574 1_555
La3 Sb0 3.341137 1_565
La3 Sb8 3.353737 1_555
La3 Sb7 3.354651 1_555
La3 Sb3 3.375591 1_555
La3 Sb9 3.378610 1_555
La4 O2 2.323574 1_555
La4 Sb0 3.341137 1_555
La4 Sb6 3.353737 1_455
La4 Sb8 3.354651 1_555
La4 Sb4 3.375591 1_555
La4 Sb7 3.378610 1_545
La5 O3 2.323574 1_555
La5 Sb0 3.341137 1_565
La5 Sb7 3.353737 1_655
La5 Sb9 3.354651 1_555
La5 Sb5 3.375591 1_555
La5 Sb6 3.378610 1_565
La6 O4 2.323574 1_555
La6 Sb1 3.341137 1_655
La6 Sb5 3.353737 1_545
La6 Sb2 3.354651 1_555
La6 Sb6 3.375591 1_555
La6 Sb4 3.378610 1_655
La7 O5 2.323574 1_555
La7 Sb1 3.341137 1_555
La7 Sb4 3.353737 1_565
La7 Sb3 3.354651 1_555
La7 Sb7 3.375591 1_555
La7 Sb5 3.378610 1_455
La8 O6 2.323574 1_555
La8 Sb1 3.341137 1_555
La8 Sb2 3.353737 1_555
La8 Sb4 3.354651 1_555
La8 Sb8 3.375591 1_555
La8 Sb3 3.378610 1_555
La9 O7 2.323574 1_555
La9 Sb1 3.341137 1_655
La9 Sb3 3.353737 1_555
La9 Sb5 3.354651 1_555
La9 Sb9 3.375591 1_555
La9 Sb2 3.378610 1_555
La10 O0 2.362264 1_555
La10 O6 2.414234 1_556
La10 O2 2.524646 1_555
La10 Sb2 3.524899 1_556
La10 Sb8 3.607372 1_555
La11 O1 2.362264 1_555
La11 O7 2.414234 1_556
La11 O3 2.524646 1_555
La11 Sb3 3.524899 1_556
La11 Sb9 3.607372 1_555
La12 O2 2.362264 1_565
La12 O5 2.414234 1_556
La12 O1 2.524646 1_555
La12 Sb4 3.524899 1_566
La12 Sb7 3.607372 1_555
La13 O3 2.362264 1_545
La13 O4 2.414234 1_556
La13 O0 2.524646 1_555
La13 Sb5 3.524899 1_546
La13 Sb6 3.607372 1_555
La14 O4 2.362264 1_455
La14 O2 2.414234 1_554
La14 O6 2.524646 1_555
La14 Sb6 3.524899 1_454
La14 Sb4 3.607372 1_555
La15 O5 2.362264 1_655
La15 O3 2.414234 1_554
La15 O7 2.524646 1_555
La15 Sb7 3.524899 1_654
La15 Sb5 3.607372 1_555
La16 O6 2.362264 1_555
La16 O1 2.414234 1_554
La16 O5 2.524646 1_555
La16 Sb8 3.524899 1_554
La16 Sb3 3.607372 1_555
La17 O7 2.362264 1_555
La17 O0 2.414234 1_554
La17 O4 2.524646 1_555
La17 Sb9 3.524899 1_554
La17 Sb2 3.607372 1_555
C0 La0 2.354510 1_555
C0 La12 2.634476 1_544
C0 La10 2.634476 1_554
C0 La13 2.634476 1_554
C0 La11 2.634476 1_544
C1 La1 2.354510 1_555
C1 La14 2.634476 1_556
C1 La16 2.634476 1_556
C1 La17 2.634476 1_456
C1 La15 2.634476 1_456
