# generated using pymatgen
data_Ca2Y2Si2CO16
_symmetry_space_group_name_H-M   'P 1'
_cell_length_a   6.89174200
_cell_length_b   12.82995200
_cell_length_c   14.97271900
_cell_angle_alpha   90.00000000
_cell_angle_beta   90.00000000
_cell_angle_gamma   90.00000000
_symmetry_Int_Tables_number   1
_chemical_formula_structural   Ca2Y2Si2CO16
_chemical_formula_sum   'Ca8 Y8 Si8 C4 O64'
_cell_volume   1323.89858021
_cell_formula_units_Z   4
loop_
 _symmetry_equiv_pos_site_id
 _symmetry_equiv_pos_as_xyz
  1  'x, y, z'
loop_
 _atom_site_type_symbol
 _atom_site_label
 _atom_site_symmetry_multiplicity
 _atom_site_fract_x
 _atom_site_fract_y
 _atom_site_fract_z
 _atom_site_occupancy
  Ca  Ca0  1  0.23065000  0.06424300  0.05798300  1
  Ca  Ca1  1  0.26935000  0.43575700  0.55798300  1
  Ca  Ca2  1  0.76935000  0.56424300  0.94201700  1
  Ca  Ca3  1  0.73065000  0.93575700  0.44201700  1
  Ca  Ca4  1  0.76935000  0.93575700  0.94201700  1
  Ca  Ca5  1  0.73065000  0.56424300  0.44201700  1
  Ca  Ca6  1  0.23065000  0.43575700  0.05798300  1
  Ca  Ca7  1  0.26935000  0.06424300  0.55798300  1
  Y  Y0  1  0.39634500  0.06877000  0.28937700  1
  Y  Y1  1  0.10365500  0.43123000  0.78937700  1
  Y  Y2  1  0.60365500  0.56877000  0.71062300  1
  Y  Y3  1  0.89634500  0.93123000  0.21062300  1
  Y  Y4  1  0.60365500  0.93123000  0.71062300  1
  Y  Y5  1  0.89634500  0.56877000  0.21062300  1
  Y  Y6  1  0.39634500  0.43123000  0.28937700  1
  Y  Y7  1  0.10365500  0.06877000  0.78937700  1
  Si  Si0  1  0.67503400  0.12746900  0.07459000  1
  Si  Si1  1  0.82496600  0.37253100  0.57459000  1
  Si  Si2  1  0.32496600  0.62746900  0.92541000  1
  Si  Si3  1  0.17503400  0.87253100  0.42541000  1
  Si  Si4  1  0.32496600  0.87253100  0.92541000  1
  Si  Si5  1  0.17503400  0.62746900  0.42541000  1
  Si  Si6  1  0.67503400  0.37253100  0.07459000  1
  Si  Si7  1  0.82496600  0.12746900  0.57459000  1
  C  C0  1  0.39717700  0.25000000  0.39586000  1
  C  C1  1  0.10282300  0.25000000  0.89586000  1
  C  C2  1  0.60282300  0.75000000  0.60414000  1
  C  C3  1  0.89717700  0.75000000  0.10414000  1
  O  O0  1  0.93202900  0.08612200  0.48089300  1
  O  O1  1  0.56797100  0.41387800  0.98089300  1
  O  O2  1  0.06797100  0.58612200  0.51910700  1
  O  O3  1  0.43202900  0.91387800  0.01910700  1
  O  O4  1  0.06797100  0.91387800  0.51910700  1
  O  O5  1  0.43202900  0.58612200  0.01910700  1
  O  O6  1  0.93202900  0.41387800  0.48089300  1
  O  O7  1  0.56797100  0.08612200  0.98089300  1
  O  O8  1  0.67708700  0.99691900  0.29879900  1
  O  O9  1  0.82291300  0.50308100  0.79879900  1
  O  O10  1  0.32291300  0.49691900  0.70120100  1
  O  O11  1  0.17708700  0.00308100  0.20120100  1
  O  O12  1  0.32291300  0.00308100  0.70120100  1
  O  O13  1  0.17708700  0.49691900  0.20120100  1
  O  O14  1  0.67708700  0.50308100  0.29879900  1
  O  O15  1  0.82291300  0.99691900  0.79879900  1
  O  O16  1  0.02436000  0.16254100  0.28904000  1
  O  O17  1  0.47564000  0.33745900  0.78904000  1
  O  O18  1  0.97564000  0.66254100  0.71096000  1
  O  O19  1  0.52436000  0.83745900  0.21096000  1
  O  O20  1  0.97564000  0.83745900  0.71096000  1
  O  O21  1  0.52436000  0.66254100  0.21096000  1
  O  O22  1  0.02436000  0.33745900  0.28904000  1
  O  O23  1  0.47564000  0.16254100  0.78904000  1
  O  O24  1  0.93027800  0.25000000  0.27783800  1
  O  O25  1  0.56972200  0.25000000  0.77783800  1
  O  O26  1  0.06972200  0.75000000  0.72216200  1
  O  O27  1  0.43027800  0.75000000  0.22216200  1
  O  O28  1  0.86237800  0.05192600  0.09126500  1
  O  O29  1  0.63762200  0.44807400  0.59126500  1
  O  O30  1  0.13762200  0.55192600  0.90873500  1
  O  O31  1  0.36237800  0.94807400  0.40873500  1
  O  O32  1  0.13762200  0.94807400  0.90873500  1
  O  O33  1  0.36237800  0.55192600  0.40873500  1
  O  O34  1  0.86237800  0.44807400  0.09126500  1
  O  O35  1  0.63762200  0.05192600  0.59126500  1
  O  O36  1  0.50921200  0.11618600  0.15177100  1
  O  O37  1  0.99078800  0.38381400  0.65177100  1
  O  O38  1  0.49078800  0.61618600  0.84822900  1
  O  O39  1  0.00921200  0.88381400  0.34822900  1
  O  O40  1  0.49078800  0.88381400  0.84822900  1
  O  O41  1  0.00921200  0.61618600  0.34822900  1
  O  O42  1  0.50921200  0.38381400  0.15177100  1
  O  O43  1  0.99078800  0.11618600  0.65177100  1
  O  O44  1  0.74243600  0.25000000  0.06035300  1
  O  O45  1  0.75756400  0.25000000  0.56035300  1
  O  O46  1  0.25756400  0.75000000  0.93964700  1
  O  O47  1  0.24243600  0.75000000  0.43964700  1
  O  O48  1  0.37220100  0.16100500  0.43297900  1
  O  O49  1  0.12779900  0.33899500  0.93297900  1
  O  O50  1  0.62779900  0.66100500  0.56702100  1
  O  O51  1  0.87220100  0.83899500  0.06702100  1
  O  O52  1  0.62779900  0.83899500  0.56702100  1
  O  O53  1  0.87220100  0.66100500  0.06702100  1
  O  O54  1  0.37220100  0.33899500  0.43297900  1
  O  O55  1  0.12779900  0.16100500  0.93297900  1
  O  O56  1  0.44731400  0.25000000  0.31076600  1
  O  O57  1  0.05268600  0.25000000  0.81076600  1
  O  O58  1  0.55268600  0.75000000  0.68923400  1
  O  O59  1  0.94731400  0.75000000  0.18923400  1
  O  O60  1  0.20725300  0.25000000  0.10539000  1
  O  O61  1  0.29274700  0.25000000  0.60539000  1
  O  O62  1  0.79274700  0.75000000  0.89461000  1
  O  O63  1  0.70725300  0.75000000  0.39461000  1
loop_
_geom_bond_atom_site_label_1
_geom_bond_atom_site_label_2
_geom_bond_distance
_geom_bond_site_symmetry_2
Ca0 O11 2.313076 1_555
Ca0 O55 2.355144 1_554
Ca0 O3 2.446767 1_545
Ca0 O36 2.470146 1_555
Ca0 O60 2.491933 1_555
Ca0 O28 2.591317 1_455
Ca0 O7 2.610641 1_554
Ca0 O32 2.761542 1_544
Ca1 O10 2.313076 1_555
Ca1 O54 2.355144 1_555
Ca1 O2 2.446767 1_555
Ca1 O37 2.470146 1_455
Ca1 O61 2.491933 1_555
Ca1 O29 2.591317 1_555
Ca1 O6 2.610641 1_455
Ca1 O33 2.761542 1_555
Ca2 O9 2.313076 1_555
Ca2 O53 2.355144 1_556
Ca2 O1 2.446767 1_555
Ca2 O38 2.470146 1_555
Ca2 O62 2.491933 1_555
Ca2 O30 2.591317 1_655
Ca2 O5 2.610641 1_556
Ca2 O34 2.761542 1_556
Ca3 O8 2.313076 1_555
Ca3 O52 2.355144 1_555
Ca3 O0 2.446767 1_565
Ca3 O39 2.470146 1_655
Ca3 O63 2.491933 1_555
Ca3 O31 2.591317 1_555
Ca3 O4 2.610641 1_655
Ca3 O35 2.761542 1_565
Ca4 O15 2.313076 1_555
Ca4 O51 2.355144 1_556
Ca4 O7 2.446767 1_565
Ca4 O40 2.470146 1_555
Ca4 O62 2.491933 1_555
Ca4 O32 2.591317 1_655
Ca4 O3 2.610641 1_556
Ca4 O28 2.761542 1_566
Ca5 O14 2.313076 1_555
Ca5 O50 2.355144 1_555
Ca5 O6 2.446767 1_555
Ca5 O41 2.470146 1_655
Ca5 O63 2.491933 1_555
Ca5 O33 2.591317 1_555
Ca5 O2 2.610641 1_655
Ca5 O29 2.761542 1_555
Ca6 O13 2.313076 1_555
Ca6 O49 2.355144 1_554
Ca6 O5 2.446767 1_555
Ca6 O42 2.470146 1_555
Ca6 O60 2.491933 1_555
Ca6 O34 2.591317 1_455
Ca6 O1 2.610641 1_554
Ca6 O30 2.761542 1_554
Ca7 O12 2.313076 1_555
Ca7 O48 2.355144 1_555
Ca7 O4 2.446767 1_545
Ca7 O43 2.470146 1_455
Ca7 O61 2.491933 1_555
Ca7 O35 2.591317 1_555
Ca7 O0 2.610641 1_455
Ca7 O31 2.761542 1_545
C0 O48 1.281492 1_555
C0 O54 1.281492 1_555
C0 O56 1.320111 1_555
C1 O49 1.281492 1_555
C1 O55 1.281492 1_555
C1 O57 1.320111 1_555
C2 O50 1.281492 1_555
C2 O52 1.281492 1_555
C2 O58 1.320111 1_555
C3 O51 1.281492 1_555
C3 O53 1.281492 1_555
C3 O59 1.320111 1_555
O0 Si7 1.671514 1_555
O1 Si6 1.671514 1_556
O2 Si5 1.671514 1_555
O3 Si4 1.671514 1_554
O4 Si3 1.671514 1_555
O5 Si2 1.671514 1_554
O6 Si1 1.671514 1_555
O7 Si0 1.671514 1_556
O8 Y0 2.147826 1_565
O8 Y3 2.176382 1_555
O9 Y1 2.147826 1_655
O9 Y2 2.176382 1_555
O10 Y2 2.147826 1_555
O10 Y1 2.176382 1_555
O11 Y3 2.147826 1_445
O11 Y0 2.176382 1_555
O12 Y4 2.147826 1_545
O12 Y7 2.176382 1_555
O13 Y5 2.147826 1_455
O13 Y6 2.176382 1_555
O14 Y6 2.147826 1_555
O14 Y5 2.176382 1_555
O15 Y7 2.147826 1_665
O15 Y4 2.176382 1_555
O16 O24 1.306766 1_455
O16 Y0 2.831888 1_555
O17 O25 1.306766 1_555
O17 Y1 2.831888 1_555
O18 O26 1.306766 1_655
O18 Y2 2.831888 1_555
O19 O27 1.306766 1_555
O19 Y3 2.831888 1_555
O20 O26 1.306766 1_655
O20 Y4 2.831888 1_555
O21 O27 1.306766 1_555
O21 Y5 2.831888 1_555
O22 O24 1.306766 1_455
O22 Y6 2.831888 1_555
O23 O25 1.306766 1_555
O23 Y7 2.831888 1_555
O28 Si0 1.633621 1_555
O28 Y3 2.376237 1_545
O29 Si1 1.633621 1_555
O29 Y2 2.376237 1_555
O30 Si2 1.633621 1_555
O30 Y1 2.376237 1_555
O31 Si3 1.633621 1_555
O31 Y0 2.376237 1_565
O32 Si4 1.633621 1_555
O32 Y7 2.376237 1_565
O33 Si5 1.633621 1_555
O33 Y6 2.376237 1_555
O34 Si6 1.633621 1_555
O34 Y5 2.376237 1_555
O35 Si7 1.633621 1_555
O35 Y4 2.376237 1_545
O36 Si0 1.631682 1_555
O36 Y0 2.284758 1_555
O37 Si1 1.631682 1_555
O37 Y1 2.284758 1_655
O38 Si2 1.631682 1_555
O38 Y2 2.284758 1_555
O39 Si3 1.631682 1_555
O39 Y3 2.284758 1_455
O40 Si4 1.631682 1_555
O40 Y4 2.284758 1_555
O41 Si5 1.631682 1_555
O41 Y5 2.284758 1_455
O42 Si6 1.631682 1_555
O42 Y6 2.284758 1_555
O43 Si7 1.631682 1_555
O43 Y7 2.284758 1_655
O44 Si6 1.653061 1_555
O44 Si0 1.653061 1_555
O45 Si7 1.653061 1_555
O45 Si1 1.653061 1_555
O46 Si4 1.653061 1_555
O46 Si2 1.653061 1_555
O47 Si3 1.653061 1_555
O47 Si5 1.653061 1_555
O48 Y0 2.459885 1_555
O49 Y1 2.459885 1_555
O50 Y2 2.459885 1_555
O51 Y3 2.459885 1_555
O52 Y4 2.459885 1_555
O53 Y5 2.459885 1_555
O54 Y6 2.459885 1_555
O55 Y7 2.459885 1_555
O56 Y6 2.373262 1_555
O56 Y0 2.373262 1_555
O57 Y7 2.373262 1_555
O57 Y1 2.373262 1_555
O58 Y4 2.373262 1_555
O58 Y2 2.373262 1_555
O59 Y5 2.373262 1_555
O59 Y3 2.373262 1_555
