# generated using pymatgen
data_Al(WO2)2
_symmetry_space_group_name_H-M   'P 1'
_cell_length_a   6.38829232
_cell_length_b   6.38829232
_cell_length_c   5.38850882
_cell_angle_alpha   67.83208337
_cell_angle_beta   67.83208337
_cell_angle_gamma   106.80169343
_symmetry_Int_Tables_number   1
_chemical_formula_structural   Al(WO2)2
_chemical_formula_sum   'Al2 W4 O8'
_cell_volume   162.99687475
_cell_formula_units_Z   2
loop_
 _symmetry_equiv_pos_site_id
 _symmetry_equiv_pos_as_xyz
  1  'x, y, z'
loop_
 _atom_site_type_symbol
 _atom_site_label
 _atom_site_symmetry_multiplicity
 _atom_site_fract_x
 _atom_site_fract_y
 _atom_site_fract_z
 _atom_site_occupancy
  Al  Al0  1  0.06686400  0.93313600  0.25000000  1
  Al  Al1  1  0.93313600  0.06686400  0.75000000  1
  W  W0  1  0.50000000  0.50000000  0.50000000  1
  W  W1  1  0.50000000  0.50000000  0.00000000  1
  W  W2  1  0.50000000  0.00000000  0.50000000  1
  W  W3  1  0.00000000  0.50000000  0.00000000  1
  O  O0  1  0.91494400  0.75700400  0.71850500  1
  O  O1  1  0.24299600  0.08505600  0.78149500  1
  O  O2  1  0.08505600  0.24299600  0.28149500  1
  O  O3  1  0.75700400  0.91494400  0.21850500  1
  O  O4  1  0.08596900  0.39287400  0.68930800  1
  O  O5  1  0.60712600  0.91403100  0.81069200  1
  O  O6  1  0.39287400  0.08596900  0.18930800  1
  O  O7  1  0.91403100  0.60712600  0.31069200  1
loop_
_geom_bond_atom_site_label_1
_geom_bond_atom_site_label_2
_geom_bond_distance
_geom_bond_site_symmetry_2
Al0 O7 1.862023 1_455
Al0 O6 1.862023 1_565
Al0 O1 1.989313 1_564
Al0 O0 1.989313 1_455
Al0 O3 2.023867 1_455
Al0 O2 2.023867 1_565
Al1 O5 1.862023 1_545
Al1 O4 1.862023 1_655
Al1 O3 1.989313 1_546
Al1 O2 1.989313 1_655
Al1 O1 2.023867 1_655
Al1 O0 2.023867 1_545
O0 W3 2.133067 1_656
O0 W1 2.143210 1_556
O1 W2 2.133067 1_555
O1 W0 2.143210 1_555
O2 W3 2.133067 1_555
O2 W1 2.143210 1_555
O3 W2 2.133067 1_565
O3 W0 2.143210 1_555
O4 W3 1.990183 1_556
O4 W0 2.212539 1_555
O5 W2 1.990183 1_565
O5 W1 2.212539 1_556
O6 W2 1.990183 1_555
O6 W1 2.212539 1_555
O7 W3 1.990183 1_655
O7 W0 2.212539 1_555
