# generated using pymatgen
data_Ce2Re3Si5
_symmetry_space_group_name_H-M   'P 1'
_cell_length_a   10.99131569
_cell_length_b   10.99131569
_cell_length_c   5.60152668
_cell_angle_alpha   90.00000000
_cell_angle_beta   90.00000000
_cell_angle_gamma   90.00000000
_symmetry_Int_Tables_number   1
_chemical_formula_structural   Ce2Re3Si5
_chemical_formula_sum   'Ce8 Re12 Si20'
_cell_volume   676.71495206
_cell_formula_units_Z   4
loop_
 _symmetry_equiv_pos_site_id
 _symmetry_equiv_pos_as_xyz
  1  'x, y, z'
loop_
 _atom_site_type_symbol
 _atom_site_label
 _atom_site_symmetry_multiplicity
 _atom_site_fract_x
 _atom_site_fract_y
 _atom_site_fract_z
 _atom_site_occupancy
  Ce  Ce0  1  0.57563274  0.73812702  0.50000000  1
  Ce  Ce1  1  0.42436726  0.26187298  0.50000000  1
  Ce  Ce2  1  0.07563274  0.76187298  0.00000000  1
  Ce  Ce3  1  0.92436726  0.23812702  0.00000000  1
  Ce  Ce4  1  0.26187298  0.57563274  0.50000000  1
  Ce  Ce5  1  0.73812702  0.42436726  0.50000000  1
  Ce  Ce6  1  0.23812702  0.07563274  0.00000000  1
  Ce  Ce7  1  0.76187298  0.92436726  0.00000000  1
  Re  Re0  1  0.87514215  0.85616365  0.50000000  1
  Re  Re1  1  0.12485785  0.14383635  0.50000000  1
  Re  Re2  1  0.37514215  0.64383635  0.00000000  1
  Re  Re3  1  0.62485785  0.35616365  0.00000000  1
  Re  Re4  1  0.14383635  0.87514215  0.50000000  1
  Re  Re5  1  0.85616365  0.12485785  0.50000000  1
  Re  Re6  1  0.35616365  0.37514215  0.00000000  1
  Re  Re7  1  0.64383635  0.62485785  0.00000000  1
  Re  Re8  1  0.50000000  0.00000000  0.25000000  1
  Re  Re9  1  0.00000000  0.50000000  0.75000000  1
  Re  Re10  1  0.00000000  0.50000000  0.25000000  1
  Re  Re11  1  0.50000000  0.00000000  0.75000000  1
  Si  Si0  1  0.67290951  0.17290951  0.25000000  1
  Si  Si1  1  0.32709049  0.82709049  0.25000000  1
  Si  Si2  1  0.17290951  0.32709049  0.75000000  1
  Si  Si3  1  0.82709049  0.67290951  0.75000000  1
  Si  Si4  1  0.82709049  0.67290951  0.25000000  1
  Si  Si5  1  0.17290951  0.32709049  0.25000000  1
  Si  Si6  1  0.67290951  0.17290951  0.75000000  1
  Si  Si7  1  0.32709049  0.82709049  0.75000000  1
  Si  Si8  1  0.50000000  0.50000000  0.24726620  1
  Si  Si9  1  0.00000000  0.00000000  0.74726620  1
  Si  Si10  1  0.50000000  0.50000000  0.75273380  1
  Si  Si11  1  0.00000000  0.00000000  0.25273380  1
  Si  Si12  1  0.68413793  0.97717765  0.50000000  1
  Si  Si13  1  0.31586207  0.02282235  0.50000000  1
  Si  Si14  1  0.18413793  0.52282235  0.00000000  1
  Si  Si15  1  0.81586207  0.47717765  0.00000000  1
  Si  Si16  1  0.02282235  0.68413793  0.50000000  1
  Si  Si17  1  0.97717765  0.31586207  0.50000000  1
  Si  Si18  1  0.47717765  0.18413793  0.00000000  1
  Si  Si19  1  0.52282235  0.81586207  0.00000000  1
loop_
_geom_bond_atom_site_label_1
_geom_bond_atom_site_label_2
_geom_bond_distance
_geom_bond_site_symmetry_2
Ce0 Si12 2.885478 1_555
Ce0 Si19 2.985167 1_555
Ce0 Si19 2.985167 1_556
Ce0 Si10 3.089607 1_555
Ce0 Si8 3.089607 1_555
Ce0 Re7 3.155347 1_555
Ce0 Re7 3.155347 1_556
Ce0 Si4 3.180218 1_555
Ce0 Si3 3.180218 1_555
Ce0 Si1 3.221797 1_555
Ce0 Si7 3.221797 1_555
Ce0 Re8 3.307100 1_565
Ce0 Re11 3.307100 1_565
Ce1 Si13 2.885478 1_555
Ce1 Si18 2.985167 1_556
Ce1 Si18 2.985167 1_555
Ce1 Si10 3.089607 1_555
Ce1 Si8 3.089607 1_555
Ce1 Re6 3.155347 1_556
Ce1 Re6 3.155347 1_555
Ce1 Si2 3.180218 1_555
Ce1 Si5 3.180218 1_555
Ce1 Si6 3.221797 1_555
Ce1 Si0 3.221797 1_555
Ce1 Re11 3.307100 1_555
Ce1 Re8 3.307100 1_555
Ce2 Si14 2.885478 1_555
Ce2 Si16 2.985167 1_555
Ce2 Si16 2.985167 1_554
Ce2 Si9 3.089607 1_564
Ce2 Si11 3.089607 1_565
Ce2 Re4 3.155347 1_555
Ce2 Re4 3.155347 1_554
Ce2 Si1 3.180218 1_555
Ce2 Si7 3.180218 1_554
Ce2 Si3 3.221797 1_454
Ce2 Si4 3.221797 1_455
Ce2 Re9 3.307100 1_554
Ce2 Re10 3.307100 1_555
Ce3 Si15 2.885478 1_555
Ce3 Si17 2.985167 1_554
Ce3 Si17 2.985167 1_555
Ce3 Si11 3.089607 1_655
Ce3 Si9 3.089607 1_654
Ce3 Re5 3.155347 1_554
Ce3 Re5 3.155347 1_555
Ce3 Si0 3.180218 1_555
Ce3 Si6 3.180218 1_554
Ce3 Si2 3.221797 1_654
Ce3 Si5 3.221797 1_655
Ce3 Re10 3.307100 1_655
Ce3 Re9 3.307100 1_654
Ce4 Si16 2.885478 1_555
Ce4 Si14 2.985167 1_555
Ce4 Si14 2.985167 1_556
Ce4 Si10 3.089607 1_555
Ce4 Si8 3.089607 1_555
Ce4 Re2 3.155347 1_556
Ce4 Re2 3.155347 1_555
Ce4 Si7 3.180218 1_555
Ce4 Si1 3.180218 1_555
Ce4 Si5 3.221797 1_555
Ce4 Si2 3.221797 1_555
Ce4 Re10 3.307100 1_555
Ce4 Re9 3.307100 1_555
Ce5 Si17 2.885478 1_555
Ce5 Si15 2.985167 1_555
Ce5 Si15 2.985167 1_556
Ce5 Si10 3.089607 1_555
Ce5 Si8 3.089607 1_555
Ce5 Re3 3.155347 1_555
Ce5 Re3 3.155347 1_556
Ce5 Si0 3.180218 1_555
Ce5 Si6 3.180218 1_555
Ce5 Si3 3.221797 1_555
Ce5 Si4 3.221797 1_555
Ce5 Re9 3.307100 1_655
Ce5 Re10 3.307100 1_655
Ce6 Si18 2.885478 1_555
Ce6 Si13 2.985167 1_554
Ce6 Si13 2.985167 1_555
Ce6 Si9 3.089607 1_554
Ce6 Si11 3.089607 1_555
Ce6 Re1 3.155347 1_554
Ce6 Re1 3.155347 1_555
Ce6 Si2 3.180218 1_554
Ce6 Si5 3.180218 1_555
Ce6 Si1 3.221797 1_545
Ce6 Si7 3.221797 1_544
Ce6 Re8 3.307100 1_555
Ce6 Re11 3.307100 1_554
Ce7 Si19 2.885478 1_555
Ce7 Si12 2.985167 1_555
Ce7 Si12 2.985167 1_554
Ce7 Si11 3.089607 1_665
Ce7 Si9 3.089607 1_664
Ce7 Re0 3.155347 1_554
Ce7 Re0 3.155347 1_555
Ce7 Si4 3.180218 1_555
Ce7 Si3 3.180218 1_554
Ce7 Si6 3.221797 1_564
Ce7 Si0 3.221797 1_565
Ce7 Re8 3.307100 1_565
Ce7 Re11 3.307100 1_564
Re0 Si12 2.485277 1_555
Re0 Si16 2.491959 1_655
Re0 Si3 2.509388 1_555
Re0 Si4 2.509388 1_555
Re0 Si9 2.510213 1_665
Re0 Si11 2.510213 1_665
Re1 Si13 2.485277 1_555
Re1 Si17 2.491959 1_455
Re1 Si5 2.509388 1_555
Re1 Si2 2.509388 1_555
Re1 Si11 2.510213 1_555
Re1 Si9 2.510213 1_555
Re2 Si14 2.485277 1_555
Re2 Si19 2.491959 1_555
Re2 Si7 2.509388 1_554
Re2 Si1 2.509388 1_555
Re2 Si8 2.510213 1_555
Re2 Si10 2.510213 1_554
Re3 Si15 2.485277 1_555
Re3 Si18 2.491959 1_555
Re3 Si0 2.509388 1_555
Re3 Si6 2.509388 1_554
Re3 Si8 2.510213 1_555
Re3 Si10 2.510213 1_554
Re4 Si16 2.485277 1_555
Re4 Si13 2.491959 1_565
Re4 Si7 2.509388 1_555
Re4 Si1 2.509388 1_555
Re4 Si11 2.510213 1_565
Re4 Si9 2.510213 1_565
Re5 Si17 2.485277 1_555
Re5 Si12 2.491959 1_545
Re5 Si6 2.509388 1_555
Re5 Si0 2.509388 1_555
Re5 Si9 2.510213 1_655
Re5 Si11 2.510213 1_655
Re6 Si18 2.485277 1_555
Re6 Si14 2.491959 1_555
Re6 Si2 2.509388 1_554
Re6 Si5 2.509388 1_555
Re6 Si8 2.510213 1_555
Re6 Si10 2.510213 1_554
Re7 Si19 2.485277 1_555
Re7 Si15 2.491959 1_555
Re7 Si3 2.509388 1_554
Re7 Si4 2.509388 1_555
Re7 Si8 2.510213 1_555
Re7 Si10 2.510213 1_554
Re8 Si12 2.473911 1_545
Re8 Si13 2.473911 1_555
Re8 Si19 2.473911 1_545
Re8 Si18 2.473911 1_555
Re8 Si1 2.687717 1_545
Re8 Si0 2.687717 1_555
Re9 Si15 2.473911 1_456
Re9 Si17 2.473911 1_455
Re9 Si14 2.473911 1_556
Re9 Si16 2.473911 1_555
Re9 Si2 2.687717 1_555
Re9 Si3 2.687717 1_455
Re10 Si15 2.473911 1_455
Re10 Si17 2.473911 1_455
Re10 Si16 2.473911 1_555
Re10 Si14 2.473911 1_555
Re10 Si5 2.687717 1_555
Re10 Si4 2.687717 1_455
Re10 Re9 2.800763 1_555
Re10 Re9 2.800763 1_554
Re11 Si12 2.473911 1_545
Re11 Si13 2.473911 1_555
Re11 Si18 2.473911 1_556
Re11 Si19 2.473911 1_546
Re11 Si7 2.687717 1_545
Re11 Si6 2.687717 1_555
Re11 Re8 2.800763 1_556
Re11 Re8 2.800763 1_555
Si0 Si12 2.569944 1_545
Si0 Si18 2.569944 1_555
Si0 Si6 2.800763 1_554
Si0 Si6 2.800763 1_555
Si1 Si19 2.569944 1_555
Si1 Si13 2.569944 1_565
Si1 Si7 2.800763 1_554
Si1 Si7 2.800763 1_555
Si2 Si5 2.800763 1_555
Si2 Si5 2.800763 1_556
Si3 Si4 2.800763 1_555
Si3 Si4 2.800763 1_556
Si10 Si8 2.770136 1_556
Si10 Si8 2.831390 1_555
Si11 Si9 2.770136 1_555
Si11 Si9 2.831390 1_554
Si12 Si6 2.569944 1_565
Si13 Si7 2.569944 1_545
Si14 Si2 2.569944 1_554
Si14 Si5 2.569944 1_555
Si15 Si4 2.569944 1_555
Si15 Si3 2.569944 1_554
Si16 Si4 2.569944 1_455
Si16 Si3 2.569944 1_455
Si17 Si2 2.569944 1_655
Si17 Si5 2.569944 1_655
Si18 Si6 2.569944 1_554
Si19 Si7 2.569944 1_554
