# generated using pymatgen
data_La4Ti5(S6O)2
_symmetry_space_group_name_H-M   'P 1'
_cell_length_a   8.47558700
_cell_length_b   10.36341000
_cell_length_c   10.36570963
_cell_angle_alpha   89.94029817
_cell_angle_beta   90.00000000
_cell_angle_gamma   90.00000000
_symmetry_Int_Tables_number   1
_chemical_formula_structural   La4Ti5(S6O)2
_chemical_formula_sum   'La8 Ti10 S24 O4'
_cell_volume   910.48180107
_cell_formula_units_Z   2
loop_
 _symmetry_equiv_pos_site_id
 _symmetry_equiv_pos_as_xyz
  1  'x, y, z'
loop_
 _atom_site_type_symbol
 _atom_site_label
 _atom_site_symmetry_multiplicity
 _atom_site_fract_x
 _atom_site_fract_y
 _atom_site_fract_z
 _atom_site_occupancy
  La  La0  1  0.73666900  0.70919300  0.28823100  1
  La  La1  1  0.73736800  0.29033200  0.70804900  1
  La  La2  1  0.73448900  0.29341100  0.29158100  1
  La  La3  1  0.74047900  0.71152100  0.71531200  1
  La  La4  1  0.26263200  0.29033200  0.70804900  1
  La  La5  1  0.26333100  0.70919300  0.28823100  1
  La  La6  1  0.25952100  0.71152100  0.71531200  1
  La  La7  1  0.26551100  0.29341100  0.29158100  1
  Ti  Ti0  1  0.50000000  0.00177500  0.20291500  1
  Ti  Ti1  1  0.50000000  0.00179200  0.79316900  1
  Ti  Ti2  1  0.50000000  0.20481900  0.00033600  1
  Ti  Ti3  1  0.50000000  0.79462000  0.00155100  1
  Ti  Ti4  1  0.50000000  0.00031300  0.50172200  1
  Ti  Ti5  1  0.50000000  0.50524000  0.99979500  1
  Ti  Ti6  1  0.00000000  0.48604500  0.48713000  1
  Ti  Ti7  1  0.00000000  0.99899700  0.99699300  1
  Ti  Ti8  1  0.00000000  0.97828400  0.39855800  1
  Ti  Ti9  1  0.00000000  0.36432900  0.99815400  1
  S  S0  1  0.28038500  0.00387600  0.34693500  1
  S  S1  1  0.27730400  0.00152200  0.65958100  1
  S  S2  1  0.28431000  0.35036200  0.00091100  1
  S  S3  1  0.27791100  0.66042000  0.00243700  1
  S  S4  1  0.72269600  0.00152200  0.65958100  1
  S  S5  1  0.71961500  0.00387600  0.34693500  1
  S  S6  1  0.72208900  0.66042000  0.00243700  1
  S  S7  1  0.71569000  0.35036200  0.00091100  1
  S  S8  1  0.68339100  0.00398400  0.00335800  1
  S  S9  1  0.31660900  0.00398400  0.00335800  1
  S  S10  1  0.50000000  0.76480200  0.50120100  1
  S  S11  1  0.50000000  0.23898500  0.50092600  1
  S  S12  1  0.50000000  0.50175000  0.23899700  1
  S  S13  1  0.50000000  0.50228000  0.76361400  1
  S  S14  1  0.00000000  0.23666600  0.49339700  1
  S  S15  1  0.00000000  0.76229400  0.49940300  1
  S  S16  1  0.00000000  0.49225400  0.76276400  1
  S  S17  1  0.00000000  0.49908300  0.24044800  1
  S  S18  1  0.72786100  0.50344100  0.50261100  1
  S  S19  1  0.27213900  0.50344100  0.50261100  1
  S  S20  1  0.00000000  0.86492100  0.19041700  1
  S  S21  1  0.00000000  0.18180300  0.15411700  1
  S  S22  1  0.00000000  0.84145400  0.84620900  1
  S  S23  1  0.00000000  0.18001000  0.85060200  1
  O  O0  1  0.50000000  0.81145400  0.19125600  1
  O  O1  1  0.50000000  0.19113500  0.81038100  1
  O  O2  1  0.50000000  0.19260700  0.19190400  1
  O  O3  1  0.50000000  0.81216100  0.81203200  1
loop_
_geom_bond_atom_site_label_1
_geom_bond_atom_site_label_2
_geom_bond_distance
_geom_bond_site_symmetry_2
La0 O0 2.480932 1_555
La0 S20 2.934366 1_655
La0 S12 2.984648 1_555
La0 S6 3.008327 1_555
La0 S10 3.038400 1_555
La0 S18 3.079049 1_555
La0 S5 3.117929 1_565
La0 S17 3.157562 1_655
La0 S15 3.174610 1_655
La1 O1 2.495436 1_555
La1 S23 2.905517 1_655
La1 S11 2.990406 1_555
La1 S13 3.034218 1_555
La1 S4 3.037992 1_555
La1 S18 3.067432 1_555
La1 S7 3.104888 1_556
La1 S16 3.107735 1_655
La1 S14 3.196484 1_655
La2 O2 2.472049 1_555
La2 S21 2.904436 1_655
La2 S12 2.984336 1_555
La2 S11 2.995733 1_555
La2 S5 3.056951 1_555
La2 S7 3.073792 1_555
La2 S18 3.088014 1_555
La2 S14 3.127893 1_655
La2 S17 3.144176 1_655
La3 O3 2.499877 1_555
La3 S22 2.914829 1_655
La3 S13 3.017426 1_555
La3 S6 3.026476 1_556
La3 S10 3.063069 1_555
La3 S4 3.063536 1_565
La3 S18 3.087493 1_555
La3 S15 3.181429 1_655
La3 S16 3.200220 1_655
La4 O1 2.495436 1_555
La4 S23 2.905517 1_555
La4 S11 2.990406 1_555
La4 S13 3.034218 1_555
La4 S1 3.037992 1_555
La4 S19 3.067432 1_555
La4 S2 3.104888 1_556
La4 S16 3.107735 1_555
La4 S14 3.196484 1_555
La5 O0 2.480932 1_555
La5 S20 2.934366 1_555
La5 S12 2.984648 1_555
La5 S3 3.008327 1_555
La5 S10 3.038400 1_555
La5 S19 3.079049 1_555
La5 S0 3.117929 1_565
La5 S17 3.157562 1_555
La5 S15 3.174610 1_555
La6 O3 2.499877 1_555
La6 S22 2.914829 1_555
La6 S13 3.017426 1_555
La6 S3 3.026476 1_556
La6 S10 3.063069 1_555
La6 S1 3.063536 1_565
La6 S19 3.087493 1_555
La6 S15 3.181429 1_555
La6 S16 3.200220 1_555
La7 O2 2.472049 1_555
La7 S21 2.904436 1_555
La7 S12 2.984336 1_555
La7 S11 2.995733 1_555
La7 S0 3.056951 1_555
La7 S2 3.073792 1_555
La7 S19 3.088014 1_555
La7 S14 3.127893 1_555
La7 S17 3.144176 1_555
S0 Ti0 2.386186 1_555
S0 Ti8 2.450264 1_545
S0 Ti4 2.457696 1_555
S1 Ti1 2.340958 1_555
S1 Ti4 2.498064 1_555
S2 Ti2 2.370029 1_555
S2 Ti9 2.414205 1_554
S2 Ti5 2.432750 1_554
S3 Ti3 2.340402 1_555
S3 Ti5 2.475947 1_554
S4 Ti1 2.340958 1_555
S4 Ti4 2.498064 1_555
S5 Ti0 2.386186 1_555
S5 Ti8 2.450264 1_645
S5 Ti4 2.457696 1_555
S6 Ti3 2.340402 1_555
S6 Ti5 2.475947 1_554
S7 Ti2 2.370029 1_555
S7 Ti9 2.414205 1_654
S7 Ti5 2.432750 1_554
S8 Ti0 2.587531 1_555
S8 Ti2 2.597844 1_555
S8 Ti3 2.669107 1_545
S8 Ti1 2.676490 1_554
S8 Ti7 2.684757 1_644
S9 Ti0 2.587531 1_555
S9 Ti2 2.597844 1_555
S9 Ti3 2.669107 1_545
S9 Ti1 2.676490 1_554
S9 Ti7 2.684757 1_544
S10 Ti4 2.440709 1_565
S11 Ti4 2.473461 1_555
S12 Ti5 2.479725 1_554
S13 Ti5 2.448408 1_555
S14 Ti6 2.585165 1_555
S14 Ti8 2.853436 1_545
S15 Ti8 2.469462 1_555
S15 Ti6 2.865839 1_555
S16 Ti9 2.775674 1_555
S16 Ti6 2.857934 1_555
S17 Ti6 2.560461 1_555
S17 Ti9 2.874966 1_554
S18 Ti6 2.319144 1_655
S19 Ti6 2.319144 1_555
S20 Ti7 2.438195 1_554
S20 Ti8 2.457729 1_555
S21 Ti9 2.487038 1_554
S21 Ti7 2.499641 1_544
S22 Ti7 2.261391 1_555
S23 Ti7 2.411588 1_545
S23 Ti9 2.448298 1_555
O0 Ti3 1.974332 1_555
O0 Ti0 1.976199 1_565
O1 Ti1 1.970519 1_555
O1 Ti2 1.974266 1_556
O2 Ti0 1.980842 1_555
O2 Ti2 1.989636 1_555
O3 Ti3 1.972703 1_556
O3 Ti1 1.974724 1_565
