# generated using pymatgen
data_La5Fe4NiO15
_symmetry_space_group_name_H-M   'P 1'
_cell_length_a   5.56443500
_cell_length_b   20.19396691
_cell_length_c   5.62476201
_cell_angle_alpha   97.99959067
_cell_angle_beta   90.00000000
_cell_angle_gamma   97.91909888
_symmetry_Int_Tables_number   1
_chemical_formula_structural   La5Fe4NiO15
_chemical_formula_sum   'La10 Fe8 Ni2 O30'
_cell_volume   619.80574410
_cell_formula_units_Z   2
loop_
 _symmetry_equiv_pos_site_id
 _symmetry_equiv_pos_as_xyz
  1  'x, y, z'
loop_
 _atom_site_type_symbol
 _atom_site_label
 _atom_site_symmetry_multiplicity
 _atom_site_fract_x
 _atom_site_fract_y
 _atom_site_fract_z
 _atom_site_occupancy
  La  La0  1  0.45162800  0.90325600  0.44325000  1
  La  La1  1  0.24959400  0.49918700  0.23982000  1
  La  La2  1  0.85044800  0.70089700  0.84047000  1
  La  La3  1  0.04986400  0.09972800  0.03995900  1
  La  La4  1  0.64834900  0.29669800  0.63782900  1
  La  La5  1  0.55013600  0.10027200  0.56004100  1
  La  La6  1  0.35040600  0.70081300  0.36018000  1
  La  La7  1  0.95165100  0.90330200  0.96217100  1
  La  La8  1  0.14837200  0.29674400  0.15675000  1
  La  La9  1  0.74955200  0.49910300  0.75953000  1
  Fe  Fe0  1  0.69962600  0.39925200  0.19998600  1
  Fe  Fe1  1  0.30000000  0.60000000  0.80000000  1
  Fe  Fe2  1  0.90037400  0.80074800  0.40001400  1
  Fe  Fe3  1  0.59927400  0.19854900  0.09967800  1
  Fe  Fe4  1  0.19927600  0.39855200  0.69924200  1
  Fe  Fe5  1  0.80000000  0.60000000  0.30000000  1
  Fe  Fe6  1  0.40072400  0.80144800  0.90075800  1
  Fe  Fe7  1  0.00072600  0.00145100  0.50032200  1
  Ni  Ni0  1  0.50005900  0.00011800  0.99997000  1
  Ni  Ni1  1  0.09994100  0.19988200  0.60003000  1
  O  O0  1  0.74349500  0.98163600  0.24442600  1
  O  O1  1  0.53992200  0.58011900  0.04002300  1
  O  O2  1  0.13988600  0.77993500  0.63968800  1
  O  O3  1  0.34282200  0.18168100  0.84476100  1
  O  O4  1  0.93976900  0.38028200  0.43986800  1
  O  O5  1  0.76114200  0.01831900  0.75523900  1
  O  O6  1  0.55980300  0.61988100  0.55997700  1
  O  O7  1  0.15948700  0.81971800  0.16013200  1
  O  O8  1  0.36185900  0.21836400  0.35557400  1
  O  O9  1  0.95995100  0.42006500  0.96031200  1
  O  O10  1  0.25717800  0.01831900  0.75523900  1
  O  O11  1  0.06007800  0.61988100  0.55997700  1
  O  O12  1  0.66023100  0.81971800  0.16013200  1
  O  O13  1  0.85650500  0.21836400  0.35557400  1
  O  O14  1  0.46011400  0.42006500  0.96031200  1
  O  O15  1  0.23814100  0.98163600  0.24442600  1
  O  O16  1  0.04019700  0.58011900  0.04002300  1
  O  O17  1  0.64004900  0.77993500  0.63968800  1
  O  O18  1  0.83885800  0.18168100  0.84476100  1
  O  O19  1  0.44051300  0.38028200  0.43986800  1
  O  O20  1  0.55039200  0.10078300  0.13560000  1
  O  O21  1  0.15051600  0.30103300  0.73637000  1
  O  O22  1  0.74998200  0.49996500  0.33771400  1
  O  O23  1  0.35011800  0.70023700  0.93722600  1
  O  O24  1  0.95001400  0.90002800  0.53669300  1
  O  O25  1  0.64998600  0.29997200  0.06330700  1
  O  O26  1  0.24988200  0.49976300  0.66277400  1
  O  O27  1  0.85001800  0.70003500  0.26228600  1
  O  O28  1  0.44948400  0.89896700  0.86363000  1
  O  O29  1  0.04960800  0.09921700  0.46440000  1
loop_
_geom_bond_atom_site_label_1
_geom_bond_atom_site_label_2
_geom_bond_distance
_geom_bond_site_symmetry_2
La0 O28 2.378108 1_555
La0 O0 2.485542 1_555
La0 O15 2.485542 1_555
La0 O7 2.553628 1_555
La0 O12 2.553628 1_555
La1 O26 2.377424 1_555
La1 O14 2.492678 1_554
La1 O9 2.492681 1_454
La1 O1 2.515465 1_555
La1 O16 2.515468 1_555
La2 O27 2.375098 1_556
La2 O17 2.492028 1_555
La2 O2 2.492031 1_655
La2 O6 2.516712 1_555
La2 O11 2.516715 1_655
La3 O29 2.388837 1_555
La3 O3 2.522715 1_554
La3 O18 2.522718 1_454
La3 O5 2.527431 1_454
La3 O10 2.527434 1_554
La4 O25 2.384893 1_556
La4 O8 2.484011 1_555
La4 O13 2.484011 1_555
La4 O4 2.547015 1_555
La4 O19 2.547015 1_555
La5 O20 2.388837 1_555
La5 O10 2.522715 1_555
La5 O5 2.522718 1_555
La5 O18 2.527431 1_555
La5 O3 2.527434 1_555
La6 O23 2.377424 1_554
La6 O2 2.492678 1_555
La6 O17 2.492681 1_555
La6 O11 2.515465 1_555
La6 O6 2.515468 1_555
La7 O24 2.384893 1_555
La7 O15 2.484011 1_656
La7 O0 2.484011 1_556
La7 O12 2.547015 1_556
La7 O7 2.547015 1_656
La8 O21 2.378108 1_554
La8 O13 2.485542 1_455
La8 O8 2.485542 1_555
La8 O19 2.553628 1_555
La8 O4 2.553628 1_455
La9 O22 2.375098 1_555
La9 O9 2.492028 1_555
La9 O14 2.492031 1_555
La9 O16 2.516712 1_656
La9 O1 2.516715 1_556
Fe0 O19 2.009431 1_555
Fe0 O4 2.009431 1_555
Fe0 O9 2.020476 1_554
Fe0 O14 2.020476 1_554
Fe0 O25 2.026128 1_555
Fe0 O22 2.054123 1_555
Fe1 O6 2.016119 1_555
Fe1 O16 2.016119 1_556
Fe1 O11 2.016119 1_555
Fe1 O1 2.016119 1_556
Fe1 O23 2.044615 1_555
Fe1 O26 2.044615 1_555
Fe2 O7 2.009431 1_655
Fe2 O12 2.009431 1_555
Fe2 O17 2.020476 1_555
Fe2 O2 2.020476 1_655
Fe2 O24 2.026128 1_555
Fe2 O27 2.054123 1_555
Fe3 O3 1.984547 1_554
Fe3 O18 1.984547 1_554
Fe3 O8 1.990594 1_555
Fe3 O13 1.990598 1_555
Fe3 O20 1.993906 1_555
Fe3 O25 2.067292 1_555
Fe4 O21 1.990626 1_555
Fe4 O4 2.013233 1_455
Fe4 O19 2.013233 1_555
Fe4 O14 2.024944 1_555
Fe4 O9 2.024944 1_455
Fe4 O26 2.063201 1_555
Fe5 O11 2.017518 1_655
Fe5 O1 2.017518 1_555
Fe5 O6 2.017518 1_555
Fe5 O16 2.017518 1_655
Fe5 O27 2.041477 1_555
Fe5 O22 2.041477 1_555
Fe6 O28 1.990626 1_555
Fe6 O12 2.013233 1_556
Fe6 O7 2.013233 1_556
Fe6 O2 2.024944 1_555
Fe6 O17 2.024944 1_555
Fe6 O23 2.063201 1_555
Fe7 O10 1.984547 1_555
Fe7 O5 1.984547 1_455
Fe7 O15 1.990594 1_545
Fe7 O0 1.990598 1_445
Fe7 O29 1.993906 1_555
Fe7 O24 2.067292 1_445
Ni0 O10 2.033281 1_555
Ni0 O5 2.033285 1_555
Ni0 O15 2.036414 1_546
Ni0 O0 2.036414 1_546
Ni0 O20 2.050438 1_556
Ni0 O28 2.060410 1_545
Ni1 O3 2.033281 1_555
Ni1 O18 2.033285 1_455
Ni1 O8 2.036414 1_555
Ni1 O13 2.036414 1_455
Ni1 O29 2.050438 1_555
Ni1 O21 2.060410 1_555
