# generated using pymatgen
data_Ca3BiAu14
_symmetry_space_group_name_H-M   'P 1'
_cell_length_a   5.53251599
_cell_length_b   5.53251599
_cell_length_c   13.78443239
_cell_angle_alpha   90.00000000
_cell_angle_beta   90.00000000
_cell_angle_gamma   120.00000228
_symmetry_Int_Tables_number   1
_chemical_formula_structural   Ca3BiAu14
_chemical_formula_sum   'Ca3 Bi1 Au14'
_cell_volume   365.39690548
_cell_formula_units_Z   1
loop_
 _symmetry_equiv_pos_site_id
 _symmetry_equiv_pos_as_xyz
  1  'x, y, z'
loop_
 _atom_site_type_symbol
 _atom_site_label
 _atom_site_symmetry_multiplicity
 _atom_site_fract_x
 _atom_site_fract_y
 _atom_site_fract_z
 _atom_site_occupancy
  Ca  Ca0  1  0.33333300  0.66666700  0.66705666  1
  Ca  Ca1  1  -0.00000000  -0.00000000  0.99239162  1
  Ca  Ca2  1  0.66666700  0.33333300  0.34420838  1
  Bi  Bi0  1  -0.00000000  -0.00000000  0.24509532  1
  Au  Au0  1  0.66666700  0.33333300  0.58931614  1
  Au  Au1  1  0.33333300  0.66666700  0.91290433  1
  Au  Au2  1  0.49944843  0.50055157  0.12023994  1
  Au  Au3  1  0.16706550  0.83293450  0.46366049  1
  Au  Au4  1  0.83277318  0.16722682  0.79066820  1
  Au  Au5  1  0.49944843  0.99889686  0.12023994  1
  Au  Au6  1  0.16706550  0.33413000  0.46366049  1
  Au  Au7  1  0.83277318  0.66554636  0.79066820  1
  Au  Au8  1  0.33333300  0.66666700  0.29373324  1
  Au  Au9  1  -0.00000000  -0.00000000  0.62663093  1
  Au  Au10  1  0.66666700  0.33333300  0.95496046  1
  Au  Au11  1  0.00110314  0.50055157  0.12023994  1
  Au  Au12  1  0.66587000  0.83293450  0.46366049  1
  Au  Au13  1  0.33445364  0.16722682  0.79066820  1
loop_
_geom_bond_atom_site_label_1
_geom_bond_atom_site_label_2
_geom_bond_distance
_geom_bond_site_symmetry_2
Bi0 Ca2 3.474110 1_455
Bi0 Ca2 3.474114 1_555
Bi0 Ca2 3.474114 1_445
Bi0 Ca1 3.483377 1_554
Au0 Au4 3.199552 1_555
Au0 Au7 3.199554 1_555
Au0 Au13 3.199554 1_555
Au0 Au9 3.235345 1_655
Au0 Au9 3.235350 1_665
Au0 Au9 3.235350 1_555
Au0 Au3 3.263792 1_655
Au0 Au3 3.263792 1_545
Au0 Au6 3.263792 1_655
Au0 Au12 3.263792 1_545
Au0 Au12 3.263792 1_555
Au0 Au6 3.263792 1_555
Au0 Ca0 3.369160 1_545
Au0 Ca0 3.369160 1_655
Au0 Ca0 3.369169 1_555
Au0 Ca2 3.378671 1_555
Au1 Au13 3.239023 1_565
Au1 Au7 3.239023 1_455
Au1 Au4 3.239026 1_455
Au1 Au4 3.239026 1_565
Au1 Au7 3.239028 1_555
Au1 Au13 3.239028 1_555
Au1 Au10 3.246377 1_455
Au1 Au10 3.246377 1_565
Au1 Au10 3.246387 1_555
Au1 Au11 3.271399 1_556
Au1 Au5 3.271399 1_556
Au1 Au2 3.271402 1_556
Au1 Ca1 3.376895 1_565
Au1 Ca1 3.376900 1_555
Au1 Ca1 3.376900 1_665
Au1 Ca0 3.388871 1_555
Au2 Au5 2.757103 1_555
Au2 Au5 2.775413 1_545
Au2 Au8 2.872836 1_555
Au2 Bi0 3.257953 1_665
Au2 Bi0 3.257953 1_555
Au2 Ca1 3.279934 1_664
Au2 Ca1 3.279934 1_554
Au2 Ca2 3.478352 1_555
Au3 Au9 2.758534 1_565
Au3 Au6 2.759644 1_555
Au3 Au6 2.772872 1_565
Au3 Au8 2.832866 1_555
Au3 Ca2 3.219227 1_455
Au3 Ca2 3.219227 1_565
Au3 Ca0 3.224789 1_555
Au3 Bi0 3.411729 1_565
Au4 Au7 2.756961 1_555
Au4 Au9 2.771417 1_655
Au4 Au7 2.775555 1_545
Au4 Ca1 3.209342 1_655
Au4 Ca0 3.248929 1_545
Au4 Ca0 3.248929 1_655
Au5 Au8 2.872833 1_555
Au5 Bi0 3.257953 1_665
Au5 Bi0 3.257953 1_565
Au5 Ca1 3.279935 1_664
Au5 Ca1 3.279935 1_564
Au5 Ca2 3.478350 1_565
Au6 Au9 2.758531 1_555
Au6 Au8 2.832872 1_555
Au6 Ca2 3.219227 1_455
Au6 Ca2 3.219227 1_555
Au6 Ca0 3.224793 1_555
Au6 Bi0 3.411727 1_555
Au7 Au9 2.771417 1_665
Au7 Ca1 3.209342 1_665
Au7 Ca0 3.248926 1_655
Au7 Ca0 3.248931 1_555
Au8 Bi0 3.263800 1_565
Au8 Bi0 3.263804 1_665
Au8 Bi0 3.263804 1_555
Au8 Ca2 3.269096 1_455
Au8 Ca2 3.269096 1_565
Au8 Ca2 3.269105 1_555
Au9 Ca0 3.242439 1_545
Au9 Ca0 3.242444 1_555
Au9 Ca0 3.242444 1_445
Au10 Au4 2.768096 1_555
Au10 Au13 2.768099 1_555
Au10 Au7 2.768099 1_555
Au10 Au11 2.785356 1_656
Au10 Au5 2.785356 1_546
Au10 Au2 2.785359 1_556
Au10 Ca1 3.235601 1_655
Au10 Ca1 3.235606 1_555
Au10 Ca1 3.235606 1_665
Au11 Au5 2.757103 1_555
Au11 Au2 2.757103 1_555
Au11 Au5 2.775413 1_445
Au11 Au2 2.775413 1_455
Au11 Au8 2.872833 1_555
Au11 Bi0 3.257953 1_555
Au11 Bi0 3.257953 1_565
Au11 Ca1 3.279935 1_554
Au11 Ca1 3.279935 1_564
Au11 Ca2 3.478350 1_455
Au12 Au9 2.758531 1_665
Au12 Au6 2.759644 1_555
Au12 Au3 2.759644 1_555
Au12 Au6 2.772872 1_665
Au12 Au3 2.772872 1_655
Au12 Au8 2.832872 1_555
Au12 Ca2 3.219227 1_565
Au12 Ca2 3.219227 1_555
Au12 Ca0 3.224793 1_555
Au12 Bi0 3.411727 1_665
Au13 Au7 2.756961 1_555
Au13 Au4 2.756961 1_555
Au13 Au9 2.771417 1_555
Au13 Au7 2.775555 1_445
Au13 Au4 2.775555 1_455
Au13 Ca1 3.209342 1_555
Au13 Ca0 3.248926 1_545
Au13 Ca0 3.248931 1_555
