# generated using pymatgen
data_RbInBr4
_symmetry_space_group_name_H-M   'P 1'
_cell_length_a   8.17974257
_cell_length_b   10.67990843
_cell_length_c   10.70841133
_cell_angle_alpha   89.99854552
_cell_angle_beta   90.00635532
_cell_angle_gamma   90.00096898
_symmetry_Int_Tables_number   1
_chemical_formula_structural   RbInBr4
_chemical_formula_sum   'Rb4 In4 Br16'
_cell_volume   935.47504599
_cell_formula_units_Z   4
loop_
 _symmetry_equiv_pos_site_id
 _symmetry_equiv_pos_as_xyz
  1  'x, y, z'
loop_
 _atom_site_type_symbol
 _atom_site_label
 _atom_site_symmetry_multiplicity
 _atom_site_fract_x
 _atom_site_fract_y
 _atom_site_fract_z
 _atom_site_occupancy
  Rb  Rb0  1  0.68014135  0.74999252  0.75000608  1
  Rb  Rb1  1  0.31986139  0.25000683  0.24999738  1
  Rb  Rb2  1  0.81986660  0.74998912  0.24999187  1
  Rb  Rb3  1  0.18013363  0.25001021  0.75000978  1
  In  In0  1  0.75000358  0.31843246  -0.00001337  1
  In  In1  1  0.25003622  0.68159407  -0.00000357  1
  In  In2  1  0.74998002  0.18156359  0.50001668  1
  In  In3  1  0.25000101  0.81841444  0.50000460  1
  Br  Br0  1  0.84054051  0.44903844  0.81570513  1
  Br  Br1  1  0.15942930  0.55102041  0.18427788  1
  Br  Br2  1  0.65941261  0.44900166  0.18426813  1
  Br  Br3  1  0.65945158  0.05096785  0.31572039  1
  Br  Br4  1  0.34055698  0.55100173  0.81570113  1
  Br  Br5  1  0.34056197  0.94901550  0.68428351  1
  Br  Br6  1  0.84055297  0.05097893  0.68430767  1
  Br  Br7  1  0.15943794  0.94895705  0.31567762  1
  Br  Br8  1  0.00627879  0.81994533  0.95423640  1
  Br  Br9  1  0.99372818  0.18004857  0.04576875  1
  Br  Br10  1  0.49376905  0.81996781  0.04574712  1
  Br  Br11  1  0.49382805  0.68010718  0.45432789  1
  Br  Br12  1  0.50626634  0.18004947  0.95424628  1
  Br  Br13  1  0.50618727  0.31989997  0.54570249  1
  Br  Br14  1  0.00619504  0.68008248  0.54567570  1
  Br  Br15  1  0.99378061  0.31991540  0.45434547  1
loop_
_geom_bond_atom_site_label_1
_geom_bond_atom_site_label_2
_geom_bond_distance
_geom_bond_site_symmetry_2
Br0 In0 2.527525 1_556
Br0 Rb0 3.542178 1_555
Br0 Rb3 3.567897 1_655
Br1 In1 2.527502 1_555
Br1 Rb1 3.542898 1_555
Br1 Rb2 3.567364 1_455
Br2 In0 2.527507 1_555
Br2 Rb2 3.542712 1_555
Br2 Rb1 3.567412 1_555
Br3 In2 2.527495 1_555
Br3 Rb2 3.542618 1_545
Br3 Rb1 3.567862 1_555
Br4 In1 2.527591 1_556
Br4 Rb3 3.542590 1_555
Br4 Rb0 3.567525 1_555
Br5 In3 2.527459 1_555
Br5 Rb3 3.542808 1_565
Br5 Rb0 3.567690 1_555
Br6 In2 2.527451 1_555
Br6 Rb0 3.542545 1_545
Br6 Rb3 3.567673 1_655
Br7 In3 2.527480 1_555
Br7 Rb1 3.543157 1_565
Br7 Rb2 3.567176 1_455
Br8 In1 2.529571 1_556
Br8 Rb0 3.529375 1_455
Br8 Rb2 3.593672 1_456
Br9 In0 2.529609 1_555
Br9 Rb1 3.529350 1_655
Br9 Rb3 3.593693 1_654
Br10 In1 2.529509 1_555
Br10 Rb2 3.529278 1_555
Br10 Rb0 3.593484 1_554
Br11 In3 2.529673 1_555
Br11 Rb2 3.529648 1_555
Br11 Rb0 3.592177 1_555
Br12 In0 2.529574 1_556
Br12 Rb3 3.529400 1_555
Br12 Rb1 3.593652 1_556
Br13 In2 2.529653 1_555
Br13 Rb3 3.529568 1_555
Br13 Rb1 3.592492 1_555
Br14 In3 2.529626 1_555
Br14 Rb0 3.529810 1_455
Br14 Rb2 3.592308 1_455
Br15 In2 2.529715 1_555
Br15 Rb1 3.530092 1_655
Br15 Rb3 3.592205 1_655
