# generated using pymatgen
data_Li4V3P8O29
_symmetry_space_group_name_H-M   'P 1'
_cell_length_a   9.73943900
_cell_length_b   9.75094321
_cell_length_c   14.21608432
_cell_angle_alpha   89.95738495
_cell_angle_beta   90.13965979
_cell_angle_gamma   119.85046674
_symmetry_Int_Tables_number   1
_chemical_formula_structural   Li4V3P8O29
_chemical_formula_sum   'Li8 V6 P16 O58'
_cell_volume   1170.96054210
_cell_formula_units_Z   2
loop_
 _symmetry_equiv_pos_site_id
 _symmetry_equiv_pos_as_xyz
  1  'x, y, z'
loop_
 _atom_site_type_symbol
 _atom_site_label
 _atom_site_symmetry_multiplicity
 _atom_site_fract_x
 _atom_site_fract_y
 _atom_site_fract_z
 _atom_site_occupancy
  Li  Li0  1  0.90282200  0.66612300  0.05869600  1
  Li  Li1  1  0.76452000  0.09702400  0.05747100  1
  Li  Li2  1  0.32600100  0.23217600  0.06039000  1
  Li  Li3  1  0.67305900  0.90584400  0.44021900  1
  Li  Li4  1  0.33070800  0.09286900  0.56027400  1
  Li  Li5  1  0.23459300  0.33218100  0.44151700  1
  Li  Li6  1  0.00241100  0.99625600  0.99763700  1
  Li  Li7  1  0.97138300  0.94645100  0.50110700  1
  V  V0  1  0.56519300  0.00049700  0.25044500  1
  V  V1  1  0.43487400  0.99659300  0.75373000  1
  V  V2  1  0.56793500  0.56618000  0.75115200  1
  V  V3  1  0.43694200  0.43687400  0.24585200  1
  V  V4  1  0.00118600  0.56547200  0.25409700  1
  V  V5  1  0.99892800  0.43691300  0.74544300  1
  P  P0  1  0.91510800  0.68996800  0.84307800  1
  P  P1  1  0.77666700  0.69192300  0.34085600  1
  P  P2  1  0.91812300  0.22348400  0.34250500  1
  P  P3  1  0.67088200  0.33490200  0.13106700  1
  P  P4  1  0.66138400  0.33022300  0.63155900  1
  P  P5  1  0.78118700  0.09143200  0.83900000  1
  P  P6  1  0.68823100  0.91069100  0.65875200  1
  P  P7  1  0.31165000  0.22396500  0.84259500  1
  P  P8  1  0.69334600  0.77784000  0.15727800  1
  P  P9  1  0.31531700  0.08941100  0.34394500  1
  P  P10  1  0.21914600  0.91428300  0.16240200  1
  P  P11  1  0.33390100  0.66434000  0.36828400  1
  P  P12  1  0.33148200  0.66242000  0.86683300  1
  P  P13  1  0.08487800  0.78239500  0.66000800  1
  P  P14  1  0.22538300  0.31344400  0.66114300  1
  P  P15  1  0.08213100  0.30739500  0.15713000  1
  O  O0  1  0.00337900  0.80283800  0.57811000  1
  O  O1  1  0.91703500  0.65836600  0.33346700  1
  O  O2  1  0.79078900  0.78791600  0.07379700  1
  O  O3  1  0.74242000  0.65660000  0.83101300  1
  O  O4  1  0.91583800  0.53360200  0.82616300  1
  O  O5  1  0.81369900  0.48768700  0.17694200  1
  O  O6  1  0.91630700  0.38176800  0.32805700  1
  O  O7  1  0.99273100  0.20935100  0.07403500  1
  O  O8  1  0.91785900  0.26340300  0.82833700  1
  O  O9  1  0.65958800  0.47510000  0.67951100  1
  O  O10  1  0.61957400  0.53782600  0.33083300  1
  O  O11  1  0.81185900  0.33469700  0.67574300  1
  O  O12  1  0.68129100  0.34646600  0.02613100  1
  O  O13  1  0.65447800  0.32958300  0.52753700  1
  O  O14  1  0.67980100  0.18947600  0.16992100  1
  O  O15  1  0.46696800  0.38160000  0.82973600  1
  O  O16  1  0.51291100  0.32348600  0.16778300  1
  O  O17  1  0.74617800  0.08269700  0.34078600  1
  O  O18  1  0.79907200  0.00089000  0.74873100  1
  O  O19  1  0.76988100  0.98049400  0.56819000  1
  O  O20  1  0.79065500  0.01871000  0.92913100  1
  O  O21  1  0.62099600  0.08903300  0.82535800  1
  O  O22  1  0.51231500  0.17978300  0.67278300  1
  O  O23  1  0.65821100  0.91687500  0.16080800  1
  O  O24  1  0.47393100  0.09188900  0.32633100  1
  O  O25  1  0.34262500  0.26004800  0.33310100  1
  O  O26  1  0.79734800  0.79976400  0.24975000  1
  O  O27  1  0.79375200  0.79331800  0.42404400  1
  O  O28  1  0.22518800  0.22660300  0.57374900  1
  O  O29  1  0.65403700  0.73823400  0.66917400  1
  O  O30  1  0.53278700  0.91424300  0.67376800  1
  O  O31  1  0.34593500  0.08493600  0.83050400  1
  O  O32  1  0.48810700  0.81253100  0.33049900  1
  O  O33  1  0.37759000  0.91734100  0.17005700  1
  O  O34  1  0.20028800  0.00386500  0.08241800  1
  O  O35  1  0.24011500  0.02217100  0.43667100  1
  O  O36  1  0.19757100  0.98831500  0.26042600  1
  O  O37  1  0.26165400  0.91758000  0.66371600  1
  O  O38  1  0.47885900  0.66233800  0.82309600  1
  O  O39  1  0.53521400  0.61995200  0.16982700  1
  O  O40  1  0.33700200  0.81527000  0.82189000  1
  O  O41  1  0.32837600  0.66403400  0.97046000  1
  O  O42  1  0.32525900  0.66258500  0.47281300  1
  O  O43  1  0.18827300  0.66860900  0.31897600  1
  O  O44  1  0.38165100  0.46967500  0.67494900  1
  O  O45  1  0.32416100  0.51121400  0.32761800  1
  O  O46  1  0.07840500  0.74036100  0.16294600  1
  O  O47  1  0.01150800  0.80526100  0.75735900  1
  O  O48  1  0.98328000  0.77017300  0.93441800  1
  O  O49  1  0.07795900  0.62045400  0.66953800  1
  O  O50  1  0.18450300  0.52263900  0.81725600  1
  O  O51  1  0.07936500  0.46369800  0.17196100  1
  O  O52  1  0.25531700  0.34015800  0.15746800  1
  O  O53  1  0.22614600  0.20654600  0.93246200  1
  O  O54  1  0.20087700  0.20472300  0.75272900  1
  O  O55  1  0.08484400  0.34500400  0.66370600  1
  O  O56  1  0.00793900  0.21935200  0.42656600  1
  O  O57  1  0.00137300  0.20290100  0.25017900  1
loop_
_geom_bond_atom_site_label_1
_geom_bond_atom_site_label_2
_geom_bond_distance
_geom_bond_site_symmetry_2
Li0 O2 1.984577 1_555
Li0 O48 1.994358 1_554
Li0 O46 2.098029 1_655
Li0 O5 2.259609 1_555
Li1 O7 1.941564 1_555
Li1 O20 2.043168 1_554
Li1 O23 2.123410 1_545
Li1 O14 2.190450 1_555
Li2 O34 1.959780 1_555
Li2 O53 2.016386 1_554
Li2 O52 2.053179 1_555
Li2 O16 2.193724 1_555
Li3 O27 1.980958 1_555
Li3 O19 2.009737 1_555
Li3 O17 2.063460 1_565
Li3 O32 2.205095 1_555
Li4 O35 1.931335 1_555
Li4 O28 2.031946 1_555
Li4 O37 2.095955 1_545
Li4 O22 2.213803 1_555
Li5 O56 1.925869 1_555
Li5 O28 2.122745 1_555
Li5 O25 2.173355 1_555
Li5 O45 2.217449 1_555
Li6 O34 2.240257 1_566
Li6 O48 2.301212 1_455
Li6 O53 2.317416 1_565
Li6 O2 2.320940 1_456
Li6 O20 2.385210 1_465
Li6 O7 2.388493 1_466
Li7 O0 1.920135 1_655
Li7 O27 1.960721 1_555
Li7 O19 2.351432 1_555
Li7 O35 2.514254 1_665
O0 P13 1.475793 1_555
O1 P1 1.559853 1_555
O1 V4 1.873601 1_655
O2 P8 1.493739 1_555
O3 P0 1.554972 1_555
O3 V2 1.858696 1_555
O4 P0 1.547249 1_555
O4 V5 1.904268 1_555
O5 P3 1.585474 1_555
O5 V4 1.930139 1_655
O6 P2 1.565671 1_555
O6 V4 1.877475 1_655
O7 P15 1.495179 1_655
O8 P5 1.544457 1_555
O8 V5 1.883174 1_555
O9 P4 1.576953 1_555
O9 V2 1.848726 1_555
O10 P1 1.526326 1_555
O10 V3 1.959760 1_555
O11 P4 1.573583 1_555
O11 V5 1.865384 1_555
O12 P3 1.495829 1_555
O13 P4 1.480027 1_555
O14 P3 1.563554 1_555
O14 V0 1.976742 1_555
O15 P7 1.539686 1_555
O15 V2 1.922216 1_555
O16 P3 1.576484 1_555
O16 V3 1.954944 1_555
O17 P2 1.549491 1_555
O17 V0 1.995742 1_555
O18 P5 1.616309 1_555
O18 P6 1.620165 1_545
O19 P6 1.489304 1_555
O20 P5 1.488710 1_555
O21 P5 1.560285 1_555
O21 V1 1.871131 1_545
O22 P4 1.576687 1_555
O22 V1 1.934909 1_545
O23 P8 1.555509 1_555
O23 V0 1.962636 1_565
O24 P9 1.553849 1_555
O24 V0 1.882188 1_555
O25 P9 1.556361 1_555
O25 V3 1.944446 1_555
O26 P8 1.605684 1_555
O26 P1 1.616229 1_555
O27 P1 1.496923 1_555
O28 P14 1.503514 1_555
O29 P6 1.550185 1_555
O29 V2 1.864771 1_555
O30 P6 1.546790 1_555
O30 V1 1.901393 1_555
O31 P7 1.558887 1_555
O31 V1 1.852677 1_545
O32 P11 1.573082 1_555
O32 V0 1.961986 1_565
O33 P10 1.532136 1_555
O33 V0 1.954048 1_565
O34 P10 1.498956 1_545
O35 P9 1.493103 1_555
O36 P9 1.601975 1_565
O36 P10 1.631283 1_555
O37 P13 1.563664 1_555
O37 V1 1.942756 1_555
O38 P12 1.566006 1_555
O38 V2 1.869051 1_555
O39 P8 1.553892 1_555
O39 V3 1.890054 1_555
O40 P12 1.597333 1_555
O40 V1 1.815990 1_555
O41 P12 1.473811 1_555
O42 P11 1.488184 1_555
O43 P11 1.599576 1_555
O43 V4 1.830631 1_555
O44 P14 1.538362 1_555
O44 V2 1.908698 1_555
O45 P11 1.559694 1_555
O45 V3 1.970598 1_555
O46 P10 1.562364 1_555
O46 V4 1.969170 1_555
O47 P0 1.607211 1_455
O47 P13 1.624668 1_555
O48 P0 1.489620 1_555
O49 P13 1.552475 1_555
O49 V5 1.894657 1_455
O50 P12 1.567762 1_555
O50 V5 1.869746 1_455
O51 P15 1.552238 1_555
O51 V4 1.919969 1_555
O52 P15 1.552642 1_555
O52 V3 1.981782 1_555
O53 P7 1.489480 1_555
O54 P7 1.619692 1_555
O54 P14 1.619758 1_555
O55 P14 1.545686 1_555
O55 V5 1.899046 1_455
O56 P2 1.491580 1_455
O57 P2 1.608714 1_455
O57 P15 1.616133 1_555
