# generated using pymatgen
data_Y3GeS2
_symmetry_space_group_name_H-M   'P 1'
_cell_length_a   4.02748720
_cell_length_b   4.02748720
_cell_length_c   9.75565612
_cell_angle_alpha   90.00000000
_cell_angle_beta   90.00000000
_cell_angle_gamma   120.00000027
_symmetry_Int_Tables_number   1
_chemical_formula_structural   Y3GeS2
_chemical_formula_sum   'Y3 Ge1 S2'
_cell_volume   137.04255619
_cell_formula_units_Z   1
loop_
 _symmetry_equiv_pos_site_id
 _symmetry_equiv_pos_as_xyz
  1  'x, y, z'
loop_
 _atom_site_type_symbol
 _atom_site_label
 _atom_site_symmetry_multiplicity
 _atom_site_fract_x
 _atom_site_fract_y
 _atom_site_fract_z
 _atom_site_occupancy
  Y  Y0  1  0.33333300  0.66666700  0.16439011  1
  Y  Y1  1  0.66666700  0.33333300  0.83560989  1
  Y  Y2  1  -0.00000000  -0.00000000  0.50000000  1
  Ge  Ge0  1  -0.00000000  -0.00000000  -0.00000000  1
  S  S0  1  0.33333300  0.66666700  0.65848664  1
  S  S1  1  0.66666700  0.33333300  0.34151336  1
loop_
_geom_bond_atom_site_label_1
_geom_bond_atom_site_label_2
_geom_bond_distance
_geom_bond_site_symmetry_2
Ge0 Y1 2.824683 1_454
Ge0 Y0 2.824683 1_545
Ge0 Y0 2.824686 1_555
Ge0 Y0 2.824686 1_445
Ge0 Y1 2.824686 1_554
Ge0 Y1 2.824686 1_444
S0 Y2 2.792387 1_565
S0 Y2 2.792390 1_555
S0 Y2 2.792390 1_665
S0 Y1 2.897015 1_455
S0 Y1 2.897015 1_565
S0 Y1 2.897021 1_555
S1 Y2 2.792387 1_655
S1 Y2 2.792390 1_555
S1 Y2 2.792390 1_665
S1 Y0 2.897015 1_545
S1 Y0 2.897015 1_655
S1 Y0 2.897021 1_555
