# generated using pymatgen
data_Nb4FeS8
_symmetry_space_group_name_H-M   'P 1'
_cell_length_a   12.61599759
_cell_length_b   12.61599759
_cell_length_c   5.76026991
_cell_angle_alpha   77.00346018
_cell_angle_beta   77.00346018
_cell_angle_gamma   15.26660038
_symmetry_Int_Tables_number   1
_chemical_formula_structural   Nb4FeS8
_chemical_formula_sum   'Nb4 Fe1 S8'
_cell_volume   235.11303492
_cell_formula_units_Z   1
loop_
 _symmetry_equiv_pos_site_id
 _symmetry_equiv_pos_as_xyz
  1  'x, y, z'
loop_
 _atom_site_type_symbol
 _atom_site_label
 _atom_site_symmetry_multiplicity
 _atom_site_fract_x
 _atom_site_fract_y
 _atom_site_fract_z
 _atom_site_occupancy
  Nb  Nb0  1  0.38344400  0.38344400  0.60944500  1
  Nb  Nb1  1  0.88028500  0.88028500  0.12699500  1
  Nb  Nb2  1  0.61655600  0.61655600  0.39055500  1
  Nb  Nb3  1  0.11971600  0.11971600  0.87300500  1
  Fe  Fe0  1  0.00000000  0.00000000  0.00000000  1
  S  S0  1  0.18294500  0.18294500  0.47973400  1
  S  S1  1  0.68230200  0.68230200  0.98672900  1
  S  S2  1  0.31769800  0.31769800  0.01327100  1
  S  S3  1  0.81705500  0.81705500  0.52026600  1
  S  S4  1  0.44699300  0.44699300  0.89158900  1
  S  S5  1  0.94810600  0.94810600  0.38092400  1
  S  S6  1  0.05189400  0.05189400  0.61907600  1
  S  S7  1  0.55300700  0.55300700  0.10841100  1
loop_
_geom_bond_atom_site_label_1
_geom_bond_atom_site_label_2
_geom_bond_distance
_geom_bond_site_symmetry_2
Nb0 S5 2.487993 1_455
Nb0 S5 2.487993 1_545
Nb0 S3 2.493154 1_545
Nb0 S3 2.493154 1_455
Nb0 S4 2.517785 1_555
Nb0 S2 2.525611 1_556
Nb1 S3 2.450846 1_555
Nb1 S5 2.478319 1_555
Nb1 S2 2.480451 1_565
Nb1 S2 2.480451 1_655
Nb1 S4 2.530534 1_654
Nb1 S4 2.530534 1_564
Nb2 S6 2.487993 1_565
Nb2 S6 2.487993 1_655
Nb2 S0 2.493154 1_655
Nb2 S0 2.493154 1_565
Nb2 S7 2.517785 1_555
Nb2 S1 2.525611 1_554
Nb3 S0 2.450835 1_555
Nb3 S6 2.478339 1_555
Nb3 S1 2.480434 1_545
Nb3 S1 2.480434 1_455
Nb3 S7 2.530548 1_546
Nb3 S7 2.530548 1_456
Fe0 S6 2.281797 1_554
Fe0 S5 2.281797 1_445
Fe0 S4 2.308953 1_454
Fe0 S4 2.308953 1_544
Fe0 S7 2.308953 1_545
Fe0 S7 2.308953 1_455
