# generated using pymatgen
data_Sn
_symmetry_space_group_name_H-M   'P 1'
_cell_length_a   5.64389220
_cell_length_b   5.64389220
_cell_length_c   10.30480196
_cell_angle_alpha   73.11968142
_cell_angle_beta   106.88031858
_cell_angle_gamma   132.72966018
_symmetry_Int_Tables_number   1
_chemical_formula_structural   Sn
_chemical_formula_sum   Sn8
_cell_volume   228.68387931
_cell_formula_units_Z   8
loop_
 _symmetry_equiv_pos_site_id
 _symmetry_equiv_pos_as_xyz
  1  'x, y, z'
loop_
 _atom_site_type_symbol
 _atom_site_label
 _atom_site_symmetry_multiplicity
 _atom_site_fract_x
 _atom_site_fract_y
 _atom_site_fract_z
 _atom_site_occupancy
  Sn  Sn0  1  0.50000000  0.50000000  0.50000000  1
  Sn  Sn1  1  0.50000000  0.50000000  0.00000000  1
  Sn  Sn2  1  0.00547000  0.00547000  0.75000000  1
  Sn  Sn3  1  0.99453000  0.99453000  0.25000000  1
  Sn  Sn4  1  0.25209300  0.75754700  0.62231800  1
  Sn  Sn5  1  0.75754700  0.25209300  0.87768200  1
  Sn  Sn6  1  0.74790700  0.24245300  0.37768200  1
  Sn  Sn7  1  0.24245300  0.74790700  0.12231800  1
loop_
_geom_bond_atom_site_label_1
_geom_bond_atom_site_label_2
_geom_bond_distance
_geom_bond_site_symmetry_2
Sn0 Sn4 3.241527 1_555
Sn0 Sn6 3.241527 1_555
Sn0 Sn4 3.332507 1_545
Sn0 Sn6 3.332507 1_565
Sn0 Sn4 3.361997 1_655
Sn0 Sn6 3.361997 1_455
Sn0 Sn2 3.412509 1_555
Sn0 Sn3 3.412509 1_555
Sn0 Sn3 3.445179 1_445
Sn0 Sn2 3.445179 1_665
Sn1 Sn7 3.241527 1_555
Sn1 Sn5 3.241527 1_554
Sn1 Sn7 3.332507 1_655
Sn1 Sn5 3.332507 1_454
Sn1 Sn5 3.361997 1_564
Sn1 Sn7 3.361997 1_545
Sn1 Sn2 3.412509 1_554
Sn1 Sn3 3.412509 1_555
Sn1 Sn3 3.445179 1_445
Sn1 Sn2 3.445179 1_664
Sn2 Sn5 3.225267 1_455
Sn2 Sn4 3.225267 1_545
Sn2 Sn5 3.389381 1_555
Sn2 Sn4 3.389381 1_555
Sn2 Sn5 3.393306 1_445
Sn2 Sn4 3.393306 1_445
Sn3 Sn6 3.225267 1_565
Sn3 Sn7 3.225267 1_655
Sn3 Sn6 3.389381 1_555
Sn3 Sn7 3.389381 1_555
Sn3 Sn6 3.393306 1_665
Sn3 Sn7 3.393306 1_665
Sn4 Sn6 3.372340 1_565
Sn4 Sn6 3.430381 1_455
Sn4 Sn5 3.457395 1_565
Sn4 Sn5 3.457395 1_455
Sn5 Sn7 3.372340 1_656
Sn5 Sn7 3.430381 1_546
Sn6 Sn7 3.457395 1_545
Sn6 Sn7 3.457395 1_655
