# generated using pymatgen
data_KGd(MoO4)2
_symmetry_space_group_name_H-M   'P 1'
_cell_length_a   7.55595100
_cell_length_b   7.55595100
_cell_length_c   7.83865158
_cell_angle_alpha   61.70440707
_cell_angle_beta   61.70440707
_cell_angle_gamma   88.23717452
_symmetry_Int_Tables_number   1
_chemical_formula_structural   KGd(MoO4)2
_chemical_formula_sum   'K2 Gd2 Mo4 O16'
_cell_volume   335.93992759
_cell_formula_units_Z   2
loop_
 _symmetry_equiv_pos_site_id
 _symmetry_equiv_pos_as_xyz
  1  'x, y, z'
loop_
 _atom_site_type_symbol
 _atom_site_label
 _atom_site_symmetry_multiplicity
 _atom_site_fract_x
 _atom_site_fract_y
 _atom_site_fract_z
 _atom_site_occupancy
  K  K0  1  0.20019600  0.79980400  0.75000000  1
  K  K1  1  0.79980400  0.20019600  0.25000000  1
  Gd  Gd0  1  0.77062200  0.22937800  0.75000000  1
  Gd  Gd1  1  0.22937800  0.77062200  0.25000000  1
  Mo  Mo0  1  0.69425400  0.69718900  0.76075300  1
  Mo  Mo1  1  0.30574600  0.30281100  0.23924700  1
  Mo  Mo2  1  0.30281100  0.30574600  0.73924700  1
  Mo  Mo3  1  0.69718900  0.69425400  0.26075300  1
  O  O0  1  0.61370600  0.76775000  0.56188500  1
  O  O1  1  0.38629400  0.23225000  0.43811500  1
  O  O2  1  0.23225000  0.38629400  0.93811500  1
  O  O3  1  0.76775000  0.61370600  0.06188500  1
  O  O4  1  0.38341300  0.06922400  0.87322600  1
  O  O5  1  0.61658700  0.93077600  0.12677400  1
  O  O6  1  0.93077600  0.61658700  0.62677400  1
  O  O7  1  0.06922400  0.38341300  0.37322600  1
  O  O8  1  0.58417200  0.36791200  0.97196400  1
  O  O9  1  0.41582800  0.63208800  0.02803600  1
  O  O10  1  0.63208800  0.41582800  0.52803600  1
  O  O11  1  0.36791200  0.58417200  0.47196400  1
  O  O12  1  0.79372400  0.95133800  0.69065000  1
  O  O13  1  0.20627600  0.04866200  0.30935000  1
  O  O14  1  0.04866200  0.20627600  0.80935000  1
  O  O15  1  0.95133800  0.79372400  0.19065000  1
loop_
_geom_bond_atom_site_label_1
_geom_bond_atom_site_label_2
_geom_bond_distance
_geom_bond_site_symmetry_2
K0 O0 2.814152 1_555
K0 O2 2.814152 1_555
K0 O3 2.842753 1_456
K0 O1 2.842753 1_565
K0 O15 3.027553 1_456
K0 O13 3.027553 1_565
K0 O9 3.103466 1_556
K0 O11 3.103466 1_555
K0 O6 3.209205 1_455
K0 O4 3.209205 1_565
K1 O3 2.814152 1_555
K1 O1 2.814152 1_555
K1 O0 2.842753 1_545
K1 O2 2.842753 1_654
K1 O12 3.027553 1_545
K1 O14 3.027553 1_654
K1 O10 3.103466 1_555
K1 O8 3.103466 1_554
K1 O5 3.209205 1_545
K1 O7 3.209205 1_655
Gd0 O8 2.328036 1_555
Gd0 O10 2.328036 1_555
Gd0 O14 2.342549 1_655
Gd0 O12 2.342549 1_545
Gd0 O5 2.398581 1_546
Gd0 O7 2.398581 1_655
Gd0 O6 2.718047 1_555
Gd0 O4 2.718047 1_555
Gd1 O9 2.328036 1_555
Gd1 O11 2.328036 1_555
Gd1 O13 2.342549 1_565
Gd1 O15 2.342549 1_455
Gd1 O6 2.398581 1_455
Gd1 O4 2.398581 1_564
Gd1 O7 2.718047 1_555
Gd1 O5 2.718047 1_555
Mo0 O0 1.782207 1_555
Mo0 O12 1.803158 1_555
Mo0 O6 1.851433 1_555
Mo0 O9 1.991325 1_556
Mo0 O8 2.130655 1_555
Mo0 O3 2.467324 1_556
Mo1 O1 1.782207 1_555
Mo1 O13 1.803158 1_555
Mo1 O7 1.851433 1_555
Mo1 O8 1.991325 1_554
Mo1 O9 2.130655 1_555
Mo1 O2 2.467324 1_554
Mo2 O2 1.782207 1_555
Mo2 O14 1.803158 1_555
Mo2 O4 1.851433 1_555
Mo2 O11 1.991325 1_555
Mo2 O10 2.130655 1_555
Mo2 O1 2.467324 1_555
Mo3 O3 1.782207 1_555
Mo3 O15 1.803158 1_555
Mo3 O5 1.851433 1_555
Mo3 O10 1.991325 1_555
Mo3 O11 2.130655 1_555
Mo3 O0 2.467324 1_555
