# generated using pymatgen
data_Lu2Fe17
_symmetry_space_group_name_H-M   'P 1'
_cell_length_a   8.28743500
_cell_length_b   8.32691529
_cell_length_c   8.32691529
_cell_angle_alpha   120.01367561
_cell_angle_beta   90.00000000
_cell_angle_gamma   90.00000000
_symmetry_Int_Tables_number   1
_chemical_formula_structural   Lu2Fe17
_chemical_formula_sum   'Lu4 Fe34'
_cell_volume   497.57573784
_cell_formula_units_Z   2
loop_
 _symmetry_equiv_pos_site_id
 _symmetry_equiv_pos_as_xyz
  1  'x, y, z'
loop_
 _atom_site_type_symbol
 _atom_site_label
 _atom_site_symmetry_multiplicity
 _atom_site_fract_x
 _atom_site_fract_y
 _atom_site_fract_z
 _atom_site_occupancy
  Lu  Lu0  1  0.75000000  0.99997900  0.00002100  1
  Lu  Lu1  1  0.25000000  0.00002100  0.99997900  1
  Lu  Lu2  1  0.25000000  0.66664000  0.33336000  1
  Lu  Lu3  1  0.75000000  0.33336000  0.66664000  1
  Fe  Fe0  1  0.60766700  0.66667800  0.33332200  1
  Fe  Fe1  1  0.39233300  0.33332200  0.66667800  1
  Fe  Fe2  1  0.10766700  0.33332200  0.66667800  1
  Fe  Fe3  1  0.89233300  0.66667800  0.33332200  1
  Fe  Fe4  1  0.50000000  0.50000000  0.00000000  1
  Fe  Fe5  1  0.50000000  0.50000000  0.50000000  1
  Fe  Fe6  1  0.50000000  0.00000000  0.50000000  1
  Fe  Fe7  1  0.00000000  0.50000000  0.00000000  1
  Fe  Fe8  1  0.00000000  0.50000000  0.50000000  1
  Fe  Fe9  1  0.00000000  0.00000000  0.50000000  1
  Fe  Fe10  1  0.75000000  0.67069100  0.03137300  1
  Fe  Fe11  1  0.75000000  0.36083700  0.32947200  1
  Fe  Fe12  1  0.75000000  0.96846700  0.63921800  1
  Fe  Fe13  1  0.75000000  0.36078200  0.03153300  1
  Fe  Fe14  1  0.75000000  0.96862700  0.32930900  1
  Fe  Fe15  1  0.75000000  0.67052800  0.63916300  1
  Fe  Fe16  1  0.25000000  0.32930900  0.96862700  1
  Fe  Fe17  1  0.25000000  0.63916300  0.67052800  1
  Fe  Fe18  1  0.25000000  0.03153300  0.36078200  1
  Fe  Fe19  1  0.25000000  0.63921800  0.96846700  1
  Fe  Fe20  1  0.25000000  0.03137300  0.67069100  1
  Fe  Fe21  1  0.25000000  0.32947200  0.36083700  1
  Fe  Fe22  1  0.48717200  0.83439400  0.66901000  1
  Fe  Fe23  1  0.48715300  0.83454900  0.16545100  1
  Fe  Fe24  1  0.48717200  0.33099000  0.16560600  1
  Fe  Fe25  1  0.51282800  0.16560600  0.33099000  1
  Fe  Fe26  1  0.51284700  0.16545100  0.83454900  1
  Fe  Fe27  1  0.51282800  0.66901000  0.83439400  1
  Fe  Fe28  1  0.98717200  0.16560600  0.33099000  1
  Fe  Fe29  1  0.98715300  0.16545100  0.83454900  1
  Fe  Fe30  1  0.98717200  0.66901000  0.83439400  1
  Fe  Fe31  1  0.01282800  0.83439400  0.66901000  1
  Fe  Fe32  1  0.01284700  0.83454900  0.16545100  1
  Fe  Fe33  1  0.01282800  0.33099000  0.16560600  1
loop_
_geom_bond_atom_site_label_1
_geom_bond_atom_site_label_2
_geom_bond_distance
_geom_bond_site_symmetry_2
Fe0 Fe3 2.359151 1_555
Fe0 Fe6 2.563652 1_565
Fe0 Fe4 2.563652 1_555
Fe0 Fe5 2.564347 1_555
Fe0 Fe24 2.618325 1_555
Fe0 Fe22 2.618325 1_555
Fe0 Fe23 2.619207 1_555
Fe0 Fe12 2.791216 1_555
Fe0 Fe13 2.791216 1_555
Fe0 Fe15 2.792220 1_555
Fe0 Fe11 2.792220 1_555
Fe0 Fe10 2.792542 1_555
Fe0 Fe14 2.792542 1_555
Fe0 Lu2 2.964142 1_555
Fe1 Fe2 2.359151 1_555
Fe1 Fe4 2.563652 1_556
Fe1 Fe6 2.563652 1_555
Fe1 Fe5 2.564347 1_555
Fe1 Fe25 2.618325 1_555
Fe1 Fe27 2.618325 1_555
Fe1 Fe26 2.619207 1_555
Fe1 Fe19 2.791216 1_555
Fe1 Fe18 2.791216 1_555
Fe1 Fe17 2.792220 1_555
Fe1 Fe21 2.792220 1_555
Fe1 Fe20 2.792542 1_555
Fe1 Fe16 2.792542 1_555
Fe1 Lu3 2.964142 1_555
Fe2 Fe7 2.563652 1_556
Fe2 Fe9 2.563652 1_555
Fe2 Fe8 2.564347 1_555
Fe2 Fe28 2.618325 1_455
Fe2 Fe30 2.618325 1_455
Fe2 Fe29 2.619207 1_455
Fe2 Fe21 2.792220 1_555
Fe2 Fe20 2.792542 1_555
Fe2 Lu3 2.964142 1_455
Fe3 Fe7 2.563652 1_655
Fe3 Fe9 2.563652 1_665
Fe3 Fe8 2.564347 1_655
Fe3 Fe33 2.618325 1_655
Fe3 Fe31 2.618325 1_655
Fe3 Fe32 2.619207 1_655
Fe3 Lu2 2.964142 1_655
Fe4 Lu3 3.173335 1_554
Fe4 Lu2 3.173335 1_555
Fe5 Lu2 3.173275 1_555
Fe5 Lu3 3.173275 1_555
Fe6 Lu2 3.173335 1_545
Fe6 Lu3 3.173335 1_555
Fe7 Lu3 3.173335 1_454
Fe7 Lu2 3.173335 1_555
Fe8 Lu2 3.173275 1_555
Fe8 Lu3 3.173275 1_455
Fe9 Lu2 3.173335 1_545
Fe9 Lu3 3.173335 1_455
Fe10 Fe7 2.451441 1_655
Fe10 Fe4 2.451441 1_555
Fe10 Fe14 2.480375 1_555
Fe10 Fe32 2.515810 1_655
Fe10 Fe23 2.515810 1_555
Fe10 Fe30 2.555572 1_554
Fe10 Fe27 2.555572 1_554
Fe10 Fe13 2.581253 1_555
Fe10 Fe3 2.792542 1_555
Fe10 Lu0 2.881421 1_555
Fe10 Lu3 2.929084 1_554
Fe11 Fe5 2.450631 1_555
Fe11 Fe8 2.450631 1_655
Fe11 Fe13 2.480684 1_555
Fe11 Fe33 2.515708 1_655
Fe11 Fe24 2.515708 1_555
Fe11 Fe28 2.554781 1_555
Fe11 Fe25 2.554781 1_555
Fe11 Fe15 2.578238 1_555
Fe11 Fe3 2.792220 1_555
Fe11 Lu0 2.882391 1_545
Fe11 Lu3 2.928725 1_555
Fe12 Fe6 2.451517 1_565
Fe12 Fe9 2.451517 1_665
Fe12 Fe15 2.480684 1_555
Fe12 Fe31 2.515833 1_655
Fe12 Fe22 2.515833 1_555
Fe12 Fe29 2.555338 1_565
Fe12 Fe26 2.555338 1_565
Fe12 Fe14 2.581253 1_555
Fe12 Fe3 2.791216 1_555
Fe12 Lu0 2.882093 1_556
Fe12 Lu3 2.930892 1_565
Fe13 Fe4 2.451517 1_555
Fe13 Fe7 2.451517 1_655
Fe13 Fe33 2.515833 1_655
Fe13 Fe24 2.515833 1_555
Fe13 Fe29 2.555338 1_554
Fe13 Fe26 2.555338 1_554
Fe13 Fe3 2.791216 1_555
Fe13 Lu0 2.882093 1_545
Fe13 Lu3 2.930892 1_554
Fe14 Fe6 2.451441 1_565
Fe14 Fe9 2.451441 1_665
Fe14 Fe32 2.515810 1_655
Fe14 Fe23 2.515810 1_555
Fe14 Fe28 2.555572 1_565
Fe14 Fe25 2.555572 1_565
Fe14 Fe3 2.792542 1_555
Fe14 Lu0 2.881421 1_555
Fe14 Lu3 2.929084 1_565
Fe15 Fe5 2.450631 1_555
Fe15 Fe8 2.450631 1_655
Fe15 Fe31 2.515708 1_655
Fe15 Fe22 2.515708 1_555
Fe15 Fe30 2.554781 1_555
Fe15 Fe27 2.554781 1_555
Fe15 Fe3 2.792220 1_555
Fe15 Lu0 2.882391 1_556
Fe15 Lu3 2.928725 1_555
Fe16 Fe4 2.451441 1_556
Fe16 Fe7 2.451441 1_556
Fe16 Fe20 2.480375 1_555
Fe16 Fe26 2.515810 1_555
Fe16 Fe29 2.515810 1_455
Fe16 Fe24 2.555572 1_556
Fe16 Fe33 2.555572 1_556
Fe16 Fe19 2.581253 1_555
Fe16 Fe2 2.792542 1_555
Fe16 Lu1 2.881421 1_555
Fe16 Lu2 2.929084 1_556
Fe17 Fe8 2.450631 1_555
Fe17 Fe5 2.450631 1_555
Fe17 Fe19 2.480684 1_555
Fe17 Fe27 2.515708 1_555
Fe17 Fe30 2.515708 1_455
Fe17 Fe22 2.554781 1_555
Fe17 Fe31 2.554781 1_555
Fe17 Fe21 2.578238 1_555
Fe17 Fe2 2.792220 1_555
Fe17 Lu1 2.882391 1_565
Fe17 Lu2 2.928725 1_555
Fe18 Fe9 2.451517 1_555
Fe18 Fe6 2.451517 1_555
Fe18 Fe21 2.480684 1_555
Fe18 Fe25 2.515833 1_555
Fe18 Fe28 2.515833 1_455
Fe18 Fe23 2.555338 1_545
Fe18 Fe32 2.555338 1_545
Fe18 Fe20 2.581253 1_555
Fe18 Fe2 2.791216 1_555
Fe18 Lu1 2.882093 1_554
Fe18 Lu2 2.930892 1_545
Fe19 Fe4 2.451517 1_556
Fe19 Fe7 2.451517 1_556
Fe19 Fe27 2.515833 1_555
Fe19 Fe30 2.515833 1_455
Fe19 Fe23 2.555338 1_556
Fe19 Fe32 2.555338 1_556
Fe19 Fe2 2.791216 1_555
Fe19 Lu1 2.882093 1_565
Fe19 Lu2 2.930892 1_556
Fe20 Fe9 2.451441 1_555
Fe20 Fe6 2.451441 1_555
Fe20 Fe26 2.515810 1_555
Fe20 Fe29 2.515810 1_455
Fe20 Fe22 2.555572 1_545
Fe20 Fe31 2.555572 1_545
Fe20 Lu1 2.881421 1_555
Fe20 Lu2 2.929084 1_545
Fe21 Fe8 2.450631 1_555
Fe21 Fe5 2.450631 1_555
Fe21 Fe25 2.515708 1_555
Fe21 Fe28 2.515708 1_455
Fe21 Fe24 2.554781 1_555
Fe21 Fe33 2.554781 1_555
Fe21 Lu1 2.882391 1_554
Fe21 Lu2 2.928725 1_555
Fe22 Fe27 2.394895 1_555
Fe22 Fe26 2.396494 1_565
Fe22 Fe5 2.413476 1_555
Fe22 Fe6 2.415572 1_565
Fe22 Lu1 3.091643 1_565
Fe22 Lu2 3.117769 1_555
Fe22 Lu0 3.231215 1_556
Fe23 Fe25 2.396494 1_565
Fe23 Fe27 2.396494 1_554
Fe23 Fe6 2.414607 1_565
Fe23 Fe4 2.414607 1_555
Fe23 Lu1 3.091784 1_564
Fe23 Lu2 3.118999 1_555
Fe23 Lu0 3.230881 1_555
Fe24 Fe25 2.394895 1_555
Fe24 Fe26 2.396494 1_554
Fe24 Fe5 2.413476 1_555
Fe24 Fe4 2.415572 1_555
Fe24 Lu1 3.091643 1_554
Fe24 Lu2 3.117769 1_555
Fe24 Lu0 3.231215 1_545
Fe25 Fe5 2.413476 1_555
Fe25 Fe6 2.415572 1_555
Fe25 Lu0 3.091643 1_545
Fe25 Lu3 3.117769 1_555
Fe25 Lu1 3.231215 1_554
Fe26 Fe6 2.414607 1_555
Fe26 Fe4 2.414607 1_556
Fe26 Lu0 3.091784 1_546
Fe26 Lu3 3.118999 1_555
Fe26 Lu1 3.230881 1_555
Fe27 Fe5 2.413476 1_555
Fe27 Fe4 2.415572 1_556
Fe27 Lu0 3.091643 1_556
Fe27 Lu3 3.117769 1_555
Fe27 Lu1 3.231215 1_565
Fe28 Fe33 2.394895 1_655
Fe28 Fe32 2.396494 1_645
Fe28 Fe8 2.413476 1_655
Fe28 Fe9 2.415572 1_655
Fe28 Lu0 3.091643 1_545
Fe28 Lu3 3.117769 1_555
Fe28 Lu1 3.231215 1_654
Fe29 Fe33 2.396494 1_656
Fe29 Fe31 2.396494 1_645
Fe29 Fe7 2.414607 1_656
Fe29 Fe9 2.414607 1_655
Fe29 Lu0 3.091784 1_546
Fe29 Lu3 3.118999 1_555
Fe29 Lu1 3.230881 1_655
Fe30 Fe31 2.394895 1_655
Fe30 Fe32 2.396494 1_656
Fe30 Fe8 2.413476 1_655
Fe30 Fe7 2.415572 1_656
Fe30 Lu0 3.091643 1_556
Fe30 Lu3 3.117769 1_555
Fe30 Lu1 3.231215 1_665
Fe31 Fe8 2.413476 1_555
Fe31 Fe9 2.415572 1_565
Fe31 Lu1 3.091643 1_565
Fe31 Lu2 3.117769 1_555
Fe31 Lu0 3.231215 1_456
Fe32 Fe9 2.414607 1_565
Fe32 Fe7 2.414607 1_555
Fe32 Lu1 3.091784 1_564
Fe32 Lu2 3.118999 1_555
Fe32 Lu0 3.230881 1_455
Fe33 Fe8 2.413476 1_555
Fe33 Fe7 2.415572 1_555
Fe33 Lu1 3.091643 1_554
Fe33 Lu2 3.117769 1_555
Fe33 Lu0 3.231215 1_445
