# generated using pymatgen
data_LaCrSbO6
_symmetry_space_group_name_H-M   'P 1'
_cell_length_a   5.47748800
_cell_length_b   5.48468778
_cell_length_c   5.51392959
_cell_angle_alpha   90.20271225
_cell_angle_beta   119.45894039
_cell_angle_gamma   119.79446236
_symmetry_Int_Tables_number   1
_chemical_formula_structural   LaCrSbO6
_chemical_formula_sum   'La1 Cr1 Sb1 O6'
_cell_volume   118.23963392
_cell_formula_units_Z   1
loop_
 _symmetry_equiv_pos_site_id
 _symmetry_equiv_pos_as_xyz
  1  'x, y, z'
loop_
 _atom_site_type_symbol
 _atom_site_label
 _atom_site_symmetry_multiplicity
 _atom_site_fract_x
 _atom_site_fract_y
 _atom_site_fract_z
 _atom_site_occupancy
  La  La0  1  0.50000300  0.74232500  0.75927400  1
  Cr  Cr0  1  0.99540300  0.48796000  0.00442200  1
  Sb  Sb0  1  0.00106000  0.99094400  0.50456500  1
  O  O0  1  0.50260400  0.74602900  0.32783100  1
  O  O1  1  0.92325200  0.69959200  0.20396400  1
  O  O2  1  0.07928500  0.29656600  0.78299700  1
  O  O3  1  0.93378300  0.19890200  0.19967500  1
  O  O4  1  0.06550700  0.76680700  0.78764000  1
  O  O5  1  0.49951600  0.22946500  0.68987000  1
loop_
_geom_bond_atom_site_label_1
_geom_bond_atom_site_label_2
_geom_bond_distance
_geom_bond_site_symmetry_2
La0 O0 2.386083 1_555
La0 O2 2.450453 1_555
La0 O3 2.486377 1_566
La0 O4 2.527887 1_555
La0 O1 2.528760 1_556
La0 O5 2.701545 1_565
La0 O5 2.835958 1_555
La0 O4 2.957572 1_655
La0 O1 3.025763 1_455
La0 O2 3.054377 1_665
La0 O3 3.059240 1_455
La0 O0 3.127949 1_556
Cr0 O1 1.894362 1_555
Cr0 O3 1.903734 1_555
Cr0 O4 1.948346 1_654
Cr0 O2 1.955944 1_654
Cr0 O5 1.979368 1_554
Cr0 O0 2.025603 1_655
O0 Sb0 1.984313 1_655
O1 Sb0 2.022887 1_655
O2 Sb0 1.992832 1_545
O3 Sb0 2.021110 1_645
O4 Sb0 1.993739 1_555
O5 Sb0 1.976587 1_545
