# generated using pymatgen
data_Al(FeO2)3
_symmetry_space_group_name_H-M   'P 1'
_cell_length_a   5.95108543
_cell_length_b   5.95108543
_cell_length_c   14.62563000
_cell_angle_alpha   90.00000000
_cell_angle_beta   90.00000000
_cell_angle_gamma   119.99999368
_symmetry_Int_Tables_number   1
_chemical_formula_structural   Al(FeO2)3
_chemical_formula_sum   'Al4 Fe12 O24'
_cell_volume   448.57762947
_cell_formula_units_Z   4
loop_
 _symmetry_equiv_pos_site_id
 _symmetry_equiv_pos_as_xyz
  1  'x, y, z'
loop_
 _atom_site_type_symbol
 _atom_site_label
 _atom_site_symmetry_multiplicity
 _atom_site_fract_x
 _atom_site_fract_y
 _atom_site_fract_z
 _atom_site_occupancy
  Al  Al0  1  0.33333300  0.66666700  0.45332300  1
  Al  Al1  1  0.00000000  0.00000000  0.12963800  1
  Al  Al2  1  0.00000000  0.00000000  0.87036200  1
  Al  Al3  1  0.66666700  0.33333300  0.54667700  1
  Fe  Fe0  1  0.50000000  0.50000000  0.00000000  1
  Fe  Fe1  1  0.16953000  0.83047000  0.66852500  1
  Fe  Fe2  1  0.83047000  0.16953000  0.33147500  1
  Fe  Fe3  1  0.50000000  0.00000000  0.00000000  1
  Fe  Fe4  1  0.16953000  0.33906100  0.66852500  1
  Fe  Fe5  1  0.83047000  0.66093900  0.33147500  1
  Fe  Fe6  1  0.33333300  0.66666700  0.82746800  1
  Fe  Fe7  1  0.00000000  0.00000000  0.50000000  1
  Fe  Fe8  1  0.66666700  0.33333300  0.17253200  1
  Fe  Fe9  1  0.00000000  0.50000000  0.00000000  1
  Fe  Fe10  1  0.66093900  0.83047000  0.66852500  1
  Fe  Fe11  1  0.33906100  0.16953000  0.33147500  1
  O  O0  1  0.66666700  0.33333300  0.94003500  1
  O  O1  1  0.33333300  0.66666700  0.57734300  1
  O  O2  1  0.00000000  0.00000000  0.25563400  1
  O  O3  1  0.66466500  0.83233200  0.91336800  1
  O  O4  1  0.32372400  0.16186200  0.58228300  1
  O  O5  1  0.96671400  0.48335700  0.25971600  1
  O  O6  1  0.16766800  0.83233200  0.91336800  1
  O  O7  1  0.83813800  0.16186200  0.58228300  1
  O  O8  1  0.51664300  0.48335700  0.25971600  1
  O  O9  1  0.16766800  0.33533500  0.91336800  1
  O  O10  1  0.83813800  0.67627600  0.58228300  1
  O  O11  1  0.51664300  0.03328600  0.25971600  1
  O  O12  1  0.03328600  0.51664300  0.74028400  1
  O  O13  1  0.67627600  0.83813800  0.41771700  1
  O  O14  1  0.33533500  0.16766800  0.08663200  1
  O  O15  1  0.00000000  0.00000000  0.74436600  1
  O  O16  1  0.66666700  0.33333300  0.42265700  1
  O  O17  1  0.33333300  0.66666700  0.05996500  1
  O  O18  1  0.48335700  0.51664300  0.74028400  1
  O  O19  1  0.16186200  0.83813800  0.41771700  1
  O  O20  1  0.83233200  0.16766800  0.08663200  1
  O  O21  1  0.48335700  0.96671400  0.74028400  1
  O  O22  1  0.16186200  0.32372400  0.41771700  1
  O  O23  1  0.83233200  0.66466500  0.08663200  1
loop_
_geom_bond_atom_site_label_1
_geom_bond_atom_site_label_2
_geom_bond_distance
_geom_bond_site_symmetry_2
Al0 O1 1.813871 1_555
Al0 O19 1.842573 1_555
Al0 O13 1.842578 1_555
Al0 O22 1.842578 1_555
Al1 O14 1.839148 1_555
Al1 O23 1.839148 1_445
Al1 O20 1.839153 1_455
Al1 O2 1.842771 1_555
Al2 O9 1.839148 1_555
Al2 O3 1.839148 1_445
Al2 O6 1.839153 1_545
Al2 O15 1.842771 1_555
Al3 O16 1.813871 1_555
Al3 O7 1.842573 1_555
Al3 O4 1.842578 1_555
Al3 O10 1.842578 1_555
Fe0 O17 1.928852 1_555
Fe0 O0 1.928852 1_554
Fe0 O23 2.130509 1_555
Fe0 O14 2.130509 1_555
Fe0 O3 2.130509 1_554
Fe0 O9 2.130509 1_554
Fe1 O21 1.931995 1_555
Fe1 O12 1.931995 1_555
Fe1 O15 2.069767 1_565
Fe1 O4 2.124307 1_565
Fe1 O10 2.124307 1_455
Fe1 O1 2.151560 1_555
Fe2 O5 1.931995 1_555
Fe2 O11 1.931995 1_555
Fe2 O2 2.069767 1_655
Fe2 O13 2.124307 1_545
Fe2 O22 2.124307 1_655
Fe2 O16 2.151560 1_555
Fe3 O17 1.928848 1_545
Fe3 O0 1.928848 1_554
Fe3 O6 2.130509 1_544
Fe3 O20 2.130509 1_555
Fe3 O14 2.130513 1_555
Fe3 O3 2.130513 1_544
Fe4 O12 1.931990 1_555
Fe4 O18 1.931994 1_555
Fe4 O15 2.069772 1_555
Fe4 O7 2.124308 1_455
Fe4 O4 2.124311 1_555
Fe4 O1 2.151560 1_555
Fe5 O5 1.931990 1_555
Fe5 O8 1.931994 1_555
Fe5 O2 2.069772 1_665
Fe5 O19 2.124308 1_655
Fe5 O13 2.124311 1_555
Fe5 O16 2.151560 1_555
Fe6 O21 2.004301 1_555
Fe6 O12 2.004301 1_555
Fe6 O18 2.004305 1_555
Fe6 O6 2.119979 1_555
Fe6 O3 2.119987 1_555
Fe6 O9 2.119987 1_555
Fe7 O19 2.057145 1_545
Fe7 O7 2.057145 1_455
Fe7 O22 2.057146 1_555
Fe7 O10 2.057146 1_445
Fe7 O4 2.057146 1_555
Fe7 O13 2.057146 1_445
Fe8 O5 2.004301 1_555
Fe8 O11 2.004301 1_555
Fe8 O8 2.004305 1_555
Fe8 O20 2.119979 1_555
Fe8 O23 2.119987 1_555
Fe8 O14 2.119987 1_555
Fe9 O17 1.928848 1_555
Fe9 O0 1.928848 1_454
Fe9 O20 2.130509 1_455
Fe9 O6 2.130509 1_554
Fe9 O23 2.130513 1_455
Fe9 O9 2.130513 1_554
Fe10 O21 1.931990 1_555
Fe10 O18 1.931994 1_555
Fe10 O15 2.069772 1_665
Fe10 O7 2.124308 1_565
Fe10 O10 2.124311 1_555
Fe10 O1 2.151560 1_555
Fe11 O11 1.931990 1_555
Fe11 O8 1.931994 1_555
Fe11 O2 2.069772 1_555
Fe11 O19 2.124308 1_545
Fe11 O22 2.124311 1_555
Fe11 O16 2.151560 1_555
