# generated using pymatgen
data_Gd3Si2S8Br
_symmetry_space_group_name_H-M   'P 1'
_cell_length_a   8.74280379
_cell_length_b   8.74280379
_cell_length_c   10.86200827
_cell_angle_alpha   81.53924154
_cell_angle_beta   81.53924154
_cell_angle_gamma   51.46348246
_symmetry_Int_Tables_number   1
_chemical_formula_structural   Gd3Si2S8Br
_chemical_formula_sum   'Gd6 Si4 S16 Br2'
_cell_volume   640.71418566
_cell_formula_units_Z   2
loop_
 _symmetry_equiv_pos_site_id
 _symmetry_equiv_pos_as_xyz
  1  'x, y, z'
loop_
 _atom_site_type_symbol
 _atom_site_label
 _atom_site_symmetry_multiplicity
 _atom_site_fract_x
 _atom_site_fract_y
 _atom_site_fract_z
 _atom_site_occupancy
  Gd  Gd0  1  0.92491600  0.67694800  0.68056400  1
  Gd  Gd1  1  0.32305200  0.07508400  0.81943600  1
  Gd  Gd2  1  0.07508400  0.32305200  0.31943600  1
  Gd  Gd3  1  0.67694800  0.92491600  0.18056400  1
  Gd  Gd4  1  0.62901300  0.37098700  0.75000000  1
  Gd  Gd5  1  0.37098700  0.62901300  0.25000000  1
  Si  Si0  1  0.30596600  0.37941500  0.02397900  1
  Si  Si1  1  0.62058500  0.69403400  0.47602100  1
  Si  Si2  1  0.69403400  0.62058500  0.97602100  1
  Si  Si3  1  0.37941500  0.30596600  0.52397900  1
  S  S0  1  0.10211500  0.61360000  0.14071700  1
  S  S1  1  0.38640000  0.89788500  0.35928300  1
  S  S2  1  0.89788500  0.38640000  0.85928200  1
  S  S3  1  0.61360000  0.10211500  0.64071800  1
  S  S4  1  0.28334500  0.15067100  0.08711600  1
  S  S5  1  0.84932900  0.71665500  0.41288400  1
  S  S6  1  0.71665500  0.84932900  0.91288400  1
  S  S7  1  0.15067100  0.28334500  0.58711600  1
  S  S8  1  0.60021800  0.26623000  0.03514000  1
  S  S9  1  0.73377000  0.39978200  0.46486000  1
  S  S10  1  0.39978200  0.73377000  0.96486000  1
  S  S11  1  0.26623000  0.60021800  0.53514000  1
  S  S12  1  0.25994500  0.45002600  0.83026500  1
  S  S13  1  0.54997400  0.74005500  0.66973500  1
  S  S14  1  0.74005500  0.54997400  0.16973500  1
  S  S15  1  0.45002600  0.25994500  0.33026500  1
  Br  Br0  1  0.98606600  0.01393400  0.25000000  1
  Br  Br1  1  0.01393400  0.98606600  0.75000000  1
loop_
_geom_bond_atom_site_label_1
_geom_bond_atom_site_label_2
_geom_bond_distance
_geom_bond_site_symmetry_2
Gd0 S11 2.877522 1_655
Gd0 S6 2.881371 1_555
Gd0 S12 2.893278 1_655
Gd0 S3 2.946093 1_565
Gd0 S7 2.956862 1_655
Gd0 S13 2.984060 1_555
Gd0 S5 2.998927 1_555
Gd0 S2 3.072270 1_555
Gd1 S10 2.877522 1_545
Gd1 S7 2.881371 1_555
Gd1 S13 2.893278 1_545
Gd1 S2 2.946093 1_455
Gd1 S6 2.956862 1_545
Gd1 S12 2.984060 1_555
Gd1 S4 2.998927 1_556
Gd1 S3 3.072270 1_555
Gd2 S9 2.877522 1_455
Gd2 S4 2.881371 1_555
Gd2 S14 2.893278 1_455
Gd2 S1 2.946094 1_545
Gd2 S5 2.956862 1_455
Gd2 S15 2.984060 1_555
Gd2 S7 2.998927 1_555
Gd2 S0 3.072276 1_555
Gd3 S8 2.877522 1_565
Gd3 S5 2.881371 1_555
Gd3 S15 2.893278 1_565
Gd3 S0 2.946094 1_655
Gd3 S4 2.956862 1_565
Gd3 S14 2.984060 1_555
Gd3 S6 2.998927 1_554
Gd3 S1 3.072276 1_555
Gd4 S3 2.866322 1_555
Gd4 S2 2.866322 1_555
Gd4 S12 2.867111 1_555
Gd4 S13 2.867111 1_555
Gd4 S8 3.117360 1_556
Gd4 S9 3.117360 1_555
Gd4 S11 3.522009 1_555
Gd4 S10 3.522009 1_555
Gd5 S0 2.866328 1_555
Gd5 S1 2.866328 1_555
Gd5 S15 2.867111 1_555
Gd5 S14 2.867111 1_555
Gd5 S11 3.117360 1_555
Gd5 S10 3.117360 1_554
Gd5 S8 3.522009 1_555
Gd5 S9 3.522009 1_555
S0 Si0 2.127999 1_555
S1 Si1 2.127999 1_555
S2 Si2 2.128006 1_555
S3 Si3 2.128006 1_555
S4 Si0 2.134997 1_555
S5 Si1 2.134997 1_555
S6 Si2 2.134997 1_555
S7 Si3 2.134997 1_555
S8 Si0 2.120511 1_555
S9 Si1 2.120511 1_555
S10 Si2 2.120511 1_555
S11 Si3 2.120511 1_555
S12 Si0 2.127844 1_556
S13 Si1 2.127844 1_555
S14 Si2 2.127844 1_554
S15 Si3 2.127844 1_555
Br0 Gd5 2.922135 1_645
Br0 Gd2 3.445529 1_655
Br0 Gd3 3.445529 1_545
Br1 Gd4 2.922135 1_465
Br1 Gd1 3.445529 1_565
Br1 Gd0 3.445529 1_455
