# generated using pymatgen
data_Sr2Ca2Mn(FeO4)3
_symmetry_space_group_name_H-M   'P 1'
_cell_length_a   7.73477500
_cell_length_b   7.75033300
_cell_length_c   7.75048700
_cell_angle_alpha   89.99879502
_cell_angle_beta   90.00000000
_cell_angle_gamma   90.00000000
_symmetry_Int_Tables_number   1
_chemical_formula_structural   Sr2Ca2Mn(FeO4)3
_chemical_formula_sum   'Sr4 Ca4 Mn2 Fe6 O24'
_cell_volume   464.61907919
_cell_formula_units_Z   2
loop_
 _symmetry_equiv_pos_site_id
 _symmetry_equiv_pos_as_xyz
  1  'x, y, z'
loop_
 _atom_site_type_symbol
 _atom_site_label
 _atom_site_symmetry_multiplicity
 _atom_site_fract_x
 _atom_site_fract_y
 _atom_site_fract_z
 _atom_site_occupancy
  Sr  Sr0  1  0.50000000  0.25015700  0.25020100  1
  Sr  Sr1  1  0.50000000  0.74984400  0.25020100  1
  Sr  Sr2  1  0.00000000  0.74981800  0.25019700  1
  Sr  Sr3  1  0.00000000  0.25016400  0.74978800  1
  Ca  Ca0  1  0.50000000  0.25016800  0.74979800  1
  Ca  Ca1  1  0.50000000  0.74983500  0.74980000  1
  Ca  Ca2  1  0.00000000  0.25017100  0.25019600  1
  Ca  Ca3  1  0.00000000  0.74984400  0.74979300  1
  Mn  Mn0  1  0.24998200  0.50000500  0.50064300  1
  Mn  Mn1  1  0.75001800  0.50000500  0.50064300  1
  Fe  Fe0  1  0.24998700  0.00000700  0.99936100  1
  Fe  Fe1  1  0.24999200  0.49999100  0.99933700  1
  Fe  Fe2  1  0.24999200  0.00000700  0.50064700  1
  Fe  Fe3  1  0.75001300  0.00000700  0.99936100  1
  Fe  Fe4  1  0.75000800  0.49999100  0.99933700  1
  Fe  Fe5  1  0.75000800  0.00000700  0.50064700  1
  O  O0  1  0.50000000  0.00000900  0.99747200  1
  O  O1  1  0.50000000  0.49999000  0.99750000  1
  O  O2  1  0.50000000  0.00000600  0.50251600  1
  O  O3  1  0.50000000  0.49998900  0.50255300  1
  O  O4  1  0.00000000  0.99999400  0.99982400  1
  O  O5  1  0.00000000  0.50000700  0.99981900  1
  O  O6  1  0.00000000  0.99999600  0.50016300  1
  O  O7  1  0.00000000  0.50000800  0.50012700  1
  O  O8  1  0.24882000  0.00116800  0.24922800  1
  O  O9  1  0.24879300  0.49880600  0.25240900  1
  O  O10  1  0.25115700  0.99884400  0.75076800  1
  O  O11  1  0.25118200  0.50117600  0.74758100  1
  O  O12  1  0.75118000  0.00116800  0.24922800  1
  O  O13  1  0.75120700  0.49880600  0.25240900  1
  O  O14  1  0.74884300  0.99884400  0.75076800  1
  O  O15  1  0.74881800  0.50117600  0.74758100  1
  O  O16  1  0.25001800  0.24924300  0.99981800  1
  O  O17  1  0.24998000  0.75075200  0.99748700  1
  O  O18  1  0.25000200  0.25243200  0.50018900  1
  O  O19  1  0.24999500  0.74756900  0.50255600  1
  O  O20  1  0.74998200  0.24924300  0.99981800  1
  O  O21  1  0.75002000  0.75075200  0.99748700  1
  O  O22  1  0.74999800  0.25243200  0.50018900  1
  O  O23  1  0.75000500  0.74756900  0.50255600  1
loop_
_geom_bond_atom_site_label_1
_geom_bond_atom_site_label_2
_geom_bond_distance
_geom_bond_site_symmetry_2
Ca0 O3 2.724112 1_555
Ca0 O2 2.726250 1_555
Ca0 O1 2.726668 1_555
Ca0 O0 2.728313 1_555
Ca0 O22 2.735336 1_555
Ca0 O18 2.735336 1_555
Ca0 O11 2.736559 1_555
Ca0 O15 2.736559 1_555
Ca0 O20 2.737456 1_555
Ca0 O16 2.737456 1_555
Ca0 O14 2.738393 1_545
Ca0 O10 2.738393 1_545
Ca1 O23 2.722442 1_555
Ca1 O19 2.722442 1_555
Ca1 O11 2.723648 1_555
Ca1 O15 2.723648 1_555
Ca1 O3 2.724318 1_555
Ca1 O17 2.724894 1_555
Ca1 O21 2.724894 1_555
Ca1 O14 2.725660 1_555
Ca1 O10 2.725660 1_555
Ca1 O2 2.726253 1_565
Ca1 O1 2.726726 1_555
Ca1 O0 2.728442 1_565
Ca2 O9 2.723379 1_555
Ca2 O13 2.723379 1_455
Ca2 O12 2.725502 1_455
Ca2 O8 2.725502 1_555
Ca2 O18 2.737464 1_555
Ca2 O22 2.737464 1_455
Ca2 O7 2.738941 1_555
Ca2 O16 2.739617 1_554
Ca2 O20 2.739617 1_454
Ca2 O6 2.740933 1_545
Ca2 O5 2.741324 1_554
Ca2 O4 2.743222 1_544
Ca3 O19 2.722349 1_555
Ca3 O23 2.722349 1_455
Ca3 O21 2.724713 1_455
Ca3 O17 2.724713 1_555
Ca3 O11 2.736647 1_555
Ca3 O15 2.736647 1_455
Ca3 O7 2.737483 1_555
Ca3 O10 2.738279 1_555
Ca3 O14 2.738279 1_455
Ca3 O6 2.738962 1_555
Ca3 O5 2.739404 1_555
Ca3 O4 2.741205 1_555
Mn0 O11 1.913934 1_555
Mn0 O19 1.918761 1_555
Mn0 O18 1.918776 1_555
Mn0 O9 1.923979 1_555
Mn0 O7 1.933559 1_555
Mn0 O3 1.933890 1_555
Mn1 O15 1.913934 1_555
Mn1 O23 1.918761 1_555
Mn1 O22 1.918776 1_555
Mn1 O13 1.923979 1_555
Mn1 O7 1.933559 1_655
Mn1 O3 1.933890 1_555
Fe0 O10 1.926759 1_545
Fe0 O16 1.931665 1_555
Fe0 O17 1.931864 1_545
Fe0 O4 1.933597 1_545
Fe0 O0 1.933850 1_555
Fe0 O8 1.936633 1_556
Fe1 O5 1.933635 1_555
Fe1 O1 1.933808 1_555
Fe1 O16 1.943384 1_555
Fe1 O17 1.943534 1_555
Fe1 O11 1.951275 1_555
Fe1 O9 1.961474 1_556
Fe2 O6 1.933636 1_545
Fe2 O2 1.933810 1_555
Fe2 O10 1.938601 1_545
Fe2 O8 1.948661 1_555
Fe2 O18 1.956381 1_555
Fe2 O19 1.956534 1_545
Fe3 O14 1.926759 1_545
Fe3 O20 1.931665 1_555
Fe3 O21 1.931864 1_545
Fe3 O4 1.933597 1_645
Fe3 O0 1.933850 1_555
Fe3 O12 1.936633 1_556
Fe4 O5 1.933635 1_655
Fe4 O1 1.933808 1_555
Fe4 O20 1.943384 1_555
Fe4 O21 1.943534 1_555
Fe4 O15 1.951275 1_555
Fe4 O13 1.961474 1_556
Fe5 O6 1.933636 1_645
Fe5 O2 1.933810 1_555
Fe5 O14 1.938601 1_545
Fe5 O12 1.948661 1_555
Fe5 O22 1.956381 1_555
Fe5 O23 1.956534 1_545
O0 Sr0 2.756016 1_556
O0 Sr1 2.756051 1_546
O1 Sr0 2.754087 1_556
O1 Sr1 2.754260 1_556
O2 Sr0 2.753695 1_555
O2 Sr1 2.753813 1_545
O3 Sr0 2.752217 1_555
O3 Sr1 2.752284 1_555
O4 Sr3 2.741284 1_565
O4 Sr2 2.743164 1_556
O5 Sr3 2.739522 1_555
O5 Sr2 2.741250 1_556
O6 Sr3 2.739080 1_565
O6 Sr2 2.741002 1_555
O7 Sr3 2.737442 1_555
O7 Sr2 2.738730 1_555
O8 Sr0 2.738346 1_555
O8 Sr2 2.738411 1_545
O8 Sr1 2.751128 1_545
O9 Sr2 2.736445 1_555
O9 Sr0 2.736681 1_555
O9 Sr1 2.749750 1_555
O10 Sr3 2.750981 1_565
O11 Sr3 2.749471 1_555
O12 Sr0 2.738346 1_555
O12 Sr2 2.738411 1_645
O12 Sr1 2.751128 1_545
O13 Sr2 2.736445 1_655
O13 Sr0 2.736681 1_555
O13 Sr1 2.749750 1_555
O14 Sr3 2.750981 1_665
O15 Sr3 2.749471 1_655
O16 Sr3 2.737707 1_555
O16 Sr0 2.739448 1_556
O17 Sr2 2.752243 1_556
O17 Sr1 2.752481 1_556
O18 Sr3 2.735303 1_555
O18 Sr0 2.737415 1_555
O19 Sr2 2.750434 1_555
O19 Sr1 2.750468 1_555
O20 Sr3 2.737707 1_655
O20 Sr0 2.739448 1_556
O21 Sr2 2.752243 1_656
O21 Sr1 2.752481 1_556
O22 Sr3 2.735303 1_655
O22 Sr0 2.737415 1_555
O23 Sr2 2.750434 1_655
O23 Sr1 2.750468 1_555
