# generated using pymatgen
data_BaFe5Bi4O15
_symmetry_space_group_name_H-M   'P 1'
_cell_length_a   9.92412918
_cell_length_b   9.92412918
_cell_length_c   13.85234460
_cell_angle_alpha   61.65718228
_cell_angle_beta   61.65718228
_cell_angle_gamma   33.08875308
_symmetry_Int_Tables_number   1
_chemical_formula_structural   BaFe5Bi4O15
_chemical_formula_sum   'Ba2 Fe10 Bi8 O30'
_cell_volume   647.06245920
_cell_formula_units_Z   2
loop_
 _symmetry_equiv_pos_site_id
 _symmetry_equiv_pos_as_xyz
  1  'x, y, z'
loop_
 _atom_site_type_symbol
 _atom_site_label
 _atom_site_symmetry_multiplicity
 _atom_site_fract_x
 _atom_site_fract_y
 _atom_site_fract_z
 _atom_site_occupancy
  Ba  Ba0  1  0.37761200  0.39026000  0.15155700  1
  Ba  Ba1  1  0.39026000  0.37761200  0.65155700  1
  Fe  Fe0  1  0.57406500  0.58404900  0.10492900  1
  Fe  Fe1  1  0.38233900  0.38899900  0.89775100  1
  Fe  Fe2  1  0.18390100  0.17824400  0.70720600  1
  Fe  Fe3  1  0.99079100  0.98284200  0.50469100  1
  Fe  Fe4  1  0.78258500  0.78091500  0.30689100  1
  Fe  Fe5  1  0.98284200  0.99079100  0.00469100  1
  Fe  Fe6  1  0.78091500  0.78258500  0.80689100  1
  Fe  Fe7  1  0.58404900  0.57406500  0.60492900  1
  Fe  Fe8  1  0.38899900  0.38233900  0.39775100  1
  Fe  Fe9  1  0.17824400  0.18390100  0.20720600  1
  Bi  Bi0  1  0.20538700  0.19669400  0.95788400  1
  Bi  Bi1  1  0.01688600  0.99363300  0.74945900  1
  Bi  Bi2  1  0.81367000  0.80401300  0.54159900  1
  Bi  Bi3  1  0.59637200  0.61404100  0.34910800  1
  Bi  Bi4  1  0.80401300  0.81367000  0.04159900  1
  Bi  Bi5  1  0.61404100  0.59637200  0.84910800  1
  Bi  Bi6  1  0.19669400  0.20538700  0.45788400  1
  Bi  Bi7  1  0.99363300  0.01688600  0.24945900  1
  O  O0  1  0.74283600  0.60340100  0.45190000  1
  O  O1  1  0.90688800  0.83588900  0.65024300  1
  O  O2  1  0.14440200  0.99963100  0.84877100  1
  O  O3  1  0.33462800  0.20952800  0.05627400  1
  O  O4  1  0.55376700  0.40187100  0.25052700  1
  O  O5  1  0.43708800  0.98848400  0.29049200  1
  O  O6  1  0.66574900  0.16611100  0.47108900  1
  O  O7  1  0.83890400  0.38704300  0.69102000  1
  O  O8  1  0.05135000  0.57136700  0.88609700  1
  O  O9  1  0.23124400  0.81653800  0.08131000  1
  O  O10  1  0.93288700  0.52264000  0.23296700  1
  O  O11  1  0.14798400  0.70570900  0.43971800  1
  O  O12  1  0.32532000  0.92653100  0.63218500  1
  O  O13  1  0.54681400  0.10165300  0.84814000  1
  O  O14  1  0.74645900  0.32798600  0.02219300  1
  O  O15  1  0.10165300  0.54681400  0.34814000  1
  O  O16  1  0.32798600  0.74645900  0.52219300  1
  O  O17  1  0.52264000  0.93288700  0.73296700  1
  O  O18  1  0.70570900  0.14798400  0.93971800  1
  O  O19  1  0.92653100  0.32532000  0.13218500  1
  O  O20  1  0.57136700  0.05135000  0.38609700  1
  O  O21  1  0.81653800  0.23124400  0.58131000  1
  O  O22  1  0.98848400  0.43708800  0.79049200  1
  O  O23  1  0.16611100  0.66574900  0.97108900  1
  O  O24  1  0.38704300  0.83890400  0.19102000  1
  O  O25  1  0.83588900  0.90688800  0.15024300  1
  O  O26  1  0.99963100  0.14440200  0.34877100  1
  O  O27  1  0.20952800  0.33462800  0.55627400  1
  O  O28  1  0.40187100  0.55376700  0.75052700  1
  O  O29  1  0.60340100  0.74283600  0.95190000  1
loop_
_geom_bond_atom_site_label_1
_geom_bond_atom_site_label_2
_geom_bond_distance
_geom_bond_site_symmetry_2
Ba0 O23 2.647026 1_554
Ba0 O15 2.671300 1_555
Ba0 O25 2.672630 1_545
Ba0 O4 2.777080 1_555
Ba0 O14 2.832826 1_555
Ba0 O9 2.844288 1_555
Ba0 O25 3.001158 1_455
Ba0 O3 3.034070 1_555
Ba0 O10 3.072748 1_455
Ba0 O18 3.082646 1_554
Ba0 O5 3.130418 1_545
Ba0 O20 3.206949 1_555
Ba1 O6 2.647026 1_555
Ba1 O13 2.671300 1_555
Ba1 O1 2.672630 1_455
Ba1 O28 2.777080 1_555
Ba1 O16 2.832826 1_555
Ba1 O21 2.844288 1_555
Ba1 O1 3.001158 1_545
Ba1 O27 3.034070 1_555
Ba1 O17 3.072748 1_545
Ba1 O11 3.082646 1_555
Ba1 O22 3.130418 1_455
Ba1 O8 3.206949 1_555
Fe0 O29 2.018072 1_554
Fe0 O4 2.034533 1_555
Fe0 O24 2.039665 1_555
Fe0 O9 2.047475 1_555
Fe0 O19 2.062654 1_555
Fe0 O14 2.077670 1_555
Fe1 O28 1.964675 1_555
Fe1 O23 1.970728 1_555
Fe1 O18 1.986639 1_555
Fe1 O13 2.065091 1_555
Fe1 O8 2.087055 1_555
Fe1 O3 2.220550 1_556
Fe2 O27 1.979946 1_555
Fe2 O17 1.988757 1_545
Fe2 O22 2.008138 1_455
Fe2 O2 2.067656 1_545
Fe2 O7 2.113314 1_455
Fe2 O12 2.120196 1_545
Fe3 O21 1.947368 1_565
Fe3 O16 1.958631 1_655
Fe3 O26 2.002771 1_565
Fe3 O1 2.129378 1_555
Fe3 O11 2.153061 1_655
Fe3 O6 2.172785 1_565
Fe4 O15 1.970042 1_655
Fe4 O20 1.996524 1_565
Fe4 O25 1.998471 1_555
Fe4 O0 2.084747 1_555
Fe4 O10 2.116301 1_555
Fe4 O5 2.124002 1_555
Fe5 O9 1.947368 1_655
Fe5 O14 1.958631 1_565
Fe5 O2 2.002771 1_654
Fe5 O25 2.129378 1_555
Fe5 O18 2.153061 1_564
Fe5 O23 2.172785 1_654
Fe6 O13 1.970042 1_565
Fe6 O8 1.996524 1_655
Fe6 O1 1.998471 1_555
Fe6 O29 2.084747 1_555
Fe6 O17 2.116301 1_555
Fe6 O22 2.124002 1_555
Fe7 O0 2.018072 1_555
Fe7 O28 2.034533 1_555
Fe7 O7 2.039665 1_555
Fe7 O21 2.047475 1_555
Fe7 O12 2.062654 1_555
Fe7 O16 2.077670 1_555
Fe8 O4 1.964675 1_555
Fe8 O6 1.970728 1_555
Fe8 O11 1.986639 1_555
Fe8 O15 2.065091 1_555
Fe8 O20 2.087055 1_555
Fe8 O27 2.220550 1_555
Fe9 O3 1.979946 1_555
Fe9 O10 1.988757 1_455
Fe9 O5 2.008138 1_545
Fe9 O26 2.067656 1_455
Fe9 O24 2.113314 1_545
Fe9 O19 2.120196 1_455
Bi0 O8 2.357862 1_555
Bi0 O3 2.370074 1_556
Bi0 O19 2.404235 1_456
Bi0 O13 2.407705 1_555
Bi0 O29 2.475509 1_545
Bi0 O22 2.565822 1_455
Bi1 O12 2.311288 1_555
Bi1 O2 2.313987 1_555
Bi1 O28 2.387205 1_555
Bi1 O7 2.412376 1_465
Bi1 O21 2.503008 1_465
Bi1 O18 2.647251 1_465
Bi2 O6 2.282903 1_565
Bi2 O11 2.321398 1_655
Bi2 O1 2.342051 1_555
Bi2 O27 2.523596 1_655
Bi2 O20 2.540625 1_565
Bi2 O17 2.600878 1_555
Bi3 O5 2.340451 1_555
Bi3 O16 2.373360 1_555
Bi3 O0 2.390947 1_555
Bi3 O10 2.402552 1_555
Bi3 O24 2.449995 1_555
Bi3 O26 2.546912 1_555
Bi4 O23 2.282903 1_654
Bi4 O18 2.321398 1_564
Bi4 O25 2.342051 1_555
Bi4 O3 2.523596 1_565
Bi4 O8 2.540625 1_654
Bi4 O10 2.600878 1_555
Bi5 O22 2.340451 1_555
Bi5 O14 2.373360 1_556
Bi5 O29 2.390947 1_555
Bi5 O17 2.402552 1_555
Bi5 O7 2.449995 1_555
Bi5 O2 2.546912 1_555
Bi6 O20 2.357862 1_555
Bi6 O27 2.370074 1_555
Bi6 O12 2.404235 1_545
Bi6 O15 2.407705 1_555
Bi6 O0 2.475509 1_455
Bi6 O5 2.565822 1_545
Bi7 O19 2.311288 1_555
Bi7 O26 2.313987 1_555
Bi7 O4 2.387205 1_555
Bi7 O24 2.412376 1_645
Bi7 O9 2.503008 1_645
Bi7 O11 2.647251 1_645
