# generated using pymatgen
data_Ti2ZnO4
_symmetry_space_group_name_H-M   'P 1'
_cell_length_a   6.15080134
_cell_length_b   6.15080134
_cell_length_c   6.15080098
_cell_angle_alpha   57.91968268
_cell_angle_beta   57.91968268
_cell_angle_gamma   57.91967517
_symmetry_Int_Tables_number   1
_chemical_formula_structural   Ti2ZnO4
_chemical_formula_sum   'Ti4 Zn2 O8'
_cell_volume   156.68783436
_cell_formula_units_Z   2
loop_
 _symmetry_equiv_pos_site_id
 _symmetry_equiv_pos_as_xyz
  1  'x, y, z'
loop_
 _atom_site_type_symbol
 _atom_site_label
 _atom_site_symmetry_multiplicity
 _atom_site_fract_x
 _atom_site_fract_y
 _atom_site_fract_z
 _atom_site_occupancy
  Ti  Ti0  1  0.24648800  0.24648800  0.24648800  1
  Ti  Ti1  1  0.61578000  0.13949100  0.61578000  1
  Ti  Ti2  1  0.61578000  0.61578000  0.13949100  1
  Ti  Ti3  1  0.13949100  0.61578000  0.61578000  1
  Zn  Zn0  1  0.99520000  0.99520000  0.99520000  1
  Zn  Zn1  1  0.63136000  0.63136000  0.63136000  1
  O  O0  1  0.86193400  0.37896000  0.37896000  1
  O  O1  1  0.37896000  0.37896000  0.86193400  1
  O  O2  1  0.37896000  0.86193400  0.37896000  1
  O  O3  1  0.36838500  0.36838500  0.36838500  1
  O  O4  1  0.86425200  0.86425200  0.86425200  1
  O  O5  1  0.87596800  0.40148000  0.87596800  1
  O  O6  1  0.87596800  0.87596800  0.40148000  1
  O  O7  1  0.40148000  0.87596800  0.87596800  1
loop_
_geom_bond_atom_site_label_1
_geom_bond_atom_site_label_2
_geom_bond_distance
_geom_bond_site_symmetry_2
O0 Ti0 1.879731 1_655
O0 Ti2 2.081064 1_555
O0 Ti1 2.081065 1_555
O0 Zn1 2.171241 1_555
O1 Ti0 1.879731 1_556
O1 Ti3 2.081064 1_555
O1 Ti1 2.081064 1_555
O1 Zn1 2.171241 1_555
O2 Ti0 1.879731 1_565
O2 Ti2 2.081064 1_555
O2 Ti3 2.081065 1_555
O2 Zn1 2.171241 1_555
O3 Ti0 1.864886 1_555
O3 Ti1 2.126368 1_555
O3 Ti3 2.126368 1_555
O3 Ti2 2.126368 1_555
O4 Zn0 2.003356 1_555
O4 Ti1 2.126474 1_565
O4 Ti3 2.126474 1_655
O4 Ti2 2.126475 1_556
O5 Zn0 1.999587 1_545
O5 Ti2 2.049191 1_556
O5 Ti3 2.049191 1_655
O5 Zn1 2.100377 1_555
O6 Zn0 1.999587 1_554
O6 Ti3 2.049191 1_655
O6 Ti1 2.049191 1_565
O6 Zn1 2.100378 1_555
O7 Zn0 1.999587 1_455
O7 Ti2 2.049191 1_556
O7 Ti1 2.049191 1_565
O7 Zn1 2.100377 1_555
