# generated using pymatgen
data_Na4Co(MoO4)3
_symmetry_space_group_name_H-M   'P 1'
_cell_length_a   9.40094396
_cell_length_b   9.40094396
_cell_length_c   7.28009122
_cell_angle_alpha   74.92796957
_cell_angle_beta   74.92796957
_cell_angle_gamma   94.15565932
_symmetry_Int_Tables_number   1
_chemical_formula_structural   Na4Co(MoO4)3
_chemical_formula_sum   'Na8 Co2 Mo6 O24'
_cell_volume   593.08396238
_cell_formula_units_Z   2
loop_
 _symmetry_equiv_pos_site_id
 _symmetry_equiv_pos_as_xyz
  1  'x, y, z'
loop_
 _atom_site_type_symbol
 _atom_site_label
 _atom_site_symmetry_multiplicity
 _atom_site_fract_x
 _atom_site_fract_y
 _atom_site_fract_z
 _atom_site_occupancy
  Na  Na0  1  0.50985500  0.49014500  0.00000000  1
  Na  Na1  1  0.48943200  0.51056800  0.50000000  1
  Na  Na2  1  0.00105100  0.99780300  0.24971500  1
  Na  Na3  1  0.00219700  0.99894900  0.75028500  1
  Na  Na4  1  0.23439800  0.76560200  0.00000000  1
  Na  Na5  1  0.76456500  0.23543500  0.50000000  1
  Na  Na6  1  0.87048100  0.55602800  0.62591000  1
  Na  Na7  1  0.44397200  0.12951900  0.37409000  1
  Co  Co0  1  0.12033300  0.44830600  0.87505000  1
  Co  Co1  1  0.55169400  0.87966700  0.12495000  1
  Mo  Mo0  1  0.21966700  0.78033300  0.50000000  1
  Mo  Mo1  1  0.78571200  0.21428800  0.00000000  1
  Mo  Mo2  1  0.62126700  0.84072300  0.62911900  1
  Mo  Mo3  1  0.15927700  0.37873300  0.37088100  1
  Mo  Mo4  1  0.37399300  0.15910000  0.87498900  1
  Mo  Mo5  1  0.84090000  0.62600700  0.12501100  1
  O  O0  1  0.24244200  0.65410700  0.72685900  1
  O  O1  1  0.34589300  0.75755800  0.27314100  1
  O  O2  1  0.74065700  0.32016300  0.78704800  1
  O  O3  1  0.67983700  0.25934300  0.21295200  1
  O  O4  1  0.50337300  0.85084800  0.86463600  1
  O  O5  1  0.14915200  0.49662700  0.13536400  1
  O  O6  1  0.50158800  0.16758700  0.64253200  1
  O  O7  1  0.83241300  0.49841200  0.35746800  1
  O  O8  1  0.64335900  0.64777400  0.66547900  1
  O  O9  1  0.35222600  0.35664100  0.33452100  1
  O  O10  1  0.33227500  0.34895500  0.85828600  1
  O  O11  1  0.65104500  0.66772500  0.14171400  1
  O  O12  1  0.54086200  0.89143200  0.42535600  1
  O  O13  1  0.10856800  0.45913800  0.57464400  1
  O  O14  1  0.45837000  0.08898900  0.07163500  1
  O  O15  1  0.91101100  0.54163000  0.92836500  1
  O  O16  1  0.79584100  0.95834600  0.56118400  1
  O  O17  1  0.04165400  0.20415900  0.43881600  1
  O  O18  1  0.20694800  0.03533900  0.92598700  1
  O  O19  1  0.96466100  0.79305200  0.07401300  1
  O  O20  1  0.03906600  0.76540300  0.46961200  1
  O  O21  1  0.23459700  0.96093400  0.53038800  1
  O  O22  1  0.98275100  0.24738400  0.98300200  1
  O  O23  1  0.75261600  0.01724900  0.01699800  1
loop_
_geom_bond_atom_site_label_1
_geom_bond_atom_site_label_2
_geom_bond_distance
_geom_bond_site_symmetry_2
Na0 O9 2.442544 1_555
Na0 O8 2.442544 1_554
Na0 O10 2.626760 1_554
Na0 O11 2.626760 1_555
Na1 O8 2.579394 1_555
Na1 O9 2.579394 1_555
Na1 O10 2.627577 1_555
Na1 O11 2.627577 1_555
Na2 O20 2.460794 1_555
Na2 O16 2.486927 1_455
Na2 O18 2.553738 1_564
Na2 O19 2.621233 1_455
Na2 O22 2.677274 1_464
Na2 O17 2.712782 1_565
Na3 O21 2.460794 1_555
Na3 O17 2.486927 1_565
Na3 O19 2.553738 1_456
Na3 O18 2.621233 1_565
Na3 O23 2.677274 1_466
Na3 O16 2.712782 1_455
Na4 O4 2.450905 1_554
Na4 O5 2.450905 1_555
Na4 O0 2.464891 1_554
Na4 O1 2.464891 1_555
Na4 O18 2.498736 1_564
Na4 O19 2.498736 1_455
Na5 O6 2.385079 1_555
Na5 O7 2.385079 1_555
Na5 O2 2.387321 1_555
Na5 O3 2.387321 1_555
Na5 O16 2.577991 1_545
Na5 O17 2.577991 1_655
Na6 O20 2.264075 1_655
Na6 O7 2.264246 1_555
Na6 O2 2.300601 1_555
Na6 O15 2.302315 1_555
Na6 O8 2.337101 1_555
Na6 O13 2.452859 1_655
Na7 O21 2.264075 1_545
Na7 O6 2.264246 1_555
Na7 O3 2.300601 1_555
Na7 O14 2.302315 1_555
Na7 O9 2.337101 1_555
Na7 O12 2.452859 1_545
Co0 O0 2.042877 1_555
Co0 O22 2.050262 1_455
Co0 O5 2.137310 1_556
Co0 O13 2.194791 1_555
Co0 O15 2.196086 1_455
Co0 O10 2.249365 1_555
Co1 O1 2.042877 1_555
Co1 O23 2.050262 1_565
Co1 O4 2.137310 1_554
Co1 O12 2.194791 1_555
Co1 O14 2.196086 1_565
Co1 O11 2.249365 1_555
Mo0 O21 1.768667 1_555
Mo0 O20 1.768667 1_555
Mo0 O0 1.839318 1_555
Mo0 O1 1.839318 1_555
Mo1 O3 1.781472 1_555
Mo1 O2 1.781472 1_554
Mo1 O23 1.822241 1_555
Mo1 O22 1.822241 1_554
Mo2 O16 1.786386 1_555
Mo2 O8 1.799146 1_555
Mo2 O12 1.807409 1_555
Mo2 O4 1.813590 1_555
Mo3 O17 1.786386 1_555
Mo3 O9 1.799146 1_555
Mo3 O13 1.807409 1_555
Mo3 O5 1.813590 1_555
Mo4 O18 1.779025 1_555
Mo4 O6 1.780255 1_555
Mo4 O14 1.813487 1_556
Mo4 O10 1.835088 1_555
Mo5 O19 1.779025 1_555
Mo5 O7 1.780255 1_555
Mo5 O15 1.813487 1_554
Mo5 O11 1.835088 1_555
