# generated using pymatgen
data_ErScSi
_symmetry_space_group_name_H-M   'P 1'
_cell_length_a   6.12451001
_cell_length_b   8.58094299
_cell_length_c   9.08336939
_cell_angle_alpha   58.05770298
_cell_angle_beta   90.00053155
_cell_angle_gamma   90.00495301
_symmetry_Int_Tables_number   1
_chemical_formula_structural   ErScSi
_chemical_formula_sum   'Er6 Sc6 Si6'
_cell_volume   405.08561624
_cell_formula_units_Z   6
loop_
 _symmetry_equiv_pos_site_id
 _symmetry_equiv_pos_as_xyz
  1  'x, y, z'
loop_
 _atom_site_type_symbol
 _atom_site_label
 _atom_site_symmetry_multiplicity
 _atom_site_fract_x
 _atom_site_fract_y
 _atom_site_fract_z
 _atom_site_occupancy
  Er  Er0  1  0.74997600  0.26638000  0.70803200  1
  Er  Er1  1  0.74994200  0.73373100  0.97483200  1
  Er  Er2  1  0.75003300  0.99946400  0.30499600  1
  Er  Er3  1  0.25001700  0.74581300  0.25358100  1
  Er  Er4  1  0.25001700  0.25445900  0.99936700  1
  Er  Er5  1  0.24996700  0.00016400  0.75220000  1
  Sc  Sc0  1  0.49783600  0.31007500  0.34743500  1
  Sc  Sc1  1  0.49759500  0.68992200  0.65741500  1
  Sc  Sc2  1  0.00233400  0.68993300  0.65749000  1
  Sc  Sc3  1  0.00221700  0.30996200  0.34749700  1
  Sc  Sc4  1  0.75000500  0.63111700  0.36326600  1
  Sc  Sc5  1  0.75001700  0.36840800  0.99483100  1
  Si  Si0  1  0.55352600  0.00033900  0.02273200  1
  Si  Si1  1  0.94647300  0.00033900  0.02270300  1
  Si  Si2  1  0.74993600  0.99991900  0.61555500  1
  Si  Si3  1  0.25001900  0.40536800  0.58278400  1
  Si  Si4  1  0.25007800  0.59471100  0.98832700  1
  Si  Si5  1  0.25001300  0.99989800  0.40695600  1
loop_
_geom_bond_atom_site_label_1
_geom_bond_atom_site_label_2
_geom_bond_distance
_geom_bond_site_symmetry_2
Er0 Si0 2.815124 1_556
Er0 Si1 2.815239 1_556
Er0 Si2 2.822398 1_545
Er0 Sc4 3.038356 1_555
Er0 Sc5 3.156958 1_555
Er0 Si3 3.264560 1_555
Er0 Si3 3.264881 1_655
Er1 Si1 2.814921 1_566
Er1 Si0 2.814946 1_566
Er1 Si2 2.824872 1_555
Er1 Sc5 3.042614 1_555
Er1 Sc4 3.152271 1_556
Er1 Si4 3.264206 1_555
Er1 Si4 3.265960 1_655
Er2 Si2 2.822990 1_555
Er2 Si0 2.828726 1_565
Er2 Si1 2.828809 1_565
Er2 Sc4 2.915540 1_555
Er2 Sc5 2.919314 1_564
Er2 Si5 3.199688 1_655
Er2 Si5 3.199939 1_555
Er2 Sc1 3.270353 1_555
Er2 Sc2 3.270492 1_655
Er2 Sc3 3.274298 1_665
Er2 Sc0 3.275097 1_565
Er3 Si0 2.788513 1_565
Er3 Si1 2.788971 1_465
Er3 Si3 2.869243 1_555
Er3 Si5 3.147797 1_555
Er3 Sc4 3.209533 1_455
Er3 Sc4 3.209538 1_555
Er3 Si4 3.285117 1_554
Er4 Si1 2.786793 1_456
Er4 Si0 2.786810 1_556
Er4 Si4 2.867891 1_555
Er4 Si5 3.149778 1_546
Er4 Sc5 3.208120 1_555
Er4 Sc5 3.208280 1_455
Er4 Si3 3.287931 1_555
Er5 Si3 2.965829 1_555
Er5 Si4 2.967981 1_545
Er5 Si1 3.081588 1_456
Er5 Si0 3.082011 1_556
Er5 Si5 3.137187 1_545
Er5 Si2 3.304489 1_545
Er5 Si2 3.304820 1_445
Sc0 Si5 2.856019 1_545
Sc0 Si2 2.922426 1_545
Sc0 Si3 3.064669 1_555
Sc0 Sc4 3.226992 1_555
Sc0 Si4 3.237048 1_554
Sc0 Sc5 3.346297 1_554
Sc1 Si5 2.854382 1_555
Sc1 Si2 2.921996 1_555
Sc1 Si4 3.066219 1_555
Sc1 Sc5 3.232399 1_555
Sc1 Si3 3.235982 1_555
Sc1 Sc4 3.348143 1_555
Sc2 Si5 2.854635 1_555
Sc2 Si2 2.922101 1_455
Sc2 Si4 3.066353 1_555
Sc2 Sc5 3.231586 1_455
Sc2 Si3 3.236995 1_555
Sc2 Sc4 3.348503 1_455
Sc3 Si5 2.855534 1_545
Sc3 Si2 2.922139 1_445
Sc3 Si3 3.064679 1_555
Sc3 Sc4 3.227918 1_455
Sc3 Si4 3.237731 1_554
Sc3 Sc5 3.346512 1_454
Sc4 Si1 3.268649 1_565
Sc4 Si0 3.268740 1_565
Sc5 Si0 3.261926 1_556
Sc5 Si1 3.262161 1_556
Si0 Si1 2.406608 1_555
