# generated using pymatgen
data_TbInPt4
_symmetry_space_group_name_H-M   'P 1'
_cell_length_a   5.37125463
_cell_length_b   5.37125463
_cell_length_c   5.37125463
_cell_angle_alpha   60.00000000
_cell_angle_beta   60.00000000
_cell_angle_gamma   60.00000000
_symmetry_Int_Tables_number   1
_chemical_formula_structural   TbInPt4
_chemical_formula_sum   'Tb1 In1 Pt4'
_cell_volume   109.57518802
_cell_formula_units_Z   1
loop_
 _symmetry_equiv_pos_site_id
 _symmetry_equiv_pos_as_xyz
  1  'x, y, z'
loop_
 _atom_site_type_symbol
 _atom_site_label
 _atom_site_symmetry_multiplicity
 _atom_site_fract_x
 _atom_site_fract_y
 _atom_site_fract_z
 _atom_site_occupancy
  Tb  Tb0  1  0.75000000  0.75000000  0.75000000  1
  In  In0  1  -0.00000000  -0.00000000  -0.00000000  1
  Pt  Pt0  1  0.37458168  0.37458168  0.37458168  1
  Pt  Pt1  1  0.87625595  0.37458168  0.37458168  1
  Pt  Pt2  1  0.37458168  0.87625595  0.37458168  1
  Pt  Pt3  1  0.37458168  0.37458168  0.87625595  1
loop_
_geom_bond_atom_site_label_1
_geom_bond_atom_site_label_2
_geom_bond_distance
_geom_bond_site_symmetry_2
In0 Pt3 3.148221 1_544
In0 Pt1 3.148221 1_454
In0 Pt2 3.148221 1_544
In0 Pt3 3.148221 1_454
In0 Pt1 3.148221 1_445
In0 Pt2 3.148221 1_445
In0 Pt0 3.148224 1_455
In0 Pt0 3.148224 1_545
In0 Pt0 3.148224 1_554
In0 Pt1 3.148226 1_455
In0 Pt2 3.148226 1_545
In0 Pt3 3.148226 1_554
In0 Tb0 3.289208 1_454
In0 Tb0 3.289208 1_445
In0 Tb0 3.289208 1_444
In0 Tb0 3.289208 1_544
Pt0 Pt1 2.676634 1_455
Pt0 Pt2 2.676634 1_545
Pt0 Pt3 2.676634 1_554
Pt0 Pt2 2.694620 1_555
Pt0 Pt3 2.694620 1_555
Pt0 Pt1 2.694620 1_555
Pt0 Tb0 3.150140 1_554
Pt0 Tb0 3.150140 1_455
Pt0 Tb0 3.150140 1_545
Pt1 Pt3 2.676634 1_654
Pt1 Pt2 2.676634 1_645
Pt1 Pt2 2.694620 1_555
Pt1 Pt3 2.694620 1_555
Pt1 Tb0 3.150138 1_555
Pt1 Tb0 3.150142 1_554
Pt1 Tb0 3.150142 1_545
Pt2 Pt3 2.676634 1_564
Pt2 Pt3 2.694620 1_555
Pt2 Tb0 3.150138 1_555
Pt2 Tb0 3.150142 1_554
Pt2 Tb0 3.150142 1_455
Pt3 Tb0 3.150138 1_555
Pt3 Tb0 3.150142 1_455
Pt3 Tb0 3.150142 1_545
