# generated using pymatgen
data_Zr3Ga5
_symmetry_space_group_name_H-M   'P 1'
_cell_length_a   5.68468778
_cell_length_b   5.68468634
_cell_length_c   9.00047642
_cell_angle_alpha   90.00156012
_cell_angle_beta   90.00158053
_cell_angle_gamma   102.60473414
_symmetry_Int_Tables_number   1
_chemical_formula_structural   Zr3Ga5
_chemical_formula_sum   'Zr6 Ga10'
_cell_volume   283.84639051
_cell_formula_units_Z   2
loop_
 _symmetry_equiv_pos_site_id
 _symmetry_equiv_pos_as_xyz
  1  'x, y, z'
loop_
 _atom_site_type_symbol
 _atom_site_label
 _atom_site_symmetry_multiplicity
 _atom_site_fract_x
 _atom_site_fract_y
 _atom_site_fract_z
 _atom_site_occupancy
  Zr  Zr0  1  0.20446600  0.79553500  0.00000000  1
  Zr  Zr1  1  0.79553400  0.20446600  -0.00000000  1
  Zr  Zr2  1  0.79552515  0.20447485  0.50000000  1
  Zr  Zr3  1  0.20447485  0.79552515  0.50000000  1
  Zr  Zr4  1  0.64048478  0.64048478  0.24995547  1
  Zr  Zr5  1  0.35951522  0.35951522  0.75004453  1
  Ga  Ga0  1  0.49550991  0.08008107  0.24996119  1
  Ga  Ga1  1  0.50449009  0.91991893  0.75003881  1
  Ga  Ga2  1  0.08008107  0.49550891  0.24996119  1
  Ga  Ga3  1  0.91991793  0.50449009  0.75003881  1
  Ga  Ga4  1  0.02089012  0.02089012  0.24993082  1
  Ga  Ga5  1  0.97910988  0.97911088  0.75006918  1
  Ga  Ga6  1  0.31725143  0.31725143  0.05077249  1
  Ga  Ga7  1  0.68274857  0.68274857  0.94922651  1
  Ga  Ga8  1  0.68271983  0.68271983  0.55077506  1
  Ga  Ga9  1  0.31728017  0.31728017  0.44922594  1
loop_
_geom_bond_atom_site_label_1
_geom_bond_atom_site_label_2
_geom_bond_distance
_geom_bond_site_symmetry_2
Ga0 Ga6 2.579737 1_555
Ga0 Ga9 2.580217 1_555
Ga0 Ga4 2.645099 1_555
Ga0 Zr4 2.796944 1_545
Ga0 Zr1 2.818559 1_555
Ga0 Zr2 2.818989 1_555
Ga0 Zr0 3.040865 1_545
Ga0 Zr3 3.041516 1_545
Ga0 Zr4 3.111612 1_555
Ga1 Ga7 2.579730 1_555
Ga1 Ga8 2.580211 1_555
Ga1 Ga5 2.645098 1_555
Ga1 Zr5 2.796944 1_565
Ga1 Zr0 2.818558 1_556
Ga1 Zr3 2.818989 1_555
Ga1 Zr1 3.040867 1_566
Ga1 Zr2 3.041516 1_565
Ga1 Zr5 3.111612 1_555
Ga2 Ga6 2.579734 1_555
Ga2 Ga9 2.580213 1_555
Ga2 Ga4 2.645092 1_555
Ga2 Zr4 2.796948 1_455
Ga2 Zr0 2.818564 1_555
Ga2 Zr3 2.818992 1_555
Ga2 Zr1 3.040865 1_455
Ga2 Zr2 3.041513 1_455
Ga2 Zr4 3.111613 1_555
Ga3 Ga7 2.579728 1_555
Ga3 Ga8 2.580207 1_555
Ga3 Ga5 2.645103 1_555
Ga3 Zr5 2.796950 1_655
Ga3 Zr1 2.818557 1_556
Ga3 Zr2 2.818988 1_555
Ga3 Zr0 3.040872 1_656
Ga3 Zr3 3.041518 1_655
Ga3 Zr5 3.111607 1_555
Ga4 Zr4 2.704017 1_445
Ga4 Ga6 2.766092 1_555
Ga4 Ga9 2.766926 1_555
Ga4 Zr0 2.893766 1_545
Ga4 Zr1 2.893768 1_455
Ga4 Zr3 2.894796 1_545
Ga4 Zr2 2.894796 1_455
Ga5 Zr5 2.704013 1_665
Ga5 Ga7 2.766089 1_555
Ga5 Ga8 2.766923 1_555
Ga5 Zr1 2.893766 1_566
Ga5 Zr0 2.893768 1_656
Ga5 Zr2 2.894793 1_565
Ga5 Zr3 2.894799 1_655
Ga6 Zr5 2.723329 1_554
Ga6 Ga7 2.754156 1_554
Ga6 Zr4 2.914213 1_555
Ga6 Zr0 2.930159 1_545
Ga6 Zr1 2.930165 1_455
Ga6 Zr1 2.961946 1_555
Ga6 Zr0 2.961950 1_555
Ga7 Zr4 2.723338 1_556
Ga7 Zr5 2.914207 1_555
Ga7 Zr1 2.930166 1_566
Ga7 Zr0 2.930167 1_656
Ga7 Zr1 2.961946 1_556
Ga7 Zr0 2.961949 1_556
Ga8 Zr4 2.724100 1_555
Ga8 Ga9 2.753704 1_555
Ga8 Zr5 2.914655 1_555
Ga8 Zr2 2.930405 1_565
Ga8 Zr3 2.930406 1_655
Ga8 Zr2 2.961772 1_555
Ga8 Zr3 2.961772 1_555
Ga9 Zr5 2.724091 1_555
Ga9 Zr4 2.914660 1_555
Ga9 Zr3 2.930403 1_545
Ga9 Zr2 2.930404 1_455
Ga9 Zr3 2.961771 1_555
Ga9 Zr2 2.961771 1_555
