# generated using pymatgen
data_Lu3Tl5
_symmetry_space_group_name_H-M   'P 1'
_cell_length_a   6.42912696
_cell_length_b   6.42912696
_cell_length_c   10.65015200
_cell_angle_alpha   90.00000000
_cell_angle_beta   90.00000000
_cell_angle_gamma   104.75427371
_symmetry_Int_Tables_number   1
_chemical_formula_structural   Lu3Tl5
_chemical_formula_sum   'Lu6 Tl10'
_cell_volume   425.69484032
_cell_formula_units_Z   2
loop_
 _symmetry_equiv_pos_site_id
 _symmetry_equiv_pos_as_xyz
  1  'x, y, z'
loop_
 _atom_site_type_symbol
 _atom_site_label
 _atom_site_symmetry_multiplicity
 _atom_site_fract_x
 _atom_site_fract_y
 _atom_site_fract_z
 _atom_site_occupancy
  Lu  Lu0  1  0.60490100  0.60490100  0.25000000  1
  Lu  Lu1  1  0.39509900  0.39509900  0.75000000  1
  Lu  Lu2  1  0.78903000  0.21097000  0.50000000  1
  Lu  Lu3  1  0.78903000  0.21097000  0.00000000  1
  Lu  Lu4  1  0.21097000  0.78903000  0.50000000  1
  Lu  Lu5  1  0.21097000  0.78903000  0.00000000  1
  Tl  Tl0  1  0.99774900  0.99774900  0.25000000  1
  Tl  Tl1  1  0.00225100  0.00225100  0.75000000  1
  Tl  Tl2  1  0.29601600  0.29601600  0.03853100  1
  Tl  Tl3  1  0.70398400  0.70398400  0.96146900  1
  Tl  Tl4  1  0.29601600  0.29601600  0.46146900  1
  Tl  Tl5  1  0.70398400  0.70398400  0.53853100  1
  Tl  Tl6  1  0.05850800  0.51555900  0.25000000  1
  Tl  Tl7  1  0.48444100  0.94149200  0.75000000  1
  Tl  Tl8  1  0.94149200  0.48444100  0.75000000  1
  Tl  Tl9  1  0.51555900  0.05850800  0.25000000  1
loop_
_geom_bond_atom_site_label_1
_geom_bond_atom_site_label_2
_geom_bond_distance
_geom_bond_site_symmetry_2
Lu0 Tl0 3.083647 1_555
Lu0 Tl6 3.112542 1_655
Lu0 Tl9 3.112542 1_565
Lu0 Tl5 3.169795 1_555
Lu0 Tl3 3.169795 1_554
Lu0 Tl4 3.309214 1_555
Lu0 Tl2 3.309214 1_555
Lu0 Tl9 3.412062 1_555
Lu0 Tl6 3.412062 1_555
Lu1 Tl1 3.083647 1_555
Lu1 Tl8 3.112542 1_455
Lu1 Tl7 3.112542 1_545
Lu1 Tl2 3.169795 1_556
Lu1 Tl4 3.169795 1_555
Lu1 Tl3 3.309214 1_555
Lu1 Tl5 3.309214 1_555
Lu1 Tl7 3.412062 1_555
Lu1 Tl8 3.412062 1_555
Lu2 Tl4 3.191206 1_655
Lu2 Tl5 3.191206 1_545
Lu2 Tl8 3.203639 1_555
Lu2 Tl9 3.203639 1_555
Lu2 Tl5 3.375911 1_555
Lu2 Tl4 3.375911 1_555
Lu2 Tl1 3.421382 1_655
Lu2 Tl0 3.421382 1_545
Lu2 Tl6 3.492471 1_655
Lu2 Tl7 3.492471 1_545
Lu3 Tl2 3.191206 1_655
Lu3 Tl3 3.191206 1_544
Lu3 Tl8 3.203639 1_554
Lu3 Tl9 3.203639 1_555
Lu3 Tl3 3.375911 1_554
Lu3 Tl2 3.375911 1_555
Lu3 Tl1 3.421382 1_654
Lu3 Tl0 3.421382 1_545
Lu3 Tl6 3.492471 1_655
Lu3 Tl7 3.492471 1_544
Lu4 Tl4 3.191206 1_565
Lu4 Tl5 3.191206 1_455
Lu4 Tl7 3.203639 1_555
Lu4 Tl6 3.203639 1_555
Lu4 Tl5 3.375911 1_555
Lu4 Tl4 3.375911 1_555
Lu4 Tl1 3.421382 1_565
Lu4 Tl0 3.421382 1_455
Lu4 Tl9 3.492471 1_565
Lu4 Tl8 3.492471 1_455
Lu5 Tl2 3.191206 1_565
Lu5 Tl3 3.191206 1_454
Lu5 Tl7 3.203639 1_554
Lu5 Tl6 3.203639 1_555
Lu5 Tl3 3.375911 1_554
Lu5 Tl2 3.375911 1_555
Lu5 Tl0 3.421382 1_455
Lu5 Tl1 3.421382 1_564
Lu5 Tl9 3.492471 1_565
Lu5 Tl8 3.492471 1_454
Tl0 Tl6 3.221765 1_655
Tl0 Tl9 3.221765 1_565
Tl0 Tl4 3.248644 1_665
Tl0 Tl2 3.248644 1_665
Tl0 Tl9 3.251600 1_665
Tl0 Tl6 3.251600 1_665
Tl1 Tl7 3.221765 1_545
Tl1 Tl8 3.221765 1_455
Tl1 Tl3 3.248644 1_445
Tl1 Tl5 3.248644 1_445
Tl1 Tl7 3.251600 1_445
Tl1 Tl8 3.251600 1_445
Tl2 Tl9 3.239439 1_555
Tl2 Tl6 3.239439 1_555
Tl2 Tl3 3.305829 1_554
Tl3 Tl7 3.239439 1_555
Tl3 Tl8 3.239439 1_555
Tl4 Tl9 3.239439 1_555
Tl4 Tl6 3.239439 1_555
Tl4 Tl5 3.305829 1_555
Tl5 Tl8 3.239439 1_555
Tl5 Tl7 3.239439 1_555
