# generated using pymatgen
data_SrCa7Ti3Mn5O20
_symmetry_space_group_name_H-M   'P 1'
_cell_length_a   7.93548694
_cell_length_b   7.91531936
_cell_length_c   7.92750598
_cell_angle_alpha   90.95263775
_cell_angle_beta   90.72377267
_cell_angle_gamma   90.23932982
_symmetry_Int_Tables_number   1
_chemical_formula_structural   SrCa7Ti3Mn5O20
_chemical_formula_sum   'Sr1 Ca7 Ti3 Mn5 O20'
_cell_volume   497.82847787
_cell_formula_units_Z   1
loop_
 _symmetry_equiv_pos_site_id
 _symmetry_equiv_pos_as_xyz
  1  'x, y, z'
loop_
 _atom_site_type_symbol
 _atom_site_label
 _atom_site_symmetry_multiplicity
 _atom_site_fract_x
 _atom_site_fract_y
 _atom_site_fract_z
 _atom_site_occupancy
  Sr  Sr0  1  0.23302600  0.25042800  0.25681200  1
  Ca  Ca0  1  0.23221800  0.28378600  0.68675800  1
  Ca  Ca1  1  0.24781800  0.74320300  0.27319500  1
  Ca  Ca2  1  0.23225500  0.69470200  0.77122700  1
  Ca  Ca3  1  0.73641200  0.25711000  0.29266000  1
  Ca  Ca4  1  0.73385300  0.30505200  0.71684100  1
  Ca  Ca5  1  0.73335100  0.75492900  0.29239400  1
  Ca  Ca6  1  0.73275100  0.69965100  0.75851900  1
  Ti  Ti0  1  0.99786000  0.02275500  0.96646400  1
  Ti  Ti1  1  0.98651400  0.98744400  0.53129900  1
  Ti  Ti2  1  0.56190000  0.00665300  0.00331900  1
  Mn  Mn0  1  0.98900000  0.48212000  0.00739400  1
  Mn  Mn1  1  0.98663000  0.51017800  0.48700600  1
  Mn  Mn2  1  0.49738400  0.00467700  0.51901800  1
  Mn  Mn3  1  0.48664100  0.50048800  0.01320900  1
  Mn  Mn4  1  0.48457900  0.51407300  0.49980800  1
  O  O0  1  0.97890200  0.90511200  0.75891400  1
  O  O1  1  0.96864700  0.41841500  0.23814300  1
  O  O2  1  0.99261600  0.54474400  0.76446300  1
  O  O3  1  0.79003600  0.01522400  0.07827400  1
  O  O4  1  0.57016700  0.00803400  0.77645800  1
  O  O5  1  0.46956900  0.51745600  0.75930800  1
  O  O6  1  0.16528000  0.95266900  0.09475900  1
  O  O7  1  0.22505100  0.02980000  0.50770700  1
  O  O8  1  0.23185800  0.54840000  0.04204900  1
  O  O9  1  0.24286000  0.49949600  0.48341100  1
  O  O10  1  0.75722000  0.00203600  0.44328700  1
  O  O11  1  0.74260000  0.49446900  0.98460800  1
  O  O12  1  0.72949300  0.52686800  0.50497500  1
  O  O13  1  0.05630100  0.23341100  0.92260000  1
  O  O14  1  0.96675300  0.23384600  0.55216500  1
  O  O15  1  0.99912500  0.77612700  0.41664900  1
  O  O16  1  0.49068200  0.21275400  0.08885200  1
  O  O17  1  0.50452600  0.26630200  0.48555500  1
  O  O18  1  0.51317500  0.79353600  0.07180600  1
  O  O19  1  0.48294600  0.75405200  0.45009400  1
loop_
_geom_bond_atom_site_label_1
_geom_bond_atom_site_label_2
_geom_bond_distance
_geom_bond_site_symmetry_2
Ca0 O9 2.369558 1_555
Ca0 O14 2.377959 1_455
Ca0 O13 2.385245 1_555
Ca0 O7 2.441671 1_555
Ca0 O5 2.684664 1_555
Ca0 O17 2.704627 1_555
Ca0 O2 2.877722 1_455
Ca1 O6 2.289659 1_555
Ca1 O15 2.303705 1_455
Ca1 O19 2.320340 1_555
Ca1 O8 2.376945 1_555
Ca1 O9 2.570557 1_555
Ca1 O18 2.690869 1_555
Ca1 O7 2.916620 1_565
Ca2 O2 2.237073 1_455
Ca2 O5 2.354959 1_555
Ca2 O8 2.456260 1_556
Ca2 O0 2.617965 1_455
Ca2 O9 2.736634 1_555
Ca3 O1 2.287365 1_555
Ca3 O10 2.368001 1_555
Ca3 O17 2.407956 1_555
Ca3 O16 2.536137 1_555
Ca3 O3 2.579171 1_555
Ca3 O12 2.697947 1_555
Ca3 O14 2.743648 1_555
Ca4 O14 2.341550 1_555
Ca4 O12 2.449874 1_555
Ca4 O11 2.578420 1_555
Ca4 O17 2.580691 1_555
Ca4 O5 2.714174 1_555
Ca4 O4 2.732158 1_555
Ca4 O2 2.807594 1_555
Ca4 O13 3.076853 1_655
Ca5 O10 2.281629 1_565
Ca5 O15 2.320685 1_555
Ca5 O19 2.361019 1_555
Ca5 O18 2.479746 1_555
Ca5 O12 2.490305 1_555
Ca5 O3 2.730638 1_565
Ca6 O2 2.403895 1_555
Ca6 O12 2.412065 1_555
Ca6 O11 2.439360 1_555
Ca6 O5 2.533178 1_555
Ca6 O0 2.536426 1_555
Ca6 O4 2.768110 1_565
Mn0 O1 1.914161 1_555
Mn0 O11 1.964347 1_554
Mn0 O2 1.997098 1_554
Mn0 O8 2.009522 1_655
Mn0 O13 2.141580 1_654
Mn1 O9 2.035959 1_655
Mn1 O12 2.051922 1_555
Mn1 O1 2.093916 1_555
Mn1 O15 2.188822 1_555
Mn1 O2 2.211863 1_555
Mn1 O14 2.261092 1_555
Mn2 O19 2.051225 1_545
Mn2 O17 2.092762 1_555
Mn2 O4 2.113688 1_555
Mn2 O10 2.154906 1_555
Mn2 O7 2.171912 1_555
Mn3 O5 2.022378 1_554
Mn3 O11 2.047284 1_554
Mn3 O8 2.073422 1_555
Mn3 O16 2.364993 1_555
Mn3 O18 2.366039 1_555
Mn4 O9 1.923770 1_555
Mn4 O12 1.945605 1_555
Mn4 O19 1.946432 1_555
Mn4 O17 1.969709 1_555
Mn4 O5 2.061871 1_555
O0 Ti0 1.881104 1_565
O0 Ti1 1.930232 1_555
O1 Sr0 2.492676 1_655
O3 Ti0 1.883319 1_554
O3 Ti2 1.898837 1_555
O4 Ti2 1.800679 1_556
O6 Ti0 1.760117 1_464
O6 Sr0 2.713940 1_565
O7 Ti1 1.932926 1_445
O7 Sr0 2.669733 1_555
O8 Sr0 2.931680 1_555
O9 Sr0 2.645195 1_555
O10 Ti1 1.945072 1_545
O13 Ti0 1.770067 1_455
O13 Sr0 2.982822 1_556
O14 Ti1 1.961709 1_545
O14 Sr0 3.177598 1_655
O15 Ti1 1.893929 1_555
O16 Ti2 1.849618 1_555
O16 Sr0 2.470423 1_555
O17 Sr0 2.799524 1_555
O18 Ti2 1.822136 1_565
