# generated using pymatgen
data_Mg7Ti
_symmetry_space_group_name_H-M   'P 1'
_cell_length_a   6.36111459
_cell_length_b   6.36111459
_cell_length_c   5.04641700
_cell_angle_alpha   90.00000000
_cell_angle_beta   90.00000000
_cell_angle_gamma   120.00000612
_symmetry_Int_Tables_number   1
_chemical_formula_structural   Mg7Ti
_chemical_formula_sum   'Mg7 Ti1'
_cell_volume   176.83986617
_cell_formula_units_Z   1
loop_
 _symmetry_equiv_pos_site_id
 _symmetry_equiv_pos_as_xyz
  1  'x, y, z'
loop_
 _atom_site_type_symbol
 _atom_site_label
 _atom_site_symmetry_multiplicity
 _atom_site_fract_x
 _atom_site_fract_y
 _atom_site_fract_z
 _atom_site_occupancy
  Mg  Mg0  1  0.16803000  0.33606100  0.00000000  1
  Mg  Mg1  1  0.16803000  0.83197000  0.00000000  1
  Mg  Mg2  1  0.66393900  0.83197000  0.00000000  1
  Mg  Mg3  1  0.99165200  0.49582600  0.50000000  1
  Mg  Mg4  1  0.50417400  0.49582600  0.50000000  1
  Mg  Mg5  1  0.50417400  0.00834800  0.50000000  1
  Mg  Mg6  1  0.00000000  0.00000000  0.50000000  1
  Ti  Ti0  1  0.66666700  0.33333300  0.00000000  1
loop_
_geom_bond_atom_site_label_1
_geom_bond_atom_site_label_2
_geom_bond_distance
_geom_bond_site_symmetry_2
Mg0 Mg6 3.129533 1_554
Mg0 Mg6 3.129533 1_555
Mg0 Mg3 3.130246 1_455
Mg0 Mg3 3.130246 1_454
Mg0 Mg4 3.130249 1_554
Mg0 Mg4 3.130249 1_555
Mg0 Mg2 3.154534 1_555
Mg0 Mg1 3.154534 1_555
Mg0 Ti0 3.180586 1_455
Mg0 Ti0 3.180599 1_555
Mg0 Mg2 3.206580 1_445
Mg0 Mg1 3.206581 1_545
Mg1 Mg6 3.129529 1_565
Mg1 Mg6 3.129529 1_564
Mg1 Mg5 3.130249 1_564
Mg1 Mg5 3.130249 1_565
Mg1 Mg3 3.130249 1_455
Mg1 Mg3 3.130249 1_454
Mg1 Mg2 3.154534 1_555
Mg1 Ti0 3.180592 1_565
Mg1 Ti0 3.180592 1_455
Mg1 Mg2 3.206581 1_455
Mg2 Mg6 3.129533 1_664
Mg2 Mg6 3.129533 1_665
Mg2 Mg5 3.130246 1_564
Mg2 Mg5 3.130246 1_565
Mg2 Mg4 3.130249 1_554
Mg2 Mg4 3.130249 1_555
Mg2 Ti0 3.180586 1_565
Mg2 Ti0 3.180599 1_555
Mg3 Ti0 3.093829 1_556
Mg3 Ti0 3.093829 1_555
Mg3 Mg5 3.100903 1_555
Mg3 Mg4 3.100903 1_555
Mg3 Mg6 3.180890 1_665
Mg3 Mg6 3.180890 1_655
Mg3 Mg5 3.260211 1_665
Mg3 Mg4 3.260211 1_655
Mg4 Ti0 3.093832 1_556
Mg4 Ti0 3.093832 1_555
Mg4 Mg5 3.100903 1_555
Mg4 Mg6 3.180889 1_665
Mg4 Mg6 3.180889 1_555
Mg4 Mg5 3.260211 1_565
Mg5 Ti0 3.093829 1_556
Mg5 Ti0 3.093829 1_555
Mg5 Mg6 3.180890 1_555
Mg5 Mg6 3.180890 1_655
