# generated using pymatgen
data_LaMg2
_symmetry_space_group_name_H-M   'P 1'
_cell_length_a   13.79735112
_cell_length_b   13.79735112
_cell_length_c   15.41438792
_cell_angle_alpha   76.61929923
_cell_angle_beta   76.61929923
_cell_angle_gamma   28.10304042
_symmetry_Int_Tables_number   1
_chemical_formula_structural   LaMg2
_chemical_formula_sum   'La16 Mg32'
_cell_volume   1342.36085988
_cell_formula_units_Z   16
loop_
 _symmetry_equiv_pos_site_id
 _symmetry_equiv_pos_as_xyz
  1  'x, y, z'
loop_
 _atom_site_type_symbol
 _atom_site_label
 _atom_site_symmetry_multiplicity
 _atom_site_fract_x
 _atom_site_fract_y
 _atom_site_fract_z
 _atom_site_occupancy
  La  La0_0  1  0.25836750  0.25836750  0.10177450  1
  La  La0_1  1  0.25836750  0.25836750  0.60177450  1
  La  La0_2  1  0.25836750  0.75836750  0.10177450  1
  La  La0_3  1  0.25836750  0.75836750  0.60177450  1
  La  La0_4  1  0.75836750  0.25836750  0.10177450  1
  La  La0_5  1  0.75836750  0.25836750  0.60177450  1
  La  La0_6  1  0.75836750  0.75836750  0.10177450  1
  La  La0_7  1  0.75836750  0.75836750  0.60177450  1
  La  La1_0  1  0.24163250  0.24163250  0.39822550  1
  La  La1_1  1  0.24163250  0.24163250  0.89822550  1
  La  La1_2  1  0.24163250  0.74163250  0.39822550  1
  La  La1_3  1  0.24163250  0.74163250  0.89822550  1
  La  La1_4  1  0.74163250  0.24163250  0.39822550  1
  La  La1_5  1  0.74163250  0.24163250  0.89822550  1
  La  La1_6  1  0.74163250  0.74163250  0.39822550  1
  La  La1_7  1  0.74163250  0.74163250  0.89822550  1
  Mg  Mg0_0  1  0.39829700  0.39829700  0.07156050  1
  Mg  Mg0_1  1  0.39829700  0.39829700  0.57156050  1
  Mg  Mg0_2  1  0.39829700  0.89829700  0.07156050  1
  Mg  Mg0_3  1  0.39829700  0.89829700  0.57156050  1
  Mg  Mg0_4  1  0.89829700  0.39829700  0.07156050  1
  Mg  Mg0_5  1  0.89829700  0.39829700  0.57156050  1
  Mg  Mg0_6  1  0.89829700  0.89829700  0.07156050  1
  Mg  Mg0_7  1  0.89829700  0.89829700  0.57156050  1
  Mg  Mg1_0  1  0.07777600  0.07777600  0.23343150  1
  Mg  Mg1_1  1  0.07777600  0.07777600  0.73343150  1
  Mg  Mg1_2  1  0.07777600  0.57777600  0.23343150  1
  Mg  Mg1_3  1  0.07777600  0.57777600  0.73343150  1
  Mg  Mg1_4  1  0.57777600  0.07777600  0.23343150  1
  Mg  Mg1_5  1  0.57777600  0.07777600  0.73343150  1
  Mg  Mg1_6  1  0.57777600  0.57777600  0.23343150  1
  Mg  Mg1_7  1  0.57777600  0.57777600  0.73343150  1
  Mg  Mg2_0  1  0.42222400  0.42222400  0.26656850  1
  Mg  Mg2_1  1  0.42222400  0.42222400  0.76656850  1
  Mg  Mg2_2  1  0.42222400  0.92222400  0.26656850  1
  Mg  Mg2_3  1  0.42222400  0.92222400  0.76656850  1
  Mg  Mg2_4  1  0.92222400  0.42222400  0.26656850  1
  Mg  Mg2_5  1  0.92222400  0.42222400  0.76656850  1
  Mg  Mg2_6  1  0.92222400  0.92222400  0.26656850  1
  Mg  Mg2_7  1  0.92222400  0.92222400  0.76656850  1
  Mg  Mg3_0  1  0.10170300  0.10170300  0.42843950  1
  Mg  Mg3_1  1  0.10170300  0.10170300  0.92843950  1
  Mg  Mg3_2  1  0.10170300  0.60170300  0.42843950  1
  Mg  Mg3_3  1  0.10170300  0.60170300  0.92843950  1
  Mg  Mg3_4  1  0.60170300  0.10170300  0.42843950  1
  Mg  Mg3_5  1  0.60170300  0.10170300  0.92843950  1
  Mg  Mg3_6  1  0.60170300  0.60170300  0.42843950  1
  Mg  Mg3_7  1  0.60170300  0.60170300  0.92843950  1
loop_
_geom_bond_atom_site_label_1
_geom_bond_atom_site_label_2
_geom_bond_distance
_geom_bond_site_symmetry_2
La0_0 La1_1 3.273490 1_554
La0_0 La0_6 3.349918 1_545
La0_0 La0_6 3.349918 1_455
La0_0 Mg2_2 3.432324 1_545
La0_0 Mg2_4 3.432324 1_455
La0_0 Mg1_2 3.489296 1_555
La0_0 Mg1_4 3.489296 1_555
La0_0 Mg0_2 3.515516 1_545
La0_0 Mg0_4 3.515516 1_455
La0_0 Mg3_3 3.605791 1_554
La0_0 Mg3_5 3.605791 1_554
La0_0 Mg0_0 3.662702 1_555
La0_1 La1_0 3.273490 1_555
La0_1 La0_7 3.349918 1_545
La0_1 La0_7 3.349918 1_455
La0_1 Mg2_3 3.432324 1_545
La0_1 Mg2_5 3.432324 1_455
La0_1 Mg1_5 3.489296 1_555
La0_1 Mg1_3 3.489296 1_555
La0_1 Mg0_3 3.515516 1_545
La0_1 Mg0_5 3.515516 1_455
La0_1 Mg3_2 3.605791 1_555
La0_1 Mg3_4 3.605791 1_555
La0_1 Mg0_1 3.662702 1_555
La0_2 La1_3 3.273490 1_554
La0_2 La0_4 3.349918 1_555
La0_2 La0_4 3.349918 1_465
La0_2 Mg2_0 3.432324 1_555
La0_2 Mg2_6 3.432324 1_455
La0_2 Mg1_6 3.489296 1_555
La0_2 Mg1_0 3.489296 1_565
La0_2 Mg0_6 3.515516 1_455
La0_2 Mg0_0 3.515516 1_555
La0_2 Mg3_7 3.605791 1_554
La0_2 Mg3_1 3.605791 1_564
La0_2 Mg0_2 3.662702 1_555
La0_3 La1_2 3.273490 1_555
La0_3 La0_5 3.349918 1_555
La0_3 La0_5 3.349918 1_465
La0_3 Mg2_7 3.432324 1_455
La0_3 Mg2_1 3.432324 1_555
La0_3 Mg1_7 3.489296 1_555
La0_3 Mg1_1 3.489296 1_565
La0_3 Mg0_1 3.515516 1_555
La0_3 Mg0_7 3.515516 1_455
La0_3 Mg3_6 3.605791 1_555
La0_3 Mg3_0 3.605791 1_565
La0_3 Mg0_3 3.662702 1_555
La0_4 La1_5 3.273490 1_554
La0_4 Mg2_0 3.432324 1_555
La0_4 Mg2_6 3.432324 1_545
La0_4 Mg1_6 3.489296 1_555
La0_4 Mg1_0 3.489296 1_655
La0_4 Mg0_6 3.515516 1_545
La0_4 Mg0_0 3.515516 1_555
La0_4 Mg3_1 3.605791 1_654
La0_4 Mg3_7 3.605791 1_554
La0_4 Mg0_4 3.662702 1_555
La0_5 La1_4 3.273490 1_555
La0_5 Mg2_1 3.432324 1_555
La0_5 Mg2_7 3.432324 1_545
La0_5 Mg1_7 3.489296 1_555
La0_5 Mg1_1 3.489296 1_655
La0_5 Mg0_1 3.515516 1_555
La0_5 Mg0_7 3.515516 1_545
La0_5 Mg3_6 3.605791 1_555
La0_5 Mg3_0 3.605791 1_655
La0_5 Mg0_5 3.662702 1_555
La0_6 La1_7 3.273490 1_554
La0_6 Mg2_4 3.432324 1_555
La0_6 Mg2_2 3.432324 1_555
La0_6 Mg1_4 3.489296 1_565
La0_6 Mg1_2 3.489296 1_655
La0_6 Mg0_2 3.515516 1_555
La0_6 Mg0_4 3.515516 1_555
La0_6 Mg3_3 3.605791 1_654
La0_6 Mg3_5 3.605791 1_564
La0_6 Mg0_6 3.662702 1_555
La0_7 La1_6 3.273490 1_555
La0_7 Mg2_5 3.432324 1_555
La0_7 Mg2_3 3.432324 1_555
La0_7 Mg1_3 3.489296 1_655
La0_7 Mg1_5 3.489296 1_565
La0_7 Mg0_5 3.515516 1_555
La0_7 Mg0_3 3.515516 1_555
La0_7 Mg3_4 3.605791 1_565
La0_7 Mg3_2 3.605791 1_655
La0_7 Mg0_7 3.662702 1_555
La1_0 La1_6 3.349918 1_545
La1_0 La1_6 3.349918 1_455
La1_0 Mg1_2 3.432324 1_555
La1_0 Mg1_4 3.432324 1_555
La1_0 Mg2_4 3.489296 1_455
La1_0 Mg2_2 3.489296 1_545
La1_0 Mg3_4 3.515516 1_555
La1_0 Mg3_2 3.515516 1_555
La1_0 Mg0_5 3.605791 1_455
La1_0 Mg0_3 3.605791 1_545
La1_0 Mg3_0 3.662702 1_555
La1_1 La1_7 3.349918 1_455
La1_1 La1_7 3.349918 1_545
La1_1 Mg1_3 3.432324 1_555
La1_1 Mg1_5 3.432324 1_555
La1_1 Mg2_5 3.489296 1_455
La1_1 Mg2_3 3.489296 1_545
La1_1 Mg3_5 3.515516 1_555
La1_1 Mg3_3 3.515516 1_555
La1_1 Mg0_2 3.605791 1_546
La1_1 Mg0_4 3.605791 1_456
La1_1 Mg3_1 3.662702 1_555
La1_2 La1_4 3.349918 1_465
La1_2 La1_4 3.349918 1_555
La1_2 Mg1_6 3.432324 1_555
La1_2 Mg1_0 3.432324 1_565
La1_2 Mg2_0 3.489296 1_555
La1_2 Mg2_6 3.489296 1_455
La1_2 Mg3_6 3.515516 1_555
La1_2 Mg3_0 3.515516 1_565
La1_2 Mg0_7 3.605791 1_455
La1_2 Mg0_1 3.605791 1_555
La1_2 Mg3_2 3.662702 1_555
La1_3 La1_5 3.349918 1_465
La1_3 La1_5 3.349918 1_555
La1_3 Mg1_7 3.432324 1_555
La1_3 Mg1_1 3.432324 1_565
La1_3 Mg2_7 3.489296 1_455
La1_3 Mg2_1 3.489296 1_555
La1_3 Mg3_7 3.515516 1_555
La1_3 Mg3_1 3.515516 1_565
La1_3 Mg0_6 3.605791 1_456
La1_3 Mg0_0 3.605791 1_556
La1_3 Mg3_3 3.662702 1_555
La1_4 Mg1_6 3.432324 1_555
La1_4 Mg1_0 3.432324 1_655
La1_4 Mg2_0 3.489296 1_555
La1_4 Mg2_6 3.489296 1_545
La1_4 Mg3_6 3.515516 1_555
La1_4 Mg3_0 3.515516 1_655
La1_4 Mg0_1 3.605791 1_555
La1_4 Mg0_7 3.605791 1_545
La1_4 Mg3_4 3.662702 1_555
La1_5 Mg1_7 3.432324 1_555
La1_5 Mg1_1 3.432324 1_655
La1_5 Mg2_7 3.489296 1_545
La1_5 Mg2_1 3.489296 1_555
La1_5 Mg3_1 3.515516 1_655
La1_5 Mg3_7 3.515516 1_555
La1_5 Mg0_6 3.605791 1_546
La1_5 Mg0_0 3.605791 1_556
La1_5 Mg3_5 3.662702 1_555
La1_6 Mg1_2 3.432324 1_655
La1_6 Mg1_4 3.432324 1_565
La1_6 Mg2_4 3.489296 1_555
La1_6 Mg2_2 3.489296 1_555
La1_6 Mg3_2 3.515516 1_655
La1_6 Mg3_4 3.515516 1_565
La1_6 Mg0_3 3.605791 1_555
La1_6 Mg0_5 3.605791 1_555
La1_6 Mg3_6 3.662702 1_555
La1_7 Mg1_5 3.432324 1_565
La1_7 Mg1_3 3.432324 1_655
La1_7 Mg2_5 3.489296 1_555
La1_7 Mg2_3 3.489296 1_555
La1_7 Mg3_5 3.515516 1_565
La1_7 Mg3_3 3.515516 1_655
La1_7 Mg0_2 3.605791 1_556
La1_7 Mg0_4 3.605791 1_556
La1_7 Mg3_7 3.662702 1_555
Mg0_0 Mg1_4 3.216765 1_555
Mg0_0 Mg1_2 3.216765 1_555
Mg0_0 Mg2_0 3.219386 1_555
Mg0_0 Mg3_5 3.246693 1_554
Mg0_0 Mg3_3 3.246693 1_554
Mg0_0 Mg0_6 3.349918 1_545
Mg0_0 Mg0_6 3.349918 1_455
Mg0_1 Mg1_5 3.216765 1_555
Mg0_1 Mg1_3 3.216765 1_555
Mg0_1 Mg2_1 3.219386 1_555
Mg0_1 Mg3_2 3.246693 1_555
Mg0_1 Mg3_4 3.246693 1_555
Mg0_1 Mg0_7 3.349918 1_545
Mg0_1 Mg0_7 3.349918 1_455
Mg0_2 Mg1_0 3.216765 1_565
Mg0_2 Mg1_6 3.216765 1_555
Mg0_2 Mg2_2 3.219386 1_555
Mg0_2 Mg3_1 3.246693 1_564
Mg0_2 Mg3_7 3.246693 1_554
Mg0_2 Mg0_4 3.349918 1_465
Mg0_2 Mg0_4 3.349918 1_555
Mg0_3 Mg1_7 3.216765 1_555
Mg0_3 Mg1_1 3.216765 1_565
Mg0_3 Mg2_3 3.219386 1_555
Mg0_3 Mg3_0 3.246693 1_565
Mg0_3 Mg3_6 3.246693 1_555
Mg0_3 Mg0_5 3.349918 1_465
Mg0_3 Mg0_5 3.349918 1_555
Mg0_4 Mg1_0 3.216765 1_655
Mg0_4 Mg1_6 3.216765 1_555
Mg0_4 Mg2_4 3.219386 1_555
Mg0_4 Mg3_1 3.246693 1_654
Mg0_4 Mg3_7 3.246693 1_554
Mg0_5 Mg1_1 3.216765 1_655
Mg0_5 Mg1_7 3.216765 1_555
Mg0_5 Mg2_5 3.219386 1_555
Mg0_5 Mg3_0 3.246693 1_655
Mg0_5 Mg3_6 3.246693 1_555
Mg0_6 Mg1_4 3.216765 1_565
Mg0_6 Mg1_2 3.216765 1_655
Mg0_6 Mg2_6 3.219386 1_555
Mg0_6 Mg3_3 3.246693 1_654
Mg0_6 Mg3_5 3.246693 1_564
Mg0_7 Mg1_3 3.216765 1_655
Mg0_7 Mg1_5 3.216765 1_565
Mg0_7 Mg2_7 3.219386 1_555
Mg0_7 Mg3_4 3.246693 1_565
Mg0_7 Mg3_2 3.246693 1_655
Mg1_0 Mg2_2 3.174073 1_545
Mg1_0 Mg2_4 3.174073 1_455
Mg1_0 Mg3_0 3.219386 1_555
Mg1_0 Mg1_6 3.349918 1_545
Mg1_0 Mg1_6 3.349918 1_455
Mg1_1 Mg2_5 3.174073 1_455
Mg1_1 Mg2_3 3.174073 1_545
Mg1_1 Mg3_1 3.219386 1_555
Mg1_1 Mg1_7 3.349918 1_545
Mg1_1 Mg1_7 3.349918 1_455
Mg1_2 Mg2_0 3.174073 1_555
Mg1_2 Mg2_6 3.174073 1_455
Mg1_2 Mg3_2 3.219386 1_555
Mg1_2 Mg1_4 3.349918 1_555
Mg1_2 Mg1_4 3.349918 1_465
Mg1_3 Mg2_1 3.174073 1_555
Mg1_3 Mg2_7 3.174073 1_455
Mg1_3 Mg3_3 3.219386 1_555
Mg1_3 Mg1_5 3.349918 1_555
Mg1_3 Mg1_5 3.349918 1_465
Mg1_4 Mg2_0 3.174073 1_555
Mg1_4 Mg2_6 3.174073 1_545
Mg1_4 Mg3_4 3.219386 1_555
Mg1_5 Mg2_1 3.174073 1_555
Mg1_5 Mg2_7 3.174073 1_545
Mg1_5 Mg3_5 3.219386 1_555
Mg1_6 Mg2_2 3.174073 1_555
Mg1_6 Mg2_4 3.174073 1_555
Mg1_6 Mg3_6 3.219386 1_555
Mg1_7 Mg2_3 3.174073 1_555
Mg1_7 Mg2_5 3.174073 1_555
Mg1_7 Mg3_7 3.219386 1_555
Mg2_0 Mg3_4 3.216765 1_555
Mg2_0 Mg3_2 3.216765 1_555
Mg2_0 Mg2_6 3.349918 1_455
Mg2_0 Mg2_6 3.349918 1_545
Mg2_1 Mg3_3 3.216765 1_555
Mg2_1 Mg3_5 3.216765 1_555
Mg2_1 Mg2_7 3.349918 1_455
Mg2_1 Mg2_7 3.349918 1_545
Mg2_2 Mg3_0 3.216765 1_565
Mg2_2 Mg3_6 3.216765 1_555
Mg2_2 Mg2_4 3.349918 1_465
Mg2_2 Mg2_4 3.349918 1_555
Mg2_3 Mg3_7 3.216765 1_555
Mg2_3 Mg3_1 3.216765 1_565
Mg2_3 Mg2_5 3.349918 1_465
Mg2_3 Mg2_5 3.349918 1_555
Mg2_4 Mg3_0 3.216765 1_655
Mg2_4 Mg3_6 3.216765 1_555
Mg2_5 Mg3_1 3.216765 1_655
Mg2_5 Mg3_7 3.216765 1_555
Mg2_6 Mg3_2 3.216765 1_655
Mg2_6 Mg3_4 3.216765 1_565
Mg2_7 Mg3_5 3.216765 1_565
Mg2_7 Mg3_3 3.216765 1_655
Mg3_0 Mg3_6 3.349918 1_455
Mg3_0 Mg3_6 3.349918 1_545
Mg3_1 Mg3_7 3.349918 1_545
Mg3_1 Mg3_7 3.349918 1_455
Mg3_2 Mg3_4 3.349918 1_555
Mg3_2 Mg3_4 3.349918 1_465
Mg3_3 Mg3_5 3.349918 1_555
Mg3_3 Mg3_5 3.349918 1_465
