# generated using pymatgen
data_TmSbO4
_symmetry_space_group_name_H-M   'P 1'
_cell_length_a   5.27649515
_cell_length_b   7.52593740
_cell_length_c   7.41255754
_cell_angle_alpha   81.47662823
_cell_angle_beta   90.32121199
_cell_angle_gamma   91.78179305
_symmetry_Int_Tables_number   1
_chemical_formula_structural   TmSbO4
_chemical_formula_sum   'Tm4 Sb4 O16'
_cell_volume   290.96497246
_cell_formula_units_Z   4
loop_
 _symmetry_equiv_pos_site_id
 _symmetry_equiv_pos_as_xyz
  1  'x, y, z'
loop_
 _atom_site_type_symbol
 _atom_site_label
 _atom_site_symmetry_multiplicity
 _atom_site_fract_x
 _atom_site_fract_y
 _atom_site_fract_z
 _atom_site_occupancy
  Tm  Tm0  1  0.26425198  0.13329263  0.61552109  1
  Tm  Tm1  1  0.73574802  0.86670737  0.38447891  1
  Tm  Tm2  1  0.21564705  0.15462702  0.11144501  1
  Tm  Tm3  1  0.78435295  0.84537298  0.88855499  1
  Sb  Sb0  1  0.23791736  0.66429285  0.19327076  1
  Sb  Sb1  1  0.76208264  0.33570715  0.80672924  1
  Sb  Sb2  1  0.72537894  0.33584086  0.30937811  1
  Sb  Sb3  1  0.27462106  0.66415914  0.69062189  1
  O  O0  1  0.08960949  0.43261281  0.68850487  1
  O  O1  1  0.91039051  0.56738719  0.31149513  1
  O  O2  1  0.60507774  0.32645685  0.56193994  1
  O  O3  1  0.39492226  0.67354315  0.43806006  1
  O  O4  1  0.87770259  0.32997707  0.06285684  1
  O  O5  1  0.12229741  0.67002293  0.93714316  1
  O  O6  1  0.40055058  0.43035014  0.19291740  1
  O  O7  1  0.59944942  0.56964986  0.80708260  1
  O  O8  1  0.03846805  0.88817109  0.17442578  1
  O  O9  1  0.96153195  0.11182891  0.82557422  1
  O  O10  1  0.51121640  0.10946192  0.32278276  1
  O  O11  1  0.48878360  0.89053808  0.67721724  1
  O  O12  1  0.46677635  0.18507052  0.88140025  1
  O  O13  1  0.53322365  0.81492948  0.11859975  1
  O  O14  1  0.99772882  0.17082048  0.38464475  1
  O  O15  1  0.00227118  0.82917952  0.61535525  1
loop_
_geom_bond_atom_site_label_1
_geom_bond_atom_site_label_2
_geom_bond_distance
_geom_bond_site_symmetry_2
O0 Sb3 1.972828 1_555
O0 Sb1 2.008898 1_455
O0 Tm0 2.590804 1_555
O1 Sb2 1.972828 1_555
O1 Sb0 2.008898 1_655
O1 Tm1 2.590804 1_555
O2 Sb2 1.970820 1_555
O2 Sb1 2.000155 1_555
O2 Tm0 2.275853 1_555
O3 Sb3 1.970820 1_555
O3 Sb0 2.000155 1_555
O3 Tm1 2.275853 1_555
O4 Sb1 1.985687 1_554
O4 Sb2 2.007420 1_555
O4 Tm2 2.247035 1_655
O5 Sb0 1.985687 1_556
O5 Sb3 2.007420 1_555
O5 Tm3 2.247035 1_455
O6 Sb0 1.982825 1_555
O6 Sb2 2.016432 1_555
O6 Tm2 2.421054 1_555
O7 Sb1 1.982825 1_555
O7 Sb3 2.016432 1_555
O7 Tm3 2.421054 1_555
O8 Sb0 2.001190 1_555
O8 Tm2 2.173501 1_565
O8 Tm1 2.222407 1_455
O8 Tm3 2.556462 1_454
O9 Sb1 2.001190 1_555
O9 Tm3 2.173501 1_545
O9 Tm0 2.222407 1_655
O9 Tm2 2.556462 1_656
O10 Sb2 2.005201 1_555
O10 Tm1 2.198040 1_545
O10 Tm2 2.202184 1_555
O10 Tm0 2.569142 1_555
O11 Sb3 2.005201 1_555
O11 Tm0 2.198040 1_565
O11 Tm3 2.202184 1_555
O11 Tm1 2.569142 1_555
O12 Sb1 1.932187 1_555
O12 Tm2 2.146336 1_556
O12 Tm0 2.314339 1_555
O13 Sb0 1.932187 1_555
O13 Tm3 2.146336 1_554
O13 Tm1 2.314339 1_555
O14 Sb2 1.953303 1_555
O14 Tm0 2.200169 1_655
O14 Tm2 2.355004 1_655
O14 Tm1 2.636901 1_545
O15 Sb3 1.953303 1_555
O15 Tm1 2.200169 1_455
O15 Tm3 2.355004 1_455
O15 Tm0 2.636901 1_565
