# generated using pymatgen
data_Sr10Mg4Fe(MoO6)5
_symmetry_space_group_name_H-M   'P 1'
_cell_length_a   8.04065800
_cell_length_b   9.78796112
_cell_length_c   9.78796112
_cell_angle_alpha   80.28721849
_cell_angle_beta   114.25147564
_cell_angle_gamma   114.25147564
_symmetry_Int_Tables_number   1
_chemical_formula_structural   Sr10Mg4Fe(MoO6)5
_chemical_formula_sum   'Sr10 Mg4 Fe1 Mo5 O30'
_cell_volume   640.36708503
_cell_formula_units_Z   1
loop_
 _symmetry_equiv_pos_site_id
 _symmetry_equiv_pos_as_xyz
  1  'x, y, z'
loop_
 _atom_site_type_symbol
 _atom_site_label
 _atom_site_symmetry_multiplicity
 _atom_site_fract_x
 _atom_site_fract_y
 _atom_site_fract_z
 _atom_site_occupancy
  Sr  Sr0  1  0.45000000  0.10000000  0.30000000  1
  Sr  Sr1  1  0.25139800  0.50010800  0.50032600  1
  Sr  Sr2  1  0.04871000  0.89967400  0.70010800  1
  Sr  Sr3  1  0.84892900  0.30032600  0.89989200  1
  Sr  Sr4  1  0.65096300  0.69989200  0.09967400  1
  Sr  Sr5  1  0.35129000  0.30032600  0.89989200  1
  Sr  Sr6  1  0.14860200  0.69989200  0.09967400  1
  Sr  Sr7  1  0.95000000  0.10000000  0.30000000  1
  Sr  Sr8  1  0.74903700  0.50010800  0.50032600  1
  Sr  Sr9  1  0.55107100  0.89967400  0.70010800  1
  Mg  Mg0  1  0.99949400  0.99963100  0.99935700  1
  Mg  Mg1  1  0.80013700  0.40064300  0.19963100  1
  Mg  Mg2  1  0.59986300  0.79935700  0.40036900  1
  Mg  Mg3  1  0.40050600  0.20036900  0.60064300  1
  Fe  Fe0  1  0.20000000  0.60000000  0.80000000  1
  Mo  Mo0  1  0.50098400  0.00097900  0.00098800  1
  Mo  Mo1  1  0.29999600  0.39901200  0.20097900  1
  Mo  Mo2  1  0.10000400  0.80098800  0.39902100  1
  Mo  Mo3  1  0.89901600  0.19902100  0.59901200  1
  Mo  Mo4  1  0.70000000  0.60000000  0.80000000  1
  O  O0  1  0.54226500  0.39976800  0.20027700  1
  O  O1  1  0.34222000  0.80023200  0.39972300  1
  O  O2  1  0.14198700  0.19972300  0.59976800  1
  O  O3  1  0.94885600  0.60000000  0.80000000  1
  O  O4  1  0.74249700  0.00027700  0.00023200  1
  O  O5  1  0.25801300  0.00027700  0.00023200  1
  O  O6  1  0.05778000  0.39976800  0.20027700  1
  O  O7  1  0.85773500  0.80023200  0.39972300  1
  O  O8  1  0.65750300  0.19972300  0.59976800  1
  O  O9  1  0.45114400  0.60000000  0.80000000  1
  O  O10  1  0.85242400  0.78362600  0.92122300  1
  O  O11  1  0.65144000  0.18203800  0.12084300  1
  O  O12  1  0.45045300  0.58178200  0.31912500  1
  O  O13  1  0.25099900  0.98164800  0.52035100  1
  O  O14  1  0.05288800  0.38422100  0.72155500  1
  O  O15  1  0.54757600  0.41637400  0.67877700  1
  O  O16  1  0.34711200  0.81577900  0.87844500  1
  O  O17  1  0.14900100  0.21835200  0.07964900  1
  O  O18  1  0.94954700  0.61821800  0.28087500  1
  O  O19  1  0.74856000  0.01796200  0.47915700  1
  O  O20  1  0.66879900  0.72122300  0.61637400  1
  O  O21  1  0.46867200  0.11912500  0.81821800  1
  O  O22  1  0.26866700  0.52155500  0.01577900  1
  O  O23  1  0.06940300  0.92084300  0.21796200  1
  O  O24  1  0.86935100  0.32035100  0.41835200  1
  O  O25  1  0.73120100  0.47877700  0.98362600  1
  O  O26  1  0.53064900  0.87964900  0.18164800  1
  O  O27  1  0.33059700  0.27915700  0.38203800  1
  O  O28  1  0.13133300  0.67844500  0.58422100  1
  O  O29  1  0.93132800  0.08087500  0.78178200  1
loop_
_geom_bond_atom_site_label_1
_geom_bond_atom_site_label_2
_geom_bond_distance
_geom_bond_site_symmetry_2
Mg0 O10 2.049905 1_555
Mg0 O4 2.072563 1_566
Mg0 O5 2.072571 1_666
Mg0 O29 2.072631 1_565
Mg0 O23 2.073711 1_656
Mg0 O17 2.079272 1_666
Mg1 O25 2.049905 1_554
Mg1 O0 2.072563 1_555
Mg1 O6 2.072563 1_655
Mg1 O18 2.072631 1_555
Mg1 O11 2.073711 1_555
Mg1 O24 2.079272 1_555
Mg2 O20 2.049905 1_555
Mg2 O7 2.072563 1_555
Mg2 O1 2.072563 1_555
Mg2 O12 2.072631 1_555
Mg2 O19 2.073711 1_565
Mg2 O26 2.079272 1_555
Mg3 O15 2.049905 1_555
Mg3 O8 2.072563 1_555
Mg3 O2 2.072571 1_555
Mg3 O21 2.072631 1_555
Mg3 O27 2.073711 1_555
Mg3 O13 2.079272 1_545
Fe0 O9 2.019363 1_555
Fe0 O3 2.019363 1_455
Fe0 O22 2.048955 1_556
Fe0 O28 2.048955 1_555
Fe0 O16 2.048955 1_555
Fe0 O14 2.048955 1_555
Mo0 O11 1.937753 1_555
Mo0 O26 1.942093 1_545
Mo0 O21 1.942182 1_554
Mo0 O5 1.947807 1_555
Mo0 O4 1.947807 1_555
Mo0 O16 1.981809 1_544
Mo1 O27 1.937753 1_555
Mo1 O17 1.942093 1_555
Mo1 O12 1.942182 1_555
Mo1 O0 1.947807 1_555
Mo1 O6 1.947815 1_555
Mo1 O22 1.981809 1_555
Mo2 O23 1.937753 1_555
Mo2 O13 1.942093 1_555
Mo2 O18 1.942182 1_455
Mo2 O7 1.947807 1_455
Mo2 O1 1.947815 1_555
Mo2 O28 1.981809 1_555
Mo3 O19 1.937753 1_555
Mo3 O24 1.942093 1_555
Mo3 O29 1.942182 1_555
Mo3 O2 1.947807 1_655
Mo3 O8 1.947807 1_555
Mo3 O14 1.981809 1_655
Mo4 O20 1.963596 1_555
Mo4 O25 1.963596 1_555
Mo4 O10 1.963596 1_555
Mo4 O15 1.963596 1_555
Mo4 O3 2.000966 1_555
Mo4 O9 2.000966 1_555
O0 Sr0 2.820021 1_555
O0 Sr8 2.823947 1_555
O0 Sr5 2.824681 1_554
O0 Sr4 2.825745 1_555
O1 Sr0 2.820021 1_565
O1 Sr6 2.823947 1_555
O1 Sr9 2.824681 1_555
O1 Sr1 2.825746 1_555
O2 Sr7 2.820021 1_455
O2 Sr2 2.823947 1_545
O2 Sr1 2.824681 1_555
O2 Sr5 2.825746 1_555
O3 Sr8 2.819011 1_555
O3 Sr3 2.819011 1_555
O3 Sr2 2.819011 1_655
O3 Sr6 2.819011 1_656
O4 Sr7 2.820021 1_555
O4 Sr3 2.823947 1_554
O4 Sr4 2.824681 1_545
O4 Sr9 2.825745 1_544
O5 Sr0 2.820021 1_555
O5 Sr5 2.823947 1_554
O5 Sr6 2.824681 1_545
O5 Sr2 2.825746 1_544
O6 Sr7 2.820021 1_455
O6 Sr1 2.823947 1_555
O6 Sr3 2.824681 1_454
O6 Sr6 2.825746 1_555
O7 Sr7 2.820021 1_565
O7 Sr4 2.823947 1_555
O7 Sr2 2.824681 1_655
O7 Sr8 2.825745 1_555
O8 Sr0 2.820021 1_555
O8 Sr9 2.823947 1_545
O8 Sr8 2.824681 1_555
O8 Sr3 2.825745 1_555
O9 Sr4 2.819011 1_556
O9 Sr9 2.819011 1_555
O9 Sr5 2.819011 1_555
O9 Sr1 2.819011 1_555
O10 Sr6 2.664064 1_656
O10 Sr4 2.664064 1_556
O10 Sr9 2.994834 1_555
O10 Sr2 2.994834 1_655
O11 Sr0 2.670769 1_555
O11 Sr7 2.670775 1_555
O11 Sr5 3.000838 1_554
O11 Sr3 3.000849 1_554
O12 Sr1 2.673731 1_555
O12 Sr8 2.673743 1_555
O12 Sr6 3.004234 1_555
O12 Sr4 3.004234 1_555
O13 Sr9 2.680968 1_555
O13 Sr2 2.680968 1_555
O13 Sr7 3.003870 1_465
O13 Sr0 3.003875 1_565
O14 Sr3 2.678144 1_455
O14 Sr5 2.678150 1_555
O14 Sr8 3.007720 1_455
O14 Sr1 3.007725 1_555
O15 Sr1 2.664064 1_555
O15 Sr8 2.664064 1_555
O15 Sr3 2.994834 1_555
O15 Sr5 2.994834 1_555
O16 Sr9 2.678144 1_555
O16 Sr2 2.678150 1_555
O16 Sr4 3.007720 1_556
O16 Sr6 3.007725 1_556
O17 Sr3 2.680968 1_454
O17 Sr5 2.680968 1_554
O17 Sr0 3.003870 1_555
O17 Sr7 3.003875 1_455
O18 Sr6 2.673731 1_655
O18 Sr4 2.673743 1_555
O18 Sr1 3.004234 1_655
O18 Sr8 3.004234 1_555
O19 Sr7 2.670769 1_555
O19 Sr0 2.670775 1_555
O19 Sr2 3.000838 1_645
O19 Sr9 3.000849 1_545
O20 Sr2 2.664058 1_655
O20 Sr9 2.664070 1_555
O20 Sr1 2.994834 1_555
O20 Sr8 2.994834 1_555
O21 Sr3 2.673737 1_555
O21 Sr5 2.673737 1_555
O21 Sr9 3.004229 1_545
O21 Sr2 3.004239 1_545
O22 Sr4 2.678143 1_555
O22 Sr6 2.678150 1_555
O22 Sr3 3.007720 1_454
O22 Sr5 3.007725 1_554
O23 Sr0 2.670769 1_565
O23 Sr7 2.670775 1_465
O23 Sr6 3.000838 1_555
O23 Sr4 3.000849 1_455
O24 Sr8 2.680962 1_555
O24 Sr1 2.680974 1_655
O24 Sr0 3.003870 1_555
O24 Sr7 3.003875 1_555
O25 Sr5 2.664058 1_555
O25 Sr3 2.664070 1_555
O25 Sr6 2.994834 1_656
O25 Sr4 2.994834 1_556
O26 Sr4 2.680962 1_555
O26 Sr6 2.680974 1_555
O26 Sr7 3.003870 1_565
O26 Sr0 3.003875 1_565
O27 Sr7 2.670769 1_455
O27 Sr0 2.670775 1_555
O27 Sr1 3.000838 1_555
O27 Sr8 3.000849 1_555
O28 Sr8 2.678143 1_455
O28 Sr1 2.678150 1_555
O28 Sr9 3.007720 1_555
O28 Sr2 3.007725 1_555
O29 Sr9 2.673737 1_545
O29 Sr2 2.673737 1_645
O29 Sr3 3.004229 1_555
O29 Sr5 3.004239 1_655
