# generated using pymatgen
data_ErVO4
_symmetry_space_group_name_H-M   'P 1'
_cell_length_a   5.89355492
_cell_length_b   5.89355653
_cell_length_c   5.89355539
_cell_angle_alpha   106.34501572
_cell_angle_beta   106.34501355
_cell_angle_gamma   115.92273232
_symmetry_Int_Tables_number   1
_chemical_formula_structural   ErVO4
_chemical_formula_sum   'Er2 V2 O8'
_cell_volume   156.06835595
_cell_formula_units_Z   2
loop_
 _symmetry_equiv_pos_site_id
 _symmetry_equiv_pos_as_xyz
  1  'x, y, z'
loop_
 _atom_site_type_symbol
 _atom_site_label
 _atom_site_symmetry_multiplicity
 _atom_site_fract_x
 _atom_site_fract_y
 _atom_site_fract_z
 _atom_site_occupancy
  Er  Er0  1  0.12500000  0.87500000  0.25000000  1
  Er  Er1  1  0.87500000  0.12500000  0.75000000  1
  V  V0  1  0.37500000  0.62500000  0.75000000  1
  V  V1  1  0.62500000  0.37500000  0.25000000  1
  O  O0  1  0.80093844  0.36468026  0.06374182  1
  O  O1  1  0.73719662  0.80093844  0.93625818  1
  O  O2  1  0.36468026  0.80093844  0.56374182  1
  O  O3  1  0.80093844  0.73719662  0.43625818  1
  O  O4  1  0.26280338  0.19906156  0.06374182  1
  O  O5  1  0.19906156  0.63531974  0.93625818  1
  O  O6  1  0.19906156  0.26280338  0.56374182  1
  O  O7  1  0.63531974  0.19906156  0.43625818  1
loop_
_geom_bond_atom_site_label_1
_geom_bond_atom_site_label_2
_geom_bond_distance
_geom_bond_site_symmetry_2
Er0 O1 2.264534 1_454
Er0 O2 2.264534 1_555
Er0 O5 2.264534 1_554
Er0 O6 2.264535 1_565
Er0 O7 2.416161 1_565
Er0 O3 2.416161 1_455
Er0 O4 2.416161 1_565
Er0 O0 2.416161 1_455
Er1 O4 2.264534 1_656
Er1 O7 2.264534 1_555
Er1 O0 2.264534 1_556
Er1 O3 2.264535 1_545
Er1 O2 2.416161 1_545
Er1 O6 2.416161 1_655
Er1 O1 2.416161 1_545
Er1 O5 2.416161 1_655
O0 V1 1.715246 1_555
O1 V0 1.715245 1_555
O2 V0 1.715246 1_555
O3 V1 1.715246 1_555
O4 V1 1.715245 1_555
O5 V0 1.715246 1_555
O6 V0 1.715246 1_555
O7 V1 1.715246 1_555
