# generated using pymatgen
data_Li9Mn2Co5O16
_symmetry_space_group_name_H-M   'P 1'
_cell_length_a   5.01414400
_cell_length_b   5.13719928
_cell_length_c   11.47149547
_cell_angle_alpha   80.53064755
_cell_angle_beta   84.97215185
_cell_angle_gamma   80.39544465
_symmetry_Int_Tables_number   1
_chemical_formula_structural   Li9Mn2Co5O16
_chemical_formula_sum   'Li9 Mn2 Co5 O16'
_cell_volume   286.82747721
_cell_formula_units_Z   1
loop_
 _symmetry_equiv_pos_site_id
 _symmetry_equiv_pos_as_xyz
  1  'x, y, z'
loop_
 _atom_site_type_symbol
 _atom_site_label
 _atom_site_symmetry_multiplicity
 _atom_site_fract_x
 _atom_site_fract_y
 _atom_site_fract_z
 _atom_site_occupancy
  Li  Li0  1  0.75111400  0.18807800  0.80777300  1
  Li  Li1  1  0.26225300  0.06110200  0.93433300  1
  Li  Li2  1  0.24812800  0.31065900  0.67745500  1
  Li  Li3  1  0.73909800  0.43931100  0.55565400  1
  Li  Li4  1  0.26090200  0.56068900  0.44434600  1
  Li  Li5  1  0.75187200  0.68934100  0.32254500  1
  Li  Li6  1  0.24888600  0.81192200  0.19222700  1
  Li  Li7  1  0.73774700  0.93889800  0.06566700  1
  Li  Li8  1  0.50000000  0.00000000  0.50000000  1
  Mn  Mn0  1  0.00164700  0.62670300  0.87539800  1
  Mn  Mn1  1  0.99835300  0.37329700  0.12460200  1
  Co  Co0  1  0.50000000  0.50000000  0.00000000  1
  Co  Co1  1  0.49197700  0.23671700  0.25851300  1
  Co  Co2  1  0.98698100  0.12743800  0.38286700  1
  Co  Co3  1  0.01301900  0.87256200  0.61713300  1
  Co  Co4  1  0.50802300  0.76328300  0.74148700  1
  O  O0  1  0.12108500  0.94037500  0.78935600  1
  O  O1  1  0.64110200  0.81090200  0.91115500  1
  O  O2  1  0.62783900  0.06935800  0.66524300  1
  O  O3  1  0.10618300  0.20758200  0.53124300  1
  O  O4  1  0.63511100  0.34136100  0.39687500  1
  O  O5  1  0.11874300  0.45971600  0.26564200  1
  O  O6  1  0.63391400  0.56431000  0.14571600  1
  O  O7  1  0.13266300  0.68854500  0.02641300  1
  O  O8  1  0.36608600  0.43569000  0.85428400  1
  O  O9  1  0.86733700  0.31145500  0.97358700  1
  O  O10  1  0.88125700  0.54028400  0.73435800  1
  O  O11  1  0.36488900  0.65863900  0.60312500  1
  O  O12  1  0.89381700  0.79241800  0.46875700  1
  O  O13  1  0.37216100  0.93064200  0.33475700  1
  O  O14  1  0.87891500  0.05962500  0.21064400  1
  O  O15  1  0.35889800  0.18909800  0.08884500  1
loop_
_geom_bond_atom_site_label_1
_geom_bond_atom_site_label_2
_geom_bond_distance
_geom_bond_site_symmetry_2
Li0 O2 2.014553 1_555
Li0 O10 2.050640 1_555
Li0 O0 2.082615 1_645
Li0 O8 2.202997 1_555
Li0 O1 2.225093 1_545
Li0 O9 2.252483 1_555
Li1 O0 2.084181 1_545
Li1 O15 2.109327 1_556
Li1 O8 2.118122 1_555
Li1 O1 2.130827 1_545
Li1 O7 2.197833 1_546
Li1 O9 2.227635 1_455
Li2 O11 2.006408 1_555
Li2 O3 2.056075 1_555
Li2 O2 2.098576 1_555
Li2 O10 2.126107 1_455
Li2 O0 2.264864 1_545
Li2 O8 2.375489 1_555
Li3 O3 2.042451 1_655
Li3 O4 2.097205 1_555
Li3 O11 2.098580 1_555
Li3 O12 2.150608 1_555
Li3 O2 2.224487 1_555
Li3 O10 2.389366 1_555
Li4 O12 2.042451 1_455
Li4 O11 2.097205 1_555
Li4 O4 2.098580 1_555
Li4 O3 2.150608 1_555
Li4 O13 2.224487 1_555
Li4 O5 2.389366 1_555
Li5 O4 2.006408 1_555
Li5 O12 2.056075 1_555
Li5 O13 2.098576 1_555
Li5 O5 2.126107 1_655
Li5 O14 2.264864 1_565
Li5 O6 2.375489 1_555
Li6 O13 2.014553 1_555
Li6 O5 2.050640 1_555
Li6 O14 2.082615 1_465
Li6 O6 2.202997 1_555
Li6 O15 2.225093 1_565
Li6 O7 2.252483 1_555
Li7 O14 2.084181 1_565
Li7 O1 2.109327 1_554
Li7 O6 2.118122 1_555
Li7 O15 2.130827 1_565
Li7 O9 2.197833 1_564
Li7 O7 2.227635 1_655
Li8 O3 2.112803 1_555
Li8 O12 2.112803 1_545
Li8 O11 2.122981 1_545
Li8 O4 2.122981 1_555
Li8 O13 2.154648 1_545
Li8 O2 2.154648 1_555
Mn0 O0 1.903828 1_555
Mn0 O10 1.917337 1_455
Mn0 O1 1.938761 1_455
Mn0 O8 1.939854 1_555
Mn0 O9 1.993934 1_455
Mn0 O7 1.995946 1_556
Mn1 O14 1.903828 1_555
Mn1 O5 1.917337 1_655
Mn1 O15 1.938761 1_655
Mn1 O6 1.939854 1_555
Mn1 O7 1.993934 1_655
Mn1 O9 1.995946 1_554
Co0 O1 1.950721 1_554
Co0 O15 1.950721 1_555
Co0 O8 1.951067 1_554
Co0 O6 1.951067 1_555
Co0 O7 1.955998 1_555
Co0 O9 1.955998 1_554
Co1 O13 1.835446 1_545
Co1 O4 1.983055 1_555
Co1 O5 2.027307 1_555
Co1 O14 2.069317 1_555
Co1 O6 2.129493 1_555
Co1 O15 2.175349 1_555
Co2 O4 1.925564 1_555
Co2 O12 1.944405 1_545
Co2 O3 1.978609 1_655
Co2 O13 2.098088 1_645
Co2 O5 2.150328 1_655
Co2 O14 2.189813 1_555
Co3 O11 1.925564 1_555
Co3 O3 1.944405 1_565
Co3 O12 1.978609 1_455
Co3 O2 2.098088 1_465
Co3 O10 2.150328 1_455
Co3 O0 2.189813 1_555
Co4 O2 1.835446 1_565
Co4 O11 1.983055 1_555
Co4 O10 2.027307 1_555
Co4 O0 2.069317 1_555
Co4 O8 2.129493 1_555
Co4 O1 2.175349 1_555
