# generated using pymatgen
data_Li3GaSiO5
_symmetry_space_group_name_H-M   'P 1'
_cell_length_a   4.90551600
_cell_length_b   5.43322100
_cell_length_c   15.74239000
_cell_angle_alpha   90.00000000
_cell_angle_beta   90.00000000
_cell_angle_gamma   90.00000000
_symmetry_Int_Tables_number   1
_chemical_formula_structural   Li3GaSiO5
_chemical_formula_sum   'Li12 Ga4 Si4 O20'
_cell_volume   419.57802517
_cell_formula_units_Z   4
loop_
 _symmetry_equiv_pos_site_id
 _symmetry_equiv_pos_as_xyz
  1  'x, y, z'
loop_
 _atom_site_type_symbol
 _atom_site_label
 _atom_site_symmetry_multiplicity
 _atom_site_fract_x
 _atom_site_fract_y
 _atom_site_fract_z
 _atom_site_occupancy
  Li  Li0  1  0.49987400  0.33320400  0.40735700  1
  Li  Li1  1  0.99987400  0.66679600  0.59264300  1
  Li  Li2  1  0.99987400  0.16679600  0.90735700  1
  Li  Li3  1  0.49987400  0.83320400  0.09264300  1
  Li  Li4  1  0.50312700  0.83484300  0.50495800  1
  Li  Li5  1  0.00312700  0.16515700  0.49504200  1
  Li  Li6  1  0.00312700  0.66515700  0.00495800  1
  Li  Li7  1  0.50312700  0.33484300  0.99504200  1
  Li  Li8  1  0.50041200  0.82372000  0.69511900  1
  Li  Li9  1  0.00041200  0.17628000  0.30488100  1
  Li  Li10  1  0.00041200  0.67628000  0.19511900  1
  Li  Li11  1  0.50041200  0.32372000  0.80488100  1
  Ga  Ga0  1  0.49922100  0.82920200  0.30065100  1
  Ga  Ga1  1  0.99922100  0.17079800  0.69934900  1
  Ga  Ga2  1  0.99922100  0.67079800  0.80065100  1
  Ga  Ga3  1  0.49922100  0.32920200  0.19934900  1
  Si  Si0  1  0.00491900  0.66600200  0.40217000  1
  Si  Si1  1  0.50491900  0.33399800  0.59783000  1
  Si  Si2  1  0.50491900  0.83399800  0.90217000  1
  Si  Si3  1  0.00491900  0.16600200  0.09783000  1
  O  O0  1  0.59600900  0.15755400  0.29671500  1
  O  O1  1  0.16216300  0.81808300  0.89469900  1
  O  O2  1  0.16216300  0.31808300  0.60530100  1
  O  O3  1  0.66216300  0.18191700  0.10530100  1
  O  O4  1  0.10335900  0.31620700  0.01439200  1
  O  O5  1  0.60335900  0.68379300  0.98560800  1
  O  O6  1  0.60335900  0.18379300  0.51439200  1
  O  O7  1  0.10335900  0.81620700  0.48560800  1
  O  O8  1  0.10103800  0.88023400  0.10153800  1
  O  O9  1  0.60103800  0.11976600  0.89846200  1
  O  O10  1  0.60103800  0.61976600  0.60153800  1
  O  O11  1  0.10103800  0.38023400  0.39846200  1
  O  O12  1  0.11688000  0.31224500  0.18699300  1
  O  O13  1  0.61688000  0.68775500  0.81300700  1
  O  O14  1  0.61688000  0.18775500  0.68699300  1
  O  O15  1  0.11688000  0.81224500  0.31300700  1
  O  O16  1  0.09600900  0.34244600  0.79671500  1
  O  O17  1  0.59600900  0.65755400  0.20328500  1
  O  O18  1  0.66216300  0.68191700  0.39469900  1
  O  O19  1  0.09600900  0.84244600  0.70328500  1
loop_
_geom_bond_atom_site_label_1
_geom_bond_atom_site_label_2
_geom_bond_distance
_geom_bond_site_symmetry_2
Li0 O6 1.938009 1_555
Li0 O11 1.978075 1_555
Li0 O0 2.041307 1_555
Li0 O18 2.064738 1_555
Li1 O7 1.938009 1_655
Li1 O10 1.978075 1_555
Li1 O19 2.041307 1_655
Li1 O2 2.064738 1_655
Li2 O4 1.938009 1_656
Li2 O9 1.978075 1_555
Li2 O16 2.041307 1_655
Li2 O1 2.064738 1_645
Li3 O5 1.938009 1_554
Li3 O8 1.978075 1_555
Li3 O17 2.041307 1_555
Li3 O3 2.064738 1_565
Li4 O6 1.964265 1_565
Li4 O10 1.976826 1_555
Li4 O7 1.987167 1_555
Li4 O18 2.076487 1_555
Li5 O7 1.964265 1_545
Li5 O11 1.976826 1_555
Li5 O6 1.987167 1_455
Li5 O2 2.076487 1_555
Li6 O4 1.964265 1_555
Li6 O8 1.976826 1_555
Li6 O5 1.987167 1_454
Li6 O1 2.076487 1_554
Li7 O5 1.964265 1_555
Li7 O9 1.976826 1_555
Li7 O4 1.987167 1_556
Li7 O3 2.076487 1_556
Li8 O10 1.908375 1_555
Li8 O19 1.990568 1_555
Li8 O14 2.062719 1_565
Li8 O13 2.077566 1_555
Li9 O11 1.908375 1_555
Li9 O0 1.990568 1_455
Li9 O15 2.062719 1_545
Li9 O12 2.077566 1_555
Li10 O8 1.908375 1_555
Li10 O17 1.990568 1_455
Li10 O12 2.062719 1_555
Li10 O15 2.077566 1_555
Li11 O9 1.908375 1_555
Li11 O16 1.990568 1_555
Li11 O13 2.062719 1_555
Li11 O14 2.077566 1_555
Ga0 O0 1.847149 1_565
Ga0 O17 1.855955 1_555
Ga0 O18 1.863136 1_555
Ga0 O15 1.887889 1_555
Ga1 O19 1.847149 1_645
Ga1 O16 1.855955 1_655
Ga1 O2 1.863136 1_655
Ga1 O14 1.887889 1_555
Ga2 O16 1.847149 1_655
Ga2 O19 1.855955 1_655
Ga2 O1 1.863136 1_655
Ga2 O13 1.887889 1_555
Ga3 O17 1.847149 1_555
Ga3 O0 1.855955 1_555
Ga3 O3 1.863136 1_555
Ga3 O12 1.887889 1_555
O1 Si2 1.687720 1_555
O2 Si1 1.687720 1_555
O3 Si3 1.687720 1_655
O4 Si3 1.620038 1_555
O5 Si2 1.620038 1_555
O6 Si1 1.620038 1_555
O7 Si0 1.620038 1_555
O8 Si3 1.623707 1_565
O9 Si2 1.623707 1_545
O10 Si1 1.623707 1_555
O11 Si0 1.623707 1_555
O12 Si3 1.703876 1_555
O13 Si2 1.703876 1_555
O14 Si1 1.703876 1_555
O15 Si0 1.703876 1_555
O18 Si0 1.687720 1_655
