# generated using pymatgen
data_NbCr3(CuS4)2
_symmetry_space_group_name_H-M   'P 1'
_cell_length_a   3.40777100
_cell_length_b   11.10319800
_cell_length_c   12.42590900
_cell_angle_alpha   90.00000000
_cell_angle_beta   90.00000000
_cell_angle_gamma   90.00000000
_symmetry_Int_Tables_number   1
_chemical_formula_structural   NbCr3(CuS4)2
_chemical_formula_sum   'Nb2 Cr6 Cu4 S16'
_cell_volume   470.16105916
_cell_formula_units_Z   2
loop_
 _symmetry_equiv_pos_site_id
 _symmetry_equiv_pos_as_xyz
  1  'x, y, z'
loop_
 _atom_site_type_symbol
 _atom_site_label
 _atom_site_symmetry_multiplicity
 _atom_site_fract_x
 _atom_site_fract_y
 _atom_site_fract_z
 _atom_site_occupancy
  Nb  Nb0  1  0.50000000  0.91767100  0.32336000  1
  Nb  Nb1  1  0.50000000  0.41767100  0.67664000  1
  Cr  Cr0  1  0.50000000  0.93997300  0.86972200  1
  Cr  Cr1  1  0.00000000  0.05910600  0.63495200  1
  Cr  Cr2  1  0.00000000  0.55910600  0.36504800  1
  Cr  Cr3  1  0.50000000  0.43997300  0.13027800  1
  Cr  Cr4  1  0.00000000  0.08307900  0.16603900  1
  Cr  Cr5  1  0.00000000  0.58307900  0.83396100  1
  Cu  Cu0  1  0.50000000  0.72258100  0.07515800  1
  Cu  Cu1  1  0.00000000  0.28037100  0.40836600  1
  Cu  Cu2  1  0.00000000  0.78037100  0.59163400  1
  Cu  Cu3  1  0.50000000  0.22258100  0.92484200  1
  S  S0  1  0.00000000  0.94206200  0.46611100  1
  S  S1  1  0.50000000  0.05802300  0.03852500  1
  S  S2  1  0.50000000  0.55802300  0.96147500  1
  S  S3  1  0.00000000  0.44206200  0.53388900  1
  S  S4  1  0.50000000  0.90974300  0.68213800  1
  S  S5  1  0.00000000  0.09039200  0.82199300  1
  S  S6  1  0.00000000  0.59039200  0.17800700  1
  S  S7  1  0.50000000  0.40974300  0.31786200  1
  S  S8  1  0.00000000  0.87052500  0.18369700  1
  S  S9  1  0.50000000  0.13128400  0.30025300  1
  S  S10  1  0.50000000  0.63128400  0.69974700  1
  S  S11  1  0.00000000  0.37052500  0.81630300  1
  S  S12  1  0.00000000  0.79696300  0.90771000  1
  S  S13  1  0.50000000  0.19822600  0.58897300  1
  S  S14  1  0.50000000  0.69822600  0.41102700  1
  S  S15  1  0.00000000  0.29696300  0.09229000  1
loop_
_geom_bond_atom_site_label_1
_geom_bond_atom_site_label_2
_geom_bond_distance
_geom_bond_site_symmetry_2
Nb0 S9 2.389104 1_565
Nb0 S0 2.474464 1_655
Nb0 S0 2.474464 1_555
Nb0 S8 2.487770 1_655
Nb0 S8 2.487770 1_555
Nb0 S14 2.668970 1_555
Nb1 S10 2.389104 1_555
Nb1 S3 2.474464 1_555
Nb1 S3 2.474464 1_655
Nb1 S11 2.487770 1_555
Nb1 S11 2.487770 1_655
Nb1 S13 2.668970 1_555
Cr0 S4 2.354944 1_555
Cr0 S12 2.376419 1_655
Cr0 S12 2.376419 1_555
Cr0 S5 2.458517 1_665
Cr0 S5 2.458517 1_565
Cr0 S1 2.473389 1_566
Cr1 S5 2.349971 1_555
Cr1 S13 2.369741 1_555
Cr1 S13 2.369741 1_455
Cr1 S4 2.448943 1_545
Cr1 S4 2.448943 1_445
Cr1 S0 2.467890 1_545
Cr2 S6 2.349971 1_555
Cr2 S14 2.369741 1_555
Cr2 S14 2.369741 1_455
Cr2 S7 2.448943 1_455
Cr2 S7 2.448943 1_555
Cr2 S3 2.467890 1_555
Cr3 S7 2.354944 1_555
Cr3 S15 2.376419 1_655
Cr3 S15 2.376419 1_555
Cr3 S6 2.458517 1_655
Cr3 S6 2.458517 1_555
Cr3 S2 2.473389 1_554
Cr4 S1 2.343329 1_555
Cr4 S1 2.343329 1_455
Cr4 S8 2.370207 1_545
Cr4 S9 2.443568 1_455
Cr4 S9 2.443568 1_555
Cr4 S15 2.545475 1_555
Cr5 S2 2.343329 1_455
Cr5 S2 2.343329 1_555
Cr5 S11 2.370207 1_555
Cr5 S10 2.443568 1_555
Cr5 S10 2.443568 1_455
Cr5 S12 2.545475 1_555
Cu0 S2 2.309512 1_554
Cu0 S6 2.586638 1_655
Cu0 S6 2.586638 1_555
Cu0 S8 2.724061 1_655
Cu0 S8 2.724061 1_555
Cu0 S12 2.813287 1_654
Cu0 S12 2.813287 1_554
Cu1 S3 2.378200 1_555
Cu1 S7 2.496259 1_455
Cu1 S7 2.496259 1_555
Cu1 S9 2.729123 1_555
Cu1 S9 2.729123 1_455
Cu1 S13 2.961682 1_455
Cu1 S13 2.961682 1_555
Cu2 S0 2.378200 1_555
Cu2 S4 2.496259 1_555
Cu2 S4 2.496259 1_455
Cu2 S10 2.729123 1_555
Cu2 S10 2.729123 1_455
Cu2 S14 2.961682 1_555
Cu2 S14 2.961682 1_455
Cu3 S1 2.309512 1_556
Cu3 S5 2.586638 1_555
Cu3 S5 2.586638 1_655
Cu3 S11 2.724061 1_555
Cu3 S11 2.724061 1_655
Cu3 S15 2.813287 1_556
Cu3 S15 2.813287 1_656
