# generated using pymatgen
data_Ca8Si4(O5F)3
_symmetry_space_group_name_H-M   'P 1'
_cell_length_a   10.56604100
_cell_length_b   7.63711800
_cell_length_c   11.08693163
_cell_angle_alpha   70.62954944
_cell_angle_beta   90.00000000
_cell_angle_gamma   90.00000000
_symmetry_Int_Tables_number   1
_chemical_formula_structural   Ca8Si4(O5F)3
_chemical_formula_sum   'Ca16 Si8 O30 F6'
_cell_volume   844.00728995
_cell_formula_units_Z   2
loop_
 _symmetry_equiv_pos_site_id
 _symmetry_equiv_pos_as_xyz
  1  'x, y, z'
loop_
 _atom_site_type_symbol
 _atom_site_label
 _atom_site_symmetry_multiplicity
 _atom_site_fract_x
 _atom_site_fract_y
 _atom_site_fract_z
 _atom_site_occupancy
  Ca  Ca0  1  0.34406700  0.96848600  0.80026800  1
  Ca  Ca1  1  0.84585300  0.03004400  0.69777400  1
  Ca  Ca2  1  0.15414700  0.03004400  0.19777400  1
  Ca  Ca3  1  0.65593300  0.96848600  0.30026800  1
  Ca  Ca4  1  0.33778300  0.47019000  0.81771600  1
  Ca  Ca5  1  0.83634200  0.53162000  0.68221900  1
  Ca  Ca6  1  0.16365800  0.53162000  0.18221900  1
  Ca  Ca7  1  0.66221700  0.47019000  0.31771600  1
  Ca  Ca8  1  0.61822600  0.16795900  0.92748600  1
  Ca  Ca9  1  0.11980500  0.82954700  0.57617700  1
  Ca  Ca10  1  0.88019500  0.82954700  0.07617700  1
  Ca  Ca11  1  0.38177400  0.16795900  0.42748600  1
  Ca  Ca12  1  0.61696800  0.66283300  0.91483600  1
  Ca  Ca13  1  0.12157200  0.33888200  0.58399300  1
  Ca  Ca14  1  0.87842800  0.33888200  0.08399300  1
  Ca  Ca15  1  0.38303200  0.66283300  0.41483600  1
  Si  Si0  1  0.55907400  0.84727700  0.62256300  1
  Si  Si1  1  0.05730300  0.15204700  0.87615800  1
  Si  Si2  1  0.94269700  0.15204700  0.37615800  1
  Si  Si3  1  0.44092600  0.84727700  0.12256300  1
  Si  Si4  1  0.55656000  0.27208900  0.63271300  1
  Si  Si5  1  0.05673500  0.72718500  0.86818600  1
  Si  Si6  1  0.94326500  0.72718500  0.36818600  1
  Si  Si7  1  0.44344000  0.27208900  0.13271300  1
  O  O0  1  0.52114800  0.06278100  0.62141500  1
  O  O1  1  0.02259800  0.93660900  0.87997400  1
  O  O2  1  0.97740200  0.93660900  0.37997400  1
  O  O3  1  0.47885200  0.06278100  0.12141500  1
  O  O4  1  0.51711400  0.85842600  0.47810300  1
  O  O5  1  0.01377700  0.14327900  0.02114600  1
  O  O6  1  0.98622300  0.14327900  0.52114600  1
  O  O7  1  0.48288600  0.85842600  0.97810300  1
  O  O8  1  0.70765900  0.80336400  0.65956100  1
  O  O9  1  0.20643400  0.19869700  0.84600900  1
  O  O10  1  0.79356600  0.19869700  0.34600900  1
  O  O11  1  0.29234100  0.80336400  0.15956100  1
  O  O12  1  0.51180100  0.40866900  0.49208400  1
  O  O13  1  0.01077000  0.59098300  0.00859600  1
  O  O14  1  0.98923000  0.59098300  0.50859600  1
  O  O15  1  0.48819900  0.40866900  0.99208400  1
  O  O16  1  0.70602200  0.28429800  0.66428900  1
  O  O17  1  0.20583900  0.71047200  0.83835700  1
  O  O18  1  0.79416100  0.71047200  0.33835700  1
  O  O19  1  0.29397800  0.28429800  0.16428900  1
  O  O20  1  0.47137400  0.26924900  0.75689400  1
  O  O21  1  0.97185700  0.73229100  0.74315600  1
  O  O22  1  0.02814300  0.73229100  0.24315600  1
  O  O23  1  0.52862600  0.26924900  0.25689400  1
  O  O24  1  0.47167900  0.72142800  0.74146900  1
  O  O25  1  0.97128800  0.27795200  0.75725600  1
  O  O26  1  0.02871200  0.27795200  0.25725600  1
  O  O27  1  0.52832100  0.72142800  0.24146900  1
  O  O28  1  0.24012700  0.07220900  0.60111500  1
  O  O29  1  0.75987300  0.07220900  0.10111500  1
  F  F0  1  0.25320900  0.57455000  0.60507500  1
  F  F1  1  0.75195500  0.43084600  0.89187600  1
  F  F2  1  0.24804500  0.43084600  0.39187600  1
  F  F3  1  0.74679100  0.57455000  0.10507500  1
  F  F4  1  0.74533600  0.92574000  0.89353700  1
  F  F5  1  0.25466400  0.92574000  0.39353700  1
loop_
_geom_bond_atom_site_label_1
_geom_bond_atom_site_label_2
_geom_bond_distance
_geom_bond_site_symmetry_2
Ca0 O28 2.355552 1_565
Ca0 O17 2.375348 1_555
Ca0 O7 2.376124 1_555
Ca0 O9 2.460592 1_565
Ca0 O20 2.565920 1_565
Ca0 O24 2.572745 1_555
Ca0 O0 2.646540 1_565
Ca1 F4 2.307887 1_545
Ca1 O16 2.369174 1_555
Ca1 O6 2.378872 1_555
Ca1 O8 2.407299 1_545
Ca1 O21 2.537258 1_545
Ca1 O25 2.569884 1_555
Ca1 O1 2.668539 1_645
Ca2 F5 2.307887 1_545
Ca2 O19 2.369174 1_555
Ca2 O5 2.378872 1_555
Ca2 O11 2.407299 1_545
Ca2 O22 2.537258 1_545
Ca2 O26 2.569884 1_555
Ca2 O2 2.668539 1_445
Ca3 O29 2.355552 1_565
Ca3 O18 2.375348 1_555
Ca3 O4 2.376124 1_555
Ca3 O10 2.460592 1_565
Ca3 O23 2.565920 1_565
Ca3 O27 2.572745 1_555
Ca3 O3 2.646540 1_565
Ca4 O24 2.306886 1_555
Ca4 O20 2.342779 1_555
Ca4 O17 2.375285 1_555
Ca4 F0 2.396941 1_555
Ca4 O15 2.425159 1_555
Ca4 O9 2.427373 1_555
Ca5 O25 2.325753 1_555
Ca5 O21 2.354185 1_555
Ca5 F1 2.367217 1_555
Ca5 O16 2.398394 1_555
Ca5 O8 2.423431 1_555
Ca5 O14 2.437547 1_555
Ca6 O26 2.325753 1_555
Ca6 O22 2.354185 1_555
Ca6 F2 2.367217 1_555
Ca6 O19 2.398394 1_555
Ca6 O11 2.423431 1_555
Ca6 O13 2.437547 1_555
Ca7 O27 2.306886 1_555
Ca7 O23 2.342779 1_555
Ca7 O18 2.375285 1_555
Ca7 F3 2.396941 1_555
Ca7 O12 2.425159 1_555
Ca7 O10 2.427373 1_555
Ca8 O29 2.355118 1_556
Ca8 O20 2.369102 1_555
Ca8 F1 2.378540 1_555
Ca8 F4 2.414391 1_545
Ca8 O3 2.508197 1_556
Ca8 O15 2.579395 1_555
Ca8 O7 2.658582 1_545
Ca8 O16 2.906049 1_555
Ca9 O28 2.338184 1_565
Ca9 F0 2.338403 1_555
Ca9 O21 2.347440 1_455
Ca9 F5 2.384032 1_555
Ca9 O2 2.546471 1_455
Ca9 O14 2.586481 1_455
Ca9 O6 2.671240 1_465
Ca9 O17 2.889494 1_555
Ca10 O29 2.338184 1_565
Ca10 F3 2.338403 1_555
Ca10 O22 2.347440 1_655
Ca10 F4 2.384032 1_554
Ca10 O1 2.546471 1_654
Ca10 O13 2.586481 1_655
Ca10 O5 2.671240 1_665
Ca10 O18 2.889494 1_555
Ca11 O28 2.355118 1_555
Ca11 O23 2.369102 1_555
Ca11 F2 2.378540 1_555
Ca11 F5 2.414391 1_545
Ca11 O0 2.508197 1_555
Ca11 O12 2.579395 1_555
Ca11 O4 2.658582 1_545
Ca11 O19 2.906049 1_555
Ca12 O15 2.291221 1_555
Ca12 O7 2.329267 1_555
Ca12 F1 2.353126 1_555
Ca12 F4 2.369045 1_555
Ca12 O24 2.383444 1_555
Ca12 F3 2.416909 1_556
Ca12 O8 2.839944 1_555
Ca13 O14 2.300731 1_455
Ca13 O6 2.335109 1_455
Ca13 O28 2.344466 1_555
Ca13 F0 2.346830 1_555
Ca13 F2 2.413198 1_555
Ca13 O25 2.415594 1_455
Ca13 O9 2.885461 1_555
Ca14 O13 2.300731 1_655
Ca14 O5 2.335109 1_655
Ca14 O29 2.344466 1_555
Ca14 F3 2.346830 1_555
Ca14 F1 2.413198 1_554
Ca14 O26 2.415594 1_655
Ca14 O10 2.885461 1_555
Ca15 O12 2.291221 1_555
Ca15 O4 2.329267 1_555
Ca15 F2 2.353126 1_555
Ca15 F5 2.369045 1_555
Ca15 O27 2.383444 1_555
Ca15 F0 2.416909 1_555
Ca15 O11 2.839944 1_555
O0 Si4 1.686341 1_555
O0 Si0 1.689853 1_545
O1 Si1 1.672476 1_565
O1 Si5 1.686389 1_555
O2 Si2 1.672476 1_565
O2 Si6 1.686389 1_555
O3 Si7 1.686341 1_555
O3 Si3 1.689853 1_545
O4 Si0 1.636621 1_555
O5 Si1 1.651833 1_554
O6 Si2 1.651833 1_555
O7 Si3 1.636621 1_556
O8 Si0 1.629183 1_555
O9 Si1 1.625598 1_555
O10 Si2 1.625598 1_555
O11 Si3 1.629183 1_555
O12 Si4 1.632112 1_555
O13 Si5 1.633122 1_554
O14 Si6 1.633122 1_555
O15 Si7 1.632112 1_556
O16 Si4 1.626913 1_555
O17 Si5 1.623475 1_555
O18 Si6 1.623475 1_555
O19 Si7 1.626913 1_555
O20 Si4 1.639007 1_555
O21 Si5 1.640581 1_655
O22 Si6 1.640581 1_455
O23 Si7 1.639007 1_555
O24 Si0 1.635202 1_555
O25 Si1 1.627123 1_655
O26 Si2 1.627123 1_455
O27 Si3 1.635202 1_555
