# generated using pymatgen
data_AsPtS
_symmetry_space_group_name_H-M   'P 1'
_cell_length_a   6.01847800
_cell_length_b   6.01847800
_cell_length_c   6.01847800
_cell_angle_alpha   90.00000000
_cell_angle_beta   90.00000000
_cell_angle_gamma   90.00000000
_symmetry_Int_Tables_number   1
_chemical_formula_structural   AsPtS
_chemical_formula_sum   'As4 Pt4 S4'
_cell_volume   218.00177617
_cell_formula_units_Z   4
loop_
 _symmetry_equiv_pos_site_id
 _symmetry_equiv_pos_as_xyz
  1  'x, y, z'
loop_
 _atom_site_type_symbol
 _atom_site_label
 _atom_site_symmetry_multiplicity
 _atom_site_fract_x
 _atom_site_fract_y
 _atom_site_fract_z
 _atom_site_occupancy
  As  As0  1  0.11465300  0.88534700  0.38534700  1
  As  As1  1  0.88534700  0.38534700  0.11465300  1
  As  As2  1  0.38534700  0.11465300  0.88534700  1
  As  As3  1  0.61465300  0.61465300  0.61465300  1
  Pt  Pt0  1  0.50156100  0.49843900  0.99843900  1
  Pt  Pt1  1  0.49843900  0.99843900  0.50156100  1
  Pt  Pt2  1  0.99843900  0.50156100  0.49843900  1
  Pt  Pt3  1  0.00156100  0.00156100  0.00156100  1
  S  S0  1  0.89058700  0.10941300  0.60941300  1
  S  S1  1  0.10941300  0.60941300  0.89058700  1
  S  S2  1  0.60941300  0.89058700  0.10941300  1
  S  S3  1  0.39058700  0.39058700  0.39058700  1
loop_
_geom_bond_atom_site_label_1
_geom_bond_atom_site_label_2
_geom_bond_distance
_geom_bond_site_symmetry_2
As0 S0 2.335733 1_465
As0 Pt2 2.507526 1_455
As0 Pt3 2.507526 1_565
As0 Pt1 2.507526 1_555
As1 S1 2.335733 1_654
As1 Pt0 2.507526 1_554
As1 Pt3 2.507526 1_655
As1 Pt2 2.507526 1_555
As2 S2 2.335733 1_546
As2 Pt1 2.507526 1_545
As2 Pt0 2.507526 1_555
As2 Pt3 2.507526 1_556
As3 S3 2.335733 1_555
As3 Pt0 2.507526 1_555
As3 Pt1 2.507526 1_555
As3 Pt2 2.507526 1_555
Pt0 S1 2.537253 1_555
Pt0 S2 2.537253 1_556
Pt0 S3 2.537253 1_556
Pt1 S0 2.537253 1_565
Pt1 S2 2.537253 1_555
Pt1 S3 2.537253 1_565
Pt2 S1 2.537253 1_655
Pt2 S0 2.537253 1_555
Pt2 S3 2.537253 1_655
Pt3 S1 2.537253 1_544
Pt3 S2 2.537253 1_445
Pt3 S0 2.537253 1_454
