# generated using pymatgen
data_Li3Co2Ni3O10
_symmetry_space_group_name_H-M   'P 1'
_cell_length_a   2.87373700
_cell_length_b   5.84240200
_cell_length_c   20.67987084
_cell_angle_alpha   82.43634133
_cell_angle_beta   90.00000000
_cell_angle_gamma   90.00000000
_symmetry_Int_Tables_number   1
_chemical_formula_structural   Li3Co2Ni3O10
_chemical_formula_sum   'Li6 Co4 Ni6 O20'
_cell_volume   344.18429195
_cell_formula_units_Z   2
loop_
 _symmetry_equiv_pos_site_id
 _symmetry_equiv_pos_as_xyz
  1  'x, y, z'
loop_
 _atom_site_type_symbol
 _atom_site_label
 _atom_site_symmetry_multiplicity
 _atom_site_fract_x
 _atom_site_fract_y
 _atom_site_fract_z
 _atom_site_occupancy
  Li  Li0  1  0.00000000  0.10994300  0.30516100  1
  Li  Li1  1  0.50000000  0.89998900  0.20015700  1
  Li  Li2  1  0.00000000  0.68844600  0.09606400  1
  Li  Li3  1  0.00000000  0.31155400  0.90393600  1
  Li  Li4  1  0.50000000  0.10001100  0.79984300  1
  Li  Li5  1  0.00000000  0.89005700  0.69483900  1
  Co  Co0  1  0.50000000  0.21015400  0.59679500  1
  Co  Co1  1  0.00000000  0.00000000  0.50000000  1
  Co  Co2  1  0.50000000  0.78984600  0.40320500  1
  Co  Co3  1  0.50000000  0.00000000  0.00000000  1
  Ni  Ni0  1  0.00000000  0.59491300  0.30221200  1
  Ni  Ni1  1  0.50000000  0.39875700  0.20064700  1
  Ni  Ni2  1  0.00000000  0.20826700  0.09824400  1
  Ni  Ni3  1  0.00000000  0.79173300  0.90175600  1
  Ni  Ni4  1  0.50000000  0.60124300  0.79935300  1
  Ni  Ni5  1  0.00000000  0.40508700  0.69778800  1
  O  O0  1  0.50000000  0.17061900  0.68952100  1
  O  O1  1  0.00000000  0.99360600  0.59554300  1
  O  O2  1  0.00000000  0.41385800  0.60026800  1
  O  O3  1  0.50000000  0.21310400  0.50595800  1
  O  O4  1  0.50000000  0.78689600  0.49404200  1
  O  O5  1  0.00000000  0.00639400  0.40445700  1
  O  O6  1  0.00000000  0.58614200  0.39973200  1
  O  O7  1  0.50000000  0.36805100  0.29163600  1
  O  O8  1  0.50000000  0.82938100  0.31047900  1
  O  O9  1  0.00000000  0.16663800  0.20010100  1
  O  O10  1  0.00000000  0.63255700  0.20109500  1
  O  O11  1  0.50000000  0.97324000  0.09205700  1
  O  O12  1  0.50000000  0.43149400  0.10928700  1
  O  O13  1  0.00000000  0.21263400  0.99947900  1
  O  O14  1  0.00000000  0.78736600  0.00052100  1
  O  O15  1  0.50000000  0.02676000  0.90794300  1
  O  O16  1  0.50000000  0.56850600  0.89071300  1
  O  O17  1  0.00000000  0.36744300  0.79890500  1
  O  O18  1  0.00000000  0.83336200  0.79989900  1
  O  O19  1  0.50000000  0.63194900  0.70836400  1
loop_
_geom_bond_atom_site_label_1
_geom_bond_atom_site_label_2
_geom_bond_distance
_geom_bond_site_symmetry_2
Li0 O5 2.062893 1_555
Li0 O7 2.075033 1_555
Li0 O7 2.075033 1_455
Li0 O9 2.154199 1_555
Li0 O8 2.171650 1_445
Li0 O8 2.171650 1_545
Li1 O9 2.119216 1_565
Li1 O9 2.119216 1_665
Li1 O10 2.120902 1_555
Li1 O10 2.120902 1_655
Li1 O11 2.220074 1_555
Li1 O8 2.264377 1_555
Li2 O14 1.984250 1_555
Li2 O12 2.070012 1_455
Li2 O12 2.070012 1_555
Li2 O10 2.153512 1_555
Li2 O11 2.191726 1_455
Li2 O11 2.191726 1_555
Li3 O13 1.984250 1_555
Li3 O16 2.070012 1_455
Li3 O16 2.070012 1_555
Li3 O17 2.153512 1_555
Li3 O15 2.191726 1_455
Li3 O15 2.191726 1_555
Li4 O18 2.119216 1_545
Li4 O18 2.119216 1_645
Li4 O17 2.120902 1_655
Li4 O17 2.120902 1_555
Li4 O15 2.220074 1_555
Li4 O0 2.264377 1_555
Li5 O1 2.062893 1_555
Li5 O19 2.075033 1_455
Li5 O19 2.075033 1_555
Li5 O18 2.154199 1_555
Li5 O0 2.171650 1_565
Li5 O0 2.171650 1_465
Co0 O2 1.873136 1_655
Co0 O2 1.873136 1_555
Co0 O3 1.876307 1_555
Co0 O0 1.900998 1_555
Co0 O1 1.916903 1_545
Co0 O1 1.916903 1_645
Co1 O3 1.915797 1_455
Co1 O3 1.915797 1_555
Co1 O4 1.915797 1_445
Co1 O4 1.915797 1_545
Co1 O1 1.971248 1_545
Co1 O5 1.971248 1_555
Co2 O6 1.873136 1_655
Co2 O6 1.873136 1_555
Co2 O4 1.876307 1_555
Co2 O8 1.900998 1_555
Co2 O5 1.916903 1_565
Co2 O5 1.916903 1_665
Co3 O11 1.889515 1_545
Co3 O15 1.889515 1_554
Co3 O13 1.898546 1_654
Co3 O14 1.898546 1_545
Co3 O13 1.898546 1_554
Co3 O14 1.898546 1_645
Ni0 O7 1.986322 1_555
Ni0 O7 1.986322 1_455
Ni0 O8 2.007978 1_555
Ni0 O8 2.007978 1_455
Ni0 O6 2.010598 1_555
Ni0 O10 2.073630 1_555
Ni1 O7 1.866518 1_555
Ni1 O12 1.873755 1_555
Ni1 O9 1.976827 1_655
Ni1 O9 1.976827 1_555
Ni1 O10 1.983390 1_655
Ni1 O10 1.983390 1_555
Ni2 O12 1.973839 1_455
Ni2 O12 1.973839 1_555
Ni2 O11 2.003167 1_545
Ni2 O11 2.003167 1_445
Ni2 O13 2.039246 1_554
Ni2 O9 2.088340 1_555
Ni3 O16 1.973839 1_455
Ni3 O16 1.973839 1_555
Ni3 O15 2.003167 1_565
Ni3 O15 2.003167 1_465
Ni3 O14 2.039246 1_556
Ni3 O18 2.088340 1_555
Ni4 O19 1.866518 1_555
Ni4 O16 1.873755 1_555
Ni4 O18 1.976827 1_655
Ni4 O18 1.976827 1_555
Ni4 O17 1.983390 1_555
Ni4 O17 1.983390 1_655
Ni5 O19 1.986322 1_455
Ni5 O19 1.986322 1_555
Ni5 O0 2.007978 1_555
Ni5 O0 2.007978 1_455
Ni5 O2 2.010598 1_555
Ni5 O17 2.073630 1_555
