# generated using pymatgen
data_K7Rb5(Fe2O5)2
_symmetry_space_group_name_H-M   'P 1'
_cell_length_a   7.01437000
_cell_length_b   9.72165305
_cell_length_c   9.72694531
_cell_angle_alpha   73.98093748
_cell_angle_beta   68.94576918
_cell_angle_gamma   68.92951132
_symmetry_Int_Tables_number   1
_chemical_formula_structural   K7Rb5(Fe2O5)2
_chemical_formula_sum   'K7 Rb5 Fe4 O10'
_cell_volume   569.35777235
_cell_formula_units_Z   1
loop_
 _symmetry_equiv_pos_site_id
 _symmetry_equiv_pos_as_xyz
  1  'x, y, z'
loop_
 _atom_site_type_symbol
 _atom_site_label
 _atom_site_symmetry_multiplicity
 _atom_site_fract_x
 _atom_site_fract_y
 _atom_site_fract_z
 _atom_site_occupancy
  K  K0  1  0.50063800  0.28004100  0.72023500  1
  K  K1  1  0.99851500  0.78154800  0.22170400  1
  K  K2  1  0.49872500  0.72159000  0.28123800  1
  K  K3  1  0.00035000  0.22061200  0.78021500  1
  K  K4  1  0.75170800  0.48919800  0.00905400  1
  K  K5  1  0.25169600  0.98946000  0.50888900  1
  K  K6  1  0.75159100  0.00889500  0.48953600  1
  Rb  Rb0  1  0.75267100  0.90743000  0.90642600  1
  Rb  Rb1  1  0.25206100  0.40638000  0.40799800  1
  Rb  Rb2  1  0.74411300  0.59452700  0.59341000  1
  Rb  Rb3  1  0.24451800  0.09298400  0.09456800  1
  Rb  Rb4  1  0.25052600  0.50750500  0.99164900  1
  Fe  Fe0  1  0.15089900  0.65358800  0.65155200  1
  Fe  Fe1  1  0.65335700  0.15104400  0.15283400  1
  Fe  Fe2  1  0.36221600  0.84415000  0.84220600  1
  Fe  Fe3  1  0.85945500  0.34297900  0.34492400  1
  O  O0  1  0.08803400  0.75453500  0.47032900  1
  O  O1  1  0.59653600  0.24806600  0.96944200  1
  O  O2  1  0.08771100  0.47211200  0.75195400  1
  O  O3  1  0.58838300  0.97080000  0.25508100  1
  O  O4  1  0.40938100  0.74961100  0.02958600  1
  O  O5  1  0.90855700  0.24652000  0.53111800  1
  O  O6  1  0.40893800  0.03144800  0.74709300  1
  O  O7  1  0.90028600  0.53208900  0.25361600  1
  O  O8  1  0.29132700  0.73901300  0.73220400  1
  O  O9  1  0.79171000  0.23597600  0.23524100  1
loop_
_geom_bond_atom_site_label_1
_geom_bond_atom_site_label_2
_geom_bond_distance
_geom_bond_site_symmetry_2
K0 O6 2.640288 1_555
K0 O1 2.651477 1_555
K0 O5 2.748760 1_555
K0 O2 2.785351 1_555
K1 O0 2.633194 1_655
K1 O7 2.661729 1_555
K1 O3 2.760316 1_555
K1 O4 2.775161 1_655
K2 O3 2.640124 1_555
K2 O4 2.658971 1_555
K2 O7 2.719965 1_555
K2 O0 2.763859 1_555
K3 O2 2.648468 1_555
K3 O5 2.648811 1_455
K3 O1 2.731984 1_455
K3 O6 2.751990 1_555
K4 O2 2.747587 1_654
K4 O4 2.788978 1_555
K4 O9 2.817273 1_555
K4 O1 3.076179 1_554
K4 O7 3.091942 1_555
K5 O3 2.730408 1_555
K5 O5 2.772097 1_465
K5 O8 2.784230 1_555
K5 O0 3.056451 1_555
K5 O6 3.071397 1_565
K6 O0 2.731503 1_645
K6 O6 2.774707 1_555
K6 O9 2.829096 1_555
K6 O3 3.048831 1_545
K6 O5 3.062176 1_555
Fe0 O0 1.886102 1_555
Fe0 O2 1.887613 1_555
Fe0 O8 1.943798 1_555
Fe1 O1 1.882157 1_554
Fe1 O3 1.885206 1_545
Fe1 O9 1.940720 1_555
Fe2 O6 1.886873 1_565
Fe2 O4 1.888448 1_556
Fe2 O8 1.946308 1_555
Fe3 O7 1.882932 1_555
Fe3 O5 1.885916 1_555
Fe3 O9 1.943801 1_555
O0 Rb2 3.044322 1_455
O0 Rb1 3.313377 1_555
O1 Rb4 2.796617 1_555
O1 Rb3 3.058746 1_556
O1 Rb0 3.251411 1_545
O2 Rb2 3.032894 1_455
O2 Rb4 3.081719 1_555
O2 Rb1 3.287814 1_555
O3 Rb3 3.047702 1_565
O3 Rb0 3.323160 1_554
O4 Rb0 3.026011 1_554
O4 Rb4 3.094844 1_554
O4 Rb3 3.277766 1_565
O5 Rb1 3.040880 1_655
O5 Rb2 3.311636 1_555
O6 Rb0 3.038457 1_545
O6 Rb3 3.306150 1_556
O7 Rb4 2.828718 1_654
O7 Rb1 3.052566 1_655
O7 Rb2 3.243493 1_555
O8 Rb4 2.885371 1_555
O8 Rb2 2.939524 1_555
O9 Rb3 2.940277 1_655
