# generated using pymatgen
data_Al2O3
_symmetry_space_group_name_H-M   'P 1'
_cell_length_a   5.71573460
_cell_length_b   5.66532992
_cell_length_c   16.59505267
_cell_angle_alpha   62.92272379
_cell_angle_beta   66.36536367
_cell_angle_gamma   58.33732366
_symmetry_Int_Tables_number   1
_chemical_formula_structural   Al2O3
_chemical_formula_sum   'Al16 O24'
_cell_volume   397.84520212
_cell_formula_units_Z   8
loop_
 _symmetry_equiv_pos_site_id
 _symmetry_equiv_pos_as_xyz
  1  'x, y, z'
loop_
 _atom_site_type_symbol
 _atom_site_label
 _atom_site_symmetry_multiplicity
 _atom_site_fract_x
 _atom_site_fract_y
 _atom_site_fract_z
 _atom_site_occupancy
  Al  Al0  1  0.09555200  0.94485200  0.14951700  1
  Al  Al1  1  0.33588800  0.51866400  0.00987800  1
  Al  Al2  1  0.57681400  0.43036600  0.15830200  1
  Al  Al3  1  0.48331100  0.03443100  0.50870100  1
  Al  Al4  1  0.48043000  0.58397400  0.31692500  1
  Al  Al5  1  0.70064300  0.46624600  0.48191700  1
  Al  Al6  1  0.03729900  0.27770700  0.29455700  1
  Al  Al7  1  0.63963000  0.96342200  0.32886800  1
  Al  Al8  1  0.22135100  0.09412600  0.83091600  1
  Al  Al9  1  0.36424300  0.52702900  0.66467700  1
  Al  Al10  1  0.43258200  0.53757200  0.82838800  1
  Al  Al11  1  0.07963700  0.78581000  0.49367600  1
  Al  Al12  1  0.92841200  0.39361400  0.64476700  1
  Al  Al13  1  0.81088400  0.87985400  0.79333900  1
  Al  Al14  1  0.94910200  0.41723600  0.98827100  1
  Al  Al15  1  0.62320900  0.97154800  0.99299100  1
  O  O0  1  0.27814900  0.18497200  0.05645800  1
  O  O1  1  0.39464200  0.18190200  0.24842400  1
  O  O2  1  0.29821200  0.66335500  0.08859100  1
  O  O3  1  0.80296900  0.17317300  0.08736700  1
  O  O4  1  0.35173000  0.70490800  0.22095400  1
  O  O5  1  0.44577500  0.24995500  0.38820400  1
  O  O6  1  0.87437000  0.16531300  0.24150400  1
  O  O7  1  0.24736500  0.35313200  0.55066000  1
  O  O8  1  0.40569500  0.72981300  0.40395100  1
  O  O9  1  0.80523800  0.63617000  0.07095400  1
  O  O10  1  0.80862000  0.65350600  0.27034800  1
  O  O11  1  0.90827800  0.18333100  0.42477100  1
  O  O12  1  0.28798300  0.80898700  0.55431000  1
  O  O13  1  0.12016300  0.35549200  0.72306700  1
  O  O14  1  0.71839500  0.32314400  0.60064100  1
  O  O15  1  0.20887400  0.29352100  0.89174200  1
  O  O16  1  0.17707900  0.76426400  0.74208900  1
  O  O17  1  0.82723900  0.74350100  0.42640500  1
  O  O18  1  0.75678800  0.79444400  0.58288700  1
  O  O19  1  0.66374400  0.29133000  0.75546700  1
  O  O20  1  0.16411500  0.77438100  0.91385800  1
  O  O21  1  0.63911400  0.31814300  0.92564700  1
  O  O22  1  0.55193800  0.83749200  0.77766700  1
  O  O23  1  0.70874200  0.77052200  0.91814300  1
loop_
_geom_bond_atom_site_label_1
_geom_bond_atom_site_label_2
_geom_bond_distance
_geom_bond_site_symmetry_2
Al0 O4 1.797882 1_555
Al0 O3 1.852306 1_465
Al0 O2 1.869986 1_555
Al0 O0 1.900105 1_565
Al0 O6 2.004793 1_465
Al1 O2 1.728738 1_555
Al1 O20 1.805935 1_554
Al1 O0 1.844019 1_555
Al1 O21 1.919480 1_554
Al2 O4 1.858573 1_555
Al2 O2 1.869933 1_555
Al2 O3 1.882509 1_555
Al2 O1 1.917270 1_555
Al2 O9 1.925431 1_555
Al2 O6 2.089987 1_555
Al3 O5 1.838938 1_555
Al3 O12 1.841191 1_545
Al3 O7 1.843607 1_555
Al3 O18 1.896193 1_545
Al3 O17 2.222892 1_545
Al4 O4 1.721607 1_555
Al4 O8 1.781003 1_555
Al4 O5 1.785270 1_555
Al4 O10 1.899323 1_555
Al5 O14 1.780208 1_555
Al5 O17 1.783500 1_555
Al5 O11 1.833356 1_555
Al5 O8 2.023140 1_555
Al5 O12 2.412559 1_555
Al6 O1 1.735832 1_555
Al6 O10 1.767336 1_455
Al6 O11 1.893043 1_455
Al6 O6 1.959112 1_455
Al7 O1 1.857408 1_565
Al7 O17 1.864212 1_555
Al7 O5 1.877371 1_565
Al7 O6 1.937039 1_565
Al7 O10 1.994643 1_555
Al7 O8 2.027972 1_555
Al8 O15 1.787699 1_555
Al8 O13 1.802372 1_555
Al8 O20 1.809465 1_545
Al8 O22 1.847112 1_545
Al9 O13 1.819835 1_555
Al9 O12 1.828070 1_555
Al9 O14 1.870577 1_555
Al9 O16 1.887230 1_555
Al9 O19 2.195507 1_555
Al10 O19 1.864430 1_555
Al10 O22 1.874961 1_555
Al10 O21 1.924684 1_555
Al10 O16 1.966374 1_555
Al10 O20 1.998082 1_555
Al10 O15 2.026507 1_555
Al11 O8 1.837205 1_555
Al11 O18 1.838492 1_455
Al11 O11 1.891191 1_465
Al11 O12 1.921735 1_555
Al11 O7 1.992868 1_555
Al11 O17 2.298453 1_455
Al12 O7 1.849156 1_655
Al12 O18 1.876071 1_555
Al12 O13 1.890546 1_655
Al12 O14 1.900173 1_555
Al12 O19 1.929246 1_555
Al13 O22 1.747630 1_555
Al13 O16 1.781537 1_655
Al13 O23 1.804524 1_555
Al13 O19 1.889002 1_565
Al14 O15 1.812306 1_655
Al14 O3 1.831649 1_556
Al14 O23 1.876809 1_555
Al14 O9 1.916063 1_556
Al14 O0 2.074092 1_656
Al15 O9 1.769892 1_556
Al15 O21 1.794721 1_565
Al15 O23 1.815295 1_555
Al15 O0 1.857788 1_566
