# generated using pymatgen
data_ThSbSe
_symmetry_space_group_name_H-M   'P 1'
_cell_length_a   4.30227869
_cell_length_b   4.30227869
_cell_length_c   8.75749016
_cell_angle_alpha   90.00000000
_cell_angle_beta   90.00000000
_cell_angle_gamma   90.00000000
_symmetry_Int_Tables_number   1
_chemical_formula_structural   ThSbSe
_chemical_formula_sum   'Th2 Sb2 Se2'
_cell_volume   162.09765674
_cell_formula_units_Z   2
loop_
 _symmetry_equiv_pos_site_id
 _symmetry_equiv_pos_as_xyz
  1  'x, y, z'
loop_
 _atom_site_type_symbol
 _atom_site_label
 _atom_site_symmetry_multiplicity
 _atom_site_fract_x
 _atom_site_fract_y
 _atom_site_fract_z
 _atom_site_occupancy
  Th  Th0  1  0.75000000  0.75000000  0.71691701  1
  Th  Th1  1  0.25000000  0.25000000  0.28308299  1
  Sb  Sb0  1  0.75000000  0.25000000  -0.00000000  1
  Sb  Sb1  1  0.25000000  0.75000000  -0.00000000  1
  Se  Se0  1  0.75000000  0.75000000  0.36916175  1
  Se  Se1  1  0.25000000  0.25000000  0.63083825  1
loop_
_geom_bond_atom_site_label_1
_geom_bond_atom_site_label_2
_geom_bond_distance
_geom_bond_site_symmetry_2
Sb0 Sb1 3.042170 1_655
Sb0 Sb1 3.042170 1_545
Sb0 Sb1 3.042170 1_555
Sb0 Sb1 3.042170 1_645
Sb0 Th1 3.282274 1_555
Sb0 Th1 3.282274 1_655
Sb0 Th0 3.282274 1_554
Sb0 Th0 3.282274 1_544
Sb1 Th1 3.282274 1_565
Sb1 Th1 3.282274 1_555
Sb1 Th0 3.282274 1_554
Sb1 Th0 3.282274 1_454
Se0 Th0 3.045463 1_555
Se0 Th1 3.134177 1_565
Se0 Th1 3.134177 1_555
Se0 Th1 3.134177 1_655
Se0 Th1 3.134177 1_665
Se1 Th1 3.045463 1_555
Se1 Th0 3.134177 1_455
Se1 Th0 3.134177 1_445
Se1 Th0 3.134177 1_555
Se1 Th0 3.134177 1_545
