# generated using pymatgen
data_Ba6Ca3Cu6Hg3O19
_symmetry_space_group_name_H-M   'P 1'
_cell_length_a   8.66252098
_cell_length_b   8.66252098
_cell_length_c   14.01385615
_cell_angle_alpha   68.17298568
_cell_angle_beta   68.17298568
_cell_angle_gamma   36.71030862
_symmetry_Int_Tables_number   1
_chemical_formula_structural   Ba6Ca3Cu6Hg3O19
_chemical_formula_sum   'Ba6 Ca3 Cu6 Hg3 O19'
_cell_volume   578.36821087
_cell_formula_units_Z   1
loop_
 _symmetry_equiv_pos_site_id
 _symmetry_equiv_pos_as_xyz
  1  'x, y, z'
loop_
 _atom_site_type_symbol
 _atom_site_label
 _atom_site_symmetry_multiplicity
 _atom_site_fract_x
 _atom_site_fract_y
 _atom_site_fract_z
 _atom_site_occupancy
  Ba  Ba0  1  0.56920500  0.56920500  0.79240700  1
  Ba  Ba1  1  0.90661100  0.90661100  0.78069200  1
  Ba  Ba2  1  0.23961300  0.23961300  0.78045000  1
  Ba  Ba3  1  0.76038700  0.76038700  0.21955000  1
  Ba  Ba4  1  0.09338900  0.09338900  0.21930800  1
  Ba  Ba5  1  0.43079500  0.43079500  0.20759300  1
  Ca  Ca0  1  0.66614300  0.66614300  0.50165900  1
  Ca  Ca1  1  0.00000000  0.00000000  0.50000000  1
  Ca  Ca2  1  0.33385700  0.33385700  0.49834100  1
  Cu  Cu0  1  0.79202700  0.79202700  0.62246700  1
  Cu  Cu1  1  0.12548100  0.12548100  0.62368800  1
  Cu  Cu2  1  0.45962900  0.45962900  0.62246100  1
  Cu  Cu3  1  0.87451900  0.87451900  0.37631200  1
  Cu  Cu4  1  0.20797300  0.20797300  0.37753300  1
  Cu  Cu5  1  0.54037100  0.54037100  0.37753900  1
  Hg  Hg0  1  0.00000000  0.00000000  0.00000000  1
  Hg  Hg1  1  0.33819300  0.33819300  0.00001100  1
  Hg  Hg2  1  0.66180700  0.66180700  0.99998900  1
  O  O0  1  0.96237300  0.45861600  0.62106600  1
  O  O1  1  0.29061200  0.79399000  0.62100200  1
  O  O2  1  0.62565600  0.12599400  0.62227300  1
  O  O3  1  0.45861600  0.96237300  0.62106600  1
  O  O4  1  0.79399000  0.29061200  0.62100200  1
  O  O5  1  0.12599400  0.62565600  0.62227300  1
  O  O6  1  0.03762700  0.54138400  0.37893400  1
  O  O7  1  0.37434400  0.87400600  0.37772700  1
  O  O8  1  0.70938800  0.20601000  0.37899800  1
  O  O9  1  0.54138400  0.03762700  0.37893400  1
  O  O10  1  0.87400600  0.37434400  0.37772700  1
  O  O11  1  0.20601000  0.70938800  0.37899800  1
  O  O12  1  0.72317900  0.72317900  0.84159100  1
  O  O13  1  0.05324700  0.05324700  0.84031500  1
  O  O14  1  0.38244400  0.38244400  0.84162300  1
  O  O15  1  0.94675300  0.94675300  0.15968500  1
  O  O16  1  0.27682100  0.27682100  0.15840900  1
  O  O17  1  0.61755600  0.61755600  0.15837700  1
  O  O18  1  0.50000000  0.50000000  0.00000000  1
loop_
_geom_bond_atom_site_label_1
_geom_bond_atom_site_label_2
_geom_bond_distance
_geom_bond_site_symmetry_2
Ba0 O18 2.676671 1_556
Ba0 O13 2.796948 1_565
Ba0 O13 2.796948 1_655
Ba0 O14 2.871828 1_555
Ba0 O12 2.872764 1_555
Ba0 O3 2.946351 1_555
Ba0 O0 2.946351 1_555
Ba0 O1 2.946805 1_555
Ba0 O4 2.946805 1_555
Ba1 O12 2.794547 1_555
Ba1 O1 2.812420 1_655
Ba1 O4 2.812420 1_565
Ba1 O2 2.815726 1_565
Ba1 O5 2.815726 1_655
Ba1 O14 2.839457 1_565
Ba1 O14 2.839457 1_655
Ba1 O13 2.844396 1_665
Ba2 O14 2.797956 1_555
Ba2 O3 2.808655 1_545
Ba2 O0 2.808655 1_455
Ba2 O5 2.810397 1_555
Ba2 O2 2.810397 1_555
Ba2 O12 2.840264 1_455
Ba2 O12 2.840264 1_545
Ba2 O13 2.842688 1_555
Ba3 O17 2.797956 1_555
Ba3 O9 2.808655 1_565
Ba3 O6 2.808655 1_655
Ba3 O7 2.810397 1_555
Ba3 O10 2.810397 1_555
Ba3 O16 2.840264 1_655
Ba3 O16 2.840264 1_565
Ba3 O15 2.842688 1_555
Ba4 O16 2.794547 1_555
Ba4 O8 2.812420 1_455
Ba4 O11 2.812420 1_545
Ba4 O10 2.815726 1_455
Ba4 O7 2.815726 1_545
Ba4 O17 2.839457 1_455
Ba4 O17 2.839457 1_545
Ba4 O15 2.844396 1_445
Ba5 O18 2.676671 1_555
Ba5 O15 2.796948 1_545
Ba5 O15 2.796948 1_455
Ba5 O17 2.871828 1_555
Ba5 O16 2.872764 1_555
Ba5 O9 2.946351 1_555
Ba5 O6 2.946351 1_555
Ba5 O11 2.946805 1_555
Ba5 O8 2.946805 1_555
Ca0 O1 2.482191 1_555
Ca0 O4 2.482191 1_555
Ca0 O9 2.484337 1_565
Ca0 O6 2.484337 1_655
Ca0 O3 2.485258 1_555
Ca0 O0 2.485258 1_555
Ca0 O10 2.507877 1_555
Ca0 O7 2.507877 1_555
Ca1 O11 2.473587 1_545
Ca1 O8 2.473587 1_455
Ca1 O1 2.473587 1_545
Ca1 O4 2.473587 1_455
Ca1 O7 2.495409 1_545
Ca1 O2 2.495409 1_455
Ca1 O5 2.495409 1_545
Ca1 O10 2.495409 1_455
Ca2 O11 2.482191 1_555
Ca2 O8 2.482191 1_555
Ca2 O3 2.484337 1_545
Ca2 O0 2.484337 1_455
Ca2 O9 2.485258 1_555
Ca2 O6 2.485258 1_555
Ca2 O5 2.507877 1_555
Ca2 O2 2.507877 1_555
Cu0 O0 1.925318 1_555
Cu0 O3 1.925318 1_555
Cu0 O5 1.938722 1_655
Cu0 O2 1.938722 1_565
Cu1 O3 1.935921 1_545
Cu1 O0 1.935921 1_455
Cu1 O1 1.935937 1_545
Cu1 O4 1.935937 1_455
Cu2 O4 1.926716 1_555
Cu2 O1 1.926716 1_555
Cu2 O5 1.938985 1_555
Cu2 O2 1.938985 1_555
Cu3 O9 1.935921 1_565
Cu3 O6 1.935921 1_655
Cu3 O8 1.935937 1_565
Cu3 O11 1.935937 1_655
Cu4 O6 1.925318 1_555
Cu4 O9 1.925318 1_555
Cu4 O10 1.938722 1_455
Cu4 O7 1.938722 1_545
Cu5 O11 1.926716 1_555
Cu5 O8 1.926716 1_555
Cu5 O10 1.938985 1_555
Cu5 O7 1.938985 1_555
Hg0 O13 2.058952 1_554
Hg0 O15 2.058952 1_445
Hg0 O18 2.727882 1_455
Hg0 O18 2.727882 1_545
Hg1 O16 2.047124 1_555
Hg1 O14 2.047150 1_554
Hg1 O18 2.660628 1_555
Hg2 O12 2.047124 1_555
Hg2 O17 2.047150 1_556
Hg2 O18 2.660628 1_556
