# generated using pymatgen
data_Nb4Fe3Si5
_symmetry_space_group_name_H-M   'P 1'
_cell_length_a   4.90008605
_cell_length_b   4.90008605
_cell_length_c   7.65986600
_cell_angle_alpha   90.00000000
_cell_angle_beta   90.00000000
_cell_angle_gamma   119.38143922
_symmetry_Int_Tables_number   1
_chemical_formula_structural   Nb4Fe3Si5
_chemical_formula_sum   'Nb4 Fe3 Si5'
_cell_volume   160.26274622
_cell_formula_units_Z   1
loop_
 _symmetry_equiv_pos_site_id
 _symmetry_equiv_pos_as_xyz
  1  'x, y, z'
loop_
 _atom_site_type_symbol
 _atom_site_label
 _atom_site_symmetry_multiplicity
 _atom_site_fract_x
 _atom_site_fract_y
 _atom_site_fract_z
 _atom_site_occupancy
  Nb  Nb0  1  0.66829600  0.33170400  0.18595900  1
  Nb  Nb1  1  0.33439900  0.66560100  0.31923200  1
  Nb  Nb2  1  0.33439900  0.66560100  0.68076800  1
  Nb  Nb3  1  0.66829600  0.33170400  0.81404100  1
  Fe  Fe0  1  0.99772000  0.00228000  0.25445400  1
  Fe  Fe1  1  0.99772000  0.00228000  0.74554600  1
  Fe  Fe2  1  0.16984300  0.83015700  0.00000000  1
  Si  Si0  1  0.16727100  0.33624800  0.00000000  1
  Si  Si1  1  0.66375200  0.83272900  0.00000000  1
  Si  Si2  1  0.83071700  0.16928300  0.50000000  1
  Si  Si3  1  0.83238300  0.66482600  0.50000000  1
  Si  Si4  1  0.33517400  0.16761700  0.50000000  1
loop_
_geom_bond_atom_site_label_1
_geom_bond_atom_site_label_2
_geom_bond_distance
_geom_bond_site_symmetry_2
Nb0 Si2 2.770355 1_555
Nb0 Si4 2.794570 1_555
Nb0 Si3 2.794570 1_555
Nb0 Si0 2.820315 1_655
Nb0 Si1 2.820315 1_545
Nb0 Si1 2.847886 1_555
Nb0 Si0 2.847886 1_555
Nb0 Nb3 2.848842 1_554
Nb0 Nb1 3.003770 1_555
Nb0 Nb1 3.021988 1_655
Nb0 Nb1 3.021988 1_545
Nb1 Nb2 2.769317 1_555
Nb1 Si3 2.807274 1_555
Nb1 Si4 2.807274 1_555
Nb1 Si0 2.820940 1_555
Nb1 Si1 2.820940 1_555
Nb1 Si4 2.821231 1_565
Nb1 Si3 2.821231 1_455
Nb1 Si2 2.834352 1_455
Nb1 Si2 2.834352 1_565
Nb2 Si3 2.807274 1_555
Nb2 Si4 2.807274 1_555
Nb2 Si0 2.820940 1_556
Nb2 Si1 2.820940 1_556
Nb2 Si4 2.821231 1_565
Nb2 Si3 2.821231 1_455
Nb2 Si2 2.834352 1_455
Nb2 Si2 2.834352 1_565
Nb2 Nb3 3.003770 1_555
Nb2 Nb3 3.021988 1_565
Nb2 Nb3 3.021988 1_455
Nb3 Si2 2.770355 1_555
Nb3 Si4 2.794570 1_555
Nb3 Si3 2.794570 1_555
Nb3 Si0 2.820315 1_656
Nb3 Si1 2.820315 1_546
Nb3 Si1 2.847886 1_556
Nb3 Si0 2.847886 1_556
Fe0 Si2 2.352450 1_555
Fe0 Si3 2.369320 1_545
Fe0 Si4 2.369320 1_655
Fe0 Si1 2.415185 1_545
Fe0 Si0 2.415185 1_655
Fe0 Fe2 2.433032 1_645
Fe0 Nb0 2.836085 1_555
Fe0 Nb1 2.875913 1_655
Fe0 Nb1 2.875913 1_545
Fe0 Nb1 2.891408 1_645
Fe0 Nb0 2.910900 1_545
Fe0 Nb0 2.910900 1_655
Fe1 Si2 2.352450 1_555
Fe1 Si3 2.369320 1_545
Fe1 Si4 2.369320 1_655
Fe1 Si1 2.415185 1_546
Fe1 Si0 2.415185 1_656
Fe1 Fe2 2.433032 1_646
Fe1 Nb3 2.836085 1_555
Fe1 Nb2 2.875913 1_655
Fe1 Nb2 2.875913 1_545
Fe1 Nb2 2.891408 1_645
Fe1 Nb3 2.910900 1_545
Fe1 Nb3 2.910900 1_655
Fe2 Si1 2.414038 1_555
Fe2 Si0 2.414038 1_555
Fe2 Si0 2.486097 1_565
Fe2 Si1 2.486097 1_455
Fe2 Nb2 2.813844 1_554
Fe2 Nb1 2.813844 1_555
Fe2 Nb3 2.853848 1_564
Fe2 Nb3 2.853848 1_454
Fe2 Nb0 2.853848 1_455
Fe2 Nb0 2.853848 1_565
Si0 Si1 2.455510 1_555
Si0 Si1 2.490318 1_445
Si2 Si4 2.424209 1_555
Si2 Si3 2.424209 1_555
Si2 Si3 2.475898 1_545
Si2 Si4 2.475898 1_655
Si3 Si4 2.459110 1_555
Si3 Si4 2.486718 1_665
