# generated using pymatgen
data_Li9Mn2Co5O16
_symmetry_space_group_name_H-M   'P 1'
_cell_length_a   3.01057200
_cell_length_b   9.87822978
_cell_length_c   9.96157481
_cell_angle_alpha   78.04971276
_cell_angle_beta   87.84438344
_cell_angle_gamma   87.64856819
_symmetry_Int_Tables_number   1
_chemical_formula_structural   Li9Mn2Co5O16
_chemical_formula_sum   'Li9 Mn2 Co5 O16'
_cell_volume   289.45552755
_cell_formula_units_Z   1
loop_
 _symmetry_equiv_pos_site_id
 _symmetry_equiv_pos_as_xyz
  1  'x, y, z'
loop_
 _atom_site_type_symbol
 _atom_site_label
 _atom_site_symmetry_multiplicity
 _atom_site_fract_x
 _atom_site_fract_y
 _atom_site_fract_z
 _atom_site_occupancy
  Li  Li0  1  0.99842500  0.25536400  0.12262900  1
  Li  Li1  1  0.49495200  0.74713200  0.12478400  1
  Li  Li2  1  0.50479200  0.25116500  0.37698900  1
  Li  Li3  1  0.00316600  0.74577600  0.37676100  1
  Li  Li4  1  0.00360600  0.25488400  0.62315800  1
  Li  Li5  1  0.49887400  0.74287600  0.62595100  1
  Li  Li6  1  0.50194400  0.25849400  0.87164700  1
  Li  Li7  1  0.99407200  0.74461100  0.87804800  1
  Li  Li8  1  0.00009500  0.50028000  0.74988500  1
  Mn  Mn0  1  0.99138200  0.00175100  0.99739800  1
  Mn  Mn1  1  0.50520000  0.00021500  0.25274800  1
  Co  Co0  1  0.49960600  0.49908300  0.99075400  1
  Co  Co1  1  0.99986000  0.49970200  0.25024200  1
  Co  Co2  1  0.00694100  0.99800000  0.50172700  1
  Co  Co3  1  0.50043100  0.50080800  0.50900300  1
  Co  Co4  1  0.48979200  0.99879200  0.74624500  1
  O  O0  1  0.52597900  0.11680000  0.06758300  1
  O  O1  1  0.03018000  0.61413100  0.07123300  1
  O  O2  1  0.03489100  0.11500700  0.32181900  1
  O  O3  1  0.49144800  0.61009700  0.32300100  1
  O  O4  1  0.53660400  0.11241200  0.56542800  1
  O  O5  1  0.02201100  0.61441700  0.55792000  1
  O  O6  1  0.98706500  0.11751300  0.81388400  1
  O  O7  1  0.50134100  0.61558400  0.83312800  1
  O  O8  1  0.50830600  0.38938600  0.17749700  1
  O  O9  1  0.96937000  0.88249500  0.18388200  1
  O  O10  1  0.96848400  0.38575200  0.42906300  1
  O  O11  1  0.48426100  0.88720400  0.43779200  1
  O  O12  1  0.49829000  0.38457000  0.66651100  1
  O  O13  1  0.00586700  0.88455100  0.68170900  1
  O  O14  1  0.97933500  0.38569500  0.94187800  1
  O  O15  1  0.46342800  0.88545100  0.92970400  1
loop_
_geom_bond_atom_site_label_1
_geom_bond_atom_site_label_2
_geom_bond_distance
_geom_bond_site_symmetry_2
Li0 O14 1.986091 1_554
Li0 O8 2.075419 1_555
Li0 O0 2.174048 1_555
Li0 O2 2.176281 1_655
Li0 O0 2.182574 1_655
Li0 O8 2.222008 1_655
Li1 O1 2.113236 1_555
Li1 O15 2.134473 1_554
Li1 O3 2.150366 1_555
Li1 O1 2.158464 1_655
Li1 O9 2.172661 1_555
Li1 O9 2.172677 1_455
Li2 O4 2.085367 1_555
Li2 O10 2.116067 1_555
Li2 O2 2.152462 1_555
Li2 O8 2.165522 1_555
Li2 O10 2.165636 1_455
Li2 O2 2.173008 1_655
Li3 O5 1.993883 1_555
Li3 O3 2.078555 1_555
Li3 O9 2.110646 1_455
Li3 O11 2.205237 1_455
Li3 O3 2.232754 1_455
Li3 O11 2.236783 1_555
Li4 O12 2.040033 1_455
Li4 O6 2.093886 1_455
Li4 O10 2.095187 1_455
Li4 O12 2.116520 1_555
Li4 O4 2.201466 1_455
Li4 O4 2.228607 1_555
Li5 O11 2.107650 1_555
Li5 O13 2.135299 1_555
Li5 O5 2.159117 1_655
Li5 O5 2.170102 1_555
Li5 O7 2.183155 1_555
Li5 O13 2.271077 1_655
Li6 O6 2.122575 1_555
Li6 O0 2.155213 1_556
Li6 O14 2.159342 1_455
Li6 O12 2.161850 1_555
Li6 O14 2.172965 1_555
Li6 O6 2.291155 1_455
Li7 O7 2.045003 1_655
Li7 O1 2.086520 1_656
Li7 O7 2.113405 1_555
Li7 O13 2.148639 1_655
Li7 O15 2.170139 1_655
Li7 O15 2.191976 1_555
Li8 O5 2.009000 1_555
Li8 O14 2.010787 1_455
Li8 O7 2.096827 1_455
Li8 O12 2.098706 1_555
Li8 O7 2.210984 1_555
Li8 O12 2.215345 1_455
Mn0 O6 1.945399 1_555
Mn0 O0 1.966790 1_556
Mn0 O15 1.977102 1_645
Mn0 O9 1.983428 1_546
Mn0 O15 2.202768 1_545
Mn0 O0 2.221374 1_656
Mn1 O11 1.947541 1_545
Mn1 O0 1.962154 1_555
Mn1 O2 1.970301 1_555
Mn1 O9 1.974981 1_545
Mn1 O2 2.203692 1_655
Mn1 O9 2.234432 1_445
Co0 O7 1.743990 1_555
Co0 O14 1.902025 1_555
Co0 O8 1.949870 1_556
Co0 O1 2.022825 1_556
Co0 O14 2.090963 1_455
Co0 O1 2.260168 1_656
Co1 O10 1.901267 1_555
Co1 O1 1.904564 1_655
Co1 O8 2.040200 1_655
Co1 O3 2.040638 1_555
Co1 O8 2.107757 1_555
Co1 O3 2.108380 1_655
Co2 O13 1.907407 1_555
Co2 O2 1.921893 1_565
Co2 O11 1.938877 1_555
Co2 O4 1.945017 1_465
Co2 O11 2.141258 1_455
Co2 O4 2.178006 1_565
Co3 O12 1.741858 1_555
Co3 O5 1.900647 1_555
Co3 O3 1.942254 1_555
Co3 O10 2.017535 1_555
Co3 O5 2.095530 1_655
Co3 O10 2.260681 1_455
Co4 O4 1.918499 1_565
Co4 O15 1.936169 1_555
Co4 O13 2.045033 1_655
Co4 O6 2.055453 1_465
Co4 O13 2.077294 1_555
Co4 O6 2.148900 1_565
