# generated using pymatgen
data_Nd3Y
_symmetry_space_group_name_H-M   'P 1'
_cell_length_a   7.36147251
_cell_length_b   7.36147706
_cell_length_c   23.67011524
_cell_angle_alpha   90.00000000
_cell_angle_beta   90.00000000
_cell_angle_gamma   59.99996029
_symmetry_Int_Tables_number   1
_chemical_formula_structural   Nd3Y
_chemical_formula_sum   'Nd24 Y8'
_cell_volume   1110.86296432
_cell_formula_units_Z   8
loop_
 _symmetry_equiv_pos_site_id
 _symmetry_equiv_pos_as_xyz
  1  'x, y, z'
loop_
 _atom_site_type_symbol
 _atom_site_label
 _atom_site_symmetry_multiplicity
 _atom_site_fract_x
 _atom_site_fract_y
 _atom_site_fract_z
 _atom_site_occupancy
  Nd  Nd0_0  1  0.33327331  0.33336360  0.12500000  1
  Nd  Nd0_1  1  0.33327331  0.33336360  0.62500000  1
  Nd  Nd0_2  1  0.33327331  0.83336360  0.12500000  1
  Nd  Nd0_3  1  0.33327331  0.83336360  0.62500000  1
  Nd  Nd0_4  1  0.83327331  0.33336360  0.12500000  1
  Nd  Nd0_5  1  0.83327331  0.33336360  0.62500000  1
  Nd  Nd0_6  1  0.83327330  0.83336360  0.12500000  1
  Nd  Nd0_7  1  0.83327330  0.83336360  0.62500000  1
  Nd  Nd1_0  1  0.00000631  0.49999659  0.25171147  1
  Nd  Nd1_1  1  0.00000631  0.49999659  0.75171147  1
  Nd  Nd1_2  1  0.00000631  0.99999660  0.25171147  1
  Nd  Nd1_3  1  0.00000631  0.99999660  0.75171147  1
  Nd  Nd1_4  1  0.50000632  0.49999660  0.25171147  1
  Nd  Nd1_5  1  0.50000632  0.49999660  0.75171147  1
  Nd  Nd1_6  1  0.50000631  0.99999659  0.25171147  1
  Nd  Nd1_7  1  0.50000631  0.99999659  0.75171147  1
  Nd  Nd2_0  1  0.00000631  0.49999659  0.49828853  1
  Nd  Nd2_1  1  0.00000631  0.49999659  0.99828853  1
  Nd  Nd2_2  1  0.00000631  0.99999660  0.49828853  1
  Nd  Nd2_3  1  0.00000631  0.99999660  0.99828853  1
  Nd  Nd2_4  1  0.50000632  0.49999660  0.49828853  1
  Nd  Nd2_5  1  0.50000632  0.49999660  0.99828853  1
  Nd  Nd2_6  1  0.50000631  0.99999659  0.49828853  1
  Nd  Nd2_7  1  0.50000631  0.99999659  0.99828853  1
  Y  Y0_0  1  0.16671457  0.16664272  0.37500000  1
  Y  Y0_1  1  0.16671457  0.16664272  0.87500000  1
  Y  Y0_2  1  0.16671457  0.66664271  0.37500000  1
  Y  Y0_3  1  0.16671457  0.66664271  0.87500000  1
  Y  Y0_4  1  0.66671457  0.16664272  0.37500000  1
  Y  Y0_5  1  0.66671457  0.16664272  0.87500000  1
  Y  Y0_6  1  0.66671457  0.66664272  0.37500000  1
  Y  Y0_7  1  0.66671457  0.66664272  0.87500000  1
loop_
_geom_bond_atom_site_label_1
_geom_bond_atom_site_label_2
_geom_bond_distance
_geom_bond_site_symmetry_2
Nd0_0 Nd1_0 3.675567 1_555
Nd0_0 Nd2_1 3.675567 1_554
Nd0_0 Nd1_4 3.675933 1_555
Nd0_0 Nd2_5 3.675933 1_554
Nd0_0 Nd1_6 3.675936 1_545
Nd0_0 Nd2_7 3.675936 1_544
Nd0_0 Nd0_6 3.680735 1_545
Nd0_0 Nd0_6 3.680735 1_455
Nd0_0 Nd0_4 3.680736 1_455
Nd0_0 Nd0_4 3.680736 1_555
Nd0_0 Nd0_2 3.680739 1_555
Nd0_0 Nd0_2 3.680739 1_545
Nd0_1 Nd1_1 3.675567 1_555
Nd0_1 Nd2_0 3.675567 1_555
Nd0_1 Nd1_5 3.675933 1_555
Nd0_1 Nd2_4 3.675933 1_555
Nd0_1 Nd1_7 3.675936 1_545
Nd0_1 Nd2_6 3.675936 1_545
Nd0_1 Nd0_7 3.680735 1_545
Nd0_1 Nd0_7 3.680735 1_455
Nd0_1 Nd0_5 3.680736 1_455
Nd0_1 Nd0_5 3.680736 1_555
Nd0_1 Nd0_3 3.680739 1_545
Nd0_1 Nd0_3 3.680739 1_555
Nd0_2 Nd1_2 3.675567 1_555
Nd0_2 Nd2_3 3.675567 1_554
Nd0_2 Nd1_6 3.675933 1_555
Nd0_2 Nd2_7 3.675933 1_554
Nd0_2 Nd1_4 3.675936 1_555
Nd0_2 Nd2_5 3.675936 1_554
Nd0_2 Nd0_4 3.680735 1_465
Nd0_2 Nd0_4 3.680735 1_555
Nd0_2 Nd0_6 3.680736 1_555
Nd0_2 Nd0_6 3.680736 1_455
Nd0_3 Nd2_2 3.675567 1_555
Nd0_3 Nd1_3 3.675567 1_555
Nd0_3 Nd2_6 3.675933 1_555
Nd0_3 Nd1_7 3.675933 1_555
Nd0_3 Nd1_5 3.675936 1_555
Nd0_3 Nd2_4 3.675936 1_555
Nd0_3 Nd0_5 3.680735 1_465
Nd0_3 Nd0_5 3.680735 1_555
Nd0_3 Nd0_7 3.680736 1_555
Nd0_3 Nd0_7 3.680736 1_455
Nd0_4 Nd1_4 3.675567 1_555
Nd0_4 Nd2_5 3.675567 1_554
Nd0_4 Nd1_0 3.675933 1_655
Nd0_4 Nd2_1 3.675933 1_654
Nd0_4 Nd1_2 3.675936 1_645
Nd0_4 Nd2_3 3.675936 1_644
Nd0_4 Nd0_6 3.680739 1_545
Nd0_4 Nd0_6 3.680739 1_555
Nd0_5 Nd2_4 3.675567 1_555
Nd0_5 Nd1_5 3.675567 1_555
Nd0_5 Nd1_1 3.675933 1_655
Nd0_5 Nd2_0 3.675933 1_655
Nd0_5 Nd1_3 3.675936 1_645
Nd0_5 Nd2_2 3.675936 1_645
Nd0_5 Nd0_7 3.680739 1_545
Nd0_5 Nd0_7 3.680739 1_555
Nd0_6 Nd1_6 3.675567 1_555
Nd0_6 Nd2_7 3.675567 1_554
Nd0_6 Nd1_2 3.675933 1_655
Nd0_6 Nd2_3 3.675933 1_654
Nd0_6 Nd1_0 3.675936 1_655
Nd0_6 Nd2_1 3.675936 1_654
Nd0_7 Nd2_6 3.675567 1_555
Nd0_7 Nd1_7 3.675567 1_555
Nd0_7 Nd1_3 3.675933 1_655
Nd0_7 Nd2_2 3.675933 1_655
Nd0_7 Nd2_0 3.675936 1_655
Nd0_7 Nd1_1 3.675936 1_655
Nd1_0 Y0_6 3.609850 1_455
Nd1_0 Y0_0 3.610084 1_555
Nd1_0 Y0_2 3.610086 1_555
Nd1_0 Nd1_6 3.680735 1_545
Nd1_0 Nd1_6 3.680735 1_455
Nd1_0 Nd1_4 3.680736 1_455
Nd1_0 Nd1_4 3.680736 1_555
Nd1_0 Nd1_2 3.680739 1_545
Nd1_0 Nd1_2 3.680739 1_555
Nd1_1 Y0_7 3.609850 1_455
Nd1_1 Y0_1 3.610084 1_555
Nd1_1 Y0_3 3.610086 1_555
Nd1_1 Nd1_7 3.680735 1_545
Nd1_1 Nd1_7 3.680735 1_455
Nd1_1 Nd1_5 3.680736 1_455
Nd1_1 Nd1_5 3.680736 1_555
Nd1_1 Nd1_3 3.680739 1_545
Nd1_1 Nd1_3 3.680739 1_555
Nd1_2 Y0_4 3.609850 1_465
Nd1_2 Y0_2 3.610084 1_555
Nd1_2 Y0_0 3.610086 1_565
Nd1_2 Nd1_4 3.680735 1_465
Nd1_2 Nd1_4 3.680735 1_555
Nd1_2 Nd1_6 3.680736 1_555
Nd1_2 Nd1_6 3.680736 1_455
Nd1_3 Y0_5 3.609850 1_465
Nd1_3 Y0_3 3.610084 1_555
Nd1_3 Y0_1 3.610086 1_565
Nd1_3 Nd1_5 3.680735 1_555
Nd1_3 Nd1_5 3.680735 1_465
Nd1_3 Nd1_7 3.680736 1_555
Nd1_3 Nd1_7 3.680736 1_455
Nd1_4 Y0_2 3.609850 1_555
Nd1_4 Y0_4 3.610084 1_555
Nd1_4 Y0_6 3.610086 1_555
Nd1_4 Nd1_6 3.680739 1_555
Nd1_4 Nd1_6 3.680739 1_545
Nd1_5 Y0_3 3.609850 1_555
Nd1_5 Y0_5 3.610084 1_555
Nd1_5 Y0_7 3.610086 1_555
Nd1_5 Nd1_7 3.680739 1_555
Nd1_5 Nd1_7 3.680739 1_545
Nd1_6 Y0_0 3.609850 1_565
Nd1_6 Y0_6 3.610084 1_555
Nd1_6 Y0_4 3.610086 1_565
Nd1_7 Y0_1 3.609850 1_565
Nd1_7 Y0_7 3.610084 1_555
Nd1_7 Y0_5 3.610086 1_565
Nd2_0 Y0_6 3.609850 1_455
Nd2_0 Y0_0 3.610084 1_555
Nd2_0 Y0_2 3.610086 1_555
Nd2_0 Nd2_6 3.680735 1_545
Nd2_0 Nd2_6 3.680735 1_455
Nd2_0 Nd2_4 3.680736 1_455
Nd2_0 Nd2_4 3.680736 1_555
Nd2_0 Nd2_2 3.680739 1_545
Nd2_0 Nd2_2 3.680739 1_555
Nd2_1 Y0_7 3.609850 1_455
Nd2_1 Y0_1 3.610084 1_555
Nd2_1 Y0_3 3.610086 1_555
Nd2_1 Nd2_7 3.680735 1_545
Nd2_1 Nd2_7 3.680735 1_455
Nd2_1 Nd2_5 3.680736 1_455
Nd2_1 Nd2_5 3.680736 1_555
Nd2_1 Nd2_3 3.680739 1_545
Nd2_1 Nd2_3 3.680739 1_555
Nd2_2 Y0_4 3.609850 1_465
Nd2_2 Y0_2 3.610084 1_555
Nd2_2 Y0_0 3.610086 1_565
Nd2_2 Nd2_4 3.680735 1_555
Nd2_2 Nd2_4 3.680735 1_465
Nd2_2 Nd2_6 3.680736 1_555
Nd2_2 Nd2_6 3.680736 1_455
Nd2_3 Y0_5 3.609850 1_465
Nd2_3 Y0_3 3.610084 1_555
Nd2_3 Y0_1 3.610086 1_565
Nd2_3 Nd2_5 3.680735 1_465
Nd2_3 Nd2_5 3.680735 1_555
Nd2_3 Nd2_7 3.680736 1_555
Nd2_3 Nd2_7 3.680736 1_455
Nd2_4 Y0_2 3.609850 1_555
Nd2_4 Y0_4 3.610084 1_555
Nd2_4 Y0_6 3.610086 1_555
Nd2_4 Nd2_6 3.680739 1_555
Nd2_4 Nd2_6 3.680739 1_545
Nd2_5 Y0_3 3.609850 1_555
Nd2_5 Y0_5 3.610084 1_555
Nd2_5 Y0_7 3.610086 1_555
Nd2_5 Nd2_7 3.680739 1_555
Nd2_5 Nd2_7 3.680739 1_545
Nd2_6 Y0_0 3.609850 1_565
Nd2_6 Y0_6 3.610084 1_555
Nd2_6 Y0_4 3.610086 1_565
Nd2_7 Y0_1 3.609850 1_565
Nd2_7 Y0_7 3.610084 1_555
Nd2_7 Y0_5 3.610086 1_565
Y0_0 Y0_6 3.680735 1_545
Y0_0 Y0_6 3.680735 1_455
Y0_0 Y0_4 3.680736 1_455
Y0_0 Y0_4 3.680736 1_555
Y0_0 Y0_2 3.680739 1_555
Y0_0 Y0_2 3.680739 1_545
Y0_1 Y0_7 3.680735 1_545
Y0_1 Y0_7 3.680735 1_455
Y0_1 Y0_5 3.680736 1_555
Y0_1 Y0_5 3.680736 1_455
Y0_1 Y0_3 3.680739 1_555
Y0_1 Y0_3 3.680739 1_545
Y0_2 Y0_4 3.680735 1_555
Y0_2 Y0_4 3.680735 1_465
Y0_2 Y0_6 3.680736 1_455
Y0_2 Y0_6 3.680736 1_555
Y0_3 Y0_5 3.680735 1_555
Y0_3 Y0_5 3.680735 1_465
Y0_3 Y0_7 3.680736 1_455
Y0_3 Y0_7 3.680736 1_555
Y0_4 Y0_6 3.680739 1_545
Y0_4 Y0_6 3.680739 1_555
Y0_5 Y0_7 3.680739 1_545
Y0_5 Y0_7 3.680739 1_555
