# generated using pymatgen
data_Li9Mn2Co5O16
_symmetry_space_group_name_H-M   'P 1'
_cell_length_a   11.33505300
_cell_length_b   5.18389500
_cell_length_c   5.21193958
_cell_angle_alpha   67.51091001
_cell_angle_beta   90.00000000
_cell_angle_gamma   90.00000000
_symmetry_Int_Tables_number   1
_chemical_formula_structural   Li9Mn2Co5O16
_chemical_formula_sum   'Li9 Mn2 Co5 O16'
_cell_volume   282.96238949
_cell_formula_units_Z   1
loop_
 _symmetry_equiv_pos_site_id
 _symmetry_equiv_pos_as_xyz
  1  'x, y, z'
loop_
 _atom_site_type_symbol
 _atom_site_label
 _atom_site_symmetry_multiplicity
 _atom_site_fract_x
 _atom_site_fract_y
 _atom_site_fract_z
 _atom_site_occupancy
  Li  Li0  1  0.12474100  0.50000000  0.00000000  1
  Li  Li1  1  0.24716200  0.50000000  0.50000000  1
  Li  Li2  1  0.37516800  0.50000000  0.00000000  1
  Li  Li3  1  0.50344800  0.50000000  0.50000000  1
  Li  Li4  1  0.62539800  0.50000000  0.00000000  1
  Li  Li5  1  0.75297200  0.50000000  0.50000000  1
  Li  Li6  1  0.87304100  0.50000000  0.00000000  1
  Li  Li7  1  0.99628600  0.50000000  0.50000000  1
  Li  Li8  1  0.87450000  0.00000000  0.50000000  1
  Mn  Mn0  1  0.99931200  0.00000000  0.00000000  1
  Mn  Mn1  1  0.37507900  0.00000000  0.50000000  1
  Co  Co0  1  0.12344900  0.00000000  0.50000000  1
  Co  Co1  1  0.24956700  0.00000000  0.00000000  1
  Co  Co2  1  0.50218100  0.00000000  0.00000000  1
  Co  Co3  1  0.62796000  0.00000000  0.50000000  1
  Co  Co4  1  0.74989700  0.00000000  0.00000000  1
  O  O0  1  0.12435900  0.23293900  0.77102200  1
  O  O1  1  0.24842200  0.22885000  0.26871100  1
  O  O2  1  0.37568500  0.23022800  0.78059500  1
  O  O3  1  0.50269000  0.22875000  0.27073400  1
  O  O4  1  0.62710800  0.23069400  0.77744100  1
  O  O5  1  0.74279100  0.20511700  0.23973700  1
  O  O6  1  0.87342800  0.23684600  0.78231300  1
  O  O7  1  0.00543700  0.21121200  0.24314700  1
  O  O8  1  0.12435900  0.76706100  0.22897800  1
  O  O9  1  0.24842200  0.77115000  0.73128900  1
  O  O10  1  0.37568500  0.76977200  0.21940500  1
  O  O11  1  0.50269000  0.77125000  0.72926600  1
  O  O12  1  0.62710800  0.76930600  0.22255900  1
  O  O13  1  0.74279100  0.79488300  0.76026300  1
  O  O14  1  0.87342800  0.76315400  0.21768700  1
  O  O15  1  0.00543700  0.78878800  0.75685300  1
loop_
_geom_bond_atom_site_label_1
_geom_bond_atom_site_label_2
_geom_bond_distance
_geom_bond_site_symmetry_2
Li0 O15 2.055364 1_554
Li0 O7 2.055364 1_555
Li0 O1 2.096804 1_555
Li0 O9 2.096804 1_554
Li0 O8 2.145886 1_555
Li0 O0 2.145886 1_554
Li1 O8 2.086499 1_555
Li1 O0 2.086499 1_555
Li1 O10 2.156890 1_555
Li1 O2 2.156890 1_555
Li1 O9 2.173787 1_555
Li1 O1 2.173787 1_555
Li2 O2 2.118208 1_554
Li2 O10 2.118208 1_555
Li2 O1 2.120190 1_555
Li2 O9 2.120190 1_554
Li2 O3 2.130672 1_555
Li2 O11 2.130672 1_554
Li3 O12 2.111943 1_555
Li3 O4 2.111943 1_555
Li3 O10 2.151081 1_555
Li3 O2 2.151081 1_555
Li3 O11 2.165757 1_555
Li3 O3 2.165757 1_555
Li4 O13 2.051202 1_554
Li4 O5 2.051202 1_555
Li4 O3 2.094037 1_555
Li4 O11 2.094037 1_554
Li4 O12 2.129249 1_555
Li4 O4 2.129249 1_554
Li5 O14 2.086778 1_555
Li5 O6 2.086778 1_555
Li5 O12 2.128606 1_555
Li5 O4 2.128606 1_555
Li5 O5 2.403414 1_555
Li5 O13 2.403414 1_555
Li6 O14 2.081407 1_555
Li6 O6 2.081407 1_554
Li6 O13 2.148607 1_554
Li6 O5 2.148607 1_555
Li6 O15 2.155901 1_654
Li6 O7 2.155901 1_655
Li7 O6 2.104693 1_555
Li7 O14 2.104693 1_555
Li7 O8 2.126817 1_655
Li7 O0 2.126817 1_655
Li7 O7 2.361609 1_655
Li7 O15 2.361609 1_655
Li8 O7 2.018018 1_655
Li8 O15 2.018018 1_645
Li8 O13 2.023873 1_545
Li8 O5 2.023873 1_555
Li8 O14 2.248258 1_545
Li8 O6 2.248258 1_555
Mn0 O14 1.940382 1_545
Mn0 O6 1.940382 1_554
Mn0 O0 1.946533 1_654
Mn0 O8 1.946533 1_645
Mn0 O15 1.967505 1_644
Mn0 O7 1.967505 1_655
Mn1 O1 1.956433 1_555
Mn1 O9 1.956433 1_545
Mn1 O11 1.960178 1_545
Mn1 O3 1.960178 1_555
Mn1 O2 2.213240 1_555
Mn1 O10 2.213240 1_545
Co0 O15 1.912846 1_545
Co0 O7 1.912846 1_555
Co0 O9 1.942469 1_545
Co0 O1 1.942469 1_555
Co0 O0 2.181381 1_555
Co0 O8 2.181381 1_545
Co1 O10 1.931733 1_545
Co1 O2 1.931733 1_554
Co1 O0 1.947862 1_554
Co1 O8 1.947862 1_545
Co1 O9 2.154071 1_544
Co1 O1 2.154071 1_555
Co2 O12 1.928643 1_545
Co2 O4 1.928643 1_554
Co2 O2 1.934906 1_554
Co2 O10 1.934906 1_545
Co2 O11 2.162709 1_544
Co2 O3 2.162709 1_555
Co3 O5 1.887175 1_555
Co3 O13 1.887175 1_545
Co3 O11 1.940680 1_545
Co3 O3 1.940680 1_555
Co3 O12 2.200932 1_545
Co3 O4 2.200932 1_555
Co4 O12 1.910920 1_545
Co4 O4 1.910920 1_554
Co4 O14 1.920854 1_545
Co4 O6 1.920854 1_554
Co4 O13 1.927365 1_544
Co4 O5 1.927365 1_555
