# generated using pymatgen
data_LiCu6OF11
_symmetry_space_group_name_H-M   'P 1'
_cell_length_a   5.41804151
_cell_length_b   4.62303571
_cell_length_c   9.27759099
_cell_angle_alpha   92.33780714
_cell_angle_beta   94.37375514
_cell_angle_gamma   87.03406288
_symmetry_Int_Tables_number   1
_chemical_formula_structural   LiCu6OF11
_chemical_formula_sum   'Li1 Cu6 O1 F11'
_cell_volume   231.23764678
_cell_formula_units_Z   1
loop_
 _symmetry_equiv_pos_site_id
 _symmetry_equiv_pos_as_xyz
  1  'x, y, z'
loop_
 _atom_site_type_symbol
 _atom_site_label
 _atom_site_symmetry_multiplicity
 _atom_site_fract_x
 _atom_site_fract_y
 _atom_site_fract_z
 _atom_site_occupancy
  Li  Li0  1  0.24592000  0.24320300  0.88131600  1
  Cu  Cu0  1  0.95679300  0.95561400  0.02581200  1
  Cu  Cu1  1  0.48894100  0.65224700  0.06362600  1
  Cu  Cu2  1  0.34061400  0.98747700  0.33572400  1
  Cu  Cu3  1  0.82364100  0.49490100  0.33152300  1
  Cu  Cu4  1  0.18256300  0.51269600  0.63696400  1
  Cu  Cu5  1  0.68490000  0.01979100  0.65247500  1
  O  O0  1  0.55047200  0.70788500  0.25655700  1
  F  F0  1  0.26520500  0.14109100  0.07463800  1
  F  F1  1  0.05108300  0.77819200  0.25731100  1
  F  F2  1  0.77035300  0.29186800  0.09235100  1
  F  F3  1  0.12201100  0.28763600  0.41317000  1
  F  F4  1  0.61902700  0.21107700  0.41744900  1
  F  F5  1  0.39345800  0.80750900  0.58386400  1
  F  F6  1  0.88880000  0.72260000  0.56659600  1
  F  F7  1  0.46352800  0.30929800  0.73586200  1
  F  F8  1  0.18527300  0.65569700  0.92591700  1
  F  F9  1  0.98044800  0.22622400  0.72547800  1
  F  F10  1  0.67446900  0.81443900  0.91399000  1
loop_
_geom_bond_atom_site_label_1
_geom_bond_atom_site_label_2
_geom_bond_distance
_geom_bond_site_symmetry_2
Cu0 F10 1.909994 1_554
Cu0 F2 1.916326 1_565
Cu0 F0 1.932301 1_665
Cu0 F8 2.050939 1_654
Cu0 F1 2.340856 1_655
Cu1 O0 1.805953 1_555
Cu1 F10 1.968677 1_554
Cu1 F8 2.004454 1_554
Cu1 F2 2.209710 1_555
Cu1 F0 2.510735 1_565
Cu2 O0 1.844134 1_555
Cu2 F3 1.929509 1_565
Cu2 F4 1.960063 1_565
Cu2 F1 1.962581 1_555
Cu2 F5 2.470856 1_555
Cu2 F0 2.549101 1_565
Cu3 O0 1.841685 1_555
Cu3 F3 1.953817 1_655
Cu3 F4 1.989186 1_555
Cu3 F1 2.019354 1_655
Cu3 F2 2.376655 1_555
Cu3 F6 2.392244 1_555
Cu4 F6 1.906434 1_455
Cu4 F5 1.925537 1_555
Cu4 F7 1.937168 1_555
Cu4 F9 2.000865 1_455
Cu4 F3 2.292656 1_555
Cu5 F6 1.905466 1_545
Cu5 F7 1.928554 1_555
Cu5 F5 1.953916 1_545
Cu5 F9 1.968154 1_555
Cu5 F4 2.381140 1_555
F0 Li0 1.867088 1_554
F7 Li0 1.902123 1_555
F8 Li0 1.951221 1_555
F9 Li0 1.962285 1_655
