# generated using pymatgen
data_K3Al5P8(H21O25)2
_symmetry_space_group_name_H-M   'P 1'
_cell_length_a   8.77184646
_cell_length_b   8.77184600
_cell_length_c   32.41032825
_cell_angle_alpha   82.22259486
_cell_angle_beta   82.22259472
_cell_angle_gamma   60.00000172
_symmetry_Int_Tables_number   1
_chemical_formula_structural   K3Al5P8(H21O25)2
_chemical_formula_sum   'K6 Al10 P16 H84 O100'
_cell_volume   2133.18332592
_cell_formula_units_Z   2
loop_
 _symmetry_equiv_pos_site_id
 _symmetry_equiv_pos_as_xyz
  1  'x, y, z'
loop_
 _atom_site_type_symbol
 _atom_site_label
 _atom_site_symmetry_multiplicity
 _atom_site_fract_x
 _atom_site_fract_y
 _atom_site_fract_z
 _atom_site_occupancy
  K  K0  1  0.75000000  0.17243900  0.75000000  1
  K  K1  1  0.32756100  0.75000000  0.75000000  1
  K  K2  1  0.17243900  0.32756100  0.75000000  1
  K  K3  1  0.67243900  0.25000000  0.25000000  1
  K  K4  1  0.82756100  0.67243900  0.25000000  1
  K  K5  1  0.25000000  0.82756100  0.25000000  1
  Al  Al0  1  0.75000000  0.75000000  0.75000000  1
  Al  Al1  1  0.25000000  0.25000000  0.25000000  1
  Al  Al2  1  0.04887700  0.04887700  0.85336800  1
  Al  Al3  1  0.54887700  0.54887700  0.35336800  1
  Al  Al4  1  0.95112300  0.95112300  0.14663200  1
  Al  Al5  1  0.45112300  0.45112300  0.64663200  1
  Al  Al6  1  0.70270200  0.70270200  0.89189500  1
  Al  Al7  1  0.20270200  0.20270200  0.39189500  1
  Al  Al8  1  0.29729800  0.29729800  0.10810500  1
  Al  Al9  1  0.79729800  0.79729800  0.60810500  1
  P  P0  1  0.77535100  0.44373900  0.81932400  1
  P  P1  1  0.96158500  0.77535100  0.81932400  1
  P  P2  1  0.44373900  0.96158500  0.81932400  1
  P  P3  1  0.94373900  0.27535100  0.31932400  1
  P  P4  1  0.46158500  0.94373900  0.31932400  1
  P  P5  1  0.27535100  0.46158500  0.31932400  1
  P  P6  1  0.22464900  0.55626100  0.18067600  1
  P  P7  1  0.03841500  0.22464900  0.18067600  1
  P  P8  1  0.55626100  0.03841500  0.18067600  1
  P  P9  1  0.05626100  0.72464900  0.68067600  1
  P  P10  1  0.53841500  0.05626100  0.68067600  1
  P  P11  1  0.72464900  0.53841500  0.68067600  1
  P  P12  1  0.36478400  0.36478400  0.90564700  1
  P  P13  1  0.86478400  0.86478400  0.40564700  1
  P  P14  1  0.63521600  0.63521600  0.09435300  1
  P  P15  1  0.13521600  0.13521600  0.59435300  1
  H  H0  1  0.43555700  0.21418500  0.83166800  1
  H  H1  1  0.51859000  0.43555700  0.83166800  1
  H  H2  1  0.21418500  0.51859000  0.83166800  1
  H  H3  1  0.71418500  0.93555700  0.33166800  1
  H  H4  1  0.01859000  0.71418500  0.33166800  1
  H  H5  1  0.93555700  0.01859000  0.33166800  1
  H  H6  1  0.56444300  0.78581500  0.16833200  1
  H  H7  1  0.48141000  0.56444300  0.16833200  1
  H  H8  1  0.78581500  0.48141000  0.16833200  1
  H  H9  1  0.28581500  0.06444300  0.66833200  1
  H  H10  1  0.98141000  0.28581500  0.66833200  1
  H  H11  1  0.06444300  0.98141000  0.66833200  1
  H  H12  1  0.17173100  0.19034800  0.90041200  1
  H  H13  1  0.73750900  0.17173100  0.90041200  1
  H  H14  1  0.19034800  0.73750900  0.90041200  1
  H  H15  1  0.69034800  0.67173100  0.40041200  1
  H  H16  1  0.23750900  0.69034800  0.40041200  1
  H  H17  1  0.67173100  0.23750900  0.40041200  1
  H  H18  1  0.82826900  0.80965200  0.09958800  1
  H  H19  1  0.26249100  0.82826900  0.09958800  1
  H  H20  1  0.80965200  0.26249100  0.09958800  1
  H  H21  1  0.30965200  0.32826900  0.59958800  1
  H  H22  1  0.76249100  0.30965200  0.59958800  1
  H  H23  1  0.32826900  0.76249100  0.59958800  1
  H  H24  1  0.97283600  0.32425100  0.88758500  1
  H  H25  1  0.81532800  0.97283600  0.88758500  1
  H  H26  1  0.32425100  0.81532800  0.88758500  1
  H  H27  1  0.82425100  0.47283600  0.38758500  1
  H  H28  1  0.31532800  0.82425100  0.38758500  1
  H  H29  1  0.47283600  0.31532800  0.38758500  1
  H  H30  1  0.02716400  0.67574900  0.11241500  1
  H  H31  1  0.18467200  0.02716400  0.11241500  1
  H  H32  1  0.67574900  0.18467200  0.11241500  1
  H  H33  1  0.17574900  0.52716400  0.61241500  1
  H  H34  1  0.68467200  0.17574900  0.61241500  1
  H  H35  1  0.52716400  0.68467200  0.61241500  1
  H  H36  1  0.67602500  0.87881400  0.95504900  1
  H  H37  1  0.49011200  0.67602500  0.95504900  1
  H  H38  1  0.87881400  0.49011200  0.95504900  1
  H  H39  1  0.37881400  0.17602500  0.45504900  1
  H  H40  1  0.99011200  0.37881400  0.45504900  1
  H  H41  1  0.17602500  0.99011200  0.45504900  1
  H  H42  1  0.32397500  0.12118600  0.04495100  1
  H  H43  1  0.50988800  0.32397500  0.04495100  1
  H  H44  1  0.12118600  0.50988800  0.04495100  1
  H  H45  1  0.62118600  0.82397500  0.54495100  1
  H  H46  1  0.00988800  0.62118600  0.54495100  1
  H  H47  1  0.82397500  0.00988800  0.54495100  1
  H  H48  1  0.51644600  0.00979400  0.92382500  1
  H  H49  1  0.54993500  0.51644600  0.92382500  1
  H  H50  1  0.00979400  0.54993500  0.92382500  1
  H  H51  1  0.50979400  0.01644600  0.42382500  1
  H  H52  1  0.04993500  0.50979400  0.42382500  1
  H  H53  1  0.01644600  0.04993500  0.42382500  1
  H  H54  1  0.48355400  0.99020600  0.07617500  1
  H  H55  1  0.45006500  0.48355400  0.07617500  1
  H  H56  1  0.99020600  0.45006500  0.07617500  1
  H  H57  1  0.49020600  0.98355400  0.57617500  1
  H  H58  1  0.95006500  0.49020600  0.57617500  1
  H  H59  1  0.98355400  0.95006500  0.57617500  1
  H  H60  1  0.28163900  0.15975900  0.97264300  1
  H  H61  1  0.58595900  0.28163900  0.97264300  1
  H  H62  1  0.15975900  0.58595900  0.97264300  1
  H  H63  1  0.65975900  0.78163900  0.47264300  1
  H  H64  1  0.08595900  0.65975900  0.47264300  1
  H  H65  1  0.78163900  0.08595900  0.47264300  1
  H  H66  1  0.71836100  0.84024100  0.02735700  1
  H  H67  1  0.41404100  0.71836100  0.02735700  1
  H  H68  1  0.84024100  0.41404100  0.02735700  1
  H  H69  1  0.34024100  0.21836100  0.52735700  1
  H  H70  1  0.91404100  0.34024100  0.52735700  1
  H  H71  1  0.21836100  0.91404100  0.52735700  1
  H  H72  1  0.31039500  0.89104000  0.99819300  1
  H  H73  1  0.80037200  0.31039500  0.99819300  1
  H  H74  1  0.89104000  0.80037200  0.99819300  1
  H  H75  1  0.39104000  0.81039500  0.49819300  1
  H  H76  1  0.30037200  0.39104000  0.49819300  1
  H  H77  1  0.81039500  0.30037200  0.49819300  1
  H  H78  1  0.68960500  0.10896000  0.00180700  1
  H  H79  1  0.19962800  0.68960500  0.00180700  1
  H  H80  1  0.10896000  0.19962800  0.00180700  1
  H  H81  1  0.60896000  0.18960500  0.50180700  1
  H  H82  1  0.69962800  0.60896000  0.50180700  1
  H  H83  1  0.18960500  0.69962800  0.50180700  1
  O  O0  1  0.83807400  0.53320400  0.78313100  1
  O  O1  1  0.84559100  0.83807400  0.78313100  1
  O  O2  1  0.53320400  0.84559100  0.78313100  1
  O  O3  1  0.03320400  0.33807400  0.28313100  1
  O  O4  1  0.34559100  0.03320400  0.28313100  1
  O  O5  1  0.33807400  0.34559100  0.28313100  1
  O  O6  1  0.16192600  0.46679600  0.21686900  1
  O  O7  1  0.15440900  0.16192600  0.21686900  1
  O  O8  1  0.46679600  0.15440900  0.21686900  1
  O  O9  1  0.96679600  0.66192600  0.71686900  1
  O  O10  1  0.65440900  0.96679600  0.71686900  1
  O  O11  1  0.66192600  0.65440900  0.71686900  1
  O  O12  1  0.76600000  0.50826000  0.86192500  1
  O  O13  1  0.86381400  0.76600000  0.86192500  1
  O  O14  1  0.50826000  0.86381400  0.86192500  1
  O  O15  1  0.00826000  0.26600000  0.36192500  1
  O  O16  1  0.36381400  0.00826000  0.36192500  1
  O  O17  1  0.26600000  0.36381400  0.36192500  1
  O  O18  1  0.23400000  0.49174000  0.13807500  1
  O  O19  1  0.13618600  0.23400000  0.13807500  1
  O  O20  1  0.49174000  0.13618600  0.13807500  1
  O  O21  1  0.99174000  0.73400000  0.63807500  1
  O  O22  1  0.63618600  0.99174000  0.63807500  1
  O  O23  1  0.73400000  0.63618600  0.63807500  1
  O  O24  1  0.58606000  0.47929800  0.80954500  1
  O  O25  1  0.12509700  0.58606000  0.80954500  1
  O  O26  1  0.47929800  0.12509700  0.80954500  1
  O  O27  1  0.97929800  0.08606000  0.30954500  1
  O  O28  1  0.62509700  0.97929800  0.30954500  1
  O  O29  1  0.08606000  0.62509700  0.30954500  1
  O  O30  1  0.41394000  0.52070200  0.19045500  1
  O  O31  1  0.87490300  0.41394000  0.19045500  1
  O  O32  1  0.52070200  0.87490300  0.19045500  1
  O  O33  1  0.02070200  0.91394000  0.69045500  1
  O  O34  1  0.37490300  0.02070200  0.69045500  1
  O  O35  1  0.91394000  0.37490300  0.69045500  1
  O  O36  1  0.89978900  0.24395700  0.82004300  1
  O  O37  1  0.03621100  0.89978900  0.82004300  1
  O  O38  1  0.24395700  0.03621100  0.82004300  1
  O  O39  1  0.74395700  0.39978900  0.32004300  1
  O  O40  1  0.53621100  0.74395700  0.32004300  1
  O  O41  1  0.39978900  0.53621100  0.32004300  1
  O  O42  1  0.10021100  0.75604300  0.17995700  1
  O  O43  1  0.96378900  0.10021100  0.17995700  1
  O  O44  1  0.75604300  0.96378900  0.17995700  1
  O  O45  1  0.25604300  0.60021100  0.67995700  1
  O  O46  1  0.46378900  0.25604300  0.67995700  1
  O  O47  1  0.60021100  0.46378900  0.67995700  1
  O  O48  1  0.38120600  0.38120600  0.85638100  1
  O  O49  1  0.88120600  0.88120600  0.35638100  1
  O  O50  1  0.61879400  0.61879400  0.14361900  1
  O  O51  1  0.11879400  0.11879400  0.64361900  1
  O  O52  1  0.20252500  0.53787400  0.92098400  1
  O  O53  1  0.33861700  0.20252500  0.92098400  1
  O  O54  1  0.53787400  0.33861700  0.92098400  1
  O  O55  1  0.03787400  0.70252500  0.42098400  1
  O  O56  1  0.83861700  0.03787400  0.42098400  1
  O  O57  1  0.70252500  0.83861700  0.42098400  1
  O  O58  1  0.79747500  0.46212600  0.07901600  1
  O  O59  1  0.66138300  0.79747500  0.07901600  1
  O  O60  1  0.46212600  0.66138300  0.07901600  1
  O  O61  1  0.96212600  0.29747500  0.57901600  1
  O  O62  1  0.16138300  0.96212600  0.57901600  1
  O  O63  1  0.29747500  0.16138300  0.57901600  1
  O  O64  1  0.06377400  0.19824800  0.89067200  1
  O  O65  1  0.84730600  0.06377400  0.89067200  1
  O  O66  1  0.19824800  0.84730600  0.89067200  1
  O  O67  1  0.69824800  0.56377400  0.39067200  1
  O  O68  1  0.34730600  0.69824800  0.39067200  1
  O  O69  1  0.56377400  0.34730600  0.39067200  1
  O  O70  1  0.93622600  0.80175200  0.10932800  1
  O  O71  1  0.15269400  0.93622600  0.10932800  1
  O  O72  1  0.80175200  0.15269400  0.10932800  1
  O  O73  1  0.30175200  0.43622600  0.60932800  1
  O  O74  1  0.65269400  0.30175200  0.60932800  1
  O  O75  1  0.43622600  0.65269400  0.60932800  1
  O  O76  1  0.62715400  0.89121600  0.92774000  1
  O  O77  1  0.55389000  0.62715400  0.92774000  1
  O  O78  1  0.89121600  0.55389000  0.92774000  1
  O  O79  1  0.39121600  0.12715400  0.42774000  1
  O  O80  1  0.05389000  0.39121600  0.42774000  1
  O  O81  1  0.12715400  0.05389000  0.42774000  1
  O  O82  1  0.37284600  0.10878400  0.07226000  1
  O  O83  1  0.44611000  0.37284600  0.07226000  1
  O  O84  1  0.10878400  0.44611000  0.07226000  1
  O  O85  1  0.60878400  0.87284600  0.57226000  1
  O  O86  1  0.94611000  0.60878400  0.57226000  1
  O  O87  1  0.87284600  0.94611000  0.57226000  1
  O  O88  1  0.23971300  0.12243900  0.00045100  1
  O  O89  1  0.63739700  0.23971300  0.00045100  1
  O  O90  1  0.12243900  0.63739700  0.00045100  1
  O  O91  1  0.62243900  0.73971300  0.50045100  1
  O  O92  1  0.13739700  0.62243900  0.50045100  1
  O  O93  1  0.73971300  0.13739700  0.50045100  1
  O  O94  1  0.76028700  0.87756100  0.99954900  1
  O  O95  1  0.36260300  0.76028700  0.99954900  1
  O  O96  1  0.87756100  0.36260300  0.99954900  1
  O  O97  1  0.37756100  0.26028700  0.49954900  1
  O  O98  1  0.86260300  0.37756100  0.49954900  1
  O  O99  1  0.26028700  0.86260300  0.49954900  1
loop_
_geom_bond_atom_site_label_1
_geom_bond_atom_site_label_2
_geom_bond_distance
_geom_bond_site_symmetry_2
K0 O1 2.718556 1_545
K0 O10 2.718556 1_545
K0 O33 3.010697 1_645
K0 O26 3.010697 1_555
K0 O36 3.048017 1_555
K0 O47 3.048017 1_555
K0 O24 3.133966 1_555
K0 O35 3.133966 1_555
K1 O2 2.718556 1_555
K1 O11 2.718556 1_555
K1 O34 3.010697 1_565
K1 O24 3.010697 1_555
K1 O45 3.048017 1_555
K1 O37 3.048017 1_555
K1 O25 3.133966 1_555
K1 O33 3.133966 1_555
K2 O9 2.718556 1_455
K2 O0 2.718556 1_455
K2 O25 3.010697 1_555
K2 O35 3.010697 1_455
K2 O38 3.048017 1_555
K2 O46 3.048017 1_555
K2 O34 3.133966 1_555
K2 O26 3.133966 1_555
K3 O8 2.718556 1_555
K3 O5 2.718556 1_555
K3 O28 3.010697 1_545
K3 O30 3.010697 1_555
K3 O39 3.048017 1_555
K3 O43 3.048017 1_555
K3 O31 3.133966 1_555
K3 O27 3.133966 1_555
K4 O3 2.718556 1_655
K4 O6 2.718556 1_655
K4 O31 3.010697 1_555
K4 O29 3.010697 1_655
K4 O44 3.048017 1_555
K4 O40 3.048017 1_555
K4 O28 3.133966 1_555
K4 O32 3.133966 1_555
K5 O4 2.718556 1_565
K5 O7 2.718556 1_565
K5 O32 3.010697 1_555
K5 O27 3.010697 1_465
K5 O42 3.048017 1_555
K5 O41 3.048017 1_555
K5 O30 3.133966 1_555
K5 O29 3.133966 1_555
Al0 O11 1.889181 1_555
Al0 O0 1.889181 1_555
Al0 O1 1.889181 1_555
Al0 O10 1.889181 1_555
Al0 O2 1.889181 1_555
Al0 O9 1.889181 1_555
Al1 O6 1.889181 1_555
Al1 O5 1.889181 1_555
Al1 O7 1.889181 1_555
Al1 O4 1.889181 1_555
Al1 O8 1.889181 1_555
Al1 O3 1.889181 1_555
Al2 O37 1.857217 1_545
Al2 O36 1.857221 1_455
Al2 O38 1.857224 1_555
Al2 O65 1.959163 1_455
Al2 O66 1.959166 1_545
Al2 O64 1.959170 1_555
Al3 O41 1.857217 1_555
Al3 O39 1.857221 1_555
Al3 O40 1.857224 1_555
Al3 O69 1.959163 1_555
Al3 O68 1.959166 1_555
Al3 O67 1.959170 1_555
Al4 O43 1.857217 1_565
Al4 O42 1.857221 1_655
Al4 O44 1.857224 1_555
Al4 O71 1.959163 1_655
Al4 O72 1.959166 1_565
Al4 O70 1.959170 1_555
Al5 O47 1.857217 1_555
Al5 O45 1.857221 1_555
Al5 O46 1.857224 1_555
Al5 O75 1.959163 1_555
Al5 O74 1.959166 1_555
Al5 O73 1.959170 1_555
Al6 O13 1.875168 1_555
Al6 O14 1.875179 1_555
Al6 O12 1.875183 1_555
Al6 O76 1.933649 1_555
Al6 O78 1.933650 1_555
Al6 O77 1.933656 1_555
Al7 O17 1.875168 1_555
Al7 O16 1.875179 1_555
Al7 O15 1.875183 1_555
Al7 O79 1.933649 1_555
Al7 O80 1.933650 1_555
Al7 O81 1.933656 1_555
Al8 O19 1.875168 1_555
Al8 O20 1.875179 1_555
Al8 O18 1.875183 1_555
Al8 O82 1.933649 1_555
Al8 O84 1.933650 1_555
Al8 O83 1.933656 1_555
Al9 O23 1.875168 1_555
Al9 O22 1.875179 1_555
Al9 O21 1.875183 1_555
Al9 O85 1.933649 1_555
Al9 O86 1.933650 1_555
Al9 O87 1.933656 1_555
H0 O26 1.024387 1_555
H0 O48 1.590929 1_555
H1 O24 1.024387 1_555
H1 O48 1.590936 1_555
H2 O25 1.024387 1_555
H2 O48 1.590931 1_555
H3 O28 1.024387 1_555
H3 O49 1.590929 1_555
H4 O29 1.024387 1_555
H4 O49 1.590931 1_455
H5 O27 1.024387 1_555
H5 O49 1.590936 1_545
H6 O32 1.024387 1_555
H6 O50 1.590929 1_555
H7 O30 1.024387 1_555
H7 O50 1.590936 1_555
H8 O31 1.024387 1_555
H8 O50 1.590931 1_555
H9 O34 1.024387 1_555
H9 O51 1.590929 1_555
H10 O35 1.024387 1_555
H10 O51 1.590931 1_655
H11 O33 1.024387 1_555
H11 O51 1.590936 1_565
H12 O64 1.005283 1_555
H12 O53 1.743205 1_555
H13 O65 1.005283 1_555
H13 O54 1.743205 1_555
H14 O66 1.005283 1_555
H14 O52 1.743205 1_555
H15 O67 1.005283 1_555
H15 O57 1.743205 1_555
H16 O68 1.005283 1_555
H16 O55 1.743205 1_555
H17 O69 1.005283 1_555
H17 O56 1.743205 1_555
H18 O70 1.005283 1_555
H18 O59 1.743205 1_555
H19 O71 1.005283 1_555
H19 O60 1.743205 1_555
H20 O72 1.005283 1_555
H20 O58 1.743205 1_555
H21 O73 1.005283 1_555
H21 O63 1.743205 1_555
H22 O74 1.005283 1_555
H22 O61 1.743205 1_555
H23 O75 1.005283 1_555
H23 O62 1.743205 1_555
H24 O64 0.988921 1_655
H25 O65 0.988921 1_565
H26 O66 0.988921 1_555
H27 O67 0.988921 1_555
H28 O68 0.988921 1_555
H29 O69 0.988921 1_555
H30 O70 0.988921 1_455
H31 O71 0.988921 1_545
H32 O72 0.988921 1_555
H33 O73 0.988921 1_555
H34 O74 0.988921 1_555
H35 O75 0.988921 1_555
H36 O76 1.004488 1_555
H37 O77 1.004488 1_555
H38 O78 1.004488 1_555
H39 O79 1.004488 1_555
H40 O80 1.004488 1_655
H41 O81 1.004488 1_565
H42 O82 1.004488 1_555
H43 O83 1.004488 1_555
H44 O84 1.004488 1_555
H45 O85 1.004488 1_555
H46 O86 1.004488 1_455
H47 O87 1.004488 1_545
H48 O76 1.014198 1_545
H48 O53 1.630787 1_555
H49 O77 1.014198 1_555
H49 O54 1.630787 1_555
H50 O78 1.014198 1_455
H50 O52 1.630787 1_555
H51 O79 1.014198 1_555
H51 O57 1.630787 1_545
H52 O80 1.014198 1_555
H52 O55 1.630787 1_555
H53 O81 1.014198 1_555
H53 O56 1.630787 1_455
H54 O82 1.014198 1_565
H54 O59 1.630787 1_555
H55 O83 1.014198 1_555
H55 O60 1.630787 1_555
H56 O84 1.014198 1_655
H56 O58 1.630787 1_555
H57 O85 1.014198 1_555
H57 O63 1.630787 1_565
H58 O86 1.014198 1_555
H58 O61 1.630787 1_555
H59 O87 1.014198 1_555
H59 O62 1.630787 1_655
H60 O88 1.002764 1_556
H60 O53 1.727652 1_555
H61 O89 1.002764 1_556
H61 O54 1.727652 1_555
H62 O90 1.002764 1_556
H62 O52 1.727652 1_555
H63 O91 1.002764 1_555
H63 O57 1.727652 1_555
H64 O92 1.002764 1_555
H64 O55 1.727652 1_555
H65 O93 1.002764 1_555
H65 O56 1.727652 1_555
H66 O94 1.002764 1_554
H66 O59 1.727652 1_555
H67 O95 1.002764 1_554
H67 O60 1.727652 1_555
H68 O96 1.002764 1_554
H68 O58 1.727652 1_555
H69 O97 1.002764 1_555
H69 O63 1.727652 1_555
H70 O98 1.002764 1_555
H70 O61 1.727652 1_555
H71 O99 1.002764 1_555
H71 O62 1.727652 1_555
H72 O95 0.996841 1_555
H73 O96 0.996841 1_555
H74 O94 0.996841 1_555
H75 O99 0.996841 1_555
H76 O97 0.996841 1_555
H77 O98 0.996841 1_555
H78 O89 0.996841 1_555
H79 O90 0.996841 1_555
H80 O88 0.996841 1_555
H81 O93 0.996841 1_555
H82 O91 0.996841 1_555
H83 O92 0.996841 1_555
O0 P0 1.517410 1_555
O1 P1 1.517404 1_555
O2 P2 1.517405 1_555
O3 P3 1.517410 1_455
O4 P4 1.517405 1_545
O5 P5 1.517404 1_555
O6 P6 1.517410 1_555
O7 P7 1.517404 1_555
O8 P8 1.517405 1_555
O9 P9 1.517410 1_655
O10 P10 1.517405 1_565
O11 P11 1.517404 1_555
O12 P0 1.538777 1_555
O13 P1 1.538777 1_555
O14 P2 1.538777 1_555
O15 P3 1.538777 1_455
O16 P4 1.538777 1_545
O17 P5 1.538777 1_555
O18 P6 1.538777 1_555
O19 P7 1.538777 1_555
O20 P8 1.538777 1_555
O21 P9 1.538777 1_655
O22 P10 1.538777 1_565
O23 P11 1.538777 1_555
O24 P0 1.597665 1_555
O25 P1 1.597668 1_455
O26 P2 1.597674 1_545
O27 P3 1.597665 1_555
O28 P4 1.597674 1_555
O29 P5 1.597668 1_555
O30 P6 1.597665 1_555
O31 P7 1.597668 1_655
O32 P8 1.597674 1_565
O33 P9 1.597665 1_555
O34 P10 1.597674 1_555
O35 P11 1.597668 1_555
O36 P0 1.531688 1_555
O37 P1 1.531695 1_455
O38 P2 1.531687 1_545
O39 P3 1.531688 1_555
O40 P4 1.531687 1_555
O41 P5 1.531695 1_555
O42 P6 1.531688 1_555
O43 P7 1.531695 1_655
O44 P8 1.531687 1_565
O45 P9 1.531688 1_555
O46 P10 1.531687 1_555
O47 P11 1.531695 1_555
O48 P12 1.577113 1_555
O49 P13 1.577113 1_555
O50 P14 1.577113 1_555
O51 P15 1.577113 1_555
O52 P12 1.558825 1_555
O53 P12 1.558820 1_555
O54 P12 1.558828 1_555
O55 P13 1.558825 1_455
O56 P13 1.558828 1_545
O57 P13 1.558820 1_555
O58 P14 1.558825 1_555
O59 P14 1.558820 1_555
O60 P14 1.558828 1_555
O61 P15 1.558825 1_655
O62 P15 1.558828 1_565
O63 P15 1.558820 1_555
