# generated using pymatgen
data_FeSbPt
_symmetry_space_group_name_H-M   'P 1'
_cell_length_a   5.99553400
_cell_length_b   5.99553400
_cell_length_c   5.99553400
_cell_angle_alpha   90.00000000
_cell_angle_beta   90.00000000
_cell_angle_gamma   90.00000000
_symmetry_Int_Tables_number   1
_chemical_formula_structural   FeSbPt
_chemical_formula_sum   'Fe4 Sb4 Pt4'
_cell_volume   215.51803092
_cell_formula_units_Z   4
loop_
 _symmetry_equiv_pos_site_id
 _symmetry_equiv_pos_as_xyz
  1  'x, y, z'
loop_
 _atom_site_type_symbol
 _atom_site_label
 _atom_site_symmetry_multiplicity
 _atom_site_fract_x
 _atom_site_fract_y
 _atom_site_fract_z
 _atom_site_occupancy
  Fe  Fe0  1  0.00468700  0.50468700  0.99531300  1
  Fe  Fe1  1  0.50468700  0.99531300  0.00468700  1
  Fe  Fe2  1  0.99531300  0.00468700  0.50468700  1
  Fe  Fe3  1  0.49531300  0.49531300  0.49531300  1
  Sb  Sb0  1  0.75354800  0.25354800  0.24645200  1
  Sb  Sb1  1  0.25354800  0.24645200  0.75354800  1
  Sb  Sb2  1  0.24645200  0.75354800  0.25354800  1
  Sb  Sb3  1  0.74645200  0.74645200  0.74645200  1
  Pt  Pt0  1  0.25264900  0.75264900  0.74735100  1
  Pt  Pt1  1  0.75264900  0.74735100  0.25264900  1
  Pt  Pt2  1  0.74735100  0.25264900  0.75264900  1
  Pt  Pt3  1  0.24735100  0.24735100  0.24735100  1
loop_
_geom_bond_atom_site_label_1
_geom_bond_atom_site_label_2
_geom_bond_distance
_geom_bond_site_symmetry_2
Fe0 Pt0 2.574979 1_555
Fe0 Sb2 2.593146 1_556
Fe0 Sb3 2.593146 1_455
Fe0 Sb1 2.593146 1_555
Fe0 Pt2 2.603959 1_455
Fe0 Pt1 2.603959 1_456
Fe0 Pt3 2.603959 1_556
Fe0 Sb0 2.607970 1_456
Fe1 Pt1 2.574979 1_555
Fe1 Sb0 2.593146 1_565
Fe1 Sb2 2.593146 1_555
Fe1 Sb3 2.593146 1_554
Fe1 Pt0 2.603959 1_554
Fe1 Pt2 2.603959 1_564
Fe1 Pt3 2.603959 1_565
Fe1 Sb1 2.607970 1_564
Fe2 Pt2 2.574979 1_555
Fe2 Sb1 2.593146 1_655
Fe2 Sb3 2.593146 1_545
Fe2 Sb0 2.593146 1_555
Fe2 Pt0 2.603959 1_645
Fe2 Pt1 2.603959 1_545
Fe2 Pt3 2.603959 1_655
Fe2 Sb2 2.607970 1_645
Fe3 Pt3 2.574979 1_555
Fe3 Sb1 2.593146 1_555
Fe3 Sb2 2.593146 1_555
Fe3 Sb0 2.593146 1_555
Fe3 Pt0 2.603959 1_555
Fe3 Pt2 2.603959 1_555
Fe3 Pt1 2.603959 1_555
Fe3 Sb3 2.607970 1_555
Pt0 Sb2 2.960851 1_555
Pt0 Sb3 2.960851 1_555
Pt0 Sb1 2.960851 1_565
Pt0 Sb2 3.035154 1_556
Pt0 Sb1 3.035154 1_555
Pt0 Sb3 3.035154 1_455
Pt1 Sb0 2.960851 1_555
Pt1 Sb3 2.960851 1_555
Pt1 Sb2 2.960851 1_655
Pt1 Sb0 3.035154 1_565
Pt1 Sb3 3.035154 1_554
Pt1 Sb2 3.035154 1_555
Pt2 Sb1 2.960851 1_555
Pt2 Sb3 2.960851 1_555
Pt2 Sb0 2.960851 1_556
Pt2 Sb1 3.035154 1_655
Pt2 Sb0 3.035154 1_555
Pt2 Sb3 3.035154 1_545
Pt3 Sb1 2.960851 1_554
Pt3 Sb2 2.960851 1_545
Pt3 Sb0 2.960851 1_455
Pt3 Sb1 3.035154 1_555
Pt3 Sb0 3.035154 1_555
Pt3 Sb2 3.035154 1_555
