# generated using pymatgen
data_CsSm2Cu3Se5
_symmetry_space_group_name_H-M   'P 1'
_cell_length_a   7.64867518
_cell_length_b   7.64867518
_cell_length_c   17.69027200
_cell_angle_alpha   90.00000000
_cell_angle_beta   90.00000000
_cell_angle_gamma   147.73568272
_symmetry_Int_Tables_number   1
_chemical_formula_structural   CsSm2Cu3Se5
_chemical_formula_sum   'Cs2 Sm4 Cu6 Se10'
_cell_volume   552.46724282
_cell_formula_units_Z   2
loop_
 _symmetry_equiv_pos_site_id
 _symmetry_equiv_pos_as_xyz
  1  'x, y, z'
loop_
 _atom_site_type_symbol
 _atom_site_label
 _atom_site_symmetry_multiplicity
 _atom_site_fract_x
 _atom_site_fract_y
 _atom_site_fract_z
 _atom_site_occupancy
  Cs  Cs0  1  0.06134100  0.93865900  0.25000000  1
  Cs  Cs1  1  0.93865900  0.06134100  0.75000000  1
  Sm  Sm0  1  0.80765000  0.19235000  0.09042300  1
  Sm  Sm1  1  0.19235000  0.80765000  0.90957700  1
  Sm  Sm2  1  0.80765000  0.19235000  0.40957700  1
  Sm  Sm3  1  0.19235000  0.80765000  0.59042300  1
  Cu  Cu0  1  0.34090900  0.65909100  0.25000000  1
  Cu  Cu1  1  0.65909100  0.34090900  0.75000000  1
  Cu  Cu2  1  0.58261300  0.41738700  0.46930400  1
  Cu  Cu3  1  0.41738700  0.58261300  0.53069600  1
  Cu  Cu4  1  0.58261300  0.41738700  0.03069600  1
  Cu  Cu5  1  0.41738700  0.58261300  0.96930400  1
  Se  Se0  1  0.76494300  0.23505700  0.25000000  1
  Se  Se1  1  0.23505700  0.76494300  0.75000000  1
  Se  Se2  1  0.55947300  0.44052700  0.89011000  1
  Se  Se3  1  0.44052700  0.55947300  0.10989000  1
  Se  Se4  1  0.55947300  0.44052700  0.60989000  1
  Se  Se5  1  0.44052700  0.55947300  0.39011000  1
  Se  Se6  1  0.83111000  0.16889000  0.92945700  1
  Se  Se7  1  0.16889000  0.83111000  0.07054300  1
  Se  Se8  1  0.83111000  0.16889000  0.57054300  1
  Se  Se9  1  0.16889000  0.83111000  0.42945700  1
loop_
_geom_bond_atom_site_label_1
_geom_bond_atom_site_label_2
_geom_bond_distance
_geom_bond_site_symmetry_2
Cs0 Se9 3.546283 1_555
Cs0 Se7 3.546283 1_555
Cs0 Se0 3.669902 1_565
Cs0 Se0 3.669902 1_455
Cs0 Se5 3.716426 1_455
Cs0 Se3 3.716426 1_455
Cs0 Se5 3.716426 1_565
Cs0 Se3 3.716426 1_565
Cs1 Se8 3.546283 1_555
Cs1 Se6 3.546283 1_555
Cs1 Se1 3.669902 1_655
Cs1 Se1 3.669902 1_545
Cs1 Se4 3.716426 1_655
Cs1 Se2 3.716426 1_545
Cs1 Se2 3.716426 1_655
Cs1 Se4 3.716426 1_545
Cu0 Se0 2.400563 1_455
Cu0 Se0 2.400563 1_565
Cu0 Se5 2.878600 1_555
Cu0 Se3 2.878600 1_555
Cu1 Se1 2.400563 1_545
Cu1 Se1 2.400563 1_655
Cu1 Se2 2.878600 1_555
Cu1 Se4 2.878600 1_555
Cu2 Se4 2.510144 1_555
Cu2 Se5 2.514407 1_555
Cu2 Se9 2.573100 1_545
Cu2 Se9 2.573100 1_655
Cu3 Se5 2.510144 1_555
Cu3 Se4 2.514407 1_555
Cu3 Se8 2.573100 1_455
Cu3 Se8 2.573100 1_565
Cu4 Se2 2.510144 1_554
Cu4 Se3 2.514407 1_555
Cu4 Se7 2.573100 1_545
Cu4 Se7 2.573100 1_655
Cu5 Se3 2.510144 1_556
Cu5 Se2 2.514407 1_555
Cu5 Se6 2.573100 1_455
Cu5 Se6 2.573100 1_565
Se0 Sm0 2.891879 1_555
Se0 Sm2 2.891879 1_555
Se1 Sm3 2.891879 1_555
Se1 Sm1 2.891879 1_555
Se2 Sm1 2.906524 1_545
Se2 Sm1 2.906524 1_655
Se3 Sm0 2.906524 1_565
Se3 Sm0 2.906524 1_455
Se4 Sm3 2.906524 1_545
Se4 Sm3 2.906524 1_655
Se5 Sm2 2.906524 1_565
Se5 Sm2 2.906524 1_455
Se6 Sm0 2.868325 1_556
Se6 Sm1 2.966151 1_545
Se6 Sm1 2.966151 1_655
Se7 Sm1 2.868325 1_554
Se7 Sm0 2.966151 1_455
Se7 Sm0 2.966151 1_565
Se8 Sm2 2.868325 1_555
Se8 Sm3 2.966151 1_545
Se8 Sm3 2.966151 1_655
Se9 Sm3 2.868325 1_555
Se9 Sm2 2.966151 1_565
Se9 Sm2 2.966151 1_455
