# generated using pymatgen
data_Li5Mn2Co(NiO5)2
_symmetry_space_group_name_H-M   'P 1'
_cell_length_a   5.06593900
_cell_length_b   5.88852768
_cell_length_c   6.60805630
_cell_angle_alpha   103.23971354
_cell_angle_beta   97.78098202
_cell_angle_gamma   106.26081537
_symmetry_Int_Tables_number   1
_chemical_formula_structural   Li5Mn2Co(NiO5)2
_chemical_formula_sum   'Li5 Mn2 Co1 Ni2 O10'
_cell_volume   179.96146052
_cell_formula_units_Z   1
loop_
 _symmetry_equiv_pos_site_id
 _symmetry_equiv_pos_as_xyz
  1  'x, y, z'
loop_
 _atom_site_type_symbol
 _atom_site_label
 _atom_site_symmetry_multiplicity
 _atom_site_fract_x
 _atom_site_fract_y
 _atom_site_fract_z
 _atom_site_occupancy
  Li  Li0  1  0.19795000  0.90101100  0.40131900  1
  Li  Li1  1  0.99730800  0.50075100  0.00457900  1
  Li  Li2  1  0.79771000  0.10075900  0.59657800  1
  Li  Li3  1  0.60526600  0.69787500  0.20029000  1
  Li  Li4  1  0.40232600  0.29928400  0.79736100  1
  Mn  Mn0  1  0.19975100  0.39904900  0.39886600  1
  Mn  Mn1  1  0.39900000  0.79826700  0.79786400  1
  Co  Co0  1  0.00151500  0.00208900  0.00313500  1
  Ni  Ni0  1  0.60016100  0.20116900  0.20071400  1
  Ni  Ni1  1  0.79996700  0.59897500  0.59964600  1
  O  O0  1  0.48400200  0.26202300  0.49018700  1
  O  O1  1  0.29244700  0.85094400  0.07223000  1
  O  O2  1  0.12289900  0.46748900  0.68952800  1
  O  O3  1  0.92187100  0.07256900  0.30521400  1
  O  O4  1  0.68514000  0.66668900  0.89683500  1
  O  O5  1  0.91566200  0.53759000  0.30682300  1
  O  O6  1  0.69391100  0.11915100  0.89334700  1
  O  O7  1  0.47816300  0.73428700  0.51059000  1
  O  O8  1  0.28705800  0.34924500  0.12009500  1
  O  O9  1  0.11789300  0.94078600  0.71479900  1
loop_
_geom_bond_atom_site_label_1
_geom_bond_atom_site_label_2
_geom_bond_distance
_geom_bond_site_symmetry_2
Li0 O3 2.055374 1_465
Li0 O7 2.080378 1_555
Li0 O0 2.106305 1_565
Li0 O5 2.108767 1_455
Li0 O9 2.137491 1_555
Li0 O1 2.261061 1_555
Li1 O8 2.067637 1_655
Li1 O5 2.069444 1_555
Li1 O1 2.087532 1_655
Li1 O4 2.200401 1_554
Li1 O6 2.226051 1_554
Li1 O2 2.240319 1_654
Li2 O6 2.085150 1_555
Li2 O3 2.090490 1_555
Li2 O0 2.184050 1_555
Li2 O7 2.198455 1_545
Li2 O2 2.209243 1_655
Li2 O9 2.231210 1_645
Li3 O4 2.076323 1_554
Li3 O8 2.123907 1_555
Li3 O5 2.166743 1_555
Li3 O1 2.196831 1_555
Li3 O7 2.213251 1_555
Li3 O3 2.222104 1_565
Li4 O2 2.080377 1_555
Li4 O9 2.094383 1_545
Li4 O0 2.100900 1_555
Li4 O4 2.126761 1_555
Li4 O6 2.154380 1_555
Li4 O8 2.263125 1_556
Mn0 O8 1.928960 1_555
Mn0 O0 1.930606 1_555
Mn0 O5 1.937647 1_455
Mn0 O3 1.940146 1_455
Mn0 O7 1.980527 1_555
Mn0 O2 1.984669 1_555
Mn1 O9 1.924112 1_555
Mn1 O4 1.932270 1_555
Mn1 O1 1.943146 1_556
Mn1 O6 1.954028 1_565
Mn1 O2 1.956332 1_555
Mn1 O7 1.967118 1_555
Co0 O1 1.977715 1_545
Co0 O6 1.988546 1_454
Co0 O8 2.046043 1_555
Co0 O9 2.053417 1_544
Co0 O4 2.061515 1_444
Co0 O3 2.062050 1_455
Ni0 O0 2.059758 1_555
Ni0 O5 2.063444 1_555
Ni0 O8 2.078104 1_555
Ni0 O3 2.081436 1_555
Ni0 O1 2.107897 1_545
Ni0 O6 2.127088 1_554
Ni1 O0 2.067046 1_555
Ni1 O2 2.070141 1_655
Ni1 O7 2.078778 1_555
Ni1 O5 2.079355 1_555
Ni1 O9 2.091750 1_655
Ni1 O4 2.105846 1_555
