# generated using pymatgen
data_UGaAu
_symmetry_space_group_name_H-M   'P 1'
_cell_length_a   4.83065698
_cell_length_b   5.64413494
_cell_length_c   5.64331523
_cell_angle_alpha   117.17939486
_cell_angle_beta   115.33607414
_cell_angle_gamma   64.66451399
_symmetry_Int_Tables_number   1
_chemical_formula_structural   UGaAu
_chemical_formula_sum   'U2 Ga2 Au2'
_cell_volume   118.42624089
_cell_formula_units_Z   2
loop_
 _symmetry_equiv_pos_site_id
 _symmetry_equiv_pos_as_xyz
  1  'x, y, z'
loop_
 _atom_site_type_symbol
 _atom_site_label
 _atom_site_symmetry_multiplicity
 _atom_site_fract_x
 _atom_site_fract_y
 _atom_site_fract_z
 _atom_site_occupancy
  U  U0  1  0.50000586  0.73537874  0.73537090  1
  U  U1  1  0.49999671  0.26462959  0.26463953  1
  Ga  Ga0  1  0.83917996  0.16067088  0.83911003  1
  Ga  Ga1  1  0.16081857  0.83928552  0.16084276  1
  Au  Au0  1  0.17544876  0.32441037  0.67538965  1
  Au  Au1  1  0.82454914  0.67562490  0.32464712  1
loop_
_geom_bond_atom_site_label_1
_geom_bond_atom_site_label_2
_geom_bond_distance
_geom_bond_site_symmetry_2
U0 U1 2.769178 1_555
U0 U1 3.113425 1_566
Ga0 Ga1 2.680174 1_646
Ga0 U1 3.147663 1_555
Ga0 U0 3.148717 1_555
Ga0 U0 3.170227 1_545
Ga0 U0 3.170594 1_645
Ga0 U1 3.170655 1_556
Ga0 U1 3.171129 1_656
Ga1 U0 3.147826 1_555
Ga1 U1 3.148597 1_555
Ga1 U1 3.170380 1_565
Ga1 U0 3.170491 1_554
Ga1 U1 3.170738 1_465
Ga1 U0 3.170957 1_454
Au0 Ga0 2.774118 1_455
Au0 Ga0 2.774272 1_555
Au0 Au1 2.925384 1_455
Au0 Ga1 2.942872 1_545
Au0 Ga1 2.944840 1_556
Au0 U0 3.120641 1_545
Au0 U1 3.120889 1_556
Au0 U1 3.144503 1_555
Au0 U1 3.144505 1_455
Au0 U0 3.145112 1_455
Au0 U0 3.145459 1_555
Au1 Ga1 2.774142 1_655
Au1 Ga1 2.774270 1_555
Au1 Ga0 2.942392 1_565
Au1 Ga0 2.945318 1_554
Au1 U1 3.120560 1_565
Au1 U0 3.120965 1_554
Au1 U0 3.144419 1_555
Au1 U0 3.144453 1_655
Au1 U1 3.145198 1_655
Au1 U1 3.145513 1_555
