# generated using pymatgen
data_AlCrMo6(H19O20)2
_symmetry_space_group_name_H-M   'P 1'
_cell_length_a   6.88919996
_cell_length_b   11.46886747
_cell_length_c   11.96694090
_cell_angle_alpha   101.83478401
_cell_angle_beta   96.36675836
_cell_angle_gamma   103.25499672
_symmetry_Int_Tables_number   1
_chemical_formula_structural   AlCrMo6(H19O20)2
_chemical_formula_sum   'Al1 Cr1 Mo6 H38 O40'
_cell_volume   888.30937164
_cell_formula_units_Z   1
loop_
 _symmetry_equiv_pos_site_id
 _symmetry_equiv_pos_as_xyz
  1  'x, y, z'
loop_
 _atom_site_type_symbol
 _atom_site_label
 _atom_site_symmetry_multiplicity
 _atom_site_fract_x
 _atom_site_fract_y
 _atom_site_fract_z
 _atom_site_occupancy
  Al  Al0  1  0.00000000  0.50000000  0.50000000  1
  Cr  Cr0  1  0.00000000  0.00000000  0.00000000  1
  Mo  Mo0  1  0.62592200  0.82938800  0.09952000  1
  Mo  Mo1  1  0.37407800  0.17061200  0.90048000  1
  Mo  Mo2  1  0.65657400  0.75380200  0.81732500  1
  Mo  Mo3  1  0.34342600  0.24619800  0.18267500  1
  Mo  Mo4  1  0.02520200  0.92971800  0.70904000  1
  Mo  Mo5  1  0.97479800  0.07028200  0.29096000  1
  H  H0  1  0.70418300  0.08728400  0.08532500  1
  H  H1  1  0.29581700  0.91271600  0.91467500  1
  H  H2  1  0.95900000  0.76460000  0.01647800  1
  H  H3  1  0.04100000  0.23540000  0.98352200  1
  H  H4  1  0.72123600  0.01591500  0.84118000  1
  H  H5  1  0.27876400  0.98408500  0.15882000  1
  H  H6  1  0.74935900  0.61247700  0.42702400  1
  H  H7  1  0.25064100  0.38752300  0.57297600  1
  H  H8  1  0.97300600  0.68275700  0.41310000  1
  H  H9  1  0.02699400  0.31724300  0.58690000  1
  H  H10  1  0.03087100  0.35110500  0.30925300  1
  H  H11  1  0.96912900  0.64889500  0.69074700  1
  H  H12  1  0.92906700  0.45450500  0.27102500  1
  H  H13  1  0.07093300  0.54549500  0.72897500  1
  H  H14  1  0.65756000  0.34162100  0.41791300  1
  H  H15  1  0.34244000  0.65837900  0.58208700  1
  H  H16  1  0.64919700  0.40525300  0.55332400  1
  H  H17  1  0.35080300  0.59474700  0.44667600  1
  H  H18  1  0.98878300  0.80046500  0.29450800  1
  H  H19  1  0.01121700  0.19953500  0.70549200  1
  H  H20  1  0.20605300  0.78642700  0.33725800  1
  H  H21  1  0.79394700  0.21357300  0.66274200  1
  H  H22  1  0.80346600  0.27011000  0.89213200  1
  H  H23  1  0.19653400  0.72989000  0.10786800  1
  H  H24  1  0.87591600  0.37450200  0.00946400  1
  H  H25  1  0.12408400  0.62549800  0.99053600  1
  H  H26  1  0.89288500  0.55404300  0.11923700  1
  H  H27  1  0.10711500  0.44595700  0.88076300  1
  H  H28  1  0.68007000  0.46470400  0.11675400  1
  H  H29  1  0.31993000  0.53529600  0.88324600  1
  H  H30  1  0.46744200  0.55921100  0.28149700  1
  H  H31  1  0.53255800  0.44078900  0.71850300  1
  H  H32  1  0.51639900  0.70026900  0.35583400  1
  H  H33  1  0.48360100  0.29973100  0.64416600  1
  H  H34  1  0.53923400  0.91472000  0.35760700  1
  H  H35  1  0.46076600  0.08528000  0.64239300  1
  H  H36  1  0.46275700  0.88539800  0.47041200  1
  H  H37  1  0.53724300  0.11460200  0.52958800  1
  O  O0  1  0.79018900  0.03236100  0.09966200  1
  O  O1  1  0.20981100  0.96763900  0.90033800  1
  O  O2  1  0.84818400  0.89099300  0.23079000  1
  O  O3  1  0.15181600  0.10900700  0.76921000  1
  O  O4  1  0.42485600  0.87958200  0.15768700  1
  O  O5  1  0.57514400  0.12041800  0.84231300  1
  O  O6  1  0.57932200  0.67494100  0.10187200  1
  O  O7  1  0.42067800  0.32505900  0.89812800  1
  O  O8  1  0.87536800  0.82186800  0.99433100  1
  O  O9  1  0.12463200  0.17813200  0.00566900  1
  O  O10  1  0.50913900  0.81707500  0.93718100  1
  O  O11  1  0.49086100  0.18292500  0.06281900  1
  O  O12  1  0.62222000  0.59989500  0.82625900  1
  O  O13  1  0.37778000  0.40010500  0.17374100  1
  O  O14  1  0.48308400  0.74730700  0.69761000  1
  O  O15  1  0.51691600  0.25269300  0.30239000  1
  O  O16  1  0.90449500  0.77019600  0.74639000  1
  O  O17  1  0.09550500  0.22980400  0.25361000  1
  O  O18  1  0.81403900  0.96157900  0.84820700  1
  O  O19  1  0.18596100  0.03842100  0.15179300  1
  O  O20  1  0.83762400  0.93709300  0.60409500  1
  O  O21  1  0.16237600  0.06290700  0.39590500  1
  O  O22  1  0.21612600  0.89313200  0.63676600  1
  O  O23  1  0.78387400  0.10686800  0.36323400  1
  O  O24  1  0.89457000  0.62848900  0.46080900  1
  O  O25  1  0.10543000  0.37151100  0.53919100  1
  O  O26  1  0.99264000  0.43061200  0.33866900  1
  O  O27  1  0.00736000  0.56938800  0.66133100  1
  O  O28  1  0.73531900  0.40296000  0.49076900  1
  O  O29  1  0.26468100  0.59704000  0.50923100  1
  O  O30  1  0.06040200  0.74220700  0.31878900  1
  O  O31  1  0.93959800  0.25779300  0.68121100  1
  O  O32  1  0.92425200  0.32686700  0.94322500  1
  O  O33  1  0.07574800  0.67313300  0.05677500  1
  O  O34  1  0.82566000  0.47157300  0.12934800  1
  O  O35  1  0.17434000  0.52842700  0.87065200  1
  O  O36  1  0.51420100  0.61437100  0.35971000  1
  O  O37  1  0.48579900  0.38562900  0.64029000  1
  O  O38  1  0.46193000  0.84969300  0.38905600  1
  O  O39  1  0.53807000  0.15030700  0.61094400  1
loop_
_geom_bond_atom_site_label_1
_geom_bond_atom_site_label_2
_geom_bond_distance
_geom_bond_site_symmetry_2
Al0 O28 1.884159 1_455
Al0 O29 1.884159 1_555
Al0 O25 1.902061 1_555
Al0 O24 1.902061 1_455
Al0 O27 1.921671 1_555
Al0 O26 1.921671 1_455
Cr0 O19 2.007931 1_555
Cr0 O18 2.007931 1_444
Cr0 O9 2.010323 1_555
Cr0 O8 2.010323 1_444
Cr0 O1 2.023908 1_544
Cr0 O0 2.023908 1_455
Mo0 O6 1.732962 1_555
Mo0 O4 1.774769 1_555
Mo0 O2 1.956190 1_555
Mo0 O10 1.982433 1_554
Mo0 O8 2.246860 1_554
Mo0 O0 2.342981 1_565
Mo1 O7 1.732962 1_555
Mo1 O5 1.774769 1_555
Mo1 O3 1.956190 1_555
Mo1 O11 1.982433 1_556
Mo1 O9 2.246860 1_556
Mo1 O1 2.342981 1_545
Mo2 O14 1.738424 1_555
Mo2 O12 1.753456 1_555
Mo2 O10 1.962060 1_555
Mo2 O16 1.978102 1_555
Mo2 O18 2.314377 1_555
Mo2 O8 2.332871 1_555
Mo3 O15 1.738424 1_555
Mo3 O13 1.753456 1_555
Mo3 O11 1.962060 1_555
Mo3 O17 1.978102 1_555
Mo3 O19 2.314377 1_555
Mo3 O9 2.332871 1_555
Mo4 O20 1.728602 1_455
Mo4 O22 1.735136 1_555
Mo4 O3 1.984529 1_565
Mo4 O16 1.989645 1_455
Mo4 O18 2.356872 1_455
Mo4 O1 2.395739 1_555
Mo5 O21 1.728602 1_655
Mo5 O23 1.735136 1_555
Mo5 O2 1.984529 1_545
Mo5 O17 1.989645 1_655
Mo5 O19 2.356872 1_655
Mo5 O0 2.395739 1_555
H0 O0 0.984998 1_555
H1 O1 0.984998 1_555
H2 O8 1.022082 1_554
H2 O33 1.577429 1_655
H3 O9 1.022082 1_556
H3 O32 1.577429 1_455
H4 O18 0.998220 1_545
H4 O5 1.731802 1_555
H5 O19 0.998220 1_565
H5 O4 1.731802 1_555
H6 O24 0.996774 1_555
H7 O25 0.996774 1_555
H8 O24 1.032123 1_555
H8 O30 1.542486 1_655
H9 O25 1.032123 1_555
H9 O31 1.542486 1_455
H10 O26 1.011829 1_455
H10 O17 1.595904 1_555
H11 O27 1.011829 1_655
H11 O16 1.595904 1_555
H12 O26 0.994774 1_555
H13 O27 0.994774 1_555
H14 O28 1.006991 1_555
H14 O15 1.600506 1_555
H15 O29 1.006991 1_555
H15 O14 1.600506 1_555
H16 O28 1.005329 1_555
H16 O37 1.625000 1_555
H17 O29 1.005329 1_555
H17 O36 1.625000 1_555
H18 O30 0.986566 1_655
H19 O31 0.986566 1_455
H20 O30 0.992159 1_555
H21 O31 0.992159 1_555
H22 O32 0.982601 1_555
H23 O33 0.982601 1_555
H24 O32 1.001012 1_554
H25 O33 1.001012 1_556
H26 O34 0.991077 1_555
H27 O35 0.991077 1_555
H28 O34 0.979947 1_555
H29 O35 0.979947 1_555
H30 O36 0.988345 1_555
H31 O37 0.988345 1_555
H32 O36 0.992454 1_555
H33 O37 0.992454 1_555
H34 O38 0.979236 1_555
H35 O39 0.979236 1_555
H36 O38 0.974552 1_555
H37 O39 0.974552 1_555
