# generated using pymatgen
data_K2MgFe4P6(O4F3)4
_symmetry_space_group_name_H-M   'P 1'
_cell_length_a   7.37121558
_cell_length_b   7.63011005
_cell_length_c   11.28548503
_cell_angle_alpha   102.19228112
_cell_angle_beta   107.83731023
_cell_angle_gamma   91.41135171
_symmetry_Int_Tables_number   1
_chemical_formula_structural   K2MgFe4P6(O4F3)4
_chemical_formula_sum   'K2 Mg1 Fe4 P6 O16 F12'
_cell_volume   587.86397411
_cell_formula_units_Z   1
loop_
 _symmetry_equiv_pos_site_id
 _symmetry_equiv_pos_as_xyz
  1  'x, y, z'
loop_
 _atom_site_type_symbol
 _atom_site_label
 _atom_site_symmetry_multiplicity
 _atom_site_fract_x
 _atom_site_fract_y
 _atom_site_fract_z
 _atom_site_occupancy
  K  K0  1  0.76323374  0.07670056  0.80793494  1
  K  K1  1  0.26614309  0.95189852  0.13704909  1
  Mg  Mg0  1  0.15194128  0.81298433  0.38366061  1
  Fe  Fe0  1  0.65188475  0.32873685  0.32326392  1
  Fe  Fe1  1  0.33939667  0.65555814  0.67467159  1
  Fe  Fe2  1  0.50234151  0.49532695  0.99790884  1
  Fe  Fe3  1  0.97802343  0.07308800  0.53566010  1
  P  P0  1  0.63170890  0.74117496  0.50321543  1
  P  P1  1  0.35161809  0.24839619  0.48819586  1
  P  P2  1  0.30464912  0.08435906  0.81771952  1
  P  P3  1  0.72798161  0.90263700  0.18488404  1
  P  P4  1  0.05469967  0.58158577  0.83898647  1
  P  P5  1  0.94820688  0.41998412  0.16415131  1
  O  O0  1  0.68315497  0.58207073  0.42069519  1
  O  O1  1  0.28048534  0.41569918  0.54984840  1
  O  O2  1  0.76701242  0.91014200  0.54506554  1
  O  O3  1  0.20406289  0.08252846  0.45528790  1
  O  O4  1  0.63777903  0.07078060  0.22975972  1
  O  O5  1  0.39399747  0.91536118  0.77314838  1
  O  O6  1  0.45904049  0.23593263  0.89260066  1
  O  O7  1  0.57258831  0.75216646  0.10967828  1
  O  O8  1  0.89594982  0.85697326  0.28759635  1
  O  O9  1  0.13076761  0.13291812  0.72150206  1
  O  O10  1  0.89801505  0.38004085  0.27423256  1
  O  O11  1  0.10362009  0.61679826  0.72648823  1
  O  O12  1  0.81308384  0.46159048  0.04866624  1
  O  O13  1  0.20136710  0.55446671  0.95654282  1
  O  O14  1  0.41935375  0.25612989  0.37471132  1
  O  O15  1  0.55618309  0.70879850  0.60757750  1
  F  F0  1  0.82763781  0.26660312  0.47389511  1
  F  F1  1  0.15423580  0.74878133  0.53366789  1
  F  F2  1  0.49854313  0.38713756  0.16795661  1
  F  F3  1  0.49497837  0.57754771  0.81941260  1
  F  F4  1  0.82624280  0.95357616  0.08521671  1
  F  F5  1  0.21094539  0.03440973  0.92103031  1
  F  F6  1  0.88788071  0.42582787  0.78819513  1
  F  F7  1  0.12148800  0.58343591  0.22818608  1
  F  F8  1  0.53033090  0.20606877  0.59672160  1
  F  F9  1  0.43380951  0.79798553  0.39617752  1
  F  F10  1  0.07556454  0.27268417  0.12107936  1
  F  F11  1  0.93755303  0.74111441  0.88150820  1
loop_
_geom_bond_atom_site_label_1
_geom_bond_atom_site_label_2
_geom_bond_distance
_geom_bond_site_symmetry_2
K0 O5 2.837879 1_545
K0 O6 2.893664 1_555
K0 O2 2.979352 1_545
K0 O9 3.195860 1_655
K0 O15 3.211824 1_545
K1 O4 2.672577 1_565
K1 O7 2.814007 1_555
K1 O14 3.040253 1_565
K1 O13 3.208901 1_554
Mg0 O8 1.944292 1_455
Mg0 O3 2.024710 1_565
Fe0 O0 1.980796 1_555
Fe0 O4 2.010898 1_555
Fe0 O14 2.068987 1_555
Fe0 O10 2.102992 1_555
Fe1 O1 2.004884 1_555
Fe1 O5 2.020605 1_555
Fe1 O11 2.029849 1_555
Fe1 O15 2.032513 1_555
Fe2 O6 2.043163 1_555
Fe2 O7 2.050714 1_556
Fe2 O13 2.201659 1_555
Fe2 O12 2.220024 1_556
Fe3 O9 1.999605 1_655
Fe3 O2 2.009470 1_545
Fe3 O3 2.133456 1_655
O0 P0 1.498782 1_555
O1 P1 1.506620 1_555
O2 P0 1.506916 1_555
O3 P1 1.552045 1_555
O4 P3 1.522638 1_545
O5 P2 1.523266 1_565
O6 P2 1.509971 1_555
O7 P3 1.509494 1_555
O8 P3 1.520069 1_555
O9 P2 1.516530 1_555
O10 P5 1.486297 1_555
O11 P4 1.494617 1_555
O12 P5 1.478687 1_555
O13 P4 1.489963 1_555
O14 P1 1.521599 1_555
O15 P0 1.508619 1_555
F0 Fe0 1.953049 1_555
F0 Fe3 1.984152 1_555
F1 Mg0 1.854548 1_555
F1 Fe1 2.023948 1_555
F2 Fe0 1.920729 1_555
F2 Fe2 2.250774 1_554
F3 Fe1 1.906410 1_555
F3 Fe2 2.218756 1_555
F4 P3 1.615778 1_555
F4 K1 3.114479 1_655
F5 P2 1.627809 1_555
F5 K1 2.560933 1_546
F5 K0 3.204727 1_455
F6 P4 1.568916 1_655
F6 K0 2.871509 1_555
F7 P5 1.638435 1_455
F7 Mg0 2.153599 1_555
F8 P1 1.593524 1_555
F8 K0 2.858976 1_555
F9 P0 1.716932 1_555
F9 Mg0 2.046625 1_555
F9 K1 3.281245 1_555
F10 P5 1.575295 1_455
F10 K1 2.863114 1_545
F11 P4 1.586342 1_655
F11 K0 3.050154 1_565
F11 K1 3.215563 1_656
