# generated using pymatgen
data_AgO2
_symmetry_space_group_name_H-M   'P 1'
_cell_length_a   7.11545779
_cell_length_b   7.11545779
_cell_length_c   7.11545779
_cell_angle_alpha   135.87271309
_cell_angle_beta   135.87271309
_cell_angle_gamma   64.17718425
_symmetry_Int_Tables_number   1
_chemical_formula_structural   AgO2
_chemical_formula_sum   'Ag4 O8'
_cell_volume   172.26764378
_cell_formula_units_Z   4
loop_
 _symmetry_equiv_pos_site_id
 _symmetry_equiv_pos_as_xyz
  1  'x, y, z'
loop_
 _atom_site_type_symbol
 _atom_site_label
 _atom_site_symmetry_multiplicity
 _atom_site_fract_x
 _atom_site_fract_y
 _atom_site_fract_z
 _atom_site_occupancy
  Ag  Ag0  1  0.50000000  0.50000000  0.00000000  1
  Ag  Ag1  1  0.25000000  0.75000000  0.50000000  1
  Ag  Ag2  1  0.00000000  0.00000000  0.00000000  1
  Ag  Ag3  1  0.75000000  0.25000000  0.50000000  1
  O  O0  1  0.34220500  0.34220500  0.18440900  1
  O  O1  1  0.15779500  0.15779500  0.81559100  1
  O  O2  1  0.09220500  0.40779500  0.50000000  1
  O  O3  1  0.40779500  0.90779500  0.31559100  1
  O  O4  1  0.90779500  0.59220500  0.50000000  1
  O  O5  1  0.59220500  0.09220500  0.68440900  1
  O  O6  1  0.65779500  0.84220500  0.00000000  1
  O  O7  1  0.84220500  0.65779500  0.00000000  1
loop_
_geom_bond_atom_site_label_1
_geom_bond_atom_site_label_2
_geom_bond_distance
_geom_bond_site_symmetry_2
Ag0 O4 2.234957 1_555
Ag0 O2 2.234957 1_554
Ag0 O3 2.234959 1_555
Ag0 O5 2.234959 1_554
Ag1 O6 2.234957 1_556
Ag1 O7 2.234957 1_455
Ag1 O0 2.234959 1_555
Ag1 O1 2.234959 1_565
Ag2 O4 2.234957 1_444
Ag2 O2 2.234957 1_555
Ag2 O3 2.234959 1_545
Ag2 O5 2.234959 1_454
Ag3 O7 2.234957 1_556
Ag3 O6 2.234957 1_545
Ag3 O1 2.234959 1_655
Ag3 O0 2.234959 1_555
O0 O1 1.394111 1_554
O2 O4 1.394119 1_455
O3 O5 1.394111 1_565
O6 O7 1.394119 1_555
