# generated using pymatgen
data_AcYbTl2
_symmetry_space_group_name_H-M   'P 1'
_cell_length_a   5.56635334
_cell_length_b   5.56635334
_cell_length_c   5.56635334
_cell_angle_alpha   60.00000000
_cell_angle_beta   60.00000000
_cell_angle_gamma   60.00000000
_symmetry_Int_Tables_number   1
_chemical_formula_structural   AcYbTl2
_chemical_formula_sum   'Ac1 Yb1 Tl2'
_cell_volume   121.95435537
_cell_formula_units_Z   1
loop_
 _symmetry_equiv_pos_site_id
 _symmetry_equiv_pos_as_xyz
  1  'x, y, z'
loop_
 _atom_site_type_symbol
 _atom_site_label
 _atom_site_symmetry_multiplicity
 _atom_site_fract_x
 _atom_site_fract_y
 _atom_site_fract_z
 _atom_site_occupancy
  Ac  Ac0  1  0.50000000  0.50000000  0.50000000  1
  Yb  Yb0  1  0.00000000  0.00000000  0.00000000  1
  Tl  Tl0  1  0.75000000  0.75000000  0.75000000  1
  Tl  Tl1  1  0.25000000  0.25000000  0.25000000  1
loop_
_geom_bond_atom_site_label_1
_geom_bond_atom_site_label_2
_geom_bond_distance
_geom_bond_site_symmetry_2
Ac0 Tl0 3.408681 1_455
Ac0 Tl1 3.408681 1_655
Ac0 Tl0 3.408681 1_554
Ac0 Tl0 3.408681 1_545
Ac0 Tl0 3.408681 1_555
Ac0 Tl1 3.408681 1_555
Ac0 Tl1 3.408681 1_556
Ac0 Tl1 3.408681 1_565
Tl0 Yb0 3.408681 1_566
Tl0 Yb0 3.408681 1_656
Tl0 Yb0 3.408681 1_665
Tl0 Yb0 3.408681 1_666
Tl1 Yb0 3.408681 1_655
Tl1 Yb0 3.408681 1_555
Tl1 Yb0 3.408681 1_556
Tl1 Yb0 3.408681 1_565
