# generated using pymatgen
data_LiAlAsO4
_symmetry_space_group_name_H-M   'P 1'
_cell_length_a   5.32655819
_cell_length_b   5.32655867
_cell_length_c   5.32655820
_cell_angle_alpha   78.51393508
_cell_angle_beta   126.83873398
_cell_angle_gamma   126.83873401
_symmetry_Int_Tables_number   1
_chemical_formula_structural   LiAlAsO4
_chemical_formula_sum   'Li1 Al1 As1 O4'
_cell_volume   93.71743428
_cell_formula_units_Z   1
loop_
 _symmetry_equiv_pos_site_id
 _symmetry_equiv_pos_as_xyz
  1  'x, y, z'
loop_
 _atom_site_type_symbol
 _atom_site_label
 _atom_site_symmetry_multiplicity
 _atom_site_fract_x
 _atom_site_fract_y
 _atom_site_fract_z
 _atom_site_occupancy
  Li  Li0  1  0.50000000  0.75000000  0.25000000  1
  Al  Al0  1  0.00000000  0.00000000  0.00000000  1
  As  As0  1  0.50000000  0.25000000  0.75000000  1
  O  O0  1  0.57822300  0.93679500  0.90016200  1
  O  O1  1  0.03663200  0.09983800  0.67806100  1
  O  O2  1  0.42177700  0.32193900  0.35857200  1
  O  O3  1  0.96336800  0.64142800  0.06320500  1
loop_
_geom_bond_atom_site_label_1
_geom_bond_atom_site_label_2
_geom_bond_distance
_geom_bond_site_symmetry_2
Li0 O3 2.081213 1_455
Li0 O1 2.081217 1_665
Li0 O0 2.081218 1_554
Li0 O2 2.081218 1_555
Al0 O1 1.781888 1_554
Al0 O0 1.781891 1_444
Al0 O2 1.781891 1_555
Al0 O3 1.781893 1_445
As0 O2 1.870581 1_555
As0 O0 1.870581 1_545
As0 O3 1.870582 1_556
As0 O1 1.870586 1_555
