# generated using pymatgen
data_LaNdNi2
_symmetry_space_group_name_H-M   'P 1'
_cell_length_a   3.77821873
_cell_length_b   7.01191917
_cell_length_c   12.13219104
_cell_angle_alpha   90.37119417
_cell_angle_beta   89.94110914
_cell_angle_gamma   90.06772643
_symmetry_Int_Tables_number   1
_chemical_formula_structural   LaNdNi2
_chemical_formula_sum   'La3 Nd3 Ni6'
_cell_volume   321.40571483
_cell_formula_units_Z   3
loop_
 _symmetry_equiv_pos_site_id
 _symmetry_equiv_pos_as_xyz
  1  'x, y, z'
loop_
 _atom_site_type_symbol
 _atom_site_label
 _atom_site_symmetry_multiplicity
 _atom_site_fract_x
 _atom_site_fract_y
 _atom_site_fract_z
 _atom_site_occupancy
  La  La0  1  0.49998400  0.99816300  0.50047100  1
  La  La1  1  0.50001700  0.50193200  0.99953200  1
  La  La2  1  0.50001100  0.24986900  0.24997100  1
  Nd  Nd0  1  0.50000600  0.75008600  0.74995500  1
  Nd  Nd1  1  0.50000000  0.74989800  0.25001000  1
  Nd  Nd2  1  0.49999500  0.24993600  0.74999500  1
  Ni  Ni0  1  0.00008800  0.00208300  0.33324500  1
  Ni  Ni1  1  0.99989900  0.50069900  0.83424600  1
  Ni  Ni2  1  0.99989000  0.49769700  0.16677800  1
  Ni  Ni3  1  0.00010800  0.99938300  0.66574700  1
  Ni  Ni4  1  0.00000300  0.99939200  0.99964900  1
  Ni  Ni5  1  0.99999900  0.50066200  0.50040100  1
loop_
_geom_bond_atom_site_label_1
_geom_bond_atom_site_label_2
_geom_bond_distance
_geom_bond_site_symmetry_2
La0 Ni3 2.753132 1_555
La0 Ni3 2.756587 1_655
La0 Ni0 2.771244 1_665
La0 Ni0 2.773595 1_565
La0 Ni5 3.965110 1_455
La0 Ni5 3.969090 1_555
La0 Ni5 3.996020 1_565
La0 Ni5 3.999903 1_465
La1 Ni1 2.753236 1_555
La1 Ni1 2.756660 1_455
La1 Ni2 2.771513 1_456
La1 Ni2 2.773748 1_556
La1 Ni4 3.964856 1_655
La1 Ni4 3.968832 1_555
La1 Ni4 3.996275 1_545
La1 Ni4 4.000162 1_645
La2 Ni2 2.759809 1_555
La2 Ni0 2.760099 1_555
La2 Ni2 2.764663 1_455
La2 Ni0 2.764726 1_655
La2 Ni4 3.975340 1_644
La2 Ni4 3.976362 1_544
La2 Ni5 3.977342 1_455
La2 Ni5 3.978290 1_555
Nd0 Ni3 2.771454 1_655
Nd0 Ni1 2.772240 1_455
Nd0 Ni3 2.775174 1_555
Nd0 Ni1 2.775937 1_555
Nd0 Ni5 3.965029 1_555
Nd0 Ni4 3.965978 1_555
Nd0 Ni5 3.966050 1_455
Nd0 Ni4 3.966964 1_655
Nd1 Ni0 2.772996 1_665
Nd1 Ni2 2.773111 1_455
Nd1 Ni0 2.773977 1_565
Nd1 Ni2 2.773978 1_555
Nd1 Ni5 3.987518 1_455
Nd1 Ni4 3.988044 1_654
Nd1 Ni5 3.992427 1_555
Nd1 Ni4 3.992947 1_554
Nd2 Ni3 2.769700 1_545
Nd2 Ni1 2.770687 1_555
Nd2 Ni3 2.771682 1_645
Nd2 Ni1 2.772583 1_455
Nd2 Ni4 3.984748 1_545
Nd2 Ni5 3.984783 1_555
Nd2 Ni5 3.989687 1_455
Nd2 Ni4 3.989694 1_645
