# generated using pymatgen
data_Ho2MgSe4
_symmetry_space_group_name_H-M   'P 1'
_cell_length_a   7.51396567
_cell_length_b   7.51396567
_cell_length_c   7.51396567
_cell_angle_alpha   110.48732439
_cell_angle_beta   110.48732439
_cell_angle_gamma   107.45758492
_symmetry_Int_Tables_number   1
_chemical_formula_structural   Ho2MgSe4
_chemical_formula_sum   'Ho4 Mg2 Se8'
_cell_volume   326.27589250
_cell_formula_units_Z   2
loop_
 _symmetry_equiv_pos_site_id
 _symmetry_equiv_pos_as_xyz
  1  'x, y, z'
loop_
 _atom_site_type_symbol
 _atom_site_label
 _atom_site_symmetry_multiplicity
 _atom_site_fract_x
 _atom_site_fract_y
 _atom_site_fract_z
 _atom_site_occupancy
  Ho  Ho0  1  0.87500000  0.75694600  0.38194600  1
  Ho  Ho1  1  0.50694600  0.12500000  0.88194600  1
  Ho  Ho2  1  0.37500000  0.49305400  0.61805400  1
  Ho  Ho3  1  0.24305400  0.62500000  0.11805400  1
  Mg  Mg0  1  0.00000000  0.00000000  0.00000000  1
  Mg  Mg1  1  0.75000000  0.25000000  0.50000000  1
  Se  Se0  1  0.50710800  0.37844300  0.26211200  1
  Se  Se1  1  0.75500400  0.49289200  0.87133500  1
  Se  Se2  1  0.11633100  0.24499600  0.73788800  1
  Se  Se3  1  0.62155700  0.88366900  0.12866500  1
  Se  Se4  1  0.24289200  0.00500400  0.37133500  1
  Se  Se5  1  0.99499600  0.36633100  0.23788800  1
  Se  Se6  1  0.63366900  0.87155700  0.62866500  1
  Se  Se7  1  0.12844300  0.75710800  0.76211200  1
loop_
_geom_bond_atom_site_label_1
_geom_bond_atom_site_label_2
_geom_bond_distance
_geom_bond_site_symmetry_2
Ho0 Se3 2.823957 1_555
Ho0 Se7 2.823957 1_655
Ho0 Se4 2.879035 1_665
Ho0 Se0 2.879035 1_555
Ho0 Se6 3.104705 1_555
Ho0 Se2 3.104705 1_665
Ho0 Se1 3.262876 1_554
Ho0 Se5 3.262876 1_555
Ho1 Se6 2.823957 1_545
Ho1 Se0 2.823957 1_556
Ho1 Se1 2.879035 1_555
Ho1 Se7 2.879035 1_545
Ho1 Se3 3.104705 1_546
Ho1 Se5 3.104705 1_556
Ho1 Se4 3.262876 1_555
Ho1 Se2 3.262876 1_555
Ho2 Se5 2.823957 1_455
Ho2 Se1 2.823957 1_555
Ho2 Se2 2.879035 1_555
Ho2 Se6 2.879035 1_555
Ho2 Se0 3.104705 1_555
Ho2 Se4 3.104705 1_555
Ho2 Se7 3.262876 1_555
Ho2 Se3 3.262876 1_556
Ho3 Se4 2.823957 1_565
Ho3 Se2 2.823957 1_554
Ho3 Se5 2.879035 1_455
Ho3 Se3 2.879035 1_555
Ho3 Se1 3.104705 1_454
Ho3 Se7 3.104705 1_554
Ho3 Se0 3.262876 1_555
Ho3 Se6 3.262876 1_555
Mg0 Se6 2.727324 1_444
Mg0 Se7 2.727324 1_544
Mg0 Se5 2.727324 1_455
Mg0 Se4 2.727324 1_555
Mg0 Se3 3.287770 1_445
Mg0 Se1 3.287770 1_444
Mg0 Se2 3.287770 1_554
Mg0 Se0 3.287770 1_555
Mg1 Se0 2.727324 1_555
Mg1 Se3 2.727324 1_545
Mg1 Se1 2.727324 1_555
Mg1 Se2 2.727324 1_655
Mg1 Se6 3.287770 1_545
Mg1 Se7 3.287770 1_655
Mg1 Se4 3.287770 1_555
Mg1 Se5 3.287770 1_555
