# generated using pymatgen
data_HfSnRh
_symmetry_space_group_name_H-M   'P 1'
_cell_length_a   3.59733761
_cell_length_b   7.27360456
_cell_length_c   7.27381486
_cell_angle_alpha   119.99906471
_cell_angle_beta   90.00000000
_cell_angle_gamma   90.00000000
_symmetry_Int_Tables_number   1
_chemical_formula_structural   HfSnRh
_chemical_formula_sum   'Hf3 Sn3 Rh3'
_cell_volume   164.82680949
_cell_formula_units_Z   3
loop_
 _symmetry_equiv_pos_site_id
 _symmetry_equiv_pos_as_xyz
  1  'x, y, z'
loop_
 _atom_site_type_symbol
 _atom_site_label
 _atom_site_symmetry_multiplicity
 _atom_site_fract_x
 _atom_site_fract_y
 _atom_site_fract_z
 _atom_site_occupancy
  Hf  Hf0  1  0.50000000  0.60376521  0.00000000  1
  Hf  Hf1  1  0.50000000  0.39623011  0.39621194  1
  Hf  Hf2  1  0.50000000  0.00001718  0.60378806  1
  Sn  Sn0  1  -0.00000000  0.26908499  -0.00000000  1
  Sn  Sn1  1  0.00000000  0.73088325  0.73088781  1
  Sn  Sn2  1  0.00000000  -0.00000456  0.26911219  1
  Rh  Rh0  1  -0.00000000  0.33331625  0.66668649  1
  Rh  Rh1  1  0.00000000  0.66662876  0.33331351  1
  Rh  Rh2  1  0.50000000  0.99997881  -0.00000000  1
loop_
_geom_bond_atom_site_label_1
_geom_bond_atom_site_label_2
_geom_bond_distance
_geom_bond_site_symmetry_2
Hf0 Rh0 2.865962 1_554
Hf0 Rh0 2.865962 1_654
Hf0 Rh1 2.865964 1_555
Hf0 Rh1 2.865964 1_655
Hf0 Rh2 2.881901 1_555
Hf0 Sn0 3.026744 1_555
Hf0 Sn0 3.026744 1_655
Hf0 Sn2 3.119558 1_565
Hf0 Sn2 3.119558 1_665
Hf0 Sn1 3.119558 1_554
Hf0 Sn1 3.119558 1_654
Hf1 Rh1 2.865749 1_555
Hf1 Rh1 2.865749 1_655
Hf1 Rh0 2.866265 1_655
Hf1 Rh0 2.866265 1_555
Hf1 Rh2 2.882115 1_545
Hf1 Sn1 3.026708 1_655
Hf1 Sn1 3.026708 1_555
Hf1 Sn0 3.119464 1_655
Hf1 Sn0 3.119464 1_555
Hf1 Sn2 3.119577 1_555
Hf1 Sn2 3.119577 1_655
Hf2 Rh0 2.865760 1_655
Hf2 Rh0 2.865760 1_555
Hf2 Rh1 2.866265 1_645
Hf2 Rh1 2.866265 1_545
Hf2 Rh2 2.882112 1_546
Hf2 Sn2 3.026712 1_555
Hf2 Sn2 3.026712 1_655
Hf2 Sn0 3.119464 1_656
Hf2 Sn0 3.119464 1_556
Hf2 Sn1 3.119572 1_545
Hf2 Sn1 3.119572 1_645
Rh0 Sn0 2.688668 1_556
Rh0 Sn1 2.688846 1_555
Rh0 Sn2 2.688848 1_555
Rh1 Sn0 2.688663 1_555
Rh1 Sn1 2.688846 1_555
Rh1 Sn2 2.688854 1_565
Rh2 Sn0 2.658292 1_665
Rh2 Sn0 2.658292 1_565
Rh2 Sn1 2.658320 1_554
Rh2 Sn1 2.658320 1_654
Rh2 Sn2 2.658321 1_565
Rh2 Sn2 2.658321 1_665
