# generated using pymatgen
data_Lu2MgSe4
_symmetry_space_group_name_H-M   'P 1'
_cell_length_a   3.91811800
_cell_length_b   12.99869400
_cell_length_c   13.60724000
_cell_angle_alpha   90.00000000
_cell_angle_beta   90.00000000
_cell_angle_gamma   90.00000000
_symmetry_Int_Tables_number   1
_chemical_formula_structural   Lu2MgSe4
_chemical_formula_sum   'Lu8 Mg4 Se16'
_cell_volume   693.02240657
_cell_formula_units_Z   4
loop_
 _symmetry_equiv_pos_site_id
 _symmetry_equiv_pos_as_xyz
  1  'x, y, z'
loop_
 _atom_site_type_symbol
 _atom_site_label
 _atom_site_symmetry_multiplicity
 _atom_site_fract_x
 _atom_site_fract_y
 _atom_site_fract_z
 _atom_site_occupancy
  Lu  Lu0  1  0.25000000  0.11025200  0.08146800  1
  Lu  Lu1  1  0.75000000  0.88974800  0.91853200  1
  Lu  Lu2  1  0.75000000  0.38974800  0.58146800  1
  Lu  Lu3  1  0.25000000  0.61025200  0.41853200  1
  Lu  Lu4  1  0.25000000  0.14544400  0.70289000  1
  Lu  Lu5  1  0.75000000  0.85455600  0.29711000  1
  Lu  Lu6  1  0.75000000  0.35455600  0.20289000  1
  Lu  Lu7  1  0.25000000  0.64544400  0.79711000  1
  Mg  Mg0  1  0.75000000  0.12562800  0.42421600  1
  Mg  Mg1  1  0.25000000  0.87437200  0.57578400  1
  Mg  Mg2  1  0.25000000  0.37437200  0.92421600  1
  Mg  Mg3  1  0.75000000  0.62562800  0.07578400  1
  Se  Se0  1  0.75000000  0.02308000  0.61046400  1
  Se  Se1  1  0.25000000  0.97692000  0.38953600  1
  Se  Se2  1  0.25000000  0.47692000  0.11046400  1
  Se  Se3  1  0.75000000  0.52308000  0.88953600  1
  Se  Se4  1  0.25000000  0.03497400  0.88122600  1
  Se  Se5  1  0.75000000  0.96502600  0.11877400  1
  Se  Se6  1  0.75000000  0.46502600  0.38122600  1
  Se  Se7  1  0.25000000  0.53497400  0.61877400  1
  Se  Se8  1  0.25000000  0.21517300  0.26259100  1
  Se  Se9  1  0.75000000  0.78482700  0.73740900  1
  Se  Se10  1  0.75000000  0.28482700  0.76259100  1
  Se  Se11  1  0.25000000  0.71517300  0.23740900  1
  Se  Se12  1  0.75000000  0.24998600  0.02044300  1
  Se  Se13  1  0.25000000  0.75001400  0.97955700  1
  Se  Se14  1  0.25000000  0.25001400  0.52044300  1
  Se  Se15  1  0.75000000  0.74998600  0.47955700  1
loop_
_geom_bond_atom_site_label_1
_geom_bond_atom_site_label_2
_geom_bond_distance
_geom_bond_site_symmetry_2
Lu0 Se5 2.767525 1_545
Lu0 Se5 2.767525 1_445
Lu0 Se12 2.797608 1_555
Lu0 Se12 2.797608 1_455
Lu0 Se8 2.816775 1_555
Lu0 Se4 2.895118 1_554
Lu1 Se4 2.767525 1_565
Lu1 Se4 2.767525 1_665
Lu1 Se13 2.797608 1_655
Lu1 Se13 2.797608 1_555
Lu1 Se9 2.816775 1_555
Lu1 Se5 2.895118 1_556
Lu2 Se7 2.767525 1_555
Lu2 Se7 2.767525 1_655
Lu2 Se14 2.797608 1_555
Lu2 Se14 2.797608 1_655
Lu2 Se10 2.816775 1_555
Lu2 Se6 2.895118 1_555
Lu3 Se6 2.767525 1_555
Lu3 Se6 2.767525 1_455
Lu3 Se15 2.797608 1_455
Lu3 Se15 2.797608 1_555
Lu3 Se11 2.816775 1_555
Lu3 Se7 2.895118 1_555
Lu4 Se10 2.789347 1_455
Lu4 Se10 2.789347 1_555
Lu4 Se0 2.819494 1_455
Lu4 Se0 2.819494 1_555
Lu4 Se4 2.819695 1_555
Lu4 Se14 2.830358 1_555
Lu5 Se11 2.789347 1_655
Lu5 Se11 2.789347 1_555
Lu5 Se1 2.819494 1_655
Lu5 Se1 2.819494 1_555
Lu5 Se5 2.819695 1_555
Lu5 Se15 2.830358 1_555
Lu6 Se8 2.789347 1_555
Lu6 Se8 2.789347 1_655
Lu6 Se2 2.819494 1_655
Lu6 Se2 2.819494 1_555
Lu6 Se6 2.819695 1_555
Lu6 Se12 2.830358 1_555
Lu7 Se9 2.789347 1_555
Lu7 Se9 2.789347 1_455
Lu7 Se3 2.819494 1_455
Lu7 Se3 2.819494 1_555
Lu7 Se7 2.819695 1_555
Lu7 Se13 2.830358 1_555
Mg0 Se1 2.792334 1_545
Mg0 Se1 2.792334 1_645
Mg0 Se14 2.857730 1_655
Mg0 Se14 2.857730 1_555
Mg0 Se0 2.863503 1_555
Mg0 Se8 3.166942 1_555
Mg0 Se8 3.166942 1_655
Mg1 Se0 2.792334 1_565
Mg1 Se0 2.792334 1_465
Mg1 Se15 2.857730 1_555
Mg1 Se15 2.857730 1_455
Mg1 Se1 2.863503 1_555
Mg1 Se9 3.166942 1_555
Mg1 Se9 3.166942 1_455
Mg2 Se3 2.792334 1_555
Mg2 Se3 2.792334 1_455
Mg2 Se12 2.857730 1_456
Mg2 Se12 2.857730 1_556
Mg2 Se2 2.863503 1_556
Mg2 Se10 3.166942 1_455
Mg2 Se10 3.166942 1_555
Mg3 Se2 2.792334 1_655
Mg3 Se2 2.792334 1_555
Mg3 Se13 2.857730 1_654
Mg3 Se13 2.857730 1_554
Mg3 Se3 2.863503 1_554
Mg3 Se11 3.166942 1_655
Mg3 Se11 3.166942 1_555
