# generated using pymatgen
data_BaMg4Si3
_symmetry_space_group_name_H-M   'P 1'
_cell_length_a   4.60960111
_cell_length_b   4.60960111
_cell_length_c   8.59931776
_cell_angle_alpha   90.00000000
_cell_angle_beta   90.00000000
_cell_angle_gamma   90.00000000
_symmetry_Int_Tables_number   1
_chemical_formula_structural   BaMg4Si3
_chemical_formula_sum   'Ba1 Mg4 Si3'
_cell_volume   182.72193606
_cell_formula_units_Z   1
loop_
 _symmetry_equiv_pos_site_id
 _symmetry_equiv_pos_as_xyz
  1  'x, y, z'
loop_
 _atom_site_type_symbol
 _atom_site_label
 _atom_site_symmetry_multiplicity
 _atom_site_fract_x
 _atom_site_fract_y
 _atom_site_fract_z
 _atom_site_occupancy
  Ba  Ba0  1  -0.00000000  -0.00000000  0.00000000  1
  Mg  Mg0  1  0.50000000  -0.00000000  0.68318672  1
  Mg  Mg1  1  0.00000000  0.50000000  0.68318672  1
  Mg  Mg2  1  0.50000000  -0.00000000  0.31681328  1
  Mg  Mg3  1  -0.00000000  0.50000000  0.31681328  1
  Si  Si0  1  -0.00000000  -0.00000000  0.50000000  1
  Si  Si1  1  0.50000000  0.50000000  0.85742860  1
  Si  Si2  1  0.50000000  0.50000000  0.14257140  1
loop_
_geom_bond_atom_site_label_1
_geom_bond_atom_site_label_2
_geom_bond_distance
_geom_bond_site_symmetry_2
Ba0 Si2 3.482431 1_445
Ba0 Si1 3.482431 1_454
Ba0 Si1 3.482431 1_444
Ba0 Si2 3.482431 1_555
Ba0 Si2 3.482431 1_545
Ba0 Si1 3.482431 1_544
Ba0 Si2 3.482431 1_455
Ba0 Si1 3.482431 1_554
Ba0 Mg1 3.568521 1_544
Ba0 Mg0 3.568521 1_554
Ba0 Mg1 3.568521 1_554
Ba0 Mg0 3.568521 1_454
Ba0 Mg2 3.568521 1_555
Ba0 Mg3 3.568521 1_555
Ba0 Mg3 3.568521 1_545
Ba0 Mg2 3.568521 1_455
Mg0 Si1 2.749035 1_555
Mg0 Si1 2.749035 1_545
Mg0 Si0 2.791705 1_555
Mg0 Si0 2.791705 1_655
Mg1 Si1 2.749035 1_555
Mg1 Si1 2.749035 1_455
Mg1 Si0 2.791705 1_555
Mg1 Si0 2.791705 1_565
Mg2 Si2 2.749035 1_545
Mg2 Si2 2.749035 1_555
Mg2 Si0 2.791705 1_555
Mg2 Si0 2.791705 1_655
Mg3 Si2 2.749035 1_455
Mg3 Si2 2.749035 1_555
Mg3 Si0 2.791705 1_555
Mg3 Si0 2.791705 1_565
Si1 Si2 2.452034 1_556
