# generated using pymatgen
data_Rb2TaCuSe2
_symmetry_space_group_name_H-M   'P 1'
_cell_length_a   5.64937900
_cell_length_b   6.89471488
_cell_length_c   23.03971626
_cell_angle_alpha   87.12092318
_cell_angle_beta   82.95777058
_cell_angle_gamma   65.81469882
_symmetry_Int_Tables_number   1
_chemical_formula_structural   Rb2TaCuSe2
_chemical_formula_sum   'Rb8 Ta4 Cu4 Se8'
_cell_volume   812.47035789
_cell_formula_units_Z   4
loop_
 _symmetry_equiv_pos_site_id
 _symmetry_equiv_pos_as_xyz
  1  'x, y, z'
loop_
 _atom_site_type_symbol
 _atom_site_label
 _atom_site_symmetry_multiplicity
 _atom_site_fract_x
 _atom_site_fract_y
 _atom_site_fract_z
 _atom_site_occupancy
  Rb  Rb0  1  0.61787900  0.26299300  0.59031900  1
  Rb  Rb1  1  0.79180200  0.73700700  0.59031900  1
  Rb  Rb2  1  0.11912700  0.26299300  0.40968100  1
  Rb  Rb3  1  0.13212100  0.23700700  0.90968100  1
  Rb  Rb4  1  0.47119100  0.73700700  0.40968100  1
  Rb  Rb5  1  0.95819800  0.76299300  0.90968100  1
  Rb  Rb6  1  0.63087300  0.23700700  0.09031900  1
  Rb  Rb7  1  0.27880900  0.76299300  0.09031900  1
  Ta  Ta0  1  0.87500000  0.25000000  0.25000000  1
  Ta  Ta1  1  0.87500000  0.75000000  0.25000000  1
  Ta  Ta2  1  0.87500000  0.25000000  0.75000000  1
  Ta  Ta3  1  0.37500000  0.75000000  0.75000000  1
  Cu  Cu0  1  0.37500000  0.25000000  0.25000000  1
  Cu  Cu1  1  0.37500000  0.75000000  0.25000000  1
  Cu  Cu2  1  0.37500000  0.25000000  0.75000000  1
  Cu  Cu3  1  0.87500000  0.75000000  0.75000000  1
  Se  Se0  1  0.10893800  0.22146000  0.15178800  1
  Se  Se1  1  0.73927400  0.77854000  0.15178800  1
  Se  Se2  1  0.66960100  0.22146000  0.84821200  1
  Se  Se3  1  0.64106200  0.27854000  0.34821200  1
  Se  Se4  1  0.48218600  0.77854000  0.84821200  1
  Se  Se5  1  0.01072600  0.72146000  0.34821200  1
  Se  Se6  1  0.08039900  0.27854000  0.65178800  1
  Se  Se7  1  0.26781400  0.72146000  0.65178800  1
loop_
_geom_bond_atom_site_label_1
_geom_bond_atom_site_label_2
_geom_bond_distance
_geom_bond_site_symmetry_2
Rb0 Se6 3.151383 1_555
Rb0 Se6 3.161776 1_655
Rb0 Se7 3.247992 1_555
Rb1 Se7 3.151388 1_655
Rb1 Se7 3.161771 1_555
Rb1 Se6 3.247993 1_655
Rb2 Se3 3.151393 1_555
Rb2 Se3 3.161766 1_455
Rb2 Se5 3.247993 1_555
Rb3 Se2 3.151383 1_555
Rb3 Se2 3.161776 1_455
Rb3 Se4 3.247992 1_545
Rb4 Se5 3.151388 1_555
Rb4 Se5 3.161771 1_655
Rb4 Se3 3.247992 1_555
Rb5 Se4 3.151388 1_555
Rb5 Se4 3.161771 1_655
Rb5 Se2 3.247993 1_565
Rb6 Se0 3.151393 1_555
Rb6 Se0 3.161766 1_655
Rb6 Se1 3.247993 1_545
Rb7 Se1 3.151388 1_555
Rb7 Se1 3.161771 1_455
Rb7 Se0 3.247992 1_565
Cu0 Ta0 2.824689 1_455
Cu0 Ta0 2.824689 1_555
Cu0 Se0 2.922189 1_555
Cu0 Se3 2.922189 1_555
Cu0 Ta1 3.447358 1_545
Cu0 Ta1 3.447358 1_455
Cu0 Rb2 3.775664 1_555
Cu0 Rb6 3.775664 1_555
Cu1 Ta1 2.824689 1_455
Cu1 Ta1 2.824689 1_555
Cu1 Se1 2.922189 1_555
Cu1 Se5 2.922189 1_555
Cu1 Ta0 3.447358 1_465
Cu1 Ta0 3.447358 1_555
Cu1 Rb4 3.775663 1_555
Cu1 Rb7 3.775663 1_555
Cu2 Ta2 2.824689 1_455
Cu2 Ta2 2.824689 1_555
Cu2 Se2 2.922185 1_555
Cu2 Se6 2.922185 1_555
Cu2 Ta3 3.447357 1_545
Cu2 Ta3 3.447357 1_555
Cu2 Rb3 3.775663 1_555
Cu2 Rb0 3.775663 1_555
Cu3 Ta3 2.824689 1_655
Cu3 Ta3 2.824689 1_555
Cu3 Se7 2.922189 1_655
Cu3 Se4 2.922189 1_555
Cu3 Ta2 3.447357 1_565
Cu3 Ta2 3.447357 1_555
Cu3 Rb5 3.775663 1_555
Cu3 Rb1 3.775663 1_555
Se0 Ta0 2.450283 1_455
Se1 Ta1 2.450283 1_555
Se2 Ta2 2.450285 1_555
Se3 Ta0 2.450283 1_555
Se4 Ta3 2.450282 1_555
Se5 Ta1 2.450283 1_455
Se6 Ta2 2.450285 1_455
Se7 Ta3 2.450282 1_555
