# generated using pymatgen
data_CsZnFeF6
_symmetry_space_group_name_H-M   'P 1'
_cell_length_a   7.36848534
_cell_length_b   7.36848534
_cell_length_c   7.36848534
_cell_angle_alpha   120.70548062
_cell_angle_beta   119.60201802
_cell_angle_gamma   89.73657282
_symmetry_Int_Tables_number   1
_chemical_formula_structural   CsZnFeF6
_chemical_formula_sum   'Cs2 Zn2 Fe2 F12'
_cell_volume   282.19780359
_cell_formula_units_Z   2
loop_
 _symmetry_equiv_pos_site_id
 _symmetry_equiv_pos_as_xyz
  1  'x, y, z'
loop_
 _atom_site_type_symbol
 _atom_site_label
 _atom_site_symmetry_multiplicity
 _atom_site_fract_x
 _atom_site_fract_y
 _atom_site_fract_z
 _atom_site_occupancy
  Cs  Cs0  1  0.36930927  0.61930927  0.75000000  1
  Cs  Cs1  1  0.63069073  0.38069073  0.25000000  1
  Zn  Zn0  1  0.00000000  0.00000000  0.50000000  1
  Zn  Zn1  1  0.00000000  0.50000000  0.00000000  1
  Fe  Fe0  1  0.00000000  0.00000000  0.00000000  1
  Fe  Fe1  1  0.50000000  0.00000000  0.50000000  1
  F  F0  1  0.31398853  0.06398853  0.25000000  1
  F  F1  1  0.92714786  0.67714786  0.25000000  1
  F  F2  1  0.32747020  0.68883707  0.26039015  1
  F  F3  1  0.92844692  0.06708006  0.23960985  1
  F  F4  1  0.32747020  0.06708006  0.63863413  1
  F  F5  1  0.92844692  0.68883707  0.86136587  1
  F  F6  1  0.68601147  0.93601147  0.75000000  1
  F  F7  1  0.07285214  0.32285214  0.75000000  1
  F  F8  1  0.67252980  0.31116293  0.73960985  1
  F  F9  1  0.07155308  0.93291994  0.76039015  1
  F  F10  1  0.67252980  0.93291994  0.36136587  1
  F  F11  1  0.07155308  0.31116293  0.13863413  1
loop_
_geom_bond_atom_site_label_1
_geom_bond_atom_site_label_2
_geom_bond_distance
_geom_bond_site_symmetry_2
Cs0 F7 3.096358 1_555
Cs0 F11 3.177756 1_555
Cs0 F10 3.177756 1_556
Cs0 F9 3.177761 1_555
Cs0 F8 3.177761 1_555
Cs0 F6 3.307809 1_555
Cs1 F1 3.096358 1_555
Cs1 F5 3.177756 1_555
Cs1 F4 3.177756 1_554
Cs1 F3 3.177761 1_555
Cs1 F2 3.177761 1_555
Cs1 F0 3.307809 1_555
F0 Fe1 1.970021 1_555
F0 Fe0 1.970021 1_555
F1 Zn1 1.974913 1_655
F1 Zn0 1.974913 1_665
F2 Fe1 1.914557 1_565
F2 Zn1 2.042141 1_555
F3 Fe0 1.914557 1_655
F3 Zn0 2.042141 1_655
F4 Fe1 1.914562 1_555
F4 Zn0 2.042140 1_555
F5 Fe0 1.914555 1_666
F5 Zn1 2.042146 1_656
F6 Fe1 1.970021 1_565
F6 Fe0 1.970021 1_666
F7 Zn0 1.974913 1_555
F7 Zn1 1.974913 1_556
F8 Fe1 1.914557 1_555
F8 Zn1 2.042141 1_656
F9 Fe0 1.914557 1_566
F9 Zn0 2.042141 1_565
F10 Fe1 1.914562 1_565
F10 Zn0 2.042140 1_665
F11 Fe0 1.914555 1_555
F11 Zn1 2.042146 1_555
