# generated using pymatgen
data_Mg(BiO2)2
_symmetry_space_group_name_H-M   'P 1'
_cell_length_a   3.39329400
_cell_length_b   11.16335300
_cell_length_c   11.31182800
_cell_angle_alpha   90.00000000
_cell_angle_beta   90.00000000
_cell_angle_gamma   90.00000000
_symmetry_Int_Tables_number   1
_chemical_formula_structural   Mg(BiO2)2
_chemical_formula_sum   'Mg4 Bi8 O16'
_cell_volume   428.49813894
_cell_formula_units_Z   4
loop_
 _symmetry_equiv_pos_site_id
 _symmetry_equiv_pos_as_xyz
  1  'x, y, z'
loop_
 _atom_site_type_symbol
 _atom_site_label
 _atom_site_symmetry_multiplicity
 _atom_site_fract_x
 _atom_site_fract_y
 _atom_site_fract_z
 _atom_site_occupancy
  Mg  Mg0  1  0.02267000  0.85719400  0.25000000  1
  Mg  Mg1  1  0.02267000  0.64280600  0.75000000  1
  Mg  Mg2  1  0.97733000  0.35719400  0.25000000  1
  Mg  Mg3  1  0.97733000  0.14280600  0.75000000  1
  Bi  Bi0  1  0.68885100  0.61810200  0.42052300  1
  Bi  Bi1  1  0.68885100  0.88189800  0.92052300  1
  Bi  Bi2  1  0.31114900  0.38189800  0.92052300  1
  Bi  Bi3  1  0.68885100  0.88189800  0.57947700  1
  Bi  Bi4  1  0.31114900  0.38189800  0.57947700  1
  Bi  Bi5  1  0.68885100  0.61810200  0.07947700  1
  Bi  Bi6  1  0.31114900  0.11810200  0.07947700  1
  Bi  Bi7  1  0.31114900  0.11810200  0.42052300  1
  O  O0  1  0.16939200  0.47344500  0.11935100  1
  O  O1  1  0.83060800  0.52655500  0.88064900  1
  O  O2  1  0.16518800  0.75000000  0.00000000  1
  O  O3  1  0.83060800  0.97344500  0.11935100  1
  O  O4  1  0.83060800  0.97344500  0.38064900  1
  O  O5  1  0.56588200  0.75794500  0.75000000  1
  O  O6  1  0.16939200  0.02655500  0.88064900  1
  O  O7  1  0.43411800  0.25794500  0.75000000  1
  O  O8  1  0.16518800  0.75000000  0.50000000  1
  O  O9  1  0.83481200  0.25000000  0.00000000  1
  O  O10  1  0.16939200  0.47344500  0.38064900  1
  O  O11  1  0.43411800  0.24205500  0.25000000  1
  O  O12  1  0.56588200  0.74205500  0.25000000  1
  O  O13  1  0.83481200  0.25000000  0.50000000  1
  O  O14  1  0.16939200  0.02655500  0.61935100  1
  O  O15  1  0.83060800  0.52655500  0.61935100  1
loop_
_geom_bond_atom_site_label_1
_geom_bond_atom_site_label_2
_geom_bond_distance
_geom_bond_site_symmetry_2
Mg0 O12 2.013614 1_455
Mg0 O4 2.071962 1_455
Mg0 O3 2.071962 1_455
Mg0 O12 2.247168 1_555
Mg1 O5 2.013614 1_455
Mg1 O15 2.071962 1_455
Mg1 O1 2.071962 1_455
Mg1 O5 2.247168 1_555
Mg2 O11 2.013614 1_655
Mg2 O10 2.071962 1_655
Mg2 O0 2.071962 1_655
Mg2 O11 2.247168 1_555
Mg3 O7 2.013614 1_655
Mg3 O6 2.071962 1_655
Mg3 O14 2.071962 1_655
Mg3 O7 2.247168 1_555
Bi0 O10 2.338829 1_655
Bi0 O8 2.364081 1_655
Bi0 O12 2.410308 1_555
Bi0 O10 2.432743 1_555
Bi0 O8 2.476653 1_555
Bi0 O15 2.516803 1_555
Bi1 O6 2.338829 1_665
Bi1 O2 2.364081 1_656
Bi1 O5 2.410308 1_555
Bi1 O6 2.432743 1_565
Bi1 O2 2.476653 1_556
Bi1 O3 2.516803 1_556
Bi2 O1 2.338829 1_455
Bi2 O9 2.364081 1_456
Bi2 O7 2.410308 1_555
Bi2 O1 2.432743 1_555
Bi2 O9 2.476653 1_556
Bi2 O0 2.516803 1_556
Bi3 O14 2.338829 1_665
Bi3 O8 2.364081 1_655
Bi3 O5 2.410308 1_555
Bi3 O14 2.432743 1_565
Bi3 O8 2.476653 1_555
Bi3 O4 2.516803 1_555
Bi4 O15 2.338829 1_455
Bi4 O13 2.364081 1_455
Bi4 O7 2.410308 1_555
Bi4 O15 2.432743 1_555
Bi4 O13 2.476653 1_555
Bi4 O10 2.516803 1_555
Bi5 O0 2.338829 1_655
Bi5 O2 2.364081 1_655
Bi5 O12 2.410308 1_555
Bi5 O0 2.432743 1_555
Bi5 O2 2.476653 1_555
Bi5 O1 2.516803 1_554
Bi6 O3 2.338829 1_445
Bi6 O9 2.364081 1_455
Bi6 O11 2.410308 1_555
Bi6 O3 2.432743 1_545
Bi6 O9 2.476653 1_555
Bi6 O6 2.516803 1_554
Bi7 O4 2.338829 1_445
Bi7 O13 2.364081 1_455
Bi7 O11 2.410308 1_555
Bi7 O4 2.432743 1_545
Bi7 O13 2.476653 1_555
Bi7 O14 2.516803 1_555
