# generated using pymatgen
data_NdNbO2
_symmetry_space_group_name_H-M   'P 1'
_cell_length_a   7.47849478
_cell_length_b   7.47849478
_cell_length_c   7.47849478
_cell_angle_alpha   129.88832962
_cell_angle_beta   129.88832962
_cell_angle_gamma   73.58535127
_symmetry_Int_Tables_number   1
_chemical_formula_structural   NdNbO2
_chemical_formula_sum   'Nd4 Nb4 O8'
_cell_volume   240.29258552
_cell_formula_units_Z   4
loop_
 _symmetry_equiv_pos_site_id
 _symmetry_equiv_pos_as_xyz
  1  'x, y, z'
loop_
 _atom_site_type_symbol
 _atom_site_label
 _atom_site_symmetry_multiplicity
 _atom_site_fract_x
 _atom_site_fract_y
 _atom_site_fract_z
 _atom_site_occupancy
  Nd  Nd0  1  0.87500000  0.62500000  0.25000000  1
  Nd  Nd1  1  0.37500000  0.62500000  0.75000000  1
  Nd  Nd2  1  0.37500000  0.62500000  0.25000000  1
  Nd  Nd3  1  0.37500000  0.12500000  0.75000000  1
  Nb  Nb0  1  0.37500000  0.12500000  0.25000000  1
  Nb  Nb1  1  0.87500000  0.12500000  0.75000000  1
  Nb  Nb2  1  0.87500000  0.12500000  0.25000000  1
  Nb  Nb3  1  0.87500000  0.62500000  0.75000000  1
  O  O0  1  0.17438600  0.39095200  0.21656600  1
  O  O1  1  0.17438600  0.95782000  0.78343400  1
  O  O2  1  0.14095200  0.42438600  0.71656600  1
  O  O3  1  0.57561400  0.85904800  0.28343400  1
  O  O4  1  0.70782000  0.42438600  0.28343400  1
  O  O5  1  0.57561400  0.29218000  0.71656600  1
  O  O6  1  0.60904800  0.82561400  0.78343400  1
  O  O7  1  0.04218000  0.82561400  0.21656600  1
loop_
_geom_bond_atom_site_label_1
_geom_bond_atom_site_label_2
_geom_bond_distance
_geom_bond_site_symmetry_2
Nd0 O4 2.412204 1_555
Nd0 O7 2.412204 1_655
Nd0 O3 2.465954 1_555
Nd0 O0 2.465954 1_655
Nd0 O1 2.465954 1_655
Nd0 O5 2.465954 1_554
Nd1 O6 2.412204 1_555
Nd1 O2 2.412204 1_555
Nd1 O3 2.465954 1_556
Nd1 O5 2.465954 1_555
Nd1 O0 2.465954 1_555
Nd1 O1 2.465954 1_555
Nd2 O3 2.412204 1_555
Nd2 O0 2.412204 1_555
Nd2 O7 2.465954 1_555
Nd2 O4 2.465954 1_555
Nd2 O6 2.465954 1_555
Nd2 O2 2.465954 1_554
Nd3 O1 2.412204 1_545
Nd3 O5 2.412204 1_555
Nd3 O4 2.465954 1_556
Nd3 O6 2.465954 1_545
Nd3 O2 2.465954 1_555
Nd3 O7 2.465954 1_545
Nb0 O5 2.177026 1_555
Nb0 O1 2.177026 1_544
Nb0 O0 2.177026 1_555
Nb0 O3 2.177026 1_545
Nb1 O1 2.177026 1_645
Nb1 O0 2.177026 1_656
Nb1 O5 2.177026 1_555
Nb1 O3 2.177026 1_545
Nb2 O2 2.177026 1_655
Nb2 O7 2.177026 1_645
Nb2 O6 2.177026 1_544
Nb2 O4 2.177026 1_555
Nb3 O7 2.177026 1_656
Nb3 O2 2.177026 1_655
Nb3 O6 2.177026 1_555
Nb3 O4 2.177026 1_555
