# generated using pymatgen
data_MgGa5
_symmetry_space_group_name_H-M   'P 1'
_cell_length_a   5.60768621
_cell_length_b   5.60768621
_cell_length_c   5.60768512
_cell_angle_alpha   54.51066821
_cell_angle_beta   54.51066821
_cell_angle_gamma   54.51065828
_symmetry_Int_Tables_number   1
_chemical_formula_structural   MgGa5
_chemical_formula_sum   'Mg1 Ga5'
_cell_volume   108.73453015
_cell_formula_units_Z   1
loop_
 _symmetry_equiv_pos_site_id
 _symmetry_equiv_pos_as_xyz
  1  'x, y, z'
loop_
 _atom_site_type_symbol
 _atom_site_label
 _atom_site_symmetry_multiplicity
 _atom_site_fract_x
 _atom_site_fract_y
 _atom_site_fract_z
 _atom_site_occupancy
  Mg  Mg0  1  0.50000000  0.50000000  0.50000000  1
  Ga  Ga0  1  0.33712261  1.00000000  0.66287739  1
  Ga  Ga1  1  0.15742617  0.15742617  0.15742617  1
  Ga  Ga2  1  0.66287739  0.33712261  0.00000000  1
  Ga  Ga3  1  0.00000000  0.66287739  0.33712261  1
  Ga  Ga4  1  0.84257383  0.84257383  0.84257383  1
loop_
_geom_bond_atom_site_label_1
_geom_bond_atom_site_label_2
_geom_bond_distance
_geom_bond_site_symmetry_2
Ga0 Ga1 2.837388 1_566
Ga0 Ga4 2.837389 1_455
Ga0 Mg0 2.925982 1_555
Ga0 Mg0 2.925983 1_565
Ga0 Ga3 2.948650 1_565
Ga0 Ga3 2.948650 1_655
Ga0 Ga2 2.948650 1_556
Ga0 Ga2 2.948650 1_565
Ga0 Ga2 2.999070 1_466
Ga0 Ga3 2.999070 1_556
Ga0 Ga1 3.034262 1_565
Ga0 Ga4 3.034263 1_555
Ga1 Ga2 2.837389 1_455
Ga1 Ga3 2.837389 1_545
Ga1 Mg0 2.968294 1_545
Ga1 Mg0 2.968294 1_455
Ga1 Mg0 2.968294 1_554
Ga1 Ga4 2.977078 1_544
Ga1 Ga4 2.977078 1_454
Ga1 Ga4 2.977078 1_445
Ga1 Ga3 3.034263 1_555
Ga1 Ga2 3.034263 1_555
Ga2 Ga4 2.837389 1_544
Ga2 Mg0 2.925982 1_554
Ga2 Mg0 2.925982 1_555
Ga2 Ga3 2.948650 1_555
Ga2 Ga3 2.948650 1_654
Ga2 Ga3 2.999070 1_645
Ga2 Ga4 3.034263 1_554
Ga3 Ga4 2.837388 1_454
Ga3 Mg0 2.925982 1_555
Ga3 Mg0 2.925983 1_455
Ga3 Ga4 3.034262 1_455
Ga4 Mg0 2.968294 1_565
Ga4 Mg0 2.968294 1_655
Ga4 Mg0 2.968294 1_556
