# generated using pymatgen
data_NaZnFe(PO4)2
_symmetry_space_group_name_H-M   'P 1'
_cell_length_a   12.96344925
_cell_length_b   9.29331346
_cell_length_c   9.30468019
_cell_angle_alpha   85.76960952
_cell_angle_beta   63.94662992
_cell_angle_gamma   63.68333684
_symmetry_Int_Tables_number   1
_chemical_formula_structural   NaZnFe(PO4)2
_chemical_formula_sum   'Na6 Zn6 Fe6 P12 O48'
_cell_volume   892.44598497
_cell_formula_units_Z   6
loop_
 _symmetry_equiv_pos_site_id
 _symmetry_equiv_pos_as_xyz
  1  'x, y, z'
loop_
 _atom_site_type_symbol
 _atom_site_label
 _atom_site_symmetry_multiplicity
 _atom_site_fract_x
 _atom_site_fract_y
 _atom_site_fract_z
 _atom_site_occupancy
  Na  Na0  1  0.00140800  0.50066300  0.49638400  1
  Na  Na1  1  0.11684500  0.99401000  0.01130100  1
  Na  Na2  1  0.25000000  0.50000000  0.50000000  1
  Na  Na3  1  0.38315500  0.00599000  0.98869900  1
  Na  Na4  1  0.49859200  0.49933700  0.50361600  1
  Na  Na5  1  0.75000000  0.50000000  0.50000000  1
  Zn  Zn0  1  0.09801800  0.06698500  0.37266000  1
  Zn  Zn1  1  0.12691000  0.26523900  0.72545000  1
  Zn  Zn2  1  0.37309000  0.73476100  0.27455000  1
  Zn  Zn3  1  0.40198200  0.93301500  0.62734000  1
  Zn  Zn4  1  0.62570500  0.26585000  0.73414000  1
  Zn  Zn5  1  0.87429500  0.73415000  0.26586000  1
  Fe  Fe0  1  0.34932100  0.37414400  0.06053000  1
  Fe  Fe1  1  0.15067900  0.62585600  0.93947000  1
  Fe  Fe2  1  0.59677400  0.06002700  0.36817600  1
  Fe  Fe3  1  0.84696400  0.36432700  0.06203800  1
  Fe  Fe4  1  0.65303600  0.63567300  0.93796200  1
  Fe  Fe5  1  0.90322600  0.93997300  0.63182400  1
  P  P0  1  0.07573700  0.34762300  0.12422200  1
  P  P1  1  0.12622000  0.71156500  0.28842100  1
  P  P2  1  0.32745500  0.12704500  0.34205100  1
  P  P3  1  0.17254500  0.87295500  0.65794900  1
  P  P4  1  0.37378000  0.28843500  0.71157900  1
  P  P5  1  0.57261500  0.35057200  0.13270500  1
  P  P6  1  0.42426300  0.65237700  0.87577800  1
  P  P7  1  0.62761500  0.70767200  0.28826700  1
  P  P8  1  0.82237300  0.12772600  0.35247000  1
  P  P9  1  0.67762700  0.87227400  0.64753000  1
  P  P10  1  0.87238500  0.29232800  0.71173300  1
  P  P11  1  0.92738500  0.64942800  0.86729500  1
  O  O0  1  0.02894300  0.33037900  0.99871800  1
  O  O1  1  0.13782100  0.17503400  0.16405800  1
  O  O2  1  0.18347900  0.40568200  0.04005400  1
  O  O3  1  0.05917700  0.74149200  0.17499700  1
  O  O4  1  0.29039100  0.99403100  0.32052000  1
  O  O5  1  0.02497800  0.73881100  0.46623900  1
  O  O6  1  0.04134400  0.51577400  0.72510100  1
  O  O7  1  0.21293700  0.26950900  0.47406100  1
  O  O8  1  0.37307400  0.18551900  0.17388600  1
  O  O9  1  0.22528500  0.52993600  0.26115100  1
  O  O10  1  0.19527600  0.81947300  0.25547200  1
  O  O11  1  0.43999700  0.04829100  0.38894000  1
  O  O12  1  0.06000300  0.95170900  0.61106000  1
  O  O13  1  0.30472400  0.18052700  0.74452800  1
  O  O14  1  0.53012000  0.33298600  0.00286500  1
  O  O15  1  0.27471500  0.47006400  0.73884900  1
  O  O16  1  0.12692600  0.81448100  0.82611400  1
  O  O17  1  0.28706300  0.73049100  0.52593900  1
  O  O18  1  0.45865600  0.48422600  0.27489900  1
  O  O19  1  0.62268900  0.18620200  0.19059500  1
  O  O20  1  0.47502200  0.26118900  0.53376100  1
  O  O21  1  0.20960900  0.00596900  0.67948000  1
  O  O22  1  0.44082300  0.25850800  0.82500300  1
  O  O23  1  0.68399000  0.40089200  0.04819400  1
  O  O24  1  0.31652100  0.59431800  0.95994600  1
  O  O25  1  0.56164200  0.73640500  0.17490200  1
  O  O26  1  0.77838500  0.00160400  0.33095000  1
  O  O27  1  0.52824400  0.73037700  0.46441100  1
  O  O28  1  0.36217900  0.82496600  0.83594200  1
  O  O29  1  0.53586700  0.52347700  0.72978100  1
  O  O30  1  0.70825100  0.27499100  0.47974400  1
  O  O31  1  0.88130600  0.17928500  0.18362500  1
  O  O32  1  0.73330000  0.52890000  0.25499200  1
  O  O33  1  0.47105700  0.66962100  0.00128200  1
  O  O34  1  0.69397300  0.81982200  0.26088100  1
  O  O35  1  0.93056400  0.04192500  0.40669500  1
  O  O36  1  0.56943600  0.95807500  0.59330500  1
  O  O37  1  0.80602700  0.18017800  0.73911900  1
  O  O38  1  0.76670000  0.47110000  0.74500800  1
  O  O39  1  0.61869400  0.82071500  0.81637500  1
  O  O40  1  0.79174900  0.72500900  0.52025600  1
  O  O41  1  0.96413300  0.47652300  0.27021900  1
  O  O42  1  0.97175600  0.26962300  0.53558900  1
  O  O43  1  0.72161500  0.99839600  0.66905000  1
  O  O44  1  0.93835800  0.26359500  0.82509800  1
  O  O45  1  0.81601000  0.59910800  0.95180600  1
  O  O46  1  0.87731100  0.81379800  0.80940500  1
  O  O47  1  0.96988000  0.66701400  0.99713500  1
loop_
_geom_bond_atom_site_label_1
_geom_bond_atom_site_label_2
_geom_bond_distance
_geom_bond_site_symmetry_2
Na0 O42 2.320356 1_455
Na0 O5 2.345835 1_555
Na0 O41 2.402352 1_455
Na0 O6 2.427565 1_555
Na0 O40 2.509356 1_455
Na0 O7 2.553371 1_555
Na1 O16 2.408901 1_554
Na1 O1 2.454030 1_565
Na1 O31 2.510777 1_465
Na1 O28 2.575820 1_554
Na1 O21 2.792401 1_564
Na1 O0 2.826443 1_564
Na1 O3 2.900676 1_555
Na1 O10 2.974821 1_555
Na2 O9 2.361015 1_555
Na2 O15 2.361015 1_555
Na2 O17 2.442955 1_555
Na2 O7 2.442955 1_555
Na2 O18 2.538114 1_555
Na2 O6 2.538114 1_555
Na2 O5 2.914665 1_555
Na2 O20 2.914665 1_555
Na3 O8 2.408901 1_556
Na3 O28 2.454030 1_545
Na3 O39 2.510777 1_545
Na3 O1 2.575820 1_556
Na3 O4 2.792401 1_546
Na3 O33 2.826443 1_546
Na3 O22 2.900676 1_555
Na3 O13 2.974821 1_555
Na4 O27 2.320356 1_555
Na4 O20 2.345835 1_555
Na4 O29 2.402352 1_555
Na4 O18 2.427565 1_555
Na4 O30 2.509356 1_555
Na4 O17 2.553371 1_555
Na5 O32 2.368074 1_555
Na5 O38 2.368074 1_555
Na5 O30 2.419141 1_555
Na5 O40 2.419141 1_555
Na5 O41 2.577377 1_555
Na5 O29 2.577377 1_555
Na5 O42 2.869128 1_555
Na5 O27 2.869128 1_555
Fe0 O8 1.952959 1_555
Fe0 O9 1.965765 1_555
Fe0 O14 2.014504 1_555
Fe0 O22 2.073238 1_554
Fe0 O2 2.130039 1_555
Fe0 O24 2.130502 1_554
Fe1 O16 1.952959 1_555
Fe1 O15 1.965765 1_555
Fe1 O47 2.014504 1_455
Fe1 O3 2.073238 1_556
Fe1 O24 2.130039 1_555
Fe1 O2 2.130502 1_556
Fe2 O19 1.947780 1_555
Fe2 O11 2.007054 1_555
Fe2 O20 2.008096 1_555
Fe2 O26 2.033606 1_555
Fe2 O34 2.073006 1_545
Fe2 O36 2.182679 1_545
Fe3 O32 1.953665 1_555
Fe3 O31 1.977851 1_555
Fe3 O0 2.039239 1_654
Fe3 O44 2.041364 1_554
Fe3 O23 2.047348 1_555
Fe3 O45 2.286645 1_554
Fe4 O38 1.953665 1_555
Fe4 O39 1.977851 1_555
Fe4 O33 2.039239 1_556
Fe4 O25 2.041364 1_556
Fe4 O45 2.047348 1_555
Fe4 O23 2.286645 1_556
Fe5 O46 1.947780 1_555
Fe5 O12 2.007054 1_655
Fe5 O5 2.008096 1_655
Fe5 O43 2.033606 1_555
Fe5 O37 2.073006 1_565
Fe5 O35 2.182679 1_565
O0 P0 1.579056 1_556
O0 Zn1 2.270107 1_555
O1 P0 1.545142 1_555
O1 Zn0 2.081829 1_555
O2 P0 1.581221 1_555
O3 P1 1.579431 1_555
O3 Zn5 2.195497 1_455
O4 P2 1.564210 1_565
O4 Zn0 2.097802 1_565
O4 Zn2 2.144004 1_555
O5 P1 1.543958 1_555
O6 P11 1.540866 1_455
O6 Zn1 2.088903 1_555
O7 P2 1.536531 1_555
O7 Zn1 2.109681 1_555
O8 P2 1.562064 1_555
O9 P1 1.554889 1_555
O10 P1 1.552604 1_555
O10 Zn0 2.158827 1_565
O10 Zn2 2.166677 1_555
O11 P2 1.555554 1_555
O11 Zn3 2.338453 1_545
O12 P3 1.555554 1_555
O12 Zn0 2.338453 1_565
O13 P4 1.552604 1_555
O13 Zn3 2.158827 1_545
O13 Zn1 2.166677 1_555
O14 P5 1.575851 1_555
O14 Zn4 2.236017 1_554
O15 P4 1.554889 1_555
O16 P3 1.562064 1_555
O17 P3 1.536531 1_555
O17 Zn2 2.109681 1_555
O18 P5 1.540866 1_555
O18 Zn2 2.088903 1_555
O19 P5 1.533445 1_555
O20 P4 1.543958 1_555
O21 P3 1.564210 1_545
O21 Zn3 2.097802 1_545
O21 Zn1 2.144004 1_555
O22 P4 1.579431 1_555
O22 Zn4 2.195497 1_555
O23 P5 1.571213 1_555
O24 P6 1.581221 1_555
O25 P7 1.569646 1_555
O25 Zn2 2.207871 1_555
O26 P8 1.570543 1_555
O26 Zn5 2.216098 1_545
O27 P7 1.531527 1_555
O27 Zn3 2.008033 1_555
O28 P6 1.545142 1_555
O28 Zn3 2.081829 1_555
O29 P6 1.533142 1_555
O29 Zn4 2.155240 1_555
O30 P8 1.539164 1_555
O30 Zn4 2.140389 1_555
O31 P8 1.562255 1_555
O32 P7 1.555043 1_555
O33 P6 1.579056 1_554
O33 Zn2 2.270107 1_555
O34 P7 1.566660 1_555
O34 Zn5 2.130699 1_555
O35 P8 1.558241 1_555
O35 Zn0 2.168023 1_655
O36 P9 1.558241 1_555
O36 Zn3 2.168023 1_555
O37 P10 1.566660 1_555
O37 Zn4 2.130699 1_555
O38 P10 1.555043 1_555
O39 P9 1.562255 1_555
O40 P9 1.539164 1_555
O40 Zn5 2.140389 1_555
O41 P0 1.533142 1_655
O41 Zn5 2.155240 1_555
O42 P10 1.531527 1_555
O42 Zn0 2.008033 1_655
O43 P9 1.570543 1_555
O43 Zn4 2.216098 1_565
O44 P10 1.569646 1_555
O44 Zn1 2.207871 1_655
O45 P11 1.571213 1_555
O46 P11 1.533445 1_555
O47 P11 1.575851 1_555
O47 Zn5 2.236017 1_556
