# generated using pymatgen
data_NdCu5Sn
_symmetry_space_group_name_H-M   'P 1'
_cell_length_a   5.09521100
_cell_length_b   8.35090300
_cell_length_c   10.67874300
_cell_angle_alpha   90.00000000
_cell_angle_beta   90.00000000
_cell_angle_gamma   90.00000000
_symmetry_Int_Tables_number   1
_chemical_formula_structural   NdCu5Sn
_chemical_formula_sum   'Nd4 Cu20 Sn4'
_cell_volume   454.37638011
_cell_formula_units_Z   4
loop_
 _symmetry_equiv_pos_site_id
 _symmetry_equiv_pos_as_xyz
  1  'x, y, z'
loop_
 _atom_site_type_symbol
 _atom_site_label
 _atom_site_symmetry_multiplicity
 _atom_site_fract_x
 _atom_site_fract_y
 _atom_site_fract_z
 _atom_site_occupancy
  Nd  Nd0  1  0.25000000  0.75560900  0.06204500  1
  Nd  Nd1  1  0.75000000  0.24439100  0.93795500  1
  Nd  Nd2  1  0.75000000  0.74439100  0.56204500  1
  Nd  Nd3  1  0.25000000  0.25560900  0.43795500  1
  Cu  Cu0  1  0.25000000  0.81494600  0.74679000  1
  Cu  Cu1  1  0.75000000  0.18505400  0.25321000  1
  Cu  Cu2  1  0.75000000  0.68505400  0.24679000  1
  Cu  Cu3  1  0.25000000  0.31494600  0.75321000  1
  Cu  Cu4  1  0.50011400  0.56504200  0.81265700  1
  Cu  Cu5  1  0.49988600  0.43495800  0.18734300  1
  Cu  Cu6  1  0.49988600  0.93495800  0.31265700  1
  Cu  Cu7  1  0.00011400  0.43495800  0.18734300  1
  Cu  Cu8  1  0.50011400  0.06504200  0.68734300  1
  Cu  Cu9  1  0.99988600  0.56504200  0.81265700  1
  Cu  Cu10  1  0.99988600  0.06504200  0.68734300  1
  Cu  Cu11  1  0.00011400  0.93495800  0.31265700  1
  Cu  Cu12  1  0.25000000  0.91307400  0.51729700  1
  Cu  Cu13  1  0.75000000  0.08692600  0.48270300  1
  Cu  Cu14  1  0.75000000  0.58692600  0.01729700  1
  Cu  Cu15  1  0.25000000  0.41307400  0.98270300  1
  Cu  Cu16  1  0.25000000  0.55895200  0.60451500  1
  Cu  Cu17  1  0.75000000  0.44104800  0.39548500  1
  Cu  Cu18  1  0.75000000  0.94104800  0.10451500  1
  Cu  Cu19  1  0.25000000  0.05895200  0.89548500  1
  Sn  Sn0  1  0.25000000  0.64188100  0.36067300  1
  Sn  Sn1  1  0.75000000  0.35811900  0.63932700  1
  Sn  Sn2  1  0.75000000  0.85811900  0.86067300  1
  Sn  Sn3  1  0.25000000  0.14188100  0.13932700  1
loop_
_geom_bond_atom_site_label_1
_geom_bond_atom_site_label_2
_geom_bond_distance
_geom_bond_site_symmetry_2
Nd0 Sn0 3.327391 1_555
Nd0 Sn3 3.329617 1_565
Nd0 Sn2 3.441996 1_454
Nd0 Sn2 3.441996 1_554
Nd1 Sn1 3.327391 1_555
Nd1 Sn2 3.329617 1_545
Nd1 Sn3 3.441996 1_556
Nd1 Sn3 3.441996 1_656
Nd2 Sn2 3.327391 1_555
Nd2 Sn1 3.329617 1_555
Nd2 Sn0 3.441996 1_655
Nd2 Sn0 3.441996 1_555
Nd3 Sn3 3.327391 1_555
Nd3 Sn0 3.329617 1_555
Nd3 Sn1 3.441996 1_555
Nd3 Sn1 3.441996 1_455
Cu0 Cu8 2.527646 1_565
Cu0 Cu10 2.527646 1_465
Cu0 Cu4 2.544414 1_555
Cu0 Cu9 2.544414 1_455
Cu0 Cu19 2.583302 1_565
Cu0 Cu12 2.584071 1_555
Cu0 Cu16 2.622677 1_555
Cu0 Sn2 2.845917 1_455
Cu0 Sn2 2.845917 1_555
Cu0 Nd2 3.275601 1_455
Cu0 Nd2 3.275601 1_555
Cu0 Nd0 3.402799 1_556
Cu1 Cu11 2.527646 1_645
Cu1 Cu6 2.527646 1_545
Cu1 Cu7 2.544414 1_655
Cu1 Cu5 2.544414 1_555
Cu1 Cu18 2.583302 1_545
Cu1 Cu13 2.584071 1_555
Cu1 Cu17 2.622677 1_555
Cu1 Sn3 2.845917 1_655
Cu1 Sn3 2.845917 1_555
Cu1 Nd3 3.275601 1_555
Cu1 Nd3 3.275601 1_655
Cu1 Nd1 3.402799 1_554
Cu2 Cu7 2.527646 1_655
Cu2 Cu5 2.527646 1_555
Cu2 Cu6 2.544414 1_555
Cu2 Sn0 2.845917 1_655
Cu2 Sn0 2.845917 1_555
Cu2 Nd0 3.275601 1_655
Cu2 Nd0 3.275601 1_555
Cu2 Nd2 3.402799 1_555
Cu3 Cu4 2.527646 1_555
Cu3 Cu9 2.527646 1_455
Cu3 Cu8 2.544414 1_555
Cu3 Sn1 2.845917 1_455
Cu3 Sn1 2.845917 1_555
Cu3 Nd1 3.275601 1_555
Cu3 Nd1 3.275601 1_455
Cu3 Nd3 3.402799 1_555
Cu4 Cu9 2.546444 1_555
Cu4 Cu9 2.548767 1_455
Cu4 Sn2 2.806075 1_555
Cu4 Sn1 2.834265 1_555
Cu4 Nd1 3.252940 1_555
Cu4 Nd2 3.320608 1_555
Cu4 Nd0 3.353953 1_556
Cu5 Cu7 2.546444 1_555
Cu5 Cu7 2.548767 1_655
Cu5 Sn3 2.806075 1_555
Cu5 Sn0 2.834265 1_555
Cu5 Nd0 3.252940 1_555
Cu5 Nd3 3.320608 1_555
Cu5 Nd1 3.353953 1_554
Cu6 Sn0 2.806075 1_555
Cu6 Sn3 2.834265 1_565
Cu6 Nd3 3.252940 1_565
Cu6 Nd0 3.320608 1_555
Cu6 Nd2 3.353953 1_555
Cu7 Sn3 2.806075 1_555
Cu7 Sn0 2.834265 1_555
Cu7 Nd0 3.252940 1_555
Cu7 Nd3 3.320608 1_555
Cu7 Nd1 3.353953 1_454
Cu8 Sn1 2.806075 1_555
Cu8 Sn2 2.834265 1_545
Cu8 Nd2 3.252940 1_545
Cu8 Nd1 3.320608 1_555
Cu8 Nd3 3.353953 1_555
Cu9 Sn2 2.806075 1_555
Cu9 Sn1 2.834265 1_555
Cu9 Nd1 3.252940 1_555
Cu9 Nd2 3.320608 1_555
Cu9 Nd0 3.353953 1_656
Cu10 Cu13 2.535748 1_555
Cu10 Cu3 2.544414 1_655
Cu10 Cu8 2.546444 1_555
Cu10 Cu8 2.548767 1_655
Cu10 Cu12 2.555778 1_645
Cu10 Cu19 2.562618 1_655
Cu10 Sn1 2.806075 1_555
Cu10 Sn2 2.834265 1_545
Cu10 Nd2 3.252940 1_545
Cu10 Nd1 3.320608 1_555
Cu10 Nd3 3.353953 1_655
Cu11 Cu12 2.535748 1_555
Cu11 Cu2 2.544414 1_455
Cu11 Cu6 2.546444 1_555
Cu11 Cu6 2.548767 1_455
Cu11 Cu13 2.555778 1_465
Cu11 Cu18 2.562618 1_455
Cu11 Sn0 2.806075 1_555
Cu11 Sn3 2.834265 1_565
Cu11 Nd3 3.252940 1_565
Cu11 Nd0 3.320608 1_555
Cu11 Nd2 3.353953 1_455
Cu12 Cu6 2.535748 1_555
Cu12 Cu8 2.555778 1_565
Cu12 Sn0 2.815370 1_555
Cu12 Nd2 2.950076 1_455
Cu12 Nd2 2.950076 1_555
Cu12 Nd3 2.983320 1_565
Cu12 Cu16 3.100440 1_555
Cu13 Cu8 2.535748 1_555
Cu13 Cu6 2.555778 1_545
Cu13 Sn1 2.815370 1_555
Cu13 Nd3 2.950076 1_555
Cu13 Nd3 2.950076 1_655
Cu13 Nd2 2.983320 1_545
Cu13 Cu17 3.100440 1_555
Cu14 Cu9 2.535748 1_554
Cu14 Cu4 2.535748 1_554
Cu14 Cu7 2.555778 1_655
Cu14 Cu5 2.555778 1_555
Cu14 Cu2 2.584071 1_555
Cu14 Sn2 2.815370 1_554
Cu14 Nd0 2.950076 1_555
Cu14 Nd0 2.950076 1_655
Cu14 Nd1 2.983320 1_554
Cu14 Cu18 3.100440 1_555
Cu15 Cu5 2.535748 1_556
Cu15 Cu7 2.535748 1_556
Cu15 Cu4 2.555778 1_555
Cu15 Cu9 2.555778 1_455
Cu15 Cu3 2.584071 1_555
Cu15 Sn3 2.815370 1_556
Cu15 Nd1 2.950076 1_555
Cu15 Nd1 2.950076 1_455
Cu15 Nd0 2.983320 1_556
Cu15 Cu19 3.100440 1_555
Cu16 Cu4 2.562618 1_555
Cu16 Cu9 2.562618 1_455
Cu16 Cu3 2.583302 1_555
Cu16 Sn0 2.694445 1_555
Cu16 Nd2 3.015641 1_555
Cu16 Nd2 3.015641 1_455
Cu16 Sn1 3.072666 1_555
Cu16 Sn1 3.072666 1_455
Cu16 Nd3 3.095261 1_555
Cu17 Cu7 2.562618 1_655
Cu17 Cu5 2.562618 1_555
Cu17 Cu2 2.583302 1_555
Cu17 Sn1 2.694445 1_555
Cu17 Nd3 3.015641 1_555
Cu17 Nd3 3.015641 1_655
Cu17 Sn0 3.072666 1_555
Cu17 Sn0 3.072666 1_655
Cu17 Nd2 3.095261 1_555
Cu18 Cu6 2.562618 1_555
Cu18 Cu2 2.622677 1_555
Cu18 Sn2 2.694445 1_554
Cu18 Nd0 3.015641 1_555
Cu18 Nd0 3.015641 1_655
Cu18 Sn3 3.072666 1_665
Cu18 Sn3 3.072666 1_565
Cu18 Nd1 3.095261 1_564
Cu19 Cu8 2.562618 1_555
Cu19 Cu3 2.622677 1_555
Cu19 Sn3 2.694445 1_556
Cu19 Nd1 3.015641 1_455
Cu19 Nd1 3.015641 1_555
Cu19 Sn2 3.072666 1_545
Cu19 Sn2 3.072666 1_445
Cu19 Nd0 3.095261 1_546
