# generated using pymatgen
data_KTeO7
_symmetry_space_group_name_H-M   'P 1'
_cell_length_a   9.09905100
_cell_length_b   5.99610500
_cell_length_c   14.13075886
_cell_angle_alpha   90.00000000
_cell_angle_beta   100.67399150
_cell_angle_gamma   90.00000000
_symmetry_Int_Tables_number   1
_chemical_formula_structural   KTeO7
_chemical_formula_sum   'K4 Te4 O28'
_cell_volume   757.61826007
_cell_formula_units_Z   4
loop_
 _symmetry_equiv_pos_site_id
 _symmetry_equiv_pos_as_xyz
  1  'x, y, z'
loop_
 _atom_site_type_symbol
 _atom_site_label
 _atom_site_symmetry_multiplicity
 _atom_site_fract_x
 _atom_site_fract_y
 _atom_site_fract_z
 _atom_site_occupancy
  K  K0  1  0.46621100  0.80501100  0.12413300  1
  K  K1  1  0.53378900  0.30501100  0.37586700  1
  K  K2  1  0.53378900  0.19498900  0.87586700  1
  K  K3  1  0.46621100  0.69498900  0.62413300  1
  Te  Te0  1  0.24302800  0.83989500  0.34256700  1
  Te  Te1  1  0.75697200  0.33989500  0.15743300  1
  Te  Te2  1  0.75697200  0.16010500  0.65743300  1
  Te  Te3  1  0.24302800  0.66010500  0.84256700  1
  O  O0  1  0.17100400  0.55984000  0.16334000  1
  O  O1  1  0.82899600  0.05984000  0.33666000  1
  O  O2  1  0.82899600  0.44016000  0.83666000  1
  O  O3  1  0.17100400  0.94016000  0.66334000  1
  O  O4  1  0.42998200  0.71931700  0.38669300  1
  O  O5  1  0.57001800  0.21931700  0.11330700  1
  O  O6  1  0.57001800  0.28068300  0.61330700  1
  O  O7  1  0.42998200  0.78068300  0.88669300  1
  O  O8  1  0.89343800  0.87783900  0.34679900  1
  O  O9  1  0.10656200  0.37783900  0.15320100  1
  O  O10  1  0.10656200  0.12216100  0.65320100  1
  O  O11  1  0.89343800  0.62216100  0.84679900  1
  O  O12  1  0.21569100  0.41432100  0.47377200  1
  O  O13  1  0.78430900  0.91432100  0.02622800  1
  O  O14  1  0.78430900  0.58567900  0.52622800  1
  O  O15  1  0.21569100  0.08567900  0.97377200  1
  O  O16  1  0.26616900  0.02964400  0.46660100  1
  O  O17  1  0.73383100  0.52964400  0.03339900  1
  O  O18  1  0.73383100  0.97035600  0.53339900  1
  O  O19  1  0.26616900  0.47035600  0.96660100  1
  O  O20  1  0.28429200  0.05801800  0.25917200  1
  O  O21  1  0.71570800  0.55801800  0.24082800  1
  O  O22  1  0.71570800  0.94198200  0.74082800  1
  O  O23  1  0.28429200  0.44198200  0.75917200  1
  O  O24  1  0.85021100  0.72999400  0.04124400  1
  O  O25  1  0.14978900  0.22999400  0.45875600  1
  O  O26  1  0.14978900  0.27000600  0.95875600  1
  O  O27  1  0.85021100  0.77000600  0.54124400  1
loop_
_geom_bond_atom_site_label_1
_geom_bond_atom_site_label_2
_geom_bond_distance
_geom_bond_site_symmetry_2
K0 O5 2.672163 1_565
K0 O21 2.946100 1_555
K0 O20 3.138913 1_565
K0 O0 3.199138 1_555
K0 O15 3.278500 1_564
K0 O19 3.285418 1_554
K0 O7 3.313252 1_554
K0 O17 3.384720 1_555
K1 O4 2.672163 1_555
K1 O20 2.946100 1_555
K1 O21 3.138913 1_555
K1 O1 3.199138 1_555
K1 O14 3.278500 1_555
K1 O18 3.285418 1_545
K1 O6 3.313252 1_555
K1 O16 3.384720 1_555
K2 O7 2.672163 1_545
K2 O23 2.946100 1_555
K2 O22 3.138913 1_545
K2 O2 3.199138 1_555
K2 O13 3.278500 1_546
K2 O17 3.285418 1_556
K2 O5 3.313252 1_556
K2 O19 3.384720 1_555
K3 O6 2.672163 1_555
K3 O22 2.946100 1_555
K3 O23 3.138913 1_555
K3 O3 3.199138 1_555
K3 O12 3.278500 1_555
K3 O16 3.285418 1_565
K3 O4 3.313252 1_555
K3 O18 3.384720 1_555
O0 O9 1.234567 1_555
O1 O8 1.234567 1_545
O4 Te0 1.847255 1_555
O5 Te1 1.847255 1_555
O6 Te2 1.847255 1_555
O7 Te3 1.847255 1_555
O10 O3 1.234567 1_545
O11 O2 1.234567 1_555
O12 O25 1.256594 1_555
O13 O24 1.256594 1_555
O14 O27 1.256594 1_555
O15 O26 1.256594 1_555
O16 O25 1.591647 1_555
O16 Te0 2.067377 1_545
O17 O24 1.591647 1_555
O17 Te1 2.067377 1_555
O18 O27 1.591647 1_555
O18 Te2 2.067377 1_565
O19 O26 1.591647 1_555
O19 Te3 2.067377 1_555
O20 Te0 1.845036 1_545
O21 Te1 1.845036 1_555
O22 Te2 1.845036 1_565
O23 Te3 1.845036 1_555
