# generated using pymatgen
data_Hg3(SeO3)4
_symmetry_space_group_name_H-M   'P 1'
_cell_length_a   10.04177100
_cell_length_b   7.71038700
_cell_length_c   9.69374540
_cell_angle_alpha   67.56949714
_cell_angle_beta   90.00000000
_cell_angle_gamma   90.00000000
_symmetry_Int_Tables_number   1
_chemical_formula_structural   Hg3(SeO3)4
_chemical_formula_sum   'Hg6 Se8 O24'
_cell_volume   693.76321693
_cell_formula_units_Z   2
loop_
 _symmetry_equiv_pos_site_id
 _symmetry_equiv_pos_as_xyz
  1  'x, y, z'
loop_
 _atom_site_type_symbol
 _atom_site_label
 _atom_site_symmetry_multiplicity
 _atom_site_fract_x
 _atom_site_fract_y
 _atom_site_fract_z
 _atom_site_occupancy
  Hg  Hg0  1  0.62869900  0.54426500  0.83783800  1
  Hg  Hg1  1  0.12869900  0.95573500  0.16216200  1
  Hg  Hg2  1  0.37130100  0.45573500  0.16216200  1
  Hg  Hg3  1  0.87130100  0.04426500  0.83783800  1
  Hg  Hg4  1  0.00000000  0.50000000  0.00000000  1
  Hg  Hg5  1  0.50000000  0.00000000  0.00000000  1
  Se  Se0  1  0.88283600  0.73492300  0.61910700  1
  Se  Se1  1  0.38283600  0.76507700  0.38089300  1
  Se  Se2  1  0.11716400  0.26507700  0.38089300  1
  Se  Se3  1  0.61716400  0.23492300  0.61910700  1
  Se  Se4  1  0.65288500  0.24153600  0.19377000  1
  Se  Se5  1  0.15288500  0.25846400  0.80623000  1
  Se  Se6  1  0.34711500  0.75846400  0.80623000  1
  Se  Se7  1  0.84711500  0.74153600  0.19377000  1
  O  O0  1  0.74509800  0.61889600  0.59948600  1
  O  O1  1  0.24509800  0.88110400  0.40051400  1
  O  O2  1  0.25490200  0.38110400  0.40051400  1
  O  O3  1  0.75490200  0.11889600  0.59948600  1
  O  O4  1  0.85887600  0.73807300  0.79682900  1
  O  O5  1  0.35887600  0.76192700  0.20317100  1
  O  O6  1  0.14112400  0.26192700  0.20317100  1
  O  O7  1  0.64112400  0.23807300  0.79682900  1
  O  O8  1  0.02345100  0.61591900  0.62955500  1
  O  O9  1  0.52345100  0.88408100  0.37044500  1
  O  O10  1  0.97654900  0.38408100  0.37044500  1
  O  O11  1  0.47654900  0.11591900  0.62955500  1
  O  O12  1  0.57014300  0.37360400  0.27424100  1
  O  O13  1  0.07014300  0.12639600  0.72575900  1
  O  O14  1  0.42985700  0.62639600  0.72575900  1
  O  O15  1  0.92985700  0.87360400  0.27424100  1
  O  O16  1  0.74401500  0.40780900  0.04986400  1
  O  O17  1  0.24401500  0.09219100  0.95013600  1
  O  O18  1  0.25598500  0.59219100  0.95013600  1
  O  O19  1  0.75598500  0.90780900  0.04986400  1
  O  O20  1  0.51552900  0.22027400  0.08730600  1
  O  O21  1  0.01552900  0.27972600  0.91269400  1
  O  O22  1  0.48447100  0.77972600  0.91269400  1
  O  O23  1  0.98447100  0.72027400  0.08730600  1
loop_
_geom_bond_atom_site_label_1
_geom_bond_atom_site_label_2
_geom_bond_distance
_geom_bond_site_symmetry_2
Hg0 O16 2.240986 1_556
Hg0 O14 2.245729 1_555
Hg0 O0 2.453822 1_555
Hg0 O7 2.542333 1_555
Hg0 O22 2.631632 1_555
Hg0 O4 2.698191 1_555
Hg1 O17 2.240986 1_564
Hg1 O15 2.245729 1_455
Hg1 O1 2.453822 1_555
Hg1 O6 2.542333 1_565
Hg1 O23 2.631632 1_455
Hg1 O5 2.698191 1_555
Hg2 O18 2.240986 1_554
Hg2 O12 2.245729 1_555
Hg2 O2 2.453822 1_555
Hg2 O5 2.542333 1_555
Hg2 O20 2.631632 1_555
Hg2 O6 2.698191 1_555
Hg3 O19 2.240986 1_546
Hg3 O13 2.245729 1_655
Hg3 O3 2.453822 1_555
Hg3 O4 2.542333 1_545
Hg3 O21 2.631632 1_655
Hg3 O7 2.698191 1_555
Hg4 O23 2.173026 1_455
Hg4 O21 2.173026 1_554
Hg4 O6 2.549081 1_555
Hg4 O4 2.549081 1_454
Hg4 O18 2.661655 1_554
Hg4 O16 2.661655 1_455
Hg5 O20 2.173026 1_555
Hg5 O22 2.173026 1_544
Hg5 O5 2.549081 1_545
Hg5 O7 2.549081 1_554
Hg5 O19 2.661655 1_545
Hg5 O17 2.661655 1_554
O0 Se0 1.696885 1_555
O1 Se1 1.696885 1_555
O2 Se2 1.696885 1_555
O3 Se3 1.696885 1_555
O4 Se0 1.748834 1_555
O5 Se1 1.748834 1_555
O6 Se2 1.748834 1_555
O7 Se3 1.748834 1_555
O8 Se0 1.665857 1_455
O9 Se1 1.665857 1_555
O10 Se2 1.665857 1_655
O11 Se3 1.665857 1_555
O12 Se4 1.715215 1_555
O13 Se5 1.715215 1_555
O14 Se6 1.715215 1_555
O15 Se7 1.715215 1_555
O16 Se4 1.749922 1_555
O17 Se5 1.749922 1_555
O18 Se6 1.749922 1_555
O19 Se7 1.749922 1_555
O20 Se4 1.767356 1_555
O21 Se5 1.767356 1_555
O22 Se6 1.767356 1_555
O23 Se7 1.767356 1_555
