# generated using pymatgen
data_Ba(SO2)2
_symmetry_space_group_name_H-M   'P 1'
_cell_length_a   7.59988000
_cell_length_b   7.67817300
_cell_length_c   18.24775000
_cell_angle_alpha   90.00000000
_cell_angle_beta   90.00000000
_cell_angle_gamma   90.00000000
_symmetry_Int_Tables_number   1
_chemical_formula_structural   Ba(SO2)2
_chemical_formula_sum   'Ba8 S16 O32'
_cell_volume   1064.81448522
_cell_formula_units_Z   8
loop_
 _symmetry_equiv_pos_site_id
 _symmetry_equiv_pos_as_xyz
  1  'x, y, z'
loop_
 _atom_site_type_symbol
 _atom_site_label
 _atom_site_symmetry_multiplicity
 _atom_site_fract_x
 _atom_site_fract_y
 _atom_site_fract_z
 _atom_site_occupancy
  Ba  Ba0  1  0.79643200  0.51176500  0.14585500  1
  Ba  Ba1  1  0.70356800  0.01176500  0.35414500  1
  Ba  Ba2  1  0.70356800  0.48823500  0.64585500  1
  Ba  Ba3  1  0.79643200  0.98823500  0.85414500  1
  Ba  Ba4  1  0.20356800  0.48823500  0.85414500  1
  Ba  Ba5  1  0.29643200  0.98823500  0.64585500  1
  Ba  Ba6  1  0.29643200  0.51176500  0.35414500  1
  Ba  Ba7  1  0.20356800  0.01176500  0.14585500  1
  S  S0  1  0.35383500  0.58590600  0.04805000  1
  S  S1  1  0.14616500  0.08590600  0.45195000  1
  S  S2  1  0.14616500  0.41409400  0.54805000  1
  S  S3  1  0.35383500  0.91409400  0.95195000  1
  S  S4  1  0.64616500  0.41409400  0.95195000  1
  S  S5  1  0.85383500  0.91409400  0.54805000  1
  S  S6  1  0.85383500  0.58590600  0.45195000  1
  S  S7  1  0.64616500  0.08590600  0.04805000  1
  S  S8  1  0.27621300  0.51516000  0.15621700  1
  S  S9  1  0.22378700  0.01516000  0.34378300  1
  S  S10  1  0.22378700  0.48484000  0.65621700  1
  S  S11  1  0.27621300  0.98484000  0.84378300  1
  S  S12  1  0.72378700  0.48484000  0.84378300  1
  S  S13  1  0.77621300  0.98484000  0.65621700  1
  S  S14  1  0.77621300  0.51516000  0.34378300  1
  S  S15  1  0.72378700  0.01516000  0.15621700  1
  O  O0  1  0.19374500  0.66661800  0.19491600  1
  O  O1  1  0.30625500  0.16661800  0.30508400  1
  O  O2  1  0.30625500  0.33338200  0.69491600  1
  O  O3  1  0.19374500  0.83338200  0.80508400  1
  O  O4  1  0.80625500  0.33338200  0.80508400  1
  O  O5  1  0.69374500  0.83338200  0.69491600  1
  O  O6  1  0.69374500  0.66661800  0.30508400  1
  O  O7  1  0.80625500  0.16661800  0.19491600  1
  O  O8  1  0.14479300  0.37160800  0.15055100  1
  O  O9  1  0.35520700  0.87160800  0.34944900  1
  O  O10  1  0.35520700  0.62839200  0.65055100  1
  O  O11  1  0.14479300  0.12839200  0.84944900  1
  O  O12  1  0.85520700  0.62839200  0.84944900  1
  O  O13  1  0.64479300  0.12839200  0.65055100  1
  O  O14  1  0.64479300  0.37160800  0.34944900  1
  O  O15  1  0.85520700  0.87160800  0.15055100  1
  O  O16  1  0.43850400  0.46140500  0.19560700  1
  O  O17  1  0.06149600  0.96140500  0.30439300  1
  O  O18  1  0.06149600  0.53859500  0.69560700  1
  O  O19  1  0.43850400  0.03859500  0.80439300  1
  O  O20  1  0.56149600  0.53859500  0.80439300  1
  O  O21  1  0.93850400  0.03859500  0.69560700  1
  O  O22  1  0.93850400  0.46140500  0.30439300  1
  O  O23  1  0.56149600  0.96140500  0.19560700  1
  O  O24  1  0.77626600  0.50834000  0.00438100  1
  O  O25  1  0.72373400  0.00834000  0.49561900  1
  O  O26  1  0.72373400  0.49166000  0.50438100  1
  O  O27  1  0.77626600  0.99166000  0.99561900  1
  O  O28  1  0.22373400  0.49166000  0.99561900  1
  O  O29  1  0.27626600  0.99166000  0.50438100  1
  O  O30  1  0.27626600  0.50834000  0.49561900  1
  O  O31  1  0.22373400  0.00834000  0.00438100  1
loop_
_geom_bond_atom_site_label_1
_geom_bond_atom_site_label_2
_geom_bond_distance
_geom_bond_site_symmetry_2
Ba0 O24 2.586261 1_555
Ba0 O7 2.798227 1_555
Ba0 O15 2.800123 1_555
Ba0 O8 2.859144 1_655
Ba0 O16 2.893660 1_555
Ba1 O25 2.586261 1_555
Ba1 O6 2.798227 1_545
Ba1 O14 2.800123 1_555
Ba1 O9 2.859144 1_545
Ba1 O17 2.893660 1_645
Ba2 O26 2.586261 1_555
Ba2 O5 2.798227 1_555
Ba2 O13 2.800123 1_555
Ba2 O10 2.859144 1_555
Ba2 O18 2.893660 1_655
Ba3 O27 2.586261 1_555
Ba3 O4 2.798227 1_565
Ba3 O12 2.800123 1_555
Ba3 O11 2.859144 1_665
Ba3 O19 2.893660 1_565
Ba4 O28 2.586261 1_555
Ba4 O3 2.798227 1_555
Ba4 O11 2.800123 1_555
Ba4 O12 2.859144 1_455
Ba4 O20 2.893660 1_555
Ba5 O29 2.586261 1_555
Ba5 O2 2.798227 1_565
Ba5 O10 2.800123 1_555
Ba5 O13 2.859144 1_565
Ba5 O21 2.893660 1_465
Ba6 O30 2.586261 1_555
Ba6 O1 2.798227 1_555
Ba6 O9 2.800123 1_555
Ba6 O14 2.859144 1_555
Ba6 O22 2.893660 1_455
Ba7 O31 2.586261 1_555
Ba7 O0 2.798227 1_545
Ba7 O8 2.800123 1_555
Ba7 O15 2.859144 1_445
Ba7 O23 2.893660 1_545
O0 S8 1.497956 1_555
O1 S9 1.497956 1_555
O2 S10 1.497956 1_555
O3 S11 1.497956 1_555
O4 S12 1.497956 1_555
O5 S13 1.497956 1_555
O6 S14 1.497956 1_555
O7 S15 1.497956 1_555
O8 S8 1.491015 1_555
O9 S9 1.491015 1_565
O10 S10 1.491015 1_555
O11 S11 1.491015 1_545
O12 S12 1.491015 1_555
O13 S13 1.491015 1_545
O14 S14 1.491015 1_555
O15 S15 1.491015 1_565
O16 S8 1.486019 1_555
O17 S9 1.486019 1_565
O18 S10 1.486019 1_555
O19 S11 1.486019 1_545
O20 S12 1.486019 1_555
O21 S13 1.486019 1_545
O22 S14 1.486019 1_555
O23 S15 1.486019 1_565
O24 S4 1.554557 1_554
O25 S5 1.554557 1_545
O26 S6 1.554557 1_555
O27 S7 1.554557 1_566
O28 S0 1.554557 1_556
O29 S1 1.554557 1_565
O30 S2 1.554557 1_555
O31 S3 1.554557 1_544
