# generated using pymatgen
data_Ti2SiNi3
_symmetry_space_group_name_H-M   'P 1'
_cell_length_a   4.79842170
_cell_length_b   4.79842170
_cell_length_c   7.50276500
_cell_angle_alpha   90.00000000
_cell_angle_beta   90.00000000
_cell_angle_gamma   119.99999582
_symmetry_Int_Tables_number   1
_chemical_formula_structural   Ti2SiNi3
_chemical_formula_sum   'Ti4 Si2 Ni6'
_cell_volume   149.60593340
_cell_formula_units_Z   2
loop_
 _symmetry_equiv_pos_site_id
 _symmetry_equiv_pos_as_xyz
  1  'x, y, z'
loop_
 _atom_site_type_symbol
 _atom_site_label
 _atom_site_symmetry_multiplicity
 _atom_site_fract_x
 _atom_site_fract_y
 _atom_site_fract_z
 _atom_site_occupancy
  Ti  Ti0  1  0.33333300  0.66666700  0.55851700  1
  Ti  Ti1  1  0.66666700  0.33333300  0.44148300  1
  Ti  Ti2  1  0.66666700  0.33333300  0.05851700  1
  Ti  Ti3  1  0.33333300  0.66666700  0.94148300  1
  Si  Si0  1  0.00000000  0.00000000  0.00000000  1
  Si  Si1  1  0.00000000  0.00000000  0.50000000  1
  Ni  Ni0  1  0.16987200  0.33974300  0.25000000  1
  Ni  Ni1  1  0.83012800  0.66025700  0.75000000  1
  Ni  Ni2  1  0.66025700  0.83012800  0.25000000  1
  Ni  Ni3  1  0.33974300  0.16987200  0.75000000  1
  Ni  Ni4  1  0.16987200  0.83012800  0.25000000  1
  Ni  Ni5  1  0.83012800  0.16987200  0.75000000  1
loop_
_geom_bond_atom_site_label_1
_geom_bond_atom_site_label_2
_geom_bond_distance
_geom_bond_site_symmetry_2
Ti0 Ti3 2.873304 1_555
Ti0 Ti1 2.906193 1_455
Ti0 Ti1 2.906193 1_565
Ti0 Ti1 2.906201 1_555
Ti1 Ti2 2.873304 1_555
Ti2 Ti3 2.906193 1_544
Ti2 Ti3 2.906193 1_654
Ti2 Ti3 2.906201 1_554
Si0 Ti3 2.804940 1_544
Si0 Ti2 2.804940 1_455
Si0 Ti2 2.804945 1_445
Si0 Ti3 2.804945 1_444
Si0 Ti2 2.804945 1_555
Si0 Ti3 2.804945 1_554
Si1 Ti0 2.804940 1_545
Si1 Ti1 2.804940 1_455
Si1 Ti0 2.804945 1_555
Si1 Ti0 2.804945 1_445
Si1 Ti1 2.804945 1_555
Si1 Ti1 2.804945 1_445
Ni0 Si1 2.347649 1_555
Ni0 Si0 2.347649 1_555
Ni0 Ni4 2.353074 1_555
Ni0 Ni2 2.353074 1_555
Ni0 Ni4 2.445348 1_545
Ni0 Ni2 2.445348 1_445
Ni0 Ti0 2.683959 1_555
Ni0 Ti3 2.683959 1_554
Ni0 Ti1 2.796586 1_555
Ni0 Ti2 2.796586 1_555
Ni0 Ti1 2.796586 1_455
Ni0 Ti2 2.796586 1_455
Ni1 Si0 2.347649 1_666
Ni1 Si1 2.347649 1_665
Ni1 Ni5 2.353074 1_555
Ni1 Ni3 2.353074 1_555
Ni1 Ni5 2.445348 1_565
Ni1 Ni3 2.445348 1_665
Ni1 Ti2 2.683959 1_556
Ni1 Ti1 2.683959 1_555
Ni1 Ti3 2.796586 1_555
Ni1 Ti0 2.796586 1_555
Ni1 Ti3 2.796586 1_655
Ni1 Ti0 2.796586 1_655
Ni2 Si1 2.347649 1_665
Ni2 Si0 2.347649 1_665
Ni2 Ni4 2.353074 1_555
Ni2 Ni4 2.445348 1_655
Ni2 Ti0 2.683959 1_555
Ni2 Ti3 2.683959 1_554
Ni2 Ti1 2.796586 1_555
Ni2 Ti2 2.796586 1_555
Ni2 Ti1 2.796586 1_565
Ni2 Ti2 2.796586 1_565
Ni3 Si0 2.347649 1_556
Ni3 Si1 2.347649 1_555
Ni3 Ni5 2.353074 1_555
Ni3 Ni5 2.445348 1_455
Ni3 Ti2 2.683959 1_556
Ni3 Ti1 2.683959 1_555
Ni3 Ti3 2.796586 1_555
Ni3 Ti0 2.796586 1_555
Ni3 Ti3 2.796586 1_545
Ni3 Ti0 2.796586 1_545
Ni4 Si1 2.347651 1_565
Ni4 Si0 2.347651 1_565
Ni4 Ti0 2.683955 1_555
Ni4 Ti3 2.683955 1_554
Ni4 Ti1 2.796586 1_455
Ni4 Ti1 2.796586 1_565
Ni4 Ti2 2.796586 1_455
Ni4 Ti2 2.796586 1_565
Ni5 Si0 2.347651 1_656
Ni5 Si1 2.347651 1_655
Ni5 Ti2 2.683955 1_556
Ni5 Ti1 2.683955 1_555
Ni5 Ti3 2.796586 1_545
Ni5 Ti3 2.796586 1_655
Ni5 Ti0 2.796586 1_655
Ni5 Ti0 2.796586 1_545
