# generated using pymatgen
data_ErReB4
_symmetry_space_group_name_H-M   'P 1'
_cell_length_a   3.60533700
_cell_length_b   5.94743900
_cell_length_c   11.50135200
_cell_angle_alpha   90.00000000
_cell_angle_beta   90.00000000
_cell_angle_gamma   90.00000000
_symmetry_Int_Tables_number   1
_chemical_formula_structural   ErReB4
_chemical_formula_sum   'Er4 Re4 B16'
_cell_volume   246.61799193
_cell_formula_units_Z   4
loop_
 _symmetry_equiv_pos_site_id
 _symmetry_equiv_pos_as_xyz
  1  'x, y, z'
loop_
 _atom_site_type_symbol
 _atom_site_label
 _atom_site_symmetry_multiplicity
 _atom_site_fract_x
 _atom_site_fract_y
 _atom_site_fract_z
 _atom_site_occupancy
  Er  Er0  1  0.50000000  0.87290400  0.14987500  1
  Er  Er1  1  0.50000000  0.12709600  0.85012500  1
  Er  Er2  1  0.50000000  0.37290400  0.35012500  1
  Er  Er3  1  0.50000000  0.62709600  0.64987500  1
  Re  Re0  1  0.50000000  0.86638700  0.41224700  1
  Re  Re1  1  0.50000000  0.13361300  0.58775300  1
  Re  Re2  1  0.50000000  0.36638700  0.08775300  1
  Re  Re3  1  0.50000000  0.63361300  0.91224700  1
  B  B0  1  0.00000000  0.52040900  0.19295900  1
  B  B1  1  0.00000000  0.47959100  0.80704100  1
  B  B2  1  0.00000000  0.02040900  0.30704100  1
  B  B3  1  0.00000000  0.97959100  0.69295900  1
  B  B4  1  0.00000000  0.61361000  0.04781800  1
  B  B5  1  0.00000000  0.38639000  0.95218200  1
  B  B6  1  0.00000000  0.11361000  0.45218200  1
  B  B7  1  0.00000000  0.88639000  0.54781800  1
  B  B8  1  0.00000000  0.63570700  0.46897700  1
  B  B9  1  0.00000000  0.36429300  0.53102300  1
  B  B10  1  0.00000000  0.13570700  0.03102300  1
  B  B11  1  0.00000000  0.86429300  0.96897700  1
  B  B12  1  0.00000000  0.71013100  0.31524700  1
  B  B13  1  0.00000000  0.28986900  0.68475300  1
  B  B14  1  0.00000000  0.21013100  0.18475300  1
  B  B15  1  0.00000000  0.78986900  0.81524700  1
loop_
_geom_bond_atom_site_label_1
_geom_bond_atom_site_label_2
_geom_bond_distance
_geom_bond_site_symmetry_2
Er0 Re0 3.017882 1_555
Er0 Re2 3.020676 1_565
Er0 Re3 3.081385 1_554
Er0 Re2 3.096049 1_555
Er1 Re1 3.017882 1_555
Er1 Re3 3.020676 1_545
Er1 Re2 3.081385 1_556
Er1 Re3 3.096049 1_555
Er2 Re2 3.017882 1_555
Er2 Re0 3.020676 1_555
Er2 Re1 3.081385 1_555
Er2 Re0 3.096049 1_545
Er3 Re3 3.017882 1_555
Er3 Re1 3.020676 1_555
Er3 Re0 3.081385 1_555
Er3 Re1 3.096049 1_565
Re0 Re1 2.569139 1_565
Re2 Re3 2.569139 1_554
B0 B4 1.758942 1_555
B0 B12 1.803157 1_555
B0 B14 1.847771 1_555
B0 Re2 2.356452 1_555
B0 Re2 2.356452 1_455
B0 Er2 2.699393 1_555
B0 Er2 2.699393 1_455
B0 Er0 2.808955 1_555
B0 Er0 2.808955 1_455
B1 B5 1.758942 1_555
B1 B13 1.803157 1_555
B1 B15 1.847771 1_555
B1 Re3 2.356452 1_455
B1 Re3 2.356452 1_555
B1 Er3 2.699393 1_455
B1 Er3 2.699393 1_555
B1 Er1 2.808955 1_455
B1 Er1 2.808955 1_555
B2 B6 1.758942 1_555
B2 Re0 2.356452 1_445
B2 Re0 2.356452 1_545
B2 Er0 2.699393 1_445
B2 Er0 2.699393 1_545
B2 Er2 2.808955 1_455
B2 Er2 2.808955 1_555
B3 B7 1.758942 1_555
B3 Re1 2.356452 1_465
B3 Re1 2.356452 1_565
B3 Er1 2.699393 1_565
B3 Er1 2.699393 1_465
B3 Er3 2.808955 1_555
B3 Er3 2.808955 1_455
B4 B5 1.742439 1_554
B4 Re2 2.371178 1_555
B4 Re2 2.371178 1_455
B4 Re3 2.386426 1_554
B4 Re3 2.386426 1_454
B4 Er0 2.646807 1_455
B4 Er0 2.646807 1_555
B5 Re3 2.371178 1_455
B5 Re3 2.371178 1_555
B5 Re2 2.386426 1_456
B5 Re2 2.386426 1_556
B5 Er1 2.646807 1_455
B5 Er1 2.646807 1_555
B6 B7 1.742439 1_545
B6 B9 1.745020 1_555
B6 Re0 2.371178 1_445
B6 Re0 2.371178 1_545
B6 Re1 2.386426 1_455
B6 Re1 2.386426 1_555
B6 Er2 2.646807 1_455
B6 Er2 2.646807 1_555
B7 B8 1.745020 1_555
B7 Re1 2.371178 1_565
B7 Re1 2.371178 1_465
B7 Re0 2.386426 1_555
B7 Re0 2.386426 1_455
B7 Er3 2.646807 1_555
B7 Er3 2.646807 1_455
B8 B9 1.764920 1_555
B8 Re0 2.357455 1_455
B8 Re0 2.357455 1_555
B8 Er2 2.749759 1_455
B8 Er2 2.749759 1_555
B8 Er3 2.753364 1_555
B8 Er3 2.753364 1_455
B9 Re1 2.357455 1_455
B9 Re1 2.357455 1_555
B9 Er3 2.749759 1_455
B9 Er3 2.749759 1_555
B9 Er2 2.753364 1_555
B9 Er2 2.753364 1_455
B10 B5 1.745020 1_554
B10 B11 1.764920 1_544
B10 B14 1.822666 1_555
B10 Re2 2.357455 1_555
B10 Re2 2.357455 1_455
B10 Er0 2.749759 1_545
B10 Er0 2.749759 1_445
B10 Er1 2.753364 1_554
B10 Er1 2.753364 1_454
B11 B4 1.745020 1_556
B11 B15 1.822666 1_555
B11 Re3 2.357455 1_555
B11 Re3 2.357455 1_455
B11 Er1 2.749759 1_565
B11 Er1 2.749759 1_465
B11 Er0 2.753364 1_556
B11 Er0 2.753364 1_456
B12 B8 1.822666 1_555
B12 B2 1.847771 1_565
B12 Re0 2.314711 1_455
B12 Re0 2.314711 1_555
B12 Er2 2.726373 1_455
B12 Er2 2.726373 1_555
B12 Er0 2.793637 1_555
B12 Er0 2.793637 1_455
B13 B9 1.822666 1_555
B13 B3 1.847771 1_545
B13 Re1 2.314711 1_455
B13 Re1 2.314711 1_555
B13 Er3 2.726373 1_555
B13 Er3 2.726373 1_455
B13 Er1 2.793637 1_455
B13 Er1 2.793637 1_555
B14 B2 1.803157 1_555
B14 Re2 2.314711 1_555
B14 Re2 2.314711 1_455
B14 Er0 2.726373 1_445
B14 Er0 2.726373 1_545
B14 Er2 2.793637 1_555
B14 Er2 2.793637 1_455
B15 B3 1.803157 1_555
B15 Re3 2.314711 1_555
B15 Re3 2.314711 1_455
B15 Er1 2.726373 1_565
B15 Er1 2.726373 1_465
B15 Er3 2.793637 1_555
B15 Er3 2.793637 1_455
