# generated using pymatgen
data_K9Fe2O7
_symmetry_space_group_name_H-M   'P 1'
_cell_length_a   11.13899300
_cell_length_b   11.13899300
_cell_length_c   11.13899300
_cell_angle_alpha   90.00000000
_cell_angle_beta   90.00000000
_cell_angle_gamma   90.00000000
_symmetry_Int_Tables_number   1
_chemical_formula_structural   K9Fe2O7
_chemical_formula_sum   'K36 Fe8 O28'
_cell_volume   1382.09467300
_cell_formula_units_Z   4
loop_
 _symmetry_equiv_pos_site_id
 _symmetry_equiv_pos_as_xyz
  1  'x, y, z'
loop_
 _atom_site_type_symbol
 _atom_site_label
 _atom_site_symmetry_multiplicity
 _atom_site_fract_x
 _atom_site_fract_y
 _atom_site_fract_z
 _atom_site_occupancy
  K  K0  1  0.09709800  0.59709800  0.90290200  1
  K  K1  1  0.59709800  0.90290200  0.09709800  1
  K  K2  1  0.90290200  0.09709800  0.59709800  1
  K  K3  1  0.40290200  0.40290200  0.40290200  1
  K  K4  1  0.26329900  0.76329900  0.73670100  1
  K  K5  1  0.76329900  0.73670100  0.26329900  1
  K  K6  1  0.73670100  0.26329900  0.76329900  1
  K  K7  1  0.23670100  0.23670100  0.23670100  1
  K  K8  1  0.42544100  0.92544100  0.57455900  1
  K  K9  1  0.92544100  0.57455900  0.42544100  1
  K  K10  1  0.57455900  0.42544100  0.92544100  1
  K  K11  1  0.07455900  0.07455900  0.07455900  1
  K  K12  1  0.21505700  0.16224300  0.50907400  1
  K  K13  1  0.49092600  0.71505700  0.33775700  1
  K  K14  1  0.66224300  0.99092600  0.78494300  1
  K  K15  1  0.71505700  0.33775700  0.49092600  1
  K  K16  1  0.99092600  0.78494300  0.66224300  1
  K  K17  1  0.16224300  0.50907400  0.21505700  1
  K  K18  1  0.78494300  0.66224300  0.99092600  1
  K  K19  1  0.50907400  0.21505700  0.16224300  1
  K  K20  1  0.33775700  0.49092600  0.71505700  1
  K  K21  1  0.28494300  0.83775700  0.00907400  1
  K  K22  1  0.00907400  0.28494300  0.83775700  1
  K  K23  1  0.83775700  0.00907400  0.28494300  1
  K  K24  1  0.71808800  0.83550100  0.53098400  1
  K  K25  1  0.46901600  0.21808800  0.66449900  1
  K  K26  1  0.33550100  0.96901600  0.28191200  1
  K  K27  1  0.21808800  0.66449900  0.46901600  1
  K  K28  1  0.96901600  0.28191200  0.33550100  1
  K  K29  1  0.83550100  0.53098400  0.71808800  1
  K  K30  1  0.28191200  0.33550100  0.96901600  1
  K  K31  1  0.53098400  0.71808800  0.83550100  1
  K  K32  1  0.66449900  0.46901600  0.21808800  1
  K  K33  1  0.78191200  0.16449900  0.03098400  1
  K  K34  1  0.03098400  0.78191200  0.16449900  1
  K  K35  1  0.16449900  0.03098400  0.78191200  1
  Fe  Fe0  1  0.92798000  0.42798000  0.07202000  1
  Fe  Fe1  1  0.42798000  0.07202000  0.92798000  1
  Fe  Fe2  1  0.07202000  0.92798000  0.42798000  1
  Fe  Fe3  1  0.57202000  0.57202000  0.57202000  1
  Fe  Fe4  1  0.59506200  0.09506200  0.40493800  1
  Fe  Fe5  1  0.09506200  0.40493800  0.59506200  1
  Fe  Fe6  1  0.40493800  0.59506200  0.09506200  1
  Fe  Fe7  1  0.90493800  0.90493800  0.90493800  1
  O  O0  1  0.66047000  0.08837500  0.56635300  1
  O  O1  1  0.43364700  0.16047000  0.41162500  1
  O  O2  1  0.58837500  0.93364700  0.33953000  1
  O  O3  1  0.16047000  0.41162500  0.43364700  1
  O  O4  1  0.93364700  0.33953000  0.58837500  1
  O  O5  1  0.08837500  0.56635300  0.66047000  1
  O  O6  1  0.33953000  0.58837500  0.93364700  1
  O  O7  1  0.56635300  0.66047000  0.08837500  1
  O  O8  1  0.41162500  0.43364700  0.16047000  1
  O  O9  1  0.83953000  0.91162500  0.06635300  1
  O  O10  1  0.06635300  0.83953000  0.91162500  1
  O  O11  1  0.91162500  0.06635300  0.83953000  1
  O  O12  1  0.18040700  0.91512700  0.56070600  1
  O  O13  1  0.43929400  0.68040700  0.58487300  1
  O  O14  1  0.41512700  0.93929400  0.81959300  1
  O  O15  1  0.68040700  0.58487300  0.43929400  1
  O  O16  1  0.93929400  0.81959300  0.41512700  1
  O  O17  1  0.91512700  0.56070600  0.18040700  1
  O  O18  1  0.81959300  0.41512700  0.93929400  1
  O  O19  1  0.56070600  0.18040700  0.91512700  1
  O  O20  1  0.58487300  0.43929400  0.68040700  1
  O  O21  1  0.31959300  0.08487300  0.06070600  1
  O  O22  1  0.06070600  0.31959300  0.08487300  1
  O  O23  1  0.08487300  0.06070600  0.31959300  1
  O  O24  1  0.69598000  0.19598000  0.30402000  1
  O  O25  1  0.19598000  0.30402000  0.69598000  1
  O  O26  1  0.30402000  0.69598000  0.19598000  1
  O  O27  1  0.80402000  0.80402000  0.80402000  1
loop_
_geom_bond_atom_site_label_1
_geom_bond_atom_site_label_2
_geom_bond_distance
_geom_bond_site_symmetry_2
K0 O10 2.723811 1_555
K0 O5 2.723811 1_555
K0 O6 2.723811 1_555
K1 O7 2.723811 1_555
K1 O9 2.723811 1_555
K1 O2 2.723811 1_555
K2 O0 2.723811 1_555
K2 O11 2.723811 1_555
K2 O4 2.723811 1_555
K3 O8 2.723811 1_555
K3 O3 2.723811 1_555
K3 O1 2.723811 1_555
K4 O13 2.748806 1_555
K4 O14 2.748806 1_555
K4 O12 2.748806 1_555
K4 O5 3.054549 1_555
K4 O10 3.054549 1_555
K4 O6 3.054549 1_555
K5 O15 2.748806 1_555
K5 O16 2.748806 1_555
K5 O17 2.748806 1_555
K5 O7 3.054549 1_555
K5 O9 3.054549 1_555
K5 O2 3.054549 1_555
K6 O20 2.748806 1_555
K6 O18 2.748806 1_555
K6 O19 2.748806 1_555
K6 O0 3.054549 1_555
K6 O11 3.054549 1_555
K6 O4 3.054549 1_555
K7 O21 2.748806 1_555
K7 O22 2.748806 1_555
K7 O23 2.748806 1_555
K7 O8 3.054549 1_555
K7 O3 3.054549 1_555
K7 O1 3.054549 1_555
K8 O13 2.736203 1_555
K8 O12 2.736203 1_555
K8 O14 2.736203 1_555
K8 O2 3.186871 1_555
K8 O1 3.186871 1_565
K8 O0 3.186871 1_565
K9 O15 2.736203 1_555
K9 O17 2.736203 1_555
K9 O16 2.736203 1_555
K9 O4 3.186871 1_555
K9 O3 3.186871 1_655
K9 O5 3.186871 1_655
K10 O20 2.736203 1_555
K10 O19 2.736203 1_555
K10 O18 2.736203 1_555
K10 O6 3.186871 1_555
K10 O8 3.186871 1_556
K10 O7 3.186871 1_556
K11 O21 2.736203 1_555
K11 O22 2.736203 1_555
K11 O23 2.736203 1_555
K11 O10 3.186871 1_544
K11 O9 3.186871 1_445
K11 O11 3.186871 1_454
K12 O25 2.621772 1_555
K12 O1 2.665946 1_555
K12 O23 2.799428 1_555
K12 O12 2.838429 1_545
K12 O3 2.965156 1_555
K13 O26 2.621772 1_555
K13 O2 2.665946 1_555
K13 O15 2.799428 1_555
K13 O13 2.838429 1_555
K13 O7 2.965156 1_555
K14 O27 2.621772 1_555
K14 O0 2.665946 1_565
K14 O19 2.799428 1_565
K14 O14 2.838429 1_555
K14 O11 2.965156 1_565
K15 O24 2.621772 1_555
K15 O4 2.665946 1_555
K15 O20 2.799428 1_555
K15 O15 2.838429 1_555
K15 O0 2.965156 1_555
K16 O27 2.621772 1_555
K16 O5 2.665946 1_655
K16 O12 2.799428 1_655
K16 O16 2.838429 1_555
K16 O10 2.965156 1_655
K17 O26 2.621772 1_555
K17 O3 2.665946 1_555
K17 O22 2.799428 1_555
K17 O17 2.838429 1_455
K17 O8 2.965156 1_555
K18 O27 2.621772 1_555
K18 O7 2.665946 1_556
K18 O17 2.799428 1_556
K18 O18 2.838429 1_555
K18 O9 2.965156 1_556
K19 O24 2.621772 1_555
K19 O8 2.665946 1_555
K19 O21 2.799428 1_555
K19 O19 2.838429 1_554
K19 O1 2.965156 1_555
K20 O25 2.621772 1_555
K20 O6 2.665946 1_555
K20 O13 2.799428 1_555
K20 O20 2.838429 1_555
K20 O5 2.965156 1_555
K21 O26 2.621772 1_555
K21 O10 2.665946 1_554
K21 O14 2.799428 1_554
K21 O21 2.838429 1_565
K21 O6 2.965156 1_554
K22 O25 2.621772 1_555
K22 O11 2.665946 1_455
K22 O18 2.799428 1_455
K22 O22 2.838429 1_556
K22 O4 2.965156 1_455
K23 O24 2.621772 1_555
K23 O9 2.665946 1_545
K23 O16 2.799428 1_545
K23 O23 2.838429 1_655
K23 O2 2.965156 1_545
K24 O16 2.787153 1_555
K24 O2 2.798365 1_555
K24 O0 2.915695 1_565
K24 O15 3.002187 1_555
K24 O27 3.207644 1_555
K25 O20 2.787153 1_555
K25 O0 2.798365 1_555
K25 O1 2.915695 1_555
K25 O19 3.002187 1_555
K25 O25 3.207644 1_555
K26 O21 2.787153 1_565
K26 O1 2.798365 1_565
K26 O2 2.915695 1_555
K26 O23 3.002187 1_565
K26 O26 3.207644 1_555
K27 O13 2.787153 1_555
K27 O5 2.798365 1_555
K27 O3 2.915695 1_555
K27 O12 3.002187 1_555
K27 O26 3.207644 1_555
K28 O23 2.787153 1_655
K28 O3 2.798365 1_655
K28 O4 2.915695 1_555
K28 O22 3.002187 1_655
K28 O24 3.207644 1_555
K29 O18 2.787153 1_555
K29 O4 2.798365 1_555
K29 O5 2.915695 1_655
K29 O20 3.002187 1_555
K29 O27 3.207644 1_555
K30 O22 2.787153 1_556
K30 O8 2.798365 1_556
K30 O6 2.915695 1_555
K30 O21 3.002187 1_556
K30 O25 3.207644 1_555
K31 O14 2.787153 1_555
K31 O6 2.798365 1_555
K31 O7 2.915695 1_556
K31 O13 3.002187 1_555
K31 O27 3.207644 1_555
K32 O15 2.787153 1_555
K32 O7 2.798365 1_555
K32 O8 2.915695 1_555
K32 O17 3.002187 1_555
K32 O24 3.207644 1_555
K33 O19 2.787153 1_554
K33 O11 2.798365 1_554
K33 O9 2.915695 1_545
K33 O18 3.002187 1_554
K33 O24 3.207644 1_555
K34 O17 2.787153 1_455
K34 O9 2.798365 1_455
K34 O10 2.915695 1_554
K34 O16 3.002187 1_455
K34 O26 3.207644 1_555
K35 O12 2.787153 1_545
K35 O10 2.798365 1_545
K35 O11 2.915695 1_455
K35 O14 3.002187 1_545
K35 O25 3.207644 1_555
Fe0 O17 1.914129 1_555
Fe0 O22 1.914129 1_655
Fe0 O18 1.914129 1_554
Fe1 O19 1.914129 1_555
Fe1 O21 1.914129 1_556
Fe1 O14 1.914129 1_545
Fe2 O12 1.914129 1_555
Fe2 O23 1.914129 1_565
Fe2 O16 1.914129 1_455
Fe3 O20 1.914129 1_555
Fe3 O13 1.914129 1_555
Fe3 O15 1.914129 1_555
Fe4 O2 1.941438 1_545
Fe4 O1 1.941438 1_555
Fe4 O0 1.941438 1_555
Fe4 O24 1.947041 1_555
Fe5 O4 1.941438 1_455
Fe5 O3 1.941438 1_555
Fe5 O5 1.941438 1_555
Fe5 O25 1.947041 1_555
Fe6 O6 1.941438 1_554
Fe6 O8 1.941438 1_555
Fe6 O7 1.941438 1_555
Fe6 O26 1.947041 1_555
Fe7 O9 1.941438 1_556
Fe7 O10 1.941438 1_655
Fe7 O11 1.941438 1_565
Fe7 O27 1.947041 1_555
