# generated using pymatgen
data_Ba
_symmetry_space_group_name_H-M   'P 1'
_cell_length_a   7.81878710
_cell_length_b   13.99213452
_cell_length_c   13.99213377
_cell_angle_alpha   119.99999330
_cell_angle_beta   90.00000000
_cell_angle_gamma   90.00000000
_symmetry_Int_Tables_number   1
_chemical_formula_structural   Ba
_chemical_formula_sum   Ba16
_cell_volume   1325.67775614
_cell_formula_units_Z   16
loop_
 _symmetry_equiv_pos_site_id
 _symmetry_equiv_pos_as_xyz
  1  'x, y, z'
loop_
 _atom_site_type_symbol
 _atom_site_label
 _atom_site_symmetry_multiplicity
 _atom_site_fract_x
 _atom_site_fract_y
 _atom_site_fract_z
 _atom_site_occupancy
  Ba  Ba0_0  1  0.25000000  0.16666650  0.33333350  1
  Ba  Ba0_1  1  0.25000000  0.16666650  0.83333350  1
  Ba  Ba0_2  1  0.25000000  0.66666650  0.33333350  1
  Ba  Ba0_3  1  0.25000000  0.66666650  0.83333350  1
  Ba  Ba0_4  1  0.75000000  0.16666650  0.33333350  1
  Ba  Ba0_5  1  0.75000000  0.16666650  0.83333350  1
  Ba  Ba0_6  1  0.75000000  0.66666650  0.33333350  1
  Ba  Ba0_7  1  0.75000000  0.66666650  0.83333350  1
  Ba  Ba1_0  1  0.25000000  0.33333350  0.16666650  1
  Ba  Ba1_1  1  0.25000000  0.33333350  0.66666650  1
  Ba  Ba1_2  1  0.25000000  0.83333350  0.16666650  1
  Ba  Ba1_3  1  0.25000000  0.83333350  0.66666650  1
  Ba  Ba1_4  1  0.75000000  0.33333350  0.16666650  1
  Ba  Ba1_5  1  0.75000000  0.33333350  0.66666650  1
  Ba  Ba1_6  1  0.75000000  0.83333350  0.16666650  1
  Ba  Ba1_7  1  0.75000000  0.83333350  0.66666650  1
loop_
_geom_bond_atom_site_label_1
_geom_bond_atom_site_label_2
_geom_bond_distance
_geom_bond_site_symmetry_2
Ba0_0 Ba0_4 3.909394 1_555
Ba0_0 Ba0_4 3.909394 1_455
Ba0_0 Ba1_1 4.039177 1_555
Ba0_0 Ba1_2 4.039178 1_545
Ba0_0 Ba1_0 4.039189 1_555
Ba0_1 Ba0_5 3.909394 1_555
Ba0_1 Ba0_5 3.909394 1_455
Ba0_1 Ba1_0 4.039177 1_556
Ba0_1 Ba1_3 4.039178 1_545
Ba0_1 Ba1_1 4.039189 1_555
Ba0_2 Ba0_6 3.909394 1_455
Ba0_2 Ba0_6 3.909394 1_555
Ba0_2 Ba1_3 4.039177 1_555
Ba0_2 Ba1_0 4.039178 1_555
Ba0_2 Ba1_2 4.039189 1_555
Ba0_3 Ba0_7 3.909394 1_555
Ba0_3 Ba0_7 3.909394 1_455
Ba0_3 Ba1_2 4.039177 1_556
Ba0_3 Ba1_1 4.039178 1_555
Ba0_3 Ba1_3 4.039189 1_555
Ba0_4 Ba1_5 4.039177 1_555
Ba0_4 Ba1_6 4.039178 1_545
Ba0_4 Ba1_4 4.039189 1_555
Ba0_5 Ba1_4 4.039177 1_556
Ba0_5 Ba1_7 4.039178 1_545
Ba0_5 Ba1_5 4.039189 1_555
Ba0_6 Ba1_7 4.039177 1_555
Ba0_6 Ba1_4 4.039178 1_555
Ba0_6 Ba1_6 4.039189 1_555
Ba0_7 Ba1_6 4.039177 1_556
Ba0_7 Ba1_5 4.039178 1_555
Ba0_7 Ba1_7 4.039189 1_555
Ba1_0 Ba1_4 3.909394 1_455
Ba1_0 Ba1_4 3.909394 1_555
Ba1_1 Ba1_5 3.909394 1_455
Ba1_1 Ba1_5 3.909394 1_555
Ba1_2 Ba1_6 3.909394 1_455
Ba1_2 Ba1_6 3.909394 1_555
Ba1_3 Ba1_7 3.909394 1_455
Ba1_3 Ba1_7 3.909394 1_555
