# generated using pymatgen
data_Cs2S5O
_symmetry_space_group_name_H-M   'P 1'
_cell_length_a   6.83289800
_cell_length_b   8.44988910
_cell_length_c   10.27418716
_cell_angle_alpha   70.62645097
_cell_angle_beta   76.89264785
_cell_angle_gamma   81.21795832
_symmetry_Int_Tables_number   1
_chemical_formula_structural   Cs2S5O
_chemical_formula_sum   'Cs4 S10 O2'
_cell_volume   543.09405315
_cell_formula_units_Z   2
loop_
 _symmetry_equiv_pos_site_id
 _symmetry_equiv_pos_as_xyz
  1  'x, y, z'
loop_
 _atom_site_type_symbol
 _atom_site_label
 _atom_site_symmetry_multiplicity
 _atom_site_fract_x
 _atom_site_fract_y
 _atom_site_fract_z
 _atom_site_occupancy
  Cs  Cs0  1  0.23289900  0.64471800  0.66903200  1
  Cs  Cs1  1  0.76710100  0.35528200  0.33096800  1
  Cs  Cs2  1  0.31932200  0.80372400  0.16821700  1
  Cs  Cs3  1  0.68067800  0.19627600  0.83178300  1
  S  S0  1  0.20959500  0.28956500  0.53322400  1
  S  S1  1  0.79040500  0.71043500  0.46677600  1
  S  S2  1  0.23683600  0.12215100  0.42947100  1
  S  S3  1  0.76316400  0.87784900  0.57052900  1
  S  S4  1  0.41128900  0.21612800  0.19835600  1
  S  S5  1  0.58871100  0.78387200  0.80164400  1
  S  S6  1  0.24885300  0.35970500  0.04856700  1
  S  S7  1  0.75114700  0.64029500  0.95143300  1
  S  S8  1  0.14708000  0.21098800  0.96096600  1
  S  S9  1  0.85292000  0.78901200  0.03903400  1
  O  O0  1  0.40556400  0.30644400  0.57631800  1
  O  O1  1  0.59443600  0.69355600  0.42368200  1
loop_
_geom_bond_atom_site_label_1
_geom_bond_atom_site_label_2
_geom_bond_distance
_geom_bond_site_symmetry_2
Cs0 O1 3.069849 1_555
Cs0 O0 3.276675 1_555
Cs0 S5 3.547958 1_555
Cs0 S3 3.664235 1_455
Cs0 S0 3.742068 1_555
Cs0 S7 3.858661 1_455
Cs0 S6 3.859983 1_556
Cs0 S8 3.916325 1_555
Cs0 S1 3.916573 1_455
Cs0 S2 3.968537 1_565
Cs1 O0 3.069849 1_555
Cs1 O1 3.276675 1_555
Cs1 S4 3.547958 1_555
Cs1 S2 3.664235 1_655
Cs1 S1 3.742068 1_555
Cs1 S6 3.858661 1_655
Cs1 S7 3.859983 1_554
Cs1 S9 3.916325 1_555
Cs1 S0 3.916573 1_655
Cs1 S3 3.968537 1_545
Cs2 O1 3.372207 1_555
Cs2 S8 3.577747 1_564
Cs2 S9 3.584237 1_555
Cs2 S7 3.659193 1_554
Cs2 S9 3.752613 1_455
Cs2 S4 3.755958 1_565
Cs2 S5 3.844671 1_554
Cs2 S1 4.162877 1_455
Cs3 O0 3.372207 1_555
Cs3 S9 3.577747 1_546
Cs3 S8 3.584237 1_555
Cs3 S6 3.659193 1_556
Cs3 S8 3.752613 1_655
Cs3 S5 3.755958 1_545
Cs3 S4 3.844671 1_556
Cs3 S0 4.162877 1_655
S0 S2 2.000549 1_555
S1 S3 2.000549 1_555
S2 S4 2.333261 1_555
S3 S5 2.333261 1_555
S4 S6 2.048658 1_555
S5 S7 2.048658 1_555
S6 S8 2.043006 1_554
S7 S9 2.043006 1_556
O0 S0 1.542239 1_555
O1 S1 1.542239 1_555
