# generated using pymatgen
data_KLaF4
_symmetry_space_group_name_H-M   'P 1'
_cell_length_a   6.52570711
_cell_length_b   7.50027396
_cell_length_c   7.50027396
_cell_angle_alpha   60.48189376
_cell_angle_beta   115.65801522
_cell_angle_gamma   115.65801522
_symmetry_Int_Tables_number   1
_chemical_formula_structural   KLaF4
_chemical_formula_sum   'K3 La3 F12'
_cell_volume   276.42794021
_cell_formula_units_Z   3
loop_
 _symmetry_equiv_pos_site_id
 _symmetry_equiv_pos_as_xyz
  1  'x, y, z'
loop_
 _atom_site_type_symbol
 _atom_site_label
 _atom_site_symmetry_multiplicity
 _atom_site_fract_x
 _atom_site_fract_y
 _atom_site_fract_z
 _atom_site_occupancy
  K  K0  1  0.34049979  0.07566218  0.57566218  1
  K  K1  1  0.33467678  0.59209829  0.09209829  1
  K  K2  1  0.66828284  0.91668056  0.41668056  1
  La  La0  1  0.00035597  0.00029178  0.00038757  1
  La  La1  1  0.00035597  0.50038757  0.50029178  1
  La  La2  1  0.66452074  0.41571569  0.91571569  1
  F  F0  1  0.23237128  0.75251402  0.25251402  1
  F  F1  1  0.24752092  0.24496779  0.74496779  1
  F  F2  1  0.77300191  0.13428428  0.63428428  1
  F  F3  1  0.74540596  0.62651468  0.12651468  1
  F  F4  1  -0.00016445  0.86740253  0.36740253  1
  F  F5  1  0.00297378  0.37664920  0.87664920  1
  F  F6  1  0.63697676  0.49342988  0.54417983  1
  F  F7  1  0.63697676  0.04417983  0.99342988  1
  F  F8  1  0.40106661  0.20793724  0.15394072  1
  F  F9  1  0.40106661  0.65394072  0.70793724  1
  F  F10  1  0.95695689  0.77073667  0.82661009  1
  F  F11  1  0.95695689  0.32661009  0.27073667  1
loop_
_geom_bond_atom_site_label_1
_geom_bond_atom_site_label_2
_geom_bond_distance
_geom_bond_site_symmetry_2
F0 La0 2.411695 1_565
F0 La1 2.411695 1_555
F0 K1 2.481651 1_555
F0 K2 2.559609 1_555
F1 La2 2.503081 1_555
F1 La1 2.507493 1_555
F1 La0 2.507493 1_556
F1 K0 2.552751 1_555
F2 La1 2.407282 1_655
F2 La0 2.407282 1_656
F2 K0 2.528569 1_555
F2 K2 2.547058 1_545
F3 K1 2.486887 1_555
F3 La1 2.496528 1_655
F3 La0 2.496528 1_665
F3 La2 2.509155 1_554
F4 La1 2.423313 1_555
F4 La0 2.423313 1_565
F4 K0 2.492336 1_565
F4 K2 2.544420 1_455
F5 La1 2.494032 1_555
F5 La0 2.494032 1_556
F5 La2 2.501058 1_455
F5 K1 2.534321 1_556
F6 La2 2.488722 1_555
F6 La1 2.507200 1_655
F6 K2 2.765830 1_555
F6 K0 2.834365 1_555
F6 K1 2.989208 1_555
F7 La2 2.488722 1_555
F7 La0 2.507200 1_656
F7 K2 2.765830 1_546
F7 K0 2.834365 1_555
F7 K1 2.989208 1_546
F8 La2 2.484552 1_554
F8 La0 2.494467 1_555
F8 K2 2.788759 1_545
F8 K1 2.880081 1_555
F8 K0 2.965816 1_555
F9 La2 2.484552 1_555
F9 La1 2.494467 1_555
F9 K2 2.788759 1_555
F9 K1 2.880081 1_556
F9 K0 2.965816 1_565
F10 La2 2.475697 1_555
F10 La0 2.492529 1_666
F10 K2 2.766508 1_555
F10 K1 2.795786 1_656
F10 K0 3.149333 1_665
F11 La2 2.475697 1_554
F11 La1 2.492529 1_655
F11 K2 2.766508 1_545
F11 K1 2.795786 1_655
F11 K0 3.149333 1_655
