# generated using pymatgen
data_SrMgB2O5
_symmetry_space_group_name_H-M   'P 1'
_cell_length_a   5.37648900
_cell_length_b   6.60742300
_cell_length_c   12.13988076
_cell_angle_alpha   77.37034785
_cell_angle_beta   90.00000000
_cell_angle_gamma   90.00000000
_symmetry_Int_Tables_number   1
_chemical_formula_structural   SrMgB2O5
_chemical_formula_sum   'Sr4 Mg4 B8 O20'
_cell_volume   420.83104441
_cell_formula_units_Z   4
loop_
 _symmetry_equiv_pos_site_id
 _symmetry_equiv_pos_as_xyz
  1  'x, y, z'
loop_
 _atom_site_type_symbol
 _atom_site_label
 _atom_site_symmetry_multiplicity
 _atom_site_fract_x
 _atom_site_fract_y
 _atom_site_fract_z
 _atom_site_occupancy
  Sr  Sr0  1  0.60958100  0.81646600  0.68986900  1
  Sr  Sr1  1  0.10958100  0.18353400  0.81013100  1
  Sr  Sr2  1  0.39041900  0.18353400  0.31013100  1
  Sr  Sr3  1  0.89041900  0.81646600  0.18986900  1
  Mg  Mg0  1  0.58549100  0.34666000  0.60583300  1
  Mg  Mg1  1  0.08549100  0.65334000  0.89416700  1
  Mg  Mg2  1  0.41450900  0.65334000  0.39416700  1
  Mg  Mg3  1  0.91450900  0.34666000  0.10583300  1
  B  B0  1  0.63330600  0.35566600  0.88295500  1
  B  B1  1  0.13330600  0.64433400  0.61704500  1
  B  B2  1  0.36669400  0.64433400  0.11704500  1
  B  B3  1  0.86669400  0.35566600  0.38295500  1
  B  B4  1  0.09067500  0.18390500  0.56772200  1
  B  B5  1  0.59067500  0.81609500  0.93227800  1
  B  B6  1  0.90932500  0.81609500  0.43227800  1
  B  B7  1  0.40932500  0.18390500  0.06772200  1
  O  O0  1  0.35056100  0.60167800  0.56660600  1
  O  O1  1  0.85056100  0.39832200  0.93339400  1
  O  O2  1  0.64943900  0.39832200  0.43339400  1
  O  O3  1  0.14943900  0.60167800  0.06660600  1
  O  O4  1  0.60264700  0.37692800  0.77015400  1
  O  O5  1  0.10264700  0.62307200  0.72984600  1
  O  O6  1  0.39735300  0.62307200  0.22984600  1
  O  O7  1  0.89735300  0.37692800  0.27015400  1
  O  O8  1  0.87849300  0.15292700  0.63095300  1
  O  O9  1  0.37849300  0.84707300  0.86904700  1
  O  O10  1  0.12150700  0.84707300  0.36904700  1
  O  O11  1  0.62150700  0.15292700  0.13095300  1
  O  O12  1  0.91880300  0.71734400  0.54906000  1
  O  O13  1  0.41880300  0.28265600  0.95094000  1
  O  O14  1  0.08119700  0.28265600  0.45094000  1
  O  O15  1  0.58119700  0.71734400  0.04906000  1
  O  O16  1  0.31893100  0.12978300  0.61540700  1
  O  O17  1  0.81893100  0.87021700  0.88459300  1
  O  O18  1  0.68106900  0.87021700  0.38459300  1
  O  O19  1  0.18106900  0.12978300  0.11540700  1
loop_
_geom_bond_atom_site_label_1
_geom_bond_atom_site_label_2
_geom_bond_distance
_geom_bond_site_symmetry_2
Mg0 O8 2.010603 1_555
Mg0 O16 2.011989 1_555
Mg0 O4 2.049962 1_555
Mg0 O2 2.074734 1_555
Mg0 O0 2.076190 1_555
Mg1 O9 2.010603 1_555
Mg1 O17 2.011989 1_455
Mg1 O5 2.049962 1_555
Mg1 O3 2.074734 1_556
Mg1 O1 2.076190 1_455
Mg2 O10 2.010603 1_555
Mg2 O18 2.011989 1_555
Mg2 O6 2.049962 1_555
Mg2 O0 2.074734 1_555
Mg2 O2 2.076190 1_555
Mg3 O11 2.010603 1_555
Mg3 O19 2.011989 1_655
Mg3 O7 2.049962 1_555
Mg3 O1 2.074734 1_554
Mg3 O3 2.076190 1_655
B0 O4 1.355733 1_555
B0 O1 1.376311 1_555
B0 O13 1.438686 1_555
B1 O5 1.355733 1_555
B1 O0 1.376311 1_555
B1 O12 1.438686 1_455
B2 O6 1.355733 1_555
B2 O3 1.376311 1_555
B2 O15 1.438686 1_555
B3 O7 1.355733 1_555
B3 O2 1.376311 1_555
B3 O14 1.438686 1_655
B4 O8 1.365223 1_455
B4 O16 1.370594 1_555
B4 O14 1.426095 1_555
B5 O9 1.365223 1_555
B5 O17 1.370594 1_555
B5 O15 1.426095 1_556
B6 O10 1.365223 1_655
B6 O18 1.370594 1_555
B6 O12 1.426095 1_555
B7 O11 1.365223 1_555
B7 O19 1.370594 1_555
B7 O13 1.426095 1_554
O0 Sr0 2.668593 1_555
O1 Sr1 2.668593 1_655
O2 Sr2 2.668593 1_555
O3 Sr3 2.668593 1_455
O4 Sr0 2.854467 1_555
O4 Sr1 2.936804 1_555
O4 Sr1 3.004279 1_655
O5 Sr1 2.854467 1_555
O5 Sr0 2.936804 1_455
O5 Sr0 3.004279 1_555
O6 Sr2 2.854467 1_555
O6 Sr3 2.936804 1_555
O6 Sr3 3.004279 1_455
O7 Sr3 2.854467 1_555
O7 Sr2 2.936804 1_655
O7 Sr2 3.004279 1_555
O8 Sr1 2.551160 1_655
O8 Sr0 2.617045 1_545
O9 Sr0 2.551160 1_555
O9 Sr1 2.617045 1_565
O10 Sr3 2.551160 1_455
O10 Sr2 2.617045 1_565
O11 Sr2 2.551160 1_555
O11 Sr3 2.617045 1_545
O12 Sr0 2.569940 1_555
O13 Sr1 2.569940 1_555
O14 Sr2 2.569940 1_555
O15 Sr3 2.569940 1_555
O16 Sr0 2.593559 1_545
O16 Sr1 2.710779 1_555
O17 Sr1 2.593559 1_665
O17 Sr0 2.710779 1_555
O18 Sr2 2.593559 1_565
O18 Sr3 2.710779 1_555
O19 Sr3 2.593559 1_445
O19 Sr2 2.710779 1_555
