# generated using pymatgen
data_Ta5S8
_symmetry_space_group_name_H-M   'P 1'
_cell_length_a   13.08860909
_cell_length_b   13.08860909
_cell_length_c   5.77358512
_cell_angle_alpha   78.55467236
_cell_angle_beta   78.55467236
_cell_angle_gamma   14.34681392
_symmetry_Int_Tables_number   1
_chemical_formula_structural   Ta5S8
_chemical_formula_sum   'Ta5 S8'
_cell_volume   240.13380216
_cell_formula_units_Z   1
loop_
 _symmetry_equiv_pos_site_id
 _symmetry_equiv_pos_as_xyz
  1  'x, y, z'
loop_
 _atom_site_type_symbol
 _atom_site_label
 _atom_site_symmetry_multiplicity
 _atom_site_fract_x
 _atom_site_fract_y
 _atom_site_fract_z
 _atom_site_occupancy
  Ta  Ta0  1  0.37399541  0.37399541  0.63235148  1
  Ta  Ta1  1  0.87291192  0.87291192  0.12503022  1
  Ta  Ta2  1  0.62600459  0.62600459  0.36764852  1
  Ta  Ta3  1  0.12708808  0.12708808  0.87496978  1
  Ta  Ta4  1  -0.00000000  0.00000000  0.00000000  1
  S  S0  1  0.93728109  0.93728109  0.73829375  1
  S  S1  1  0.43796253  0.43796253  0.24229652  1
  S  S2  1  0.56203747  0.56203747  0.75770348  1
  S  S3  1  0.06271891  0.06271891  0.26170625  1
  S  S4  1  0.68719372  0.68719372  0.64824474  1
  S  S5  1  0.18796863  0.18796863  0.14890233  1
  S  S6  1  0.81203137  0.81203137  0.85109767  1
  S  S7  1  0.31280628  0.31280628  0.35175526  1
loop_
_geom_bond_atom_site_label_1
_geom_bond_atom_site_label_2
_geom_bond_distance
_geom_bond_site_symmetry_2
S0 Ta4 2.433329 1_666
S0 Ta0 2.479769 1_655
S0 Ta0 2.479769 1_565
S0 Ta1 2.507481 1_556
S1 Ta4 2.514523 1_565
S1 Ta4 2.514523 1_655
S1 Ta0 2.516978 1_555
S1 Ta1 2.538051 1_545
S1 Ta1 2.538051 1_455
S2 Ta4 2.514523 1_566
S2 Ta4 2.514523 1_656
S2 Ta2 2.516978 1_555
S2 Ta3 2.538051 1_565
S2 Ta3 2.538051 1_655
S3 Ta4 2.433329 1_555
S3 Ta2 2.479769 1_545
S3 Ta2 2.479769 1_455
S3 Ta3 2.507481 1_554
S4 Ta3 2.450391 1_565
S4 Ta3 2.450391 1_655
S4 Ta2 2.485964 1_555
S5 Ta3 2.449879 1_554
S5 Ta2 2.458321 1_455
S5 Ta2 2.458321 1_545
S6 Ta1 2.449879 1_556
S6 Ta0 2.458321 1_655
S6 Ta0 2.458321 1_565
S7 Ta1 2.450391 1_545
S7 Ta1 2.450391 1_455
S7 Ta0 2.485964 1_555
