# generated using pymatgen
data_Ba2LaIrO6
_symmetry_space_group_name_H-M   'P 1'
_cell_length_a   6.09971303
_cell_length_b   6.09971303
_cell_length_c   6.14650335
_cell_angle_alpha   59.98667552
_cell_angle_beta   59.98667552
_cell_angle_gamma   59.91937366
_symmetry_Int_Tables_number   1
_chemical_formula_structural   Ba2LaIrO6
_chemical_formula_sum   'Ba2 La1 Ir1 O6'
_cell_volume   161.57687797
_cell_formula_units_Z   1
loop_
 _symmetry_equiv_pos_site_id
 _symmetry_equiv_pos_as_xyz
  1  'x, y, z'
loop_
 _atom_site_type_symbol
 _atom_site_label
 _atom_site_symmetry_multiplicity
 _atom_site_fract_x
 _atom_site_fract_y
 _atom_site_fract_z
 _atom_site_occupancy
  Ba  Ba0  1  0.25184600  0.25184600  0.74584500  1
  Ba  Ba1  1  0.74815400  0.74815400  0.25415500  1
  La  La0  1  0.50000000  0.50000000  0.00000000  1
  Ir  Ir0  1  0.00000000  0.00000000  0.50000000  1
  O  O0  1  0.77151100  0.77151100  0.77108900  1
  O  O1  1  0.22848900  0.22848900  0.22891100  1
  O  O2  1  0.79181900  0.25293800  0.70545900  1
  O  O3  1  0.74706200  0.20818100  0.29454100  1
  O  O4  1  0.20818100  0.74706200  0.29454100  1
  O  O5  1  0.25293800  0.79181900  0.70545900  1
loop_
_geom_bond_atom_site_label_1
_geom_bond_atom_site_label_2
_geom_bond_distance
_geom_bond_site_symmetry_2
Ba0 O1 2.833816 1_556
Ba0 O4 2.905209 1_555
Ba0 O3 2.905209 1_555
Ba0 O5 2.934608 1_545
Ba0 O2 2.934608 1_455
Ba0 O0 3.063246 1_545
Ba0 O0 3.063246 1_455
Ba0 O2 3.180001 1_555
Ba0 O5 3.180001 1_555
Ba0 O4 3.234287 1_546
Ba0 O3 3.234287 1_456
Ba0 O1 3.325978 1_555
Ba1 O0 2.833816 1_554
Ba1 O2 2.905209 1_555
Ba1 O5 2.905209 1_555
Ba1 O3 2.934608 1_565
Ba1 O4 2.934608 1_655
Ba1 O1 3.063246 1_655
Ba1 O1 3.063246 1_565
Ba1 O3 3.180001 1_555
Ba1 O4 3.180001 1_555
Ba1 O2 3.234287 1_564
Ba1 O5 3.234287 1_654
Ba1 O0 3.325978 1_555
La0 O4 2.352356 1_555
La0 O5 2.352356 1_554
La0 O3 2.352356 1_555
La0 O2 2.352356 1_554
La0 O0 2.356368 1_554
La0 O1 2.356368 1_555
Ir0 O1 1.990485 1_555
Ir0 O0 1.990485 1_445
Ir0 O5 1.992145 1_545
Ir0 O2 1.992145 1_455
Ir0 O4 1.992145 1_545
Ir0 O3 1.992145 1_455
