# generated using pymatgen
data_Y15C19
_symmetry_space_group_name_H-M   'P 1'
_cell_length_a   8.19389400
_cell_length_b   8.19389400
_cell_length_c   15.54364300
_cell_angle_alpha   90.00000000
_cell_angle_beta   90.00000000
_cell_angle_gamma   90.00000000
_symmetry_Int_Tables_number   1
_chemical_formula_structural   Y15C19
_chemical_formula_sum   'Y30 C38'
_cell_volume   1043.59861930
_cell_formula_units_Z   2
loop_
 _symmetry_equiv_pos_site_id
 _symmetry_equiv_pos_as_xyz
  1  'x, y, z'
loop_
 _atom_site_type_symbol
 _atom_site_label
 _atom_site_symmetry_multiplicity
 _atom_site_fract_x
 _atom_site_fract_y
 _atom_site_fract_z
 _atom_site_occupancy
  Y  Y0  1  0.70336300  0.90707600  0.49942600  1
  Y  Y1  1  0.20336300  0.59292400  0.00057400  1
  Y  Y2  1  0.29663700  0.09292400  0.49942600  1
  Y  Y3  1  0.79663700  0.40707500  0.00057400  1
  Y  Y4  1  0.90707600  0.29663700  0.50057400  1
  Y  Y5  1  0.59292400  0.79663700  0.99942600  1
  Y  Y6  1  0.09292400  0.70336300  0.50057400  1
  Y  Y7  1  0.40707500  0.20336300  0.99942600  1
  Y  Y8  1  0.78460700  0.59786500  0.65046400  1
  Y  Y9  1  0.28460700  0.90213500  0.84953600  1
  Y  Y10  1  0.21539300  0.40213500  0.65046400  1
  Y  Y11  1  0.71539300  0.09786500  0.84953600  1
  Y  Y12  1  0.59786500  0.21539300  0.34953600  1
  Y  Y13  1  0.90213500  0.71539300  0.15046400  1
  Y  Y14  1  0.40213500  0.78460700  0.34953600  1
  Y  Y15  1  0.09786500  0.28460700  0.15046400  1
  Y  Y16  1  0.59798000  0.21534700  0.64987600  1
  Y  Y17  1  0.09798000  0.28465300  0.85012400  1
  Y  Y18  1  0.40202000  0.78465300  0.64987600  1
  Y  Y19  1  0.90202000  0.71534700  0.85012400  1
  Y  Y20  1  0.21534700  0.40202000  0.35012400  1
  Y  Y21  1  0.28465300  0.90202000  0.14987600  1
  Y  Y22  1  0.78465300  0.59798000  0.35012400  1
  Y  Y23  1  0.71534700  0.09798000  0.14987600  1
  Y  Y24  1  0.00000000  0.00000000  0.33057600  1
  Y  Y25  1  0.50000000  0.50000000  0.16942400  1
  Y  Y26  1  0.00000000  0.00000000  0.66942400  1
  Y  Y27  1  0.50000000  0.50000000  0.83057600  1
  Y  Y28  1  0.50000000  0.50000000  0.50000000  1
  Y  Y29  1  0.00000000  0.00000000  0.00000000  1
  C  C0  1  0.60489100  0.19715600  0.49964700  1
  C  C1  1  0.10489100  0.30284400  0.00035300  1
  C  C2  1  0.39510900  0.80284400  0.49964700  1
  C  C3  1  0.89510900  0.69715600  0.00035300  1
  C  C4  1  0.19715600  0.39510900  0.50035300  1
  C  C5  1  0.30284400  0.89510900  0.99964700  1
  C  C6  1  0.80284400  0.60489100  0.50035300  1
  C  C7  1  0.69715600  0.10489100  0.99964700  1
  C  C8  1  0.69628700  0.90315700  0.66958200  1
  C  C9  1  0.19628700  0.59684300  0.83041800  1
  C  C10  1  0.30371300  0.09684300  0.66958200  1
  C  C11  1  0.80371300  0.40315700  0.83041800  1
  C  C12  1  0.90315700  0.30371300  0.33041800  1
  C  C13  1  0.59684300  0.80371300  0.16958200  1
  C  C14  1  0.09684300  0.69628700  0.33041800  1
  C  C15  1  0.40315700  0.19628700  0.16958200  1
  C  C16  1  0.65161400  0.84879500  0.74793700  1
  C  C17  1  0.15161400  0.65120500  0.75206300  1
  C  C18  1  0.34838600  0.15120500  0.74793700  1
  C  C19  1  0.84838600  0.34879500  0.75206300  1
  C  C20  1  0.84879500  0.34838600  0.25206300  1
  C  C21  1  0.65120500  0.84838600  0.24793700  1
  C  C22  1  0.15120500  0.65161400  0.25206300  1
  C  C23  1  0.34879500  0.15161400  0.24793700  1
  C  C24  1  0.90436600  0.30136300  0.67471800  1
  C  C25  1  0.40436600  0.19863700  0.82528200  1
  C  C26  1  0.09563400  0.69863700  0.67471800  1
  C  C27  1  0.59563400  0.80136300  0.82528200  1
  C  C28  1  0.30136300  0.09563400  0.32528200  1
  C  C29  1  0.19863700  0.59563400  0.17471800  1
  C  C30  1  0.69863700  0.90436600  0.32528200  1
  C  C31  1  0.80136300  0.40436600  0.17471800  1
  C  C32  1  0.50000000  0.50000000  0.66285800  1
  C  C33  1  0.00000000  0.00000000  0.83714200  1
  C  C34  1  0.50000000  0.50000000  0.33714200  1
  C  C35  1  0.00000000  0.00000000  0.16285800  1
  C  C36  1  0.50000000  0.50000000  0.00000000  1
  C  C37  1  0.00000000  0.00000000  0.50000000  1
loop_
_geom_bond_atom_site_label_1
_geom_bond_atom_site_label_2
_geom_bond_distance
_geom_bond_site_symmetry_2
C0 Y12 2.338761 1_555
C0 Y16 2.340544 1_555
C0 Y0 2.510106 1_545
C0 Y4 2.606835 1_555
C0 Y28 2.626102 1_555
C0 Y2 2.666291 1_555
C1 Y15 2.338761 1_555
C1 Y17 2.340544 1_554
C1 Y1 2.510106 1_555
C1 Y7 2.606827 1_554
C1 Y29 2.626102 1_555
C1 Y3 2.666289 1_455
C2 Y14 2.338761 1_555
C2 Y18 2.340544 1_555
C2 Y2 2.510106 1_565
C2 Y6 2.606835 1_555
C2 Y28 2.626102 1_555
C2 Y0 2.666291 1_555
C3 Y13 2.338761 1_555
C3 Y19 2.340544 1_554
C3 Y3 2.510113 1_555
C3 Y5 2.606835 1_554
C3 Y29 2.626102 1_665
C3 Y1 2.666291 1_655
C4 Y10 2.338761 1_555
C4 Y20 2.340544 1_555
C4 Y4 2.510106 1_455
C4 Y2 2.606835 1_555
C4 Y28 2.626102 1_555
C4 Y6 2.666291 1_555
C5 Y9 2.338761 1_555
C5 Y21 2.340544 1_556
C5 Y5 2.510106 1_555
C5 Y1 2.606835 1_556
C5 Y29 2.626102 1_566
C5 Y7 2.666289 1_565
C6 Y8 2.338761 1_555
C6 Y22 2.340544 1_555
C6 Y6 2.510106 1_655
C6 Y0 2.606835 1_555
C6 Y28 2.626102 1_555
C6 Y4 2.666291 1_555
C7 Y11 2.338761 1_555
C7 Y23 2.340544 1_556
C7 Y7 2.510113 1_555
C7 Y3 2.606827 1_556
C7 Y29 2.626102 1_656
C7 Y5 2.666291 1_545
C8 Y26 2.612044 1_665
C8 Y18 2.617352 1_555
C8 Y8 2.621007 1_555
C8 Y0 2.645674 1_555
C8 Y16 2.699316 1_565
C9 Y27 2.612044 1_555
C9 Y19 2.617352 1_455
C9 Y9 2.621007 1_555
C9 Y1 2.645674 1_556
C9 Y17 2.699316 1_555
C10 C18 1.347493 1_555
C10 Y26 2.612044 1_555
C10 Y16 2.617352 1_555
C10 Y10 2.621007 1_555
C10 Y2 2.645674 1_555
C10 Y18 2.699316 1_545
C11 C19 1.347493 1_555
C11 Y27 2.612044 1_555
C11 Y17 2.617352 1_655
C11 Y11 2.621007 1_555
C11 Y3 2.645674 1_556
C11 Y19 2.699316 1_555
C12 C20 1.347493 1_555
C12 Y24 2.612044 1_655
C12 Y22 2.617352 1_555
C12 Y12 2.621007 1_555
C12 Y4 2.645674 1_555
C12 Y20 2.699316 1_655
C13 C21 1.347493 1_555
C13 Y25 2.612044 1_555
C13 Y23 2.617352 1_565
C13 Y13 2.621007 1_555
C13 Y5 2.645674 1_554
C13 Y21 2.699316 1_555
C14 C22 1.347493 1_555
C14 Y24 2.612044 1_565
C14 Y20 2.617352 1_555
C14 Y14 2.621007 1_555
C14 Y6 2.645674 1_555
C14 Y22 2.699316 1_455
C15 C23 1.347493 1_555
C15 Y25 2.612044 1_555
C15 Y21 2.617352 1_545
C15 Y15 2.621007 1_555
C15 Y7 2.645674 1_554
C15 Y23 2.699316 1_555
C16 C27 1.344170 1_555
C16 C8 1.347493 1_555
C16 Y18 2.604249 1_555
C16 Y11 2.632892 1_565
C16 Y8 2.776782 1_555
C16 Y19 2.815745 1_555
C17 C26 1.344170 1_555
C17 C9 1.347493 1_555
C17 Y19 2.604249 1_455
C17 Y10 2.632892 1_555
C17 Y9 2.776782 1_555
C17 Y18 2.815745 1_555
C18 C25 1.344170 1_555
C18 Y16 2.604249 1_555
C18 Y9 2.632892 1_545
C18 Y10 2.776782 1_555
C18 Y17 2.815745 1_555
C19 C24 1.344170 1_555
C19 Y17 2.604249 1_655
C19 Y8 2.632892 1_555
C19 Y11 2.776782 1_555
C19 Y16 2.815745 1_555
C20 C31 1.344170 1_555
C20 Y22 2.604249 1_555
C20 Y15 2.632892 1_655
C20 Y12 2.776782 1_555
C20 Y23 2.815745 1_555
C21 C30 1.344170 1_555
C21 Y23 2.604249 1_565
C21 Y14 2.632892 1_555
C21 Y13 2.776782 1_555
C21 Y22 2.815745 1_555
C22 C29 1.344170 1_555
C22 Y20 2.604249 1_555
C22 Y13 2.632892 1_455
C22 Y14 2.776782 1_555
C22 Y21 2.815745 1_555
C23 C28 1.344170 1_555
C23 Y21 2.604249 1_545
C23 Y12 2.632892 1_555
C23 Y15 2.776782 1_555
C23 Y20 2.815745 1_555
C24 Y26 2.591997 1_655
C24 Y16 2.635988 1_555
C24 Y8 2.647180 1_555
C24 Y10 2.705346 1_655
C24 Y4 2.707200 1_555
C25 Y27 2.591997 1_555
C25 Y17 2.635988 1_555
C25 Y9 2.647180 1_545
C25 Y11 2.705346 1_555
C25 Y7 2.707200 1_555
C26 Y26 2.591997 1_565
C26 Y18 2.635988 1_555
C26 Y10 2.647180 1_555
C26 Y8 2.705346 1_455
C26 Y6 2.707200 1_555
C27 Y27 2.591997 1_555
C27 Y19 2.635988 1_555
C27 Y11 2.647180 1_565
C27 Y9 2.705346 1_555
C27 Y5 2.707200 1_555
C28 Y24 2.591997 1_555
C28 Y20 2.635988 1_555
C28 Y12 2.647180 1_555
C28 Y14 2.705346 1_545
C28 Y2 2.707200 1_555
C29 Y25 2.591997 1_555
C29 Y21 2.635988 1_555
C29 Y13 2.647180 1_455
C29 Y15 2.705346 1_555
C29 Y1 2.707200 1_555
C30 Y24 2.591997 1_665
C30 Y22 2.635988 1_555
C30 Y14 2.647180 1_555
C30 Y12 2.705346 1_565
C30 Y0 2.707200 1_555
C31 Y25 2.591997 1_555
C31 Y23 2.635988 1_555
C31 Y15 2.647180 1_655
C31 Y13 2.705346 1_555
C31 Y3 2.707200 1_555
C32 Y8 2.473572 1_555
C32 Y10 2.473572 1_555
C32 Y18 2.474961 1_555
C32 Y16 2.474961 1_555
C32 Y28 2.531407 1_555
C32 Y27 2.606949 1_555
C33 Y11 2.473572 1_455
C33 Y9 2.473572 1_545
C33 Y17 2.474961 1_555
C33 Y19 2.474961 1_445
C33 Y29 2.531407 1_556
C33 Y26 2.606949 1_555
C34 Y14 2.473572 1_555
C34 Y12 2.473572 1_555
C34 Y22 2.474961 1_555
C34 Y20 2.474961 1_555
C34 Y28 2.531407 1_555
C34 Y25 2.606949 1_555
C35 Y15 2.473572 1_555
C35 Y13 2.473572 1_445
C35 Y21 2.474961 1_545
C35 Y23 2.474961 1_455
C35 Y29 2.531407 1_555
C35 Y24 2.606949 1_555
C36 Y5 2.547096 1_554
C36 Y1 2.547096 1_555
C36 Y3 2.547099 1_555
C36 Y7 2.547099 1_554
C36 Y25 2.633466 1_555
C36 Y27 2.633466 1_554
C37 Y2 2.547096 1_555
C37 Y6 2.547096 1_545
C37 Y4 2.547096 1_455
C37 Y0 2.547096 1_445
C37 Y24 2.633466 1_555
C37 Y26 2.633466 1_555
