# generated using pymatgen
data_Tm2MgS4
_symmetry_space_group_name_H-M   'P 1'
_cell_length_a   7.14770600
_cell_length_b   8.26201347
_cell_length_c   12.86334967
_cell_angle_alpha   99.39390819
_cell_angle_beta   95.51769166
_cell_angle_gamma   90.01932741
_symmetry_Int_Tables_number   1
_chemical_formula_structural   Tm2MgS4
_chemical_formula_sum   'Tm8 Mg4 S16'
_cell_volume   745.87889449
_cell_formula_units_Z   4
loop_
 _symmetry_equiv_pos_site_id
 _symmetry_equiv_pos_as_xyz
  1  'x, y, z'
loop_
 _atom_site_type_symbol
 _atom_site_label
 _atom_site_symmetry_multiplicity
 _atom_site_fract_x
 _atom_site_fract_y
 _atom_site_fract_z
 _atom_site_occupancy
  Tm  Tm0  1  0.86450900  0.29966300  0.69535900  1
  Tm  Tm1  1  0.13549100  0.70033700  0.30464100  1
  Tm  Tm2  1  0.75844100  0.12684000  0.00065600  1
  Tm  Tm3  1  0.24155900  0.87316000  0.99934400  1
  Tm  Tm4  1  0.63205500  0.44522100  0.30301800  1
  Tm  Tm5  1  0.36794500  0.55477900  0.69698200  1
  Tm  Tm6  1  0.63303200  0.95640100  0.30613200  1
  Tm  Tm7  1  0.36696800  0.04359900  0.69386800  1
  Mg  Mg0  1  0.86657800  0.79992000  0.70062400  1
  Mg  Mg1  1  0.13342200  0.20008000  0.29937600  1
  Mg  Mg2  1  0.75085300  0.62318700  0.99649100  1
  Mg  Mg3  1  0.24914700  0.37681300  0.00350900  1
  S  S0  1  0.90376600  0.35252100  0.89582700  1
  S  S1  1  0.09623400  0.64747900  0.10417300  1
  S  S2  1  0.89465300  0.84639000  0.89303300  1
  S  S3  1  0.10534700  0.15361000  0.10696700  1
  S  S4  1  0.82670600  0.21856800  0.37202100  1
  S  S5  1  0.17329400  0.78143200  0.62797900  1
  S  S6  1  0.80916300  0.71800700  0.37417800  1
  S  S7  1  0.19083700  0.28199300  0.62582200  1
  S  S8  1  0.69455800  0.02318700  0.62905000  1
  S  S9  1  0.30544200  0.97681300  0.37095000  1
  S  S10  1  0.69329700  0.54139900  0.62926800  1
  S  S11  1  0.30670300  0.45860100  0.37073200  1
  S  S12  1  0.60336600  0.89926700  0.10501400  1
  S  S13  1  0.39663400  0.10073300  0.89498600  1
  S  S14  1  0.59789500  0.40518200  0.10278700  1
  S  S15  1  0.40210500  0.59481800  0.89721300  1
loop_
_geom_bond_atom_site_label_1
_geom_bond_atom_site_label_2
_geom_bond_distance
_geom_bond_site_symmetry_2
Mg0 S2 2.430567 1_555
Mg0 S5 2.459753 1_655
Mg0 S10 2.465405 1_555
Mg0 S8 2.469891 1_565
Mg1 S3 2.430567 1_555
Mg1 S4 2.459753 1_455
Mg1 S11 2.465405 1_555
Mg1 S9 2.469891 1_545
Mg2 S15 2.681286 1_555
Mg2 S0 2.683402 1_555
Mg2 S2 2.700217 1_555
Mg2 S1 2.702710 1_656
Mg2 S14 2.720138 1_556
Mg2 S12 2.740089 1_556
Mg3 S14 2.681286 1_555
Mg3 S1 2.683402 1_555
Mg3 S3 2.700217 1_555
Mg3 S0 2.702710 1_454
Mg3 S15 2.720138 1_554
Mg3 S13 2.740089 1_554
S0 Tm0 2.532241 1_555
S0 Tm2 2.731810 1_556
S1 Tm1 2.532241 1_555
S1 Tm3 2.731810 1_554
S2 Tm3 2.704839 1_655
S2 Tm2 2.728899 1_566
S3 Tm2 2.704839 1_455
S3 Tm3 2.728899 1_544
S4 Tm6 2.549398 1_545
S4 Tm4 2.556780 1_555
S5 Tm7 2.549398 1_565
S5 Tm5 2.556780 1_555
S6 Tm6 2.565734 1_555
S6 Tm1 2.573085 1_655
S6 Tm4 2.573257 1_555
S7 Tm7 2.565734 1_555
S7 Tm0 2.573085 1_455
S7 Tm5 2.573257 1_555
S8 Tm7 2.556586 1_555
S8 Tm0 2.565894 1_555
S9 Tm6 2.556586 1_555
S9 Tm1 2.565894 1_555
S10 Tm5 2.556801 1_555
S10 Tm0 2.562254 1_555
S11 Tm4 2.556801 1_555
S11 Tm1 2.562254 1_555
S12 Tm6 2.540947 1_555
S12 Tm2 2.770289 1_565
S12 Tm3 2.794624 1_554
S13 Tm7 2.540947 1_555
S13 Tm3 2.770289 1_545
S13 Tm2 2.794624 1_556
S14 Tm4 2.530582 1_555
S14 Tm2 2.763455 1_555
S15 Tm5 2.530582 1_555
S15 Tm3 2.763455 1_555
