# generated using pymatgen
data_KReO2
_symmetry_space_group_name_H-M   'P 1'
_cell_length_a   7.91196365
_cell_length_b   7.91196365
_cell_length_c   7.91196365
_cell_angle_alpha   133.04796183
_cell_angle_beta   133.04796183
_cell_angle_gamma   68.57883672
_symmetry_Int_Tables_number   1
_chemical_formula_structural   KReO2
_chemical_formula_sum   'K4 Re4 O8'
_cell_volume   259.75389007
_cell_formula_units_Z   4
loop_
 _symmetry_equiv_pos_site_id
 _symmetry_equiv_pos_as_xyz
  1  'x, y, z'
loop_
 _atom_site_type_symbol
 _atom_site_label
 _atom_site_symmetry_multiplicity
 _atom_site_fract_x
 _atom_site_fract_y
 _atom_site_fract_z
 _atom_site_occupancy
  K  K0  1  0.87500000  0.62500000  0.25000000  1
  K  K1  1  0.37500000  0.62500000  0.75000000  1
  K  K2  1  0.37500000  0.62500000  0.25000000  1
  K  K3  1  0.37500000  0.12500000  0.75000000  1
  Re  Re0  1  0.37500000  0.12500000  0.25000000  1
  Re  Re1  1  0.87500000  0.12500000  0.75000000  1
  Re  Re2  1  0.87500000  0.12500000  0.25000000  1
  Re  Re3  1  0.87500000  0.62500000  0.75000000  1
  O  O0  1  0.15447200  0.34112600  0.18665300  1
  O  O1  1  0.15447200  0.96781900  0.81334700  1
  O  O2  1  0.09112600  0.40447200  0.68665300  1
  O  O3  1  0.59552800  0.90887400  0.31334700  1
  O  O4  1  0.71781900  0.40447200  0.31334700  1
  O  O5  1  0.59552800  0.28218100  0.68665300  1
  O  O6  1  0.65887400  0.84552800  0.81334700  1
  O  O7  1  0.03218100  0.84552800  0.18665300  1
loop_
_geom_bond_atom_site_label_1
_geom_bond_atom_site_label_2
_geom_bond_distance
_geom_bond_site_symmetry_2
K0 O0 2.556088 1_655
K0 O3 2.556088 1_555
K0 O1 2.556091 1_655
K0 O5 2.556091 1_554
K0 O7 2.910654 1_655
K0 O4 2.910654 1_555
K1 O5 2.556091 1_555
K1 O1 2.556091 1_555
K1 O3 2.556092 1_556
K1 O0 2.556092 1_555
K1 O6 2.910647 1_555
K1 O2 2.910647 1_555
K2 O7 2.556091 1_555
K2 O4 2.556091 1_555
K2 O6 2.556092 1_555
K2 O2 2.556092 1_554
K2 O3 2.910647 1_555
K2 O0 2.910647 1_555
K3 O2 2.556088 1_555
K3 O6 2.556088 1_545
K3 O4 2.556091 1_556
K3 O7 2.556091 1_545
K3 O5 2.910654 1_555
K3 O1 2.910654 1_545
O0 Re1 2.004097 1_454
O0 Re0 2.004102 1_555
O1 Re0 2.004097 1_566
O1 Re1 2.004097 1_465
O2 Re2 2.004097 1_455
O2 Re3 2.004102 1_455
O3 Re1 2.004097 1_565
O3 Re0 2.004102 1_565
O4 Re3 2.004097 1_555
O4 Re2 2.004097 1_555
O5 Re0 2.004097 1_555
O5 Re1 2.004097 1_555
O6 Re2 2.004097 1_566
O6 Re3 2.004102 1_555
O7 Re3 2.004097 1_454
O7 Re2 2.004097 1_465
