# generated using pymatgen
data_Cs6Hf5(O2F13)2
_symmetry_space_group_name_H-M   'P 1'
_cell_length_a   12.19754919
_cell_length_b   12.19754919
_cell_length_c   11.18260279
_cell_angle_alpha   68.02433190
_cell_angle_beta   68.02433190
_cell_angle_gamma   32.90638885
_symmetry_Int_Tables_number   1
_chemical_formula_structural   Cs6Hf5(O2F13)2
_chemical_formula_sum   'Cs6 Hf5 O4 F26'
_cell_volume   832.21679417
_cell_formula_units_Z   1
loop_
 _symmetry_equiv_pos_site_id
 _symmetry_equiv_pos_as_xyz
  1  'x, y, z'
loop_
 _atom_site_type_symbol
 _atom_site_label
 _atom_site_symmetry_multiplicity
 _atom_site_fract_x
 _atom_site_fract_y
 _atom_site_fract_z
 _atom_site_occupancy
  Cs  Cs0  1  0.86340000  0.86340000  0.08855900  1
  Cs  Cs1  1  0.13660000  0.13660000  0.91144100  1
  Cs  Cs2  1  0.42649700  0.42649700  0.73003700  1
  Cs  Cs3  1  0.57350300  0.57350300  0.26996300  1
  Cs  Cs4  1  0.33433700  0.33433700  0.42563000  1
  Cs  Cs5  1  0.66566300  0.66566300  0.57437000  1
  Hf  Hf0  1  0.06777300  0.06777300  0.53483300  1
  Hf  Hf1  1  0.93222700  0.93222700  0.46516700  1
  Hf  Hf2  1  0.20355500  0.20355500  0.23565800  1
  Hf  Hf3  1  0.79644500  0.79644500  0.76434200  1
  Hf  Hf4  1  0.50000000  0.50000000  0.00000000  1
  O  O0  1  0.04163500  0.04163500  0.75182900  1
  O  O1  1  0.95836500  0.95836500  0.24817100  1
  O  O2  1  0.28812500  0.28812500  0.04825300  1
  O  O3  1  0.71187500  0.71187500  0.95174700  1
  F  F0  1  0.30992800  0.96511500  0.38197100  1
  F  F1  1  0.96511500  0.30992800  0.38197100  1
  F  F2  1  0.69007200  0.03488500  0.61802900  1
  F  F3  1  0.03488500  0.69007200  0.61802900  1
  F  F4  1  0.96616800  0.96616800  0.61351000  1
  F  F5  1  0.03383200  0.03383200  0.38649000  1
  F  F6  1  0.13705200  0.13705200  0.60428300  1
  F  F7  1  0.86294800  0.86294800  0.39571700  1
  F  F8  1  0.33238700  0.74315700  0.07528200  1
  F  F9  1  0.74315700  0.33238700  0.07528200  1
  F  F10  1  0.66761300  0.25684300  0.92471800  1
  F  F11  1  0.25684300  0.66761300  0.92471800  1
  F  F12  1  0.37525200  0.99457900  0.12060600  1
  F  F13  1  0.99457900  0.37525200  0.12060600  1
  F  F14  1  0.62474800  0.00542100  0.87939400  1
  F  F15  1  0.00542100  0.62474800  0.87939400  1
  F  F16  1  0.45290600  0.06969000  0.26731500  1
  F  F17  1  0.06969000  0.45290600  0.26731500  1
  F  F18  1  0.54709400  0.93031000  0.73268500  1
  F  F19  1  0.93031000  0.54709400  0.73268500  1
  F  F20  1  0.32135100  0.77373300  0.59109400  1
  F  F21  1  0.77373300  0.32135100  0.59109400  1
  F  F22  1  0.67864900  0.22626700  0.40890600  1
  F  F23  1  0.22626700  0.67864900  0.40890600  1
  F  F24  1  0.57868700  0.57868700  0.83963800  1
  F  F25  1  0.42131300  0.42131300  0.16036200  1
loop_
_geom_bond_atom_site_label_1
_geom_bond_atom_site_label_2
_geom_bond_distance
_geom_bond_site_symmetry_2
Cs0 F10 3.088841 1_564
Cs0 F11 3.088841 1_654
Cs0 F16 3.242868 1_565
Cs0 F17 3.242868 1_655
Cs0 F14 3.246790 1_564
Cs0 F15 3.246790 1_654
Cs0 O1 3.349177 1_555
Cs0 F7 3.430713 1_555
Cs1 F8 3.088841 1_546
Cs1 F9 3.088841 1_456
Cs1 F19 3.242868 1_455
Cs1 F18 3.242868 1_545
Cs1 F13 3.246790 1_456
Cs1 F12 3.246790 1_546
Cs1 O0 3.349177 1_555
Cs1 F6 3.430713 1_555
Cs2 F11 2.978664 1_555
Cs2 F10 2.978664 1_555
Cs2 F20 3.072944 1_555
Cs2 F21 3.072944 1_555
Cs2 F2 3.224852 1_555
Cs2 F3 3.224852 1_555
Cs2 F15 3.280936 1_555
Cs2 F14 3.280936 1_555
Cs3 F9 2.978664 1_555
Cs3 F8 2.978664 1_555
Cs3 F23 3.072944 1_555
Cs3 F22 3.072944 1_555
Cs3 F0 3.224852 1_555
Cs3 F1 3.224852 1_555
Cs3 F13 3.280936 1_555
Cs3 F12 3.280936 1_555
Cs4 F25 2.868738 1_555
Cs4 F22 3.116334 1_555
Cs4 F23 3.116334 1_555
Cs4 F16 3.188719 1_555
Cs4 F17 3.188719 1_555
Cs4 F2 3.360272 1_555
Cs4 F3 3.360272 1_555
Cs4 F7 3.510048 1_455
Cs4 F7 3.510048 1_545
Cs5 F24 2.868738 1_555
Cs5 F21 3.116334 1_555
Cs5 F20 3.116334 1_555
Cs5 F18 3.188719 1_555
Cs5 F19 3.188719 1_555
Cs5 F1 3.360272 1_555
Cs5 F0 3.360272 1_555
Cs5 F6 3.510048 1_565
Cs5 F6 3.510048 1_655
Hf0 O0 2.259255 1_555
Hf1 O1 2.259255 1_555
Hf2 O2 2.251864 1_555
Hf3 O3 2.251864 1_555
F0 Hf2 2.123739 1_565
F0 Hf0 2.197078 1_565
F1 Hf2 2.123739 1_655
F1 Hf0 2.197078 1_655
F2 Hf3 2.123739 1_545
F2 Hf1 2.197078 1_545
F3 Hf3 2.123739 1_455
F3 Hf1 2.197078 1_455
F4 Hf1 2.100090 1_555
F4 Hf0 2.189259 1_665
F5 Hf0 2.100090 1_555
F5 Hf1 2.189259 1_445
F6 Hf0 2.052487 1_555
F7 Hf1 2.052487 1_555
F8 Hf4 2.020913 1_555
F9 Hf4 2.020913 1_555
F10 Hf4 2.020913 1_556
F11 Hf4 2.020913 1_556
F12 Hf2 2.003214 1_565
F13 Hf2 2.003214 1_655
F14 Hf3 2.003214 1_545
F15 Hf3 2.003214 1_455
F16 Hf2 2.019005 1_555
F17 Hf2 2.019005 1_555
F18 Hf3 2.019005 1_555
F19 Hf3 2.019005 1_555
F20 Hf0 1.991649 1_565
F21 Hf0 1.991649 1_655
F22 Hf1 1.991649 1_545
F23 Hf1 1.991649 1_455
F24 Hf4 2.007154 1_556
F25 Hf4 2.007154 1_555
