# generated using pymatgen
data_LiZn2AgWO6
_symmetry_space_group_name_H-M   'P 1'
_cell_length_a   5.75795148
_cell_length_b   6.58506100
_cell_length_c   7.50469424
_cell_angle_alpha   85.66970829
_cell_angle_beta   132.20412857
_cell_angle_gamma   127.91232490
_symmetry_Int_Tables_number   1
_chemical_formula_structural   LiZn2AgWO6
_chemical_formula_sum   'Li1 Zn2 Ag1 W1 O6'
_cell_volume   135.81114090
_cell_formula_units_Z   1
loop_
 _symmetry_equiv_pos_site_id
 _symmetry_equiv_pos_as_xyz
  1  'x, y, z'
loop_
 _atom_site_type_symbol
 _atom_site_label
 _atom_site_symmetry_multiplicity
 _atom_site_fract_x
 _atom_site_fract_y
 _atom_site_fract_z
 _atom_site_occupancy
  Li  Li0  1  0.96029600  0.67682300  0.41208000  1
  Zn  Zn0  1  0.07399200  0.46175500  0.22142100  1
  Zn  Zn1  1  0.94029800  0.43919200  0.77677000  1
  Ag  Ag0  1  0.00208500  0.11916500  0.50709000  1
  W  W0  1  0.99714100  0.96012500  0.00459900  1
  O  O0  1  0.25979400  0.05504000  0.37837300  1
  O  O1  1  0.70952300  0.84864700  0.63276600  1
  O  O2  1  0.21858000  0.36680000  0.09254600  1
  O  O3  1  0.39382000  0.74869400  0.80985900  1
  O  O4  1  0.63557400  0.23818700  0.20975600  1
  O  O5  1  0.86692000  0.60056200  0.94912800  1
loop_
_geom_bond_atom_site_label_1
_geom_bond_atom_site_label_2
_geom_bond_distance
_geom_bond_site_symmetry_2
Li0 O3 2.028874 1_655
Li0 O4 2.087015 1_555
Li0 O2 2.102991 1_555
Li0 O0 2.110370 1_665
Ag0 O1 2.256936 1_445
Ag0 O4 2.342808 1_455
Ag0 O5 2.417726 1_555
Ag0 O0 2.463895 1_555
O0 Zn1 1.978095 1_555
O0 W0 1.987388 1_445
O1 W0 1.916966 1_556
O1 Zn0 1.991127 1_555
O2 Zn0 1.957646 1_555
O2 Zn1 2.019168 1_454
O2 W0 2.042801 1_445
O3 W0 1.919527 1_556
O3 Zn1 1.923375 1_455
O4 Zn0 1.924318 1_655
O4 W0 1.945846 1_445
O5 W0 1.972170 1_556
O5 Zn0 2.053444 1_656
O5 Zn1 2.115277 1_555
