# generated using pymatgen
data_Mg(WO2)2
_symmetry_space_group_name_H-M   'P 1'
_cell_length_a   6.33811600
_cell_length_b   6.49891066
_cell_length_c   15.37623200
_cell_angle_alpha   92.07211564
_cell_angle_beta   90.18534058
_cell_angle_gamma   119.13597463
_symmetry_Int_Tables_number   1
_chemical_formula_structural   Mg(WO2)2
_chemical_formula_sum   'Mg6 W12 O24'
_cell_volume   552.69959861
_cell_formula_units_Z   6
loop_
 _symmetry_equiv_pos_site_id
 _symmetry_equiv_pos_as_xyz
  1  'x, y, z'
loop_
 _atom_site_type_symbol
 _atom_site_label
 _atom_site_symmetry_multiplicity
 _atom_site_fract_x
 _atom_site_fract_y
 _atom_site_fract_z
 _atom_site_occupancy
  Mg  Mg0  1  0.83324400  0.16798900  0.95501200  1
  Mg  Mg1  1  0.50652300  0.51015000  0.62158000  1
  Mg  Mg2  1  0.17115000  0.84014300  0.66390300  1
  Mg  Mg3  1  0.16140700  0.82375900  0.29191500  1
  Mg  Mg4  1  0.49589900  0.49607600  0.99539400  1
  Mg  Mg5  1  0.50061100  0.49872100  0.37783600  1
  W  W0  1  0.33867600  0.66958800  0.83447100  1
  W  W1  1  0.33937300  0.17536600  0.83191500  1
  W  W2  1  0.00668600  0.00481300  0.50330000  1
  W  W3  1  0.83561900  0.66986400  0.83429100  1
  W  W4  1  0.00811900  0.51225500  0.50140000  1
  W  W5  1  0.83080800  0.15916200  0.33417400  1
  W  W6  1  0.84139500  0.18169000  0.71463700  1
  W  W7  1  0.65547000  0.31939800  0.16596700  1
  W  W8  1  0.50247500  0.00505300  0.50323400  1
  W  W9  1  0.65466500  0.81829200  0.16467700  1
  W  W10  1  0.15772600  0.32088000  0.16502700  1
  W  W11  1  0.15529900  0.83112400  0.04473600  1
  O  O0  1  0.66889800  0.35375900  0.91222300  1
  O  O1  1  0.50019800  0.49637000  0.75695000  1
  O  O2  1  0.65807700  0.80969800  0.92040600  1
  O  O3  1  0.18496700  0.35132800  0.91160200  1
  O  O4  1  0.33753600  0.69281500  0.58135000  1
  O  O5  1  0.48361000  0.97711700  0.75702800  1
  O  O6  1  0.16668100  0.83017300  0.42438700  1
  O  O7  1  0.02605600  0.54765900  0.74330600  1
  O  O8  1  0.18427900  0.86188800  0.90808300  1
  O  O9  1  0.32913800  0.15291500  0.58775800  1
  O  O10  1  0.85768000  0.69136000  0.58090500  1
  O  O11  1  0.99794200  0.97668400  0.75602300  1
  O  O12  1  0.99095300  0.00092500  0.24330500  1
  O  O13  1  0.15101000  0.31864700  0.42085000  1
  O  O14  1  0.67917800  0.85451700  0.41739200  1
  O  O15  1  0.81761500  0.14258200  0.08906300  1
  O  O16  1  0.85117600  0.19663200  0.57660500  1
  O  O17  1  0.98133900  0.46685300  0.24995000  1
  O  O18  1  0.50868300  0.00236600  0.24495100  1
  O  O19  1  0.67165400  0.31860200  0.42064700  1
  O  O20  1  0.80131300  0.62598100  0.08898400  1
  O  O21  1  0.34540000  0.19676700  0.07416600  1
  O  O22  1  0.49673600  0.49995500  0.24219300  1
  O  O23  1  0.31473500  0.63008600  0.08840400  1
loop_
_geom_bond_atom_site_label_1
_geom_bond_atom_site_label_2
_geom_bond_distance
_geom_bond_site_symmetry_2
Mg0 O0 2.062299 1_555
Mg0 O15 2.072589 1_556
Mg0 O3 2.077369 1_655
Mg0 O2 2.080118 1_545
Mg1 O4 2.055729 1_555
Mg1 O10 2.059516 1_555
Mg1 O9 2.071635 1_555
Mg1 O1 2.086315 1_555
Mg2 O7 2.102949 1_555
Mg2 O10 2.129482 1_455
Mg2 O4 2.131700 1_555
Mg2 O9 2.168632 1_565
Mg2 O11 2.206070 1_455
Mg2 O5 2.222073 1_555
Mg3 O6 2.035672 1_555
Mg3 O18 2.072816 1_565
Mg3 O12 2.078416 1_465
Mg3 O17 2.099574 1_455
Mg4 O3 2.125877 1_555
Mg4 O21 2.128784 1_556
Mg4 O0 2.145761 1_555
Mg4 O2 2.162830 1_555
Mg4 O20 2.198527 1_556
Mg4 O23 2.239778 1_556
Mg5 O13 2.063293 1_555
Mg5 O19 2.065346 1_555
Mg5 O14 2.083992 1_555
Mg5 O22 2.086095 1_555
O0 W1 2.180126 1_555
O0 W3 2.201177 1_555
O1 W3 2.181206 1_555
O1 W0 2.183855 1_555
O1 W1 2.197865 1_555
O2 W3 2.182623 1_555
O2 W0 2.184949 1_555
O3 W1 2.182433 1_555
O3 W0 2.203726 1_555
O4 W4 2.177340 1_555
O4 W8 2.184479 1_565
O5 W6 2.114533 1_565
O5 W0 2.155835 1_555
O5 W1 2.206379 1_565
O6 W2 2.194973 1_565
O6 W8 2.195324 1_565
O6 W4 2.200860 1_555
O7 W6 2.105025 1_455
O7 W0 2.211722 1_555
O7 W3 2.215601 1_455
O8 W11 2.117995 1_556
O8 W1 2.172162 1_565
O8 W0 2.212780 1_555
O8 W3 2.219046 1_455
O9 W8 2.183223 1_555
O9 W2 2.183276 1_555
O10 W4 2.178048 1_655
O10 W2 2.185241 1_665
O11 W6 2.123440 1_565
O11 W3 2.160259 1_555
O11 W1 2.205848 1_665
O12 W9 2.197624 1_545
O12 W10 2.222314 1_655
O12 W5 2.227495 1_555
O13 W5 2.191704 1_455
O13 W4 2.222975 1_555
O13 W2 2.231954 1_555
O14 W5 2.195248 1_565
O14 W2 2.218654 1_665
O14 W8 2.221882 1_565
O15 W10 2.192575 1_655
O15 W7 2.198740 1_555
O15 W9 2.219357 1_545
O16 W6 2.127863 1_555
O16 W4 2.173987 1_655
O16 W2 2.213158 1_655
O16 W8 2.215914 1_555
O17 W10 2.192606 1_655
O17 W7 2.194919 1_555
O17 W5 2.218901 1_555
O18 W9 2.188409 1_545
O18 W7 2.215239 1_555
O18 W5 2.223468 1_555
O19 W5 2.187695 1_555
O19 W4 2.220323 1_655
O19 W8 2.232250 1_555
O20 W11 2.106383 1_655
O20 W7 2.147018 1_555
O20 W9 2.193980 1_555
O21 W11 2.105685 1_545
O21 W7 2.205771 1_555
O21 W10 2.209285 1_555
O22 W7 2.195589 1_555
O22 W10 2.197207 1_555
O22 W9 2.207306 1_555
O23 W11 2.126902 1_555
O23 W10 2.155924 1_555
O23 W9 2.197094 1_555
