# generated using pymatgen
data_NiH8(ClO2)2
_symmetry_space_group_name_H-M   'P 1'
_cell_length_a   9.40458300
_cell_length_b   5.99565500
_cell_length_c   11.52638518
_cell_angle_alpha   68.97404099
_cell_angle_beta   90.00000000
_cell_angle_gamma   90.00000000
_symmetry_Int_Tables_number   1
_chemical_formula_structural   NiH8(ClO2)2
_chemical_formula_sum   'Ni4 H32 Cl8 O16'
_cell_volume   606.66014177
_cell_formula_units_Z   4
loop_
 _symmetry_equiv_pos_site_id
 _symmetry_equiv_pos_as_xyz
  1  'x, y, z'
loop_
 _atom_site_type_symbol
 _atom_site_label
 _atom_site_symmetry_multiplicity
 _atom_site_fract_x
 _atom_site_fract_y
 _atom_site_fract_z
 _atom_site_occupancy
  Ni  Ni0  1  0.91686000  0.74938100  0.76730100  1
  Ni  Ni1  1  0.08314000  0.74938100  0.26730100  1
  Ni  Ni2  1  0.57823900  0.24861200  0.23532400  1
  Ni  Ni3  1  0.42176100  0.24861200  0.73532400  1
  H  H0  1  0.68597900  0.80590900  0.88301400  1
  H  H1  1  0.31402100  0.80590900  0.38301400  1
  H  H2  1  0.81943000  0.20596000  0.11840000  1
  H  H3  1  0.18057000  0.20596000  0.61840000  1
  H  H4  1  0.93667600  0.17335400  0.79394600  1
  H  H5  1  0.06332400  0.17335400  0.29394600  1
  H  H6  1  0.56009500  0.82734600  0.20586200  1
  H  H7  1  0.43990500  0.82734600  0.70586200  1
  H  H8  1  0.76290400  0.46239200  0.68955800  1
  H  H9  1  0.23709600  0.46239200  0.18955800  1
  H  H10  1  0.73585700  0.53729600  0.31528300  1
  H  H11  1  0.26414300  0.53729600  0.81528300  1
  H  H12  1  0.82599300  0.12703400  0.56529400  1
  H  H13  1  0.17400700  0.12703400  0.06529400  1
  H  H14  1  0.67281100  0.87321300  0.43498200  1
  H  H15  1  0.32718900  0.87321300  0.93498200  1
  H  H16  1  0.90287900  0.51270400  0.61216700  1
  H  H17  1  0.09712100  0.51270400  0.11216700  1
  H  H18  1  0.59159500  0.48991500  0.38635100  1
  H  H19  1  0.40840500  0.48991500  0.88635100  1
  H  H20  1  0.94919500  0.96765300  0.92648000  1
  H  H21  1  0.05080500  0.96765300  0.42648000  1
  H  H22  1  0.55096900  0.03231200  0.07204700  1
  H  H23  1  0.44903100  0.03231200  0.57204700  1
  H  H24  1  0.68680500  0.00563300  0.64413800  1
  H  H25  1  0.31319500  0.00563300  0.14413800  1
  H  H26  1  0.81289600  0.99222200  0.35678300  1
  H  H27  1  0.18710400  0.99222200  0.85678300  1
  H  H28  1  0.72899100  0.53113000  0.94702600  1
  H  H29  1  0.27100900  0.53113000  0.44702600  1
  H  H30  1  0.82252900  0.46962700  0.12595900  1
  H  H31  1  0.17747100  0.46962700  0.62595900  1
  Cl  Cl0  1  0.06186700  0.47595000  0.93181900  1
  Cl  Cl1  1  0.93813300  0.47595000  0.43181900  1
  Cl  Cl2  1  0.43578600  0.52217200  0.06962600  1
  Cl  Cl3  1  0.56421400  0.52217200  0.56962600  1
  Cl  Cl4  1  0.11069400  0.85065900  0.62076300  1
  Cl  Cl5  1  0.88930600  0.85065900  0.12076300  1
  Cl  Cl6  1  0.38951300  0.13356400  0.38176800  1
  Cl  Cl7  1  0.61048700  0.13356400  0.88176800  1
  O  O0  1  0.97961200  0.01383700  0.83822600  1
  O  O1  1  0.02038800  0.01383700  0.33822600  1
  O  O2  1  0.52198700  0.98978600  0.16064600  1
  O  O3  1  0.47801300  0.98978600  0.66064600  1
  O  O4  1  0.73298300  0.66916200  0.86865100  1
  O  O5  1  0.26701700  0.66916200  0.36865100  1
  O  O6  1  0.76031400  0.34309500  0.11782700  1
  O  O7  1  0.23968600  0.34309500  0.61782700  1
  O  O8  1  0.78940100  0.98668500  0.63294500  1
  O  O9  1  0.21059900  0.98668500  0.13294500  1
  O  O10  1  0.71031600  0.01281400  0.36729800  1
  O  O11  1  0.28968400  0.01281400  0.86729800  1
  O  O12  1  0.86739600  0.47302300  0.69856500  1
  O  O13  1  0.13260400  0.47302300  0.19856500  1
  O  O14  1  0.63228800  0.52555900  0.30195200  1
  O  O15  1  0.36771200  0.52555900  0.80195200  1
loop_
_geom_bond_atom_site_label_1
_geom_bond_atom_site_label_2
_geom_bond_distance
_geom_bond_site_symmetry_2
Ni0 O4 2.045303 1_555
Ni0 O8 2.068426 1_555
Ni0 O0 2.112071 1_565
Ni0 O12 2.128754 1_555
Ni1 O5 2.045303 1_555
Ni1 O9 2.068426 1_555
Ni1 O1 2.112071 1_565
Ni1 O13 2.128754 1_555
Ni2 O10 2.076628 1_555
Ni2 O2 2.094634 1_545
Ni2 O14 2.126130 1_555
Ni2 O6 2.129942 1_555
Ni3 O11 2.076628 1_555
Ni3 O3 2.094634 1_545
Ni3 O15 2.126130 1_555
Ni3 O7 2.129942 1_555
H0 O4 0.996211 1_555
H1 O5 0.996211 1_555
H2 O6 0.990594 1_555
H3 O7 0.990594 1_555
H4 O0 0.993974 1_555
H5 O1 0.993974 1_555
H6 O2 0.992158 1_555
H7 O3 0.992158 1_555
H8 O12 0.992621 1_555
H9 O13 0.992621 1_555
H10 O14 0.992494 1_555
H11 O15 0.992494 1_555
H12 O8 0.981689 1_545
H13 O9 0.981689 1_545
H14 O10 0.982367 1_565
H15 O11 0.982367 1_565
H16 O12 0.994824 1_555
H17 O13 0.994824 1_555
H18 O14 0.994644 1_555
H19 O15 0.994644 1_555
H20 O0 0.995577 1_565
H21 O1 0.995577 1_565
H22 O2 0.997676 1_545
H23 O3 0.997676 1_545
H24 O8 0.985418 1_545
H25 O9 0.985418 1_545
H26 O10 0.985575 1_565
H27 O11 0.985575 1_565
H28 O4 0.982817 1_555
H29 O5 0.982817 1_555
H30 O6 0.988787 1_555
H31 O7 0.988787 1_555
Cl0 Ni0 2.431568 1_455
Cl1 Ni1 2.431568 1_655
Cl2 Ni2 2.425867 1_555
Cl3 Ni3 2.425867 1_555
Cl4 Ni0 2.410127 1_455
Cl5 Ni1 2.410127 1_655
Cl6 H1 2.084060 1_545
Cl6 H23 2.129948 1_555
Cl6 Ni2 2.374820 1_555
Cl7 H0 2.084060 1_545
Cl7 H22 2.129948 1_556
Cl7 Ni3 2.374820 1_555
