# generated using pymatgen
data_Ba2Zn(P3O14)2
_symmetry_space_group_name_H-M   'P 1'
_cell_length_a   13.32657118
_cell_length_b   13.32657118
_cell_length_c   13.76308150
_cell_angle_alpha   82.44884492
_cell_angle_beta   82.44884492
_cell_angle_gamma   33.44361976
_symmetry_Int_Tables_number   1
_chemical_formula_structural   Ba2Zn(P3O14)2
_chemical_formula_sum   'Ba4 Zn2 P12 O56'
_cell_volume   1334.34562035
_cell_formula_units_Z   2
loop_
 _symmetry_equiv_pos_site_id
 _symmetry_equiv_pos_as_xyz
  1  'x, y, z'
loop_
 _atom_site_type_symbol
 _atom_site_label
 _atom_site_symmetry_multiplicity
 _atom_site_fract_x
 _atom_site_fract_y
 _atom_site_fract_z
 _atom_site_occupancy
  Ba  Ba0  1  0.09880800  0.47586700  0.28966700  1
  Ba  Ba1  1  0.52413300  0.90119200  0.21033300  1
  Ba  Ba2  1  0.90119200  0.52413300  0.71033300  1
  Ba  Ba3  1  0.47586700  0.09880800  0.78966700  1
  Zn  Zn0  1  0.11280800  0.88719200  0.25000000  1
  Zn  Zn1  1  0.88719200  0.11280800  0.75000000  1
  P  P0  1  0.98906000  0.37519700  0.15419600  1
  P  P1  1  0.62480300  0.01094000  0.34580400  1
  P  P2  1  0.01094000  0.62480300  0.84580400  1
  P  P3  1  0.37519700  0.98906000  0.65419600  1
  P  P4  1  0.93341800  0.86700600  0.38640700  1
  P  P5  1  0.13299400  0.06658200  0.11359300  1
  P  P6  1  0.06658200  0.13299400  0.61359300  1
  P  P7  1  0.86700600  0.93341800  0.88640700  1
  P  P8  1  0.02093200  0.30742300  0.94897000  1
  P  P9  1  0.69257700  0.97906800  0.55103000  1
  P  P10  1  0.97906800  0.69257700  0.05103000  1
  P  P11  1  0.30742300  0.02093200  0.44897000  1
  O  O0  1  0.06710500  0.15408900  0.00491500  1
  O  O1  1  0.84591100  0.93289500  0.49508500  1
  O  O2  1  0.93289500  0.84591100  0.99508500  1
  O  O3  1  0.15408900  0.06710500  0.50491500  1
  O  O4  1  0.92951300  0.43443900  0.04168600  1
  O  O5  1  0.56556100  0.07048700  0.45831400  1
  O  O6  1  0.07048700  0.56556100  0.95831400  1
  O  O7  1  0.43443900  0.92951300  0.54168600  1
  O  O8  1  0.00269500  0.24011900  0.17957300  1
  O  O9  1  0.75988100  0.99730500  0.32042700  1
  O  O10  1  0.99730500  0.75988100  0.82042700  1
  O  O11  1  0.24011900  0.00269500  0.67957300  1
  O  O12  1  0.83675300  0.53773700  0.21633400  1
  O  O13  1  0.46226300  0.16324700  0.28366600  1
  O  O14  1  0.16324700  0.46226300  0.78366600  1
  O  O15  1  0.53773700  0.83675300  0.71633400  1
  O  O16  1  0.17397200  0.26714700  0.16321600  1
  O  O17  1  0.73285300  0.82602800  0.33678400  1
  O  O18  1  0.82602800  0.73285300  0.83678400  1
  O  O19  1  0.26714700  0.17397200  0.66321600  1
  O  O20  1  0.07948700  0.67038600  0.37255900  1
  O  O21  1  0.32961400  0.92051300  0.12744100  1
  O  O22  1  0.92051300  0.32961400  0.62744100  1
  O  O23  1  0.67038600  0.07948700  0.87255900  1
  O  O24  1  0.98669600  0.93520000  0.36119600  1
  O  O25  1  0.06480000  0.01330400  0.13880400  1
  O  O26  1  0.01330400  0.06480000  0.63880400  1
  O  O27  1  0.93520000  0.98669600  0.86119600  1
  O  O28  1  0.12558300  0.58237200  0.12084300  1
  O  O29  1  0.41762800  0.87441700  0.37915700  1
  O  O30  1  0.87441700  0.41762800  0.87915700  1
  O  O31  1  0.58237200  0.12558300  0.62084300  1
  O  O32  1  0.80707900  0.78248500  0.08931000  1
  O  O33  1  0.21751500  0.19292100  0.41069000  1
  O  O34  1  0.19292100  0.21751500  0.91069000  1
  O  O35  1  0.78248500  0.80707900  0.58931000  1
  O  O36  1  0.94389000  0.51491800  0.49058300  1
  O  O37  1  0.48508200  0.05611000  0.00941700  1
  O  O38  1  0.05611000  0.48508200  0.50941700  1
  O  O39  1  0.51491800  0.94389000  0.99058300  1
  O  O40  1  0.45420600  0.52380900  0.35953800  1
  O  O41  1  0.47619100  0.54579400  0.14046200  1
  O  O42  1  0.54579400  0.47619100  0.64046200  1
  O  O43  1  0.52380900  0.45420600  0.85953800  1
  O  O44  1  0.66134500  0.49110800  0.40312200  1
  O  O45  1  0.50889200  0.33865500  0.09687800  1
  O  O46  1  0.33865500  0.50889200  0.59687800  1
  O  O47  1  0.49110800  0.66134500  0.90312200  1
  O  O48  1  0.33592500  0.60928400  0.15525400  1
  O  O49  1  0.39071600  0.66407500  0.34474600  1
  O  O50  1  0.66407500  0.39071600  0.84474600  1
  O  O51  1  0.60928400  0.33592500  0.65525400  1
  O  O52  1  0.63555600  0.29336700  0.08826300  1
  O  O53  1  0.70663300  0.36444400  0.41173700  1
  O  O54  1  0.36444400  0.70663300  0.91173700  1
  O  O55  1  0.29336700  0.63555600  0.58826300  1
loop_
_geom_bond_atom_site_label_1
_geom_bond_atom_site_label_2
_geom_bond_distance
_geom_bond_site_symmetry_2
Ba0 O13 2.670818 1_555
Ba0 O28 2.702077 1_555
Ba0 O20 2.770175 1_555
Ba0 O16 2.816632 1_555
Ba0 O17 2.822245 1_455
Ba0 O33 2.929524 1_555
Ba0 O38 3.002462 1_555
Ba0 O36 3.043734 1_455
Ba0 O12 3.129998 1_455
Ba1 O12 2.670818 1_555
Ba1 O29 2.702077 1_555
Ba1 O21 2.770175 1_555
Ba1 O17 2.816632 1_555
Ba1 O16 2.822245 1_565
Ba1 O32 2.929524 1_555
Ba1 O39 3.002462 1_554
Ba1 O37 3.043734 1_565
Ba1 O13 3.129998 1_565
Ba2 O15 2.670818 1_555
Ba2 O30 2.702077 1_555
Ba2 O22 2.770175 1_555
Ba2 O18 2.816632 1_555
Ba2 O19 2.822245 1_655
Ba2 O35 2.929524 1_555
Ba2 O36 3.002462 1_555
Ba2 O38 3.043734 1_655
Ba2 O14 3.129998 1_655
Ba3 O14 2.670818 1_555
Ba3 O31 2.702077 1_555
Ba3 O23 2.770175 1_555
Ba3 O19 2.816632 1_555
Ba3 O18 2.822245 1_545
Ba3 O34 2.929524 1_555
Ba3 O37 3.002462 1_556
Ba3 O39 3.043734 1_545
Ba3 O15 3.129998 1_545
O0 P5 1.595644 1_555
O0 P8 1.661226 1_554
O1 P4 1.595644 1_555
O1 P9 1.661226 1_555
O2 P7 1.595644 1_555
O2 P10 1.661226 1_556
O3 P6 1.595644 1_555
O3 P11 1.661226 1_555
O4 P0 1.614601 1_555
O4 P8 1.641752 1_654
O5 P1 1.614601 1_555
O5 P9 1.641752 1_545
O6 P2 1.614601 1_555
O6 P10 1.641752 1_456
O7 P3 1.614601 1_555
O7 P11 1.641752 1_565
O8 P5 1.619866 1_555
O8 P0 1.643478 1_455
O9 P4 1.619866 1_555
O9 P1 1.643478 1_565
O10 P7 1.619866 1_555
O10 P2 1.643478 1_655
O11 P6 1.619866 1_555
O11 P3 1.643478 1_545
O12 P0 1.495505 1_555
O13 P1 1.495505 1_555
O14 P2 1.495505 1_555
O15 P3 1.495505 1_555
O16 P0 1.507663 1_455
O17 P1 1.507663 1_565
O18 P2 1.507663 1_655
O19 P3 1.507663 1_545
O20 P4 1.487594 1_455
O21 P5 1.487594 1_565
O22 P6 1.487594 1_655
O23 P7 1.487594 1_545
O24 P4 1.542605 1_555
O24 Zn0 1.833824 1_655
O25 P5 1.542605 1_555
O25 Zn0 1.833824 1_545
O26 P6 1.542605 1_555
O26 Zn1 1.833824 1_455
O27 P7 1.542605 1_555
O27 Zn1 1.833824 1_565
O28 P10 1.493034 1_455
O29 P11 1.493034 1_565
O30 P8 1.493034 1_655
O31 P9 1.493034 1_545
O32 P10 1.493996 1_555
O33 P11 1.493996 1_555
O34 P8 1.493996 1_555
O35 P9 1.493996 1_555
O36 O38 1.242688 1_655
O37 O39 1.242688 1_544
O40 O49 1.247915 1_555
O41 O48 1.247915 1_555
O42 O51 1.247915 1_555
O43 O50 1.247915 1_555
O44 O53 1.222162 1_555
O45 O52 1.222162 1_555
O46 O55 1.222162 1_555
O47 O54 1.222162 1_555
O48 Zn0 2.475963 1_555
O49 Zn0 2.475963 1_555
O50 Zn1 2.475963 1_555
O51 Zn1 2.475963 1_555
