# generated using pymatgen
data_Ce3Sn13Ir4
_symmetry_space_group_name_H-M   'P 1'
_cell_length_a   9.81084100
_cell_length_b   9.81084100
_cell_length_c   9.81084100
_cell_angle_alpha   90.00000000
_cell_angle_beta   90.00000000
_cell_angle_gamma   90.00000000
_symmetry_Int_Tables_number   1
_chemical_formula_structural   Ce3Sn13Ir4
_chemical_formula_sum   'Ce6 Sn26 Ir8'
_cell_volume   944.31896550
_cell_formula_units_Z   2
loop_
 _symmetry_equiv_pos_site_id
 _symmetry_equiv_pos_as_xyz
  1  'x, y, z'
loop_
 _atom_site_type_symbol
 _atom_site_label
 _atom_site_symmetry_multiplicity
 _atom_site_fract_x
 _atom_site_fract_y
 _atom_site_fract_z
 _atom_site_occupancy
  Ce  Ce0  1  0.50000000  0.00000000  0.75000000  1
  Ce  Ce1  1  0.00000000  0.25000000  0.50000000  1
  Ce  Ce2  1  0.75000000  0.50000000  0.00000000  1
  Ce  Ce3  1  0.50000000  0.00000000  0.25000000  1
  Ce  Ce4  1  0.00000000  0.75000000  0.50000000  1
  Ce  Ce5  1  0.25000000  0.50000000  0.00000000  1
  Sn  Sn0  1  0.50000000  0.50000000  0.50000000  1
  Sn  Sn1  1  0.00000000  0.00000000  0.00000000  1
  Sn  Sn2  1  0.65293100  0.19276300  0.50000000  1
  Sn  Sn3  1  0.80723700  0.50000000  0.65293100  1
  Sn  Sn4  1  0.50000000  0.34706900  0.80723700  1
  Sn  Sn5  1  0.34706900  0.80723700  0.50000000  1
  Sn  Sn6  1  0.19276300  0.50000000  0.34706900  1
  Sn  Sn7  1  0.50000000  0.65293100  0.19276300  1
  Sn  Sn8  1  0.65293100  0.80723700  0.50000000  1
  Sn  Sn9  1  0.80723700  0.50000000  0.34706900  1
  Sn  Sn10  1  0.34706900  0.19276300  0.50000000  1
  Sn  Sn11  1  0.19276300  0.50000000  0.65293100  1
  Sn  Sn12  1  0.50000000  0.65293100  0.80723700  1
  Sn  Sn13  1  0.50000000  0.34706900  0.19276300  1
  Sn  Sn14  1  0.15293100  0.00000000  0.69276300  1
  Sn  Sn15  1  0.30723700  0.15293100  0.00000000  1
  Sn  Sn16  1  0.00000000  0.30723700  0.84706900  1
  Sn  Sn17  1  0.84706900  0.00000000  0.30723700  1
  Sn  Sn18  1  0.69276300  0.84706900  0.00000000  1
  Sn  Sn19  1  0.00000000  0.69276300  0.15293100  1
  Sn  Sn20  1  0.15293100  0.00000000  0.30723700  1
  Sn  Sn21  1  0.30723700  0.84706900  0.00000000  1
  Sn  Sn22  1  0.84706900  0.00000000  0.69276300  1
  Sn  Sn23  1  0.69276300  0.15293100  0.00000000  1
  Sn  Sn24  1  0.00000000  0.30723700  0.15293100  1
  Sn  Sn25  1  0.00000000  0.69276300  0.84706900  1
  Ir  Ir0  1  0.75000000  0.25000000  0.75000000  1
  Ir  Ir1  1  0.25000000  0.75000000  0.25000000  1
  Ir  Ir2  1  0.75000000  0.75000000  0.25000000  1
  Ir  Ir3  1  0.25000000  0.25000000  0.75000000  1
  Ir  Ir4  1  0.25000000  0.75000000  0.75000000  1
  Ir  Ir5  1  0.75000000  0.25000000  0.25000000  1
  Ir  Ir6  1  0.25000000  0.25000000  0.25000000  1
  Ir  Ir7  1  0.75000000  0.75000000  0.75000000  1
loop_
_geom_bond_atom_site_label_1
_geom_bond_atom_site_label_2
_geom_bond_distance
_geom_bond_site_symmetry_2
Ce0 Sn15 3.441431 1_556
Ce0 Sn2 3.441431 1_555
Ce0 Sn23 3.441431 1_556
Ce0 Sn8 3.441431 1_545
Ce0 Sn21 3.441431 1_546
Ce0 Sn18 3.441431 1_546
Ce0 Sn10 3.441431 1_555
Ce0 Sn5 3.441431 1_545
Ce0 Sn4 3.451032 1_555
Ce0 Sn22 3.451032 1_555
Ce0 Sn14 3.451032 1_555
Ce0 Sn12 3.451032 1_545
Ce0 Ir3 3.468656 1_555
Ce0 Ir7 3.468656 1_545
Ce0 Ir4 3.468656 1_545
Ce0 Ir0 3.468656 1_555
Ce1 Sn11 3.441431 1_555
Ce1 Sn3 3.441431 1_455
Ce1 Sn20 3.441431 1_555
Ce1 Sn14 3.441431 1_555
Ce1 Sn22 3.441431 1_455
Ce1 Sn17 3.441431 1_455
Ce1 Sn6 3.441431 1_555
Ce1 Sn9 3.441431 1_455
Ce1 Sn10 3.451032 1_555
Ce1 Sn16 3.451032 1_555
Ce1 Sn2 3.451032 1_455
Ce1 Sn24 3.451032 1_555
Ce1 Ir6 3.468656 1_555
Ce1 Ir3 3.468656 1_555
Ce1 Ir5 3.468656 1_455
Ce1 Ir0 3.468656 1_455
Ce2 Sn19 3.441431 1_655
Ce2 Sn24 3.441431 1_655
Ce2 Sn7 3.441431 1_555
Ce2 Sn12 3.441431 1_554
Ce2 Sn25 3.441431 1_654
Ce2 Sn16 3.441431 1_654
Ce2 Sn13 3.441431 1_555
Ce2 Sn4 3.441431 1_554
Ce2 Sn9 3.451032 1_555
Ce2 Sn18 3.451032 1_555
Ce2 Sn23 3.451032 1_555
Ce2 Sn3 3.451032 1_554
Ce2 Ir5 3.468656 1_555
Ce2 Ir0 3.468656 1_554
Ce2 Ir2 3.468656 1_555
Ce2 Ir7 3.468656 1_554
Ce3 Sn2 3.441431 1_555
Ce3 Sn23 3.441431 1_555
Ce3 Sn8 3.441431 1_545
Ce3 Sn15 3.441431 1_555
Ce3 Sn21 3.441431 1_545
Ce3 Sn18 3.441431 1_545
Ce3 Sn10 3.441431 1_555
Ce3 Sn5 3.441431 1_545
Ce3 Sn13 3.451032 1_555
Ce3 Sn17 3.451032 1_555
Ce3 Sn20 3.451032 1_555
Ce3 Sn7 3.451032 1_545
Ce3 Ir5 3.468656 1_555
Ce3 Ir2 3.468656 1_545
Ce3 Ir6 3.468656 1_555
Ce3 Ir1 3.468656 1_545
Ce4 Sn11 3.441431 1_555
Ce4 Sn14 3.441431 1_565
Ce4 Sn20 3.441431 1_565
Ce4 Sn3 3.441431 1_455
Ce4 Sn22 3.441431 1_465
Ce4 Sn17 3.441431 1_465
Ce4 Sn6 3.441431 1_555
Ce4 Sn9 3.441431 1_455
Ce4 Sn5 3.451032 1_555
Ce4 Sn25 3.451032 1_555
Ce4 Sn19 3.451032 1_555
Ce4 Sn8 3.451032 1_455
Ce4 Ir2 3.468656 1_455
Ce4 Ir7 3.468656 1_455
Ce4 Ir1 3.468656 1_555
Ce4 Ir4 3.468656 1_555
Ce5 Sn19 3.441431 1_555
Ce5 Sn7 3.441431 1_555
Ce5 Sn12 3.441431 1_554
Ce5 Sn24 3.441431 1_555
Ce5 Sn16 3.441431 1_554
Ce5 Sn25 3.441431 1_554
Ce5 Sn13 3.441431 1_555
Ce5 Sn4 3.441431 1_554
Ce5 Sn6 3.451032 1_555
Ce5 Sn21 3.451032 1_555
Ce5 Sn11 3.451032 1_554
Ce5 Sn15 3.451032 1_555
Ce5 Ir4 3.468656 1_554
Ce5 Ir6 3.468656 1_555
Ce5 Ir3 3.468656 1_554
Ce5 Ir1 3.468656 1_555
Sn0 Sn3 3.367027 1_555
Sn0 Sn7 3.367027 1_555
Sn0 Sn11 3.367027 1_555
Sn0 Sn8 3.367027 1_555
Sn0 Sn2 3.367027 1_555
Sn0 Sn12 3.367027 1_555
Sn0 Sn9 3.367027 1_555
Sn0 Sn6 3.367027 1_555
Sn0 Sn5 3.367027 1_555
Sn0 Sn13 3.367027 1_555
Sn0 Sn10 3.367027 1_555
Sn0 Sn4 3.367027 1_555
Sn1 Sn19 3.367027 1_545
Sn1 Sn20 3.367027 1_555
Sn1 Sn23 3.367027 1_455
Sn1 Sn24 3.367027 1_555
Sn1 Sn15 3.367027 1_555
Sn1 Sn14 3.367027 1_554
Sn1 Sn16 3.367027 1_554
Sn1 Sn18 3.367027 1_445
Sn1 Sn21 3.367027 1_545
Sn1 Sn25 3.367027 1_544
Sn1 Sn22 3.367027 1_454
Sn1 Sn17 3.367027 1_455
Sn2 Sn22 3.283404 1_555
Sn3 Sn9 3.000763 1_555
Sn5 Sn8 3.000763 1_555
Sn10 Sn2 3.000763 1_555
Sn10 Sn20 3.283404 1_555
Sn10 Sn14 3.283404 1_555
Sn11 Sn6 3.000763 1_555
Sn11 Sn25 3.283404 1_555
Sn11 Sn16 3.283404 1_555
Sn12 Sn4 3.000763 1_555
Sn12 Sn18 3.283404 1_556
Sn12 Sn21 3.283404 1_556
Sn13 Sn7 3.000763 1_555
Sn13 Sn23 3.283404 1_555
Sn13 Sn15 3.283404 1_555
Sn14 Sn22 3.000763 1_455
Sn14 Sn5 3.283404 1_545
Sn15 Sn21 3.000763 1_545
Sn15 Sn4 3.283404 1_554
Sn16 Sn24 3.000763 1_556
Sn16 Sn3 3.283404 1_455
Sn17 Sn20 3.000763 1_655
Sn17 Sn2 3.283404 1_555
Sn17 Sn8 3.283404 1_545
Sn18 Sn23 3.000763 1_565
Sn18 Sn7 3.283404 1_555
Sn19 Sn25 3.000763 1_554
Sn19 Sn9 3.283404 1_455
Sn19 Sn6 3.283404 1_555
Sn20 Sn5 3.283404 1_545
Sn21 Sn7 3.283404 1_555
Sn22 Sn8 3.283404 1_545
Sn23 Sn4 3.283404 1_554
Sn24 Sn9 3.283404 1_455
Sn24 Sn6 3.283404 1_555
Sn25 Sn3 3.283404 1_455
Ir0 Sn4 2.690362 1_555
Ir0 Sn16 2.690362 1_655
Ir0 Sn22 2.690362 1_555
Ir0 Sn3 2.690362 1_555
Ir0 Sn2 2.690362 1_555
Ir0 Sn23 2.690362 1_556
Ir1 Sn5 2.690362 1_555
Ir1 Sn6 2.690362 1_555
Ir1 Sn21 2.690362 1_555
Ir1 Sn19 2.690362 1_555
Ir1 Sn7 2.690362 1_555
Ir1 Sn20 2.690362 1_565
Ir2 Sn9 2.690362 1_555
Ir2 Sn18 2.690362 1_555
Ir2 Sn17 2.690362 1_565
Ir2 Sn8 2.690362 1_555
Ir2 Sn19 2.690362 1_655
Ir2 Sn7 2.690362 1_555
Ir3 Sn10 2.690362 1_555
Ir3 Sn4 2.690362 1_555
Ir3 Sn16 2.690362 1_555
Ir3 Sn15 2.690362 1_556
Ir3 Sn11 2.690362 1_555
Ir3 Sn14 2.690362 1_555
Ir4 Sn5 2.690362 1_555
Ir4 Sn21 2.690362 1_556
Ir4 Sn25 2.690362 1_555
Ir4 Sn11 2.690362 1_555
Ir4 Sn14 2.690362 1_565
Ir4 Sn12 2.690362 1_555
Ir5 Sn9 2.690362 1_555
Ir5 Sn13 2.690362 1_555
Ir5 Sn17 2.690362 1_555
Ir5 Sn24 2.690362 1_655
Ir5 Sn23 2.690362 1_555
Ir5 Sn2 2.690362 1_555
Ir6 Sn6 2.690362 1_555
Ir6 Sn13 2.690362 1_555
Ir6 Sn10 2.690362 1_555
Ir6 Sn20 2.690362 1_555
Ir6 Sn24 2.690362 1_555
Ir6 Sn15 2.690362 1_555
Ir7 Sn18 2.690362 1_556
Ir7 Sn25 2.690362 1_655
Ir7 Sn22 2.690362 1_565
Ir7 Sn8 2.690362 1_555
Ir7 Sn3 2.690362 1_555
Ir7 Sn12 2.690362 1_555
