# generated using pymatgen
data_Pr2(SO4)3
_symmetry_space_group_name_H-M   'P 1'
_cell_length_a   11.32580439
_cell_length_b   11.32580439
_cell_length_c   6.97079909
_cell_angle_alpha   73.63195440
_cell_angle_beta   73.63195440
_cell_angle_gamma   34.51170143
_symmetry_Int_Tables_number   1
_chemical_formula_structural   Pr2(SO4)3
_chemical_formula_sum   'Pr4 S6 O24'
_cell_volume   484.05505793
_cell_formula_units_Z   2
loop_
 _symmetry_equiv_pos_site_id
 _symmetry_equiv_pos_as_xyz
  1  'x, y, z'
loop_
 _atom_site_type_symbol
 _atom_site_label
 _atom_site_symmetry_multiplicity
 _atom_site_fract_x
 _atom_site_fract_y
 _atom_site_fract_z
 _atom_site_occupancy
  Pr  Pr0  1  0.72213450  0.01449792  0.63136462  1
  Pr  Pr1  1  0.27786550  0.98550208  0.36863538  1
  Pr  Pr2  1  0.98550208  0.27786550  0.86863538  1
  Pr  Pr3  1  0.01449792  0.72213450  0.13136462  1
  S  S0  1  0.49958770  0.86773065  0.82042634  1
  S  S1  1  0.50041230  0.13226935  0.17957366  1
  S  S2  1  0.13226935  0.50041230  0.67957366  1
  S  S3  1  0.86773065  0.49958770  0.32042634  1
  S  S4  1  0.83289592  0.16710408  0.75000000  1
  S  S5  1  0.16710408  0.83289592  0.25000000  1
  O  O0  1  0.34365285  0.96213649  0.69586858  1
  O  O1  1  0.65634715  0.03786351  0.30413142  1
  O  O2  1  0.03786351  0.65634715  0.80413142  1
  O  O3  1  0.96213649  0.34365285  0.19586858  1
  O  O4  1  0.62902811  0.01628948  -0.00160756  1
  O  O5  1  0.37097189  0.98371052  0.00160756  1
  O  O6  1  0.98371052  0.37097189  0.50160756  1
  O  O7  1  0.01628948  0.62902811  0.49839244  1
  O  O8  1  0.35361530  0.35056205  0.62609592  1
  O  O9  1  0.64638470  0.64943795  0.37390408  1
  O  O10  1  0.64943795  0.64638470  0.87390408  1
  O  O11  1  0.35056205  0.35361530  0.12609592  1
  O  O12  1  0.60324808  0.89841615  0.71081475  1
  O  O13  1  0.39675192  0.10158385  0.28918525  1
  O  O14  1  0.10158385  0.39675192  0.78918525  1
  O  O15  1  0.89841615  0.60324808  0.21081475  1
  O  O16  1  0.90753568  0.98133382  0.85470284  1
  O  O17  1  0.09246432  0.01866618  0.14529716  1
  O  O18  1  0.01866618  0.09246432  0.64529716  1
  O  O19  1  0.98133382  0.90753568  0.35470284  1
  O  O20  1  0.69164463  0.26301118  0.60871379  1
  O  O21  1  0.30835537  0.73698882  0.39128621  1
  O  O22  1  0.73698882  0.30835537  0.89128621  1
  O  O23  1  0.26301118  0.69164463  0.10871379  1
loop_
_geom_bond_atom_site_label_1
_geom_bond_atom_site_label_2
_geom_bond_distance
_geom_bond_site_symmetry_2
O0 S0 1.498395 1_555
O0 Pr1 2.474118 1_555
O0 Pr2 2.541766 1_465
O1 S1 1.498395 1_555
O1 Pr0 2.474118 1_555
O1 Pr3 2.541766 1_645
O2 S2 1.498395 1_555
O2 Pr3 2.474118 1_556
O2 Pr0 2.541766 1_465
O3 S3 1.498395 1_555
O3 Pr2 2.474118 1_554
O3 Pr1 2.541766 1_645
O4 S1 1.478923 1_555
O4 Pr0 2.476209 1_554
O4 Pr3 2.754725 1_645
O5 S0 1.478923 1_554
O5 Pr1 2.476209 1_555
O5 Pr2 2.754725 1_464
O6 S3 1.478923 1_555
O6 Pr2 2.476209 1_555
O6 Pr1 2.754725 1_645
O7 S2 1.478923 1_555
O7 Pr3 2.476209 1_555
O7 Pr0 2.754725 1_465
O8 S2 1.456737 1_555
O8 Pr0 2.394929 1_555
O9 S3 1.456737 1_555
O9 Pr1 2.394929 1_555
O10 S0 1.456737 1_555
O10 Pr2 2.394929 1_555
O11 S1 1.456737 1_555
O11 Pr3 2.394929 1_555
O12 S0 1.449184 1_555
O12 Pr0 2.436177 1_565
O13 S1 1.449184 1_555
O13 Pr1 2.436177 1_545
O14 S2 1.449184 1_555
O14 Pr2 2.436177 1_455
O15 S3 1.449184 1_555
O15 Pr3 2.436177 1_655
O16 S4 1.491698 1_565
O16 Pr3 2.463701 1_656
O16 Pr0 2.680894 1_565
O17 S5 1.491698 1_545
O17 Pr2 2.463701 1_454
O17 Pr1 2.680894 1_545
O18 S4 1.491698 1_455
O18 Pr1 2.463701 1_545
O18 Pr2 2.680894 1_455
O19 S5 1.491698 1_655
O19 Pr0 2.463701 1_565
O19 Pr3 2.680894 1_655
O20 S4 1.459603 1_555
O20 Pr0 2.498937 1_555
O21 S5 1.459603 1_555
O21 Pr1 2.498937 1_555
O22 S4 1.459603 1_555
O22 Pr2 2.498937 1_555
O23 S5 1.459603 1_555
O23 Pr3 2.498937 1_555
