# generated using pymatgen
data_Sc2Cr4Si5
_symmetry_space_group_name_H-M   'P 1'
_cell_length_a   9.19902009
_cell_length_b   9.19867896
_cell_length_c   9.19894447
_cell_angle_alpha   149.19675752
_cell_angle_beta   131.52196674
_cell_angle_gamma   58.54096003
_symmetry_Int_Tables_number   1
_chemical_formula_structural   Sc2Cr4Si5
_chemical_formula_sum   'Sc4 Cr8 Si10'
_cell_volume   296.14348903
_cell_formula_units_Z   2
loop_
 _symmetry_equiv_pos_site_id
 _symmetry_equiv_pos_as_xyz
  1  'x, y, z'
loop_
 _atom_site_type_symbol
 _atom_site_label
 _atom_site_symmetry_multiplicity
 _atom_site_fract_x
 _atom_site_fract_y
 _atom_site_fract_z
 _atom_site_occupancy
  Sc  Sc0  1  0.73828685  0.35736582  0.38098444  1
  Sc  Sc1  1  0.97636970  0.85732434  0.11901805  1
  Sc  Sc2  1  0.02367573  0.14268940  0.88101214  1
  Sc  Sc3  1  0.26169593  0.64264889  0.61898338  1
  Cr  Cr0  1  0.30940456  0.55950787  0.25010434  1
  Cr  Cr1  1  0.30949304  0.05942838  0.74989542  1
  Cr  Cr2  1  0.69061007  0.44050875  0.74990033  1
  Cr  Cr3  1  0.31535699  0.06121587  0.25401211  1
  Cr  Cr4  1  0.68459643  0.93876207  0.74596562  1
  Cr  Cr5  1  0.19282296  0.43861832  0.75406781  1
  Cr  Cr6  1  0.80717579  0.56135667  0.24595681  1
  Cr  Cr7  1  0.69052038  0.94058606  0.25010464  1
  Si  Si0  1  -0.00002137  0.24999673  0.24997667  1
  Si  Si1  1  0.00443659  0.71141314  0.29256650  1
  Si  Si2  1  0.99560917  0.28860108  0.70746149  1
  Si  Si3  1  0.58117579  0.78815195  0.79256311  1
  Si  Si4  1  0.00000838  0.74999175  0.75002063  1
  Si  Si5  1  0.51267685  0.43559717  0.07724150  1
  Si  Si6  1  0.48728872  0.56438825  0.92274082  1
  Si  Si7  1  0.64162772  0.06455548  0.57726940  1
  Si  Si8  1  0.35837661  0.93543035  0.42275023  1
  Si  Si9  1  0.41881210  0.21186166  0.20740455  1
loop_
_geom_bond_atom_site_label_1
_geom_bond_atom_site_label_2
_geom_bond_distance
_geom_bond_site_symmetry_2
Sc0 Si5 2.615185 1_555
Sc0 Si9 2.681551 1_555
Sc0 Si2 2.701503 1_555
Sc0 Si4 2.746382 1_655
Sc0 Si0 2.746439 1_655
Sc0 Si3 2.762210 1_555
Sc0 Si3 2.764638 1_544
Sc1 Si8 2.615526 1_655
Sc1 Si1 2.681342 1_655
Sc1 Si3 2.701282 1_554
Sc1 Si4 2.746146 1_654
Sc1 Si0 2.746325 1_665
Sc1 Si2 2.762435 1_554
Sc1 Si2 2.764668 1_565
Sc2 Si7 2.615830 1_455
Sc2 Si2 2.681368 1_455
Sc2 Si9 2.700884 1_556
Sc2 Si0 2.746405 1_556
Sc2 Si4 2.746583 1_545
Sc2 Si1 2.762443 1_556
Sc2 Si1 2.764685 1_545
Sc3 Si6 2.615507 1_555
Sc3 Si3 2.681592 1_555
Sc3 Si1 2.701085 1_555
Sc3 Si0 2.746653 1_555
Sc3 Si4 2.746708 1_555
Sc3 Si9 2.762243 1_555
Sc3 Si9 2.764643 1_566
Cr0 Si8 2.434360 1_555
Cr0 Si5 2.434811 1_555
Cr0 Si1 2.529613 1_555
Cr0 Si9 2.529942 1_555
Cr0 Si3 2.548219 1_555
Cr0 Si2 2.548583 1_454
Cr1 Si8 2.433473 1_545
Cr1 Si5 2.433828 1_556
Cr1 Si1 2.531933 1_545
Cr1 Si9 2.532351 1_556
Cr1 Si2 2.549409 1_455
Cr1 Si3 2.549420 1_545
Cr2 Si7 2.434773 1_555
Cr2 Si6 2.435228 1_555
Cr2 Si2 2.529785 1_555
Cr2 Si3 2.530105 1_555
Cr2 Si9 2.548441 1_555
Cr2 Si1 2.548763 1_656
Cr3 Si8 2.386986 1_545
Cr3 Si9 2.438836 1_555
Cr3 Si7 2.440922 1_555
Cr3 Si4 2.478318 1_544
Cr3 Si0 2.478537 1_555
Cr3 Si6 2.755926 1_544
Cr3 Si6 2.756101 1_555
Cr4 Si7 2.386929 1_565
Cr4 Si3 2.438193 1_555
Cr4 Si8 2.440599 1_555
Cr4 Si0 2.478517 1_666
Cr4 Si4 2.478744 1_655
Cr4 Si5 2.755908 1_566
Cr4 Si5 2.756083 1_555
Cr5 Si6 2.387146 1_555
Cr5 Si2 2.438210 1_455
Cr5 Si5 2.440388 1_556
Cr5 Si4 2.478737 1_555
Cr5 Si0 2.478956 1_555
Cr5 Si8 2.755865 1_545
Cr5 Si8 2.755916 1_556
Cr6 Si5 2.387187 1_555
Cr6 Si1 2.438874 1_655
Cr6 Si6 2.440715 1_554
Cr6 Si0 2.478493 1_655
Cr6 Si4 2.478707 1_655
Cr6 Si7 2.755887 1_565
Cr6 Si7 2.755937 1_554
Cr7 Si7 2.433890 1_565
Cr7 Si6 2.434254 1_554
Cr7 Si2 2.532090 1_565
Cr7 Si3 2.532524 1_554
Cr7 Si9 2.549605 1_565
Cr7 Si1 2.549617 1_655
Si0 Si4 2.443029 1_544
Si0 Si4 2.443074 1_555
Si5 Si6 2.375206 1_554
Si5 Si8 2.705912 1_555
Si5 Si8 2.707776 1_544
Si6 Si7 2.706037 1_555
Si6 Si7 2.707897 1_566
Si7 Si8 2.374924 1_545
