# generated using pymatgen
data_PrSb2Pd
_symmetry_space_group_name_H-M   'P 1'
_cell_length_a   5.82120400
_cell_length_b   5.82120400
_cell_length_c   6.22951200
_cell_angle_alpha   90.00000000
_cell_angle_beta   90.00000000
_cell_angle_gamma   90.00000000
_symmetry_Int_Tables_number   1
_chemical_formula_structural   PrSb2Pd
_chemical_formula_sum   'Pr2 Sb4 Pd2'
_cell_volume   211.09583517
_cell_formula_units_Z   2
loop_
 _symmetry_equiv_pos_site_id
 _symmetry_equiv_pos_as_xyz
  1  'x, y, z'
loop_
 _atom_site_type_symbol
 _atom_site_label
 _atom_site_symmetry_multiplicity
 _atom_site_fract_x
 _atom_site_fract_y
 _atom_site_fract_z
 _atom_site_occupancy
  Pr  Pr0  1  0.75000000  0.75000000  0.66166600  1
  Pr  Pr1  1  0.25000000  0.25000000  0.33833400  1
  Sb  Sb0  1  0.75000000  0.75000000  0.15200400  1
  Sb  Sb1  1  0.25000000  0.25000000  0.84799600  1
  Sb  Sb2  1  0.75000000  0.25000000  0.50000000  1
  Sb  Sb3  1  0.25000000  0.75000000  0.50000000  1
  Pd  Pd0  1  0.75000000  0.25000000  0.00000000  1
  Pd  Pd1  1  0.25000000  0.75000000  0.00000000  1
loop_
_geom_bond_atom_site_label_1
_geom_bond_atom_site_label_2
_geom_bond_distance
_geom_bond_site_symmetry_2
Pr0 Sb0 3.054566 1_556
Pr0 Sb3 3.079912 1_655
Pr0 Sb3 3.079912 1_555
Pr0 Sb2 3.079912 1_555
Pr0 Sb2 3.079912 1_565
Pr0 Sb0 3.174946 1_555
Pr1 Sb1 3.054566 1_554
Pr1 Sb2 3.079912 1_455
Pr1 Sb3 3.079912 1_555
Pr1 Sb3 3.079912 1_545
Pr1 Sb2 3.079912 1_555
Pr1 Sb1 3.174946 1_555
Pd0 Sb0 3.060759 1_545
Pd0 Sb0 3.060759 1_555
Pd0 Sb1 3.060759 1_654
Pd0 Sb1 3.060759 1_554
Pd0 Sb2 3.114756 1_554
Pd0 Sb2 3.114756 1_555
Pd0 Pr0 3.593580 1_544
Pd0 Pr1 3.593580 1_655
Pd0 Pr1 3.593580 1_555
Pd0 Pr0 3.593580 1_554
Pd1 Sb0 3.060759 1_455
Pd1 Sb0 3.060759 1_555
Pd1 Sb1 3.060759 1_564
Pd1 Sb1 3.060759 1_554
Pd1 Sb3 3.114756 1_555
Pd1 Sb3 3.114756 1_554
Pd1 Pr1 3.593580 1_565
Pd1 Pr1 3.593580 1_555
Pd1 Pr0 3.593580 1_554
Pd1 Pr0 3.593580 1_454
