# generated using pymatgen
data_Nd7In6Ni5Ge3
_symmetry_space_group_name_H-M   'P 1'
_cell_length_a   11.47255605
_cell_length_b   11.47255605
_cell_length_c   4.16334000
_cell_angle_alpha   90.00000000
_cell_angle_beta   90.00000000
_cell_angle_gamma   120.00000029
_symmetry_Int_Tables_number   1
_chemical_formula_structural   Nd7In6Ni5Ge3
_chemical_formula_sum   'Nd7 In6 Ni5 Ge3'
_cell_volume   474.56191932
_cell_formula_units_Z   1
loop_
 _symmetry_equiv_pos_site_id
 _symmetry_equiv_pos_as_xyz
  1  'x, y, z'
loop_
 _atom_site_type_symbol
 _atom_site_label
 _atom_site_symmetry_multiplicity
 _atom_site_fract_x
 _atom_site_fract_y
 _atom_site_fract_z
 _atom_site_occupancy
  Nd  Nd0  1  0.71238400  0.75107300  0.00000000  1
  Nd  Nd1  1  0.03868900  0.28761600  0.00000000  1
  Nd  Nd2  1  0.24892700  0.96131100  0.00000000  1
  Nd  Nd3  1  0.95532900  0.59109500  0.00000000  1
  Nd  Nd4  1  0.63576700  0.04467100  0.00000000  1
  Nd  Nd5  1  0.40890500  0.36423300  0.00000000  1
  Nd  Nd6  1  0.33333300  0.66666700  0.00000000  1
  In  In0  1  0.84757700  0.01621000  0.50000000  1
  In  In1  1  0.16863300  0.15242300  0.50000000  1
  In  In2  1  0.98379000  0.83136700  0.50000000  1
  In  In3  1  0.81458300  0.30994800  0.50000000  1
  In  In4  1  0.49536500  0.18541700  0.50000000  1
  In  In5  1  0.69005200  0.50463500  0.50000000  1
  Ni  Ni0  1  0.00000000  0.00000000  0.00000000  1
  Ni  Ni1  1  0.66666700  0.33333300  0.00000000  1
  Ni  Ni2  1  0.16909100  0.74864400  0.50000000  1
  Ni  Ni3  1  0.57955300  0.83090900  0.50000000  1
  Ni  Ni4  1  0.25135600  0.42044700  0.50000000  1
  Ge  Ge0  1  0.48794100  0.58948900  0.50000000  1
  Ge  Ge1  1  0.10154800  0.51205900  0.50000000  1
  Ge  Ge2  1  0.41051100  0.89845200  0.50000000  1
loop_
_geom_bond_atom_site_label_1
_geom_bond_atom_site_label_2
_geom_bond_distance
_geom_bond_site_symmetry_2
Nd0 Ni3 2.981670 1_554
Nd0 Ni3 2.981670 1_555
Nd0 Ni0 3.101671 1_665
Nd1 Ni4 2.981670 1_554
Nd1 Ni4 2.981670 1_555
Nd1 Ni0 3.101671 1_555
Nd2 Ni2 2.981670 1_554
Nd2 Ni2 2.981670 1_555
Nd2 Ni0 3.101671 1_565
Nd3 Ni2 3.030171 1_654
Nd3 Ni2 3.030171 1_655
Nd3 Ni1 3.149439 1_555
Nd4 Ni3 3.030169 1_544
Nd4 Ni3 3.030169 1_545
Nd4 Ni1 3.149439 1_555
Nd5 Ni4 3.030177 1_554
Nd5 Ni4 3.030177 1_555
Nd5 Ni1 3.149439 1_555
Nd6 Ni2 3.246612 1_554
Nd6 Ni2 3.246612 1_555
Nd6 Ni3 3.246619 1_554
Nd6 Ni3 3.246619 1_555
Nd6 Ni4 3.246621 1_555
Nd6 Ni4 3.246621 1_554
In0 Ni3 2.727194 1_545
In0 Ni0 2.784066 1_656
In0 Ni0 2.784066 1_655
In0 Nd4 3.337412 1_555
In0 Nd4 3.337412 1_556
In0 Nd0 3.357628 1_546
In0 Nd0 3.357628 1_545
In0 Nd1 3.465384 1_656
In0 Nd1 3.465384 1_655
In1 Ni4 2.727194 1_555
In1 Ni0 2.784066 1_555
In1 Ni0 2.784066 1_556
In1 Nd5 3.337418 1_555
In1 Nd5 3.337418 1_556
In1 Nd1 3.357628 1_555
In1 Nd1 3.357628 1_556
In1 Nd2 3.465384 1_546
In1 Nd2 3.465384 1_545
In2 Ni2 2.727194 1_655
In2 Ni0 2.784066 1_665
In2 Ni0 2.784066 1_666
In2 Nd3 3.337421 1_556
In2 Nd3 3.337421 1_555
In2 Nd2 3.357628 1_656
In2 Nd2 3.357628 1_655
In2 Nd0 3.465384 1_555
In2 Nd0 3.465384 1_556
In3 Ni1 2.782144 1_556
In3 Ni1 2.782144 1_555
In3 Nd4 3.400110 1_555
In3 Nd4 3.400110 1_556
In3 Nd1 3.415861 1_655
In3 Nd1 3.415861 1_656
In3 Nd3 3.483693 1_556
In3 Nd3 3.483693 1_555
In4 Ni1 2.782148 1_555
In4 Ni1 2.782148 1_556
In4 Nd5 3.400103 1_556
In4 Nd5 3.400103 1_555
In4 Nd2 3.415861 1_545
In4 Nd2 3.415861 1_546
In4 Nd4 3.483701 1_556
In4 Nd4 3.483701 1_555
In5 Ni1 2.782151 1_556
In5 Ni1 2.782151 1_555
In5 Nd3 3.400112 1_556
In5 Nd3 3.400112 1_555
In5 Nd0 3.415861 1_555
In5 Nd0 3.415861 1_556
In5 Nd5 3.483693 1_555
In5 Nd5 3.483693 1_556
Ge0 Ni4 2.421630 1_555
Ge0 Ni3 2.421753 1_555
Ge0 In5 2.929413 1_555
Ge0 Nd5 3.080695 1_555
Ge0 Nd5 3.080695 1_556
Ge0 Nd0 3.102705 1_555
Ge0 Nd0 3.102705 1_556
Ge0 Nd6 3.135929 1_555
Ge0 Nd6 3.135929 1_556
Ge1 Ni2 2.421630 1_555
Ge1 Ni4 2.421753 1_555
Ge1 In3 2.929413 1_455
Ge1 Nd3 3.080687 1_456
Ge1 Nd3 3.080687 1_455
Ge1 Nd1 3.102705 1_555
Ge1 Nd1 3.102705 1_556
Ge1 Nd6 3.135922 1_556
Ge1 Nd6 3.135922 1_555
Ge2 Ni3 2.421630 1_555
Ge2 Ni2 2.421753 1_555
Ge2 In4 2.929413 1_565
Ge2 Nd4 3.080693 1_566
Ge2 Nd4 3.080693 1_565
Ge2 Nd2 3.102705 1_555
Ge2 Nd2 3.102705 1_556
Ge2 Nd6 3.135921 1_556
Ge2 Nd6 3.135921 1_555
