# generated using pymatgen
data_LiCrRh2
_symmetry_space_group_name_H-M   'P 1'
_cell_length_a   4.16497905
_cell_length_b   4.16497905
_cell_length_c   4.16497905
_cell_angle_alpha   60.00000000
_cell_angle_beta   60.00000000
_cell_angle_gamma   60.00000000
_symmetry_Int_Tables_number   1
_chemical_formula_structural   LiCrRh2
_chemical_formula_sum   'Li1 Cr1 Rh2'
_cell_volume   51.08853698
_cell_formula_units_Z   1
loop_
 _symmetry_equiv_pos_site_id
 _symmetry_equiv_pos_as_xyz
  1  'x, y, z'
loop_
 _atom_site_type_symbol
 _atom_site_label
 _atom_site_symmetry_multiplicity
 _atom_site_fract_x
 _atom_site_fract_y
 _atom_site_fract_z
 _atom_site_occupancy
  Li  Li0  1  -0.00000000  0.00000000  -0.00000000  1
  Cr  Cr0  1  0.50000000  0.50000000  0.50000000  1
  Rh  Rh0  1  0.25000000  0.25000000  0.25000000  1
  Rh  Rh1  1  0.75000000  0.75000000  0.75000000  1
loop_
_geom_bond_atom_site_label_1
_geom_bond_atom_site_label_2
_geom_bond_distance
_geom_bond_site_symmetry_2
Li0 Rh0 2.550518 1_555
Li0 Rh0 2.550518 1_554
Li0 Rh1 2.550518 1_445
Li0 Rh1 2.550518 1_544
Li0 Rh1 2.550518 1_444
Li0 Rh0 2.550518 1_455
Li0 Rh1 2.550518 1_454
Li0 Rh0 2.550518 1_545
Cr0 Rh1 2.550518 1_545
Cr0 Rh0 2.550518 1_555
Cr0 Rh0 2.550518 1_556
Cr0 Rh0 2.550518 1_565
Cr0 Rh1 2.550518 1_554
Cr0 Rh1 2.550518 1_455
Cr0 Rh1 2.550518 1_555
Cr0 Rh0 2.550518 1_655
