# generated using pymatgen
data_Ca2Eu(Zn3Ni2)3
_symmetry_space_group_name_H-M   'P 1'
_cell_length_a   9.15477773
_cell_length_b   9.15477773
_cell_length_c   4.18186400
_cell_angle_alpha   90.00000000
_cell_angle_beta   90.00000000
_cell_angle_gamma   119.99999803
_symmetry_Int_Tables_number   1
_chemical_formula_structural   Ca2Eu(Zn3Ni2)3
_chemical_formula_sum   'Ca2 Eu1 Zn9 Ni6'
_cell_volume   303.52617843
_cell_formula_units_Z   1
loop_
 _symmetry_equiv_pos_site_id
 _symmetry_equiv_pos_as_xyz
  1  'x, y, z'
loop_
 _atom_site_type_symbol
 _atom_site_label
 _atom_site_symmetry_multiplicity
 _atom_site_fract_x
 _atom_site_fract_y
 _atom_site_fract_z
 _atom_site_occupancy
  Ca  Ca0  1  0.33333300  0.66666700  0.50000000  1
  Ca  Ca1  1  0.66666700  0.33333300  0.50000000  1
  Eu  Eu0  1  0.00000000  0.00000000  0.00000000  1
  Zn  Zn0  1  0.70714900  0.00000000  0.50000000  1
  Zn  Zn1  1  0.00000000  0.70714900  0.50000000  1
  Zn  Zn2  1  0.29285100  0.29285100  0.50000000  1
  Zn  Zn3  1  0.29285100  0.00000000  0.50000000  1
  Zn  Zn4  1  0.00000000  0.29285100  0.50000000  1
  Zn  Zn5  1  0.70714900  0.70714900  0.50000000  1
  Zn  Zn6  1  0.00000000  0.50000000  0.00000000  1
  Zn  Zn7  1  0.50000000  0.50000000  0.00000000  1
  Zn  Zn8  1  0.50000000  0.00000000  0.00000000  1
  Ni  Ni0  1  0.81849200  0.18150800  0.00000000  1
  Ni  Ni1  1  0.81849200  0.63698500  0.00000000  1
  Ni  Ni2  1  0.36301500  0.18150800  0.00000000  1
  Ni  Ni3  1  0.18150800  0.81849200  0.00000000  1
  Ni  Ni4  1  0.63698500  0.81849200  0.00000000  1
  Ni  Ni5  1  0.18150800  0.36301500  0.00000000  1
loop_
_geom_bond_atom_site_label_1
_geom_bond_atom_site_label_2
_geom_bond_distance
_geom_bond_site_symmetry_2
Ca0 Ni3 3.188677 1_556
Ca0 Ni3 3.188677 1_555
Ca0 Ni4 3.188689 1_555
Ca0 Ni4 3.188689 1_556
Ca0 Ni5 3.188689 1_555
Ca0 Ni5 3.188689 1_556
Ca0 Zn1 3.252764 1_555
Ca0 Zn3 3.252764 1_565
Ca0 Zn0 3.252770 1_565
Ca0 Zn4 3.252770 1_555
Ca0 Zn5 3.252774 1_555
Ca0 Zn2 3.252774 1_555
Ca0 Zn8 3.369888 1_565
Ca0 Zn8 3.369888 1_566
Ca0 Zn6 3.369888 1_556
Ca0 Zn6 3.369888 1_555
Ca0 Zn7 3.369894 1_555
Ca0 Zn7 3.369894 1_556
Ca1 Ni0 3.188677 1_556
Ca1 Ni0 3.188677 1_555
Ca1 Ni1 3.188689 1_555
Ca1 Ni1 3.188689 1_556
Ca1 Ni2 3.188689 1_555
Ca1 Ni2 3.188689 1_556
Ca1 Zn0 3.252764 1_555
Ca1 Zn4 3.252764 1_655
Ca1 Zn1 3.252770 1_655
Ca1 Zn3 3.252770 1_555
Ca1 Zn5 3.252774 1_555
Ca1 Zn2 3.252774 1_555
Ca1 Zn8 3.369888 1_556
Ca1 Zn8 3.369888 1_555
Ca1 Zn6 3.369888 1_655
Ca1 Zn6 3.369888 1_656
Ca1 Zn7 3.369894 1_556
Ca1 Zn7 3.369894 1_555
Eu0 Ni2 2.878081 1_555
Eu0 Ni4 2.878081 1_445
Eu0 Ni1 2.878081 1_445
Eu0 Ni5 2.878081 1_555
Eu0 Ni0 2.878089 1_455
Eu0 Ni3 2.878089 1_545
Zn0 Zn5 2.680986 1_545
Zn0 Zn4 2.680986 1_655
Zn0 Zn8 2.822825 1_556
Zn0 Zn8 2.822825 1_555
Zn1 Zn5 2.680986 1_455
Zn1 Zn3 2.680986 1_565
Zn1 Zn6 2.822825 1_556
Zn1 Zn6 2.822825 1_555
Zn2 Zn3 2.680986 1_555
Zn2 Zn4 2.680986 1_555
Zn2 Zn7 2.822825 1_555
Zn2 Zn7 2.822825 1_556
Zn3 Zn8 2.822825 1_556
Zn3 Zn8 2.822825 1_555
Zn4 Zn6 2.822825 1_555
Zn4 Zn6 2.822825 1_556
Zn5 Zn7 2.822825 1_555
Zn5 Zn7 2.822825 1_556
Ni0 Zn6 2.533302 1_655
Ni0 Zn8 2.533302 1_555
Ni0 Zn4 2.545265 1_655
Ni0 Zn4 2.545265 1_654
Ni0 Zn0 2.545265 1_555
Ni0 Zn0 2.545265 1_554
Ni0 Ni4 2.878089 1_545
Ni0 Ni5 2.878089 1_655
Ni1 Zn7 2.533301 1_555
Ni1 Zn6 2.533309 1_655
Ni1 Zn5 2.545261 1_555
Ni1 Zn5 2.545261 1_554
Ni1 Zn1 2.545266 1_655
Ni1 Zn1 2.545266 1_654
Ni1 Ni4 2.878073 1_555
Ni1 Ni3 2.878089 1_655
Ni2 Zn7 2.533301 1_555
Ni2 Zn8 2.533309 1_555
Ni2 Zn2 2.545261 1_554
Ni2 Zn2 2.545261 1_555
Ni2 Zn3 2.545266 1_554
Ni2 Zn3 2.545266 1_555
Ni2 Ni5 2.878073 1_555
Ni2 Ni3 2.878089 1_545
Ni3 Zn8 2.533302 1_565
Ni3 Zn6 2.533302 1_555
Ni3 Zn3 2.545265 1_564
Ni3 Zn3 2.545265 1_565
Ni3 Zn1 2.545265 1_555
Ni3 Zn1 2.545265 1_554
Ni4 Zn7 2.533301 1_555
Ni4 Zn8 2.533309 1_565
Ni4 Zn5 2.545261 1_555
Ni4 Zn5 2.545261 1_554
Ni4 Zn0 2.545266 1_564
Ni4 Zn0 2.545266 1_565
Ni5 Zn7 2.533301 1_555
Ni5 Zn6 2.533309 1_555
Ni5 Zn2 2.545261 1_554
Ni5 Zn2 2.545261 1_555
Ni5 Zn4 2.545266 1_555
Ni5 Zn4 2.545266 1_554
