# generated using pymatgen
data_Cu3Ag
_symmetry_space_group_name_H-M   'P 1'
_cell_length_a   4.61601565
_cell_length_b   4.61601565
_cell_length_c   4.61601565
_cell_angle_alpha   131.75772945
_cell_angle_beta   131.75772945
_cell_angle_gamma   70.61193707
_symmetry_Int_Tables_number   1
_chemical_formula_structural   Cu3Ag
_chemical_formula_sum   'Cu3 Ag1'
_cell_volume   53.62071871
_cell_formula_units_Z   1
loop_
 _symmetry_equiv_pos_site_id
 _symmetry_equiv_pos_as_xyz
  1  'x, y, z'
loop_
 _atom_site_type_symbol
 _atom_site_label
 _atom_site_symmetry_multiplicity
 _atom_site_fract_x
 _atom_site_fract_y
 _atom_site_fract_z
 _atom_site_occupancy
  Cu  Cu0  1  0.75000000  0.25000000  0.50000000  1
  Cu  Cu1  1  0.25000000  0.75000000  0.50000000  1
  Cu  Cu2  1  0.50000000  0.50000000  0.00000000  1
  Ag  Ag0  1  0.00000000  0.00000000  0.00000000  1
loop_
_geom_bond_atom_site_label_1
_geom_bond_atom_site_label_2
_geom_bond_distance
_geom_bond_site_symmetry_2
Cu0 Cu2 2.665742 1_556
Cu0 Cu2 2.665742 1_656
Cu0 Cu2 2.665742 1_545
Cu0 Cu2 2.665742 1_555
Cu0 Cu1 2.667792 1_645
Cu0 Cu1 2.667792 1_656
Cu0 Cu1 2.667792 1_555
Cu0 Cu1 2.667792 1_544
Cu1 Cu2 2.665742 1_556
Cu1 Cu2 2.665742 1_555
Cu1 Cu2 2.665742 1_455
Cu1 Cu2 2.665742 1_566
Ag0 Cu1 2.665742 1_545
Ag0 Cu1 2.665742 1_544
Ag0 Cu1 2.665742 1_555
Ag0 Cu1 2.665742 1_444
Ag0 Cu0 2.665742 1_455
Ag0 Cu0 2.665742 1_444
Ag0 Cu0 2.665742 1_454
Ag0 Cu0 2.665742 1_555
Ag0 Cu2 2.667792 1_444
Ag0 Cu2 2.667792 1_545
Ag0 Cu2 2.667792 1_455
Ag0 Cu2 2.667792 1_556
