# generated using pymatgen
data_Li9Mn7O16
_symmetry_space_group_name_H-M   'P 1'
_cell_length_a   5.28602700
_cell_length_b   6.06836771
_cell_length_c   10.11957328
_cell_angle_alpha   86.63515517
_cell_angle_beta   101.81705914
_cell_angle_gamma   110.42557516
_symmetry_Int_Tables_number   1
_chemical_formula_structural   Li9Mn7O16
_chemical_formula_sum   'Li9 Mn7 O16'
_cell_volume   297.72568012
_cell_formula_units_Z   1
loop_
 _symmetry_equiv_pos_site_id
 _symmetry_equiv_pos_as_xyz
  1  'x, y, z'
loop_
 _atom_site_type_symbol
 _atom_site_label
 _atom_site_symmetry_multiplicity
 _atom_site_fract_x
 _atom_site_fract_y
 _atom_site_fract_z
 _atom_site_occupancy
  Li  Li0  1  0.49732200  0.12671700  0.37549100  1
  Li  Li1  1  0.50139000  0.37663200  0.62645100  1
  Li  Li2  1  0.50364900  0.61756800  0.87861100  1
  Li  Li3  1  0.49425700  0.86679000  0.12053400  1
  Li  Li4  1  0.49861000  0.62336800  0.37354900  1
  Li  Li5  1  0.50267800  0.87328300  0.62450900  1
  Li  Li6  1  0.50574300  0.13321000  0.87946600  1
  Li  Li7  1  0.49635100  0.38243200  0.12138900  1
  Li  Li8  1  0.00000000  0.50000000  0.00000000  1
  Mn  Mn0  1  0.00321500  0.24997500  0.24615600  1
  Mn  Mn1  1  0.00000000  0.00000000  0.00000000  1
  Mn  Mn2  1  0.00000000  0.50000000  0.50000000  1
  Mn  Mn3  1  0.99678500  0.75002500  0.75384400  1
  Mn  Mn4  1  0.00448500  0.74282500  0.24554600  1
  Mn  Mn5  1  0.00000000  0.00000000  0.50000000  1
  Mn  Mn6  1  0.99551500  0.25717500  0.75445400  1
  O  O0  1  0.78090400  0.94788500  0.31621800  1
  O  O1  1  0.76983700  0.20696300  0.56983200  1
  O  O2  1  0.77426100  0.44635600  0.80620600  1
  O  O3  1  0.76857000  0.70580000  0.06833400  1
  O  O4  1  0.76508800  0.45453600  0.31640100  1
  O  O5  1  0.76800300  0.70808300  0.56834200  1
  O  O6  1  0.76318800  0.95934500  0.82235900  1
  O  O7  1  0.79144000  0.16816900  0.06482600  1
  O  O8  1  0.23199700  0.29191700  0.43165800  1
  O  O9  1  0.23491200  0.54546400  0.68359900  1
  O  O10  1  0.20856000  0.83183100  0.93517400  1
  O  O11  1  0.23681200  0.04065500  0.17764100  1
  O  O12  1  0.23016300  0.79303700  0.43016800  1
  O  O13  1  0.21909600  0.05211500  0.68378200  1
  O  O14  1  0.23143000  0.29420000  0.93166600  1
  O  O15  1  0.22573900  0.55364400  0.19379400  1
loop_
_geom_bond_atom_site_label_1
_geom_bond_atom_site_label_2
_geom_bond_distance
_geom_bond_site_symmetry_2
Li0 O4 2.135434 1_555
Li0 O12 2.143191 1_545
Li0 O1 2.154626 1_555
Li0 O11 2.160838 1_555
Li0 O8 2.160987 1_555
Li0 O0 2.316177 1_545
Li1 O2 2.039167 1_555
Li1 O5 2.144673 1_555
Li1 O13 2.147270 1_555
Li1 O8 2.153164 1_555
Li1 O9 2.186048 1_555
Li1 O1 2.196367 1_555
Li2 O3 2.104747 1_556
Li2 O14 2.105090 1_555
Li2 O9 2.150164 1_555
Li2 O6 2.168652 1_555
Li2 O2 2.284415 1_555
Li2 O10 2.513965 1_555
Li3 O7 2.089679 1_565
Li3 O10 2.122984 1_554
Li3 O15 2.135031 1_555
Li3 O11 2.166783 1_565
Li3 O3 2.167740 1_555
Li3 O0 2.196458 1_555
Li4 O15 2.039167 1_555
Li4 O8 2.144673 1_555
Li4 O0 2.147270 1_555
Li4 O5 2.153164 1_555
Li4 O4 2.186048 1_555
Li4 O12 2.196367 1_555
Li5 O9 2.135434 1_555
Li5 O1 2.143191 1_565
Li5 O12 2.154626 1_555
Li5 O6 2.160838 1_555
Li5 O5 2.160987 1_555
Li5 O13 2.316177 1_565
Li6 O10 2.089679 1_545
Li6 O7 2.122984 1_556
Li6 O2 2.135031 1_555
Li6 O6 2.166783 1_545
Li6 O14 2.167740 1_555
Li6 O13 2.196458 1_555
Li7 O14 2.104747 1_554
Li7 O3 2.105090 1_555
Li7 O4 2.150164 1_555
Li7 O11 2.168652 1_555
Li7 O15 2.284415 1_555
Li7 O7 2.513965 1_555
Li8 O15 2.054548 1_555
Li8 O2 2.054548 1_454
Li8 O10 2.071780 1_554
Li8 O7 2.071780 1_455
Li8 O3 2.246925 1_455
Li8 O14 2.246925 1_554
Mn0 O15 1.920395 1_555
Mn0 O7 1.935065 1_455
Mn0 O0 1.982240 1_445
Mn0 O8 1.990633 1_555
Mn0 O11 2.273268 1_555
Mn0 O4 2.278463 1_455
Mn1 O11 1.942742 1_555
Mn1 O6 1.942742 1_444
Mn1 O3 1.959397 1_445
Mn1 O14 1.959397 1_554
Mn1 O7 1.961447 1_455
Mn1 O10 1.961447 1_544
Mn2 O12 1.958659 1_555
Mn2 O1 1.958659 1_455
Mn2 O9 1.986488 1_555
Mn2 O4 1.986488 1_455
Mn2 O8 2.259960 1_555
Mn2 O5 2.259960 1_455
Mn3 O2 1.920395 1_555
Mn3 O10 1.935065 1_655
Mn3 O13 1.982240 1_665
Mn3 O5 1.990633 1_555
Mn3 O6 2.273268 1_555
Mn3 O9 2.278463 1_655
Mn4 O3 1.938391 1_455
Mn4 O4 1.963471 1_455
Mn4 O11 1.974213 1_565
Mn4 O12 1.976550 1_555
Mn4 O15 2.053943 1_555
Mn4 O0 2.221236 1_455
Mn5 O8 1.951291 1_555
Mn5 O5 1.951291 1_445
Mn5 O13 1.957387 1_555
Mn5 O0 1.957387 1_445
Mn5 O12 2.253846 1_545
Mn5 O1 2.253846 1_455
Mn6 O14 1.938391 1_655
Mn6 O9 1.963471 1_655
Mn6 O6 1.974213 1_545
Mn6 O1 1.976550 1_555
Mn6 O2 2.053943 1_555
Mn6 O13 2.221236 1_655
