# generated using pymatgen
data_CsEu(WO4)2
_symmetry_space_group_name_H-M   'P 1'
_cell_length_a   7.65034086
_cell_length_b   7.65034086
_cell_length_c   7.62615119
_cell_angle_alpha   62.67462918
_cell_angle_beta   62.67462918
_cell_angle_gamma   89.45094764
_symmetry_Int_Tables_number   1
_chemical_formula_structural   CsEu(WO4)2
_chemical_formula_sum   'Cs2 Eu2 W4 O16'
_cell_volume   340.65682062
_cell_formula_units_Z   2
loop_
 _symmetry_equiv_pos_site_id
 _symmetry_equiv_pos_as_xyz
  1  'x, y, z'
loop_
 _atom_site_type_symbol
 _atom_site_label
 _atom_site_symmetry_multiplicity
 _atom_site_fract_x
 _atom_site_fract_y
 _atom_site_fract_z
 _atom_site_occupancy
  Cs  Cs0  1  0.19779732  0.80220268  0.25000000  1
  Cs  Cs1  1  0.80220268  0.19779732  0.75000000  1
  Eu  Eu0  1  0.77261011  0.22738989  0.25000000  1
  Eu  Eu1  1  0.22738989  0.77261011  0.75000000  1
  W  W0  1  0.69657873  0.68873313  0.27462950  1
  W  W1  1  0.30342127  0.31126687  0.72537050  1
  W  W2  1  0.31126687  0.30342127  0.22537050  1
  W  W3  1  0.68873313  0.69657873  0.77462950  1
  O  O0  1  0.62057979  0.74902329  0.06710496  1
  O  O1  1  0.37942021  0.25097671  0.93289504  1
  O  O2  1  0.25097671  0.37942021  0.43289504  1
  O  O3  1  0.74902329  0.62057979  0.56710496  1
  O  O4  1  0.38146290  0.07012848  0.36414874  1
  O  O5  1  0.61853710  0.92987152  0.63585126  1
  O  O6  1  0.92987152  0.61853710  0.13585126  1
  O  O7  1  0.07012848  0.38146290  0.86414874  1
  O  O8  1  0.58352820  0.37290754  0.46912208  1
  O  O9  1  0.41647180  0.62709246  0.53087792  1
  O  O10  1  0.62709246  0.41647180  0.03087792  1
  O  O11  1  0.37290754  0.58352820  0.96912208  1
  O  O12  1  0.78554406  0.94346034  0.20092575  1
  O  O13  1  0.21445594  0.05653966  0.79907425  1
  O  O14  1  0.05653966  0.21445594  0.29907425  1
  O  O15  1  0.94346034  0.78554406  0.70092575  1
loop_
_geom_bond_atom_site_label_1
_geom_bond_atom_site_label_2
_geom_bond_distance
_geom_bond_site_symmetry_2
Cs0 O2 2.987715 1_555
Cs0 O0 2.987715 1_555
Cs0 O3 2.991673 1_455
Cs0 O1 2.991673 1_564
Cs0 O15 3.014485 1_455
Cs0 O13 3.014485 1_564
Cs0 O4 3.122468 1_565
Cs0 O6 3.122468 1_455
Cs0 O11 3.129550 1_554
Cs0 O9 3.129550 1_555
Cs0 O12 3.449909 1_455
Cs0 O14 3.449909 1_565
Cs1 O3 2.987715 1_555
Cs1 O1 2.987715 1_555
Cs1 O2 2.991673 1_655
Cs1 O0 2.991673 1_546
Cs1 O12 3.014485 1_546
Cs1 O14 3.014485 1_655
Cs1 O7 3.122468 1_655
Cs1 O5 3.122468 1_545
Cs1 O8 3.129550 1_555
Cs1 O10 3.129550 1_556
Cs1 O15 3.449909 1_545
Cs1 O13 3.449909 1_655
Eu0 O12 2.361427 1_545
Eu0 O14 2.361427 1_655
Eu0 O8 2.362644 1_555
Eu0 O10 2.362644 1_555
Eu0 O7 2.438616 1_654
Eu0 O5 2.438616 1_545
Eu0 O6 2.806364 1_555
Eu0 O4 2.806364 1_555
Eu1 O15 2.361427 1_455
Eu1 O13 2.361427 1_565
Eu1 O11 2.362644 1_555
Eu1 O9 2.362644 1_555
Eu1 O4 2.438616 1_565
Eu1 O6 2.438616 1_456
Eu1 O7 2.806364 1_555
Eu1 O5 2.806364 1_555
O0 W0 1.795809 1_555
O0 W3 2.271054 1_554
O1 W1 1.795809 1_555
O1 W2 2.271054 1_556
O2 W2 1.795809 1_555
O2 W1 2.271054 1_555
O3 W3 1.795809 1_555
O3 W0 2.271054 1_555
O4 W2 1.833888 1_555
O5 W3 1.833888 1_555
O6 W0 1.833888 1_555
O7 W1 1.833888 1_555
O8 W1 1.990476 1_555
O8 W0 2.087585 1_555
O9 W0 1.990476 1_555
O9 W1 2.087585 1_555
O10 W3 1.990476 1_554
O10 W2 2.087585 1_555
O11 W2 1.990476 1_556
O11 W3 2.087585 1_555
O12 W0 1.801491 1_555
O13 W1 1.801491 1_555
O14 W2 1.801491 1_555
O15 W3 1.801491 1_555
