# generated using pymatgen
data_Mg2Be3P3H13O19
_symmetry_space_group_name_H-M   'P 1'
_cell_length_a   10.31603133
_cell_length_b   10.25114945
_cell_length_c   8.44577900
_cell_angle_alpha   90.00000000
_cell_angle_beta   90.00000000
_cell_angle_gamma   121.91230335
_symmetry_Int_Tables_number   1
_chemical_formula_structural   Mg2Be3P3H13O19
_chemical_formula_sum   'Mg4 Be6 P6 H26 O38'
_cell_volume   758.15861823
_cell_formula_units_Z   2
loop_
 _symmetry_equiv_pos_site_id
 _symmetry_equiv_pos_as_xyz
  1  'x, y, z'
loop_
 _atom_site_type_symbol
 _atom_site_label
 _atom_site_symmetry_multiplicity
 _atom_site_fract_x
 _atom_site_fract_y
 _atom_site_fract_z
 _atom_site_occupancy
  Mg  Mg0  1  0.66925900  0.32820200  0.58333600  1
  Mg  Mg1  1  0.33074100  0.67179800  0.08333600  1
  Mg  Mg2  1  0.67016300  0.33596500  0.94038000  1
  Mg  Mg3  1  0.32983700  0.66403500  0.44038000  1
  Be  Be0  1  0.19090800  0.09551600  0.10323300  1
  Be  Be1  1  0.89574100  0.80461200  0.10628100  1
  Be  Be2  1  0.91016100  0.09854900  0.11314500  1
  Be  Be3  1  0.80909200  0.90448400  0.60323300  1
  Be  Be4  1  0.10425900  0.19538800  0.60628100  1
  Be  Be5  1  0.08983900  0.90145100  0.61314500  1
  P  P0  1  0.32582400  0.15817200  0.78350300  1
  P  P1  1  0.83052200  0.68253200  0.78398700  1
  P  P2  1  0.86069100  0.18172300  0.78844900  1
  P  P3  1  0.67417600  0.84182800  0.28350300  1
  P  P4  1  0.16947800  0.31746800  0.28398700  1
  P  P5  1  0.13930900  0.81827700  0.28844900  1
  H  H0  1  0.00007300  0.00021400  0.90801500  1
  H  H1  1  0.99992700  0.99978600  0.40801500  1
  H  H2  1  0.34892300  0.05564200  0.27793700  1
  H  H3  1  0.71705300  0.63625200  0.31114200  1
  H  H4  1  0.99863500  0.99868600  0.30775700  1
  H  H5  1  0.65107700  0.94435800  0.77793700  1
  H  H6  1  0.28294700  0.36374800  0.81114200  1
  H  H7  1  0.00136500  0.00131400  0.80775700  1
  H  H8  1  0.59338300  0.13864300  0.18923000  1
  H  H9  1  0.46538300  0.38719600  0.10607700  1
  H  H10  1  0.90130600  0.55006000  0.11531100  1
  H  H11  1  0.40661700  0.86135700  0.68923000  1
  H  H12  1  0.53461700  0.61280400  0.60607700  1
  H  H13  1  0.09869400  0.44994000  0.61531100  1
  H  H14  1  0.25732800  0.40753800  0.00651700  1
  H  H15  1  0.14128200  0.58587700  0.83681200  1
  H  H16  1  0.57760500  0.89996600  0.01583000  1
  H  H17  1  0.74267200  0.59246200  0.50651700  1
  H  H18  1  0.85871800  0.41412300  0.33681200  1
  H  H19  1  0.42239500  0.10003400  0.51583000  1
  H  H20  1  0.61100600  0.54148500  0.03823300  1
  H  H21  1  0.96122100  0.45762700  0.03272700  1
  H  H22  1  0.51262000  0.03613500  0.03515600  1
  H  H23  1  0.38899400  0.45851500  0.53823300  1
  H  H24  1  0.03877900  0.54237300  0.53272700  1
  H  H25  1  0.48738000  0.96386500  0.53515600  1
  O  O0  1  0.25187700  0.26055400  0.74159800  1
  O  O1  1  0.00407200  0.77684300  0.75087300  1
  O  O2  1  0.75809400  0.99771200  0.73872200  1
  O  O3  1  0.74812300  0.73944600  0.24159800  1
  O  O4  1  0.99592800  0.22315700  0.25087300  1
  O  O5  1  0.24190600  0.00228800  0.23872200  1
  O  O6  1  0.27496100  0.09535300  0.94878200  1
  O  O7  1  0.80023300  0.71429500  0.95398100  1
  O  O8  1  0.91390200  0.18762600  0.95640700  1
  O  O9  1  0.72503900  0.90464700  0.44878200  1
  O  O10  1  0.19976700  0.28570500  0.45398100  1
  O  O11  1  0.08609800  0.81237400  0.45640700  1
  O  O12  1  0.26212900  0.03253900  0.65631700  1
  O  O13  1  0.74797100  0.73294600  0.66433000  1
  O  O14  1  0.99230800  0.24964900  0.66907700  1
  O  O15  1  0.73787100  0.96746100  0.15631700  1
  O  O16  1  0.25202900  0.26705400  0.16433000  1
  O  O17  1  0.00769200  0.75035100  0.16907700  1
  O  O18  1  0.49860000  0.25736700  0.76726100  1
  O  O19  1  0.76319400  0.50991400  0.76268500  1
  O  O20  1  0.75791300  0.24579200  0.76988900  1
  O  O21  1  0.50140000  0.74263300  0.26726100  1
  O  O22  1  0.23680600  0.49008600  0.26268500  1
  O  O23  1  0.24208700  0.75420800  0.26988900  1
  O  O24  1  0.85945800  0.43986100  0.44963100  1
  O  O25  1  0.51924500  0.13172200  0.46032900  1
  O  O26  1  0.68945100  0.51592700  0.42170800  1
  O  O27  1  0.14054200  0.56013900  0.94963100  1
  O  O28  1  0.48075500  0.86827800  0.96032900  1
  O  O29  1  0.31054900  0.48407300  0.92170800  1
  O  O30  1  0.86601000  0.44348300  0.08205500  1
  O  O31  1  0.55686600  0.14232300  0.08351300  1
  O  O32  1  0.56986000  0.43351700  0.06598200  1
  O  O33  1  0.13399000  0.55651600  0.58205500  1
  O  O34  1  0.44313400  0.85767700  0.58351300  1
  O  O35  1  0.43014000  0.56648300  0.56598200  1
  O  O36  1  0.00001800  0.99574400  0.09180700  1
  O  O37  1  0.99998200  0.00425600  0.59180700  1
loop_
_geom_bond_atom_site_label_1
_geom_bond_atom_site_label_2
_geom_bond_distance
_geom_bond_site_symmetry_2
Mg0 O24 2.015134 1_555
Mg0 O25 2.058051 1_555
Mg0 O18 2.165220 1_555
Mg0 O19 2.189734 1_555
Mg0 O20 2.202137 1_555
Mg0 O26 2.277350 1_555
Mg1 O27 2.015134 1_554
Mg1 O28 2.058051 1_554
Mg1 O21 2.165220 1_555
Mg1 O22 2.189734 1_555
Mg1 O23 2.202137 1_555
Mg1 O29 2.277350 1_554
Mg2 O32 2.071230 1_556
Mg2 O31 2.077246 1_556
Mg2 O30 2.091446 1_556
Mg2 O18 2.100412 1_555
Mg2 O19 2.131617 1_555
Mg2 O20 2.152205 1_555
Mg3 O35 2.071230 1_555
Mg3 O34 2.077246 1_555
Mg3 O33 2.091446 1_555
Mg3 O21 2.100412 1_555
Mg3 O22 2.131617 1_555
Mg3 O23 2.152205 1_555
Be0 O6 1.566844 1_554
Be0 O16 1.607419 1_555
Be0 O36 1.674477 1_545
Be0 O5 1.741018 1_555
Be1 O7 1.586843 1_554
Be1 O17 1.613573 1_655
Be1 O36 1.668153 1_655
Be1 O3 1.730860 1_555
Be2 O8 1.597009 1_554
Be2 O15 1.603933 1_545
Be2 O4 1.603968 1_555
Be2 O36 1.742185 1_645
Be3 O9 1.566844 1_555
Be3 O13 1.607419 1_555
Be3 O37 1.674477 1_565
Be3 O2 1.741018 1_555
Be4 O10 1.586843 1_555
Be4 O14 1.613573 1_455
Be4 O37 1.668153 1_455
Be4 O0 1.730860 1_555
Be5 O11 1.597009 1_555
Be5 O12 1.603933 1_565
Be5 O1 1.603968 1_555
Be5 O37 1.742185 1_465
H0 H7 0.846843 1_555
H0 O36 1.552934 1_546
H1 H4 0.846843 1_555
H1 O37 1.552934 1_565
H2 O5 0.994612 1_555
H3 O3 1.099230 1_555
H3 O26 1.450245 1_555
H5 O2 0.994612 1_555
H6 O0 1.099230 1_555
H6 O29 1.450245 1_555
H8 O31 0.977528 1_555
H9 O32 0.980153 1_555
H10 O30 0.992233 1_555
H11 O34 0.977528 1_555
H12 O35 0.980153 1_555
H13 O33 0.992223 1_555
H14 O29 0.987234 1_554
H15 O27 0.987651 1_555
H16 O28 0.990119 1_554
H17 O26 0.987234 1_555
H18 O24 0.987651 1_555
H19 O25 0.990119 1_555
H20 O32 0.981533 1_555
H21 O30 1.004362 1_555
H21 O27 1.721530 1_654
H22 O31 1.017241 1_555
H23 O35 0.981533 1_555
H24 O33 1.004366 1_555
H24 O24 1.721530 1_455
H25 O34 1.017241 1_555
O0 P0 1.629466 1_555
O1 P1 1.545405 1_455
O2 P2 1.656517 1_565
O3 P3 1.629466 1_555
O4 P4 1.545405 1_655
O5 P5 1.656517 1_545
O6 P0 1.510410 1_555
O7 P1 1.540306 1_555
O8 P2 1.510665 1_555
O9 P3 1.510410 1_555
O10 P4 1.540306 1_555
O11 P5 1.510665 1_555
O12 P0 1.532836 1_555
O13 P1 1.574455 1_555
O14 P2 1.531430 1_555
O15 P3 1.532836 1_555
O16 P4 1.574455 1_555
O17 P5 1.531430 1_555
O18 P0 1.521013 1_555
O19 P1 1.531872 1_555
O20 P2 1.521942 1_555
O21 P3 1.521013 1_555
O22 P4 1.531872 1_555
O23 P5 1.521942 1_555
