# generated using pymatgen
data_RbYbZnTe3
_symmetry_space_group_name_H-M   'P 1'
_cell_length_a   8.80915147
_cell_length_b   8.80915147
_cell_length_c   11.75148200
_cell_angle_alpha   90.00000000
_cell_angle_beta   90.00000000
_cell_angle_gamma   151.92776862
_symmetry_Int_Tables_number   1
_chemical_formula_structural   RbYbZnTe3
_chemical_formula_sum   'Rb2 Yb2 Zn2 Te6'
_cell_volume   429.13924114
_cell_formula_units_Z   2
loop_
 _symmetry_equiv_pos_site_id
 _symmetry_equiv_pos_as_xyz
  1  'x, y, z'
loop_
 _atom_site_type_symbol
 _atom_site_label
 _atom_site_symmetry_multiplicity
 _atom_site_fract_x
 _atom_site_fract_y
 _atom_site_fract_z
 _atom_site_occupancy
  Rb  Rb0  1  0.25453000  0.74547000  0.25000000  1
  Rb  Rb1  1  0.74547000  0.25453000  0.75000000  1
  Yb  Yb0  1  0.00000000  0.00000000  0.00000000  1
  Yb  Yb1  1  0.00000000  0.00000000  0.50000000  1
  Zn  Zn0  1  0.53770300  0.46229700  0.25000000  1
  Zn  Zn1  1  0.46229700  0.53770300  0.75000000  1
  Te  Te0  1  0.62690500  0.37309500  0.06377900  1
  Te  Te1  1  0.37309500  0.62690500  0.93622100  1
  Te  Te2  1  0.37309500  0.62690500  0.56377900  1
  Te  Te3  1  0.62690500  0.37309500  0.43622100  1
  Te  Te4  1  0.93785900  0.06214100  0.25000000  1
  Te  Te5  1  0.06214100  0.93785900  0.75000000  1
loop_
_geom_bond_atom_site_label_1
_geom_bond_atom_site_label_2
_geom_bond_distance
_geom_bond_site_symmetry_2
Rb0 Te0 3.756618 1_455
Rb0 Te0 3.756618 1_565
Rb0 Te3 3.756618 1_455
Rb0 Te3 3.756618 1_565
Rb0 Te4 3.792568 1_455
Rb0 Te4 3.792568 1_565
Rb0 Te2 4.207561 1_555
Rb0 Te1 4.207561 1_554
Rb1 Te1 3.756618 1_655
Rb1 Te2 3.756618 1_655
Rb1 Te1 3.756618 1_545
Rb1 Te2 3.756618 1_545
Rb1 Te5 3.792568 1_545
Rb1 Te5 3.792568 1_655
Rb1 Te3 4.207561 1_555
Rb1 Te0 4.207561 1_556
Te0 Zn0 2.667129 1_555
Te0 Yb0 3.135508 1_555
Te0 Yb0 3.135508 1_665
Te1 Zn1 2.667129 1_555
Te1 Yb0 3.135508 1_556
Te1 Yb0 3.135508 1_666
Te2 Zn1 2.667129 1_555
Te2 Yb1 3.135508 1_555
Te2 Yb1 3.135508 1_665
Te3 Zn0 2.667129 1_555
Te3 Yb1 3.135508 1_555
Te3 Yb1 3.135508 1_665
Te4 Zn0 2.734418 1_655
Te4 Zn0 2.734418 1_545
Te4 Yb0 3.123973 1_655
Te4 Yb1 3.123973 1_655
Te5 Zn1 2.734418 1_565
Te5 Zn1 2.734418 1_455
Te5 Yb0 3.123973 1_566
Te5 Yb1 3.123973 1_565
