# generated using pymatgen
data_Ca(HoS2)2
_symmetry_space_group_name_H-M   'P 1'
_cell_length_a   3.87725333
_cell_length_b   12.91873176
_cell_length_c   13.08300755
_cell_angle_alpha   89.99998158
_cell_angle_beta   90.00002861
_cell_angle_gamma   90.00000112
_symmetry_Int_Tables_number   1
_chemical_formula_structural   Ca(HoS2)2
_chemical_formula_sum   'Ca4 Ho8 S16'
_cell_volume   655.31732599
_cell_formula_units_Z   4
loop_
 _symmetry_equiv_pos_site_id
 _symmetry_equiv_pos_as_xyz
  1  'x, y, z'
loop_
 _atom_site_type_symbol
 _atom_site_label
 _atom_site_symmetry_multiplicity
 _atom_site_fract_x
 _atom_site_fract_y
 _atom_site_fract_z
 _atom_site_occupancy
  Ca  Ca0  1  0.24999950  0.36928034  0.58287137  1
  Ca  Ca1  1  0.24999827  0.86927971  0.91712879  1
  Ca  Ca2  1  0.74999934  0.63072018  0.41712842  1
  Ca  Ca3  1  0.75000246  0.13071988  0.08287119  1
  Ho  Ho0  1  0.24999977  0.10720245  0.41637008  1
  Ho  Ho1  1  0.24999931  0.60720237  0.08362993  1
  Ho  Ho2  1  0.74999927  0.89279770  0.58362967  1
  Ho  Ho3  1  0.74999984  0.39279780  0.91637012  1
  Ho  Ho4  1  0.24999891  0.14660649  0.79766638  1
  Ho  Ho5  1  0.25000039  0.64660634  0.70233373  1
  Ho  Ho6  1  0.74999989  0.85339368  0.20233342  1
  Ho  Ho7  1  0.74999980  0.35339342  0.29766633  1
  S  S0  1  0.25000037  0.21741260  0.23747896  1
  S  S1  1  0.25000000  0.71741284  0.26252073  1
  S  S2  1  0.75000026  0.78258740  0.76252060  1
  S  S3  1  0.74999996  0.28258739  0.73747916  1
  S  S4  1  0.25000056  0.25752485  0.97413664  1
  S  S5  1  0.24999998  0.75752468  0.52586321  1
  S  S6  1  0.75000007  0.74247524  0.02586317  1
  S  S7  1  0.75000004  0.24247520  0.47413667  1
  S  S8  1  0.25000020  0.47000216  0.38219618  1
  S  S9  1  0.25000056  0.97000214  0.11780357  1
  S  S10  1  0.75000035  0.52999715  0.61780539  1
  S  S11  1  0.74999991  0.02999772  0.88219596  1
  S  S12  1  0.25000044  0.03399843  0.61761166  1
  S  S13  1  0.25000045  0.53399846  0.88238800  1
  S  S14  1  0.75000058  0.96600182  0.38238793  1
  S  S15  1  0.75000052  0.46600157  0.11761175  1
loop_
_geom_bond_atom_site_label_1
_geom_bond_atom_site_label_2
_geom_bond_distance
_geom_bond_site_symmetry_2
Ca0 S10 2.877150 1_455
Ca0 S10 2.877154 1_555
Ca0 S7 2.909564 1_455
Ca0 S7 2.909568 1_555
Ca0 S8 2.930192 1_555
Ca0 S3 3.017291 1_455
Ca0 S3 3.017292 1_555
Ca1 S11 2.877157 1_465
Ca1 S11 2.877165 1_565
Ca1 S6 2.909554 1_456
Ca1 S6 2.909563 1_556
Ca1 S9 2.930191 1_556
Ca1 S2 3.017286 1_455
Ca1 S2 3.017298 1_555
Ca2 S8 2.877158 1_555
Ca2 S8 2.877162 1_655
Ca2 S5 2.909561 1_555
Ca2 S5 2.909563 1_655
Ca2 S10 2.930220 1_555
Ca2 S1 3.017287 1_555
Ca2 S1 3.017291 1_655
Ca3 S9 2.877152 1_645
Ca3 S9 2.877163 1_545
Ca3 S4 2.909559 1_654
Ca3 S4 2.909568 1_554
Ca3 S11 2.930195 1_554
Ca3 S0 3.017284 1_655
Ca3 S0 3.017296 1_555
Ho0 S14 2.698774 1_445
Ho0 S14 2.698779 1_545
Ho0 S7 2.717239 1_455
Ho0 S7 2.717239 1_555
Ho0 S0 2.739483 1_555
Ho0 S12 2.797539 1_555
Ho1 S15 2.698774 1_455
Ho1 S15 2.698780 1_555
Ho1 S6 2.717238 1_455
Ho1 S6 2.717243 1_555
Ho1 S1 2.739482 1_555
Ho1 S13 2.797544 1_554
Ho2 S12 2.698774 1_565
Ho2 S12 2.698780 1_665
Ho2 S5 2.717239 1_555
Ho2 S5 2.717243 1_655
Ho2 S2 2.739481 1_555
Ho2 S14 2.797542 1_555
Ho3 S13 2.698775 1_555
Ho3 S13 2.698778 1_655
Ho3 S4 2.717238 1_555
Ho3 S4 2.717242 1_655
Ho3 S3 2.739483 1_555
Ho3 S15 2.797539 1_556
Ho4 S11 2.692699 1_455
Ho4 S11 2.692704 1_555
Ho4 S4 2.717288 1_555
Ho4 S3 2.732087 1_455
Ho4 S3 2.732093 1_555
Ho4 S12 2.768651 1_555
Ho5 S10 2.692698 1_455
Ho5 S10 2.692699 1_555
Ho5 S5 2.717290 1_555
Ho5 S2 2.732090 1_555
Ho5 S2 2.732091 1_455
Ho5 S13 2.768644 1_555
Ho6 S9 2.692699 1_555
Ho6 S9 2.692703 1_655
Ho6 S6 2.717289 1_555
Ho6 S1 2.732090 1_555
Ho6 S1 2.732090 1_655
Ho6 S14 2.768650 1_555
Ho7 S8 2.692703 1_555
Ho7 S8 2.692704 1_655
Ho7 S7 2.717287 1_555
Ho7 S0 2.732088 1_555
Ho7 S0 2.732092 1_655
Ho7 S15 2.768650 1_555
