# generated using pymatgen
data_Nb2ReO8
_symmetry_space_group_name_H-M   'P 1'
_cell_length_a   10.52458480
_cell_length_b   10.52458480
_cell_length_c   5.19297823
_cell_angle_alpha   89.37932632
_cell_angle_beta   89.37932632
_cell_angle_gamma   34.03370482
_symmetry_Int_Tables_number   1
_chemical_formula_structural   Nb2ReO8
_chemical_formula_sum   'Nb4 Re2 O16'
_cell_volume   321.91317325
_cell_formula_units_Z   2
loop_
 _symmetry_equiv_pos_site_id
 _symmetry_equiv_pos_as_xyz
  1  'x, y, z'
loop_
 _atom_site_type_symbol
 _atom_site_label
 _atom_site_symmetry_multiplicity
 _atom_site_fract_x
 _atom_site_fract_y
 _atom_site_fract_z
 _atom_site_occupancy
  Nb  Nb0  1  0.68604900  0.05076600  0.74400800  1
  Nb  Nb1  1  0.94923400  0.31395100  0.75599200  1
  Nb  Nb2  1  0.31395100  0.94923400  0.25599200  1
  Nb  Nb3  1  0.05076600  0.68604900  0.24400800  1
  Re  Re0  1  0.34937800  0.65062200  0.75000000  1
  Re  Re1  1  0.65062200  0.34937800  0.25000000  1
  O  O0  1  0.76536100  0.11829700  0.41251700  1
  O  O1  1  0.88170300  0.23463900  0.08748300  1
  O  O2  1  0.23463900  0.88170300  0.58748300  1
  O  O3  1  0.11829700  0.76536100  0.91251700  1
  O  O4  1  0.56402300  0.33583000  0.92347000  1
  O  O5  1  0.66417000  0.43597700  0.57653000  1
  O  O6  1  0.43597700  0.66417000  0.07653000  1
  O  O7  1  0.33583000  0.56402300  0.42347000  1
  O  O8  1  0.75613700  0.92360600  0.07344800  1
  O  O9  1  0.07639400  0.24386300  0.42655200  1
  O  O10  1  0.19415000  0.43261000  0.14167400  1
  O  O11  1  0.56739000  0.80585000  0.35832600  1
  O  O12  1  0.80585000  0.56739000  0.85832600  1
  O  O13  1  0.43261000  0.19415000  0.64167400  1
  O  O14  1  0.92360600  0.75613700  0.57344800  1
  O  O15  1  0.24386300  0.07639400  0.92655200  1
loop_
_geom_bond_atom_site_label_1
_geom_bond_atom_site_label_2
_geom_bond_distance
_geom_bond_site_symmetry_2
Nb0 O13 1.736754 1_555
Nb0 O8 1.898282 1_546
Nb0 O14 1.952627 1_545
Nb0 O0 2.256297 1_555
Nb0 O4 2.273211 1_555
Nb1 O12 1.736754 1_555
Nb1 O9 1.898282 1_655
Nb1 O15 1.952627 1_655
Nb1 O1 2.256297 1_556
Nb1 O5 2.273211 1_555
Nb2 O11 1.736754 1_555
Nb2 O15 1.898282 1_564
Nb2 O9 1.952627 1_565
Nb2 O2 2.256297 1_555
Nb2 O6 2.273211 1_555
Nb3 O10 1.736754 1_555
Nb3 O14 1.898282 1_455
Nb3 O8 1.952627 1_455
Nb3 O3 2.256297 1_554
Nb3 O7 2.273211 1_555
O0 Re1 1.787530 1_555
O1 Re1 1.787530 1_555
O2 Re0 1.787530 1_555
O3 Re0 1.787530 1_555
O4 Re1 1.995094 1_556
O4 Re0 2.113258 1_555
O5 Re1 1.995094 1_555
O5 Re0 2.113258 1_555
O6 Re0 1.995094 1_554
O6 Re1 2.113258 1_555
O7 Re0 1.995094 1_555
O7 Re1 2.113258 1_555
