# generated using pymatgen
data_Ce2In2PdRh
_symmetry_space_group_name_H-M   'P 1'
_cell_length_a   4.09667000
_cell_length_b   7.68478800
_cell_length_c   13.13872024
_cell_angle_alpha   89.98915024
_cell_angle_beta   90.00000000
_cell_angle_gamma   90.00000000
_symmetry_Int_Tables_number   1
_chemical_formula_structural   Ce2In2PdRh
_chemical_formula_sum   'Ce6 In6 Pd3 Rh3'
_cell_volume   413.63371458
_cell_formula_units_Z   3
loop_
 _symmetry_equiv_pos_site_id
 _symmetry_equiv_pos_as_xyz
  1  'x, y, z'
loop_
 _atom_site_type_symbol
 _atom_site_label
 _atom_site_symmetry_multiplicity
 _atom_site_fract_x
 _atom_site_fract_y
 _atom_site_fract_z
 _atom_site_occupancy
  Ce  Ce0  1  0.50000000  0.40760800  0.00126600  1
  Ce  Ce1  1  0.50000000  0.90988200  0.49391500  1
  Ce  Ce2  1  0.50000000  0.79824700  0.79712700  1
  Ce  Ce3  1  0.50000000  0.28797800  0.29904200  1
  Ce  Ce4  1  0.50000000  0.29737600  0.70187100  1
  Ce  Ce5  1  0.50000000  0.80503300  0.20704300  1
  In  In0  1  0.00000000  0.74959900  0.00140300  1
  In  In1  1  0.00000000  0.24791700  0.49919700  1
  In  In2  1  0.00000000  0.62785400  0.62385300  1
  In  In3  1  0.00000000  0.12580300  0.12521200  1
  In  In4  1  0.00000000  0.12627700  0.87536600  1
  In  In5  1  0.00000000  0.62503200  0.37491000  1
  Pd  Pd0  1  0.00000000  0.00017900  0.66645900  1
  Pd  Pd1  1  0.00000000  0.49981200  0.16625600  1
  Pd  Pd2  1  0.00000000  0.49971700  0.83361100  1
  Rh  Rh0  1  0.00000000  0.99989200  0.33343000  1
  Rh  Rh1  1  0.50000000  0.99657900  0.99981200  1
  Rh  Rh2  1  0.50000000  0.49541500  0.50022800  1
loop_
_geom_bond_atom_site_label_1
_geom_bond_atom_site_label_2
_geom_bond_distance
_geom_bond_site_symmetry_2
Ce0 Pd1 3.065534 1_555
Ce0 Pd1 3.065534 1_655
Ce0 Pd2 3.090037 1_654
Ce0 Pd2 3.090037 1_554
Ce0 Rh1 3.158732 1_544
Ce0 In0 3.332077 1_555
Ce0 In0 3.332077 1_655
Ce0 In3 3.396498 1_655
Ce0 In3 3.396498 1_555
Ce0 In4 3.406964 1_654
Ce0 In4 3.406964 1_554
Ce1 Rh0 3.019874 1_655
Ce1 Rh0 3.019874 1_555
Ce1 Pd0 3.133227 1_565
Ce1 Pd0 3.133227 1_665
Ce1 Rh2 3.186155 1_555
Ce1 In1 3.308889 1_665
Ce1 In1 3.308889 1_565
Ce1 In5 3.381347 1_555
Ce1 In5 3.381347 1_655
Ce1 In2 3.436011 1_655
Ce1 In2 3.436011 1_555
Ce2 Rh1 3.068586 1_555
Ce2 Pd0 3.090340 1_565
Ce2 Pd0 3.090340 1_665
Ce2 Pd2 3.112574 1_655
Ce2 Pd2 3.112574 1_555
Ce2 In2 3.330814 1_655
Ce2 In2 3.330814 1_555
Ce2 In0 3.396839 1_556
Ce2 In0 3.396839 1_656
Ce2 In4 3.407051 1_665
Ce2 In4 3.407051 1_565
Ce3 Rh0 3.049705 1_645
Ce3 Rh0 3.049705 1_545
Ce3 Rh2 3.087063 1_555
Ce3 Pd1 3.144586 1_655
Ce3 Pd1 3.144586 1_555
Ce3 In3 3.311523 1_655
Ce3 In3 3.311523 1_555
Ce3 In1 3.347520 1_555
Ce3 In1 3.347520 1_655
Ce3 In5 3.449545 1_555
Ce3 In5 3.449545 1_655
Ce4 Rh2 3.055089 1_555
Ce4 Pd2 3.100090 1_555
Ce4 Pd2 3.100090 1_655
Ce4 Pd0 3.103020 1_655
Ce4 Pd0 3.103020 1_555
Ce4 In4 3.334596 1_555
Ce4 In4 3.334596 1_655
Ce4 In1 3.381041 1_555
Ce4 In1 3.381041 1_655
Ce4 In2 3.419835 1_655
Ce4 In2 3.419835 1_555
Ce5 Rh0 3.032564 1_555
Ce5 Rh0 3.032564 1_655
Ce5 Rh1 3.094932 1_554
Ce5 Pd1 3.159901 1_655
Ce5 Pd1 3.159901 1_555
Ce5 In5 3.312467 1_655
Ce5 In5 3.312467 1_555
Ce5 In3 3.380399 1_565
Ce5 In3 3.380399 1_665
Ce5 In0 3.417245 1_655
Ce5 In0 3.417245 1_555
In0 Rh1 2.792572 1_554
In0 Rh1 2.792572 1_454
In0 Pd1 2.893874 1_555
In0 Pd2 2.923911 1_554
In1 Rh2 2.795238 1_455
In1 Rh2 2.795238 1_555
In1 Rh0 2.894481 1_545
In1 Pd0 2.907302 1_555
In2 Rh2 2.805426 1_555
In2 Rh2 2.805426 1_455
In2 Pd0 2.915589 1_565
In2 Pd2 2.926412 1_555
In3 Rh1 2.810166 1_544
In3 Rh1 2.810166 1_444
In3 Rh0 2.901620 1_545
In3 Pd1 2.924432 1_555
In4 Rh1 2.803908 1_445
In4 Rh1 2.803908 1_545
In4 Pd0 2.910980 1_555
In4 Pd2 2.921672 1_555
In5 Rh2 2.810383 1_455
In5 Rh2 2.810383 1_555
In5 Pd1 2.905603 1_555
In5 Rh0 2.931718 1_555
