# generated using pymatgen
data_Na2PtO3
_symmetry_space_group_name_H-M   'P 1'
_cell_length_a   5.65062608
_cell_length_b   5.65062608
_cell_length_c   5.65062608
_cell_angle_alpha   147.25314117
_cell_angle_beta   133.55559175
_cell_angle_gamma   57.98598264
_symmetry_Int_Tables_number   1
_chemical_formula_structural   Na2PtO3
_chemical_formula_sum   'Na2 Pt1 O3'
_cell_volume   70.16375504
_cell_formula_units_Z   1
loop_
 _symmetry_equiv_pos_site_id
 _symmetry_equiv_pos_as_xyz
  1  'x, y, z'
loop_
 _atom_site_type_symbol
 _atom_site_label
 _atom_site_symmetry_multiplicity
 _atom_site_fract_x
 _atom_site_fract_y
 _atom_site_fract_z
 _atom_site_occupancy
  Na  Na0  1  0.67091400  0.67091400  0.00000000  1
  Na  Na1  1  0.32908600  0.32908600  0.00000000  1
  Pt  Pt0  1  0.00000000  0.00000000  0.00000000  1
  O  O0  1  0.50000000  0.00000000  0.50000000  1
  O  O1  1  0.13284200  0.63284200  0.50000000  1
  O  O2  1  0.86715800  0.36715800  0.50000000  1
loop_
_geom_bond_atom_site_label_1
_geom_bond_atom_site_label_2
_geom_bond_distance
_geom_bond_site_symmetry_2
Na0 O1 2.259592 1_655
Na0 O1 2.259592 1_554
Na0 O0 2.321992 1_565
Na0 O0 2.321992 1_554
Na0 O2 2.510057 1_565
Na0 O2 2.510057 1_554
Na1 O2 2.259592 1_454
Na1 O2 2.259592 1_555
Na1 O0 2.321992 1_565
Na1 O0 2.321992 1_554
Na1 O1 2.510057 1_555
Na1 O1 2.510057 1_544
O0 Pt0 2.228031 1_555
O0 Pt0 2.228031 1_656
O1 Pt0 2.064374 1_555
O1 Pt0 2.064374 1_566
O2 Pt0 2.064374 1_655
O2 Pt0 2.064374 1_666
