# generated using pymatgen
data_TbAlCu
_symmetry_space_group_name_H-M   'P 1'
_cell_length_a   5.37972204
_cell_length_b   5.37972204
_cell_length_c   5.37972204
_cell_angle_alpha   119.19488770
_cell_angle_beta   119.10818318
_cell_angle_gamma   91.47599137
_symmetry_Int_Tables_number   1
_chemical_formula_structural   TbAlCu
_chemical_formula_sum   'Tb2 Al2 Cu2'
_cell_volume   111.46602186
_cell_formula_units_Z   2
loop_
 _symmetry_equiv_pos_site_id
 _symmetry_equiv_pos_as_xyz
  1  'x, y, z'
loop_
 _atom_site_type_symbol
 _atom_site_label
 _atom_site_symmetry_multiplicity
 _atom_site_fract_x
 _atom_site_fract_y
 _atom_site_fract_z
 _atom_site_occupancy
  Tb  Tb0  1  0.12401200  0.87401200  0.25000000  1
  Tb  Tb1  1  0.87598800  0.12598800  0.75000000  1
  Al  Al0  1  0.50000000  0.50000000  0.50000000  1
  Al  Al1  1  0.50000000  0.00000000  0.00000000  1
  Cu  Cu0  1  0.50000000  0.50000000  0.00000000  1
  Cu  Cu1  1  0.00000000  0.50000000  0.50000000  1
loop_
_geom_bond_atom_site_label_1
_geom_bond_atom_site_label_2
_geom_bond_distance
_geom_bond_site_symmetry_2
Tb0 Tb1 3.298660 1_454
Tb0 Tb1 3.298660 1_465
Tb0 Tb1 3.318390 1_464
Tb0 Tb1 3.318390 1_565
Al0 Cu0 2.689861 1_555
Al0 Cu1 2.689861 1_555
Al0 Cu0 2.689861 1_556
Al0 Cu1 2.689861 1_655
Al0 Al1 2.722528 1_555
Al0 Al1 2.722528 1_566
Al0 Tb0 3.134484 1_545
Al0 Tb1 3.134484 1_565
Al0 Tb0 3.186153 1_555
Al0 Tb1 3.186153 1_555
Al0 Tb1 3.186153 1_454
Al0 Tb0 3.186153 1_656
Al1 Cu1 2.689861 1_544
Al1 Cu1 2.689861 1_655
Al1 Cu0 2.689861 1_555
Al1 Cu0 2.689861 1_545
Al1 Tb0 3.134484 1_545
Al1 Tb1 3.134484 1_554
Al1 Tb1 3.186153 1_454
Al1 Tb0 3.186153 1_645
Al1 Tb1 3.186153 1_555
Al1 Tb0 3.186153 1_544
Cu0 Cu1 2.726038 1_554
Cu0 Cu1 2.726038 1_655
Cu0 Tb1 3.121890 1_454
Cu0 Tb0 3.121890 1_655
Cu0 Tb0 3.188273 1_555
Cu0 Tb0 3.188273 1_544
Cu0 Tb1 3.188273 1_554
Cu0 Tb1 3.188273 1_565
Cu1 Tb0 3.121890 1_555
Cu1 Tb1 3.121890 1_455
Cu1 Tb0 3.188273 1_545
Cu1 Tb0 3.188273 1_556
Cu1 Tb1 3.188273 1_454
Cu1 Tb1 3.188273 1_465
