# generated using pymatgen
data_MgMn2O4
_symmetry_space_group_name_H-M   'P 1'
_cell_length_a   10.31650400
_cell_length_b   5.15442500
_cell_length_c   6.02597521
_cell_angle_alpha   88.12766734
_cell_angle_beta   90.00000000
_cell_angle_gamma   90.00000000
_symmetry_Int_Tables_number   1
_chemical_formula_structural   MgMn2O4
_chemical_formula_sum   'Mg4 Mn8 O16'
_cell_volume   320.26404814
_cell_formula_units_Z   4
loop_
 _symmetry_equiv_pos_site_id
 _symmetry_equiv_pos_as_xyz
  1  'x, y, z'
loop_
 _atom_site_type_symbol
 _atom_site_label
 _atom_site_symmetry_multiplicity
 _atom_site_fract_x
 _atom_site_fract_y
 _atom_site_fract_z
 _atom_site_occupancy
  Mg  Mg0  1  0.75000000  0.14411200  0.24686200  1
  Mg  Mg1  1  0.25000000  0.85588800  0.75313800  1
  Mg  Mg2  1  0.25000000  0.51399700  0.25948100  1
  Mg  Mg3  1  0.75000000  0.48600300  0.74051900  1
  Mn  Mn0  1  0.48431300  0.48844800  0.75229800  1
  Mn  Mn1  1  0.01568700  0.48844800  0.75229800  1
  Mn  Mn2  1  0.51568700  0.51155200  0.24770200  1
  Mn  Mn3  1  0.98431300  0.51155200  0.24770200  1
  Mn  Mn4  1  0.50000000  0.00000000  0.50000000  1
  Mn  Mn5  1  0.00000000  0.00000000  0.00000000  1
  Mn  Mn6  1  0.50000000  0.00000000  0.00000000  1
  Mn  Mn7  1  0.00000000  0.00000000  0.50000000  1
  O  O0  1  0.39892600  0.14263300  0.74636300  1
  O  O1  1  0.10107400  0.14263300  0.74636300  1
  O  O2  1  0.60107400  0.85736700  0.25363700  1
  O  O3  1  0.89892600  0.85736700  0.25363700  1
  O  O4  1  0.60380900  0.76426900  0.74890300  1
  O  O5  1  0.89619100  0.76426900  0.74890300  1
  O  O6  1  0.39619100  0.23573100  0.25109700  1
  O  O7  1  0.10380900  0.23573100  0.25109700  1
  O  O8  1  0.61713000  0.31451400  0.47864300  1
  O  O9  1  0.88668800  0.30915400  0.97873800  1
  O  O10  1  0.38668800  0.69084600  0.02126200  1
  O  O11  1  0.11713000  0.68548600  0.52135700  1
  O  O12  1  0.38287000  0.68548600  0.52135700  1
  O  O13  1  0.11331200  0.69084600  0.02126200  1
  O  O14  1  0.61331200  0.30915400  0.97873800  1
  O  O15  1  0.88287000  0.31451400  0.47864300  1
loop_
_geom_bond_atom_site_label_1
_geom_bond_atom_site_label_2
_geom_bond_distance
_geom_bond_site_symmetry_2
Mg0 O2 2.131370 1_545
Mg0 O3 2.131370 1_545
Mg0 O8 2.163648 1_555
Mg0 O15 2.163648 1_555
Mg0 O9 2.287550 1_554
Mg0 O14 2.287550 1_554
Mg1 O0 2.131370 1_565
Mg1 O1 2.131370 1_565
Mg1 O11 2.163648 1_555
Mg1 O12 2.163648 1_555
Mg1 O10 2.287550 1_556
Mg1 O13 2.287550 1_556
Mg2 O6 2.083054 1_555
Mg2 O7 2.083054 1_555
Mg2 O10 2.189656 1_555
Mg2 O13 2.189656 1_555
Mg2 O12 2.289478 1_555
Mg2 O11 2.289478 1_555
Mg3 O5 2.083054 1_555
Mg3 O4 2.083054 1_555
Mg3 O9 2.189656 1_555
Mg3 O14 2.189656 1_555
Mg3 O8 2.289478 1_555
Mg3 O15 2.289478 1_555
Mn0 O4 1.881354 1_555
Mn0 O0 1.989635 1_555
Mn0 O12 1.992746 1_555
Mn0 O14 2.098729 1_555
Mn0 O10 2.200022 1_556
Mn0 O8 2.344604 1_555
Mn1 O5 1.881354 1_455
Mn1 O1 1.989635 1_555
Mn1 O11 1.992746 1_555
Mn1 O9 2.098729 1_455
Mn1 O13 2.200022 1_556
Mn1 O15 2.344604 1_455
Mn2 O6 1.881354 1_555
Mn2 O2 1.989635 1_555
Mn2 O8 1.992746 1_555
Mn2 O10 2.098729 1_555
Mn2 O14 2.200022 1_554
Mn2 O12 2.344604 1_555
Mn3 O7 1.881354 1_655
Mn3 O3 1.989635 1_555
Mn3 O15 1.992746 1_555
Mn3 O13 2.098729 1_655
Mn3 O9 2.200022 1_554
Mn3 O11 2.344604 1_655
Mn4 O0 1.975622 1_555
Mn4 O2 1.975622 1_545
Mn4 O8 2.022667 1_555
Mn4 O12 2.022667 1_545
Mn4 O4 2.180333 1_545
Mn4 O6 2.180333 1_555
Mn5 O1 1.972411 1_554
Mn5 O3 1.972411 1_445
Mn5 O13 1.977088 1_545
Mn5 O9 1.977088 1_454
Mn5 O7 2.243415 1_555
Mn5 O5 2.243415 1_444
Mn6 O0 1.972411 1_554
Mn6 O2 1.972411 1_545
Mn6 O14 1.977088 1_554
Mn6 O10 1.977088 1_545
Mn6 O4 2.243415 1_544
Mn6 O6 2.243415 1_555
Mn7 O1 1.975622 1_555
Mn7 O3 1.975622 1_445
Mn7 O15 2.022667 1_455
Mn7 O11 2.022667 1_545
Mn7 O7 2.180333 1_555
Mn7 O5 2.180333 1_445
