# generated using pymatgen
data_Li4MnCo2O7
_symmetry_space_group_name_H-M   'P 1'
_cell_length_a   7.76673943
_cell_length_b   7.76673943
_cell_length_c   12.93785592
_cell_angle_alpha   62.55046317
_cell_angle_beta   62.55046317
_cell_angle_gamma   21.48593481
_symmetry_Int_Tables_number   1
_chemical_formula_structural   Li4MnCo2O7
_chemical_formula_sum   'Li8 Mn2 Co4 O14'
_cell_volume   252.43690430
_cell_formula_units_Z   2
loop_
 _symmetry_equiv_pos_site_id
 _symmetry_equiv_pos_as_xyz
  1  'x, y, z'
loop_
 _atom_site_type_symbol
 _atom_site_label
 _atom_site_symmetry_multiplicity
 _atom_site_fract_x
 _atom_site_fract_y
 _atom_site_fract_z
 _atom_site_occupancy
  Li  Li0  1  0.65457800  0.65457800  0.76433100  1
  Li  Li1  1  0.91288800  0.91288800  0.37778000  1
  Li  Li2  1  0.22374200  0.22374200  0.91591200  1
  Li  Li3  1  0.07056900  0.07056900  0.64113800  1
  Li  Li4  1  0.35678700  0.35678700  0.22397500  1
  Li  Li5  1  0.49708200  0.49708200  0.50783400  1
  Li  Li6  1  0.78410000  0.78410000  0.06855800  1
  Li  Li7  1  0.28650000  0.28650000  0.57075700  1
  Mn  Mn0  1  0.00054100  0.00054100  0.00393200  1
  Mn  Mn1  1  0.14422600  0.14422600  0.28350200  1
  Co  Co0  1  0.57186000  0.57186000  0.14361600  1
  Co  Co1  1  0.85391000  0.85391000  0.69665500  1
  Co  Co2  1  0.42645200  0.42645200  0.85104100  1
  Co  Co3  1  0.71607900  0.71607900  0.44508000  1
  O  O0  1  0.59416900  0.59416900  0.98182700  1
  O  O1  1  0.89419800  0.89419800  0.54225600  1
  O  O2  1  0.16456200  0.16456200  0.11811500  1
  O  O3  1  0.02472600  0.02472600  0.84278800  1
  O  O4  1  0.31734500  0.31734500  0.38928600  1
  O  O5  1  0.45895700  0.45895700  0.68830600  1
  O  O6  1  0.73828900  0.73828900  0.24649400  1
  O  O7  1  0.67462300  0.67462300  0.59839500  1
  O  O8  1  0.97935400  0.97935400  0.16688000  1
  O  O9  1  0.25289900  0.25289900  0.75130600  1
  O  O10  1  0.11749500  0.11749500  0.44078900  1
  O  O11  1  0.40594900  0.40594900  0.03917200  1
  O  O12  1  0.55018300  0.55018300  0.30461300  1
  O  O13  1  0.82793900  0.82793900  0.89566100  1
loop_
_geom_bond_atom_site_label_1
_geom_bond_atom_site_label_2
_geom_bond_distance
_geom_bond_site_symmetry_2
Li0 O7 2.021458 1_555
Li0 O9 2.034352 1_655
Li0 O9 2.034352 1_565
Li0 O3 2.272853 1_565
Li0 O3 2.272853 1_655
Li0 O0 2.516701 1_555
Li1 O1 2.009984 1_555
Li1 O4 2.010103 1_655
Li1 O4 2.010103 1_565
Li1 O12 2.349697 1_655
Li1 O12 2.349697 1_565
Li1 O8 2.424237 1_555
Li2 O9 1.960654 1_555
Li2 O13 2.074201 1_455
Li2 O13 2.074201 1_545
Li2 O0 2.269597 1_545
Li2 O0 2.269597 1_455
Li2 O2 2.332894 1_556
Li3 O7 2.024710 1_455
Li3 O7 2.024710 1_545
Li3 O5 2.096263 1_545
Li3 O5 2.096263 1_455
Li3 O10 2.343042 1_555
Li3 O3 2.362867 1_555
Li4 O4 1.930956 1_555
Li4 O11 2.143885 1_555
Li4 O8 2.200885 1_545
Li4 O8 2.200885 1_455
Li4 O6 2.226396 1_545
Li4 O6 2.226396 1_455
Li5 O1 2.025701 1_545
Li5 O1 2.025701 1_455
Li5 O5 2.124985 1_555
Li5 O10 2.174754 1_655
Li5 O10 2.174754 1_565
Li5 O12 2.360135 1_555
Li6 O13 2.011726 1_554
Li6 O6 2.068379 1_555
Li6 O2 2.176585 1_655
Li6 O2 2.176585 1_565
Li6 O11 2.243897 1_655
Li6 O11 2.243897 1_565
Li7 O1 2.089176 1_545
Li7 O1 2.089176 1_455
Li7 O7 2.136839 1_455
Li7 O7 2.136839 1_545
Li7 O9 2.143696 1_555
Li7 O4 2.167225 1_555
Mn0 O3 1.939271 1_554
Mn0 O11 1.941694 1_455
Mn0 O11 1.941694 1_545
Mn0 O0 1.958568 1_454
Mn0 O0 1.958568 1_544
Mn0 O8 1.977217 1_445
Mn1 O10 1.878421 1_555
Mn1 O6 1.934155 1_455
Mn1 O6 1.934155 1_545
Mn1 O12 1.965339 1_455
Mn1 O12 1.965339 1_545
Mn1 O2 2.012885 1_555
Co0 O2 1.941218 1_655
Co0 O2 1.941218 1_565
Co0 O8 1.944449 1_455
Co0 O8 1.944449 1_545
Co0 O12 1.949751 1_555
Co0 O0 1.956698 1_554
Co1 O1 1.793288 1_555
Co1 O9 1.987330 1_565
Co1 O9 1.987330 1_655
Co1 O5 2.124904 1_565
Co1 O5 2.124904 1_655
Co1 O13 2.414255 1_555
Co2 O5 1.923249 1_555
Co2 O13 1.968528 1_455
Co2 O13 1.968528 1_545
Co2 O3 2.050962 1_655
Co2 O3 2.050962 1_565
Co2 O11 2.303833 1_556
Co3 O7 1.776850 1_555
Co3 O4 1.989622 1_655
Co3 O4 1.989622 1_565
Co3 O10 2.107366 1_565
Co3 O10 2.107366 1_655
Co3 O6 2.428760 1_555
