# generated using pymatgen
data_CaVCu3Se4
_symmetry_space_group_name_H-M   'P 1'
_cell_length_a   5.95305900
_cell_length_b   5.95305900
_cell_length_c   5.95305900
_cell_angle_alpha   90.00000000
_cell_angle_beta   90.00000000
_cell_angle_gamma   90.00000000
_symmetry_Int_Tables_number   1
_chemical_formula_structural   CaVCu3Se4
_chemical_formula_sum   'Ca1 V1 Cu3 Se4'
_cell_volume   210.96993080
_cell_formula_units_Z   1
loop_
 _symmetry_equiv_pos_site_id
 _symmetry_equiv_pos_as_xyz
  1  'x, y, z'
loop_
 _atom_site_type_symbol
 _atom_site_label
 _atom_site_symmetry_multiplicity
 _atom_site_fract_x
 _atom_site_fract_y
 _atom_site_fract_z
 _atom_site_occupancy
  Ca  Ca0  1  0.50000000  0.50000000  0.50000000  1
  V  V0  1  0.00000000  0.00000000  0.00000000  1
  Cu  Cu0  1  0.00000000  0.50000000  0.00000000  1
  Cu  Cu1  1  0.00000000  0.00000000  0.50000000  1
  Cu  Cu2  1  0.50000000  0.00000000  0.00000000  1
  Se  Se0  1  0.23199600  0.23199600  0.23199600  1
  Se  Se1  1  0.76800400  0.76800400  0.23199600  1
  Se  Se2  1  0.23199600  0.76800400  0.76800400  1
  Se  Se3  1  0.76800400  0.23199600  0.76800400  1
loop_
_geom_bond_atom_site_label_1
_geom_bond_atom_site_label_2
_geom_bond_distance
_geom_bond_site_symmetry_2
Ca0 Se3 2.763389 1_555
Ca0 Se2 2.763389 1_555
Ca0 Se0 2.763389 1_555
Ca0 Se1 2.763389 1_555
Cu0 Se1 2.521951 1_455
Cu0 Se0 2.521951 1_555
Cu0 Se3 2.521951 1_454
Cu0 Se2 2.521951 1_554
Cu1 Se1 2.521951 1_445
Cu1 Se2 2.521951 1_545
Cu1 Se3 2.521951 1_455
Cu1 Se0 2.521951 1_555
Cu2 Se2 2.521951 1_544
Cu2 Se0 2.521951 1_555
Cu2 Se1 2.521951 1_545
Cu2 Se3 2.521951 1_554
Se0 V0 2.392111 1_555
Se1 V0 2.392111 1_665
Se2 V0 2.392111 1_566
Se3 V0 2.392111 1_656
