# generated using pymatgen
data_CoAsPd
_symmetry_space_group_name_H-M   'P 1'
_cell_length_a   3.73102700
_cell_length_b   3.73102700
_cell_length_c   6.30949900
_cell_angle_alpha   90.00000000
_cell_angle_beta   90.00000000
_cell_angle_gamma   90.00000000
_symmetry_Int_Tables_number   1
_chemical_formula_structural   CoAsPd
_chemical_formula_sum   'Co2 As2 Pd2'
_cell_volume   87.83177501
_cell_formula_units_Z   2
loop_
 _symmetry_equiv_pos_site_id
 _symmetry_equiv_pos_as_xyz
  1  'x, y, z'
loop_
 _atom_site_type_symbol
 _atom_site_label
 _atom_site_symmetry_multiplicity
 _atom_site_fract_x
 _atom_site_fract_y
 _atom_site_fract_z
 _atom_site_occupancy
  Co  Co0  1  0.00000000  0.50000000  0.63424000  1
  Co  Co1  1  0.50000000  0.00000000  0.36576000  1
  As  As0  1  0.00000000  0.50000000  0.28296500  1
  As  As1  1  0.50000000  0.00000000  0.71703500  1
  Pd  Pd0  1  0.00000000  0.00000000  0.00000000  1
  Pd  Pd1  1  0.50000000  0.50000000  0.00000000  1
loop_
_geom_bond_atom_site_label_1
_geom_bond_atom_site_label_2
_geom_bond_distance
_geom_bond_site_symmetry_2
Co0 Pd0 2.967475 1_556
Co0 Pd1 2.967475 1_456
Co0 Pd1 2.967475 1_556
Co0 Pd0 2.967475 1_566
Co1 Pd1 2.967475 1_555
Co1 Pd1 2.967475 1_545
Co1 Pd0 2.967475 1_655
Co1 Pd0 2.967475 1_555
As0 Co0 2.216369 1_555
As0 Pd1 2.582185 1_555
As0 Pd1 2.582185 1_455
As0 Pd0 2.582185 1_555
As0 Pd0 2.582185 1_565
As0 Co1 2.689457 1_555
As0 Co1 2.689457 1_565
As0 Co1 2.689457 1_455
As0 Co1 2.689457 1_465
As1 Co1 2.216369 1_555
As1 Pd1 2.582185 1_546
As1 Pd0 2.582185 1_656
As1 Pd1 2.582185 1_556
As1 Pd0 2.582185 1_556
As1 Co0 2.689457 1_545
As1 Co0 2.689457 1_655
As1 Co0 2.689457 1_645
As1 Co0 2.689457 1_555
Pd0 Pd1 2.638234 1_455
Pd0 Pd1 2.638234 1_555
Pd0 Pd1 2.638234 1_445
Pd0 Pd1 2.638234 1_545
