# generated using pymatgen
data_BaNaSmMnO6
_symmetry_space_group_name_H-M   'P 1'
_cell_length_a   8.37443662
_cell_length_b   8.37352463
_cell_length_c   8.38598223
_cell_angle_alpha   90.00000000
_cell_angle_beta   90.00000000
_cell_angle_gamma   90.00000000
_symmetry_Int_Tables_number   1
_chemical_formula_structural   BaNaSmMnO6
_chemical_formula_sum   'Ba4 Na4 Sm4 Mn4 O24'
_cell_volume   588.05485511
_cell_formula_units_Z   4
loop_
 _symmetry_equiv_pos_site_id
 _symmetry_equiv_pos_as_xyz
  1  'x, y, z'
loop_
 _atom_site_type_symbol
 _atom_site_label
 _atom_site_symmetry_multiplicity
 _atom_site_fract_x
 _atom_site_fract_y
 _atom_site_fract_z
 _atom_site_occupancy
  Ba  Ba0  1  0.00000000  -0.00000000  0.00000000  1
  Ba  Ba1  1  0.50000000  0.50000000  0.50000000  1
  Ba  Ba2  1  0.50000000  0.50000000  0.00000000  1
  Ba  Ba3  1  0.00000000  0.00000000  0.50000000  1
  Na  Na0  1  0.00000000  0.50000000  0.50000000  1
  Na  Na1  1  0.50000000  0.00000000  0.50000000  1
  Na  Na2  1  0.50000000  -0.00000000  0.00000000  1
  Na  Na3  1  0.00000000  0.50000000  -0.00000000  1
  Sm  Sm0  1  0.25000000  0.25000000  0.25000000  1
  Sm  Sm1  1  0.75000000  0.75000000  0.25000000  1
  Sm  Sm2  1  0.75000000  0.25000000  0.75000000  1
  Sm  Sm3  1  0.25000000  0.75000000  0.75000000  1
  Mn  Mn0  1  0.75000000  0.75000000  0.75000000  1
  Mn  Mn1  1  0.25000000  0.25000000  0.75000000  1
  Mn  Mn2  1  0.25000000  0.75000000  0.25000000  1
  Mn  Mn3  1  0.75000000  0.25000000  0.25000000  1
  O  O0  1  0.97739584  0.22674966  0.26117452  1
  O  O1  1  0.02260416  0.77325034  0.26117452  1
  O  O2  1  0.02260416  0.22674966  0.73882548  1
  O  O3  1  0.97739584  0.77325034  0.73882548  1
  O  O4  1  0.26319052  0.97647570  0.22083030  1
  O  O5  1  0.26319052  0.02352430  0.77916970  1
  O  O6  1  0.73680948  0.02352430  0.22083030  1
  O  O7  1  0.73680948  0.97647570  0.77916970  1
  O  O8  1  0.23324977  0.27932679  0.97709898  1
  O  O9  1  0.76675023  0.27932679  0.02290102  1
  O  O10  1  0.23324977  0.72067321  0.02290102  1
  O  O11  1  0.76675023  0.72067321  0.97709898  1
  O  O12  1  0.52260416  0.27325034  0.23882548  1
  O  O13  1  0.47739584  0.72674966  0.23882548  1
  O  O14  1  0.47739584  0.27325034  0.76117452  1
  O  O15  1  0.52260416  0.72674966  0.76117452  1
  O  O16  1  0.23680948  0.52352430  0.27916970  1
  O  O17  1  0.23680948  0.47647570  0.72083030  1
  O  O18  1  0.76319052  0.47647570  0.27916970  1
  O  O19  1  0.76319052  0.52352430  0.72083030  1
  O  O20  1  0.26675023  0.22067321  0.52290102  1
  O  O21  1  0.73324977  0.22067321  0.47709898  1
  O  O22  1  0.26675023  0.77932679  0.47709898  1
  O  O23  1  0.73324977  0.77932679  0.52290102  1
loop_
_geom_bond_atom_site_label_1
_geom_bond_atom_site_label_2
_geom_bond_distance
_geom_bond_site_symmetry_2
Ba0 O6 2.885514 1_455
Ba0 O4 2.885514 1_545
Ba0 O5 2.885514 1_554
Ba0 O7 2.885514 1_444
Ba0 O3 2.904801 1_444
Ba0 O2 2.904801 1_554
Ba0 O1 2.904801 1_545
Ba0 O0 2.904801 1_455
Ba0 O11 3.053373 1_444
Ba0 O10 3.053373 1_545
Ba0 O8 3.053373 1_554
Ba0 O9 3.053373 1_455
Ba1 O19 2.885514 1_555
Ba1 O17 2.885514 1_555
Ba1 O16 2.885514 1_555
Ba1 O18 2.885514 1_555
Ba1 O13 2.904801 1_555
Ba1 O15 2.904801 1_555
Ba1 O14 2.904801 1_555
Ba1 O12 2.904801 1_555
Ba1 O20 3.053373 1_555
Ba1 O22 3.053373 1_555
Ba1 O23 3.053373 1_555
Ba1 O21 3.053373 1_555
Ba2 O13 2.766229 1_555
Ba2 O12 2.766229 1_555
Ba2 O15 2.766229 1_554
Ba2 O14 2.766229 1_554
Ba2 O9 2.905430 1_555
Ba2 O8 2.905430 1_554
Ba2 O10 2.905430 1_555
Ba2 O11 2.905430 1_554
Ba2 O16 3.221419 1_555
Ba2 O18 3.221419 1_555
Ba2 O19 3.221419 1_554
Ba2 O17 3.221419 1_554
Ba3 O1 2.766229 1_545
Ba3 O0 2.766229 1_455
Ba3 O3 2.766229 1_445
Ba3 O2 2.766229 1_555
Ba3 O23 2.905430 1_445
Ba3 O22 2.905430 1_545
Ba3 O21 2.905430 1_455
Ba3 O20 2.905430 1_555
Ba3 O5 3.221419 1_555
Ba3 O7 3.221419 1_445
Ba3 O6 3.221419 1_455
Ba3 O4 3.221419 1_545
Na0 O19 2.720501 1_455
Na0 O17 2.720501 1_555
Na0 O16 2.720501 1_555
Na0 O18 2.720501 1_455
Na1 O22 2.695703 1_545
Na1 O23 2.695703 1_545
Na1 O21 2.695703 1_555
Na1 O20 2.695703 1_555
Na2 O6 2.720501 1_555
Na2 O4 2.720501 1_545
Na2 O5 2.720501 1_554
Na2 O7 2.720501 1_544
Na3 O8 2.695703 1_554
Na3 O9 2.695703 1_455
Na3 O10 2.695703 1_555
Na3 O11 2.695703 1_454
Mn0 O7 1.915299 1_555
Mn0 O19 1.915299 1_555
Mn0 O3 1.916530 1_555
Mn0 O15 1.916530 1_555
Mn0 O23 1.925332 1_555
Mn0 O11 1.925332 1_555
Mn1 O17 1.915299 1_555
Mn1 O5 1.915299 1_555
Mn1 O2 1.916530 1_555
Mn1 O14 1.916530 1_555
Mn1 O20 1.925332 1_555
Mn1 O8 1.925332 1_555
Mn2 O4 1.915299 1_555
Mn2 O16 1.915299 1_555
Mn2 O1 1.916530 1_555
Mn2 O13 1.916530 1_555
Mn2 O10 1.925332 1_555
Mn2 O22 1.925332 1_555
Mn3 O18 1.915299 1_555
Mn3 O6 1.915299 1_555
Mn3 O0 1.916530 1_555
Mn3 O12 1.916530 1_555
Mn3 O21 1.925332 1_555
Mn3 O9 1.925332 1_555
O0 Sm0 2.293108 1_655
O1 Sm1 2.293108 1_455
O2 Sm2 2.293108 1_455
O3 Sm3 2.293108 1_655
O4 Sm0 2.306035 1_565
O5 Sm3 2.306035 1_545
O6 Sm1 2.306035 1_545
O7 Sm2 2.306035 1_565
O8 Sm0 2.305951 1_556
O9 Sm2 2.305951 1_554
O10 Sm3 2.305951 1_554
O11 Sm1 2.305951 1_556
O12 Sm0 2.293108 1_555
O13 Sm1 2.293108 1_555
O14 Sm2 2.293108 1_555
O15 Sm3 2.293108 1_555
O16 Sm0 2.306035 1_555
O17 Sm3 2.306035 1_555
O18 Sm1 2.306035 1_555
O19 Sm2 2.306035 1_555
O20 Sm0 2.305951 1_555
O21 Sm2 2.305951 1_555
O22 Sm3 2.305951 1_555
O23 Sm1 2.305951 1_555
