# generated using pymatgen
data_SrCaNbCrO6
_symmetry_space_group_name_H-M   'P 1'
_cell_length_a   5.58032246
_cell_length_b   7.91435121
_cell_length_c   5.62914300
_cell_angle_alpha   89.99996521
_cell_angle_beta   89.99958091
_cell_angle_gamma   90.03626805
_symmetry_Int_Tables_number   1
_chemical_formula_structural   SrCaNbCrO6
_chemical_formula_sum   'Sr2 Ca2 Nb2 Cr2 O12'
_cell_volume   248.60897792
_cell_formula_units_Z   2
loop_
 _symmetry_equiv_pos_site_id
 _symmetry_equiv_pos_as_xyz
  1  'x, y, z'
loop_
 _atom_site_type_symbol
 _atom_site_label
 _atom_site_symmetry_multiplicity
 _atom_site_fract_x
 _atom_site_fract_y
 _atom_site_fract_z
 _atom_site_occupancy
  Sr  Sr0  1  0.50414100  0.24968600  0.97576100  1
  Sr  Sr1  1  0.00413000  0.74969300  0.52427600  1
  Ca  Ca0  1  0.49294700  0.75180200  0.03890500  1
  Ca  Ca1  1  0.99292400  0.25181700  0.46111300  1
  Nb  Nb0  1  0.49996600  0.49975600  0.50104400  1
  Nb  Nb1  1  0.99995100  0.99973200  0.99887000  1
  Cr  Cr0  1  0.99999500  0.50028000  0.99844100  1
  Cr  Cr1  1  0.49999200  0.00022100  0.50147100  1
  O  O0  1  0.79043300  0.46085900  0.70834100  1
  O  O1  1  0.29043300  0.96086300  0.79167700  1
  O  O2  1  0.22045300  0.52985100  0.27952600  1
  O  O3  1  0.72046700  0.02986000  0.22049300  1
  O  O4  1  0.72086100  0.46770500  0.22146200  1
  O  O5  1  0.22085700  0.96770600  0.27855400  1
  O  O6  1  0.29295300  0.54012900  0.78952700  1
  O  O7  1  0.79295400  0.04013500  0.71049500  1
  O  O8  1  0.55680700  0.74949000  0.48046500  1
  O  O9  1  0.05681800  0.24948000  0.01956400  1
  O  O10  1  0.42145600  0.25046600  0.51210000  1
  O  O11  1  0.92145900  0.75047200  0.98791600  1
loop_
_geom_bond_atom_site_label_1
_geom_bond_atom_site_label_2
_geom_bond_distance
_geom_bond_site_symmetry_2
Ca0 O11 2.408427 1_554
Ca0 O1 2.440065 1_554
Ca0 O6 2.453624 1_554
Ca0 O8 2.511091 1_555
Ca0 O5 2.654861 1_555
Ca0 O2 2.688699 1_555
Ca0 O3 2.737914 1_565
Ca0 O4 2.780780 1_555
Ca1 O10 2.408542 1_655
Ca1 O0 2.439896 1_555
Ca1 O7 2.453614 1_555
Ca1 O9 2.511053 1_655
Ca1 O4 2.654709 1_555
Ca1 O3 2.688623 1_555
Ca1 O2 2.737775 1_655
Ca1 O5 2.780917 1_645
Nb0 O8 2.004924 1_555
Nb0 O2 2.011224 1_555
Nb0 O4 2.015204 1_555
Nb0 O6 2.018443 1_555
Nb0 O0 2.020992 1_555
Nb0 O10 2.021713 1_555
Nb1 O9 2.005094 1_666
Nb1 O3 2.011482 1_566
Nb1 O5 2.015678 1_656
Nb1 O7 2.017954 1_565
Nb1 O1 2.020674 1_655
Nb1 O11 2.021443 1_555
Cr0 O9 2.013799 1_656
Cr0 O4 2.017002 1_556
Cr0 O2 2.017787 1_656
Cr0 O11 2.029163 1_555
Cr0 O0 2.032534 1_555
Cr0 O6 2.038221 1_655
Cr1 O8 2.013215 1_545
Cr1 O5 2.016596 1_545
Cr1 O3 2.017421 1_555
Cr1 O10 2.029589 1_555
Cr1 O1 2.032913 1_545
Cr1 O7 2.038690 1_555
O0 Sr0 2.758299 1_555
O0 Sr1 2.778063 1_655
O1 Sr1 2.758275 1_555
O1 Sr0 2.778065 1_565
O2 Sr1 2.526911 1_555
O3 Sr0 2.526785 1_554
O4 Sr0 2.519952 1_554
O5 Sr1 2.519993 1_555
O6 Sr1 2.753427 1_555
O6 Sr0 2.788402 1_555
O7 Sr0 2.753367 1_555
O7 Sr1 2.788330 1_645
O8 Sr1 2.508361 1_655
O9 Sr0 2.508353 1_554
O10 Sr0 2.650496 1_555
O11 Sr1 2.650360 1_655
