# generated using pymatgen
data_SrTl3
_symmetry_space_group_name_H-M   'P 1'
_cell_length_a   7.14648115
_cell_length_b   7.14648115
_cell_length_c   5.50614497
_cell_angle_alpha   90.00000000
_cell_angle_beta   90.00000000
_cell_angle_gamma   120.00001398
_symmetry_Int_Tables_number   1
_chemical_formula_structural   SrTl3
_chemical_formula_sum   'Sr2 Tl6'
_cell_volume   243.53574690
_cell_formula_units_Z   2
loop_
 _symmetry_equiv_pos_site_id
 _symmetry_equiv_pos_as_xyz
  1  'x, y, z'
loop_
 _atom_site_type_symbol
 _atom_site_label
 _atom_site_symmetry_multiplicity
 _atom_site_fract_x
 _atom_site_fract_y
 _atom_site_fract_z
 _atom_site_occupancy
  Sr  Sr0  1  0.33333300  0.66666700  0.75000000  1
  Sr  Sr1  1  0.66666700  0.33333300  0.25000000  1
  Tl  Tl0  1  0.15708434  0.31416869  0.25000000  1
  Tl  Tl1  1  0.68583131  0.84291566  0.25000000  1
  Tl  Tl2  1  0.15708434  0.84291566  0.25000000  1
  Tl  Tl3  1  0.84291566  0.68583131  0.75000000  1
  Tl  Tl4  1  0.31416869  0.15708434  0.75000000  1
  Tl  Tl5  1  0.84291566  0.15708434  0.75000000  1
loop_
_geom_bond_atom_site_label_1
_geom_bond_atom_site_label_2
_geom_bond_distance
_geom_bond_site_symmetry_2
Sr0 Tl2 3.512672 1_555
Sr0 Tl2 3.512672 1_556
Sr0 Tl1 3.512676 1_556
Sr0 Tl0 3.512676 1_556
Sr0 Tl0 3.512676 1_555
Sr0 Tl1 3.512676 1_555
Sr0 Tl4 3.575205 1_565
Sr0 Tl3 3.575205 1_455
Sr0 Tl5 3.575208 1_455
Sr0 Tl5 3.575208 1_565
Sr0 Tl4 3.575212 1_555
Sr0 Tl3 3.575212 1_555
Sr1 Tl5 3.512672 1_555
Sr1 Tl5 3.512672 1_554
Sr1 Tl4 3.512676 1_555
Sr1 Tl4 3.512676 1_554
Sr1 Tl3 3.512676 1_554
Sr1 Tl3 3.512676 1_555
Sr1 Tl1 3.575205 1_545
Sr1 Tl0 3.575205 1_655
Sr1 Tl2 3.575208 1_545
Sr1 Tl2 3.575208 1_655
Sr1 Tl0 3.575212 1_555
Sr1 Tl1 3.575212 1_555
Tl0 Tl1 3.367800 1_445
Tl0 Tl2 3.367801 1_545
Tl0 Tl5 3.370475 1_455
Tl0 Tl5 3.370475 1_454
Tl0 Tl4 3.370475 1_555
Tl0 Tl4 3.370475 1_554
Tl1 Tl2 3.367801 1_655
Tl1 Tl5 3.370475 1_565
Tl1 Tl5 3.370475 1_564
Tl1 Tl3 3.370475 1_555
Tl1 Tl3 3.370475 1_554
Tl2 Tl4 3.370475 1_564
Tl2 Tl4 3.370475 1_565
Tl2 Tl3 3.370475 1_455
Tl2 Tl3 3.370475 1_454
Tl3 Tl4 3.367800 1_665
Tl3 Tl5 3.367801 1_565
Tl4 Tl5 3.367801 1_455
