# generated using pymatgen
data_MnNiTe2
_symmetry_space_group_name_H-M   'P 1'
_cell_length_a   4.02107739
_cell_length_b   4.02107739
_cell_length_c   5.76594500
_cell_angle_alpha   90.00000000
_cell_angle_beta   90.00000000
_cell_angle_gamma   119.99999005
_symmetry_Int_Tables_number   1
_chemical_formula_structural   MnNiTe2
_chemical_formula_sum   'Mn1 Ni1 Te2'
_cell_volume   80.73949618
_cell_formula_units_Z   1
loop_
 _symmetry_equiv_pos_site_id
 _symmetry_equiv_pos_as_xyz
  1  'x, y, z'
loop_
 _atom_site_type_symbol
 _atom_site_label
 _atom_site_symmetry_multiplicity
 _atom_site_fract_x
 _atom_site_fract_y
 _atom_site_fract_z
 _atom_site_occupancy
  Mn  Mn0  1  0.00000000  0.00000000  0.50000000  1
  Ni  Ni0  1  0.00000000  0.00000000  0.00000000  1
  Te  Te0  1  0.66666700  0.33333300  0.23241200  1
  Te  Te1  1  0.33333300  0.66666700  0.76758800  1
loop_
_geom_bond_atom_site_label_1
_geom_bond_atom_site_label_2
_geom_bond_distance
_geom_bond_site_symmetry_2
Mn0 Te1 2.787510 1_545
Mn0 Te0 2.787510 1_455
Mn0 Te1 2.787513 1_555
Mn0 Te0 2.787513 1_555
Mn0 Te0 2.787513 1_445
Mn0 Te1 2.787513 1_445
Mn0 Ni0 2.882973 1_555
Mn0 Ni0 2.882973 1_556
Ni0 Te1 2.680574 1_544
Ni0 Te0 2.680574 1_455
Ni0 Te0 2.680577 1_445
Ni0 Te1 2.680577 1_554
Ni0 Te1 2.680577 1_444
Ni0 Te0 2.680577 1_555
