# generated using pymatgen
data_MgTe(BrO)6
_symmetry_space_group_name_H-M   'P 1'
_cell_length_a   10.96229440
_cell_length_b   10.96229440
_cell_length_c   10.96229440
_cell_angle_alpha   90.00000000
_cell_angle_beta   90.00000000
_cell_angle_gamma   90.00000000
_symmetry_Int_Tables_number   1
_chemical_formula_structural   MgTe(BrO)6
_chemical_formula_sum   'Mg4 Te4 Br24 O24'
_cell_volume   1317.35973010
_cell_formula_units_Z   4
loop_
 _symmetry_equiv_pos_site_id
 _symmetry_equiv_pos_as_xyz
  1  'x, y, z'
loop_
 _atom_site_type_symbol
 _atom_site_label
 _atom_site_symmetry_multiplicity
 _atom_site_fract_x
 _atom_site_fract_y
 _atom_site_fract_z
 _atom_site_occupancy
  Mg  Mg0  1  0.00000000  0.00000000  0.50000000  1
  Mg  Mg1  1  0.00000000  0.50000000  0.00000000  1
  Mg  Mg2  1  0.50000000  0.00000000  0.00000000  1
  Mg  Mg3  1  0.50000000  0.50000000  0.50000000  1
  Te  Te0  1  0.50000000  0.50000000  0.00000000  1
  Te  Te1  1  0.50000000  0.00000000  0.50000000  1
  Te  Te2  1  0.00000000  0.50000000  0.50000000  1
  Te  Te3  1  0.00000000  0.00000000  0.00000000  1
  Br  Br0  1  0.53048245  0.72494316  0.15206684  1
  Br  Br1  1  0.46951755  0.22494316  0.34793316  1
  Br  Br2  1  0.96951755  0.27505684  0.65206684  1
  Br  Br3  1  0.03048245  0.77505684  0.84793316  1
  Br  Br4  1  0.15206684  0.53048245  0.72494316  1
  Br  Br5  1  0.34793316  0.46951755  0.22494316  1
  Br  Br6  1  0.65206684  0.96951755  0.27505684  1
  Br  Br7  1  0.84793316  0.03048245  0.77505684  1
  Br  Br8  1  0.72494316  0.15206684  0.53048245  1
  Br  Br9  1  0.22494316  0.34793316  0.46951755  1
  Br  Br10  1  0.27505684  0.65206684  0.96951755  1
  Br  Br11  1  0.77505684  0.84793316  0.03048245  1
  Br  Br12  1  0.46951755  0.27505684  0.84793316  1
  Br  Br13  1  0.53048245  0.77505684  0.65206684  1
  Br  Br14  1  0.03048245  0.72494316  0.34793316  1
  Br  Br15  1  0.96951755  0.22494316  0.15206684  1
  Br  Br16  1  0.84793316  0.46951755  0.27505684  1
  Br  Br17  1  0.65206684  0.53048245  0.77505684  1
  Br  Br18  1  0.34793316  0.03048245  0.72494316  1
  Br  Br19  1  0.15206684  0.96951755  0.22494316  1
  Br  Br20  1  0.27505684  0.84793316  0.46951755  1
  Br  Br21  1  0.77505684  0.65206684  0.53048245  1
  Br  Br22  1  0.72494316  0.34793316  0.03048245  1
  Br  Br23  1  0.22494316  0.15206684  0.96951755  1
  O  O0  1  0.43795863  0.65475755  0.60073513  1
  O  O1  1  0.56204137  0.15475755  0.89926487  1
  O  O2  1  0.06204137  0.34524245  0.10073513  1
  O  O3  1  0.93795863  0.84524245  0.39926487  1
  O  O4  1  0.60073513  0.43795863  0.65475755  1
  O  O5  1  0.89926487  0.56204137  0.15475755  1
  O  O6  1  0.10073513  0.06204137  0.34524245  1
  O  O7  1  0.39926487  0.93795863  0.84524245  1
  O  O8  1  0.65475755  0.60073513  0.43795863  1
  O  O9  1  0.15475755  0.89926487  0.56204137  1
  O  O10  1  0.34524245  0.10073513  0.06204137  1
  O  O11  1  0.84524245  0.39926487  0.93795863  1
  O  O12  1  0.56204137  0.34524245  0.39926487  1
  O  O13  1  0.43795863  0.84524245  0.10073513  1
  O  O14  1  0.93795863  0.65475755  0.89926487  1
  O  O15  1  0.06204137  0.15475755  0.60073513  1
  O  O16  1  0.39926487  0.56204137  0.34524245  1
  O  O17  1  0.10073513  0.43795863  0.84524245  1
  O  O18  1  0.89926487  0.93795863  0.65475755  1
  O  O19  1  0.60073513  0.06204137  0.15475755  1
  O  O20  1  0.34524245  0.39926487  0.56204137  1
  O  O21  1  0.84524245  0.10073513  0.43795863  1
  O  O22  1  0.65475755  0.89926487  0.93795863  1
  O  O23  1  0.15475755  0.60073513  0.06204137  1
loop_
_geom_bond_atom_site_label_1
_geom_bond_atom_site_label_2
_geom_bond_distance
_geom_bond_site_symmetry_2
Mg0 O9 2.135442 1_545
Mg0 O6 2.135442 1_555
Mg0 O15 2.135442 1_555
Mg0 O3 2.135442 1_445
Mg0 O18 2.135442 1_445
Mg0 O21 2.135442 1_455
Mg1 O2 2.135442 1_555
Mg1 O14 2.135442 1_454
Mg1 O23 2.135442 1_555
Mg1 O5 2.135442 1_455
Mg1 O17 2.135442 1_554
Mg1 O11 2.135442 1_454
Mg2 O10 2.135442 1_555
Mg2 O19 2.135442 1_555
Mg2 O1 2.135442 1_554
Mg2 O13 2.135442 1_545
Mg2 O22 2.135442 1_544
Mg2 O7 2.135442 1_544
Mg3 O12 2.135442 1_555
Mg3 O20 2.135442 1_555
Mg3 O16 2.135442 1_555
Mg3 O0 2.135442 1_555
Mg3 O4 2.135442 1_555
Mg3 O8 2.135442 1_555
Br0 O13 1.756279 1_555
Br0 Te0 2.995194 1_555
Br1 O12 1.756279 1_555
Br1 Te1 2.995194 1_555
Br2 O15 1.756279 1_655
Br2 Te2 2.995194 1_655
Br3 O14 1.756279 1_455
Br3 Te3 2.995194 1_566
Br4 O17 1.756279 1_555
Br4 Te2 2.995194 1_555
Br5 O16 1.756279 1_555
Br5 Te0 2.995194 1_555
Br6 O19 1.756279 1_565
Br6 Te1 2.995194 1_565
Br7 O18 1.756279 1_545
Br7 Te3 2.995194 1_656
Br8 O21 1.756279 1_555
Br8 Te1 2.995194 1_555
Br9 O20 1.756279 1_555
Br9 Te2 2.995194 1_555
Br10 O23 1.756279 1_556
Br10 Te0 2.995194 1_556
Br11 O22 1.756279 1_554
Br11 Te3 2.995194 1_665
Br12 O1 1.756279 1_555
Br12 Te0 2.995194 1_556
Br13 O0 1.756279 1_555
Br13 Te1 2.995194 1_565
Br14 O3 1.756279 1_455
Br14 Te2 2.995194 1_555
Br15 O2 1.756279 1_655
Br15 Te3 2.995194 1_655
Br16 O5 1.756279 1_555
Br16 Te2 2.995194 1_655
Br17 O4 1.756279 1_555
Br17 Te0 2.995194 1_556
Br18 O7 1.756279 1_545
Br18 Te1 2.995194 1_555
Br19 O6 1.756279 1_565
Br19 Te3 2.995194 1_565
Br20 O9 1.756279 1_555
Br20 Te1 2.995194 1_565
Br21 O8 1.756279 1_555
Br21 Te2 2.995194 1_655
Br22 O11 1.756279 1_554
Br22 Te0 2.995194 1_555
Br23 O10 1.756279 1_556
Br23 Te3 2.995194 1_556
