# generated using pymatgen
data_U(C2O5)2
_symmetry_space_group_name_H-M   'P 1'
_cell_length_a   6.66545590
_cell_length_b   6.66545590
_cell_length_c   10.52369700
_cell_angle_alpha   90.00000000
_cell_angle_beta   90.00000000
_cell_angle_gamma   90.19133090
_symmetry_Int_Tables_number   1
_chemical_formula_structural   U(C2O5)2
_chemical_formula_sum   'U2 C8 O20'
_cell_volume   467.54738595
_cell_formula_units_Z   2
loop_
 _symmetry_equiv_pos_site_id
 _symmetry_equiv_pos_as_xyz
  1  'x, y, z'
loop_
 _atom_site_type_symbol
 _atom_site_label
 _atom_site_symmetry_multiplicity
 _atom_site_fract_x
 _atom_site_fract_y
 _atom_site_fract_z
 _atom_site_occupancy
  U  U0  1  0.50000000  0.50000000  0.50000000  1
  U  U1  1  0.00000000  0.00000000  0.00000000  1
  C  C0  1  0.72952000  0.87785700  0.29638400  1
  C  C1  1  0.62214300  0.77048000  0.79638400  1
  C  C2  1  0.37785700  0.22952000  0.79638400  1
  C  C3  1  0.27048000  0.12214300  0.29638400  1
  C  C4  1  0.77048000  0.62214300  0.20361600  1
  C  C5  1  0.87785700  0.72952000  0.70361600  1
  C  C6  1  0.12214300  0.27048000  0.70361600  1
  C  C7  1  0.22952000  0.37785700  0.20361600  1
  O  O0  1  0.65102800  0.83603600  0.39732600  1
  O  O1  1  0.66396400  0.84897200  0.89732600  1
  O  O2  1  0.33603600  0.15102800  0.89732600  1
  O  O3  1  0.34897200  0.16396400  0.39732600  1
  O  O4  1  0.84897200  0.66396400  0.10267400  1
  O  O5  1  0.83603600  0.65102800  0.60267400  1
  O  O6  1  0.16396400  0.34897200  0.60267400  1
  O  O7  1  0.15102800  0.33603600  0.10267400  1
  O  O8  1  0.79159800  0.01212200  0.22853000  1
  O  O9  1  0.48787800  0.70840200  0.72853000  1
  O  O10  1  0.51212200  0.29159800  0.72853000  1
  O  O11  1  0.20840200  0.98787800  0.22853000  1
  O  O12  1  0.70840200  0.48787800  0.27147000  1
  O  O13  1  0.01212200  0.79159800  0.77147000  1
  O  O14  1  0.98787800  0.20840200  0.77147000  1
  O  O15  1  0.29159800  0.51212200  0.27147000  1
  O  O16  1  0.68834000  0.31166000  0.50000000  1
  O  O17  1  0.18834000  0.81166000  0.00000000  1
  O  O18  1  0.81166000  0.18834000  0.00000000  1
  O  O19  1  0.31166000  0.68834000  0.50000000  1
loop_
_geom_bond_atom_site_label_1
_geom_bond_atom_site_label_2
_geom_bond_distance
_geom_bond_site_symmetry_2
C0 O0 1.216100 1_555
C0 O8 1.216370 1_565
C1 O1 1.216100 1_555
C1 O9 1.216370 1_555
C2 O2 1.216100 1_555
C2 O10 1.216370 1_555
C3 O3 1.216100 1_555
C3 O11 1.216370 1_545
C4 O4 1.216100 1_555
C4 O12 1.216370 1_555
C5 O5 1.216100 1_555
C5 O13 1.216370 1_655
C6 O6 1.216100 1_555
C6 O14 1.216370 1_455
C7 O7 1.216100 1_555
C7 O15 1.216370 1_555
O16 U0 1.778326 1_555
O17 U1 1.778326 1_565
O18 U1 1.778326 1_655
O19 U0 1.778326 1_555
