# generated using pymatgen
data_SrMg6Ti
_symmetry_space_group_name_H-M   'P 1'
_cell_length_a   5.22464100
_cell_length_b   6.71384500
_cell_length_c   11.46021700
_cell_angle_alpha   90.00000000
_cell_angle_beta   90.00000000
_cell_angle_gamma   90.00000000
_symmetry_Int_Tables_number   1
_chemical_formula_structural   SrMg6Ti
_chemical_formula_sum   'Sr2 Mg12 Ti2'
_cell_volume   401.99495794
_cell_formula_units_Z   2
loop_
 _symmetry_equiv_pos_site_id
 _symmetry_equiv_pos_as_xyz
  1  'x, y, z'
loop_
 _atom_site_type_symbol
 _atom_site_label
 _atom_site_symmetry_multiplicity
 _atom_site_fract_x
 _atom_site_fract_y
 _atom_site_fract_z
 _atom_site_occupancy
  Sr  Sr0  1  0.50000000  0.50000000  0.16028300  1
  Sr  Sr1  1  0.50000000  0.00000000  0.66028300  1
  Mg  Mg0  1  0.00000000  0.23281100  0.08025900  1
  Mg  Mg1  1  0.00000000  0.76718900  0.08025900  1
  Mg  Mg2  1  0.00000000  0.50000000  0.83974800  1
  Mg  Mg3  1  0.50000000  0.23019300  0.91173500  1
  Mg  Mg4  1  0.50000000  0.76980700  0.91173500  1
  Mg  Mg5  1  0.50000000  0.50000000  0.66578500  1
  Mg  Mg6  1  0.00000000  0.73281100  0.58025900  1
  Mg  Mg7  1  0.00000000  0.26718900  0.58025900  1
  Mg  Mg8  1  0.00000000  0.00000000  0.33974800  1
  Mg  Mg9  1  0.50000000  0.73019300  0.41173500  1
  Mg  Mg10  1  0.50000000  0.26980700  0.41173500  1
  Mg  Mg11  1  0.50000000  0.00000000  0.16578500  1
  Ti  Ti0  1  0.00000000  0.50000000  0.35019600  1
  Ti  Ti1  1  0.00000000  0.00000000  0.85019600  1
loop_
_geom_bond_atom_site_label_1
_geom_bond_atom_site_label_2
_geom_bond_distance
_geom_bond_site_symmetry_2
Sr0 Ti0 3.400166 1_555
Sr0 Ti0 3.400166 1_655
Sr1 Ti1 3.400166 1_655
Sr1 Ti1 3.400166 1_555
Mg0 Ti1 3.065071 1_554
Mg0 Mg1 3.126114 1_545
Mg0 Mg11 3.198133 1_455
Mg0 Mg11 3.198133 1_555
Mg0 Mg3 3.248774 1_554
Mg0 Mg3 3.248774 1_454
Mg0 Mg2 3.288645 1_554
Mg0 Sr0 3.298974 1_455
Mg0 Sr0 3.298974 1_555
Mg0 Mg8 3.359559 1_555
Mg0 Ti0 3.576020 1_555
Mg1 Ti1 3.065071 1_564
Mg1 Mg11 3.198133 1_565
Mg1 Mg11 3.198133 1_465
Mg1 Mg4 3.248774 1_554
Mg1 Mg4 3.248774 1_454
Mg1 Mg2 3.288645 1_554
Mg1 Sr0 3.298974 1_455
Mg1 Sr0 3.298974 1_555
Mg1 Mg8 3.359559 1_565
Mg1 Ti0 3.576020 1_555
Mg2 Mg3 3.284227 1_455
Mg2 Mg4 3.284227 1_455
Mg2 Mg3 3.284227 1_555
Mg2 Mg4 3.284227 1_555
Mg2 Mg5 3.286164 1_455
Mg2 Mg5 3.286164 1_555
Mg2 Ti1 3.359057 1_565
Mg2 Ti1 3.359057 1_555
Mg2 Mg6 3.359559 1_555
Mg2 Mg7 3.359559 1_555
Mg3 Mg4 3.090960 1_545
Mg3 Ti1 3.116104 1_555
Mg3 Ti1 3.116104 1_655
Mg3 Sr1 3.269965 1_555
Mg3 Mg5 3.350531 1_555
Mg3 Sr0 3.375616 1_556
Mg4 Ti1 3.116104 1_565
Mg4 Ti1 3.116104 1_665
Mg4 Sr1 3.269965 1_565
Mg4 Mg5 3.350531 1_555
Mg4 Sr0 3.375616 1_556
Mg5 Mg6 3.198133 1_555
Mg5 Mg6 3.198133 1_655
Mg5 Mg7 3.198133 1_555
Mg5 Mg7 3.198133 1_655
Mg5 Mg9 3.296234 1_555
Mg5 Sr1 3.357515 1_555
Mg5 Sr1 3.357515 1_565
Mg6 Ti0 3.065071 1_555
Mg6 Mg7 3.126114 1_555
Mg6 Mg9 3.248774 1_455
Mg6 Mg9 3.248774 1_555
Mg6 Mg8 3.288645 1_565
Mg6 Sr1 3.298974 1_465
Mg6 Sr1 3.298974 1_565
Mg6 Ti1 3.576020 1_565
Mg7 Ti0 3.065071 1_555
Mg7 Mg8 3.288645 1_555
Mg7 Sr1 3.298974 1_555
Mg7 Sr1 3.298974 1_455
Mg7 Ti1 3.576020 1_555
Mg8 Mg9 3.284227 1_445
Mg8 Mg9 3.284227 1_545
Mg8 Ti0 3.359057 1_545
Mg8 Ti0 3.359057 1_555
Mg9 Ti0 3.116104 1_655
Mg9 Ti0 3.116104 1_555
Mg9 Sr0 3.269965 1_555
Mg9 Sr1 3.375616 1_565
Mg10 Mg9 3.090960 1_555
Mg10 Ti0 3.116104 1_655
Mg10 Ti0 3.116104 1_555
Mg10 Mg7 3.248774 1_655
Mg10 Mg7 3.248774 1_555
Mg10 Sr0 3.269965 1_555
Mg10 Mg8 3.284227 1_555
Mg10 Mg8 3.284227 1_655
Mg10 Mg5 3.296234 1_555
Mg10 Mg11 3.350531 1_555
Mg10 Sr1 3.375616 1_555
Mg11 Mg8 3.286164 1_555
Mg11 Mg8 3.286164 1_655
Mg11 Mg4 3.296234 1_544
Mg11 Mg3 3.296234 1_554
Mg11 Mg9 3.350531 1_545
Mg11 Sr0 3.357515 1_545
Mg11 Sr0 3.357515 1_555
