# generated using pymatgen
data_Li2Fe3(MoO4)3
_symmetry_space_group_name_H-M   'P 1'
_cell_length_a   5.23321400
_cell_length_b   10.67281100
_cell_length_c   18.49976400
_cell_angle_alpha   90.00000000
_cell_angle_beta   90.00000000
_cell_angle_gamma   90.00000000
_symmetry_Int_Tables_number   1
_chemical_formula_structural   Li2Fe3(MoO4)3
_chemical_formula_sum   'Li8 Fe12 Mo12 O48'
_cell_volume   1033.26924164
_cell_formula_units_Z   4
loop_
 _symmetry_equiv_pos_site_id
 _symmetry_equiv_pos_as_xyz
  1  'x, y, z'
loop_
 _atom_site_type_symbol
 _atom_site_label
 _atom_site_symmetry_multiplicity
 _atom_site_fract_x
 _atom_site_fract_y
 _atom_site_fract_z
 _atom_site_occupancy
  Li  Li0  1  0.37962900  0.25000000  0.12040700  1
  Li  Li1  1  0.62037100  0.75000000  0.87959300  1
  Li  Li2  1  0.12037100  0.75000000  0.62040700  1
  Li  Li3  1  0.87962900  0.25000000  0.37959300  1
  Li  Li4  1  0.23228700  0.25000000  0.23356000  1
  Li  Li5  1  0.76771300  0.75000000  0.76644000  1
  Li  Li6  1  0.26771300  0.75000000  0.73356000  1
  Li  Li7  1  0.73228700  0.25000000  0.26644000  1
  Fe  Fe0  1  0.23896900  0.06995800  0.02556500  1
  Fe  Fe1  1  0.76103100  0.93004200  0.97443500  1
  Fe  Fe2  1  0.26103100  0.93004200  0.52556500  1
  Fe  Fe3  1  0.76103100  0.56995800  0.97443500  1
  Fe  Fe4  1  0.73896900  0.06995800  0.47443500  1
  Fe  Fe5  1  0.23896900  0.43004200  0.02556500  1
  Fe  Fe6  1  0.73896900  0.43004200  0.47443500  1
  Fe  Fe7  1  0.26103100  0.56995800  0.52556500  1
  Fe  Fe8  1  0.39586700  0.25000000  0.74925200  1
  Fe  Fe9  1  0.60413300  0.75000000  0.25074800  1
  Fe  Fe10  1  0.10413300  0.75000000  0.24925200  1
  Fe  Fe11  1  0.89586700  0.25000000  0.75074800  1
  Mo  Mo0  1  0.28737500  0.02466600  0.34918500  1
  Mo  Mo1  1  0.71262500  0.97533400  0.65081500  1
  Mo  Mo2  1  0.21262500  0.97533400  0.84918500  1
  Mo  Mo3  1  0.71262500  0.52466600  0.65081500  1
  Mo  Mo4  1  0.78737500  0.02466600  0.15081500  1
  Mo  Mo5  1  0.28737500  0.47533400  0.34918500  1
  Mo  Mo6  1  0.78737500  0.47533400  0.15081500  1
  Mo  Mo7  1  0.21262500  0.52466600  0.84918500  1
  Mo  Mo8  1  0.18939000  0.25000000  0.55908200  1
  Mo  Mo9  1  0.81061000  0.75000000  0.44091800  1
  Mo  Mo10  1  0.31061000  0.75000000  0.05908200  1
  Mo  Mo11  1  0.68939000  0.25000000  0.94091800  1
  O  O0  1  0.35466200  0.61626700  0.29566000  1
  O  O1  1  0.64533800  0.38373300  0.70434000  1
  O  O2  1  0.14533800  0.38373300  0.79566000  1
  O  O3  1  0.64533800  0.11626700  0.70434000  1
  O  O4  1  0.85466200  0.61626700  0.20434000  1
  O  O5  1  0.35466200  0.88373300  0.29566000  1
  O  O6  1  0.85466200  0.88373300  0.20434000  1
  O  O7  1  0.14533800  0.11626700  0.79566000  1
  O  O8  1  0.07701400  0.52215500  0.42619200  1
  O  O9  1  0.92298600  0.47784500  0.57380800  1
  O  O10  1  0.42298600  0.47784500  0.92619200  1
  O  O11  1  0.92298600  0.02215500  0.57380800  1
  O  O12  1  0.57701400  0.52215500  0.07380800  1
  O  O13  1  0.07701400  0.97784500  0.42619200  1
  O  O14  1  0.57701400  0.97784500  0.07380800  1
  O  O15  1  0.42298600  0.02215500  0.92619200  1
  O  O16  1  0.14726900  0.25000000  0.65805800  1
  O  O17  1  0.85273100  0.75000000  0.34194200  1
  O  O18  1  0.35273100  0.75000000  0.15805800  1
  O  O19  1  0.64726900  0.25000000  0.84194200  1
  O  O20  1  0.07636800  0.13122100  0.30097300  1
  O  O21  1  0.92363200  0.86877900  0.69902700  1
  O  O22  1  0.42363200  0.86877900  0.80097300  1
  O  O23  1  0.92363200  0.63122100  0.69902700  1
  O  O24  1  0.57636800  0.13122100  0.19902700  1
  O  O25  1  0.07636800  0.36877900  0.30097300  1
  O  O26  1  0.57636800  0.36877900  0.19902700  1
  O  O27  1  0.42363200  0.63122100  0.80097300  1
  O  O28  1  0.93589500  0.25000000  0.48346900  1
  O  O29  1  0.06410500  0.75000000  0.51653100  1
  O  O30  1  0.56410500  0.75000000  0.98346900  1
  O  O31  1  0.43589500  0.25000000  0.01653100  1
  O  O32  1  0.07506500  0.11696500  0.12907300  1
  O  O33  1  0.92493500  0.88303500  0.87092700  1
  O  O34  1  0.42493500  0.88303500  0.62907300  1
  O  O35  1  0.92493500  0.61696500  0.87092700  1
  O  O36  1  0.57506500  0.11696500  0.37092700  1
  O  O37  1  0.07506500  0.38303500  0.12907300  1
  O  O38  1  0.57506500  0.38303500  0.37092700  1
  O  O39  1  0.42493500  0.61696500  0.62907300  1
  O  O40  1  0.08878800  0.61458100  0.03646000  1
  O  O41  1  0.91121200  0.38541900  0.96354000  1
  O  O42  1  0.41121200  0.38541900  0.53646000  1
  O  O43  1  0.91121200  0.11458100  0.96354000  1
  O  O44  1  0.58878800  0.61458100  0.46354000  1
  O  O45  1  0.08878800  0.88541900  0.03646000  1
  O  O46  1  0.58878800  0.88541900  0.46354000  1
  O  O47  1  0.41121200  0.11458100  0.53646000  1
loop_
_geom_bond_atom_site_label_1
_geom_bond_atom_site_label_2
_geom_bond_distance
_geom_bond_site_symmetry_2
Li0 O31 1.944109 1_555
Li0 O37 2.140572 1_555
Li0 O32 2.140572 1_555
Li0 O26 2.186901 1_555
Li0 O24 2.186901 1_555
Li1 O30 1.944109 1_555
Li1 O35 2.140572 1_555
Li1 O33 2.140572 1_555
Li1 O22 2.186901 1_555
Li1 O27 2.186901 1_555
Li2 O29 1.944109 1_555
Li2 O39 2.140572 1_555
Li2 O34 2.140572 1_555
Li2 O21 2.186901 1_455
Li2 O23 2.186901 1_455
Li3 O28 1.944109 1_555
Li3 O38 2.140572 1_555
Li3 O36 2.140572 1_555
Li3 O25 2.186901 1_655
Li3 O20 2.186901 1_655
Li4 O25 1.956575 1_555
Li4 O20 1.956575 1_555
Li4 O26 2.292935 1_555
Li4 O24 2.292935 1_555
Li4 O37 2.535623 1_555
Li4 O32 2.535623 1_555
Li5 O21 1.956575 1_555
Li5 O23 1.956575 1_555
Li5 O22 2.292935 1_555
Li5 O27 2.292935 1_555
Li5 O33 2.535623 1_555
Li5 O35 2.535623 1_555
Li6 O22 1.956575 1_555
Li6 O27 1.956575 1_555
Li6 O21 2.292935 1_455
Li6 O23 2.292935 1_455
Li6 O34 2.535623 1_555
Li6 O39 2.535623 1_555
Li7 O26 1.956575 1_555
Li7 O24 1.956575 1_555
Li7 O25 2.292935 1_655
Li7 O20 2.292935 1_655
Li7 O38 2.535623 1_555
Li7 O36 2.535623 1_555
Fe0 O43 2.117886 1_454
Fe0 O45 2.130126 1_545
Fe0 O15 2.137123 1_554
Fe0 O32 2.157352 1_555
Fe0 O31 2.186858 1_555
Fe0 O14 2.211923 1_545
Fe1 O45 2.117886 1_656
Fe1 O43 2.130126 1_565
Fe1 O14 2.137123 1_556
Fe1 O33 2.157352 1_555
Fe1 O30 2.186858 1_555
Fe1 O15 2.211923 1_565
Fe2 O46 2.117886 1_555
Fe2 O47 2.130126 1_565
Fe2 O13 2.137123 1_555
Fe2 O34 2.157352 1_555
Fe2 O29 2.186858 1_555
Fe2 O11 2.211923 1_465
Fe3 O40 2.117886 1_656
Fe3 O41 2.130126 1_555
Fe3 O12 2.137123 1_556
Fe3 O35 2.157352 1_555
Fe3 O30 2.186858 1_555
Fe3 O10 2.211923 1_555
Fe4 O47 2.117886 1_555
Fe4 O46 2.130126 1_545
Fe4 O11 2.137123 1_555
Fe4 O36 2.157352 1_555
Fe4 O28 2.186858 1_555
Fe4 O13 2.211923 1_645
Fe5 O41 2.117886 1_454
Fe5 O40 2.130126 1_555
Fe5 O10 2.137123 1_554
Fe5 O37 2.157352 1_555
Fe5 O31 2.186858 1_555
Fe5 O12 2.211923 1_555
Fe6 O42 2.117886 1_555
Fe6 O44 2.130126 1_555
Fe6 O9 2.137123 1_555
Fe6 O38 2.157352 1_555
Fe6 O28 2.186858 1_555
Fe6 O8 2.211923 1_655
Fe7 O44 2.117886 1_555
Fe7 O42 2.130126 1_555
Fe7 O8 2.137123 1_555
Fe7 O39 2.157352 1_555
Fe7 O29 2.186858 1_555
Fe7 O9 2.211923 1_455
Fe8 O1 2.105222 1_555
Fe8 O3 2.105222 1_555
Fe8 O7 2.119717 1_555
Fe8 O2 2.119717 1_555
Fe8 O16 2.130425 1_555
Fe8 O19 2.161308 1_555
Fe9 O0 2.105222 1_555
Fe9 O5 2.105222 1_555
Fe9 O6 2.119717 1_555
Fe9 O4 2.119717 1_555
Fe9 O17 2.130425 1_555
Fe9 O18 2.161308 1_555
Fe10 O4 2.105222 1_455
Fe10 O6 2.105222 1_455
Fe10 O0 2.119717 1_555
Fe10 O5 2.119717 1_555
Fe10 O18 2.130425 1_555
Fe10 O17 2.161308 1_455
Fe11 O2 2.105222 1_655
Fe11 O7 2.105222 1_655
Fe11 O1 2.119717 1_555
Fe11 O3 2.119717 1_555
Fe11 O19 2.130425 1_555
Fe11 O16 2.161308 1_655
Mo0 O20 1.818840 1_555
Mo0 O5 1.834928 1_545
Mo0 O36 1.843596 1_555
Mo0 O13 1.868457 1_545
Mo1 O21 1.818840 1_555
Mo1 O3 1.834928 1_565
Mo1 O34 1.843596 1_555
Mo1 O11 1.868457 1_565
Mo2 O22 1.818840 1_555
Mo2 O7 1.834928 1_565
Mo2 O33 1.843596 1_455
Mo2 O15 1.868457 1_565
Mo3 O23 1.818840 1_555
Mo3 O1 1.834928 1_555
Mo3 O39 1.843596 1_555
Mo3 O9 1.868457 1_555
Mo4 O24 1.818840 1_555
Mo4 O6 1.834928 1_545
Mo4 O32 1.843596 1_655
Mo4 O14 1.868457 1_545
Mo5 O25 1.818840 1_555
Mo5 O0 1.834928 1_555
Mo5 O38 1.843596 1_555
Mo5 O8 1.868457 1_555
Mo6 O26 1.818840 1_555
Mo6 O4 1.834928 1_555
Mo6 O37 1.843596 1_655
Mo6 O12 1.868457 1_555
Mo7 O27 1.818840 1_555
Mo7 O2 1.834928 1_555
Mo7 O35 1.843596 1_455
Mo7 O10 1.868457 1_555
Mo8 O16 1.844253 1_555
Mo8 O42 1.900419 1_555
Mo8 O47 1.900419 1_555
Mo8 O28 1.927837 1_455
Mo9 O17 1.844253 1_555
Mo9 O46 1.900419 1_555
Mo9 O44 1.900419 1_555
Mo9 O29 1.927837 1_655
Mo10 O18 1.844253 1_555
Mo10 O45 1.900419 1_555
Mo10 O40 1.900419 1_555
Mo10 O30 1.927837 1_554
Mo11 O19 1.844253 1_555
Mo11 O41 1.900419 1_555
Mo11 O43 1.900419 1_555
Mo11 O31 1.927837 1_556
