# generated using pymatgen
data_MgSi2
_symmetry_space_group_name_H-M   'P 1'
_cell_length_a   3.72767500
_cell_length_b   6.44427200
_cell_length_c   9.79928767
_cell_angle_alpha   78.36583459
_cell_angle_beta   90.00000000
_cell_angle_gamma   90.00000000
_symmetry_Int_Tables_number   1
_chemical_formula_structural   MgSi2
_chemical_formula_sum   'Mg4 Si8'
_cell_volume   230.56372250
_cell_formula_units_Z   4
loop_
 _symmetry_equiv_pos_site_id
 _symmetry_equiv_pos_as_xyz
  1  'x, y, z'
loop_
 _atom_site_type_symbol
 _atom_site_label
 _atom_site_symmetry_multiplicity
 _atom_site_fract_x
 _atom_site_fract_y
 _atom_site_fract_z
 _atom_site_occupancy
  Mg  Mg0  1  0.05861900  0.08507500  0.75113300  1
  Mg  Mg1  1  0.94138100  0.91492500  0.24886700  1
  Mg  Mg2  1  0.44138100  0.58507500  0.75113300  1
  Mg  Mg3  1  0.55861900  0.41492500  0.24886700  1
  Si  Si0  1  0.52032900  0.31739700  0.55340100  1
  Si  Si1  1  0.94413300  0.35180700  0.94764000  1
  Si  Si2  1  0.05586700  0.64819300  0.05236000  1
  Si  Si3  1  0.97967100  0.81739700  0.55340100  1
  Si  Si4  1  0.47967100  0.68260300  0.44659900  1
  Si  Si5  1  0.55586700  0.85180700  0.94764000  1
  Si  Si6  1  0.44413300  0.14819300  0.05236000  1
  Si  Si7  1  0.02032900  0.18260300  0.44659900  1
loop_
_geom_bond_atom_site_label_1
_geom_bond_atom_site_label_2
_geom_bond_distance
_geom_bond_site_symmetry_2
Mg0 Si0 2.790709 1_555
Mg0 Si3 2.857392 1_445
Mg0 Si1 2.860027 1_455
Mg0 Si5 2.869850 1_545
Mg0 Si5 2.883145 1_445
Mg0 Si7 2.926511 1_555
Mg0 Si0 2.975261 1_455
Mg1 Si4 2.790709 1_555
Mg1 Si7 2.857392 1_665
Mg1 Si2 2.860027 1_655
Mg1 Si6 2.869850 1_565
Mg1 Si6 2.883145 1_665
Mg1 Si3 2.926511 1_555
Mg1 Si4 2.975261 1_655
Mg2 Si3 2.790709 1_455
Mg2 Si0 2.857392 1_555
Mg2 Si5 2.860027 1_555
Mg2 Si1 2.869850 1_455
Mg2 Si1 2.883145 1_555
Mg2 Si4 2.926511 1_555
Mg2 Si3 2.975261 1_555
Mg3 Si7 2.790709 1_655
Mg3 Si4 2.857392 1_555
Mg3 Si6 2.860027 1_555
Mg3 Si2 2.869850 1_655
Mg3 Si2 2.883145 1_555
Mg3 Si0 2.926511 1_555
Mg3 Si7 2.975261 1_555
Si0 Si4 2.379868 1_555
Si0 Si7 2.385466 1_555
Si0 Si7 2.385466 1_655
Si1 Si2 2.380149 1_656
Si1 Si6 2.388637 1_656
Si1 Si6 2.388637 1_556
Si2 Si5 2.388637 1_554
Si2 Si5 2.388637 1_454
Si3 Si7 2.379868 1_665
Si3 Si4 2.385466 1_655
Si3 Si4 2.385466 1_555
Si5 Si6 2.380149 1_566
