# generated using pymatgen
data_Nd(VFe5)2
_symmetry_space_group_name_H-M   'P 1'
_cell_length_a   4.67705200
_cell_length_b   6.49151416
_cell_length_c   6.49151416
_cell_angle_alpha   97.26539020
_cell_angle_beta   111.11515303
_cell_angle_gamma   68.88484697
_symmetry_Int_Tables_number   1
_chemical_formula_structural   Nd(VFe5)2
_chemical_formula_sum   'Nd1 V2 Fe10'
_cell_volume   171.51117724
_cell_formula_units_Z   1
loop_
 _symmetry_equiv_pos_site_id
 _symmetry_equiv_pos_as_xyz
  1  'x, y, z'
loop_
 _atom_site_type_symbol
 _atom_site_label
 _atom_site_symmetry_multiplicity
 _atom_site_fract_x
 _atom_site_fract_y
 _atom_site_fract_z
 _atom_site_occupancy
  Nd  Nd0  1  0.00000000  0.00000000  0.00000000  1
  V  V0  1  0.00000000  0.35956400  0.35956400  1
  V  V1  1  0.00000000  0.64043600  0.64043600  1
  Fe  Fe0  1  0.72945400  0.77054600  0.22945400  1
  Fe  Fe1  1  0.27054600  0.22945400  0.77054600  1
  Fe  Fe2  1  0.50000000  0.76826300  0.76826300  1
  Fe  Fe3  1  0.50000000  0.23173700  0.23173700  1
  Fe  Fe4  1  0.50000000  0.00000000  0.50000000  1
  Fe  Fe5  1  0.00000000  0.00000000  0.50000000  1
  Fe  Fe6  1  0.50000000  0.50000000  0.00000000  1
  Fe  Fe7  1  0.00000000  0.50000000  0.00000000  1
  Fe  Fe8  1  0.64005500  0.35994500  0.64005500  1
  Fe  Fe9  1  0.35994500  0.64005500  0.35994500  1
loop_
_geom_bond_atom_site_label_1
_geom_bond_atom_site_label_2
_geom_bond_distance
_geom_bond_site_symmetry_2
Nd0 V0 3.085157 1_555
Nd0 V1 3.085157 1_544
V0 V1 2.409958 1_555
Fe0 Fe7 2.449354 1_655
Fe0 Fe6 2.449354 1_555
Fe0 Fe5 2.449354 1_665
Fe0 Fe4 2.449354 1_565
Fe0 Fe9 2.590910 1_555
Fe0 Fe9 2.590910 1_655
Fe0 V1 2.607651 1_655
Fe0 V0 2.607651 1_655
Fe0 Fe2 2.792904 1_554
Fe0 Fe3 2.792904 1_565
Fe0 Nd0 3.052117 1_565
Fe0 Nd0 3.052117 1_665
Fe1 Fe4 2.449354 1_555
Fe1 Fe7 2.449354 1_556
Fe1 Fe6 2.449354 1_556
Fe1 Fe5 2.449354 1_555
Fe1 Fe8 2.590910 1_455
Fe1 Fe8 2.590910 1_555
Fe1 V0 2.607651 1_555
Fe1 V1 2.607651 1_555
Fe1 Fe2 2.792904 1_545
Fe1 Fe3 2.792904 1_556
Fe1 Nd0 3.052117 1_556
Fe1 Nd0 3.052117 1_656
Fe2 Fe6 2.440938 1_556
Fe2 Fe4 2.440938 1_565
Fe2 Fe7 2.440938 1_656
Fe2 Fe5 2.440938 1_565
Fe2 V1 2.582954 1_655
Fe2 V1 2.582954 1_555
Fe2 Fe9 2.594476 1_555
Fe2 Fe8 2.594476 1_555
Fe2 Nd0 3.069577 1_666
Fe2 Nd0 3.069577 1_566
Fe3 Fe4 2.440938 1_555
Fe3 Fe5 2.440938 1_655
Fe3 Fe7 2.440938 1_555
Fe3 Fe6 2.440938 1_555
Fe3 V0 2.582954 1_555
Fe3 V0 2.582954 1_655
Fe3 Fe8 2.594476 1_555
Fe3 Fe9 2.594476 1_555
Fe3 Nd0 3.069577 1_655
Fe3 Nd0 3.069577 1_555
Fe4 Fe5 2.338526 1_655
Fe4 Fe5 2.338526 1_555
Fe4 V1 2.611013 1_645
Fe4 V0 2.611013 1_555
Fe4 Fe9 2.617570 1_545
Fe4 Fe8 2.617570 1_555
Fe4 Nd0 3.245757 1_656
Fe4 Nd0 3.245757 1_555
Fe5 V1 2.611013 1_545
Fe5 V0 2.611013 1_555
Fe5 Fe9 2.617570 1_545
Fe5 Fe8 2.617570 1_455
Fe5 Nd0 3.245757 1_555
Fe5 Nd0 3.245757 1_556
Fe6 Fe7 2.338526 1_555
Fe6 Fe7 2.338526 1_655
Fe6 V1 2.611013 1_554
Fe6 V0 2.611013 1_655
Fe6 Fe8 2.617570 1_554
Fe6 Fe9 2.617570 1_555
Fe6 Nd0 3.245757 1_565
Fe6 Nd0 3.245757 1_655
Fe7 V1 2.611013 1_554
Fe7 V0 2.611013 1_555
Fe7 Fe8 2.617570 1_454
Fe7 Fe9 2.617570 1_555
Fe7 Nd0 3.245757 1_565
Fe7 Nd0 3.245757 1_555
Fe8 Fe9 2.394296 1_555
Fe8 V0 2.890301 1_555
Fe8 V1 2.890301 1_655
Fe8 V1 2.890301 1_555
Fe8 V0 2.890301 1_655
Fe8 Nd0 3.076701 1_656
Fe9 V0 2.890301 1_655
Fe9 V1 2.890301 1_655
Fe9 V1 2.890301 1_555
Fe9 V0 2.890301 1_555
Fe9 Nd0 3.076701 1_565
