# generated using pymatgen
data_Sn2Pd
_symmetry_space_group_name_H-M   'P 1'
_cell_length_a   6.54137120
_cell_length_b   6.54137097
_cell_length_c   13.14812086
_cell_angle_alpha   104.43790577
_cell_angle_beta   104.43779676
_cell_angle_gamma   90.02688922
_symmetry_Int_Tables_number   1
_chemical_formula_structural   Sn2Pd
_chemical_formula_sum   'Sn16 Pd8'
_cell_volume   526.44962735
_cell_formula_units_Z   8
loop_
 _symmetry_equiv_pos_site_id
 _symmetry_equiv_pos_as_xyz
  1  'x, y, z'
loop_
 _atom_site_type_symbol
 _atom_site_label
 _atom_site_symmetry_multiplicity
 _atom_site_fract_x
 _atom_site_fract_y
 _atom_site_fract_z
 _atom_site_occupancy
  Sn  Sn0  1  0.71646802  0.28350913  0.24997680  1
  Sn  Sn1  1  0.46650030  0.21647740  0.75003944  1
  Sn  Sn2  1  0.78354635  0.53352109  0.75000723  1
  Sn  Sn3  1  0.03351012  0.96646772  0.24997682  1
  Sn  Sn4  1  0.28353056  0.71649260  0.75002339  1
  Sn  Sn5  1  0.53350019  0.78352348  0.24996082  1
  Sn  Sn6  1  0.21645377  0.46647737  0.24999289  1
  Sn  Sn7  1  0.96649141  0.03353078  0.75002337  1
  Sn  Sn8  1  0.25001573  0.50057911  0.49996609  1
  Sn  Sn9  1  0.49942090  0.74998481  0.00003419  1
  Sn  Sn10  1  0.00052989  0.25001365  0.00002921  1
  Sn  Sn11  1  0.74998635  0.99947029  0.49997103  1
  Sn  Sn12  1  0.74996448  0.49939909  0.49999031  1
  Sn  Sn13  1  0.50060134  0.25003538  0.00000995  1
  Sn  Sn14  1  0.99949672  0.75000739  0.00001541  1
  Sn  Sn15  1  0.24999300  0.00050326  0.49998488  1
  Pd  Pd0  1  0.06676454  0.31682916  0.63357683  1
  Pd  Pd1  1  0.81681439  0.56682716  0.13358366  1
  Pd  Pd2  1  0.43316100  0.18317551  0.36639470  1
  Pd  Pd3  1  0.68317994  0.93324461  0.86644240  1
  Pd  Pd4  1  0.93322503  0.68316682  0.36641150  1
  Pd  Pd5  1  0.18319496  0.43318074  0.86643548  1
  Pd  Pd6  1  0.56682848  0.81681424  0.63358390  1
  Pd  Pd7  1  0.31682351  0.06676619  0.13356968  1
loop_
_geom_bond_atom_site_label_1
_geom_bond_atom_site_label_2
_geom_bond_distance
_geom_bond_site_symmetry_2
Sn0 Sn3 2.933608 1_645
Sn0 Sn13 3.189077 1_555
Sn0 Sn12 3.189629 1_555
Sn1 Sn2 2.932410 1_555
Sn1 Sn15 3.189202 1_555
Sn1 Sn13 3.189759 1_556
Sn4 Sn7 2.933580 1_465
Sn4 Sn9 3.189605 1_556
Sn4 Sn8 3.190155 1_555
Sn5 Sn6 2.932422 1_555
Sn5 Sn9 3.189235 1_555
Sn6 Sn8 3.189789 1_555
Sn10 Sn6 3.188120 1_555
Sn10 Sn7 3.189595 1_454
Sn10 Sn13 3.270155 1_455
Sn10 Sn14 3.270685 1_445
Sn10 Sn14 3.270700 1_455
Sn10 Sn13 3.271216 1_555
Sn11 Sn5 3.188671 1_555
Sn11 Sn7 3.190149 1_565
Sn11 Sn12 3.270157 1_565
Sn11 Sn15 3.270687 1_665
Sn11 Sn15 3.270698 1_565
Sn11 Sn12 3.271214 1_555
Sn12 Sn2 3.190312 1_555
Sn12 Sn8 3.270284 1_555
Sn12 Sn8 3.271106 1_655
Sn13 Sn9 3.270288 1_555
Sn13 Sn9 3.271101 1_545
Sn14 Sn2 3.188653 1_554
Sn14 Sn3 3.189071 1_655
Sn14 Sn9 3.270128 1_655
Sn14 Sn9 3.271243 1_555
Sn15 Sn3 3.189627 1_545
Sn15 Sn8 3.270128 1_545
Sn15 Sn8 3.271243 1_555
Pd0 Sn12 2.835310 1_455
Pd0 Sn15 2.836042 1_555
Pd0 Sn11 2.837543 1_445
Pd0 Sn8 2.840676 1_555
Pd0 Sn4 2.847362 1_555
Pd0 Sn1 2.849422 1_555
Pd0 Sn2 2.849488 1_455
Pd0 Sn7 2.850095 1_455
Pd0 Pd5 2.864917 1_555
Pd1 Sn13 2.833169 1_555
Pd1 Sn14 2.835920 1_555
Pd1 Sn10 2.839451 1_655
Pd1 Sn9 2.839501 1_555
Pd1 Sn3 2.846948 1_655
Pd1 Sn6 2.848666 1_655
Pd1 Sn5 2.849589 1_555
Pd1 Sn0 2.849839 1_555
Pd1 Pd4 2.864537 1_555
Pd2 Sn12 2.833326 1_555
Pd2 Sn15 2.836075 1_555
Pd2 Sn11 2.839617 1_545
Pd2 Sn8 2.839645 1_555
Pd2 Sn3 2.847091 1_545
Pd2 Sn5 2.848821 1_545
Pd2 Sn6 2.849741 1_555
Pd2 Sn0 2.849998 1_555
Pd2 Pd7 2.864503 1_555
Pd3 Sn13 2.835168 1_566
Pd3 Sn14 2.835910 1_556
Pd3 Sn10 2.837411 1_666
Pd3 Sn9 2.840536 1_556
Pd3 Sn4 2.847191 1_555
Pd3 Sn2 2.849259 1_555
Pd3 Sn1 2.849330 1_565
Pd3 Sn7 2.849919 1_565
Pd3 Pd6 2.864915 1_555
Pd4 Sn8 2.835114 1_655
Pd4 Sn11 2.835765 1_555
Pd4 Sn15 2.837311 1_665
Pd4 Sn12 2.840430 1_555
Pd4 Sn0 2.847283 1_555
Pd4 Sn5 2.849320 1_555
Pd4 Sn6 2.849447 1_655
Pd4 Sn3 2.850019 1_655
Pd5 Sn9 2.833348 1_556
Pd5 Sn10 2.836084 1_556
Pd5 Sn14 2.839617 1_456
Pd5 Sn13 2.839681 1_556
Pd5 Sn7 2.847061 1_455
Pd5 Sn2 2.848783 1_455
Pd5 Sn1 2.849703 1_555
Pd5 Sn4 2.849970 1_555
Pd6 Sn8 2.833479 1_555
Pd6 Sn11 2.836224 1_555
Pd6 Sn15 2.839755 1_565
Pd6 Sn12 2.839811 1_555
Pd6 Sn7 2.847226 1_565
Pd6 Sn1 2.848956 1_565
Pd6 Sn2 2.849884 1_555
Pd6 Sn4 2.850137 1_555
Pd7 Sn9 2.834975 1_545
Pd7 Sn10 2.835629 1_555
Pd7 Sn14 2.837177 1_445
Pd7 Sn13 2.840293 1_555
Pd7 Sn0 2.847116 1_555
Pd7 Sn6 2.849146 1_555
Pd7 Sn5 2.849284 1_545
Pd7 Sn3 2.849840 1_545
