# generated using pymatgen
data_Ag2Se
_symmetry_space_group_name_H-M   'P 1'
_cell_length_a   4.55316454
_cell_length_b   4.55316454
_cell_length_c   4.55316454
_cell_angle_alpha   60.77700838
_cell_angle_beta   60.77700838
_cell_angle_gamma   91.35117053
_symmetry_Int_Tables_number   1
_chemical_formula_structural   Ag2Se
_chemical_formula_sum   'Ag2 Se1'
_cell_volume   67.50954804
_cell_formula_units_Z   1
loop_
 _symmetry_equiv_pos_site_id
 _symmetry_equiv_pos_as_xyz
  1  'x, y, z'
loop_
 _atom_site_type_symbol
 _atom_site_label
 _atom_site_symmetry_multiplicity
 _atom_site_fract_x
 _atom_site_fract_y
 _atom_site_fract_z
 _atom_site_occupancy
  Ag  Ag0  1  0.75000000  0.25000000  0.50000000  1
  Ag  Ag1  1  0.25000000  0.75000000  0.50000000  1
  Se  Se0  1  0.00000000  0.00000000  0.00000000  1
loop_
_geom_bond_atom_site_label_1
_geom_bond_atom_site_label_2
_geom_bond_distance
_geom_bond_site_symmetry_2
Ag0 Se0 2.799169 1_655
Ag0 Se0 2.799169 1_665
Ag0 Se0 2.799169 1_556
Ag0 Se0 2.799169 1_656
Ag1 Se0 2.799169 1_565
Ag1 Se0 2.799169 1_665
Ag1 Se0 2.799169 1_566
Ag1 Se0 2.799169 1_556
