# generated using pymatgen
data_YMg14Fe
_symmetry_space_group_name_H-M   'P 1'
_cell_length_a   6.43129410
_cell_length_b   6.14397434
_cell_length_c   10.21618396
_cell_angle_alpha   90.00000000
_cell_angle_beta   90.00000000
_cell_angle_gamma   118.53284385
_symmetry_Int_Tables_number   1
_chemical_formula_structural   YMg14Fe
_chemical_formula_sum   'Y1 Mg14 Fe1'
_cell_volume   354.64979317
_cell_formula_units_Z   1
loop_
 _symmetry_equiv_pos_site_id
 _symmetry_equiv_pos_as_xyz
  1  'x, y, z'
loop_
 _atom_site_type_symbol
 _atom_site_label
 _atom_site_symmetry_multiplicity
 _atom_site_fract_x
 _atom_site_fract_y
 _atom_site_fract_z
 _atom_site_occupancy
  Y  Y0  1  0.14156189  0.32078045  0.12500000  1
  Mg  Mg0  1  0.16963656  0.33481778  0.62500000  1
  Mg  Mg1  1  0.16063743  0.83031821  0.62500000  1
  Mg  Mg2  1  0.63596692  0.30773604  0.12500000  1
  Mg  Mg3  1  0.66262005  0.33564662  0.62500000  1
  Mg  Mg4  1  0.63596692  0.82822988  0.12500000  1
  Mg  Mg5  1  0.66262005  0.82697243  0.62500000  1
  Mg  Mg6  1  0.33737482  0.16245481  0.37157322  1
  Mg  Mg7  1  0.33737482  0.16245481  0.87842678  1
  Mg  Mg8  1  0.33737482  0.67492101  0.37157322  1
  Mg  Mg9  1  0.33737482  0.67492101  0.87842678  1
  Mg  Mg10  1  0.83737669  0.16868884  0.38692453  1
  Mg  Mg11  1  0.83737669  0.16868884  0.86307547  1
  Mg  Mg12  1  0.86540855  0.68270477  0.34621503  1
  Mg  Mg13  1  0.86540855  0.68270477  0.90378497  1
  Fe  Fe0  1  0.17592042  0.83795971  0.12500000  1
loop_
_geom_bond_atom_site_label_1
_geom_bond_atom_site_label_2
_geom_bond_distance
_geom_bond_site_symmetry_2
Mg0 Mg1 3.072408 1_555
Mg0 Mg1 3.072408 1_545
Mg0 Mg10 3.072468 1_455
Mg0 Mg11 3.072468 1_455
Mg0 Mg5 3.168092 1_555
Mg0 Mg3 3.168093 1_555
Mg0 Mg6 3.174870 1_555
Mg0 Mg7 3.174870 1_555
Mg0 Mg8 3.174876 1_555
Mg0 Mg9 3.174876 1_555
Mg0 Mg5 3.263208 1_445
Mg0 Mg3 3.263208 1_455
Mg1 Mg8 3.153328 1_555
Mg1 Mg9 3.153328 1_555
Mg1 Mg6 3.153334 1_565
Mg1 Mg7 3.153334 1_565
Mg1 Mg3 3.193128 1_455
Mg1 Mg5 3.193128 1_455
Mg1 Mg3 3.238267 1_565
Mg1 Mg5 3.238267 1_555
Mg1 Mg12 3.300654 1_455
Mg1 Mg13 3.300654 1_455
Mg2 Mg4 2.946074 1_545
Mg2 Mg7 3.031906 1_554
Mg2 Mg6 3.031906 1_555
Mg2 Mg4 3.197901 1_555
Mg2 Y0 3.214119 1_655
Mg2 Y0 3.218716 1_555
Mg3 Mg5 3.018693 1_555
Mg3 Mg5 3.125281 1_545
Mg3 Mg6 3.175615 1_555
Mg3 Mg7 3.175615 1_555
Mg4 Mg9 3.031906 1_554
Mg4 Mg8 3.031906 1_555
Mg4 Y0 3.214119 1_665
Mg4 Y0 3.218716 1_555
Mg5 Mg8 3.175615 1_555
Mg5 Mg9 3.175615 1_555
Mg6 Mg8 2.995395 1_545
Mg6 Mg8 3.148579 1_555
Mg6 Y0 3.169856 1_555
Mg7 Mg9 2.995395 1_545
Mg7 Mg9 3.148579 1_555
Mg7 Y0 3.169856 1_556
Mg8 Y0 3.169862 1_555
Mg9 Y0 3.169862 1_556
Mg10 Mg3 3.054915 1_555
Mg10 Mg5 3.054921 1_545
Mg10 Mg12 3.104055 1_555
Mg10 Mg12 3.104055 1_545
Mg10 Y0 3.180283 1_655
Mg10 Mg8 3.201384 1_545
Mg10 Mg6 3.201385 1_555
Mg10 Mg8 3.237906 1_655
Mg10 Mg6 3.237906 1_655
Mg10 Mg2 3.259622 1_555
Mg10 Mg4 3.259628 1_545
Mg11 Mg3 3.054915 1_555
Mg11 Mg5 3.054921 1_545
Mg11 Mg13 3.104055 1_555
Mg11 Mg13 3.104055 1_545
Mg11 Y0 3.180283 1_656
Mg11 Mg9 3.201384 1_545
Mg11 Mg7 3.201385 1_555
Mg11 Mg9 3.237906 1_655
Mg11 Mg7 3.237906 1_655
Mg11 Mg2 3.259622 1_556
Mg11 Mg4 3.259628 1_546
Mg12 Mg4 3.056913 1_555
Mg12 Mg2 3.056919 1_555
Mg12 Mg6 3.069438 1_665
Mg12 Mg8 3.069438 1_655
Mg12 Mg6 3.383291 1_555
Mg12 Mg8 3.383292 1_555
Mg12 Mg5 3.420924 1_555
Mg12 Mg3 3.420929 1_555
Mg13 Mg4 3.056913 1_556
Mg13 Mg2 3.056919 1_556
Mg13 Mg7 3.069438 1_665
Mg13 Mg9 3.069438 1_655
Mg13 Mg7 3.383291 1_555
Mg13 Mg9 3.383292 1_555
Mg13 Mg5 3.420924 1_555
Mg13 Mg3 3.420929 1_555
Fe0 Mg13 2.861041 1_454
Fe0 Mg12 2.861041 1_455
Fe0 Mg2 2.987710 1_565
Fe0 Mg4 2.987711 1_555
Fe0 Mg9 3.069335 1_554
Fe0 Mg8 3.069335 1_555
Fe0 Mg7 3.069341 1_564
Fe0 Mg6 3.069341 1_565
Fe0 Y0 3.078115 1_555
Fe0 Y0 3.078115 1_565
Fe0 Mg2 3.444445 1_455
Fe0 Mg4 3.444446 1_455
