# generated using pymatgen
data_TiNi
_symmetry_space_group_name_H-M   'P 1'
_cell_length_a   3.82194600
_cell_length_b   3.82194600
_cell_length_c   3.63625000
_cell_angle_alpha   90.00000000
_cell_angle_beta   90.00000000
_cell_angle_gamma   90.00000000
_symmetry_Int_Tables_number   1
_chemical_formula_structural   TiNi
_chemical_formula_sum   'Ti2 Ni2'
_cell_volume   53.11569000
_cell_formula_units_Z   2
loop_
 _symmetry_equiv_pos_site_id
 _symmetry_equiv_pos_as_xyz
  1  'x, y, z'
loop_
 _atom_site_type_symbol
 _atom_site_label
 _atom_site_symmetry_multiplicity
 _atom_site_fract_x
 _atom_site_fract_y
 _atom_site_fract_z
 _atom_site_occupancy
  Ti  Ti0  1  0.00000000  0.50000000  0.48080100  1
  Ti  Ti1  1  0.50000000  0.00000000  0.51919900  1
  Ni  Ni0  1  0.50000000  0.50000000  0.00000000  1
  Ni  Ni1  1  0.00000000  0.00000000  0.00000000  1
loop_
_geom_bond_atom_site_label_1
_geom_bond_atom_site_label_2
_geom_bond_distance
_geom_bond_site_symmetry_2
Ti0 Ti1 2.706128 1_565
Ti0 Ti1 2.706128 1_455
Ti0 Ti1 2.706128 1_555
Ti0 Ti1 2.706128 1_465
Ni0 Ti0 2.590061 1_655
Ni0 Ti1 2.590061 1_554
Ni0 Ti1 2.590061 1_564
Ni0 Ti0 2.590061 1_555
Ni0 Ti0 2.686285 1_554
Ni0 Ti0 2.686285 1_654
Ni0 Ti1 2.686285 1_555
Ni0 Ti1 2.686285 1_565
Ni0 Ni1 2.702524 1_665
Ni0 Ni1 2.702524 1_555
Ni0 Ni1 2.702524 1_565
Ni0 Ni1 2.702524 1_655
Ni1 Ti1 2.590061 1_554
Ni1 Ti0 2.590061 1_555
Ni1 Ti0 2.590061 1_545
Ni1 Ti1 2.590061 1_454
Ni1 Ti1 2.686285 1_455
Ni1 Ti0 2.686285 1_554
Ni1 Ti1 2.686285 1_555
Ni1 Ti0 2.686285 1_544
