# generated using pymatgen
data_Dy3SOF5
_symmetry_space_group_name_H-M   'P 1'
_cell_length_a   3.67054500
_cell_length_b   9.39001100
_cell_length_c   9.45100845
_cell_angle_alpha   60.45140609
_cell_angle_beta   90.00000000
_cell_angle_gamma   90.00000000
_symmetry_Int_Tables_number   1
_chemical_formula_structural   Dy3SOF5
_chemical_formula_sum   'Dy6 S2 O2 F10'
_cell_volume   283.37594464
_cell_formula_units_Z   2
loop_
 _symmetry_equiv_pos_site_id
 _symmetry_equiv_pos_as_xyz
  1  'x, y, z'
loop_
 _atom_site_type_symbol
 _atom_site_label
 _atom_site_symmetry_multiplicity
 _atom_site_fract_x
 _atom_site_fract_y
 _atom_site_fract_z
 _atom_site_occupancy
  Dy  Dy0  1  0.00000000  0.58258100  0.13408900  1
  Dy  Dy1  1  0.00000000  0.13265700  0.27105800  1
  Dy  Dy2  1  0.00000000  0.29898100  0.58558400  1
  Dy  Dy3  1  0.50000000  0.40488300  0.89681600  1
  Dy  Dy4  1  0.50000000  0.87640600  0.71497000  1
  Dy  Dy5  1  0.50000000  0.70372500  0.40243900  1
  S  S0  1  0.00000000  0.67100600  0.66715400  1
  S  S1  1  0.50000000  0.32630100  0.33872000  1
  O  O0  1  0.00000000  0.56388600  0.38734200  1
  O  O1  1  0.00000000  0.38402200  0.05213100  1
  F  F0  1  0.00000000  0.84072000  0.88007700  1
  F  F1  1  0.00000000  0.88790500  0.27310000  1
  F  F2  1  0.00000000  0.27535400  0.83723500  1
  F  F3  1  0.50000000  0.14476300  0.11706800  1
  F  F4  1  0.50000000  0.12156400  0.71432600  1
  F  F5  1  0.50000000  0.72811900  0.14912400  1
  F  F6  1  0.00000000  0.04768400  0.56689100  1
  F  F7  1  0.50000000  0.43098800  0.62601000  1
  F  F8  1  0.50000000  0.62217600  0.95295800  1
  F  F9  1  0.50000000  0.95628100  0.43291000  1
loop_
_geom_bond_atom_site_label_1
_geom_bond_atom_site_label_2
_geom_bond_distance
_geom_bond_site_symmetry_2
Dy0 O0 2.311973 1_555
Dy0 F5 2.334000 1_455
Dy0 F5 2.334000 1_555
Dy0 O1 2.345352 1_555
Dy0 F8 2.410227 1_454
Dy0 F8 2.410227 1_554
Dy0 F0 2.428822 1_554
Dy0 S1 2.882565 1_555
Dy0 S1 2.882565 1_455
Dy1 O1 2.243949 1_555
Dy1 F1 2.288768 1_545
Dy1 F3 2.309988 1_455
Dy1 F3 2.309988 1_555
Dy1 F9 2.439727 1_445
Dy1 F9 2.439727 1_545
Dy1 F6 2.500693 1_555
Dy1 S1 2.868850 1_555
Dy1 S1 2.868850 1_455
Dy2 O0 2.258552 1_555
Dy2 F2 2.277138 1_555
Dy2 F7 2.348998 1_455
Dy2 F7 2.348998 1_555
Dy2 F4 2.371658 1_455
Dy2 F4 2.371658 1_555
Dy2 F6 2.451629 1_555
Dy2 S1 2.878735 1_455
Dy2 S1 2.878735 1_555
Dy3 O1 2.297319 1_656
Dy3 O1 2.297319 1_556
Dy3 F3 2.298735 1_556
Dy3 F8 2.347875 1_555
Dy3 F2 2.416643 1_555
Dy3 F2 2.416643 1_655
Dy3 F7 2.447809 1_555
Dy3 S0 2.995694 1_555
Dy3 S0 2.995694 1_655
Dy4 F4 2.299041 1_565
Dy4 F0 2.323728 1_555
Dy4 F0 2.323728 1_655
Dy4 F8 2.337067 1_555
Dy4 F6 2.386089 1_665
Dy4 F6 2.386089 1_565
Dy4 F9 2.386783 1_555
Dy4 S0 2.855178 1_555
Dy4 S0 2.855178 1_655
Dy5 F5 2.289806 1_555
Dy5 O0 2.301647 1_555
Dy5 O0 2.301647 1_655
Dy5 F7 2.384548 1_555
Dy5 F1 2.401731 1_655
Dy5 F1 2.401731 1_555
Dy5 F9 2.525979 1_555
Dy5 S0 2.993929 1_555
Dy5 S0 2.993929 1_655
