# generated using pymatgen
data_Y2Re2Si2C
_symmetry_space_group_name_H-M   'P 1'
_cell_length_a   5.82986460
_cell_length_b   5.82986460
_cell_length_c   6.94952709
_cell_angle_alpha   55.11521024
_cell_angle_beta   55.11521024
_cell_angle_gamma   40.20865521
_symmetry_Int_Tables_number   1
_chemical_formula_structural   Y2Re2Si2C
_chemical_formula_sum   'Y2 Re2 Si2 C1'
_cell_volume   120.93947493
_cell_formula_units_Z   1
loop_
 _symmetry_equiv_pos_site_id
 _symmetry_equiv_pos_as_xyz
  1  'x, y, z'
loop_
 _atom_site_type_symbol
 _atom_site_label
 _atom_site_symmetry_multiplicity
 _atom_site_fract_x
 _atom_site_fract_y
 _atom_site_fract_z
 _atom_site_occupancy
  Y  Y0  1  0.42740600  0.42740600  0.30039700  1
  Y  Y1  1  0.57259400  0.57259400  0.69960300  1
  Re  Re0  1  0.79265300  0.79265300  0.09246100  1
  Re  Re1  1  0.20734700  0.20734700  0.90753900  1
  Si  Si0  1  0.85762700  0.85762700  0.68259200  1
  Si  Si1  1  0.14237300  0.14237300  0.31740800  1
  C  C0  1  0.00000000  0.00000000  0.00000000  1
loop_
_geom_bond_atom_site_label_1
_geom_bond_atom_site_label_2
_geom_bond_distance
_geom_bond_site_symmetry_2
Re0 Si1 2.456365 1_655
Re0 Si1 2.456365 1_565
Re0 Si0 2.480154 1_554
Re1 Si0 2.456365 1_545
Re1 Si0 2.456365 1_455
Re1 Si1 2.480154 1_556
Si0 Si1 2.554060 1_665
Si0 Y0 3.030220 1_655
Si0 Y0 3.030220 1_565
Si0 Y1 3.050349 1_555
Si0 Y1 3.147793 1_655
Si0 Y1 3.147793 1_565
Si1 Y1 3.030220 1_545
Si1 Y1 3.030220 1_455
Si1 Y0 3.050349 1_555
Si1 Y0 3.147793 1_545
Si1 Y0 3.147793 1_455
C0 Re0 1.946847 1_445
C0 Re1 1.946847 1_554
C0 Y0 2.642792 1_455
C0 Y1 2.642792 1_454
C0 Y1 2.642792 1_544
C0 Y0 2.642792 1_545
