# generated using pymatgen
data_KSnBr3
_symmetry_space_group_name_H-M   'P 1'
_cell_length_a   4.47666619
_cell_length_b   8.95656243
_cell_length_c   16.58642631
_cell_angle_alpha   90.00000000
_cell_angle_beta   90.00000000
_cell_angle_gamma   90.00000000
_symmetry_Int_Tables_number   1
_chemical_formula_structural   KSnBr3
_chemical_formula_sum   'K4 Sn4 Br12'
_cell_volume   665.04172304
_cell_formula_units_Z   4
loop_
 _symmetry_equiv_pos_site_id
 _symmetry_equiv_pos_as_xyz
  1  'x, y, z'
loop_
 _atom_site_type_symbol
 _atom_site_label
 _atom_site_symmetry_multiplicity
 _atom_site_fract_x
 _atom_site_fract_y
 _atom_site_fract_z
 _atom_site_occupancy
  K  K0  1  0.75000000  0.59580967  0.16160625  1
  K  K1  1  0.25000000  0.40419033  0.83839375  1
  K  K2  1  0.75000000  0.09580967  0.33839375  1
  K  K3  1  0.25000000  0.90419033  0.66160625  1
  Sn  Sn0  1  0.25000000  0.63752460  0.43472594  1
  Sn  Sn1  1  0.75000000  0.36247540  0.56527406  1
  Sn  Sn2  1  0.25000000  0.13752460  0.06527406  1
  Sn  Sn3  1  0.75000000  0.86247540  0.93472594  1
  Br  Br0  1  0.75000000  0.82378405  0.50541982  1
  Br  Br1  1  0.25000000  0.17621595  0.49458018  1
  Br  Br2  1  0.75000000  0.32378405  0.99458018  1
  Br  Br3  1  0.25000000  0.67621595  0.00541982  1
  Br  Br4  1  0.25000000  0.52633724  0.64515280  1
  Br  Br5  1  0.75000000  0.47366276  0.35484720  1
  Br  Br6  1  0.25000000  0.02633724  0.85484720  1
  Br  Br7  1  0.75000000  0.97366276  0.14515280  1
  Br  Br8  1  0.25000000  0.81374625  0.30447449  1
  Br  Br9  1  0.75000000  0.18625375  0.69552551  1
  Br  Br10  1  0.25000000  0.31374625  0.19552551  1
  Br  Br11  1  0.75000000  0.68625375  0.80447449  1
loop_
_geom_bond_atom_site_label_1
_geom_bond_atom_site_label_2
_geom_bond_distance
_geom_bond_site_symmetry_2
Br0 Sn0 3.027882 1_555
Br0 Sn0 3.027882 1_655
Br0 K3 3.498549 1_555
Br0 K3 3.498549 1_655
Br0 K2 3.689314 1_565
Br1 Sn1 3.027882 1_555
Br1 Sn1 3.027882 1_455
Br1 K2 3.498549 1_555
Br1 K2 3.498549 1_455
Br1 K3 3.689314 1_545
Br2 Sn2 3.027882 1_556
Br2 Sn2 3.027882 1_656
Br2 K1 3.498549 1_555
Br2 K1 3.498549 1_655
Br2 K0 3.689314 1_556
Br3 Sn3 3.027882 1_554
Br3 Sn3 3.027882 1_454
Br3 K0 3.498549 1_455
Br3 K0 3.498549 1_555
Br3 K1 3.689314 1_554
Br4 Sn1 2.986548 1_455
Br4 Sn1 2.986548 1_555
Br4 K1 3.386743 1_555
Br4 K3 3.395250 1_555
Br5 Sn0 2.986548 1_555
Br5 Sn0 2.986548 1_655
Br5 K0 3.386743 1_555
Br5 K2 3.395250 1_555
Br6 Sn3 2.986548 1_445
Br6 Sn3 2.986548 1_545
Br6 K3 3.386743 1_545
Br6 K1 3.395250 1_555
Br7 Sn2 2.986548 1_665
Br7 Sn2 2.986548 1_565
Br7 K2 3.386743 1_565
Br7 K0 3.395250 1_555
Br8 Sn0 2.675540 1_555
Br8 K2 3.421833 1_465
Br8 K2 3.421833 1_565
Br8 K0 3.799427 1_455
Br8 K0 3.799427 1_555
Br9 Sn1 2.675540 1_555
Br9 K3 3.421833 1_545
Br9 K3 3.421833 1_645
Br9 K1 3.799427 1_655
Br9 K1 3.799427 1_555
Br10 Sn2 2.675540 1_555
Br10 K0 3.421833 1_555
Br10 K0 3.421833 1_455
Br10 K2 3.799427 1_555
Br10 K2 3.799427 1_455
Br11 Sn3 2.675540 1_555
Br11 K1 3.421833 1_655
Br11 K1 3.421833 1_555
Br11 K3 3.799427 1_555
Br11 K3 3.799427 1_655
