# generated using pymatgen
data_LiFeSO4F
_symmetry_space_group_name_H-M   'P 1'
_cell_length_a   5.23121273
_cell_length_b   5.58728784
_cell_length_c   7.38361822
_cell_angle_alpha   107.13854279
_cell_angle_beta   107.01804969
_cell_angle_gamma   96.90002798
_symmetry_Int_Tables_number   1
_chemical_formula_structural   LiFeSO4F
_chemical_formula_sum   'Li2 Fe2 S2 O8 F2'
_cell_volume   192.10153259
_cell_formula_units_Z   2
loop_
 _symmetry_equiv_pos_site_id
 _symmetry_equiv_pos_as_xyz
  1  'x, y, z'
loop_
 _atom_site_type_symbol
 _atom_site_label
 _atom_site_symmetry_multiplicity
 _atom_site_fract_x
 _atom_site_fract_y
 _atom_site_fract_z
 _atom_site_occupancy
  Li  Li0  1  0.73167100  0.37422700  0.20852600  1
  Li  Li1  1  0.24903100  0.60276400  0.71168300  1
  Fe  Fe0  1  0.00340000  0.99779400  0.99786400  1
  Fe  Fe1  1  0.99576700  0.99826000  0.49632700  1
  S  S0  1  0.67344000  0.37220100  0.75271200  1
  S  S1  1  0.32721500  0.63044400  0.24994300  1
  O  O0  1  0.88692600  0.34843300  0.65457500  1
  O  O1  1  0.11523500  0.64302600  0.35196100  1
  O  O2  1  0.72846400  0.24742400  0.90835700  1
  O  O3  1  0.26970500  0.76488100  0.10266000  1
  O  O4  1  0.67512900  0.64909900  0.84729600  1
  O  O5  1  0.32220900  0.35458500  0.14601700  1
  O  O6  1  0.39433100  0.25625900  0.59897700  1
  O  O7  1  0.60591300  0.74191700  0.40351100  1
  F  F0  1  0.87949600  0.08815600  0.24173300  1
  F  F1  1  0.12006500  0.90953300  0.75185800  1
loop_
_geom_bond_atom_site_label_1
_geom_bond_atom_site_label_2
_geom_bond_distance
_geom_bond_site_symmetry_2
Li0 O5 2.036698 1_555
Li0 O2 2.112889 1_554
Li0 O1 2.120824 1_655
Li0 O7 2.421155 1_555
Li1 O0 2.077939 1_455
Li1 O4 2.107189 1_555
Li1 O6 2.189234 1_555
Li1 O1 2.626194 1_555
Fe0 O3 2.151989 1_556
Fe0 O4 2.186943 1_455
Fe0 O5 2.190917 1_566
Fe0 O2 2.218004 1_465
Fe1 O7 2.140512 1_555
Fe1 O6 2.169899 1_665
Fe1 O0 2.197076 1_565
Fe1 O1 2.215242 1_655
O0 S0 1.497503 1_555
O1 S1 1.509468 1_555
O2 S0 1.488755 1_555
O3 S1 1.477007 1_555
O4 S0 1.495883 1_555
O5 S1 1.498871 1_555
O6 S0 1.486338 1_555
O7 S1 1.482269 1_555
F0 Li0 1.905215 1_555
F0 Fe1 2.028936 1_545
F0 Fe0 2.035513 1_644
F1 Li1 1.891109 1_555
F1 Fe0 2.026893 1_555
F1 Fe1 2.034443 1_455
