# generated using pymatgen
data_Cs2K2B10O17
_symmetry_space_group_name_H-M   'P 1'
_cell_length_a   6.67636500
_cell_length_b   11.43838953
_cell_length_c   11.96361141
_cell_angle_alpha   102.67629303
_cell_angle_beta   106.04981192
_cell_angle_gamma   89.91518627
_symmetry_Int_Tables_number   1
_chemical_formula_structural   Cs2K2B10O17
_chemical_formula_sum   'Cs4 K4 B20 O34'
_cell_volume   854.90219773
_cell_formula_units_Z   2
loop_
 _symmetry_equiv_pos_site_id
 _symmetry_equiv_pos_as_xyz
  1  'x, y, z'
loop_
 _atom_site_type_symbol
 _atom_site_label
 _atom_site_symmetry_multiplicity
 _atom_site_fract_x
 _atom_site_fract_y
 _atom_site_fract_z
 _atom_site_occupancy
  Cs  Cs0  1  0.36647200  0.59633500  0.11165700  1
  Cs  Cs1  1  0.63449700  0.40502400  0.88972100  1
  Cs  Cs2  1  0.25503500  0.90454400  0.88896500  1
  Cs  Cs3  1  0.75115200  0.09258300  0.10923900  1
  K  K0  1  0.65106300  0.67221100  0.45753300  1
  K  K1  1  0.19219600  0.82678300  0.54044400  1
  K  K2  1  0.80866600  0.17456300  0.45676100  1
  K  K3  1  0.35637800  0.32428000  0.54331600  1
  B  B0  1  0.20224600  0.16336700  0.71178300  1
  B  B1  1  0.79903300  0.83737100  0.28853600  1
  B  B2  1  0.13956200  0.57463200  0.69691100  1
  B  B3  1  0.22458100  0.23521800  0.10213500  1
  B  B4  1  0.89115900  0.01531900  0.66616800  1
  B  B5  1  0.22619900  0.48517100  0.33359900  1
  B  B6  1  0.77223500  0.76544000  0.89581200  1
  B  B7  1  0.50612700  0.66373200  0.71005500  1
  B  B8  1  0.49249400  0.33693200  0.28716000  1
  B  B9  1  0.31688500  0.12924200  0.26906200  1
  B  B10  1  0.55902200  0.07515200  0.70064800  1
  B  B11  1  0.68293300  0.87106600  0.72861800  1
  B  B12  1  0.44359500  0.92649300  0.30095700  1
  B  B13  1  0.86008300  0.42577400  0.29983400  1
  B  B14  1  0.12264500  0.26789800  0.89751900  1
  B  B15  1  0.95503600  0.62916500  0.27031100  1
  B  B16  1  0.11162000  0.98615500  0.33520600  1
  B  B17  1  0.77421800  0.51536500  0.66572000  1
  B  B18  1  0.04691000  0.37195100  0.72953900  1
  B  B19  1  0.87738500  0.73292100  0.10178400  1
  O  O0  1  0.20098200  0.13562500  0.14397300  1
  O  O1  1  0.60726500  0.68215900  0.84228300  1
  O  O2  1  0.38811200  0.31968200  0.15562400  1
  O  O3  1  0.09771100  0.26036600  0.66340500  1
  O  O4  1  0.07452300  0.25214300  0.00024800  1
  O  O5  1  0.08131800  0.04452200  0.65294800  1
  O  O6  1  0.06050700  0.36812300  0.85602500  1
  O  O7  1  0.82644000  0.40071800  0.67449600  1
  O  O8  1  0.84466400  0.89972600  0.67100300  1
  O  O9  1  0.72385200  0.34195200  0.30882900  1
  O  O10  1  0.41254600  0.15836600  0.69044800  1
  O  O11  1  0.92147900  0.74786100  0.99791900  1
  O  O12  1  0.17438100  0.60034800  0.32716800  1
  O  O13  1  0.53741600  0.97118500  0.73608100  1
  O  O14  1  0.80287000  0.52984600  0.26502300  1
  O  O15  1  0.92085100  0.95616500  0.34694200  1
  O  O16  1  0.43666100  0.23956800  0.33505900  1
  O  O17  1  0.42924000  0.45561300  0.34650400  1
  O  O18  1  0.22937800  0.18143200  0.84334700  1
  O  O19  1  0.57122100  0.54494700  0.65217100  1
  O  O20  1  0.26342600  0.90137100  0.33358900  1
  O  O21  1  0.56327800  0.76091900  0.66244200  1
  O  O22  1  0.27460200  0.65799300  0.68662300  1
  O  O23  1  0.77051200  0.81911600  0.15663100  1
  O  O24  1  0.92714600  0.60024200  0.66780300  1
  O  O25  1  0.59017000  0.84316900  0.31126100  1
  O  O26  1  0.15526000  0.10082900  0.32711100  1
  O  O27  1  0.19761900  0.47108300  0.73320400  1
  O  O28  1  0.90302400  0.74030600  0.33629600  1
  O  O29  1  0.07230800  0.39950600  0.32881400  1
  O  O30  1  0.46102100  0.02811300  0.26142800  1
  O  O31  1  0.79881600  0.86469100  0.85392100  1
  O  O32  1  0.74297500  0.10164500  0.67253100  1
  O  O33  1  0.94409800  0.63392400  0.14426800  1
loop_
_geom_bond_atom_site_label_1
_geom_bond_atom_site_label_2
_geom_bond_distance
_geom_bond_site_symmetry_2
Cs0 O33 2.969877 1_455
Cs0 O12 3.173430 1_555
Cs0 O14 3.175475 1_555
Cs0 O25 3.314494 1_555
Cs0 O2 3.316406 1_555
Cs0 O17 3.462988 1_555
Cs0 O11 3.530797 1_454
Cs0 O23 3.560304 1_555
Cs0 O6 3.660270 1_554
Cs1 O6 2.997648 1_655
Cs1 O7 3.169108 1_555
Cs1 O27 3.190478 1_555
Cs1 O10 3.308543 1_555
Cs1 O1 3.336873 1_555
Cs1 O19 3.485280 1_555
Cs1 O4 3.505516 1_656
Cs1 O18 3.568234 1_555
Cs1 O33 3.665738 1_556
Cs2 O31 2.979112 1_455
Cs2 O13 3.162845 1_555
Cs2 O8 3.208750 1_455
Cs2 O22 3.317808 1_555
Cs2 O18 3.326163 1_565
Cs2 O5 3.471226 1_565
Cs2 O1 3.521015 1_555
Cs2 O11 3.537301 1_455
Cs2 O0 3.673012 1_566
Cs3 O0 2.942614 1_655
Cs3 O26 3.175897 1_655
Cs3 O30 3.186619 1_555
Cs3 O23 3.295353 1_545
Cs3 O9 3.334793 1_555
Cs3 O15 3.459241 1_545
Cs3 O4 3.507849 1_655
Cs3 O2 3.608725 1_555
Cs3 O31 3.642370 1_544
K0 O21 2.661517 1_555
K0 O28 2.718273 1_555
K0 O17 2.752203 1_555
K0 O25 2.856154 1_555
K0 O14 2.936519 1_555
K0 O24 2.956997 1_555
K0 O12 3.152298 1_555
K0 O19 3.162559 1_555
K0 O8 3.198940 1_555
K1 O28 2.647427 1_455
K1 O21 2.704322 1_555
K1 O5 2.763481 1_565
K1 O22 2.834668 1_555
K1 O20 2.942269 1_555
K1 O13 2.974921 1_555
K1 O8 3.153675 1_455
K1 O15 3.163531 1_455
K1 O12 3.188353 1_555
K2 O3 2.664920 1_655
K2 O16 2.703959 1_555
K2 O15 2.761496 1_545
K2 O9 2.837007 1_555
K2 O30 2.991411 1_555
K2 O32 3.020532 1_555
K2 O26 3.142678 1_655
K2 O5 3.193242 1_655
K2 O7 3.219305 1_555
K3 O16 2.666671 1_555
K3 O3 2.723523 1_555
K3 O19 2.767584 1_555
K3 O10 2.817739 1_555
K3 O27 2.959041 1_555
K3 O29 3.032476 1_555
K3 O7 3.123926 1_555
K3 O26 3.195985 1_555
K3 O17 3.197705 1_555
B0 O3 1.452332 1_555
B0 O10 1.493741 1_555
B0 O18 1.500880 1_555
B0 O5 1.504760 1_555
B1 O28 1.448442 1_555
B1 O25 1.491386 1_555
B1 O23 1.503156 1_555
B1 O15 1.506123 1_555
B2 O22 1.361100 1_555
B2 O27 1.368554 1_555
B2 O24 1.410228 1_455
B3 O0 1.366560 1_555
B3 O2 1.371270 1_555
B3 O4 1.398113 1_555
B4 O5 1.372543 1_655
B4 O8 1.375726 1_545
B4 O32 1.401909 1_555
B5 O17 1.371699 1_555
B5 O12 1.374653 1_555
B5 O29 1.401741 1_555
B6 O31 1.367841 1_555
B6 O1 1.369670 1_555
B6 O11 1.399880 1_555
B7 O21 1.450932 1_555
B7 O22 1.491591 1_555
B7 O19 1.505401 1_555
B7 O1 1.505422 1_555
B8 O16 1.451574 1_555
B8 O9 1.492883 1_555
B8 O2 1.502894 1_555
B8 O17 1.505441 1_555
B9 O16 1.439432 1_555
B9 O0 1.500379 1_555
B9 O26 1.505581 1_555
B9 O30 1.507111 1_555
B10 O10 1.363619 1_555
B10 O13 1.367591 1_545
B10 O32 1.409815 1_555
B11 O21 1.437992 1_555
B11 O31 1.502539 1_555
B11 O8 1.503415 1_555
B11 O13 1.504363 1_555
B12 O30 1.363949 1_565
B12 O25 1.365033 1_555
B12 O20 1.411315 1_555
B13 O9 1.363848 1_555
B13 O14 1.365546 1_555
B13 O29 1.410990 1_655
B14 O6 1.366486 1_555
B14 O18 1.370383 1_555
B14 O4 1.400669 1_556
B15 O28 1.438653 1_555
B15 O33 1.502422 1_555
B15 O12 1.504015 1_655
B15 O14 1.504337 1_555
B16 O15 1.371448 1_455
B16 O26 1.373781 1_565
B16 O20 1.402774 1_555
B17 O19 1.370693 1_555
B17 O7 1.375182 1_555
B17 O24 1.401384 1_555
B18 O3 1.440139 1_555
B18 O6 1.501044 1_555
B18 O27 1.502416 1_555
B18 O7 1.505395 1_455
B19 O33 1.365610 1_555
B19 O23 1.372809 1_555
B19 O11 1.398406 1_554
