# generated using pymatgen
data_TbCrTeO6
_symmetry_space_group_name_H-M   'P 1'
_cell_length_a   5.19632916
_cell_length_b   5.19687632
_cell_length_c   9.84851201
_cell_angle_alpha   89.99620483
_cell_angle_beta   90.00189832
_cell_angle_gamma   120.00348517
_symmetry_Int_Tables_number   1
_chemical_formula_structural   TbCrTeO6
_chemical_formula_sum   'Tb2 Cr2 Te2 O12'
_cell_volume   230.31648880
_cell_formula_units_Z   2
loop_
 _symmetry_equiv_pos_site_id
 _symmetry_equiv_pos_as_xyz
  1  'x, y, z'
loop_
 _atom_site_type_symbol
 _atom_site_label
 _atom_site_symmetry_multiplicity
 _atom_site_fract_x
 _atom_site_fract_y
 _atom_site_fract_z
 _atom_site_occupancy
  Tb  Tb0  1  0.00000000  0.00000000  0.00000000  1
  Tb  Tb1  1  0.00000000  0.00000000  0.50000000  1
  Cr  Cr0  1  0.33322100  0.66661100  0.25000000  1
  Cr  Cr1  1  0.66677900  0.33338900  0.75000000  1
  Te  Te0  1  0.33323200  0.66661600  0.75000000  1
  Te  Te1  1  0.66676800  0.33338400  0.25000000  1
  O  O0  1  0.36613700  0.35609700  0.13978800  1
  O  O1  1  0.64394900  0.01004200  0.13977400  1
  O  O2  1  0.99000900  0.63390100  0.13979400  1
  O  O3  1  0.63386300  0.64390300  0.86021200  1
  O  O4  1  0.35605100  0.98995800  0.86022600  1
  O  O5  1  0.00999100  0.36609900  0.86020600  1
  O  O6  1  0.64394900  0.63390700  0.36022600  1
  O  O7  1  0.36613700  0.01004000  0.36021200  1
  O  O8  1  0.99000900  0.35610800  0.36020600  1
  O  O9  1  0.35605100  0.36609300  0.63977400  1
  O  O10  1  0.63386300  0.98996000  0.63978800  1
  O  O11  1  0.00999100  0.64389200  0.63979400  1
loop_
_geom_bond_atom_site_label_1
_geom_bond_atom_site_label_2
_geom_bond_distance
_geom_bond_site_symmetry_2
Cr0 O2 2.020960 1_455
Cr0 O8 2.020962 1_455
Cr0 O7 2.021807 1_565
Cr0 O0 2.021812 1_555
Cr0 O1 2.022056 1_565
Cr0 O6 2.022058 1_555
Cr1 O5 2.020960 1_655
Cr1 O11 2.020962 1_655
Cr1 O10 2.021807 1_545
Cr1 O3 2.021812 1_555
Cr1 O4 2.022056 1_545
Cr1 O9 2.022058 1_555
O0 Te1 1.953653 1_555
O0 Tb0 2.327807 1_555
O1 Te1 1.953741 1_555
O1 Tb0 2.327549 1_655
O2 Te1 1.953141 1_555
O2 Tb0 2.327836 1_665
O3 Te0 1.953653 1_555
O3 Tb0 2.327807 1_666
O4 Te0 1.953741 1_555
O4 Tb0 2.327549 1_566
O5 Te0 1.953141 1_555
O5 Tb0 2.327836 1_556
O6 Te1 1.953741 1_555
O6 Tb1 2.327549 1_665
O7 Te1 1.953653 1_555
O7 Tb1 2.327807 1_555
O8 Te1 1.953141 1_555
O8 Tb1 2.327836 1_655
O9 Te0 1.953741 1_555
O9 Tb1 2.327549 1_555
O10 Te0 1.953653 1_555
O10 Tb1 2.327807 1_665
O11 Te0 1.953141 1_555
O11 Tb1 2.327836 1_565
