# generated using pymatgen
data_CrGa3(NiS4)2
_symmetry_space_group_name_H-M   'P 1'
_cell_length_a   3.62086898
_cell_length_b   12.43081061
_cell_length_c   6.33293425
_cell_angle_alpha   75.34955806
_cell_angle_beta   89.97042761
_cell_angle_gamma   98.38446128
_symmetry_Int_Tables_number   1
_chemical_formula_structural   CrGa3(NiS4)2
_chemical_formula_sum   'Cr1 Ga3 Ni2 S8'
_cell_volume   272.62384651
_cell_formula_units_Z   1
loop_
 _symmetry_equiv_pos_site_id
 _symmetry_equiv_pos_as_xyz
  1  'x, y, z'
loop_
 _atom_site_type_symbol
 _atom_site_label
 _atom_site_symmetry_multiplicity
 _atom_site_fract_x
 _atom_site_fract_y
 _atom_site_fract_z
 _atom_site_occupancy
  Cr  Cr0  1  0.10741800  0.21390900  0.56352900  1
  Ga  Ga0  1  0.60643600  0.21279600  0.05821400  1
  Ga  Ga1  1  0.89226700  0.78489500  0.44188000  1
  Ga  Ga2  1  0.39200300  0.78444900  0.94106300  1
  Ni  Ni0  1  0.74966300  0.49918800  0.25173500  1
  Ni  Ni1  1  0.24939100  0.49952900  0.74926400  1
  S  S0  1  0.93576500  0.87243700  0.72946800  1
  S  S1  1  0.43595900  0.87204600  0.22995100  1
  S  S2  1  0.06630400  0.13222500  0.26792300  1
  S  S3  1  0.56761200  0.13412700  0.76530800  1
  S  S4  1  0.70161300  0.40477400  0.96500100  1
  S  S5  1  0.19964600  0.39980100  0.46593000  1
  S  S6  1  0.29888900  0.59594700  0.03468800  1
  S  S7  1  0.79703300  0.59387700  0.53604500  1
loop_
_geom_bond_atom_site_label_1
_geom_bond_atom_site_label_2
_geom_bond_distance
_geom_bond_site_symmetry_2
Cr0 S5 2.210330 1_555
Cr0 S3 2.286453 1_455
Cr0 S3 2.288257 1_555
Cr0 S2 2.339985 1_555
Ga0 S4 2.282473 1_554
Ga0 S3 2.301026 1_554
Ga0 S2 2.311943 1_555
Ga0 S2 2.314159 1_655
Ga1 S7 2.271022 1_555
Ga1 S0 2.340713 1_555
Ga1 S1 2.343143 1_655
Ga1 S1 2.343853 1_555
Ga2 S6 2.241110 1_556
Ga2 S0 2.344430 1_555
Ga2 S0 2.347088 1_455
Ga2 S1 2.348535 1_556
Ni0 S7 2.381225 1_555
Ni0 S4 2.392467 1_554
Ni0 S6 2.395553 1_555
Ni0 S6 2.398795 1_655
Ni0 S5 2.400566 1_655
Ni0 S5 2.400953 1_555
Ni1 S7 2.375512 1_455
Ni1 S7 2.376722 1_555
Ni1 S4 2.384528 1_555
Ni1 S4 2.385348 1_455
Ni1 S6 2.401989 1_556
Ni1 S5 2.418547 1_555
