# generated using pymatgen
data_Ce2VFeO6
_symmetry_space_group_name_H-M   'P 1'
_cell_length_a   5.82351900
_cell_length_b   5.45895000
_cell_length_c   9.45446940
_cell_angle_alpha   55.89261687
_cell_angle_beta   90.00000000
_cell_angle_gamma   90.00000000
_symmetry_Int_Tables_number   1
_chemical_formula_structural   Ce2VFeO6
_chemical_formula_sum   'Ce4 V2 Fe2 O12'
_cell_volume   248.86043750
_cell_formula_units_Z   2
loop_
 _symmetry_equiv_pos_site_id
 _symmetry_equiv_pos_as_xyz
  1  'x, y, z'
loop_
 _atom_site_type_symbol
 _atom_site_label
 _atom_site_symmetry_multiplicity
 _atom_site_fract_x
 _atom_site_fract_y
 _atom_site_fract_z
 _atom_site_occupancy
  Ce  Ce0  1  0.57560000  0.72759800  0.75156800  1
  Ce  Ce1  1  0.07560000  0.27240200  0.74843200  1
  Ce  Ce2  1  0.42440000  0.27240200  0.24843200  1
  Ce  Ce3  1  0.92440000  0.72759800  0.25156800  1
  V  V0  1  0.00000000  0.00000000  0.50000000  1
  V  V1  1  0.50000000  0.00000000  0.00000000  1
  Fe  Fe0  1  0.00000000  0.50000000  0.00000000  1
  Fe  Fe1  1  0.50000000  0.50000000  0.50000000  1
  O  O0  1  0.95623900  0.87593700  0.74805600  1
  O  O1  1  0.45623900  0.12406300  0.75194400  1
  O  O2  1  0.04376100  0.12406300  0.25194400  1
  O  O3  1  0.54376100  0.87593700  0.24805600  1
  O  O4  1  0.80189000  0.24228500  0.93617400  1
  O  O5  1  0.30189000  0.75771500  0.56382600  1
  O  O6  1  0.17885200  0.36043900  0.44062100  1
  O  O7  1  0.67885200  0.63956100  0.05937900  1
  O  O8  1  0.19811000  0.75771500  0.06382600  1
  O  O9  1  0.69811000  0.24228500  0.43617400  1
  O  O10  1  0.82114800  0.63956100  0.55937900  1
  O  O11  1  0.32114800  0.36043900  0.94062100  1
loop_
_geom_bond_atom_site_label_1
_geom_bond_atom_site_label_2
_geom_bond_distance
_geom_bond_site_symmetry_2
Ce0 O1 2.275066 1_565
Ce0 O11 2.321646 1_555
Ce0 O5 2.321869 1_555
Ce0 O0 2.353775 1_555
Ce0 O10 2.560612 1_555
Ce0 O4 2.572143 1_555
Ce0 O7 2.737370 1_556
Ce0 O9 2.810489 1_565
Ce1 O0 2.275066 1_445
Ce1 O10 2.321646 1_455
Ce1 O4 2.321869 1_455
Ce1 O1 2.353775 1_555
Ce1 O11 2.560612 1_555
Ce1 O5 2.572143 1_555
Ce1 O6 2.737370 1_555
Ce1 O8 2.810489 1_546
Ce2 O3 2.275066 1_545
Ce2 O7 2.321646 1_555
Ce2 O9 2.321869 1_555
Ce2 O2 2.353775 1_555
Ce2 O6 2.560612 1_555
Ce2 O8 2.572143 1_555
Ce2 O11 2.737370 1_554
Ce2 O5 2.810489 1_545
Ce3 O2 2.275066 1_665
Ce3 O6 2.321646 1_655
Ce3 O8 2.321869 1_655
Ce3 O3 2.353775 1_555
Ce3 O7 2.560612 1_555
Ce3 O9 2.572143 1_555
Ce3 O10 2.737370 1_555
Ce3 O4 2.810489 1_564
Fe0 O2 2.113808 1_555
Fe0 O0 2.113808 1_454
Fe0 O8 2.150927 1_555
Fe0 O4 2.150927 1_454
Fe0 O7 2.207476 1_455
Fe0 O11 2.207476 1_554
Fe1 O3 2.113808 1_555
Fe1 O1 2.113808 1_555
Fe1 O5 2.150927 1_555
Fe1 O9 2.150927 1_555
Fe1 O10 2.207476 1_555
Fe1 O6 2.207476 1_555
O0 V0 2.059726 1_665
O1 V1 2.059726 1_556
O2 V0 2.059726 1_555
O3 V1 2.059726 1_565
O4 V1 2.075852 1_556
O5 V0 2.075852 1_565
O6 V0 2.008157 1_555
O7 V1 2.008157 1_565
O8 V1 2.075852 1_565
O9 V0 2.075852 1_655
O10 V0 2.008157 1_665
O11 V1 2.008157 1_556
