# generated using pymatgen
data_Li5V3P8O29
_symmetry_space_group_name_H-M   'P 1'
_cell_length_a   9.81874284
_cell_length_b   9.78446481
_cell_length_c   14.05076551
_cell_angle_alpha   90.16566393
_cell_angle_beta   90.03254721
_cell_angle_gamma   60.06672433
_symmetry_Int_Tables_number   1
_chemical_formula_structural   Li5V3P8O29
_chemical_formula_sum   'Li10 V6 P16 O58'
_cell_volume   1169.80413420
_cell_formula_units_Z   2
loop_
 _symmetry_equiv_pos_site_id
 _symmetry_equiv_pos_as_xyz
  1  'x, y, z'
loop_
 _atom_site_type_symbol
 _atom_site_label
 _atom_site_symmetry_multiplicity
 _atom_site_fract_x
 _atom_site_fract_y
 _atom_site_fract_z
 _atom_site_occupancy
  Li  Li0  1  0.91226088  0.77405369  0.05603322  1
  Li  Li1  1  0.90473393  0.32323619  0.56479532  1
  Li  Li2  1  0.66645990  0.66922998  0.88377605  1
  Li  Li3  1  0.78076616  0.30025737  0.05684645  1
  Li  Li4  1  0.30187435  0.92238912  0.05797223  1
  Li  Li5  1  0.67969259  0.22557744  0.44466672  1
  Li  Li6  1  0.32204596  0.76732584  0.56273618  1
  Li  Li7  1  0.22588068  0.68210189  0.93763936  1
  Li  Li8  1  0.08352737  0.69140562  0.44088885  1
  Li  Li9  1  0.22505910  0.09233310  0.44465292  1
  V  V0  1  0.57023767  0.43060320  0.24849497  1
  V  V1  1  0.43394768  0.56532069  0.75108427  1
  V  V2  1  0.57246225  0.00214830  0.74988076  1
  V  V3  1  0.43499038  0.00222692  0.24936047  1
  V  V4  1  0.99956737  0.56771648  0.24908026  1
  V  V5  1  0.00299625  0.42819132  0.74930891  1
  P  P0  1  0.90910256  0.77081336  0.83909315  1
  P  P1  1  0.76864007  0.91541158  0.34193248  1
  P  P2  1  0.91232949  0.32162219  0.34385125  1
  P  P3  1  0.66564174  0.66848763  0.12710200  1
  P  P4  1  0.66351421  0.66835660  0.62787005  1
  P  P5  1  0.77132238  0.32170260  0.84182838  1
  P  P6  1  0.68107828  0.23073897  0.66049906  1
  P  P7  1  0.31978176  0.91258288  0.84503184  1
  P  P8  1  0.68521099  0.08355037  0.15641624  1
  P  P9  1  0.32287156  0.76796744  0.34088671  1
  P  P10  1  0.23420461  0.67814213  0.15876521  1
  P  P11  1  0.33403229  0.33350158  0.37081200  1
  P  P12  1  0.33417785  0.33115686  0.87173100  1
  P  P13  1  0.08607046  0.68200434  0.65593361  1
  P  P14  1  0.23470973  0.08301097  0.66038750  1
  P  P15  1  0.08687388  0.22953635  0.16086435  1
  O  O0  1  0.00406301  0.75504239  0.56550245  1
  O  O1  1  0.91474932  0.74770201  0.33889118  1
  O  O2  1  0.76338360  0.99062079  0.07001823  1
  O  O3  1  0.74339422  0.91959622  0.83696282  1
  O  O4  1  0.88522866  0.62713995  0.82625538  1
  O  O5  1  0.81242002  0.67548531  0.16450738  1
  O  O6  1  0.89754841  0.48284848  0.32383668  1
  O  O7  1  0.99585267  0.22943903  0.07704428  1
  O  O8  1  0.91907332  0.33980163  0.83290279  1
  O  O9  1  0.66425472  0.81414419  0.67720595  1
  O  O10  1  0.61742919  0.90458504  0.32119856  1
  O  O11  1  0.81281409  0.51375925  0.66271650  1
  O  O12  1  0.65737025  0.67557281  0.02026403  1
  O  O13  1  0.65093294  0.67930939  0.52218688  1
  O  O14  1  0.67186480  0.51474849  0.16486530  1
  O  O15  1  0.48549521  0.89263102  0.82668912  1
  O  O16  1  0.51270800  0.81759340  0.16946059  1
  O  O17  1  0.74764307  0.33522415  0.33879108  1
  O  O18  1  0.78828896  0.21227561  0.75127938  1
  O  O19  1  0.76192572  0.23652835  0.57105303  1
  O  O20  1  0.76020094  0.24913579  0.93147922  1
  O  O21  1  0.62775648  0.49000519  0.82474509  1
  O  O22  1  0.51131405  0.66985849  0.67011830  1
  O  O23  1  0.66508586  0.25057017  0.15839329  1
  O  O24  1  0.48276808  0.62115711  0.32328652  1
  O  O25  1  0.33677946  0.91973780  0.33830994  1
  O  O26  1  0.78999393  0.99962906  0.24924817  1
  O  O27  1  0.75737813  0.00675835  0.42853794  1
  O  O28  1  0.24591434  0.99367125  0.57047796  1
  O  O29  1  0.66338673  0.08165859  0.66512713  1
  O  O30  1  0.51975636  0.37916681  0.67340817  1
  O  O31  1  0.33578901  0.74686475  0.84348712  1
  O  O32  1  0.48823305  0.32413558  0.33251850  1
  O  O33  1  0.38252609  0.51699526  0.17740164  1
  O  O34  1  0.24562806  0.75522884  0.06920587  1
  O  O35  1  0.24126800  0.76247839  0.42992684  1
  O  O36  1  0.21302833  0.78867467  0.24948162  1
  O  O37  1  0.25110853  0.66429308  0.66076796  1
  O  O38  1  0.48228832  0.18190330  0.82430820  1
  O  O39  1  0.52248132  0.09600497  0.17765863  1
  O  O40  1  0.33835803  0.48308066  0.83229775  1
  O  O41  1  0.34132735  0.33080343  0.97726980  1
  O  O42  1  0.33177759  0.32055881  0.47642678  1
  O  O43  1  0.18802865  0.48639435  0.33111199  1
  O  O44  1  0.38443094  0.09265959  0.67825862  1
  O  O45  1  0.32920881  0.18364275  0.32552242  1
  O  O46  1  0.08427115  0.66362962  0.15932312  1
  O  O47  1  0.99672402  0.79011306  0.74831903  1
  O  O48  1  0.99989899  0.76030188  0.92775037  1
  O  O49  1  0.09244622  0.52337168  0.67759110  1
  O  O50  1  0.19056781  0.33193632  0.82674815  1
  O  O51  1  0.09807262  0.38026585  0.17591857  1
  O  O52  1  0.25586660  0.08194816  0.16282003  1
  O  O53  1  0.24365956  0.00028649  0.93371352  1
  O  O54  1  0.21404383  0.99727080  0.75170273  1
  O  O55  1  0.08596866  0.24794855  0.65828964  1
  O  O56  1  0.99578689  0.24701106  0.43523565  1
  O  O57  1  0.01010365  0.20612896  0.25768923  1
loop_
_geom_bond_atom_site_label_1
_geom_bond_atom_site_label_2
_geom_bond_distance
_geom_bond_site_symmetry_2
Li0 O2 1.890031 1_555
Li0 O48 1.972885 1_554
Li0 O46 2.076362 1_655
Li0 O5 2.273304 1_555
Li1 O19 1.970135 1_555
Li1 O56 1.999498 1_555
Li1 O55 2.032167 1_655
Li1 O11 2.119008 1_555
Li2 O12 1.919271 1_556
Li2 O4 2.134026 1_555
Li2 O21 2.136315 1_555
Li2 O15 2.170478 1_555
Li3 O20 1.867932 1_554
Li3 O7 1.886997 1_555
Li3 O23 2.029582 1_555
Li3 O14 2.365429 1_555
Li4 O53 1.878217 1_564
Li4 O34 1.976881 1_555
Li4 O52 2.023693 1_565
Li4 O16 2.382844 1_555
Li5 O27 1.893343 1_555
Li5 O19 1.974989 1_555
Li5 O17 2.129287 1_555
Li5 O32 2.267866 1_555
Li6 O28 1.954970 1_555
Li6 O37 2.026970 1_555
Li6 O35 2.036884 1_555
Li6 O22 2.208157 1_555
Li7 O48 1.958065 1_455
Li7 O31 2.001285 1_555
Li7 O34 2.024180 1_556
Li7 O40 2.245314 1_555
Li8 O0 1.890129 1_555
Li8 O35 1.995475 1_555
Li8 O1 2.048041 1_455
Li8 O43 2.320678 1_555
Li9 O28 1.977782 1_545
Li9 O56 1.994102 1_455
Li9 O25 2.103890 1_545
Li9 O45 2.359698 1_555
O0 P13 1.484379 1_555
O1 P1 1.550141 1_555
O1 V4 1.977879 1_555
O2 P8 1.479112 1_565
O3 P0 1.550420 1_555
O3 V2 1.901799 1_565
O4 P0 1.546291 1_555
O4 V5 2.009514 1_655
O5 P3 1.566946 1_555
O5 V4 1.992893 1_555
O6 P2 1.537117 1_555
O6 V4 1.905941 1_555
O7 P15 1.478322 1_655
O8 P5 1.551911 1_555
O8 V5 1.877427 1_655
O9 P4 1.587446 1_555
O9 V2 1.890625 1_565
O10 P1 1.567393 1_555
O10 V3 1.853648 1_565
O11 P4 1.570765 1_555
O11 V5 2.027645 1_655
O12 P3 1.503234 1_555
O13 P4 1.489718 1_555
O14 P3 1.568728 1_555
O14 V0 1.970061 1_555
O15 P7 1.560503 1_555
O15 V2 1.990736 1_565
O16 P3 1.595997 1_555
O16 V3 1.928658 1_565
O17 P2 1.556488 1_555
O17 V0 1.974038 1_555
O18 P6 1.605542 1_555
O18 P5 1.614676 1_555
O19 P6 1.503093 1_555
O20 P5 1.478350 1_555
O21 P5 1.562608 1_555
O21 V1 1.959128 1_555
O22 P4 1.601535 1_555
O22 V1 1.923699 1_555
O23 P8 1.545283 1_555
O23 V0 1.980982 1_555
O24 P9 1.528771 1_555
O24 V0 1.926094 1_555
O25 P9 1.558157 1_555
O25 V3 1.981736 1_565
O26 P8 1.611110 1_565
O26 P1 1.611788 1_555
O27 P1 1.478878 1_545
O28 P14 1.506634 1_565
O29 P6 1.554207 1_555
O29 V2 1.876191 1_555
O30 P6 1.534301 1_555
O30 V1 1.917455 1_555
O31 P7 1.549124 1_555
O31 V1 2.012309 1_555
O32 P11 1.566027 1_555
O32 V0 1.993139 1_555
O33 P10 1.544637 1_555
O33 V0 1.886086 1_555
O34 P10 1.501689 1_555
O35 P9 1.501518 1_555
O36 P10 1.614152 1_555
O36 P9 1.623444 1_555
O37 P13 1.542805 1_555
O37 V1 2.010130 1_555
O38 P12 1.602354 1_555
O38 V2 1.845877 1_555
O39 P8 1.569368 1_555
O39 V3 1.840615 1_555
O40 P12 1.607487 1_555
O40 V1 1.894940 1_555
O41 P12 1.484454 1_555
O42 P11 1.490843 1_555
O43 P11 1.570950 1_555
O43 V4 1.979714 1_455
O44 P14 1.539815 1_555
O44 V2 1.891272 1_555
O45 P11 1.618970 1_555
O45 V3 1.877536 1_555
O46 P10 1.547939 1_555
O46 V4 1.987431 1_455
O47 P0 1.602301 1_555
O47 P13 1.625055 1_655
O48 P0 1.505028 1_555
O49 P13 1.552863 1_555
O49 V5 1.864630 1_555
O50 P12 1.541466 1_555
O50 V5 1.932731 1_555
O51 P15 1.546576 1_555
O51 V4 1.891035 1_455
O52 P15 1.564682 1_555
O52 V3 1.952999 1_555
O53 P7 1.484063 1_545
O54 P14 1.602368 1_565
O54 P7 1.621825 1_555
O55 P14 1.544761 1_555
O55 V5 1.990920 1_555
O56 P2 1.503449 1_555
O57 P2 1.604687 1_455
O57 P15 1.626889 1_555
