# generated using pymatgen
data_Mn3(OF2)2
_symmetry_space_group_name_H-M   'P 1'
_cell_length_a   4.66848700
_cell_length_b   9.82455873
_cell_length_c   4.78021307
_cell_angle_alpha   90.53200839
_cell_angle_beta   90.00139450
_cell_angle_gamma   90.00011587
_symmetry_Int_Tables_number   1
_chemical_formula_structural   Mn3(OF2)2
_chemical_formula_sum   'Mn6 O4 F8'
_cell_volume   219.23896346
_cell_formula_units_Z   2
loop_
 _symmetry_equiv_pos_site_id
 _symmetry_equiv_pos_as_xyz
  1  'x, y, z'
loop_
 _atom_site_type_symbol
 _atom_site_label
 _atom_site_symmetry_multiplicity
 _atom_site_fract_x
 _atom_site_fract_y
 _atom_site_fract_z
 _atom_site_occupancy
  Mn  Mn0  1  0.00048500  0.34100900  0.04188200  1
  Mn  Mn1  1  0.50047600  0.49232200  0.45811500  1
  Mn  Mn2  1  0.96631600  0.66622600  0.99531200  1
  Mn  Mn3  1  0.46632700  0.16710800  0.50470200  1
  Mn  Mn4  1  0.00079300  0.99198200  0.04022300  1
  Mn  Mn5  1  0.50079200  0.84135600  0.45977100  1
  O  O0  1  0.80578100  0.49125700  0.19662700  1
  O  O1  1  0.80445600  0.83768800  0.19054000  1
  O  O2  1  0.30445400  0.99565000  0.30945300  1
  O  O3  1  0.30578100  0.34207600  0.30336600  1
  F  F0  1  0.81125300  0.16781000  0.23075900  1
  F  F1  1  0.31125700  0.66552500  0.26924600  1
  F  F2  1  0.68198900  0.66337200  0.64672000  1
  F  F3  1  0.18199000  0.16995800  0.85327500  1
  F  F4  1  0.71217400  0.00466400  0.72850500  1
  F  F5  1  0.71675300  0.33064900  0.73249700  1
  F  F6  1  0.21675600  0.50268100  0.76750700  1
  F  F7  1  0.21216700  0.82867100  0.77149800  1
loop_
_geom_bond_atom_site_label_1
_geom_bond_atom_site_label_2
_geom_bond_distance
_geom_bond_site_symmetry_2
Mn0 O0 1.879389 1_455
Mn0 O3 1.895666 1_555
Mn1 O3 1.879340 1_555
Mn1 O0 1.895756 1_555
Mn2 O1 2.061657 1_556
Mn2 O0 2.115053 1_556
Mn3 O2 2.061673 1_545
Mn3 O3 2.115095 1_555
Mn4 O2 1.914772 1_555
Mn4 O1 1.916919 1_455
Mn5 O1 1.914832 1_555
Mn5 O2 1.916909 1_555
F0 Mn3 2.075604 1_555
F0 Mn0 2.125945 1_655
F0 Mn4 2.137147 1_645
F1 Mn2 2.075582 1_454
F1 Mn1 2.125919 1_555
F1 Mn5 2.137118 1_555
F2 Mn1 2.080090 1_555
F2 Mn2 2.130362 1_555
F2 Mn5 2.144956 1_555
F3 Mn0 2.080107 1_556
F3 Mn3 2.130371 1_555
F3 Mn4 2.144904 1_546
F4 Mn4 2.013637 1_646
F4 Mn3 2.245106 1_555
F4 Mn5 2.271542 1_545
F5 Mn0 1.987273 1_656
F5 Mn3 2.258656 1_555
F5 Mn1 2.302457 1_555
F6 Mn1 1.987308 1_555
F6 Mn2 2.258771 1_455
F6 Mn0 2.302444 1_556
F7 Mn5 2.013738 1_555
F7 Mn2 2.245171 1_455
F7 Mn4 2.271552 1_556
