# generated using pymatgen
data_MgVAsO5
_symmetry_space_group_name_H-M   'P 1'
_cell_length_a   6.24280300
_cell_length_b   8.18340900
_cell_length_c   8.46834800
_cell_angle_alpha   90.00000000
_cell_angle_beta   90.00000000
_cell_angle_gamma   90.00000000
_symmetry_Int_Tables_number   1
_chemical_formula_structural   MgVAsO5
_chemical_formula_sum   'Mg4 V4 As4 O20'
_cell_volume   432.62596846
_cell_formula_units_Z   4
loop_
 _symmetry_equiv_pos_site_id
 _symmetry_equiv_pos_as_xyz
  1  'x, y, z'
loop_
 _atom_site_type_symbol
 _atom_site_label
 _atom_site_symmetry_multiplicity
 _atom_site_fract_x
 _atom_site_fract_y
 _atom_site_fract_z
 _atom_site_occupancy
  Mg  Mg0  1  0.11603000  0.84537200  0.68128400  1
  Mg  Mg1  1  0.38397000  0.15462800  0.18128400  1
  Mg  Mg2  1  0.88397000  0.34537200  0.81871600  1
  Mg  Mg3  1  0.61603000  0.65462800  0.31871600  1
  V  V0  1  0.26262500  0.75801400  0.00637600  1
  V  V1  1  0.23737500  0.24198600  0.50637600  1
  V  V2  1  0.73737500  0.25801400  0.49362400  1
  V  V3  1  0.76262500  0.74198600  0.99362400  1
  As  As0  1  0.48398800  0.09040300  0.81939200  1
  As  As1  1  0.01601200  0.90959700  0.31939200  1
  As  As2  1  0.51601200  0.59040300  0.68060800  1
  As  As3  1  0.98398800  0.40959700  0.18060800  1
  O  O0  1  0.51590100  0.90202000  0.91123500  1
  O  O1  1  0.98409900  0.09798000  0.41123500  1
  O  O2  1  0.48409900  0.40202000  0.58876500  1
  O  O3  1  0.01590100  0.59798000  0.08876500  1
  O  O4  1  0.41832700  0.22703700  0.96160800  1
  O  O5  1  0.08167300  0.77296300  0.46160800  1
  O  O6  1  0.58167300  0.72703700  0.53839200  1
  O  O7  1  0.91832700  0.27296300  0.03839200  1
  O  O8  1  0.71537900  0.14822300  0.72418400  1
  O  O9  1  0.78462100  0.85177700  0.22418400  1
  O  O10  1  0.28462100  0.64822300  0.77581600  1
  O  O11  1  0.21537900  0.35177700  0.27581600  1
  O  O12  1  0.27737400  0.06612600  0.68296800  1
  O  O13  1  0.22262600  0.93387400  0.18296800  1
  O  O14  1  0.72262600  0.56612600  0.81703200  1
  O  O15  1  0.77737400  0.43387400  0.31703200  1
  O  O16  1  0.00361800  0.84622100  0.89598200  1
  O  O17  1  0.49638200  0.15377900  0.39598200  1
  O  O18  1  0.99638200  0.34622100  0.60401800  1
  O  O19  1  0.50361800  0.65377900  0.10401800  1
loop_
_geom_bond_atom_site_label_1
_geom_bond_atom_site_label_2
_geom_bond_distance
_geom_bond_site_symmetry_2
Mg0 O16 1.948884 1_555
Mg0 O5 1.964131 1_555
Mg0 O12 2.068393 1_565
Mg0 O10 2.086016 1_555
Mg1 O17 1.948884 1_555
Mg1 O4 1.964131 1_554
Mg1 O13 2.068393 1_545
Mg1 O11 2.086016 1_555
Mg2 O18 1.948884 1_555
Mg2 O7 1.964131 1_556
Mg2 O14 2.068393 1_555
Mg2 O8 2.086016 1_555
Mg3 O19 1.948884 1_555
Mg3 O6 1.964131 1_555
Mg3 O15 2.068393 1_555
Mg3 O9 2.086016 1_555
As0 O4 1.693714 1_555
As0 O8 1.720638 1_555
As0 O0 1.738153 1_545
As0 O12 1.742948 1_555
As1 O5 1.693714 1_555
As1 O9 1.720638 1_455
As1 O1 1.738153 1_465
As1 O13 1.742948 1_555
As2 O6 1.693714 1_555
As2 O10 1.720638 1_555
As2 O2 1.738153 1_555
As2 O14 1.742948 1_555
As3 O7 1.693714 1_555
As3 O11 1.720638 1_655
As3 O3 1.738153 1_655
As3 O15 1.742948 1_555
O0 V0 2.130245 1_556
O0 V3 2.138753 1_555
O1 V1 2.130245 1_655
O1 V2 2.138753 1_555
O2 V2 2.130245 1_555
O2 V1 2.138753 1_555
O3 V3 2.130245 1_454
O3 V0 2.138753 1_555
O8 V2 2.153649 1_555
O9 V3 2.153649 1_554
O10 V0 2.153649 1_556
O11 V1 2.153649 1_555
O12 V1 2.090409 1_555
O13 V0 2.090409 1_555
O14 V3 2.090409 1_555
O15 V2 2.090409 1_555
O16 V3 1.916963 1_455
O16 V0 2.002363 1_556
O17 V2 1.916963 1_555
O17 V1 2.002363 1_555
O18 V1 1.916963 1_655
O18 V2 2.002363 1_555
O19 V0 1.916963 1_555
O19 V3 2.002363 1_554
