# generated using pymatgen
data_V3Ni2P6WO24
_symmetry_space_group_name_H-M   'P 1'
_cell_length_a   8.55447106
_cell_length_b   8.69758504
_cell_length_c   8.69758603
_cell_angle_alpha   59.99999927
_cell_angle_beta   59.44502685
_cell_angle_gamma   59.44502490
_symmetry_Int_Tables_number   1
_chemical_formula_structural   V3Ni2P6WO24
_chemical_formula_sum   'V3 Ni2 P6 W1 O24'
_cell_volume   453.71290725
_cell_formula_units_Z   1
loop_
 _symmetry_equiv_pos_site_id
 _symmetry_equiv_pos_as_xyz
  1  'x, y, z'
loop_
 _atom_site_type_symbol
 _atom_site_label
 _atom_site_symmetry_multiplicity
 _atom_site_fract_x
 _atom_site_fract_y
 _atom_site_fract_z
 _atom_site_occupancy
  V  V0  1  0.07509100  0.64163600  0.64163600  1
  V  V1  1  0.42973200  0.85675600  0.85675600  1
  V  V2  1  0.92451900  0.35849300  0.35849300  1
  Ni  Ni0  1  0.01523300  0.99492200  0.99492200  1
  Ni  Ni1  1  0.50154200  0.49948600  0.49948600  1
  P  P0  1  0.24549900  0.25233200  0.54913300  1
  P  P1  1  0.24549900  0.95303700  0.25233200  1
  P  P2  1  0.24549900  0.54913300  0.95303700  1
  P  P3  1  0.74860600  0.46026300  0.04567500  1
  P  P4  1  0.74860600  0.04567500  0.74545500  1
  P  P5  1  0.74860600  0.74545500  0.46026300  1
  W  W0  1  0.57253400  0.14248900  0.14248900  1
  O  O0  1  0.06922200  0.10981000  0.31841800  1
  O  O1  1  0.06922200  0.50255100  0.10981000  1
  O  O2  1  0.06922200  0.31841800  0.50255100  1
  O  O3  1  0.22684900  0.09146200  0.74294000  1
  O  O4  1  0.43293500  0.17856100  0.38971700  1
  O  O5  1  0.28039600  0.40671600  0.55564800  1
  O  O6  1  0.22684900  0.93875000  0.09146200  1
  O  O7  1  0.28039600  0.75724000  0.40671600  1
  O  O8  1  0.56551200  0.61146700  0.00583000  1
  O  O9  1  0.28039600  0.55564800  0.75724000  1
  O  O10  1  0.76742800  0.25794000  0.06485000  1
  O  O11  1  0.56551200  0.00583000  0.81719200  1
  O  O12  1  0.43293500  0.99878600  0.17856100  1
  O  O13  1  0.22684900  0.74294000  0.93875000  1
  O  O14  1  0.72450700  0.43799700  0.24469200  1
  O  O15  1  0.43293500  0.38971700  0.99878600  1
  O  O16  1  0.72450700  0.24469200  0.59280300  1
  O  O17  1  0.76742800  0.06485000  0.90978200  1
  O  O18  1  0.72450700  0.59280300  0.43799700  1
  O  O19  1  0.56551200  0.81719200  0.61146700  1
  O  O20  1  0.76742800  0.90978200  0.25794000  1
  O  O21  1  0.93282800  0.68728700  0.49054100  1
  O  O22  1  0.93282800  0.49054100  0.88934400  1
  O  O23  1  0.93282800  0.88934400  0.68728700  1
loop_
_geom_bond_atom_site_label_1
_geom_bond_atom_site_label_2
_geom_bond_distance
_geom_bond_site_symmetry_2
Ni0 O13 2.111096 1_555
Ni0 O3 2.111101 1_565
Ni0 O6 2.111108 1_556
Ni0 O17 2.290584 1_465
Ni0 O20 2.290588 1_456
Ni0 O10 2.290590 1_466
Ni1 O18 2.164604 1_555
Ni1 O16 2.164608 1_555
Ni1 O14 2.164611 1_555
Ni1 O5 2.164902 1_555
Ni1 O7 2.164902 1_555
Ni1 O9 2.164902 1_555
O0 P1 1.508476 1_545
O0 V2 1.981191 1_455
O1 P2 1.508476 1_554
O1 V2 1.981202 1_455
O2 P0 1.508476 1_555
O2 V2 1.981214 1_455
O3 P0 1.555501 1_555
O3 V1 2.069573 1_545
O4 P0 1.577452 1_555
O4 W0 1.957330 1_555
O5 P0 1.547965 1_555
O5 V0 2.088726 1_555
O6 P1 1.555501 1_555
O6 V1 2.069577 1_554
O7 P1 1.547970 1_555
O7 V0 2.088730 1_555
O8 P3 1.518112 1_555
O8 V1 1.956356 1_554
O9 P2 1.547974 1_555
O9 V0 2.088732 1_555
O10 P3 1.611243 1_555
O10 W0 2.030593 1_555
O11 P4 1.518109 1_555
O11 V1 1.956360 1_545
O12 P1 1.577442 1_555
O12 W0 1.957345 1_565
O13 P2 1.555501 1_555
O13 V1 2.069570 1_555
O14 P3 1.555252 1_555
O14 V2 2.054230 1_555
O15 P2 1.577446 1_555
O15 W0 1.957337 1_556
O16 P4 1.555252 1_555
O16 V2 2.054233 1_555
O17 P4 1.611252 1_555
O17 W0 2.030600 1_556
O18 P5 1.555252 1_555
O18 V2 2.054236 1_555
O19 P5 1.518118 1_555
O19 V1 1.956353 1_555
O20 P5 1.611247 1_555
O20 W0 2.030596 1_565
O21 P5 1.512259 1_555
O21 V0 1.994671 1_655
O22 P3 1.512257 1_556
O22 V0 1.994674 1_655
O23 P4 1.512255 1_565
O23 V0 1.994678 1_655
