# generated using pymatgen
data_YMn2O4
_symmetry_space_group_name_H-M   'P 1'
_cell_length_a   6.28871517
_cell_length_b   6.43500271
_cell_length_c   6.28878061
_cell_angle_alpha   61.38877148
_cell_angle_beta   91.04830478
_cell_angle_gamma   118.60839854
_symmetry_Int_Tables_number   1
_chemical_formula_structural   YMn2O4
_chemical_formula_sum   'Y2 Mn4 O8'
_cell_volume   188.64757526
_cell_formula_units_Z   2
loop_
 _symmetry_equiv_pos_site_id
 _symmetry_equiv_pos_as_xyz
  1  'x, y, z'
loop_
 _atom_site_type_symbol
 _atom_site_label
 _atom_site_symmetry_multiplicity
 _atom_site_fract_x
 _atom_site_fract_y
 _atom_site_fract_z
 _atom_site_occupancy
  Y  Y0  1  0.49985800  0.99991400  0.99995000  1
  Y  Y1  1  0.00005700  0.49991600  0.50014800  1
  Mn  Mn0  1  0.36469700  0.25000700  0.36472900  1
  Mn  Mn1  1  0.99909600  0.99950500  0.00009700  1
  Mn  Mn2  1  0.63529600  0.75001300  0.63532300  1
  Mn  Mn3  1  0.99990600  0.49949800  0.00091500  1
  O  O0  1  0.76848300  0.48636700  0.22417200  1
  O  O1  1  0.22418900  0.01376800  0.76788700  1
  O  O2  1  0.23212100  0.51376900  0.77581400  1
  O  O3  1  0.77583500  0.98636700  0.23152100  1
  O  O4  1  0.21455500  0.97584500  0.23498900  1
  O  O5  1  0.76497600  0.47591600  0.78537100  1
  O  O6  1  0.23532300  0.52455700  0.21439700  1
  O  O7  1  0.78561200  0.02456100  0.76468500  1
loop_
_geom_bond_atom_site_label_1
_geom_bond_atom_site_label_2
_geom_bond_distance
_geom_bond_site_symmetry_2
Mn0 O4 2.103549 1_545
Mn0 O6 2.103751 1_555
Mn0 O1 2.150385 1_555
Mn0 O0 2.153750 1_555
Mn1 O7 1.981442 1_564
Mn1 O3 1.984894 1_555
Mn1 O4 1.987484 1_655
Mn1 O1 1.991877 1_664
Mn1 O0 2.454562 1_555
Mn1 O2 2.459571 1_664
Mn2 O5 2.102822 1_555
Mn2 O7 2.103748 1_565
Mn2 O2 2.150493 1_555
Mn2 O3 2.153798 1_555
Mn3 O6 1.981465 1_655
Mn3 O0 1.984900 1_555
Mn3 O5 1.988012 1_554
Mn3 O2 1.991902 1_654
Mn3 O3 2.454528 1_545
Mn3 O1 2.459598 1_664
O0 Y1 2.251979 1_655
O1 Y0 2.252550 1_545
O2 Y1 2.252549 1_555
O3 Y0 2.251961 1_554
O4 Y0 2.244899 1_554
O4 Y1 2.283588 1_555
O5 Y1 2.244959 1_655
O5 Y0 2.283893 1_545
O6 Y1 2.245695 1_555
O6 Y0 2.280622 1_554
O7 Y0 2.245678 1_545
O7 Y1 2.280598 1_655
