# generated using pymatgen
data_ErSnPd
_symmetry_space_group_name_H-M   'P 1'
_cell_length_a   3.93426533
_cell_length_b   7.48929369
_cell_length_c   7.48931212
_cell_angle_alpha   119.99991813
_cell_angle_beta   90.00000000
_cell_angle_gamma   90.00000000
_symmetry_Int_Tables_number   1
_chemical_formula_structural   ErSnPd
_chemical_formula_sum   'Er3 Sn3 Pd3'
_cell_volume   191.10736630
_cell_formula_units_Z   3
loop_
 _symmetry_equiv_pos_site_id
 _symmetry_equiv_pos_as_xyz
  1  'x, y, z'
loop_
 _atom_site_type_symbol
 _atom_site_label
 _atom_site_symmetry_multiplicity
 _atom_site_fract_x
 _atom_site_fract_y
 _atom_site_fract_z
 _atom_site_occupancy
  Er  Er0  1  0.50000000  0.59500526  1.00000000  1
  Er  Er1  1  0.50000000  0.40494090  0.40495570  1
  Er  Er2  1  0.50000000  0.99998520  0.59504430  1
  Sn  Sn0  1  -0.00000000  0.26065210  1.00000000  1
  Sn  Sn1  1  0.00000000  0.73932112  0.73933163  1
  Sn  Sn2  1  0.00000000  0.99998849  0.26066837  1
  Pd  Pd0  1  0.00000000  0.33331363  0.66683145  1
  Pd  Pd1  1  -0.00000000  0.66648118  0.33316855  1
  Pd  Pd2  1  0.50000000  0.00021012  -0.00000000  1
loop_
_geom_bond_atom_site_label_1
_geom_bond_atom_site_label_2
_geom_bond_distance
_geom_bond_site_symmetry_2
Er0 Pd0 3.007740 1_655
Er0 Pd0 3.007740 1_555
Er0 Pd1 3.007742 1_656
Er0 Pd1 3.007742 1_556
Er0 Pd2 3.034698 1_566
Er0 Sn0 3.184332 1_555
Er0 Sn0 3.184332 1_655
Er0 Sn2 3.310432 1_656
Er0 Sn2 3.310432 1_556
Er0 Sn1 3.310436 1_555
Er0 Sn1 3.310436 1_655
Er1 Pd1 3.008067 1_655
Er1 Pd1 3.008067 1_555
Er1 Pd0 3.009327 1_655
Er1 Pd0 3.009327 1_555
Er1 Pd2 3.031998 1_555
Er1 Sn1 3.184484 1_555
Er1 Sn1 3.184484 1_655
Er1 Sn2 3.310283 1_645
Er1 Sn2 3.310283 1_545
Er1 Sn0 3.310306 1_654
Er1 Sn0 3.310306 1_554
Er2 Pd0 3.008072 1_665
Er2 Pd0 3.008072 1_565
Er2 Pd1 3.009331 1_555
Er2 Pd1 3.009331 1_655
Er2 Pd2 3.031998 1_566
Er2 Sn2 3.184481 1_655
Er2 Sn2 3.184481 1_555
Er2 Sn1 3.310277 1_655
Er2 Sn1 3.310277 1_555
Er2 Sn0 3.310306 1_665
Er2 Sn0 3.310306 1_565
Sn0 Sn1 3.381313 1_545
Sn0 Sn2 3.381320 1_546
Sn1 Sn2 3.381359 1_556
Pd0 Sn0 2.807137 1_555
Pd0 Sn1 2.808862 1_555
Pd0 Sn2 2.809140 1_545
Pd1 Sn0 2.807133 1_554
Pd1 Sn2 2.808862 1_555
Pd1 Sn1 2.809134 1_555
Pd2 Sn0 2.770228 1_654
Pd2 Sn0 2.770228 1_554
Pd2 Sn1 2.772008 1_544
Pd2 Sn1 2.772008 1_644
Pd2 Sn2 2.772011 1_545
Pd2 Sn2 2.772011 1_645
