# generated using pymatgen
data_NiSO9
_symmetry_space_group_name_H-M   'P 1'
_cell_length_a   5.79549021
_cell_length_b   5.79549021
_cell_length_c   5.79549060
_cell_angle_alpha   98.13429905
_cell_angle_beta   98.13429905
_cell_angle_gamma   98.13429720
_symmetry_Int_Tables_number   1
_chemical_formula_structural   NiSO9
_chemical_formula_sum   'Ni1 S1 O9'
_cell_volume   188.15139206
_cell_formula_units_Z   1
loop_
 _symmetry_equiv_pos_site_id
 _symmetry_equiv_pos_as_xyz
  1  'x, y, z'
loop_
 _atom_site_type_symbol
 _atom_site_label
 _atom_site_symmetry_multiplicity
 _atom_site_fract_x
 _atom_site_fract_y
 _atom_site_fract_z
 _atom_site_occupancy
  Ni  Ni0  1  0.00062000  0.00062000  0.00062000  1
  S  S0  1  0.45108500  0.45108500  0.45108500  1
  O  O0  1  0.56884100  0.26383600  0.52040800  1
  O  O1  1  0.26383600  0.52040800  0.56884100  1
  O  O2  1  0.52040800  0.56884100  0.26383600  1
  O  O3  1  0.08153400  0.93117200  0.71011900  1
  O  O4  1  0.93117200  0.71011900  0.08153400  1
  O  O5  1  0.71011900  0.08153400  0.93117200  1
  O  O6  1  0.30364900  0.94777800  0.02495700  1
  O  O7  1  0.94777800  0.02495700  0.30364900  1
  O  O8  1  0.02495700  0.30364900  0.94777800  1
loop_
_geom_bond_atom_site_label_1
_geom_bond_atom_site_label_2
_geom_bond_distance
_geom_bond_site_symmetry_2
Ni0 O6 1.814456 1_545
Ni0 O8 1.814456 1_554
Ni0 O7 1.814456 1_455
Ni0 O5 1.816992 1_454
Ni0 O4 1.816992 1_445
Ni0 O3 1.816992 1_544
O0 S0 1.435334 1_555
O1 S0 1.435334 1_555
O2 S0 1.435334 1_555
