# generated using pymatgen
data_HoVO3
_symmetry_space_group_name_H-M   'P 1'
_cell_length_a   5.23261452
_cell_length_b   5.65391191
_cell_length_c   7.52519119
_cell_angle_alpha   90.00000000
_cell_angle_beta   90.00000000
_cell_angle_gamma   90.00000000
_symmetry_Int_Tables_number   1
_chemical_formula_structural   HoVO3
_chemical_formula_sum   'Ho4 V4 O12'
_cell_volume   222.63083651
_cell_formula_units_Z   4
loop_
 _symmetry_equiv_pos_site_id
 _symmetry_equiv_pos_as_xyz
  1  'x, y, z'
loop_
 _atom_site_type_symbol
 _atom_site_label
 _atom_site_symmetry_multiplicity
 _atom_site_fract_x
 _atom_site_fract_y
 _atom_site_fract_z
 _atom_site_occupancy
  Ho  Ho0  1  0.97968230  0.42843942  0.75000000  1
  Ho  Ho1  1  0.47968230  0.07156058  0.25000000  1
  Ho  Ho2  1  0.52031770  0.92843942  0.75000000  1
  Ho  Ho3  1  0.02031770  0.57156058  0.25000000  1
  V  V0  1  0.00000000  0.00000000  0.50000000  1
  V  V1  1  0.50000000  0.50000000  0.50000000  1
  V  V2  1  0.50000000  0.50000000  0.00000000  1
  V  V3  1  0.00000000  0.00000000  0.00000000  1
  O  O0  1  0.19319813  0.31065958  0.44164121  1
  O  O1  1  0.69319813  0.18934042  0.55835879  1
  O  O2  1  0.30680187  0.81065958  0.05835879  1
  O  O3  1  0.80680187  0.68934042  0.94164121  1
  O  O4  1  0.80680187  0.68934042  0.55835879  1
  O  O5  1  0.30680187  0.81065958  0.44164121  1
  O  O6  1  0.69319813  0.18934042  0.94164121  1
  O  O7  1  0.19319813  0.31065958  0.05835879  1
  O  O8  1  0.88200934  0.95403718  0.25000000  1
  O  O9  1  0.38200934  0.54596282  0.75000000  1
  O  O10  1  0.61799066  0.45403718  0.25000000  1
  O  O11  1  0.11799066  0.04596282  0.75000000  1
loop_
_geom_bond_atom_site_label_1
_geom_bond_atom_site_label_2
_geom_bond_distance
_geom_bond_site_symmetry_2
Ho0 O9 2.207595 1_655
Ho0 O4 2.252564 1_555
Ho0 O3 2.252564 1_555
Ho0 O11 2.280377 1_655
Ho0 O6 2.480812 1_555
Ho0 O1 2.480812 1_555
Ho0 O0 2.660115 1_655
Ho0 O7 2.660115 1_656
Ho1 O8 2.207595 1_545
Ho1 O5 2.252564 1_545
Ho1 O2 2.252564 1_545
Ho1 O10 2.280377 1_555
Ho1 O0 2.480812 1_555
Ho1 O7 2.480812 1_555
Ho1 O1 2.660115 1_555
Ho1 O6 2.660115 1_554
Ho2 O11 2.207595 1_565
Ho2 O6 2.252564 1_565
Ho2 O1 2.252564 1_565
Ho2 O9 2.280377 1_555
Ho2 O3 2.480812 1_555
Ho2 O4 2.480812 1_555
Ho2 O5 2.660115 1_555
Ho2 O2 2.660115 1_556
Ho3 O10 2.207595 1_455
Ho3 O0 2.252564 1_555
Ho3 O7 2.252564 1_555
Ho3 O8 2.280377 1_455
Ho3 O5 2.480812 1_555
Ho3 O2 2.480812 1_555
Ho3 O3 2.660115 1_454
Ho3 O4 2.660115 1_455
O0 V1 1.978912 1_555
O0 V0 2.073628 1_555
O1 V0 1.978912 1_655
O1 V1 2.073628 1_555
O2 V3 1.978912 1_565
O2 V2 2.073628 1_555
O3 V2 1.978912 1_556
O3 V3 2.073628 1_666
O4 V1 1.978912 1_555
O4 V0 2.073628 1_665
O5 V0 1.978912 1_565
O5 V1 2.073628 1_555
O6 V3 1.978912 1_656
O6 V2 2.073628 1_556
O7 V2 1.978912 1_555
O7 V3 2.073628 1_555
O8 V0 1.996997 1_665
O8 V3 1.996997 1_665
O9 V1 1.996997 1_555
O9 V2 1.996997 1_556
O10 V2 1.996997 1_555
O10 V1 1.996997 1_555
O11 V0 1.996997 1_555
O11 V3 1.996997 1_556
