# generated using pymatgen
data_Ga2P3(NO4)3
_symmetry_space_group_name_H-M   'P 1'
_cell_length_a   8.94873227
_cell_length_b   8.94873227
_cell_length_c   8.90986677
_cell_angle_alpha   75.21745258
_cell_angle_beta   75.21745258
_cell_angle_gamma   67.64012384
_symmetry_Int_Tables_number   1
_chemical_formula_structural   Ga2P3(NO4)3
_chemical_formula_sum   'Ga4 P6 N6 O24'
_cell_volume   627.96422918
_cell_formula_units_Z   2
loop_
 _symmetry_equiv_pos_site_id
 _symmetry_equiv_pos_as_xyz
  1  'x, y, z'
loop_
 _atom_site_type_symbol
 _atom_site_label
 _atom_site_symmetry_multiplicity
 _atom_site_fract_x
 _atom_site_fract_y
 _atom_site_fract_z
 _atom_site_occupancy
  Ga  Ga0  1  0.58493000  0.72113800  0.43572700  1
  Ga  Ga1  1  0.27886200  0.41507000  0.06427300  1
  Ga  Ga2  1  0.41507000  0.27886200  0.56427300  1
  Ga  Ga3  1  0.72113800  0.58493000  0.93572700  1
  P  P0  1  0.48083900  0.51916100  0.75000000  1
  P  P1  1  0.51916100  0.48083900  0.25000000  1
  P  P2  1  0.91031200  0.61442300  0.19724500  1
  P  P3  1  0.38557700  0.08968800  0.30275500  1
  P  P4  1  0.08968800  0.38557700  0.80275500  1
  P  P5  1  0.61442300  0.91031200  0.69724500  1
  N  N0  1  0.12342900  0.87657100  0.25000000  1
  N  N1  1  0.87657100  0.12342900  0.75000000  1
  N  N2  1  0.08378400  0.75496100  0.26490300  1
  N  N3  1  0.24503900  0.91621600  0.23509700  1
  N  N4  1  0.91621600  0.24503900  0.73509700  1
  N  N5  1  0.75496100  0.08378400  0.76490300  1
  O  O0  1  0.06992300  0.47002700  0.19642200  1
  O  O1  1  0.52997300  0.93007700  0.30357800  1
  O  O2  1  0.93007700  0.52997300  0.80357800  1
  O  O3  1  0.47002700  0.06992300  0.69642200  1
  O  O4  1  0.82791300  0.67927200  0.05559500  1
  O  O5  1  0.32072800  0.17208700  0.44440500  1
  O  O6  1  0.17208700  0.32072800  0.94440500  1
  O  O7  1  0.67927200  0.82791300  0.55559500  1
  O  O8  1  0.45159700  0.68260800  0.62852000  1
  O  O9  1  0.31739200  0.54840300  0.87148000  1
  O  O10  1  0.54840300  0.31739200  0.37148000  1
  O  O11  1  0.68260800  0.45159700  0.12852000  1
  O  O12  1  0.62819800  0.48245000  0.83044500  1
  O  O13  1  0.51755000  0.37180200  0.66955500  1
  O  O14  1  0.37180200  0.51755000  0.16955500  1
  O  O15  1  0.48245000  0.62819800  0.33044500  1
  O  O16  1  0.80475400  0.60021100  0.36050500  1
  O  O17  1  0.39978900  0.19524600  0.13949500  1
  O  O18  1  0.19524600  0.39978900  0.63949500  1
  O  O19  1  0.60021100  0.80475400  0.86050500  1
  O  O20  1  0.97263300  0.78295700  0.17602200  1
  O  O21  1  0.21704300  0.02736700  0.32397800  1
  O  O22  1  0.02736700  0.21704300  0.82397800  1
  O  O23  1  0.78295700  0.97263300  0.67602200  1
loop_
_geom_bond_atom_site_label_1
_geom_bond_atom_site_label_2
_geom_bond_distance
_geom_bond_site_symmetry_2
Ga0 O8 1.859594 1_555
Ga0 O16 1.888801 1_555
Ga0 O1 1.896465 1_555
Ga0 O15 1.957061 1_555
Ga0 O7 2.088299 1_555
Ga1 O9 1.859594 1_554
Ga1 O17 1.888801 1_555
Ga1 O0 1.896465 1_555
Ga1 O14 1.957061 1_555
Ga1 O6 2.088299 1_554
Ga2 O10 1.859594 1_555
Ga2 O18 1.888801 1_555
Ga2 O3 1.896465 1_555
Ga2 O13 1.957061 1_555
Ga2 O5 2.088299 1_555
Ga3 O11 1.859594 1_556
Ga3 O19 1.888801 1_555
Ga3 O2 1.896465 1_555
Ga3 O12 1.957061 1_555
Ga3 O4 2.088299 1_556
N0 N3 1.234409 1_555
N0 N2 1.234409 1_555
N1 N4 1.234409 1_555
N1 N5 1.234409 1_555
N2 O20 1.338047 1_455
N3 O21 1.338047 1_565
N4 O22 1.338047 1_655
N5 O23 1.338047 1_545
O0 P2 1.518250 1_455
O1 P3 1.518250 1_565
O2 P4 1.518250 1_655
O3 P5 1.518250 1_545
O4 P2 1.499635 1_555
O5 P3 1.499635 1_555
O6 P4 1.499635 1_555
O7 P5 1.499635 1_555
O8 P0 1.557172 1_555
O9 P0 1.557172 1_555
O10 P1 1.557172 1_555
O11 P1 1.557172 1_555
O12 P0 1.546973 1_555
O13 P0 1.546973 1_555
O14 P1 1.546973 1_555
O15 P1 1.546973 1_555
O16 P2 1.523224 1_555
O17 P3 1.523224 1_555
O18 P4 1.523224 1_555
O19 P5 1.523224 1_555
O20 P2 1.749840 1_555
O21 P3 1.749840 1_555
O22 P4 1.749840 1_555
O23 P5 1.749840 1_555
