# generated using pymatgen
data_RbMg14Cu
_symmetry_space_group_name_H-M   'P 1'
_cell_length_a   6.52566168
_cell_length_b   6.38475771
_cell_length_c   10.64395490
_cell_angle_alpha   90.00000000
_cell_angle_beta   90.00000000
_cell_angle_gamma   119.28827228
_symmetry_Int_Tables_number   1
_chemical_formula_structural   RbMg14Cu
_chemical_formula_sum   'Rb1 Mg14 Cu1'
_cell_volume   386.78788143
_cell_formula_units_Z   1
loop_
 _symmetry_equiv_pos_site_id
 _symmetry_equiv_pos_as_xyz
  1  'x, y, z'
loop_
 _atom_site_type_symbol
 _atom_site_label
 _atom_site_symmetry_multiplicity
 _atom_site_fract_x
 _atom_site_fract_y
 _atom_site_fract_z
 _atom_site_occupancy
  Rb  Rb0  1  0.16456041  0.83227971  0.12500000  1
  Mg  Mg0  1  0.16196107  0.33098003  0.62500000  1
  Mg  Mg1  1  0.16624947  0.83312424  0.62500000  1
  Mg  Mg2  1  0.65991164  0.33940559  0.12500000  1
  Mg  Mg3  1  0.66443268  0.32908924  0.62500000  1
  Mg  Mg4  1  0.65991164  0.82050505  0.12500000  1
  Mg  Mg5  1  0.66443268  0.83534244  0.62500000  1
  Mg  Mg6  1  0.33925571  0.17880790  0.38788097  1
  Mg  Mg7  1  0.33925571  0.17880790  0.86211903  1
  Mg  Mg8  1  0.33925571  0.66044881  0.38788097  1
  Mg  Mg9  1  0.33925571  0.66044881  0.86211903  1
  Mg  Mg10  1  0.84373962  0.17187031  0.36075482  1
  Mg  Mg11  1  0.84373962  0.17187031  0.88924518  1
  Mg  Mg12  1  0.82378683  0.66189391  0.39287468  1
  Mg  Mg13  1  0.82378683  0.66189391  0.85712532  1
  Cu  Cu0  1  0.16646468  0.33323184  0.12500000  1
loop_
_geom_bond_atom_site_label_1
_geom_bond_atom_site_label_2
_geom_bond_distance
_geom_bond_site_symmetry_2
Mg0 Mg6 3.122875 1_555
Mg0 Mg7 3.122875 1_555
Mg0 Mg8 3.122881 1_555
Mg0 Mg9 3.122881 1_555
Mg0 Mg1 3.192472 1_545
Mg0 Mg1 3.192472 1_555
Mg0 Mg5 3.240813 1_445
Mg0 Mg3 3.240813 1_455
Mg0 Mg5 3.284882 1_555
Mg0 Mg3 3.284882 1_555
Mg0 Mg11 3.345305 1_455
Mg0 Mg10 3.345305 1_455
Mg1 Mg13 3.146996 1_455
Mg1 Mg12 3.146996 1_455
Mg1 Mg8 3.174569 1_555
Mg1 Mg9 3.174569 1_555
Mg1 Mg6 3.174576 1_565
Mg1 Mg7 3.174576 1_565
Mg1 Mg3 3.244070 1_565
Mg1 Mg5 3.244070 1_555
Mg1 Mg3 3.281638 1_455
Mg1 Mg5 3.281638 1_455
Mg2 Mg4 3.071703 1_555
Mg2 Rb0 3.257049 1_655
Mg2 Rb0 3.269929 1_545
Mg2 Mg4 3.313054 1_545
Mg2 Mg7 3.340656 1_554
Mg2 Mg6 3.340656 1_555
Mg3 Mg6 3.130719 1_555
Mg3 Mg7 3.130719 1_555
Mg3 Mg5 3.152454 1_545
Mg3 Mg5 3.232304 1_555
Mg4 Rb0 3.257050 1_655
Mg4 Rb0 3.269930 1_555
Mg4 Mg9 3.340656 1_554
Mg4 Mg8 3.340656 1_555
Mg5 Mg9 3.130719 1_555
Mg5 Mg8 3.130719 1_555
Mg6 Mg8 3.075161 1_555
Mg6 Mg8 3.309597 1_545
Mg6 Rb0 3.399454 1_545
Mg7 Mg9 3.075161 1_555
Mg7 Mg9 3.309597 1_545
Mg7 Rb0 3.399454 1_546
Mg8 Rb0 3.399448 1_555
Mg9 Rb0 3.399448 1_556
Mg10 Mg2 3.183648 1_555
Mg10 Mg4 3.183654 1_545
Mg10 Mg12 3.212641 1_555
Mg10 Mg12 3.212641 1_545
Mg10 Mg8 3.225084 1_655
Mg10 Mg6 3.225084 1_655
Mg10 Mg8 3.326539 1_545
Mg10 Mg6 3.326540 1_555
Mg10 Mg3 3.381824 1_555
Mg10 Mg5 3.381830 1_545
Mg11 Mg2 3.183648 1_556
Mg11 Mg4 3.183654 1_546
Mg11 Mg13 3.212641 1_555
Mg11 Mg13 3.212641 1_545
Mg11 Mg9 3.225084 1_655
Mg11 Mg7 3.225084 1_655
Mg11 Mg9 3.326539 1_545
Mg11 Mg7 3.326540 1_555
Mg11 Mg3 3.381824 1_555
Mg11 Mg5 3.381830 1_545
Mg12 Mg5 3.088530 1_555
Mg12 Mg3 3.088537 1_555
Mg12 Mg6 3.157830 1_555
Mg12 Mg8 3.157830 1_555
Mg12 Mg6 3.368718 1_665
Mg12 Mg8 3.368718 1_655
Mg12 Mg4 3.370214 1_555
Mg12 Mg2 3.370220 1_555
Mg12 Rb0 3.448375 1_655
Mg13 Mg5 3.088530 1_555
Mg13 Mg3 3.088537 1_555
Mg13 Mg7 3.157830 1_555
Mg13 Mg9 3.157830 1_555
Mg13 Mg7 3.368718 1_665
Mg13 Mg9 3.368718 1_655
Mg13 Mg4 3.370214 1_556
Mg13 Mg2 3.370220 1_556
Mg13 Rb0 3.448375 1_656
Cu0 Mg10 3.109772 1_455
Cu0 Mg11 3.109772 1_454
Cu0 Rb0 3.192397 1_545
Cu0 Rb0 3.192397 1_555
Cu0 Mg4 3.200969 1_555
Cu0 Mg2 3.200969 1_555
Cu0 Mg4 3.325055 1_445
Cu0 Mg2 3.325055 1_455
Cu0 Mg7 3.340750 1_554
Cu0 Mg6 3.340750 1_555
Cu0 Mg9 3.340755 1_554
Cu0 Mg8 3.340755 1_555
