# generated using pymatgen
data_Y2Fe4Si9
_symmetry_space_group_name_H-M   'P 1'
_cell_length_a   3.93962446
_cell_length_b   3.93962446
_cell_length_c   16.09154400
_cell_angle_alpha   90.00000000
_cell_angle_beta   90.00000000
_cell_angle_gamma   120.00000778
_symmetry_Int_Tables_number   1
_chemical_formula_structural   Y2Fe4Si9
_chemical_formula_sum   'Y2 Fe4 Si9'
_cell_volume   216.29075958
_cell_formula_units_Z   1
loop_
 _symmetry_equiv_pos_site_id
 _symmetry_equiv_pos_as_xyz
  1  'x, y, z'
loop_
 _atom_site_type_symbol
 _atom_site_label
 _atom_site_symmetry_multiplicity
 _atom_site_fract_x
 _atom_site_fract_y
 _atom_site_fract_z
 _atom_site_occupancy
  Y  Y0  1  0.66666700  0.33333300  0.24174400  1
  Y  Y1  1  0.33333300  0.66666700  0.75825600  1
  Fe  Fe0  1  0.66666700  0.33333300  0.58870600  1
  Fe  Fe1  1  0.33333300  0.66666700  0.41129400  1
  Fe  Fe2  1  0.33333300  0.66666700  0.10089100  1
  Fe  Fe3  1  0.66666700  0.33333300  0.89910900  1
  Si  Si0  1  0.00000000  0.00000000  0.64927500  1
  Si  Si1  1  0.00000000  0.00000000  0.35072500  1
  Si  Si2  1  0.00000000  0.00000000  0.12596700  1
  Si  Si3  1  0.00000000  0.00000000  0.87403300  1
  Si  Si4  1  0.66666700  0.33333300  0.43574100  1
  Si  Si5  1  0.33333300  0.66666700  0.56425900  1
  Si  Si6  1  0.33333300  0.66666700  0.95706600  1
  Si  Si7  1  0.66666700  0.33333300  0.04293400  1
  Si  Si8  1  0.00000000  0.00000000  0.50000000  1
loop_
_geom_bond_atom_site_label_1
_geom_bond_atom_site_label_2
_geom_bond_distance
_geom_bond_site_symmetry_2
Fe0 Si5 2.308309 1_545
Fe0 Si5 2.308309 1_655
Fe0 Si5 2.308316 1_555
Fe0 Si4 2.461443 1_555
Fe0 Si0 2.474566 1_655
Fe0 Si0 2.474569 1_555
Fe0 Si0 2.474569 1_665
Fe0 Si8 2.685341 1_655
Fe0 Si8 2.685343 1_665
Fe0 Si8 2.685343 1_555
Fe1 Si4 2.308309 1_455
Fe1 Si4 2.308309 1_565
Fe1 Si4 2.308316 1_555
Fe1 Si5 2.461443 1_555
Fe1 Si1 2.474566 1_565
Fe1 Si1 2.474569 1_665
Fe1 Si1 2.474569 1_555
Fe1 Si8 2.685341 1_565
Fe1 Si8 2.685343 1_555
Fe1 Si8 2.685343 1_665
Fe2 Si2 2.310056 1_565
Fe2 Si2 2.310059 1_555
Fe2 Si2 2.310059 1_665
Fe2 Si6 2.314366 1_554
Fe2 Si7 2.458315 1_455
Fe2 Si7 2.458315 1_565
Fe2 Si7 2.458321 1_555
Fe2 Y0 3.211036 1_455
Fe2 Y0 3.211036 1_565
Fe2 Y0 3.211041 1_555
Fe3 Si3 2.310056 1_655
Fe3 Si3 2.310059 1_555
Fe3 Si3 2.310059 1_665
Fe3 Si7 2.314366 1_556
Fe3 Si6 2.458315 1_545
Fe3 Si6 2.458315 1_655
Fe3 Si6 2.458321 1_555
Fe3 Y1 3.211036 1_545
Fe3 Y1 3.211036 1_655
Fe3 Y1 3.211041 1_555
Si0 Si8 2.402065 1_555
Si0 Si5 2.654254 1_545
Si0 Si5 2.654257 1_555
Si0 Si5 2.654257 1_445
Si0 Y1 2.872091 1_545
Si0 Y1 2.872093 1_445
Si0 Y1 2.872093 1_555
Si1 Si8 2.402065 1_555
Si1 Si4 2.654254 1_455
Si1 Si4 2.654257 1_555
Si1 Si4 2.654257 1_445
Si1 Y0 2.872091 1_455
Si1 Y0 2.872093 1_555
Si1 Y0 2.872093 1_445
Si2 Si7 2.637950 1_455
Si2 Si7 2.637952 1_555
Si2 Si7 2.637952 1_445
Si2 Y0 2.940140 1_455
Si2 Y0 2.940142 1_555
Si2 Y0 2.940142 1_445
Si3 Si6 2.637950 1_545
Si3 Si6 2.637952 1_445
Si3 Si6 2.637952 1_555
Si3 Y1 2.940140 1_545
Si3 Y1 2.940142 1_445
Si3 Y1 2.940142 1_555
Si4 Si8 2.498549 1_655
Si4 Si8 2.498552 1_555
Si4 Si8 2.498552 1_665
Si4 Y0 3.121711 1_555
Si5 Si8 2.498549 1_565
Si5 Si8 2.498552 1_665
Si5 Si8 2.498552 1_555
Si5 Y1 3.121711 1_555
Si6 Si7 2.661347 1_456
Si6 Si7 2.661347 1_566
Si6 Si7 2.661353 1_556
Si6 Y1 3.199160 1_555
Si7 Y0 3.199160 1_555
