# generated using pymatgen
data_Ba(GdSe2)2
_symmetry_space_group_name_H-M   'P 1'
_cell_length_a   4.25024198
_cell_length_b   12.87322743
_cell_length_c   15.29582041
_cell_angle_alpha   90.00000000
_cell_angle_beta   90.00000000
_cell_angle_gamma   90.00000000
_symmetry_Int_Tables_number   1
_chemical_formula_structural   Ba(GdSe2)2
_chemical_formula_sum   'Ba4 Gd8 Se16'
_cell_volume   836.90059064
_cell_formula_units_Z   4
loop_
 _symmetry_equiv_pos_site_id
 _symmetry_equiv_pos_as_xyz
  1  'x, y, z'
loop_
 _atom_site_type_symbol
 _atom_site_label
 _atom_site_symmetry_multiplicity
 _atom_site_fract_x
 _atom_site_fract_y
 _atom_site_fract_z
 _atom_site_occupancy
  Ba  Ba0  1  0.25000000  0.75782797  0.33711866  1
  Ba  Ba1  1  0.25000000  0.25782797  0.16288134  1
  Ba  Ba2  1  0.75000000  0.24217203  0.66288134  1
  Ba  Ba3  1  0.75000000  0.74217203  0.83711866  1
  Gd  Gd0  1  0.25000000  0.43277329  0.39093304  1
  Gd  Gd1  1  0.25000000  0.93277329  0.10906696  1
  Gd  Gd2  1  0.75000000  0.56722671  0.60906696  1
  Gd  Gd3  1  0.75000000  0.06722671  0.89093304  1
  Gd  Gd4  1  0.25000000  0.42086550  0.89911759  1
  Gd  Gd5  1  0.25000000  0.92086550  0.60088241  1
  Gd  Gd6  1  0.75000000  0.57913450  0.10088241  1
  Gd  Gd7  1  0.75000000  0.07913450  0.39911759  1
  Se  Se0  1  0.25000000  0.20755149  0.83345772  1
  Se  Se1  1  0.25000000  0.70755149  0.66654228  1
  Se  Se2  1  0.75000000  0.79244851  0.16654228  1
  Se  Se3  1  0.75000000  0.29244851  0.33345772  1
  Se  Se4  1  0.25000000  0.12642920  0.52434174  1
  Se  Se5  1  0.25000000  0.62642920  0.97565826  1
  Se  Se6  1  0.75000000  0.87357080  0.47565826  1
  Se  Se7  1  0.75000000  0.37357080  0.02434174  1
  Se  Se8  1  0.25000000  0.52278078  0.21705117  1
  Se  Se9  1  0.25000000  0.02278078  0.28294883  1
  Se  Se10  1  0.75000000  0.47721922  0.78294883  1
  Se  Se11  1  0.75000000  0.97721922  0.71705117  1
  Se  Se12  1  0.25000000  0.41716768  0.57759178  1
  Se  Se13  1  0.25000000  0.91716768  0.92240822  1
  Se  Se14  1  0.75000000  0.58283232  0.42240822  1
  Se  Se15  1  0.75000000  0.08283232  0.07759178  1
loop_
_geom_bond_atom_site_label_1
_geom_bond_atom_site_label_2
_geom_bond_distance
_geom_bond_site_symmetry_2
Ba0 Se6 3.350623 1_555
Ba0 Se6 3.350623 1_455
Ba0 Se14 3.360502 1_555
Ba0 Se14 3.360502 1_455
Ba0 Se2 3.394437 1_555
Ba0 Se2 3.394437 1_455
Ba0 Se9 3.509996 1_565
Ba0 Se8 3.539549 1_555
Ba1 Se7 3.350623 1_555
Ba1 Se7 3.350623 1_455
Ba1 Se15 3.360502 1_455
Ba1 Se15 3.360502 1_555
Ba1 Se3 3.394437 1_555
Ba1 Se3 3.394437 1_455
Ba1 Se8 3.509996 1_555
Ba1 Se9 3.539549 1_555
Ba2 Se4 3.350623 1_555
Ba2 Se4 3.350623 1_655
Ba2 Se12 3.360502 1_655
Ba2 Se12 3.360502 1_555
Ba2 Se0 3.394437 1_555
Ba2 Se0 3.394437 1_655
Ba2 Se11 3.509996 1_545
Ba2 Se10 3.539549 1_555
Ba3 Se5 3.350623 1_555
Ba3 Se5 3.350623 1_655
Ba3 Se13 3.360502 1_555
Ba3 Se13 3.360502 1_655
Ba3 Se1 3.394437 1_655
Ba3 Se1 3.394437 1_555
Ba3 Se10 3.509996 1_555
Ba3 Se11 3.539549 1_555
Gd0 Se12 2.862158 1_555
Gd0 Se8 2.901099 1_555
Gd0 Se14 2.911968 1_455
Gd0 Se14 2.911968 1_555
Gd0 Se3 2.924417 1_555
Gd0 Se3 2.924417 1_455
Gd1 Se13 2.862158 1_554
Gd1 Se9 2.901099 1_565
Gd1 Se15 2.911968 1_565
Gd1 Se15 2.911968 1_465
Gd1 Se2 2.924417 1_555
Gd1 Se2 2.924417 1_455
Gd2 Se14 2.862158 1_555
Gd2 Se10 2.901099 1_555
Gd2 Se12 2.911968 1_655
Gd2 Se12 2.911968 1_555
Gd2 Se1 2.924417 1_555
Gd2 Se1 2.924417 1_655
Gd3 Se15 2.862158 1_556
Gd3 Se11 2.901099 1_545
Gd3 Se13 2.911968 1_645
Gd3 Se13 2.911968 1_545
Gd3 Se0 2.924417 1_655
Gd3 Se0 2.924417 1_555
Gd4 Se10 2.863527 1_455
Gd4 Se10 2.863527 1_555
Gd4 Se5 2.893682 1_555
Gd4 Se0 2.923935 1_555
Gd4 Se7 2.924996 1_556
Gd4 Se7 2.924996 1_456
Gd5 Se11 2.863527 1_455
Gd5 Se11 2.863527 1_555
Gd5 Se4 2.893682 1_565
Gd5 Se1 2.923935 1_555
Gd5 Se6 2.924996 1_555
Gd5 Se6 2.924996 1_455
Gd6 Se8 2.863527 1_655
Gd6 Se8 2.863527 1_555
Gd6 Se7 2.893682 1_555
Gd6 Se2 2.923935 1_555
Gd6 Se5 2.924996 1_554
Gd6 Se5 2.924996 1_654
Gd7 Se9 2.863527 1_555
Gd7 Se9 2.863527 1_655
Gd7 Se6 2.893682 1_545
Gd7 Se3 2.923935 1_555
Gd7 Se4 2.924996 1_655
Gd7 Se4 2.924996 1_555
