# generated using pymatgen
data_K2(TaSe2)3
_symmetry_space_group_name_H-M   'P 1'
_cell_length_a   3.56254250
_cell_length_b   3.56253464
_cell_length_c   48.81988867
_cell_angle_alpha   90.00064566
_cell_angle_beta   89.99902946
_cell_angle_gamma   119.99974337
_symmetry_Int_Tables_number   1
_chemical_formula_structural   K2(TaSe2)3
_chemical_formula_sum   'K4 Ta6 Se12'
_cell_volume   536.59631953
_cell_formula_units_Z   2
loop_
 _symmetry_equiv_pos_site_id
 _symmetry_equiv_pos_as_xyz
  1  'x, y, z'
loop_
 _atom_site_type_symbol
 _atom_site_label
 _atom_site_symmetry_multiplicity
 _atom_site_fract_x
 _atom_site_fract_y
 _atom_site_fract_z
 _atom_site_occupancy
  K  K0  1  -0.00001635  -0.00001281  0.66678329  1
  K  K1  1  -0.00000642  -0.00001215  0.33318076  1
  K  K2  1  0.00000285  -0.00000452  0.00010142  1
  K  K3  1  0.33333003  0.66665889  0.49991242  1
  Ta  Ta0  1  0.33331727  0.66665561  0.74985240  1
  Ta  Ta1  1  0.33333120  0.66665254  0.41612834  1
  Ta  Ta2  1  0.33332119  0.66667078  0.08327235  1
  Ta  Ta3  1  0.33332417  0.66666127  0.58375943  1
  Ta  Ta4  1  0.33332967  0.66666468  0.25014291  1
  Ta  Ta5  1  0.33335237  0.66668278  0.91685006  1
  Se  Se0  1  0.66665659  0.33334615  0.78258097  1
  Se  Se1  1  0.66665836  0.33334307  0.44948472  1
  Se  Se2  1  0.66665407  0.33334842  0.11596083  1
  Se  Se3  1  0.66665629  0.33332287  0.55039417  1
  Se  Se4  1  0.66666070  0.33332305  0.21743512  1
  Se  Se5  1  0.66672830  0.33337082  0.88416238  1
  Se  Se6  1  0.66666516  0.33333401  0.71616264  1
  Se  Se7  1  0.66666508  0.33332988  0.38282401  1
  Se  Se8  1  0.66668074  0.33333007  0.04958711  1
  Se  Se9  1  0.66667680  0.33333399  0.61708419  1
  Se  Se10  1  0.66666586  0.33332958  0.28382745  1
  Se  Se11  1  0.66667906  0.33333602  0.95051305  1
loop_
_geom_bond_atom_site_label_1
_geom_bond_atom_site_label_2
_geom_bond_distance
_geom_bond_site_symmetry_2
K0 Se6 3.168883 1_455
K0 Se6 3.168893 1_445
K0 Se6 3.168968 1_555
K0 Se9 3.180774 1_445
K0 Se9 3.180802 1_455
K0 Se9 3.180841 1_555
K1 Se10 3.167926 1_445
K1 Se10 3.167941 1_555
K1 Se10 3.167975 1_455
K1 Se7 3.178705 1_455
K1 Se7 3.178714 1_445
K1 Se7 3.178760 1_555
K2 Se8 3.172817 1_455
K2 Se8 3.172868 1_445
K2 Se8 3.172912 1_555
K2 Se11 3.176665 1_444
K2 Se11 3.176686 1_554
K2 Se11 3.176702 1_454
K3 Se1 3.207947 1_555
K3 Se1 3.208055 1_455
K3 Se1 3.208061 1_565
K3 Se3 3.210036 1_565
K3 Se3 3.210043 1_455
K3 Se3 3.210060 1_555
Se0 Ta0 2.604498 1_555
Se0 Ta0 2.604498 1_655
Se0 Ta0 2.604580 1_545
Se1 Ta1 2.623384 1_555
Se1 Ta1 2.623442 1_655
Se1 Ta1 2.623494 1_545
Se2 Ta2 2.603314 1_555
Se2 Ta2 2.603314 1_655
Se2 Ta2 2.603348 1_545
Se3 Ta3 2.623693 1_555
Se3 Ta3 2.623701 1_545
Se3 Ta3 2.623732 1_655
Se4 Ta4 2.603887 1_545
Se4 Ta4 2.603893 1_555
Se4 Ta4 2.603929 1_655
Se5 Ta5 2.603218 1_655
Se5 Ta5 2.603328 1_555
Se5 Ta5 2.603358 1_545
Se6 Ta0 2.633555 1_555
Se6 Ta0 2.633559 1_655
Se6 Ta0 2.633606 1_545
Se7 Ta1 2.621814 1_555
Se7 Ta1 2.621882 1_655
Se7 Ta1 2.621893 1_545
Se8 Ta2 2.633393 1_655
Se8 Ta2 2.633422 1_545
Se8 Ta2 2.633492 1_555
Se9 Ta3 2.622422 1_655
Se9 Ta3 2.622493 1_545
Se9 Ta3 2.622530 1_555
Se10 Ta4 2.633395 1_655
Se10 Ta4 2.633406 1_545
Se10 Ta4 2.633442 1_555
Se11 Ta5 2.632721 1_545
Se11 Ta5 2.632761 1_655
Se11 Ta5 2.632791 1_555
