# generated using pymatgen
data_MgMn6O5F7
_symmetry_space_group_name_H-M   'P 1'
_cell_length_a   7.30832032
_cell_length_b   6.10250825
_cell_length_c   5.89316975
_cell_angle_alpha   78.90434041
_cell_angle_beta   74.55183817
_cell_angle_gamma   70.44742000
_symmetry_Int_Tables_number   1
_chemical_formula_structural   MgMn6O5F7
_chemical_formula_sum   'Mg1 Mn6 O5 F7'
_cell_volume   237.17682554
_cell_formula_units_Z   1
loop_
 _symmetry_equiv_pos_site_id
 _symmetry_equiv_pos_as_xyz
  1  'x, y, z'
loop_
 _atom_site_type_symbol
 _atom_site_label
 _atom_site_symmetry_multiplicity
 _atom_site_fract_x
 _atom_site_fract_y
 _atom_site_fract_z
 _atom_site_occupancy
  Mg  Mg0  1  0.51832217  0.49156870  0.96701418  1
  Mn  Mn0  1  0.84529907  0.68928129  0.64237524  1
  Mn  Mn1  1  0.68779895  0.30739378  0.39722255  1
  Mn  Mn2  1  0.31461885  0.75488169  0.58087057  1
  Mn  Mn3  1  0.15755739  0.31760048  0.31193727  1
  Mn  Mn4  1  0.51601696  0.00506871  0.02747090  1
  Mn  Mn5  1  0.99482544  0.02528667  0.98201906  1
  O  O0  1  0.59861910  0.56667499  0.61581983  1
  O  O1  1  0.97847328  0.20191618  0.23703977  1
  O  O2  1  0.69976590  0.16482147  0.07387641  1
  O  O3  1  0.03003497  0.83681508  0.73339042  1
  O  O4  1  0.34607300  0.02152960  0.34692583  1
  F  F0  1  0.62730544  0.03258057  0.66120725  1
  F  F1  1  0.30584933  0.36316695  0.96363926  1
  F  F2  1  0.30602001  0.85906322  0.94494565  1
  F  F3  1  0.37398238  0.47775055  0.33663736  1
  F  F4  1  0.68639133  0.65034277  0.03159697  1
  F  F5  1  0.03500516  0.32562946  0.66411710  1
  F  F6  1  0.99656028  0.65862882  0.28397638  1
loop_
_geom_bond_atom_site_label_1
_geom_bond_atom_site_label_2
_geom_bond_distance
_geom_bond_site_symmetry_2
Mg0 O0 2.001446 1_555
Mg0 O2 2.079107 1_556
Mn0 O3 2.075171 1_655
Mn0 O0 2.220964 1_555
Mn1 O1 2.017066 1_555
Mn1 O0 2.057883 1_555
Mn1 O2 2.212261 1_555
Mn2 O4 1.954354 1_565
Mn2 O3 1.965860 1_555
Mn2 O0 2.051972 1_555
Mn3 O1 1.858040 1_455
Mn3 O4 1.883316 1_555
Mn4 O4 1.959720 1_555
Mn4 O2 2.000782 1_555
Mn5 O3 1.945656 1_645
Mn5 O1 1.968848 1_556
Mn5 O2 1.998658 1_556
F0 Mn4 2.089331 1_556
F0 Mn1 2.133976 1_555
F0 Mn0 2.168114 1_545
F1 Mg0 1.965325 1_555
F1 Mn3 2.064440 1_556
F1 Mn4 2.240749 1_556
F2 Mn5 2.127343 1_465
F2 Mn4 2.205784 1_566
F2 Mg0 2.262719 1_555
F2 Mn2 2.331956 1_555
F3 Mg0 2.151604 1_554
F3 Mn3 2.165691 1_555
F3 Mn1 2.272821 1_555
F3 Mn2 2.287595 1_555
F4 Mg0 1.944216 1_554
F4 Mn4 2.104452 1_565
F4 Mn0 2.285234 1_554
F4 Mn1 2.698992 1_555
F5 Mn3 2.032630 1_555
F5 Mn0 2.188423 1_455
F5 Mn5 2.387657 1_455
F6 Mn3 2.018652 1_655
F6 Mn0 2.118450 1_555
F6 Mn5 2.575615 1_564
