# generated using pymatgen
data_TmTe
_symmetry_space_group_name_H-M   'P 1'
_cell_length_a   4.10455184
_cell_length_b   4.10455143
_cell_length_c   7.71549244
_cell_angle_alpha   90.00000000
_cell_angle_beta   90.00000000
_cell_angle_gamma   120.00000331
_symmetry_Int_Tables_number   1
_chemical_formula_structural   TmTe
_chemical_formula_sum   'Tm2 Te2'
_cell_volume   112.57079003
_cell_formula_units_Z   2
loop_
 _symmetry_equiv_pos_site_id
 _symmetry_equiv_pos_as_xyz
  1  'x, y, z'
loop_
 _atom_site_type_symbol
 _atom_site_label
 _atom_site_symmetry_multiplicity
 _atom_site_fract_x
 _atom_site_fract_y
 _atom_site_fract_z
 _atom_site_occupancy
  Tm  Tm0  1  0.66666700  0.33333300  0.75000000  1
  Tm  Tm1  1  0.33333300  0.66666700  0.25000000  1
  Te  Te0  1  -0.00000000  0.00000000  0.50000000  1
  Te  Te1  1  -0.00000000  0.00000000  -0.00000000  1
loop_
_geom_bond_atom_site_label_1
_geom_bond_atom_site_label_2
_geom_bond_distance
_geom_bond_site_symmetry_2
Te0 Tm1 3.055540 1_545
Te0 Tm0 3.055540 1_455
Te0 Tm0 3.055542 1_445
Te0 Tm1 3.055542 1_555
Te0 Tm0 3.055542 1_555
Te0 Tm1 3.055542 1_445
Te1 Tm1 3.055540 1_545
Te1 Tm0 3.055540 1_454
Te1 Tm1 3.055542 1_555
Te1 Tm0 3.055542 1_444
Te1 Tm0 3.055542 1_554
Te1 Tm1 3.055542 1_445
