# generated using pymatgen
data_As2O3
_symmetry_space_group_name_H-M   'P 1'
_cell_length_a   14.05079900
_cell_length_b   11.21562800
_cell_length_c   13.91101985
_cell_angle_alpha   82.14143771
_cell_angle_beta   90.00000000
_cell_angle_gamma   90.00000000
_symmetry_Int_Tables_number   1
_chemical_formula_structural   As2O3
_chemical_formula_sum   'As48 O72'
_cell_volume   2171.62926127
_cell_formula_units_Z   24
loop_
 _symmetry_equiv_pos_site_id
 _symmetry_equiv_pos_as_xyz
  1  'x, y, z'
loop_
 _atom_site_type_symbol
 _atom_site_label
 _atom_site_symmetry_multiplicity
 _atom_site_fract_x
 _atom_site_fract_y
 _atom_site_fract_z
 _atom_site_occupancy
  As  As0  1  0.24659800  0.34197700  0.53011400  1
  As  As1  1  0.74659800  0.65802300  0.96988600  1
  As  As2  1  0.75340200  0.65802300  0.46988600  1
  As  As3  1  0.25340200  0.34197700  0.03011400  1
  As  As4  1  0.22960600  0.40629500  0.29960800  1
  As  As5  1  0.72960600  0.59370500  0.20039200  1
  As  As6  1  0.77039400  0.59370500  0.70039200  1
  As  As7  1  0.27039400  0.40629500  0.79960800  1
  As  As8  1  0.39499200  0.59129900  0.21850400  1
  As  As9  1  0.89499200  0.40870100  0.28149600  1
  As  As10  1  0.60500800  0.40870100  0.78149600  1
  As  As11  1  0.10500800  0.59129900  0.71850400  1
  As  As12  1  0.41542400  0.64984000  0.98572300  1
  As  As13  1  0.91542400  0.35016000  0.51427700  1
  As  As14  1  0.58457600  0.35016000  0.01427700  1
  As  As15  1  0.08457600  0.64984000  0.48572300  1
  As  As16  1  0.07946700  0.15395300  0.47677700  1
  As  As17  1  0.57946700  0.84604700  0.02322300  1
  As  As18  1  0.92053300  0.84604700  0.52322300  1
  As  As19  1  0.42053300  0.15395300  0.97677700  1
  As  As20  1  0.06029900  0.09161300  0.70824900  1
  As  As21  1  0.56029900  0.90838700  0.79175100  1
  As  As22  1  0.93970100  0.90838700  0.29175100  1
  As  As23  1  0.43970100  0.09161300  0.20824900  1
  As  As24  1  0.23030700  0.90735000  0.77937600  1
  As  As25  1  0.73030700  0.09265000  0.72062400  1
  As  As26  1  0.76969300  0.09265000  0.22062400  1
  As  As27  1  0.26969300  0.90735000  0.27937600  1
  As  As28  1  0.89877300  0.90461400  0.79720600  1
  As  As29  1  0.39877300  0.09538600  0.70279400  1
  As  As30  1  0.10122700  0.09538600  0.20279400  1
  As  As31  1  0.60122700  0.90461400  0.29720600  1
  As  As32  1  0.41555500  0.15457500  0.47274300  1
  As  As33  1  0.91555500  0.84542500  0.02725700  1
  As  As34  1  0.58444500  0.84542500  0.52725700  1
  As  As35  1  0.08444500  0.15457500  0.97274300  1
  As  As36  1  0.58514500  0.34858100  0.51880100  1
  As  As37  1  0.08514500  0.65141900  0.98119900  1
  As  As38  1  0.41485500  0.65141900  0.48119900  1
  As  As39  1  0.91485500  0.34858100  0.01880100  1
  As  As40  1  0.25181500  0.84958000  0.01288600  1
  As  As41  1  0.75181500  0.15042000  0.48711400  1
  As  As42  1  0.74818500  0.15042000  0.98711400  1
  As  As43  1  0.24818500  0.84958000  0.51288600  1
  As  As44  1  0.06595200  0.59460500  0.21288500  1
  As  As45  1  0.56595200  0.40539500  0.28711500  1
  As  As46  1  0.93404800  0.40539500  0.78711500  1
  As  As47  1  0.43404800  0.59460500  0.71288500  1
  O  O0  1  0.13364600  0.26401600  0.54845800  1
  O  O1  1  0.63364600  0.73598400  0.95154200  1
  O  O2  1  0.86635400  0.73598400  0.45154200  1
  O  O3  1  0.36635400  0.26401600  0.04845800  1
  O  O4  1  0.22100500  0.44876500  0.42277700  1
  O  O5  1  0.72100500  0.55123500  0.07722300  1
  O  O6  1  0.77899500  0.55123500  0.57722300  1
  O  O7  1  0.27899500  0.44876500  0.92277700  1
  O  O8  1  0.30173500  0.23162000  0.45980600  1
  O  O9  1  0.80173500  0.76838000  0.04019400  1
  O  O10  1  0.69826500  0.76838000  0.54019400  1
  O  O11  1  0.19826500  0.23162000  0.95980600  1
  O  O12  1  0.35411400  0.44306600  0.27582200  1
  O  O13  1  0.85411400  0.55693400  0.22417800  1
  O  O14  1  0.64588600  0.55693400  0.72417800  1
  O  O15  1  0.14588600  0.44306600  0.77582200  1
  O  O16  1  0.18891800  0.55323800  0.24054500  1
  O  O17  1  0.68891800  0.44676200  0.25945500  1
  O  O18  1  0.81108200  0.44676200  0.75945500  1
  O  O19  1  0.31108200  0.55323800  0.74054500  1
  O  O20  1  0.37030800  0.55992500  0.09466800  1
  O  O21  1  0.87030800  0.44007500  0.40533200  1
  O  O22  1  0.62969200  0.44007500  0.90533200  1
  O  O23  1  0.12969200  0.55992500  0.59466800  1
  O  O24  1  0.97227500  0.24001100  0.44500100  1
  O  O25  1  0.47227500  0.75998900  0.05499900  1
  O  O26  1  0.02772500  0.75998900  0.55499900  1
  O  O27  1  0.52772500  0.24001100  0.94500100  1
  O  O28  1  0.31281800  0.74119800  0.94558000  1
  O  O29  1  0.81281800  0.25880200  0.55442000  1
  O  O30  1  0.68718200  0.25880200  0.05442000  1
  O  O31  1  0.18718200  0.74119800  0.44558000  1
  O  O32  1  0.04140200  0.05540700  0.58465000  1
  O  O33  1  0.54140200  0.94459300  0.91535000  1
  O  O34  1  0.95859800  0.94459300  0.41535000  1
  O  O35  1  0.45859800  0.05540700  0.08465000  1
  O  O36  1  0.02150600  0.94254700  0.76616200  1
  O  O37  1  0.52150600  0.05745300  0.73383800  1
  O  O38  1  0.97849400  0.05745300  0.23383800  1
  O  O39  1  0.47849400  0.94254700  0.26616200  1
  O  O40  1  0.18585300  0.05295400  0.72129200  1
  O  O41  1  0.68585300  0.94704600  0.77870800  1
  O  O42  1  0.81414700  0.94704600  0.27870800  1
  O  O43  1  0.31414700  0.05295400  0.22129200  1
  O  O44  1  0.85451100  0.04816100  0.73561700  1
  O  O45  1  0.35451100  0.95183900  0.76438300  1
  O  O46  1  0.14548900  0.95183900  0.26438300  1
  O  O47  1  0.64548900  0.04816100  0.23561700  1
  O  O48  1  0.21135700  0.94222800  0.90325800  1
  O  O49  1  0.71135700  0.05777200  0.59674200  1
  O  O50  1  0.78864300  0.05777200  0.09674200  1
  O  O51  1  0.28864300  0.94222800  0.40325800  1
  O  O52  1  0.39497500  0.04740800  0.58095700  1
  O  O53  1  0.89497500  0.95259200  0.91904300  1
  O  O54  1  0.60502500  0.95259200  0.41904300  1
  O  O55  1  0.10502500  0.04740800  0.08095700  1
  O  O56  1  0.47534800  0.26415500  0.54008700  1
  O  O57  1  0.97534800  0.73584500  0.95991300  1
  O  O58  1  0.52465200  0.73584500  0.45991300  1
  O  O59  1  0.02465200  0.26415500  0.04008700  1
  O  O60  1  0.14777900  0.75872700  0.04809700  1
  O  O61  1  0.64777900  0.24127300  0.45190300  1
  O  O62  1  0.85222100  0.24127300  0.95190300  1
  O  O63  1  0.35222100  0.75872700  0.54809700  1
  O  O64  1  0.05724800  0.54957900  0.09050600  1
  O  O65  1  0.55724800  0.45042100  0.40949400  1
  O  O66  1  0.94275200  0.45042100  0.90949400  1
  O  O67  1  0.44275200  0.54957900  0.59050600  1
  O  O68  1  0.52008700  0.54823600  0.22605300  1
  O  O69  1  0.02008700  0.45176400  0.27394700  1
  O  O70  1  0.47991300  0.45176400  0.77394700  1
  O  O71  1  0.97991300  0.54823600  0.72605300  1
loop_
_geom_bond_atom_site_label_1
_geom_bond_atom_site_label_2
_geom_bond_distance
_geom_bond_site_symmetry_2
As0 O0 1.813126 1_555
As0 O4 1.817772 1_555
As0 O8 1.849264 1_555
As1 O1 1.813126 1_555
As1 O5 1.817772 1_556
As1 O9 1.849264 1_556
As2 O2 1.813126 1_555
As2 O6 1.817772 1_555
As2 O10 1.849264 1_555
As3 O3 1.813126 1_555
As3 O7 1.817772 1_554
As3 O11 1.849264 1_554
As4 O12 1.817356 1_555
As4 O16 1.829678 1_555
As4 O4 1.844027 1_555
As5 O13 1.817356 1_555
As5 O17 1.829678 1_555
As5 O5 1.844027 1_555
As6 O14 1.817356 1_555
As6 O18 1.829678 1_555
As6 O6 1.844027 1_555
As7 O15 1.817356 1_555
As7 O19 1.829678 1_555
As7 O7 1.844027 1_555
As8 O68 1.822054 1_555
As8 O12 1.834983 1_555
As8 O20 1.837802 1_555
As9 O69 1.822054 1_655
As9 O13 1.834983 1_555
As9 O21 1.837802 1_555
As10 O70 1.822054 1_555
As10 O14 1.834983 1_555
As10 O22 1.837802 1_555
As11 O71 1.822054 1_455
As11 O15 1.834983 1_555
As11 O23 1.837802 1_555
As12 O28 1.812111 1_555
As12 O20 1.815968 1_556
As12 O25 1.848933 1_556
As13 O29 1.812111 1_555
As13 O21 1.815968 1_555
As13 O24 1.848933 1_555
As14 O30 1.812111 1_555
As14 O22 1.815968 1_554
As14 O27 1.848933 1_554
As15 O31 1.812111 1_555
As15 O23 1.815968 1_555
As15 O26 1.848933 1_555
As16 O24 1.810736 1_455
As16 O32 1.818233 1_555
As16 O0 1.853171 1_555
As17 O25 1.810736 1_555
As17 O33 1.818233 1_554
As17 O1 1.853171 1_554
As18 O26 1.810736 1_655
As18 O34 1.818233 1_555
As18 O2 1.853171 1_555
As19 O27 1.810736 1_555
As19 O35 1.818233 1_556
As19 O3 1.853171 1_556
As20 O40 1.819773 1_555
As20 O36 1.836564 1_545
As20 O32 1.839189 1_555
As21 O41 1.819773 1_555
As21 O37 1.836564 1_565
As21 O33 1.839189 1_555
As22 O42 1.819773 1_555
As22 O38 1.836564 1_565
As22 O34 1.839189 1_555
As23 O43 1.819773 1_555
As23 O39 1.836564 1_545
As23 O35 1.839189 1_555
As24 O45 1.819235 1_555
As24 O40 1.830031 1_565
As24 O48 1.837964 1_555
As25 O44 1.819235 1_555
As25 O41 1.830031 1_545
As25 O49 1.837964 1_555
As26 O47 1.819235 1_555
As26 O42 1.830031 1_545
As26 O50 1.837964 1_555
As27 O46 1.819235 1_555
As27 O43 1.830031 1_565
As27 O51 1.837964 1_555
As28 O36 1.814152 1_655
As28 O44 1.826372 1_565
As28 O53 1.847812 1_555
As29 O37 1.814152 1_555
As29 O45 1.826372 1_545
As29 O52 1.847812 1_555
As30 O38 1.814152 1_455
As30 O46 1.826372 1_545
As30 O55 1.847812 1_555
As31 O39 1.814152 1_555
As31 O47 1.826372 1_565
As31 O54 1.847812 1_555
As32 O8 1.814989 1_555
As32 O52 1.816490 1_555
As32 O56 1.846289 1_555
As33 O9 1.814989 1_555
As33 O53 1.816490 1_554
As33 O57 1.846289 1_554
As34 O10 1.814989 1_555
As34 O54 1.816490 1_555
As34 O58 1.846289 1_555
As35 O11 1.814989 1_555
As35 O55 1.816490 1_556
As35 O59 1.846289 1_556
As36 O56 1.813186 1_555
As36 O65 1.815342 1_555
As36 O61 1.842636 1_555
As37 O57 1.813186 1_455
As37 O64 1.815342 1_556
As37 O60 1.842636 1_556
As38 O58 1.813186 1_555
As38 O67 1.815342 1_555
As38 O63 1.842636 1_555
As39 O59 1.813186 1_655
As39 O66 1.815342 1_554
As39 O62 1.842636 1_554
As40 O60 1.810683 1_555
As40 O48 1.815295 1_554
As40 O28 1.843959 1_554
As41 O61 1.810683 1_555
As41 O49 1.815295 1_555
As41 O29 1.843959 1_555
As42 O62 1.810683 1_555
As42 O50 1.815295 1_556
As42 O30 1.843959 1_556
As43 O63 1.810683 1_555
As43 O51 1.815295 1_555
As43 O31 1.843959 1_555
As44 O16 1.816503 1_555
As44 O69 1.825180 1_555
As44 O64 1.844802 1_555
As45 O17 1.816503 1_555
As45 O68 1.825180 1_555
As45 O65 1.844802 1_555
As46 O18 1.816503 1_555
As46 O71 1.825180 1_555
As46 O66 1.844802 1_555
As47 O19 1.816503 1_555
As47 O70 1.825180 1_555
As47 O67 1.844802 1_555
