# generated using pymatgen
data_CaF3
_symmetry_space_group_name_H-M   'P 1'
_cell_length_a   4.94216487
_cell_length_b   4.94216487
_cell_length_c   4.50730300
_cell_angle_alpha   90.00000000
_cell_angle_beta   90.00000000
_cell_angle_gamma   119.99998486
_symmetry_Int_Tables_number   1
_chemical_formula_structural   CaF3
_chemical_formula_sum   'Ca2 F6'
_cell_volume   95.34148469
_cell_formula_units_Z   2
loop_
 _symmetry_equiv_pos_site_id
 _symmetry_equiv_pos_as_xyz
  1  'x, y, z'
loop_
 _atom_site_type_symbol
 _atom_site_label
 _atom_site_symmetry_multiplicity
 _atom_site_fract_x
 _atom_site_fract_y
 _atom_site_fract_z
 _atom_site_occupancy
  Ca  Ca0  1  0.33333300  0.66666700  0.75000000  1
  Ca  Ca1  1  0.66666700  0.33333300  0.25000000  1
  F  F0  1  0.17634100  0.35268100  0.25000000  1
  F  F1  1  0.64731900  0.82365900  0.25000000  1
  F  F2  1  0.17634100  0.82365900  0.25000000  1
  F  F3  1  0.82365900  0.64731900  0.75000000  1
  F  F4  1  0.35268100  0.17634100  0.75000000  1
  F  F5  1  0.82365900  0.17634100  0.75000000  1
loop_
_geom_bond_atom_site_label_1
_geom_bond_atom_site_label_2
_geom_bond_distance
_geom_bond_site_symmetry_2
Ca0 F3 2.472470 1_555
Ca0 F4 2.472470 1_555
Ca0 F3 2.472470 1_455
Ca0 F4 2.472470 1_565
Ca0 F5 2.472470 1_565
Ca0 F5 2.472470 1_455
Ca0 F2 2.623912 1_556
Ca0 F2 2.623912 1_555
Ca0 F0 2.623917 1_555
Ca0 F0 2.623917 1_556
Ca0 F1 2.623917 1_555
Ca0 F1 2.623917 1_556
Ca1 F0 2.472470 1_555
Ca1 F1 2.472470 1_555
Ca1 F1 2.472470 1_545
Ca1 F0 2.472470 1_655
Ca1 F2 2.472470 1_545
Ca1 F2 2.472470 1_655
Ca1 F5 2.623912 1_554
Ca1 F5 2.623912 1_555
Ca1 F4 2.623917 1_554
Ca1 F4 2.623917 1_555
Ca1 F3 2.623917 1_555
Ca1 F3 2.623917 1_554
