# generated using pymatgen
data_Y4NiSn8
_symmetry_space_group_name_H-M   'P 1'
_cell_length_a   4.41201500
_cell_length_b   4.40294200
_cell_length_c   16.90872900
_cell_angle_alpha   90.00000000
_cell_angle_beta   90.00000000
_cell_angle_gamma   90.00000000
_symmetry_Int_Tables_number   1
_chemical_formula_structural   Y4NiSn8
_chemical_formula_sum   'Y4 Ni1 Sn8'
_cell_volume   328.46636811
_cell_formula_units_Z   1
loop_
 _symmetry_equiv_pos_site_id
 _symmetry_equiv_pos_as_xyz
  1  'x, y, z'
loop_
 _atom_site_type_symbol
 _atom_site_label
 _atom_site_symmetry_multiplicity
 _atom_site_fract_x
 _atom_site_fract_y
 _atom_site_fract_z
 _atom_site_occupancy
  Y  Y0  1  0.25000000  0.00000000  0.09840900  1
  Y  Y1  1  0.25000000  0.50000000  0.60329800  1
  Y  Y2  1  0.75000000  0.50000000  0.39713500  1
  Y  Y3  1  0.75000000  0.00000000  0.89898100  1
  Ni  Ni0  1  0.25000000  0.00000000  0.31031700  1
  Sn  Sn0  1  0.25000000  0.00000000  0.45586900  1
  Sn  Sn1  1  0.25000000  0.50000000  0.93643700  1
  Sn  Sn2  1  0.75000000  0.50000000  0.05774100  1
  Sn  Sn3  1  0.75000000  0.00000000  0.57088400  1
  Sn  Sn4  1  0.25000000  0.50000000  0.23707000  1
  Sn  Sn5  1  0.25000000  0.00000000  0.74663800  1
  Sn  Sn6  1  0.75000000  0.00000000  0.23794300  1
  Sn  Sn7  1  0.75000000  0.50000000  0.75437700  1
loop_
_geom_bond_atom_site_label_1
_geom_bond_atom_site_label_2
_geom_bond_distance
_geom_bond_site_symmetry_2
Ni0 Sn0 2.461099 1_555
Ni0 Sn6 2.522705 1_555
Ni0 Sn6 2.522705 1_455
Ni0 Sn4 2.525944 1_545
Ni0 Sn4 2.525944 1_555
Ni0 Y2 3.444984 1_545
Ni0 Y2 3.444984 1_555
Ni0 Y2 3.444984 1_445
Ni0 Y2 3.444984 1_455
Sn0 Sn3 2.940842 1_455
Sn0 Sn3 2.940842 1_555
Sn0 Y2 3.270967 1_555
Sn0 Y2 3.270967 1_445
Sn0 Y2 3.270967 1_545
Sn0 Y2 3.270967 1_455
Sn0 Y1 3.325765 1_545
Sn0 Y1 3.325765 1_555
Sn1 Sn2 3.012219 1_556
Sn1 Sn2 3.012219 1_456
Sn1 Y3 3.180260 1_565
Sn1 Y3 3.180260 1_465
Sn1 Y3 3.180260 1_455
Sn1 Y3 3.180260 1_555
Sn1 Y0 3.513855 1_566
Sn1 Y0 3.513855 1_556
Sn2 Y0 3.191520 1_665
Sn2 Y0 3.191520 1_655
Sn2 Y0 3.191520 1_555
Sn2 Y0 3.191520 1_565
Sn2 Y3 3.471691 1_564
Sn2 Y3 3.471691 1_554
Sn3 Y1 3.164385 1_555
Sn3 Y1 3.164385 1_655
Sn3 Y1 3.164385 1_645
Sn3 Y1 3.164385 1_545
Sn3 Y2 3.671183 1_555
Sn3 Y2 3.671183 1_545
Sn4 Sn6 3.116595 1_565
Sn4 Sn6 3.116595 1_555
Sn4 Sn6 3.116595 1_455
Sn4 Sn6 3.116595 1_465
Sn4 Y0 3.216137 1_555
Sn4 Y0 3.216137 1_565
Sn4 Y2 3.491645 1_455
Sn4 Y2 3.491645 1_555
Sn5 Sn7 3.119306 1_545
Sn5 Sn7 3.119306 1_455
Sn5 Sn7 3.119306 1_555
Sn5 Sn7 3.119306 1_445
Sn5 Y1 3.274261 1_555
Sn5 Y1 3.274261 1_545
Sn5 Y3 3.391440 1_555
Sn5 Y3 3.391440 1_455
Sn6 Y0 3.230010 1_655
Sn6 Y0 3.230010 1_555
Sn6 Y2 3.477342 1_555
Sn6 Y2 3.477342 1_545
Sn7 Y3 3.290113 1_555
Sn7 Y3 3.290113 1_565
Sn7 Y1 3.375235 1_555
Sn7 Y1 3.375235 1_655
