# generated using pymatgen
data_Nb2FeO6
_symmetry_space_group_name_H-M   'P 1'
_cell_length_a   5.33325125
_cell_length_b   5.83146306
_cell_length_c   14.95508325
_cell_angle_alpha   89.93310264
_cell_angle_beta   90.41822826
_cell_angle_gamma   90.03262785
_symmetry_Int_Tables_number   1
_chemical_formula_structural   Nb2FeO6
_chemical_formula_sum   'Nb8 Fe4 O24'
_cell_volume   465.10014275
_cell_formula_units_Z   4
loop_
 _symmetry_equiv_pos_site_id
 _symmetry_equiv_pos_as_xyz
  1  'x, y, z'
loop_
 _atom_site_type_symbol
 _atom_site_label
 _atom_site_symmetry_multiplicity
 _atom_site_fract_x
 _atom_site_fract_y
 _atom_site_fract_z
 _atom_site_occupancy
  Nb  Nb0  1  0.98446500  0.17154600  0.16536600  1
  Nb  Nb1  1  0.51073800  0.66893900  0.66496900  1
  Nb  Nb2  1  0.01056100  0.33178900  0.66481900  1
  Nb  Nb3  1  0.48437600  0.82786400  0.16527600  1
  Nb  Nb4  1  0.01620300  0.82918300  0.83440800  1
  Nb  Nb5  1  0.51622800  0.17118800  0.83448200  1
  Nb  Nb6  1  0.98993100  0.66867500  0.33527300  1
  Nb  Nb7  1  0.48977800  0.33081300  0.33503100  1
  Fe  Fe0  1  0.75038700  0.14293400  0.50012300  1
  Fe  Fe1  1  0.24758100  0.34996100  0.99992000  1
  Fe  Fe2  1  0.24900100  0.85732100  0.49985200  1
  Fe  Fe3  1  0.74789900  0.65006200  0.99989500  1
  O  O0  1  0.79598100  0.90762500  0.10220800  1
  O  O1  1  0.09182000  0.60908400  0.91764800  1
  O  O2  1  0.09105100  0.11401200  0.58166300  1
  O  O3  1  0.40919200  0.11279000  0.41849200  1
  O  O4  1  0.16104900  0.85785300  0.24141300  1
  O  O5  1  0.90875500  0.88645500  0.41845100  1
  O  O6  1  0.20452500  0.09361900  0.89849200  1
  O  O7  1  0.33721100  0.35959100  0.74097500  1
  O  O8  1  0.33959700  0.85868100  0.75880700  1
  O  O9  1  0.40826500  0.60716600  0.08183000  1
  O  O10  1  0.70451200  0.90663800  0.89844900  1
  O  O11  1  0.80625100  0.40161000  0.39849700  1
  O  O12  1  0.16303000  0.35873000  0.25887500  1
  O  O13  1  0.29599600  0.09169800  0.10221500  1
  O  O14  1  0.19385300  0.59879400  0.60146500  1
  O  O15  1  0.59199300  0.39094400  0.91767500  1
  O  O16  1  0.30640000  0.59706100  0.39820200  1
  O  O17  1  0.83720800  0.64133300  0.74103800  1
  O  O18  1  0.83960900  0.14185900  0.75872400  1
  O  O19  1  0.59064300  0.88709400  0.58158600  1
  O  O20  1  0.90813300  0.39228700  0.08182000  1
  O  O21  1  0.66112500  0.14159000  0.24132200  1
  O  O22  1  0.66294200  0.64042000  0.25899500  1
  O  O23  1  0.69370900  0.40279100  0.60174600  1
loop_
_geom_bond_atom_site_label_1
_geom_bond_atom_site_label_2
_geom_bond_distance
_geom_bond_site_symmetry_2
Nb0 O20 1.836636 1_555
Nb0 O13 1.973339 1_655
Nb0 O12 2.009226 1_655
Nb0 O0 2.063751 1_545
Nb0 O21 2.079033 1_555
Nb0 O4 2.346938 1_645
Nb1 O19 1.832607 1_555
Nb1 O14 1.975385 1_555
Nb1 O8 2.012525 1_555
Nb1 O23 2.067281 1_555
Nb1 O17 2.079100 1_555
Nb1 O7 2.326246 1_555
Nb2 O2 1.831864 1_555
Nb2 O23 1.973167 1_455
Nb2 O18 2.010993 1_455
Nb2 O14 2.070257 1_555
Nb2 O7 2.080745 1_555
Nb2 O17 2.331203 1_455
Nb3 O9 1.836910 1_555
Nb3 O0 1.971985 1_555
Nb3 O22 2.011042 1_555
Nb3 O13 2.061655 1_565
Nb3 O4 2.080876 1_555
Nb3 O21 2.348664 1_565
Nb4 O1 1.830087 1_555
Nb4 O10 1.977299 1_455
Nb4 O17 2.010977 1_455
Nb4 O6 2.071907 1_565
Nb4 O8 2.076126 1_555
Nb4 O18 2.339732 1_465
Nb5 O15 1.830093 1_555
Nb5 O6 1.976333 1_555
Nb5 O7 2.013020 1_555
Nb5 O10 2.070689 1_545
Nb5 O18 2.077661 1_555
Nb5 O8 2.340201 1_545
Nb6 O5 1.832981 1_555
Nb6 O16 1.971162 1_655
Nb6 O4 2.008519 1_655
Nb6 O11 2.070610 1_555
Nb6 O22 2.083447 1_555
Nb6 O12 2.333793 1_655
Nb7 O3 1.833733 1_555
Nb7 O11 1.974035 1_555
Nb7 O21 2.010011 1_555
Nb7 O16 2.068394 1_555
Nb7 O12 2.081180 1_555
Nb7 O22 2.326862 1_555
Fe0 O19 2.108397 1_545
Fe0 O5 2.112570 1_545
Fe0 O11 2.162136 1_555
Fe0 O23 2.170250 1_555
Fe0 O2 2.187220 1_655
Fe0 O3 2.190932 1_555
Fe1 O1 2.114100 1_555
Fe1 O9 2.114733 1_556
Fe1 O6 2.141961 1_555
Fe1 O13 2.159754 1_556
Fe1 O20 2.207284 1_456
Fe1 O15 2.230635 1_555
Fe2 O3 2.106950 1_565
Fe2 O2 2.113756 1_565
Fe2 O14 2.160852 1_555
Fe2 O16 2.172737 1_555
Fe2 O5 2.184326 1_455
Fe2 O19 2.193579 1_555
Fe3 O20 2.114922 1_556
Fe3 O15 2.115305 1_555
Fe3 O10 2.140995 1_555
Fe3 O0 2.159184 1_556
Fe3 O9 2.208215 1_556
Fe3 O1 2.229014 1_655
