# generated using pymatgen
data_Ca3Ge3(BiO6)2
_symmetry_space_group_name_H-M   'P 1'
_cell_length_a   11.37363980
_cell_length_b   11.37363980
_cell_length_c   11.37363980
_cell_angle_alpha   109.47122063
_cell_angle_beta   109.47122063
_cell_angle_gamma   109.47122063
_symmetry_Int_Tables_number   1
_chemical_formula_structural   Ca3Ge3(BiO6)2
_chemical_formula_sum   'Ca12 Ge12 Bi8 O48'
_cell_volume   1132.59990185
_cell_formula_units_Z   4
loop_
 _symmetry_equiv_pos_site_id
 _symmetry_equiv_pos_as_xyz
  1  'x, y, z'
loop_
 _atom_site_type_symbol
 _atom_site_label
 _atom_site_symmetry_multiplicity
 _atom_site_fract_x
 _atom_site_fract_y
 _atom_site_fract_z
 _atom_site_occupancy
  Ca  Ca0  1  0.25000000  0.87500000  0.62500000  1
  Ca  Ca1  1  0.75000000  0.62500000  0.87500000  1
  Ca  Ca2  1  0.62500000  0.87500000  0.75000000  1
  Ca  Ca3  1  0.87500000  0.62500000  0.25000000  1
  Ca  Ca4  1  0.62500000  0.25000000  0.87500000  1
  Ca  Ca5  1  0.87500000  0.75000000  0.62500000  1
  Ca  Ca6  1  0.75000000  0.12500000  0.37500000  1
  Ca  Ca7  1  0.25000000  0.37500000  0.12500000  1
  Ca  Ca8  1  0.37500000  0.12500000  0.25000000  1
  Ca  Ca9  1  0.12500000  0.37500000  0.75000000  1
  Ca  Ca10  1  0.37500000  0.75000000  0.12500000  1
  Ca  Ca11  1  0.12500000  0.25000000  0.37500000  1
  Ge  Ge0  1  0.12500000  0.75000000  0.87500000  1
  Ge  Ge1  1  0.87500000  0.25000000  0.12500000  1
  Ge  Ge2  1  0.62500000  0.37500000  0.25000000  1
  Ge  Ge3  1  0.75000000  0.87500000  0.12500000  1
  Ge  Ge4  1  0.87500000  0.12500000  0.75000000  1
  Ge  Ge5  1  0.25000000  0.62500000  0.37500000  1
  Ge  Ge6  1  0.75000000  0.37500000  0.62500000  1
  Ge  Ge7  1  0.25000000  0.12500000  0.87500000  1
  Ge  Ge8  1  0.12500000  0.87500000  0.25000000  1
  Ge  Ge9  1  0.37500000  0.62500000  0.75000000  1
  Ge  Ge10  1  0.62500000  0.75000000  0.37500000  1
  Ge  Ge11  1  0.37500000  0.25000000  0.62500000  1
  Bi  Bi0  1  0.50000000  0.50000000  0.50000000  1
  Bi  Bi1  1  0.50000000  0.00000000  0.50000000  1
  Bi  Bi2  1  0.00000000  0.50000000  0.50000000  1
  Bi  Bi3  1  0.50000000  0.50000000  0.00000000  1
  Bi  Bi4  1  0.00000000  0.00000000  0.50000000  1
  Bi  Bi5  1  0.00000000  0.50000000  0.00000000  1
  Bi  Bi6  1  0.50000000  0.00000000  0.00000000  1
  Bi  Bi7  1  0.00000000  0.00000000  0.00000000  1
  O  O0  1  0.40600900  0.79941100  0.77635100  1
  O  O1  1  0.87034300  0.39340300  0.09399100  1
  O  O2  1  0.10659700  0.97694000  0.70058900  1
  O  O3  1  0.52306000  0.62965700  0.72364900  1
  O  O4  1  0.70058900  0.09399100  0.72364900  1
  O  O5  1  0.62965700  0.72364900  0.52306000  1
  O  O6  1  0.62965700  0.40600900  0.10659700  1
  O  O7  1  0.72364900  0.52306000  0.62965700  1
  O  O8  1  0.79941100  0.52306000  0.39340300  1
  O  O9  1  0.97694000  0.77635100  0.87034300  1
  O  O10  1  0.77635100  0.87034300  0.97694000  1
  O  O11  1  0.72364900  0.70058900  0.09399100  1
  O  O12  1  0.40600900  0.10659700  0.62965700  1
  O  O13  1  0.39340300  0.79941100  0.52306000  1
  O  O14  1  0.09399100  0.72364900  0.70058900  1
  O  O15  1  0.10659700  0.62965700  0.40600900  1
  O  O16  1  0.52306000  0.39340300  0.79941100  1
  O  O17  1  0.09399100  0.87034300  0.39340300  1
  O  O18  1  0.97694000  0.70058900  0.10659700  1
  O  O19  1  0.20058900  0.47694000  0.60659700  1
  O  O20  1  0.70058900  0.10659700  0.97694000  1
  O  O21  1  0.77635100  0.40600900  0.79941100  1
  O  O22  1  0.39340300  0.09399100  0.87034300  1
  O  O23  1  0.87034300  0.97694000  0.77635100  1
  O  O24  1  0.59399100  0.20058900  0.22364900  1
  O  O25  1  0.12965700  0.60659700  0.90600900  1
  O  O26  1  0.89340300  0.02306000  0.29941100  1
  O  O27  1  0.47694000  0.37034300  0.27635100  1
  O  O28  1  0.29941100  0.90600900  0.27635100  1
  O  O29  1  0.37034300  0.27635100  0.47694000  1
  O  O30  1  0.37034300  0.59399100  0.89340300  1
  O  O31  1  0.27635100  0.47694000  0.37034300  1
  O  O32  1  0.12965700  0.02306000  0.22364900  1
  O  O33  1  0.60659700  0.90600900  0.12965700  1
  O  O34  1  0.22364900  0.59399100  0.20058900  1
  O  O35  1  0.20058900  0.22364900  0.59399100  1
  O  O36  1  0.29941100  0.89340300  0.02306000  1
  O  O37  1  0.02306000  0.29941100  0.89340300  1
  O  O38  1  0.90600900  0.12965700  0.60659700  1
  O  O39  1  0.47694000  0.60659700  0.20058900  1
  O  O40  1  0.89340300  0.37034300  0.59399100  1
  O  O41  1  0.90600900  0.27635100  0.29941100  1
  O  O42  1  0.60659700  0.20058900  0.47694000  1
  O  O43  1  0.59399100  0.89340300  0.37034300  1
  O  O44  1  0.27635100  0.29941100  0.90600900  1
  O  O45  1  0.22364900  0.12965700  0.02306000  1
  O  O46  1  0.02306000  0.22364900  0.12965700  1
  O  O47  1  0.79941100  0.77635100  0.40600900  1
loop_
_geom_bond_atom_site_label_1
_geom_bond_atom_site_label_2
_geom_bond_distance
_geom_bond_site_symmetry_2
Ca0 O22 2.504908 1_565
Ca0 O15 2.504908 1_555
Ca0 O2 2.504913 1_555
Ca0 O13 2.504913 1_555
Ca0 O17 2.611156 1_555
Ca0 O12 2.611156 1_565
Ca0 O14 2.611159 1_555
Ca0 O0 2.611159 1_555
Ca1 O11 2.504902 1_556
Ca1 O21 2.504902 1_555
Ca1 O7 2.504913 1_555
Ca1 O10 2.504913 1_555
Ca1 O16 2.611152 1_555
Ca1 O9 2.611152 1_555
Ca1 O3 2.611152 1_555
Ca1 O18 2.611152 1_556
Ca2 O4 2.504902 1_565
Ca2 O0 2.504902 1_555
Ca2 O3 2.504913 1_555
Ca2 O23 2.504913 1_555
Ca2 O13 2.611152 1_555
Ca2 O20 2.611152 1_565
Ca2 O10 2.611152 1_555
Ca2 O5 2.611152 1_555
Ca3 O17 2.504908 1_655
Ca3 O6 2.504908 1_555
Ca3 O8 2.504913 1_555
Ca3 O18 2.504913 1_555
Ca3 O1 2.611156 1_555
Ca3 O15 2.611156 1_655
Ca3 O11 2.611159 1_555
Ca3 O47 2.611159 1_555
Ca4 O1 2.504908 1_556
Ca4 O12 2.504908 1_555
Ca4 O20 2.504913 1_555
Ca4 O16 2.504913 1_555
Ca4 O22 2.611156 1_555
Ca4 O6 2.611156 1_556
Ca4 O4 2.611159 1_555
Ca4 O21 2.611159 1_555
Ca5 O14 2.504902 1_655
Ca5 O47 2.504902 1_555
Ca5 O9 2.504913 1_555
Ca5 O5 2.504913 1_555
Ca5 O8 2.611152 1_555
Ca5 O2 2.611152 1_655
Ca5 O23 2.611152 1_555
Ca5 O7 2.611152 1_555
Ca6 O33 2.504908 1_545
Ca6 O40 2.504908 1_555
Ca6 O42 2.504913 1_555
Ca6 O26 2.504913 1_555
Ca6 O43 2.611156 1_545
Ca6 O38 2.611156 1_555
Ca6 O24 2.611159 1_555
Ca6 O41 2.611159 1_555
Ca7 O44 2.504902 1_554
Ca7 O34 2.504902 1_555
Ca7 O31 2.504913 1_555
Ca7 O45 2.504913 1_555
Ca7 O27 2.611152 1_555
Ca7 O39 2.611152 1_555
Ca7 O37 2.611152 1_554
Ca7 O46 2.611152 1_555
Ca8 O24 2.504902 1_555
Ca8 O28 2.504902 1_545
Ca8 O27 2.504913 1_555
Ca8 O32 2.504913 1_555
Ca8 O45 2.611152 1_555
Ca8 O29 2.611152 1_555
Ca8 O36 2.611152 1_545
Ca8 O42 2.611152 1_555
Ca9 O30 2.504908 1_555
Ca9 O38 2.504908 1_455
Ca9 O19 2.504913 1_555
Ca9 O37 2.504913 1_555
Ca9 O25 2.611156 1_555
Ca9 O40 2.611156 1_455
Ca9 O35 2.611159 1_555
Ca9 O44 2.611159 1_555
Ca10 O43 2.504908 1_555
Ca10 O25 2.504908 1_554
Ca10 O39 2.504913 1_555
Ca10 O36 2.504913 1_555
Ca10 O30 2.611156 1_554
Ca10 O33 2.611156 1_555
Ca10 O34 2.611159 1_555
Ca10 O28 2.611159 1_555
Ca11 O41 2.504902 1_455
Ca11 O35 2.504902 1_555
Ca11 O29 2.504913 1_555
Ca11 O46 2.504913 1_555
Ca11 O31 2.611152 1_555
Ca11 O32 2.611152 1_555
Ca11 O26 2.611152 1_455
Ca11 O19 2.611152 1_555
Ge0 O14 1.793321 1_555
Ge0 O9 1.793323 1_455
Ge0 O36 1.793323 1_556
Ge0 O25 1.793329 1_555
Ge1 O41 1.793321 1_555
Ge1 O20 1.793323 1_554
Ge1 O46 1.793323 1_655
Ge1 O1 1.793329 1_555
Ge2 O24 1.793321 1_555
Ge2 O8 1.793323 1_555
Ge2 O27 1.793323 1_555
Ge2 O6 1.793329 1_555
Ge3 O11 1.793321 1_555
Ge3 O10 1.793323 1_554
Ge3 O26 1.793323 1_565
Ge3 O33 1.793329 1_555
Ge4 O4 1.793321 1_555
Ge4 O37 1.793323 1_655
Ge4 O23 1.793323 1_545
Ge4 O38 1.793329 1_555
Ge5 O34 1.793321 1_555
Ge5 O13 1.793323 1_555
Ge5 O31 1.793323 1_555
Ge5 O15 1.793329 1_555
Ge6 O21 1.793321 1_555
Ge6 O7 1.793323 1_555
Ge6 O42 1.793323 1_555
Ge6 O40 1.793329 1_555
Ge7 O44 1.793321 1_555
Ge7 O2 1.793323 1_545
Ge7 O45 1.793323 1_556
Ge7 O22 1.793329 1_555
Ge8 O28 1.793321 1_555
Ge8 O18 1.793323 1_455
Ge8 O32 1.793323 1_565
Ge8 O17 1.793329 1_555
Ge9 O0 1.793321 1_555
Ge9 O3 1.793323 1_555
Ge9 O19 1.793323 1_555
Ge9 O30 1.793329 1_555
Ge10 O47 1.793321 1_555
Ge10 O5 1.793323 1_555
Ge10 O39 1.793323 1_555
Ge10 O43 1.793329 1_555
Ge11 O35 1.793321 1_555
Ge11 O16 1.793323 1_555
Ge11 O29 1.793323 1_555
Ge11 O12 1.793329 1_555
Bi0 O27 2.347446 1_555
Bi0 O31 2.347446 1_555
Bi0 O3 2.347446 1_555
Bi0 O7 2.347446 1_555
Bi0 O29 2.347446 1_555
Bi0 O5 2.347446 1_555
Bi1 O12 2.347437 1_555
Bi1 O43 2.347437 1_545
Bi1 O42 2.347446 1_555
Bi1 O13 2.347446 1_545
Bi1 O4 2.347449 1_555
Bi1 O28 2.347449 1_545
Bi2 O15 2.347437 1_555
Bi2 O40 2.347437 1_455
Bi2 O8 2.347446 1_455
Bi2 O19 2.347446 1_555
Bi2 O14 2.347449 1_555
Bi2 O41 2.347449 1_455
Bi3 O6 2.347437 1_555
Bi3 O30 2.347437 1_554
Bi3 O16 2.347446 1_554
Bi3 O39 2.347446 1_555
Bi3 O44 2.347449 1_554
Bi3 O11 2.347449 1_555
Bi4 O17 2.347437 1_545
Bi4 O38 2.347437 1_455
Bi4 O2 2.347446 1_545
Bi4 O26 2.347446 1_455
Bi4 O35 2.347449 1_555
Bi4 O47 2.347449 1_445
Bi5 O1 2.347437 1_455
Bi5 O25 2.347437 1_554
Bi5 O18 2.347446 1_455
Bi5 O37 2.347446 1_554
Bi5 O34 2.347449 1_555
Bi5 O21 2.347449 1_454
Bi6 O22 2.347437 1_554
Bi6 O33 2.347437 1_545
Bi6 O20 2.347446 1_554
Bi6 O36 2.347446 1_545
Bi6 O24 2.347449 1_555
Bi6 O0 2.347449 1_544
Bi7 O46 2.347446 1_555
Bi7 O32 2.347446 1_555
Bi7 O45 2.347446 1_555
Bi7 O10 2.347446 1_444
Bi7 O9 2.347446 1_444
Bi7 O23 2.347446 1_444
