# generated using pymatgen
data_CaMg5
_symmetry_space_group_name_H-M   'P 1'
_cell_length_a   13.13060785
_cell_length_b   13.13060785
_cell_length_c   15.15974089
_cell_angle_alpha   76.20923055
_cell_angle_beta   76.20923055
_cell_angle_gamma   29.17220755
_symmetry_Int_Tables_number   1
_chemical_formula_structural   CaMg5
_chemical_formula_sum   'Ca8 Mg40'
_cell_volume   1234.77538998
_cell_formula_units_Z   8
loop_
 _symmetry_equiv_pos_site_id
 _symmetry_equiv_pos_as_xyz
  1  'x, y, z'
loop_
 _atom_site_type_symbol
 _atom_site_label
 _atom_site_symmetry_multiplicity
 _atom_site_fract_x
 _atom_site_fract_y
 _atom_site_fract_z
 _atom_site_occupancy
  Ca  Ca0_0  1  0.30667000  0.30667000  0.13615100  1
  Ca  Ca0_1  1  0.30667000  0.30667000  0.63615100  1
  Ca  Ca0_2  1  0.30667000  0.80667000  0.13615100  1
  Ca  Ca0_3  1  0.30667000  0.80667000  0.63615100  1
  Ca  Ca0_4  1  0.80667000  0.30667000  0.13615100  1
  Ca  Ca0_5  1  0.80667000  0.30667000  0.63615100  1
  Ca  Ca0_6  1  0.80667000  0.80667000  0.13615100  1
  Ca  Ca0_7  1  0.80667000  0.80667000  0.63615100  1
  Mg  Mg0_0  1  0.49621700  0.49621700  0.49546600  1
  Mg  Mg0_1  1  0.49621700  0.49621700  0.99546600  1
  Mg  Mg0_2  1  0.49621700  0.99621700  0.49546600  1
  Mg  Mg0_3  1  0.49621700  0.99621700  0.99546600  1
  Mg  Mg0_4  1  0.99621700  0.49621700  0.49546600  1
  Mg  Mg0_5  1  0.99621700  0.49621700  0.99546600  1
  Mg  Mg0_6  1  0.99621700  0.99621700  0.49546600  1
  Mg  Mg0_7  1  0.99621700  0.99621700  0.99546600  1
  Mg  Mg1_0  1  0.16901400  0.16901400  0.16903900  1
  Mg  Mg1_1  1  0.16901400  0.16901400  0.66903900  1
  Mg  Mg1_2  1  0.16901400  0.66901400  0.16903900  1
  Mg  Mg1_3  1  0.16901400  0.66901400  0.66903900  1
  Mg  Mg1_4  1  0.66901400  0.16901400  0.16903900  1
  Mg  Mg1_5  1  0.66901400  0.16901400  0.66903900  1
  Mg  Mg1_6  1  0.66901400  0.66901400  0.16903900  1
  Mg  Mg1_7  1  0.66901400  0.66901400  0.66903900  1
  Mg  Mg2_0  1  0.46841300  0.46841300  0.30945450  1
  Mg  Mg2_1  1  0.46841300  0.46841300  0.80945450  1
  Mg  Mg2_2  1  0.46841300  0.96841300  0.30945450  1
  Mg  Mg2_3  1  0.46841300  0.96841300  0.80945450  1
  Mg  Mg2_4  1  0.96841300  0.46841300  0.30945450  1
  Mg  Mg2_5  1  0.96841300  0.46841300  0.80945450  1
  Mg  Mg2_6  1  0.96841300  0.96841300  0.30945450  1
  Mg  Mg2_7  1  0.96841300  0.96841300  0.80945450  1
  Mg  Mg3_0  1  0.33335550  0.33335550  0.33896900  1
  Mg  Mg3_1  1  0.33335550  0.33335550  0.83896900  1
  Mg  Mg3_2  1  0.33335550  0.83335550  0.33896900  1
  Mg  Mg3_3  1  0.33335550  0.83335550  0.83896900  1
  Mg  Mg3_4  1  0.83335550  0.33335550  0.33896900  1
  Mg  Mg3_5  1  0.83335550  0.33335550  0.83896900  1
  Mg  Mg3_6  1  0.83335550  0.83335550  0.33896900  1
  Mg  Mg3_7  1  0.83335550  0.83335550  0.83896900  1
  Mg  Mg4_0  1  0.14299700  0.14299700  0.46758700  1
  Mg  Mg4_1  1  0.14299700  0.14299700  0.96758700  1
  Mg  Mg4_2  1  0.14299700  0.64299700  0.46758700  1
  Mg  Mg4_3  1  0.14299700  0.64299700  0.96758700  1
  Mg  Mg4_4  1  0.64299700  0.14299700  0.46758700  1
  Mg  Mg4_5  1  0.64299700  0.14299700  0.96758700  1
  Mg  Mg4_6  1  0.64299700  0.64299700  0.46758700  1
  Mg  Mg4_7  1  0.64299700  0.64299700  0.96758700  1
loop_
_geom_bond_atom_site_label_1
_geom_bond_atom_site_label_2
_geom_bond_distance
_geom_bond_site_symmetry_2
Ca0_0 Ca0_6 3.306742 1_545
Ca0_0 Ca0_6 3.306742 1_455
Ca0_0 Mg3_0 3.307690 1_555
Ca0_0 Mg0_5 3.355148 1_454
Ca0_0 Mg0_3 3.355148 1_544
Ca0_0 Mg4_3 3.363819 1_554
Ca0_0 Mg4_5 3.363819 1_554
Ca0_0 Mg1_0 3.410106 1_555
Ca0_0 Mg2_2 3.429890 1_545
Ca0_0 Mg2_4 3.429890 1_455
Ca0_0 Mg1_2 3.440301 1_555
Ca0_0 Mg1_4 3.440301 1_555
Ca0_1 Ca0_7 3.306742 1_545
Ca0_1 Ca0_7 3.306742 1_455
Ca0_1 Mg3_1 3.307690 1_555
Ca0_1 Mg0_4 3.355148 1_455
Ca0_1 Mg0_2 3.355148 1_545
Ca0_1 Mg4_4 3.363819 1_555
Ca0_1 Mg4_2 3.363819 1_555
Ca0_1 Mg1_1 3.410106 1_555
Ca0_1 Mg2_3 3.429890 1_545
Ca0_1 Mg2_5 3.429890 1_455
Ca0_1 Mg1_5 3.440301 1_555
Ca0_1 Mg1_3 3.440301 1_555
Ca0_2 Ca0_4 3.306742 1_555
Ca0_2 Ca0_4 3.306742 1_465
Ca0_2 Mg3_2 3.307690 1_555
Ca0_2 Mg0_1 3.355148 1_554
Ca0_2 Mg0_7 3.355148 1_454
Ca0_2 Mg4_1 3.363819 1_564
Ca0_2 Mg4_7 3.363819 1_554
Ca0_2 Mg1_2 3.410106 1_555
Ca0_2 Mg2_6 3.429890 1_455
Ca0_2 Mg2_0 3.429890 1_555
Ca0_2 Mg1_0 3.440301 1_565
Ca0_2 Mg1_6 3.440301 1_555
Ca0_3 Ca0_5 3.306742 1_465
Ca0_3 Ca0_5 3.306742 1_555
Ca0_3 Mg3_3 3.307690 1_555
Ca0_3 Mg0_6 3.355148 1_455
Ca0_3 Mg0_0 3.355148 1_555
Ca0_3 Mg4_0 3.363819 1_565
Ca0_3 Mg4_6 3.363819 1_555
Ca0_3 Mg1_3 3.410106 1_555
Ca0_3 Mg2_1 3.429890 1_555
Ca0_3 Mg2_7 3.429890 1_455
Ca0_3 Mg1_1 3.440301 1_565
Ca0_3 Mg1_7 3.440301 1_555
Ca0_4 Mg3_4 3.307690 1_555
Ca0_4 Mg0_1 3.355148 1_554
Ca0_4 Mg0_7 3.355148 1_544
Ca0_4 Mg4_1 3.363819 1_654
Ca0_4 Mg4_7 3.363819 1_554
Ca0_4 Mg1_4 3.410106 1_555
Ca0_4 Mg2_6 3.429890 1_545
Ca0_4 Mg2_0 3.429890 1_555
Ca0_4 Mg1_6 3.440301 1_555
Ca0_4 Mg1_0 3.440301 1_655
Ca0_5 Mg3_5 3.307690 1_555
Ca0_5 Mg0_6 3.355148 1_545
Ca0_5 Mg0_0 3.355148 1_555
Ca0_5 Mg4_0 3.363819 1_655
Ca0_5 Mg4_6 3.363819 1_555
Ca0_5 Mg1_5 3.410106 1_555
Ca0_5 Mg2_1 3.429890 1_555
Ca0_5 Mg2_7 3.429890 1_545
Ca0_5 Mg1_7 3.440301 1_555
Ca0_5 Mg1_1 3.440301 1_655
Ca0_6 Mg3_6 3.307690 1_555
Ca0_6 Mg0_5 3.355148 1_554
Ca0_6 Mg0_3 3.355148 1_554
Ca0_6 Mg4_3 3.363819 1_654
Ca0_6 Mg4_5 3.363819 1_564
Ca0_6 Mg1_6 3.410106 1_555
Ca0_6 Mg2_4 3.429890 1_555
Ca0_6 Mg2_2 3.429890 1_555
Ca0_6 Mg1_4 3.440301 1_565
Ca0_6 Mg1_2 3.440301 1_655
Ca0_7 Mg3_7 3.307690 1_555
Ca0_7 Mg0_4 3.355148 1_555
Ca0_7 Mg0_2 3.355148 1_555
Ca0_7 Mg4_4 3.363819 1_565
Ca0_7 Mg4_2 3.363819 1_655
Ca0_7 Mg1_7 3.410106 1_555
Ca0_7 Mg2_5 3.429890 1_555
Ca0_7 Mg2_3 3.429890 1_555
Ca0_7 Mg1_5 3.440301 1_565
Ca0_7 Mg1_3 3.440301 1_655
Mg0_0 Mg2_0 3.071273 1_555
Mg0_0 Mg4_2 3.215625 1_555
Mg0_0 Mg4_4 3.215625 1_555
Mg0_0 Mg3_4 3.267775 1_555
Mg0_0 Mg3_2 3.267775 1_555
Mg0_0 Mg0_6 3.306742 1_455
Mg0_0 Mg0_6 3.306742 1_545
Mg0_0 Mg1_3 3.311180 1_555
Mg0_0 Mg1_5 3.311180 1_555
Mg0_1 Mg2_1 3.071273 1_555
Mg0_1 Mg4_3 3.215625 1_555
Mg0_1 Mg4_5 3.215625 1_555
Mg0_1 Mg3_5 3.267775 1_555
Mg0_1 Mg3_3 3.267775 1_555
Mg0_1 Mg0_7 3.306742 1_455
Mg0_1 Mg0_7 3.306742 1_545
Mg0_1 Mg1_2 3.311180 1_556
Mg0_1 Mg1_4 3.311180 1_556
Mg0_2 Mg2_2 3.071273 1_555
Mg0_2 Mg4_6 3.215625 1_555
Mg0_2 Mg4_0 3.215625 1_565
Mg0_2 Mg3_6 3.267775 1_555
Mg0_2 Mg3_0 3.267775 1_565
Mg0_2 Mg0_4 3.306742 1_465
Mg0_2 Mg0_4 3.306742 1_555
Mg0_2 Mg1_1 3.311180 1_565
Mg0_2 Mg1_7 3.311180 1_555
Mg0_3 Mg2_3 3.071273 1_555
Mg0_3 Mg4_7 3.215625 1_555
Mg0_3 Mg4_1 3.215625 1_565
Mg0_3 Mg3_7 3.267775 1_555
Mg0_3 Mg3_1 3.267775 1_565
Mg0_3 Mg0_5 3.306742 1_555
Mg0_3 Mg0_5 3.306742 1_465
Mg0_3 Mg1_0 3.311180 1_566
Mg0_3 Mg1_6 3.311180 1_556
Mg0_4 Mg2_4 3.071273 1_555
Mg0_4 Mg4_6 3.215625 1_555
Mg0_4 Mg4_0 3.215625 1_655
Mg0_4 Mg3_6 3.267775 1_555
Mg0_4 Mg3_0 3.267775 1_655
Mg0_4 Mg1_7 3.311180 1_555
Mg0_4 Mg1_1 3.311180 1_655
Mg0_5 Mg2_5 3.071273 1_555
Mg0_5 Mg4_7 3.215625 1_555
Mg0_5 Mg4_1 3.215625 1_655
Mg0_5 Mg3_1 3.267775 1_655
Mg0_5 Mg3_7 3.267775 1_555
Mg0_5 Mg1_6 3.311180 1_556
Mg0_5 Mg1_0 3.311180 1_656
Mg0_6 Mg2_6 3.071273 1_555
Mg0_6 Mg4_4 3.215625 1_565
Mg0_6 Mg4_2 3.215625 1_655
Mg0_6 Mg3_2 3.267775 1_655
Mg0_6 Mg3_4 3.267775 1_565
Mg0_6 Mg1_5 3.311180 1_565
Mg0_6 Mg1_3 3.311180 1_655
Mg0_7 Mg2_7 3.071273 1_555
Mg0_7 Mg4_5 3.215625 1_565
Mg0_7 Mg4_3 3.215625 1_655
Mg0_7 Mg3_5 3.267775 1_565
Mg0_7 Mg3_3 3.267775 1_655
Mg0_7 Mg1_2 3.311180 1_656
Mg0_7 Mg1_4 3.311180 1_566
Mg1_0 Mg2_4 3.187095 1_455
Mg1_0 Mg2_2 3.187095 1_545
Mg1_0 Mg4_1 3.280041 1_554
Mg1_0 Mg1_6 3.306742 1_545
Mg1_0 Mg1_6 3.306742 1_455
Mg1_0 Mg3_2 3.368451 1_545
Mg1_0 Mg3_4 3.368451 1_455
Mg1_1 Mg2_5 3.187095 1_455
Mg1_1 Mg2_3 3.187095 1_545
Mg1_1 Mg4_0 3.280041 1_555
Mg1_1 Mg1_7 3.306742 1_545
Mg1_1 Mg1_7 3.306742 1_455
Mg1_1 Mg3_3 3.368451 1_545
Mg1_1 Mg3_5 3.368451 1_455
Mg1_2 Mg2_0 3.187095 1_555
Mg1_2 Mg2_6 3.187095 1_455
Mg1_2 Mg4_3 3.280041 1_554
Mg1_2 Mg1_4 3.306742 1_465
Mg1_2 Mg1_4 3.306742 1_555
Mg1_2 Mg3_0 3.368451 1_555
Mg1_2 Mg3_6 3.368451 1_455
Mg1_3 Mg2_7 3.187095 1_455
Mg1_3 Mg2_1 3.187095 1_555
Mg1_3 Mg4_2 3.280041 1_555
Mg1_3 Mg1_5 3.306742 1_555
Mg1_3 Mg1_5 3.306742 1_465
Mg1_3 Mg3_7 3.368451 1_455
Mg1_3 Mg3_1 3.368451 1_555
Mg1_4 Mg2_0 3.187095 1_555
Mg1_4 Mg2_6 3.187095 1_545
Mg1_4 Mg4_5 3.280041 1_554
Mg1_4 Mg3_6 3.368451 1_545
Mg1_4 Mg3_0 3.368451 1_555
Mg1_5 Mg2_7 3.187095 1_545
Mg1_5 Mg2_1 3.187095 1_555
Mg1_5 Mg4_4 3.280041 1_555
Mg1_5 Mg3_7 3.368451 1_545
Mg1_5 Mg3_1 3.368451 1_555
Mg1_6 Mg2_2 3.187095 1_555
Mg1_6 Mg2_4 3.187095 1_555
Mg1_6 Mg4_7 3.280041 1_554
Mg1_6 Mg3_2 3.368451 1_555
Mg1_6 Mg3_4 3.368451 1_555
Mg1_7 Mg2_5 3.187095 1_555
Mg1_7 Mg2_3 3.187095 1_555
Mg1_7 Mg4_6 3.280041 1_555
Mg1_7 Mg3_3 3.368451 1_555
Mg1_7 Mg3_5 3.368451 1_555
Mg2_0 Mg4_4 3.144930 1_555
Mg2_0 Mg4_2 3.144930 1_555
Mg2_0 Mg2_6 3.306742 1_545
Mg2_0 Mg2_6 3.306742 1_455
Mg2_0 Mg3_0 3.350435 1_555
Mg2_0 Mg3_4 3.480143 1_555
Mg2_0 Mg3_2 3.480143 1_555
Mg2_1 Mg4_5 3.144930 1_555
Mg2_1 Mg4_3 3.144930 1_555
Mg2_1 Mg2_7 3.306742 1_545
Mg2_1 Mg2_7 3.306742 1_455
Mg2_1 Mg3_1 3.350435 1_555
Mg2_1 Mg3_5 3.480143 1_555
Mg2_1 Mg3_3 3.480143 1_555
Mg2_2 Mg4_6 3.144930 1_555
Mg2_2 Mg4_0 3.144930 1_565
Mg2_2 Mg2_4 3.306742 1_465
Mg2_2 Mg2_4 3.306742 1_555
Mg2_2 Mg3_2 3.350435 1_555
Mg2_2 Mg3_6 3.480143 1_555
Mg2_2 Mg3_0 3.480143 1_565
Mg2_3 Mg4_1 3.144930 1_565
Mg2_3 Mg4_7 3.144930 1_555
Mg2_3 Mg2_5 3.306742 1_555
Mg2_3 Mg2_5 3.306742 1_465
Mg2_3 Mg3_3 3.350435 1_555
Mg2_3 Mg3_7 3.480143 1_555
Mg2_3 Mg3_1 3.480143 1_565
Mg2_4 Mg4_6 3.144930 1_555
Mg2_4 Mg4_0 3.144930 1_655
Mg2_4 Mg3_4 3.350435 1_555
Mg2_4 Mg3_6 3.480143 1_555
Mg2_4 Mg3_0 3.480143 1_655
Mg2_5 Mg4_1 3.144930 1_655
Mg2_5 Mg4_7 3.144930 1_555
Mg2_5 Mg3_5 3.350435 1_555
Mg2_5 Mg3_7 3.480143 1_555
Mg2_5 Mg3_1 3.480143 1_655
Mg2_6 Mg4_2 3.144930 1_655
Mg2_6 Mg4_4 3.144930 1_565
Mg2_6 Mg3_6 3.350435 1_555
Mg2_6 Mg3_2 3.480143 1_655
Mg2_6 Mg3_4 3.480143 1_565
Mg2_7 Mg4_5 3.144930 1_565
Mg2_7 Mg4_3 3.144930 1_655
Mg2_7 Mg3_7 3.350435 1_555
Mg2_7 Mg3_3 3.480143 1_655
Mg2_7 Mg3_5 3.480143 1_565
Mg3_0 Mg4_2 3.207642 1_555
Mg3_0 Mg4_4 3.207642 1_555
Mg3_0 Mg3_6 3.306742 1_545
Mg3_0 Mg3_6 3.306742 1_455
Mg3_1 Mg4_5 3.207642 1_555
Mg3_1 Mg4_3 3.207642 1_555
Mg3_1 Mg3_7 3.306742 1_545
Mg3_1 Mg3_7 3.306742 1_455
Mg3_2 Mg4_0 3.207642 1_565
Mg3_2 Mg4_6 3.207642 1_555
Mg3_2 Mg3_4 3.306742 1_465
Mg3_2 Mg3_4 3.306742 1_555
Mg3_3 Mg4_1 3.207642 1_565
Mg3_3 Mg4_7 3.207642 1_555
Mg3_3 Mg3_5 3.306742 1_465
Mg3_3 Mg3_5 3.306742 1_555
Mg3_4 Mg4_0 3.207642 1_655
Mg3_4 Mg4_6 3.207642 1_555
Mg3_5 Mg4_1 3.207642 1_655
Mg3_5 Mg4_7 3.207642 1_555
Mg3_6 Mg4_4 3.207642 1_565
Mg3_6 Mg4_2 3.207642 1_655
Mg3_7 Mg4_5 3.207642 1_565
Mg3_7 Mg4_3 3.207642 1_655
Mg4_0 Mg4_6 3.306742 1_455
Mg4_0 Mg4_6 3.306742 1_545
Mg4_1 Mg4_7 3.306742 1_545
Mg4_1 Mg4_7 3.306742 1_455
Mg4_2 Mg4_4 3.306742 1_555
Mg4_2 Mg4_4 3.306742 1_465
Mg4_3 Mg4_5 3.306742 1_555
Mg4_3 Mg4_5 3.306742 1_465
