# generated using pymatgen
data_In3Ag
_symmetry_space_group_name_H-M   'P 1'
_cell_length_a   6.56910491
_cell_length_b   6.56910491
_cell_length_c   5.32144200
_cell_angle_alpha   90.00000000
_cell_angle_beta   90.00000000
_cell_angle_gamma   120.00000921
_symmetry_Int_Tables_number   1
_chemical_formula_structural   In3Ag
_chemical_formula_sum   'In6 Ag2'
_cell_volume   198.87139511
_cell_formula_units_Z   2
loop_
 _symmetry_equiv_pos_site_id
 _symmetry_equiv_pos_as_xyz
  1  'x, y, z'
loop_
 _atom_site_type_symbol
 _atom_site_label
 _atom_site_symmetry_multiplicity
 _atom_site_fract_x
 _atom_site_fract_y
 _atom_site_fract_z
 _atom_site_occupancy
  In  In0  1  0.17149000  0.34298000  0.25000000  1
  In  In1  1  0.65702000  0.82851000  0.25000000  1
  In  In2  1  0.17149000  0.82851000  0.25000000  1
  In  In3  1  0.82851000  0.65702000  0.75000000  1
  In  In4  1  0.34298000  0.17149000  0.75000000  1
  In  In5  1  0.82851000  0.17149000  0.75000000  1
  Ag  Ag0  1  0.33333300  0.66666700  0.75000000  1
  Ag  Ag1  1  0.66666700  0.33333300  0.25000000  1
loop_
_geom_bond_atom_site_label_1
_geom_bond_atom_site_label_2
_geom_bond_distance
_geom_bond_site_symmetry_2
In0 In1 3.189497 1_555
In0 In2 3.189498 1_555
In0 In5 3.299498 1_455
In0 In5 3.299498 1_454
In0 In4 3.299498 1_554
In0 In4 3.299498 1_555
In0 In1 3.379607 1_445
In0 In2 3.379607 1_545
In1 In2 3.189498 1_555
In1 In5 3.299498 1_564
In1 In5 3.299498 1_565
In1 In3 3.299498 1_554
In1 In3 3.299498 1_555
In1 In2 3.379607 1_655
In2 In4 3.299498 1_565
In2 In4 3.299498 1_564
In2 In3 3.299498 1_455
In2 In3 3.299498 1_454
In3 In4 3.189497 1_555
In3 In5 3.189498 1_555
In3 In4 3.379607 1_665
In3 In5 3.379607 1_565
In4 In5 3.189498 1_555
In4 In5 3.379607 1_455
Ag0 In2 3.235798 1_556
Ag0 In2 3.235798 1_555
Ag0 In0 3.235801 1_556
Ag0 In0 3.235801 1_555
Ag0 In1 3.235801 1_556
Ag0 In1 3.235801 1_555
Ag0 In4 3.285008 1_565
Ag0 In3 3.285008 1_455
Ag0 In5 3.285010 1_455
Ag0 In5 3.285010 1_565
Ag0 In3 3.285014 1_555
Ag0 In4 3.285014 1_555
Ag1 In5 3.235798 1_555
Ag1 In5 3.235798 1_554
Ag1 In4 3.235801 1_555
Ag1 In3 3.235801 1_554
Ag1 In4 3.235801 1_554
Ag1 In3 3.235801 1_555
Ag1 In0 3.285008 1_655
Ag1 In1 3.285008 1_545
Ag1 In2 3.285010 1_655
Ag1 In2 3.285010 1_545
Ag1 In1 3.285014 1_555
Ag1 In0 3.285014 1_555
