# generated using pymatgen
data_KIO2
_symmetry_space_group_name_H-M   'P 1'
_cell_length_a   8.32201204
_cell_length_b   8.32201204
_cell_length_c   8.32201204
_cell_angle_alpha   132.00719325
_cell_angle_beta   132.00719325
_cell_angle_gamma   70.21766617
_symmetry_Int_Tables_number   1
_chemical_formula_structural   KIO2
_chemical_formula_sum   'K4 I4 O8'
_cell_volume   311.91399313
_cell_formula_units_Z   4
loop_
 _symmetry_equiv_pos_site_id
 _symmetry_equiv_pos_as_xyz
  1  'x, y, z'
loop_
 _atom_site_type_symbol
 _atom_site_label
 _atom_site_symmetry_multiplicity
 _atom_site_fract_x
 _atom_site_fract_y
 _atom_site_fract_z
 _atom_site_occupancy
  K  K0  1  0.87500000  0.62500000  0.25000000  1
  K  K1  1  0.37500000  0.62500000  0.75000000  1
  K  K2  1  0.37500000  0.62500000  0.25000000  1
  K  K3  1  0.37500000  0.12500000  0.75000000  1
  I  I0  1  0.37500000  0.12500000  0.25000000  1
  I  I1  1  0.87500000  0.12500000  0.75000000  1
  I  I2  1  0.87500000  0.12500000  0.25000000  1
  I  I3  1  0.87500000  0.62500000  0.75000000  1
  O  O0  1  0.16078900  0.36341200  0.20262300  1
  O  O1  1  0.16078900  0.95816600  0.79737700  1
  O  O2  1  0.11341200  0.41078900  0.70262300  1
  O  O3  1  0.58921100  0.88658800  0.29737700  1
  O  O4  1  0.70816600  0.41078900  0.29737700  1
  O  O5  1  0.58921100  0.29183400  0.70262300  1
  O  O6  1  0.63658800  0.83921100  0.79737700  1
  O  O7  1  0.04183400  0.83921100  0.20262300  1
loop_
_geom_bond_atom_site_label_1
_geom_bond_atom_site_label_2
_geom_bond_distance
_geom_bond_site_symmetry_2
K0 O1 2.674447 1_655
K0 O5 2.674447 1_554
K0 O3 2.674447 1_555
K0 O0 2.674447 1_655
K0 O7 2.934237 1_655
K0 O4 2.934237 1_555
K1 O5 2.674447 1_555
K1 O0 2.674447 1_555
K1 O1 2.674447 1_555
K1 O3 2.674447 1_556
K1 O6 2.934237 1_555
K1 O2 2.934237 1_555
K2 O2 2.674447 1_554
K2 O6 2.674447 1_555
K2 O7 2.674447 1_555
K2 O4 2.674447 1_555
K2 O3 2.934237 1_555
K2 O0 2.934237 1_555
K3 O2 2.674447 1_555
K3 O4 2.674447 1_556
K3 O7 2.674447 1_545
K3 O6 2.674447 1_545
K3 O5 2.934237 1_555
K3 O1 2.934237 1_545
I0 O0 2.232045 1_555
I0 O1 2.232045 1_544
I0 O5 2.232045 1_555
I0 O3 2.232045 1_545
I1 O0 2.232045 1_656
I1 O1 2.232045 1_645
I1 O3 2.232045 1_545
I1 O5 2.232045 1_555
I2 O4 2.232045 1_555
I2 O2 2.232045 1_655
I2 O6 2.232045 1_544
I2 O7 2.232045 1_645
I3 O4 2.232045 1_555
I3 O7 2.232045 1_656
I3 O6 2.232045 1_555
I3 O2 2.232045 1_655
