# generated using pymatgen
data_Li5Fe3(SbO5)2
_symmetry_space_group_name_H-M   'P 1'
_cell_length_a   5.38470990
_cell_length_b   10.63360725
_cell_length_c   8.25148317
_cell_angle_alpha   108.68761279
_cell_angle_beta   102.48545890
_cell_angle_gamma   99.81934457
_symmetry_Int_Tables_number   1
_chemical_formula_structural   Li5Fe3(SbO5)2
_chemical_formula_sum   'Li10 Fe6 Sb4 O20'
_cell_volume   422.03258037
_cell_formula_units_Z   2
loop_
 _symmetry_equiv_pos_site_id
 _symmetry_equiv_pos_as_xyz
  1  'x, y, z'
loop_
 _atom_site_type_symbol
 _atom_site_label
 _atom_site_symmetry_multiplicity
 _atom_site_fract_x
 _atom_site_fract_y
 _atom_site_fract_z
 _atom_site_occupancy
  Li  Li0  1  0.49878400  0.24588000  0.49839800  1
  Li  Li1  1  0.50172400  0.74865900  0.50172600  1
  Li  Li2  1  0.22357000  0.44158000  0.40627300  1
  Li  Li3  1  0.24491800  0.94723000  0.40676700  1
  Li  Li4  1  0.77377400  0.05786300  0.59204500  1
  Li  Li5  1  0.76675800  0.54311100  0.58704100  1
  Li  Li6  1  0.39799500  0.15150500  0.79839200  1
  Li  Li7  1  0.40149100  0.64942500  0.79855400  1
  Li  Li8  1  0.58383200  0.34579600  0.19940700  1
  Li  Li9  1  0.59592600  0.85223300  0.19584700  1
  Fe  Fe0  1  0.99564900  0.74766700  0.99584100  1
  Fe  Fe1  1  0.69503000  0.44811000  0.89589400  1
  Fe  Fe2  1  0.30344100  0.05286200  0.10895700  1
  Fe  Fe3  1  0.00117700  0.25093900  0.00380700  1
  Fe  Fe4  1  0.69554100  0.94684600  0.88832800  1
  Fe  Fe5  1  0.30187900  0.55179100  0.11173900  1
  Sb  Sb0  1  0.10519600  0.35479500  0.70450600  1
  Sb  Sb1  1  0.10264200  0.85153700  0.69785900  1
  Sb  Sb2  1  0.89887900  0.14171600  0.29326500  1
  Sb  Sb3  1  0.89597300  0.64830900  0.30075700  1
  O  O0  1  0.05839100  0.03414800  0.84150400  1
  O  O1  1  0.06167800  0.54218200  0.85968300  1
  O  O2  1  0.93772100  0.46393500  0.15903900  1
  O  O3  1  0.92404000  0.93494400  0.11826600  1
  O  O4  1  0.32888300  0.35283900  0.93896500  1
  O  O5  1  0.32542900  0.83726700  0.91811900  1
  O  O6  1  0.66151000  0.15570600  0.04898500  1
  O  O7  1  0.66761300  0.65604800  0.07714300  1
  O  O8  1  0.16976700  0.17358100  0.58218500  1
  O  O9  1  0.13527700  0.66220900  0.53917600  1
  O  O10  1  0.87495100  0.36125600  0.48346900  1
  O  O11  1  0.87110200  0.84082600  0.45724700  1
  O  O12  1  0.25529200  0.25642700  0.23953200  1
  O  O13  1  0.21255000  0.74042500  0.24963500  1
  O  O14  1  0.78521500  0.26041400  0.75522600  1
  O  O15  1  0.78182000  0.75215200  0.73839500  1
  O  O16  1  0.43470500  0.45684400  0.67337300  1
  O  O17  1  0.42956700  0.94225800  0.65683600  1
  O  O18  1  0.52871300  0.04012500  0.33439600  1
  O  O19  1  0.57159400  0.55855900  0.34342300  1
loop_
_geom_bond_atom_site_label_1
_geom_bond_atom_site_label_2
_geom_bond_distance
_geom_bond_site_symmetry_2
Li0 O8 2.147899 1_555
Li0 O18 2.227441 1_555
Li0 O10 2.231667 1_555
Li0 O14 2.278009 1_555
Li0 O12 2.299347 1_555
Li0 O16 2.374856 1_555
Li1 O9 2.158960 1_555
Li1 O19 2.171148 1_555
Li1 O15 2.179617 1_555
Li1 O17 2.196938 1_555
Li1 O11 2.220941 1_555
Li1 O13 2.279363 1_555
Li2 O12 2.068566 1_555
Li2 O16 2.191067 1_555
Li2 O10 2.231142 1_455
Li2 O19 2.316609 1_555
Li2 O2 2.380195 1_455
Li2 O9 2.426921 1_555
Li3 O18 1.981248 1_565
Li3 O17 2.109483 1_555
Li3 O13 2.119401 1_555
Li3 O11 2.322315 1_455
Li3 O8 2.530833 1_565
Li3 O3 2.571920 1_455
Li4 O14 2.125160 1_555
Li4 O18 2.177571 1_555
Li4 O17 2.303203 1_545
Li4 O8 2.304715 1_655
Li4 O0 2.397887 1_655
Li4 O11 2.420286 1_545
Li5 O10 2.085611 1_555
Li5 O19 2.128235 1_555
Li5 O15 2.150152 1_555
Li5 O16 2.226204 1_555
Li5 O9 2.345168 1_655
Li5 O1 2.461304 1_655
Li6 O8 2.041310 1_555
Li6 O0 2.194377 1_555
Li6 O17 2.212128 1_545
Li6 O4 2.221368 1_555
Li6 O6 2.222975 1_556
Li6 O14 2.361650 1_555
Li7 O16 2.035152 1_555
Li7 O5 2.078893 1_555
Li7 O1 2.226879 1_555
Li7 O9 2.362285 1_555
Li7 O15 2.378615 1_555
Li7 O7 2.404222 1_556
Li8 O12 2.005958 1_555
Li8 O6 2.169442 1_555
Li8 O19 2.212911 1_555
Li8 O2 2.246432 1_555
Li8 O4 2.317578 1_554
Li8 O10 2.460659 1_555
Li9 O18 2.095634 1_565
Li9 O7 2.142235 1_555
Li9 O3 2.150522 1_555
Li9 O5 2.375409 1_554
Li9 O11 2.389499 1_555
Li9 O13 2.401937 1_555
Fe0 O3 2.067885 1_556
Fe0 O5 2.186165 1_655
Fe0 O13 2.198197 1_656
Fe0 O7 2.205341 1_556
Fe0 O15 2.206077 1_555
Fe0 O1 2.242245 1_655
Fe1 O16 2.094221 1_555
Fe1 O14 2.157873 1_555
Fe1 O1 2.181913 1_655
Fe1 O4 2.211841 1_555
Fe1 O2 2.216921 1_556
Fe1 O7 2.288083 1_556
Fe2 O18 2.047429 1_555
Fe2 O12 2.175173 1_555
Fe2 O3 2.237785 1_445
Fe2 O0 2.240753 1_554
Fe2 O6 2.280035 1_555
Fe2 O5 2.368393 1_544
Fe3 O12 2.099598 1_555
Fe3 O6 2.101123 1_455
Fe3 O4 2.168357 1_554
Fe3 O14 2.170432 1_454
Fe3 O2 2.341242 1_455
Fe3 O0 2.375919 1_554
Fe4 O3 2.080232 1_556
Fe4 O17 2.106137 1_555
Fe4 O0 2.183157 1_665
Fe4 O15 2.228863 1_555
Fe4 O5 2.234570 1_555
Fe4 O6 2.254032 1_566
Fe5 O19 2.108287 1_555
Fe5 O13 2.157014 1_555
Fe5 O1 2.159784 1_554
Fe5 O4 2.188855 1_554
Fe5 O2 2.193152 1_455
Fe5 O7 2.211373 1_555
O0 Sb1 2.009315 1_545
O1 Sb0 2.078198 1_555
O2 Sb3 2.014105 1_555
O3 Sb2 2.256002 1_565
O4 Sb0 2.054461 1_555
O5 Sb1 2.015306 1_555
O6 Sb2 2.204949 1_555
O7 Sb3 2.018458 1_555
O8 Sb0 1.996679 1_555
O8 Sb2 2.395036 1_455
O9 Sb3 2.050656 1_455
O9 Sb1 2.080717 1_555
O10 Sb0 2.000001 1_655
O10 Sb2 2.402468 1_555
O11 Sb1 2.060488 1_655
O11 Sb3 2.085780 1_555
O12 Sb2 2.298640 1_455
O13 Sb3 2.012337 1_455
O14 Sb0 2.035258 1_655
O15 Sb1 2.016623 1_655
O16 Sb0 2.027492 1_555
O17 Sb1 2.007954 1_555
O18 Sb2 2.246818 1_555
O19 Sb3 1.999573 1_555
