# generated using pymatgen
data_SmBe13
_symmetry_space_group_name_H-M   'P 1'
_cell_length_a   7.26786172
_cell_length_b   7.26786172
_cell_length_c   7.26786172
_cell_angle_alpha   60.00000000
_cell_angle_beta   60.00000000
_cell_angle_gamma   60.00000000
_symmetry_Int_Tables_number   1
_chemical_formula_structural   SmBe13
_chemical_formula_sum   'Sm2 Be26'
_cell_volume   271.45945331
_cell_formula_units_Z   2
loop_
 _symmetry_equiv_pos_site_id
 _symmetry_equiv_pos_as_xyz
  1  'x, y, z'
loop_
 _atom_site_type_symbol
 _atom_site_label
 _atom_site_symmetry_multiplicity
 _atom_site_fract_x
 _atom_site_fract_y
 _atom_site_fract_z
 _atom_site_occupancy
  Sm  Sm0  1  0.75000000  0.75000000  0.75000000  1
  Sm  Sm1  1  0.25000000  0.25000000  0.25000000  1
  Be  Be0  1  0.00000000  0.00000000  -0.00000000  1
  Be  Be1  1  0.50000000  0.50000000  0.50000000  1
  Be  Be2  1  0.06258466  0.93741534  0.71117168  1
  Be  Be3  1  0.93741534  0.06258466  0.28882832  1
  Be  Be4  1  0.28882832  0.71117168  0.93741534  1
  Be  Be5  1  0.71117168  0.28882832  0.06258466  1
  Be  Be6  1  0.93741534  0.71117168  0.06258466  1
  Be  Be7  1  0.21117168  0.56258466  0.78882832  1
  Be  Be8  1  0.06258466  0.28882832  0.93741534  1
  Be  Be9  1  0.78882832  0.43741534  0.21117168  1
  Be  Be10  1  0.71117168  0.93741534  0.28882832  1
  Be  Be11  1  0.43741534  0.78882832  0.56258466  1
  Be  Be12  1  0.28882832  0.06258466  0.71117168  1
  Be  Be13  1  0.56258466  0.21117168  0.43741534  1
  Be  Be14  1  0.71117168  0.06258466  0.93741534  1
  Be  Be15  1  0.21117168  0.78882832  0.43741534  1
  Be  Be16  1  0.28882832  0.93741534  0.06258466  1
  Be  Be17  1  0.78882832  0.21117168  0.56258466  1
  Be  Be18  1  0.06258466  0.71117168  0.28882832  1
  Be  Be19  1  0.56258466  0.43741534  0.78882832  1
  Be  Be20  1  0.93741534  0.28882832  0.71117168  1
  Be  Be21  1  0.43741534  0.56258466  0.21117168  1
  Be  Be22  1  0.56258466  0.78882832  0.21117168  1
  Be  Be23  1  0.43741534  0.21117168  0.78882832  1
  Be  Be24  1  0.78882832  0.56258466  0.43741534  1
  Be  Be25  1  0.21117168  0.43741534  0.56258466  1
loop_
_geom_bond_atom_site_label_1
_geom_bond_atom_site_label_2
_geom_bond_distance
_geom_bond_site_symmetry_2
Be0 Be18 2.147879 1_545
Be0 Be12 2.147879 1_554
Be0 Be20 2.147879 1_454
Be0 Be16 2.147879 1_545
Be0 Be4 2.147879 1_544
Be0 Be14 2.147879 1_454
Be0 Be2 2.147879 1_544
Be0 Be6 2.147879 1_445
Be0 Be10 2.147879 1_445
Be0 Be8 2.147879 1_554
Be0 Be3 2.147879 1_455
Be0 Be5 2.147879 1_455
Be1 Be24 2.147879 1_555
Be1 Be15 2.147879 1_555
Be1 Be9 2.147879 1_555
Be1 Be22 2.147879 1_555
Be1 Be7 2.147879 1_555
Be1 Be19 2.147879 1_555
Be1 Be11 2.147879 1_555
Be1 Be17 2.147879 1_555
Be1 Be23 2.147879 1_555
Be1 Be25 2.147879 1_555
Be1 Be21 2.147879 1_555
Be1 Be13 2.147879 1_555
Be2 Be20 2.242136 1_465
Be2 Be6 2.242136 1_456
Be2 Be7 2.244139 1_555
Be2 Be4 2.325402 1_555
Be2 Sm1 3.027397 1_565
Be2 Sm0 3.027397 1_455
Be3 Be8 2.242136 1_654
Be3 Be9 2.244139 1_555
Be3 Be5 2.325402 1_555
Be3 Sm1 3.027397 1_655
Be3 Sm0 3.027397 1_545
Be4 Be6 2.242136 1_456
Be4 Be7 2.244139 1_555
Be4 Sm1 3.027397 1_556
Be4 Sm0 3.027397 1_555
Be5 Be8 2.242136 1_654
Be5 Be9 2.244139 1_555
Be5 Sm1 3.027397 1_555
Be5 Sm0 3.027397 1_554
Be6 Be9 2.263803 1_555
Be6 Be7 2.263803 1_654
Be6 Sm1 3.027397 1_655
Be6 Sm0 3.027397 1_554
Be7 Be8 2.263803 1_555
Be7 Sm0 3.027397 1_455
Be7 Sm1 3.027397 1_556
Be8 Be9 2.263803 1_456
Be8 Sm1 3.027397 1_556
Be8 Sm0 3.027397 1_455
Be9 Sm1 3.027397 1_655
Be9 Sm0 3.027397 1_554
Be10 Be5 2.242136 1_565
Be10 Be18 2.242136 1_655
Be10 Be14 2.242136 1_564
Be10 Be3 2.242136 1_565
Be10 Be22 2.244139 1_555
Be10 Be24 2.244139 1_555
Be10 Be11 2.263803 1_555
Be10 Be13 2.263803 1_565
Be10 Be6 2.325402 1_555
Be10 Sm1 3.027397 1_565
Be10 Sm0 3.027397 1_555
Be11 Be15 2.242136 1_555
Be11 Be22 2.242136 1_555
Be11 Be24 2.242136 1_555
Be11 Be19 2.242136 1_555
Be11 Be2 2.244139 1_555
Be11 Be4 2.244139 1_555
Be11 Be12 2.263803 1_565
Be11 Be7 2.325402 1_555
Be11 Sm1 3.027397 1_565
Be11 Sm0 3.027397 1_555
Be12 Be16 2.242136 1_546
Be12 Be2 2.242136 1_545
Be12 Be20 2.242136 1_455
Be12 Be4 2.242136 1_545
Be12 Be25 2.244139 1_555
Be12 Be23 2.244139 1_555
Be12 Be13 2.263803 1_555
Be12 Be8 2.325402 1_555
Be12 Sm1 3.027397 1_555
Be12 Sm0 3.027397 1_545
Be13 Be21 2.242136 1_555
Be13 Be25 2.242136 1_555
Be13 Be23 2.242136 1_555
Be13 Be17 2.242136 1_555
Be13 Be5 2.244139 1_555
Be13 Be3 2.244139 1_555
Be13 Be9 2.325402 1_555
Be13 Sm1 3.027397 1_555
Be13 Sm0 3.027397 1_545
Be14 Be5 2.242136 1_556
Be14 Be2 2.242136 1_645
Be14 Be6 2.242136 1_546
Be14 Be19 2.244139 1_555
Be14 Be17 2.244139 1_555
Be14 Be23 2.263803 1_555
Be14 Be22 2.263803 1_546
Be14 Be20 2.325402 1_555
Be14 Sm1 3.027397 1_556
Be14 Sm0 3.027397 1_545
Be15 Be22 2.242136 1_555
Be15 Be25 2.242136 1_555
Be15 Be7 2.242136 1_555
Be15 Be16 2.244139 1_555
Be15 Be18 2.244139 1_555
Be15 Be3 2.263803 1_465
Be15 Be2 2.263803 1_555
Be15 Be21 2.325402 1_555
Be15 Sm1 3.027397 1_565
Be15 Sm0 3.027397 1_455
Be16 Be8 2.242136 1_564
Be16 Be3 2.242136 1_465
Be16 Be4 2.242136 1_554
Be16 Be21 2.244139 1_555
Be16 Be22 2.263803 1_555
Be16 Be23 2.263803 1_564
Be16 Be18 2.325402 1_555
Be16 Sm1 3.027397 1_565
Be16 Sm0 3.027397 1_554
Be17 Be24 2.242136 1_555
Be17 Be9 2.242136 1_555
Be17 Be23 2.242136 1_555
Be17 Be20 2.244139 1_555
Be17 Be3 2.263803 1_555
Be17 Be2 2.263803 1_645
Be17 Be19 2.325402 1_555
Be17 Sm1 3.027397 1_655
Be17 Sm0 3.027397 1_545
Be18 Be3 2.242136 1_465
Be18 Be4 2.242136 1_554
Be18 Be6 2.242136 1_455
Be18 Be21 2.244139 1_555
Be18 Be25 2.263803 1_555
Be18 Be24 2.263803 1_455
Be18 Sm1 3.027397 1_555
Be18 Sm0 3.027397 1_455
Be19 Be23 2.242136 1_555
Be19 Be7 2.242136 1_555
Be19 Be24 2.242136 1_555
Be19 Be20 2.244139 1_555
Be19 Be5 2.263803 1_556
Be19 Be4 2.263803 1_555
Be19 Sm1 3.027397 1_556
Be19 Sm0 3.027397 1_555
Be20 Be5 2.242136 1_556
Be20 Be8 2.242136 1_655
Be20 Be24 2.263803 1_555
Be20 Be25 2.263803 1_655
Be20 Sm0 3.027397 1_555
Be20 Sm1 3.027397 1_655
Be21 Be25 2.242136 1_555
Be21 Be9 2.242136 1_555
Be21 Be22 2.242136 1_555
Be21 Be4 2.263803 1_554
Be21 Be5 2.263803 1_555
Be21 Sm1 3.027397 1_555
Be21 Sm0 3.027397 1_554
Be22 Be9 2.242136 1_555
Be22 Be6 2.244139 1_555
Be22 Be24 2.325402 1_555
Be22 Sm1 3.027397 1_565
Be22 Sm0 3.027397 1_554
Be23 Be7 2.242136 1_555
Be23 Be8 2.244139 1_555
Be23 Be25 2.325402 1_555
Be23 Sm0 3.027397 1_545
Be23 Sm1 3.027397 1_556
Be24 Be9 2.242136 1_555
Be24 Be6 2.244139 1_555
Be24 Sm1 3.027397 1_655
Be24 Sm0 3.027397 1_555
Be25 Be7 2.242136 1_555
Be25 Be8 2.244139 1_555
Be25 Sm1 3.027397 1_555
Be25 Sm0 3.027397 1_455
