# generated using pymatgen
data_ScGe2Os
_symmetry_space_group_name_H-M   'P 1'
_cell_length_a   8.20399900
_cell_length_b   9.38073900
_cell_length_c   10.41531800
_cell_angle_alpha   90.00000000
_cell_angle_beta   90.00000000
_cell_angle_gamma   90.00000000
_symmetry_Int_Tables_number   1
_chemical_formula_structural   ScGe2Os
_chemical_formula_sum   'Sc12 Ge24 Os12'
_cell_volume   801.55842985
_cell_formula_units_Z   12
loop_
 _symmetry_equiv_pos_site_id
 _symmetry_equiv_pos_as_xyz
  1  'x, y, z'
loop_
 _atom_site_type_symbol
 _atom_site_label
 _atom_site_symmetry_multiplicity
 _atom_site_fract_x
 _atom_site_fract_y
 _atom_site_fract_z
 _atom_site_occupancy
  Sc  Sc0  1  0.24082400  0.82351000  0.44917400  1
  Sc  Sc1  1  0.24082400  0.17649000  0.55082600  1
  Sc  Sc2  1  0.75917600  0.32351000  0.05082600  1
  Sc  Sc3  1  0.75917600  0.67649000  0.94917400  1
  Sc  Sc4  1  0.75917600  0.17649000  0.55082600  1
  Sc  Sc5  1  0.75917600  0.82351000  0.44917400  1
  Sc  Sc6  1  0.24082400  0.67649000  0.94917400  1
  Sc  Sc7  1  0.24082400  0.32351000  0.05082600  1
  Sc  Sc8  1  0.00000000  0.83507600  0.17771000  1
  Sc  Sc9  1  0.00000000  0.16492400  0.82229000  1
  Sc  Sc10  1  0.00000000  0.33507600  0.32229000  1
  Sc  Sc11  1  0.00000000  0.66492400  0.67771000  1
  Ge  Ge0  1  0.34643900  0.84069200  0.18067400  1
  Ge  Ge1  1  0.34643900  0.15930800  0.81932600  1
  Ge  Ge2  1  0.65356100  0.34069200  0.31932600  1
  Ge  Ge3  1  0.65356100  0.65930800  0.68067400  1
  Ge  Ge4  1  0.65356100  0.15930800  0.81932600  1
  Ge  Ge5  1  0.65356100  0.84069200  0.18067400  1
  Ge  Ge6  1  0.34643900  0.65930800  0.68067400  1
  Ge  Ge7  1  0.34643900  0.34069200  0.31932600  1
  Ge  Ge8  1  0.50000000  0.54127000  0.11534000  1
  Ge  Ge9  1  0.50000000  0.45873000  0.88466000  1
  Ge  Ge10  1  0.50000000  0.04127000  0.38466000  1
  Ge  Ge11  1  0.50000000  0.95873000  0.61534000  1
  Ge  Ge12  1  0.00000000  0.53601000  0.11734600  1
  Ge  Ge13  1  0.00000000  0.46399000  0.88265400  1
  Ge  Ge14  1  0.00000000  0.03601000  0.38265400  1
  Ge  Ge15  1  0.00000000  0.96399000  0.61734600  1
  Ge  Ge16  1  0.50000000  0.63605200  0.40371400  1
  Ge  Ge17  1  0.50000000  0.36394800  0.59628600  1
  Ge  Ge18  1  0.50000000  0.13605200  0.09628600  1
  Ge  Ge19  1  0.50000000  0.86394800  0.90371400  1
  Ge  Ge20  1  0.00000000  0.63368000  0.39869900  1
  Ge  Ge21  1  0.00000000  0.36632000  0.60130100  1
  Ge  Ge22  1  0.00000000  0.13368000  0.10130100  1
  Ge  Ge23  1  0.00000000  0.86632000  0.89869900  1
  Os  Os0  1  0.24931300  0.59049100  0.23775400  1
  Os  Os1  1  0.24931300  0.40950900  0.76224600  1
  Os  Os2  1  0.75068700  0.09049100  0.26224600  1
  Os  Os3  1  0.75068700  0.90950900  0.73775400  1
  Os  Os4  1  0.75068700  0.40950900  0.76224600  1
  Os  Os5  1  0.75068700  0.59049100  0.23775400  1
  Os  Os6  1  0.24931300  0.90950900  0.73775400  1
  Os  Os7  1  0.24931300  0.09049100  0.26224600  1
  Os  Os8  1  0.24787900  0.50000000  0.50000000  1
  Os  Os9  1  0.75212100  0.00000000  0.00000000  1
  Os  Os10  1  0.75212100  0.50000000  0.50000000  1
  Os  Os11  1  0.24787900  0.00000000  0.00000000  1
loop_
_geom_bond_atom_site_label_1
_geom_bond_atom_site_label_2
_geom_bond_distance
_geom_bond_site_symmetry_2
Ge0 Ge5 2.519629 1_555
Ge0 Os11 2.535391 1_565
Ge0 Os0 2.548941 1_555
Ge0 Os7 2.616829 1_565
Ge0 Sc8 2.842841 1_555
Ge0 Sc0 2.932103 1_555
Ge0 Sc6 2.989485 1_554
Ge1 Ge4 2.519629 1_555
Ge1 Os11 2.535391 1_556
Ge1 Os1 2.548941 1_555
Ge1 Os6 2.616829 1_545
Ge1 Sc9 2.842841 1_555
Ge1 Sc1 2.932103 1_555
Ge1 Sc7 2.989485 1_556
Ge2 Ge7 2.519629 1_555
Ge2 Os10 2.535391 1_555
Ge2 Os2 2.548941 1_555
Ge2 Os5 2.616829 1_555
Ge2 Sc10 2.842841 1_655
Ge2 Sc2 2.932103 1_555
Ge2 Sc4 2.989485 1_555
Ge3 Ge6 2.519629 1_555
Ge3 Os10 2.535391 1_555
Ge3 Os3 2.548941 1_555
Ge3 Os4 2.616829 1_555
Ge3 Sc11 2.842841 1_655
Ge3 Sc3 2.932103 1_555
Ge3 Sc5 2.989485 1_555
Ge4 Os9 2.535391 1_556
Ge4 Os4 2.548941 1_555
Ge4 Os3 2.616829 1_545
Ge4 Sc9 2.842841 1_655
Ge4 Sc4 2.932103 1_555
Ge4 Sc2 2.989485 1_556
Ge5 Os9 2.535391 1_565
Ge5 Os5 2.548941 1_555
Ge5 Os2 2.616829 1_565
Ge5 Sc8 2.842841 1_655
Ge5 Sc5 2.932103 1_555
Ge5 Sc3 2.989485 1_554
Ge6 Os8 2.535391 1_555
Ge6 Os6 2.548941 1_555
Ge6 Os1 2.616829 1_555
Ge6 Sc11 2.842841 1_555
Ge6 Sc6 2.932103 1_555
Ge6 Sc0 2.989485 1_555
Ge7 Os8 2.535391 1_555
Ge7 Os7 2.548941 1_555
Ge7 Os0 2.616829 1_555
Ge7 Sc10 2.842841 1_555
Ge7 Sc7 2.932103 1_555
Ge7 Sc1 2.989485 1_555
Ge8 Os0 2.463437 1_555
Ge8 Os5 2.463437 1_555
Ge8 Ge9 2.524289 1_554
Ge8 Sc3 3.020809 1_554
Ge8 Sc6 3.020809 1_554
Ge8 Sc2 3.024134 1_555
Ge8 Sc7 3.024134 1_555
Ge9 Os4 2.463437 1_555
Ge9 Os1 2.463437 1_555
Ge9 Sc7 3.020809 1_556
Ge9 Sc2 3.020809 1_556
Ge9 Sc6 3.024134 1_555
Ge9 Sc3 3.024134 1_555
Ge10 Os7 2.463437 1_555
Ge10 Os2 2.463437 1_555
Ge10 Ge11 2.524289 1_545
Ge10 Sc1 3.020809 1_555
Ge10 Sc4 3.020809 1_555
Ge10 Sc0 3.024134 1_545
Ge10 Sc5 3.024134 1_545
Ge11 Os6 2.463437 1_555
Ge11 Os3 2.463437 1_555
Ge11 Sc5 3.020809 1_555
Ge11 Sc0 3.020809 1_555
Ge11 Sc4 3.024134 1_565
Ge11 Sc1 3.024134 1_565
Ge12 Os5 2.453048 1_455
Ge12 Os0 2.453048 1_555
Ge12 Ge13 2.536038 1_554
Ge12 Sc10 2.847669 1_555
Ge12 Sc8 2.875045 1_555
Ge12 Sc7 2.890874 1_555
Ge12 Sc2 2.890874 1_455
Ge12 Sc3 2.950942 1_454
Ge12 Sc6 2.950942 1_554
Ge13 Os4 2.453048 1_455
Ge13 Os1 2.453048 1_555
Ge13 Sc11 2.847669 1_555
Ge13 Sc9 2.875045 1_555
Ge13 Sc6 2.890874 1_555
Ge13 Sc3 2.890874 1_455
Ge13 Sc7 2.950942 1_556
Ge13 Sc2 2.950942 1_456
Ge14 Os2 2.453048 1_455
Ge14 Os7 2.453048 1_555
Ge14 Ge15 2.536038 1_545
Ge14 Sc8 2.847669 1_545
Ge14 Sc10 2.875045 1_555
Ge14 Sc0 2.890874 1_545
Ge14 Sc5 2.890874 1_445
Ge14 Sc4 2.950942 1_455
Ge14 Sc1 2.950942 1_555
Ge15 Os6 2.453048 1_555
Ge15 Os3 2.453048 1_455
Ge15 Sc9 2.847669 1_565
Ge15 Sc11 2.875045 1_555
Ge15 Sc1 2.890874 1_565
Ge15 Sc4 2.890874 1_465
Ge15 Sc0 2.950942 1_555
Ge15 Sc5 2.950942 1_455
Ge16 Os8 2.629230 1_555
Ge16 Os10 2.629230 1_555
Ge16 Os0 2.720335 1_555
Ge16 Os5 2.720335 1_555
Ge16 Sc0 2.799563 1_555
Ge16 Sc5 2.799563 1_555
Ge17 Os10 2.629230 1_555
Ge17 Os8 2.629230 1_555
Ge17 Os1 2.720335 1_555
Ge17 Os4 2.720335 1_555
Ge17 Sc4 2.799563 1_555
Ge17 Sc1 2.799563 1_555
Ge18 Os9 2.629230 1_555
Ge18 Os11 2.629230 1_555
Ge18 Os7 2.720335 1_555
Ge18 Os2 2.720335 1_555
Ge18 Sc7 2.799563 1_555
Ge18 Sc2 2.799563 1_555
Ge19 Os11 2.629230 1_566
Ge19 Os9 2.629230 1_566
Ge19 Os3 2.720335 1_555
Ge19 Os6 2.720335 1_555
Ge19 Sc3 2.799563 1_555
Ge19 Sc6 2.799563 1_555
Ge20 Os8 2.611759 1_555
Ge20 Os10 2.611759 1_455
Ge20 Os0 2.675372 1_555
Ge20 Os5 2.675372 1_455
Ge20 Sc0 2.711254 1_555
Ge20 Sc5 2.711254 1_455
Ge20 Sc10 2.911983 1_555
Ge20 Sc11 2.920731 1_555
Ge20 Sc8 2.977739 1_555
Ge21 Os8 2.611759 1_555
Ge21 Os10 2.611759 1_455
Ge21 Os4 2.675372 1_455
Ge21 Os1 2.675372 1_555
Ge21 Sc4 2.711254 1_455
Ge21 Sc1 2.711254 1_555
Ge21 Sc11 2.911983 1_555
Ge21 Sc10 2.920731 1_555
Ge21 Sc9 2.977739 1_555
Ge22 Os11 2.611759 1_555
Ge22 Os9 2.611759 1_455
Ge22 Os2 2.675372 1_455
Ge22 Os7 2.675372 1_555
Ge22 Sc7 2.711254 1_555
Ge22 Sc2 2.711254 1_455
Ge22 Sc8 2.911983 1_545
Ge22 Sc9 2.920731 1_554
Ge22 Sc10 2.977739 1_555
Ge23 Os11 2.611759 1_566
Ge23 Os9 2.611759 1_466
Ge23 Os3 2.675372 1_455
Ge23 Os6 2.675372 1_555
Ge23 Sc3 2.711254 1_455
Ge23 Sc6 2.711254 1_555
Ge23 Sc9 2.911983 1_565
Ge23 Sc8 2.920731 1_556
Ge23 Sc11 2.977739 1_555
Os0 Os8 2.860268 1_555
Os0 Sc0 3.103514 1_555
Os0 Sc6 3.112815 1_554
Os0 Sc8 3.136690 1_555
Os0 Sc7 3.172971 1_555
Os0 Sc10 3.271004 1_555
Os1 Os8 2.860268 1_555
Os1 Sc1 3.103514 1_555
Os1 Sc7 3.112815 1_556
Os1 Sc9 3.136690 1_555
Os1 Sc6 3.172971 1_555
Os1 Sc11 3.271004 1_555
Os2 Os9 2.860268 1_555
Os2 Sc2 3.103514 1_555
Os2 Sc4 3.112815 1_555
Os2 Sc10 3.136690 1_655
Os2 Sc5 3.172971 1_545
Os2 Sc8 3.271004 1_645
Os3 Os9 2.860268 1_566
Os3 Sc3 3.103514 1_555
Os3 Sc5 3.112815 1_555
Os3 Sc11 3.136690 1_655
Os3 Sc4 3.172971 1_565
Os3 Sc9 3.271004 1_665
Os4 Sc4 3.103514 1_555
Os4 Sc2 3.112815 1_556
Os4 Sc9 3.136690 1_655
Os4 Sc3 3.172971 1_555
Os4 Sc11 3.271004 1_655
Os5 Sc5 3.103514 1_555
Os5 Sc3 3.112815 1_554
Os5 Sc8 3.136690 1_655
Os5 Sc2 3.172971 1_555
Os5 Sc10 3.271004 1_655
Os6 Sc6 3.103514 1_555
Os6 Sc0 3.112815 1_555
Os6 Sc11 3.136690 1_555
Os6 Sc1 3.172971 1_565
Os6 Sc9 3.271004 1_565
Os7 Sc7 3.103514 1_555
Os7 Sc1 3.112815 1_555
Os7 Sc10 3.136690 1_555
Os7 Sc0 3.172971 1_545
Os7 Sc8 3.271004 1_545
Os8 Sc0 3.081131 1_555
Os8 Sc1 3.081131 1_555
Os8 Sc10 3.155143 1_555
Os8 Sc11 3.155143 1_555
Os9 Sc3 3.081131 1_544
Os9 Sc2 3.081131 1_555
Os9 Sc8 3.155143 1_645
Os9 Sc9 3.155143 1_654
Os10 Os4 2.860268 1_555
Os10 Os5 2.860268 1_555
Os10 Sc5 3.081131 1_555
Os10 Sc4 3.081131 1_555
Os10 Sc11 3.155143 1_655
Os10 Sc10 3.155143 1_655
Os11 Os7 2.860268 1_555
Os11 Os6 2.860268 1_544
Os11 Sc6 3.081131 1_544
Os11 Sc7 3.081131 1_555
Os11 Sc8 3.155143 1_545
Os11 Sc9 3.155143 1_554
