# generated using pymatgen
data_Ba8(MnN3)3
_symmetry_space_group_name_H-M   'P 1'
_cell_length_a   8.07022952
_cell_length_b   11.28315783
_cell_length_c   19.92077014
_cell_angle_alpha   90.00000000
_cell_angle_beta   105.14165580
_cell_angle_gamma   90.00000000
_symmetry_Int_Tables_number   1
_chemical_formula_structural   Ba8(MnN3)3
_chemical_formula_sum   'Ba32 Mn12 N36'
_cell_volume   1750.96442579
_cell_formula_units_Z   4
loop_
 _symmetry_equiv_pos_site_id
 _symmetry_equiv_pos_as_xyz
  1  'x, y, z'
loop_
 _atom_site_type_symbol
 _atom_site_label
 _atom_site_symmetry_multiplicity
 _atom_site_fract_x
 _atom_site_fract_y
 _atom_site_fract_z
 _atom_site_occupancy
  Ba  Ba0  1  0.51877963  0.87417310  0.07747975  1
  Ba  Ba1  1  0.48122037  0.37417310  0.42252025  1
  Ba  Ba2  1  0.48122037  0.12582690  0.92252025  1
  Ba  Ba3  1  0.51877963  0.62582690  0.57747975  1
  Ba  Ba4  1  0.51431243  0.12631065  0.58601955  1
  Ba  Ba5  1  0.48568757  0.62631065  0.91398045  1
  Ba  Ba6  1  0.48568757  0.87368935  0.41398045  1
  Ba  Ba7  1  0.51431243  0.37368935  0.08601955  1
  Ba  Ba8  1  0.71883003  0.86175027  0.72128331  1
  Ba  Ba9  1  0.28116997  0.36175027  0.77871669  1
  Ba  Ba10  1  0.28116997  0.13824973  0.27871669  1
  Ba  Ba11  1  0.71883003  0.63824973  0.22128331  1
  Ba  Ba12  1  0.73926064  0.38515129  0.73071602  1
  Ba  Ba13  1  0.26073936  0.88515129  0.76928398  1
  Ba  Ba14  1  0.26073936  0.61484871  0.26928398  1
  Ba  Ba15  1  0.73926064  0.11484871  0.23071602  1
  Ba  Ba16  1  0.79343072  0.37463451  0.94252533  1
  Ba  Ba17  1  0.20656928  0.87463451  0.55747467  1
  Ba  Ba18  1  0.20656928  0.62536549  0.05747467  1
  Ba  Ba19  1  0.79343072  0.12536549  0.44252533  1
  Ba  Ba20  1  0.93736814  0.12710015  0.85576095  1
  Ba  Ba21  1  0.06263186  0.62710015  0.64423905  1
  Ba  Ba22  1  0.06263186  0.87289985  0.14423905  1
  Ba  Ba23  1  0.93736814  0.37289985  0.35576095  1
  Ba  Ba24  1  0.00261712  0.12478761  0.64697114  1
  Ba  Ba25  1  0.99738288  0.62478761  0.85302886  1
  Ba  Ba26  1  0.99738288  0.87521239  0.35302886  1
  Ba  Ba27  1  0.00261712  0.37521239  0.14697114  1
  Ba  Ba28  1  0.18533284  0.36968169  0.54964722  1
  Ba  Ba29  1  0.81466716  0.86968169  0.95035278  1
  Ba  Ba30  1  0.81466716  0.63031831  0.45035278  1
  Ba  Ba31  1  0.18533284  0.13031831  0.04964722  1
  Mn  Mn0  1  0.55427139  0.13929678  0.75509669  1
  Mn  Mn1  1  0.44572861  0.63929678  0.74490331  1
  Mn  Mn2  1  0.44572861  0.86070322  0.24490331  1
  Mn  Mn3  1  0.55427139  0.36070322  0.25509669  1
  Mn  Mn4  1  0.79855483  0.87356554  0.56439797  1
  Mn  Mn5  1  0.20144517  0.37356554  0.93560203  1
  Mn  Mn6  1  0.20144517  0.12643446  0.43560203  1
  Mn  Mn7  1  0.79855483  0.62643446  0.06439797  1
  Mn  Mn8  1  0.79313744  0.37660933  0.56754097  1
  Mn  Mn9  1  0.20686256  0.87660933  0.93245903  1
  Mn  Mn10  1  0.20686256  0.62339067  0.43245903  1
  Mn  Mn11  1  0.79313744  0.12339067  0.06754097  1
  N  N0  1  0.58486167  0.37607873  0.57430458  1
  N  N1  1  0.41513833  0.87607873  0.92569542  1
  N  N2  1  0.41513833  0.62392127  0.42569542  1
  N  N3  1  0.58486167  0.12392127  0.07430458  1
  N  N4  1  0.60356235  0.24128755  0.82235705  1
  N  N5  1  0.39643765  0.74128755  0.67764295  1
  N  N6  1  0.39643765  0.75871245  0.17764295  1
  N  N7  1  0.60356235  0.25871245  0.32235705  1
  N  N8  1  0.83265265  0.12180629  0.98553440  1
  N  N9  1  0.16734735  0.62180629  0.51446560  1
  N  N10  1  0.16734735  0.87819371  0.01446560  1
  N  N11  1  0.83265265  0.37819371  0.48553440  1
  N  N12  1  0.59072410  0.87829959  0.56877203  1
  N  N13  1  0.40927590  0.37829959  0.93122797  1
  N  N14  1  0.40927590  0.12170041  0.43122797  1
  N  N15  1  0.59072410  0.62170041  0.06877203  1
  N  N16  1  0.73236915  0.11330282  0.72152902  1
  N  N17  1  0.26763085  0.61330282  0.77847098  1
  N  N18  1  0.26763085  0.88669718  0.27847098  1
  N  N19  1  0.73236915  0.38669718  0.22152902  1
  N  N20  1  0.96968989  0.37938170  0.64024962  1
  N  N21  1  0.03031011  0.87938170  0.85975038  1
  N  N22  1  0.03031011  0.62061830  0.35975038  1
  N  N23  1  0.96968989  0.12061830  0.14024962  1
  N  N24  1  0.03634760  0.37241097  0.85798670  1
  N  N25  1  0.96365240  0.87241097  0.64201330  1
  N  N26  1  0.96365240  0.62758903  0.14201330  1
  N  N27  1  0.03634760  0.12758903  0.35798670  1
  N  N28  1  0.15318637  0.12663530  0.51478751  1
  N  N29  1  0.84681363  0.62663530  0.98521249  1
  N  N30  1  0.84681363  0.87336470  0.48521249  1
  N  N31  1  0.15318637  0.37336470  0.01478751  1
  N  N32  1  0.34550004  0.12344539  0.70554444  1
  N  N33  1  0.65449996  0.62344539  0.79445556  1
  N  N34  1  0.65449996  0.87655461  0.29445556  1
  N  N35  1  0.34550004  0.37655461  0.20554444  1
loop_
_geom_bond_atom_site_label_1
_geom_bond_atom_site_label_2
_geom_bond_distance
_geom_bond_site_symmetry_2
Ba0 N6 2.771734 1_555
Ba0 N10 2.785967 1_555
Ba0 N3 2.871735 1_565
Ba0 N1 2.919140 1_554
Ba0 N15 2.921445 1_555
Ba1 N7 2.771734 1_555
Ba1 N11 2.785967 1_555
Ba1 N2 2.871735 1_555
Ba1 N0 2.919140 1_555
Ba1 N14 2.921445 1_555
Ba2 N4 2.771734 1_555
Ba2 N8 2.785967 1_555
Ba2 N1 2.871735 1_545
Ba2 N3 2.919140 1_556
Ba2 N13 2.921445 1_555
Ba3 N5 2.771734 1_555
Ba3 N9 2.785967 1_555
Ba3 N0 2.871735 1_555
Ba3 N2 2.919140 1_555
Ba3 N12 2.921445 1_555
Ba4 N16 2.814906 1_555
Ba4 N28 2.889064 1_555
Ba4 N0 2.896572 1_555
Ba4 N12 2.905126 1_545
Ba4 N14 2.977269 1_555
Ba4 N32 3.036602 1_555
Ba5 N17 2.814906 1_555
Ba5 N29 2.889064 1_555
Ba5 N1 2.896572 1_555
Ba5 N13 2.905126 1_555
Ba5 N15 2.977269 1_556
Ba5 N33 3.036602 1_555
Ba6 N18 2.814906 1_555
Ba6 N30 2.889064 1_555
Ba6 N2 2.896572 1_555
Ba6 N14 2.905126 1_565
Ba6 N12 2.977269 1_555
Ba6 N34 3.036602 1_555
Ba7 N19 2.814906 1_555
Ba7 N31 2.889064 1_555
Ba7 N3 2.896572 1_555
Ba7 N15 2.905126 1_555
Ba7 N13 2.977269 1_554
Ba7 N35 3.036602 1_555
Ba8 N25 2.835786 1_555
Ba8 N16 2.840364 1_565
Ba8 N5 2.861963 1_555
Ba8 N12 2.948411 1_555
Ba8 N33 3.165346 1_555
Ba8 N21 3.216313 1_655
Ba9 N24 2.835786 1_555
Ba9 N17 2.840364 1_555
Ba9 N4 2.861963 1_555
Ba9 N13 2.948411 1_555
Ba9 N32 3.165346 1_555
Ba9 N20 3.216313 1_455
Ba10 N27 2.835786 1_555
Ba10 N18 2.840364 1_545
Ba10 N7 2.861963 1_555
Ba10 N14 2.948411 1_555
Ba10 N35 3.165346 1_555
Ba10 N23 3.216313 1_455
Ba11 N26 2.835786 1_555
Ba11 N19 2.840364 1_555
Ba11 N6 2.861963 1_555
Ba11 N15 2.948411 1_555
Ba11 N34 3.165346 1_555
Ba11 N22 3.216313 1_655
Ba12 N4 2.865529 1_555
Ba12 N20 2.908775 1_555
Ba12 N24 3.003550 1_655
Ba12 N0 3.040277 1_555
Ba12 N16 3.072402 1_555
Ba12 N33 3.124588 1_555
Ba13 N5 2.865529 1_555
Ba13 N21 2.908775 1_555
Ba13 N25 3.003550 1_455
Ba13 N1 3.040277 1_555
Ba13 N17 3.072402 1_555
Ba13 N32 3.124588 1_565
Ba14 N6 2.865529 1_555
Ba14 N22 2.908775 1_555
Ba14 N26 3.003550 1_455
Ba14 N2 3.040277 1_555
Ba14 N18 3.072402 1_555
Ba14 N35 3.124588 1_555
Ba15 N7 2.865529 1_555
Ba15 N23 2.908775 1_555
Ba15 N27 3.003550 1_655
Ba15 N3 3.040277 1_555
Ba15 N19 3.072402 1_555
Ba15 N34 3.124588 1_545
Ba16 N31 2.884142 1_656
Ba16 N24 2.899070 1_655
Ba16 N4 2.902739 1_555
Ba16 N29 2.966825 1_555
Ba16 N8 2.971612 1_555
Ba16 N13 3.049461 1_555
Ba17 N30 2.884142 1_455
Ba17 N25 2.899070 1_455
Ba17 N5 2.902739 1_555
Ba17 N28 2.966825 1_565
Ba17 N9 2.971612 1_555
Ba17 N12 3.049461 1_555
Ba18 N29 2.884142 1_454
Ba18 N26 2.899070 1_455
Ba18 N6 2.902739 1_555
Ba18 N31 2.966825 1_555
Ba18 N10 2.971612 1_555
Ba18 N15 3.049461 1_555
Ba19 N28 2.884142 1_655
Ba19 N27 2.899070 1_655
Ba19 N7 2.902739 1_555
Ba19 N30 2.966825 1_545
Ba19 N11 2.971612 1_555
Ba19 N14 3.049461 1_555
Ba20 N16 2.756893 1_555
Ba20 N24 2.877966 1_655
Ba20 N21 2.889646 1_645
Ba20 N4 2.902296 1_555
Ba20 N8 2.922708 1_555
Ba21 N17 2.756893 1_555
Ba21 N25 2.877966 1_455
Ba21 N20 2.889646 1_455
Ba21 N5 2.902296 1_555
Ba21 N9 2.922708 1_555
Ba22 N18 2.756893 1_555
Ba22 N26 2.877966 1_455
Ba22 N23 2.889646 1_465
Ba22 N6 2.902296 1_555
Ba22 N10 2.922708 1_555
Ba23 N19 2.756893 1_555
Ba23 N27 2.877966 1_655
Ba23 N22 2.889646 1_655
Ba23 N7 2.902296 1_555
Ba23 N11 2.922708 1_555
Ba24 N32 2.707775 1_555
Ba24 N25 2.863786 1_445
Ba24 N20 2.884775 1_455
Ba24 N16 2.944758 1_455
Ba24 N28 3.175258 1_555
Ba25 N33 2.707775 1_555
Ba25 N24 2.863786 1_655
Ba25 N21 2.884775 1_655
Ba25 N17 2.944758 1_655
Ba25 N29 3.175258 1_555
Ba26 N34 2.707775 1_555
Ba26 N27 2.863786 1_665
Ba26 N22 2.884775 1_655
Ba26 N18 2.944758 1_655
Ba26 N30 3.175258 1_555
Ba27 N35 2.707775 1_555
Ba27 N26 2.863786 1_455
Ba27 N23 2.884775 1_455
Ba27 N19 2.944758 1_455
Ba27 N31 3.175258 1_555
Ba28 N11 2.800408 1_455
Ba28 N20 2.817628 1_455
Ba28 N28 2.824146 1_555
Ba28 N9 2.924342 1_555
Ba28 N0 3.132914 1_555
Ba29 N10 2.800408 1_656
Ba29 N21 2.817628 1_655
Ba29 N29 2.824146 1_555
Ba29 N8 2.924342 1_565
Ba29 N1 3.132914 1_555
Ba30 N9 2.800408 1_655
Ba30 N22 2.817628 1_655
Ba30 N30 2.824146 1_555
Ba30 N11 2.924342 1_555
Ba30 N2 3.132914 1_555
Ba31 N8 2.800408 1_454
Ba31 N23 2.817628 1_455
Ba31 N31 2.824146 1_555
Ba31 N10 2.924342 1_545
Ba31 N3 3.132914 1_555
Mn0 N32 1.725171 1_555
Mn0 N4 1.731866 1_555
Mn0 N16 1.760985 1_555
Mn1 N33 1.725171 1_555
Mn1 N5 1.731866 1_555
Mn1 N17 1.760985 1_555
Mn2 N34 1.725171 1_555
Mn2 N6 1.731866 1_555
Mn2 N18 1.760985 1_555
Mn3 N35 1.725171 1_555
Mn3 N7 1.731866 1_555
Mn3 N19 1.760985 1_555
Mn4 N12 1.702919 1_555
Mn4 N30 1.720735 1_555
Mn4 N25 1.757781 1_555
Mn5 N13 1.702919 1_555
Mn5 N31 1.720735 1_556
Mn5 N24 1.757781 1_555
Mn6 N14 1.702919 1_555
Mn6 N28 1.720735 1_555
Mn6 N27 1.757781 1_555
Mn7 N15 1.702919 1_555
Mn7 N29 1.720735 1_554
Mn7 N26 1.757781 1_555
Mn8 N0 1.720959 1_555
Mn8 N11 1.744400 1_555
Mn8 N20 1.746674 1_555
Mn9 N1 1.720959 1_555
Mn9 N10 1.744400 1_556
Mn9 N21 1.746674 1_555
Mn10 N2 1.720959 1_555
Mn10 N9 1.744400 1_555
Mn10 N22 1.746674 1_555
Mn11 N3 1.720959 1_555
Mn11 N8 1.744400 1_554
Mn11 N23 1.746674 1_555
