# generated using pymatgen
data_Zn(CuO2)2
_symmetry_space_group_name_H-M   'P 1'
_cell_length_a   5.90976800
_cell_length_b   5.90976800
_cell_length_c   5.90976800
_cell_angle_alpha   117.66471878
_cell_angle_beta   117.66471878
_cell_angle_gamma   94.09477527
_symmetry_Int_Tables_number   1
_chemical_formula_structural   Zn(CuO2)2
_chemical_formula_sum   'Zn2 Cu4 O8'
_cell_volume   150.68269977
_cell_formula_units_Z   2
loop_
 _symmetry_equiv_pos_site_id
 _symmetry_equiv_pos_as_xyz
  1  'x, y, z'
loop_
 _atom_site_type_symbol
 _atom_site_label
 _atom_site_symmetry_multiplicity
 _atom_site_fract_x
 _atom_site_fract_y
 _atom_site_fract_z
 _atom_site_occupancy
  Zn  Zn0  1  0.25000000  0.75000000  0.50000000  1
  Zn  Zn1  1  0.50000000  0.50000000  0.00000000  1
  Cu  Cu0  1  0.37500000  0.12500000  0.25000000  1
  Cu  Cu1  1  0.87500000  0.12500000  0.75000000  1
  Cu  Cu2  1  0.87500000  0.62500000  0.75000000  1
  Cu  Cu3  1  0.87500000  0.12500000  0.25000000  1
  O  O0  1  0.61848600  0.40779700  0.31552000  1
  O  O1  1  0.59220300  0.90772400  0.21069000  1
  O  O2  1  0.69703400  0.38151400  0.78931000  1
  O  O3  1  0.65772400  0.94703400  0.81552000  1
  O  O4  1  0.05296600  0.86848600  0.71069000  1
  O  O5  1  0.15779700  0.34227600  0.28931000  1
  O  O6  1  0.09227600  0.30296600  0.68448000  1
  O  O7  1  0.13151400  0.84220300  0.18448000  1
loop_
_geom_bond_atom_site_label_1
_geom_bond_atom_site_label_2
_geom_bond_distance
_geom_bond_site_symmetry_2
Cu0 O7 1.884641 1_545
Cu0 O0 1.884641 1_555
Cu0 O5 1.893602 1_555
Cu0 O1 1.893602 1_545
Cu0 O4 2.355224 1_544
Cu0 O2 2.355224 1_555
Cu1 O6 1.884637 1_655
Cu1 O3 1.884637 1_545
Cu1 O2 1.893607 1_555
Cu1 O4 1.893607 1_645
Cu1 O1 2.355224 1_545
Cu1 O5 2.355224 1_656
Cu2 O2 1.884637 1_555
Cu2 O4 1.884637 1_655
Cu2 O0 1.893607 1_555
Cu2 O7 1.893607 1_656
Cu2 O6 2.355224 1_655
Cu2 O3 2.355224 1_555
Cu3 O5 1.884641 1_655
Cu3 O1 1.884641 1_545
Cu3 O3 1.893607 1_544
Cu3 O6 1.893607 1_655
Cu3 O7 2.355228 1_645
Cu3 O0 2.355228 1_555
O0 Zn1 2.012384 1_555
O1 Zn1 2.012389 1_555
O2 Zn1 2.012389 1_556
O3 Zn0 2.012389 1_555
O4 Zn0 2.012389 1_555
O5 Zn0 2.012389 1_555
O6 Zn1 2.012389 1_556
O7 Zn0 2.012384 1_555
