# generated using pymatgen
data_GdY3V4O16
_symmetry_space_group_name_H-M   'P 1'
_cell_length_a   6.03429551
_cell_length_b   6.03429551
_cell_length_c   10.23907800
_cell_angle_alpha   90.00000000
_cell_angle_beta   90.00000000
_cell_angle_gamma   116.07250292
_symmetry_Int_Tables_number   1
_chemical_formula_structural   GdY3V4O16
_chemical_formula_sum   'Gd1 Y3 V4 O16'
_cell_volume   334.89272851
_cell_formula_units_Z   1
loop_
 _symmetry_equiv_pos_site_id
 _symmetry_equiv_pos_as_xyz
  1  'x, y, z'
loop_
 _atom_site_type_symbol
 _atom_site_label
 _atom_site_symmetry_multiplicity
 _atom_site_fract_x
 _atom_site_fract_y
 _atom_site_fract_z
 _atom_site_occupancy
  Gd  Gd0  1  0.00000000  0.00000000  0.50000000  1
  Y  Y0  1  0.50000000  0.50000000  0.00000000  1
  Y  Y1  1  0.50000000  0.00000000  0.24965500  1
  Y  Y2  1  0.00000000  0.50000000  0.75034500  1
  V  V0  1  0.00000000  0.50000000  0.24880300  1
  V  V1  1  0.50000000  0.00000000  0.75119700  1
  V  V2  1  0.50000000  0.50000000  0.50000000  1
  V  V3  1  0.00000000  0.00000000  0.00000000  1
  O  O0  1  0.91686200  0.23363100  0.34151500  1
  O  O1  1  0.41811900  0.73255600  0.84291000  1
  O  O2  1  0.23412600  0.41982400  0.59283600  1
  O  O3  1  0.73322900  0.91814600  0.09248700  1
  O  O4  1  0.41982400  0.23412600  0.40716400  1
  O  O5  1  0.91814600  0.73322900  0.90751300  1
  O  O6  1  0.73255600  0.41811900  0.15709000  1
  O  O7  1  0.23363100  0.91686200  0.65848500  1
  O  O8  1  0.58017600  0.76587400  0.40716400  1
  O  O9  1  0.08185400  0.26677100  0.90751300  1
  O  O10  1  0.26744400  0.58188100  0.15709000  1
  O  O11  1  0.76636900  0.08313800  0.65848500  1
  O  O12  1  0.08313800  0.76636900  0.34151500  1
  O  O13  1  0.58188100  0.26744400  0.84291000  1
  O  O14  1  0.76587400  0.58017600  0.59283600  1
  O  O15  1  0.26677100  0.08185400  0.09248700  1
loop_
_geom_bond_atom_site_label_1
_geom_bond_atom_site_label_2
_geom_bond_distance
_geom_bond_site_symmetry_2
Gd0 O7 2.343971 1_545
Gd0 O11 2.343971 1_455
Gd0 O0 2.343971 1_455
Gd0 O12 2.343971 1_545
Gd0 O2 2.484206 1_555
Gd0 O14 2.484206 1_445
Gd0 O4 2.484206 1_555
Gd0 O8 2.484206 1_445
O0 V0 1.739994 1_655
O0 Y1 2.466275 1_555
O1 V1 1.740548 1_565
O1 Y0 2.325947 1_556
O1 Y2 2.474085 1_555
O2 V2 1.740491 1_555
O2 Y2 2.330623 1_555
O3 V3 1.741607 1_665
O3 Y1 2.329252 1_565
O3 Y0 2.474392 1_555
O4 V2 1.740491 1_555
O4 Y1 2.330623 1_555
O5 V3 1.741607 1_666
O5 Y2 2.329252 1_655
O5 Y0 2.474392 1_556
O6 V0 1.740548 1_655
O6 Y0 2.325947 1_555
O6 Y1 2.474085 1_555
O7 V1 1.739994 1_565
O7 Y2 2.466275 1_555
O8 V2 1.740491 1_555
O8 Y1 2.330623 1_565
O9 V3 1.741607 1_556
O9 Y2 2.329252 1_555
O9 Y0 2.474392 1_556
O10 V0 1.740548 1_555
O10 Y0 2.325947 1_555
O10 Y1 2.474085 1_565
O11 V1 1.739994 1_555
O11 Y2 2.466275 1_655
O12 V0 1.739994 1_555
O12 Y1 2.466275 1_565
O13 V1 1.740548 1_555
O13 Y0 2.325947 1_556
O13 Y2 2.474085 1_655
O14 V2 1.740491 1_555
O14 Y2 2.330623 1_655
O15 V3 1.741607 1_555
O15 Y1 2.329252 1_555
O15 Y0 2.474392 1_555
