# generated using pymatgen
data_NiPC5O2
_symmetry_space_group_name_H-M   'P 1'
_cell_length_a   9.46200229
_cell_length_b   14.99301500
_cell_length_c   5.99977127
_cell_angle_alpha   90.00000000
_cell_angle_beta   92.72483908
_cell_angle_gamma   90.00000000
_symmetry_Int_Tables_number   1
_chemical_formula_structural   NiPC5O2
_chemical_formula_sum   'Ni4 P4 C20 O8'
_cell_volume   850.18885903
_cell_formula_units_Z   4
loop_
 _symmetry_equiv_pos_site_id
 _symmetry_equiv_pos_as_xyz
  1  'x, y, z'
loop_
 _atom_site_type_symbol
 _atom_site_label
 _atom_site_symmetry_multiplicity
 _atom_site_fract_x
 _atom_site_fract_y
 _atom_site_fract_z
 _atom_site_occupancy
  Ni  Ni0  1  0.20033500  0.61262300  0.42202100  1
  Ni  Ni1  1  0.70033500  0.88737700  0.92202100  1
  Ni  Ni2  1  0.79966500  0.38737700  0.57797900  1
  Ni  Ni3  1  0.29966500  0.11262300  0.07797900  1
  P  P0  1  0.30125500  0.79091300  0.33337400  1
  P  P1  1  0.80125500  0.70908700  0.83337400  1
  P  P2  1  0.69874500  0.20908700  0.66662600  1
  P  P3  1  0.19874500  0.29091300  0.16662600  1
  C  C0  1  0.38102100  0.67522800  0.37280800  1
  C  C1  1  0.88102100  0.82477200  0.87280800  1
  C  C2  1  0.61897900  0.32477200  0.62719200  1
  C  C3  1  0.11897900  0.17522800  0.12719200  1
  C  C4  1  0.41877800  0.73025200  0.54272300  1
  C  C5  1  0.91877800  0.76974800  0.04272300  1
  C  C6  1  0.58122200  0.26974800  0.45727700  1
  C  C7  1  0.08122200  0.23025200  0.95727700  1
  C  C8  1  0.51111500  0.74156200  0.72112800  1
  C  C9  1  0.01111500  0.75843800  0.22112800  1
  C  C10  1  0.48888500  0.25843800  0.27887200  1
  C  C11  1  0.98888500  0.24156200  0.77887200  1
  C  C12  1  0.62131600  0.74996800  0.84558200  1
  C  C13  1  0.12131600  0.75003200  0.34558200  1
  C  C14  1  0.37868400  0.25003200  0.15441800  1
  C  C15  1  0.87868400  0.24996800  0.65441800  1
  C  C16  1  0.98996300  0.52200700  0.61492100  1
  C  C17  1  0.48996300  0.97799300  0.11492100  1
  C  C18  1  0.01003700  0.47799300  0.38507900  1
  C  C19  1  0.51003700  0.02200700  0.88507900  1
  O  O0  1  0.07116300  0.58660100  0.66839500  1
  O  O1  1  0.57116300  0.91339900  0.16839500  1
  O  O2  1  0.92883700  0.41339900  0.33160500  1
  O  O3  1  0.42883700  0.08660100  0.83160500  1
  O  O4  1  0.10664700  0.50953600  0.26857000  1
  O  O5  1  0.60664700  0.99046400  0.76857000  1
  O  O6  1  0.89335300  0.49046400  0.73143000  1
  O  O7  1  0.39335300  0.00953600  0.23143000  1
loop_
_geom_bond_atom_site_label_1
_geom_bond_atom_site_label_2
_geom_bond_distance
_geom_bond_site_symmetry_2
Ni0 O4 1.986129 1_555
Ni0 O0 2.000717 1_555
Ni1 O5 1.986129 1_555
Ni1 O1 2.000717 1_556
Ni2 O6 1.986129 1_555
Ni2 O2 2.000717 1_555
Ni3 O7 1.986129 1_555
Ni3 O3 2.000717 1_554
C0 C4 1.346428 1_555
C0 P0 1.901845 1_555
C0 Ni0 1.984723 1_555
C1 C5 1.346428 1_556
C1 P1 1.901845 1_555
C1 Ni1 1.984723 1_555
C2 C6 1.346428 1_555
C2 P2 1.901845 1_555
C2 Ni2 1.984723 1_555
C3 C7 1.346428 1_554
C3 P3 1.901845 1_555
C3 Ni3 1.984723 1_555
C4 C8 1.359746 1_555
C4 P0 1.873120 1_555
C5 C9 1.359746 1_655
C5 P1 1.873120 1_554
C6 P2 1.873120 1_555
C7 P3 1.873120 1_556
C10 C14 1.259635 1_555
C10 C6 1.359746 1_555
C11 C15 1.259635 1_555
C11 C7 1.359746 1_655
C12 C8 1.259635 1_555
C12 P1 1.814303 1_555
C12 Ni1 2.231831 1_555
C13 C9 1.259635 1_555
C13 P0 1.814303 1_555
C13 Ni0 2.231831 1_555
C14 P3 1.814303 1_555
C14 Ni3 2.231831 1_555
C15 P2 1.814303 1_555
C15 Ni2 2.231831 1_555
C16 O0 1.267957 1_655
C16 O6 1.268336 1_555
C17 O1 1.267957 1_555
C17 O7 1.268336 1_565
C18 O2 1.267957 1_455
C18 O4 1.268336 1_555
C19 O3 1.267957 1_555
C19 O5 1.268336 1_545
