# generated using pymatgen
data_CaTbEuNbO6
_symmetry_space_group_name_H-M   'P 1'
_cell_length_a   5.72308603
_cell_length_b   5.91570687
_cell_length_c   8.22228911
_cell_angle_alpha   90.01072837
_cell_angle_beta   89.62720852
_cell_angle_gamma   89.90274886
_symmetry_Int_Tables_number   1
_chemical_formula_structural   CaTbEuNbO6
_chemical_formula_sum   'Ca2 Tb2 Eu2 Nb2 O12'
_cell_volume   278.36833841
_cell_formula_units_Z   2
loop_
 _symmetry_equiv_pos_site_id
 _symmetry_equiv_pos_as_xyz
  1  'x, y, z'
loop_
 _atom_site_type_symbol
 _atom_site_label
 _atom_site_symmetry_multiplicity
 _atom_site_fract_x
 _atom_site_fract_y
 _atom_site_fract_z
 _atom_site_occupancy
  Ca  Ca0  1  0.98560636  0.05142580  0.24957631  1
  Ca  Ca1  1  0.01439364  0.94857420  0.75042369  1
  Tb  Tb0  1  0.50000000  -0.00000000  -0.00000000  1
  Tb  Tb1  1  -0.00000000  0.50000000  0.50000000  1
  Eu  Eu0  1  0.51440444  0.55508829  0.24966994  1
  Eu  Eu1  1  0.48559556  0.44491171  0.75033006  1
  Nb  Nb0  1  -0.00000000  0.50000000  -0.00000000  1
  Nb  Nb1  1  0.50000000  -0.00000000  0.50000000  1
  O  O0  1  0.17983753  0.21189327  0.93683900  1
  O  O1  1  0.31774225  0.71360397  0.55781382  1
  O  O2  1  0.82016247  0.78810673  0.06316100  1
  O  O3  1  0.68225775  0.28639603  0.44218618  1
  O  O4  1  0.28777217  0.68824708  0.94790663  1
  O  O5  1  0.21176371  0.18590891  0.56070233  1
  O  O6  1  0.71222783  0.31175292  0.05209337  1
  O  O7  1  0.78823629  0.81409109  0.43929767  1
  O  O8  1  0.38454256  0.96754501  0.26522490  1
  O  O9  1  0.10364281  0.45166275  0.23497528  1
  O  O10  1  0.61545744  0.03245499  0.73477510  1
  O  O11  1  0.89635719  0.54833725  0.76502472  1
loop_
_geom_bond_atom_site_label_1
_geom_bond_atom_site_label_2
_geom_bond_distance
_geom_bond_site_symmetry_2
Ca0 O8 2.339987 1_645
Ca0 O7 2.379883 1_545
Ca0 O2 2.386496 1_545
Ca0 O9 2.466002 1_655
Ca0 O3 2.722029 1_555
Ca0 O6 2.735316 1_555
Ca0 O0 2.952333 1_654
Ca0 O5 2.982989 1_655
Ca1 O10 2.339987 1_465
Ca1 O5 2.379883 1_565
Ca1 O0 2.386496 1_565
Ca1 O11 2.466002 1_455
Ca1 O1 2.722029 1_555
Ca1 O4 2.735316 1_555
Ca1 O2 2.952333 1_456
Ca1 O7 2.982989 1_455
Eu0 O9 2.433899 1_555
Eu0 O6 2.441866 1_555
Eu0 O3 2.443470 1_555
Eu0 O8 2.552387 1_555
Eu0 O7 2.696974 1_555
Eu0 O2 2.699635 1_555
Eu0 O4 2.915174 1_554
Eu0 O1 2.919575 1_555
Eu1 O11 2.433899 1_555
Eu1 O4 2.441866 1_555
Eu1 O1 2.443470 1_555
Eu1 O10 2.552387 1_555
Eu1 O5 2.696974 1_555
Eu1 O0 2.699635 1_555
Eu1 O6 2.915174 1_556
Eu1 O3 2.919575 1_555
Nb0 O4 2.033041 1_554
Nb0 O6 2.033041 1_455
Nb0 O9 2.044726 1_555
Nb0 O11 2.044726 1_454
Nb0 O2 2.054408 1_455
Nb0 O0 2.054408 1_554
Nb1 O7 2.040279 1_545
Nb1 O5 2.040279 1_555
Nb1 O3 2.045546 1_555
Nb1 O1 2.045546 1_545
Nb1 O8 2.053478 1_545
Nb1 O10 2.053478 1_555
O0 Tb0 2.281047 1_556
O1 Tb1 2.268996 1_555
O2 Tb0 2.281047 1_565
O3 Tb1 2.268996 1_655
O4 Tb0 2.252556 1_566
O5 Tb1 2.273965 1_555
O6 Tb0 2.252556 1_555
O7 Tb1 2.273965 1_655
O8 Tb0 2.282765 1_565
O9 Tb1 2.272552 1_555
O10 Tb0 2.282765 1_556
O11 Tb1 2.272552 1_655
