# generated using pymatgen
data_TiH2
_symmetry_space_group_name_H-M   'P 1'
_cell_length_a   2.91241961
_cell_length_b   2.91241961
_cell_length_c   4.86287546
_cell_angle_alpha   90.00000000
_cell_angle_beta   90.00000000
_cell_angle_gamma   90.00000000
_symmetry_Int_Tables_number   1
_chemical_formula_structural   TiH2
_chemical_formula_sum   'Ti2 H4'
_cell_volume   41.24782380
_cell_formula_units_Z   2
loop_
 _symmetry_equiv_pos_site_id
 _symmetry_equiv_pos_as_xyz
  1  'x, y, z'
loop_
 _atom_site_type_symbol
 _atom_site_label
 _atom_site_symmetry_multiplicity
 _atom_site_fract_x
 _atom_site_fract_y
 _atom_site_fract_z
 _atom_site_occupancy
  Ti  Ti0  1  0.50000000  -0.00000000  0.26425876  1
  Ti  Ti1  1  0.00000000  0.50000000  0.73574124  1
  H  H0  1  0.50000000  0.50000000  0.00000000  1
  H  H1  1  -0.00000000  -0.00000000  0.00000000  1
  H  H2  1  0.00000000  0.50000000  0.34793706  1
  H  H3  1  0.50000000  -0.00000000  0.65206294  1
loop_
_geom_bond_atom_site_label_1
_geom_bond_atom_site_label_2
_geom_bond_distance
_geom_bond_site_symmetry_2
H0 Ti1 1.942143 1_654
H0 Ti1 1.942143 1_554
H0 Ti0 1.942143 1_565
H0 Ti0 1.942143 1_555
H1 Ti1 1.942143 1_554
H1 Ti0 1.942143 1_455
H1 Ti1 1.942143 1_544
H1 Ti0 1.942143 1_555
H2 Ti1 1.885843 1_555
H2 Ti0 2.099208 1_465
H2 Ti0 2.099208 1_455
H2 Ti0 2.099208 1_555
H2 Ti0 2.099208 1_565
H3 Ti0 1.885843 1_555
H3 Ti1 2.099208 1_555
H3 Ti1 2.099208 1_655
H3 Ti1 2.099208 1_645
H3 Ti1 2.099208 1_545
