# generated using pymatgen
data_ZnSn3(P2O7)2
_symmetry_space_group_name_H-M   'P 1'
_cell_length_a   8.26691500
_cell_length_b   8.13510600
_cell_length_c   10.04028329
_cell_angle_alpha   76.23165587
_cell_angle_beta   90.00000000
_cell_angle_gamma   90.00000000
_symmetry_Int_Tables_number   1
_chemical_formula_structural   ZnSn3(P2O7)2
_chemical_formula_sum   'Zn2 Sn6 P8 O28'
_cell_volume   655.82928596
_cell_formula_units_Z   2
loop_
 _symmetry_equiv_pos_site_id
 _symmetry_equiv_pos_as_xyz
  1  'x, y, z'
loop_
 _atom_site_type_symbol
 _atom_site_label
 _atom_site_symmetry_multiplicity
 _atom_site_fract_x
 _atom_site_fract_y
 _atom_site_fract_z
 _atom_site_occupancy
  Zn  Zn0  1  0.00000000  0.50000000  0.00000000  1
  Zn  Zn1  1  0.50000000  0.50000000  0.50000000  1
  Sn  Sn0  1  0.13737000  0.80305600  0.51716400  1
  Sn  Sn1  1  0.63737000  0.19694400  0.98283600  1
  Sn  Sn2  1  0.86263000  0.19694400  0.48283600  1
  Sn  Sn3  1  0.36263000  0.80305600  0.01716400  1
  Sn  Sn4  1  0.00000000  0.00000000  0.00000000  1
  Sn  Sn5  1  0.50000000  0.00000000  0.50000000  1
  P  P0  1  0.96185900  0.43930200  0.70590900  1
  P  P1  1  0.46185900  0.56069800  0.79409100  1
  P  P2  1  0.03814100  0.56069800  0.29409100  1
  P  P3  1  0.53814100  0.43930200  0.20590900  1
  P  P4  1  0.20308600  0.18072300  0.67407100  1
  P  P5  1  0.70308600  0.81927700  0.82592900  1
  P  P6  1  0.79691400  0.81927700  0.32592900  1
  P  P7  1  0.29691400  0.18072300  0.17407100  1
  O  O0  1  0.36571800  0.21759100  0.59981100  1
  O  O1  1  0.86571800  0.78240900  0.90018900  1
  O  O2  1  0.63428200  0.78240900  0.40018900  1
  O  O3  1  0.13428200  0.21759100  0.09981100  1
  O  O4  1  0.44299400  0.60959200  0.63536200  1
  O  O5  1  0.94299400  0.39040800  0.86463800  1
  O  O6  1  0.55700600  0.39040800  0.36463800  1
  O  O7  1  0.05700600  0.60959200  0.13536200  1
  O  O8  1  0.83082500  0.34845200  0.64253600  1
  O  O9  1  0.33082500  0.65154800  0.85746400  1
  O  O10  1  0.16917500  0.65154800  0.35746400  1
  O  O11  1  0.66917500  0.34845200  0.14253600  1
  O  O12  1  0.13588900  0.37071100  0.67105300  1
  O  O13  1  0.63588900  0.62928900  0.82894700  1
  O  O14  1  0.86411100  0.62928900  0.32894700  1
  O  O15  1  0.36411100  0.37071100  0.17105300  1
  O  O16  1  0.53009600  0.62965000  0.14862800  1
  O  O17  1  0.03009600  0.37035000  0.35137200  1
  O  O18  1  0.46990400  0.37035000  0.85137200  1
  O  O19  1  0.96990400  0.62965000  0.64862800  1
  O  O20  1  0.79256700  0.92183500  0.17853300  1
  O  O21  1  0.29256700  0.07816500  0.32146700  1
  O  O22  1  0.20743300  0.07816500  0.82146700  1
  O  O23  1  0.70743300  0.92183500  0.67853300  1
  O  O24  1  0.42203900  0.09964300  0.09162800  1
  O  O25  1  0.92203900  0.90035700  0.40837200  1
  O  O26  1  0.57796100  0.90035700  0.90837200  1
  O  O27  1  0.07796100  0.09964300  0.59162800  1
loop_
_geom_bond_atom_site_label_1
_geom_bond_atom_site_label_2
_geom_bond_distance
_geom_bond_site_symmetry_2
O0 P4 1.531994 1_555
O0 Sn5 2.492848 1_555
O1 P5 1.531994 1_555
O1 Sn4 2.492848 1_666
O2 P6 1.531994 1_555
O2 Sn5 2.492848 1_565
O3 P7 1.531994 1_555
O3 Sn4 2.492848 1_555
O4 P1 1.555837 1_555
O4 Zn1 1.854930 1_555
O5 P0 1.555837 1_555
O5 Zn0 1.854930 1_656
O6 P3 1.555837 1_555
O6 Zn1 1.854930 1_555
O7 P2 1.555837 1_555
O7 Zn0 1.854930 1_555
O8 P0 1.532433 1_555
O8 Sn2 2.258311 1_555
O9 P1 1.532433 1_555
O9 Sn3 2.258311 1_556
O10 P2 1.532433 1_555
O10 Sn0 2.258311 1_555
O11 P3 1.532433 1_555
O11 Sn1 2.258311 1_554
O12 P0 1.611402 1_455
O12 P4 1.635853 1_555
O13 P1 1.611402 1_555
O13 P5 1.635853 1_555
O14 P2 1.611402 1_655
O14 P6 1.635853 1_555
O15 P3 1.611402 1_555
O15 P7 1.635853 1_555
O16 P3 1.519583 1_555
O16 Sn3 2.182333 1_555
O17 P2 1.519583 1_555
O17 Sn2 2.182333 1_455
O18 P1 1.519583 1_555
O18 Sn1 2.182333 1_555
O19 P0 1.519583 1_555
O19 Sn0 2.182333 1_655
O20 P6 1.516498 1_555
O20 Sn4 2.452666 1_665
O21 P7 1.516498 1_555
O21 Sn5 2.452666 1_555
O22 P4 1.516498 1_555
O22 Sn4 2.452666 1_556
O23 P5 1.516498 1_555
O23 Sn5 2.452666 1_565
O24 P7 1.565279 1_555
O24 Sn1 2.139385 1_554
O25 P6 1.565279 1_555
O25 Sn0 2.139385 1_655
O26 P5 1.565279 1_555
O26 Sn3 2.139385 1_556
O27 P4 1.565279 1_555
O27 Sn2 2.139385 1_455
