# generated using pymatgen
data_Y2AlN3
_symmetry_space_group_name_H-M   'P 1'
_cell_length_a   6.43688301
_cell_length_b   6.27627078
_cell_length_c   5.13815100
_cell_angle_alpha   90.00000000
_cell_angle_beta   90.00000000
_cell_angle_gamma   119.17797298
_symmetry_Int_Tables_number   1
_chemical_formula_structural   Y2AlN3
_chemical_formula_sum   'Y4 Al2 N6'
_cell_volume   181.23951791
_cell_formula_units_Z   2
loop_
 _symmetry_equiv_pos_site_id
 _symmetry_equiv_pos_as_xyz
  1  'x, y, z'
loop_
 _atom_site_type_symbol
 _atom_site_label
 _atom_site_symmetry_multiplicity
 _atom_site_fract_x
 _atom_site_fract_y
 _atom_site_fract_z
 _atom_site_occupancy
  Y  Y0  1  0.31756600  0.34164300  0.45494700  1
  Y  Y1  1  0.68243400  0.02407700  0.45494700  1
  Y  Y2  1  0.68243400  0.65835700  0.95494700  1
  Y  Y3  1  0.31756600  0.97592300  0.95494700  1
  Al  Al0  1  0.00000000  0.65863100  0.48222900  1
  Al  Al1  1  0.00000000  0.34136900  0.98222900  1
  N  N0  1  0.29665000  0.33201500  0.91589800  1
  N  N1  1  0.70335000  0.03536500  0.91589800  1
  N  N2  1  0.70335000  0.66798500  0.41589800  1
  N  N3  1  0.29665000  0.96463500  0.41589800  1
  N  N4  1  0.00000000  0.62134800  0.84808000  1
  N  N5  1  0.00000000  0.37865200  0.34808000  1
loop_
_geom_bond_atom_site_label_1
_geom_bond_atom_site_label_2
_geom_bond_distance
_geom_bond_site_symmetry_2
Al0 N5 1.887575 1_555
Al0 N4 1.894306 1_555
Al0 N2 1.968529 1_455
Al0 N3 1.968529 1_555
Al1 N4 1.887575 1_555
Al1 N5 1.894306 1_556
Al1 N0 1.968529 1_555
Al1 N1 1.968529 1_455
N0 Y3 2.312290 1_545
N0 Y2 2.332946 1_555
N0 Y0 2.371357 1_555
N0 Y0 2.772213 1_556
N1 Y2 2.312290 1_545
N1 Y3 2.332946 1_545
N1 Y1 2.371357 1_555
N1 Y1 2.772213 1_556
N2 Y1 2.312290 1_565
N2 Y0 2.332946 1_555
N2 Y2 2.371357 1_554
N2 Y2 2.772213 1_555
N3 Y0 2.312290 1_565
N3 Y1 2.332946 1_565
N3 Y3 2.371357 1_554
N3 Y3 2.772213 1_555
N4 Y2 2.235378 1_455
N4 Y3 2.235378 1_555
N5 Y0 2.235378 1_555
N5 Y1 2.235378 1_455
