# generated using pymatgen
data_UP2H2CO7
_symmetry_space_group_name_H-M   'P 1'
_cell_length_a   8.47572500
_cell_length_b   11.39486800
_cell_length_c   13.99815300
_cell_angle_alpha   90.00000000
_cell_angle_beta   90.00000000
_cell_angle_gamma   90.00000000
_symmetry_Int_Tables_number   1
_chemical_formula_structural   UP2H2CO7
_chemical_formula_sum   'U8 P16 H16 C8 O56'
_cell_volume   1351.93836328
_cell_formula_units_Z   8
loop_
 _symmetry_equiv_pos_site_id
 _symmetry_equiv_pos_as_xyz
  1  'x, y, z'
loop_
 _atom_site_type_symbol
 _atom_site_label
 _atom_site_symmetry_multiplicity
 _atom_site_fract_x
 _atom_site_fract_y
 _atom_site_fract_z
 _atom_site_occupancy
  U  U0  1  0.66711200  0.77339200  0.14545300  1
  U  U1  1  0.16711200  0.72660800  0.85454700  1
  U  U2  1  0.33288800  0.27339200  0.35454700  1
  U  U3  1  0.83288800  0.22660800  0.64545300  1
  U  U4  1  0.33288800  0.22660800  0.85454700  1
  U  U5  1  0.83288800  0.27339200  0.14545300  1
  U  U6  1  0.66711200  0.72660800  0.64545300  1
  U  U7  1  0.16711200  0.77339200  0.35454700  1
  P  P0  1  0.50426500  0.97620100  0.32546000  1
  P  P1  1  0.00426500  0.52379900  0.67454000  1
  P  P2  1  0.49573500  0.47620100  0.17454000  1
  P  P3  1  0.99573500  0.02379900  0.82546000  1
  P  P4  1  0.49573500  0.02379900  0.67454000  1
  P  P5  1  0.99573500  0.47620100  0.32546000  1
  P  P6  1  0.50426500  0.52379900  0.82546000  1
  P  P7  1  0.00426500  0.97620100  0.17454000  1
  P  P8  1  0.75296500  0.80707400  0.40067800  1
  P  P9  1  0.25296500  0.69292600  0.59932200  1
  P  P10  1  0.24703500  0.30707400  0.09932200  1
  P  P11  1  0.74703500  0.19292600  0.90067800  1
  P  P12  1  0.24703500  0.19292600  0.59932200  1
  P  P13  1  0.74703500  0.30707400  0.40067800  1
  P  P14  1  0.75296500  0.69292600  0.90067800  1
  P  P15  1  0.25296500  0.80707400  0.09932200  1
  H  H0  1  0.76237300  0.01665300  0.38130200  1
  H  H1  1  0.26237300  0.48334700  0.61869800  1
  H  H2  1  0.23762700  0.51665300  0.11869800  1
  H  H3  1  0.73762700  0.98334700  0.88130200  1
  H  H4  1  0.23762700  0.98334700  0.61869800  1
  H  H5  1  0.73762700  0.51665300  0.38130200  1
  H  H6  1  0.76237300  0.48334700  0.88130200  1
  H  H7  1  0.26237300  0.01665300  0.11869800  1
  H  H8  1  0.64045400  0.97585600  0.47842300  1
  H  H9  1  0.14045400  0.52414400  0.52157700  1
  H  H10  1  0.35954600  0.47585600  0.02157700  1
  H  H11  1  0.85954600  0.02414400  0.97842300  1
  H  H12  1  0.35954600  0.02414400  0.52157700  1
  H  H13  1  0.85954600  0.47585600  0.47842300  1
  H  H14  1  0.64045400  0.52414400  0.97842300  1
  H  H15  1  0.14045400  0.97585600  0.02157700  1
  C  C0  1  0.67138200  0.95415800  0.40459600  1
  C  C1  1  0.17138200  0.54584200  0.59540400  1
  C  C2  1  0.32861800  0.45415800  0.09540400  1
  C  C3  1  0.82861800  0.04584200  0.90459600  1
  C  C4  1  0.32861800  0.04584200  0.59540400  1
  C  C5  1  0.82861800  0.45415800  0.40459600  1
  C  C6  1  0.67138200  0.54584200  0.90459600  1
  C  C7  1  0.17138200  0.95415800  0.09540400  1
  O  O0  1  0.55320600  0.93563900  0.22548100  1
  O  O1  1  0.05320600  0.56436100  0.77451900  1
  O  O2  1  0.44679400  0.43563900  0.27451900  1
  O  O3  1  0.94679400  0.06436100  0.72548100  1
  O  O4  1  0.44679400  0.06436100  0.77451900  1
  O  O5  1  0.94679400  0.43563900  0.22548100  1
  O  O6  1  0.55320600  0.56436100  0.72548100  1
  O  O7  1  0.05320600  0.93563900  0.27451900  1
  O  O8  1  0.93439700  0.81694100  0.41336700  1
  O  O9  1  0.43439700  0.68305900  0.58663300  1
  O  O10  1  0.06560300  0.31694100  0.08663300  1
  O  O11  1  0.56560300  0.18305900  0.91336700  1
  O  O12  1  0.06560300  0.18305900  0.58663300  1
  O  O13  1  0.56560300  0.31694100  0.41336700  1
  O  O14  1  0.93439700  0.68305900  0.91336700  1
  O  O15  1  0.43439700  0.81694100  0.08663300  1
  O  O16  1  0.71373400  0.75355700  0.30239300  1
  O  O17  1  0.21373400  0.74644300  0.69760700  1
  O  O18  1  0.28626600  0.25355700  0.19760700  1
  O  O19  1  0.78626600  0.24644300  0.80239300  1
  O  O20  1  0.28626600  0.24644300  0.69760700  1
  O  O21  1  0.78626600  0.25355700  0.30239300  1
  O  O22  1  0.71373400  0.74644300  0.80239300  1
  O  O23  1  0.21373400  0.75355700  0.19760700  1
  O  O24  1  0.35811300  0.90937000  0.36392800  1
  O  O25  1  0.85811300  0.59063000  0.63607200  1
  O  O26  1  0.64188700  0.40937000  0.13607200  1
  O  O27  1  0.14188700  0.09063000  0.86392800  1
  O  O28  1  0.64188700  0.09063000  0.63607200  1
  O  O29  1  0.14188700  0.40937000  0.36392800  1
  O  O30  1  0.35811300  0.59063000  0.86392800  1
  O  O31  1  0.85811300  0.90937000  0.13607200  1
  O  O32  1  0.83266900  0.67283300  0.13225900  1
  O  O33  1  0.33266900  0.82716700  0.86774100  1
  O  O34  1  0.16733100  0.17283300  0.36774100  1
  O  O35  1  0.66733100  0.32716700  0.63225900  1
  O  O36  1  0.16733100  0.32716700  0.86774100  1
  O  O37  1  0.66733100  0.17283300  0.13225900  1
  O  O38  1  0.83266900  0.82716700  0.63225900  1
  O  O39  1  0.33266900  0.67283300  0.36774100  1
  O  O40  1  0.46971000  0.10972300  0.33023800  1
  O  O41  1  0.96971000  0.39027700  0.66976200  1
  O  O42  1  0.53029000  0.60972300  0.16976200  1
  O  O43  1  0.03029000  0.89027700  0.83023800  1
  O  O44  1  0.53029000  0.89027700  0.66976200  1
  O  O45  1  0.03029000  0.60972300  0.33023800  1
  O  O46  1  0.46971000  0.39027700  0.83023800  1
  O  O47  1  0.96971000  0.10972300  0.16976200  1
  O  O48  1  0.68064000  0.73360200  0.48165500  1
  O  O49  1  0.18064000  0.76639800  0.51834500  1
  O  O50  1  0.31936000  0.23360200  0.01834500  1
  O  O51  1  0.81936000  0.26639800  0.98165500  1
  O  O52  1  0.31936000  0.26639800  0.51834500  1
  O  O53  1  0.81936000  0.23360200  0.48165500  1
  O  O54  1  0.68064000  0.76639800  0.98165500  1
  O  O55  1  0.18064000  0.73360200  0.01834500  1
loop_
_geom_bond_atom_site_label_1
_geom_bond_atom_site_label_2
_geom_bond_distance
_geom_bond_site_symmetry_2
C0 H8 1.094462 1_555
C0 H0 1.099188 1_565
C0 P8 1.813872 1_555
C0 P0 1.815630 1_555
C1 H9 1.094462 1_555
C1 H1 1.099188 1_555
C1 P9 1.813872 1_555
C1 P1 1.815630 1_555
C2 H10 1.094462 1_555
C2 H2 1.099188 1_555
C2 P10 1.813872 1_555
C2 P2 1.815630 1_555
C3 H11 1.094462 1_555
C3 H3 1.099188 1_545
C3 P11 1.813872 1_555
C3 P3 1.815630 1_555
C4 H12 1.094462 1_555
C4 H4 1.099188 1_545
C4 P12 1.813872 1_555
C4 P4 1.815630 1_555
C5 H13 1.094462 1_555
C5 H5 1.099188 1_555
C5 P13 1.813872 1_555
C5 P5 1.815630 1_555
C6 H14 1.094462 1_555
C6 H6 1.099188 1_555
C6 P14 1.813872 1_555
C6 P6 1.815630 1_555
C7 H15 1.094462 1_555
C7 H7 1.099188 1_565
C7 P15 1.813872 1_555
C7 P7 1.815630 1_555
O0 P0 1.531129 1_555
O0 U0 2.367491 1_555
O1 P1 1.531129 1_555
O1 U1 2.367491 1_555
O2 P2 1.531129 1_555
O2 U2 2.367491 1_555
O3 P3 1.531129 1_555
O3 U3 2.367491 1_555
O4 P4 1.531129 1_555
O4 U4 2.367491 1_555
O5 P5 1.531129 1_555
O5 U5 2.367491 1_555
O6 P6 1.531129 1_555
O6 U6 2.367491 1_555
O7 P7 1.531129 1_555
O7 U7 2.367491 1_555
O8 P8 1.552070 1_555
O8 U7 2.194234 1_655
O9 P9 1.552070 1_555
O9 U6 2.194234 1_555
O10 P10 1.552070 1_555
O10 U5 2.194234 1_455
O11 P11 1.552070 1_555
O11 U4 2.194234 1_555
O12 P12 1.552070 1_555
O12 U3 2.194234 1_455
O13 P13 1.552070 1_555
O13 U2 2.194234 1_555
O14 P14 1.552070 1_555
O14 U1 2.194234 1_655
O15 P15 1.552070 1_555
O15 U0 2.194234 1_555
O16 P8 1.541198 1_555
O16 U0 2.243540 1_555
O17 P9 1.541198 1_555
O17 U1 2.243540 1_555
O18 P10 1.541198 1_555
O18 U2 2.243540 1_555
O19 P11 1.541198 1_555
O19 U3 2.243540 1_555
O20 P12 1.541198 1_555
O20 U4 2.243540 1_555
O21 P13 1.541198 1_555
O21 U5 2.243540 1_555
O22 P14 1.541198 1_555
O22 U6 2.243540 1_555
O23 P15 1.541198 1_555
O23 U7 2.243540 1_555
O24 P0 1.550605 1_555
O24 U7 2.244725 1_555
O25 P1 1.550605 1_655
O25 U6 2.244725 1_555
O26 P2 1.550605 1_555
O26 U5 2.244725 1_555
O27 P3 1.550605 1_455
O27 U4 2.244725 1_555
O28 P4 1.550605 1_555
O28 U3 2.244725 1_555
O29 P5 1.550605 1_455
O29 U2 2.244725 1_555
O30 P6 1.550605 1_555
O30 U1 2.244725 1_555
O31 P7 1.550605 1_655
O31 U0 2.244725 1_555
O32 U0 1.821020 1_555
O33 U1 1.821020 1_555
O34 U2 1.821020 1_555
O35 U3 1.821020 1_555
O36 U4 1.821020 1_555
O37 U5 1.821020 1_555
O38 U6 1.821020 1_555
O39 U7 1.821020 1_555
O40 P0 1.550841 1_545
O40 U2 2.222339 1_555
O41 P1 1.550841 1_655
O41 U3 2.222339 1_555
O42 P2 1.550841 1_555
O42 U0 2.222339 1_555
O43 P3 1.550841 1_465
O43 U1 2.222339 1_555
O44 P4 1.550841 1_565
O44 U6 2.222339 1_555
O45 P5 1.550841 1_455
O45 U7 2.222339 1_555
O46 P6 1.550841 1_555
O46 U4 2.222339 1_555
O47 P7 1.550841 1_645
O47 U5 2.222339 1_555
O48 P8 1.536741 1_555
O48 U6 2.297117 1_555
O49 P9 1.536741 1_555
O49 U7 2.297117 1_555
O50 P10 1.536741 1_555
O50 U4 2.297117 1_554
O51 P11 1.536741 1_555
O51 U5 2.297117 1_556
O52 P12 1.536741 1_555
O52 U2 2.297117 1_555
O53 P13 1.536741 1_555
O53 U3 2.297117 1_555
O54 P14 1.536741 1_555
O54 U0 2.297117 1_556
O55 P15 1.536741 1_555
O55 U1 2.297117 1_554
