# generated using pymatgen
data_Li2GePbS4
_symmetry_space_group_name_H-M   'P 1'
_cell_length_a   6.10099473
_cell_length_b   6.10099473
_cell_length_c   6.10099473
_cell_angle_alpha   114.83991962
_cell_angle_beta   114.83991962
_cell_angle_gamma   99.19709218
_symmetry_Int_Tables_number   1
_chemical_formula_structural   Li2GePbS4
_chemical_formula_sum   'Li2 Ge1 Pb1 S4'
_cell_volume   170.71237400
_cell_formula_units_Z   1
loop_
 _symmetry_equiv_pos_site_id
 _symmetry_equiv_pos_as_xyz
  1  'x, y, z'
loop_
 _atom_site_type_symbol
 _atom_site_label
 _atom_site_symmetry_multiplicity
 _atom_site_fract_x
 _atom_site_fract_y
 _atom_site_fract_z
 _atom_site_occupancy
  Li  Li0  1  0.75000000  0.25000000  0.50000000  1
  Li  Li1  1  0.25000000  0.75000000  0.50000000  1
  Ge  Ge0  1  0.50000000  0.50000000  0.00000000  1
  Pb  Pb0  1  0.00000000  0.00000000  0.00000000  1
  S  S0  1  0.46580300  0.85981900  0.00000000  1
  S  S1  1  0.14018100  0.14018100  0.60598500  1
  S  S2  1  0.53419700  0.53419700  0.39401500  1
  S  S3  1  0.85981900  0.46580300  0.00000000  1
loop_
_geom_bond_atom_site_label_1
_geom_bond_atom_site_label_2
_geom_bond_distance
_geom_bond_site_symmetry_2
Li0 S1 2.472722 1_655
Li0 S3 2.472722 1_556
Li0 S0 2.472722 1_545
Li0 S2 2.472724 1_555
Li1 S1 2.472722 1_565
Li1 S0 2.472722 1_556
Li1 S3 2.472722 1_455
Li1 S2 2.472724 1_555
Ge0 S2 2.238090 1_555
Ge0 S1 2.238095 1_554
Ge0 S3 2.238097 1_555
Ge0 S0 2.238097 1_555
Pb0 S0 3.095893 1_545
Pb0 S3 3.095893 1_455
Pb0 S2 3.095895 1_444
Pb0 S1 3.095899 1_555
Pb0 S1 3.234554 1_554
Pb0 S3 3.234560 1_445
Pb0 S0 3.234560 1_445
Pb0 S2 3.234561 1_555
