# generated using pymatgen
data_Dy6Al7Cu16
_symmetry_space_group_name_H-M   'P 1'
_cell_length_a   8.69704430
_cell_length_b   8.69704430
_cell_length_c   8.69704430
_cell_angle_alpha   60.00000000
_cell_angle_beta   60.00000000
_cell_angle_gamma   60.00000000
_symmetry_Int_Tables_number   1
_chemical_formula_structural   Dy6Al7Cu16
_chemical_formula_sum   'Dy6 Al7 Cu16'
_cell_volume   465.15752248
_cell_formula_units_Z   1
loop_
 _symmetry_equiv_pos_site_id
 _symmetry_equiv_pos_as_xyz
  1  'x, y, z'
loop_
 _atom_site_type_symbol
 _atom_site_label
 _atom_site_symmetry_multiplicity
 _atom_site_fract_x
 _atom_site_fract_y
 _atom_site_fract_z
 _atom_site_occupancy
  Dy  Dy0  1  0.71347600  0.71347600  0.28652400  1
  Dy  Dy1  1  0.28652400  0.71347600  0.28652400  1
  Dy  Dy2  1  0.71347600  0.28652400  0.28652400  1
  Dy  Dy3  1  0.28652400  0.28652400  0.71347600  1
  Dy  Dy4  1  0.71347600  0.28652400  0.71347600  1
  Dy  Dy5  1  0.28652400  0.71347600  0.71347600  1
  Al  Al0  1  0.00000000  0.00000000  0.00000000  1
  Al  Al1  1  0.00000000  0.00000000  0.50000000  1
  Al  Al2  1  0.50000000  0.00000000  0.50000000  1
  Al  Al3  1  0.00000000  0.50000000  0.50000000  1
  Al  Al4  1  0.50000000  0.50000000  0.00000000  1
  Al  Al5  1  0.00000000  0.50000000  0.00000000  1
  Al  Al6  1  0.50000000  0.00000000  0.00000000  1
  Cu  Cu0  1  0.87837100  0.87837100  0.36488800  1
  Cu  Cu1  1  0.87837100  0.36488800  0.87837100  1
  Cu  Cu2  1  0.36488800  0.87837100  0.87837100  1
  Cu  Cu3  1  0.87837100  0.87837100  0.87837100  1
  Cu  Cu4  1  0.12162900  0.12162900  0.63511200  1
  Cu  Cu5  1  0.12162900  0.63511200  0.12162900  1
  Cu  Cu6  1  0.63511200  0.12162900  0.12162900  1
  Cu  Cu7  1  0.12162900  0.12162900  0.12162900  1
  Cu  Cu8  1  0.67312100  0.67312100  0.98063800  1
  Cu  Cu9  1  0.67312100  0.98063800  0.67312100  1
  Cu  Cu10  1  0.98063800  0.67312100  0.67312100  1
  Cu  Cu11  1  0.67312100  0.67312100  0.67312100  1
  Cu  Cu12  1  0.32687900  0.32687900  0.01936200  1
  Cu  Cu13  1  0.32687900  0.01936200  0.32687900  1
  Cu  Cu14  1  0.01936200  0.32687900  0.32687900  1
  Cu  Cu15  1  0.32687900  0.32687900  0.32687900  1
loop_
_geom_bond_atom_site_label_1
_geom_bond_atom_site_label_2
_geom_bond_distance
_geom_bond_site_symmetry_2
Al0 Cu7 2.591102 1_555
Al0 Cu3 2.591102 1_444
Al0 Cu0 2.591109 1_445
Al0 Cu4 2.591109 1_554
Al0 Cu2 2.591109 1_544
Al0 Cu5 2.591109 1_545
Al0 Cu6 2.591109 1_455
Al0 Cu1 2.591109 1_454
Al1 Cu13 2.514380 1_555
Al1 Cu14 2.514380 1_555
Al1 Cu9 2.514380 1_445
Al1 Cu10 2.514380 1_445
Al1 Cu4 2.687699 1_555
Al1 Cu0 2.687699 1_445
Al1 Cu7 2.687706 1_555
Al1 Cu3 2.687706 1_445
Al1 Dy2 3.107511 1_455
Al1 Dy4 3.107511 1_455
Al1 Dy5 3.107511 1_545
Al1 Dy1 3.107511 1_545
Al2 Cu15 2.514383 1_555
Al2 Cu11 2.514383 1_545
Al2 Cu9 2.514387 1_545
Al2 Cu13 2.514387 1_555
Al2 Cu2 2.687706 1_545
Al2 Cu6 2.687706 1_555
Al2 Cu0 2.687706 1_545
Al2 Cu4 2.687706 1_555
Al2 Dy0 3.107511 1_545
Al2 Dy3 3.107511 1_555
Al2 Dy5 3.107511 1_545
Al2 Dy2 3.107511 1_555
Al3 Cu11 2.514383 1_455
Al3 Cu15 2.514383 1_555
Al3 Cu10 2.514387 1_455
Al3 Cu14 2.514387 1_555
Al3 Cu5 2.687706 1_555
Al3 Cu0 2.687706 1_455
Al3 Cu4 2.687706 1_555
Al3 Cu1 2.687706 1_455
Al3 Dy3 3.107511 1_555
Al3 Dy4 3.107511 1_455
Al3 Dy0 3.107511 1_455
Al3 Dy1 3.107511 1_555
Al4 Cu11 2.514383 1_554
Al4 Cu15 2.514383 1_555
Al4 Cu12 2.514387 1_555
Al4 Cu8 2.514387 1_554
Al4 Cu5 2.687706 1_555
Al4 Cu6 2.687706 1_555
Al4 Cu2 2.687706 1_554
Al4 Cu1 2.687706 1_554
Al4 Dy5 3.107511 1_554
Al4 Dy4 3.107511 1_554
Al4 Dy1 3.107511 1_555
Al4 Dy2 3.107511 1_555
Al5 Cu12 2.514380 1_555
Al5 Cu8 2.514380 1_454
Al5 Cu14 2.514380 1_555
Al5 Cu10 2.514380 1_454
Al5 Cu5 2.687699 1_555
Al5 Cu1 2.687699 1_454
Al5 Cu7 2.687706 1_555
Al5 Cu3 2.687706 1_454
Al5 Dy5 3.107511 1_554
Al5 Dy2 3.107511 1_455
Al5 Dy3 3.107511 1_554
Al5 Dy0 3.107511 1_455
Al6 Cu13 2.514380 1_555
Al6 Cu8 2.514380 1_544
Al6 Cu9 2.514380 1_544
Al6 Cu12 2.514380 1_555
Al6 Cu2 2.687699 1_544
Al6 Cu6 2.687699 1_555
Al6 Cu7 2.687706 1_555
Al6 Cu3 2.687706 1_544
Al6 Dy0 3.107511 1_545
Al6 Dy4 3.107511 1_554
Al6 Dy3 3.107511 1_554
Al6 Dy1 3.107511 1_545
Cu0 Cu10 2.678642 1_555
Cu0 Cu9 2.678642 1_555
Cu0 Cu11 2.678642 1_555
Cu0 Dy2 2.930724 1_565
Cu0 Dy1 2.930724 1_655
Cu0 Dy0 2.930732 1_555
Cu0 Cu7 2.991946 1_665
Cu0 Cu5 2.991959 1_655
Cu0 Cu6 2.991959 1_565
Cu1 Cu10 2.678642 1_555
Cu1 Cu8 2.678642 1_555
Cu1 Cu11 2.678642 1_555
Cu1 Dy3 2.930724 1_655
Cu1 Dy2 2.930724 1_556
Cu1 Dy4 2.930732 1_555
Cu1 Cu7 2.991946 1_656
Cu1 Cu4 2.991959 1_655
Cu1 Cu6 2.991959 1_556
Cu2 Cu9 2.678642 1_555
Cu2 Cu8 2.678642 1_555
Cu2 Dy3 2.930724 1_565
Cu2 Dy1 2.930724 1_556
Cu2 Dy5 2.930732 1_555
Cu2 Cu7 2.991946 1_566
Cu2 Cu5 2.991959 1_556
Cu2 Cu4 2.991959 1_565
Cu3 Cu9 2.678642 1_555
Cu3 Cu8 2.678642 1_555
Cu3 Dy4 2.930726 1_565
Cu3 Dy5 2.930726 1_655
Cu3 Dy0 2.930726 1_556
Cu3 Cu6 2.991946 1_566
Cu3 Cu4 2.991946 1_665
Cu3 Cu5 2.991946 1_656
Cu4 Dy5 2.930724 1_545
Cu4 Dy4 2.930724 1_455
Cu4 Dy3 2.930732 1_555
Cu5 Dy0 2.930724 1_455
Cu5 Dy5 2.930724 1_554
Cu5 Dy1 2.930732 1_555
Cu6 Dy4 2.930724 1_554
Cu6 Dy0 2.930724 1_545
Cu6 Dy2 2.930732 1_555
Cu7 Dy2 2.930726 1_455
Cu7 Dy3 2.930726 1_554
Cu7 Dy1 2.930726 1_545
Cu8 Cu9 2.674489 1_555
Cu8 Dy0 3.051905 1_556
Cu8 Dy1 3.051911 1_556
Cu8 Dy2 3.051911 1_556
Cu9 Dy4 3.051905 1_565
Cu9 Dy2 3.051911 1_565
Cu9 Dy3 3.051911 1_565
Cu10 Cu9 2.674489 1_555
Cu10 Cu8 2.674489 1_555
Cu10 Cu11 2.674489 1_555
Cu10 Cu3 2.678642 1_555
Cu10 Dy5 3.051905 1_655
Cu10 Dy3 3.051911 1_655
Cu10 Dy1 3.051911 1_655
Cu11 Cu9 2.674489 1_555
Cu11 Cu8 2.674489 1_555
Cu11 Cu2 2.678642 1_555
Cu11 Dy4 3.051914 1_555
Cu11 Dy5 3.051914 1_555
Cu11 Dy0 3.051914 1_555
Cu12 Cu13 2.674489 1_555
Cu12 Cu15 2.674489 1_555
Cu12 Cu14 2.674489 1_555
Cu12 Cu7 2.678642 1_555
Cu12 Cu5 2.678642 1_555
Cu12 Cu6 2.678642 1_555
Cu12 Dy3 3.051905 1_554
Cu12 Dy5 3.051911 1_554
Cu12 Dy4 3.051911 1_554
Cu13 Cu15 2.674489 1_555
Cu13 Cu14 2.674489 1_555
Cu13 Cu6 2.678642 1_555
Cu13 Cu7 2.678642 1_555
Cu13 Cu4 2.678642 1_555
Cu13 Dy1 3.051905 1_545
Cu13 Dy5 3.051911 1_545
Cu13 Dy0 3.051911 1_545
Cu14 Cu15 2.674489 1_555
Cu14 Cu7 2.678642 1_555
Cu14 Cu5 2.678642 1_555
Cu14 Cu4 2.678642 1_555
Cu14 Dy2 3.051905 1_455
Cu14 Dy4 3.051911 1_455
Cu14 Dy0 3.051911 1_455
Cu15 Cu4 2.678642 1_555
Cu15 Cu6 2.678642 1_555
Cu15 Cu5 2.678642 1_555
Cu15 Dy3 3.051914 1_555
Cu15 Dy1 3.051914 1_555
Cu15 Dy2 3.051914 1_555
