# generated using pymatgen
data_YbFe2
_symmetry_space_group_name_H-M   'P 1'
_cell_length_a   5.04140265
_cell_length_b   5.04140265
_cell_length_c   5.04140265
_cell_angle_alpha   60.00000000
_cell_angle_beta   60.00000000
_cell_angle_gamma   60.00000000
_symmetry_Int_Tables_number   1
_chemical_formula_structural   YbFe2
_chemical_formula_sum   'Yb2 Fe4'
_cell_volume   90.60228651
_cell_formula_units_Z   2
loop_
 _symmetry_equiv_pos_site_id
 _symmetry_equiv_pos_as_xyz
  1  'x, y, z'
loop_
 _atom_site_type_symbol
 _atom_site_label
 _atom_site_symmetry_multiplicity
 _atom_site_fract_x
 _atom_site_fract_y
 _atom_site_fract_z
 _atom_site_occupancy
  Yb  Yb0  1  0.25000000  0.25000000  0.25000000  1
  Yb  Yb1  1  0.50000000  0.50000000  0.50000000  1
  Fe  Fe0  1  0.87500000  0.37500000  0.87500000  1
  Fe  Fe1  1  0.37500000  0.87500000  0.87500000  1
  Fe  Fe2  1  0.87500000  0.87500000  0.37500000  1
  Fe  Fe3  1  0.87500000  0.87500000  0.87500000  1
loop_
_geom_bond_atom_site_label_1
_geom_bond_atom_site_label_2
_geom_bond_distance
_geom_bond_site_symmetry_2
Fe0 Fe1 2.520701 1_645
Fe0 Fe3 2.520701 1_555
Fe0 Fe2 2.520701 1_546
Fe0 Fe2 2.520701 1_555
Fe0 Fe1 2.520701 1_555
Fe0 Fe3 2.520701 1_545
Fe0 Yb0 2.955784 1_556
Fe0 Yb1 2.955784 1_655
Fe0 Yb1 2.955784 1_555
Fe0 Yb1 2.955784 1_556
Fe0 Yb0 2.955784 1_655
Fe0 Yb0 2.955784 1_656
Fe1 Fe3 2.520701 1_555
Fe1 Fe3 2.520701 1_455
Fe1 Fe2 2.520701 1_555
Fe1 Fe2 2.520701 1_456
Fe1 Yb0 2.955784 1_556
Fe1 Yb0 2.955784 1_566
Fe1 Yb1 2.955784 1_555
Fe1 Yb1 2.955784 1_565
Fe1 Yb0 2.955784 1_565
Fe1 Yb1 2.955784 1_556
Fe2 Fe3 2.520701 1_554
Fe2 Fe3 2.520701 1_555
Fe2 Yb1 2.955784 1_655
Fe2 Yb1 2.955784 1_555
Fe2 Yb0 2.955784 1_655
Fe2 Yb0 2.955784 1_565
Fe2 Yb1 2.955784 1_565
Fe2 Yb0 2.955784 1_665
Fe3 Yb0 2.955784 1_566
Fe3 Yb1 2.955784 1_655
Fe3 Yb1 2.955784 1_556
Fe3 Yb1 2.955784 1_565
Fe3 Yb0 2.955784 1_656
Fe3 Yb0 2.955784 1_665
