# generated using pymatgen
data_Np3Cu
_symmetry_space_group_name_H-M   'P 1'
_cell_length_a   4.55185565
_cell_length_b   4.55185565
_cell_length_c   4.55185565
_cell_angle_alpha   60.00000000
_cell_angle_beta   60.00000000
_cell_angle_gamma   60.00000000
_symmetry_Int_Tables_number   1
_chemical_formula_structural   Np3Cu
_chemical_formula_sum   'Np3 Cu1'
_cell_volume   66.68842285
_cell_formula_units_Z   1
loop_
 _symmetry_equiv_pos_site_id
 _symmetry_equiv_pos_as_xyz
  1  'x, y, z'
loop_
 _atom_site_type_symbol
 _atom_site_label
 _atom_site_symmetry_multiplicity
 _atom_site_fract_x
 _atom_site_fract_y
 _atom_site_fract_z
 _atom_site_occupancy
  Np  Np0  1  0.00000000  0.00000000  0.00000000  1
  Np  Np1  1  0.50000100  0.50000100  0.50000100  1
  Np  Np2  1  0.25000000  0.25000000  0.25000000  1
  Cu  Cu0  1  0.75000000  0.75000000  0.75000000  1
loop_
_geom_bond_atom_site_label_1
_geom_bond_atom_site_label_2
_geom_bond_distance
_geom_bond_site_symmetry_2
Np0 Np2 2.787431 1_554
Np0 Np2 2.787431 1_455
Np0 Np2 2.787431 1_545
Np0 Np2 2.787431 1_555
Np1 Np2 2.787427 1_565
Np1 Np2 2.787427 1_655
Np1 Np2 2.787427 1_556
Np1 Np2 2.787442 1_555
Cu0 Np1 2.787420 1_555
Cu0 Np0 2.787431 1_666
Cu0 Np0 2.787431 1_665
Cu0 Np0 2.787431 1_566
Cu0 Np0 2.787431 1_656
Cu0 Np1 2.787435 1_565
Cu0 Np1 2.787435 1_556
Cu0 Np1 2.787435 1_655
