# generated using pymatgen
data_Sr2Sm2TlNi2O9
_symmetry_space_group_name_H-M   'P 1'
_cell_length_a   15.13115950
_cell_length_b   15.12827189
_cell_length_c   3.80617583
_cell_angle_alpha   82.81704731
_cell_angle_beta   82.73080099
_cell_angle_gamma   14.45215170
_symmetry_Int_Tables_number   1
_chemical_formula_structural   Sr2Sm2TlNi2O9
_chemical_formula_sum   'Sr2 Sm2 Tl1 Ni2 O9'
_cell_volume   215.68412080
_cell_formula_units_Z   1
loop_
 _symmetry_equiv_pos_site_id
 _symmetry_equiv_pos_as_xyz
  1  'x, y, z'
loop_
 _atom_site_type_symbol
 _atom_site_label
 _atom_site_symmetry_multiplicity
 _atom_site_fract_x
 _atom_site_fract_y
 _atom_site_fract_z
 _atom_site_occupancy
  Sr  Sr0  1  0.41022800  0.42029300  0.57970700  1
  Sr  Sr1  1  0.57970700  0.58977200  0.41022800  1
  Sm  Sm0  1  0.29666900  0.29813100  0.70186900  1
  Sm  Sm1  1  0.70186900  0.70333100  0.29666900  1
  Tl  Tl0  1  0.96193000  0.03807000  0.96193000  1
  Ni  Ni0  1  0.85066600  0.85347100  0.14652900  1
  Ni  Ni1  1  0.14652900  0.14933400  0.85066600  1
  O  O0  1  0.84837700  0.85090700  0.64898700  1
  O  O1  1  0.34827100  0.35101300  0.14909300  1
  O  O2  1  0.14909300  0.15162300  0.34827100  1
  O  O3  1  0.64898700  0.65172900  0.84837700  1
  O  O4  1  0.92959900  0.92806500  0.07193500  1
  O  O5  1  0.07193500  0.07040100  0.92959900  1
  O  O6  1  0.77949600  0.78032900  0.21967100  1
  O  O7  1  0.21967100  0.22050400  0.77949600  1
  O  O8  1  0.52197300  0.47802700  0.52197300  1
loop_
_geom_bond_atom_site_label_1
_geom_bond_atom_site_label_2
_geom_bond_distance
_geom_bond_site_symmetry_2
Ni0 O1 1.904336 1_565
Ni0 O0 1.904336 1_554
Ni0 O1 1.904582 1_655
Ni0 O0 1.904582 1_555
Ni0 O6 2.148583 1_555
Ni0 O4 2.285803 1_555
Ni1 O2 1.904336 1_555
Ni1 O3 1.904336 1_455
Ni1 O3 1.904582 1_545
Ni1 O2 1.904582 1_556
Ni1 O7 2.148583 1_555
Ni1 O5 2.285803 1_555
O0 Sm0 2.456391 1_565
O0 Sm0 2.459561 1_655
O0 Sr0 2.717538 1_655
O0 Sr0 2.737665 1_565
O1 Sm0 2.456391 1_554
O1 Sm0 2.459561 1_555
O1 Sr0 2.717538 1_555
O1 Sr0 2.737665 1_554
O2 Sm1 2.456391 1_455
O2 Sm1 2.459561 1_545
O2 Sr1 2.717538 1_545
O2 Sr1 2.737665 1_455
O3 Sm1 2.456391 1_555
O3 Sm1 2.459561 1_556
O3 Sr1 2.717538 1_556
O3 Sr1 2.737665 1_555
O4 Tl0 2.129505 1_564
O4 Sr0 2.698596 1_655
O4 Sr0 2.713685 1_654
O4 Sr0 2.713685 1_565
O4 Sr0 2.760528 1_564
O5 Tl0 2.129505 1_455
O5 Sr1 2.698596 1_546
O5 Sr1 2.713685 1_456
O5 Sr1 2.713685 1_545
O5 Sr1 2.760528 1_455
O6 Sm1 2.302121 1_555
O6 Sm0 2.733304 1_565
O6 Sm0 2.733304 1_654
O6 Sm0 2.747574 1_655
O6 Sm0 2.750909 1_564
O7 Sm0 2.302121 1_555
O7 Sm1 2.733304 1_545
O7 Sm1 2.733304 1_456
O7 Sm1 2.747574 1_546
O7 Sm1 2.750909 1_455
O8 Tl0 2.375308 1_555
O8 Sr1 2.527482 1_555
O8 Sr0 2.527482 1_555
O8 Tl0 2.702755 1_465
O8 Tl0 2.702755 1_554
