# generated using pymatgen
data_Mn31Si11P
_symmetry_space_group_name_H-M   'P 1'
_cell_length_a   6.84479200
_cell_length_b   6.84396922
_cell_length_c   12.36921301
_cell_angle_alpha   89.99658768
_cell_angle_beta   89.99742208
_cell_angle_gamma   60.03267348
_symmetry_Int_Tables_number   1
_chemical_formula_structural   Mn31Si11P
_chemical_formula_sum   'Mn31 Si11 P1'
_cell_volume   501.97708774
_cell_formula_units_Z   1
loop_
 _symmetry_equiv_pos_site_id
 _symmetry_equiv_pos_as_xyz
  1  'x, y, z'
loop_
 _atom_site_type_symbol
 _atom_site_label
 _atom_site_symmetry_multiplicity
 _atom_site_fract_x
 _atom_site_fract_y
 _atom_site_fract_z
 _atom_site_occupancy
  Mn  Mn0  1  0.00006300  0.00000500  0.09014400  1
  Mn  Mn1  1  0.99997000  0.99992000  0.91415000  1
  Mn  Mn2  1  0.02034400  0.64808300  0.30679600  1
  Mn  Mn3  1  0.33132600  0.02086100  0.30690100  1
  Mn  Mn4  1  0.64778200  0.33141300  0.30689400  1
  Mn  Mn5  1  0.35010500  0.97352300  0.69164100  1
  Mn  Mn6  1  0.67659700  0.35041300  0.69158300  1
  Mn  Mn7  1  0.97330900  0.67638700  0.69158000  1
  Mn  Mn8  1  0.05647600  0.60404500  0.10155600  1
  Mn  Mn9  1  0.33946100  0.05697300  0.10155800  1
  Mn  Mn10  1  0.60382600  0.33941900  0.10153600  1
  Mn  Mn11  1  0.39634900  0.94647200  0.89774200  1
  Mn  Mn12  1  0.65715500  0.39682600  0.89785300  1
  Mn  Mn13  1  0.94598300  0.65717900  0.89781200  1
  Mn  Mn14  1  0.96053100  0.33343700  0.19573700  1
  Mn  Mn15  1  0.70593600  0.96054900  0.19559700  1
  Mn  Mn16  1  0.33344800  0.70618400  0.19570300  1
  Mn  Mn17  1  0.66846800  0.03858300  0.80480400  1
  Mn  Mn18  1  0.29285300  0.66843400  0.80490400  1
  Mn  Mn19  1  0.03849200  0.29315200  0.80494900  1
  Mn  Mn20  1  0.00017900  0.99973600  0.50146000  1
  Mn  Mn21  1  0.66651900  0.66671500  0.07569700  1
  Mn  Mn22  1  0.33336200  0.33335100  0.92689100  1
  Mn  Mn23  1  0.66708900  0.66625900  0.57230200  1
  Mn  Mn24  1  0.33368600  0.33283100  0.42812700  1
  Mn  Mn25  1  0.96196200  0.35350100  0.39821400  1
  Mn  Mn26  1  0.68471900  0.96191500  0.39819500  1
  Mn  Mn27  1  0.35315200  0.68425300  0.39811900  1
  Mn  Mn28  1  0.64758800  0.03626700  0.60218500  1
  Mn  Mn29  1  0.31633500  0.64788400  0.60227300  1
  Mn  Mn30  1  0.03652500  0.31580500  0.60211500  1
  Si  Si0  1  0.00141400  0.64733400  0.50002500  1
  Si  Si1  1  0.35179100  0.00020300  0.49997400  1
  Si  Si2  1  0.64779100  0.35133500  0.49999800  1
  Si  Si3  1  0.66645300  0.66692300  0.76819600  1
  Si  Si4  1  0.33321400  0.33356600  0.23230300  1
  Si  Si5  1  0.99605900  0.32241500  0.00077500  1
  Si  Si6  1  0.68155600  0.99609000  0.00064300  1
  Si  Si7  1  0.32226100  0.68160500  0.00073000  1
  Si  Si8  1  0.99993000  0.00014300  0.29212900  1
  Si  Si9  1  0.99998000  0.00006400  0.70897200  1
  Si  Si10  1  0.33335700  0.33333900  0.72251900  1
  P  P0  1  0.66660200  0.66660700  0.26872000  1
loop_
_geom_bond_atom_site_label_1
_geom_bond_atom_site_label_2
_geom_bond_distance
_geom_bond_site_symmetry_2
Mn0 Mn1 2.176908 1_444
Mn0 Si5 2.455797 1_455
Mn0 Si7 2.456518 1_545
Mn0 Si6 2.457187 1_445
Mn0 Si8 2.498396 1_455
Mn0 Mn14 2.523903 1_455
Mn0 Mn15 2.523937 1_445
Mn0 Mn16 2.524191 1_545
Mn0 Mn8 2.543105 1_545
Mn0 Mn9 2.544341 1_555
Mn0 Mn10 2.545144 1_455
Mn1 Si6 2.439723 1_556
Mn1 Si7 2.440944 1_656
Mn1 Si5 2.441626 1_566
Mn1 Si9 2.537891 1_565
Mn1 Mn18 2.539358 1_655
Mn1 Mn17 2.539369 1_565
Mn1 Mn19 2.539648 1_665
Mn1 Mn11 2.558235 1_655
Mn1 Mn13 2.558468 1_555
Mn1 Mn12 2.560820 1_565
Mn2 Si4 2.337410 1_555
Mn2 Si8 2.349824 1_465
Mn2 Si0 2.393738 1_555
Mn2 P0 2.407066 1_455
Mn2 Mn26 2.497919 1_455
Mn2 Mn25 2.511490 1_455
Mn2 Mn27 2.662737 1_555
Mn3 Si4 2.336490 1_555
Mn3 Si8 2.349511 1_455
Mn3 Si1 2.392306 1_555
Mn3 P0 2.410260 1_545
Mn4 Si4 2.335811 1_555
Mn4 Si8 2.350336 1_555
Mn4 Si2 2.392443 1_555
Mn4 P0 2.407767 1_555
Mn5 Si9 2.321075 1_465
Mn5 Si3 2.334362 1_555
Mn5 Si1 2.378251 1_565
Mn5 Si10 2.437489 1_565
Mn6 Si9 2.322263 1_555
Mn6 Si3 2.333492 1_555
Mn6 Si2 2.377700 1_555
Mn6 Si10 2.440076 1_555
Mn7 Si9 2.321840 1_565
Mn7 Si3 2.334427 1_555
Mn7 Si0 2.377463 1_655
Mn7 Si10 2.439635 1_655
Mn8 Si7 2.472088 1_555
Mn8 Si4 2.475312 1_555
Mn8 Si5 2.497348 1_455
Mn9 Si5 2.472519 1_455
Mn9 Si4 2.473889 1_555
Mn9 Si6 2.497948 1_545
Mn10 Si6 2.472468 1_545
Mn10 Si4 2.474401 1_555
Mn10 Si7 2.498892 1_555
Mn11 Si7 2.466577 1_556
Mn11 Si3 2.472358 1_555
Mn11 Si6 2.491770 1_556
Mn12 Si5 2.466004 1_556
Mn12 Si3 2.471909 1_555
Mn12 Si7 2.491836 1_556
Mn13 Si6 2.465751 1_556
Mn13 Si3 2.471529 1_555
Mn13 Si5 2.490751 1_556
Mn14 P0 2.340739 1_555
Mn14 Si5 2.421142 1_555
Mn14 Si8 2.466305 1_555
Mn14 Mn25 2.508538 1_555
Mn14 Si4 2.591178 1_655
Mn15 P0 2.340613 1_555
Mn15 Si6 2.421035 1_555
Mn15 Si8 2.468523 1_565
Mn15 Mn26 2.509924 1_555
Mn15 Si4 2.593380 1_565
Mn16 P0 2.339285 1_555
Mn16 Si7 2.421407 1_555
Mn16 Si8 2.468473 1_465
Mn16 Mn27 2.507813 1_555
Mn16 Si4 2.590819 1_555
Mn17 Si10 2.396686 1_555
Mn17 Si6 2.436064 1_546
Mn17 Si9 2.454737 1_555
Mn17 Mn28 2.510817 1_555
Mn17 Si3 2.590457 1_545
Mn18 Si10 2.395820 1_555
Mn18 Si7 2.435972 1_556
Mn18 Si9 2.456123 1_465
Mn18 Mn29 2.510977 1_555
Mn18 Si3 2.592121 1_555
Mn19 Si10 2.396467 1_555
Mn19 Si5 2.435871 1_456
Mn19 Si9 2.455803 1_455
Mn19 Mn30 2.513295 1_555
Mn19 Si3 2.593727 1_455
Mn20 Si0 2.407684 1_555
Mn20 Si1 2.408378 1_565
Mn20 Si2 2.410440 1_465
Mn20 Si9 2.566761 1_465
Mn20 Si8 2.589261 1_465
Mn20 Mn30 2.613281 1_565
Mn20 Mn29 2.613551 1_555
Mn20 Mn28 2.614627 1_465
Mn20 Mn26 2.630506 1_455
Mn20 Mn27 2.630909 1_555
Mn20 Mn25 2.632163 1_465
Mn21 P0 2.387543 1_555
Mn21 Si7 2.486570 1_555
Mn21 Si6 2.487074 1_555
Mn21 Si5 2.487854 1_555
Mn22 Si7 2.517947 1_556
Mn22 Si5 2.518658 1_456
Mn22 Si6 2.518811 1_546
Mn22 Si10 2.527921 1_555
Mn23 Si2 2.397375 1_555
Mn23 Si1 2.398720 1_565
Mn23 Si0 2.399263 1_655
Mn23 Si3 2.423059 1_555
Mn23 Mn29 2.493754 1_555
Mn23 Mn30 2.494799 1_655
Mn23 Mn28 2.495903 1_565
Mn24 Si2 2.387668 1_555
Mn24 Si1 2.388618 1_555
Mn24 Si0 2.388727 1_555
Mn24 Si4 2.422193 1_555
Mn24 Mn27 2.502032 1_555
Mn24 Mn26 2.502206 1_545
Mn24 Mn25 2.504245 1_455
Mn25 Si2 2.498248 1_555
Mn25 Si0 2.499143 1_655
Mn25 Mn4 2.499679 1_555
Mn25 Mn30 2.560566 1_655
Mn25 P0 2.629953 1_555
Mn25 Si8 2.647710 1_555
Mn25 Mn3 2.664667 1_655
Mn25 Si1 2.846950 1_655
Mn26 Si1 2.499964 1_565
Mn26 Si0 2.501655 1_655
Mn26 Mn3 2.512831 1_565
Mn26 Mn28 2.561434 1_565
Mn26 P0 2.629779 1_555
Mn26 Si8 2.647327 1_565
Mn26 Mn4 2.663690 1_565
Mn26 Si2 2.842549 1_565
Mn27 Si1 2.498663 1_565
Mn27 Si2 2.501210 1_555
Mn27 Mn3 2.501688 1_565
Mn27 Mn4 2.511300 1_555
Mn27 Mn29 2.562177 1_555
Mn27 P0 2.630669 1_555
Mn27 Si8 2.648828 1_465
Mn27 Si0 2.838401 1_555
Mn28 Si2 2.499999 1_555
Mn28 Si1 2.501617 1_555
Mn28 Mn6 2.512269 1_555
Mn28 Mn5 2.535380 1_545
Mn28 Si10 2.570347 1_555
Mn28 Mn7 2.602649 1_545
Mn28 Si9 2.650901 1_555
Mn28 Si0 2.847367 1_645
Mn29 Si0 2.500875 1_555
Mn29 Si2 2.503351 1_555
Mn29 Mn7 2.512643 1_455
Mn29 Mn6 2.535850 1_555
Mn29 Si10 2.570820 1_555
Mn29 Mn5 2.599474 1_555
Mn29 Si9 2.650724 1_465
Mn29 Si1 2.838736 1_565
Mn30 Si0 2.501105 1_555
Mn30 Si1 2.502387 1_555
Mn30 Mn5 2.509518 1_545
Mn30 Mn7 2.536815 1_455
Mn30 Si10 2.569886 1_555
Mn30 Mn6 2.601364 1_455
Mn30 Si9 2.649298 1_455
Mn30 Si2 2.843999 1_455
