# generated using pymatgen
data_TaCo
_symmetry_space_group_name_H-M   'P 1'
_cell_length_a   4.89470582
_cell_length_b   4.89494358
_cell_length_c   17.50874604
_cell_angle_alpha   81.96863071
_cell_angle_beta   89.99988286
_cell_angle_gamma   119.99829683
_symmetry_Int_Tables_number   1
_chemical_formula_structural   TaCo
_chemical_formula_sum   'Ta13 Co13'
_cell_volume   358.54275970
_cell_formula_units_Z   13
loop_
 _symmetry_equiv_pos_site_id
 _symmetry_equiv_pos_as_xyz
  1  'x, y, z'
loop_
 _atom_site_type_symbol
 _atom_site_label
 _atom_site_symmetry_multiplicity
 _atom_site_fract_x
 _atom_site_fract_y
 _atom_site_fract_z
 _atom_site_occupancy
  Ta  Ta0  1  0.17328526  0.34656847  0.48020317  1
  Ta  Ta1  1  0.67118718  0.34237447  0.98627012  1
  Ta  Ta2  1  0.32881282  0.65762553  0.01372988  1
  Ta  Ta3  1  0.82671474  0.65343153  0.51979683  1
  Ta  Ta4  1  0.22588978  0.45177604  0.32280780  1
  Ta  Ta5  1  0.72391787  0.44783647  0.82834598  1
  Ta  Ta6  1  0.27608213  0.55216353  0.17165402  1
  Ta  Ta7  1  0.77411022  0.54822496  0.67719220  1
  Ta  Ta8  1  0.58354857  0.16710516  0.24934799  1
  Ta  Ta9  1  0.08229482  0.16460068  0.75313926  1
  Ta  Ta10  1  0.91770518  0.83539932  0.24686074  1
  Ta  Ta11  1  0.41645143  0.83289484  0.75065201  1
  Ta  Ta12  1  0.50000000  -0.00000000  0.50000000  1
  Co  Co0  1  0.79725667  0.09016103  0.11261292  1
  Co  Co1  1  0.28941672  0.09156497  0.61851398  1
  Co  Co2  1  0.29291017  0.09016045  0.11261277  1
  Co  Co3  1  0.80214424  0.09156536  0.61851349  1
  Co  Co4  1  0.79725364  0.59449994  0.11260398  1
  Co  Co5  1  0.28937388  0.57874699  0.61851183  1
  Co  Co6  1  0.71058328  0.90843503  0.38148602  1
  Co  Co7  1  0.20274333  0.90983897  0.88738708  1
  Co  Co8  1  0.19785576  0.90843464  0.38148651  1
  Co  Co9  1  0.70708983  0.90983955  0.88738723  1
  Co  Co10  1  0.71062612  0.42125301  0.38148817  1
  Co  Co11  1  0.20274636  0.40550006  0.88739602  1
  Co  Co12  1  -0.00000000  -0.00000000  -0.00000000  1
loop_
_geom_bond_atom_site_label_1
_geom_bond_atom_site_label_2
_geom_bond_distance
_geom_bond_site_symmetry_2
Ta0 Ta4 2.719697 1_555
Ta0 Ta12 2.846587 1_565
Ta0 Ta12 2.846722 1_555
Ta0 Ta12 2.846733 1_455
Ta0 Ta3 2.907454 1_555
Ta0 Ta3 2.907464 1_455
Ta0 Ta3 2.908141 1_445
Ta1 Ta5 2.728834 1_555
Ta1 Ta2 2.864803 1_546
Ta1 Ta2 2.866008 1_556
Ta1 Ta2 2.866015 1_656
Ta2 Ta6 2.728834 1_555
Ta3 Ta7 2.719697 1_555
Ta4 Ta6 2.611847 1_555
Ta5 Ta7 2.611847 1_555
Ta12 Ta3 2.846587 1_555
Ta12 Ta3 2.846722 1_545
Ta12 Ta3 2.846733 1_445
Co0 Co12 2.397562 1_655
Co0 Co2 2.426079 1_655
Co0 Co4 2.426248 1_545
Co0 Co2 2.468626 1_555
Co0 Co4 2.468696 1_555
Co0 Ta1 2.607108 1_554
Co0 Ta6 2.651253 1_655
Co0 Ta6 2.651983 1_545
Co0 Ta10 2.709929 1_545
Co0 Ta8 2.759253 1_555
Co0 Ta2 2.984538 1_545
Co0 Ta2 2.985300 1_655
Co1 Co5 2.384828 1_555
Co1 Co3 2.385056 1_455
Co1 Ta12 2.508168 1_555
Co1 Co3 2.509649 1_555
Co1 Co5 2.510116 1_545
Co1 Ta7 2.649428 1_445
Co1 Ta7 2.649429 1_555
Co1 Ta9 2.703608 1_555
Co1 Ta11 2.703915 1_545
Co1 Ta0 2.758698 1_555
Co1 Ta3 2.982461 1_445
Co1 Ta3 2.984462 1_555
Co2 Co4 2.426246 1_445
Co2 Co4 2.468705 1_555
Co2 Ta1 2.607089 1_554
Co2 Ta6 2.651263 1_555
Co2 Ta6 2.651968 1_545
Co2 Ta10 2.709917 1_445
Co2 Ta8 2.759230 1_555
Co2 Ta2 2.984517 1_545
Co2 Ta2 2.985312 1_555
Co3 Co5 2.384844 1_655
Co3 Ta12 2.508156 1_555
Co3 Co5 2.510107 1_545
Co3 Ta7 2.649427 1_555
Co3 Ta7 2.649429 1_545
Co3 Ta9 2.703606 1_655
Co3 Ta11 2.703891 1_545
Co3 Ta0 2.758701 1_655
Co3 Ta3 2.982455 1_545
Co3 Ta3 2.984452 1_555
Co4 Ta1 2.607276 1_554
Co4 Ta6 2.651554 1_655
Co4 Ta6 2.651581 1_555
Co4 Ta10 2.709814 1_555
Co4 Ta8 2.759587 1_555
Co4 Ta2 2.984710 1_655
Co4 Ta2 2.984744 1_555
Co5 Ta12 2.509786 1_565
Co5 Ta7 2.649325 1_555
Co5 Ta7 2.649345 1_455
Co5 Ta9 2.702454 1_555
Co5 Ta11 2.705147 1_555
Co5 Ta0 2.757173 1_555
Co5 Ta3 2.983362 1_555
Co5 Ta3 2.983378 1_455
Co6 Co8 2.385056 1_655
Co6 Ta12 2.508168 1_565
Co6 Co8 2.509649 1_555
Co6 Ta4 2.649427 1_555
Co6 Ta4 2.649431 1_665
Co6 Ta10 2.703608 1_555
Co6 Ta8 2.703915 1_565
Co6 Ta3 2.758698 1_555
Co6 Ta0 2.982461 1_665
Co6 Ta0 2.984462 1_555
Co7 Co9 2.426079 1_455
Co7 Co9 2.468626 1_555
Co7 Ta2 2.607108 1_556
Co7 Ta5 2.651253 1_455
Co7 Ta5 2.651983 1_565
Co7 Ta9 2.709929 1_565
Co7 Ta11 2.759253 1_555
Co7 Ta1 2.984538 1_565
Co7 Ta1 2.985300 1_455
Co8 Ta12 2.508156 1_565
Co8 Ta4 2.649423 1_555
Co8 Ta4 2.649434 1_565
Co8 Ta10 2.703606 1_455
Co8 Ta8 2.703891 1_565
Co8 Ta3 2.758701 1_455
Co8 Ta0 2.982455 1_565
Co8 Ta0 2.984452 1_555
Co9 Ta2 2.607089 1_556
Co9 Ta5 2.651263 1_555
Co9 Ta5 2.651968 1_565
Co9 Ta9 2.709917 1_665
Co9 Ta11 2.759230 1_555
Co9 Ta1 2.984517 1_565
Co9 Ta1 2.985312 1_555
Co10 Co6 2.384828 1_555
Co10 Co8 2.384844 1_655
Co10 Ta12 2.509786 1_555
Co10 Co8 2.510107 1_545
Co10 Co6 2.510116 1_545
Co10 Ta4 2.649327 1_555
Co10 Ta4 2.649343 1_655
Co10 Ta10 2.702454 1_555
Co10 Ta8 2.705147 1_555
Co10 Ta3 2.757173 1_555
Co10 Ta0 2.983362 1_555
Co10 Ta0 2.983378 1_655
Co11 Co12 2.397600 1_556
Co11 Co9 2.426246 1_445
Co11 Co7 2.426248 1_545
Co11 Co7 2.468696 1_555
Co11 Co9 2.468705 1_555
Co11 Ta2 2.607276 1_556
Co11 Ta5 2.651554 1_455
Co11 Ta5 2.651581 1_555
Co11 Ta9 2.709814 1_555
Co11 Ta11 2.759587 1_555
Co11 Ta1 2.984710 1_455
Co11 Ta1 2.984744 1_555
Co12 Co7 2.397562 1_544
Co12 Co2 2.397579 1_555
Co12 Co9 2.397579 1_444
Co12 Co4 2.397600 1_445
Co12 Ta1 2.835719 1_454
Co12 Ta2 2.835719 1_545
Co12 Ta2 2.835722 1_445
Co12 Ta1 2.835722 1_554
Co12 Ta2 2.836539 1_555
Co12 Ta1 2.836539 1_444
