# generated using pymatgen
data_Ce2In3Cu
_symmetry_space_group_name_H-M   'P 1'
_cell_length_a   3.68888300
_cell_length_b   4.84436080
_cell_length_c   8.41346418
_cell_angle_alpha   90.03604046
_cell_angle_beta   90.00000000
_cell_angle_gamma   90.00000000
_symmetry_Int_Tables_number   1
_chemical_formula_structural   Ce2In3Cu
_chemical_formula_sum   'Ce2 In3 Cu1'
_cell_volume   150.35093272
_cell_formula_units_Z   1
loop_
 _symmetry_equiv_pos_site_id
 _symmetry_equiv_pos_as_xyz
  1  'x, y, z'
loop_
 _atom_site_type_symbol
 _atom_site_label
 _atom_site_symmetry_multiplicity
 _atom_site_fract_x
 _atom_site_fract_y
 _atom_site_fract_z
 _atom_site_occupancy
  Ce  Ce0  1  0.00000000  0.00001700  0.01326700  1
  Ce  Ce1  1  0.00000000  0.50016500  0.49235000  1
  In  In0  1  0.50000000  0.49991800  0.83600200  1
  In  In1  1  0.50000000  0.49964100  0.18042400  1
  In  In2  1  0.50000000  0.00017900  0.64918500  1
  Cu  Cu0  1  0.50000000  0.99988100  0.32877200  1
loop_
_geom_bond_atom_site_label_1
_geom_bond_atom_site_label_2
_geom_bond_distance
_geom_bond_site_symmetry_2
Ce0 Cu0 3.232381 1_445
Ce0 Cu0 3.232381 1_545
Ce0 In1 3.351670 1_555
Ce0 In1 3.351670 1_455
Ce0 In1 3.355579 1_445
Ce0 In1 3.355579 1_545
Ce0 In0 3.389840 1_444
Ce0 In0 3.389840 1_544
Ce0 In0 3.390495 1_454
Ce0 In0 3.390495 1_554
Ce0 In2 3.575627 1_454
Ce0 In2 3.575627 1_554
Ce1 In1 3.207698 1_455
Ce1 In1 3.207698 1_555
Ce1 In2 3.317586 1_565
Ce1 In2 3.317586 1_465
Ce1 In2 3.318699 1_455
Ce1 In2 3.318699 1_555
Ce1 Cu0 3.340739 1_555
Ce1 Cu0 3.340739 1_455
Ce1 Cu0 3.341478 1_445
Ce1 Cu0 3.341478 1_545
Ce1 In0 3.429520 1_455
Ce1 In0 3.429520 1_555
In0 In2 2.885573 1_555
In0 In2 2.889353 1_565
In0 In1 2.897783 1_556
Cu0 In2 2.695783 1_565
Cu0 In1 2.724506 1_565
Cu0 In1 2.725177 1_555
