# generated using pymatgen
data_KFeS2O9
_symmetry_space_group_name_H-M   'P 1'
_cell_length_a   5.20859300
_cell_length_b   8.10572900
_cell_length_c   9.24787327
_cell_angle_alpha   77.14617690
_cell_angle_beta   90.00000000
_cell_angle_gamma   90.00000000
_symmetry_Int_Tables_number   1
_chemical_formula_structural   KFeS2O9
_chemical_formula_sum   'K2 Fe2 S4 O18'
_cell_volume   380.65594737
_cell_formula_units_Z   2
loop_
 _symmetry_equiv_pos_site_id
 _symmetry_equiv_pos_as_xyz
  1  'x, y, z'
loop_
 _atom_site_type_symbol
 _atom_site_label
 _atom_site_symmetry_multiplicity
 _atom_site_fract_x
 _atom_site_fract_y
 _atom_site_fract_z
 _atom_site_occupancy
  K  K0  1  0.25000000  0.42419600  0.21729100  1
  K  K1  1  0.75000000  0.57580400  0.78270900  1
  Fe  Fe0  1  0.25000000  0.91165400  0.22592800  1
  Fe  Fe1  1  0.75000000  0.08834600  0.77407200  1
  S  S0  1  0.25000000  0.33221900  0.65433400  1
  S  S1  1  0.75000000  0.66778100  0.34566600  1
  S  S2  1  0.25000000  0.84603300  0.88217700  1
  S  S3  1  0.75000000  0.15396700  0.11782300  1
  O  O0  1  0.25000000  0.26086800  0.52020800  1
  O  O1  1  0.75000000  0.73913200  0.47979200  1
  O  O2  1  0.25000000  0.51652900  0.62375000  1
  O  O3  1  0.75000000  0.48347100  0.37625000  1
  O  O4  1  0.01734300  0.26993900  0.74921900  1
  O  O5  1  0.51734300  0.73006100  0.25078100  1
  O  O6  1  0.98265700  0.73006100  0.25078100  1
  O  O7  1  0.48265700  0.26993900  0.74921900  1
  O  O8  1  0.25000000  0.93737500  0.00513400  1
  O  O9  1  0.75000000  0.06262500  0.99486600  1
  O  O10  1  0.25000000  0.66247000  0.93382400  1
  O  O11  1  0.75000000  0.33753000  0.06617600  1
  O  O12  1  0.01631400  0.89988500  0.78793900  1
  O  O13  1  0.51631400  0.10011500  0.21206100  1
  O  O14  1  0.98368600  0.10011500  0.21206100  1
  O  O15  1  0.48368600  0.89988500  0.78793900  1
  O  O16  1  0.25000000  0.89327100  0.45424200  1
  O  O17  1  0.75000000  0.10672900  0.54575800  1
loop_
_geom_bond_atom_site_label_1
_geom_bond_atom_site_label_2
_geom_bond_distance
_geom_bond_site_symmetry_2
K0 O0 2.819591 1_555
K0 O10 2.889573 1_554
K0 O5 2.919467 1_555
K0 O6 2.919467 1_455
K0 O13 2.980544 1_555
K0 O14 2.980544 1_455
K0 O3 3.080334 1_555
K0 O3 3.080334 1_455
K0 O11 3.108961 1_455
K0 O11 3.108961 1_555
K1 O1 2.819591 1_555
K1 O11 2.889573 1_556
K1 O7 2.919467 1_555
K1 O4 2.919467 1_655
K1 O12 2.980544 1_655
K1 O15 2.980544 1_555
K1 O2 3.080334 1_555
K1 O2 3.080334 1_655
K1 O10 3.108961 1_655
K1 O10 3.108961 1_555
Fe0 O6 2.001980 1_455
Fe0 O5 2.001980 1_555
Fe0 O8 2.005819 1_555
Fe0 O13 2.046214 1_565
Fe0 O14 2.046214 1_465
Fe0 O16 2.083341 1_555
Fe1 O7 2.001980 1_555
Fe1 O4 2.001980 1_655
Fe1 O9 2.005819 1_555
Fe1 O12 2.046214 1_645
Fe1 O15 2.046214 1_545
Fe1 O17 2.083341 1_555
O0 S0 1.480613 1_555
O1 S1 1.480613 1_555
O2 S0 1.457371 1_555
O3 S1 1.457371 1_555
O4 S0 1.515332 1_555
O5 S1 1.515332 1_555
O6 S1 1.515332 1_555
O7 S0 1.515332 1_555
O8 S2 1.488537 1_554
O9 S3 1.488537 1_556
O10 S2 1.458017 1_555
O11 S3 1.458017 1_555
O12 S2 1.504098 1_555
O13 S3 1.504098 1_555
O14 S3 1.504098 1_555
O15 S2 1.504098 1_555
