# generated using pymatgen
data_Ta2TiO6
_symmetry_space_group_name_H-M   'P 1'
_cell_length_a   5.65298591
_cell_length_b   5.65298591
_cell_length_c   7.36919617
_cell_angle_alpha   70.60224327
_cell_angle_beta   70.60224327
_cell_angle_gamma   74.10167252
_symmetry_Int_Tables_number   1
_chemical_formula_structural   Ta2TiO6
_chemical_formula_sum   'Ta4 Ti2 O12'
_cell_volume   205.94185350
_cell_formula_units_Z   2
loop_
 _symmetry_equiv_pos_site_id
 _symmetry_equiv_pos_as_xyz
  1  'x, y, z'
loop_
 _atom_site_type_symbol
 _atom_site_label
 _atom_site_symmetry_multiplicity
 _atom_site_fract_x
 _atom_site_fract_y
 _atom_site_fract_z
 _atom_site_occupancy
  Ta  Ta0  1  0.32027348  0.32027348  0.17961413  1
  Ta  Ta1  1  0.67972652  0.67972652  0.82038587  1
  Ta  Ta2  1  -0.00000000  -0.00000000  0.50000000  1
  Ta  Ta3  1  -0.00000000  -0.00000000  0.00000000  1
  Ti  Ti0  1  0.34716809  0.34716809  0.65410622  1
  Ti  Ti1  1  0.65283191  0.65283191  0.34589378  1
  O  O0  1  0.22842293  0.22842293  0.96991485  1
  O  O1  1  0.56987004  0.56987004  0.63944436  1
  O  O2  1  0.90467324  0.90467324  0.29674082  1
  O  O3  1  0.43012996  0.43012996  0.36055564  1
  O  O4  1  0.77157707  0.77157707  0.03008515  1
  O  O5  1  0.09532676  0.09532676  0.70325918  1
  O  O6  1  0.95945145  0.38179826  0.32876372  1
  O  O7  1  0.30063572  0.69936428  0.00000000  1
  O  O8  1  0.61820174  0.04054855  0.67123628  1
  O  O9  1  0.38179826  0.95945145  0.32876372  1
  O  O10  1  0.69936428  0.30063572  0.00000000  1
  O  O11  1  0.04054855  0.61820174  0.67123628  1
loop_
_geom_bond_atom_site_label_1
_geom_bond_atom_site_label_2
_geom_bond_distance
_geom_bond_site_symmetry_2
O0 Ta3 1.979164 1_556
O0 Ta0 2.034909 1_556
O0 Ti0 2.118677 1_555
O1 Ta1 1.964848 1_555
O1 Ti0 1.967001 1_555
O1 Ti1 1.972860 1_555
O2 Ta3 1.989027 1_665
O2 Ta2 2.013895 1_665
O2 Ti1 2.147120 1_555
O3 Ta0 1.964848 1_555
O3 Ti1 1.967001 1_555
O3 Ti0 1.972860 1_555
O4 Ta3 1.979164 1_665
O4 Ta1 2.034909 1_554
O4 Ti1 2.118677 1_555
O5 Ta3 1.989027 1_556
O5 Ta2 2.013895 1_555
O5 Ti0 2.147120 1_555
O6 Ta0 1.966106 1_655
O6 Ti1 1.973823 1_555
O6 Ta2 2.101222 1_655
O7 Ta3 2.047964 1_565
O7 Ta0 2.107090 1_555
O7 Ta1 2.107090 1_554
O8 Ta1 1.966106 1_545
O8 Ti0 1.973823 1_555
O8 Ta2 2.101222 1_655
O9 Ta0 1.966106 1_565
O9 Ti1 1.973823 1_555
O9 Ta2 2.101222 1_565
O10 Ta3 2.047964 1_655
O10 Ta1 2.107090 1_554
O10 Ta0 2.107090 1_555
O11 Ta1 1.966106 1_455
O11 Ti0 1.973823 1_555
O11 Ta2 2.101222 1_565
