# generated using pymatgen
data_Yb4CdS7
_symmetry_space_group_name_H-M   'P 1'
_cell_length_a   7.40352905
_cell_length_b   7.40352905
_cell_length_c   11.22723228
_cell_angle_alpha   63.16514237
_cell_angle_beta   63.16514237
_cell_angle_gamma   31.45876437
_symmetry_Int_Tables_number   1
_chemical_formula_structural   Yb4CdS7
_chemical_formula_sum   'Yb4 Cd1 S7'
_cell_volume   283.65316231
_cell_formula_units_Z   1
loop_
 _symmetry_equiv_pos_site_id
 _symmetry_equiv_pos_as_xyz
  1  'x, y, z'
loop_
 _atom_site_type_symbol
 _atom_site_label
 _atom_site_symmetry_multiplicity
 _atom_site_fract_x
 _atom_site_fract_y
 _atom_site_fract_z
 _atom_site_occupancy
  Yb  Yb0  1  0.32257700  0.32257700  0.76478100  1
  Yb  Yb1  1  0.68334500  0.68334500  0.23908300  1
  Yb  Yb2  1  0.00495500  0.00495500  0.00059000  1
  Yb  Yb3  1  0.91369900  0.91369900  0.40317600  1
  Cd  Cd0  1  0.07354000  0.07354000  0.60441600  1
  S  S0  1  0.28931100  0.28931100  0.35335600  1
  S  S1  1  0.70170400  0.70170400  0.64145200  1
  S  S2  1  0.65871500  0.65871500  0.84873800  1
  S  S3  1  0.34850900  0.34850900  0.14056100  1
  S  S4  1  0.91468700  0.91468700  0.83531700  1
  S  S5  1  0.09046600  0.09046600  0.16786200  1
  S  S6  1  0.49849100  0.49849100  0.50066700  1
loop_
_geom_bond_atom_site_label_1
_geom_bond_atom_site_label_2
_geom_bond_distance
_geom_bond_site_symmetry_2
Cd0 S4 2.518175 1_445
Cd0 S6 2.774496 1_455
Cd0 S6 2.774496 1_545
Cd0 S1 2.872334 1_455
Cd0 S1 2.872334 1_545
Cd0 S0 3.044984 1_555
S0 S3 2.128138 1_555
S0 Yb3 2.900729 1_545
S0 Yb3 2.900729 1_455
S0 Yb1 3.126131 1_455
S0 Yb1 3.126131 1_545
S1 S2 2.110458 1_555
S1 Yb3 2.950311 1_555
S1 Yb0 3.339280 1_655
S1 Yb0 3.339280 1_565
S2 Yb2 2.869323 1_566
S2 Yb2 2.869323 1_656
S2 Yb0 2.882060 1_655
S2 Yb0 2.882060 1_565
S3 Yb2 2.860593 1_565
S3 Yb2 2.860593 1_655
S3 Yb1 2.889783 1_455
S3 Yb1 2.889783 1_545
S4 Yb2 2.708780 1_666
S4 Yb0 2.711828 1_655
S4 Yb0 2.711828 1_565
S5 Yb3 2.661569 1_445
S5 Yb2 2.675645 1_555
S5 Yb1 2.722653 1_545
S5 Yb1 2.722653 1_455
S6 Yb3 2.815583 1_455
S6 Yb3 2.815583 1_545
S6 Yb0 2.847036 1_555
S6 Yb1 2.882522 1_555
