# generated using pymatgen
data_BaSrGd4O8
_symmetry_space_group_name_H-M   'P 1'
_cell_length_a   3.50505300
_cell_length_b   10.40878605
_cell_length_c   12.22195405
_cell_angle_alpha   90.01056708
_cell_angle_beta   89.99976848
_cell_angle_gamma   89.99782039
_symmetry_Int_Tables_number   1
_chemical_formula_structural   BaSrGd4O8
_chemical_formula_sum   'Ba2 Sr2 Gd8 O16'
_cell_volume   445.89777990
_cell_formula_units_Z   2
loop_
 _symmetry_equiv_pos_site_id
 _symmetry_equiv_pos_as_xyz
  1  'x, y, z'
loop_
 _atom_site_type_symbol
 _atom_site_label
 _atom_site_symmetry_multiplicity
 _atom_site_fract_x
 _atom_site_fract_y
 _atom_site_fract_z
 _atom_site_occupancy
  Ba  Ba0  1  0.75000000  0.74838700  0.14776400  1
  Ba  Ba1  1  0.75000000  0.24838900  0.35222200  1
  Sr  Sr0  1  0.24999900  0.25420200  0.85320300  1
  Sr  Sr1  1  0.25000000  0.75416200  0.64678500  1
  Gd  Gd0  1  0.75000100  0.07984200  0.10955100  1
  Gd  Gd1  1  0.75000300  0.57986800  0.39041500  1
  Gd  Gd2  1  0.25000200  0.92292000  0.88617700  1
  Gd  Gd3  1  0.24999400  0.42292800  0.61383400  1
  Gd  Gd4  1  0.75000100  0.07399600  0.61323400  1
  Gd  Gd5  1  0.74999600  0.57398200  0.88679000  1
  Gd  Gd6  1  0.24999700  0.92389400  0.39072500  1
  Gd  Gd7  1  0.25000900  0.42393300  0.10927700  1
  O  O0  1  0.75000000  0.28626300  0.67267900  1
  O  O1  1  0.74999900  0.78647100  0.82737700  1
  O  O2  1  0.24999800  0.71327400  0.33286700  1
  O  O3  1  0.25000000  0.21311500  0.16715400  1
  O  O4  1  0.75000900  0.37432200  0.97908100  1
  O  O5  1  0.75000000  0.87443500  0.52080000  1
  O  O6  1  0.25000500  0.61959900  0.01526100  1
  O  O7  1  0.24999900  0.11946600  0.48481500  1
  O  O8  1  0.74999600  0.07463400  0.91933300  1
  O  O9  1  0.74999600  0.57482300  0.58067600  1
  O  O10  1  0.25000200  0.93288900  0.07553200  1
  O  O11  1  0.25000300  0.43285400  0.42434700  1
  O  O12  1  0.75000100  0.99024200  0.28544900  1
  O  O13  1  0.74999500  0.49033400  0.21460300  1
  O  O14  1  0.25000200  0.00537700  0.71440100  1
  O  O15  1  0.24999200  0.50539900  0.78565000  1
loop_
_geom_bond_atom_site_label_1
_geom_bond_atom_site_label_2
_geom_bond_distance
_geom_bond_site_symmetry_2
Ba0 O6 2.736791 1_655
Ba0 O6 2.736842 1_555
Ba0 O10 2.745754 1_555
Ba0 O10 2.745852 1_655
Ba0 O13 2.807639 1_555
Ba0 O2 2.885010 1_655
Ba0 O2 2.885025 1_555
Ba0 O12 3.027800 1_555
Ba1 O7 2.738418 1_655
Ba1 O7 2.738479 1_555
Ba1 O11 2.744830 1_555
Ba1 O11 2.744942 1_655
Ba1 O12 2.808052 1_545
Ba1 O3 2.884775 1_655
Ba1 O3 2.884803 1_555
Ba1 O13 3.028647 1_555
Gd0 O8 2.325458 1_554
Gd0 O3 2.343246 1_555
Gd0 O3 2.343324 1_655
Gd0 O12 2.343554 1_545
Gd0 O10 2.362937 1_645
Gd0 O10 2.363021 1_545
Gd1 O9 2.325964 1_555
Gd1 O13 2.342001 1_555
Gd1 O2 2.344033 1_555
Gd1 O2 2.344081 1_655
Gd1 O11 2.363260 1_655
Gd1 O11 2.363344 1_555
Gd2 O14 2.268247 1_565
Gd2 O10 2.316594 1_556
Gd2 O1 2.367352 1_555
Gd2 O1 2.367452 1_455
Gd2 O8 2.393517 1_465
Gd2 O8 2.393577 1_565
Gd3 O15 2.268462 1_555
Gd3 O11 2.318224 1_555
Gd3 O0 2.369056 1_555
Gd3 O0 2.369100 1_455
Gd3 O9 2.394845 1_455
Gd3 O9 2.394941 1_555
Gd4 O14 2.260659 1_655
Gd4 O14 2.260688 1_555
Gd4 O0 2.325703 1_555
Gd4 O5 2.364343 1_545
Gd4 O7 2.399799 1_555
Gd4 O7 2.399806 1_655
Gd5 O15 2.260195 1_655
Gd5 O15 2.260266 1_555
Gd5 O1 2.328030 1_555
Gd5 O4 2.364780 1_555
Gd5 O6 2.400365 1_556
Gd5 O6 2.400447 1_656
Gd6 O12 2.281234 1_455
Gd6 O12 2.281287 1_555
Gd6 O2 2.303399 1_555
Gd6 O7 2.337839 1_565
Gd6 O5 2.421578 1_555
Gd6 O5 2.421582 1_455
Gd7 O13 2.281615 1_555
Gd7 O13 2.281642 1_455
Gd7 O3 2.305680 1_555
Gd7 O6 2.338616 1_555
Gd7 O4 2.422744 1_554
Gd7 O4 2.422782 1_454
O0 Sr0 2.837423 1_655
O0 Sr0 2.837432 1_555
O1 Sr1 2.838271 1_655
O1 Sr1 2.838294 1_555
O4 Sr0 2.645844 1_655
O4 Sr0 2.645962 1_555
O5 Sr1 2.647657 1_655
O5 Sr1 2.647712 1_555
O8 Sr0 2.686700 1_555
O8 Sr0 2.686803 1_655
O9 Sr1 2.684751 1_555
O9 Sr1 2.684867 1_655
O14 Sr1 2.742179 1_545
O14 Sr0 3.095833 1_555
O15 Sr0 2.742059 1_555
O15 Sr1 3.096239 1_555
