# generated using pymatgen
data_Mg14AlCdO16
_symmetry_space_group_name_H-M   'P 1'
_cell_length_a   8.63886400
_cell_length_b   8.63886400
_cell_length_c   4.32735800
_cell_angle_alpha   90.00000000
_cell_angle_beta   90.00000000
_cell_angle_gamma   90.00000000
_symmetry_Int_Tables_number   1
_chemical_formula_structural   Mg14AlCdO16
_chemical_formula_sum   'Mg14 Al1 Cd1 O16'
_cell_volume   322.95060296
_cell_formula_units_Z   1
loop_
 _symmetry_equiv_pos_site_id
 _symmetry_equiv_pos_as_xyz
  1  'x, y, z'
loop_
 _atom_site_type_symbol
 _atom_site_label
 _atom_site_symmetry_multiplicity
 _atom_site_fract_x
 _atom_site_fract_y
 _atom_site_fract_z
 _atom_site_occupancy
  Mg  Mg0  1  0.50000000  0.00000000  0.00000000  1
  Mg  Mg1  1  0.00000000  0.50000000  0.00000000  1
  Mg  Mg2  1  0.25029300  0.00000000  0.50000000  1
  Mg  Mg3  1  0.74970700  0.00000000  0.50000000  1
  Mg  Mg4  1  0.24687600  0.50000000  0.50000000  1
  Mg  Mg5  1  0.75312400  0.50000000  0.50000000  1
  Mg  Mg6  1  0.00000000  0.25029300  0.50000000  1
  Mg  Mg7  1  0.50000000  0.24687600  0.50000000  1
  Mg  Mg8  1  0.00000000  0.74970700  0.50000000  1
  Mg  Mg9  1  0.50000000  0.75312400  0.50000000  1
  Mg  Mg10  1  0.25026000  0.25026000  0.00000000  1
  Mg  Mg11  1  0.74974000  0.25026000  0.00000000  1
  Mg  Mg12  1  0.25026000  0.74974000  0.00000000  1
  Mg  Mg13  1  0.74974000  0.74974000  0.00000000  1
  Al  Al0  1  0.00000000  0.00000000  0.00000000  1
  Cd  Cd0  1  0.50000000  0.50000000  0.00000000  1
  O  O0  1  0.00000000  0.22600400  0.00000000  1
  O  O1  1  0.50000000  0.22639900  0.00000000  1
  O  O2  1  0.00000000  0.77399600  0.00000000  1
  O  O3  1  0.50000000  0.77360100  0.00000000  1
  O  O4  1  0.24855900  0.24855900  0.50000000  1
  O  O5  1  0.75144100  0.24855900  0.50000000  1
  O  O6  1  0.24855900  0.75144100  0.50000000  1
  O  O7  1  0.75144100  0.75144100  0.50000000  1
  O  O8  1  0.00000000  0.00000000  0.50000000  1
  O  O9  1  0.50000000  0.00000000  0.50000000  1
  O  O10  1  0.00000000  0.50000000  0.50000000  1
  O  O11  1  0.50000000  0.50000000  0.50000000  1
  O  O12  1  0.22600400  0.00000000  0.00000000  1
  O  O13  1  0.77399600  0.00000000  0.00000000  1
  O  O14  1  0.22639900  0.50000000  0.00000000  1
  O  O15  1  0.77360100  0.50000000  0.00000000  1
loop_
_geom_bond_atom_site_label_1
_geom_bond_atom_site_label_2
_geom_bond_distance
_geom_bond_site_symmetry_2
Mg0 O1 1.955830 1_555
Mg0 O3 1.955830 1_545
Mg0 O9 2.163679 1_554
Mg0 O9 2.163679 1_555
Mg0 O12 2.367014 1_555
Mg0 O13 2.367014 1_555
Mg1 O14 1.955830 1_555
Mg1 O15 1.955830 1_455
Mg1 O10 2.163679 1_555
Mg1 O10 2.163679 1_554
Mg1 O0 2.367014 1_555
Mg1 O2 2.367014 1_555
Mg2 O4 2.147320 1_555
Mg2 O6 2.147320 1_545
Mg2 O9 2.157185 1_555
Mg2 O8 2.162247 1_555
Mg2 O12 2.173830 1_556
Mg2 O12 2.173830 1_555
Mg3 O5 2.147320 1_555
Mg3 O7 2.147320 1_545
Mg3 O9 2.157185 1_555
Mg3 O8 2.162247 1_655
Mg3 O13 2.173830 1_556
Mg3 O13 2.173830 1_555
Mg4 O10 2.132728 1_555
Mg4 O14 2.170898 1_556
Mg4 O14 2.170898 1_555
Mg4 O4 2.172213 1_555
Mg4 O6 2.172213 1_555
Mg4 O11 2.186704 1_555
Mg5 O10 2.132728 1_655
Mg5 O15 2.170898 1_556
Mg5 O15 2.170898 1_555
Mg5 O5 2.172213 1_555
Mg5 O7 2.172213 1_555
Mg5 O11 2.186704 1_555
Mg6 O4 2.147320 1_555
Mg6 O5 2.147320 1_455
Mg6 O10 2.157185 1_555
Mg6 O8 2.162247 1_555
Mg6 O0 2.173830 1_555
Mg6 O0 2.173830 1_556
Mg7 O9 2.132728 1_555
Mg7 O1 2.170898 1_556
Mg7 O1 2.170898 1_555
Mg7 O4 2.172213 1_555
Mg7 O5 2.172213 1_555
Mg7 O11 2.186704 1_555
Mg8 O6 2.147320 1_555
Mg8 O7 2.147320 1_455
Mg8 O10 2.157185 1_555
Mg8 O8 2.162247 1_565
Mg8 O2 2.173830 1_555
Mg8 O2 2.173830 1_556
Mg9 O9 2.132728 1_565
Mg9 O3 2.170898 1_555
Mg9 O3 2.170898 1_556
Mg9 O6 2.172213 1_555
Mg9 O7 2.172213 1_555
Mg9 O11 2.186704 1_555
Mg10 O4 2.163779 1_554
Mg10 O4 2.163779 1_555
Mg10 O1 2.167295 1_555
Mg10 O14 2.167295 1_555
Mg10 O12 2.172093 1_555
Mg10 O0 2.172093 1_555
Mg11 O5 2.163779 1_554
Mg11 O5 2.163779 1_555
Mg11 O1 2.167295 1_555
Mg11 O15 2.167295 1_555
Mg11 O13 2.172093 1_555
Mg11 O0 2.172093 1_655
Mg12 O6 2.163779 1_554
Mg12 O6 2.163779 1_555
Mg12 O14 2.167295 1_555
Mg12 O3 2.167295 1_555
Mg12 O2 2.172093 1_555
Mg12 O12 2.172093 1_565
Mg13 O7 2.163779 1_554
Mg13 O7 2.163779 1_555
Mg13 O15 2.167295 1_555
Mg13 O3 2.167295 1_555
Mg13 O13 2.172093 1_565
Mg13 O2 2.172093 1_655
Al0 O13 1.952418 1_455
Al0 O2 1.952418 1_545
Al0 O0 1.952418 1_555
Al0 O12 1.952418 1_555
Al0 O8 2.163679 1_554
Al0 O8 2.163679 1_555
Cd0 O11 2.163679 1_554
Cd0 O11 2.163679 1_555
Cd0 O3 2.363602 1_555
Cd0 O1 2.363602 1_555
Cd0 O14 2.363602 1_555
Cd0 O15 2.363602 1_555
