# generated using pymatgen
data_Nb6Hg(Br8O9)2
_symmetry_space_group_name_H-M   'P 1'
_cell_length_a   14.98871073
_cell_length_b   14.98871073
_cell_length_c   14.98871073
_cell_angle_alpha   60.00000000
_cell_angle_beta   60.00000000
_cell_angle_gamma   60.00000000
_symmetry_Int_Tables_number   1
_chemical_formula_structural   Nb6Hg(Br8O9)2
_chemical_formula_sum   'Nb12 Hg2 Br32 O36'
_cell_volume   2381.10110633
_cell_formula_units_Z   2
loop_
 _symmetry_equiv_pos_site_id
 _symmetry_equiv_pos_as_xyz
  1  'x, y, z'
loop_
 _atom_site_type_symbol
 _atom_site_label
 _atom_site_symmetry_multiplicity
 _atom_site_fract_x
 _atom_site_fract_y
 _atom_site_fract_z
 _atom_site_occupancy
  Nb  Nb0  1  0.34928000  0.65072000  0.65072000  1
  Nb  Nb1  1  0.65072000  0.34928000  0.34928000  1
  Nb  Nb2  1  0.65072000  0.65072000  0.34928000  1
  Nb  Nb3  1  0.34928000  0.34928000  0.65072000  1
  Nb  Nb4  1  0.65072000  0.34928000  0.65072000  1
  Nb  Nb5  1  0.34928000  0.65072000  0.34928000  1
  Nb  Nb6  1  0.90072000  0.59928000  0.59928000  1
  Nb  Nb7  1  0.59928000  0.90072000  0.90072000  1
  Nb  Nb8  1  0.59928000  0.59928000  0.90072000  1
  Nb  Nb9  1  0.90072000  0.90072000  0.59928000  1
  Nb  Nb10  1  0.59928000  0.90072000  0.59928000  1
  Nb  Nb11  1  0.90072000  0.59928000  0.90072000  1
  Hg  Hg0  1  0.25000000  0.25000000  0.25000000  1
  Hg  Hg1  1  0.00000000  0.00000000  0.00000000  1
  Br  Br0  1  0.25598900  0.49852400  0.74696300  1
  Br  Br1  1  0.49852400  0.25598900  0.49852400  1
  Br  Br2  1  0.74696300  0.49852400  0.25598900  1
  Br  Br3  1  0.49852400  0.74696300  0.49852400  1
  Br  Br4  1  0.49852400  0.74696300  0.25598900  1
  Br  Br5  1  0.25598900  0.49852400  0.49852400  1
  Br  Br6  1  0.49852400  0.25598900  0.74696300  1
  Br  Br7  1  0.74696300  0.49852400  0.49852400  1
  Br  Br8  1  0.74696300  0.25598900  0.49852400  1
  Br  Br9  1  0.49852400  0.49852400  0.25598900  1
  Br  Br10  1  0.25598900  0.74696300  0.49852400  1
  Br  Br11  1  0.49852400  0.49852400  0.74696300  1
  Br  Br12  1  0.99401100  0.75147600  0.50303700  1
  Br  Br13  1  0.75147600  0.99401100  0.75147600  1
  Br  Br14  1  0.50303700  0.75147600  0.99401100  1
  Br  Br15  1  0.75147600  0.50303700  0.75147600  1
  Br  Br16  1  0.75147600  0.50303700  0.99401100  1
  Br  Br17  1  0.99401100  0.75147600  0.75147600  1
  Br  Br18  1  0.75147600  0.99401100  0.50303700  1
  Br  Br19  1  0.50303700  0.75147600  0.75147600  1
  Br  Br20  1  0.50303700  0.99401100  0.75147600  1
  Br  Br21  1  0.75147600  0.75147600  0.99401100  1
  Br  Br22  1  0.99401100  0.50303700  0.75147600  1
  Br  Br23  1  0.75147600  0.75147600  0.50303700  1
  Br  Br24  1  0.03429100  0.32190300  0.32190300  1
  Br  Br25  1  0.32190300  0.03429100  0.32190300  1
  Br  Br26  1  0.32190300  0.32190300  0.03429100  1
  Br  Br27  1  0.32190300  0.32190300  0.32190300  1
  Br  Br28  1  0.21570900  0.92809700  0.92809700  1
  Br  Br29  1  0.92809700  0.21570900  0.92809700  1
  Br  Br30  1  0.92809700  0.92809700  0.21570900  1
  Br  Br31  1  0.92809700  0.92809700  0.92809700  1
  O  O0  1  0.26839000  0.73161000  0.73161000  1
  O  O1  1  0.73161000  0.26839000  0.26839000  1
  O  O2  1  0.73161000  0.73161000  0.26839000  1
  O  O3  1  0.26839000  0.26839000  0.73161000  1
  O  O4  1  0.73161000  0.26839000  0.73161000  1
  O  O5  1  0.26839000  0.73161000  0.26839000  1
  O  O6  1  0.98161000  0.51839000  0.51839000  1
  O  O7  1  0.51839000  0.98161000  0.98161000  1
  O  O8  1  0.51839000  0.51839000  0.98161000  1
  O  O9  1  0.98161000  0.98161000  0.51839000  1
  O  O10  1  0.51839000  0.98161000  0.51839000  1
  O  O11  1  0.98161000  0.51839000  0.98161000  1
  O  O12  1  0.60024700  0.18414300  0.18414300  1
  O  O13  1  0.18414300  0.60024700  0.03146700  1
  O  O14  1  0.18414300  0.03146700  0.60024700  1
  O  O15  1  0.03146700  0.18414300  0.18414300  1
  O  O16  1  0.18414300  0.18414300  0.60024700  1
  O  O17  1  0.60024700  0.03146700  0.18414300  1
  O  O18  1  0.03146700  0.60024700  0.18414300  1
  O  O19  1  0.18414300  0.18414300  0.03146700  1
  O  O20  1  0.18414300  0.60024700  0.18414300  1
  O  O21  1  0.03146700  0.18414300  0.60024700  1
  O  O22  1  0.60024700  0.18414300  0.03146700  1
  O  O23  1  0.18414300  0.03146700  0.18414300  1
  O  O24  1  0.64975300  0.06585700  0.06585700  1
  O  O25  1  0.06585700  0.64975300  0.21853300  1
  O  O26  1  0.06585700  0.21853300  0.64975300  1
  O  O27  1  0.21853300  0.06585700  0.06585700  1
  O  O28  1  0.06585700  0.06585700  0.64975300  1
  O  O29  1  0.64975300  0.21853300  0.06585700  1
  O  O30  1  0.21853300  0.64975300  0.06585700  1
  O  O31  1  0.06585700  0.06585700  0.21853300  1
  O  O32  1  0.06585700  0.64975300  0.06585700  1
  O  O33  1  0.21853300  0.06585700  0.64975300  1
  O  O34  1  0.64975300  0.06585700  0.21853300  1
  O  O35  1  0.06585700  0.21853300  0.06585700  1
loop_
_geom_bond_atom_site_label_1
_geom_bond_atom_site_label_2
_geom_bond_distance
_geom_bond_site_symmetry_2
Nb0 O0 1.714645 1_555
Nb1 O1 1.714645 1_555
Nb2 O2 1.714645 1_555
Nb3 O3 1.714645 1_555
Nb4 O4 1.714645 1_555
Nb5 O5 1.714645 1_555
Nb6 O6 1.714645 1_555
Nb7 O7 1.714645 1_555
Nb8 O8 1.714645 1_555
Nb9 O9 1.714645 1_555
Nb10 O10 1.714645 1_555
Nb11 O11 1.714645 1_555
Br0 Nb3 2.668734 1_555
Br0 Nb0 2.668734 1_555
Br1 Nb3 2.668734 1_555
Br1 Nb1 2.668734 1_555
Br2 Nb1 2.668734 1_555
Br2 Nb2 2.668734 1_555
Br3 Nb0 2.668734 1_555
Br3 Nb2 2.668734 1_555
Br4 Nb5 2.668734 1_555
Br4 Nb2 2.668734 1_555
Br5 Nb3 2.668734 1_555
Br5 Nb5 2.668734 1_555
Br6 Nb3 2.668734 1_555
Br6 Nb4 2.668734 1_555
Br7 Nb4 2.668734 1_555
Br7 Nb2 2.668734 1_555
Br8 Nb1 2.668734 1_555
Br8 Nb4 2.668734 1_555
Br9 Nb5 2.668734 1_555
Br9 Nb1 2.668734 1_555
Br10 Nb5 2.668734 1_555
Br10 Nb0 2.668734 1_555
Br11 Nb4 2.668734 1_555
Br11 Nb0 2.668734 1_555
Br12 Nb6 2.668734 1_555
Br12 Nb9 2.668734 1_555
Br13 Nb7 2.668734 1_555
Br13 Nb9 2.668734 1_555
Br14 Nb8 2.668734 1_555
Br14 Nb7 2.668734 1_555
Br15 Nb6 2.668734 1_555
Br15 Nb8 2.668734 1_555
Br16 Nb8 2.668734 1_555
Br16 Nb11 2.668734 1_555
Br17 Nb11 2.668734 1_555
Br17 Nb9 2.668734 1_555
Br18 Nb10 2.668734 1_555
Br18 Nb9 2.668734 1_555
Br19 Nb8 2.668734 1_555
Br19 Nb10 2.668734 1_555
Br20 Nb10 2.668734 1_555
Br20 Nb7 2.668734 1_555
Br21 Nb7 2.668734 1_555
Br21 Nb11 2.668734 1_555
Br22 Nb6 2.668734 1_555
Br22 Nb11 2.668734 1_555
Br23 Nb6 2.668734 1_555
Br23 Nb10 2.668734 1_555
Br24 Hg0 2.639897 1_555
Br25 Hg0 2.639897 1_555
Br26 Hg0 2.639897 1_555
Br27 Hg0 2.639897 1_555
Br28 Hg1 2.639897 1_566
Br29 Hg1 2.639897 1_656
Br30 Hg1 2.639897 1_665
Br31 Hg1 2.639897 1_666
O12 O29 1.453510 1_555
O12 O34 1.453510 1_555
O13 O30 1.453510 1_555
O13 O32 1.453510 1_555
O14 O33 1.453510 1_555
O14 O28 1.453510 1_555
O15 O35 1.453510 1_555
O15 O31 1.453510 1_555
O16 O33 1.453510 1_555
O16 O26 1.453510 1_555
O17 O34 1.453510 1_555
O17 O24 1.453510 1_555
O18 O25 1.453510 1_555
O18 O32 1.453510 1_555
O19 O35 1.453510 1_555
O19 O27 1.453510 1_555
O20 O30 1.453510 1_555
O20 O25 1.453510 1_555
O21 O26 1.453510 1_555
O21 O28 1.453510 1_555
O22 O29 1.453510 1_555
O22 O24 1.453510 1_555
O23 O27 1.453510 1_555
O23 O31 1.453510 1_555
