# generated using pymatgen
data_Nd4S7
_symmetry_space_group_name_H-M   'P 1'
_cell_length_a   5.61914122
_cell_length_b   5.61914018
_cell_length_c   8.06922031
_cell_angle_alpha   90.00000000
_cell_angle_beta   90.00000000
_cell_angle_gamma   90.00000000
_symmetry_Int_Tables_number   1
_chemical_formula_structural   Nd4S7
_chemical_formula_sum   'Nd4 S7'
_cell_volume   254.78355109
_cell_formula_units_Z   1
loop_
 _symmetry_equiv_pos_site_id
 _symmetry_equiv_pos_as_xyz
  1  'x, y, z'
loop_
 _atom_site_type_symbol
 _atom_site_label
 _atom_site_symmetry_multiplicity
 _atom_site_fract_x
 _atom_site_fract_y
 _atom_site_fract_z
 _atom_site_occupancy
  Nd  Nd0  1  0.24582953  0.24582953  0.27028344  1
  Nd  Nd1  1  0.75417047  0.75417047  0.27028344  1
  Nd  Nd2  1  0.24582953  0.75417047  0.72971656  1
  Nd  Nd3  1  0.75417047  0.24582953  0.72971656  1
  S  S0  1  0.25289657  0.25289657  0.63604527  1
  S  S1  1  0.74710343  0.74710343  0.63604527  1
  S  S2  1  0.25289657  0.74710343  0.36395473  1
  S  S3  1  0.74710343  0.25289657  0.36395473  1
  S  S4  1  0.00000000  0.00000000  -0.00000000  1
  S  S5  1  0.50000000  0.00000000  -0.00000000  1
  S  S6  1  0.00000000  0.50000000  -0.00000000  1
loop_
_geom_bond_atom_site_label_1
_geom_bond_atom_site_label_2
_geom_bond_distance
_geom_bond_site_symmetry_2
Nd0 S2 2.902827 1_545
Nd0 S3 2.902828 1_455
Nd0 S2 2.916651 1_555
Nd0 S3 2.916651 1_555
Nd0 S4 2.927955 1_555
Nd0 S6 2.950356 1_555
Nd0 S5 2.950356 1_555
Nd0 S0 2.951947 1_555
Nd1 S3 2.902827 1_565
Nd1 S2 2.902828 1_655
Nd1 S3 2.916651 1_555
Nd1 S2 2.916651 1_555
Nd1 S4 2.927955 1_665
Nd1 S6 2.950356 1_655
Nd1 S5 2.950356 1_565
Nd1 S1 2.951947 1_555
Nd2 S0 2.902827 1_565
Nd2 S1 2.902828 1_455
Nd2 S0 2.916651 1_555
Nd2 S1 2.916651 1_555
Nd2 S4 2.927955 1_566
Nd2 S6 2.950356 1_556
Nd2 S5 2.950356 1_566
Nd2 S2 2.951947 1_555
Nd3 S1 2.902827 1_545
Nd3 S0 2.902828 1_655
Nd3 S1 2.916651 1_555
Nd3 S0 2.916651 1_555
Nd3 S4 2.927955 1_656
Nd3 S6 2.950356 1_656
Nd3 S5 2.950356 1_556
Nd3 S3 2.951947 1_555
