# generated using pymatgen
data_Zn2Cl5O2
_symmetry_space_group_name_H-M   'P 1'
_cell_length_a   12.08514244
_cell_length_b   11.97556541
_cell_length_c   6.60789781
_cell_angle_alpha   74.97548881
_cell_angle_beta   73.14821749
_cell_angle_gamma   31.87629370
_symmetry_Int_Tables_number   1
_chemical_formula_structural   Zn2Cl5O2
_chemical_formula_sum   'Zn4 Cl10 O4'
_cell_volume   483.18105525
_cell_formula_units_Z   2
loop_
 _symmetry_equiv_pos_site_id
 _symmetry_equiv_pos_as_xyz
  1  'x, y, z'
loop_
 _atom_site_type_symbol
 _atom_site_label
 _atom_site_symmetry_multiplicity
 _atom_site_fract_x
 _atom_site_fract_y
 _atom_site_fract_z
 _atom_site_occupancy
  Zn  Zn0  1  0.16464700  0.16407800  0.36174000  1
  Zn  Zn1  1  0.30953500  0.36174000  0.16407800  1
  Zn  Zn2  1  0.88826000  0.94046500  0.08535300  1
  Zn  Zn3  1  0.08592200  0.08535300  0.94046500  1
  Cl  Cl0  1  0.30092200  0.03136700  0.67215000  1
  Cl  Cl1  1  0.99556100  0.67215000  0.03136700  1
  Cl  Cl2  1  0.57785000  0.25443900  0.94907800  1
  Cl  Cl3  1  0.21863300  0.94907800  0.25443900  1
  Cl  Cl4  1  0.81196300  0.48710500  0.39755800  1
  Cl  Cl5  1  0.30337400  0.39755800  0.48710500  1
  Cl  Cl6  1  0.85244200  0.94662600  0.43803700  1
  Cl  Cl7  1  0.76289500  0.43803700  0.94662600  1
  Cl  Cl8  1  0.38170200  0.11829800  0.11829800  1
  Cl  Cl9  1  0.13170200  0.86829800  0.86829800  1
  O  O0  1  0.88134400  0.60559600  0.74090900  1
  O  O1  1  0.77215100  0.74090900  0.60559600  1
  O  O2  1  0.50909100  0.47784900  0.36865600  1
  O  O3  1  0.64440400  0.36865600  0.47784900  1
loop_
_geom_bond_atom_site_label_1
_geom_bond_atom_site_label_2
_geom_bond_distance
_geom_bond_site_symmetry_2
Cl0 Zn0 2.295315 1_555
Cl0 Zn3 2.320129 1_555
Cl1 Zn1 2.295315 1_655
Cl1 Zn2 2.320129 1_555
Cl2 Zn2 2.295315 1_546
Cl2 Zn1 2.320129 1_556
Cl3 Zn3 2.295315 1_564
Cl3 Zn0 2.320129 1_565
Cl4 Zn0 2.252568 1_655
Cl5 Zn1 2.252568 1_555
Cl6 Zn2 2.252568 1_555
Cl7 Zn3 2.252568 1_655
Cl8 Zn1 2.310279 1_555
Cl8 Zn0 2.310279 1_555
Cl9 Zn2 2.310279 1_456
Cl9 Zn3 2.310279 1_565
O0 O1 1.211550 1_555
O2 O3 1.211550 1_555
