# generated using pymatgen
data_Li9Co7O16
_symmetry_space_group_name_H-M   'P 1'
_cell_length_a   2.92423100
_cell_length_b   9.87076700
_cell_length_c   10.07963045
_cell_angle_alpha   79.53846374
_cell_angle_beta   90.00000000
_cell_angle_gamma   90.00000000
_symmetry_Int_Tables_number   1
_chemical_formula_structural   Li9Co7O16
_chemical_formula_sum   'Li9 Co7 O16'
_cell_volume   286.10618366
_cell_formula_units_Z   1
loop_
 _symmetry_equiv_pos_site_id
 _symmetry_equiv_pos_as_xyz
  1  'x, y, z'
loop_
 _atom_site_type_symbol
 _atom_site_label
 _atom_site_symmetry_multiplicity
 _atom_site_fract_x
 _atom_site_fract_y
 _atom_site_fract_z
 _atom_site_occupancy
  Li  Li0  1  0.50000000  0.24806400  0.62596900  1
  Li  Li1  1  0.50000000  0.75193600  0.37403100  1
  Li  Li2  1  0.50000000  0.24660200  0.12570100  1
  Li  Li3  1  0.00000000  0.25222300  0.37415400  1
  Li  Li4  1  0.00000000  0.75468400  0.12175000  1
  Li  Li5  1  0.00000000  0.24531600  0.87825000  1
  Li  Li6  1  0.50000000  0.75339800  0.87429900  1
  Li  Li7  1  0.00000000  0.74777700  0.62584600  1
  Li  Li8  1  0.50000000  0.00000000  0.00000000  1
  Co  Co0  1  0.00000000  0.99753500  0.76116500  1
  Co  Co1  1  0.00000000  0.00246500  0.23883500  1
  Co  Co2  1  0.00000000  0.50000000  0.50000000  1
  Co  Co3  1  0.00000000  0.50000000  0.00000000  1
  Co  Co4  1  0.50000000  0.50193900  0.24934700  1
  Co  Co5  1  0.50000000  0.49806100  0.75065300  1
  Co  Co6  1  0.50000000  0.00000000  0.50000000  1
  O  O0  1  0.50000000  0.11490700  0.80544100  1
  O  O1  1  0.50000000  0.61598500  0.56193500  1
  O  O2  1  0.50000000  0.11168100  0.31606200  1
  O  O3  1  0.00000000  0.11010500  0.57047300  1
  O  O4  1  0.00000000  0.61561500  0.31421900  1
  O  O5  1  0.00000000  0.11335200  0.08252900  1
  O  O6  1  0.50000000  0.61819800  0.06061000  1
  O  O7  1  0.00000000  0.61366800  0.81450100  1
  O  O8  1  0.50000000  0.38401500  0.43806500  1
  O  O9  1  0.50000000  0.88509300  0.19455900  1
  O  O10  1  0.50000000  0.38180200  0.93939000  1
  O  O11  1  0.00000000  0.38633200  0.18549900  1
  O  O12  1  0.00000000  0.88664800  0.91747100  1
  O  O13  1  0.00000000  0.38438500  0.68578100  1
  O  O14  1  0.50000000  0.88831900  0.68393800  1
  O  O15  1  0.00000000  0.88989500  0.42952700  1
loop_
_geom_bond_atom_site_label_1
_geom_bond_atom_site_label_2
_geom_bond_distance
_geom_bond_site_symmetry_2
Li0 O0 2.033865 1_555
Li0 O8 2.113067 1_555
Li0 O3 2.140492 1_655
Li0 O3 2.140492 1_555
Li0 O13 2.146269 1_655
Li0 O13 2.146269 1_555
Li1 O9 2.033865 1_555
Li1 O1 2.113067 1_555
Li1 O15 2.140492 1_555
Li1 O15 2.140492 1_655
Li1 O4 2.146269 1_655
Li1 O4 2.146269 1_555
Li2 O5 2.065177 1_555
Li2 O5 2.065177 1_655
Li2 O10 2.097028 1_554
Li2 O2 2.127748 1_555
Li2 O11 2.169167 1_555
Li2 O11 2.169167 1_655
Li3 O11 2.110494 1_555
Li3 O8 2.132936 1_555
Li3 O8 2.132936 1_455
Li3 O2 2.167975 1_555
Li3 O2 2.167975 1_455
Li3 O3 2.208065 1_555
Li4 O6 2.152691 1_555
Li4 O6 2.152691 1_455
Li4 O9 2.162502 1_455
Li4 O9 2.162502 1_555
Li4 O4 2.163542 1_555
Li4 O12 2.227653 1_554
Li5 O10 2.152691 1_455
Li5 O10 2.152691 1_555
Li5 O0 2.162502 1_455
Li5 O0 2.162502 1_555
Li5 O13 2.163542 1_555
Li5 O5 2.227653 1_556
Li6 O12 2.065177 1_655
Li6 O12 2.065177 1_555
Li6 O6 2.097028 1_556
Li6 O14 2.127748 1_555
Li6 O7 2.169167 1_655
Li6 O7 2.169167 1_555
Li7 O7 2.110494 1_555
Li7 O1 2.132936 1_455
Li7 O1 2.132936 1_555
Li7 O14 2.167975 1_555
Li7 O14 2.167975 1_455
Li7 O15 2.208065 1_555
Li8 O9 2.079554 1_545
Li8 O0 2.079554 1_554
Li8 O12 2.102296 1_644
Li8 O5 2.102296 1_555
Li8 O12 2.102296 1_544
Li8 O5 2.102296 1_655
Co0 O12 1.747570 1_555
Co0 O0 1.966459 1_465
Co0 O0 1.966459 1_565
Co0 O3 2.038025 1_565
Co0 O14 2.051986 1_555
Co0 O14 2.051986 1_455
Co1 O5 1.747570 1_555
Co1 O9 1.966459 1_545
Co1 O9 1.966459 1_445
Co1 O15 2.038025 1_545
Co1 O2 2.051986 1_555
Co1 O2 2.051986 1_455
Co2 O4 2.008218 1_555
Co2 O13 2.008218 1_555
Co2 O1 2.024294 1_455
Co2 O8 2.024294 1_455
Co2 O1 2.024294 1_555
Co2 O8 2.024294 1_555
Co3 O7 1.998257 1_554
Co3 O11 1.998257 1_555
Co3 O6 2.032500 1_555
Co3 O6 2.032500 1_455
Co3 O10 2.032500 1_454
Co3 O10 2.032500 1_554
Co4 O4 2.022581 1_555
Co4 O4 2.022581 1_655
Co4 O11 2.029982 1_555
Co4 O11 2.029982 1_655
Co4 O6 2.035491 1_555
Co4 O8 2.041865 1_555
Co5 O13 2.022581 1_555
Co5 O13 2.022581 1_655
Co5 O7 2.029982 1_655
Co5 O7 2.029982 1_555
Co5 O10 2.035491 1_555
Co5 O1 2.041865 1_555
Co6 O2 1.977481 1_555
Co6 O14 1.977481 1_545
Co6 O15 2.025810 1_645
Co6 O3 2.025810 1_555
Co6 O3 2.025810 1_655
Co6 O15 2.025810 1_545
