# generated using pymatgen
data_Zn3Cr2(Si2O7)2
_symmetry_space_group_name_H-M   'P 1'
_cell_length_a   9.03078691
_cell_length_b   9.03078691
_cell_length_c   9.89247951
_cell_angle_alpha   61.53424764
_cell_angle_beta   61.53424764
_cell_angle_gamma   50.29927411
_symmetry_Int_Tables_number   1
_chemical_formula_structural   Zn3Cr2(Si2O7)2
_chemical_formula_sum   'Zn6 Cr4 Si8 O28'
_cell_volume   527.71125298
_cell_formula_units_Z   2
loop_
 _symmetry_equiv_pos_site_id
 _symmetry_equiv_pos_as_xyz
  1  'x, y, z'
loop_
 _atom_site_type_symbol
 _atom_site_label
 _atom_site_symmetry_multiplicity
 _atom_site_fract_x
 _atom_site_fract_y
 _atom_site_fract_z
 _atom_site_occupancy
  Zn  Zn0  1  0.07378900  0.27500800  0.08922800  1
  Zn  Zn1  1  0.72499200  0.92621100  0.41077200  1
  Zn  Zn2  1  0.27500800  0.07378900  0.58922800  1
  Zn  Zn3  1  0.38727400  0.61272600  0.75000000  1
  Zn  Zn4  1  0.92621100  0.72499200  0.91077200  1
  Zn  Zn5  1  0.61272600  0.38727400  0.25000000  1
  Cr  Cr0  1  0.79009900  0.20990100  0.75000000  1
  Cr  Cr1  1  0.20990100  0.79009900  0.25000000  1
  Cr  Cr2  1  0.00000000  0.00000000  0.00000000  1
  Cr  Cr3  1  0.00000000  0.00000000  0.50000000  1
  Si  Si0  1  0.52792300  0.11073500  0.70723200  1
  Si  Si1  1  0.11073500  0.52792300  0.20723200  1
  Si  Si2  1  0.52679400  0.22932700  0.09716600  1
  Si  Si3  1  0.22932700  0.52679400  0.59716600  1
  Si  Si4  1  0.88926500  0.47207700  0.79276800  1
  Si  Si5  1  0.47320600  0.77067300  0.90283400  1
  Si  Si6  1  0.77067300  0.47320600  0.40283400  1
  Si  Si7  1  0.47207700  0.88926500  0.29276800  1
  O  O0  1  0.84703400  0.28491600  0.34112300  1
  O  O1  1  0.96131000  0.87464400  0.41672100  1
  O  O2  1  0.46931100  0.64330100  0.08782300  1
  O  O3  1  0.87464400  0.96131000  0.91672100  1
  O  O4  1  0.25592700  0.92697200  0.32994700  1
  O  O5  1  0.05188100  0.49879600  0.62734300  1
  O  O6  1  0.64330100  0.46931100  0.58782300  1
  O  O7  1  0.07302800  0.74407300  0.17005300  1
  O  O8  1  0.94811900  0.50120400  0.37265700  1
  O  O9  1  0.64326800  0.66274500  0.26989000  1
  O  O10  1  0.03869000  0.12535600  0.58327900  1
  O  O11  1  0.74407300  0.07302800  0.67005300  1
  O  O12  1  0.50120400  0.94811900  0.87265700  1
  O  O13  1  0.28491600  0.84703400  0.84112300  1
  O  O14  1  0.66274500  0.64326800  0.76989000  1
  O  O15  1  0.92697200  0.25592700  0.82994700  1
  O  O16  1  0.90478500  0.50647400  0.93210500  1
  O  O17  1  0.35673200  0.33725500  0.73011000  1
  O  O18  1  0.49352600  0.09521500  0.56789500  1
  O  O19  1  0.33725500  0.35673200  0.23011000  1
  O  O20  1  0.49879600  0.05188100  0.12734300  1
  O  O21  1  0.12535600  0.03869000  0.08327900  1
  O  O22  1  0.50647400  0.90478500  0.43210500  1
  O  O23  1  0.53068900  0.35669900  0.91217700  1
  O  O24  1  0.09521500  0.49352600  0.06789500  1
  O  O25  1  0.35669900  0.53068900  0.41217700  1
  O  O26  1  0.71508400  0.15296600  0.15887700  1
  O  O27  1  0.15296600  0.71508400  0.65887700  1
loop_
_geom_bond_atom_site_label_1
_geom_bond_atom_site_label_2
_geom_bond_distance
_geom_bond_site_symmetry_2
Cr0 O10 1.955509 1_655
Cr0 O3 1.955509 1_545
Cr0 O15 2.056149 1_555
Cr0 O11 2.056149 1_555
Cr0 O23 2.072798 1_555
Cr0 O6 2.072798 1_555
Cr1 O1 1.955509 1_455
Cr1 O21 1.955509 1_565
Cr1 O4 2.056149 1_555
Cr1 O7 2.056149 1_555
Cr1 O25 2.072798 1_555
Cr1 O2 2.072798 1_555
Cr2 O21 1.936783 1_555
Cr2 O3 1.936783 1_444
Cr2 O7 2.002642 1_545
Cr2 O15 2.002642 1_454
Cr2 O13 2.161634 1_544
Cr2 O26 2.161634 1_455
Cr3 O1 1.936783 1_445
Cr3 O10 1.936783 1_555
Cr3 O11 2.002642 1_455
Cr3 O4 2.002642 1_545
Cr3 O27 2.161634 1_545
Cr3 O0 2.161634 1_455
O0 Si6 1.682196 1_555
O0 Zn5 2.160915 1_555
O0 Zn0 2.350518 1_655
O1 Zn1 1.897045 1_555
O2 Si5 1.630020 1_554
O2 Zn5 2.053339 1_555
O3 Zn4 1.897045 1_555
O4 Si7 1.627071 1_555
O5 Si4 1.636535 1_455
O5 Si3 1.646402 1_555
O6 Si6 1.630020 1_555
O6 Zn3 2.053339 1_555
O7 Si1 1.627071 1_555
O8 Si1 1.636535 1_655
O8 Si6 1.646402 1_555
O9 Si7 1.641176 1_555
O9 Si6 1.662464 1_555
O10 Zn2 1.897045 1_555
O11 Si0 1.627071 1_555
O12 Si0 1.636535 1_565
O12 Si5 1.646402 1_555
O13 Si5 1.682196 1_555
O13 Zn3 2.160915 1_555
O13 Zn2 2.350518 1_565
O14 Si4 1.641176 1_555
O14 Si5 1.662464 1_555
O15 Si4 1.627071 1_555
O16 Si4 1.632188 1_555
O16 Zn4 2.007023 1_555
O16 Zn0 2.050168 1_656
O17 Si0 1.641176 1_555
O17 Si3 1.662464 1_555
O18 Si0 1.632188 1_555
O18 Zn2 2.007023 1_555
O18 Zn1 2.050168 1_545
O19 Si1 1.641176 1_555
O19 Si2 1.662464 1_555
O20 Si7 1.636535 1_545
O20 Si2 1.646402 1_555
O21 Zn0 1.897045 1_555
O22 Si7 1.632188 1_555
O22 Zn1 2.007023 1_555
O22 Zn2 2.050168 1_565
O23 Si2 1.630020 1_556
O23 Zn3 2.053339 1_555
O24 Si1 1.632188 1_555
O24 Zn0 2.007023 1_555
O24 Zn4 2.050168 1_454
O25 Si3 1.630020 1_555
O25 Zn5 2.053339 1_555
O26 Si2 1.682196 1_555
O26 Zn5 2.160915 1_555
O26 Zn1 2.350518 1_545
O27 Si3 1.682196 1_555
O27 Zn3 2.160915 1_555
O27 Zn4 2.350518 1_455
