# generated using pymatgen
data_Er3Sc2Al3O12
_symmetry_space_group_name_H-M   'P 1'
_cell_length_a   10.72421081
_cell_length_b   10.72421081
_cell_length_c   10.72421081
_cell_angle_alpha   109.47122063
_cell_angle_beta   109.47122063
_cell_angle_gamma   109.47122063
_symmetry_Int_Tables_number   1
_chemical_formula_structural   Er3Sc2Al3O12
_chemical_formula_sum   'Er12 Sc8 Al12 O48'
_cell_volume   949.45445615
_cell_formula_units_Z   4
loop_
 _symmetry_equiv_pos_site_id
 _symmetry_equiv_pos_as_xyz
  1  'x, y, z'
loop_
 _atom_site_type_symbol
 _atom_site_label
 _atom_site_symmetry_multiplicity
 _atom_site_fract_x
 _atom_site_fract_y
 _atom_site_fract_z
 _atom_site_occupancy
  Er  Er0  1  0.25000000  0.37500000  0.12500000  1
  Er  Er1  1  0.75000000  0.62500000  0.87500000  1
  Er  Er2  1  0.75000000  0.12500000  0.37500000  1
  Er  Er3  1  0.12500000  0.25000000  0.37500000  1
  Er  Er4  1  0.37500000  0.75000000  0.12500000  1
  Er  Er5  1  0.25000000  0.87500000  0.62500000  1
  Er  Er6  1  0.87500000  0.75000000  0.62500000  1
  Er  Er7  1  0.62500000  0.25000000  0.87500000  1
  Er  Er8  1  0.37500000  0.12500000  0.25000000  1
  Er  Er9  1  0.62500000  0.87500000  0.75000000  1
  Er  Er10  1  0.12500000  0.37500000  0.75000000  1
  Er  Er11  1  0.87500000  0.62500000  0.25000000  1
  Sc  Sc0  1  0.00000000  0.00000000  0.00000000  1
  Sc  Sc1  1  0.50000000  0.00000000  0.50000000  1
  Sc  Sc2  1  0.00000000  0.50000000  0.50000000  1
  Sc  Sc3  1  0.50000000  0.00000000  0.00000000  1
  Sc  Sc4  1  0.50000000  0.50000000  0.00000000  1
  Sc  Sc5  1  0.50000000  0.50000000  0.50000000  1
  Sc  Sc6  1  0.00000000  0.00000000  0.50000000  1
  Sc  Sc7  1  0.00000000  0.50000000  0.00000000  1
  Al  Al0  1  0.25000000  0.62500000  0.37500000  1
  Al  Al1  1  0.75000000  0.37500000  0.62500000  1
  Al  Al2  1  0.75000000  0.87500000  0.12500000  1
  Al  Al3  1  0.37500000  0.25000000  0.62500000  1
  Al  Al4  1  0.62500000  0.75000000  0.37500000  1
  Al  Al5  1  0.25000000  0.12500000  0.87500000  1
  Al  Al6  1  0.12500000  0.75000000  0.87500000  1
  Al  Al7  1  0.87500000  0.25000000  0.12500000  1
  Al  Al8  1  0.62500000  0.37500000  0.25000000  1
  Al  Al9  1  0.37500000  0.62500000  0.75000000  1
  Al  Al10  1  0.87500000  0.12500000  0.75000000  1
  Al  Al11  1  0.12500000  0.87500000  0.25000000  1
  O  O0  1  0.47321500  0.37371900  0.28537000  1
  O  O1  1  0.52678500  0.62628100  0.71463000  1
  O  O2  1  0.58834900  0.18784500  0.21463000  1
  O  O3  1  0.91165100  0.12628100  0.59949600  1
  O  O4  1  0.28537000  0.47321500  0.37371900  1
  O  O5  1  0.31215500  0.91165100  0.28537000  1
  O  O6  1  0.41165100  0.81215500  0.78537000  1
  O  O7  1  0.08834900  0.87371900  0.40050400  1
  O  O8  1  0.71463000  0.52678500  0.62628100  1
  O  O9  1  0.68784500  0.08834900  0.71463000  1
  O  O10  1  0.02678500  0.31215500  0.90050400  1
  O  O11  1  0.21463000  0.58834900  0.18784500  1
  O  O12  1  0.12628100  0.02678500  0.21463000  1
  O  O13  1  0.97321500  0.68784500  0.09949600  1
  O  O14  1  0.78537000  0.41165100  0.81215500  1
  O  O15  1  0.87371900  0.97321500  0.78537000  1
  O  O16  1  0.59949600  0.91165100  0.12628100  1
  O  O17  1  0.18784500  0.47321500  0.59949600  1
  O  O18  1  0.40050400  0.08834900  0.87371900  1
  O  O19  1  0.81215500  0.52678500  0.40050400  1
  O  O20  1  0.90050400  0.02678500  0.31215500  1
  O  O21  1  0.37371900  0.58834900  0.90050400  1
  O  O22  1  0.09949600  0.97321500  0.68784500  1
  O  O23  1  0.62628100  0.41165100  0.09949600  1
  O  O24  1  0.37371900  0.28537000  0.47321500  1
  O  O25  1  0.58834900  0.90050400  0.37371900  1
  O  O26  1  0.62628100  0.71463000  0.52678500  1
  O  O27  1  0.41165100  0.09949600  0.62628100  1
  O  O28  1  0.12628200  0.59949600  0.91165100  1
  O  O29  1  0.02678500  0.21463000  0.12628100  1
  O  O30  1  0.87371900  0.40050400  0.08834900  1
  O  O31  1  0.97321500  0.78537000  0.87371800  1
  O  O32  1  0.31215500  0.90050400  0.02678500  1
  O  O33  1  0.91165100  0.28537000  0.31215500  1
  O  O34  1  0.68784500  0.09949600  0.97321500  1
  O  O35  1  0.08834900  0.71463000  0.68784500  1
  O  O36  1  0.18784500  0.21463000  0.58834900  1
  O  O37  1  0.47321500  0.59949600  0.18784500  1
  O  O38  1  0.81215500  0.78537000  0.41165100  1
  O  O39  1  0.52678500  0.40050400  0.81215500  1
  O  O40  1  0.28537000  0.31215500  0.91165100  1
  O  O41  1  0.71463000  0.68784500  0.08834900  1
  O  O42  1  0.21463000  0.12628100  0.02678500  1
  O  O43  1  0.78537000  0.87371900  0.97321500  1
  O  O44  1  0.90050400  0.37371900  0.58834900  1
  O  O45  1  0.09949600  0.62628100  0.41165100  1
  O  O46  1  0.59949600  0.18784500  0.47321500  1
  O  O47  1  0.40050400  0.81215500  0.52678500  1
loop_
_geom_bond_atom_site_label_1
_geom_bond_atom_site_label_2
_geom_bond_distance
_geom_bond_site_symmetry_2
Er0 O4 2.356702 1_555
Er0 O42 2.356702 1_555
Er0 O40 2.356702 1_554
Er0 O11 2.356702 1_555
Er0 O0 2.445685 1_555
Er0 O29 2.445685 1_555
Er0 O10 2.445685 1_554
Er0 O37 2.445685 1_555
Er1 O41 2.356702 1_556
Er1 O8 2.356702 1_555
Er1 O43 2.356702 1_555
Er1 O14 2.356702 1_555
Er1 O39 2.445685 1_555
Er1 O1 2.445685 1_555
Er1 O13 2.445685 1_556
Er1 O31 2.445691 1_555
Er2 O20 2.356702 1_555
Er2 O46 2.356702 1_555
Er2 O44 2.356702 1_555
Er2 O16 2.356702 1_545
Er2 O2 2.445685 1_555
Er2 O3 2.445685 1_555
Er2 O33 2.445685 1_555
Er2 O25 2.445685 1_545
Er3 O29 2.356702 1_555
Er3 O36 2.356702 1_555
Er3 O33 2.356702 1_455
Er3 O24 2.356702 1_555
Er3 O4 2.445685 1_555
Er3 O12 2.445685 1_555
Er3 O20 2.445685 1_455
Er3 O17 2.445685 1_555
Er4 O28 2.356695 1_554
Er4 O32 2.356702 1_555
Er4 O37 2.356702 1_555
Er4 O25 2.356702 1_555
Er4 O11 2.445685 1_555
Er4 O5 2.445685 1_555
Er4 O21 2.445685 1_554
Er4 O16 2.445685 1_555
Er5 O45 2.356702 1_555
Er5 O18 2.356702 1_565
Er5 O47 2.356702 1_555
Er5 O22 2.356702 1_555
Er5 O6 2.445685 1_555
Er5 O7 2.445685 1_555
Er5 O27 2.445685 1_565
Er5 O35 2.445685 1_555
Er6 O31 2.356692 1_555
Er6 O35 2.356702 1_655
Er6 O26 2.356702 1_555
Er6 O38 2.356702 1_555
Er6 O15 2.445685 1_555
Er6 O19 2.445685 1_555
Er6 O22 2.445685 1_655
Er6 O8 2.445685 1_555
Er7 O27 2.356702 1_555
Er7 O34 2.356702 1_555
Er7 O30 2.356702 1_556
Er7 O39 2.356702 1_555
Er7 O18 2.445685 1_555
Er7 O23 2.445685 1_556
Er7 O14 2.445685 1_555
Er7 O9 2.445685 1_555
Er8 O2 2.356702 1_555
Er8 O12 2.356702 1_555
Er8 O5 2.356702 1_545
Er8 O0 2.356702 1_555
Er8 O46 2.445685 1_555
Er8 O24 2.445685 1_555
Er8 O42 2.445685 1_555
Er8 O32 2.445685 1_545
Er9 O6 2.356702 1_555
Er9 O1 2.356702 1_555
Er9 O9 2.356702 1_565
Er9 O15 2.356702 1_555
Er9 O47 2.445685 1_555
Er9 O26 2.445685 1_555
Er9 O43 2.445685 1_555
Er9 O34 2.445685 1_565
Er10 O17 2.356702 1_555
Er10 O3 2.356702 1_455
Er10 O10 2.356702 1_555
Er10 O21 2.356702 1_555
Er10 O28 2.445679 1_555
Er10 O40 2.445685 1_555
Er10 O36 2.445685 1_555
Er10 O44 2.445685 1_455
Er11 O7 2.356702 1_655
Er11 O13 2.356702 1_555
Er11 O23 2.356702 1_555
Er11 O19 2.356702 1_555
Er11 O30 2.445685 1_555
Er11 O45 2.445685 1_655
Er11 O38 2.445685 1_555
Er11 O41 2.445685 1_555
Al0 O11 1.787152 1_555
Al0 O47 1.787152 1_555
Al0 O45 1.787152 1_555
Al0 O4 1.787152 1_555
Al1 O14 1.787152 1_555
Al1 O8 1.787152 1_555
Al1 O44 1.787152 1_555
Al1 O46 1.787152 1_555
Al2 O41 1.787152 1_555
Al2 O16 1.787152 1_555
Al2 O43 1.787152 1_554
Al2 O20 1.787152 1_565
Al3 O36 1.787152 1_555
Al3 O27 1.787152 1_555
Al3 O39 1.787152 1_555
Al3 O24 1.787152 1_555
Al4 O38 1.787152 1_555
Al4 O25 1.787152 1_555
Al4 O26 1.787152 1_555
Al4 O37 1.787152 1_555
Al5 O22 1.787152 1_545
Al5 O18 1.787152 1_555
Al5 O40 1.787152 1_555
Al5 O42 1.787152 1_556
Al6 O31 1.787149 1_455
Al6 O35 1.787152 1_555
Al6 O32 1.787152 1_556
Al6 O28 1.787154 1_555
Al7 O34 1.787152 1_554
Al7 O33 1.787152 1_555
Al7 O30 1.787152 1_555
Al7 O29 1.787152 1_655
Al8 O19 1.787152 1_555
Al8 O2 1.787152 1_555
Al8 O23 1.787152 1_555
Al8 O0 1.787152 1_555
Al9 O6 1.787152 1_555
Al9 O1 1.787152 1_555
Al9 O17 1.787152 1_555
Al9 O21 1.787152 1_555
Al10 O15 1.787152 1_545
Al10 O9 1.787152 1_555
Al10 O3 1.787152 1_555
Al10 O10 1.787152 1_655
Al11 O13 1.787152 1_455
Al11 O5 1.787152 1_555
Al11 O7 1.787152 1_555
Al11 O12 1.787152 1_565
O0 Sc5 2.106255 1_555
O1 Sc5 2.106255 1_555
O2 Sc3 2.106255 1_555
O3 Sc6 2.106255 1_655
O4 Sc5 2.106255 1_555
O5 Sc1 2.106255 1_565
O6 Sc3 2.106255 1_566
O7 Sc6 2.106255 1_565
O8 Sc5 2.106255 1_555
O9 Sc1 2.106255 1_555
O10 Sc7 2.106255 1_556
O11 Sc7 2.106255 1_555
O12 Sc0 2.106255 1_555
O13 Sc7 2.106255 1_655
O14 Sc7 2.106255 1_656
O15 Sc0 2.106255 1_666
O16 Sc3 2.106255 1_565
O17 Sc2 2.106255 1_555
O18 Sc3 2.106255 1_556
O19 Sc2 2.106255 1_655
O20 Sc6 2.106255 1_655
O21 Sc4 2.106255 1_556
O22 Sc6 2.106255 1_565
O23 Sc4 2.106255 1_555
O24 Sc5 2.106255 1_555
O25 Sc1 2.106255 1_565
O26 Sc5 2.106255 1_555
O27 Sc1 2.106255 1_555
O28 Sc7 2.106262 1_556
O29 Sc0 2.106255 1_555
O30 Sc7 2.106255 1_655
O31 Sc0 2.106258 1_666
O32 Sc3 2.106255 1_565
O33 Sc2 2.106255 1_655
O34 Sc3 2.106255 1_556
O35 Sc2 2.106255 1_555
O36 Sc6 2.106255 1_555
O37 Sc4 2.106255 1_555
O38 Sc6 2.106255 1_665
O39 Sc4 2.106255 1_556
O40 Sc4 2.106255 1_556
O41 Sc4 2.106255 1_555
O42 Sc0 2.106255 1_555
O43 Sc0 2.106255 1_666
O44 Sc2 2.106255 1_655
O45 Sc2 2.106255 1_555
O46 Sc1 2.106255 1_555
O47 Sc1 2.106255 1_565
