# generated using pymatgen
data_Sr2CN2
_symmetry_space_group_name_H-M   'P 1'
_cell_length_a   5.43652020
_cell_length_b   6.07764741
_cell_length_c   5.52537900
_cell_angle_alpha   90.00000000
_cell_angle_beta   90.00000000
_cell_angle_gamma   116.56773146
_symmetry_Int_Tables_number   1
_chemical_formula_structural   Sr2CN2
_chemical_formula_sum   'Sr4 C2 N4'
_cell_volume   163.28767863
_cell_formula_units_Z   2
loop_
 _symmetry_equiv_pos_site_id
 _symmetry_equiv_pos_as_xyz
  1  'x, y, z'
loop_
 _atom_site_type_symbol
 _atom_site_label
 _atom_site_symmetry_multiplicity
 _atom_site_fract_x
 _atom_site_fract_y
 _atom_site_fract_z
 _atom_site_occupancy
  Sr  Sr0  1  0.39575500  0.79151000  0.74267100  1
  Sr  Sr1  1  0.60424500  0.20849000  0.25732900  1
  Sr  Sr2  1  0.10424500  0.20849000  0.74267100  1
  Sr  Sr3  1  0.89575500  0.79151000  0.25732900  1
  C  C0  1  0.25000000  0.50000000  0.34815800  1
  C  C1  1  0.75000000  0.50000000  0.65184200  1
  N  N0  1  0.36443500  0.72887200  0.24761400  1
  N  N1  1  0.63556500  0.27112800  0.75238600  1
  N  N2  1  0.13556500  0.27112800  0.24761400  1
  N  N3  1  0.86443500  0.72887200  0.75238600  1
loop_
_geom_bond_atom_site_label_1
_geom_bond_atom_site_label_2
_geom_bond_distance
_geom_bond_site_symmetry_2
C0 N0 1.362523 1_555
C0 N2 1.362523 1_555
C0 Sr0 2.694936 1_555
C0 Sr2 2.694936 1_555
C1 N3 1.362523 1_555
C1 N1 1.362523 1_555
C1 Sr1 2.694936 1_555
C1 Sr3 2.694936 1_555
N0 Sr1 2.607701 1_565
N0 Sr3 2.740023 1_455
N0 Sr3 2.740034 1_555
N0 Sr0 2.756488 1_555
N0 Sr0 2.810702 1_554
N1 Sr0 2.607701 1_545
N1 Sr2 2.740023 1_655
N1 Sr2 2.740034 1_555
N1 Sr1 2.756488 1_555
N1 Sr1 2.810702 1_556
N2 Sr3 2.607701 1_445
N2 Sr1 2.740023 1_555
N2 Sr1 2.740034 1_455
N2 Sr2 2.756488 1_555
N2 Sr2 2.810702 1_554
N3 Sr2 2.607701 1_665
N3 Sr0 2.740023 1_555
N3 Sr0 2.740034 1_655
N3 Sr3 2.756488 1_555
N3 Sr3 2.810702 1_556
