# generated using pymatgen
data_Bi3(PO5)2
_symmetry_space_group_name_H-M   'P 1'
_cell_length_a   6.96272100
_cell_length_b   7.12989757
_cell_length_c   9.33778420
_cell_angle_alpha   111.90458135
_cell_angle_beta   106.76714442
_cell_angle_gamma   91.12016771
_symmetry_Int_Tables_number   1
_chemical_formula_structural   Bi3(PO5)2
_chemical_formula_sum   'Bi6 P4 O20'
_cell_volume   407.56731066
_cell_formula_units_Z   2
loop_
 _symmetry_equiv_pos_site_id
 _symmetry_equiv_pos_as_xyz
  1  'x, y, z'
loop_
 _atom_site_type_symbol
 _atom_site_label
 _atom_site_symmetry_multiplicity
 _atom_site_fract_x
 _atom_site_fract_y
 _atom_site_fract_z
 _atom_site_occupancy
  Bi  Bi0  1  0.22667600  0.59948400  0.47686300  1
  Bi  Bi1  1  0.77332400  0.40051600  0.52313700  1
  Bi  Bi2  1  0.27075500  0.22955700  0.69934800  1
  Bi  Bi3  1  0.72924500  0.77044300  0.30065200  1
  Bi  Bi4  1  0.19259700  0.82562600  0.90261800  1
  Bi  Bi5  1  0.80740300  0.17437400  0.09738200  1
  P  P0  1  0.22665500  0.97461800  0.29856900  1
  P  P1  1  0.77334500  0.02538200  0.70143100  1
  P  P2  1  0.68568400  0.63065100  0.90252100  1
  P  P3  1  0.31431600  0.36934900  0.09747900  1
  O  O0  1  0.10363100  0.48143000  0.63840300  1
  O  O1  1  0.89636900  0.51857000  0.36159700  1
  O  O2  1  0.20981300  0.87637200  0.68329800  1
  O  O3  1  0.79018700  0.12362800  0.31670200  1
  O  O4  1  0.06677700  0.98258700  0.14483500  1
  O  O5  1  0.93322300  0.01741300  0.85516500  1
  O  O6  1  0.30205600  0.19041900  0.43986600  1
  O  O7  1  0.69794400  0.80958100  0.56013400  1
  O  O8  1  0.12192700  0.84174500  0.36299700  1
  O  O9  1  0.87807300  0.15825500  0.63700300  1
  O  O10  1  0.40026000  0.88038900  0.23917500  1
  O  O11  1  0.59974000  0.11961100  0.76082500  1
  O  O12  1  0.50291900  0.49592000  0.75153200  1
  O  O13  1  0.49708100  0.50408000  0.24846800  1
  O  O14  1  0.72892800  0.55445300  0.04432900  1
  O  O15  1  0.27107200  0.44554700  0.95567100  1
  O  O16  1  0.62154900  0.84617100  0.96757500  1
  O  O17  1  0.37845100  0.15382900  0.03242500  1
  O  O18  1  0.86757300  0.62027900  0.83816700  1
  O  O19  1  0.13242700  0.37972100  0.16183300  1
loop_
_geom_bond_atom_site_label_1
_geom_bond_atom_site_label_2
_geom_bond_distance
_geom_bond_site_symmetry_2
Bi0 O1 2.199356 1_455
Bi0 O2 2.219742 1_555
Bi0 O0 2.320034 1_555
Bi0 O8 2.370260 1_555
Bi0 O19 2.635561 1_555
Bi1 O0 2.199356 1_655
Bi1 O3 2.219742 1_555
Bi1 O1 2.320034 1_555
Bi1 O9 2.370260 1_555
Bi1 O18 2.635561 1_555
Bi2 O12 2.278652 1_555
Bi2 O15 2.312359 1_555
Bi2 O0 2.316264 1_555
Bi2 O6 2.408071 1_555
Bi2 O11 2.416262 1_555
Bi2 O2 2.486694 1_545
Bi2 O9 2.622847 1_455
Bi3 O13 2.278652 1_555
Bi3 O14 2.312359 1_555
Bi3 O1 2.316264 1_555
Bi3 O7 2.408071 1_555
Bi3 O10 2.416262 1_555
Bi3 O3 2.486694 1_565
Bi3 O8 2.622847 1_655
Bi4 O2 2.243265 1_555
Bi4 O5 2.326923 1_465
Bi4 O17 2.340926 1_566
Bi4 O18 2.460569 1_455
Bi4 O4 2.535440 1_556
Bi4 O0 2.652260 1_555
Bi5 O3 2.243265 1_555
Bi5 O4 2.326923 1_645
Bi5 O16 2.340926 1_544
Bi5 O19 2.460569 1_655
Bi5 O5 2.535440 1_554
Bi5 O1 2.652260 1_555
O4 P0 1.563490 1_555
O5 P1 1.563490 1_555
O6 P0 1.561384 1_545
O7 P1 1.561384 1_565
O8 P0 1.562859 1_555
O9 P1 1.562859 1_555
O10 P0 1.536425 1_555
O11 P1 1.536425 1_555
O12 P2 1.560922 1_555
O13 P3 1.560922 1_555
O14 P2 1.566004 1_554
O15 P3 1.566004 1_556
O16 P2 1.554523 1_555
O17 P3 1.554523 1_555
O18 P2 1.542741 1_555
O19 P3 1.542741 1_555
