# generated using pymatgen
data_U
_symmetry_space_group_name_H-M   'P 1'
_cell_length_a   7.38103762
_cell_length_b   7.38103762
_cell_length_c   16.32059400
_cell_angle_alpha   90.00000000
_cell_angle_beta   90.00000000
_cell_angle_gamma   94.14603680
_symmetry_Int_Tables_number   1
_chemical_formula_structural   U
_chemical_formula_sum   U16
_cell_volume   886.81445956
_cell_formula_units_Z   16
loop_
 _symmetry_equiv_pos_site_id
 _symmetry_equiv_pos_as_xyz
  1  'x, y, z'
loop_
 _atom_site_type_symbol
 _atom_site_label
 _atom_site_symmetry_multiplicity
 _atom_site_fract_x
 _atom_site_fract_y
 _atom_site_fract_z
 _atom_site_occupancy
  U  U0  1  0.63118000  0.36882000  0.75000000  1
  U  U1  1  0.86882000  0.13118000  0.25000000  1
  U  U2  1  0.36882000  0.63118000  0.25000000  1
  U  U3  1  0.13118000  0.86882000  0.75000000  1
  U  U4  1  0.88140000  0.11860000  0.75000000  1
  U  U5  1  0.61860000  0.38140000  0.25000000  1
  U  U6  1  0.11860000  0.88140000  0.25000000  1
  U  U7  1  0.38140000  0.61860000  0.75000000  1
  U  U8  1  0.00505000  0.49495000  0.76462800  1
  U  U9  1  0.50505000  0.99495000  0.73537200  1
  U  U10  1  0.49495000  0.00505000  0.26462800  1
  U  U11  1  0.99495000  0.50505000  0.23537200  1
  U  U12  1  0.75672700  0.74327300  0.73805900  1
  U  U13  1  0.25672700  0.24327300  0.76194100  1
  U  U14  1  0.74327300  0.75672700  0.23805900  1
  U  U15  1  0.24327300  0.25672700  0.26194100  1
loop_
_geom_bond_atom_site_label_1
_geom_bond_atom_site_label_2
_geom_bond_distance
_geom_bond_site_symmetry_2
U0 U7 2.699902 1_555
U0 U4 2.704658 1_555
U0 U13 2.857486 1_555
U0 U12 2.857486 1_555
U0 U9 2.857854 1_545
U0 U8 2.857854 1_655
U1 U6 2.699902 1_645
U1 U5 2.704658 1_555
U1 U14 2.857486 1_545
U1 U15 2.857486 1_655
U1 U10 2.857854 1_555
U1 U11 2.857854 1_555
U2 U5 2.699902 1_555
U2 U6 2.704658 1_555
U3 U4 2.699902 1_465
U3 U7 2.704658 1_555
U3 U8 2.857854 1_555
U3 U9 2.857854 1_555
U4 U9 2.870511 1_545
U4 U8 2.870511 1_655
U7 U9 2.870511 1_555
U7 U8 2.870511 1_555
U10 U14 2.718953 1_545
U10 U15 2.720760 1_555
U10 U2 2.857854 1_545
U10 U6 2.870511 1_545
U10 U5 2.870511 1_555
U11 U15 2.718953 1_655
U11 U14 2.720760 1_555
U11 U2 2.857854 1_655
U11 U5 2.870511 1_555
U11 U6 2.870511 1_655
U12 U8 2.718953 1_655
U12 U9 2.720760 1_555
U12 U3 2.857486 1_655
U12 U7 2.861946 1_555
U12 U4 2.861946 1_565
U13 U9 2.718953 1_545
U13 U8 2.720760 1_555
U13 U3 2.857486 1_545
U13 U4 2.861946 1_455
U13 U7 2.861946 1_555
U14 U2 2.857486 1_555
U14 U5 2.861946 1_555
U14 U6 2.861946 1_655
U15 U2 2.857486 1_555
U15 U6 2.861946 1_545
U15 U5 2.861946 1_555
