# generated using pymatgen
data_Dy3Si4
_symmetry_space_group_name_H-M   'P 1'
_cell_length_a   3.87812321
_cell_length_b   4.14757700
_cell_length_c   36.40865248
_cell_angle_alpha   86.73474049
_cell_angle_beta   90.40354713
_cell_angle_gamma   90.00000000
_symmetry_Int_Tables_number   1
_chemical_formula_structural   Dy3Si4
_chemical_formula_sum   'Dy12 Si16'
_cell_volume   584.66113351
_cell_formula_units_Z   4
loop_
 _symmetry_equiv_pos_site_id
 _symmetry_equiv_pos_as_xyz
  1  'x, y, z'
loop_
 _atom_site_type_symbol
 _atom_site_label
 _atom_site_symmetry_multiplicity
 _atom_site_fract_x
 _atom_site_fract_y
 _atom_site_fract_z
 _atom_site_occupancy
  Dy  Dy0  1  0.25269500  0.90008400  0.19983200  1
  Dy  Dy1  1  0.25168400  0.23359300  0.53281200  1
  Dy  Dy2  1  0.24931500  0.56772900  0.86454300  1
  Dy  Dy3  1  0.75117800  0.43192200  0.13615500  1
  Dy  Dy4  1  0.74989000  0.76591000  0.46818100  1
  Dy  Dy5  1  0.74988500  0.09980500  0.80039000  1
  Dy  Dy6  1  0.25096000  0.47674100  0.04651700  1
  Dy  Dy7  1  0.24537400  0.80952400  0.38095200  1
  Dy  Dy8  1  0.24566300  0.14287200  0.71425700  1
  Dy  Dy9  1  0.76661000  0.85672000  0.28655900  1
  Dy  Dy10  1  0.76570000  0.18998000  0.62003900  1
  Dy  Dy11  1  0.74941800  0.52314500  0.95371100  1
  Si  Si0  1  0.26006400  0.37066900  0.25866100  1
  Si  Si1  1  0.25966900  0.70405900  0.59188200  1
  Si  Si2  1  0.25141100  0.03992100  0.92015900  1
  Si  Si3  1  0.74866500  0.95989100  0.08021800  1
  Si  Si4  1  0.74670800  0.29647300  0.40705600  1
  Si  Si5  1  0.74669300  0.63010700  0.73978500  1
  Si  Si6  1  0.25027900  0.94010500  0.11978900  1
  Si  Si7  1  0.24963900  0.27550300  0.44899500  1
  Si  Si8  1  0.24994000  0.60929500  0.78141000  1
  Si  Si9  1  0.75348100  0.39089200  0.21821600  1
  Si  Si10  1  0.75227700  0.72458800  0.55082200  1
  Si  Si11  1  0.74981600  0.05979700  0.88040600  1
  Si  Si12  1  0.30390100  0.33847100  0.32305700  1
  Si  Si13  1  0.30674000  0.67175800  0.65648500  1
  Si  Si14  1  0.24903500  0.00826800  0.98346400  1
  Si  Si15  1  0.75131100  0.99157700  0.01684500  1
loop_
_geom_bond_atom_site_label_1
_geom_bond_atom_site_label_2
_geom_bond_distance
_geom_bond_site_symmetry_2
Dy0 Si6 2.909476 1_555
Dy0 Si9 2.915585 1_555
Dy0 Si9 2.915585 1_565
Dy0 Si9 2.917800 1_455
Dy0 Si9 2.917800 1_465
Dy0 Si0 2.978814 1_565
Dy0 Si0 2.978816 1_555
Dy1 Si10 2.912065 1_545
Dy1 Si10 2.912065 1_555
Dy1 Si10 2.915151 1_445
Dy1 Si10 2.915151 1_455
Dy1 Si1 2.985118 1_545
Dy1 Si1 2.985124 1_555
Dy1 Si7 3.046664 1_555
Dy2 Si11 2.895648 1_565
Dy2 Si11 2.895651 1_555
Dy2 Si2 2.896095 1_555
Dy2 Si2 2.896095 1_565
Dy2 Si11 2.898493 1_465
Dy2 Si11 2.898496 1_455
Dy2 Si8 3.021865 1_555
Dy3 Si6 2.900291 1_555
Dy3 Si6 2.900291 1_545
Dy3 Si6 2.901241 1_655
Dy3 Si6 2.901241 1_645
Dy3 Si3 2.904247 1_545
Dy3 Si3 2.904250 1_555
Dy3 Si9 2.982830 1_555
Dy4 Si7 2.920893 1_565
Dy4 Si7 2.920893 1_555
Dy4 Si7 2.926128 1_665
Dy4 Si7 2.926128 1_655
Dy4 Si10 3.003912 1_555
Dy4 Si4 3.039251 1_555
Dy4 Si4 3.039253 1_565
Dy5 Si11 2.908547 1_555
Dy5 Si8 2.918363 1_555
Dy5 Si8 2.918363 1_545
Dy5 Si8 2.925106 1_655
Dy5 Si8 2.925106 1_645
Dy5 Si5 3.025460 1_555
Dy5 Si5 3.025463 1_545
Dy6 Si15 3.031352 1_455
Dy6 Si15 3.031352 1_445
Dy6 Si15 3.042806 1_555
Dy6 Si15 3.042806 1_545
Dy6 Si3 3.081139 1_545
Dy6 Si3 3.081142 1_555
Dy6 Si14 3.090862 1_554
Dy6 Si14 3.090865 1_564
Dy6 Si3 3.103140 1_445
Dy6 Si3 3.103143 1_455
Dy6 Si6 3.375563 1_545
Dy6 Si6 3.375563 1_555
Dy7 Si12 2.964386 1_565
Dy7 Si12 2.964389 1_555
Dy7 Si4 2.992483 1_555
Dy7 Si4 2.992489 1_565
Dy7 Si4 2.994453 1_455
Dy7 Si4 2.994458 1_465
Dy7 Si7 3.227640 1_555
Dy7 Si7 3.227642 1_565
Dy8 Si13 2.962037 1_555
Dy8 Si13 2.962037 1_545
Dy8 Si5 2.985241 1_555
Dy8 Si5 2.985247 1_545
Dy8 Si5 2.988554 1_455
Dy8 Si5 2.988560 1_445
Dy8 Si8 3.202918 1_555
Dy8 Si8 3.202920 1_545
Dy9 Si0 3.003080 1_665
Dy9 Si0 3.003080 1_655
Dy9 Si0 3.026533 1_565
Dy9 Si0 3.026533 1_555
Dy9 Si12 3.051935 1_555
Dy9 Si12 3.051935 1_565
Dy9 Si12 3.219226 1_655
Dy9 Si12 3.219226 1_665
Dy9 Si9 3.236175 1_555
Dy9 Si9 3.236178 1_565
Dy10 Si1 3.007590 1_645
Dy10 Si1 3.007593 1_655
Dy10 Si1 3.028366 1_545
Dy10 Si1 3.028369 1_555
Dy10 Si13 3.042530 1_545
Dy10 Si13 3.042536 1_555
Dy10 Si13 3.227843 1_645
Dy10 Si13 3.227848 1_655
Dy10 Si10 3.260635 1_555
Dy10 Si10 3.260638 1_545
Dy11 Si14 3.032307 1_665
Dy11 Si14 3.032310 1_655
Dy11 Si14 3.043942 1_565
Dy11 Si14 3.043945 1_555
Dy11 Si2 3.079746 1_565
Dy11 Si2 3.079746 1_555
Dy11 Si15 3.093045 1_556
Dy11 Si15 3.093051 1_546
Dy11 Si2 3.100245 1_665
Dy11 Si2 3.100245 1_655
Dy11 Si11 3.376501 1_565
Dy11 Si11 3.376504 1_555
Si0 Si12 2.345734 1_555
Si0 Si9 2.421293 1_555
Si0 Si9 2.445451 1_455
Si1 Si13 2.354090 1_555
Si1 Si10 2.432577 1_555
Si1 Si10 2.461323 1_455
Si3 Si6 2.411173 1_655
Si3 Si6 2.417418 1_555
Si4 Si7 2.466061 1_555
Si4 Si7 2.467024 1_655
Si5 Si8 2.457993 1_555
Si5 Si8 2.461018 1_655
Si11 Si2 2.415028 1_655
Si11 Si2 2.421457 1_555
Si14 Si15 2.287172 1_446
Si14 Si15 2.287624 1_546
Si14 Si2 2.301191 1_555
Si15 Si3 2.303675 1_555
