# generated using pymatgen
data_SmGaPd
_symmetry_space_group_name_H-M   'P 1'
_cell_length_a   4.52739217
_cell_length_b   7.11463064
_cell_length_c   7.57593331
_cell_angle_alpha   90.00000000
_cell_angle_beta   90.00000000
_cell_angle_gamma   90.00000000
_symmetry_Int_Tables_number   1
_chemical_formula_structural   SmGaPd
_chemical_formula_sum   'Sm4 Ga4 Pd4'
_cell_volume   244.02628971
_cell_formula_units_Z   4
loop_
 _symmetry_equiv_pos_site_id
 _symmetry_equiv_pos_as_xyz
  1  'x, y, z'
loop_
 _atom_site_type_symbol
 _atom_site_label
 _atom_site_symmetry_multiplicity
 _atom_site_fract_x
 _atom_site_fract_y
 _atom_site_fract_z
 _atom_site_occupancy
  Sm  Sm0  1  0.25000000  0.01982524  0.30170447  1
  Sm  Sm1  1  0.25000000  0.51982524  0.19829553  1
  Sm  Sm2  1  0.75000000  0.98017511  0.69829352  1
  Sm  Sm3  1  0.75000000  0.48017511  0.80170648  1
  Ga  Ga0  1  0.25000000  0.67583187  0.57887042  1
  Ga  Ga1  1  0.25000000  0.17583187  0.92112958  1
  Ga  Ga2  1  0.75000000  0.32416828  0.42112824  1
  Ga  Ga3  1  0.75000000  0.82416828  0.07887176  1
  Pd  Pd0  1  0.25000000  0.28951660  0.59273527  1
  Pd  Pd1  1  0.25000000  0.78951660  0.90726473  1
  Pd  Pd2  1  0.75000000  0.71048191  0.40726589  1
  Pd  Pd3  1  0.75000000  0.21048191  0.09273411  1
loop_
_geom_bond_atom_site_label_1
_geom_bond_atom_site_label_2
_geom_bond_distance
_geom_bond_site_symmetry_2
Ga0 Pd1 2.616068 1_555
Ga0 Pd2 2.622072 1_555
Ga0 Pd2 2.622072 1_455
Ga0 Pd0 2.750497 1_555
Ga0 Sm1 3.089473 1_555
Ga0 Sm3 3.148340 1_555
Ga0 Sm3 3.148340 1_455
Ga0 Sm0 3.224720 1_565
Ga0 Sm2 3.260576 1_455
Ga0 Sm2 3.260576 1_555
Ga1 Pd0 2.616068 1_555
Ga1 Pd3 2.622072 1_456
Ga1 Pd3 2.622072 1_556
Ga1 Pd1 2.750497 1_545
Ga1 Sm0 3.089473 1_556
Ga1 Sm2 3.148340 1_445
Ga1 Sm2 3.148340 1_545
Ga1 Sm1 3.224720 1_556
Ga1 Sm3 3.260576 1_455
Ga1 Sm3 3.260576 1_555
Ga2 Pd3 2.616070 1_555
Ga2 Pd0 2.622082 1_555
Ga2 Pd0 2.622082 1_655
Ga2 Pd2 2.750484 1_555
Ga2 Sm3 3.089497 1_555
Ga2 Sm1 3.148327 1_655
Ga2 Sm1 3.148327 1_555
Ga2 Sm2 3.224715 1_545
Ga2 Sm0 3.260577 1_655
Ga2 Sm0 3.260577 1_555
Ga3 Pd2 2.616070 1_555
Ga3 Pd1 2.622082 1_554
Ga3 Pd1 2.622082 1_654
Ga3 Pd3 2.750484 1_565
Ga3 Sm2 3.089497 1_554
Ga3 Sm0 3.148327 1_565
Ga3 Sm0 3.148327 1_665
Ga3 Sm3 3.224715 1_554
Ga3 Sm1 3.260577 1_655
Ga3 Sm1 3.260577 1_555
Pd0 Sm0 2.922823 1_555
Pd0 Sm3 3.077448 1_455
Pd0 Sm3 3.077448 1_555
Pd0 Sm2 3.256929 1_445
Pd0 Sm2 3.256929 1_545
Pd0 Sm1 3.408007 1_555
Pd1 Sm1 2.922823 1_556
Pd1 Sm2 3.077448 1_555
Pd1 Sm2 3.077448 1_455
Pd1 Sm3 3.256929 1_455
Pd1 Sm3 3.256929 1_555
Pd1 Sm0 3.408007 1_566
Pd2 Sm2 2.922813 1_555
Pd2 Sm1 3.077439 1_655
Pd2 Sm1 3.077439 1_555
Pd2 Sm0 3.256944 1_665
Pd2 Sm0 3.256944 1_565
Pd2 Sm3 3.408007 1_555
Pd3 Sm3 2.922813 1_554
Pd3 Sm0 3.077439 1_555
Pd3 Sm0 3.077439 1_655
Pd3 Sm1 3.256944 1_555
Pd3 Sm1 3.256944 1_655
Pd3 Sm2 3.408007 1_544
