# generated using pymatgen
data_MnO2
_symmetry_space_group_name_H-M   'P 1'
_cell_length_a   2.85825128
_cell_length_b   4.56161380
_cell_length_c   9.18069394
_cell_angle_alpha   90.00000000
_cell_angle_beta   90.00000000
_cell_angle_gamma   90.00000000
_symmetry_Int_Tables_number   1
_chemical_formula_structural   MnO2
_chemical_formula_sum   'Mn4 O8'
_cell_volume   119.70007703
_cell_formula_units_Z   4
loop_
 _symmetry_equiv_pos_site_id
 _symmetry_equiv_pos_as_xyz
  1  'x, y, z'
loop_
 _atom_site_type_symbol
 _atom_site_label
 _atom_site_symmetry_multiplicity
 _atom_site_fract_x
 _atom_site_fract_y
 _atom_site_fract_z
 _atom_site_occupancy
  Mn  Mn0  1  0.25000000  0.46403070  0.63443489  1
  Mn  Mn1  1  0.74999900  0.53596930  0.36556511  1
  Mn  Mn2  1  0.74999900  0.96403270  0.86556511  1
  Mn  Mn3  1  0.25000000  0.03596830  0.13443489  1
  O  O0  1  0.25000000  0.15998381  0.77487255  1
  O  O1  1  0.74999900  0.84001619  0.22512845  1
  O  O2  1  0.74999900  0.65998281  0.72512845  1
  O  O3  1  0.25000000  0.34001719  0.27487155  1
  O  O4  1  0.25000000  0.78445933  0.96925402  1
  O  O5  1  0.74999900  0.21554067  0.03074598  1
  O  O6  1  0.25000000  0.71554167  0.46925402  1
  O  O7  1  0.74999900  0.28445833  0.53074598  1
loop_
_geom_bond_atom_site_label_1
_geom_bond_atom_site_label_2
_geom_bond_distance
_geom_bond_site_symmetry_2
Mn0 O2 1.880065 1_555
Mn0 O2 1.880070 1_455
Mn0 O0 1.893660 1_555
Mn0 O6 1.901574 1_555
Mn0 O7 1.902515 1_555
Mn0 O7 1.902520 1_455
Mn1 O3 1.880065 1_555
Mn1 O3 1.880070 1_655
Mn1 O1 1.893654 1_555
Mn1 O7 1.901574 1_555
Mn1 O6 1.902515 1_555
Mn1 O6 1.902520 1_655
Mn2 O0 1.880059 1_565
Mn2 O0 1.880064 1_665
Mn2 O2 1.893664 1_555
Mn2 O5 1.901566 1_566
Mn2 O4 1.902517 1_555
Mn2 O4 1.902522 1_655
Mn3 O1 1.880065 1_545
Mn3 O1 1.880070 1_445
Mn3 O3 1.893661 1_555
Mn3 O4 1.901569 1_544
Mn3 O5 1.902515 1_555
Mn3 O5 1.902520 1_455
