# generated using pymatgen
data_Ni3Mo2P
_symmetry_space_group_name_H-M   'P 1'
_cell_length_a   4.75511665
_cell_length_b   4.75511665
_cell_length_c   7.38892700
_cell_angle_alpha   90.00000000
_cell_angle_beta   90.00000000
_cell_angle_gamma   120.00000899
_symmetry_Int_Tables_number   1
_chemical_formula_structural   Ni3Mo2P
_chemical_formula_sum   'Ni6 Mo4 P2'
_cell_volume   144.68860122
_cell_formula_units_Z   2
loop_
 _symmetry_equiv_pos_site_id
 _symmetry_equiv_pos_as_xyz
  1  'x, y, z'
loop_
 _atom_site_type_symbol
 _atom_site_label
 _atom_site_symmetry_multiplicity
 _atom_site_fract_x
 _atom_site_fract_y
 _atom_site_fract_z
 _atom_site_occupancy
  Ni  Ni0  1  0.83212500  0.16787500  0.25000000  1
  Ni  Ni1  1  0.83212500  0.66424900  0.25000000  1
  Ni  Ni2  1  0.33575100  0.16787500  0.25000000  1
  Ni  Ni3  1  0.16787500  0.83212500  0.75000000  1
  Ni  Ni4  1  0.16787500  0.33575100  0.75000000  1
  Ni  Ni5  1  0.66424900  0.83212500  0.75000000  1
  Mo  Mo0  1  0.33333300  0.66666700  0.43585000  1
  Mo  Mo1  1  0.66666700  0.33333300  0.56415000  1
  Mo  Mo2  1  0.66666700  0.33333300  0.93585000  1
  Mo  Mo3  1  0.33333300  0.66666700  0.06415000  1
  P  P0  1  0.00000000  0.00000000  0.50000000  1
  P  P1  1  0.00000000  0.00000000  0.00000000  1
loop_
_geom_bond_atom_site_label_1
_geom_bond_atom_site_label_2
_geom_bond_distance
_geom_bond_site_symmetry_2
Ni0 P1 2.307368 1_655
Ni0 P0 2.307368 1_655
Ni0 Ni1 2.360316 1_555
Ni0 Ni2 2.360316 1_555
Ni0 Ni2 2.394800 1_655
Ni0 Ni1 2.394800 1_545
Ni1 P0 2.307370 1_665
Ni1 P1 2.307370 1_665
Ni1 Ni2 2.360316 1_555
Ni1 Ni2 2.394800 1_665
Ni2 P0 2.307370 1_555
Ni2 P1 2.307370 1_555
Ni3 P0 2.307368 1_565
Ni3 P1 2.307368 1_566
Ni3 Ni5 2.360316 1_555
Ni3 Ni4 2.360316 1_555
Ni3 Ni4 2.394800 1_565
Ni3 Ni5 2.394800 1_455
Ni4 P0 2.307370 1_555
Ni4 P1 2.307370 1_556
Ni4 Ni5 2.360316 1_555
Ni4 Ni5 2.394800 1_445
Ni5 P1 2.307370 1_666
Ni5 P0 2.307370 1_665
Mo0 Ni5 2.691681 1_555
Mo0 Ni4 2.691681 1_555
Mo0 Ni3 2.691681 1_555
Mo0 Ni1 2.745656 1_455
Mo0 Ni2 2.745656 1_565
Mo0 Ni0 2.745660 1_455
Mo0 Ni0 2.745660 1_565
Mo0 Ni2 2.745664 1_555
Mo0 Ni1 2.745664 1_555
Mo0 Mo3 2.746464 1_555
Mo0 P0 2.785984 1_565
Mo0 P0 2.785988 1_665
Mo0 P0 2.785988 1_555
Mo0 Mo1 2.904433 1_455
Mo0 Mo1 2.904433 1_565
Mo0 Mo1 2.904441 1_555
Mo1 Ni1 2.691681 1_555
Mo1 Ni2 2.691681 1_555
Mo1 Ni0 2.691681 1_555
Mo1 Ni5 2.745656 1_545
Mo1 Ni4 2.745656 1_655
Mo1 Ni3 2.745660 1_545
Mo1 Ni3 2.745660 1_655
Mo1 Ni4 2.745664 1_555
Mo1 Ni5 2.745664 1_555
Mo1 Mo2 2.746464 1_555
Mo1 P0 2.785984 1_655
Mo1 P0 2.785988 1_665
Mo1 P0 2.785988 1_555
Mo2 Ni1 2.691681 1_556
Mo2 Ni2 2.691681 1_556
Mo2 Ni0 2.691681 1_556
Mo2 Ni5 2.745656 1_545
Mo2 Ni4 2.745656 1_655
Mo2 Ni3 2.745660 1_545
Mo2 Ni3 2.745660 1_655
Mo2 Ni4 2.745664 1_555
Mo2 Ni5 2.745664 1_555
Mo2 P1 2.785984 1_656
Mo2 P1 2.785988 1_556
Mo2 P1 2.785988 1_666
Mo2 Mo3 2.904433 1_546
Mo2 Mo3 2.904433 1_656
Mo2 Mo3 2.904441 1_556
Mo3 Ni5 2.691681 1_554
Mo3 Ni4 2.691681 1_554
Mo3 Ni3 2.691681 1_554
Mo3 Ni1 2.745656 1_455
Mo3 Ni2 2.745656 1_565
Mo3 Ni0 2.745660 1_455
Mo3 Ni0 2.745660 1_565
Mo3 Ni2 2.745664 1_555
Mo3 Ni1 2.745664 1_555
Mo3 P1 2.785984 1_565
Mo3 P1 2.785988 1_665
Mo3 P1 2.785988 1_555
