# generated using pymatgen
data_PuNi
_symmetry_space_group_name_H-M   'P 1'
_cell_length_a   5.47606374
_cell_length_b   5.47606374
_cell_length_c   4.17936231
_cell_angle_alpha   90.00000000
_cell_angle_beta   90.00000000
_cell_angle_gamma   141.72904824
_symmetry_Int_Tables_number   1
_chemical_formula_structural   PuNi
_chemical_formula_sum   'Pu2 Ni2'
_cell_volume   77.62559574
_cell_formula_units_Z   2
loop_
 _symmetry_equiv_pos_site_id
 _symmetry_equiv_pos_as_xyz
  1  'x, y, z'
loop_
 _atom_site_type_symbol
 _atom_site_label
 _atom_site_symmetry_multiplicity
 _atom_site_fract_x
 _atom_site_fract_y
 _atom_site_fract_z
 _atom_site_occupancy
  Pu  Pu0  1  0.14619709  0.85380291  0.75000000  1
  Pu  Pu1  1  0.85380291  0.14619709  0.25000000  1
  Ni  Ni0  1  0.42900832  0.57099168  0.75000000  1
  Ni  Ni1  1  0.57099168  0.42900832  0.25000000  1
loop_
_geom_bond_atom_site_label_1
_geom_bond_atom_site_label_2
_geom_bond_distance
_geom_bond_site_symmetry_2
Ni0 Ni1 2.554412 1_555
Ni0 Ni1 2.554412 1_556
Ni0 Pu1 2.862614 1_565
Ni0 Pu1 2.862614 1_456
Ni0 Pu1 2.862614 1_566
Ni0 Pu1 2.862614 1_455
Ni0 Pu0 2.876178 1_655
Ni0 Pu0 2.876178 1_545
Ni0 Pu0 2.926242 1_555
Ni1 Pu0 2.862614 1_545
Ni1 Pu0 2.862614 1_654
Ni1 Pu0 2.862614 1_655
Ni1 Pu0 2.862614 1_544
Ni1 Pu1 2.876178 1_455
Ni1 Pu1 2.876178 1_565
Ni1 Pu1 2.926242 1_555
