# generated using pymatgen
data_Ba2Ca2Ti3Tl2O10
_symmetry_space_group_name_H-M   'P 1'
_cell_length_a   3.92836200
_cell_length_b   3.93133752
_cell_length_c   19.86114427
_cell_angle_alpha   94.63053244
_cell_angle_beta   95.28547775
_cell_angle_gamma   90.02952717
_symmetry_Int_Tables_number   1
_chemical_formula_structural   Ba2Ca2Ti3Tl2O10
_chemical_formula_sum   'Ba2 Ca2 Ti3 Tl2 O10'
_cell_volume   304.41901751
_cell_formula_units_Z   1
loop_
 _symmetry_equiv_pos_site_id
 _symmetry_equiv_pos_as_xyz
  1  'x, y, z'
loop_
 _atom_site_type_symbol
 _atom_site_label
 _atom_site_symmetry_multiplicity
 _atom_site_fract_x
 _atom_site_fract_y
 _atom_site_fract_z
 _atom_site_occupancy
  Ba  Ba0  1  0.22223000  0.12808800  0.31877000  1
  Ba  Ba1  1  0.92334900  0.86378800  0.67983900  1
  Ca  Ca0  1  0.02700200  0.96341000  0.90744900  1
  Ca  Ca1  1  0.11118000  0.03025300  0.09163700  1
  Ti  Ti0  1  0.48760300  0.42741100  0.81595100  1
  Ti  Ti1  1  0.65633100  0.56653500  0.18314400  1
  Ti  Ti2  1  0.56837200  0.49631800  0.99951200  1
  Tl  Tl0  1  0.74025600  0.72192900  0.44207400  1
  Tl  Tl1  1  0.29730400  0.28329700  0.55699800  1
  O  O0  1  0.49486900  0.93660300  0.83784300  1
  O  O1  1  0.45031100  0.39232400  0.72534100  1
  O  O2  1  0.99503600  0.43652900  0.83768100  1
  O  O3  1  0.71649500  0.76098900  0.55979300  1
  O  O4  1  0.06812800  0.49618800  0.99941000  1
  O  O5  1  0.14344800  0.55746600  0.16082700  1
  O  O6  1  0.70189900  0.60065300  0.27355500  1
  O  O7  1  0.64350400  0.05782100  0.16160400  1
  O  O8  1  0.17451400  0.25700900  0.43972500  1
  O  O9  1  0.56804200  0.99638900  0.99981000  1
loop_
_geom_bond_atom_site_label_1
_geom_bond_atom_site_label_2
_geom_bond_distance
_geom_bond_site_symmetry_2
Ba0 O8 2.439171 1_555
Ba0 O6 2.893294 1_455
Ba0 O6 2.895871 1_555
Ba0 O6 2.939537 1_445
Ba0 O6 2.944778 1_545
Ba1 O3 2.448557 1_555
Ba1 O1 2.877770 1_555
Ba1 O1 2.909838 1_655
Ba1 O1 2.932153 1_565
Ba1 O1 2.960946 1_665
Ca0 O2 2.393864 1_455
Ca0 O0 2.394980 1_455
Ca0 O0 2.396904 1_555
Ca0 O2 2.404109 1_465
Ca0 O4 2.660205 1_565
Ca0 O9 2.672481 1_555
Ca0 O9 2.683963 1_455
Ca0 O4 2.687657 1_555
Ca1 O5 2.389168 1_555
Ca1 O5 2.395774 1_545
Ca1 O7 2.399131 1_555
Ca1 O7 2.400907 1_455
Ca1 O4 2.667158 1_544
Ca1 O9 2.670025 1_544
Ca1 O9 2.672067 1_444
Ca1 O4 2.687776 1_554
O0 Ti0 2.011514 1_565
O0 Ti0 2.013508 1_555
O1 Ti0 1.786181 1_555
O2 Ti0 2.000011 1_555
O2 Ti0 2.020676 1_655
O3 Tl0 2.341143 1_555
O3 Tl1 2.490927 1_555
O3 Tl1 2.633664 1_565
O4 Ti2 1.963410 1_455
O4 Ti2 1.964954 1_555
O5 Ti1 2.003316 1_455
O5 Ti1 2.022364 1_555
O6 Ti1 1.782223 1_555
O7 Ti1 2.010733 1_555
O7 Ti1 2.011330 1_545
O8 Tl1 2.328628 1_555
O8 Tl0 2.501430 1_455
O8 Tl0 2.713707 1_445
O9 Ti2 1.965480 1_555
O9 Ti2 1.965876 1_565
