# generated using pymatgen
data_Ba2Y2Co4O9
_symmetry_space_group_name_H-M   'P 1'
_cell_length_a   3.74225240
_cell_length_b   8.30236732
_cell_length_c   8.79456152
_cell_angle_alpha   118.48310974
_cell_angle_beta   90.04533154
_cell_angle_gamma   90.00509638
_symmetry_Int_Tables_number   1
_chemical_formula_structural   Ba2Y2Co4O9
_chemical_formula_sum   'Ba2 Y2 Co4 O9'
_cell_volume   240.16903141
_cell_formula_units_Z   1
loop_
 _symmetry_equiv_pos_site_id
 _symmetry_equiv_pos_as_xyz
  1  'x, y, z'
loop_
 _atom_site_type_symbol
 _atom_site_label
 _atom_site_symmetry_multiplicity
 _atom_site_fract_x
 _atom_site_fract_y
 _atom_site_fract_z
 _atom_site_occupancy
  Ba  Ba0  1  0.99919700  0.98864000  0.49431000  1
  Ba  Ba1  1  0.00009800  0.48928000  0.48160400  1
  Y  Y0  1  0.00069600  0.23587600  0.00754100  1
  Y  Y1  1  0.99953100  0.77323200  0.01044500  1
  Co  Co0  1  0.49993300  0.12180100  0.25265100  1
  Co  Co1  1  0.49997500  0.85769100  0.74148000  1
  Co  Co2  1  0.50017700  0.60266500  0.21082700  1
  Co  Co3  1  0.50022100  0.38153600  0.75925200  1
  O  O0  1  0.49951400  0.25957700  0.51208600  1
  O  O1  1  0.49971700  0.74543300  0.48671500  1
  O  O2  1  0.50031600  0.35246000  0.19769500  1
  O  O3  1  0.49961500  0.63182200  0.81334700  1
  O  O4  1  0.49982700  0.85188000  0.19704500  1
  O  O5  1  0.50075400  0.19415500  0.81720800  1
  O  O6  1  0.00029900  0.54800200  0.09032500  1
  O  O7  1  0.99993700  0.08952000  0.17335700  1
  O  O8  1  0.00019100  0.91143100  0.81861300  1
loop_
_geom_bond_atom_site_label_1
_geom_bond_atom_site_label_2
_geom_bond_distance
_geom_bond_site_symmetry_2
Ba0 O1 2.728723 1_555
Ba0 O1 2.731709 1_655
Ba0 O0 2.871724 1_565
Ba0 O0 2.872848 1_665
Ba0 O4 2.962567 1_555
Ba0 O4 2.968280 1_655
Ba0 O5 3.137242 1_565
Ba0 O5 3.141328 1_665
Ba0 O8 3.207674 1_655
Ba0 O7 3.305096 1_565
Ba1 O0 2.772944 1_555
Ba1 O0 2.775949 1_455
Ba1 O1 2.815766 1_555
Ba1 O1 2.817958 1_455
Ba1 O2 2.882655 1_455
Ba1 O2 2.886407 1_555
Ba1 O7 3.127740 1_455
Ba1 O3 3.178783 1_555
Ba1 O3 3.183748 1_455
Ba1 O8 3.340727 1_555
Co0 O7 1.969460 1_455
Co0 O7 1.970582 1_555
Co0 O0 2.006222 1_555
Co0 O4 2.053261 1_545
Co0 O2 2.187161 1_555
Co1 O8 1.967434 1_555
Co1 O8 1.967875 1_655
Co1 O1 1.974070 1_555
Co1 O3 2.246441 1_555
Co1 O5 2.544098 1_565
Co2 O2 2.024763 1_555
Co2 O6 2.089603 1_555
Co2 O6 2.091994 1_655
Co2 O4 2.129545 1_555
Co2 O1 2.132816 1_555
Co3 O5 1.853732 1_555
Co3 O3 1.897730 1_555
Co3 O0 1.910756 1_555
O2 Y0 2.383309 1_555
O2 Y0 2.387751 1_655
O3 Y1 2.436468 1_556
O3 Y1 2.439216 1_456
O4 Y1 2.365922 1_455
O4 Y1 2.366316 1_555
O5 Y0 2.421594 1_656
O5 Y0 2.424022 1_556
O6 Y1 2.289797 1_455
O6 Y0 2.333633 1_555
O7 Y0 2.300686 1_655
O7 Y1 2.315131 1_545
O8 Y0 2.397431 1_566
O8 Y1 2.451328 1_456
