# generated using pymatgen
data_Dy4Co3
_symmetry_space_group_name_H-M   'P 1'
_cell_length_a   11.26342277
_cell_length_b   11.26756257
_cell_length_c   4.01558741
_cell_angle_alpha   89.86988244
_cell_angle_beta   90.27374087
_cell_angle_gamma   119.72237263
_symmetry_Int_Tables_number   1
_chemical_formula_structural   Dy4Co3
_chemical_formula_sum   'Dy12 Co9'
_cell_volume   442.57135207
_cell_formula_units_Z   3
loop_
 _symmetry_equiv_pos_site_id
 _symmetry_equiv_pos_as_xyz
  1  'x, y, z'
loop_
 _atom_site_type_symbol
 _atom_site_label
 _atom_site_symmetry_multiplicity
 _atom_site_fract_x
 _atom_site_fract_y
 _atom_site_fract_z
 _atom_site_occupancy
  Dy  Dy0  1  0.61893695  0.48504689  0.74841988  1
  Dy  Dy1  1  0.51544768  0.13436958  0.74808736  1
  Dy  Dy2  1  0.86631614  0.38128393  0.74842569  1
  Dy  Dy3  1  0.38106305  0.51495311  0.25158012  1
  Dy  Dy4  1  0.48455232  0.86563042  0.25191264  1
  Dy  Dy5  1  0.13368386  0.61871607  0.25157431  1
  Dy  Dy6  1  0.78218811  0.03525924  0.75510933  1
  Dy  Dy7  1  0.96409492  0.74601308  0.75055147  1
  Dy  Dy8  1  0.25339740  0.21844858  0.75135235  1
  Dy  Dy9  1  0.21781189  0.96474076  0.24489067  1
  Dy  Dy10  1  0.03590508  0.25398692  0.24944853  1
  Dy  Dy11  1  0.74660260  0.78155142  0.24864765  1
  Co  Co0  1  0.33313376  0.66692846  0.74987485  1
  Co  Co1  1  0.66686624  0.33307154  0.25012515  1
  Co  Co2  1  0.28141299  0.83797126  0.74900186  1
  Co  Co3  1  0.16231146  0.44462606  0.74882573  1
  Co  Co4  1  0.55542256  0.71765053  0.74898935  1
  Co  Co5  1  0.71858701  0.16202874  0.25099814  1
  Co  Co6  1  0.83768854  0.55537394  0.25117427  1
  Co  Co7  1  0.44457744  0.28234947  0.25101065  1
  Co  Co8  1  -0.00000000  0.00000000  0.50000000  1
loop_
_geom_bond_atom_site_label_1
_geom_bond_atom_site_label_2
_geom_bond_distance
_geom_bond_site_symmetry_2
Co0 Co2 2.273070 1_555
Co0 Co4 2.275193 1_555
Co0 Co3 2.279722 1_555
Co0 Dy5 2.845622 1_555
Co0 Dy4 2.854067 1_555
Co0 Dy3 2.858330 1_555
Co0 Dy3 2.858864 1_556
Co0 Dy4 2.861261 1_556
Co0 Dy5 2.868564 1_556
Co1 Co5 2.273070 1_555
Co1 Co7 2.275193 1_555
Co1 Co6 2.279722 1_555
Co1 Dy2 2.845622 1_555
Co1 Dy1 2.854067 1_555
Co1 Dy0 2.858330 1_555
Co1 Dy0 2.858864 1_554
Co1 Dy1 2.861261 1_554
Co1 Dy2 2.868564 1_554
Co2 Dy9 2.749522 1_556
Co2 Dy9 2.763859 1_555
Co2 Dy4 2.941164 1_555
Co2 Dy4 2.943163 1_556
Co2 Dy5 2.962477 1_555
Co2 Dy5 2.979600 1_556
Co2 Dy1 3.061485 1_565
Co2 Dy7 3.189949 1_455
Co3 Dy10 2.760808 1_555
Co3 Dy10 2.767237 1_556
Co3 Dy5 2.922671 1_555
Co3 Dy5 2.945979 1_556
Co3 Dy3 2.964698 1_555
Co3 Dy3 2.966172 1_556
Co3 Dy2 3.043831 1_455
Co3 Dy8 3.184295 1_555
Co4 Dy11 2.758424 1_556
Co4 Dy11 2.772980 1_555
Co4 Dy3 2.932276 1_555
Co4 Dy4 2.948049 1_555
Co4 Dy3 2.952202 1_556
Co4 Dy4 2.974275 1_556
Co4 Dy0 3.039739 1_555
Co4 Dy6 3.204273 1_565
Co5 Dy6 2.749522 1_554
Co5 Dy6 2.763859 1_555
Co5 Dy1 2.941164 1_555
Co5 Dy1 2.943163 1_554
Co5 Dy2 2.962477 1_555
Co5 Dy2 2.979600 1_554
Co5 Dy4 3.061485 1_545
Co5 Dy10 3.189949 1_655
Co6 Dy7 2.760808 1_555
Co6 Dy7 2.767237 1_554
Co6 Dy2 2.922671 1_555
Co6 Dy2 2.945979 1_554
Co6 Dy0 2.964698 1_555
Co6 Dy0 2.966172 1_554
Co6 Dy5 3.043831 1_655
Co6 Dy11 3.184295 1_555
Co7 Dy8 2.758424 1_554
Co7 Dy8 2.772980 1_555
Co7 Dy0 2.932276 1_555
Co7 Dy1 2.948049 1_555
Co7 Dy0 2.952202 1_554
Co7 Dy1 2.974275 1_554
Co7 Dy3 3.039739 1_555
Co7 Dy9 3.204273 1_545
Co8 Dy10 2.865129 1_555
Co8 Dy7 2.865129 1_445
Co8 Dy6 2.866760 1_455
Co8 Dy9 2.866760 1_545
Co8 Dy8 2.870692 1_555
Co8 Dy11 2.870692 1_445
