# generated using pymatgen
data_KO2
_symmetry_space_group_name_H-M   'P 1'
_cell_length_a   3.87108800
_cell_length_b   3.87108800
_cell_length_c   5.43343100
_cell_angle_alpha   90.00000000
_cell_angle_beta   90.00000000
_cell_angle_gamma   90.00000000
_symmetry_Int_Tables_number   1
_chemical_formula_structural   KO2
_chemical_formula_sum   'K1 O2'
_cell_volume   81.42171475
_cell_formula_units_Z   1
loop_
 _symmetry_equiv_pos_site_id
 _symmetry_equiv_pos_as_xyz
  1  'x, y, z'
loop_
 _atom_site_type_symbol
 _atom_site_label
 _atom_site_symmetry_multiplicity
 _atom_site_fract_x
 _atom_site_fract_y
 _atom_site_fract_z
 _atom_site_occupancy
  K  K0  1  0.00000000  0.00000000  0.50000000  1
  O  O0  1  0.50000000  0.50000000  0.50000000  1
  O  O1  1  0.00000000  0.00000000  0.00000000  1
loop_
_geom_bond_atom_site_label_1
_geom_bond_atom_site_label_2
_geom_bond_distance
_geom_bond_site_symmetry_2
K0 O1 2.716715 1_556
K0 O1 2.716715 1_555
K0 O0 2.737273 1_555
K0 O0 2.737273 1_455
K0 O0 2.737273 1_545
K0 O0 2.737273 1_445
