# generated using pymatgen
data_Ba2MnRuO6
_symmetry_space_group_name_H-M   'P 1'
_cell_length_a   5.85079397
_cell_length_b   5.85079397
_cell_length_c   14.39394404
_cell_angle_alpha   88.61778043
_cell_angle_beta   88.61778043
_cell_angle_gamma   59.97105449
_symmetry_Int_Tables_number   1
_chemical_formula_structural   Ba2MnRuO6
_chemical_formula_sum   'Ba6 Mn3 Ru3 O18'
_cell_volume   426.42712455
_cell_formula_units_Z   3
loop_
 _symmetry_equiv_pos_site_id
 _symmetry_equiv_pos_as_xyz
  1  'x, y, z'
loop_
 _atom_site_type_symbol
 _atom_site_label
 _atom_site_symmetry_multiplicity
 _atom_site_fract_x
 _atom_site_fract_y
 _atom_site_fract_z
 _atom_site_occupancy
  Ba  Ba0  1  0.33301800  0.33301800  0.40724100  1
  Ba  Ba1  1  0.66698200  0.66698200  0.59275900  1
  Ba  Ba2  1  0.66672900  0.66672900  0.90805500  1
  Ba  Ba3  1  0.33327100  0.33327100  0.09194500  1
  Ba  Ba4  1  0.00048300  0.00048300  0.24846700  1
  Ba  Ba5  1  0.99951700  0.99951700  0.75153300  1
  Mn  Mn0  1  0.33435500  0.33435500  0.84706300  1
  Mn  Mn1  1  0.66564500  0.66564500  0.15293700  1
  Mn  Mn2  1  0.00000000  0.00000000  0.50000000  1
  Ru  Ru0  1  0.66763200  0.66763200  0.34309800  1
  Ru  Ru1  1  0.33236800  0.33236800  0.65690200  1
  Ru  Ru2  1  0.00000000  0.00000000  0.00000000  1
  O  O0  1  0.81827400  0.81827400  0.41987900  1
  O  O1  1  0.82260000  0.32887100  0.41244000  1
  O  O2  1  0.32887100  0.82260000  0.41244000  1
  O  O3  1  0.18172600  0.18172600  0.58012100  1
  O  O4  1  0.17740000  0.67112900  0.58756000  1
  O  O5  1  0.67112900  0.17740000  0.58756000  1
  O  O6  1  0.16670500  0.16670500  0.91874600  1
  O  O7  1  0.16081200  0.68060500  0.92130400  1
  O  O8  1  0.68060500  0.16081200  0.92130400  1
  O  O9  1  0.83329500  0.83329500  0.08125400  1
  O  O10  1  0.83918800  0.31939500  0.07869600  1
  O  O11  1  0.31939500  0.83918800  0.07869600  1
  O  O12  1  0.52132300  0.52132300  0.24506300  1
  O  O13  1  0.51532200  0.97324000  0.25468100  1
  O  O14  1  0.97324000  0.51532200  0.25468100  1
  O  O15  1  0.47867700  0.47867700  0.75493700  1
  O  O16  1  0.48467800  0.02676000  0.74531900  1
  O  O17  1  0.02676000  0.48467800  0.74531900  1
loop_
_geom_bond_atom_site_label_1
_geom_bond_atom_site_label_2
_geom_bond_distance
_geom_bond_site_symmetry_2
Ba0 O2 2.855156 1_555
Ba0 O1 2.855156 1_555
Ba0 O14 2.872912 1_455
Ba0 O13 2.872912 1_545
Ba0 O3 2.886353 1_555
Ba0 O0 2.933320 1_545
Ba0 O0 2.933320 1_455
Ba0 O12 2.973835 1_555
Ba0 O1 2.997688 1_455
Ba0 O2 2.997688 1_545
Ba0 O4 3.132083 1_555
Ba0 O5 3.132083 1_555
Ba1 O4 2.855156 1_555
Ba1 O5 2.855156 1_555
Ba1 O17 2.872912 1_655
Ba1 O16 2.872912 1_565
Ba1 O0 2.886353 1_555
Ba1 O3 2.933320 1_565
Ba1 O3 2.933320 1_655
Ba1 O15 2.973835 1_555
Ba1 O4 2.997688 1_655
Ba1 O5 2.997688 1_565
Ba1 O1 3.132083 1_555
Ba1 O2 3.132083 1_555
Ba2 O8 2.921925 1_555
Ba2 O7 2.921925 1_555
Ba2 O6 2.928163 1_565
Ba2 O6 2.928163 1_655
Ba2 O8 2.943093 1_565
Ba2 O7 2.943093 1_655
Ba2 O17 2.948780 1_655
Ba2 O16 2.948780 1_565
Ba2 O15 2.953676 1_555
Ba2 O11 3.001206 1_556
Ba2 O10 3.001206 1_556
Ba2 O9 3.049523 1_556
Ba3 O10 2.921925 1_555
Ba3 O11 2.921925 1_555
Ba3 O9 2.928163 1_545
Ba3 O9 2.928163 1_455
Ba3 O11 2.943093 1_545
Ba3 O10 2.943093 1_455
Ba3 O14 2.948780 1_455
Ba3 O13 2.948780 1_545
Ba3 O12 2.953676 1_555
Ba3 O7 3.001206 1_554
Ba3 O8 3.001206 1_554
Ba3 O6 3.049523 1_554
Ba4 O1 2.905890 1_455
Ba4 O2 2.905890 1_545
Ba4 O11 2.910765 1_545
Ba4 O10 2.910765 1_455
Ba4 O13 2.920759 1_445
Ba4 O14 2.920759 1_445
Ba4 O12 2.932047 1_455
Ba4 O12 2.932047 1_545
Ba4 O14 2.939153 1_455
Ba4 O13 2.939153 1_545
Ba4 O9 2.981858 1_445
Ba4 O0 3.040435 1_445
Ba5 O4 2.905890 1_655
Ba5 O5 2.905890 1_565
Ba5 O7 2.910765 1_655
Ba5 O8 2.910765 1_565
Ba5 O16 2.920759 1_665
Ba5 O17 2.920759 1_665
Ba5 O15 2.932047 1_655
Ba5 O15 2.932047 1_565
Ba5 O16 2.939153 1_565
Ba5 O17 2.939153 1_655
Ba5 O6 2.981858 1_665
Ba5 O3 3.040435 1_665
Mn0 O15 1.946801 1_555
Mn0 O6 1.963215 1_555
Mn0 O7 2.066462 1_555
Mn0 O8 2.066462 1_555
Mn0 O17 2.153582 1_555
Mn0 O16 2.153582 1_555
Mn1 O12 1.946801 1_555
Mn1 O9 1.963215 1_555
Mn1 O11 2.066462 1_555
Mn1 O10 2.066462 1_555
Mn1 O13 2.153582 1_555
Mn1 O14 2.153582 1_555
Mn2 O4 2.077341 1_545
Mn2 O5 2.077341 1_455
Mn2 O2 2.077341 1_545
Mn2 O1 2.077341 1_455
Mn2 O3 2.200171 1_555
Mn2 O0 2.200171 1_445
O0 Ru0 1.909597 1_555
O1 Ru0 1.973899 1_555
O2 Ru0 1.973899 1_555
O3 Ru1 1.909597 1_555
O4 Ru1 1.973899 1_555
O5 Ru1 1.973899 1_555
O6 Ru2 2.027957 1_556
O7 Ru2 1.987811 1_566
O8 Ru2 1.987811 1_656
O9 Ru2 2.027957 1_665
O10 Ru2 1.987811 1_655
O11 Ru2 1.987811 1_565
O12 Ru0 2.075272 1_555
O13 Ru0 1.990244 1_555
O14 Ru0 1.990244 1_555
O15 Ru1 2.075272 1_555
O16 Ru1 1.990244 1_555
O17 Ru1 1.990244 1_555
