# generated using pymatgen
data_Mn3Zn2AsO12
_symmetry_space_group_name_H-M   'P 1'
_cell_length_a   2.99669600
_cell_length_b   7.79319387
_cell_length_c   12.40044296
_cell_angle_alpha   97.09121474
_cell_angle_beta   83.05998183
_cell_angle_gamma   90.00000000
_symmetry_Int_Tables_number   1
_chemical_formula_structural   Mn3Zn2AsO12
_chemical_formula_sum   'Mn3 Zn2 As1 O12'
_cell_volume   285.24439750
_cell_formula_units_Z   1
loop_
 _symmetry_equiv_pos_site_id
 _symmetry_equiv_pos_as_xyz
  1  'x, y, z'
loop_
 _atom_site_type_symbol
 _atom_site_label
 _atom_site_symmetry_multiplicity
 _atom_site_fract_x
 _atom_site_fract_y
 _atom_site_fract_z
 _atom_site_occupancy
  Mn  Mn0  1  0.99662400  0.99002700  0.00675200  1
  Mn  Mn1  1  0.58513400  0.78529400  0.82973200  1
  Mn  Mn2  1  0.41266500  0.29215900  0.17467000  1
  Zn  Zn0  1  0.17791700  0.59651500  0.64416500  1
  Zn  Zn1  1  0.79676700  0.44706500  0.40646700  1
  As  As0  1  0.38635300  0.79685000  0.22729500  1
  O  O0  1  0.40068600  0.58388500  0.19862800  1
  O  O1  1  0.62346700  0.56484900  0.75306700  1
  O  O2  1  0.73210800  0.57450300  0.53578300  1
  O  O3  1  0.25769400  0.16885600  0.48461300  1
  O  O4  1  0.03259000  0.75897600  0.93481900  1
  O  O5  1  0.96147900  0.23024000  0.07704200  1
  O  O6  1  0.12882200  0.84074200  0.74235500  1
  O  O7  1  0.86006900  0.30265200  0.27986300  1
  O  O8  1  0.54086400  0.02109200  0.91827100  1
  O  O9  1  0.43469400  0.93701000  0.13061300  1
  O  O10  1  0.84546100  0.85844700  0.30907900  1
  O  O11  1  0.20890800  0.14613800  0.58218500  1
loop_
_geom_bond_atom_site_label_1
_geom_bond_atom_site_label_2
_geom_bond_distance
_geom_bond_site_symmetry_2
Mn0 O8 1.885607 1_664
Mn0 O8 1.885610 1_564
Mn0 O4 1.905188 1_654
Mn0 O5 1.962207 1_565
Mn0 O9 2.212934 1_555
Mn0 O9 2.212936 1_655
Mn1 O1 1.854394 1_555
Mn1 O6 1.924637 1_655
Mn1 O6 1.924639 1_555
Mn1 O4 2.006599 1_655
Mn1 O4 2.006602 1_555
Mn1 O8 2.016568 1_565
Mn2 O5 1.943680 1_555
Mn2 O5 1.943680 1_455
Mn2 O7 1.975377 1_455
Mn2 O7 1.975379 1_555
Mn2 O0 2.255861 1_555
As0 O0 1.653295 1_555
As0 O9 1.712544 1_555
As0 O10 1.835425 1_455
As0 O10 1.835425 1_555
O1 Zn0 2.045792 1_655
O1 Zn0 2.045796 1_555
O2 Zn1 1.768346 1_555
O2 Zn0 1.999368 1_655
O2 Zn0 1.999368 1_555
O6 Zn0 2.123984 1_555
O7 Zn1 1.805302 1_555
O11 O3 1.235640 1_555
