# generated using pymatgen
data_ZnH7C4N3O7
_symmetry_space_group_name_H-M   'P 1'
_cell_length_a   6.75953700
_cell_length_b   10.83034700
_cell_length_c   13.90745529
_cell_angle_alpha   59.22168740
_cell_angle_beta   90.00000000
_cell_angle_gamma   90.00000000
_symmetry_Int_Tables_number   1
_chemical_formula_structural   ZnH7C4N3O7
_chemical_formula_sum   'Zn4 H28 C16 N12 O28'
_cell_volume   874.73767882
_cell_formula_units_Z   4
loop_
 _symmetry_equiv_pos_site_id
 _symmetry_equiv_pos_as_xyz
  1  'x, y, z'
loop_
 _atom_site_type_symbol
 _atom_site_label
 _atom_site_symmetry_multiplicity
 _atom_site_fract_x
 _atom_site_fract_y
 _atom_site_fract_z
 _atom_site_occupancy
  Zn  Zn0  1  0.80996500  0.78008200  0.04835800  1
  Zn  Zn1  1  0.19003500  0.21991800  0.95164200  1
  Zn  Zn2  1  0.30996500  0.21991800  0.45164200  1
  Zn  Zn3  1  0.69003500  0.78008200  0.54835800  1
  H  H0  1  0.15490700  0.94430500  0.10229500  1
  H  H1  1  0.84509300  0.05569500  0.89770500  1
  H  H2  1  0.65490700  0.05569500  0.39770500  1
  H  H3  1  0.34509300  0.94430500  0.60229500  1
  H  H4  1  0.38797300  0.88696400  0.39818800  1
  H  H5  1  0.61202700  0.11303600  0.60181200  1
  H  H6  1  0.88797300  0.11303600  0.10181200  1
  H  H7  1  0.11202700  0.88696400  0.89818800  1
  H  H8  1  0.46809500  0.72183600  0.18747600  1
  H  H9  1  0.53190500  0.27816400  0.81252400  1
  H  H10  1  0.96809500  0.27816400  0.31252400  1
  H  H11  1  0.03190500  0.72183600  0.68747600  1
  H  H12  1  0.44642200  0.85856600  0.06774300  1
  H  H13  1  0.55357800  0.14143400  0.93225700  1
  H  H14  1  0.94642200  0.14143400  0.43225700  1
  H  H15  1  0.05357800  0.85856600  0.56774300  1
  H  H16  1  0.83186600  0.27359700  0.00690100  1
  H  H17  1  0.16813400  0.72640300  0.99309900  1
  H  H18  1  0.33186600  0.72640300  0.49309900  1
  H  H19  1  0.66813400  0.27359700  0.50690100  1
  H  H20  1  0.81708800  0.98076900  0.36003100  1
  H  H21  1  0.18291200  0.01923100  0.63996900  1
  H  H22  1  0.31708800  0.01923100  0.13996900  1
  H  H23  1  0.68291200  0.98076900  0.86003100  1
  H  H24  1  0.85915000  0.55175400  0.29289800  1
  H  H25  1  0.14085000  0.44824600  0.70710200  1
  H  H26  1  0.35915000  0.44824600  0.20710200  1
  H  H27  1  0.64085000  0.55175400  0.79289800  1
  C  C0  1  0.83193800  0.47128100  0.13077100  1
  C  C1  1  0.16806200  0.52871900  0.86922900  1
  C  C2  1  0.33193800  0.52871900  0.36922900  1
  C  C3  1  0.66806200  0.47128100  0.63077100  1
  C  C4  1  0.76001000  0.53881400  0.01277500  1
  C  C5  1  0.23999000  0.46118600  0.98722500  1
  C  C6  1  0.26001000  0.46118600  0.48722500  1
  C  C7  1  0.73999000  0.53881400  0.51277500  1
  C  C8  1  0.88573500  0.84108600  0.24748800  1
  C  C9  1  0.11426500  0.15891400  0.75251200  1
  C  C10  1  0.38573500  0.15891400  0.25251200  1
  C  C11  1  0.61426500  0.84108600  0.74748800  1
  C  C12  1  0.83028700  0.70227900  0.35044000  1
  C  C13  1  0.16971300  0.29772100  0.64956000  1
  C  C14  1  0.33028700  0.29772100  0.14956000  1
  C  C15  1  0.66971300  0.70227900  0.85044000  1
  N  N0  1  0.77171600  0.46865800  0.45837800  1
  N  N1  1  0.22828400  0.53134200  0.54162200  1
  N  N2  1  0.27171600  0.53134200  0.04162200  1
  N  N3  1  0.72828400  0.46865800  0.95837800  1
  N  N4  1  0.77417300  0.68222400  0.44954700  1
  N  N5  1  0.22582700  0.31777600  0.55045300  1
  N  N6  1  0.27417300  0.31777600  0.05045300  1
  N  N7  1  0.72582700  0.68222400  0.94954700  1
  N  N8  1  0.83006500  0.57339400  0.35669800  1
  N  N9  1  0.16993500  0.42660600  0.64330200  1
  N  N10  1  0.33006500  0.42660600  0.14330200  1
  N  N11  1  0.66993500  0.57339400  0.85669800  1
  O  O0  1  0.86122500  0.33834000  0.18587700  1
  O  O1  1  0.13877500  0.66166000  0.81412300  1
  O  O2  1  0.36122500  0.66166000  0.31412300  1
  O  O3  1  0.63877500  0.33834000  0.68587700  1
  O  O4  1  0.86106000  0.56045100  0.16458300  1
  O  O5  1  0.13894000  0.43954900  0.83541700  1
  O  O6  1  0.36106000  0.43954900  0.33541700  1
  O  O7  1  0.63894000  0.56045100  0.66458300  1
  O  O8  1  0.77226400  0.99079700  0.42440100  1
  O  O9  1  0.22773600  0.00920300  0.57559900  1
  O  O10  1  0.27226400  0.00920300  0.07559900  1
  O  O11  1  0.72773600  0.99079700  0.92440100  1
  O  O12  1  0.93963200  0.83242000  0.16306800  1
  O  O13  1  0.06036800  0.16758000  0.83693200  1
  O  O14  1  0.43963200  0.16758000  0.33693200  1
  O  O15  1  0.56036800  0.83242000  0.66306800  1
  O  O16  1  0.39627900  0.81596400  0.47947600  1
  O  O17  1  0.60372100  0.18403600  0.52052400  1
  O  O18  1  0.89627900  0.18403600  0.02052400  1
  O  O19  1  0.10372100  0.81596400  0.97947600  1
  O  O20  1  0.51832300  0.76717500  0.10849400  1
  O  O21  1  0.48167700  0.23282500  0.89150600  1
  O  O22  1  0.01832300  0.23282500  0.39150600  1
  O  O23  1  0.98167700  0.76717500  0.60849400  1
  O  O24  1  0.88079200  0.95500000  0.25096600  1
  O  O25  1  0.11920800  0.04500000  0.74903400  1
  O  O26  1  0.38079200  0.04500000  0.24903400  1
  O  O27  1  0.61920800  0.95500000  0.75096600  1
loop_
_geom_bond_atom_site_label_1
_geom_bond_atom_site_label_2
_geom_bond_distance
_geom_bond_site_symmetry_2
H0 O10 0.997039 1_565
H1 O11 0.997039 1_545
H2 O8 0.997039 1_545
H3 O9 0.997039 1_565
H4 O16 0.991369 1_555
H5 O17 0.991369 1_555
H6 O18 0.991369 1_555
H7 O19 0.991369 1_555
H8 O20 1.005457 1_555
H8 O2 1.695316 1_555
H9 O21 1.005457 1_555
H9 O3 1.695316 1_555
H10 O22 1.005457 1_655
H10 O0 1.695316 1_555
H11 O23 1.005457 1_455
H11 O1 1.695316 1_555
H12 O20 0.981326 1_555
H13 O21 0.981326 1_555
H14 O22 0.981326 1_655
H15 O23 0.981326 1_455
H16 O18 0.989063 1_555
H17 O19 0.989063 1_555
H18 O16 0.989063 1_555
H19 O17 0.989063 1_555
H20 O8 1.002261 1_555
H21 O9 1.002261 1_555
H22 O10 1.002261 1_555
H23 O11 1.002261 1_555
H24 N8 1.045802 1_555
H24 O4 1.738268 1_555
H25 N9 1.045802 1_555
H25 O5 1.738268 1_555
H26 N10 1.045802 1_555
H26 O6 1.738268 1_555
H27 N11 1.045802 1_555
H27 O7 1.738268 1_555
C0 O0 1.253098 1_555
C0 O4 1.287364 1_555
C1 O1 1.253098 1_555
C1 O5 1.287364 1_555
C2 O2 1.253098 1_555
C2 O6 1.287364 1_555
C3 O3 1.253098 1_555
C3 O7 1.287364 1_555
C4 N3 1.335636 1_554
C4 N7 1.356914 1_554
C5 N2 1.335636 1_556
C5 N6 1.356914 1_556
C6 N1 1.335636 1_555
C6 N5 1.356914 1_555
C7 N0 1.335636 1_555
C7 N4 1.356914 1_555
C8 O24 1.259609 1_555
C8 O12 1.277790 1_555
C9 O25 1.259609 1_555
C9 O13 1.277790 1_555
C10 O26 1.259609 1_555
C10 O14 1.277790 1_555
C11 O27 1.259609 1_555
C11 O15 1.277790 1_555
C12 N4 1.335829 1_555
C12 N8 1.353401 1_555
C13 N5 1.335829 1_555
C13 N9 1.353401 1_555
C14 N6 1.335829 1_555
C14 N10 1.353401 1_555
C15 N7 1.335829 1_555
C15 N11 1.353401 1_555
N0 N8 1.341757 1_555
N1 N9 1.341757 1_555
N4 Zn3 2.196755 1_555
N5 Zn2 2.196755 1_555
N6 Zn1 2.196755 1_554
N7 Zn0 2.196755 1_556
N10 N2 1.341757 1_555
N11 N3 1.341757 1_555
O4 Zn0 2.110721 1_555
O5 Zn1 2.110721 1_555
O6 Zn2 2.110721 1_555
O7 Zn3 2.110721 1_555
O8 Zn3 2.112469 1_555
O9 Zn2 2.112469 1_555
O10 Zn1 2.112469 1_554
O11 Zn0 2.112469 1_556
O12 Zn0 2.135435 1_555
O13 Zn1 2.135435 1_555
O14 Zn2 2.135435 1_555
O15 Zn3 2.135435 1_555
O16 Zn3 2.151872 1_555
O17 Zn2 2.151872 1_555
O18 Zn1 2.151872 1_654
O19 Zn0 2.151872 1_456
O20 Zn0 2.117931 1_555
O21 Zn1 2.117931 1_555
O22 Zn2 2.117931 1_555
O23 Zn3 2.117931 1_555
