# generated using pymatgen
data_EuHg2Pb
_symmetry_space_group_name_H-M   'P 1'
_cell_length_a   5.35934255
_cell_length_b   5.35934255
_cell_length_c   5.35934255
_cell_angle_alpha   60.00000000
_cell_angle_beta   60.00000000
_cell_angle_gamma   60.00000000
_symmetry_Int_Tables_number   1
_chemical_formula_structural   EuHg2Pb
_chemical_formula_sum   'Eu1 Hg2 Pb1'
_cell_volume   108.84777395
_cell_formula_units_Z   1
loop_
 _symmetry_equiv_pos_site_id
 _symmetry_equiv_pos_as_xyz
  1  'x, y, z'
loop_
 _atom_site_type_symbol
 _atom_site_label
 _atom_site_symmetry_multiplicity
 _atom_site_fract_x
 _atom_site_fract_y
 _atom_site_fract_z
 _atom_site_occupancy
  Eu  Eu0  1  0.50000000  0.50000000  0.50000000  1
  Hg  Hg0  1  0.25000000  0.25000000  0.25000000  1
  Hg  Hg1  1  0.75000000  0.75000000  0.75000000  1
  Pb  Pb0  1  0.00000000  0.00000000  -0.00000000  1
loop_
_geom_bond_atom_site_label_1
_geom_bond_atom_site_label_2
_geom_bond_distance
_geom_bond_site_symmetry_2
Eu0 Hg0 3.281914 1_555
Eu0 Hg0 3.281914 1_556
Eu0 Hg1 3.281914 1_545
Eu0 Hg1 3.281914 1_555
Eu0 Hg1 3.281914 1_554
Eu0 Hg0 3.281914 1_565
Eu0 Hg1 3.281914 1_455
Eu0 Hg0 3.281914 1_655
Eu0 Pb0 3.789627 1_655
Eu0 Pb0 3.789627 1_656
Eu0 Pb0 3.789627 1_565
Eu0 Pb0 3.789627 1_566
Eu0 Pb0 3.789627 1_665
Eu0 Pb0 3.789627 1_556
Hg0 Pb0 3.281914 1_555
Hg0 Pb0 3.281914 1_556
Hg0 Pb0 3.281914 1_565
Hg0 Pb0 3.281914 1_655
Hg1 Pb0 3.281914 1_566
Hg1 Pb0 3.281914 1_665
Hg1 Pb0 3.281914 1_666
Hg1 Pb0 3.281914 1_656
