# generated using pymatgen
data_YbZnPt
_symmetry_space_group_name_H-M   'P 1'
_cell_length_a   4.00354630
_cell_length_b   6.84971001
_cell_length_c   8.12880891
_cell_angle_alpha   90.00000000
_cell_angle_beta   90.00000000
_cell_angle_gamma   90.00000000
_symmetry_Int_Tables_number   1
_chemical_formula_structural   YbZnPt
_chemical_formula_sum   'Yb4 Zn4 Pt4'
_cell_volume   222.91739270
_cell_formula_units_Z   4
loop_
 _symmetry_equiv_pos_site_id
 _symmetry_equiv_pos_as_xyz
  1  'x, y, z'
loop_
 _atom_site_type_symbol
 _atom_site_label
 _atom_site_symmetry_multiplicity
 _atom_site_fract_x
 _atom_site_fract_y
 _atom_site_fract_z
 _atom_site_occupancy
  Yb  Yb0  1  0.75000000  0.45219779  0.81571557  1
  Yb  Yb1  1  0.25000000  0.04780221  0.31571557  1
  Yb  Yb2  1  0.75000000  0.95219779  0.68428443  1
  Yb  Yb3  1  0.25000000  0.54780221  0.18428443  1
  Zn  Zn0  1  0.25000000  0.63203221  0.56321692  1
  Zn  Zn1  1  0.25000000  0.13203221  0.93678308  1
  Zn  Zn2  1  0.75000000  0.36796779  0.43678308  1
  Zn  Zn3  1  0.75000000  0.86796779  0.06321692  1
  Pt  Pt0  1  0.25000000  0.74637692  0.87590016  1
  Pt  Pt1  1  0.25000000  0.24637692  0.62409984  1
  Pt  Pt2  1  0.75000000  0.75362308  0.37590016  1
  Pt  Pt3  1  0.75000000  0.25362308  0.12409984  1
loop_
_geom_bond_atom_site_label_1
_geom_bond_atom_site_label_2
_geom_bond_distance
_geom_bond_site_symmetry_2
Yb0 Zn0 3.120460 1_655
Yb0 Zn0 3.120460 1_555
Yb0 Zn1 3.128106 1_555
Yb0 Zn1 3.128106 1_655
Yb0 Zn2 3.133837 1_555
Yb0 Zn3 3.486870 1_556
Yb1 Zn3 3.120460 1_545
Yb1 Zn3 3.120460 1_445
Yb1 Zn2 3.128106 1_455
Yb1 Zn2 3.128106 1_555
Yb1 Zn1 3.133837 1_554
Yb1 Zn0 3.486870 1_545
Yb2 Zn1 3.120460 1_565
Yb2 Zn1 3.120460 1_665
Yb2 Zn0 3.128106 1_555
Yb2 Zn0 3.128106 1_655
Yb2 Zn3 3.133837 1_556
Yb2 Zn2 3.486870 1_565
Yb3 Zn2 3.120460 1_455
Yb3 Zn2 3.120460 1_555
Yb3 Zn3 3.128106 1_455
Yb3 Zn3 3.128106 1_555
Yb3 Zn0 3.133837 1_555
Yb3 Zn1 3.486870 1_554
Zn0 Zn2 2.887042 1_455
Zn0 Zn2 2.887042 1_555
Zn1 Zn3 2.887042 1_546
Zn1 Zn3 2.887042 1_446
Pt0 Zn3 2.649388 1_556
Pt0 Zn3 2.649388 1_456
Pt0 Zn0 2.659680 1_555
Pt0 Zn1 2.687587 1_565
Pt0 Yb3 2.852037 1_556
Pt0 Yb0 2.882158 1_455
Pt0 Yb0 2.882158 1_555
Pt0 Yb2 2.901863 1_455
Pt0 Yb2 2.901863 1_555
Pt1 Zn2 2.649388 1_555
Pt1 Zn2 2.649388 1_455
Pt1 Zn1 2.659680 1_555
Pt1 Zn0 2.687587 1_555
Pt1 Yb1 2.852037 1_555
Pt1 Yb2 2.882158 1_445
Pt1 Yb2 2.882158 1_545
Pt1 Yb0 2.901863 1_455
Pt1 Yb0 2.901863 1_555
Pt2 Zn0 2.649388 1_555
Pt2 Zn0 2.649388 1_655
Pt2 Zn3 2.659680 1_555
Pt2 Zn2 2.687587 1_555
Pt2 Yb2 2.852037 1_555
Pt2 Yb1 2.882158 1_665
Pt2 Yb1 2.882158 1_565
Pt2 Yb3 2.901863 1_555
Pt2 Yb3 2.901863 1_655
Pt3 Zn1 2.649388 1_654
Pt3 Zn1 2.649388 1_554
Pt3 Zn2 2.659680 1_555
Pt3 Zn3 2.687587 1_545
Pt3 Yb0 2.852037 1_554
Pt3 Yb3 2.882158 1_555
Pt3 Yb3 2.882158 1_655
Pt3 Yb1 2.901863 1_655
Pt3 Yb1 2.901863 1_555
