# generated using pymatgen
data_U8CrSe17
_symmetry_space_group_name_H-M   'P 1'
_cell_length_a   8.26580744
_cell_length_b   8.26580744
_cell_length_c   10.98063697
_cell_angle_alpha   80.45452771
_cell_angle_beta   80.45452771
_cell_angle_gamma   64.76011848
_symmetry_Int_Tables_number   1
_chemical_formula_structural   U8CrSe17
_chemical_formula_sum   'U8 Cr1 Se17'
_cell_volume   665.40009682
_cell_formula_units_Z   1
loop_
 _symmetry_equiv_pos_site_id
 _symmetry_equiv_pos_as_xyz
  1  'x, y, z'
loop_
 _atom_site_type_symbol
 _atom_site_label
 _atom_site_symmetry_multiplicity
 _atom_site_fract_x
 _atom_site_fract_y
 _atom_site_fract_z
 _atom_site_occupancy
  U  U0  1  0.81754393  0.30254515  0.29784749  1
  U  U1  1  0.30254515  0.81754393  0.29784749  1
  U  U2  1  0.18245607  0.69745485  0.70215251  1
  U  U3  1  0.69745485  0.18245607  0.70215251  1
  U  U4  1  0.20484409  0.20484409  0.54515239  1
  U  U5  1  0.79515591  0.79515591  0.45484761  1
  U  U6  1  0.67770684  0.67770684  0.98040348  1
  U  U7  1  0.32229316  0.32229316  0.01959652  1
  Cr  Cr0  1  -0.00000000  -0.00000000  0.00000000  1
  Se  Se0  1  0.82297853  0.43299451  0.53540110  1
  Se  Se1  1  0.43299451  0.82297853  0.53540110  1
  Se  Se2  1  0.17702147  0.56700549  0.46459890  1
  Se  Se3  1  0.56700549  0.17702147  0.46459890  1
  Se  Se4  1  0.94654834  0.32229488  0.02690003  1
  Se  Se5  1  0.32229488  0.94654834  0.02690003  1
  Se  Se6  1  0.05345166  0.67770512  0.97309997  1
  Se  Se7  1  0.67770512  0.05345166  0.97309997  1
  Se  Se8  1  0.21151239  0.21151239  0.27981526  1
  Se  Se9  1  0.78848761  0.78848761  0.72018474  1
  Se  Se10  1  0.05549535  0.05549535  0.77412576  1
  Se  Se11  1  0.94450465  0.94450465  0.22587424  1
  Se  Se12  1  0.30096871  0.30096871  0.75705387  1
  Se  Se13  1  0.69903129  0.69903129  0.24294613  1
  Se  Se14  1  0.52151809  0.52151809  0.83111153  1
  Se  Se15  1  0.47848191  0.47848191  0.16888847  1
  Se  Se16  1  -0.00000000  -0.00000000  0.50000000  1
loop_
_geom_bond_atom_site_label_1
_geom_bond_atom_site_label_2
_geom_bond_distance
_geom_bond_site_symmetry_2
Cr0 Se10 2.448921 1_554
Cr0 Se11 2.448921 1_445
Cr0 Se6 2.567764 1_544
Cr0 Se7 2.567764 1_454
Cr0 Se4 2.567764 1_455
Cr0 Se5 2.567764 1_545
Se0 U5 2.898069 1_555
Se0 U4 2.915408 1_655
Se0 U3 2.943224 1_555
Se0 U0 2.996985 1_555
Se1 U5 2.898069 1_555
Se1 U4 2.915408 1_565
Se1 U2 2.943224 1_555
Se1 U1 2.996985 1_555
Se2 U4 2.898069 1_555
Se2 U5 2.915408 1_455
Se2 U1 2.943224 1_555
Se2 U2 2.996985 1_555
Se3 U4 2.898069 1_555
Se3 U5 2.915408 1_545
Se3 U0 2.943224 1_555
Se3 U3 2.996985 1_555
Se4 U6 2.853187 1_554
Se4 U0 2.991746 1_555
Se4 U7 3.093540 1_655
Se5 U6 2.853187 1_554
Se5 U1 2.991746 1_555
Se5 U7 3.093540 1_565
Se6 U7 2.853187 1_556
Se6 U2 2.991746 1_555
Se6 U6 3.093540 1_455
Se7 U7 2.853187 1_556
Se7 U3 2.991746 1_555
Se7 U6 3.093540 1_545
Se8 U4 2.896729 1_555
Se8 U7 2.970026 1_555
Se8 U1 2.992629 1_545
Se8 U0 2.992629 1_455
Se9 U5 2.896729 1_555
Se9 U6 2.970026 1_555
Se9 U3 2.992629 1_565
Se9 U2 2.992629 1_655
Se10 U3 2.887298 1_455
Se10 U2 2.887298 1_545
Se10 U4 2.934333 1_555
Se11 U0 2.887298 1_565
Se11 U1 2.887298 1_655
Se11 U5 2.934333 1_555
Se12 U4 2.905406 1_555
Se12 U7 2.955796 1_556
Se12 U2 2.977631 1_555
Se12 U3 2.977631 1_555
Se13 U5 2.905406 1_555
Se13 U6 2.955796 1_554
Se13 U0 2.977631 1_555
Se13 U1 2.977631 1_555
Se14 U6 2.974249 1_555
Se14 U2 3.021945 1_555
Se14 U3 3.021945 1_555
Se14 U7 3.123956 1_556
Se15 U7 2.974249 1_555
Se15 U1 3.021945 1_555
Se15 U0 3.021945 1_555
Se15 U6 3.123956 1_554
Se16 U4 2.996917 1_555
Se16 U5 2.996917 1_445
Se16 U0 3.083591 1_455
Se16 U3 3.083591 1_455
Se16 U1 3.083591 1_545
Se16 U2 3.083591 1_545
