# generated using pymatgen
data_Li9Mn2Co5O16
_symmetry_space_group_name_H-M   'P 1'
_cell_length_a   2.89249000
_cell_length_b   10.25696884
_cell_length_c   10.68922051
_cell_angle_alpha   113.01424861
_cell_angle_beta   96.66422330
_cell_angle_gamma   91.05714993
_symmetry_Int_Tables_number   1
_chemical_formula_structural   Li9Mn2Co5O16
_chemical_formula_sum   'Li9 Mn2 Co5 O16'
_cell_volume   289.20908036
_cell_formula_units_Z   1
loop_
 _symmetry_equiv_pos_site_id
 _symmetry_equiv_pos_as_xyz
  1  'x, y, z'
loop_
 _atom_site_type_symbol
 _atom_site_label
 _atom_site_symmetry_multiplicity
 _atom_site_fract_x
 _atom_site_fract_y
 _atom_site_fract_z
 _atom_site_occupancy
  Li  Li0  1  0.12365100  0.92749400  0.24513300  1
  Li  Li1  1  0.87833500  0.06728300  0.75890400  1
  Li  Li2  1  0.61008600  0.19008600  0.23956600  1
  Li  Li3  1  0.61057600  0.66895400  0.22977400  1
  Li  Li4  1  0.38412700  0.81172200  0.75349000  1
  Li  Li5  1  0.11339500  0.43778300  0.24497700  1
  Li  Li6  1  0.88713900  0.56733900  0.75701600  1
  Li  Li7  1  0.39160700  0.32816100  0.77056100  1
  Li  Li8  1  0.00055200  0.50002000  0.00038500  1
  Mn  Mn0  1  0.00093600  0.99960000  0.00059900  1
  Mn  Mn1  1  0.75160700  0.12509000  0.49987700  1
  Co  Co0  1  0.50478400  0.27242600  0.00667600  1
  Co  Co1  1  0.26329300  0.37878300  0.50071000  1
  Co  Co2  1  0.75213900  0.62745100  0.49954100  1
  Co  Co3  1  0.49539100  0.72719000  0.99347500  1
  Co  Co4  1  0.24061900  0.87251600  0.50005400  1
  O  O0  1  0.55091800  0.97440600  0.11159100  1
  O  O1  1  0.29975400  0.09736600  0.61000300  1
  O  O2  1  0.05248500  0.20277500  0.10793200  1
  O  O3  1  0.05243000  0.72412600  0.11769600  1
  O  O4  1  0.81278300  0.84283500  0.61781100  1
  O  O5  1  0.55858900  0.45521600  0.12082300  1
  O  O6  1  0.32537000  0.59010800  0.61341500  1
  O  O7  1  0.83000000  0.33054800  0.60887700  1
  O  O8  1  0.67766600  0.92356300  0.38978800  1
  O  O9  1  0.45075700  0.02627900  0.88959400  1
  O  O10  1  0.20373200  0.15344700  0.39003200  1
  O  O11  1  0.16817500  0.65881300  0.38473300  1
  O  O12  1  0.94866900  0.79641400  0.89385100  1
  O  O13  1  0.67363700  0.40439300  0.38411100  1
  O  O14  1  0.44003200  0.54387800  0.87728700  1
  O  O15  1  0.94676500  0.27393600  0.88171600  1
loop_
_geom_bond_atom_site_label_1
_geom_bond_atom_site_label_2
_geom_bond_distance
_geom_bond_site_symmetry_2
Li0 O3 1.986551 1_555
Li0 O8 2.106297 1_555
Li0 O8 2.136920 1_455
Li0 O0 2.172814 1_555
Li0 O10 2.216749 1_565
Li0 O0 2.243032 1_455
Li1 O15 2.000957 1_555
Li1 O9 2.121139 1_555
Li1 O4 2.193882 1_545
Li1 O9 2.195016 1_655
Li1 O1 2.221439 1_655
Li1 O1 2.283435 1_555
Li2 O2 2.046751 1_655
Li2 O2 2.054820 1_555
Li2 O0 2.088049 1_545
Li2 O13 2.125184 1_555
Li2 O10 2.237110 1_555
Li2 O10 2.352015 1_655
Li3 O5 2.033698 1_555
Li3 O3 2.061006 1_655
Li3 O3 2.115846 1_555
Li3 O11 2.208298 1_655
Li3 O11 2.239128 1_555
Li3 O8 2.488937 1_555
Li4 O9 2.100626 1_565
Li4 O12 2.116060 1_455
Li4 O4 2.123014 1_555
Li4 O12 2.137099 1_555
Li4 O6 2.168671 1_555
Li4 O4 2.182060 1_455
Li5 O5 2.006269 1_555
Li5 O5 2.017502 1_455
Li5 O11 2.163363 1_555
Li5 O13 2.183668 1_455
Li5 O13 2.194204 1_555
Li5 O2 2.269522 1_555
Li6 O14 1.999874 1_555
Li6 O14 2.011752 1_655
Li6 O6 2.176798 1_655
Li6 O6 2.183219 1_555
Li6 O12 2.220062 1_555
Li6 O7 2.313195 1_555
Li7 O14 2.048040 1_555
Li7 O15 2.054706 1_455
Li7 O15 2.099158 1_555
Li7 O7 2.238143 1_455
Li7 O7 2.266292 1_555
Li7 O1 2.305247 1_555
Li8 O5 2.079833 1_455
Li8 O14 2.092759 1_554
Li8 O5 2.116979 1_555
Li8 O14 2.134703 1_454
Li8 O3 2.137405 1_555
Li8 O15 2.156747 1_454
Mn0 O0 1.937646 1_455
Mn0 O12 1.938328 1_454
Mn0 O2 1.939262 1_565
Mn0 O9 1.942869 1_564
Mn0 O0 1.954968 1_555
Mn0 O9 1.961377 1_464
Mn1 O8 1.930424 1_545
Mn1 O1 1.944194 1_555
Mn1 O10 1.944966 1_655
Mn1 O1 1.955913 1_655
Mn1 O10 1.956210 1_555
Mn1 O7 1.962428 1_555
Co0 O5 1.784528 1_555
Co0 O15 1.957182 1_554
Co0 O15 1.976438 1_454
Co0 O2 2.071764 1_555
Co0 O2 2.107131 1_655
Co0 O9 2.331164 1_554
Co1 O13 1.902369 1_555
Co1 O7 1.978158 1_455
Co1 O6 2.018785 1_555
Co1 O7 2.075065 1_555
Co1 O13 2.076179 1_455
Co1 O10 2.138037 1_555
Co2 O11 1.922186 1_655
Co2 O6 1.961633 1_555
Co2 O4 2.063960 1_555
Co2 O6 2.072939 1_655
Co2 O11 2.076106 1_555
Co2 O13 2.125308 1_555
Co3 O14 1.794484 1_555
Co3 O3 1.957486 1_556
Co3 O3 1.974362 1_656
Co3 O12 2.058658 1_555
Co3 O12 2.093020 1_455
Co3 O0 2.341834 1_556
Co4 O4 1.963618 1_455
Co4 O8 2.016288 1_555
Co4 O11 2.044118 1_555
Co4 O4 2.061737 1_555
Co4 O8 2.093657 1_455
Co4 O1 2.132799 1_565
