# generated using pymatgen
data_RbErP2O7
_symmetry_space_group_name_H-M   'P 1'
_cell_length_a   11.01625300
_cell_length_b   7.79844100
_cell_length_c   8.75211424
_cell_angle_alpha   74.49268179
_cell_angle_beta   90.00000000
_cell_angle_gamma   90.00000000
_symmetry_Int_Tables_number   1
_chemical_formula_structural   RbErP2O7
_chemical_formula_sum   'Rb4 Er4 P8 O28'
_cell_volume   724.51903323
_cell_formula_units_Z   4
loop_
 _symmetry_equiv_pos_site_id
 _symmetry_equiv_pos_as_xyz
  1  'x, y, z'
loop_
 _atom_site_type_symbol
 _atom_site_label
 _atom_site_symmetry_multiplicity
 _atom_site_fract_x
 _atom_site_fract_y
 _atom_site_fract_z
 _atom_site_occupancy
  Rb  Rb0  1  0.18008900  0.30981800  0.56070000  1
  Rb  Rb1  1  0.68008900  0.69018200  0.93930000  1
  Rb  Rb2  1  0.81991100  0.69018200  0.43930000  1
  Rb  Rb3  1  0.31991100  0.30981800  0.06070000  1
  Er  Er0  1  0.09764400  0.73386800  0.74864800  1
  Er  Er1  1  0.59764400  0.26613200  0.75135200  1
  Er  Er2  1  0.90235600  0.26613200  0.25135200  1
  Er  Er3  1  0.40235600  0.73386800  0.24864800  1
  P  P0  1  0.10004600  0.63058700  0.18373800  1
  P  P1  1  0.60004600  0.36941300  0.31626200  1
  P  P2  1  0.89995400  0.36941300  0.81626200  1
  P  P3  1  0.39995400  0.63058700  0.68373800  1
  P  P4  1  0.13789900  0.93703300  0.31442500  1
  P  P5  1  0.63789900  0.06296700  0.18557500  1
  P  P6  1  0.86210100  0.06296700  0.68557500  1
  P  P7  1  0.36210100  0.93703300  0.81442500  1
  O  O0  1  0.09119500  0.64329500  0.00798800  1
  O  O1  1  0.59119500  0.35670500  0.49201200  1
  O  O2  1  0.90880500  0.35670500  0.99201200  1
  O  O3  1  0.40880500  0.64329500  0.50798800  1
  O  O4  1  0.11060400  0.83273100  0.48508800  1
  O  O5  1  0.61060400  0.16726900  0.01491200  1
  O  O6  1  0.88939600  0.16726900  0.51491200  1
  O  O7  1  0.38939600  0.83273100  0.98508800  1
  O  O8  1  0.92091100  0.87837800  0.73280400  1
  O  O9  1  0.42091100  0.12162200  0.76719600  1
  O  O10  1  0.07908900  0.12162200  0.26719600  1
  O  O11  1  0.57908900  0.87837800  0.23280400  1
  O  O12  1  0.27228100  0.57740900  0.75164200  1
  O  O13  1  0.77228100  0.42259100  0.74835800  1
  O  O14  1  0.72771900  0.42259100  0.24835800  1
  O  O15  1  0.22771900  0.57740900  0.25164200  1
  O  O16  1  0.99782400  0.49164500  0.71845000  1
  O  O17  1  0.49782400  0.50835500  0.78155000  1
  O  O18  1  0.00217600  0.50835500  0.28155000  1
  O  O19  1  0.50217600  0.49164500  0.21845000  1
  O  O20  1  0.22672700  0.94842400  0.77181900  1
  O  O21  1  0.72672700  0.05157600  0.72818100  1
  O  O22  1  0.77327300  0.05157600  0.22818100  1
  O  O23  1  0.27327300  0.94842400  0.27181900  1
  O  O24  1  0.07073500  0.82947800  0.20091300  1
  O  O25  1  0.57073500  0.17052200  0.29908700  1
  O  O26  1  0.92926500  0.17052200  0.79908700  1
  O  O27  1  0.42926500  0.82947800  0.70091300  1
loop_
_geom_bond_atom_site_label_1
_geom_bond_atom_site_label_2
_geom_bond_distance
_geom_bond_site_symmetry_2
Er0 O0 2.190559 1_556
Er0 O4 2.232650 1_555
Er0 O8 2.235228 1_455
Er0 O20 2.245949 1_555
Er0 O16 2.261460 1_455
Er0 O12 2.274534 1_555
Er1 O1 2.190559 1_555
Er1 O5 2.232650 1_556
Er1 O9 2.235228 1_555
Er1 O21 2.245949 1_555
Er1 O17 2.261460 1_555
Er1 O13 2.274534 1_555
Er2 O2 2.190559 1_554
Er2 O6 2.232650 1_555
Er2 O10 2.235228 1_655
Er2 O22 2.245949 1_555
Er2 O18 2.261460 1_655
Er2 O14 2.274534 1_555
Er3 O3 2.190559 1_555
Er3 O7 2.232650 1_554
Er3 O11 2.235228 1_555
Er3 O23 2.245949 1_555
Er3 O19 2.261460 1_555
Er3 O15 2.274534 1_555
O0 P0 1.517836 1_555
O0 Rb3 3.561288 1_555
O1 P1 1.517836 1_555
O1 Rb2 3.561288 1_555
O2 P2 1.517836 1_555
O2 Rb1 3.561288 1_555
O3 P3 1.517836 1_555
O3 Rb0 3.561288 1_555
O4 P4 1.527545 1_555
O4 Rb2 3.448134 1_455
O5 P5 1.527545 1_555
O5 Rb3 3.448134 1_555
O6 P6 1.527545 1_555
O6 Rb0 3.448134 1_655
O7 P7 1.527545 1_555
O7 Rb1 3.448134 1_555
O8 P6 1.531208 1_565
O8 Rb1 3.322660 1_555
O8 Rb2 3.465037 1_555
O9 P7 1.531208 1_545
O9 Rb0 3.322660 1_555
O9 Rb3 3.465037 1_556
O10 P4 1.531208 1_545
O10 Rb3 3.322660 1_555
O10 Rb0 3.465037 1_555
O11 P5 1.531208 1_565
O11 Rb2 3.322660 1_555
O11 Rb1 3.465037 1_554
O12 P3 1.539990 1_555
O12 Rb3 2.988021 1_556
O12 Rb0 3.169173 1_555
O13 P2 1.539990 1_555
O13 Rb2 2.988021 1_555
O13 Rb1 3.169173 1_555
O14 P1 1.539990 1_555
O14 Rb1 2.988021 1_554
O14 Rb2 3.169173 1_555
O15 P0 1.539990 1_555
O15 Rb0 2.988021 1_555
O15 Rb3 3.169173 1_555
O16 P2 1.538687 1_555
O16 Rb0 2.999203 1_655
O16 Rb2 3.191366 1_555
O17 P3 1.538687 1_555
O17 Rb1 2.999203 1_555
O17 Rb3 3.191366 1_556
O18 P0 1.538687 1_555
O18 Rb2 2.999203 1_455
O18 Rb0 3.191366 1_555
O19 P1 1.538687 1_555
O19 Rb3 2.999203 1_555
O19 Rb1 3.191366 1_554
O20 P7 1.534029 1_555
O20 Rb0 2.972609 1_565
O21 P6 1.534029 1_555
O21 Rb1 2.972609 1_545
O22 P5 1.534029 1_555
O22 Rb2 2.972609 1_545
O23 P4 1.534029 1_555
O23 Rb3 2.972609 1_565
O24 P0 1.630108 1_555
O24 P4 1.638147 1_555
O24 Rb2 3.457758 1_455
O25 P1 1.630108 1_555
O25 P5 1.638147 1_555
O25 Rb3 3.457758 1_555
O26 P2 1.630108 1_555
O26 P6 1.638147 1_555
O26 Rb0 3.457758 1_655
O27 P3 1.630108 1_555
O27 P7 1.638147 1_555
O27 Rb1 3.457758 1_555
