# generated using pymatgen
data_TmPPd
_symmetry_space_group_name_H-M   'P 1'
_cell_length_a   3.94949918
_cell_length_b   6.84379148
_cell_length_c   7.67347421
_cell_angle_alpha   90.00000000
_cell_angle_beta   90.00000000
_cell_angle_gamma   90.00000000
_symmetry_Int_Tables_number   1
_chemical_formula_structural   TmPPd
_chemical_formula_sum   'Tm4 P4 Pd4'
_cell_volume   207.41054592
_cell_formula_units_Z   4
loop_
 _symmetry_equiv_pos_site_id
 _symmetry_equiv_pos_as_xyz
  1  'x, y, z'
loop_
 _atom_site_type_symbol
 _atom_site_label
 _atom_site_symmetry_multiplicity
 _atom_site_fract_x
 _atom_site_fract_y
 _atom_site_fract_z
 _atom_site_occupancy
  Tm  Tm0  1  0.25000000  0.53277878  0.18785566  1
  Tm  Tm1  1  0.75000000  0.46722122  0.81214434  1
  Tm  Tm2  1  0.75000000  0.96722122  0.68785566  1
  Tm  Tm3  1  0.25000000  0.03277878  0.31214434  1
  P  P0  1  0.25000000  0.74642349  0.87657812  1
  P  P1  1  0.75000000  0.25357651  0.12342188  1
  P  P2  1  0.75000000  0.75357651  0.37657812  1
  P  P3  1  0.25000000  0.24642349  0.62342188  1
  Pd  Pd0  1  0.25000000  0.64835180  0.56140846  1
  Pd  Pd1  1  0.75000000  0.35164820  0.43859154  1
  Pd  Pd2  1  0.75000000  0.85164820  0.06140846  1
  Pd  Pd3  1  0.25000000  0.14835180  0.93859154  1
loop_
_geom_bond_atom_site_label_1
_geom_bond_atom_site_label_2
_geom_bond_distance
_geom_bond_site_symmetry_2
P0 Pd0 2.509854 1_555
P0 Pd2 2.535701 1_456
P0 Pd2 2.535701 1_556
P0 Pd3 2.791571 1_565
P0 Tm1 2.792000 1_455
P0 Tm1 2.792000 1_555
P0 Tm0 2.800566 1_556
P0 Tm2 2.877533 1_555
P0 Tm2 2.877533 1_455
P1 Pd1 2.509854 1_555
P1 Pd3 2.535701 1_654
P1 Pd3 2.535701 1_554
P1 Pd2 2.791571 1_545
P1 Tm0 2.792000 1_555
P1 Tm0 2.792000 1_655
P1 Tm1 2.800566 1_554
P1 Tm3 2.877533 1_655
P1 Tm3 2.877533 1_555
P2 Pd2 2.509854 1_555
P2 Pd0 2.535701 1_555
P2 Pd0 2.535701 1_655
P2 Pd1 2.791571 1_555
P2 Tm3 2.792000 1_565
P2 Tm3 2.792000 1_665
P2 Tm2 2.800566 1_555
P2 Tm0 2.877533 1_655
P2 Tm0 2.877533 1_555
P3 Pd3 2.509854 1_555
P3 Pd1 2.535701 1_455
P3 Pd1 2.535701 1_555
P3 Pd0 2.791571 1_555
P3 Tm2 2.792000 1_545
P3 Tm2 2.792000 1_445
P3 Tm3 2.800566 1_555
P3 Tm1 2.877533 1_455
P3 Tm1 2.877533 1_555
Pd0 Tm0 2.973573 1_555
Pd0 Pd1 2.985140 1_455
Pd0 Pd1 2.985140 1_555
Pd0 Tm1 3.022934 1_555
Pd0 Tm1 3.022934 1_455
Pd0 Tm2 3.098939 1_455
Pd0 Tm2 3.098939 1_555
Pd0 Tm3 3.252743 1_565
Pd1 Tm1 2.973573 1_555
Pd1 Tm0 3.022934 1_655
Pd1 Tm0 3.022934 1_555
Pd1 Tm3 3.098939 1_655
Pd1 Tm3 3.098939 1_555
Pd1 Tm2 3.252743 1_545
Pd2 Tm2 2.973573 1_554
Pd2 Pd3 2.985140 1_564
Pd2 Pd3 2.985140 1_664
Pd2 Tm3 3.022934 1_565
Pd2 Tm3 3.022934 1_665
Pd2 Tm0 3.098939 1_655
Pd2 Tm0 3.098939 1_555
Pd2 Tm1 3.252743 1_554
Pd3 Tm3 2.973573 1_556
Pd3 Tm2 3.022934 1_445
Pd3 Tm2 3.022934 1_545
Pd3 Tm1 3.098939 1_455
Pd3 Tm1 3.098939 1_555
Pd3 Tm0 3.252743 1_556
