# generated using pymatgen
data_ZrCrCuS4
_symmetry_space_group_name_H-M   'P 1'
_cell_length_a   6.78192790
_cell_length_b   6.78192790
_cell_length_c   6.07903110
_cell_angle_alpha   63.80255487
_cell_angle_beta   63.80255487
_cell_angle_gamma   30.67226579
_symmetry_Int_Tables_number   1
_chemical_formula_structural   ZrCrCuS4
_chemical_formula_sum   'Zr1 Cr1 Cu1 S4'
_cell_volume   126.81068736
_cell_formula_units_Z   1
loop_
 _symmetry_equiv_pos_site_id
 _symmetry_equiv_pos_as_xyz
  1  'x, y, z'
loop_
 _atom_site_type_symbol
 _atom_site_label
 _atom_site_symmetry_multiplicity
 _atom_site_fract_x
 _atom_site_fract_y
 _atom_site_fract_z
 _atom_site_occupancy
  Zr  Zr0  1  0.75911300  0.75911300  0.21886100  1
  Cr  Cr0  1  0.24158500  0.24158500  0.77438800  1
  Cu  Cu0  1  0.50127500  0.50127500  0.49047000  1
  S  S0  1  0.38517900  0.38517900  0.93377200  1
  S  S1  1  0.61904500  0.61904500  0.04173000  1
  S  S2  1  0.86102600  0.86102600  0.50173700  1
  S  S3  1  0.13277700  0.13277700  0.53904200  1
loop_
_geom_bond_atom_site_label_1
_geom_bond_atom_site_label_2
_geom_bond_distance
_geom_bond_site_symmetry_2
Cr0 S3 2.436577 1_555
Cr0 S2 2.456562 1_455
Cr0 S2 2.456562 1_545
Cr0 S1 2.458235 1_546
Cr0 S1 2.458235 1_456
Cr0 S0 2.476509 1_555
Cu0 S0 2.412808 1_555
Cu0 S1 2.442794 1_555
Cu0 S2 2.544142 1_545
Cu0 S2 2.544142 1_455
Cu0 S3 2.593931 1_565
Cu0 S3 2.593931 1_655
S0 Zr0 2.514698 1_456
S0 Zr0 2.514698 1_546
S1 Zr0 2.514500 1_555
S2 Zr0 2.614009 1_555
S3 Zr0 2.606132 1_545
S3 Zr0 2.606132 1_455
