# generated using pymatgen
data_Ti3ZnHg4
_symmetry_space_group_name_H-M   'P 1'
_cell_length_a   3.10981800
_cell_length_b   3.10981800
_cell_length_c   15.73893800
_cell_angle_alpha   90.00000000
_cell_angle_beta   90.00000000
_cell_angle_gamma   90.00000000
_symmetry_Int_Tables_number   1
_chemical_formula_structural   Ti3ZnHg4
_chemical_formula_sum   'Ti3 Zn1 Hg4'
_cell_volume   152.21076564
_cell_formula_units_Z   1
loop_
 _symmetry_equiv_pos_site_id
 _symmetry_equiv_pos_as_xyz
  1  'x, y, z'
loop_
 _atom_site_type_symbol
 _atom_site_label
 _atom_site_symmetry_multiplicity
 _atom_site_fract_x
 _atom_site_fract_y
 _atom_site_fract_z
 _atom_site_occupancy
  Ti  Ti0  1  0.50000000  0.50000000  0.24884000  1
  Ti  Ti1  1  0.50000000  0.50000000  0.50000000  1
  Ti  Ti2  1  0.50000000  0.50000000  0.75116000  1
  Zn  Zn0  1  0.50000000  0.50000000  0.00000000  1
  Hg  Hg0  1  0.00000000  0.00000000  0.87643500  1
  Hg  Hg1  1  0.00000000  0.00000000  0.12356500  1
  Hg  Hg2  1  0.00000000  0.00000000  0.37422500  1
  Hg  Hg3  1  0.00000000  0.00000000  0.62577500  1
loop_
_geom_bond_atom_site_label_1
_geom_bond_atom_site_label_2
_geom_bond_distance
_geom_bond_site_symmetry_2
Hg0 Zn0 2.935585 1_546
Hg0 Zn0 2.935585 1_446
Hg0 Zn0 2.935585 1_556
Hg0 Zn0 2.935585 1_456
Hg0 Ti2 2.953484 1_455
Hg0 Ti2 2.953484 1_555
Hg0 Ti2 2.953484 1_445
Hg0 Ti2 2.953484 1_545
Hg1 Zn0 2.935585 1_445
Hg1 Zn0 2.935585 1_455
Hg1 Zn0 2.935585 1_555
Hg1 Zn0 2.935585 1_545
Hg1 Ti0 2.953484 1_545
Hg1 Ti0 2.953484 1_445
Hg1 Ti0 2.953484 1_455
Hg1 Ti0 2.953484 1_555
Hg2 Ti0 2.954640 1_555
Hg2 Ti0 2.954640 1_545
Hg2 Ti0 2.954640 1_445
Hg2 Ti0 2.954640 1_455
Hg2 Ti1 2.958743 1_545
Hg2 Ti1 2.958743 1_455
Hg2 Ti1 2.958743 1_445
Hg2 Ti1 2.958743 1_555
Hg3 Ti2 2.954640 1_555
Hg3 Ti2 2.954640 1_445
Hg3 Ti2 2.954640 1_545
Hg3 Ti2 2.954640 1_455
Hg3 Ti1 2.958743 1_455
Hg3 Ti1 2.958743 1_545
Hg3 Ti1 2.958743 1_445
Hg3 Ti1 2.958743 1_555
