# generated using pymatgen
data_K2EuCuCl6
_symmetry_space_group_name_H-M   'P 1'
_cell_length_a   7.37227500
_cell_length_b   7.37227574
_cell_length_c   7.37227595
_cell_angle_alpha   59.99999756
_cell_angle_beta   59.99999976
_cell_angle_gamma   59.99999884
_symmetry_Int_Tables_number   1
_chemical_formula_structural   K2EuCuCl6
_chemical_formula_sum   'K2 Eu1 Cu1 Cl6'
_cell_volume   283.32811324
_cell_formula_units_Z   1
loop_
 _symmetry_equiv_pos_site_id
 _symmetry_equiv_pos_as_xyz
  1  'x, y, z'
loop_
 _atom_site_type_symbol
 _atom_site_label
 _atom_site_symmetry_multiplicity
 _atom_site_fract_x
 _atom_site_fract_y
 _atom_site_fract_z
 _atom_site_occupancy
  K  K0  1  0.25000000  0.25000000  0.25000000  1
  K  K1  1  0.75000000  0.75000000  0.75000000  1
  Eu  Eu0  1  0.00000000  0.00000000  0.00000000  1
  Cu  Cu0  1  0.50000000  0.50000000  0.50000000  1
  Cl  Cl0  1  0.26227700  0.73772300  0.26227700  1
  Cl  Cl1  1  0.73772300  0.73772300  0.26227700  1
  Cl  Cl2  1  0.73772300  0.26227700  0.73772300  1
  Cl  Cl3  1  0.73772300  0.26227700  0.26227700  1
  Cl  Cl4  1  0.26227700  0.73772300  0.73772300  1
  Cl  Cl5  1  0.26227700  0.26227700  0.73772300  1
loop_
_geom_bond_atom_site_label_1
_geom_bond_atom_site_label_2
_geom_bond_distance
_geom_bond_site_symmetry_2
Cl0 Cu0 2.478493 1_555
Cl0 Eu0 2.734493 1_565
Cl0 K1 3.688359 1_455
Cl0 K1 3.688359 1_554
Cl0 K0 3.688360 1_565
Cl0 K0 3.688360 1_555
Cl1 Cu0 2.478493 1_555
Cl1 Eu0 2.734493 1_665
Cl1 K0 3.688359 1_655
Cl1 K0 3.688359 1_565
Cl1 K1 3.688360 1_555
Cl1 K1 3.688360 1_554
Cl2 Cu0 2.478493 1_555
Cl2 Eu0 2.734493 1_656
Cl2 K0 3.688359 1_655
Cl2 K0 3.688359 1_556
Cl2 K1 3.688360 1_545
Cl2 K1 3.688360 1_555
Cl3 Cu0 2.478493 1_555
Cl3 Eu0 2.734493 1_655
Cl3 K0 3.688359 1_655
Cl3 K0 3.688359 1_555
Cl3 K1 3.688359 1_545
Cl3 K1 3.688359 1_554
Cl4 Cu0 2.478493 1_555
Cl4 Eu0 2.734493 1_566
Cl4 K1 3.688359 1_455
Cl4 K1 3.688359 1_555
Cl4 K0 3.688359 1_565
Cl4 K0 3.688359 1_556
Cl5 Cu0 2.478493 1_555
Cl5 Eu0 2.734493 1_556
Cl5 K1 3.688359 1_455
Cl5 K1 3.688359 1_545
Cl5 K0 3.688360 1_555
Cl5 K0 3.688360 1_556
