# generated using pymatgen
data_LiCoPO4
_symmetry_space_group_name_H-M   'P 1'
_cell_length_a   10.04051099
_cell_length_b   10.04051099
_cell_length_c   17.37665300
_cell_angle_alpha   71.93746598
_cell_angle_beta   71.93746598
_cell_angle_gamma   58.83869414
_symmetry_Int_Tables_number   1
_chemical_formula_structural   LiCoPO4
_chemical_formula_sum   'Li16 Co16 P16 O64'
_cell_volume   1400.83475690
_cell_formula_units_Z   16
loop_
 _symmetry_equiv_pos_site_id
 _symmetry_equiv_pos_as_xyz
  1  'x, y, z'
loop_
 _atom_site_type_symbol
 _atom_site_label
 _atom_site_symmetry_multiplicity
 _atom_site_fract_x
 _atom_site_fract_y
 _atom_site_fract_z
 _atom_site_occupancy
  Li  Li0  1  0.87680400  0.49514900  0.68844100  1
  Li  Li1  1  0.44096000  0.37410700  0.18752700  1
  Li  Li2  1  0.99461000  0.87173700  0.18878100  1
  Li  Li3  1  0.62081400  0.76184800  0.93945000  1
  Li  Li4  1  0.18385600  0.25973500  0.93863000  1
  Li  Li5  1  0.75856300  0.12198200  0.43903300  1
  Li  Li6  1  0.25952200  0.68483700  0.43919800  1
  Li  Li7  1  0.37410700  0.44096000  0.68752700  1
  Li  Li8  1  0.87173700  0.99461000  0.68878100  1
  Li  Li9  1  0.93840000  0.36834900  0.18934300  1
  Li  Li10  1  0.49514900  0.87680400  0.18844100  1
  Li  Li11  1  0.12198200  0.75856300  0.93903300  1
  Li  Li12  1  0.68483700  0.25952200  0.93919800  1
  Li  Li13  1  0.76184800  0.62081400  0.43945000  1
  Li  Li14  1  0.25973500  0.18385600  0.43863000  1
  Li  Li15  1  0.36834900  0.93840000  0.68934300  1
  Co  Co0  1  0.56065900  0.62482500  0.81548100  1
  Co  Co1  1  0.63009900  0.06081700  0.31472200  1
  Co  Co2  1  0.74224300  0.81472900  0.56475400  1
  Co  Co3  1  0.23977600  0.37711600  0.56406200  1
  Co  Co4  1  0.31346100  0.74139500  0.06507700  1
  Co  Co5  1  0.87643400  0.24094400  0.06372100  1
  Co  Co6  1  0.50228400  0.12293400  0.81271000  1
  Co  Co7  1  0.06081700  0.63009900  0.81472200  1
  Co  Co8  1  0.12886700  0.00248400  0.31371700  1
  Co  Co9  1  0.62482500  0.56065900  0.31548100  1
  Co  Co10  1  0.74139500  0.31346100  0.56507700  1
  Co  Co11  1  0.24094400  0.87643400  0.56372100  1
  Co  Co12  1  0.81472900  0.74224300  0.06475400  1
  Co  Co13  1  0.37711600  0.23977600  0.06406200  1
  Co  Co14  1  0.00248400  0.12886700  0.81371700  1
  Co  Co15  1  0.12293400  0.50228400  0.31271000  1
  P  P0  1  0.31372500  0.93690800  0.87745800  1
  P  P1  1  0.87335900  0.43908500  0.87533400  1
  P  P2  1  0.93875200  0.81551300  0.37642800  1
  P  P3  1  0.43436100  0.37447700  0.37517600  1
  P  P4  1  0.56056600  0.12684300  0.62599100  1
  P  P5  1  0.06221900  0.68662300  0.62486300  1
  P  P6  1  0.62853400  0.56329800  0.12612500  1
  P  P7  1  0.18632000  0.06024100  0.12460600  1
  P  P8  1  0.81551300  0.93875200  0.87642800  1
  P  P9  1  0.37447700  0.43436100  0.87517600  1
  P  P10  1  0.93690800  0.31372500  0.37745800  1
  P  P11  1  0.43908500  0.87335900  0.37533400  1
  P  P12  1  0.56329800  0.62853400  0.62612500  1
  P  P13  1  0.06024100  0.18632000  0.62460600  1
  P  P14  1  0.12684300  0.56056600  0.12599100  1
  P  P15  1  0.68662300  0.06221900  0.12486300  1
  O  O0  1  0.04085900  0.35619500  0.60782700  1
  O  O1  1  0.82993800  0.32757300  0.95135300  1
  O  O2  1  0.41863100  0.85759700  0.80084000  1
  O  O3  1  0.91977200  0.36338200  0.79887600  1
  O  O4  1  0.39396400  0.82559500  0.95260400  1
  O  O5  1  0.72919700  0.60672200  0.86271600  1
  O  O6  1  0.54437900  0.98971600  0.61321300  1
  O  O7  1  0.85682800  0.04168100  0.10844500  1
  O  O8  1  0.32634000  0.32842100  0.45219300  1
  O  O9  1  0.35625700  0.41977600  0.30003800  1
  O  O10  1  0.86428500  0.92082400  0.29832000  1
  O  O11  1  0.30459200  0.10212800  0.86207300  1
  O  O12  1  0.82285600  0.89597400  0.45094000  1
  O  O13  1  0.89770900  0.69397500  0.64035100  1
  O  O14  1  0.60381600  0.23292300  0.36170300  1
  O  O15  1  0.01097700  0.45630200  0.88661200  1
  O  O16  1  0.48870400  0.54978500  0.11504700  1
  O  O17  1  0.39381900  0.27151100  0.63955800  1
  O  O18  1  0.10339200  0.80666800  0.36315200  1
  O  O19  1  0.17373200  0.60678600  0.54959700  1
  O  O20  1  0.19336000  0.89594500  0.14013400  1
  O  O21  1  0.63571700  0.07824300  0.70274700  1
  O  O22  1  0.14188600  0.58352500  0.70123800  1
  O  O23  1  0.67180100  0.17050200  0.54964300  1
  O  O24  1  0.64606500  0.95911200  0.89081700  1
  O  O25  1  0.45013000  0.51320500  0.38640600  1
  O  O26  1  0.77045300  0.39458500  0.13925500  1
  O  O27  1  0.10613300  0.17328400  0.04973800  1
  O  O28  1  0.04168100  0.85682800  0.60844500  1
  O  O29  1  0.32842100  0.32634000  0.95219300  1
  O  O30  1  0.41977600  0.35625700  0.80003800  1
  O  O31  1  0.92082400  0.86428500  0.79832000  1
  O  O32  1  0.08411000  0.13473700  0.20290500  1
  O  O33  1  0.58477700  0.64165600  0.20093700  1
  O  O34  1  0.95809700  0.14364800  0.39217400  1
  O  O35  1  0.67330300  0.67205600  0.04860600  1
  O  O36  1  0.89597400  0.82285600  0.95094000  1
  O  O37  1  0.23292300  0.60381600  0.86170300  1
  O  O38  1  0.35619500  0.04085900  0.10782700  1
  O  O39  1  0.54978500  0.48870400  0.61504700  1
  O  O40  1  0.32757300  0.82993800  0.45135300  1
  O  O41  1  0.85759700  0.41863100  0.30084000  1
  O  O42  1  0.36338200  0.91977200  0.29887600  1
  O  O43  1  0.80666800  0.10339200  0.86315200  1
  O  O44  1  0.89594500  0.19336000  0.64013400  1
  O  O45  1  0.82559500  0.39396400  0.45260400  1
  O  O46  1  0.51320500  0.45013000  0.88640600  1
  O  O47  1  0.60672200  0.72919700  0.36271600  1
  O  O48  1  0.98971600  0.54437900  0.11321300  1
  O  O49  1  0.39458500  0.77045300  0.63925500  1
  O  O50  1  0.10212800  0.30459200  0.36207300  1
  O  O51  1  0.17328400  0.10613300  0.54973800  1
  O  O52  1  0.69397500  0.89770900  0.14035100  1
  O  O53  1  0.13473700  0.08411000  0.70290500  1
  O  O54  1  0.64165600  0.58477700  0.70093700  1
  O  O55  1  0.14364800  0.95809700  0.89217400  1
  O  O56  1  0.67205600  0.67330300  0.54860600  1
  O  O57  1  0.45630200  0.01097700  0.38661200  1
  O  O58  1  0.27151100  0.39381900  0.13955800  1
  O  O59  1  0.60678600  0.17373200  0.04959700  1
  O  O60  1  0.07824300  0.63571700  0.20274700  1
  O  O61  1  0.58352500  0.14188600  0.20123800  1
  O  O62  1  0.17050200  0.67180100  0.04964300  1
  O  O63  1  0.95911200  0.64606500  0.39081700  1
loop_
_geom_bond_atom_site_label_1
_geom_bond_atom_site_label_2
_geom_bond_distance
_geom_bond_site_symmetry_2
Li0 O3 1.991816 1_555
Li0 O13 2.004503 1_555
Li0 O0 2.006179 1_655
Li0 O54 2.008920 1_555
Li1 O9 1.969034 1_555
Li1 O61 1.988762 1_555
Li1 O16 2.012572 1_555
Li1 O58 2.014248 1_555
Li2 O10 1.986953 1_555
Li2 O7 2.012865 1_565
Li2 O20 2.020984 1_655
Li2 O60 2.022414 1_655
Li3 O35 1.938045 1_556
Li3 O4 1.977106 1_555
Li3 O5 2.005499 1_555
Li3 O24 2.012516 1_555
Li4 O27 1.953839 1_556
Li4 O29 1.980928 1_555
Li4 O15 2.011604 1_555
Li4 O11 2.015822 1_555
Li5 O23 1.947710 1_555
Li5 O12 1.970948 1_545
Li5 O14 2.008954 1_555
Li5 O34 2.013366 1_555
Li6 O19 1.943678 1_555
Li6 O40 1.986071 1_555
Li6 O25 1.988053 1_555
Li6 O18 1.999406 1_555
Li7 O30 1.969034 1_555
Li7 O22 1.988762 1_555
Li7 O39 2.012572 1_555
Li7 O17 2.014248 1_555
Li8 O31 1.986953 1_555
Li8 O28 2.012865 1_655
Li8 O44 2.020984 1_565
Li8 O21 2.022414 1_565
Li9 O41 1.968432 1_555
Li9 O26 1.994662 1_555
Li9 O32 2.004332 1_655
Li9 O48 2.051630 1_555
Li10 O42 1.991816 1_555
Li10 O52 2.004503 1_555
Li10 O38 2.006179 1_565
Li10 O33 2.008920 1_555
Li11 O62 1.947710 1_556
Li11 O36 1.970948 1_455
Li11 O37 2.008954 1_555
Li11 O55 2.013366 1_555
Li12 O59 1.943678 1_556
Li12 O1 1.986071 1_555
Li12 O46 1.988053 1_555
Li12 O43 1.999406 1_555
Li13 O56 1.938045 1_555
Li13 O45 1.977106 1_555
Li13 O47 2.005499 1_555
Li13 O63 2.012516 1_555
Li14 O51 1.953839 1_555
Li14 O8 1.980928 1_555
Li14 O57 2.011604 1_555
Li14 O50 2.015822 1_555
Li15 O2 1.968432 1_555
Li15 O49 1.994662 1_555
Li15 O53 2.004332 1_565
Li15 O6 2.051630 1_555
Co0 O54 1.984650 1_555
Co0 O2 1.991899 1_555
Co0 O46 1.995691 1_555
Co0 O5 2.005184 1_555
Co1 O61 1.988078 1_555
Co1 O14 1.997867 1_555
Co1 O10 1.999558 1_545
Co1 O57 2.005069 1_555
Co2 O12 1.980434 1_555
Co2 O13 1.989344 1_555
Co2 O56 1.999259 1_555
Co2 O6 2.002633 1_555
Co3 O8 1.968535 1_555
Co3 O17 1.983913 1_555
Co3 O19 1.995488 1_555
Co3 O0 2.001159 1_555
Co4 O4 1.972496 1_554
Co4 O20 1.976448 1_555
Co4 O16 1.989835 1_555
Co4 O62 2.003353 1_555
Co5 O1 1.969499 1_554
Co5 O26 1.981272 1_555
Co5 O27 1.993230 1_655
Co5 O7 1.998518 1_555
Co6 O21 1.992347 1_555
Co6 O11 1.995383 1_555
Co6 O24 2.001233 1_545
Co6 O30 2.001925 1_555
Co7 O22 1.988078 1_555
Co7 O37 1.997867 1_555
Co7 O31 1.999558 1_455
Co7 O15 2.005069 1_555
Co8 O18 2.001434 1_545
Co8 O32 2.001602 1_555
Co8 O42 2.008261 1_545
Co8 O34 2.010253 1_455
Co9 O33 1.984650 1_555
Co9 O41 1.991899 1_555
Co9 O25 1.995691 1_555
Co9 O47 2.005184 1_555
Co10 O45 1.972496 1_555
Co10 O44 1.976448 1_555
Co10 O39 1.989835 1_555
Co10 O23 2.003353 1_555
Co11 O40 1.969499 1_555
Co11 O49 1.981272 1_555
Co11 O51 1.993230 1_565
Co11 O28 1.998518 1_555
Co12 O36 1.980434 1_554
Co12 O52 1.989344 1_555
Co12 O35 1.999259 1_555
Co12 O48 2.002633 1_555
Co13 O29 1.968535 1_554
Co13 O58 1.983913 1_555
Co13 O59 1.995488 1_555
Co13 O38 2.001159 1_555
Co14 O43 2.001434 1_455
Co14 O53 2.001602 1_555
Co14 O3 2.008261 1_455
Co14 O55 2.010253 1_545
Co15 O60 1.992347 1_555
Co15 O50 1.995383 1_555
Co15 O63 2.001233 1_455
Co15 O9 2.001925 1_555
O0 P13 1.554142 1_555
O1 P1 1.555470 1_555
O2 P0 1.560740 1_555
O3 P1 1.560693 1_555
O4 P0 1.555242 1_555
O5 P1 1.556556 1_555
O6 P4 1.553993 1_565
O7 P15 1.553658 1_555
O8 P3 1.554476 1_555
O9 P3 1.556956 1_555
O10 P2 1.562177 1_555
O11 P0 1.553888 1_545
O12 P2 1.557121 1_555
O13 P5 1.554567 1_655
O14 P3 1.557692 1_555
O15 P1 1.553595 1_455
O16 P6 1.551613 1_555
O17 P4 1.555418 1_555
O18 P2 1.555005 1_455
O19 P5 1.555613 1_555
O20 P7 1.553761 1_565
O21 P4 1.557507 1_555
O22 P5 1.556330 1_555
O23 P4 1.557822 1_555
O24 P8 1.551403 1_555
O25 P3 1.555398 1_555
O26 P6 1.554325 1_555
O27 P7 1.554704 1_555
O28 P5 1.553658 1_555
O29 P9 1.554476 1_555
O30 P9 1.556956 1_555
O31 P8 1.562177 1_555
O32 P7 1.560333 1_555
O33 P6 1.557016 1_555
O34 P10 1.553616 1_555
O35 P6 1.558630 1_555
O36 P8 1.557121 1_555
O37 P9 1.557692 1_555
O38 P7 1.554142 1_555
O39 P12 1.551613 1_555
O40 P11 1.555470 1_555
O41 P10 1.560740 1_555
O42 P11 1.560693 1_555
O43 P8 1.555005 1_545
O44 P13 1.553761 1_655
O45 P10 1.555242 1_555
O46 P9 1.555398 1_555
O47 P11 1.556556 1_555
O48 P14 1.553993 1_655
O49 P12 1.554325 1_555
O50 P10 1.553888 1_455
O51 P13 1.554704 1_555
O52 P15 1.554567 1_565
O53 P13 1.560333 1_555
O54 P12 1.557016 1_555
O55 P0 1.553616 1_555
O56 P12 1.558630 1_555
O57 P11 1.553595 1_545
O58 P14 1.555418 1_555
O59 P15 1.555613 1_555
O60 P14 1.557507 1_555
O61 P15 1.556330 1_555
O62 P14 1.557822 1_555
O63 P2 1.551403 1_555
