# generated using pymatgen
data_Eu7Cu44As23
_symmetry_space_group_name_H-M   'P 1'
_cell_length_a   11.83881117
_cell_length_b   11.83881117
_cell_length_c   11.83881117
_cell_angle_alpha   60.00000000
_cell_angle_beta   60.00000000
_cell_angle_gamma   60.00000000
_symmetry_Int_Tables_number   1
_chemical_formula_structural   Eu7Cu44As23
_chemical_formula_sum   'Eu7 Cu44 As23'
_cell_volume   1173.30057362
_cell_formula_units_Z   1
loop_
 _symmetry_equiv_pos_site_id
 _symmetry_equiv_pos_as_xyz
  1  'x, y, z'
loop_
 _atom_site_type_symbol
 _atom_site_label
 _atom_site_symmetry_multiplicity
 _atom_site_fract_x
 _atom_site_fract_y
 _atom_site_fract_z
 _atom_site_occupancy
  Eu  Eu0  1  0.75312788  0.24687212  0.24687212  1
  Eu  Eu1  1  0.75312788  0.24687212  0.75312788  1
  Eu  Eu2  1  0.75312788  0.75312788  0.24687212  1
  Eu  Eu3  1  0.24687212  0.75312788  0.75312788  1
  Eu  Eu4  1  0.24687212  0.75312788  0.24687212  1
  Eu  Eu5  1  0.24687212  0.24687212  0.75312788  1
  Eu  Eu6  1  -0.00000000  -0.00000000  0.00000000  1
  Cu  Cu0  1  0.47285013  0.01930276  0.25392355  1
  Cu  Cu1  1  0.47285013  0.25392355  0.25392355  1
  Cu  Cu2  1  0.47285013  0.25392355  0.01930276  1
  Cu  Cu3  1  0.01930276  0.47285013  0.25392355  1
  Cu  Cu4  1  0.25392355  0.47285013  0.01930276  1
  Cu  Cu5  1  0.25392355  0.47285013  0.25392355  1
  Cu  Cu6  1  0.25392355  0.25392355  0.47285013  1
  Cu  Cu7  1  0.25392355  0.01930276  0.47285013  1
  Cu  Cu8  1  0.01930276  0.25392355  0.47285013  1
  Cu  Cu9  1  0.25392355  0.25392355  0.01930276  1
  Cu  Cu10  1  0.01930276  0.25392355  0.25392355  1
  Cu  Cu11  1  0.25392355  0.01930276  0.25392355  1
  Cu  Cu12  1  0.52714987  0.98069724  0.74607645  1
  Cu  Cu13  1  0.52714987  0.74607645  0.74607645  1
  Cu  Cu14  1  0.52714987  0.74607645  0.98069724  1
  Cu  Cu15  1  0.98069724  0.52714987  0.74607645  1
  Cu  Cu16  1  0.74607645  0.52714987  0.98069724  1
  Cu  Cu17  1  0.74607645  0.52714987  0.74607645  1
  Cu  Cu18  1  0.74607645  0.74607645  0.52714987  1
  Cu  Cu19  1  0.74607645  0.98069724  0.52714987  1
  Cu  Cu20  1  0.98069724  0.74607645  0.52714987  1
  Cu  Cu21  1  0.74607645  0.74607645  0.98069724  1
  Cu  Cu22  1  0.98069724  0.74607645  0.74607645  1
  Cu  Cu23  1  0.74607645  0.98069724  0.74607645  1
  Cu  Cu24  1  0.63608227  -0.00000000  0.00000000  1
  Cu  Cu25  1  0.63608227  0.00000000  0.36391773  1
  Cu  Cu26  1  0.63608227  0.36391773  0.00000000  1
  Cu  Cu27  1  -0.00000000  0.63608227  0.36391773  1
  Cu  Cu28  1  0.00000000  0.63608227  -0.00000000  1
  Cu  Cu29  1  0.36391773  0.63608227  -0.00000000  1
  Cu  Cu30  1  0.00000000  0.36391773  0.63608227  1
  Cu  Cu31  1  0.36391773  -0.00000000  0.63608227  1
  Cu  Cu32  1  -0.00000000  0.00000000  0.63608227  1
  Cu  Cu33  1  0.36391773  0.00000000  -0.00000000  1
  Cu  Cu34  1  -0.00000000  0.36391773  0.00000000  1
  Cu  Cu35  1  0.00000000  -0.00000000  0.36391773  1
  Cu  Cu36  1  0.76359142  0.41213619  0.41213619  1
  Cu  Cu37  1  0.41213619  0.76359142  0.41213619  1
  Cu  Cu38  1  0.41213619  0.41213619  0.76359142  1
  Cu  Cu39  1  0.41213619  0.41213619  0.41213619  1
  Cu  Cu40  1  0.23640858  0.58786381  0.58786381  1
  Cu  Cu41  1  0.58786381  0.23640858  0.58786381  1
  Cu  Cu42  1  0.58786381  0.58786381  0.23640858  1
  Cu  Cu43  1  0.58786381  0.58786381  0.58786381  1
  As  As0  1  0.15565891  0.50000000  0.50000000  1
  As  As1  1  0.15565891  0.50000000  0.84434109  1
  As  As2  1  0.15565891  0.84434109  0.50000000  1
  As  As3  1  0.50000000  0.15565891  0.84434109  1
  As  As4  1  0.50000000  0.15565891  0.50000000  1
  As  As5  1  0.84434109  0.15565891  0.50000000  1
  As  As6  1  0.50000000  0.84434109  0.15565891  1
  As  As7  1  0.84434109  0.50000000  0.15565891  1
  As  As8  1  0.50000000  0.50000000  0.15565891  1
  As  As9  1  0.84434109  0.50000000  0.50000000  1
  As  As10  1  0.50000000  0.84434109  0.50000000  1
  As  As11  1  0.50000000  0.50000000  0.84434109  1
  As  As12  1  0.67413555  0.10862148  0.10862148  1
  As  As13  1  0.10862148  0.67413555  0.10862148  1
  As  As14  1  0.10862148  0.10862148  0.67413555  1
  As  As15  1  0.10862148  0.10862148  0.10862148  1
  As  As16  1  0.32586445  0.89137852  0.89137852  1
  As  As17  1  0.89137852  0.32586445  0.89137852  1
  As  As18  1  0.89137852  0.89137852  0.32586445  1
  As  As19  1  0.89137852  0.89137852  0.89137852  1
  As  As20  1  0.25000000  0.25000000  0.25000000  1
  As  As21  1  0.75000000  0.75000000  0.75000000  1
  As  As22  1  0.50000000  0.50000000  0.50000000  1
loop_
_geom_bond_atom_site_label_1
_geom_bond_atom_site_label_2
_geom_bond_distance
_geom_bond_site_symmetry_2
Cu0 Cu11 2.591830 1_555
Cu0 Cu7 2.591830 1_555
Cu0 Cu24 2.694379 1_555
Cu0 Cu25 2.694380 1_555
Cu0 Cu1 2.777631 1_555
Cu0 Cu2 2.777631 1_555
Cu0 Cu37 2.889458 1_545
Cu0 Eu2 3.236829 1_545
Cu1 Cu6 2.591830 1_555
Cu1 Cu5 2.591830 1_555
Cu1 Cu25 2.694379 1_555
Cu1 Cu26 2.694379 1_555
Cu1 Cu2 2.777631 1_555
Cu1 Cu39 2.889458 1_555
Cu1 Eu0 3.236829 1_555
Cu2 Cu9 2.591830 1_555
Cu2 Cu4 2.591830 1_555
Cu2 Cu24 2.694379 1_555
Cu2 Cu26 2.694380 1_555
Cu2 Cu38 2.889458 1_554
Cu2 Eu1 3.236829 1_554
Cu3 Cu8 2.591830 1_555
Cu3 Cu5 2.777631 1_555
Cu3 Cu4 2.777631 1_555
Cu3 Cu36 2.889458 1_455
Cu3 Eu2 3.236829 1_455
Cu4 Cu9 2.591830 1_555
Cu4 Cu5 2.777631 1_555
Cu4 Eu3 3.236829 1_554
Cu5 Cu6 2.591830 1_555
Cu5 Eu4 3.236829 1_555
Cu6 Cu7 2.777631 1_555
Cu6 Cu8 2.777631 1_555
Cu6 Eu5 3.236829 1_555
Cu7 Cu8 2.777631 1_555
Cu7 Eu3 3.236829 1_545
Cu8 Eu1 3.236829 1_455
Cu9 Eu5 3.236828 1_554
Cu10 Cu8 2.591830 1_555
Cu10 Cu3 2.591830 1_555
Cu10 Cu34 2.694379 1_555
Cu10 Cu35 2.694379 1_555
Cu10 Cu9 2.777631 1_555
Cu10 Cu11 2.777631 1_555
Cu10 Cu36 2.889458 1_455
Cu10 Eu0 3.236828 1_455
Cu11 Cu7 2.591830 1_555
Cu11 Cu33 2.694379 1_555
Cu11 Cu35 2.694379 1_555
Cu11 Cu9 2.777631 1_555
Cu11 Cu37 2.889458 1_545
Cu11 Eu4 3.236828 1_545
Cu12 Cu19 2.591830 1_555
Cu12 Cu23 2.591830 1_555
Cu12 Cu33 2.694379 1_566
Cu12 Cu31 2.694380 1_565
Cu12 Cu14 2.777631 1_555
Cu12 Cu13 2.777631 1_555
Cu12 Cu41 2.889458 1_565
Cu12 Eu5 3.236829 1_565
Cu13 Cu17 2.591830 1_555
Cu13 Cu18 2.591830 1_555
Cu13 Cu31 2.694379 1_565
Cu13 Cu29 2.694379 1_556
Cu13 Cu14 2.777631 1_555
Cu13 Cu43 2.889458 1_555
Cu13 Eu3 3.236829 1_555
Cu14 Cu16 2.591830 1_555
Cu14 Cu21 2.591830 1_555
Cu14 Cu33 2.694379 1_566
Cu14 Cu29 2.694380 1_556
Cu14 Cu42 2.889458 1_556
Cu14 Eu4 3.236829 1_556
Cu15 Cu22 2.591830 1_555
Cu15 Cu20 2.591830 1_555
Cu15 Cu34 2.694379 1_656
Cu15 Cu30 2.694380 1_655
Cu15 Cu17 2.777631 1_555
Cu15 Cu16 2.777631 1_555
Cu15 Cu40 2.889458 1_655
Cu15 Eu5 3.236829 1_655
Cu16 Cu21 2.591830 1_555
Cu16 Cu34 2.694379 1_656
Cu16 Cu26 2.694380 1_556
Cu16 Cu17 2.777631 1_555
Cu16 Cu42 2.889458 1_556
Cu16 Eu0 3.236829 1_556
Cu17 Cu18 2.591830 1_555
Cu17 Cu26 2.694379 1_556
Cu17 Cu30 2.694379 1_655
Cu17 Cu43 2.889458 1_555
Cu17 Eu1 3.236829 1_555
Cu18 Cu25 2.694379 1_565
Cu18 Cu27 2.694379 1_655
Cu18 Cu19 2.777631 1_555
Cu18 Cu20 2.777631 1_555
Cu18 Cu43 2.889458 1_555
Cu18 Eu2 3.236829 1_555
Cu19 Cu23 2.591830 1_555
Cu19 Cu35 2.694379 1_665
Cu19 Cu25 2.694380 1_565
Cu19 Cu20 2.777631 1_555
Cu19 Cu41 2.889458 1_565
Cu19 Eu0 3.236829 1_565
Cu20 Cu22 2.591830 1_555
Cu20 Cu35 2.694379 1_665
Cu20 Cu27 2.694380 1_655
Cu20 Cu40 2.889458 1_655
Cu20 Eu4 3.236829 1_655
Cu21 Cu28 2.694379 1_656
Cu21 Cu24 2.694379 1_566
Cu21 Cu22 2.777631 1_555
Cu21 Cu23 2.777631 1_555
Cu21 Cu42 2.889458 1_556
Cu21 Eu2 3.236828 1_556
Cu22 Cu28 2.694379 1_656
Cu22 Cu32 2.694379 1_665
Cu22 Cu23 2.777631 1_555
Cu22 Cu40 2.889458 1_655
Cu22 Eu3 3.236828 1_655
Cu23 Cu24 2.694379 1_566
Cu23 Cu32 2.694379 1_665
Cu23 Cu41 2.889458 1_565
Cu23 Eu1 3.236828 1_565
Cu24 Eu2 3.234521 1_545
Cu24 Eu1 3.234521 1_554
Cu25 Eu2 3.234521 1_545
Cu25 Eu0 3.234521 1_555
Cu26 Eu1 3.234521 1_554
Cu26 Eu0 3.234521 1_555
Cu27 Cu5 2.694379 1_555
Cu27 Cu3 2.694380 1_555
Cu27 Eu4 3.234521 1_555
Cu27 Eu2 3.234521 1_455
Cu28 Cu4 2.694379 1_555
Cu28 Cu3 2.694379 1_555
Cu28 Eu3 3.234521 1_554
Cu28 Eu2 3.234521 1_455
Cu29 Cu5 2.694379 1_555
Cu29 Cu4 2.694380 1_555
Cu29 Eu3 3.234521 1_554
Cu29 Eu4 3.234521 1_555
Cu30 Cu6 2.694379 1_555
Cu30 Cu8 2.694380 1_555
Cu30 Eu5 3.234521 1_555
Cu30 Eu1 3.234521 1_455
Cu31 Cu6 2.694379 1_555
Cu31 Cu7 2.694380 1_555
Cu31 Eu5 3.234521 1_555
Cu31 Eu3 3.234521 1_545
Cu32 Cu8 2.694379 1_555
Cu32 Cu7 2.694379 1_555
Cu32 Eu1 3.234521 1_455
Cu32 Eu3 3.234521 1_545
Cu33 Cu9 2.694379 1_555
Cu33 Eu4 3.234521 1_545
Cu33 Eu5 3.234521 1_554
Cu34 Cu9 2.694379 1_555
Cu34 Eu0 3.234521 1_455
Cu34 Eu5 3.234521 1_554
Cu35 Eu4 3.234521 1_545
Cu35 Eu0 3.234521 1_455
Cu36 Cu8 2.889458 1_655
Cu36 Eu0 3.461807 1_555
Cu36 Eu2 3.461807 1_555
Cu36 Eu1 3.461807 1_555
Cu37 Cu7 2.889458 1_565
Cu37 Eu4 3.461807 1_555
Cu37 Eu2 3.461807 1_555
Cu37 Eu3 3.461807 1_555
Cu38 Cu4 2.889458 1_556
Cu38 Cu9 2.889458 1_556
Cu38 Eu5 3.461807 1_555
Cu38 Eu3 3.461807 1_555
Cu38 Eu1 3.461807 1_555
Cu39 Cu6 2.889458 1_555
Cu39 Cu5 2.889458 1_555
Cu39 Eu5 3.461807 1_555
Cu39 Eu0 3.461807 1_555
Cu39 Eu4 3.461807 1_555
Cu40 Eu3 3.461807 1_555
Cu40 Eu4 3.461807 1_555
Cu40 Eu5 3.461807 1_555
Cu41 Eu1 3.461807 1_555
Cu41 Eu5 3.461807 1_555
Cu41 Eu0 3.461807 1_555
Cu42 Eu2 3.461807 1_555
Cu42 Eu4 3.461807 1_555
Cu42 Eu0 3.461807 1_555
Cu43 Eu3 3.461807 1_555
Cu43 Eu1 3.461807 1_555
Cu43 Eu2 3.461807 1_555
As0 Cu30 2.447746 1_555
As0 Cu27 2.447746 1_555
As0 Cu39 2.479676 1_555
As0 Cu40 2.479676 1_555
As0 Cu15 2.667784 1_455
As0 Cu20 2.667784 1_455
As0 Cu6 2.667784 1_555
As0 Cu5 2.667784 1_555
As0 Eu5 3.185357 1_555
As0 Eu4 3.185357 1_555
As1 Cu28 2.447746 1_556
As1 Cu34 2.447746 1_556
As1 Cu38 2.479676 1_555
As1 Cu40 2.479676 1_555
As1 Cu4 2.667784 1_556
As1 Cu15 2.667784 1_455
As1 Cu22 2.667784 1_455
As1 Cu9 2.667784 1_556
As1 Eu3 3.185357 1_555
As1 Eu5 3.185357 1_555
As2 Cu32 2.447746 1_565
As2 Cu35 2.447746 1_565
As2 Cu37 2.479676 1_555
As2 Cu40 2.479676 1_555
As2 Cu7 2.667784 1_565
As2 Cu20 2.667784 1_455
As2 Cu22 2.667784 1_455
As2 Cu11 2.667784 1_565
As2 Eu3 3.185357 1_555
As2 Eu4 3.185357 1_555
As3 Cu24 2.447746 1_556
As3 Cu33 2.447746 1_556
As3 Cu41 2.479676 1_555
As3 Cu38 2.479676 1_555
As3 Cu2 2.667784 1_556
As3 Cu12 2.667784 1_545
As3 Cu9 2.667784 1_556
As3 Cu23 2.667784 1_545
As3 Eu1 3.185357 1_555
As3 Eu5 3.185357 1_555
As4 Cu31 2.447746 1_555
As4 Cu25 2.447746 1_555
As4 Cu39 2.479676 1_555
As4 Cu41 2.479676 1_555
As4 Cu12 2.667784 1_545
As4 Cu19 2.667784 1_545
As4 Cu6 2.667784 1_555
As4 Cu1 2.667784 1_555
As4 Eu5 3.185357 1_555
As4 Eu0 3.185357 1_555
As5 Cu32 2.447746 1_655
As5 Cu35 2.447746 1_655
As5 Cu41 2.479676 1_555
As5 Cu36 2.479676 1_555
As5 Cu8 2.667784 1_655
As5 Cu19 2.667784 1_545
As5 Cu23 2.667784 1_545
As5 Cu10 2.667784 1_655
As5 Eu1 3.185357 1_555
As5 Eu0 3.185357 1_555
As6 Cu24 2.447746 1_565
As6 Cu33 2.447746 1_565
As6 Cu37 2.479676 1_555
As6 Cu42 2.479676 1_555
As6 Cu0 2.667784 1_565
As6 Cu14 2.667784 1_554
As6 Cu11 2.667784 1_565
As6 Cu21 2.667784 1_554
As6 Eu2 3.185357 1_555
As6 Eu4 3.185357 1_555
As7 Cu28 2.447746 1_655
As7 Cu34 2.447746 1_655
As7 Cu42 2.479676 1_555
As7 Cu36 2.479676 1_555
As7 Cu3 2.667784 1_655
As7 Cu16 2.667784 1_554
As7 Cu21 2.667784 1_554
As7 Cu10 2.667784 1_655
As7 Eu2 3.185357 1_555
As7 Eu0 3.185357 1_555
As8 Cu26 2.447746 1_555
As8 Cu29 2.447746 1_555
As8 Cu39 2.479676 1_555
As8 Cu42 2.479676 1_555
As8 Cu14 2.667784 1_554
As8 Cu16 2.667784 1_554
As8 Cu1 2.667784 1_555
As8 Cu5 2.667784 1_555
As8 Eu0 3.185357 1_555
As8 Eu4 3.185357 1_555
As9 Cu30 2.447746 1_655
As9 Cu27 2.447746 1_655
As9 Cu43 2.479676 1_555
As9 Cu36 2.479676 1_555
As9 Cu8 2.667784 1_655
As9 Cu3 2.667784 1_655
As9 Cu18 2.667784 1_555
As9 Cu17 2.667784 1_555
As9 Eu1 3.185357 1_555
As9 Eu2 3.185357 1_555
As10 Cu31 2.447746 1_565
As10 Cu25 2.447746 1_565
As10 Cu43 2.479676 1_555
As10 Cu37 2.479676 1_555
As10 Cu0 2.667784 1_565
As10 Cu7 2.667784 1_565
As10 Cu13 2.667784 1_555
As10 Cu18 2.667784 1_555
As10 Eu3 3.185357 1_555
As10 Eu2 3.185357 1_555
As11 Cu26 2.447746 1_556
As11 Cu29 2.447746 1_556
As11 Cu43 2.479676 1_555
As11 Cu38 2.479676 1_555
As11 Cu2 2.667784 1_556
As11 Cu4 2.667784 1_556
As11 Cu13 2.667784 1_555
As11 Cu17 2.667784 1_555
As11 Eu3 3.185357 1_555
As11 Eu1 3.185357 1_555
As12 Cu24 2.514479 1_555
As12 Cu26 2.514479 1_555
As12 Cu25 2.514479 1_555
As12 Cu1 2.521403 1_555
As12 Cu0 2.521403 1_555
As12 Cu2 2.521403 1_555
As12 Eu6 3.149919 1_655
As12 Eu2 3.460114 1_545
As12 Eu1 3.460114 1_554
As12 Eu0 3.460114 1_555
As13 Cu28 2.514479 1_555
As13 Cu29 2.514479 1_555
As13 Cu27 2.514479 1_555
As13 Cu5 2.521403 1_555
As13 Cu4 2.521403 1_555
As13 Cu3 2.521403 1_555
As13 Eu6 3.149919 1_565
As13 Eu2 3.460114 1_455
As13 Eu3 3.460114 1_554
As13 Eu4 3.460114 1_555
As14 Cu32 2.514479 1_555
As14 Cu30 2.514479 1_555
As14 Cu31 2.514479 1_555
As14 Cu6 2.521403 1_555
As14 Cu8 2.521403 1_555
As14 Cu7 2.521403 1_555
As14 Eu6 3.149919 1_556
As14 Eu1 3.460114 1_455
As14 Eu3 3.460114 1_545
As14 Eu5 3.460114 1_555
As15 Cu34 2.514479 1_555
As15 Cu35 2.514479 1_555
As15 Cu33 2.514479 1_555
As15 Cu10 2.521403 1_555
As15 Cu9 2.521403 1_555
As15 Cu11 2.521403 1_555
As15 Eu6 3.149919 1_555
As15 Eu0 3.460114 1_455
As15 Eu5 3.460114 1_554
As15 Eu4 3.460114 1_545
As16 Cu33 2.514479 1_566
As16 Cu31 2.514479 1_565
As16 Cu29 2.514479 1_556
As16 Cu13 2.521403 1_555
As16 Cu14 2.521403 1_555
As16 Cu12 2.521403 1_555
As16 Eu6 3.149919 1_566
As16 Eu4 3.460114 1_556
As16 Eu5 3.460114 1_565
As16 Eu3 3.460114 1_555
As17 Cu34 2.514479 1_656
As17 Cu26 2.514479 1_556
As17 Cu30 2.514479 1_655
As17 Cu17 2.521403 1_555
As17 Cu15 2.521403 1_555
As17 Cu16 2.521403 1_555
As17 Eu6 3.149919 1_656
As17 Eu5 3.460114 1_655
As17 Eu0 3.460114 1_556
As17 Eu1 3.460114 1_555
As18 Cu35 2.514479 1_665
As18 Cu25 2.514479 1_565
As18 Cu27 2.514479 1_655
As18 Cu18 2.521403 1_555
As18 Cu19 2.521403 1_555
As18 Cu20 2.521403 1_555
As18 Eu6 3.149919 1_665
As18 Eu4 3.460114 1_655
As18 Eu0 3.460114 1_565
As18 Eu2 3.460114 1_555
As19 Cu28 2.514479 1_656
As19 Cu32 2.514479 1_665
As19 Cu24 2.514479 1_566
As19 Cu21 2.521403 1_555
As19 Cu23 2.521403 1_555
As19 Cu22 2.521403 1_555
As19 Eu6 3.149919 1_666
As19 Eu3 3.460114 1_655
As19 Eu1 3.460114 1_565
As19 Eu2 3.460114 1_556
As20 Cu6 2.685534 1_555
As20 Cu1 2.685534 1_555
As20 Cu5 2.685534 1_555
As20 Cu0 2.685534 1_555
As20 Cu2 2.685534 1_555
As20 Cu8 2.685534 1_555
As20 Cu4 2.685534 1_555
As20 Cu3 2.685534 1_555
As20 Cu7 2.685534 1_555
As20 Cu10 2.685534 1_555
As20 Cu9 2.685534 1_555
As20 Cu11 2.685534 1_555
As21 Cu13 2.685534 1_555
As21 Cu17 2.685534 1_555
As21 Cu18 2.685534 1_555
As21 Cu14 2.685534 1_555
As21 Cu12 2.685534 1_555
As21 Cu16 2.685534 1_555
As21 Cu15 2.685534 1_555
As21 Cu19 2.685534 1_555
As21 Cu20 2.685534 1_555
As21 Cu23 2.685534 1_555
As21 Cu22 2.685534 1_555
As21 Cu21 2.685534 1_555
As22 Cu36 2.547967 1_555
As22 Cu37 2.547967 1_555
As22 Cu42 2.547967 1_555
As22 Cu40 2.547967 1_555
As22 Cu41 2.547967 1_555
As22 Cu38 2.547967 1_555
As22 Cu39 2.547967 1_555
As22 Cu43 2.547967 1_555
