# generated using pymatgen
data_Be2NiN2(O3F4)2
_symmetry_space_group_name_H-M   'P 1'
_cell_length_a   6.26249178
_cell_length_b   8.54094367
_cell_length_c   11.72908800
_cell_angle_alpha   90.00000000
_cell_angle_beta   90.00000000
_cell_angle_gamma   105.87096461
_symmetry_Int_Tables_number   1
_chemical_formula_structural   Be2NiN2(O3F4)2
_chemical_formula_sum   'Be4 Ni2 N4 O12 F16'
_cell_volume   603.44566848
_cell_formula_units_Z   2
loop_
 _symmetry_equiv_pos_site_id
 _symmetry_equiv_pos_as_xyz
  1  'x, y, z'
loop_
 _atom_site_type_symbol
 _atom_site_label
 _atom_site_symmetry_multiplicity
 _atom_site_fract_x
 _atom_site_fract_y
 _atom_site_fract_z
 _atom_site_occupancy
  Be  Be0  1  0.72381000  0.55525200  0.89581900  1
  Be  Be1  1  0.27619000  0.44474800  0.10418100  1
  Be  Be2  1  0.27619000  0.94474800  0.39581900  1
  Be  Be3  1  0.72381000  0.05525200  0.60418100  1
  Ni  Ni0  1  0.50000000  0.00000000  0.00000000  1
  Ni  Ni1  1  0.50000000  0.50000000  0.50000000  1
  N  N0  1  0.95174300  0.59299100  0.17087200  1
  N  N1  1  0.04825700  0.40700900  0.82912800  1
  N  N2  1  0.04825700  0.90700900  0.67087200  1
  N  N3  1  0.95174300  0.09299100  0.32912800  1
  O  O0  1  0.77096400  0.97592400  0.96577900  1
  O  O1  1  0.22903600  0.02407600  0.03422100  1
  O  O2  1  0.22903600  0.52407600  0.46577900  1
  O  O3  1  0.77096400  0.47592400  0.53422100  1
  O  O4  1  0.39071300  0.59114000  0.62022000  1
  O  O5  1  0.60928700  0.40886000  0.37978000  1
  O  O6  1  0.60928700  0.90886000  0.12022000  1
  O  O7  1  0.39071300  0.09114000  0.87978000  1
  O  O8  1  0.36480700  0.84377100  0.89865000  1
  O  O9  1  0.63519300  0.15622900  0.10135000  1
  O  O10  1  0.63519300  0.65622900  0.39865000  1
  O  O11  1  0.36480700  0.34377100  0.60135000  1
  F  F0  1  0.05326500  0.75514500  0.68608000  1
  F  F1  1  0.94673500  0.24485500  0.31392000  1
  F  F2  1  0.94673500  0.74485500  0.18608000  1
  F  F3  1  0.05326500  0.25514500  0.81392000  1
  F  F4  1  0.90821000  0.68371700  0.93224300  1
  F  F5  1  0.09179000  0.31628300  0.06775700  1
  F  F6  1  0.09179000  0.81628300  0.43224300  1
  F  F7  1  0.90821000  0.18371700  0.56775700  1
  F  F8  1  0.80287000  0.88387500  0.64326600  1
  F  F9  1  0.19713000  0.11612500  0.35673400  1
  F  F10  1  0.19713000  0.61612500  0.14326600  1
  F  F11  1  0.80287000  0.38387500  0.85673400  1
  F  F12  1  0.49358100  0.52357800  0.87118100  1
  F  F13  1  0.50641900  0.47642200  0.12881900  1
  F  F14  1  0.50641900  0.97642200  0.37118100  1
  F  F15  1  0.49358100  0.02357800  0.62881900  1
loop_
_geom_bond_atom_site_label_1
_geom_bond_atom_site_label_2
_geom_bond_distance
_geom_bond_site_symmetry_2
Be0 F12 1.422030 1_555
Be0 F4 1.423710 1_555
Be0 F11 1.730361 1_555
Be1 F13 1.422030 1_555
Be1 F5 1.423710 1_555
Be1 F10 1.730361 1_555
Be2 F14 1.422030 1_555
Be2 F6 1.423710 1_555
Be2 F9 1.730361 1_565
Be3 F15 1.422030 1_555
Be3 F7 1.423710 1_555
Be3 F8 1.730361 1_545
Ni0 O1 1.809349 1_555
Ni0 O0 1.809349 1_544
Ni0 O9 1.814524 1_555
Ni0 O8 1.814524 1_544
Ni0 O6 1.831405 1_545
Ni0 O7 1.831405 1_554
Ni1 O2 1.809349 1_555
Ni1 O3 1.809349 1_555
Ni1 O10 1.814524 1_555
Ni1 O11 1.814524 1_555
Ni1 O4 1.831405 1_555
Ni1 O5 1.831405 1_555
F0 N2 1.318112 1_555
F1 N3 1.318112 1_555
F2 N0 1.318112 1_555
F3 N1 1.318112 1_555
F8 N2 1.529497 1_655
F9 N3 1.529497 1_455
F10 N0 1.529497 1_455
F11 N1 1.529497 1_655
