# generated using pymatgen
data_La4Sb2Pb
_symmetry_space_group_name_H-M   'P 1'
_cell_length_a   8.47637992
_cell_length_b   8.47639190
_cell_length_c   8.47627520
_cell_angle_alpha   109.47605265
_cell_angle_beta   109.47544993
_cell_angle_gamma   109.46198755
_symmetry_Int_Tables_number   1
_chemical_formula_structural   La4Sb2Pb
_chemical_formula_sum   'La8 Sb4 Pb2'
_cell_volume   468.81933378
_cell_formula_units_Z   2
loop_
 _symmetry_equiv_pos_site_id
 _symmetry_equiv_pos_as_xyz
  1  'x, y, z'
loop_
 _atom_site_type_symbol
 _atom_site_label
 _atom_site_symmetry_multiplicity
 _atom_site_fract_x
 _atom_site_fract_y
 _atom_site_fract_z
 _atom_site_occupancy
  La  La0  1  0.98748280  0.37862470  0.25349299  1
  La  La1  1  0.12521837  0.73418211  0.74660079  1
  La  La2  1  0.62486173  0.87134121  0.10884670  1
  La  La3  1  0.76231926  0.51578376  0.89089227  1
  La  La4  1  0.12861732  0.23755728  0.75342403  1
  La  La5  1  0.48405392  0.37511919  0.24654997  1
  La  La6  1  0.62145348  0.87486457  0.60890057  1
  La  La7  1  0.26593815  0.01245894  0.39122032  1
  Sb  Sb0  1  0.37500037  0.49997536  0.62496791  1
  Sb  Sb1  1  0.87499437  0.75003265  0.37503092  1
  Sb  Sb2  1  0.50003051  0.12500534  0.87503324  1
  Sb  Sb3  1  0.24997436  0.62500253  0.12496893  1
  Pb  Pb0  1  0.74999849  0.24998253  0.49996170  1
  Pb  Pb1  1  0.00005686  0.00006981  0.00010966  1
loop_
_geom_bond_atom_site_label_1
_geom_bond_atom_site_label_2
_geom_bond_distance
_geom_bond_site_symmetry_2
La0 Sb0 3.233304 1_655
La0 Sb3 3.245883 1_655
La0 Pb1 3.271919 1_655
La0 Sb1 3.517698 1_555
La0 Pb0 3.530764 1_555
La0 Sb2 3.553658 1_554
La1 Sb1 3.233250 1_455
La1 Sb2 3.244810 1_565
La1 Pb1 3.272072 1_566
La1 Sb0 3.518295 1_555
La1 Pb0 3.532344 1_455
La1 Sb3 3.553925 1_556
La2 Sb1 3.233154 1_555
La2 Sb3 3.245730 1_555
La2 Pb0 3.272330 1_565
La2 Sb0 3.517468 1_554
La2 Pb1 3.530891 1_665
La2 Sb2 3.553853 1_564
La3 Sb0 3.232359 1_555
La3 Sb2 3.244902 1_555
La3 Pb0 3.271293 1_555
La3 Sb1 3.519153 1_556
La3 Pb1 3.532499 1_666
La3 Sb3 3.554767 1_656
La4 Sb3 3.233222 1_556
La4 Sb0 3.245095 1_555
La4 Pb0 3.271854 1_455
La4 Sb2 3.518156 1_555
La4 Pb1 3.532197 1_556
La4 Sb1 3.553870 1_445
La5 Sb2 3.233186 1_554
La5 Sb1 3.245706 1_555
La5 Pb0 3.271768 1_555
La5 Sb3 3.518217 1_555
La5 Pb1 3.530911 1_555
La5 Sb0 3.553648 1_555
La6 Sb2 3.233660 1_565
La6 Sb0 3.245795 1_555
La6 Pb1 3.272440 1_666
La6 Sb3 3.518070 1_555
La6 Pb0 3.531309 1_565
La6 Sb1 3.553220 1_555
La7 Sb3 3.233497 1_545
La7 Sb1 3.244901 1_445
La7 Pb1 3.272414 1_555
La7 Sb2 3.516935 1_555
La7 Pb0 3.531908 1_555
La7 Sb0 3.553891 1_555
