# generated using pymatgen
data_Li2InP2HO8
_symmetry_space_group_name_H-M   'P 1'
_cell_length_a   8.36790200
_cell_length_b   4.89262300
_cell_length_c   7.84740080
_cell_angle_alpha   76.72695105
_cell_angle_beta   90.00000000
_cell_angle_gamma   90.00000000
_symmetry_Int_Tables_number   1
_chemical_formula_structural   Li2InP2HO8
_chemical_formula_sum   'Li4 In2 P4 H2 O16'
_cell_volume   312.69798639
_cell_formula_units_Z   2
loop_
 _symmetry_equiv_pos_site_id
 _symmetry_equiv_pos_as_xyz
  1  'x, y, z'
loop_
 _atom_site_type_symbol
 _atom_site_label
 _atom_site_symmetry_multiplicity
 _atom_site_fract_x
 _atom_site_fract_y
 _atom_site_fract_z
 _atom_site_occupancy
  Li  Li0  1  0.13323200  0.63508200  0.90591900  1
  Li  Li1  1  0.36536200  0.14291300  0.41152700  1
  Li  Li2  1  0.86536200  0.85708700  0.58847300  1
  Li  Li3  1  0.63323200  0.36491800  0.09408100  1
  In  In0  1  0.50020000  0.75024800  0.74468400  1
  In  In1  1  0.00020000  0.24975200  0.25531600  1
  P  P0  1  0.34564500  0.11551100  0.01743700  1
  P  P1  1  0.15096900  0.60977700  0.52537300  1
  P  P2  1  0.65096900  0.39022300  0.47462700  1
  P  P3  1  0.84564500  0.88448900  0.98256300  1
  H  H0  1  0.48627500  0.79588100  0.23608800  1
  H  H1  1  0.98627500  0.20411900  0.76391200  1
  O  O0  1  0.18662700  0.24617600  0.05728300  1
  O  O1  1  0.31265700  0.74678200  0.55595300  1
  O  O2  1  0.81265700  0.25321800  0.44404700  1
  O  O3  1  0.68662700  0.75382400  0.94271700  1
  O  O4  1  0.42881500  0.99152600  0.20221800  1
  O  O5  1  0.06963000  0.48168000  0.70215900  1
  O  O6  1  0.56963000  0.51832000  0.29784100  1
  O  O7  1  0.92881500  0.00847400  0.79778200  1
  O  O8  1  0.32035000  0.88389900  0.91568900  1
  O  O9  1  0.18103600  0.38849500  0.41389100  1
  O  O10  1  0.68103600  0.61150500  0.58610900  1
  O  O11  1  0.82035000  0.11610100  0.08431100  1
  O  O12  1  0.46335500  0.34054000  0.92022000  1
  O  O13  1  0.03684800  0.83837500  0.42030100  1
  O  O14  1  0.53684900  0.16162500  0.57969900  1
  O  O15  1  0.96335500  0.65946000  0.07978000  1
loop_
_geom_bond_atom_site_label_1
_geom_bond_atom_site_label_2
_geom_bond_distance
_geom_bond_site_symmetry_2
Li0 O5 1.988564 1_555
Li0 O15 1.992767 1_456
Li0 O8 1.995596 1_555
Li0 O0 2.047743 1_556
Li0 O7 2.504326 1_465
Li1 O9 1.957893 1_555
Li1 O14 1.965881 1_555
Li1 O4 2.021653 1_545
Li1 O1 2.055893 1_545
Li1 O6 2.517684 1_555
Li2 O10 1.957893 1_555
Li2 O13 1.965875 1_655
Li2 O7 2.021653 1_565
Li2 O2 2.055893 1_565
Li2 O5 2.517684 1_655
Li3 O6 1.988564 1_555
Li3 O12 1.992767 1_554
Li3 O11 1.995596 1_555
Li3 O3 2.047743 1_554
Li3 O4 2.504326 1_545
In0 O14 2.150522 1_565
In0 O1 2.160591 1_555
In0 O10 2.164957 1_555
In0 O12 2.177808 1_555
In0 O3 2.204870 1_555
In0 O8 2.212751 1_555
In1 O13 2.150521 1_545
In1 O2 2.160591 1_455
In1 O9 2.164957 1_555
In1 O15 2.177808 1_455
In1 O0 2.204870 1_555
In1 O11 2.212751 1_455
H0 O4 1.049415 1_555
H0 O6 1.504439 1_555
H1 O7 1.049415 1_555
H1 O5 1.504439 1_655
O0 P0 1.539118 1_555
O1 P1 1.552853 1_555
O2 P2 1.552853 1_555
O3 P3 1.539118 1_555
O4 P0 1.597209 1_565
O5 P1 1.543192 1_555
O6 P2 1.543192 1_555
O7 P3 1.597209 1_545
O8 P0 1.543350 1_566
O9 P1 1.560673 1_555
O10 P2 1.560673 1_555
O11 P3 1.543350 1_544
O12 P0 1.542300 1_556
O13 P1 1.555397 1_555
O14 P2 1.555392 1_555
O15 P3 1.542300 1_554
