# generated using pymatgen
data_MgCoMoS4
_symmetry_space_group_name_H-M   'P 1'
_cell_length_a   7.18726382
_cell_length_b   7.20429189
_cell_length_c   7.20436455
_cell_angle_alpha   60.62146549
_cell_angle_beta   60.05997326
_cell_angle_gamma   60.06027272
_symmetry_Int_Tables_number   1
_chemical_formula_structural   MgCoMoS4
_chemical_formula_sum   'Mg2 Co2 Mo2 S8'
_cell_volume   265.23553684
_cell_formula_units_Z   2
loop_
 _symmetry_equiv_pos_site_id
 _symmetry_equiv_pos_as_xyz
  1  'x, y, z'
loop_
 _atom_site_type_symbol
 _atom_site_label
 _atom_site_symmetry_multiplicity
 _atom_site_fract_x
 _atom_site_fract_y
 _atom_site_fract_z
 _atom_site_occupancy
  Mg  Mg0  1  0.87219974  0.87770328  0.87770385  1
  Mg  Mg1  1  0.12780148  0.12229976  0.12229616  1
  Co  Co0  1  0.50000114  0.50000175  0.49999471  1
  Co  Co1  1  -0.00000004  0.49999956  0.50000072  1
  Mo  Mo0  1  0.50000109  0.49999899  0.99999932  1
  Mo  Mo1  1  0.49999956  0.99999817  0.50000534  1
  S  S0  1  0.75536508  0.72806760  0.72806288  1
  S  S1  1  0.25590237  0.28631602  0.70191928  1
  S  S2  1  0.25590291  0.70192039  0.28631181  1
  S  S3  1  0.71142986  0.27199195  0.27198878  1
  S  S4  1  0.74408970  0.29808224  0.71368283  1
  S  S5  1  0.28857105  0.72800166  0.72801189  1
  S  S6  1  0.24463951  0.27192634  0.27194218  1
  S  S7  1  0.74410054  0.71368731  0.29808124  1
loop_
_geom_bond_atom_site_label_1
_geom_bond_atom_site_label_2
_geom_bond_distance
_geom_bond_site_symmetry_2
Mg0 S0 2.444787 1_555
Mg0 S5 2.445361 1_655
Mg0 S4 2.491478 1_565
Mg0 S7 2.491483 1_556
Mg1 S6 2.444782 1_555
Mg1 S3 2.445360 1_455
Mg1 S2 2.491478 1_545
Mg1 S1 2.491480 1_554
Co0 S3 2.317309 1_555
Co0 S5 2.317316 1_555
Co0 S4 2.348416 1_555
Co0 S1 2.348434 1_555
Co0 S2 2.348442 1_555
Co0 S7 2.348443 1_555
Co1 S0 2.317793 1_455
Co1 S6 2.317802 1_555
Co1 S7 2.348612 1_455
Co1 S2 2.348616 1_555
Co1 S1 2.348625 1_555
Co1 S4 2.348641 1_455
Mo0 S0 2.483761 1_555
Mo0 S6 2.483772 1_556
Mo0 S5 2.483878 1_555
Mo0 S3 2.483882 1_556
Mo0 S2 2.496628 1_556
Mo0 S4 2.496629 1_555
Mo1 S6 2.483732 1_565
Mo1 S0 2.483734 1_555
Mo1 S3 2.483886 1_565
Mo1 S5 2.483895 1_555
Mo1 S1 2.496619 1_565
Mo1 S7 2.496627 1_555
