# generated using pymatgen
data_Mg3Si4
_symmetry_space_group_name_H-M   'P 1'
_cell_length_a   5.10307400
_cell_length_b   6.21668657
_cell_length_c   8.60241793
_cell_angle_alpha   110.44192091
_cell_angle_beta   92.85771543
_cell_angle_gamma   93.95349118
_symmetry_Int_Tables_number   1
_chemical_formula_structural   Mg3Si4
_chemical_formula_sum   'Mg6 Si8'
_cell_volume   254.31147690
_cell_formula_units_Z   2
loop_
 _symmetry_equiv_pos_site_id
 _symmetry_equiv_pos_as_xyz
  1  'x, y, z'
loop_
 _atom_site_type_symbol
 _atom_site_label
 _atom_site_symmetry_multiplicity
 _atom_site_fract_x
 _atom_site_fract_y
 _atom_site_fract_z
 _atom_site_occupancy
  Mg  Mg0  1  0.12730800  0.88116400  0.39246000  1
  Mg  Mg1  1  0.61772900  0.72728600  0.56281900  1
  Mg  Mg2  1  0.38536800  0.68170500  0.98754200  1
  Mg  Mg3  1  0.44062300  0.14543500  0.90696800  1
  Mg  Mg4  1  0.02198600  0.37475600  0.37730100  1
  Mg  Mg5  1  0.92309500  0.97240200  0.05149200  1
  Si  Si0  1  0.78768200  0.52027100  0.80237300  1
  Si  Si1  1  0.93727900  0.16150800  0.79593100  1
  Si  Si2  1  0.95168600  0.49248300  0.09235400  1
  Si  Si3  1  0.52223200  0.50408400  0.22516200  1
  Si  Si4  1  0.13634800  0.71642000  0.69117400  1
  Si  Si5  1  0.31753100  0.33736100  0.66152100  1
  Si  Si6  1  0.63994400  0.11881900  0.48283000  1
  Si  Si7  1  0.44454800  0.11274800  0.21674300  1
loop_
_geom_bond_atom_site_label_1
_geom_bond_atom_site_label_2
_geom_bond_distance
_geom_bond_site_symmetry_2
Mg0 Si6 2.844763 1_565
Mg0 Si2 2.901709 1_455
Mg0 Si7 2.901926 1_565
Mg0 Si6 2.978215 1_465
Mg0 Si5 3.025523 1_565
Mg0 Si4 3.080132 1_555
Mg0 Si3 3.195629 1_555
Mg1 Si3 2.747768 1_555
Mg1 Si6 2.747820 1_565
Mg1 Si4 2.749167 1_555
Mg1 Si4 2.830785 1_655
Mg1 Si0 2.912608 1_555
Mg1 Si1 3.041887 1_565
Mg1 Si5 3.162126 1_555
Mg2 Si0 2.693145 1_555
Mg2 Si7 2.701441 1_566
Mg2 Si3 2.725086 1_556
Mg2 Si2 2.770454 1_456
Mg2 Si5 2.859247 1_555
Mg2 Si4 2.874088 1_555
Mg3 Si1 2.716155 1_455
Mg3 Si7 2.741608 1_556
Mg3 Si1 2.760264 1_555
Mg3 Si5 2.829693 1_555
Mg3 Si3 2.851726 1_556
Mg3 Si4 2.941666 1_545
Mg4 Si4 2.794346 1_555
Mg4 Si2 2.806159 1_455
Mg4 Si6 2.813220 1_455
Mg4 Si5 2.895564 1_555
Mg4 Si7 2.901809 1_555
Mg4 Si3 3.090005 1_455
Mg4 Si3 3.108237 1_555
Mg5 Si1 2.833710 1_564
Mg5 Si7 2.880860 1_665
Mg5 Si0 2.889188 1_554
Mg5 Si7 2.918787 1_565
Mg5 Si2 3.119981 1_565
Mg5 Si2 3.135861 1_555
Si0 Si1 2.390154 1_555
Si0 Si4 2.500617 1_655
Si0 Si5 2.624671 1_555
Si0 Si2 2.658153 1_556
Si1 Si2 2.652697 1_556
Si1 Si5 2.666752 1_655
Si1 Si4 2.870078 1_645
Si1 Si6 2.943623 1_555
Si2 Si3 2.515385 1_555
Si3 Si7 2.412893 1_555
Si4 Si5 2.525284 1_555
Si5 Si6 2.453028 1_555
Si6 Si7 2.437630 1_555
