# generated using pymatgen
data_CsK2TlF6
_symmetry_space_group_name_H-M   'P 1'
_cell_length_a   7.01624299
_cell_length_b   7.01624299
_cell_length_c   7.01624299
_cell_angle_alpha   60.00000000
_cell_angle_beta   60.00000000
_cell_angle_gamma   60.00000000
_symmetry_Int_Tables_number   1
_chemical_formula_structural   CsK2TlF6
_chemical_formula_sum   'Cs1 K2 Tl1 F6'
_cell_volume   244.22991988
_cell_formula_units_Z   1
loop_
 _symmetry_equiv_pos_site_id
 _symmetry_equiv_pos_as_xyz
  1  'x, y, z'
loop_
 _atom_site_type_symbol
 _atom_site_label
 _atom_site_symmetry_multiplicity
 _atom_site_fract_x
 _atom_site_fract_y
 _atom_site_fract_z
 _atom_site_occupancy
  Cs  Cs0  1  0.50000000  0.50000000  0.50000000  1
  K  K0  1  0.75000000  0.75000000  0.75000000  1
  K  K1  1  0.25000000  0.25000000  0.25000000  1
  Tl  Tl0  1  0.00000000  0.00000000  0.00000000  1
  F  F0  1  0.77892900  0.22107100  0.22107100  1
  F  F1  1  0.22107100  0.22107100  0.77892900  1
  F  F2  1  0.22107100  0.77892900  0.77892900  1
  F  F3  1  0.22107100  0.77892900  0.22107100  1
  F  F4  1  0.77892900  0.22107100  0.77892900  1
  F  F5  1  0.77892900  0.77892900  0.22107100  1
loop_
_geom_bond_atom_site_label_1
_geom_bond_atom_site_label_2
_geom_bond_distance
_geom_bond_site_symmetry_2
Cs0 F3 2.767664 1_555
Cs0 F0 2.767664 1_555
Cs0 F1 2.767664 1_555
Cs0 F4 2.767664 1_555
Cs0 F2 2.767664 1_555
Cs0 F5 2.767664 1_555
F0 Tl0 2.193569 1_655
F1 Tl0 2.193569 1_556
F2 Tl0 2.193569 1_566
F3 Tl0 2.193569 1_565
F4 Tl0 2.193569 1_656
F5 Tl0 2.193569 1_665
