# generated using pymatgen
data_Tl6TeO12
_symmetry_space_group_name_H-M   'P 1'
_cell_length_a   6.44489890
_cell_length_b   6.44489870
_cell_length_c   6.44489801
_cell_angle_alpha   97.80404408
_cell_angle_beta   97.80405927
_cell_angle_gamma   97.80404798
_symmetry_Int_Tables_number   1
_chemical_formula_structural   Tl6TeO12
_chemical_formula_sum   'Tl6 Te1 O12'
_cell_volume   259.50047887
_cell_formula_units_Z   1
loop_
 _symmetry_equiv_pos_site_id
 _symmetry_equiv_pos_as_xyz
  1  'x, y, z'
loop_
 _atom_site_type_symbol
 _atom_site_label
 _atom_site_symmetry_multiplicity
 _atom_site_fract_x
 _atom_site_fract_y
 _atom_site_fract_z
 _atom_site_occupancy
  Tl  Tl0  1  0.69595137  0.39318660  0.86452224  1
  Tl  Tl1  1  0.39318660  0.86452224  0.69595137  1
  Tl  Tl2  1  0.86452224  0.69595137  0.39318660  1
  Tl  Tl3  1  0.30404863  0.60681340  0.13547776  1
  Tl  Tl4  1  0.60681340  0.13547776  0.30404863  1
  Tl  Tl5  1  0.13547776  0.30404863  0.60681340  1
  Te  Te0  1  -0.00000000  0.00000000  0.00000000  1
  O  O0  1  0.42189887  0.17456662  0.60088181  1
  O  O1  1  0.17456662  0.60088181  0.42189887  1
  O  O2  1  0.60088181  0.42189887  0.17456662  1
  O  O3  1  0.57810113  0.82543338  0.39911819  1
  O  O4  1  0.82543338  0.39911819  0.57810113  1
  O  O5  1  0.39911819  0.57810113  0.82543338  1
  O  O6  1  0.03268774  0.92767278  0.70565540  1
  O  O7  1  0.29434460  0.96731226  0.07232722  1
  O  O8  1  0.07232722  0.29434460  0.96731226  1
  O  O9  1  0.96731226  0.07232722  0.29434460  1
  O  O10  1  0.70565540  0.03268774  0.92767278  1
  O  O11  1  0.92767278  0.70565540  0.03268774  1
loop_
_geom_bond_atom_site_label_1
_geom_bond_atom_site_label_2
_geom_bond_distance
_geom_bond_site_symmetry_2
O0 Tl5 2.129376 1_555
O0 Tl1 2.159942 1_545
O0 Tl4 2.390262 1_555
O0 Tl0 2.418865 1_555
O1 Tl3 2.129376 1_555
O1 Tl2 2.159942 1_455
O1 Tl5 2.390262 1_555
O1 Tl1 2.418865 1_555
O2 Tl4 2.129376 1_555
O2 Tl0 2.159942 1_554
O2 Tl3 2.390262 1_555
O2 Tl2 2.418865 1_555
O3 Tl2 2.129376 1_555
O3 Tl4 2.159942 1_565
O3 Tl1 2.390262 1_555
O3 Tl3 2.418865 1_555
O4 Tl0 2.129376 1_555
O4 Tl5 2.159942 1_655
O4 Tl2 2.390262 1_555
O4 Tl4 2.418865 1_555
O5 Tl1 2.129376 1_555
O5 Tl3 2.159942 1_556
O5 Tl0 2.390262 1_555
O5 Tl5 2.418865 1_555
O6 Te0 1.937889 1_566
O6 Tl2 2.368843 1_455
O6 Tl1 2.420124 1_555
O6 Tl5 2.612768 1_565
O7 Te0 1.937889 1_565
O7 Tl4 2.368843 1_565
O7 Tl3 2.420123 1_555
O7 Tl1 2.612768 1_554
O8 Te0 1.937889 1_556
O8 Tl3 2.368843 1_556
O8 Tl5 2.420123 1_555
O8 Tl0 2.612768 1_455
O9 Te0 1.937889 1_655
O9 Tl5 2.368843 1_655
O9 Tl4 2.420124 1_555
O9 Tl2 2.612768 1_545
O10 Te0 1.937889 1_656
O10 Tl1 2.368843 1_545
O10 Tl0 2.420123 1_555
O10 Tl4 2.612768 1_556
O11 Te0 1.937889 1_665
O11 Tl0 2.368843 1_554
O11 Tl2 2.420123 1_555
O11 Tl3 2.612768 1_655
