# generated using pymatgen
data_KAuF6
_symmetry_space_group_name_H-M   'P 1'
_cell_length_a   4.98014558
_cell_length_b   4.98014470
_cell_length_c   4.98014599
_cell_angle_alpha   98.65653605
_cell_angle_beta   98.65653229
_cell_angle_gamma   98.65653834
_symmetry_Int_Tables_number   1
_chemical_formula_structural   KAuF6
_chemical_formula_sum   'K1 Au1 F6'
_cell_volume   118.80880450
_cell_formula_units_Z   1
loop_
 _symmetry_equiv_pos_site_id
 _symmetry_equiv_pos_as_xyz
  1  'x, y, z'
loop_
 _atom_site_type_symbol
 _atom_site_label
 _atom_site_symmetry_multiplicity
 _atom_site_fract_x
 _atom_site_fract_y
 _atom_site_fract_z
 _atom_site_occupancy
  K  K0  1  0.50000000  0.50000000  0.50000000  1
  Au  Au0  1  0.00000000  0.00000000  -0.00000000  1
  F  F0  1  0.72252540  0.07325887  0.72252540  1
  F  F1  1  0.07325887  0.72252540  0.72252540  1
  F  F2  1  0.27747460  0.27747460  0.92674113  1
  F  F3  1  0.92674113  0.27747460  0.27747460  1
  F  F4  1  0.27747460  0.92674113  0.27747460  1
  F  F5  1  0.72252540  0.72252540  0.07325887  1
loop_
_geom_bond_atom_site_label_1
_geom_bond_atom_site_label_2
_geom_bond_distance
_geom_bond_site_symmetry_2
Au0 F2 1.918571 1_554
Au0 F5 1.918571 1_445
Au0 F3 1.918571 1_455
Au0 F1 1.918571 1_544
Au0 F4 1.918571 1_545
Au0 F0 1.918571 1_454
F0 K0 2.832156 1_555
F0 K0 2.886575 1_545
F1 K0 2.832156 1_555
F1 K0 2.886575 1_455
F2 K0 2.832156 1_555
F2 K0 2.886576 1_556
F3 K0 2.832156 1_555
F3 K0 2.886575 1_655
F4 K0 2.832156 1_555
F4 K0 2.886575 1_565
F5 K0 2.832156 1_555
F5 K0 2.886576 1_554
