# generated using pymatgen
data_Hf2SiMo3
_symmetry_space_group_name_H-M   'P 1'
_cell_length_a   5.29975435
_cell_length_b   5.29975435
_cell_length_c   8.59815200
_cell_angle_alpha   90.00000000
_cell_angle_beta   90.00000000
_cell_angle_gamma   120.00000435
_symmetry_Int_Tables_number   1
_chemical_formula_structural   Hf2SiMo3
_chemical_formula_sum   'Hf4 Si2 Mo6'
_cell_volume   209.14486726
_cell_formula_units_Z   2
loop_
 _symmetry_equiv_pos_site_id
 _symmetry_equiv_pos_as_xyz
  1  'x, y, z'
loop_
 _atom_site_type_symbol
 _atom_site_label
 _atom_site_symmetry_multiplicity
 _atom_site_fract_x
 _atom_site_fract_y
 _atom_site_fract_z
 _atom_site_occupancy
  Hf  Hf0  1  0.33333300  0.66666700  0.43674200  1
  Hf  Hf1  1  0.66666700  0.33333300  0.56325800  1
  Hf  Hf2  1  0.66666700  0.33333300  0.93674200  1
  Hf  Hf3  1  0.33333300  0.66666700  0.06325800  1
  Si  Si0  1  0.00000000  0.00000000  0.50000000  1
  Si  Si1  1  0.00000000  0.00000000  0.00000000  1
  Mo  Mo0  1  0.82978600  0.17021400  0.25000000  1
  Mo  Mo1  1  0.82978600  0.65957300  0.25000000  1
  Mo  Mo2  1  0.34042700  0.17021400  0.25000000  1
  Mo  Mo3  1  0.17021400  0.82978600  0.75000000  1
  Mo  Mo4  1  0.17021400  0.34042700  0.75000000  1
  Mo  Mo5  1  0.65957300  0.82978600  0.75000000  1
loop_
_geom_bond_atom_site_label_1
_geom_bond_atom_site_label_2
_geom_bond_distance
_geom_bond_site_symmetry_2
Hf0 Mo3 3.081664 1_555
Hf0 Mo4 3.081668 1_555
Hf0 Mo5 3.081668 1_555
Hf0 Mo0 3.098544 1_565
Hf0 Mo0 3.098544 1_455
Hf0 Mo1 3.098544 1_455
Hf0 Mo2 3.098544 1_565
Hf0 Mo2 3.098544 1_555
Hf0 Mo1 3.098544 1_555
Hf0 Si0 3.107777 1_565
Hf0 Si0 3.107781 1_555
Hf0 Si0 3.107781 1_665
Hf1 Mo0 3.081664 1_555
Hf1 Mo1 3.081668 1_555
Hf1 Mo2 3.081668 1_555
Hf1 Mo3 3.098544 1_545
Hf1 Mo3 3.098544 1_655
Hf1 Mo5 3.098544 1_545
Hf1 Mo4 3.098544 1_655
Hf1 Mo4 3.098544 1_555
Hf1 Mo5 3.098544 1_555
Hf1 Si0 3.107777 1_655
Hf1 Si0 3.107781 1_665
Hf1 Si0 3.107781 1_555
Hf2 Mo0 3.081664 1_556
Hf2 Mo1 3.081668 1_556
Hf2 Mo2 3.081668 1_556
Hf2 Mo3 3.098544 1_545
Hf2 Mo3 3.098544 1_655
Hf2 Mo5 3.098544 1_545
Hf2 Mo4 3.098544 1_655
Hf2 Mo4 3.098544 1_555
Hf2 Mo5 3.098544 1_555
Hf2 Si1 3.107777 1_656
Hf2 Si1 3.107781 1_666
Hf2 Si1 3.107781 1_556
Hf3 Mo3 3.081664 1_554
Hf3 Mo4 3.081668 1_554
Hf3 Mo5 3.081668 1_554
Hf3 Mo0 3.098544 1_455
Hf3 Mo0 3.098544 1_565
Hf3 Mo1 3.098544 1_455
Hf3 Mo2 3.098544 1_565
Hf3 Mo2 3.098544 1_555
Hf3 Mo1 3.098544 1_555
Hf3 Si1 3.107777 1_565
Hf3 Si1 3.107781 1_555
Hf3 Si1 3.107781 1_665
Mo0 Mo1 2.593482 1_555
Mo0 Mo2 2.593482 1_555
Mo0 Si1 2.657410 1_655
Mo0 Si0 2.657410 1_655
Mo0 Mo1 2.706272 1_545
Mo0 Mo2 2.706272 1_655
Mo1 Mo2 2.593482 1_555
Mo1 Si1 2.657407 1_665
Mo1 Si0 2.657407 1_665
Mo1 Mo2 2.706272 1_665
Mo2 Si1 2.657407 1_555
Mo2 Si0 2.657407 1_555
Mo3 Mo5 2.593482 1_555
Mo3 Mo4 2.593482 1_555
Mo3 Si0 2.657410 1_565
Mo3 Si1 2.657410 1_566
Mo3 Mo5 2.706272 1_455
Mo3 Mo4 2.706272 1_565
Mo4 Mo5 2.593482 1_555
Mo4 Si1 2.657407 1_556
Mo4 Si0 2.657407 1_555
Mo4 Mo5 2.706272 1_445
Mo5 Si0 2.657407 1_665
Mo5 Si1 2.657407 1_666
