# generated using pymatgen
data_PrNiAs
_symmetry_space_group_name_H-M   'P 1'
_cell_length_a   4.11692754
_cell_length_b   4.11692754
_cell_length_c   16.34653896
_cell_angle_alpha   90.00000000
_cell_angle_beta   90.00000000
_cell_angle_gamma   119.99999420
_symmetry_Int_Tables_number   1
_chemical_formula_structural   PrNiAs
_chemical_formula_sum   'Pr4 Ni4 As4'
_cell_volume   239.94014517
_cell_formula_units_Z   4
loop_
 _symmetry_equiv_pos_site_id
 _symmetry_equiv_pos_as_xyz
  1  'x, y, z'
loop_
 _atom_site_type_symbol
 _atom_site_label
 _atom_site_symmetry_multiplicity
 _atom_site_fract_x
 _atom_site_fract_y
 _atom_site_fract_z
 _atom_site_occupancy
  Pr  Pr0  1  -0.00000000  0.00000000  0.25000000  1
  Pr  Pr1  1  -0.00000000  0.00000000  0.75000000  1
  Pr  Pr2  1  -0.00000000  0.00000000  0.00000000  1
  Pr  Pr3  1  -0.00000000  0.00000000  0.50000000  1
  Ni  Ni0  1  0.33333300  0.66666700  0.12591676  1
  Ni  Ni1  1  0.66666700  0.33333300  0.87408324  1
  Ni  Ni2  1  0.66666700  0.33333300  0.62591676  1
  Ni  Ni3  1  0.33333300  0.66666700  0.37408324  1
  As  As0  1  0.33333300  0.66666700  0.62410390  1
  As  As1  1  0.66666700  0.33333300  0.37589610  1
  As  As2  1  0.66666700  0.33333300  0.12410390  1
  As  As3  1  0.33333300  0.66666700  0.87589610  1
loop_
_geom_bond_atom_site_label_1
_geom_bond_atom_site_label_2
_geom_bond_distance
_geom_bond_site_symmetry_2
Ni0 Pr0 3.124710 1_565
Ni0 Pr0 3.124713 1_555
Ni0 Pr0 3.124713 1_665
Ni0 Pr2 3.144248 1_565
Ni0 Pr2 3.144251 1_665
Ni0 Pr2 3.144251 1_555
Ni1 Pr1 3.124710 1_655
Ni1 Pr1 3.124713 1_555
Ni1 Pr1 3.124713 1_665
Ni1 Pr2 3.144248 1_656
Ni1 Pr2 3.144251 1_666
Ni1 Pr2 3.144251 1_556
Ni2 Pr1 3.124710 1_655
Ni2 Pr1 3.124713 1_555
Ni2 Pr1 3.124713 1_665
Ni2 Pr3 3.144248 1_655
Ni2 Pr3 3.144251 1_665
Ni2 Pr3 3.144251 1_555
Ni3 Pr0 3.124710 1_565
Ni3 Pr0 3.124713 1_555
Ni3 Pr0 3.124713 1_665
Ni3 Pr3 3.144248 1_565
Ni3 Pr3 3.144251 1_665
Ni3 Pr3 3.144251 1_555
As0 Ni2 2.377092 1_455
As0 Ni2 2.377092 1_565
As0 Ni2 2.377099 1_555
As0 Pr3 3.124930 1_565
As0 Pr3 3.124932 1_665
As0 Pr3 3.124932 1_555
As0 Pr1 3.144027 1_565
As0 Pr1 3.144030 1_555
As0 Pr1 3.144030 1_665
As1 Ni3 2.377092 1_655
As1 Ni3 2.377092 1_545
As1 Ni3 2.377099 1_555
As1 Pr3 3.124930 1_655
As1 Pr3 3.124932 1_555
As1 Pr3 3.124932 1_665
As1 Pr0 3.144027 1_655
As1 Pr0 3.144030 1_555
As1 Pr0 3.144030 1_665
As2 Ni0 2.377092 1_655
As2 Ni0 2.377092 1_545
As2 Ni0 2.377099 1_555
As2 Pr2 3.124930 1_655
As2 Pr2 3.124932 1_665
As2 Pr2 3.124932 1_555
As2 Pr0 3.144027 1_655
As2 Pr0 3.144030 1_555
As2 Pr0 3.144030 1_665
As3 Ni1 2.377092 1_455
As3 Ni1 2.377092 1_565
As3 Ni1 2.377099 1_555
As3 Pr2 3.124930 1_566
As3 Pr2 3.124932 1_666
As3 Pr2 3.124932 1_556
As3 Pr1 3.144027 1_565
As3 Pr1 3.144030 1_555
As3 Pr1 3.144030 1_665
