# generated using pymatgen
data_Li9Mn2Co5O16
_symmetry_space_group_name_H-M   'P 1'
_cell_length_a   5.10184400
_cell_length_b   5.90379337
_cell_length_c   9.70034035
_cell_angle_alpha   88.43085596
_cell_angle_beta   78.29696464
_cell_angle_gamma   89.22982431
_symmetry_Int_Tables_number   1
_chemical_formula_structural   Li9Mn2Co5O16
_chemical_formula_sum   'Li9 Mn2 Co5 O16'
_cell_volume   285.98619242
_cell_formula_units_Z   1
loop_
 _symmetry_equiv_pos_site_id
 _symmetry_equiv_pos_as_xyz
  1  'x, y, z'
loop_
 _atom_site_type_symbol
 _atom_site_label
 _atom_site_symmetry_multiplicity
 _atom_site_fract_x
 _atom_site_fract_y
 _atom_site_fract_z
 _atom_site_occupancy
  Li  Li0  1  0.50046000  0.25398600  0.99318200  1
  Li  Li1  1  0.26120900  0.50881500  0.26010700  1
  Li  Li2  1  0.49607700  0.74483800  0.99644600  1
  Li  Li3  1  0.25507100  0.99839700  0.25757800  1
  Li  Li4  1  0.74692000  0.00068300  0.74635600  1
  Li  Li5  1  0.74041900  0.49010700  0.73828300  1
  Li  Li6  1  0.00364300  0.74534800  0.50589900  1
  Li  Li7  1  0.99258400  0.25604400  0.50511200  1
  Li  Li8  1  0.49663600  0.49838900  0.49904100  1
  Mn  Mn0  1  0.00394200  0.99943600  0.99939000  1
  Mn  Mn1  1  0.75261900  0.25437100  0.25247900  1
  Co  Co0  1  0.25353900  0.74270300  0.74019500  1
  Co  Co1  1  0.99967500  0.49822100  0.99931000  1
  Co  Co2  1  0.75423800  0.75198800  0.25424100  1
  Co  Co3  1  0.49549300  0.99849700  0.49936400  1
  Co  Co4  1  0.25280100  0.25142200  0.73981900  1
  O  O0  1  0.34672800  0.99618700  0.88222600  1
  O  O1  1  0.10083800  0.24490200  0.11441400  1
  O  O2  1  0.34301900  0.49979000  0.87857100  1
  O  O3  1  0.10045000  0.76516400  0.12633700  1
  O  O4  1  0.60334900  0.76327900  0.62920700  1
  O  O5  1  0.59775000  0.24266300  0.63136500  1
  O  O6  1  0.86889400  0.49402200  0.35419500  1
  O  O7  1  0.86923700  0.02272100  0.36994100  1
  O  O8  1  0.65081600  0.48326600  0.12241200  1
  O  O9  1  0.41202300  0.75626400  0.36932000  1
  O  O10  1  0.65583600  0.00647100  0.13447300  1
  O  O11  1  0.40688700  0.24036400  0.36863500  1
  O  O12  1  0.89288000  0.22979600  0.87913400  1
  O  O13  1  0.89572400  0.75761000  0.89167400  1
  O  O14  1  0.13392300  0.99971900  0.62507800  1
  O  O15  1  0.11632200  0.50453800  0.63621700  1
loop_
_geom_bond_atom_site_label_1
_geom_bond_atom_site_label_2
_geom_bond_distance
_geom_bond_site_symmetry_2
Li0 O2 2.056626 1_555
Li0 O12 2.086865 1_555
Li0 O8 2.122056 1_556
Li0 O0 2.134086 1_545
Li0 O1 2.137615 1_556
Li0 O10 2.223084 1_556
Li1 O6 2.026326 1_455
Li1 O9 2.072248 1_555
Li1 O11 2.089713 1_555
Li1 O8 2.164194 1_555
Li1 O3 2.222111 1_555
Li1 O1 2.391311 1_555
Li2 O0 2.057236 1_555
Li2 O13 2.086898 1_555
Li2 O2 2.119755 1_555
Li2 O3 2.155474 1_556
Li2 O8 2.180892 1_556
Li2 O10 2.330817 1_566
Li3 O9 2.023874 1_555
Li3 O7 2.052817 1_465
Li3 O11 2.062444 1_565
Li3 O10 2.148914 1_565
Li3 O3 2.161403 1_555
Li3 O1 2.228799 1_565
Li4 O5 2.022918 1_555
Li4 O4 2.060300 1_545
Li4 O14 2.083306 1_645
Li4 O12 2.134165 1_555
Li4 O0 2.194146 1_545
Li4 O13 2.217398 1_545
Li5 O15 1.973561 1_655
Li5 O5 2.038966 1_555
Li5 O4 2.094258 1_555
Li5 O2 2.201739 1_555
Li5 O12 2.262218 1_555
Li5 O13 2.444695 1_555
Li6 O15 2.030793 1_555
Li6 O14 2.113576 1_555
Li6 O4 2.150071 1_455
Li6 O9 2.231473 1_555
Li6 O7 2.260428 1_465
Li6 O6 2.323181 1_455
Li7 O14 2.092577 1_645
Li7 O7 2.114170 1_555
Li7 O5 2.135890 1_555
Li7 O15 2.149639 1_655
Li7 O6 2.180276 1_555
Li7 O11 2.257261 1_655
Li8 O9 2.045817 1_555
Li8 O5 2.081977 1_555
Li8 O11 2.118873 1_555
Li8 O15 2.118980 1_555
Li8 O6 2.121305 1_555
Li8 O4 2.178590 1_555
Mn0 O0 1.882678 1_555
Mn0 O12 1.921451 1_465
Mn0 O13 1.942119 1_455
Mn0 O3 1.950943 1_556
Mn0 O1 1.980159 1_566
Mn0 O10 1.982367 1_466
Mn1 O11 1.892143 1_555
Mn1 O6 1.914082 1_555
Mn1 O7 1.921050 1_555
Mn1 O8 1.959942 1_555
Mn1 O1 1.997285 1_655
Mn1 O10 2.009130 1_555
Co0 O4 1.891593 1_555
Co0 O15 1.968511 1_555
Co0 O14 2.020038 1_555
Co0 O2 2.047532 1_555
Co0 O13 2.100941 1_455
Co0 O0 2.182103 1_555
Co1 O2 1.899416 1_655
Co1 O8 1.933330 1_556
Co1 O13 1.957493 1_555
Co1 O1 1.967558 1_656
Co1 O12 2.132896 1_555
Co1 O3 2.156736 1_656
Co2 O9 1.872094 1_555
Co2 O6 1.930545 1_555
Co2 O3 1.942851 1_655
Co2 O10 1.994940 1_565
Co2 O7 2.132876 1_565
Co2 O8 2.199536 1_555
Co3 O11 1.991858 1_565
Co3 O14 1.994372 1_555
Co3 O4 1.995606 1_555
Co3 O9 2.037383 1_555
Co3 O7 2.063682 1_565
Co3 O5 2.093317 1_565
Co4 O5 1.859049 1_555
Co4 O15 1.975227 1_555
Co4 O14 2.050252 1_545
Co4 O12 2.050511 1_455
Co4 O0 2.131580 1_545
Co4 O2 2.133317 1_555
