# generated using pymatgen
data_TmSbRh
_symmetry_space_group_name_H-M   'P 1'
_cell_length_a   4.52020663
_cell_length_b   7.05196917
_cell_length_c   7.73886656
_cell_angle_alpha   90.00000000
_cell_angle_beta   90.00000000
_cell_angle_gamma   90.00000000
_symmetry_Int_Tables_number   1
_chemical_formula_structural   TmSbRh
_chemical_formula_sum   'Tm4 Sb4 Rh4'
_cell_volume   246.68687941
_cell_formula_units_Z   4
loop_
 _symmetry_equiv_pos_site_id
 _symmetry_equiv_pos_as_xyz
  1  'x, y, z'
loop_
 _atom_site_type_symbol
 _atom_site_label
 _atom_site_symmetry_multiplicity
 _atom_site_fract_x
 _atom_site_fract_y
 _atom_site_fract_z
 _atom_site_occupancy
  Tm  Tm0  1  0.25000000  0.50946417  0.20227278  1
  Tm  Tm1  1  0.75000000  0.49053583  0.79772722  1
  Tm  Tm2  1  0.75000000  0.99053583  0.70227278  1
  Tm  Tm3  1  0.25000000  0.00946417  0.29772722  1
  Sb  Sb0  1  0.25000000  0.69616747  0.59231523  1
  Sb  Sb1  1  0.75000000  0.30383253  0.40768477  1
  Sb  Sb2  1  0.75000000  0.80383253  0.09231523  1
  Sb  Sb3  1  0.25000000  0.19616747  0.90768477  1
  Rh  Rh0  1  0.25000000  0.80401381  0.91969387  1
  Rh  Rh1  1  0.75000000  0.19598619  0.08030613  1
  Rh  Rh2  1  0.75000000  0.69598619  0.41969387  1
  Rh  Rh3  1  0.25000000  0.30401381  0.58030613  1
loop_
_geom_bond_atom_site_label_1
_geom_bond_atom_site_label_2
_geom_bond_distance
_geom_bond_site_symmetry_2
Sb0 Tm1 3.120559 1_455
Sb0 Tm1 3.120559 1_555
Sb0 Tm3 3.174689 1_565
Sb0 Tm2 3.184563 1_555
Sb0 Tm2 3.184563 1_455
Sb0 Tm0 3.293139 1_555
Sb1 Tm0 3.120559 1_555
Sb1 Tm0 3.120559 1_655
Sb1 Tm2 3.174689 1_545
Sb1 Tm3 3.184563 1_655
Sb1 Tm3 3.184563 1_555
Sb1 Tm1 3.293139 1_555
Sb2 Tm3 3.120559 1_565
Sb2 Tm3 3.120559 1_665
Sb2 Tm1 3.174689 1_554
Sb2 Tm0 3.184563 1_655
Sb2 Tm0 3.184563 1_555
Sb2 Tm2 3.293139 1_554
Sb3 Tm2 3.120559 1_445
Sb3 Tm2 3.120559 1_545
Sb3 Tm0 3.174689 1_556
Sb3 Tm1 3.184563 1_455
Sb3 Tm1 3.184563 1_555
Sb3 Tm3 3.293139 1_556
Rh0 Sb2 2.625391 1_456
Rh0 Sb2 2.625391 1_556
Rh0 Sb0 2.645227 1_555
Rh0 Sb3 2.767017 1_565
Rh0 Tm0 3.016097 1_556
Rh0 Tm2 3.109554 1_555
Rh0 Tm2 3.109554 1_455
Rh0 Tm3 3.264651 1_566
Rh0 Tm1 3.299379 1_455
Rh0 Tm1 3.299379 1_555
Rh1 Sb3 2.625391 1_554
Rh1 Sb3 2.625391 1_654
Rh1 Sb1 2.645227 1_555
Rh1 Sb2 2.767017 1_545
Rh1 Tm1 3.016097 1_554
Rh1 Tm3 3.109554 1_555
Rh1 Tm3 3.109554 1_655
Rh1 Tm2 3.264651 1_544
Rh1 Tm0 3.299379 1_655
Rh1 Tm0 3.299379 1_555
Rh2 Sb0 2.625391 1_655
Rh2 Sb0 2.625391 1_555
Rh2 Sb2 2.645227 1_555
Rh2 Sb1 2.767017 1_555
Rh2 Tm2 3.016097 1_555
Rh2 Tm0 3.109554 1_555
Rh2 Tm0 3.109554 1_655
Rh2 Tm1 3.264651 1_555
Rh2 Tm3 3.299379 1_665
Rh2 Tm3 3.299379 1_565
Rh3 Sb1 2.625391 1_555
Rh3 Sb1 2.625391 1_455
Rh3 Sb3 2.645227 1_555
Rh3 Sb0 2.767017 1_555
Rh3 Tm3 3.016097 1_555
Rh3 Tm1 3.109554 1_455
Rh3 Tm1 3.109554 1_555
Rh3 Tm0 3.264651 1_555
Rh3 Tm2 3.299379 1_445
Rh3 Tm2 3.299379 1_545
