# generated using pymatgen
data_Lu2SnAu2
_symmetry_space_group_name_H-M   'P 1'
_cell_length_a   16.52897800
_cell_length_b   16.52897800
_cell_length_c   6.99134800
_cell_angle_alpha   90.00000000
_cell_angle_beta   90.00000000
_cell_angle_gamma   90.00000000
_symmetry_Int_Tables_number   1
_chemical_formula_structural   Lu2SnAu2
_chemical_formula_sum   'Lu32 Sn16 Au32'
_cell_volume   1910.08600812
_cell_formula_units_Z   16
loop_
 _symmetry_equiv_pos_site_id
 _symmetry_equiv_pos_as_xyz
  1  'x, y, z'
loop_
 _atom_site_type_symbol
 _atom_site_label
 _atom_site_symmetry_multiplicity
 _atom_site_fract_x
 _atom_site_fract_y
 _atom_site_fract_z
 _atom_site_occupancy
  Lu  Lu0_0  1  0.42106400  0.17106400  0.25000000  1
  Lu  Lu0_1  1  0.42106400  0.17106400  0.75000000  1
  Lu  Lu0_2  1  0.42106400  0.67106400  0.25000000  1
  Lu  Lu0_3  1  0.42106400  0.67106400  0.75000000  1
  Lu  Lu0_4  1  0.92106400  0.17106400  0.25000000  1
  Lu  Lu0_5  1  0.92106400  0.17106400  0.75000000  1
  Lu  Lu0_6  1  0.92106400  0.67106400  0.25000000  1
  Lu  Lu0_7  1  0.92106400  0.67106400  0.75000000  1
  Lu  Lu1_0  1  0.07893600  0.32893600  0.25000000  1
  Lu  Lu1_1  1  0.07893600  0.32893600  0.75000000  1
  Lu  Lu1_2  1  0.07893600  0.82893600  0.25000000  1
  Lu  Lu1_3  1  0.07893600  0.82893600  0.75000000  1
  Lu  Lu1_4  1  0.57893600  0.32893600  0.25000000  1
  Lu  Lu1_5  1  0.57893600  0.32893600  0.75000000  1
  Lu  Lu1_6  1  0.57893600  0.82893600  0.25000000  1
  Lu  Lu1_7  1  0.57893600  0.82893600  0.75000000  1
  Lu  Lu2_0  1  0.17106400  0.07893600  0.25000000  1
  Lu  Lu2_1  1  0.17106400  0.07893600  0.75000000  1
  Lu  Lu2_2  1  0.17106400  0.57893600  0.25000000  1
  Lu  Lu2_3  1  0.17106400  0.57893600  0.75000000  1
  Lu  Lu2_4  1  0.67106400  0.07893600  0.25000000  1
  Lu  Lu2_5  1  0.67106400  0.07893600  0.75000000  1
  Lu  Lu2_6  1  0.67106400  0.57893600  0.25000000  1
  Lu  Lu2_7  1  0.67106400  0.57893600  0.75000000  1
  Lu  Lu3_0  1  0.32893600  0.42106400  0.25000000  1
  Lu  Lu3_1  1  0.32893600  0.42106400  0.75000000  1
  Lu  Lu3_2  1  0.32893600  0.92106400  0.25000000  1
  Lu  Lu3_3  1  0.32893600  0.92106400  0.75000000  1
  Lu  Lu3_4  1  0.82893600  0.42106400  0.25000000  1
  Lu  Lu3_5  1  0.82893600  0.42106400  0.75000000  1
  Lu  Lu3_6  1  0.82893600  0.92106400  0.25000000  1
  Lu  Lu3_7  1  0.82893600  0.92106400  0.75000000  1
  Sn  Sn0_0  1  0.00000000  0.00000000  0.25000000  1
  Sn  Sn0_1  1  0.00000000  0.00000000  0.75000000  1
  Sn  Sn0_2  1  0.00000000  0.50000000  0.25000000  1
  Sn  Sn0_3  1  0.00000000  0.50000000  0.75000000  1
  Sn  Sn0_4  1  0.50000000  0.00000000  0.25000000  1
  Sn  Sn0_5  1  0.50000000  0.00000000  0.75000000  1
  Sn  Sn0_6  1  0.50000000  0.50000000  0.25000000  1
  Sn  Sn0_7  1  0.50000000  0.50000000  0.75000000  1
  Sn  Sn1_0  1  0.25000000  0.25000000  0.25000000  1
  Sn  Sn1_1  1  0.25000000  0.25000000  0.75000000  1
  Sn  Sn1_2  1  0.25000000  0.75000000  0.25000000  1
  Sn  Sn1_3  1  0.25000000  0.75000000  0.75000000  1
  Sn  Sn1_4  1  0.75000000  0.25000000  0.25000000  1
  Sn  Sn1_5  1  0.75000000  0.25000000  0.75000000  1
  Sn  Sn1_6  1  0.75000000  0.75000000  0.25000000  1
  Sn  Sn1_7  1  0.75000000  0.75000000  0.75000000  1
  Au  Au0_0  1  0.31712950  0.06712950  0.00000000  1
  Au  Au0_1  1  0.31712950  0.06712950  0.50000000  1
  Au  Au0_2  1  0.31712950  0.56712950  0.00000000  1
  Au  Au0_3  1  0.31712950  0.56712950  0.50000000  1
  Au  Au0_4  1  0.81712950  0.06712950  0.00000000  1
  Au  Au0_5  1  0.81712950  0.06712950  0.50000000  1
  Au  Au0_6  1  0.81712950  0.56712950  0.00000000  1
  Au  Au0_7  1  0.81712950  0.56712950  0.50000000  1
  Au  Au1_0  1  0.18287050  0.43287050  0.00000000  1
  Au  Au1_1  1  0.18287050  0.43287050  0.50000000  1
  Au  Au1_2  1  0.18287050  0.93287050  0.00000000  1
  Au  Au1_3  1  0.18287050  0.93287050  0.50000000  1
  Au  Au1_4  1  0.68287050  0.43287050  0.00000000  1
  Au  Au1_5  1  0.68287050  0.43287050  0.50000000  1
  Au  Au1_6  1  0.68287050  0.93287050  0.00000000  1
  Au  Au1_7  1  0.68287050  0.93287050  0.50000000  1
  Au  Au2_0  1  0.06712950  0.18287050  0.00000000  1
  Au  Au2_1  1  0.06712950  0.18287050  0.50000000  1
  Au  Au2_2  1  0.06712950  0.68287050  0.00000000  1
  Au  Au2_3  1  0.06712950  0.68287050  0.50000000  1
  Au  Au2_4  1  0.56712950  0.18287050  0.00000000  1
  Au  Au2_5  1  0.56712950  0.18287050  0.50000000  1
  Au  Au2_6  1  0.56712950  0.68287050  0.00000000  1
  Au  Au2_7  1  0.56712950  0.68287050  0.50000000  1
  Au  Au3_0  1  0.43287050  0.31712950  0.00000000  1
  Au  Au3_1  1  0.43287050  0.31712950  0.50000000  1
  Au  Au3_2  1  0.43287050  0.81712950  0.00000000  1
  Au  Au3_3  1  0.43287050  0.81712950  0.50000000  1
  Au  Au3_4  1  0.93287050  0.31712950  0.00000000  1
  Au  Au3_5  1  0.93287050  0.31712950  0.50000000  1
  Au  Au3_6  1  0.93287050  0.81712950  0.00000000  1
  Au  Au3_7  1  0.93287050  0.81712950  0.50000000  1
loop_
_geom_bond_atom_site_label_1
_geom_bond_atom_site_label_2
_geom_bond_distance
_geom_bond_site_symmetry_2
Lu0_0 Sn0_4 3.114025 1_555
Lu0_0 Sn1_0 3.114025 1_555
Lu0_1 Sn0_5 3.114025 1_555
Lu0_1 Sn1_1 3.114025 1_555
Lu0_2 Sn1_2 3.114025 1_555
Lu0_2 Sn0_6 3.114025 1_555
Lu0_3 Sn0_7 3.114025 1_555
Lu0_3 Sn1_3 3.114025 1_555
Lu0_4 Sn0_0 3.114025 1_655
Lu0_4 Sn1_4 3.114025 1_555
Lu0_5 Sn0_1 3.114025 1_655
Lu0_5 Sn1_5 3.114025 1_555
Lu0_6 Sn0_2 3.114025 1_655
Lu0_6 Sn1_6 3.114025 1_555
Lu0_7 Sn1_7 3.114025 1_555
Lu0_7 Sn0_3 3.114025 1_655
Lu1_0 Sn0_2 3.114025 1_555
Lu1_0 Sn1_0 3.114025 1_555
Lu1_1 Sn0_3 3.114025 1_555
Lu1_1 Sn1_1 3.114025 1_555
Lu1_2 Sn0_0 3.114025 1_565
Lu1_2 Sn1_2 3.114025 1_555
Lu1_3 Sn0_1 3.114025 1_565
Lu1_3 Sn1_3 3.114025 1_555
Lu1_4 Sn0_6 3.114025 1_555
Lu1_4 Sn1_4 3.114025 1_555
Lu1_5 Sn0_7 3.114025 1_555
Lu1_5 Sn1_5 3.114025 1_555
Lu1_6 Sn0_4 3.114025 1_565
Lu1_6 Sn1_6 3.114025 1_555
Lu1_7 Sn0_5 3.114025 1_565
Lu1_7 Sn1_7 3.114025 1_555
Lu2_0 Sn0_0 3.114025 1_555
Lu2_0 Sn1_0 3.114025 1_555
Lu2_1 Sn0_1 3.114025 1_555
Lu2_1 Sn1_1 3.114025 1_555
Lu2_2 Sn0_2 3.114025 1_555
Lu2_2 Sn1_2 3.114025 1_555
Lu2_3 Sn0_3 3.114025 1_555
Lu2_3 Sn1_3 3.114025 1_555
Lu2_4 Sn0_4 3.114025 1_555
Lu2_4 Sn1_4 3.114025 1_555
Lu2_5 Sn0_5 3.114025 1_555
Lu2_5 Sn1_5 3.114025 1_555
Lu2_6 Sn0_6 3.114025 1_555
Lu2_6 Sn1_6 3.114025 1_555
Lu2_7 Sn0_7 3.114025 1_555
Lu2_7 Sn1_7 3.114025 1_555
Lu3_0 Sn0_6 3.114025 1_555
Lu3_0 Sn1_0 3.114025 1_555
Lu3_1 Sn0_7 3.114025 1_555
Lu3_1 Sn1_1 3.114025 1_555
Lu3_2 Sn1_2 3.114025 1_555
Lu3_2 Sn0_4 3.114025 1_565
Lu3_3 Sn1_3 3.114025 1_555
Lu3_3 Sn0_5 3.114025 1_565
Lu3_4 Sn0_2 3.114025 1_655
Lu3_4 Sn1_4 3.114025 1_555
Lu3_5 Sn0_3 3.114025 1_655
Lu3_5 Sn1_5 3.114025 1_555
Lu3_6 Sn1_6 3.114025 1_555
Lu3_6 Sn0_0 3.114025 1_665
Lu3_7 Sn1_7 3.114025 1_555
Lu3_7 Sn0_1 3.114025 1_665
Sn0_0 Sn0_1 3.495674 1_555
Sn0_0 Sn0_1 3.495674 1_554
Sn0_2 Sn0_3 3.495674 1_555
Sn0_2 Sn0_3 3.495674 1_554
Sn0_4 Sn0_5 3.495674 1_555
Sn0_4 Sn0_5 3.495674 1_554
Sn0_6 Sn0_7 3.495674 1_555
Sn0_6 Sn0_7 3.495674 1_554
Sn1_0 Sn1_1 3.495674 1_555
Sn1_0 Sn1_1 3.495674 1_554
Sn1_2 Sn1_3 3.495674 1_555
Sn1_2 Sn1_3 3.495674 1_554
Sn1_4 Sn1_5 3.495674 1_555
Sn1_4 Sn1_5 3.495674 1_554
Sn1_6 Sn1_7 3.495674 1_555
Sn1_6 Sn1_7 3.495674 1_554
Au0_0 Lu2_0 2.986959 1_555
Au0_0 Lu3_2 2.986959 1_545
Au0_0 Lu2_1 2.986959 1_554
Au0_0 Lu3_3 2.986959 1_544
Au0_0 Lu0_0 2.992910 1_555
Au0_0 Lu0_1 2.992910 1_554
Au0_0 Au1_2 3.138372 1_545
Au0_1 Lu2_1 2.986959 1_555
Au0_1 Lu3_3 2.986959 1_545
Au0_1 Lu2_0 2.986959 1_555
Au0_1 Lu3_2 2.986959 1_545
Au0_1 Lu0_1 2.992910 1_555
Au0_1 Lu0_0 2.992910 1_555
Au0_1 Au1_3 3.138372 1_545
Au0_2 Lu3_0 2.986959 1_555
Au0_2 Lu2_2 2.986959 1_555
Au0_2 Lu3_1 2.986959 1_554
Au0_2 Lu2_3 2.986959 1_554
Au0_2 Lu0_2 2.992910 1_555
Au0_2 Lu0_3 2.992910 1_554
Au0_2 Au1_0 3.138372 1_555
Au0_3 Lu3_1 2.986959 1_555
Au0_3 Lu2_3 2.986959 1_555
Au0_3 Lu3_0 2.986959 1_555
Au0_3 Lu2_2 2.986959 1_555
Au0_3 Lu0_3 2.992910 1_555
Au0_3 Lu0_2 2.992910 1_555
Au0_3 Au1_1 3.138372 1_555
Au0_4 Lu2_4 2.986959 1_555
Au0_4 Lu2_5 2.986959 1_554
Au0_4 Lu3_6 2.986959 1_545
Au0_4 Lu3_7 2.986959 1_544
Au0_4 Lu0_4 2.992910 1_555
Au0_4 Lu0_5 2.992910 1_554
Au0_4 Au1_6 3.138372 1_545
Au0_5 Lu2_4 2.986959 1_555
Au0_5 Lu2_5 2.986959 1_555
Au0_5 Lu3_6 2.986959 1_545
Au0_5 Lu3_7 2.986959 1_545
Au0_5 Lu0_4 2.992910 1_555
Au0_5 Lu0_5 2.992910 1_555
Au0_5 Au1_7 3.138372 1_545
Au0_6 Lu2_6 2.986959 1_555
Au0_6 Lu3_4 2.986959 1_555
Au0_6 Lu2_7 2.986959 1_554
Au0_6 Lu3_5 2.986959 1_554
Au0_6 Lu0_6 2.992910 1_555
Au0_6 Lu0_7 2.992910 1_554
Au0_6 Au1_4 3.138372 1_555
Au0_7 Lu3_5 2.986959 1_555
Au0_7 Lu2_6 2.986959 1_555
Au0_7 Lu2_7 2.986959 1_555
Au0_7 Lu3_4 2.986959 1_555
Au0_7 Lu0_6 2.992910 1_555
Au0_7 Lu0_7 2.992910 1_555
Au0_7 Au1_5 3.138372 1_555
Au1_0 Lu2_2 2.986959 1_555
Au1_0 Lu2_3 2.986959 1_554
Au1_0 Lu3_0 2.986959 1_555
Au1_0 Lu3_1 2.986959 1_554
Au1_0 Lu1_0 2.992910 1_555
Au1_0 Lu1_1 2.992910 1_554
Au1_1 Lu2_3 2.986959 1_555
Au1_1 Lu2_2 2.986959 1_555
Au1_1 Lu3_0 2.986959 1_555
Au1_1 Lu3_1 2.986959 1_555
Au1_1 Lu1_1 2.992910 1_555
Au1_1 Lu1_0 2.992910 1_555
Au1_2 Lu2_0 2.986959 1_565
Au1_2 Lu2_1 2.986959 1_564
Au1_2 Lu3_2 2.986959 1_555
Au1_2 Lu3_3 2.986959 1_554
Au1_2 Lu1_2 2.992910 1_555
Au1_2 Lu1_3 2.992910 1_554
Au1_3 Lu2_1 2.986959 1_565
Au1_3 Lu2_0 2.986959 1_565
Au1_3 Lu3_3 2.986959 1_555
Au1_3 Lu3_2 2.986959 1_555
Au1_3 Lu1_3 2.992910 1_555
Au1_3 Lu1_2 2.992910 1_555
Au1_4 Lu2_6 2.986959 1_555
Au1_4 Lu2_7 2.986959 1_554
Au1_4 Lu3_4 2.986959 1_555
Au1_4 Lu3_5 2.986959 1_554
Au1_4 Lu1_4 2.992910 1_555
Au1_4 Lu1_5 2.992910 1_554
Au1_5 Lu2_7 2.986959 1_555
Au1_5 Lu2_6 2.986959 1_555
Au1_5 Lu3_4 2.986959 1_555
Au1_5 Lu3_5 2.986959 1_555
Au1_5 Lu1_5 2.992910 1_555
Au1_5 Lu1_4 2.992910 1_555
Au1_6 Lu2_4 2.986959 1_565
Au1_6 Lu2_5 2.986959 1_564
Au1_6 Lu3_6 2.986959 1_555
Au1_6 Lu3_7 2.986959 1_554
Au1_6 Lu1_6 2.992910 1_555
Au1_6 Lu1_7 2.992910 1_554
Au1_7 Lu2_5 2.986959 1_565
Au1_7 Lu2_4 2.986959 1_565
Au1_7 Lu3_6 2.986959 1_555
Au1_7 Lu3_7 2.986959 1_555
Au1_7 Lu1_6 2.992910 1_555
Au1_7 Lu1_7 2.992910 1_555
Au2_0 Lu1_0 2.986959 1_555
Au2_0 Lu1_1 2.986959 1_554
Au2_0 Lu0_4 2.986959 1_455
Au2_0 Lu0_5 2.986959 1_454
Au2_0 Lu2_0 2.992910 1_555
Au2_0 Lu2_1 2.992910 1_554
Au2_0 Au3_4 3.138372 1_455
Au2_1 Lu1_1 2.986959 1_555
Au2_1 Lu1_0 2.986959 1_555
Au2_1 Lu0_5 2.986959 1_455
Au2_1 Lu0_4 2.986959 1_455
Au2_1 Lu2_1 2.992910 1_555
Au2_1 Lu2_0 2.992910 1_555
Au2_1 Au3_5 3.138372 1_455
Au2_2 Lu0_6 2.986959 1_455
Au2_2 Lu1_2 2.986959 1_555
Au2_2 Lu1_3 2.986959 1_554
Au2_2 Lu0_7 2.986959 1_454
Au2_2 Lu2_2 2.992910 1_555
Au2_2 Lu2_3 2.992910 1_554
Au2_2 Au3_6 3.138372 1_455
Au2_3 Lu0_6 2.986959 1_455
Au2_3 Lu0_7 2.986959 1_455
Au2_3 Lu1_3 2.986959 1_555
Au2_3 Lu1_2 2.986959 1_555
Au2_3 Lu2_3 2.992910 1_555
Au2_3 Lu2_2 2.992910 1_555
Au2_3 Au3_7 3.138372 1_455
Au2_4 Lu0_0 2.986959 1_555
Au2_4 Lu0_1 2.986959 1_554
Au2_4 Lu1_4 2.986959 1_555
Au2_4 Lu1_5 2.986959 1_554
Au2_4 Lu2_4 2.992910 1_555
Au2_4 Lu2_5 2.992910 1_554
Au2_4 Au3_0 3.138372 1_555
Au2_5 Lu0_1 2.986959 1_555
Au2_5 Lu1_5 2.986959 1_555
Au2_5 Lu0_0 2.986959 1_555
Au2_5 Lu1_4 2.986959 1_555
Au2_5 Lu2_4 2.992910 1_555
Au2_5 Lu2_5 2.992910 1_555
Au2_5 Au3_1 3.138372 1_555
Au2_6 Lu0_2 2.986959 1_555
Au2_6 Lu0_3 2.986959 1_554
Au2_6 Lu1_6 2.986959 1_555
Au2_6 Lu1_7 2.986959 1_554
Au2_6 Lu2_6 2.992910 1_555
Au2_6 Lu2_7 2.992910 1_554
Au2_6 Au3_2 3.138372 1_555
Au2_7 Lu0_3 2.986959 1_555
Au2_7 Lu0_2 2.986959 1_555
Au2_7 Lu1_6 2.986959 1_555
Au2_7 Lu1_7 2.986959 1_555
Au2_7 Lu2_7 2.992910 1_555
Au2_7 Lu2_6 2.992910 1_555
Au2_7 Au3_3 3.138372 1_555
Au3_0 Lu1_4 2.986959 1_555
Au3_0 Lu1_5 2.986959 1_554
Au3_0 Lu0_0 2.986959 1_555
Au3_0 Lu0_1 2.986959 1_554
Au3_0 Lu3_0 2.992910 1_555
Au3_0 Lu3_1 2.992910 1_554
Au3_1 Lu1_5 2.986959 1_555
Au3_1 Lu1_4 2.986959 1_555
Au3_1 Lu0_1 2.986959 1_555
Au3_1 Lu0_0 2.986959 1_555
Au3_1 Lu3_1 2.992910 1_555
Au3_1 Lu3_0 2.992910 1_555
Au3_2 Lu1_6 2.986959 1_555
Au3_2 Lu1_7 2.986959 1_554
Au3_2 Lu0_2 2.986959 1_555
Au3_2 Lu0_3 2.986959 1_554
Au3_2 Lu3_2 2.992910 1_555
Au3_2 Lu3_3 2.992910 1_554
Au3_3 Lu1_7 2.986959 1_555
Au3_3 Lu1_6 2.986959 1_555
Au3_3 Lu0_3 2.986959 1_555
Au3_3 Lu0_2 2.986959 1_555
Au3_3 Lu3_2 2.992910 1_555
Au3_3 Lu3_3 2.992910 1_555
Au3_4 Lu1_0 2.986959 1_655
Au3_4 Lu1_1 2.986959 1_654
Au3_4 Lu0_4 2.986959 1_555
Au3_4 Lu0_5 2.986959 1_554
Au3_4 Lu3_4 2.992910 1_555
Au3_4 Lu3_5 2.992910 1_554
Au3_5 Lu1_0 2.986959 1_655
Au3_5 Lu1_1 2.986959 1_655
Au3_5 Lu0_5 2.986959 1_555
Au3_5 Lu0_4 2.986959 1_555
Au3_5 Lu3_5 2.992910 1_555
Au3_5 Lu3_4 2.992910 1_555
Au3_6 Lu1_2 2.986959 1_655
Au3_6 Lu1_3 2.986959 1_654
Au3_6 Lu0_6 2.986959 1_555
Au3_6 Lu0_7 2.986959 1_554
Au3_6 Lu3_6 2.992910 1_555
Au3_6 Lu3_7 2.992910 1_554
Au3_7 Lu1_2 2.986959 1_655
Au3_7 Lu1_3 2.986959 1_655
Au3_7 Lu0_7 2.986959 1_555
Au3_7 Lu0_6 2.986959 1_555
Au3_7 Lu3_6 2.992910 1_555
Au3_7 Lu3_7 2.992910 1_555
