# generated using pymatgen
data_Dy(SiPt)2
_symmetry_space_group_name_H-M   'P 1'
_cell_length_a   4.15999261
_cell_length_b   4.15999261
_cell_length_c   9.87328121
_cell_angle_alpha   90.00000000
_cell_angle_beta   90.00000000
_cell_angle_gamma   90.00000000
_symmetry_Int_Tables_number   1
_chemical_formula_structural   Dy(SiPt)2
_chemical_formula_sum   'Dy2 Si4 Pt4'
_cell_volume   170.86244825
_cell_formula_units_Z   2
loop_
 _symmetry_equiv_pos_site_id
 _symmetry_equiv_pos_as_xyz
  1  'x, y, z'
loop_
 _atom_site_type_symbol
 _atom_site_label
 _atom_site_symmetry_multiplicity
 _atom_site_fract_x
 _atom_site_fract_y
 _atom_site_fract_z
 _atom_site_occupancy
  Dy  Dy0  1  0.00000000  0.50000000  0.25416715  1
  Dy  Dy1  1  0.50000000  0.00000000  0.74583285  1
  Si  Si0  1  0.00000000  -0.00000000  0.50000000  1
  Si  Si1  1  0.50000000  0.50000000  0.50000000  1
  Si  Si2  1  -0.00000000  0.50000000  0.86546439  1
  Si  Si3  1  0.50000000  0.00000000  0.13453561  1
  Pt  Pt0  1  0.00000000  -0.00000000  0.00000000  1
  Pt  Pt1  1  0.50000000  0.50000000  0.00000000  1
  Pt  Pt2  1  -0.00000000  0.50000000  0.62452096  1
  Pt  Pt3  1  0.50000000  0.00000000  0.37547904  1
loop_
_geom_bond_atom_site_label_1
_geom_bond_atom_site_label_2
_geom_bond_distance
_geom_bond_site_symmetry_2
Dy0 Si3 3.169842 1_455
Dy0 Si3 3.169842 1_565
Dy0 Si3 3.169842 1_465
Dy0 Si3 3.169842 1_555
Dy0 Pt3 3.176061 1_555
Dy0 Pt3 3.176061 1_565
Dy0 Pt3 3.176061 1_465
Dy0 Pt3 3.176061 1_455
Dy0 Si1 3.196494 1_455
Dy0 Si1 3.196494 1_555
Dy0 Si0 3.196494 1_565
Dy0 Si0 3.196494 1_555
Dy0 Pt0 3.259416 1_555
Dy0 Pt0 3.259416 1_565
Dy0 Pt1 3.259416 1_455
Dy0 Pt1 3.259416 1_555
Dy1 Si2 3.169842 1_545
Dy1 Si2 3.169842 1_655
Dy1 Si2 3.169842 1_555
Dy1 Si2 3.169842 1_645
Dy1 Pt2 3.176061 1_655
Dy1 Pt2 3.176061 1_545
Dy1 Pt2 3.176061 1_645
Dy1 Pt2 3.176061 1_555
Dy1 Si0 3.196494 1_655
Dy1 Si1 3.196494 1_555
Dy1 Si1 3.196494 1_545
Dy1 Si0 3.196494 1_555
Dy1 Pt0 3.259416 1_656
Dy1 Pt1 3.259416 1_546
Dy1 Pt1 3.259416 1_556
Dy1 Pt0 3.259416 1_556
Pt0 Si2 2.467952 1_554
Pt0 Si2 2.467952 1_544
Pt0 Si3 2.467952 1_455
Pt0 Si3 2.467952 1_555
Pt1 Si2 2.467952 1_554
Pt1 Si3 2.467952 1_565
Pt1 Si2 2.467952 1_654
Pt1 Si3 2.467952 1_555
Pt2 Si2 2.378902 1_555
Pt2 Si1 2.416171 1_555
Pt2 Si0 2.416171 1_565
Pt2 Si0 2.416171 1_555
Pt2 Si1 2.416171 1_455
Pt3 Si3 2.378902 1_555
Pt3 Si0 2.416171 1_655
Pt3 Si1 2.416171 1_555
Pt3 Si1 2.416171 1_545
Pt3 Si0 2.416171 1_555
