# generated using pymatgen
data_YB3(H6N)4
_symmetry_space_group_name_H-M   'P 1'
_cell_length_a   7.98471000
_cell_length_b   12.65475800
_cell_length_c   12.98633900
_cell_angle_alpha   90.00000000
_cell_angle_beta   90.00000000
_cell_angle_gamma   90.00000000
_symmetry_Int_Tables_number   1
_chemical_formula_structural   YB3(H6N)4
_chemical_formula_sum   'Y4 B12 H96 N16'
_cell_volume   1312.19907584
_cell_formula_units_Z   4
loop_
 _symmetry_equiv_pos_site_id
 _symmetry_equiv_pos_as_xyz
  1  'x, y, z'
loop_
 _atom_site_type_symbol
 _atom_site_label
 _atom_site_symmetry_multiplicity
 _atom_site_fract_x
 _atom_site_fract_y
 _atom_site_fract_z
 _atom_site_occupancy
  Y  Y0  1  0.05654000  0.37425100  0.20564800  1
  Y  Y1  1  0.94346000  0.62574900  0.70564800  1
  Y  Y2  1  0.55654000  0.12574900  0.70564800  1
  Y  Y3  1  0.44346000  0.87425100  0.20564800  1
  B  B0  1  0.84031900  0.37489800  0.05159600  1
  B  B1  1  0.15968100  0.62510200  0.55159600  1
  B  B2  1  0.34031900  0.12510200  0.55159600  1
  B  B3  1  0.65968100  0.87489800  0.05159600  1
  B  B4  1  0.35577600  0.38696300  0.15096200  1
  B  B5  1  0.64422400  0.61303700  0.65096200  1
  B  B6  1  0.85577600  0.11303700  0.65096200  1
  B  B7  1  0.14422400  0.88696300  0.15096200  1
  B  B8  1  0.28939300  0.43629900  0.86936700  1
  B  B9  1  0.71060700  0.56370100  0.36936700  1
  B  B10  1  0.78939300  0.06370100  0.36936700  1
  B  B11  1  0.21060700  0.93629900  0.86936700  1
  H  H0  1  0.73126600  0.20532300  0.91209600  1
  H  H1  1  0.26873400  0.79467700  0.41209600  1
  H  H2  1  0.23126600  0.29467700  0.41209600  1
  H  H3  1  0.76873400  0.70532300  0.91209600  1
  H  H4  1  0.65499800  0.08933300  0.94456300  1
  H  H5  1  0.34500200  0.91066700  0.44456300  1
  H  H6  1  0.15499800  0.41066700  0.44456300  1
  H  H7  1  0.84500200  0.58933300  0.94456300  1
  H  H8  1  0.82027000  0.09604700  0.87195100  1
  H  H9  1  0.17973000  0.90395300  0.37195100  1
  H  H10  1  0.32027000  0.40395300  0.37195100  1
  H  H11  1  0.67973000  0.59604700  0.87195100  1
  H  H12  1  0.95396800  0.42297200  0.59809100  1
  H  H13  1  0.04603200  0.57702800  0.09809100  1
  H  H14  1  0.45396800  0.07702800  0.09809100  1
  H  H15  1  0.54603200  0.92297200  0.59809100  1
  H  H16  1  0.08359100  0.41212200  0.69817300  1
  H  H17  1  0.91640900  0.58787800  0.19817300  1
  H  H18  1  0.58359100  0.08787800  0.19817300  1
  H  H19  1  0.41640900  0.91212200  0.69817300  1
  H  H20  1  0.88697800  0.37420200  0.70800500  1
  H  H21  1  0.11302200  0.62579800  0.20800500  1
  H  H22  1  0.38697800  0.12579800  0.20800500  1
  H  H23  1  0.61302200  0.87420200  0.70800500  1
  H  H24  1  0.62938500  0.34573800  0.61359000  1
  H  H25  1  0.37061500  0.65426200  0.11359000  1
  H  H26  1  0.12938500  0.15426200  0.11359000  1
  H  H27  1  0.87061500  0.84573800  0.61359000  1
  H  H28  1  0.43057500  0.33347200  0.63614200  1
  H  H29  1  0.56942500  0.66652800  0.13614200  1
  H  H30  1  0.93057500  0.16652800  0.13614200  1
  H  H31  1  0.06942500  0.83347200  0.63614200  1
  H  H32  1  0.55078200  0.37707300  0.72706700  1
  H  H33  1  0.44921800  0.62292700  0.22706700  1
  H  H34  1  0.05078200  0.12292700  0.22706700  1
  H  H35  1  0.94921800  0.87707300  0.72706700  1
  H  H36  1  0.26506700  0.72505100  0.77238200  1
  H  H37  1  0.73493300  0.27494900  0.27238200  1
  H  H38  1  0.76506700  0.77494900  0.27238200  1
  H  H39  1  0.23493300  0.22505100  0.77238200  1
  H  H40  1  0.16170400  0.71720900  0.87815300  1
  H  H41  1  0.83829600  0.28279100  0.37815300  1
  H  H42  1  0.66170400  0.78279100  0.37815300  1
  H  H43  1  0.33829600  0.21720900  0.87815300  1
  H  H44  1  0.24998600  0.60862600  0.83156100  1
  H  H45  1  0.75001400  0.39137400  0.33156100  1
  H  H46  1  0.74998600  0.89137400  0.33156100  1
  H  H47  1  0.25001400  0.10862600  0.83156100  1
  H  H48  1  0.76595300  0.38517700  0.97063100  1
  H  H49  1  0.23404700  0.61482300  0.47063100  1
  H  H50  1  0.26595300  0.11482300  0.47063100  1
  H  H51  1  0.73404700  0.88517700  0.97063100  1
  H  H52  1  0.79870000  0.29353200  0.09607400  1
  H  H53  1  0.20130000  0.70646800  0.59607400  1
  H  H54  1  0.29870000  0.20646800  0.59607400  1
  H  H55  1  0.70130000  0.79353200  0.09607400  1
  H  H56  1  0.99316000  0.37333000  0.03375400  1
  H  H57  1  0.00684000  0.62667000  0.53375400  1
  H  H58  1  0.49316000  0.12667000  0.53375400  1
  H  H59  1  0.50684000  0.87333000  0.03375400  1
  H  H60  1  0.80806100  0.44832600  0.11106200  1
  H  H61  1  0.19193900  0.55167400  0.61106200  1
  H  H62  1  0.30806100  0.05167400  0.61106200  1
  H  H63  1  0.69193900  0.94832600  0.11106200  1
  H  H64  1  0.25609700  0.40119500  0.07967400  1
  H  H65  1  0.74390300  0.59880500  0.57967400  1
  H  H66  1  0.75609700  0.09880500  0.57967400  1
  H  H67  1  0.24390300  0.90119500  0.07967400  1
  H  H68  1  0.31868600  0.30075400  0.19192700  1
  H  H69  1  0.68131400  0.69924600  0.69192700  1
  H  H70  1  0.81868600  0.19924600  0.69192700  1
  H  H71  1  0.18131400  0.80075400  0.19192700  1
  H  H72  1  0.49843900  0.38867000  0.12211100  1
  H  H73  1  0.50156100  0.61133000  0.62211100  1
  H  H74  1  0.99843900  0.11133000  0.62211100  1
  H  H75  1  0.00156100  0.88867000  0.12211100  1
  H  H76  1  0.32485400  0.45454400  0.21720400  1
  H  H77  1  0.67514600  0.54545600  0.71720400  1
  H  H78  1  0.82485400  0.04545600  0.71720400  1
  H  H79  1  0.17514600  0.95454400  0.21720400  1
  H  H80  1  0.26791500  0.42701200  0.77491600  1
  H  H81  1  0.73208500  0.57298800  0.27491600  1
  H  H82  1  0.76791500  0.07298800  0.27491600  1
  H  H83  1  0.23208500  0.92701200  0.77491600  1
  H  H84  1  0.43145400  0.47167200  0.88479900  1
  H  H85  1  0.56854600  0.52832800  0.38479900  1
  H  H86  1  0.93145400  0.02832800  0.38479900  1
  H  H87  1  0.06854600  0.97167200  0.88479900  1
  H  H88  1  0.18206500  0.49567400  0.90589200  1
  H  H89  1  0.81793500  0.50432600  0.40589200  1
  H  H90  1  0.68206500  0.00432600  0.40589200  1
  H  H91  1  0.31793500  0.99567400  0.90589200  1
  H  H92  1  0.27135500  0.35177900  0.91316300  1
  H  H93  1  0.72864500  0.64822100  0.41316300  1
  H  H94  1  0.77135500  0.14822100  0.41316300  1
  H  H95  1  0.22864500  0.85177900  0.91316300  1
  N  N0  1  0.70604400  0.13071700  0.88444100  1
  N  N1  1  0.29395600  0.86928300  0.38444100  1
  N  N2  1  0.20604400  0.36928300  0.38444100  1
  N  N3  1  0.79395600  0.63071700  0.88444100  1
  N  N4  1  0.96295400  0.43063200  0.67638800  1
  N  N5  1  0.03704600  0.56936800  0.17638800  1
  N  N6  1  0.46295400  0.06936800  0.17638800  1
  N  N7  1  0.53704600  0.93063200  0.67638800  1
  N  N8  1  0.54606200  0.32221300  0.66866500  1
  N  N9  1  0.45393800  0.67778700  0.16866500  1
  N  N10  1  0.04606200  0.17778700  0.16866500  1
  N  N11  1  0.95393800  0.82221300  0.66866500  1
  N  N12  1  0.18516900  0.67631000  0.81153100  1
  N  N13  1  0.81483100  0.32369000  0.31153100  1
  N  N14  1  0.68516900  0.82369000  0.31153100  1
  N  N15  1  0.31483100  0.17631000  0.81153100  1
loop_
_geom_bond_atom_site_label_1
_geom_bond_atom_site_label_2
_geom_bond_distance
_geom_bond_site_symmetry_2
B0 H48 1.214509 1_554
B0 H52 1.226490 1_555
B0 H60 1.235372 1_555
B0 H56 1.242350 1_555
B1 H49 1.214509 1_555
B1 H53 1.226490 1_555
B1 H61 1.235372 1_555
B1 H57 1.242350 1_555
B2 H50 1.214509 1_555
B2 H54 1.226490 1_555
B2 H62 1.235372 1_555
B2 H58 1.242350 1_555
B3 H51 1.214509 1_554
B3 H55 1.226490 1_555
B3 H63 1.235372 1_555
B3 H59 1.242350 1_555
B4 H72 1.199351 1_555
B4 H64 1.234081 1_555
B4 H76 1.237893 1_555
B4 H68 1.249358 1_555
B5 H73 1.199351 1_555
B5 H65 1.234081 1_555
B5 H77 1.237893 1_555
B5 H69 1.249358 1_555
B6 H74 1.199351 1_555
B6 H66 1.234081 1_555
B6 H78 1.237893 1_555
B6 H70 1.249358 1_555
B7 H75 1.199351 1_555
B7 H67 1.234081 1_555
B7 H79 1.237893 1_555
B7 H71 1.249358 1_555
B8 H92 1.219927 1_555
B8 H88 1.234492 1_555
B8 H84 1.235805 1_555
B8 H80 1.244067 1_555
B9 H93 1.219927 1_555
B9 H89 1.234492 1_555
B9 H85 1.235805 1_555
B9 H81 1.244067 1_555
B10 H94 1.219927 1_555
B10 H90 1.234492 1_555
B10 H86 1.235805 1_555
B10 H82 1.244067 1_555
B11 H95 1.219927 1_555
B11 H91 1.234492 1_555
B11 H87 1.235805 1_555
B11 H83 1.244067 1_555
H0 N0 1.030001 1_555
H1 N1 1.030001 1_555
H2 N2 1.030001 1_555
H3 N3 1.030001 1_555
H4 N0 1.024689 1_555
H5 N1 1.024689 1_555
H6 N2 1.024689 1_555
H7 N3 1.024689 1_555
H8 N0 1.025016 1_555
H9 N1 1.025016 1_555
H10 N2 1.025016 1_555
H11 N3 1.025016 1_555
H12 N4 1.023919 1_555
H13 N5 1.023919 1_555
H14 N6 1.023919 1_555
H15 N7 1.023919 1_555
H16 N4 1.030902 1_455
H17 N5 1.030902 1_655
H18 N6 1.030902 1_555
H19 N7 1.030902 1_555
H20 N4 1.023012 1_555
H21 N5 1.023012 1_555
H22 N6 1.023012 1_555
H23 N7 1.023012 1_555
H24 N8 1.021180 1_555
H25 N9 1.021180 1_555
H26 N10 1.021180 1_555
H27 N11 1.021180 1_555
H28 N8 1.024211 1_555
H29 N9 1.024211 1_555
H30 N10 1.024211 1_655
H31 N11 1.024211 1_455
H32 N8 1.028884 1_555
H33 N9 1.028884 1_555
H34 N10 1.028884 1_555
H35 N11 1.028884 1_555
H36 N12 1.022701 1_555
H37 N13 1.022701 1_555
H38 N14 1.022701 1_555
H39 N15 1.022701 1_555
H40 N12 1.025431 1_555
H41 N13 1.025431 1_555
H42 N14 1.025431 1_555
H43 N15 1.025431 1_555
H44 N12 1.033996 1_555
H45 N13 1.033996 1_555
H46 N14 1.033996 1_555
H47 N15 1.033996 1_555
H52 Y0 2.703112 1_655
H53 Y1 2.703112 1_455
H54 Y2 2.703112 1_555
H55 Y3 2.703112 1_555
H56 Y0 2.288949 1_655
H57 Y1 2.288949 1_455
H58 Y2 2.288949 1_555
H59 Y3 2.288949 1_555
H60 Y0 2.514735 1_655
H61 Y1 2.514735 1_455
H62 Y2 2.514735 1_555
H63 Y3 2.514735 1_555
H64 Y0 2.309005 1_555
H65 Y1 2.309005 1_555
H66 Y2 2.309005 1_555
H67 Y3 2.309005 1_555
H68 Y0 2.297418 1_555
H69 Y1 2.297418 1_555
H70 Y2 2.297418 1_555
H71 Y3 2.297418 1_555
H76 Y0 2.375895 1_555
H77 Y1 2.375895 1_555
H78 Y2 2.375895 1_555
H79 Y3 2.375895 1_555
N0 Y2 2.611522 1_555
N1 Y3 2.611522 1_555
N2 Y0 2.611522 1_555
N3 Y1 2.611522 1_555
N4 Y1 2.503069 1_555
N5 Y0 2.503069 1_555
N6 Y3 2.503069 1_545
N7 Y2 2.503069 1_565
N8 Y2 2.533550 1_555
N9 Y3 2.533550 1_555
N10 Y0 2.533550 1_555
N11 Y1 2.533550 1_555
N12 Y1 2.454570 1_455
N13 Y0 2.454570 1_655
N14 Y3 2.454570 1_555
N15 Y2 2.454570 1_555
