# generated using pymatgen
data_Yb5Mg
_symmetry_space_group_name_H-M   'P 1'
_cell_length_a   18.25802499
_cell_length_b   18.25802499
_cell_length_c   10.98583639
_cell_angle_alpha   90.00000000
_cell_angle_beta   90.00000000
_cell_angle_gamma   157.79937290
_symmetry_Int_Tables_number   1
_chemical_formula_structural   Yb5Mg
_chemical_formula_sum   'Yb40 Mg8'
_cell_volume   1383.76138122
_cell_formula_units_Z   8
loop_
 _symmetry_equiv_pos_site_id
 _symmetry_equiv_pos_as_xyz
  1  'x, y, z'
loop_
 _atom_site_type_symbol
 _atom_site_label
 _atom_site_symmetry_multiplicity
 _atom_site_fract_x
 _atom_site_fract_y
 _atom_site_fract_z
 _atom_site_occupancy
  Yb  Yb0_0  1  0.49990738  0.00009262  0.00000000  1
  Yb  Yb0_1  1  0.49990738  0.00009262  0.50000000  1
  Yb  Yb0_2  1  0.49990738  0.50009262  0.00000000  1
  Yb  Yb0_3  1  0.49990738  0.50009262  0.50000000  1
  Yb  Yb0_4  1  0.99990738  0.00009262  0.00000000  1
  Yb  Yb0_5  1  0.99990738  0.00009262  0.50000000  1
  Yb  Yb0_6  1  0.99990738  0.50009262  0.00000000  1
  Yb  Yb0_7  1  0.99990738  0.50009262  0.50000000  1
  Yb  Yb1_0  1  0.16476867  0.33523133  0.00000000  1
  Yb  Yb1_1  1  0.16476867  0.33523133  0.50000000  1
  Yb  Yb1_2  1  0.16476867  0.83523133  0.00000000  1
  Yb  Yb1_3  1  0.16476867  0.83523133  0.50000000  1
  Yb  Yb1_4  1  0.66476867  0.33523133  0.00000000  1
  Yb  Yb1_5  1  0.66476867  0.33523133  0.50000000  1
  Yb  Yb1_6  1  0.66476867  0.83523133  0.00000000  1
  Yb  Yb1_7  1  0.66476867  0.83523133  0.50000000  1
  Yb  Yb2_0  1  0.33316883  0.16683117  0.00000000  1
  Yb  Yb2_1  1  0.33316883  0.16683117  0.50000000  1
  Yb  Yb2_2  1  0.33316883  0.66683117  0.00000000  1
  Yb  Yb2_3  1  0.33316883  0.66683117  0.50000000  1
  Yb  Yb2_4  1  0.83316883  0.16683117  0.00000000  1
  Yb  Yb2_5  1  0.83316883  0.16683117  0.50000000  1
  Yb  Yb2_6  1  0.83316883  0.66683117  0.00000000  1
  Yb  Yb2_7  1  0.83316883  0.66683117  0.50000000  1
  Yb  Yb3_0  1  0.22343692  0.27656308  0.25000000  1
  Yb  Yb3_1  1  0.22343692  0.27656308  0.75000000  1
  Yb  Yb3_2  1  0.22343692  0.77656308  0.25000000  1
  Yb  Yb3_3  1  0.22343692  0.77656308  0.75000000  1
  Yb  Yb3_4  1  0.72343692  0.27656308  0.25000000  1
  Yb  Yb3_5  1  0.72343692  0.27656308  0.75000000  1
  Yb  Yb3_6  1  0.72343692  0.77656308  0.25000000  1
  Yb  Yb3_7  1  0.72343692  0.77656308  0.75000000  1
  Yb  Yb4_0  1  0.05686695  0.44313305  0.25000000  1
  Yb  Yb4_1  1  0.05686695  0.44313305  0.75000000  1
  Yb  Yb4_2  1  0.05686695  0.94313305  0.25000000  1
  Yb  Yb4_3  1  0.05686695  0.94313305  0.75000000  1
  Yb  Yb4_4  1  0.55686695  0.44313305  0.25000000  1
  Yb  Yb4_5  1  0.55686695  0.44313305  0.75000000  1
  Yb  Yb4_6  1  0.55686695  0.94313305  0.25000000  1
  Yb  Yb4_7  1  0.55686695  0.94313305  0.75000000  1
  Mg  Mg0_0  1  0.38851725  0.11148275  0.25000000  1
  Mg  Mg0_1  1  0.38851725  0.11148275  0.75000000  1
  Mg  Mg0_2  1  0.38851725  0.61148275  0.25000000  1
  Mg  Mg0_3  1  0.38851725  0.61148275  0.75000000  1
  Mg  Mg0_4  1  0.88851725  0.11148275  0.25000000  1
  Mg  Mg0_5  1  0.88851725  0.11148275  0.75000000  1
  Mg  Mg0_6  1  0.88851725  0.61148275  0.25000000  1
  Mg  Mg0_7  1  0.88851725  0.61148275  0.75000000  1
loop_
_geom_bond_atom_site_label_1
_geom_bond_atom_site_label_2
_geom_bond_distance
_geom_bond_site_symmetry_2
Yb0_0 Yb3_2 3.395853 1_545
Yb0_0 Yb3_4 3.395853 1_555
Yb0_0 Yb3_3 3.395853 1_544
Yb0_0 Yb3_5 3.395853 1_554
Yb0_0 Yb4_6 3.421816 1_545
Yb0_0 Yb4_7 3.421816 1_544
Yb0_0 Yb2_4 3.462711 1_555
Yb0_0 Yb2_2 3.462711 1_545
Yb0_0 Yb0_6 3.515169 1_445
Yb0_0 Yb0_6 3.515169 1_555
Yb0_0 Yb1_2 3.520835 1_545
Yb0_0 Yb1_4 3.520835 1_555
Yb0_1 Yb3_3 3.395853 1_545
Yb0_1 Yb3_2 3.395853 1_545
Yb0_1 Yb3_5 3.395853 1_555
Yb0_1 Yb3_4 3.395853 1_555
Yb0_1 Yb4_7 3.421816 1_545
Yb0_1 Yb4_6 3.421816 1_545
Yb0_1 Yb2_5 3.462711 1_555
Yb0_1 Yb2_3 3.462711 1_545
Yb0_1 Yb0_7 3.515169 1_445
Yb0_1 Yb0_7 3.515169 1_555
Yb0_1 Yb1_3 3.520835 1_545
Yb0_1 Yb1_5 3.520835 1_555
Yb0_2 Yb3_6 3.395853 1_555
Yb0_2 Yb3_0 3.395853 1_555
Yb0_2 Yb3_1 3.395853 1_554
Yb0_2 Yb3_7 3.395853 1_554
Yb0_2 Yb4_4 3.421816 1_555
Yb0_2 Yb4_5 3.421816 1_554
Yb0_2 Yb2_0 3.462711 1_555
Yb0_2 Yb2_6 3.462711 1_555
Yb0_2 Yb0_4 3.515169 1_455
Yb0_2 Yb0_4 3.515169 1_565
Yb0_2 Yb1_6 3.520835 1_555
Yb0_2 Yb1_0 3.520835 1_555
Yb0_3 Yb3_1 3.395853 1_555
Yb0_3 Yb3_7 3.395853 1_555
Yb0_3 Yb3_6 3.395853 1_555
Yb0_3 Yb3_0 3.395853 1_555
Yb0_3 Yb4_5 3.421816 1_555
Yb0_3 Yb4_4 3.421816 1_555
Yb0_3 Yb2_1 3.462711 1_555
Yb0_3 Yb2_7 3.462711 1_555
Yb0_3 Yb0_5 3.515169 1_565
Yb0_3 Yb0_5 3.515169 1_455
Yb0_3 Yb1_7 3.520835 1_555
Yb0_3 Yb1_1 3.520835 1_555
Yb0_4 Yb3_6 3.395853 1_545
Yb0_4 Yb3_0 3.395853 1_655
Yb0_4 Yb3_7 3.395853 1_544
Yb0_4 Yb3_1 3.395853 1_654
Yb0_4 Yb4_2 3.421816 1_645
Yb0_4 Yb4_3 3.421816 1_644
Yb0_4 Yb2_6 3.462711 1_545
Yb0_4 Yb2_0 3.462711 1_655
Yb0_4 Yb1_6 3.520835 1_545
Yb0_4 Yb1_0 3.520835 1_655
Yb0_5 Yb3_7 3.395853 1_545
Yb0_5 Yb3_1 3.395853 1_655
Yb0_5 Yb3_6 3.395853 1_545
Yb0_5 Yb3_0 3.395853 1_655
Yb0_5 Yb4_3 3.421816 1_645
Yb0_5 Yb4_2 3.421816 1_645
Yb0_5 Yb2_7 3.462711 1_545
Yb0_5 Yb2_1 3.462711 1_655
Yb0_5 Yb1_7 3.520835 1_545
Yb0_5 Yb1_1 3.520835 1_655
Yb0_6 Yb3_2 3.395853 1_655
Yb0_6 Yb3_3 3.395853 1_654
Yb0_6 Yb3_4 3.395853 1_555
Yb0_6 Yb3_5 3.395853 1_554
Yb0_6 Yb4_0 3.421816 1_655
Yb0_6 Yb4_1 3.421816 1_654
Yb0_6 Yb2_4 3.462711 1_555
Yb0_6 Yb2_2 3.462711 1_655
Yb0_6 Yb1_2 3.520835 1_655
Yb0_6 Yb1_4 3.520835 1_555
Yb0_7 Yb3_3 3.395853 1_655
Yb0_7 Yb3_5 3.395853 1_555
Yb0_7 Yb3_2 3.395853 1_655
Yb0_7 Yb3_4 3.395853 1_555
Yb0_7 Yb4_1 3.421816 1_655
Yb0_7 Yb4_0 3.421816 1_655
Yb0_7 Yb2_5 3.462711 1_555
Yb0_7 Yb2_3 3.462711 1_655
Yb0_7 Yb1_3 3.520835 1_655
Yb0_7 Yb1_5 3.520835 1_555
Yb1_0 Yb2_2 3.411545 1_555
Yb1_0 Yb2_4 3.411545 1_455
Yb1_0 Yb3_0 3.458685 1_555
Yb1_0 Yb3_1 3.458685 1_554
Yb1_0 Yb1_6 3.515169 1_445
Yb1_0 Yb1_6 3.515169 1_555
Yb1_1 Yb2_3 3.411545 1_555
Yb1_1 Yb2_5 3.411545 1_455
Yb1_1 Yb3_1 3.458685 1_555
Yb1_1 Yb3_0 3.458685 1_555
Yb1_1 Yb1_7 3.515169 1_445
Yb1_1 Yb1_7 3.515169 1_555
Yb1_2 Yb2_0 3.411545 1_565
Yb1_2 Yb2_6 3.411545 1_455
Yb1_2 Yb3_2 3.458685 1_555
Yb1_2 Yb3_3 3.458685 1_554
Yb1_2 Yb1_4 3.515169 1_565
Yb1_2 Yb1_4 3.515169 1_455
Yb1_3 Yb2_1 3.411545 1_565
Yb1_3 Yb2_7 3.411545 1_455
Yb1_3 Yb3_3 3.458685 1_555
Yb1_3 Yb3_2 3.458685 1_555
Yb1_3 Yb1_5 3.515169 1_455
Yb1_3 Yb1_5 3.515169 1_565
Yb1_4 Yb2_6 3.411545 1_555
Yb1_4 Yb2_0 3.411545 1_555
Yb1_4 Yb3_4 3.458685 1_555
Yb1_4 Yb3_5 3.458685 1_554
Yb1_5 Yb2_7 3.411545 1_555
Yb1_5 Yb2_1 3.411545 1_555
Yb1_5 Yb3_5 3.458685 1_555
Yb1_5 Yb3_4 3.458685 1_555
Yb1_6 Yb2_2 3.411545 1_555
Yb1_6 Yb2_4 3.411545 1_565
Yb1_6 Yb3_6 3.458685 1_555
Yb1_6 Yb3_7 3.458685 1_554
Yb1_7 Yb2_3 3.411545 1_555
Yb1_7 Yb2_5 3.411545 1_565
Yb1_7 Yb3_7 3.458685 1_555
Yb1_7 Yb3_6 3.458685 1_555
Yb2_0 Yb4_2 3.394171 1_545
Yb2_0 Yb4_4 3.394171 1_555
Yb2_0 Yb4_3 3.394171 1_544
Yb2_0 Yb4_5 3.394171 1_554
Yb2_0 Yb2_6 3.515169 1_445
Yb2_0 Yb2_6 3.515169 1_555
Yb2_1 Yb4_3 3.394171 1_545
Yb2_1 Yb4_5 3.394171 1_555
Yb2_1 Yb4_2 3.394171 1_545
Yb2_1 Yb4_4 3.394171 1_555
Yb2_1 Yb2_7 3.515169 1_445
Yb2_1 Yb2_7 3.515169 1_555
Yb2_2 Yb4_0 3.394171 1_555
Yb2_2 Yb4_6 3.394171 1_555
Yb2_2 Yb4_1 3.394171 1_554
Yb2_2 Yb4_7 3.394171 1_554
Yb2_2 Yb2_4 3.515169 1_565
Yb2_2 Yb2_4 3.515169 1_455
Yb2_3 Yb4_1 3.394171 1_555
Yb2_3 Yb4_7 3.394171 1_555
Yb2_3 Yb4_0 3.394171 1_555
Yb2_3 Yb4_6 3.394171 1_555
Yb2_3 Yb2_5 3.515169 1_565
Yb2_3 Yb2_5 3.515169 1_455
Yb2_4 Yb4_6 3.394171 1_545
Yb2_4 Yb4_0 3.394171 1_655
Yb2_4 Yb4_7 3.394171 1_544
Yb2_4 Yb4_1 3.394171 1_654
Yb2_5 Yb4_7 3.394171 1_545
Yb2_5 Yb4_6 3.394171 1_545
Yb2_5 Yb4_1 3.394171 1_655
Yb2_5 Yb4_0 3.394171 1_655
Yb2_6 Yb4_2 3.394171 1_655
Yb2_6 Yb4_4 3.394171 1_555
Yb2_6 Yb4_3 3.394171 1_654
Yb2_6 Yb4_5 3.394171 1_554
Yb2_7 Yb4_3 3.394171 1_655
Yb2_7 Yb4_5 3.394171 1_555
Yb2_7 Yb4_2 3.394171 1_655
Yb2_7 Yb4_4 3.394171 1_555
Yb3_0 Yb4_4 3.467917 1_555
Yb3_0 Yb4_2 3.467917 1_545
Yb3_0 Yb3_6 3.515169 1_445
Yb3_0 Yb3_6 3.515169 1_555
Yb3_1 Yb4_5 3.467917 1_555
Yb3_1 Yb4_3 3.467917 1_545
Yb3_1 Yb3_7 3.515169 1_445
Yb3_1 Yb3_7 3.515169 1_555
Yb3_2 Yb4_0 3.467917 1_555
Yb3_2 Yb4_6 3.467917 1_555
Yb3_2 Yb3_4 3.515169 1_565
Yb3_2 Yb3_4 3.515169 1_455
Yb3_3 Yb4_1 3.467917 1_555
Yb3_3 Yb4_7 3.467917 1_555
Yb3_3 Yb3_5 3.515169 1_565
Yb3_3 Yb3_5 3.515169 1_455
Yb3_4 Yb4_0 3.467917 1_655
Yb3_4 Yb4_6 3.467917 1_545
Yb3_5 Yb4_1 3.467917 1_655
Yb3_5 Yb4_7 3.467917 1_545
Yb3_6 Yb4_2 3.467917 1_655
Yb3_6 Yb4_4 3.467917 1_555
Yb3_7 Yb4_3 3.467917 1_655
Yb3_7 Yb4_5 3.467917 1_555
Yb4_0 Yb4_6 3.515169 1_445
Yb4_0 Yb4_6 3.515169 1_555
Yb4_1 Yb4_7 3.515169 1_445
Yb4_1 Yb4_7 3.515169 1_555
Yb4_2 Yb4_4 3.515169 1_565
Yb4_2 Yb4_4 3.515169 1_455
Yb4_3 Yb4_5 3.515169 1_565
Yb4_3 Yb4_5 3.515169 1_455
Mg0_0 Yb2_0 3.387697 1_555
Mg0_0 Yb2_1 3.387697 1_555
Mg0_0 Yb1_5 3.393669 1_555
Mg0_0 Yb1_4 3.393669 1_555
Mg0_0 Yb1_2 3.393669 1_545
Mg0_0 Yb1_3 3.393669 1_545
Mg0_0 Yb4_2 3.413094 1_545
Mg0_0 Yb4_4 3.413094 1_555
Mg0_0 Yb3_4 3.514036 1_555
Mg0_0 Yb3_2 3.514036 1_545
Mg0_0 Mg0_6 3.515169 1_445
Mg0_0 Mg0_6 3.515169 1_555
Mg0_1 Yb2_1 3.387697 1_555
Mg0_1 Yb2_0 3.387697 1_556
Mg0_1 Yb1_5 3.393669 1_555
Mg0_1 Yb1_3 3.393669 1_545
Mg0_1 Yb1_4 3.393669 1_556
Mg0_1 Yb1_2 3.393669 1_546
Mg0_1 Yb4_3 3.413094 1_545
Mg0_1 Yb4_5 3.413094 1_555
Mg0_1 Yb3_5 3.514036 1_555
Mg0_1 Yb3_3 3.514036 1_545
Mg0_1 Mg0_7 3.515169 1_445
Mg0_1 Mg0_7 3.515169 1_555
Mg0_2 Yb2_2 3.387697 1_555
Mg0_2 Yb2_3 3.387697 1_555
Mg0_2 Yb1_0 3.393669 1_555
Mg0_2 Yb1_1 3.393669 1_555
Mg0_2 Yb1_6 3.393669 1_555
Mg0_2 Yb1_7 3.393669 1_555
Mg0_2 Yb4_0 3.413094 1_555
Mg0_2 Yb4_6 3.413094 1_555
Mg0_2 Yb3_0 3.514036 1_555
Mg0_2 Yb3_6 3.514036 1_555
Mg0_2 Mg0_4 3.515169 1_565
Mg0_2 Mg0_4 3.515169 1_455
Mg0_3 Yb2_3 3.387697 1_555
Mg0_3 Yb2_2 3.387697 1_556
Mg0_3 Yb1_1 3.393669 1_555
Mg0_3 Yb1_7 3.393669 1_555
Mg0_3 Yb1_0 3.393669 1_556
Mg0_3 Yb1_6 3.393669 1_556
Mg0_3 Yb4_1 3.413094 1_555
Mg0_3 Yb4_7 3.413094 1_555
Mg0_3 Yb3_1 3.514036 1_555
Mg0_3 Yb3_7 3.514036 1_555
Mg0_3 Mg0_5 3.515169 1_565
Mg0_3 Mg0_5 3.515169 1_455
Mg0_4 Yb2_5 3.387697 1_555
Mg0_4 Yb2_4 3.387697 1_555
Mg0_4 Yb1_6 3.393669 1_545
Mg0_4 Yb1_7 3.393669 1_545
Mg0_4 Yb1_0 3.393669 1_655
Mg0_4 Yb1_1 3.393669 1_655
Mg0_4 Yb4_6 3.413094 1_545
Mg0_4 Yb4_0 3.413094 1_655
Mg0_4 Yb3_0 3.514036 1_655
Mg0_4 Yb3_6 3.514036 1_545
Mg0_5 Yb2_5 3.387697 1_555
Mg0_5 Yb2_4 3.387697 1_556
Mg0_5 Yb1_7 3.393669 1_545
Mg0_5 Yb1_1 3.393669 1_655
Mg0_5 Yb1_0 3.393669 1_656
Mg0_5 Yb1_6 3.393669 1_546
Mg0_5 Yb4_7 3.413094 1_545
Mg0_5 Yb4_1 3.413094 1_655
Mg0_5 Yb3_1 3.514036 1_655
Mg0_5 Yb3_7 3.514036 1_545
Mg0_6 Yb2_6 3.387697 1_555
Mg0_6 Yb2_7 3.387697 1_555
Mg0_6 Yb1_2 3.393669 1_655
Mg0_6 Yb1_3 3.393669 1_655
Mg0_6 Yb1_4 3.393669 1_555
Mg0_6 Yb1_5 3.393669 1_555
Mg0_6 Yb4_4 3.413094 1_555
Mg0_6 Yb4_2 3.413094 1_655
Mg0_6 Yb3_4 3.514036 1_555
Mg0_6 Yb3_2 3.514036 1_655
Mg0_7 Yb2_7 3.387697 1_555
Mg0_7 Yb2_6 3.387697 1_556
Mg0_7 Yb1_3 3.393669 1_655
Mg0_7 Yb1_5 3.393669 1_555
Mg0_7 Yb1_2 3.393669 1_656
Mg0_7 Yb1_4 3.393669 1_556
Mg0_7 Yb4_5 3.413094 1_555
Mg0_7 Yb4_3 3.413094 1_655
Mg0_7 Yb3_5 3.514036 1_555
Mg0_7 Yb3_3 3.514036 1_655
