# generated using pymatgen
data_Gd2Te3
_symmetry_space_group_name_H-M   'P 1'
_cell_length_a   4.34185113
_cell_length_b   11.94596689
_cell_length_c   12.07197169
_cell_angle_alpha   90.00000000
_cell_angle_beta   90.00000000
_cell_angle_gamma   90.00000000
_symmetry_Int_Tables_number   1
_chemical_formula_structural   Gd2Te3
_chemical_formula_sum   'Gd8 Te12'
_cell_volume   626.14431762
_cell_formula_units_Z   4
loop_
 _symmetry_equiv_pos_site_id
 _symmetry_equiv_pos_as_xyz
  1  'x, y, z'
loop_
 _atom_site_type_symbol
 _atom_site_label
 _atom_site_symmetry_multiplicity
 _atom_site_fract_x
 _atom_site_fract_y
 _atom_site_fract_z
 _atom_site_occupancy
  Gd  Gd0  1  0.25000000  0.18790348  0.48415664  1
  Gd  Gd1  1  0.25000000  0.31209652  0.98415664  1
  Gd  Gd2  1  0.75000000  0.81209652  0.51584336  1
  Gd  Gd3  1  0.75000000  0.68790348  0.01584336  1
  Gd  Gd4  1  0.25000000  0.00089170  0.80511438  1
  Gd  Gd5  1  0.25000000  0.49910830  0.30511438  1
  Gd  Gd6  1  0.75000000  0.99910830  0.19488562  1
  Gd  Gd7  1  0.75000000  0.50089170  0.69488562  1
  Te  Te0  1  0.25000000  0.62454973  0.54377438  1
  Te  Te1  1  0.25000000  0.87545027  0.04377438  1
  Te  Te2  1  0.75000000  0.37545027  0.45622562  1
  Te  Te3  1  0.75000000  0.12454973  0.95622562  1
  Te  Te4  1  0.25000000  0.94352344  0.38170985  1
  Te  Te5  1  0.25000000  0.55647656  0.88170985  1
  Te  Te6  1  0.75000000  0.05647656  0.61829015  1
  Te  Te7  1  0.75000000  0.44352344  0.11829015  1
  Te  Te8  1  0.25000000  0.30533464  0.72397952  1
  Te  Te9  1  0.25000000  0.19466536  0.22397952  1
  Te  Te10  1  0.75000000  0.69466536  0.27602048  1
  Te  Te11  1  0.75000000  0.80533464  0.77602048  1
loop_
_geom_bond_atom_site_label_1
_geom_bond_atom_site_label_2
_geom_bond_distance
_geom_bond_site_symmetry_2
Gd0 Te6 3.130475 1_555
Gd0 Te6 3.130475 1_455
Gd0 Te2 3.137854 1_555
Gd0 Te2 3.137854 1_455
Gd0 Te9 3.141889 1_555
Gd0 Te4 3.170513 1_545
Gd0 Te8 3.217100 1_555
Gd1 Te7 3.130475 1_456
Gd1 Te7 3.130475 1_556
Gd1 Te3 3.137854 1_555
Gd1 Te3 3.137854 1_455
Gd1 Te8 3.141889 1_555
Gd1 Te5 3.170513 1_555
Gd1 Te9 3.217100 1_556
Gd2 Te4 3.130475 1_655
Gd2 Te4 3.130475 1_555
Gd2 Te0 3.137854 1_655
Gd2 Te0 3.137854 1_555
Gd2 Te11 3.141889 1_555
Gd2 Te6 3.170513 1_565
Gd2 Te10 3.217100 1_555
Gd3 Te5 3.130475 1_554
Gd3 Te5 3.130475 1_654
Gd3 Te1 3.137854 1_555
Gd3 Te1 3.137854 1_655
Gd3 Te10 3.141889 1_555
Gd3 Te7 3.170513 1_555
Gd3 Te11 3.217100 1_554
Gd4 Te3 3.197315 1_455
Gd4 Te3 3.197315 1_555
Gd4 Te6 3.200059 1_555
Gd4 Te6 3.200059 1_455
Gd4 Te11 3.208383 1_445
Gd4 Te11 3.208383 1_545
Gd4 Te1 3.247503 1_546
Gd4 Te8 3.766447 1_555
Gd5 Te2 3.197315 1_455
Gd5 Te2 3.197315 1_555
Gd5 Te7 3.200059 1_455
Gd5 Te7 3.200059 1_555
Gd5 Te10 3.208383 1_455
Gd5 Te10 3.208383 1_555
Gd5 Te0 3.247503 1_555
Gd5 Te9 3.766447 1_555
Gd6 Te1 3.197315 1_655
Gd6 Te1 3.197315 1_555
Gd6 Te4 3.200059 1_555
Gd6 Te4 3.200059 1_655
Gd6 Te9 3.208383 1_665
Gd6 Te9 3.208383 1_565
Gd6 Te3 3.247503 1_564
Gd6 Te10 3.766447 1_555
Gd7 Te0 3.197315 1_655
Gd7 Te0 3.197315 1_555
Gd7 Te5 3.200059 1_655
Gd7 Te5 3.200059 1_555
Gd7 Te8 3.208383 1_555
Gd7 Te8 3.208383 1_655
Gd7 Te2 3.247503 1_555
Gd7 Te11 3.766447 1_555
