# generated using pymatgen
data_NaCe3GeS7
_symmetry_space_group_name_H-M   'P 1'
_cell_length_a   10.28496974
_cell_length_b   10.28496974
_cell_length_c   5.86410000
_cell_angle_alpha   90.00000000
_cell_angle_beta   90.00000000
_cell_angle_gamma   119.99999834
_symmetry_Int_Tables_number   1
_chemical_formula_structural   NaCe3GeS7
_chemical_formula_sum   'Na2 Ce6 Ge2 S14'
_cell_volume   537.20252263
_cell_formula_units_Z   2
loop_
 _symmetry_equiv_pos_site_id
 _symmetry_equiv_pos_as_xyz
  1  'x, y, z'
loop_
 _atom_site_type_symbol
 _atom_site_label
 _atom_site_symmetry_multiplicity
 _atom_site_fract_x
 _atom_site_fract_y
 _atom_site_fract_z
 _atom_site_occupancy
  Na  Na0  1  0.00000000  0.00000000  0.01902400  1
  Na  Na1  1  0.00000000  0.00000000  0.51902400  1
  Ce  Ce0  1  0.63961400  0.87249000  0.74869000  1
  Ce  Ce1  1  0.12751000  0.76712400  0.74869000  1
  Ce  Ce2  1  0.23287600  0.36038600  0.74869000  1
  Ce  Ce3  1  0.36038600  0.12751000  0.24869000  1
  Ce  Ce4  1  0.87249000  0.23287600  0.24869000  1
  Ce  Ce5  1  0.76712400  0.63961400  0.24869000  1
  Ge  Ge0  1  0.33333300  0.66666700  0.16567700  1
  Ge  Ge1  1  0.66666700  0.33333300  0.66567700  1
  S  S0  1  0.33333300  0.66666700  0.54366900  1
  S  S1  1  0.66666700  0.33333300  0.04366900  1
  S  S2  1  0.90838700  0.16669900  0.77158200  1
  S  S3  1  0.83330100  0.74168800  0.77158200  1
  S  S4  1  0.25831200  0.09161300  0.77158200  1
  S  S5  1  0.09161300  0.83330100  0.27158200  1
  S  S6  1  0.16669900  0.25831200  0.27158200  1
  S  S7  1  0.74168800  0.90838700  0.27158200  1
  S  S8  1  0.10554400  0.51953700  0.00963000  1
  S  S9  1  0.48046300  0.58600700  0.00963000  1
  S  S10  1  0.41399300  0.89445600  0.00963000  1
  S  S11  1  0.89445600  0.48046300  0.50963000  1
  S  S12  1  0.51953700  0.41399300  0.50963000  1
  S  S13  1  0.58600700  0.10554400  0.50963000  1
loop_
_geom_bond_atom_site_label_1
_geom_bond_atom_site_label_2
_geom_bond_distance
_geom_bond_site_symmetry_2
Na0 S2 2.747405 1_454
Na0 S4 2.747405 1_554
Na0 S3 2.747405 1_444
Na0 S5 2.763367 1_545
Na0 S7 2.763367 1_445
Na0 S6 2.763367 1_555
Na1 S5 2.747405 1_545
Na1 S7 2.747405 1_445
Na1 S6 2.747405 1_555
Na1 S2 2.763367 1_455
Na1 S4 2.763367 1_555
Na1 S3 2.763367 1_445
Ce0 S10 2.881228 1_556
Ce0 S2 2.907079 1_565
Ce0 S3 2.911370 1_555
Ce0 S7 2.945944 1_555
Ce0 S9 2.979846 1_556
Ce0 S0 3.030071 1_555
Ce0 S13 3.055514 1_565
Ce0 S7 3.202029 1_556
Ce1 S8 2.881228 1_556
Ce1 S3 2.907079 1_455
Ce1 S4 2.911370 1_565
Ce1 S5 2.945944 1_555
Ce1 S10 2.979846 1_556
Ce1 S0 3.030064 1_555
Ce1 S11 3.055514 1_455
Ce1 S5 3.202029 1_556
Ce2 S9 2.881228 1_556
Ce2 S4 2.907079 1_555
Ce2 S2 2.911370 1_455
Ce2 S6 2.945944 1_555
Ce2 S8 2.979846 1_556
Ce2 S0 3.030073 1_555
Ce2 S12 3.055514 1_555
Ce2 S6 3.202029 1_556
Ce3 S13 2.881228 1_555
Ce3 S5 2.907079 1_545
Ce3 S6 2.911370 1_555
Ce3 S4 2.945944 1_554
Ce3 S12 2.979846 1_555
Ce3 S1 3.030071 1_555
Ce3 S10 3.055514 1_545
Ce3 S4 3.202029 1_555
Ce4 S11 2.881228 1_555
Ce4 S6 2.907079 1_655
Ce4 S7 2.911370 1_545
Ce4 S2 2.945944 1_554
Ce4 S13 2.979846 1_555
Ce4 S1 3.030064 1_555
Ce4 S8 3.055514 1_655
Ce4 S2 3.202029 1_555
Ce5 S12 2.881228 1_555
Ce5 S7 2.907079 1_555
Ce5 S5 2.911370 1_655
Ce5 S3 2.945944 1_554
Ce5 S11 2.979846 1_555
Ce5 S1 3.030073 1_555
Ce5 S9 3.055514 1_555
Ce5 S3 3.202029 1_555
Ge0 S0 2.216583 1_555
Ge0 S10 2.251832 1_555
Ge0 S8 2.251833 1_555
Ge0 S9 2.251840 1_555
Ge1 S1 2.216583 1_556
Ge1 S13 2.251832 1_555
Ge1 S11 2.251833 1_555
Ge1 S12 2.251840 1_555
