# generated using pymatgen
data_TiCu2
_symmetry_space_group_name_H-M   'P 1'
_cell_length_a   4.57073479
_cell_length_b   4.57073479
_cell_length_c   4.37469951
_cell_angle_alpha   90.00000000
_cell_angle_beta   90.00000000
_cell_angle_gamma   120.67477476
_symmetry_Int_Tables_number   1
_chemical_formula_structural   TiCu2
_chemical_formula_sum   'Ti2 Cu4'
_cell_volume   78.60634220
_cell_formula_units_Z   2
loop_
 _symmetry_equiv_pos_site_id
 _symmetry_equiv_pos_as_xyz
  1  'x, y, z'
loop_
 _atom_site_type_symbol
 _atom_site_label
 _atom_site_symmetry_multiplicity
 _atom_site_fract_x
 _atom_site_fract_y
 _atom_site_fract_z
 _atom_site_occupancy
  Ti  Ti0  1  0.79354019  0.79354019  0.25000000  1
  Ti  Ti1  1  0.20645981  0.20645981  0.75000000  1
  Cu  Cu0  1  0.13858601  0.48478035  0.25000000  1
  Cu  Cu1  1  0.51521965  0.86141399  0.75000000  1
  Cu  Cu2  1  0.86141399  0.51521965  0.75000000  1
  Cu  Cu3  1  0.48478035  0.13858601  0.25000000  1
loop_
_geom_bond_atom_site_label_1
_geom_bond_atom_site_label_2
_geom_bond_distance
_geom_bond_site_symmetry_2
Ti0 Ti1 2.876484 1_664
Ti0 Ti1 2.876484 1_665
Cu0 Cu2 2.566843 1_455
Cu0 Cu2 2.566843 1_454
Cu0 Cu3 2.570880 1_455
Cu0 Cu3 2.570880 1_565
Cu0 Ti0 2.577356 1_555
Cu0 Ti0 2.598057 1_455
Cu0 Ti1 2.627116 1_555
Cu0 Ti1 2.627116 1_554
Cu0 Ti0 2.717614 1_445
Cu0 Cu3 2.750002 1_555
Cu0 Cu1 2.772687 1_555
Cu0 Cu1 2.772687 1_554
Cu1 Cu3 2.566843 1_566
Cu1 Cu3 2.566843 1_565
Cu1 Cu2 2.570880 1_455
Cu1 Cu2 2.570880 1_565
Cu1 Ti1 2.577356 1_555
Cu1 Ti1 2.598057 1_565
Cu1 Ti0 2.627116 1_556
Cu1 Ti0 2.627116 1_555
Cu1 Ti1 2.717614 1_665
Cu1 Cu2 2.750002 1_555
Cu2 Ti1 2.577356 1_555
Cu2 Ti1 2.598057 1_655
Cu2 Ti0 2.627116 1_556
Cu2 Ti0 2.627116 1_555
Cu2 Ti1 2.717614 1_665
Cu2 Cu3 2.772687 1_556
Cu2 Cu3 2.772687 1_555
Cu3 Ti0 2.577356 1_555
Cu3 Ti0 2.598057 1_545
Cu3 Ti1 2.627116 1_555
Cu3 Ti1 2.627116 1_554
Cu3 Ti0 2.717614 1_445
