# generated using pymatgen
data_La3MnO7
_symmetry_space_group_name_H-M   'P 1'
_cell_length_a   5.29513100
_cell_length_b   5.55155700
_cell_length_c   10.60430347
_cell_angle_alpha   74.87234056
_cell_angle_beta   90.00000000
_cell_angle_gamma   90.00000000
_symmetry_Int_Tables_number   1
_chemical_formula_structural   La3MnO7
_chemical_formula_sum   'La6 Mn2 O14'
_cell_volume   300.92412284
_cell_formula_units_Z   2
loop_
 _symmetry_equiv_pos_site_id
 _symmetry_equiv_pos_as_xyz
  1  'x, y, z'
loop_
 _atom_site_type_symbol
 _atom_site_label
 _atom_site_symmetry_multiplicity
 _atom_site_fract_x
 _atom_site_fract_y
 _atom_site_fract_z
 _atom_site_occupancy
  La  La0  1  0.23793500  0.40307100  0.14325500  1
  La  La1  1  0.24387000  0.07107200  0.85282500  1
  La  La2  1  0.23342000  0.25312300  0.50126300  1
  La  La3  1  0.73793500  0.59692900  0.85674500  1
  La  La4  1  0.74387000  0.92892800  0.14717500  1
  La  La5  1  0.73342000  0.74687700  0.49873700  1
  Mn  Mn0  1  0.23850400  0.64885200  0.68981300  1
  Mn  Mn1  1  0.73850400  0.35114800  0.31018700  1
  O  O0  1  0.98877300  0.59119400  0.29257300  1
  O  O1  1  0.99210800  0.40498500  0.70537200  1
  O  O2  1  0.99428800  0.90182800  0.68110500  1
  O  O3  1  0.98436500  0.09751300  0.32366600  1
  O  O4  1  0.23832200  0.69804700  0.51208600  1
  O  O5  1  0.23777100  0.58451900  0.89646200  1
  O  O6  1  0.22061200  0.01938200  0.07334100  1
  O  O7  1  0.49210800  0.59501500  0.29462800  1
  O  O8  1  0.48436500  0.90248700  0.67633400  1
  O  O9  1  0.49428800  0.09817200  0.31889500  1
  O  O10  1  0.48877300  0.40880600  0.70742700  1
  O  O11  1  0.73832200  0.30195300  0.48791400  1
  O  O12  1  0.73777100  0.41548100  0.10353800  1
  O  O13  1  0.72061200  0.98061800  0.92665900  1
loop_
_geom_bond_atom_site_label_1
_geom_bond_atom_site_label_2
_geom_bond_distance
_geom_bond_site_symmetry_2
La0 O6 2.433009 1_555
La0 O0 2.490324 1_455
La0 O7 2.533047 1_555
La0 O5 2.547113 1_554
La0 O9 2.555634 1_555
La0 O3 2.578089 1_455
La0 O12 2.678058 1_555
La0 O12 2.679774 1_455
La0 O6 3.307666 1_565
La1 O6 2.283741 1_556
La1 O10 2.462828 1_555
La1 O1 2.479033 1_455
La1 O2 2.615009 1_445
La1 O5 2.618945 1_545
La1 O8 2.629563 1_545
La1 O13 2.651911 1_545
La1 O13 2.887363 1_445
La1 O5 3.004758 1_555
La2 O4 2.502561 1_555
La2 O3 2.623246 1_455
La2 O11 2.635589 1_455
La2 O2 2.665059 1_445
La2 O8 2.667441 1_545
La2 O11 2.687232 1_555
La2 O9 2.693742 1_555
La2 O0 2.816060 1_455
La2 O1 2.825010 1_455
La2 O7 2.847724 1_555
La2 O10 2.888085 1_555
La2 O4 3.053705 1_545
La3 O13 2.433009 1_555
La3 O10 2.490324 1_555
La3 O1 2.533047 1_555
La3 O12 2.547113 1_556
La3 O2 2.555634 1_555
La3 O8 2.578089 1_555
La3 O5 2.678058 1_655
La3 O5 2.679774 1_555
La3 O13 3.307666 1_545
La4 O13 2.283741 1_554
La4 O0 2.462828 1_555
La4 O7 2.479033 1_555
La4 O9 2.615009 1_565
La4 O12 2.618945 1_565
La4 O3 2.629563 1_565
La4 O6 2.651911 1_665
La4 O6 2.887363 1_565
La4 O12 3.004758 1_555
La5 O11 2.502561 1_555
La5 O8 2.623246 1_555
La5 O4 2.635589 1_555
La5 O9 2.665059 1_565
La5 O3 2.667441 1_565
La5 O4 2.687232 1_655
La5 O2 2.693742 1_555
La5 O10 2.816060 1_555
La5 O7 2.825010 1_555
La5 O1 2.847724 1_555
La5 O0 2.888085 1_555
La5 O11 3.053705 1_565
Mn0 O4 1.832463 1_555
Mn0 O10 1.853927 1_555
Mn0 O1 1.856276 1_455
Mn0 O2 1.893531 1_455
Mn0 O8 1.895494 1_555
Mn0 O5 2.126305 1_555
Mn1 O11 1.832463 1_555
Mn1 O0 1.853927 1_555
Mn1 O7 1.856276 1_555
Mn1 O9 1.893531 1_555
Mn1 O3 1.895494 1_555
Mn1 O12 2.126305 1_555
