# generated using pymatgen
data_LuCrB4
_symmetry_space_group_name_H-M   'P 1'
_cell_length_a   3.39353300
_cell_length_b   5.87042500
_cell_length_c   11.34506200
_cell_angle_alpha   90.00000000
_cell_angle_beta   90.00000000
_cell_angle_gamma   90.00000000
_symmetry_Int_Tables_number   1
_chemical_formula_structural   LuCrB4
_chemical_formula_sum   'Lu4 Cr4 B16'
_cell_volume   226.01043664
_cell_formula_units_Z   4
loop_
 _symmetry_equiv_pos_site_id
 _symmetry_equiv_pos_as_xyz
  1  'x, y, z'
loop_
 _atom_site_type_symbol
 _atom_site_label
 _atom_site_symmetry_multiplicity
 _atom_site_fract_x
 _atom_site_fract_y
 _atom_site_fract_z
 _atom_site_occupancy
  Lu  Lu0  1  0.00000000  0.62583200  0.34924600  1
  Lu  Lu1  1  0.00000000  0.37416800  0.65075400  1
  Lu  Lu2  1  0.00000000  0.12583200  0.15075400  1
  Lu  Lu3  1  0.00000000  0.87416800  0.84924600  1
  Cr  Cr0  1  0.00000000  0.62357600  0.07987700  1
  Cr  Cr1  1  0.00000000  0.37642400  0.92012300  1
  Cr  Cr2  1  0.00000000  0.12357600  0.42012300  1
  Cr  Cr3  1  0.00000000  0.87642400  0.57987700  1
  B  B0  1  0.50000000  0.78357800  0.18481500  1
  B  B1  1  0.50000000  0.21642200  0.81518500  1
  B  B2  1  0.50000000  0.28357800  0.31518500  1
  B  B3  1  0.50000000  0.71642200  0.68481500  1
  B  B4  1  0.50000000  0.86495700  0.03263900  1
  B  B5  1  0.50000000  0.13504300  0.96736100  1
  B  B6  1  0.50000000  0.36495700  0.46736100  1
  B  B7  1  0.50000000  0.63504300  0.53263900  1
  B  B8  1  0.50000000  0.88574500  0.45279100  1
  B  B9  1  0.50000000  0.11425500  0.54720900  1
  B  B10  1  0.50000000  0.38574500  0.04720900  1
  B  B11  1  0.50000000  0.61425500  0.95279100  1
  B  B12  1  0.50000000  0.97606100  0.30741200  1
  B  B13  1  0.50000000  0.02393900  0.69258800  1
  B  B14  1  0.50000000  0.47606100  0.19258800  1
  B  B15  1  0.50000000  0.52393900  0.80741200  1
loop_
_geom_bond_atom_site_label_1
_geom_bond_atom_site_label_2
_geom_bond_distance
_geom_bond_site_symmetry_2
B0 B4 1.791324 1_555
B0 B12 1.792017 1_555
B0 B14 1.807408 1_555
B0 Cr0 2.275658 1_655
B0 Cr0 2.275658 1_555
B0 Lu2 2.658031 1_565
B0 Lu2 2.658031 1_665
B0 Lu0 2.686368 1_555
B0 Lu0 2.686368 1_655
B1 B5 1.791324 1_555
B1 B13 1.792017 1_555
B1 B15 1.807408 1_555
B1 Cr1 2.275658 1_655
B1 Cr1 2.275658 1_555
B1 Lu3 2.658031 1_645
B1 Lu3 2.658031 1_545
B1 Lu1 2.686368 1_655
B1 Lu1 2.686368 1_555
B2 B6 1.791324 1_555
B2 Cr2 2.275658 1_655
B2 Cr2 2.275658 1_555
B2 Lu0 2.658031 1_655
B2 Lu0 2.658031 1_555
B2 Lu2 2.686368 1_555
B2 Lu2 2.686368 1_655
B3 B7 1.791324 1_555
B3 Cr3 2.275658 1_555
B3 Cr3 2.275658 1_655
B3 Lu1 2.658031 1_555
B3 Lu1 2.658031 1_655
B3 Lu3 2.686368 1_555
B3 Lu3 2.686368 1_655
B4 B5 1.749953 1_564
B4 Cr0 2.274673 1_555
B4 Cr0 2.274673 1_655
B4 Lu2 2.649529 1_565
B4 Lu2 2.649529 1_665
B4 Lu3 2.685304 1_654
B4 Lu3 2.685304 1_554
B5 Cr1 2.274673 1_655
B5 Cr1 2.274673 1_555
B5 Lu3 2.649529 1_645
B5 Lu3 2.649529 1_545
B5 Lu2 2.685304 1_656
B5 Lu2 2.685304 1_556
B6 B9 1.728178 1_555
B6 B7 1.749953 1_555
B6 Cr2 2.274673 1_555
B6 Cr2 2.274673 1_655
B6 Lu0 2.649529 1_555
B6 Lu0 2.649529 1_655
B6 Lu1 2.685304 1_655
B6 Lu1 2.685304 1_555
B7 B8 1.728178 1_555
B7 Cr3 2.274673 1_555
B7 Cr3 2.274673 1_655
B7 Lu1 2.649529 1_655
B7 Lu1 2.649529 1_555
B7 Lu0 2.685304 1_555
B7 Lu0 2.685304 1_655
B8 B9 1.716657 1_565
B8 Cr3 2.227284 1_655
B8 Cr3 2.227284 1_555
B8 Cr2 2.228377 1_665
B8 Cr2 2.228377 1_565
B8 Lu0 2.566527 1_655
B8 Lu0 2.566527 1_555
B9 Cr2 2.227284 1_655
B9 Cr2 2.227284 1_555
B9 Cr3 2.228377 1_545
B9 Cr3 2.228377 1_645
B9 Lu1 2.566527 1_655
B9 Lu1 2.566527 1_555
B10 B11 1.716657 1_554
B10 B5 1.728178 1_554
B10 B14 1.732457 1_555
B10 Cr1 2.227284 1_554
B10 Cr1 2.227284 1_654
B10 Cr0 2.228377 1_655
B10 Cr0 2.228377 1_555
B10 Lu2 2.566527 1_655
B10 Lu2 2.566527 1_555
B11 B4 1.728178 1_556
B11 B15 1.732457 1_555
B11 Cr0 2.227284 1_556
B11 Cr0 2.227284 1_656
B11 Cr1 2.228377 1_655
B11 Cr1 2.228377 1_555
B11 Lu3 2.566527 1_555
B11 Lu3 2.566527 1_655
B12 B8 1.732457 1_555
B12 B2 1.807408 1_565
B12 Cr2 2.294349 1_665
B12 Cr2 2.294349 1_565
B12 Lu2 2.609755 1_665
B12 Lu2 2.609755 1_565
B12 Lu0 2.707652 1_555
B12 Lu0 2.707652 1_655
B13 B9 1.732457 1_555
B13 B3 1.807408 1_545
B13 Cr3 2.294349 1_545
B13 Cr3 2.294349 1_645
B13 Lu3 2.609755 1_645
B13 Lu3 2.609755 1_545
B13 Lu1 2.707652 1_655
B13 Lu1 2.707652 1_555
B14 B2 1.792017 1_555
B14 Cr0 2.294349 1_655
B14 Cr0 2.294349 1_555
B14 Lu0 2.609755 1_655
B14 Lu0 2.609755 1_555
B14 Lu2 2.707652 1_555
B14 Lu2 2.707652 1_655
B15 B3 1.792017 1_555
B15 Cr1 2.294349 1_655
B15 Cr1 2.294349 1_555
B15 Lu1 2.609755 1_655
B15 Lu1 2.609755 1_555
B15 Lu3 2.707652 1_555
B15 Lu3 2.707652 1_655
