# generated using pymatgen
data_Mn5(AsO6)2
_symmetry_space_group_name_H-M   'P 1'
_cell_length_a   5.65146100
_cell_length_b   9.06500100
_cell_length_c   17.95441400
_cell_angle_alpha   90.00000000
_cell_angle_beta   90.00000000
_cell_angle_gamma   90.00000000
_symmetry_Int_Tables_number   1
_chemical_formula_structural   Mn5(AsO6)2
_chemical_formula_sum   'Mn20 As8 O48'
_cell_volume   919.81359954
_cell_formula_units_Z   4
loop_
 _symmetry_equiv_pos_site_id
 _symmetry_equiv_pos_as_xyz
  1  'x, y, z'
loop_
 _atom_site_type_symbol
 _atom_site_label
 _atom_site_symmetry_multiplicity
 _atom_site_fract_x
 _atom_site_fract_y
 _atom_site_fract_z
 _atom_site_occupancy
  Mn  Mn0  1  0.78050900  0.77892900  0.56603500  1
  Mn  Mn1  1  0.21949100  0.27892900  0.93396500  1
  Mn  Mn2  1  0.71949100  0.22107100  0.06603500  1
  Mn  Mn3  1  0.28050900  0.72107100  0.43396500  1
  Mn  Mn4  1  0.55406200  0.62680300  0.97279900  1
  Mn  Mn5  1  0.44593800  0.12680300  0.52720100  1
  Mn  Mn6  1  0.94593800  0.37319700  0.47279900  1
  Mn  Mn7  1  0.05406200  0.87319700  0.02720100  1
  Mn  Mn8  1  0.56047200  0.64761000  0.78609600  1
  Mn  Mn9  1  0.43952800  0.14761000  0.71390400  1
  Mn  Mn10  1  0.93952800  0.35239000  0.28609600  1
  Mn  Mn11  1  0.06047200  0.85239000  0.21390400  1
  Mn  Mn12  1  0.05771100  0.62727800  0.87744000  1
  Mn  Mn13  1  0.94228900  0.12727800  0.62256000  1
  Mn  Mn14  1  0.44228900  0.37272200  0.37744000  1
  Mn  Mn15  1  0.55771100  0.87272200  0.12256000  1
  Mn  Mn16  1  0.09727800  0.45932000  0.70314000  1
  Mn  Mn17  1  0.90272200  0.95932000  0.79686000  1
  Mn  Mn18  1  0.40272200  0.54068000  0.20314000  1
  Mn  Mn19  1  0.59727800  0.04068000  0.29686000  1
  As  As0  1  0.60437600  0.45018100  0.62628000  1
  As  As1  1  0.39562400  0.95018100  0.87372000  1
  As  As2  1  0.89562400  0.54981900  0.12628000  1
  As  As3  1  0.10437600  0.04981900  0.37372000  1
  As  As4  1  0.68602200  0.31608500  0.87439900  1
  As  As5  1  0.31397800  0.81608500  0.62560100  1
  As  As6  1  0.81397800  0.68391500  0.37439900  1
  As  As7  1  0.18602200  0.18391500  0.12560100  1
  O  O0  1  0.24726000  0.49600500  0.94013500  1
  O  O1  1  0.75274000  0.99600500  0.55986500  1
  O  O2  1  0.25274000  0.50399500  0.44013500  1
  O  O3  1  0.74726000  0.00399500  0.05986500  1
  O  O4  1  0.86433800  0.74774800  0.80771300  1
  O  O5  1  0.13566200  0.24774800  0.69228700  1
  O  O6  1  0.63566200  0.25225200  0.30771300  1
  O  O7  1  0.36433800  0.75225200  0.19228700  1
  O  O8  1  0.89482900  0.72245400  0.96434100  1
  O  O9  1  0.10517100  0.22245400  0.53565900  1
  O  O10  1  0.60517100  0.27754600  0.46434100  1
  O  O11  1  0.39482900  0.77754600  0.03565900  1
  O  O12  1  0.24130200  0.56415300  0.78496400  1
  O  O13  1  0.75869800  0.06415300  0.71503600  1
  O  O14  1  0.25869800  0.43584700  0.28496400  1
  O  O15  1  0.74130200  0.93584700  0.21503600  1
  O  O16  1  0.96490500  0.25623700  0.85772300  1
  O  O17  1  0.03509500  0.75623700  0.64227700  1
  O  O18  1  0.53509500  0.74376300  0.35772300  1
  O  O19  1  0.46490500  0.24376300  0.14227700  1
  O  O20  1  0.70919200  0.50972000  0.87827000  1
  O  O21  1  0.29080800  0.00972000  0.62173000  1
  O  O22  1  0.79080800  0.49028000  0.37827000  1
  O  O23  1  0.20919200  0.99028000  0.12173000  1
  O  O24  1  0.46266500  0.26615700  0.81587800  1
  O  O25  1  0.53733500  0.76615700  0.68412200  1
  O  O26  1  0.03733500  0.73384300  0.31587800  1
  O  O27  1  0.96266500  0.23384300  0.18412200  1
  O  O28  1  0.56986400  0.26714800  0.96098700  1
  O  O29  1  0.43013600  0.76714800  0.53901300  1
  O  O30  1  0.93013600  0.73285200  0.46098700  1
  O  O31  1  0.06986400  0.23285200  0.03901300  1
  O  O32  1  0.60581100  0.25816400  0.62175700  1
  O  O33  1  0.39418900  0.75816400  0.87824300  1
  O  O34  1  0.89418900  0.74183600  0.12175700  1
  O  O35  1  0.10581100  0.24183600  0.37824300  1
  O  O36  1  0.73229000  0.48285200  0.71387600  1
  O  O37  1  0.26771000  0.98285200  0.78612400  1
  O  O38  1  0.76771000  0.51714800  0.21387600  1
  O  O39  1  0.23229000  0.01714800  0.28612400  1
  O  O40  1  0.79009900  0.52852500  0.56223200  1
  O  O41  1  0.20990100  0.02852500  0.93776800  1
  O  O42  1  0.70990100  0.47147500  0.06223200  1
  O  O43  1  0.29009900  0.97147500  0.43776800  1
  O  O44  1  0.31924400  0.50821000  0.62111800  1
  O  O45  1  0.68075600  0.00821000  0.87888200  1
  O  O46  1  0.18075600  0.49179000  0.12111800  1
  O  O47  1  0.81924400  0.99179000  0.37888200  1
loop_
_geom_bond_atom_site_label_1
_geom_bond_atom_site_label_2
_geom_bond_distance
_geom_bond_site_symmetry_2
Mn0 O1 1.977148 1_555
Mn0 O17 1.996558 1_655
Mn0 O29 2.041485 1_555
Mn0 O30 2.108744 1_555
Mn0 O40 2.271586 1_555
Mn0 O25 2.529278 1_555
Mn1 O0 1.977148 1_555
Mn1 O16 1.996558 1_455
Mn1 O28 2.041485 1_555
Mn1 O31 2.108744 1_556
Mn1 O41 2.271586 1_555
Mn1 O24 2.529278 1_555
Mn2 O3 1.977148 1_555
Mn2 O19 1.996558 1_555
Mn2 O31 2.041485 1_655
Mn2 O28 2.108744 1_554
Mn2 O42 2.271586 1_555
Mn2 O27 2.529278 1_555
Mn3 O2 1.977148 1_555
Mn3 O18 1.996558 1_555
Mn3 O30 2.041485 1_455
Mn3 O29 2.108744 1_555
Mn3 O43 2.271586 1_555
Mn3 O26 2.529278 1_555
Mn4 O11 1.987680 1_556
Mn4 O8 2.117477 1_555
Mn4 O0 2.180854 1_555
Mn4 O20 2.185322 1_555
Mn4 O33 2.261967 1_555
Mn4 O42 2.310107 1_556
Mn5 O10 1.987680 1_555
Mn5 O9 2.117477 1_555
Mn5 O1 2.180854 1_545
Mn5 O21 2.185322 1_555
Mn5 O32 2.261967 1_555
Mn5 O43 2.310107 1_545
Mn6 O9 1.987680 1_655
Mn6 O10 2.117477 1_555
Mn6 O2 2.180854 1_655
Mn6 O22 2.185322 1_555
Mn6 O35 2.261967 1_655
Mn6 O40 2.310107 1_555
Mn7 O8 1.987680 1_454
Mn7 O11 2.117477 1_555
Mn7 O3 2.180854 1_465
Mn7 O23 2.185322 1_555
Mn7 O34 2.261967 1_455
Mn7 O41 2.310107 1_564
Mn8 O12 1.956112 1_555
Mn8 O4 1.980839 1_555
Mn8 O25 2.126983 1_555
Mn8 O33 2.150501 1_555
Mn8 O36 2.203377 1_555
Mn8 O20 2.237776 1_555
Mn9 O13 1.956112 1_555
Mn9 O5 1.980839 1_555
Mn9 O24 2.126983 1_555
Mn9 O32 2.150501 1_555
Mn9 O37 2.203377 1_545
Mn9 O21 2.237776 1_555
Mn10 O14 1.956112 1_655
Mn10 O6 1.980839 1_555
Mn10 O27 2.126983 1_555
Mn10 O35 2.150501 1_655
Mn10 O38 2.203377 1_555
Mn10 O22 2.237776 1_555
Mn11 O15 1.956112 1_455
Mn11 O7 1.980839 1_555
Mn11 O26 2.126983 1_555
Mn11 O34 2.150501 1_455
Mn11 O39 2.203377 1_565
Mn11 O23 2.237776 1_555
Mn12 O0 1.957217 1_555
Mn12 O4 1.988509 1_455
Mn12 O8 2.006523 1_455
Mn12 O12 2.039789 1_555
Mn12 O20 2.239497 1_455
Mn12 O33 2.241428 1_555
Mn13 O1 1.957217 1_545
Mn13 O5 1.988509 1_655
Mn13 O9 2.006523 1_655
Mn13 O13 2.039789 1_555
Mn13 O21 2.239497 1_655
Mn13 O32 2.241428 1_555
Mn14 O2 1.957217 1_555
Mn14 O6 1.988509 1_555
Mn14 O10 2.006523 1_555
Mn14 O14 2.039789 1_555
Mn14 O22 2.239497 1_555
Mn14 O35 2.241428 1_555
Mn15 O3 1.957217 1_565
Mn15 O7 1.988509 1_555
Mn15 O11 2.006523 1_555
Mn15 O15 2.039789 1_555
Mn15 O23 2.239497 1_555
Mn15 O34 2.241428 1_555
Mn16 O12 1.929731 1_555
Mn16 O5 1.939940 1_555
Mn16 O44 1.984624 1_555
Mn16 O36 2.082656 1_455
Mn17 O13 1.929731 1_565
Mn17 O4 1.939940 1_555
Mn17 O45 1.984624 1_565
Mn17 O37 2.082656 1_655
Mn18 O14 1.929731 1_555
Mn18 O7 1.939940 1_555
Mn18 O46 1.984624 1_555
Mn18 O38 2.082656 1_555
Mn19 O15 1.929731 1_545
Mn19 O6 1.939940 1_555
Mn19 O47 1.984624 1_545
Mn19 O39 2.082656 1_555
As0 O44 1.697631 1_555
As0 O40 1.711261 1_555
As0 O32 1.742546 1_555
As0 O36 1.756073 1_555
As1 O45 1.697631 1_565
As1 O41 1.711261 1_565
As1 O33 1.742546 1_555
As1 O37 1.756073 1_555
As2 O46 1.697631 1_655
As2 O42 1.711261 1_555
As2 O34 1.742546 1_555
As2 O38 1.756073 1_555
As3 O47 1.697631 1_445
As3 O43 1.711261 1_545
As3 O35 1.742546 1_555
As3 O39 1.756073 1_555
As4 O16 1.693533 1_555
As4 O24 1.703591 1_555
As4 O28 1.744887 1_555
As4 O20 1.761550 1_555
As5 O17 1.693533 1_555
As5 O25 1.703591 1_555
As5 O29 1.744887 1_555
As5 O21 1.761550 1_565
As6 O18 1.693533 1_555
As6 O26 1.703591 1_655
As6 O30 1.744887 1_555
As6 O22 1.761550 1_555
As7 O19 1.693533 1_555
As7 O27 1.703591 1_455
As7 O31 1.744887 1_555
As7 O23 1.761550 1_545
