# generated using pymatgen
data_B3Ru2
_symmetry_space_group_name_H-M   'P 1'
_cell_length_a   2.90999329
_cell_length_b   2.90999421
_cell_length_c   12.78092622
_cell_angle_alpha   90.00000000
_cell_angle_beta   90.00000000
_cell_angle_gamma   120.00000107
_symmetry_Int_Tables_number   1
_chemical_formula_structural   B3Ru2
_chemical_formula_sum   'B6 Ru4'
_cell_volume   93.72966540
_cell_formula_units_Z   2
loop_
 _symmetry_equiv_pos_site_id
 _symmetry_equiv_pos_as_xyz
  1  'x, y, z'
loop_
 _atom_site_type_symbol
 _atom_site_label
 _atom_site_symmetry_multiplicity
 _atom_site_fract_x
 _atom_site_fract_y
 _atom_site_fract_z
 _atom_site_occupancy
  B  B0  1  0.66666700  0.33333300  0.25000000  1
  B  B1  1  0.33333300  0.66666700  0.75000000  1
  B  B2  1  0.33333300  0.66666700  0.53056007  1
  B  B3  1  0.66666700  0.33333300  0.03056007  1
  B  B4  1  0.33333300  0.66666700  0.96943993  1
  B  B5  1  0.66666700  0.33333300  0.46943993  1
  Ru  Ru0  1  0.33333300  0.66666700  0.36006491  1
  Ru  Ru1  1  0.66666700  0.33333300  0.86006491  1
  Ru  Ru2  1  0.66666700  0.33333300  0.63993509  1
  Ru  Ru3  1  0.33333300  0.66666700  0.13993509  1
loop_
_geom_bond_atom_site_label_1
_geom_bond_atom_site_label_2
_geom_bond_distance
_geom_bond_site_symmetry_2
B0 Ru3 2.191250 1_655
B0 Ru0 2.191250 1_655
B0 Ru3 2.191250 1_545
B0 Ru0 2.191250 1_545
B0 Ru3 2.191254 1_555
B0 Ru0 2.191254 1_555
B1 Ru2 2.191250 1_455
B1 Ru1 2.191250 1_455
B1 Ru2 2.191250 1_565
B1 Ru1 2.191250 1_565
B1 Ru2 2.191254 1_555
B1 Ru1 2.191254 1_555
B2 B5 1.852812 1_455
B2 B5 1.852812 1_565
B2 B5 1.852816 1_555
B2 Ru0 2.179086 1_555
B2 Ru2 2.185599 1_455
B2 Ru2 2.185600 1_565
B2 Ru2 2.185604 1_555
B3 B4 1.852812 1_654
B3 B4 1.852812 1_544
B3 B4 1.852816 1_554
B3 Ru1 2.179086 1_554
B3 Ru3 2.185599 1_655
B3 Ru3 2.185600 1_545
B3 Ru3 2.185604 1_555
B4 Ru3 2.179086 1_556
B4 Ru1 2.185599 1_455
B4 Ru1 2.185600 1_565
B4 Ru1 2.185604 1_555
B5 Ru2 2.179086 1_555
B5 Ru0 2.185599 1_655
B5 Ru0 2.185600 1_545
B5 Ru0 2.185604 1_555
