# generated using pymatgen
data_Sr5Ge3
_symmetry_space_group_name_H-M   'P 1'
_cell_length_a   8.14525460
_cell_length_b   8.14525505
_cell_length_c   9.79657920
_cell_angle_alpha   114.57728235
_cell_angle_beta   114.57729880
_cell_angle_gamma   90.00051508
_symmetry_Int_Tables_number   1
_chemical_formula_structural   Sr5Ge3
_chemical_formula_sum   'Sr10 Ge6'
_cell_volume   525.62794360
_cell_formula_units_Z   2
loop_
 _symmetry_equiv_pos_site_id
 _symmetry_equiv_pos_as_xyz
  1  'x, y, z'
loop_
 _atom_site_type_symbol
 _atom_site_label
 _atom_site_symmetry_multiplicity
 _atom_site_fract_x
 _atom_site_fract_y
 _atom_site_fract_z
 _atom_site_occupancy
  Sr  Sr0  1  0.18120246  0.03904842  0.72044119  1
  Sr  Sr1  1  0.03892737  0.53892757  0.72031332  1
  Sr  Sr2  1  0.68119154  0.18119176  0.72056504  1
  Sr  Sr3  1  0.96107263  0.46107243  0.27968668  1
  Sr  Sr4  1  0.53904869  0.68120261  0.72044159  1
  Sr  Sr5  1  0.81879754  0.96095158  0.27955881  1
  Sr  Sr6  1  0.46095131  0.31879739  0.27955841  1
  Sr  Sr7  1  0.31880846  0.81880824  0.27943496  1
  Sr  Sr8  1  0.50000000  0.50000000  0.00000000  1
  Sr  Sr9  1  -0.00000000  0.00000000  0.00000000  1
  Ge  Ge0  1  0.61305853  0.11305852  0.00021540  1
  Ge  Ge1  1  0.88704937  0.61295106  0.00000047  1
  Ge  Ge2  1  0.11295063  0.38704894  -0.00000047  1
  Ge  Ge3  1  0.38694147  0.88694148  0.99978460  1
  Ge  Ge4  1  0.74987855  0.75012095  0.49999998  1
  Ge  Ge5  1  0.25012145  0.24987905  0.50000002  1
loop_
_geom_bond_atom_site_label_1
_geom_bond_atom_site_label_2
_geom_bond_distance
_geom_bond_site_symmetry_2
Ge0 Ge3 2.602180 1_544
Ge0 Sr2 3.263570 1_554
Ge0 Sr3 3.264151 1_555
Ge0 Sr9 3.284122 1_655
Ge0 Sr8 3.284122 1_555
Ge0 Sr6 3.292097 1_555
Ge0 Sr5 3.292098 1_545
Ge0 Sr4 3.294632 1_544
Ge0 Sr0 3.294633 1_554
Ge1 Ge2 2.602203 1_655
Ge1 Sr5 3.263929 1_555
Ge1 Sr4 3.263931 1_554
Ge1 Sr8 3.284105 1_555
Ge1 Sr9 3.284106 1_665
Ge1 Sr7 3.293412 1_655
Ge1 Sr2 3.293416 1_554
Ge1 Sr3 3.293438 1_555
Ge1 Sr1 3.293443 1_654
Ge2 Sr0 3.263929 1_554
Ge2 Sr6 3.263931 1_555
Ge2 Sr8 3.284105 1_555
Ge2 Sr9 3.284106 1_555
Ge2 Sr2 3.293412 1_454
Ge2 Sr7 3.293416 1_555
Ge2 Sr1 3.293438 1_554
Ge2 Sr3 3.293443 1_455
Ge3 Sr7 3.263570 1_556
Ge3 Sr1 3.264151 1_555
Ge3 Sr9 3.284122 1_566
Ge3 Sr8 3.284122 1_556
Ge3 Sr4 3.292097 1_555
Ge3 Sr0 3.292098 1_565
Ge3 Sr6 3.294632 1_566
Ge3 Sr5 3.294633 1_556
Ge4 Sr7 3.464811 1_555
Ge4 Sr2 3.464815 1_565
Ge4 Sr6 3.464962 1_555
Ge4 Sr0 3.464965 1_665
Ge4 Sr4 3.467163 1_555
Ge4 Sr5 3.467166 1_555
Ge4 Sr1 3.467293 1_655
Ge4 Sr3 3.467296 1_555
Ge5 Sr2 3.464811 1_555
Ge5 Sr7 3.464815 1_545
Ge5 Sr4 3.464962 1_555
Ge5 Sr5 3.464965 1_445
Ge5 Sr6 3.467163 1_555
Ge5 Sr0 3.467166 1_555
Ge5 Sr3 3.467293 1_455
Ge5 Sr1 3.467296 1_555
