# generated using pymatgen
data_BaGe3
_symmetry_space_group_name_H-M   'P 1'
_cell_length_a   6.89161657
_cell_length_b   6.89161657
_cell_length_c   5.07584375
_cell_angle_alpha   90.00000000
_cell_angle_beta   90.00000000
_cell_angle_gamma   119.99999663
_symmetry_Int_Tables_number   1
_chemical_formula_structural   BaGe3
_chemical_formula_sum   'Ba2 Ge6'
_cell_volume   208.77625551
_cell_formula_units_Z   2
loop_
 _symmetry_equiv_pos_site_id
 _symmetry_equiv_pos_as_xyz
  1  'x, y, z'
loop_
 _atom_site_type_symbol
 _atom_site_label
 _atom_site_symmetry_multiplicity
 _atom_site_fract_x
 _atom_site_fract_y
 _atom_site_fract_z
 _atom_site_occupancy
  Ba  Ba0  1  0.33333300  0.66666700  0.75000000  1
  Ba  Ba1  1  0.66666700  0.33333300  0.25000000  1
  Ge  Ge0  1  0.12543143  0.87456857  0.25000000  1
  Ge  Ge1  1  0.12543143  0.25086286  0.25000000  1
  Ge  Ge2  1  0.74913714  0.87456857  0.25000000  1
  Ge  Ge3  1  0.87456857  0.12543143  0.75000000  1
  Ge  Ge4  1  0.87456857  0.74913714  0.75000000  1
  Ge  Ge5  1  0.25086286  0.12543143  0.75000000  1
loop_
_geom_bond_atom_site_label_1
_geom_bond_atom_site_label_2
_geom_bond_distance
_geom_bond_site_symmetry_2
Ba0 Ge5 3.480781 1_565
Ba0 Ge4 3.480781 1_455
Ba0 Ge3 3.480786 1_565
Ba0 Ge3 3.480786 1_455
Ba0 Ge4 3.480788 1_555
Ba0 Ge5 3.480788 1_555
Ba0 Ge0 3.549592 1_555
Ba0 Ge0 3.549592 1_556
Ba0 Ge2 3.549596 1_555
Ba0 Ge1 3.549596 1_555
Ba0 Ge1 3.549596 1_556
Ba0 Ge2 3.549596 1_556
Ba1 Ge1 3.480781 1_655
Ba1 Ge2 3.480781 1_545
Ba1 Ge0 3.480786 1_655
Ba1 Ge0 3.480786 1_545
Ba1 Ge2 3.480788 1_555
Ba1 Ge1 3.480788 1_555
Ba1 Ge3 3.549592 1_555
Ba1 Ge3 3.549592 1_554
Ba1 Ge4 3.549596 1_554
Ba1 Ge4 3.549596 1_555
Ba1 Ge5 3.549596 1_554
Ba1 Ge5 3.549596 1_555
Ge0 Ge2 2.593276 1_455
Ge0 Ge1 2.593276 1_565
Ge0 Ge5 2.946649 1_565
Ge0 Ge5 2.946649 1_564
Ge0 Ge4 2.946649 1_455
Ge0 Ge4 2.946649 1_454
Ge1 Ge2 2.593276 1_445
Ge1 Ge5 2.946649 1_555
Ge1 Ge5 2.946649 1_554
Ge1 Ge3 2.946649 1_454
Ge1 Ge3 2.946649 1_455
Ge2 Ge4 2.946649 1_555
Ge2 Ge4 2.946649 1_554
Ge2 Ge3 2.946649 1_565
Ge2 Ge3 2.946649 1_564
Ge3 Ge4 2.593276 1_545
Ge3 Ge5 2.593276 1_655
Ge4 Ge5 2.593276 1_665
