# generated using pymatgen
data_Li3V3O5F3
_symmetry_space_group_name_H-M   'P 1'
_cell_length_a   5.88141500
_cell_length_b   5.97065644
_cell_length_c   6.02746555
_cell_angle_alpha   119.38202679
_cell_angle_beta   89.78977914
_cell_angle_gamma   118.82156780
_symmetry_Int_Tables_number   1
_chemical_formula_structural   Li3V3O5F3
_chemical_formula_sum   'Li3 V3 O5 F3'
_cell_volume   153.88702153
_cell_formula_units_Z   1
loop_
 _symmetry_equiv_pos_site_id
 _symmetry_equiv_pos_as_xyz
  1  'x, y, z'
loop_
 _atom_site_type_symbol
 _atom_site_label
 _atom_site_symmetry_multiplicity
 _atom_site_fract_x
 _atom_site_fract_y
 _atom_site_fract_z
 _atom_site_occupancy
  Li  Li0  1  0.01159900  0.01008800  0.02355600  1
  Li  Li1  1  0.74726200  0.24565400  0.23271900  1
  Li  Li2  1  0.37073400  0.12472800  0.62407900  1
  V  V0  1  0.35721200  0.60829300  0.60489500  1
  V  V1  1  0.36391000  0.61166900  0.13149000  1
  V  V2  1  0.87680200  0.62793400  0.62435100  1
  O  O0  1  0.15452700  0.39469100  0.38123100  1
  O  O1  1  0.60686700  0.83310100  0.36951800  1
  O  O2  1  0.60972100  0.41948100  0.82966700  1
  O  O3  1  0.15383000  0.84513300  0.42826200  1
  O  O4  1  0.14245700  0.41723500  0.86874400  1
  F  F0  1  0.62795100  0.38331200  0.38399200  1
  F  F1  1  0.12359200  0.86414300  0.87230800  1
  F  F2  1  0.60353500  0.86454000  0.87518700  1
loop_
_geom_bond_atom_site_label_1
_geom_bond_atom_site_label_2
_geom_bond_distance
_geom_bond_site_symmetry_2
Li0 O0 1.980371 1_555
Li1 O0 2.123582 1_655
Li2 O3 1.353369 1_545
Li2 O2 1.447830 1_555
O0 V0 1.312954 1_555
O1 V1 1.476632 1_555
O4 V1 1.518355 1_556
F0 Li1 1.347340 1_555
F0 V2 1.500796 1_555
F1 Li0 1.339308 1_566
F1 V2 1.517694 1_455
F2 V0 1.590027 1_555
F2 Li1 1.970653 1_566
F2 Li0 2.134754 1_666
