# generated using pymatgen
data_SrLiMg14
_symmetry_space_group_name_H-M   'P 1'
_cell_length_a   6.59911273
_cell_length_b   6.43097297
_cell_length_c   10.58532051
_cell_angle_alpha   90.00000000
_cell_angle_beta   90.00000000
_cell_angle_gamma   119.16068152
_symmetry_Int_Tables_number   1
_chemical_formula_structural   SrLiMg14
_chemical_formula_sum   'Sr1 Li1 Mg14'
_cell_volume   392.29082441
_cell_formula_units_Z   1
loop_
 _symmetry_equiv_pos_site_id
 _symmetry_equiv_pos_as_xyz
  1  'x, y, z'
loop_
 _atom_site_type_symbol
 _atom_site_label
 _atom_site_symmetry_multiplicity
 _atom_site_fract_x
 _atom_site_fract_y
 _atom_site_fract_z
 _atom_site_occupancy
  Sr  Sr0  1  0.15930434  0.82965167  0.12500000  1
  Li  Li0  1  0.17188049  0.33593975  0.12500000  1
  Mg  Mg0  1  0.16431341  0.33215620  0.62500000  1
  Mg  Mg1  1  0.16579597  0.83289748  0.62500000  1
  Mg  Mg2  1  0.65939871  0.33528738  0.12500000  1
  Mg  Mg3  1  0.66683524  0.33179949  0.62500000  1
  Mg  Mg4  1  0.65939871  0.82411033  0.12500000  1
  Mg  Mg5  1  0.66683524  0.83503475  0.62500000  1
  Mg  Mg6  1  0.33975566  0.17512697  0.38687720  1
  Mg  Mg7  1  0.33975566  0.17512697  0.86312280  1
  Mg  Mg8  1  0.33975566  0.66462969  0.38687720  1
  Mg  Mg9  1  0.33975566  0.66462969  0.86312280  1
  Mg  Mg10  1  0.83669163  0.16834632  0.36952116  1
  Mg  Mg11  1  0.83669163  0.16834632  0.88047884  1
  Mg  Mg12  1  0.82691598  0.66345849  0.38652867  1
  Mg  Mg13  1  0.82691598  0.66345849  0.86347133  1
loop_
_geom_bond_atom_site_label_1
_geom_bond_atom_site_label_2
_geom_bond_distance
_geom_bond_site_symmetry_2
Li0 Sr0 3.216303 1_555
Li0 Sr0 3.216303 1_545
Li0 Mg4 3.219234 1_555
Li0 Mg2 3.219234 1_555
Li0 Mg10 3.229637 1_455
Li0 Mg11 3.229637 1_454
Li0 Mg6 3.331307 1_555
Li0 Mg7 3.331307 1_554
Li0 Mg8 3.331312 1_555
Li0 Mg9 3.331312 1_554
Li0 Mg4 3.379883 1_445
Li0 Mg2 3.379883 1_455
Mg0 Mg7 3.138957 1_555
Mg0 Mg6 3.138957 1_555
Mg0 Mg9 3.138963 1_555
Mg0 Mg8 3.138963 1_555
Mg0 Mg1 3.215498 1_555
Mg0 Mg1 3.215498 1_545
Mg0 Mg5 3.281797 1_445
Mg0 Mg3 3.281797 1_455
Mg0 Mg10 3.298165 1_455
Mg0 Mg11 3.298165 1_455
Mg0 Mg5 3.317316 1_555
Mg0 Mg3 3.317317 1_555
Mg1 Mg8 3.170633 1_555
Mg1 Mg9 3.170633 1_555
Mg1 Mg7 3.170640 1_565
Mg1 Mg6 3.170640 1_565
Mg1 Mg12 3.191515 1_455
Mg1 Mg13 3.191515 1_455
Mg1 Mg3 3.299417 1_455
Mg1 Mg5 3.299417 1_455
Mg1 Mg3 3.299739 1_565
Mg1 Mg5 3.299739 1_555
Mg2 Mg4 3.143607 1_555
Mg2 Sr0 3.281717 1_655
Mg2 Mg4 3.287366 1_545
Mg2 Sr0 3.317689 1_545
Mg2 Mg6 3.328258 1_555
Mg2 Mg7 3.328258 1_554
Mg3 Mg7 3.147719 1_555
Mg3 Mg6 3.147719 1_555
Mg3 Mg5 3.194681 1_545
Mg3 Mg5 3.236292 1_555
Mg4 Sr0 3.281717 1_655
Mg4 Sr0 3.317689 1_555
Mg4 Mg8 3.328258 1_555
Mg4 Mg9 3.328258 1_554
Mg5 Mg9 3.147718 1_555
Mg5 Mg8 3.147718 1_555
Mg6 Mg8 3.147979 1_555
Mg6 Mg8 3.282994 1_545
Mg6 Sr0 3.385290 1_545
Mg7 Mg9 3.147979 1_555
Mg7 Mg9 3.282994 1_545
Mg7 Sr0 3.385290 1_546
Mg8 Sr0 3.385284 1_555
Mg9 Sr0 3.385284 1_556
Mg10 Mg12 3.221015 1_555
Mg10 Mg12 3.221015 1_545
Mg10 Mg2 3.231872 1_555
Mg10 Mg4 3.231879 1_545
Mg10 Mg3 3.289828 1_555
Mg10 Mg5 3.289834 1_545
Mg10 Mg8 3.303860 1_655
Mg10 Mg6 3.303861 1_655
Mg10 Mg8 3.305912 1_545
Mg10 Mg6 3.305913 1_555
Mg11 Mg13 3.221015 1_555
Mg11 Mg13 3.221015 1_545
Mg11 Mg2 3.231872 1_556
Mg11 Mg4 3.231879 1_546
Mg11 Mg3 3.289828 1_555
Mg11 Mg5 3.289834 1_545
Mg11 Mg9 3.303860 1_655
Mg11 Mg7 3.303861 1_655
Mg11 Mg9 3.305912 1_545
Mg11 Mg7 3.305913 1_555
Mg12 Mg5 3.137109 1_555
Mg12 Mg3 3.137115 1_555
Mg12 Mg6 3.218504 1_555
Mg12 Mg8 3.218505 1_555
Mg12 Mg4 3.326605 1_555
Mg12 Mg2 3.326611 1_555
Mg12 Sr0 3.366427 1_655
Mg12 Mg6 3.380625 1_665
Mg12 Mg8 3.380625 1_655
Mg13 Mg5 3.137109 1_555
Mg13 Mg3 3.137115 1_555
Mg13 Mg7 3.218504 1_555
Mg13 Mg9 3.218505 1_555
Mg13 Mg4 3.326605 1_556
Mg13 Mg2 3.326611 1_556
Mg13 Sr0 3.366427 1_656
Mg13 Mg7 3.380625 1_665
Mg13 Mg9 3.380625 1_655
