# generated using pymatgen
data_Cs6WN4
_symmetry_space_group_name_H-M   'P 1'
_cell_length_a   8.94699700
_cell_length_b   8.94699700
_cell_length_c   7.92481000
_cell_angle_alpha   90.00000000
_cell_angle_beta   90.00000000
_cell_angle_gamma   90.00000000
_symmetry_Int_Tables_number   1
_chemical_formula_structural   Cs6WN4
_chemical_formula_sum   'Cs12 W2 N8'
_cell_volume   634.37117663
_cell_formula_units_Z   2
loop_
 _symmetry_equiv_pos_site_id
 _symmetry_equiv_pos_as_xyz
  1  'x, y, z'
loop_
 _atom_site_type_symbol
 _atom_site_label
 _atom_site_symmetry_multiplicity
 _atom_site_fract_x
 _atom_site_fract_y
 _atom_site_fract_z
 _atom_site_occupancy
  Cs  Cs0  1  0.00000000  0.50000000  0.73664800  1
  Cs  Cs1  1  0.50000000  0.00000000  0.76335200  1
  Cs  Cs2  1  0.50000000  0.00000000  0.26335200  1
  Cs  Cs3  1  0.00000000  0.50000000  0.23664800  1
  Cs  Cs4  1  0.21118200  0.21118200  0.50000000  1
  Cs  Cs5  1  0.78881800  0.78881800  0.50000000  1
  Cs  Cs6  1  0.71118200  0.71118200  0.00000000  1
  Cs  Cs7  1  0.28881800  0.28881800  0.00000000  1
  Cs  Cs8  1  0.78881800  0.21118200  0.50000000  1
  Cs  Cs9  1  0.21118200  0.78881800  0.50000000  1
  Cs  Cs10  1  0.28881800  0.71118200  0.00000000  1
  Cs  Cs11  1  0.71118200  0.28881800  0.00000000  1
  W  W0  1  0.50000000  0.50000000  0.50000000  1
  W  W1  1  0.00000000  0.00000000  0.00000000  1
  N  N0  1  0.31829900  0.50000000  0.37056200  1
  N  N1  1  0.68170100  0.50000000  0.37056200  1
  N  N2  1  0.81829900  0.00000000  0.12943800  1
  N  N3  1  0.18170100  0.00000000  0.12943800  1
  N  N4  1  0.50000000  0.31829900  0.62943800  1
  N  N5  1  0.50000000  0.68170100  0.62943800  1
  N  N6  1  0.00000000  0.81829900  0.87056200  1
  N  N7  1  0.00000000  0.18170100  0.87056200  1
loop_
_geom_bond_atom_site_label_1
_geom_bond_atom_site_label_2
_geom_bond_distance
_geom_bond_site_symmetry_2
Cs0 N6 3.039131 1_555
Cs0 N7 3.039131 1_555
Cs1 N5 3.039131 1_545
Cs1 N4 3.039131 1_555
Cs2 N3 3.039131 1_555
Cs2 N2 3.039131 1_555
Cs3 N0 3.039131 1_555
Cs3 N1 3.039131 1_455
Cs4 N4 2.940752 1_555
Cs4 N0 2.940752 1_555
Cs4 N7 3.501912 1_555
Cs4 N3 3.501912 1_555
Cs5 N1 2.940752 1_555
Cs5 N5 2.940752 1_555
Cs5 N6 3.501912 1_655
Cs5 N2 3.501912 1_565
Cs6 N2 2.940752 1_565
Cs6 N6 2.940752 1_654
Cs6 N5 3.501912 1_554
Cs6 N1 3.501912 1_555
Cs7 N3 2.940752 1_555
Cs7 N7 2.940752 1_554
Cs7 N4 3.501912 1_554
Cs7 N0 3.501912 1_555
Cs8 N4 2.940752 1_555
Cs8 N1 2.940752 1_555
Cs8 N7 3.501912 1_655
Cs8 N2 3.501912 1_555
Cs9 N0 2.940752 1_555
Cs9 N5 2.940752 1_555
Cs9 N6 3.501912 1_555
Cs9 N3 3.501912 1_565
Cs10 N3 2.940752 1_565
Cs10 N6 2.940752 1_554
Cs10 N5 3.501912 1_554
Cs10 N0 3.501912 1_555
Cs11 N2 2.940752 1_555
Cs11 N7 2.940752 1_654
Cs11 N4 3.501912 1_554
Cs11 N1 3.501912 1_555
N0 W0 1.922248 1_555
N1 W0 1.922248 1_555
N2 W1 1.922248 1_655
N3 W1 1.922248 1_555
N4 W0 1.922248 1_555
N5 W0 1.922248 1_555
N6 W1 1.922248 1_566
N7 W1 1.922248 1_556
