# generated using pymatgen
data_Na3Sm9B8O27
_symmetry_space_group_name_H-M   'P 1'
_cell_length_a   8.41136700
_cell_length_b   8.75378595
_cell_length_c   8.75378595
_cell_angle_alpha   119.99999964
_cell_angle_beta   90.00000000
_cell_angle_gamma   90.00000000
_symmetry_Int_Tables_number   1
_chemical_formula_structural   Na3Sm9B8O27
_chemical_formula_sum   'Na3 Sm9 B8 O27'
_cell_volume   558.19900961
_cell_formula_units_Z   1
loop_
 _symmetry_equiv_pos_site_id
 _symmetry_equiv_pos_as_xyz
  1  'x, y, z'
loop_
 _atom_site_type_symbol
 _atom_site_label
 _atom_site_symmetry_multiplicity
 _atom_site_fract_x
 _atom_site_fract_y
 _atom_site_fract_z
 _atom_site_occupancy
  Na  Na0  1  0.00000000  0.66376900  0.66376900  1
  Na  Na1  1  0.00000000  0.00000000  0.33623100  1
  Na  Na2  1  0.00000000  0.33623100  0.00000000  1
  Sm  Sm0  1  0.76448100  0.34847500  0.34847500  1
  Sm  Sm1  1  0.76448100  0.00000000  0.65152500  1
  Sm  Sm2  1  0.23551900  0.34847500  0.34847500  1
  Sm  Sm3  1  0.23551900  0.00000000  0.65152500  1
  Sm  Sm4  1  0.76448100  0.65152500  0.00000000  1
  Sm  Sm5  1  0.23551900  0.65152500  0.00000000  1
  Sm  Sm6  1  0.50000000  0.71807400  0.71807400  1
  Sm  Sm7  1  0.50000000  0.00000000  0.28192600  1
  Sm  Sm8  1  0.50000000  0.28192600  0.00000000  1
  B  B0  1  0.78995300  0.00000000  0.00000000  1
  B  B1  1  0.21004700  0.00000000  0.00000000  1
  B  B2  1  0.00000000  0.66666700  0.33333300  1
  B  B3  1  0.00000000  0.33333300  0.66666700  1
  B  B4  1  0.67551900  0.66666700  0.33333300  1
  B  B5  1  0.32448100  0.66666700  0.33333300  1
  B  B6  1  0.32448100  0.33333300  0.66666700  1
  B  B7  1  0.67551900  0.33333300  0.66666700  1
  O  O0  1  0.68238900  0.82375300  0.33425100  1
  O  O1  1  0.68238900  0.51049800  0.17624700  1
  O  O2  1  0.31761100  0.82375300  0.33425100  1
  O  O3  1  0.31761100  0.48950200  0.66574900  1
  O  O4  1  0.68238900  0.66574900  0.48950200  1
  O  O5  1  0.31761100  0.51049800  0.17624700  1
  O  O6  1  0.31761100  0.33425100  0.82375300  1
  O  O7  1  0.68238900  0.48950200  0.66574900  1
  O  O8  1  0.31761100  0.66574900  0.48950200  1
  O  O9  1  0.68238900  0.33425100  0.82375300  1
  O  O10  1  0.31761100  0.17624700  0.51049800  1
  O  O11  1  0.68238900  0.17624700  0.51049800  1
  O  O12  1  0.00000000  0.67752300  0.17923200  1
  O  O13  1  0.00000000  0.50171000  0.32247700  1
  O  O14  1  0.00000000  0.49829000  0.82076800  1
  O  O15  1  0.00000000  0.82076800  0.49829000  1
  O  O16  1  0.00000000  0.17923200  0.67752300  1
  O  O17  1  0.00000000  0.32247700  0.50171000  1
  O  O18  1  0.50000000  0.25636200  0.25636200  1
  O  O19  1  0.50000000  0.00000000  0.74363800  1
  O  O20  1  0.50000000  0.74363800  0.00000000  1
  O  O21  1  0.78725100  0.84159200  0.84159200  1
  O  O22  1  0.78725100  0.00000000  0.15840800  1
  O  O23  1  0.21274900  0.84159200  0.84159200  1
  O  O24  1  0.21274900  0.00000000  0.15840800  1
  O  O25  1  0.78725100  0.15840800  0.00000000  1
  O  O26  1  0.21274900  0.15840800  0.00000000  1
loop_
_geom_bond_atom_site_label_1
_geom_bond_atom_site_label_2
_geom_bond_distance
_geom_bond_site_symmetry_2
Na0 O21 2.371798 1_455
Na0 O23 2.371798 1_555
Na0 O14 2.444988 1_555
Na0 O15 2.444988 1_555
Na0 O17 2.588427 1_555
Na0 O13 2.588427 1_555
Na1 O22 2.371798 1_455
Na1 O24 2.371798 1_555
Na1 O12 2.444980 1_545
Na1 O17 2.444980 1_555
Na1 O15 2.588419 1_545
Na1 O16 2.588426 1_555
Na2 O25 2.371798 1_455
Na2 O26 2.371798 1_555
Na2 O16 2.444980 1_554
Na2 O13 2.444980 1_555
Na2 O14 2.588419 1_554
Na2 O12 2.588426 1_555
B0 O25 1.386856 1_555
B0 O22 1.386856 1_555
B0 O21 1.386856 1_544
B1 O26 1.386856 1_555
B1 O24 1.386856 1_555
B1 O23 1.386856 1_544
B2 O12 1.398906 1_555
B2 O13 1.398906 1_555
B2 O15 1.398906 1_555
B3 O16 1.398906 1_555
B3 O17 1.398906 1_555
B3 O14 1.398906 1_555
B4 O0 1.372314 1_555
B4 O1 1.372318 1_555
B4 O4 1.372323 1_555
B5 O2 1.372314 1_555
B5 O5 1.372318 1_555
B5 O8 1.372323 1_555
B6 O6 1.372314 1_555
B6 O10 1.372318 1_555
B6 O3 1.372323 1_555
B7 O9 1.372314 1_555
B7 O11 1.372318 1_555
B7 O7 1.372323 1_555
O0 Sm7 2.377055 1_565
O0 Sm1 2.507152 1_565
O0 Sm4 2.626734 1_555
O1 Sm8 2.377055 1_555
O1 Sm4 2.507152 1_555
O1 Sm0 2.626734 1_555
O2 Sm7 2.377055 1_565
O2 Sm3 2.507152 1_565
O2 Sm5 2.626734 1_555
O3 Sm6 2.377055 1_555
O3 Sm2 2.507152 1_555
O3 Sm5 2.626734 1_556
O4 Sm6 2.377055 1_555
O4 Sm0 2.507152 1_555
O4 Sm1 2.626734 1_565
O5 Sm8 2.377055 1_555
O5 Sm5 2.507152 1_555
O5 Sm2 2.626734 1_555
O6 Sm8 2.377055 1_556
O6 Sm5 2.507152 1_556
O6 Sm3 2.626734 1_555
O7 Sm6 2.377055 1_555
O7 Sm0 2.507152 1_555
O7 Sm4 2.626734 1_556
O8 Sm6 2.377055 1_555
O8 Sm2 2.507152 1_555
O8 Sm3 2.626734 1_565
O9 Sm8 2.377055 1_556
O9 Sm4 2.507152 1_556
O9 Sm1 2.626734 1_555
O10 Sm7 2.377055 1_555
O10 Sm3 2.507152 1_555
O10 Sm2 2.626734 1_555
O11 Sm7 2.377055 1_555
O11 Sm1 2.507152 1_555
O11 Sm0 2.626734 1_555
O12 Sm4 2.465941 1_455
O12 Sm5 2.465941 1_555
O13 Sm2 2.465946 1_555
O13 Sm0 2.465946 1_455
O14 Sm5 2.465943 1_556
O14 Sm4 2.465943 1_456
O15 Sm3 2.465943 1_565
O15 Sm1 2.465943 1_465
O16 Sm3 2.465941 1_555
O16 Sm1 2.465941 1_455
O17 Sm2 2.465946 1_555
O17 Sm0 2.465946 1_455
O18 Sm7 2.363986 1_555
O18 Sm8 2.363986 1_555
O18 Sm2 2.366270 1_555
O18 Sm0 2.366270 1_555
O19 Sm6 2.363986 1_545
O19 Sm8 2.363986 1_556
O19 Sm3 2.366270 1_555
O19 Sm1 2.366270 1_555
O20 Sm6 2.363986 1_554
O20 Sm7 2.363986 1_565
O20 Sm4 2.366270 1_555
O20 Sm5 2.366270 1_555
O21 Sm6 2.647073 1_555
O21 Sm4 2.652345 1_556
O21 Sm1 2.652345 1_565
O22 Sm7 2.647073 1_555
O22 Sm4 2.652345 1_545
O22 Sm0 2.652345 1_555
O23 Sm6 2.647073 1_555
O23 Sm3 2.652345 1_565
O23 Sm5 2.652345 1_556
O24 Sm7 2.647073 1_555
O24 Sm5 2.652345 1_545
O24 Sm2 2.652345 1_555
O25 Sm8 2.647073 1_555
O25 Sm1 2.652345 1_554
O25 Sm0 2.652345 1_555
O26 Sm8 2.647073 1_555
O26 Sm3 2.652345 1_554
O26 Sm2 2.652345 1_555
