# generated using pymatgen
data_LaHg2
_symmetry_space_group_name_H-M   'P 1'
_cell_length_a   5.15684991
_cell_length_b   5.15684991
_cell_length_c   3.51006500
_cell_angle_alpha   90.00000000
_cell_angle_beta   90.00000000
_cell_angle_gamma   119.99999885
_symmetry_Int_Tables_number   1
_chemical_formula_structural   LaHg2
_chemical_formula_sum   'La1 Hg2'
_cell_volume   80.83785452
_cell_formula_units_Z   1
loop_
 _symmetry_equiv_pos_site_id
 _symmetry_equiv_pos_as_xyz
  1  'x, y, z'
loop_
 _atom_site_type_symbol
 _atom_site_label
 _atom_site_symmetry_multiplicity
 _atom_site_fract_x
 _atom_site_fract_y
 _atom_site_fract_z
 _atom_site_occupancy
  La  La0  1  0.00000000  0.00000000  0.00000000  1
  Hg  Hg0  1  0.66666700  0.33333300  0.52058700  1
  Hg  Hg1  1  0.33333300  0.66666700  0.47941300  1
loop_
_geom_bond_atom_site_label_1
_geom_bond_atom_site_label_2
_geom_bond_distance
_geom_bond_site_symmetry_2
Hg0 Hg1 2.980811 1_545
Hg0 Hg1 2.980811 1_655
Hg0 Hg1 2.980820 1_555
Hg0 La0 3.419951 1_656
Hg0 La0 3.419955 1_666
Hg0 La0 3.419955 1_556
Hg0 La0 3.493330 1_655
Hg0 La0 3.493334 1_555
Hg0 La0 3.493334 1_665
Hg1 La0 3.419951 1_565
Hg1 La0 3.419955 1_665
Hg1 La0 3.419955 1_555
Hg1 La0 3.493330 1_566
Hg1 La0 3.493334 1_666
Hg1 La0 3.493334 1_556
