# generated using pymatgen
data_Mg14TiMn
_symmetry_space_group_name_H-M   'P 1'
_cell_length_a   6.31855688
_cell_length_b   6.31855637
_cell_length_c   10.05472358
_cell_angle_alpha   90.00000000
_cell_angle_beta   90.00000000
_cell_angle_gamma   120.00000264
_symmetry_Int_Tables_number   1
_chemical_formula_structural   Mg14TiMn
_chemical_formula_sum   'Mg14 Ti1 Mn1'
_cell_volume   347.64542610
_cell_formula_units_Z   1
loop_
 _symmetry_equiv_pos_site_id
 _symmetry_equiv_pos_as_xyz
  1  'x, y, z'
loop_
 _atom_site_type_symbol
 _atom_site_label
 _atom_site_symmetry_multiplicity
 _atom_site_fract_x
 _atom_site_fract_y
 _atom_site_fract_z
 _atom_site_occupancy
  Mg  Mg0  1  0.16717640  0.83358770  0.12500000  1
  Mg  Mg1  1  0.17041233  0.83520566  0.62500000  1
  Mg  Mg2  1  0.66641230  0.33282360  0.12500000  1
  Mg  Mg3  1  0.66479434  0.32958767  0.62500000  1
  Mg  Mg4  1  0.66641230  0.83358770  0.12500000  1
  Mg  Mg5  1  0.66479434  0.83520566  0.62500000  1
  Mg  Mg6  1  0.32852366  0.17147634  0.37372695  1
  Mg  Mg7  1  0.32852366  0.17147634  0.87627305  1
  Mg  Mg8  1  0.32852366  0.65704831  0.37372695  1
  Mg  Mg9  1  0.32852366  0.65704831  0.87627305  1
  Mg  Mg10  1  0.84295169  0.17147634  0.37372695  1
  Mg  Mg11  1  0.84295169  0.17147634  0.87627305  1
  Mg  Mg12  1  0.83333300  0.66666700  0.37650991  1
  Mg  Mg13  1  0.83333300  0.66666700  0.87349009  1
  Ti  Ti0  1  0.16666700  0.33333300  0.62500000  1
  Mn  Mn0  1  0.16666700  0.33333300  0.12500000  1
loop_
_geom_bond_atom_site_label_1
_geom_bond_atom_site_label_2
_geom_bond_distance
_geom_bond_site_symmetry_2
Mg0 Mg8 3.110504 1_555
Mg0 Mg9 3.110504 1_554
Mg0 Mg6 3.110511 1_565
Mg0 Mg7 3.110511 1_564
Mg0 Mg12 3.119671 1_455
Mg0 Mg13 3.119671 1_454
Mg0 Mg2 3.154450 1_565
Mg0 Mg4 3.154450 1_555
Mg0 Mn0 3.159279 1_555
Mg0 Mn0 3.159279 1_565
Mg0 Mg2 3.164106 1_455
Mg0 Mg4 3.164106 1_455
Mg1 Mg13 3.105593 1_455
Mg1 Mg12 3.105593 1_455
Mg1 Mg3 3.123781 1_565
Mg1 Mg5 3.123781 1_555
Mg1 Mg8 3.126177 1_555
Mg1 Mg9 3.126177 1_555
Mg1 Mg7 3.126184 1_565
Mg1 Mg6 3.126184 1_565
Mg1 Ti0 3.159345 1_555
Mg1 Ti0 3.159345 1_565
Mg1 Mg3 3.194776 1_455
Mg1 Mg5 3.194776 1_455
Mg2 Mg6 3.110511 1_555
Mg2 Mg7 3.110511 1_554
Mg2 Mg4 3.154450 1_545
Mg2 Mn0 3.159280 1_655
Mg2 Mn0 3.159280 1_555
Mg2 Mg4 3.164106 1_555
Mg3 Mg5 3.123781 1_545
Mg3 Mg6 3.126184 1_555
Mg3 Mg7 3.126184 1_555
Mg3 Ti0 3.159345 1_655
Mg3 Ti0 3.159345 1_555
Mg3 Mg5 3.194776 1_555
Mg4 Mg8 3.110510 1_555
Mg4 Mg9 3.110510 1_554
Mg4 Mn0 3.159279 1_555
Mg4 Mn0 3.159279 1_665
Mg5 Mg9 3.126184 1_555
Mg5 Mg8 3.126184 1_555
Mg5 Ti0 3.159345 1_555
Mg5 Ti0 3.159345 1_665
Mg6 Mn0 3.064662 1_555
Mg6 Mg8 3.068114 1_555
Mg6 Ti0 3.085588 1_555
Mg6 Mg8 3.250443 1_545
Mg7 Mn0 3.064662 1_556
Mg7 Mg9 3.068114 1_555
Mg7 Ti0 3.085588 1_555
Mg7 Mg9 3.250443 1_545
Mg8 Mn0 3.064668 1_555
Mg8 Ti0 3.085595 1_555
Mg9 Mn0 3.064668 1_556
Mg9 Ti0 3.085595 1_555
Mg10 Mn0 3.064668 1_655
Mg10 Mg8 3.068114 1_655
Mg10 Mg6 3.068114 1_655
Mg10 Ti0 3.085595 1_655
Mg10 Mg2 3.110504 1_555
Mg10 Mg4 3.110510 1_545
Mg10 Mg3 3.126177 1_555
Mg10 Mg5 3.126183 1_545
Mg10 Mg12 3.159840 1_545
Mg10 Mg12 3.159841 1_555
Mg10 Mg8 3.250443 1_545
Mg10 Mg6 3.250443 1_555
Mg11 Mn0 3.064668 1_656
Mg11 Mg9 3.068114 1_655
Mg11 Mg7 3.068114 1_655
Mg11 Ti0 3.085595 1_655
Mg11 Mg2 3.110504 1_556
Mg11 Mg4 3.110510 1_546
Mg11 Mg3 3.126177 1_555
Mg11 Mg5 3.126183 1_545
Mg11 Mg13 3.159840 1_545
Mg11 Mg13 3.159841 1_555
Mg11 Mg9 3.250443 1_545
Mg11 Mg7 3.250443 1_555
Mg12 Mg5 3.105587 1_555
Mg12 Mg3 3.105593 1_555
Mg12 Mg4 3.119665 1_555
Mg12 Mg2 3.119671 1_555
Mg12 Mg6 3.159840 1_665
Mg12 Mg6 3.159841 1_555
Mg12 Mg8 3.159841 1_555
Mg12 Mg8 3.159841 1_655
Mg13 Mg5 3.105587 1_555
Mg13 Mg3 3.105593 1_555
Mg13 Mg4 3.119665 1_556
Mg13 Mg2 3.119671 1_556
Mg13 Mg7 3.159840 1_665
Mg13 Mg7 3.159841 1_555
Mg13 Mg9 3.159841 1_555
Mg13 Mg9 3.159841 1_655
