# generated using pymatgen
data_Dy2Y2O5
_symmetry_space_group_name_H-M   'P 1'
_cell_length_a   3.89739200
_cell_length_b   3.89739200
_cell_length_c   9.86219900
_cell_angle_alpha   90.00000000
_cell_angle_beta   90.00000000
_cell_angle_gamma   90.00000000
_symmetry_Int_Tables_number   1
_chemical_formula_structural   Dy2Y2O5
_chemical_formula_sum   'Dy2 Y2 O5'
_cell_volume   149.80349307
_cell_formula_units_Z   1
loop_
 _symmetry_equiv_pos_site_id
 _symmetry_equiv_pos_as_xyz
  1  'x, y, z'
loop_
 _atom_site_type_symbol
 _atom_site_label
 _atom_site_symmetry_multiplicity
 _atom_site_fract_x
 _atom_site_fract_y
 _atom_site_fract_z
 _atom_site_occupancy
  Dy  Dy0  1  0.00000000  0.00000000  0.00000000  1
  Dy  Dy1  1  0.00000000  0.00000000  0.50000000  1
  Y  Y0  1  0.50000000  0.50000000  0.23644600  1
  Y  Y1  1  0.50000000  0.50000000  0.76355400  1
  O  O0  1  0.50000000  0.00000000  0.14067200  1
  O  O1  1  0.50000000  0.00000000  0.85932800  1
  O  O2  1  0.50000000  0.50000000  0.50000000  1
  O  O3  1  0.00000000  0.50000000  0.14067200  1
  O  O4  1  0.00000000  0.50000000  0.85932800  1
loop_
_geom_bond_atom_site_label_1
_geom_bond_atom_site_label_2
_geom_bond_distance
_geom_bond_site_symmetry_2
Dy0 O4 2.392094 1_554
Dy0 O1 2.392094 1_554
Dy0 O3 2.392094 1_545
Dy0 O0 2.392094 1_455
Dy0 O1 2.392094 1_454
Dy0 O4 2.392094 1_544
Dy0 O3 2.392094 1_555
Dy0 O0 2.392094 1_555
Dy1 O2 2.755872 1_555
Dy1 O2 2.755872 1_445
Dy1 O2 2.755872 1_545
Dy1 O2 2.755872 1_455
O0 Y0 2.165543 1_545
O0 Y0 2.165543 1_555
O1 Y1 2.165543 1_545
O1 Y1 2.165543 1_555
O2 Y1 2.599222 1_555
O2 Y0 2.599222 1_555
O3 Y0 2.165543 1_455
O3 Y0 2.165543 1_555
O4 Y1 2.165543 1_455
O4 Y1 2.165543 1_555
