# generated using pymatgen
data_La3BN2O3
_symmetry_space_group_name_H-M   'P 1'
_cell_length_a   3.71563500
_cell_length_b   11.06076400
_cell_length_c   12.74595300
_cell_angle_alpha   90.00000000
_cell_angle_beta   90.00000000
_cell_angle_gamma   90.00000000
_symmetry_Int_Tables_number   1
_chemical_formula_structural   La3BN2O3
_chemical_formula_sum   'La12 B4 N8 O12'
_cell_volume   523.83014088
_cell_formula_units_Z   4
loop_
 _symmetry_equiv_pos_site_id
 _symmetry_equiv_pos_as_xyz
  1  'x, y, z'
loop_
 _atom_site_type_symbol
 _atom_site_label
 _atom_site_symmetry_multiplicity
 _atom_site_fract_x
 _atom_site_fract_y
 _atom_site_fract_z
 _atom_site_occupancy
  La  La0  1  0.25000000  0.41751000  0.38393700  1
  La  La1  1  0.25000000  0.08249000  0.88393700  1
  La  La2  1  0.75000000  0.58249000  0.61606300  1
  La  La3  1  0.75000000  0.91751000  0.11606300  1
  La  La4  1  0.25000000  0.27529900  0.62751300  1
  La  La5  1  0.25000000  0.22470100  0.12751300  1
  La  La6  1  0.75000000  0.72470100  0.37248700  1
  La  La7  1  0.75000000  0.77529900  0.87248700  1
  La  La8  1  0.75000000  0.11123400  0.38543500  1
  La  La9  1  0.75000000  0.38876600  0.88543500  1
  La  La10  1  0.25000000  0.88876600  0.61456500  1
  La  La11  1  0.25000000  0.61123400  0.11456500  1
  B  B0  1  0.75000000  0.08156200  0.70957000  1
  B  B1  1  0.75000000  0.41843800  0.20957000  1
  B  B2  1  0.25000000  0.91843800  0.29043000  1
  B  B3  1  0.25000000  0.58156200  0.79043000  1
  N  N0  1  0.25000000  0.46748600  0.73294900  1
  N  N1  1  0.25000000  0.03251400  0.23294900  1
  N  N2  1  0.75000000  0.53251400  0.26705100  1
  N  N3  1  0.75000000  0.96748600  0.76705100  1
  N  N4  1  0.75000000  0.19961500  0.76148800  1
  N  N5  1  0.75000000  0.30038500  0.26148800  1
  N  N6  1  0.25000000  0.80038500  0.23851200  1
  N  N7  1  0.25000000  0.69961500  0.73851200  1
  O  O0  1  0.25000000  0.60972700  0.46678000  1
  O  O1  1  0.25000000  0.89027300  0.96678000  1
  O  O2  1  0.75000000  0.39027300  0.53322000  1
  O  O3  1  0.75000000  0.10972700  0.03322000  1
  O  O4  1  0.25000000  0.21070500  0.44610400  1
  O  O5  1  0.25000000  0.28929500  0.94610400  1
  O  O6  1  0.75000000  0.78929500  0.55389600  1
  O  O7  1  0.75000000  0.71070500  0.05389600  1
  O  O8  1  0.75000000  0.07861300  0.59597900  1
  O  O9  1  0.75000000  0.42138700  0.09597900  1
  O  O10  1  0.25000000  0.92138700  0.40402100  1
  O  O11  1  0.25000000  0.57861300  0.90402100  1
loop_
_geom_bond_atom_site_label_1
_geom_bond_atom_site_label_2
_geom_bond_distance
_geom_bond_site_symmetry_2
La0 O0 2.373839 1_555
La0 O4 2.420776 1_555
La0 O2 2.676325 1_455
La0 O2 2.676325 1_555
La0 N2 2.699838 1_455
La0 N2 2.699838 1_555
La0 N5 2.750575 1_455
La0 N5 2.750575 1_555
La1 O1 2.373839 1_545
La1 O5 2.420776 1_555
La1 O3 2.676325 1_556
La1 O3 2.676325 1_456
La1 N3 2.699838 1_445
La1 N3 2.699838 1_545
La1 N4 2.750575 1_455
La1 N4 2.750575 1_555
La2 O2 2.373839 1_555
La2 O6 2.420776 1_555
La2 O0 2.676325 1_555
La2 O0 2.676325 1_655
La2 N0 2.699838 1_655
La2 N0 2.699838 1_555
La2 N7 2.750575 1_655
La2 N7 2.750575 1_555
La3 O3 2.373839 1_565
La3 O7 2.420776 1_555
La3 O1 2.676325 1_654
La3 O1 2.676325 1_554
La3 N1 2.699838 1_565
La3 N1 2.699838 1_665
La3 N6 2.750575 1_655
La3 N6 2.750575 1_555
La4 O4 2.420095 1_555
La4 N0 2.514909 1_555
La4 O2 2.552090 1_555
La4 O2 2.552090 1_455
La4 N4 2.658626 1_455
La4 N4 2.658626 1_555
La4 O8 2.888914 1_455
La4 O8 2.888914 1_555
La5 O5 2.420095 1_554
La5 N1 2.514909 1_555
La5 O3 2.552090 1_455
La5 O3 2.552090 1_555
La5 N5 2.658626 1_455
La5 N5 2.658626 1_555
La5 O9 2.888914 1_555
La5 O9 2.888914 1_455
La6 O6 2.420095 1_555
La6 N2 2.514909 1_555
La6 O0 2.552090 1_555
La6 O0 2.552090 1_655
La6 N6 2.658626 1_655
La6 N6 2.658626 1_555
La6 O10 2.888914 1_555
La6 O10 2.888914 1_655
La7 O7 2.420095 1_556
La7 N3 2.514909 1_555
La7 O1 2.552090 1_555
La7 O1 2.552090 1_655
La7 N7 2.658626 1_655
La7 N7 2.658626 1_555
La7 O11 2.888914 1_555
La7 O11 2.888914 1_655
La8 O4 2.293458 1_655
La8 O4 2.293458 1_555
La8 N5 2.621631 1_555
La8 O8 2.707731 1_555
La8 O10 2.813714 1_645
La8 O10 2.813714 1_545
La8 N1 2.826148 1_655
La8 N1 2.826148 1_555
La9 O5 2.293458 1_655
La9 O5 2.293458 1_555
La9 N4 2.621631 1_555
La9 O9 2.707731 1_556
La9 O11 2.813714 1_555
La9 O11 2.813714 1_655
La9 N0 2.826148 1_555
La9 N0 2.826148 1_655
La10 O6 2.293458 1_455
La10 O6 2.293458 1_555
La10 N7 2.621631 1_555
La10 O10 2.707731 1_555
La10 O8 2.813714 1_565
La10 O8 2.813714 1_465
La10 N3 2.826148 1_555
La10 N3 2.826148 1_455
La11 O7 2.293458 1_455
La11 O7 2.293458 1_555
La11 N6 2.621631 1_555
La11 O11 2.707731 1_554
La11 O9 2.813714 1_455
La11 O9 2.813714 1_555
La11 N2 2.826148 1_555
La11 N2 2.826148 1_455
B0 O8 1.448193 1_555
B0 N3 1.459052 1_545
B0 N4 1.463867 1_555
B1 O9 1.448193 1_555
B1 N2 1.459052 1_555
B1 N5 1.463867 1_555
B2 O10 1.448193 1_555
B2 N1 1.459052 1_565
B2 N6 1.463867 1_555
B3 O11 1.448193 1_555
B3 N0 1.459052 1_555
B3 N7 1.463867 1_555
