# generated using pymatgen
data_Mg6ZrSi
_symmetry_space_group_name_H-M   'P 1'
_cell_length_a   4.82385700
_cell_length_b   6.41273100
_cell_length_c   10.84766700
_cell_angle_alpha   90.00000000
_cell_angle_beta   90.00000000
_cell_angle_gamma   90.00000000
_symmetry_Int_Tables_number   1
_chemical_formula_structural   Mg6ZrSi
_chemical_formula_sum   'Mg12 Zr2 Si2'
_cell_volume   335.56278671
_cell_formula_units_Z   2
loop_
 _symmetry_equiv_pos_site_id
 _symmetry_equiv_pos_as_xyz
  1  'x, y, z'
loop_
 _atom_site_type_symbol
 _atom_site_label
 _atom_site_symmetry_multiplicity
 _atom_site_fract_x
 _atom_site_fract_y
 _atom_site_fract_z
 _atom_site_occupancy
  Mg  Mg0  1  0.00000000  0.25157100  0.08193300  1
  Mg  Mg1  1  0.00000000  0.74842900  0.08193300  1
  Mg  Mg2  1  0.00000000  0.50000000  0.83315400  1
  Mg  Mg3  1  0.50000000  0.25450300  0.91659000  1
  Mg  Mg4  1  0.50000000  0.74549700  0.91659000  1
  Mg  Mg5  1  0.50000000  0.50000000  0.66750600  1
  Mg  Mg6  1  0.00000000  0.75157100  0.58193300  1
  Mg  Mg7  1  0.00000000  0.24842900  0.58193300  1
  Mg  Mg8  1  0.00000000  0.00000000  0.33315400  1
  Mg  Mg9  1  0.50000000  0.75450300  0.41659000  1
  Mg  Mg10  1  0.50000000  0.24549700  0.41659000  1
  Mg  Mg11  1  0.50000000  0.00000000  0.16750600  1
  Zr  Zr0  1  0.00000000  0.50000000  0.32338700  1
  Zr  Zr1  1  0.00000000  0.00000000  0.82338700  1
  Si  Si0  1  0.50000000  0.50000000  0.17890600  1
  Si  Si1  1  0.50000000  0.00000000  0.67890600  1
loop_
_geom_bond_atom_site_label_1
_geom_bond_atom_site_label_2
_geom_bond_distance
_geom_bond_site_symmetry_2
Mg0 Mg3 3.005778 1_554
Mg0 Mg3 3.005778 1_454
Mg0 Mg11 3.046585 1_455
Mg0 Mg11 3.046585 1_555
Mg0 Zr0 3.065660 1_555
Mg0 Si0 3.076029 1_555
Mg0 Si0 3.076029 1_455
Mg0 Mg2 3.133819 1_554
Mg0 Mg8 3.166876 1_555
Mg0 Mg1 3.186217 1_555
Mg0 Mg1 3.226514 1_545
Mg0 Zr1 3.235506 1_554
Mg1 Mg4 3.005778 1_554
Mg1 Mg4 3.005778 1_454
Mg1 Mg11 3.046585 1_565
Mg1 Mg11 3.046585 1_465
Mg1 Zr0 3.065660 1_555
Mg1 Si0 3.076029 1_555
Mg1 Si0 3.076029 1_455
Mg1 Mg2 3.133819 1_554
Mg1 Mg8 3.166876 1_565
Mg1 Zr1 3.235506 1_564
Mg2 Mg5 3.007695 1_455
Mg2 Mg5 3.007695 1_555
Mg2 Mg4 3.019109 1_455
Mg2 Mg4 3.019109 1_555
Mg2 Mg3 3.019109 1_555
Mg2 Mg3 3.019109 1_455
Mg2 Mg7 3.166876 1_555
Mg2 Mg6 3.166876 1_555
Mg2 Zr1 3.208115 1_555
Mg2 Zr1 3.208115 1_565
Mg3 Si1 3.051448 1_555
Mg3 Zr1 3.082727 1_555
Mg3 Zr1 3.082727 1_655
Mg3 Mg5 3.127161 1_555
Mg3 Mg4 3.148612 1_555
Mg3 Si0 3.251985 1_556
Mg3 Mg4 3.264119 1_545
Mg4 Si1 3.051448 1_565
Mg4 Zr1 3.082727 1_665
Mg4 Zr1 3.082727 1_565
Mg4 Mg5 3.127161 1_555
Mg4 Si0 3.251985 1_556
Mg5 Mg7 3.046585 1_655
Mg5 Mg6 3.046585 1_555
Mg5 Mg7 3.046585 1_555
Mg5 Mg6 3.046585 1_655
Mg5 Mg9 3.173658 1_555
Mg5 Si1 3.208749 1_555
Mg5 Si1 3.208749 1_565
Mg6 Mg9 3.005778 1_555
Mg6 Mg9 3.005778 1_455
Mg6 Zr1 3.065660 1_565
Mg6 Si1 3.076029 1_465
Mg6 Si1 3.076029 1_565
Mg6 Mg8 3.133819 1_565
Mg6 Mg7 3.186217 1_565
Mg6 Mg7 3.226514 1_555
Mg6 Zr0 3.235506 1_555
Mg7 Zr1 3.065660 1_555
Mg7 Si1 3.076029 1_455
Mg7 Si1 3.076029 1_555
Mg7 Mg8 3.133819 1_555
Mg7 Zr0 3.235506 1_555
Mg8 Mg9 3.019109 1_545
Mg8 Mg9 3.019109 1_445
Mg8 Zr0 3.208115 1_545
Mg8 Zr0 3.208115 1_555
Mg9 Si0 3.051448 1_555
Mg9 Zr0 3.082727 1_555
Mg9 Zr0 3.082727 1_655
Mg9 Si1 3.251985 1_565
Mg10 Mg7 3.005778 1_555
Mg10 Mg7 3.005778 1_655
Mg10 Mg8 3.019109 1_655
Mg10 Mg8 3.019109 1_555
Mg10 Si0 3.051448 1_555
Mg10 Zr0 3.082727 1_555
Mg10 Zr0 3.082727 1_655
Mg10 Mg11 3.127161 1_555
Mg10 Mg9 3.148612 1_545
Mg10 Mg5 3.173658 1_555
Mg10 Si1 3.251985 1_555
Mg10 Mg9 3.264119 1_555
Mg11 Mg8 3.007695 1_555
Mg11 Mg8 3.007695 1_655
Mg11 Mg9 3.127161 1_545
Mg11 Mg3 3.173658 1_554
Mg11 Mg4 3.173658 1_544
Mg11 Si0 3.208749 1_545
Mg11 Si0 3.208749 1_555
Si0 Zr0 2.876416 1_555
Si0 Zr0 2.876416 1_655
Si1 Zr1 2.876416 1_555
Si1 Zr1 2.876416 1_655
