# generated using pymatgen
data_Cr3SnS8
_symmetry_space_group_name_H-M   'P 1'
_cell_length_a   7.25928432
_cell_length_b   6.73292211
_cell_length_c   6.73887915
_cell_angle_alpha   60.18599911
_cell_angle_beta   62.47707527
_cell_angle_gamma   62.40412923
_symmetry_Int_Tables_number   1
_chemical_formula_structural   Cr3SnS8
_chemical_formula_sum   'Cr3 Sn1 S8'
_cell_volume   241.48491398
_cell_formula_units_Z   1
loop_
 _symmetry_equiv_pos_site_id
 _symmetry_equiv_pos_as_xyz
  1  'x, y, z'
loop_
 _atom_site_type_symbol
 _atom_site_label
 _atom_site_symmetry_multiplicity
 _atom_site_fract_x
 _atom_site_fract_y
 _atom_site_fract_z
 _atom_site_occupancy
  Cr  Cr0  1  0.50060000  0.50013400  0.50020800  1
  Cr  Cr1  1  0.50004200  0.50063300  0.99868800  1
  Cr  Cr2  1  0.50026700  0.99884500  0.50045600  1
  Sn  Sn0  1  0.00017100  0.49993700  0.50005200  1
  S  S0  1  0.72204000  0.76063800  0.76026300  1
  S  S1  1  0.27813700  0.23979100  0.74253200  1
  S  S2  1  0.27835800  0.74246000  0.23993800  1
  S  S3  1  0.71698100  0.26104400  0.26070900  1
  S  S4  1  0.72191500  0.25731500  0.76017400  1
  S  S5  1  0.28112200  0.73967200  0.73979100  1
  S  S6  1  0.27818600  0.23933600  0.23979000  1
  S  S7  1  0.72217400  0.76020000  0.25738700  1
loop_
_geom_bond_atom_site_label_1
_geom_bond_atom_site_label_2
_geom_bond_distance
_geom_bond_site_symmetry_2
Cr0 S3 2.358257 1_555
Cr0 S5 2.361663 1_555
Cr0 S4 2.375467 1_555
Cr0 S7 2.378759 1_555
Cr0 S2 2.381602 1_555
Cr0 S1 2.384572 1_555
Cr1 S5 2.358063 1_555
Cr1 S3 2.363069 1_556
Cr1 S4 2.375423 1_555
Cr1 S0 2.380542 1_555
Cr1 S2 2.381283 1_556
Cr1 S6 2.386004 1_556
Cr2 S5 2.361995 1_555
Cr2 S3 2.364223 1_565
Cr2 S7 2.374916 1_555
Cr2 S0 2.376991 1_555
Cr2 S1 2.381176 1_565
Cr2 S6 2.382649 1_565
S0 Sn0 2.595675 1_655
S1 Sn0 2.595489 1_555
S2 Sn0 2.598921 1_555
S4 Sn0 2.599735 1_655
S6 Sn0 2.595332 1_555
S7 Sn0 2.596475 1_655
