# generated using pymatgen
data_Eu4Bi3
_symmetry_space_group_name_H-M   'P 1'
_cell_length_a   8.58954320
_cell_length_b   8.58965120
_cell_length_c   8.58937268
_cell_angle_alpha   109.46895187
_cell_angle_beta   109.47081445
_cell_angle_gamma   109.47211886
_symmetry_Int_Tables_number   1
_chemical_formula_structural   Eu4Bi3
_chemical_formula_sum   'Eu8 Bi6'
_cell_volume   487.85939772
_cell_formula_units_Z   2
loop_
 _symmetry_equiv_pos_site_id
 _symmetry_equiv_pos_as_xyz
  1  'x, y, z'
loop_
 _atom_site_type_symbol
 _atom_site_label
 _atom_site_symmetry_multiplicity
 _atom_site_fract_x
 _atom_site_fract_y
 _atom_site_fract_z
 _atom_site_occupancy
  Eu  Eu0  1  0.64381782  0.50002034  0.00001408  1
  Eu  Eu1  1  0.50000270  0.00000066  0.64381073  1
  Eu  Eu2  1  -0.00001688  0.64380322  0.49999534  1
  Eu  Eu3  1  0.85619135  0.85618509  0.85619754  1
  Eu  Eu4  1  0.50001461  -0.00000168  0.14381009  1
  Eu  Eu5  1  0.14380920  0.50000260  -0.00000650  1
  Eu  Eu6  1  -0.00001629  0.14379693  0.49998756  1
  Eu  Eu7  1  0.35619378  0.35618711  0.35619021  1
  Bi  Bi0  1  0.87500575  0.25000877  0.12500227  1
  Bi  Bi1  1  0.62499858  0.74999758  0.37500282  1
  Bi  Bi2  1  0.24998688  0.12499370  0.87499146  1
  Bi  Bi3  1  0.75001339  0.37500761  0.62500667  1
  Bi  Bi4  1  0.12500339  0.87499527  0.25000096  1
  Bi  Bi5  1  0.37499572  0.62500381  0.74999678  1
loop_
_geom_bond_atom_site_label_1
_geom_bond_atom_site_label_2
_geom_bond_distance
_geom_bond_site_symmetry_2
Eu0 Eu3 3.809704 1_554
Eu0 Eu2 3.809771 1_655
Eu0 Eu1 3.810180 1_554
Eu1 Eu3 3.809943 1_545
Eu1 Eu2 3.810042 1_545
Eu2 Eu3 3.809879 1_455
Eu4 Eu6 3.809707 1_655
Eu4 Eu5 3.809947 1_545
Eu4 Eu7 3.810039 1_555
Eu5 Eu7 3.809933 1_555
Eu5 Eu6 3.810005 1_554
Eu6 Eu7 3.809909 1_555
Bi0 Eu4 3.313496 1_555
Bi0 Eu5 3.313506 1_655
Bi0 Eu2 3.313625 1_655
Bi0 Eu3 3.313723 1_544
Bi0 Eu6 3.558868 1_655
Bi0 Eu7 3.558970 1_655
Bi0 Eu1 3.558987 1_554
Bi0 Eu0 3.559003 1_555
Bi1 Eu0 3.313508 1_555
Bi1 Eu6 3.313519 1_665
Bi1 Eu7 3.313547 1_555
Bi1 Eu1 3.313588 1_565
Bi1 Eu2 3.558858 1_655
Bi1 Eu4 3.558887 1_565
Bi1 Eu3 3.558959 1_555
Bi1 Eu5 3.559007 1_555
Bi2 Eu3 3.313518 1_445
Bi2 Eu6 3.313526 1_555
Bi2 Eu4 3.313677 1_556
Bi2 Eu0 3.313750 1_556
Bi2 Eu7 3.558981 1_556
Bi2 Eu1 3.558995 1_555
Bi2 Eu5 3.559024 1_556
Bi2 Eu2 3.559062 1_545
Bi3 Eu2 3.313376 1_655
Bi3 Eu5 3.313454 1_656
Bi3 Eu7 3.313600 1_555
Bi3 Eu1 3.313603 1_555
Bi3 Eu6 3.558931 1_655
Bi3 Eu3 3.558998 1_555
Bi3 Eu0 3.559020 1_556
Bi3 Eu4 3.559093 1_555
Bi4 Eu3 3.313493 1_454
Bi4 Eu1 3.313547 1_565
Bi4 Eu5 3.313612 1_555
Bi4 Eu6 3.313649 1_565
Bi4 Eu2 3.558887 1_555
Bi4 Eu0 3.558910 1_455
Bi4 Eu4 3.558995 1_565
Bi4 Eu7 3.559020 1_565
Bi5 Eu0 3.313576 1_556
Bi5 Eu4 3.313597 1_566
Bi5 Eu2 3.313597 1_555
Bi5 Eu7 3.313642 1_555
Bi5 Eu5 3.558827 1_556
Bi5 Eu1 3.558879 1_565
Bi5 Eu3 3.558950 1_555
Bi5 Eu6 3.559153 1_555
