# generated using pymatgen
data_Li4Fe2Cu3Sn3O16
_symmetry_space_group_name_H-M   'P 1'
_cell_length_a   6.04514910
_cell_length_b   6.10305200
_cell_length_c   9.64526613
_cell_angle_alpha   90.01871710
_cell_angle_beta   89.66665314
_cell_angle_gamma   120.32360262
_symmetry_Int_Tables_number   1
_chemical_formula_structural   Li4Fe2Cu3Sn3O16
_chemical_formula_sum   'Li4 Fe2 Cu3 Sn3 O16'
_cell_volume   307.15966016
_cell_formula_units_Z   1
loop_
 _symmetry_equiv_pos_site_id
 _symmetry_equiv_pos_as_xyz
  1  'x, y, z'
loop_
 _atom_site_type_symbol
 _atom_site_label
 _atom_site_symmetry_multiplicity
 _atom_site_fract_x
 _atom_site_fract_y
 _atom_site_fract_z
 _atom_site_occupancy
  Li  Li0  1  0.34934400  0.67479800  0.88506400  1
  Li  Li1  1  0.96367100  0.98197400  0.99060500  1
  Li  Li2  1  0.97346800  0.98679200  0.50224000  1
  Li  Li3  1  0.67621400  0.33803500  0.39761600  1
  Fe  Fe0  1  0.33833300  0.66967500  0.49768300  1
  Fe  Fe1  1  0.67730900  0.33870100  0.98645100  1
  Cu  Cu0  1  0.66199800  0.83129600  0.21578600  1
  Cu  Cu1  1  0.83239300  0.66099900  0.71341500  1
  Cu  Cu2  1  0.83249400  0.17153800  0.71365400  1
  Sn  Sn0  1  0.17202600  0.83161100  0.21450200  1
  Sn  Sn1  1  0.17062700  0.33978600  0.21392300  1
  Sn  Sn2  1  0.34106400  0.17022000  0.71339200  1
  O  O0  1  0.16190400  0.83653300  0.59460500  1
  O  O1  1  0.03713200  0.51853500  0.34531900  1
  O  O2  1  0.34795700  0.67379100  0.09965400  1
  O  O3  1  0.98770800  0.99364200  0.31483000  1
  O  O4  1  0.97976600  0.98967900  0.80364800  1
  O  O5  1  0.16195900  0.32543200  0.59423400  1
  O  O6  1  0.48674900  0.96413000  0.34430600  1
  O  O7  1  0.48750000  0.52264100  0.34452200  1
  O  O8  1  0.32337700  0.16189500  0.09204500  1
  O  O9  1  0.65907800  0.82929000  0.60251300  1
  O  O10  1  0.52641100  0.48465300  0.84340400  1
  O  O11  1  0.52644800  0.04181900  0.84342900  1
  O  O12  1  0.68842800  0.34448000  0.60787500  1
  O  O13  1  0.83547500  0.66930400  0.09681100  1
  O  O14  1  0.96410900  0.48209700  0.83946900  1
  O  O15  1  0.83705700  0.16695300  0.09684500  1
loop_
_geom_bond_atom_site_label_1
_geom_bond_atom_site_label_2
_geom_bond_distance
_geom_bond_site_symmetry_2
Li0 O11 1.974561 1_565
Li0 O10 1.975568 1_555
Li0 O14 2.060549 1_455
Li0 O2 2.069744 1_556
Li1 O4 1.804656 1_555
Li1 O15 1.942426 1_566
Li1 O13 1.946817 1_556
Li1 O8 2.122359 1_666
Li2 O3 1.808660 1_555
Li2 O9 1.898926 1_555
Li2 O5 1.997420 1_665
Li2 O0 1.999851 1_655
Li3 O1 1.946493 1_655
Li3 O12 2.029423 1_555
Li3 O7 2.034226 1_555
Li3 O6 2.037273 1_545
Fe0 O9 1.961057 1_555
Fe0 O0 2.032963 1_555
Fe0 O5 2.036119 1_555
Fe0 O6 2.140366 1_555
Fe0 O7 2.145098 1_555
Fe0 O1 2.158747 1_555
Fe1 O13 2.044683 1_556
Fe1 O15 2.049352 1_556
Fe1 O14 2.054676 1_555
Fe1 O11 2.088560 1_555
Fe1 O10 2.089288 1_555
Fe1 O8 2.103219 1_556
Cu0 O3 1.955117 1_555
Cu0 O2 1.990993 1_555
Cu0 O6 2.041446 1_555
Cu0 O7 2.045190 1_555
Cu0 O13 2.103856 1_555
Cu0 O15 2.104961 1_565
Cu1 O4 1.943793 1_555
Cu1 O12 1.958743 1_555
Cu1 O10 2.028644 1_555
Cu1 O14 2.048014 1_555
Cu1 O0 2.061107 1_655
Cu1 O9 2.096949 1_555
Cu2 O4 1.945587 1_545
Cu2 O12 1.962822 1_555
Cu2 O11 2.027586 1_555
Cu2 O14 2.045736 1_555
Cu2 O5 2.064153 1_655
Cu2 O9 2.100375 1_545
O0 Sn2 2.102094 1_565
O1 Sn1 2.079344 1_555
O1 Sn0 2.079458 1_555
O2 Sn1 2.073732 1_555
O2 Sn0 2.075061 1_555
O3 Sn0 2.062827 1_655
O3 Sn1 2.064661 1_665
O4 Sn2 2.071391 1_665
O5 Sn2 2.107447 1_555
O6 Sn0 2.077159 1_555
O7 Sn1 2.090464 1_555
O8 Sn1 2.100501 1_555
O8 Sn0 2.102874 1_545
O10 Sn2 2.086653 1_555
O11 Sn2 2.084921 1_555
O12 Sn2 2.072942 1_555
O13 Sn0 2.097654 1_655
O15 Sn1 2.081336 1_655
