# generated using pymatgen
data_CeSiO4
_symmetry_space_group_name_H-M   'P 1'
_cell_length_a   5.89359974
_cell_length_b   5.89359974
_cell_length_c   5.89359974
_cell_angle_alpha   106.48031182
_cell_angle_beta   106.48031182
_cell_angle_gamma   115.63447404
_symmetry_Int_Tables_number   1
_chemical_formula_structural   CeSiO4
_chemical_formula_sum   'Ce2 Si2 O8'
_cell_volume   156.20476467
_cell_formula_units_Z   2
loop_
 _symmetry_equiv_pos_site_id
 _symmetry_equiv_pos_as_xyz
  1  'x, y, z'
loop_
 _atom_site_type_symbol
 _atom_site_label
 _atom_site_symmetry_multiplicity
 _atom_site_fract_x
 _atom_site_fract_y
 _atom_site_fract_z
 _atom_site_occupancy
  Ce  Ce0  1  0.50000000  0.50000000  0.00000000  1
  Ce  Ce1  1  0.75000000  0.25000000  0.50000000  1
  Si  Si0  1  0.00000000  0.00000000  0.00000000  1
  Si  Si1  1  0.25000000  0.75000000  0.50000000  1
  O  O0  1  0.83081500  0.65203200  0.82121600  1
  O  O1  1  0.25959900  0.58081500  0.67878400  1
  O  O2  1  0.90203200  0.58081500  0.32121600  1
  O  O3  1  0.83081500  0.00959900  0.17878400  1
  O  O4  1  0.99040100  0.16918500  0.82121600  1
  O  O5  1  0.41918500  0.09796800  0.67878400  1
  O  O6  1  0.41918500  0.74040100  0.32121600  1
  O  O7  1  0.34796800  0.16918500  0.17878400  1
loop_
_geom_bond_atom_site_label_1
_geom_bond_atom_site_label_2
_geom_bond_distance
_geom_bond_site_symmetry_2
Ce0 O1 2.322028 1_554
Ce0 O6 2.322028 1_555
Ce0 O5 2.322032 1_554
Ce0 O2 2.322032 1_555
Ce0 O3 2.429828 1_565
Ce0 O4 2.429828 1_454
Ce0 O7 2.429829 1_555
Ce0 O0 2.429829 1_554
Ce1 O3 2.322028 1_555
Ce1 O4 2.322028 1_555
Ce1 O0 2.322032 1_555
Ce1 O7 2.322032 1_555
Ce1 O1 2.429828 1_655
Ce1 O6 2.429828 1_545
Ce1 O2 2.429829 1_555
Ce1 O5 2.429829 1_555
O0 Si0 1.648861 1_666
O1 Si1 1.648866 1_555
O2 Si1 1.648861 1_655
O3 Si0 1.648866 1_655
O4 Si0 1.648866 1_656
O5 Si1 1.648861 1_545
O6 Si1 1.648866 1_555
O7 Si0 1.648861 1_555
