# generated using pymatgen
data_Na2Ni(SO7)2
_symmetry_space_group_name_H-M   'P 1'
_cell_length_a   5.64472950
_cell_length_b   8.22913103
_cell_length_c   11.39540600
_cell_angle_alpha   90.00000000
_cell_angle_beta   90.00000000
_cell_angle_gamma   103.92347541
_symmetry_Int_Tables_number   1
_chemical_formula_structural   Na2Ni(SO7)2
_chemical_formula_sum   'Na4 Ni2 S4 O28'
_cell_volume   513.77769284
_cell_formula_units_Z   2
loop_
 _symmetry_equiv_pos_site_id
 _symmetry_equiv_pos_as_xyz
  1  'x, y, z'
loop_
 _atom_site_type_symbol
 _atom_site_label
 _atom_site_symmetry_multiplicity
 _atom_site_fract_x
 _atom_site_fract_y
 _atom_site_fract_z
 _atom_site_occupancy
  Na  Na0  1  0.84520200  0.63806400  0.15967700  1
  Na  Na1  1  0.15479800  0.36193600  0.84032300  1
  Na  Na2  1  0.15479800  0.86193600  0.65967700  1
  Na  Na3  1  0.84520200  0.13806400  0.34032300  1
  Ni  Ni0  1  0.50000000  0.00000000  0.00000000  1
  Ni  Ni1  1  0.50000000  0.50000000  0.50000000  1
  S  S0  1  0.77179200  0.59028600  0.86260200  1
  S  S1  1  0.22820800  0.40971400  0.13739800  1
  S  S2  1  0.22820800  0.90971400  0.36260200  1
  S  S3  1  0.77179200  0.09028600  0.63739800  1
  O  O0  1  0.85751200  0.73042400  0.95126400  1
  O  O1  1  0.14248800  0.26957600  0.04873600  1
  O  O2  1  0.14248800  0.76957600  0.45126400  1
  O  O3  1  0.85751200  0.23042400  0.54873600  1
  O  O4  1  0.94563300  0.61231000  0.76344900  1
  O  O5  1  0.05436700  0.38769000  0.23655100  1
  O  O6  1  0.05436700  0.88769000  0.26344900  1
  O  O7  1  0.94563300  0.11231000  0.73655100  1
  O  O8  1  0.76864400  0.93378600  0.57352300  1
  O  O9  1  0.23135600  0.06621400  0.42647700  1
  O  O10  1  0.23135600  0.56621400  0.07352300  1
  O  O11  1  0.76864400  0.43378600  0.92647700  1
  O  O12  1  0.40651100  0.63204300  0.60908200  1
  O  O13  1  0.59348900  0.36795700  0.39091800  1
  O  O14  1  0.59348900  0.86795700  0.10908200  1
  O  O15  1  0.40651100  0.13204300  0.89091800  1
  O  O16  1  0.52442000  0.59505500  0.82109800  1
  O  O17  1  0.47558000  0.40494500  0.17890200  1
  O  O18  1  0.47558000  0.90494500  0.32109800  1
  O  O19  1  0.52442000  0.09505500  0.67890200  1
  O  O20  1  0.79896800  0.99923400  0.93825700  1
  O  O21  1  0.20103200  0.00076600  0.06174300  1
  O  O22  1  0.20103200  0.50076600  0.43825700  1
  O  O23  1  0.79896800  0.49923400  0.56174300  1
  O  O24  1  0.31660800  0.87111400  0.88825000  1
  O  O25  1  0.68339200  0.12888600  0.11175000  1
  O  O26  1  0.68339200  0.62888600  0.38825000  1
  O  O27  1  0.31660800  0.37111400  0.61175000  1
loop_
_geom_bond_atom_site_label_1
_geom_bond_atom_site_label_2
_geom_bond_distance
_geom_bond_site_symmetry_2
Na0 O6 2.417627 1_655
Na0 O17 2.480936 1_555
Na0 O0 2.489471 1_554
Na0 O10 2.585522 1_655
Na0 O14 2.687715 1_555
Na0 O5 2.752669 1_655
Na0 O26 2.755200 1_555
Na1 O7 2.417627 1_455
Na1 O16 2.480936 1_555
Na1 O1 2.489471 1_556
Na1 O11 2.585522 1_455
Na1 O15 2.687715 1_555
Na1 O4 2.752669 1_455
Na1 O27 2.755200 1_555
Na2 O4 2.417627 1_455
Na2 O19 2.480936 1_565
Na2 O2 2.489471 1_555
Na2 O8 2.585522 1_455
Na2 O12 2.687715 1_555
Na2 O7 2.752669 1_465
Na2 O24 2.755200 1_555
Na3 O5 2.417627 1_655
Na3 O18 2.480936 1_545
Na3 O3 2.489471 1_555
Na3 O9 2.585522 1_655
Na3 O13 2.687715 1_555
Na3 O6 2.752669 1_645
Na3 O25 2.755200 1_555
Ni0 O14 1.811154 1_545
Ni0 O15 1.811154 1_554
Ni0 O25 1.813780 1_555
Ni0 O24 1.813780 1_544
Ni0 O20 1.829799 1_544
Ni0 O21 1.829799 1_555
Ni1 O13 1.811154 1_555
Ni1 O12 1.811154 1_555
Ni1 O26 1.813780 1_555
Ni1 O27 1.813780 1_555
Ni1 O22 1.829799 1_555
Ni1 O23 1.829799 1_555
O0 S0 1.521932 1_555
O1 S1 1.521932 1_555
O2 S2 1.521932 1_555
O3 S3 1.521932 1_555
O4 S0 1.478793 1_555
O5 S1 1.478793 1_555
O6 S2 1.478793 1_555
O7 S3 1.478793 1_555
O8 S3 1.475701 1_565
O9 S2 1.475701 1_545
O10 S1 1.475701 1_555
O11 S0 1.475701 1_555
O16 S0 1.483707 1_555
O17 S1 1.483707 1_555
O18 S2 1.483707 1_555
O19 S3 1.483707 1_555
