# generated using pymatgen
data_Cu4H18C6S3I4
_symmetry_space_group_name_H-M   'P 1'
_cell_length_a   16.36115601
_cell_length_b   16.36115601
_cell_length_c   11.10007300
_cell_angle_alpha   90.00000000
_cell_angle_beta   90.00000000
_cell_angle_gamma   132.22552980
_symmetry_Int_Tables_number   1
_chemical_formula_structural   Cu4H18C6S3I4
_chemical_formula_sum   'Cu16 H72 C24 S12 I16'
_cell_volume   2200.30015665
_cell_formula_units_Z   4
loop_
 _symmetry_equiv_pos_site_id
 _symmetry_equiv_pos_as_xyz
  1  'x, y, z'
loop_
 _atom_site_type_symbol
 _atom_site_label
 _atom_site_symmetry_multiplicity
 _atom_site_fract_x
 _atom_site_fract_y
 _atom_site_fract_z
 _atom_site_occupancy
  Cu  Cu0  1  0.42393300  0.57606700  0.88231500  1
  Cu  Cu1  1  0.57606700  0.42393300  0.11768500  1
  Cu  Cu2  1  0.07606700  0.92393300  0.38231500  1
  Cu  Cu3  1  0.92393300  0.07606700  0.61768500  1
  Cu  Cu4  1  0.43214000  0.56786000  0.14079300  1
  Cu  Cu5  1  0.56786000  0.43214000  0.85920700  1
  Cu  Cu6  1  0.06786000  0.93214000  0.64079300  1
  Cu  Cu7  1  0.93214000  0.06786000  0.35920700  1
  Cu  Cu8  1  0.25091400  0.53996400  0.16399600  1
  Cu  Cu9  1  0.53996400  0.25091400  0.83600400  1
  Cu  Cu10  1  0.03996400  0.75091400  0.66399600  1
  Cu  Cu11  1  0.75091400  0.03996400  0.33600400  1
  Cu  Cu12  1  0.74908600  0.46003600  0.83600400  1
  Cu  Cu13  1  0.46003600  0.74908600  0.16399600  1
  Cu  Cu14  1  0.96003600  0.24908600  0.33600400  1
  Cu  Cu15  1  0.24908600  0.96003600  0.66399600  1
  H  H0  1  0.62328200  0.58051700  0.62450500  1
  H  H1  1  0.58051700  0.62328200  0.37549500  1
  H  H2  1  0.08051700  0.12328200  0.12450500  1
  H  H3  1  0.12328200  0.08051700  0.87549500  1
  H  H4  1  0.37671800  0.41948300  0.37549500  1
  H  H5  1  0.41948300  0.37671800  0.62450500  1
  H  H6  1  0.91948300  0.87671800  0.87549500  1
  H  H7  1  0.87671800  0.91948300  0.12450500  1
  H  H8  1  0.66353700  0.68155900  0.73485700  1
  H  H9  1  0.68155900  0.66353700  0.26514300  1
  H  H10  1  0.18155900  0.16353700  0.23485700  1
  H  H11  1  0.16353700  0.18155900  0.76514300  1
  H  H12  1  0.33646300  0.31844100  0.26514300  1
  H  H13  1  0.31844100  0.33646300  0.73485700  1
  H  H14  1  0.81844100  0.83646300  0.76514300  1
  H  H15  1  0.83646300  0.81844100  0.23485700  1
  H  H16  1  0.55735400  0.63525600  0.62863800  1
  H  H17  1  0.63525600  0.55735400  0.37136200  1
  H  H18  1  0.13525600  0.05735400  0.12863800  1
  H  H19  1  0.05735400  0.13525600  0.87136200  1
  H  H20  1  0.44264600  0.36474400  0.37136200  1
  H  H21  1  0.36474400  0.44264600  0.62863800  1
  H  H22  1  0.86474400  0.94264600  0.87136200  1
  H  H23  1  0.94264600  0.86474400  0.12863800  1
  H  H24  1  0.40411200  0.77710100  0.65643100  1
  H  H25  1  0.77710100  0.40411200  0.34356900  1
  H  H26  1  0.27710100  0.90411200  0.15643100  1
  H  H27  1  0.90411200  0.27710100  0.84356900  1
  H  H28  1  0.59588800  0.22289900  0.34356900  1
  H  H29  1  0.22289900  0.59588800  0.65643100  1
  H  H30  1  0.72289900  0.09588800  0.84356900  1
  H  H31  1  0.09588800  0.72289900  0.15643100  1
  H  H32  1  0.53017700  0.81384800  0.70147800  1
  H  H33  1  0.81384800  0.53017700  0.29852200  1
  H  H34  1  0.31384800  0.03017700  0.20147800  1
  H  H35  1  0.03017700  0.31384800  0.79852200  1
  H  H36  1  0.46982300  0.18615200  0.29852200  1
  H  H37  1  0.18615200  0.46982300  0.70147800  1
  H  H38  1  0.68615200  0.96982300  0.79852200  1
  H  H39  1  0.96982300  0.68615200  0.20147800  1
  H  H40  1  0.43503700  0.78587500  0.81427900  1
  H  H41  1  0.78587500  0.43503700  0.18572100  1
  H  H42  1  0.28587500  0.93503700  0.31427900  1
  H  H43  1  0.93503700  0.28587500  0.68572100  1
  H  H44  1  0.56496300  0.21412500  0.18572100  1
  H  H45  1  0.21412500  0.56496300  0.81427900  1
  H  H46  1  0.71412500  0.06496300  0.68572100  1
  H  H47  1  0.06496300  0.71412500  0.31427900  1
  H  H48  1  0.90296200  0.36765000  0.18169200  1
  H  H49  1  0.36765000  0.90296200  0.81830800  1
  H  H50  1  0.86765000  0.40296200  0.68169200  1
  H  H51  1  0.40296200  0.86765000  0.31830800  1
  H  H52  1  0.09703800  0.63235000  0.81830800  1
  H  H53  1  0.63235000  0.09703800  0.18169200  1
  H  H54  1  0.13235000  0.59703800  0.31830800  1
  H  H55  1  0.59703800  0.13235000  0.68169200  1
  H  H56  1  0.98089500  0.37373400  0.06294300  1
  H  H57  1  0.37373400  0.98089500  0.93705700  1
  H  H58  1  0.87373400  0.48089500  0.56294300  1
  H  H59  1  0.48089500  0.87373400  0.43705700  1
  H  H60  1  0.01910500  0.62626600  0.93705700  1
  H  H61  1  0.62626600  0.01910500  0.06294300  1
  H  H62  1  0.12626600  0.51910500  0.43705700  1
  H  H63  1  0.51910500  0.12626600  0.56294300  1
  H  H64  1  0.02152700  0.49946100  0.11840400  1
  H  H65  1  0.49946100  0.02152700  0.88159600  1
  H  H66  1  0.99946100  0.52152700  0.61840400  1
  H  H67  1  0.52152800  0.99946100  0.38159600  1
  H  H68  1  0.97847300  0.50053900  0.88159600  1
  H  H69  1  0.50053900  0.97847300  0.11840400  1
  H  H70  1  0.00053900  0.47847300  0.38159600  1
  H  H71  1  0.47847300  0.00053900  0.61840400  1
  C  C0  1  0.59487000  0.61158700  0.68191200  1
  C  C1  1  0.61158700  0.59487000  0.31808800  1
  C  C2  1  0.11158700  0.09487000  0.18191200  1
  C  C3  1  0.09487000  0.11158700  0.81808800  1
  C  C4  1  0.40513000  0.38841300  0.31808800  1
  C  C5  1  0.38841300  0.40513000  0.68191200  1
  C  C6  1  0.88841300  0.90513000  0.81808800  1
  C  C7  1  0.90513000  0.88841300  0.18191200  1
  C  C8  1  0.44324500  0.76453000  0.72435800  1
  C  C9  1  0.76453000  0.44324500  0.27564200  1
  C  C10  1  0.26453000  0.94324500  0.22435800  1
  C  C11  1  0.94324500  0.26453000  0.77564200  1
  C  C12  1  0.55675500  0.23547000  0.27564200  1
  C  C13  1  0.23547000  0.55675500  0.72435800  1
  C  C14  1  0.73547000  0.05675500  0.77564200  1
  C  C15  1  0.05675500  0.73547000  0.22435800  1
  C  C16  1  0.98512800  0.41596800  0.14207300  1
  C  C17  1  0.41596800  0.98512800  0.85792700  1
  C  C18  1  0.91596800  0.48512800  0.64207300  1
  C  C19  1  0.48512800  0.91596800  0.35792700  1
  C  C20  1  0.01487200  0.58403200  0.85792700  1
  C  C21  1  0.58403200  0.01487200  0.14207300  1
  C  C22  1  0.08403200  0.51487200  0.35792700  1
  C  C23  1  0.51487200  0.08403200  0.64207300  1
  S  S0  1  0.49469400  0.50530600  0.78826700  1
  S  S1  1  0.50530600  0.49469400  0.21173300  1
  S  S2  1  0.00530600  0.99469400  0.28826700  1
  S  S3  1  0.99469400  0.00530600  0.71173300  1
  S  S4  1  0.37830800  0.62169200  0.71826100  1
  S  S5  1  0.62169200  0.37830800  0.28173900  1
  S  S6  1  0.12169200  0.87830800  0.21826100  1
  S  S7  1  0.87830800  0.12169200  0.78173900  1
  S  S8  1  0.07426500  0.42573500  0.25000000  1
  S  S9  1  0.42573500  0.07426500  0.75000000  1
  S  S10  1  0.92573500  0.57426500  0.75000000  1
  S  S11  1  0.57426500  0.92573500  0.25000000  1
  I  I0  1  0.25152400  0.41595400  0.01112000  1
  I  I1  1  0.41595400  0.25152400  0.98888000  1
  I  I2  1  0.91595400  0.75152400  0.51112000  1
  I  I3  1  0.75152400  0.91595400  0.48888000  1
  I  I4  1  0.74847600  0.58404600  0.98888000  1
  I  I5  1  0.58404600  0.74847600  0.01112000  1
  I  I6  1  0.08404600  0.24847600  0.48888000  1
  I  I7  1  0.24847600  0.08404600  0.51112000  1
  I  I8  1  0.38652700  0.61347300  0.35253000  1
  I  I9  1  0.61347300  0.38652700  0.64747000  1
  I  I10  1  0.11347300  0.88652700  0.85253000  1
  I  I11  1  0.88652700  0.11347300  0.14747000  1
  I  I12  1  0.29048500  0.70951500  0.06125000  1
  I  I13  1  0.70951500  0.29048500  0.93875000  1
  I  I14  1  0.20951500  0.79048500  0.56125000  1
  I  I15  1  0.79048500  0.20951500  0.43875000  1
loop_
_geom_bond_atom_site_label_1
_geom_bond_atom_site_label_2
_geom_bond_distance
_geom_bond_site_symmetry_2
Cu0 S4 2.275854 1_555
Cu0 S0 2.360519 1_555
Cu0 I5 2.632755 1_556
Cu0 I0 2.632755 1_556
Cu1 S5 2.275854 1_555
Cu1 S1 2.360519 1_555
Cu1 I4 2.632755 1_554
Cu1 I1 2.632755 1_554
Cu2 S6 2.275854 1_555
Cu2 S2 2.360519 1_555
Cu2 I7 2.632755 1_565
Cu2 I2 2.632755 1_455
Cu3 S7 2.275854 1_555
Cu3 S3 2.360519 1_555
Cu3 I6 2.632755 1_655
Cu3 I3 2.632755 1_545
Cu4 S1 2.326405 1_555
Cu4 I5 2.666397 1_555
Cu4 I0 2.666397 1_555
Cu4 I8 2.717783 1_555
Cu5 S0 2.326405 1_555
Cu5 I4 2.666397 1_555
Cu5 I1 2.666397 1_555
Cu5 I9 2.717783 1_555
Cu6 S3 2.326405 1_465
Cu6 I7 2.666397 1_565
Cu6 I2 2.666397 1_455
Cu6 I10 2.717783 1_555
Cu7 S2 2.326405 1_645
Cu7 I6 2.666397 1_655
Cu7 I3 2.666397 1_545
Cu7 I11 2.717783 1_555
Cu8 S8 2.344607 1_555
Cu8 I12 2.645984 1_555
Cu8 I0 2.650194 1_555
Cu8 I8 2.676245 1_555
Cu9 S9 2.344607 1_555
Cu9 I13 2.645984 1_555
Cu9 I1 2.650194 1_555
Cu9 I9 2.676245 1_555
Cu10 S10 2.344607 1_455
Cu10 I14 2.645984 1_555
Cu10 I2 2.650194 1_455
Cu10 I10 2.676245 1_555
Cu11 S11 2.344607 1_545
Cu11 I15 2.645984 1_555
Cu11 I3 2.650194 1_545
Cu11 I11 2.676245 1_555
Cu12 S10 2.344607 1_555
Cu12 I13 2.645984 1_555
Cu12 I4 2.650194 1_555
Cu12 I9 2.676245 1_555
Cu13 S11 2.344607 1_555
Cu13 I12 2.645984 1_555
Cu13 I5 2.650194 1_555
Cu13 I8 2.676245 1_555
Cu14 S8 2.344607 1_655
Cu14 I15 2.645984 1_555
Cu14 I6 2.650194 1_655
Cu14 I11 2.676245 1_555
Cu15 S9 2.344607 1_565
Cu15 I14 2.645984 1_555
Cu15 I7 2.650194 1_565
Cu15 I10 2.676245 1_555
C0 H8 1.090615 1_555
C0 H16 1.093572 1_555
C0 H0 1.094608 1_555
C0 S0 1.809142 1_555
C1 H9 1.090615 1_555
C1 H17 1.093572 1_555
C1 H1 1.094608 1_555
C1 S1 1.809142 1_555
C2 H10 1.090615 1_555
C2 H18 1.093572 1_555
C2 H2 1.094608 1_555
C2 S2 1.809142 1_545
C3 H11 1.090615 1_555
C3 H19 1.093572 1_555
C3 H3 1.094608 1_555
C3 S3 1.809142 1_455
C4 H12 1.090615 1_555
C4 H20 1.093572 1_555
C4 H4 1.094608 1_555
C4 S1 1.809142 1_555
C5 H13 1.090615 1_555
C5 H21 1.093572 1_555
C5 H5 1.094608 1_555
C5 S0 1.809142 1_555
C6 H14 1.090615 1_555
C6 H22 1.093572 1_555
C6 H6 1.094608 1_555
C6 S3 1.809142 1_565
C7 H15 1.090615 1_555
C7 H23 1.093572 1_555
C7 H7 1.094608 1_555
C7 S2 1.809142 1_655
C8 H32 1.093607 1_555
C8 H24 1.094415 1_555
C8 H40 1.095123 1_555
C8 S4 1.804884 1_555
C9 H33 1.093607 1_555
C9 H25 1.094415 1_555
C9 H41 1.095123 1_555
C9 S5 1.804884 1_555
C10 H34 1.093607 1_565
C10 H26 1.094415 1_555
C10 H42 1.095123 1_555
C10 S6 1.804884 1_555
C11 H35 1.093607 1_655
C11 H27 1.094415 1_555
C11 H43 1.095123 1_555
C11 S7 1.804884 1_555
C12 H36 1.093607 1_555
C12 H28 1.094415 1_555
C12 H44 1.095123 1_555
C12 S5 1.804884 1_555
C13 H37 1.093607 1_555
C13 H29 1.094415 1_555
C13 H45 1.095123 1_555
C13 S4 1.804884 1_555
C14 H38 1.093607 1_545
C14 H30 1.094415 1_555
C14 H46 1.095123 1_555
C14 S7 1.804884 1_555
C15 H39 1.093607 1_455
C15 H31 1.094415 1_555
C15 H47 1.095123 1_555
C15 S6 1.804884 1_555
C16 H56 1.090617 1_555
C16 H64 1.093755 1_655
C16 H48 1.094139 1_555
C16 S8 1.809524 1_655
C17 H57 1.090617 1_555
C17 H65 1.093755 1_565
C17 H49 1.094139 1_555
C17 S9 1.809524 1_565
C18 H58 1.090617 1_555
C18 H66 1.093755 1_555
C18 H50 1.094139 1_555
C18 S10 1.809524 1_555
C19 H59 1.090617 1_555
C19 H67 1.093751 1_555
C19 H51 1.094139 1_555
C19 S11 1.809524 1_555
C20 H60 1.090617 1_555
C20 H68 1.093755 1_455
C20 H52 1.094139 1_555
C20 S10 1.809524 1_455
C21 H61 1.090617 1_555
C21 H69 1.093755 1_545
C21 H53 1.094139 1_555
C21 S11 1.809524 1_545
C22 H62 1.090617 1_555
C22 H70 1.093755 1_555
C22 H54 1.094139 1_555
C22 S8 1.809524 1_555
C23 H63 1.090617 1_555
C23 H71 1.093755 1_555
C23 H55 1.094139 1_555
C23 S9 1.809524 1_555
