# generated using pymatgen
data_RbSi2O5
_symmetry_space_group_name_H-M   'P 1'
_cell_length_a   4.90506000
_cell_length_b   8.36219900
_cell_length_c   12.07167900
_cell_angle_alpha   90.00000000
_cell_angle_beta   90.00000000
_cell_angle_gamma   90.00000000
_symmetry_Int_Tables_number   1
_chemical_formula_structural   RbSi2O5
_chemical_formula_sum   'Rb4 Si8 O20'
_cell_volume   495.14511776
_cell_formula_units_Z   4
loop_
 _symmetry_equiv_pos_site_id
 _symmetry_equiv_pos_as_xyz
  1  'x, y, z'
loop_
 _atom_site_type_symbol
 _atom_site_label
 _atom_site_symmetry_multiplicity
 _atom_site_fract_x
 _atom_site_fract_y
 _atom_site_fract_z
 _atom_site_occupancy
  Rb  Rb0  1  0.96526300  0.75000000  0.96970600  1
  Rb  Rb1  1  0.53473700  0.75000000  0.46970600  1
  Rb  Rb2  1  0.03473700  0.25000000  0.03029400  1
  Rb  Rb3  1  0.46526300  0.25000000  0.53029400  1
  Si  Si0  1  0.99685400  0.56133800  0.68426100  1
  Si  Si1  1  0.50314600  0.93866200  0.18426100  1
  Si  Si2  1  0.00314600  0.06133800  0.31573900  1
  Si  Si3  1  0.49685400  0.43866200  0.81573900  1
  Si  Si4  1  0.00314600  0.43866200  0.31573900  1
  Si  Si5  1  0.49685400  0.06133800  0.81573900  1
  Si  Si6  1  0.99685400  0.93866200  0.68426100  1
  Si  Si7  1  0.50314600  0.56133800  0.18426100  1
  O  O0  1  0.26970300  0.45609900  0.71510500  1
  O  O1  1  0.23029700  0.04390100  0.21510500  1
  O  O2  1  0.73029700  0.95609900  0.28489500  1
  O  O3  1  0.76970300  0.54390100  0.78489500  1
  O  O4  1  0.73029700  0.54390100  0.28489500  1
  O  O5  1  0.76970300  0.95609900  0.78489500  1
  O  O6  1  0.26970300  0.04390100  0.71510500  1
  O  O7  1  0.23029700  0.45609900  0.21510500  1
  O  O8  1  0.84999900  0.50068900  0.57139900  1
  O  O9  1  0.65000100  0.99931100  0.07139900  1
  O  O10  1  0.15000100  0.00068900  0.42860100  1
  O  O11  1  0.34999900  0.49931100  0.92860100  1
  O  O12  1  0.15000100  0.49931100  0.42860100  1
  O  O13  1  0.34999900  0.00068900  0.92860100  1
  O  O14  1  0.84999900  0.99931100  0.57139900  1
  O  O15  1  0.65000100  0.50068900  0.07139900  1
  O  O16  1  0.09440300  0.75000000  0.68368500  1
  O  O17  1  0.40559700  0.75000000  0.18368500  1
  O  O18  1  0.90559700  0.25000000  0.31631500  1
  O  O19  1  0.59440300  0.25000000  0.81631500  1
loop_
_geom_bond_atom_site_label_1
_geom_bond_atom_site_label_2
_geom_bond_distance
_geom_bond_site_symmetry_2
O0 Si0 1.644459 1_455
O0 Si3 1.654832 1_555
O0 Rb3 2.977859 1_555
O1 Si1 1.644459 1_545
O1 Si2 1.654832 1_555
O1 Rb2 2.977859 1_555
O2 Si2 1.644459 1_665
O2 Si1 1.654832 1_555
O2 Rb1 2.977859 1_555
O3 Si3 1.644459 1_555
O3 Si0 1.654832 1_555
O3 Rb0 2.977859 1_555
O4 Si4 1.644459 1_655
O4 Si7 1.654832 1_555
O4 Rb1 2.977859 1_555
O5 Si5 1.644459 1_565
O5 Si6 1.654832 1_555
O5 Rb0 2.977859 1_555
O6 Si6 1.644459 1_445
O6 Si5 1.654832 1_555
O6 Rb3 2.977859 1_555
O7 Si7 1.644459 1_555
O7 Si4 1.654832 1_555
O7 Rb2 2.977859 1_555
O8 Si0 1.622441 1_555
O8 Rb3 2.863929 1_555
O8 Rb1 2.871349 1_555
O9 Si1 1.622441 1_555
O9 Rb2 2.863929 1_665
O9 Rb0 2.871349 1_554
O10 Si2 1.622441 1_555
O10 Rb1 2.863929 1_545
O10 Rb3 2.871349 1_555
O11 Si3 1.622441 1_555
O11 Rb0 2.863929 1_455
O11 Rb2 2.871349 1_556
O12 Si4 1.622441 1_555
O12 Rb1 2.863929 1_555
O12 Rb3 2.871349 1_555
O13 Si5 1.622441 1_555
O13 Rb0 2.863929 1_445
O13 Rb2 2.871349 1_556
O14 Si6 1.622441 1_555
O14 Rb3 2.863929 1_565
O14 Rb1 2.871349 1_555
O15 Si7 1.622441 1_555
O15 Rb2 2.863929 1_655
O15 Rb0 2.871349 1_554
O16 Si6 1.648608 1_455
O16 Si0 1.648608 1_455
O16 Rb1 3.367098 1_555
O17 Si1 1.648608 1_555
O17 Si7 1.648608 1_555
O17 Rb0 3.367098 1_454
O18 Si2 1.648608 1_655
O18 Si4 1.648608 1_655
O18 Rb3 3.367098 1_555
O19 Si5 1.648608 1_555
O19 Si3 1.648608 1_555
O19 Rb2 3.367098 1_656
