# generated using pymatgen
data_Li8MnFe7(PO4)12
_symmetry_space_group_name_H-M   'P 1'
_cell_length_a   8.65073400
_cell_length_b   8.79167474
_cell_length_c   12.19299782
_cell_angle_alpha   90.06922022
_cell_angle_beta   90.02216553
_cell_angle_gamma   90.08953778
_symmetry_Int_Tables_number   1
_chemical_formula_structural   Li8MnFe7(PO4)12
_chemical_formula_sum   'Li8 Mn1 Fe7 P12 O48'
_cell_volume   927.32973643
_cell_formula_units_Z   1
loop_
 _symmetry_equiv_pos_site_id
 _symmetry_equiv_pos_as_xyz
  1  'x, y, z'
loop_
 _atom_site_type_symbol
 _atom_site_label
 _atom_site_symmetry_multiplicity
 _atom_site_fract_x
 _atom_site_fract_y
 _atom_site_fract_z
 _atom_site_occupancy
  Li  Li0  1  0.21697800  0.27808500  0.81852200  1
  Li  Li1  1  0.21716500  0.22237300  0.18128500  1
  Li  Li2  1  0.28368600  0.77768600  0.68069300  1
  Li  Li3  1  0.28257300  0.72167100  0.31868400  1
  Li  Li4  1  0.71683700  0.27782800  0.68112500  1
  Li  Li5  1  0.71617000  0.22019100  0.31909400  1
  Li  Li6  1  0.78289800  0.77783200  0.81852300  1
  Li  Li7  1  0.78361500  0.72233200  0.18095700  1
  Mn  Mn0  1  0.75258000  0.53847700  0.38837700  1
  Fe  Fe0  1  0.24776600  0.04142200  0.38701900  1
  Fe  Fe1  1  0.25020800  0.45901000  0.61309600  1
  Fe  Fe2  1  0.25023100  0.95856200  0.88661900  1
  Fe  Fe3  1  0.24991100  0.54121500  0.11399000  1
  Fe  Fe4  1  0.75002200  0.45900200  0.88714400  1
  Fe  Fe5  1  0.74975900  0.04055000  0.11312200  1
  Fe  Fe6  1  0.75076300  0.96061000  0.61383100  1
  P  P0  1  0.03731200  0.74918000  0.49970800  1
  P  P1  1  0.46043500  0.25011100  0.00007000  1
  P  P2  1  0.54010600  0.74983200  0.99972600  1
  P  P3  1  0.95958800  0.25256000  0.50064000  1
  P  P4  1  0.10607200  0.60679900  0.85299300  1
  P  P5  1  0.10617100  0.89336900  0.14733200  1
  P  P6  1  0.39591800  0.39571000  0.35353500  1
  P  P7  1  0.39370100  0.10732700  0.64689200  1
  P  P8  1  0.60547900  0.89066200  0.35479000  1
  P  P9  1  0.60768900  0.60673800  0.64544500  1
  P  P10  1  0.89381500  0.39288900  0.14968400  1
  P  P11  1  0.89411100  0.10727200  0.85315000  1
  O  O0  1  0.05523900  0.36042100  0.57081300  1
  O  O1  1  0.05405400  0.14575300  0.42756400  1
  O  O2  1  0.07297500  0.10463600  0.84395400  1
  O  O3  1  0.07225900  0.39595200  0.15791700  1
  O  O4  1  0.14590400  0.83578400  0.41962700  1
  O  O5  1  0.14700200  0.66190800  0.57820900  1
  O  O6  1  0.15653100  0.56648200  0.96978100  1
  O  O7  1  0.15683400  0.93382200  0.03063200  1
  O  O8  1  0.16312300  0.76712100  0.81921700  1
  O  O9  1  0.16289300  0.73303600  0.18071900  1
  O  O10  1  0.17387500  0.48600500  0.77380900  1
  O  O11  1  0.17410600  0.01474800  0.22670700  1
  O  O12  1  0.32618300  0.98579300  0.72612700  1
  O  O13  1  0.32778400  0.51529500  0.27406600  1
  O  O14  1  0.34309900  0.23369900  0.31956100  1
  O  O15  1  0.33662600  0.26725000  0.68047700  1
  O  O16  1  0.34582000  0.43467400  0.46991500  1
  O  O17  1  0.34283100  0.06611900  0.53008400  1
  O  O18  1  0.35068800  0.16282300  0.92102200  1
  O  O19  1  0.35086000  0.33730700  0.07889800  1
  O  O20  1  0.42703900  0.89297300  0.34385600  1
  O  O21  1  0.42893300  0.60450100  0.65405100  1
  O  O22  1  0.44345100  0.85768200  0.92936000  1
  O  O23  1  0.44298600  0.64222500  0.07034900  1
  O  O24  1  0.55708200  0.35741400  0.92904500  1
  O  O25  1  0.55702000  0.14253300  0.07086300  1
  O  O26  1  0.57748400  0.39759900  0.34371500  1
  O  O27  1  0.57255400  0.10463400  0.65629800  1
  O  O28  1  0.64904900  0.66249700  0.92063300  1
  O  O29  1  0.64926500  0.83684600  0.07926200  1
  O  O30  1  0.65626300  0.93205700  0.47042900  1
  O  O31  1  0.65545700  0.56392300  0.52643000  1
  O  O32  1  0.66487500  0.76661600  0.67871200  1
  O  O33  1  0.66338600  0.72724100  0.32164800  1
  O  O34  1  0.67606400  0.48579400  0.72398100  1
  O  O35  1  0.67473900  0.00900300  0.27415900  1
  O  O36  1  0.82594100  0.98611300  0.77403100  1
  O  O37  1  0.82275300  0.51518200  0.22976300  1
  O  O38  1  0.83708400  0.26773300  0.82002900  1
  O  O39  1  0.83607400  0.23270300  0.18236500  1
  O  O40  1  0.84076100  0.43767500  0.03439000  1
  O  O41  1  0.84349300  0.06708800  0.96988400  1
  O  O42  1  0.85081400  0.34144400  0.41834100  1
  O  O43  1  0.84925700  0.16452600  0.57803200  1
  O  O44  1  0.92724300  0.89556400  0.15605400  1
  O  O45  1  0.92702700  0.60424000  0.84443500  1
  O  O46  1  0.94140900  0.85626700  0.56990000  1
  O  O47  1  0.94225100  0.64000100  0.42483900  1
loop_
_geom_bond_atom_site_label_1
_geom_bond_atom_site_label_2
_geom_bond_distance
_geom_bond_site_symmetry_2
Li0 O10 1.944762 1_555
Li0 O15 1.978575 1_555
Li0 O18 1.983018 1_555
Li0 O2 1.992197 1_555
Li1 O11 1.943691 1_555
Li1 O19 1.979316 1_555
Li1 O3 1.997032 1_555
Li1 O14 2.009274 1_555
Li2 O12 1.945457 1_555
Li2 O8 1.987618 1_555
Li2 O5 1.996919 1_555
Li2 O21 2.001916 1_555
Li3 O13 1.934152 1_555
Li3 O9 1.977643 1_555
Li3 O20 1.979110 1_555
Li3 O4 1.980155 1_555
Li4 O34 1.933971 1_555
Li4 O43 1.971350 1_555
Li4 O38 1.989398 1_555
Li4 O27 1.990148 1_555
Li5 O39 1.966919 1_555
Li5 O35 1.967555 1_555
Li5 O42 1.987304 1_555
Li5 O26 1.991781 1_555
Li6 O36 1.945877 1_555
Li6 O28 1.979766 1_555
Li6 O32 1.989000 1_555
Li6 O45 1.997591 1_555
Li7 O37 1.946769 1_555
Li7 O29 1.976722 1_555
Li7 O44 1.987711 1_555
Li7 O33 2.006913 1_555
Mn0 O31 1.894772 1_555
Mn0 O47 1.918444 1_555
Mn0 O42 1.965252 1_555
Mn0 O33 2.004554 1_555
Mn0 O26 2.028984 1_555
Mn0 O37 2.037418 1_555
Fe0 O17 1.940045 1_555
Fe0 O1 1.974392 1_555
Fe0 O4 2.049414 1_545
Fe0 O14 2.052746 1_555
Fe0 O11 2.068643 1_555
Fe0 O20 2.095403 1_545
Fe1 O16 1.943836 1_555
Fe1 O0 1.963532 1_555
Fe1 O15 2.020620 1_555
Fe1 O5 2.041215 1_555
Fe1 O21 2.065816 1_555
Fe1 O10 2.081505 1_555
Fe2 O7 1.945489 1_556
Fe2 O22 1.963965 1_555
Fe2 O8 2.016988 1_555
Fe2 O18 2.036927 1_565
Fe2 O2 2.068413 1_565
Fe2 O12 2.078467 1_555
Fe3 O6 1.947835 1_554
Fe3 O23 1.964350 1_555
Fe3 O9 2.018369 1_555
Fe3 O19 2.040289 1_555
Fe3 O3 2.067810 1_555
Fe3 O13 2.077458 1_555
Fe4 O24 1.960001 1_555
Fe4 O40 1.968465 1_556
Fe4 O38 2.016360 1_555
Fe4 O28 2.033189 1_555
Fe4 O45 2.059703 1_555
Fe4 O34 2.103171 1_555
Fe5 O41 1.940025 1_554
Fe5 O25 1.963292 1_555
Fe5 O39 2.028883 1_555
Fe5 O29 2.031404 1_545
Fe5 O44 2.064767 1_545
Fe5 O35 2.086926 1_555
Fe6 O30 1.945702 1_555
Fe6 O46 1.962812 1_555
Fe6 O32 2.021500 1_555
Fe6 O43 2.031727 1_565
Fe6 O27 2.062327 1_565
Fe6 O36 2.070308 1_555
O0 P3 1.520208 1_455
O1 P3 1.531146 1_455
O2 P11 1.551613 1_455
O3 P10 1.547084 1_455
O4 P0 1.554309 1_555
O5 P0 1.551971 1_555
O6 P4 1.531392 1_555
O7 P5 1.531175 1_555
O8 P4 1.548952 1_555
O9 P5 1.548176 1_555
O10 P4 1.550458 1_555
O11 P5 1.554320 1_545
O12 P7 1.554724 1_565
O13 P6 1.547771 1_555
O14 P6 1.550980 1_555
O15 P7 1.545709 1_555
O16 P6 1.522680 1_555
O17 P7 1.533341 1_555
O18 P1 1.553853 1_556
O19 P1 1.552804 1_555
O20 P8 1.549499 1_555
O21 P9 1.550063 1_555
O22 P2 1.529111 1_555
O23 P2 1.530496 1_554
O24 P1 1.529379 1_556
O25 P1 1.530227 1_555
O26 P6 1.575346 1_555
O27 P7 1.551630 1_555
O28 P2 1.552077 1_555
O29 P2 1.553272 1_554
O30 P8 1.520292 1_555
O31 P9 1.554964 1_555
O32 P9 1.543131 1_555
O33 P8 1.574634 1_555
O34 P9 1.549657 1_555
O35 P8 1.552088 1_545
O36 P11 1.551824 1_565
O37 P10 1.577095 1_555
O38 P11 1.549191 1_555
O39 P10 1.546259 1_555
O40 P10 1.530782 1_555
O41 P11 1.530900 1_555
O42 P3 1.583193 1_555
O43 P3 1.549386 1_555
O44 P5 1.551697 1_655
O45 P4 1.552467 1_655
O46 P0 1.519272 1_655
O47 P0 1.557491 1_655
