# generated using pymatgen
data_YNi2
_symmetry_space_group_name_H-M   'P 1'
_cell_length_a   5.03515833
_cell_length_b   5.03515777
_cell_length_c   5.03515837
_cell_angle_alpha   59.99999610
_cell_angle_beta   59.99999982
_cell_angle_gamma   59.99999612
_symmetry_Int_Tables_number   1
_chemical_formula_structural   YNi2
_chemical_formula_sum   'Y2 Ni4'
_cell_volume   90.26602651
_cell_formula_units_Z   2
loop_
 _symmetry_equiv_pos_site_id
 _symmetry_equiv_pos_as_xyz
  1  'x, y, z'
loop_
 _atom_site_type_symbol
 _atom_site_label
 _atom_site_symmetry_multiplicity
 _atom_site_fract_x
 _atom_site_fract_y
 _atom_site_fract_z
 _atom_site_occupancy
  Y  Y0  1  0.87500000  0.87500000  0.87500000  1
  Y  Y1  1  0.12500000  0.12500000  0.12500000  1
  Ni  Ni0  1  0.50000000  0.00000000  0.50000000  1
  Ni  Ni1  1  -0.00000000  0.50000000  0.50000000  1
  Ni  Ni2  1  0.50000000  0.50000000  0.50000000  1
  Ni  Ni3  1  0.50000000  0.50000000  0.00000000  1
loop_
_geom_bond_atom_site_label_1
_geom_bond_atom_site_label_2
_geom_bond_distance
_geom_bond_site_symmetry_2
Ni0 Ni1 2.517579 1_645
Ni0 Ni1 2.517579 1_555
Ni0 Ni2 2.517579 1_555
Ni0 Ni2 2.517579 1_545
Ni0 Ni3 2.517579 1_546
Ni0 Ni3 2.517579 1_555
Ni0 Y0 2.952123 1_445
Ni0 Y1 2.952123 1_655
Ni0 Y0 2.952123 1_545
Ni0 Y1 2.952123 1_555
Ni0 Y0 2.952123 1_544
Ni0 Y1 2.952123 1_556
Ni1 Ni2 2.517579 1_555
Ni1 Ni2 2.517579 1_455
Ni1 Ni3 2.517579 1_555
Ni1 Ni3 2.517579 1_456
Ni1 Y0 2.952123 1_445
Ni1 Y1 2.952123 1_565
Ni1 Y1 2.952123 1_555
Ni1 Y0 2.952123 1_455
Ni1 Y1 2.952123 1_556
Ni1 Y0 2.952123 1_454
Ni2 Ni3 2.517579 1_556
Ni2 Ni3 2.517579 1_555
Ni2 Y1 2.952123 1_565
Ni2 Y0 2.952123 1_545
Ni2 Y1 2.952123 1_655
Ni2 Y0 2.952123 1_455
Ni2 Y1 2.952123 1_556
Ni2 Y0 2.952123 1_554
Ni3 Y0 2.952123 1_544
Ni3 Y1 2.952123 1_565
Ni3 Y1 2.952123 1_655
Ni3 Y0 2.952123 1_454
Ni3 Y0 2.952123 1_554
Ni3 Y1 2.952123 1_555
