# generated using pymatgen
data_Ca3Co4O9
_symmetry_space_group_name_H-M   'P 1'
_cell_length_a   5.32874800
_cell_length_b   11.15678572
_cell_length_c   11.15678551
_cell_angle_alpha   99.00573387
_cell_angle_beta   90.00000000
_cell_angle_gamma   90.00000000
_symmetry_Int_Tables_number   1
_chemical_formula_structural   Ca3Co4O9
_chemical_formula_sum   'Ca9 Co12 O27'
_cell_volume   655.11327471
_cell_formula_units_Z   3
loop_
 _symmetry_equiv_pos_site_id
 _symmetry_equiv_pos_as_xyz
  1  'x, y, z'
loop_
 _atom_site_type_symbol
 _atom_site_label
 _atom_site_symmetry_multiplicity
 _atom_site_fract_x
 _atom_site_fract_y
 _atom_site_fract_z
 _atom_site_occupancy
  Ca  Ca0  1  0.00228500  0.00000000  0.00000000  1
  Ca  Ca1  1  0.08746400  0.40084000  0.59916000  1
  Ca  Ca2  1  0.08746400  0.59916000  0.40084000  1
  Ca  Ca3  1  0.03958400  0.08199900  0.65916800  1
  Ca  Ca4  1  0.03958400  0.91800100  0.34083200  1
  Ca  Ca5  1  0.03958400  0.34083200  0.91800100  1
  Ca  Ca6  1  0.03958400  0.65916800  0.08199900  1
  Ca  Ca7  1  0.05404500  0.76002600  0.76002600  1
  Ca  Ca8  1  0.05404500  0.23997400  0.23997400  1
  Co  Co0  1  0.51483100  0.98337900  0.79648900  1
  Co  Co1  1  0.51483100  0.01662100  0.20351100  1
  Co  Co2  1  0.51483100  0.20351100  0.01662100  1
  Co  Co3  1  0.51483100  0.79648900  0.98337900  1
  Co  Co4  1  0.56609600  0.13439600  0.46269700  1
  Co  Co5  1  0.56609600  0.86560400  0.53730300  1
  Co  Co6  1  0.56609600  0.53730300  0.86560400  1
  Co  Co7  1  0.56609600  0.46269700  0.13439600  1
  Co  Co8  1  0.60117600  0.61457800  0.61457800  1
  Co  Co9  1  0.60117600  0.38542200  0.38542200  1
  Co  Co10  1  0.52729100  0.26426600  0.73573400  1
  Co  Co11  1  0.52729100  0.73573400  0.26426600  1
  O  O0  1  0.26933500  0.60670800  0.60670800  1
  O  O1  1  0.26933500  0.39329200  0.39329200  1
  O  O2  1  0.32918900  0.89447500  0.89447500  1
  O  O3  1  0.32918900  0.10552500  0.10552500  1
  O  O4  1  0.35079600  0.20875900  0.59176800  1
  O  O5  1  0.35079600  0.79124100  0.40823200  1
  O  O6  1  0.35079600  0.40823200  0.79124100  1
  O  O7  1  0.35079600  0.59176800  0.20875900  1
  O  O8  1  0.40466100  0.15431000  0.84569000  1
  O  O9  1  0.40466100  0.84569000  0.15431000  1
  O  O10  1  0.32993100  0.06937300  0.34772600  1
  O  O11  1  0.32993100  0.93062700  0.65227400  1
  O  O12  1  0.32993100  0.65227400  0.93062700  1
  O  O13  1  0.32993100  0.34772600  0.06937300  1
  O  O14  1  0.77925300  0.50000000  0.50000000  1
  O  O15  1  0.84616300  0.97728900  0.79739400  1
  O  O16  1  0.84616300  0.02271100  0.20260600  1
  O  O17  1  0.84616300  0.20260600  0.02271100  1
  O  O18  1  0.84616300  0.79739400  0.97728900  1
  O  O19  1  0.86149400  0.26997900  0.73002100  1
  O  O20  1  0.86149400  0.73002100  0.26997900  1
  O  O21  1  0.77544600  0.24746100  0.41758800  1
  O  O22  1  0.77544600  0.75253900  0.58241200  1
  O  O23  1  0.77544600  0.58241200  0.75253900  1
  O  O24  1  0.77544600  0.41758800  0.24746100  1
  O  O25  1  0.76042300  0.00000000  0.50000000  1
  O  O26  1  0.76042300  0.50000000  0.00000000  1
loop_
_geom_bond_atom_site_label_1
_geom_bond_atom_site_label_2
_geom_bond_distance
_geom_bond_site_symmetry_2
Ca0 O3 2.317920 1_555
Ca0 O2 2.317920 1_544
Ca0 O16 2.384651 1_455
Ca0 O15 2.384651 1_444
Ca0 O17 2.384651 1_455
Ca0 O18 2.384651 1_444
Ca1 O14 2.351256 1_455
Ca1 O1 2.482174 1_555
Ca1 O0 2.482174 1_555
Ca1 O19 2.525945 1_455
Ca1 O6 2.552058 1_555
Ca1 O4 2.552058 1_555
Ca1 O21 2.951469 1_455
Ca1 O23 2.951469 1_455
Ca2 O14 2.351256 1_455
Ca2 O0 2.482174 1_555
Ca2 O1 2.482174 1_555
Ca2 O20 2.525945 1_455
Ca2 O7 2.552058 1_555
Ca2 O5 2.552058 1_555
Ca2 O22 2.951469 1_455
Ca2 O24 2.951469 1_455
Ca3 O11 2.282797 1_545
Ca3 O15 2.317185 1_445
Ca3 O19 2.324848 1_455
Ca3 O4 2.376686 1_555
Ca3 O25 2.386358 1_455
Ca3 O8 2.870603 1_555
Ca4 O10 2.282797 1_565
Ca4 O16 2.317185 1_465
Ca4 O20 2.324848 1_455
Ca4 O5 2.376686 1_555
Ca4 O25 2.386358 1_465
Ca4 O9 2.870603 1_555
Ca5 O13 2.282797 1_556
Ca5 O17 2.317185 1_456
Ca5 O19 2.324848 1_455
Ca5 O6 2.376686 1_555
Ca5 O26 2.386358 1_456
Ca5 O8 2.870603 1_555
Ca6 O12 2.282797 1_554
Ca6 O18 2.317185 1_454
Ca6 O20 2.324848 1_455
Ca6 O7 2.376686 1_555
Ca6 O26 2.386358 1_455
Ca6 O9 2.870603 1_555
Ca7 O2 2.438310 1_555
Ca7 O22 2.466960 1_455
Ca7 O23 2.466960 1_455
Ca7 O0 2.500397 1_555
Ca7 O18 2.638203 1_455
Ca7 O15 2.638203 1_455
Ca7 O12 2.818793 1_555
Ca7 O11 2.818793 1_555
Ca8 O3 2.438310 1_555
Ca8 O21 2.466960 1_455
Ca8 O24 2.466960 1_455
Ca8 O1 2.500397 1_555
Ca8 O17 2.638203 1_455
Ca8 O16 2.638203 1_455
Ca8 O13 2.818793 1_555
Ca8 O10 2.818793 1_555
Co0 O15 1.766981 1_555
Co0 O2 1.870027 1_555
Co0 O11 1.899872 1_555
Co0 O8 1.988730 1_565
Co1 O16 1.766981 1_555
Co1 O3 1.870027 1_555
Co1 O10 1.899872 1_555
Co1 O9 1.988730 1_545
Co2 O17 1.766981 1_555
Co2 O3 1.870027 1_555
Co2 O13 1.899872 1_555
Co2 O8 1.988730 1_554
Co3 O18 1.766981 1_555
Co3 O2 1.870027 1_555
Co3 O12 1.899872 1_555
Co3 O9 1.988730 1_556
Co4 O21 1.813221 1_555
Co4 O10 1.861188 1_555
Co4 O25 1.920717 1_555
Co4 O4 1.924629 1_555
Co5 O22 1.813221 1_555
Co5 O11 1.861188 1_555
Co5 O25 1.920717 1_565
Co5 O5 1.924629 1_555
Co6 O23 1.813221 1_555
Co6 O12 1.861188 1_555
Co6 O26 1.920717 1_556
Co6 O6 1.924629 1_555
Co7 O24 1.813221 1_555
Co7 O13 1.861188 1_555
Co7 O26 1.920717 1_555
Co7 O7 1.924629 1_555
Co8 O0 1.771971 1_555
Co8 O23 1.879689 1_555
Co8 O22 1.879689 1_555
Co8 O14 1.912353 1_555
Co9 O1 1.771971 1_555
Co9 O24 1.879689 1_555
Co9 O21 1.879689 1_555
Co9 O14 1.912353 1_555
Co10 O19 1.783520 1_555
Co10 O4 1.880561 1_555
Co10 O6 1.880561 1_555
Co10 O8 1.976870 1_555
Co11 O20 1.783520 1_555
Co11 O5 1.880561 1_555
Co11 O7 1.880561 1_555
Co11 O9 1.976870 1_555
