# generated using pymatgen
data_MoO3
_symmetry_space_group_name_H-M   'P 1'
_cell_length_a   7.18386340
_cell_length_b   7.61194446
_cell_length_c   7.80144865
_cell_angle_alpha   89.99998498
_cell_angle_beta   91.10570878
_cell_angle_gamma   90.00000013
_symmetry_Int_Tables_number   1
_chemical_formula_structural   MoO3
_chemical_formula_sum   'Mo8 O24'
_cell_volume   426.52849938
_cell_formula_units_Z   8
loop_
 _symmetry_equiv_pos_site_id
 _symmetry_equiv_pos_as_xyz
  1  'x, y, z'
loop_
 _atom_site_type_symbol
 _atom_site_label
 _atom_site_symmetry_multiplicity
 _atom_site_fract_x
 _atom_site_fract_y
 _atom_site_fract_z
 _atom_site_occupancy
  Mo  Mo0  1  0.74826270  0.45685409  0.28677934  1
  Mo  Mo1  1  0.75183462  0.95685725  0.21316342  1
  Mo  Mo2  1  0.25183462  0.54314375  0.71316342  1
  Mo  Mo3  1  0.24826270  0.04314591  0.78677834  1
  Mo  Mo4  1  0.75048812  0.46497751  0.79130703  1
  Mo  Mo5  1  0.74959602  0.96497262  0.70872160  1
  Mo  Mo6  1  0.24959602  0.53502738  0.20872160  1
  Mo  Mo7  1  0.25048812  0.03502249  0.29130703  1
  O  O0  1  0.79199572  0.01334532  0.49776691  1
  O  O1  1  0.70793592  0.51339447  0.00224904  1
  O  O2  1  0.20793492  -0.01339447  0.50224904  1
  O  O3  1  0.29199572  0.48665368  0.99776691  1
  O  O4  1  0.79159836  0.44735330  0.50379219  1
  O  O5  1  0.70832773  0.94734083  0.99620890  1
  O  O6  1  0.20832773  0.55265917  0.49620890  1
  O  O7  1  0.29159836  0.05264670  0.00379119  1
  O  O8  1  0.99808906  0.03705189  0.21021468  1
  O  O9  1  0.50192211  0.53709470  0.28974434  1
  O  O10  1  0.00192211  0.96290630  0.78974434  1
  O  O11  1  0.49808906  0.46294811  0.71021468  1
  O  O12  1  0.00053785  0.46397152  0.21482270  1
  O  O13  1  0.49946921  0.96401492  0.28519258  1
  O  O14  1  0.99946921  0.53598508  0.78519258  1
  O  O15  1  0.50053785  0.03602848  0.71482170  1
  O  O16  1  0.28342641  0.26063795  0.29272187  1
  O  O17  1  0.21651880  0.76062009  0.20736687  1
  O  O18  1  0.71651880  0.73937991  0.70736687  1
  O  O19  1  0.78342641  0.23936105  0.79272187  1
  O  O20  1  0.20588449  0.26049594  0.73027865  1
  O  O21  1  0.29411287  0.76050837  0.76967388  1
  O  O22  1  0.79411287  0.73949163  0.26967388  1
  O  O23  1  0.70588449  0.23950306  0.23027765  1
loop_
_geom_bond_atom_site_label_1
_geom_bond_atom_site_label_2
_geom_bond_distance
_geom_bond_site_symmetry_2
Mo0 O4 1.717005 1_555
Mo0 O23 1.737543 1_555
Mo0 O9 1.872681 1_555
Mo0 O12 1.908350 1_655
Mo0 O22 2.180965 1_555
Mo0 O1 2.274120 1_555
Mo1 O5 1.716763 1_554
Mo1 O22 1.737544 1_555
Mo1 O8 1.871978 1_565
Mo1 O13 1.909155 1_555
Mo1 O23 2.181141 1_565
Mo1 O0 2.274472 1_565
Mo2 O6 1.716762 1_555
Mo2 O21 1.737537 1_555
Mo2 O11 1.871980 1_555
Mo2 O14 1.909155 1_455
Mo2 O20 2.181157 1_555
Mo2 O3 2.274474 1_555
Mo3 O7 1.717005 1_556
Mo3 O20 1.737532 1_555
Mo3 O10 1.872678 1_545
Mo3 O15 1.908350 1_555
Mo3 O21 2.180965 1_545
Mo3 O2 2.274113 1_555
Mo4 O1 1.719553 1_556
Mo4 O19 1.733611 1_555
Mo4 O14 1.870019 1_555
Mo4 O11 1.908899 1_555
Mo4 O18 2.201144 1_555
Mo4 O4 2.271999 1_555
Mo5 O0 1.719361 1_565
Mo5 O18 1.733566 1_555
Mo5 O15 1.870650 1_565
Mo5 O10 1.908236 1_655
Mo5 O19 2.201077 1_565
Mo5 O5 2.271959 1_555
Mo6 O3 1.719363 1_554
Mo6 O17 1.733566 1_555
Mo6 O12 1.870650 1_555
Mo6 O9 1.908236 1_555
Mo6 O16 2.201084 1_555
Mo6 O6 2.271959 1_555
Mo7 O2 1.719554 1_555
Mo7 O16 1.733603 1_555
Mo7 O13 1.870019 1_545
Mo7 O8 1.908899 1_455
Mo7 O17 2.201144 1_545
Mo7 O7 2.272006 1_555
