# generated using pymatgen
data_Li9Mn2Co5O16
_symmetry_space_group_name_H-M   'P 1'
_cell_length_a   2.94721300
_cell_length_b   10.15095606
_cell_length_c   10.64660383
_cell_angle_alpha   113.90180982
_cell_angle_beta   94.97398013
_cell_angle_gamma   92.44300946
_symmetry_Int_Tables_number   1
_chemical_formula_structural   Li9Mn2Co5O16
_chemical_formula_sum   'Li9 Mn2 Co5 O16'
_cell_volume   289.04361556
_cell_formula_units_Z   1
loop_
 _symmetry_equiv_pos_site_id
 _symmetry_equiv_pos_as_xyz
  1  'x, y, z'
loop_
 _atom_site_type_symbol
 _atom_site_label
 _atom_site_symmetry_multiplicity
 _atom_site_fract_x
 _atom_site_fract_y
 _atom_site_fract_z
 _atom_site_occupancy
  Li  Li0  1  0.13071300  0.93684300  0.25259900  1
  Li  Li1  1  0.87022800  0.06896000  0.75346900  1
  Li  Li2  1  0.61012500  0.19074300  0.24446100  1
  Li  Li3  1  0.62477100  0.68453200  0.24744400  1
  Li  Li4  1  0.38051000  0.81102200  0.75171300  1
  Li  Li5  1  0.11678800  0.42768500  0.23857600  1
  Li  Li6  1  0.87816800  0.56266900  0.75110800  1
  Li  Li7  1  0.38889600  0.31752500  0.75470900  1
  Li  Li8  1  0.51998200  0.25226900  0.00944800  1
  Mn  Mn0  1  0.99083100  0.00545000  0.00036400  1
  Mn  Mn1  1  0.75030600  0.12582500  0.50124000  1
  Co  Co0  1  0.24604200  0.37391600  0.49583300  1
  Co  Co1  1  0.00675600  0.49107700  0.99893800  1
  Co  Co2  1  0.74982700  0.62447700  0.49906800  1
  Co  Co3  1  0.48777000  0.74691400  0.99688800  1
  Co  Co4  1  0.25542100  0.87547100  0.50380500  1
  O  O0  1  0.52268600  0.95859600  0.10463200  1
  O  O1  1  0.34924300  0.09316300  0.62333000  1
  O  O2  1  0.06085300  0.19828300  0.11607900  1
  O  O3  1  0.07793900  0.70576000  0.10817600  1
  O  O4  1  0.81947100  0.84376500  0.61635000  1
  O  O5  1  0.59550600  0.47471700  0.11615400  1
  O  O6  1  0.31608800  0.59248400  0.61480600  1
  O  O7  1  0.81564700  0.34179700  0.61338900  1
  O  O8  1  0.68437700  0.90922700  0.38505800  1
  O  O9  1  0.45801200  0.02626600  0.89000600  1
  O  O10  1  0.15154000  0.15612100  0.38082600  1
  O  O11  1  0.18514300  0.65901500  0.38637600  1
  O  O12  1  0.90759900  0.78813200  0.88704700  1
  O  O13  1  0.67920200  0.40698900  0.38322100  1
  O  O14  1  0.42504600  0.54153200  0.88849800  1
  O  O15  1  0.94451600  0.30877700  0.88639300  1
loop_
_geom_bond_atom_site_label_1
_geom_bond_atom_site_label_2
_geom_bond_distance
_geom_bond_site_symmetry_2
Li0 O10 2.081694 1_565
Li0 O8 2.099609 1_455
Li0 O0 2.107307 1_555
Li0 O8 2.165716 1_555
Li0 O3 2.212579 1_555
Li0 O0 2.359613 1_455
Li1 O1 2.068040 1_555
Li1 O9 2.132781 1_555
Li1 O1 2.135089 1_655
Li1 O4 2.146589 1_545
Li1 O15 2.255215 1_555
Li1 O9 2.332322 1_655
Li2 O2 2.007404 1_655
Li2 O2 2.050931 1_555
Li2 O13 2.079500 1_555
Li2 O10 2.184313 1_555
Li2 O10 2.199321 1_655
Li2 O0 2.207875 1_545
Li3 O5 2.012068 1_555
Li3 O11 2.132595 1_555
Li3 O8 2.143142 1_555
Li3 O3 2.146271 1_655
Li3 O3 2.171731 1_555
Li3 O11 2.214923 1_655
Li4 O9 2.070314 1_565
Li4 O6 2.092289 1_555
Li4 O12 2.111196 1_555
Li4 O4 2.129764 1_555
Li4 O12 2.159756 1_455
Li4 O4 2.223344 1_455
Li5 O5 2.122869 1_455
Li5 O2 2.149342 1_555
Li5 O13 2.159248 1_455
Li5 O5 2.164028 1_555
Li5 O11 2.222895 1_555
Li5 O13 2.238832 1_555
Li6 O7 2.112976 1_555
Li6 O6 2.123812 1_655
Li6 O14 2.130184 1_555
Li6 O12 2.148796 1_555
Li6 O14 2.158334 1_655
Li6 O6 2.218884 1_555
Li7 O15 2.024375 1_455
Li7 O15 2.090487 1_555
Li7 O7 2.123313 1_555
Li7 O1 2.127115 1_555
Li7 O14 2.130544 1_555
Li7 O7 2.252535 1_455
Li8 O2 2.031612 1_555
Li8 O5 2.067257 1_555
Li8 O2 2.096416 1_655
Li8 O15 2.107831 1_554
Li8 O9 2.115069 1_554
Li8 O15 2.286596 1_454
Mn0 O2 1.832823 1_655
Mn0 O9 1.943666 1_654
Mn0 O9 1.949511 1_554
Mn0 O0 1.999915 1_545
Mn0 O0 2.026133 1_645
Mn0 O12 2.031738 1_544
Mn1 O10 1.920371 1_655
Mn1 O1 1.943948 1_555
Mn1 O7 2.017910 1_555
Mn1 O8 2.029786 1_545
Mn1 O10 2.196743 1_555
Mn1 O1 2.217358 1_655
Co0 O13 1.932601 1_555
Co0 O7 1.962765 1_455
Co0 O10 2.039445 1_555
Co0 O6 2.051307 1_555
Co0 O13 2.089908 1_455
Co0 O7 2.122243 1_555
Co1 O15 1.740677 1_455
Co1 O5 1.862009 1_456
Co1 O14 1.962178 1_555
Co1 O3 2.002651 1_556
Co1 O5 2.100665 1_556
Co1 O14 2.190294 1_455
Co2 O11 1.943670 1_655
Co2 O6 1.954472 1_555
Co2 O13 2.036745 1_555
Co2 O4 2.054396 1_555
Co2 O11 2.092001 1_555
Co2 O6 2.103071 1_655
Co3 O3 1.908803 1_556
Co3 O12 1.917520 1_555
Co3 O14 1.921701 1_555
Co3 O0 1.976605 1_556
Co3 O12 2.139414 1_455
Co3 O3 2.170112 1_656
Co4 O4 1.932444 1_455
Co4 O8 1.976178 1_555
Co4 O11 2.030779 1_555
Co4 O1 2.046249 1_565
Co4 O4 2.077383 1_555
Co4 O8 2.139963 1_455
