# generated using pymatgen
data_Ho12Co5Bi
_symmetry_space_group_name_H-M   'P 1'
_cell_length_a   8.25900648
_cell_length_b   8.25900911
_cell_length_c   8.25900099
_cell_angle_alpha   111.12191631
_cell_angle_beta   110.38170763
_cell_angle_gamma   106.94031631
_symmetry_Int_Tables_number   1
_chemical_formula_structural   Ho12Co5Bi
_chemical_formula_sum   'Ho12 Co5 Bi1'
_cell_volume   433.02131567
_cell_formula_units_Z   1
loop_
 _symmetry_equiv_pos_site_id
 _symmetry_equiv_pos_as_xyz
  1  'x, y, z'
loop_
 _atom_site_type_symbol
 _atom_site_label
 _atom_site_symmetry_multiplicity
 _atom_site_fract_x
 _atom_site_fract_y
 _atom_site_fract_z
 _atom_site_occupancy
  Ho  Ho0  1  0.81797468  0.71329894  0.53127443  1
  Ho  Ho1  1  0.18202547  0.28670434  0.46873044  1
  Ho  Ho2  1  0.18202390  0.71329861  0.89532374  1
  Ho  Ho3  1  0.81797376  0.28670389  0.10467786  1
  Ho  Ho4  1  0.68997224  0.38177169  0.69179975  1
  Ho  Ho5  1  0.31002542  0.61822727  0.30820075  1
  Ho  Ho6  1  0.68997258  0.99817339  0.30819975  1
  Ho  Ho7  1  0.31002678  0.00182583  0.69179968  1
  Ho  Ho8  1  0.59286858  0.79086340  0.80200498  1
  Ho  Ho9  1  0.40712866  0.20913443  0.19799504  1
  Ho  Ho10  1  0.98885998  0.79086585  0.19799514  1
  Ho  Ho11  1  0.01114097  0.20913588  0.80200510  1
  Co  Co0  1  0.61879569  0.00000041  0.61879643  1
  Co  Co1  1  0.38120961  0.99999750  0.38120770  1
  Co  Co2  1  0.10965577  0.60965655  0.50000199  1
  Co  Co3  1  0.89034969  0.39034983  0.49999847  1
  Co  Co4  1  0.99999750  -0.00001004  0.99998815  1
  Bi  Bi0  1  0.49999973  0.50000024  0.00000061  1
loop_
_geom_bond_atom_site_label_1
_geom_bond_atom_site_label_2
_geom_bond_distance
_geom_bond_site_symmetry_2
Co0 Co1 2.240249 1_545
Co0 Ho11 2.685620 1_655
Co0 Ho8 2.685626 1_545
Co0 Ho4 2.820229 1_555
Co0 Ho7 2.820235 1_555
Co0 Ho5 2.820239 1_545
Co0 Ho6 2.820245 1_545
Co0 Ho0 3.271090 1_545
Co0 Ho3 3.271093 1_556
Co1 Ho10 2.685644 1_455
Co1 Ho9 2.685647 1_565
Co1 Ho5 2.820201 1_555
Co1 Ho6 2.820205 1_555
Co1 Ho4 2.820221 1_565
Co1 Ho7 2.820229 1_565
Co1 Ho2 3.271096 1_554
Co1 Ho1 3.271159 1_565
Co2 Co3 2.156249 1_455
Co2 Ho7 2.662953 1_565
Co2 Ho5 2.662965 1_555
Co2 Ho2 2.842239 1_555
Co2 Ho1 2.842242 1_555
Co2 Ho3 2.842247 1_455
Co2 Ho0 2.842252 1_455
Co2 Ho8 3.359101 1_555
Co2 Ho10 3.359126 1_455
Co3 Ho6 2.663004 1_545
Co3 Ho4 2.663021 1_555
Co3 Ho3 2.842206 1_555
Co3 Ho1 2.842212 1_655
Co3 Ho2 2.842232 1_655
Co3 Ho0 2.842233 1_555
Co3 Ho9 3.359144 1_555
Co3 Ho11 3.359149 1_655
Co4 Ho8 2.777339 1_545
Co4 Ho11 2.777343 1_655
Co4 Ho9 2.777352 1_656
Co4 Ho10 2.777355 1_546
Co4 Ho0 3.180879 1_545
Co4 Ho2 3.180906 1_645
Co4 Ho3 3.181070 1_556
Co4 Ho1 3.181089 1_656
Bi0 Ho11 3.415273 1_554
Bi0 Ho8 3.415276 1_554
Bi0 Ho10 3.415286 1_555
Bi0 Ho9 3.415290 1_555
Bi0 Ho6 3.431858 1_555
Bi0 Ho4 3.431865 1_554
Bi0 Ho7 3.431869 1_554
Bi0 Ho5 3.431870 1_555
Bi0 Ho1 3.599926 1_554
Bi0 Ho3 3.599933 1_555
Bi0 Ho0 3.599946 1_555
Bi0 Ho2 3.599957 1_554
