# generated using pymatgen
data_UFeSe3
_symmetry_space_group_name_H-M   'P 1'
_cell_length_a   6.30360051
_cell_length_b   6.30360051
_cell_length_c   9.18706500
_cell_angle_alpha   90.00000000
_cell_angle_beta   90.00000000
_cell_angle_gamma   144.19645311
_symmetry_Int_Tables_number   1
_chemical_formula_structural   UFeSe3
_chemical_formula_sum   'U2 Fe2 Se6'
_cell_volume   213.55801301
_cell_formula_units_Z   2
loop_
 _symmetry_equiv_pos_site_id
 _symmetry_equiv_pos_as_xyz
  1  'x, y, z'
loop_
 _atom_site_type_symbol
 _atom_site_label
 _atom_site_symmetry_multiplicity
 _atom_site_fract_x
 _atom_site_fract_y
 _atom_site_fract_z
 _atom_site_occupancy
  U  U0  1  0.24363200  0.75636800  0.25000000  1
  U  U1  1  0.75636800  0.24363200  0.75000000  1
  Fe  Fe0  1  0.00000000  0.00000000  0.50000000  1
  Fe  Fe1  1  0.00000000  0.00000000  0.00000000  1
  Se  Se0  1  0.64135500  0.35864500  0.44319900  1
  Se  Se1  1  0.35864500  0.64135500  0.55680100  1
  Se  Se2  1  0.64135500  0.35864500  0.05680100  1
  Se  Se3  1  0.35864500  0.64135500  0.94319900  1
  Se  Se4  1  0.91870300  0.08129700  0.25000000  1
  Se  Se5  1  0.08129700  0.91870300  0.75000000  1
loop_
_geom_bond_atom_site_label_1
_geom_bond_atom_site_label_2
_geom_bond_distance
_geom_bond_site_symmetry_2
Fe0 Se4 2.495267 1_455
Fe0 Se5 2.495267 1_545
Fe0 Se0 2.627267 1_555
Fe0 Se0 2.627267 1_445
Fe0 Se1 2.627267 1_445
Fe0 Se1 2.627267 1_555
Fe1 Se4 2.495267 1_455
Fe1 Se5 2.495267 1_544
Fe1 Se2 2.627267 1_555
Fe1 Se2 2.627267 1_445
Fe1 Se3 2.627267 1_554
Fe1 Se3 2.627267 1_444
Se0 U0 2.900061 1_545
Se0 U0 2.900061 1_655
Se0 U1 3.138205 1_555
Se1 U1 2.900061 1_565
Se1 U1 2.900061 1_455
Se1 U0 3.138205 1_555
Se2 U0 2.900061 1_545
Se2 U0 2.900061 1_655
Se2 U1 3.138205 1_554
Se3 U1 2.900061 1_565
Se3 U1 2.900061 1_455
Se3 U0 3.138205 1_556
Se4 U0 2.857567 1_545
Se4 U0 2.857567 1_655
Se5 U1 2.857567 1_565
Se5 U1 2.857567 1_455
