# generated using pymatgen
data_SrSn(PO4)2
_symmetry_space_group_name_H-M   'P 1'
_cell_length_a   5.69344500
_cell_length_b   7.04855796
_cell_length_c   9.28742945
_cell_angle_alpha   110.70439867
_cell_angle_beta   100.56013447
_cell_angle_gamma   98.08233520
_symmetry_Int_Tables_number   1
_chemical_formula_structural   SrSn(PO4)2
_chemical_formula_sum   'Sr2 Sn2 P4 O16'
_cell_volume   334.07599252
_cell_formula_units_Z   2
loop_
 _symmetry_equiv_pos_site_id
 _symmetry_equiv_pos_as_xyz
  1  'x, y, z'
loop_
 _atom_site_type_symbol
 _atom_site_label
 _atom_site_symmetry_multiplicity
 _atom_site_fract_x
 _atom_site_fract_y
 _atom_site_fract_z
 _atom_site_occupancy
  Sr  Sr0  1  0.24361000  0.73254900  0.03065300  1
  Sr  Sr1  1  0.75639000  0.26745100  0.96934700  1
  Sn  Sn0  1  0.67204600  0.27460200  0.54945800  1
  Sn  Sn1  1  0.32795400  0.72539800  0.45054200  1
  P  P0  1  0.39309700  0.20265400  0.22771500  1
  P  P1  1  0.60690300  0.79734600  0.77228500  1
  P  P2  1  0.83935300  0.73206300  0.30180900  1
  P  P3  1  0.16064700  0.26793700  0.69819100  1
  O  O0  1  0.82584000  0.67117000  0.89050100  1
  O  O1  1  0.63386200  0.28784000  0.18701300  1
  O  O2  1  0.65320400  0.03350200  0.75657900  1
  O  O3  1  0.95628100  0.40031800  0.69720400  1
  O  O4  1  0.36613800  0.71216000  0.81298700  1
  O  O5  1  0.01297400  0.17214800  0.57384800  1
  O  O6  1  0.98702600  0.82785200  0.42615200  1
  O  O7  1  0.28421500  0.12722300  0.86422300  1
  O  O8  1  0.34679600  0.96649800  0.24342100  1
  O  O9  1  0.71578500  0.87277700  0.13577700  1
  O  O10  1  0.17416000  0.32883000  0.10949900  1
  O  O11  1  0.39803500  0.19201500  0.39991100  1
  O  O12  1  0.60196500  0.80798500  0.60008900  1
  O  O13  1  0.62133900  0.58589000  0.37734200  1
  O  O14  1  0.04371900  0.59968200  0.30279600  1
  O  O15  1  0.37866100  0.41411000  0.62265800  1
loop_
_geom_bond_atom_site_label_1
_geom_bond_atom_site_label_2
_geom_bond_distance
_geom_bond_site_symmetry_2
O0 P1 2.012637 1_555
O0 Sr0 2.390944 1_656
O0 Sr1 3.170709 1_555
O1 P0 1.581597 1_555
O1 Sr1 2.221187 1_554
O2 P1 1.709948 1_545
O2 Sr1 1.991778 1_555
O3 P3 1.591232 1_655
O3 Sn0 1.791647 1_555
O4 P1 1.581597 1_555
O4 Sr0 2.221187 1_556
O5 P3 1.195635 1_555
O5 Sn0 2.165450 1_455
O6 P2 1.195635 1_555
O6 Sn1 2.165450 1_655
O7 P3 2.176348 1_555
O7 Sr1 2.601074 1_555
O8 P0 1.709948 1_565
O8 Sr0 1.991778 1_555
O9 P2 2.176348 1_555
O9 Sr0 2.601074 1_555
O10 P0 2.012637 1_555
O10 Sr1 2.390944 1_454
O10 Sr0 3.170709 1_555
O11 P0 1.622638 1_555
O11 Sn0 1.755128 1_555
O12 P1 1.622638 1_555
O12 Sn1 1.755128 1_555
O13 P2 1.888112 1_555
O13 Sn1 2.150502 1_555
O14 P2 1.591232 1_455
O14 Sn1 1.791647 1_555
O15 P3 1.888112 1_555
O15 Sn0 2.150502 1_555
