# generated using pymatgen
data_MgFe4CuO8
_symmetry_space_group_name_H-M   'P 1'
_cell_length_a   6.05848478
_cell_length_b   5.91195018
_cell_length_c   5.99230995
_cell_angle_alpha   90.00000000
_cell_angle_beta   60.36067370
_cell_angle_gamma   119.33075621
_symmetry_Int_Tables_number   1
_chemical_formula_structural   MgFe4CuO8
_chemical_formula_sum   'Mg1 Fe4 Cu1 O8'
_cell_volume   154.09699425
_cell_formula_units_Z   1
loop_
 _symmetry_equiv_pos_site_id
 _symmetry_equiv_pos_as_xyz
  1  'x, y, z'
loop_
 _atom_site_type_symbol
 _atom_site_label
 _atom_site_symmetry_multiplicity
 _atom_site_fract_x
 _atom_site_fract_y
 _atom_site_fract_z
 _atom_site_occupancy
  Mg  Mg0  1  0.50000000  0.50000000  0.50000000  1
  Fe  Fe0  1  0.27561200  0.13141100  0.11219400  1
  Fe  Fe1  1  0.72438800  0.86858900  0.88780600  1
  Fe  Fe2  1  0.00000000  0.50000000  0.00000000  1
  Fe  Fe3  1  0.00000000  0.50000000  0.50000000  1
  Cu  Cu0  1  0.50000000  0.00000000  0.50000000  1
  O  O0  1  0.98618100  0.73116300  0.25690900  1
  O  O1  1  0.03876800  0.28677900  0.23061600  1
  O  O2  1  0.52747300  0.25277600  0.72082400  1
  O  O3  1  0.52747300  0.25277600  0.25170400  1
  O  O4  1  0.01381900  0.26883700  0.74309100  1
  O  O5  1  0.96123200  0.71322100  0.76938400  1
  O  O6  1  0.47252700  0.74722400  0.27917600  1
  O  O7  1  0.47252700  0.74722400  0.74829600  1
loop_
_geom_bond_atom_site_label_1
_geom_bond_atom_site_label_2
_geom_bond_distance
_geom_bond_site_symmetry_2
Mg0 O7 2.090705 1_555
Mg0 O3 2.090705 1_555
Mg0 O2 2.090709 1_555
Mg0 O6 2.090709 1_555
Mg0 O0 2.116163 1_555
Mg0 O4 2.116163 1_555
Fe0 O1 1.921034 1_555
Fe0 O2 1.931608 1_554
Fe0 O3 1.931613 1_555
Fe0 O0 1.963902 1_445
Fe1 O5 1.921034 1_555
Fe1 O6 1.931608 1_556
Fe1 O7 1.931613 1_555
Fe1 O4 1.963902 1_665
Fe2 O1 2.040824 1_555
Fe2 O5 2.040824 1_454
Fe2 O4 2.056521 1_554
Fe2 O0 2.056521 1_455
Fe2 O7 2.058331 1_554
Fe2 O3 2.058331 1_455
Fe3 O1 2.040824 1_555
Fe3 O5 2.040824 1_455
Fe3 O4 2.056525 1_555
Fe3 O0 2.056525 1_455
Fe3 O6 2.058331 1_555
Fe3 O2 2.058331 1_455
Cu0 O7 1.996510 1_545
Cu0 O3 1.996510 1_555
Cu0 O2 1.996514 1_555
Cu0 O6 1.996514 1_545
Cu0 O1 2.345518 1_655
Cu0 O5 2.345518 1_445
