# generated using pymatgen
data_Ti2(InCl3)3
_symmetry_space_group_name_H-M   'P 1'
_cell_length_a   7.09866481
_cell_length_b   7.09865379
_cell_length_c   17.29821290
_cell_angle_alpha   89.96926160
_cell_angle_beta   90.02031289
_cell_angle_gamma   119.99975955
_symmetry_Int_Tables_number   1
_chemical_formula_structural   Ti2(InCl3)3
_chemical_formula_sum   'Ti4 In6 Cl18'
_cell_volume   754.89321559
_cell_formula_units_Z   2
loop_
 _symmetry_equiv_pos_site_id
 _symmetry_equiv_pos_as_xyz
  1  'x, y, z'
loop_
 _atom_site_type_symbol
 _atom_site_label
 _atom_site_symmetry_multiplicity
 _atom_site_fract_x
 _atom_site_fract_y
 _atom_site_fract_z
 _atom_site_occupancy
  Ti  Ti0  1  0.33330513  0.66667436  0.83285324  1
  Ti  Ti1  1  0.33335213  0.66667267  0.66181396  1
  Ti  Ti2  1  0.66669559  0.33336213  0.33290303  1
  Ti  Ti3  1  0.66663711  0.33331733  0.16185040  1
  In  In0  1  0.33326316  0.66671451  0.05812610  1
  In  In1  1  0.33344680  0.66662122  0.44972735  1
  In  In2  1  -0.00011462  -0.00012872  0.27967083  1
  In  In3  1  0.00014727  -0.00002341  0.77962872  1
  In  In4  1  0.66657420  0.33319474  0.94976442  1
  In  In5  1  0.66673728  0.33342930  0.55825904  1
  Cl  Cl0  1  0.17361846  0.82641639  0.58579259  1
  Cl  Cl1  1  0.17268034  0.82725690  0.91013158  1
  Cl  Cl2  1  0.01219389  0.50607740  0.74852509  1
  Cl  Cl3  1  0.49392804  0.98782009  0.74848196  1
  Cl  Cl4  1  0.17258318  0.34537315  0.91007289  1
  Cl  Cl5  1  0.17374432  0.34735512  0.58571419  1
  Cl  Cl6  1  0.49391446  0.50609126  0.74851253  1
  Cl  Cl7  1  0.65457628  0.82736863  0.91004091  1
  Cl  Cl8  1  0.65267231  0.82630890  0.58567174  1
  Cl  Cl9  1  0.34543960  0.17278541  0.41009783  1
  Cl  Cl10  1  0.34731757  0.17363285  0.08570235  1
  Cl  Cl11  1  0.50608666  0.49387800  0.24851947  1
  Cl  Cl12  1  0.82635203  0.65274980  0.08579434  1
  Cl  Cl13  1  0.82730616  0.65458867  0.41016096  1
  Cl  Cl14  1  0.50608908  0.01219657  0.24855996  1
  Cl  Cl15  1  0.98778894  0.49388698  0.24857184  1
  Cl  Cl16  1  0.82625947  0.17363592  0.08574296  1
  Cl  Cl17  1  0.82740415  0.17274483  0.41011272  1
loop_
_geom_bond_atom_site_label_1
_geom_bond_atom_site_label_2
_geom_bond_distance
_geom_bond_site_symmetry_2
Cl0 Ti1 2.363058 1_555
Cl0 In1 3.066840 1_555
Cl1 Ti0 2.385155 1_555
Cl1 In3 3.097765 1_565
Cl2 Ti0 2.454442 1_555
Cl2 Ti1 2.479627 1_555
Cl3 Ti0 2.454683 1_555
Cl3 Ti1 2.479496 1_555
Cl4 Ti0 2.384040 1_555
Cl4 In3 3.099073 1_555
Cl5 Ti1 2.364017 1_555
Cl5 In1 3.062994 1_555
Cl6 Ti0 2.455686 1_555
Cl6 Ti1 2.478684 1_555
Cl7 Ti0 2.383929 1_555
Cl7 In3 3.098920 1_665
Cl8 Ti1 2.364097 1_555
Cl8 In1 3.062747 1_555
Cl9 Ti2 2.384141 1_555
Cl9 In2 3.098727 1_555
Cl10 Ti3 2.363932 1_555
Cl10 In4 3.063084 1_554
Cl11 Ti2 2.454585 1_555
Cl11 Ti3 2.479444 1_555
Cl12 Ti3 2.363276 1_555
Cl12 In4 3.065955 1_554
Cl13 Ti2 2.384949 1_555
Cl13 In2 3.097888 1_665
Cl14 Ti2 2.455465 1_555
Cl14 Ti3 2.478810 1_555
Cl15 Ti2 2.454618 1_555
Cl15 Ti3 2.479465 1_555
Cl16 Ti3 2.364125 1_555
Cl16 In4 3.062643 1_554
Cl17 Ti2 2.383954 1_555
Cl17 In2 3.099017 1_655
