# generated using pymatgen
data_Ca2W3O8
_symmetry_space_group_name_H-M   'P 1'
_cell_length_a   6.54046086
_cell_length_b   6.54046086
_cell_length_c   4.89327213
_cell_angle_alpha   76.86076142
_cell_angle_beta   76.86076142
_cell_angle_gamma   52.83149159
_symmetry_Int_Tables_number   1
_chemical_formula_structural   Ca2W3O8
_chemical_formula_sum   'Ca2 W3 O8'
_cell_volume   161.33874659
_cell_formula_units_Z   1
loop_
 _symmetry_equiv_pos_site_id
 _symmetry_equiv_pos_as_xyz
  1  'x, y, z'
loop_
 _atom_site_type_symbol
 _atom_site_label
 _atom_site_symmetry_multiplicity
 _atom_site_fract_x
 _atom_site_fract_y
 _atom_site_fract_z
 _atom_site_occupancy
  Ca  Ca0  1  0.72730478  0.72730478  0.32801856  1
  Ca  Ca1  1  0.27269522  0.27269522  0.67198144  1
  W  W0  1  -0.00000000  0.00000000  0.50000000  1
  W  W1  1  0.77212539  0.22787461  -0.00000000  1
  W  W2  1  0.22787461  0.77212539  -0.00000000  1
  O  O0  1  0.40968658  0.40968658  0.91226298  1
  O  O1  1  0.59031342  0.59031342  0.08773702  1
  O  O2  1  0.87491649  0.87491649  0.90268616  1
  O  O3  1  0.12508351  0.12508351  0.09731384  1
  O  O4  1  0.34341932  0.87575588  0.60728278  1
  O  O5  1  0.87575588  0.34341932  0.60728278  1
  O  O6  1  0.12424412  0.65658068  0.39271722  1
  O  O7  1  0.65658068  0.12424412  0.39271722  1
loop_
_geom_bond_atom_site_label_1
_geom_bond_atom_site_label_2
_geom_bond_distance
_geom_bond_site_symmetry_2
Ca0 O1 2.217188 1_555
Ca0 O5 2.282939 1_555
Ca0 O4 2.282939 1_555
Ca0 O2 2.344156 1_554
Ca0 O6 2.431109 1_655
Ca0 O7 2.431109 1_565
Ca1 O0 2.217188 1_555
Ca1 O6 2.282939 1_555
Ca1 O7 2.282939 1_555
Ca1 O3 2.344156 1_556
Ca1 O5 2.431109 1_455
Ca1 O4 2.431109 1_545
O0 W1 2.010522 1_556
O0 W2 2.010522 1_556
O1 W2 2.010522 1_555
O1 W1 2.010522 1_555
O2 W1 2.118217 1_566
O2 W2 2.118217 1_656
O2 W0 2.136402 1_665
O3 W1 2.118217 1_455
O3 W2 2.118217 1_545
O3 W0 2.136402 1_555
O4 W2 2.022339 1_556
O4 W0 2.029200 1_565
O5 W1 2.022339 1_556
O5 W0 2.029200 1_655
O6 W2 2.022339 1_555
O6 W0 2.029200 1_565
O7 W1 2.022339 1_555
O7 W0 2.029200 1_655
