# generated using pymatgen
data_SrEuMn4O12
_symmetry_space_group_name_H-M   'P 1'
_cell_length_a   5.83896019
_cell_length_b   5.83896019
_cell_length_c   8.30104690
_cell_angle_alpha   90.00000000
_cell_angle_beta   90.00000000
_cell_angle_gamma   90.00000000
_symmetry_Int_Tables_number   1
_chemical_formula_structural   SrEuMn4O12
_chemical_formula_sum   'Sr1 Eu1 Mn4 O12'
_cell_volume   283.01137807
_cell_formula_units_Z   1
loop_
 _symmetry_equiv_pos_site_id
 _symmetry_equiv_pos_as_xyz
  1  'x, y, z'
loop_
 _atom_site_type_symbol
 _atom_site_label
 _atom_site_symmetry_multiplicity
 _atom_site_fract_x
 _atom_site_fract_y
 _atom_site_fract_z
 _atom_site_occupancy
  Sr  Sr0  1  0.00000000  0.00000000  0.50000000  1
  Eu  Eu0  1  0.50000000  0.50000000  0.00000000  1
  Mn  Mn0  1  0.00000000  0.50000000  0.74771328  1
  Mn  Mn1  1  0.00000000  0.50000000  0.25228672  1
  Mn  Mn2  1  0.50000000  0.00000000  0.74771328  1
  Mn  Mn3  1  0.50000000  -0.00000000  0.25228672  1
  O  O0  1  0.25329023  0.25329023  0.75373596  1
  O  O1  1  0.25329023  0.25329023  0.24626404  1
  O  O2  1  0.74670977  0.74670977  0.75373596  1
  O  O3  1  0.74670977  0.74670977  0.24626404  1
  O  O4  1  0.74670977  0.25329023  0.75373596  1
  O  O5  1  0.74670977  0.25329023  0.24626404  1
  O  O6  1  0.25329023  0.74670977  0.75373596  1
  O  O7  1  0.25329023  0.74670977  0.24626404  1
  O  O8  1  0.00000000  0.50000000  0.50000000  1
  O  O9  1  0.00000000  0.50000000  0.00000000  1
  O  O10  1  0.50000000  -0.00000000  0.50000000  1
  O  O11  1  0.50000000  -0.00000000  0.00000000  1
loop_
_geom_bond_atom_site_label_1
_geom_bond_atom_site_label_2
_geom_bond_distance
_geom_bond_site_symmetry_2
Eu0 O5 2.886035 1_555
Eu0 O2 2.886035 1_554
Eu0 O6 2.886035 1_554
Eu0 O3 2.886035 1_555
Eu0 O0 2.886035 1_554
Eu0 O4 2.886035 1_554
Eu0 O1 2.886035 1_555
Eu0 O7 2.886035 1_555
Eu0 O11 2.919480 1_565
Eu0 O11 2.919480 1_555
Eu0 O9 2.919480 1_555
Eu0 O9 2.919480 1_655
Mn0 O8 2.056280 1_555
Mn0 O4 2.065168 1_455
Mn0 O0 2.065168 1_555
Mn0 O2 2.065168 1_455
Mn0 O6 2.065168 1_555
Mn0 O9 2.094244 1_556
Mn1 O8 2.056280 1_555
Mn1 O1 2.065168 1_555
Mn1 O5 2.065168 1_455
Mn1 O3 2.065168 1_455
Mn1 O7 2.065168 1_555
Mn1 O9 2.094244 1_555
Mn2 O10 2.056280 1_555
Mn2 O2 2.065168 1_545
Mn2 O0 2.065168 1_555
Mn2 O4 2.065168 1_555
Mn2 O6 2.065168 1_545
Mn2 O11 2.094244 1_556
Mn3 O10 2.056280 1_555
Mn3 O7 2.065168 1_545
Mn3 O1 2.065168 1_555
Mn3 O3 2.065168 1_545
Mn3 O5 2.065168 1_555
Mn3 O11 2.094244 1_555
O0 Sr0 2.968331 1_555
O1 Sr0 2.968331 1_555
O2 Sr0 2.968331 1_665
O3 Sr0 2.968331 1_665
O4 Sr0 2.968331 1_655
O5 Sr0 2.968331 1_655
O6 Sr0 2.968331 1_565
O7 Sr0 2.968331 1_565
O8 Sr0 2.919480 1_565
O8 Sr0 2.919480 1_555
O10 Sr0 2.919480 1_655
O10 Sr0 2.919480 1_555
