# generated using pymatgen
data_K2MgP2
_symmetry_space_group_name_H-M   'P 1'
_cell_length_a   3.49371700
_cell_length_b   3.49371700
_cell_length_c   15.04660700
_cell_angle_alpha   90.00000000
_cell_angle_beta   90.00000000
_cell_angle_gamma   90.00000000
_symmetry_Int_Tables_number   1
_chemical_formula_structural   K2MgP2
_chemical_formula_sum   'K2 Mg1 P2'
_cell_volume   183.65976491
_cell_formula_units_Z   1
loop_
 _symmetry_equiv_pos_site_id
 _symmetry_equiv_pos_as_xyz
  1  'x, y, z'
loop_
 _atom_site_type_symbol
 _atom_site_label
 _atom_site_symmetry_multiplicity
 _atom_site_fract_x
 _atom_site_fract_y
 _atom_site_fract_z
 _atom_site_occupancy
  K  K0  1  0.50000000  0.50000000  0.64584100  1
  K  K1  1  0.50000000  0.50000000  0.35415900  1
  Mg  Mg0  1  0.50000000  0.50000000  0.00000000  1
  P  P0  1  0.50000000  0.50000000  0.15886300  1
  P  P1  1  0.50000000  0.50000000  0.84113700  1
loop_
_geom_bond_atom_site_label_1
_geom_bond_atom_site_label_2
_geom_bond_distance
_geom_bond_site_symmetry_2
K0 P1 2.938542 1_555
K1 P0 2.938542 1_555
Mg0 P1 2.390349 1_554
Mg0 P0 2.390349 1_555
