# generated using pymatgen
data_VP2H4NO7
_symmetry_space_group_name_H-M   'P 1'
_cell_length_a   7.63530191
_cell_length_b   8.38169418
_cell_length_c   10.21166300
_cell_angle_alpha   90.00000000
_cell_angle_beta   90.00000000
_cell_angle_gamma   105.92537021
_symmetry_Int_Tables_number   1
_chemical_formula_structural   VP2H4NO7
_chemical_formula_sum   'V4 P8 H16 N4 O28'
_cell_volume   628.43149816
_cell_formula_units_Z   4
loop_
 _symmetry_equiv_pos_site_id
 _symmetry_equiv_pos_as_xyz
  1  'x, y, z'
loop_
 _atom_site_type_symbol
 _atom_site_label
 _atom_site_symmetry_multiplicity
 _atom_site_fract_x
 _atom_site_fract_y
 _atom_site_fract_z
 _atom_site_occupancy
  V  V0  1  0.76108000  0.24061300  0.60259200  1
  V  V1  1  0.23892000  0.25938700  0.10259200  1
  V  V2  1  0.23892000  0.75938700  0.39740800  1
  V  V3  1  0.76108000  0.74061300  0.89740800  1
  P  P0  1  0.86694400  0.17011900  0.90412400  1
  P  P1  1  0.13305600  0.32988100  0.40412400  1
  P  P2  1  0.13305600  0.82988100  0.09587600  1
  P  P3  1  0.86694400  0.67011900  0.59587600  1
  P  P4  1  0.56454200  0.31273200  0.86831800  1
  P  P5  1  0.43545800  0.18726800  0.36831800  1
  P  P6  1  0.43545800  0.68726800  0.13168200  1
  P  P7  1  0.56454200  0.81273200  0.63168200  1
  H  H0  1  0.25986700  0.03159300  0.76646200  1
  H  H1  1  0.74013300  0.46840700  0.26646200  1
  H  H2  1  0.74013300  0.96840700  0.23353800  1
  H  H3  1  0.25986700  0.53159300  0.73353800  1
  H  H4  1  0.19054100  0.96988900  0.61196000  1
  H  H5  1  0.80945900  0.53011100  0.11196000  1
  H  H6  1  0.80945900  0.03011100  0.38804000  1
  H  H7  1  0.19054100  0.46988900  0.88804000  1
  H  H8  1  0.04433700  0.01242100  0.71910300  1
  H  H9  1  0.95566300  0.48757900  0.21910300  1
  H  H10  1  0.95566300  0.98757900  0.28089700  1
  H  H11  1  0.04433700  0.51242100  0.78089700  1
  H  H12  1  0.21734000  0.16632700  0.66006100  1
  H  H13  1  0.78266000  0.33367300  0.16006100  1
  H  H14  1  0.78266000  0.83367300  0.33993900  1
  H  H15  1  0.21734000  0.66632700  0.83993900  1
  N  N0  1  0.17849500  0.04499300  0.68952900  1
  N  N1  1  0.82150500  0.45500700  0.18952900  1
  N  N2  1  0.82150500  0.95500700  0.31047100  1
  N  N3  1  0.17849500  0.54499300  0.81047100  1
  O  O0  1  0.85173600  0.48642300  0.58912700  1
  O  O1  1  0.14826400  0.01357700  0.08912700  1
  O  O2  1  0.14826400  0.51357700  0.41087300  1
  O  O3  1  0.85173600  0.98642300  0.91087300  1
  O  O4  1  0.67954600  0.98956300  0.60487200  1
  O  O5  1  0.32045400  0.51043700  0.10487200  1
  O  O6  1  0.32045400  0.01043700  0.39512800  1
  O  O7  1  0.67954600  0.48956300  0.89512800  1
  O  O8  1  0.99631800  0.22501600  0.50040900  1
  O  O9  1  0.00368100  0.27498400  0.00040900  1
  O  O10  1  0.00368100  0.77498400  0.49959100  1
  O  O11  1  0.99631800  0.72501600  0.99959100  1
  O  O12  1  0.54949000  0.26139600  0.72409100  1
  O  O13  1  0.45051000  0.23860400  0.22409100  1
  O  O14  1  0.45051000  0.73860400  0.27590900  1
  O  O15  1  0.54949000  0.76139600  0.77590900  1
  O  O16  1  0.62583500  0.23096500  0.42961800  1
  O  O17  1  0.37416500  0.26903500  0.92961800  1
  O  O18  1  0.37416500  0.76903500  0.57038200  1
  O  O19  1  0.62583500  0.73096500  0.07038200  1
  O  O20  1  0.91049000  0.23889600  0.76400800  1
  O  O21  1  0.08951000  0.26110400  0.26400800  1
  O  O22  1  0.08951000  0.76110400  0.23599200  1
  O  O23  1  0.91049000  0.73889600  0.73599200  1
  O  O24  1  0.66937400  0.19311900  0.94495600  1
  O  O25  1  0.33062600  0.30688100  0.44495600  1
  O  O26  1  0.33062600  0.80688100  0.05504400  1
  O  O27  1  0.66937400  0.69311900  0.55504400  1
loop_
_geom_bond_atom_site_label_1
_geom_bond_atom_site_label_2
_geom_bond_distance
_geom_bond_site_symmetry_2
H0 N0 1.026699 1_555
H1 N1 1.026699 1_555
H2 N2 1.026699 1_555
H3 N3 1.026699 1_555
H4 N0 1.031473 1_565
H5 N1 1.031473 1_555
H6 N2 1.031473 1_545
H7 N3 1.031473 1_555
H8 N0 1.030310 1_555
H9 N1 1.030310 1_555
H10 N2 1.030310 1_555
H11 N3 1.030310 1_555
H12 N0 1.023352 1_555
H13 N1 1.023352 1_555
H14 N2 1.023352 1_555
H15 N3 1.023352 1_555
O0 P3 1.513522 1_555
O0 V0 1.990043 1_555
O1 P2 1.513522 1_545
O1 V1 1.990043 1_555
O2 P1 1.513522 1_555
O2 V2 1.990043 1_555
O3 P0 1.513522 1_565
O3 V3 1.990043 1_555
O4 P7 1.525957 1_555
O4 V0 2.024102 1_565
O5 P6 1.525957 1_555
O5 V1 2.024102 1_555
O6 P5 1.525957 1_555
O6 V2 2.024102 1_545
O7 P4 1.525957 1_555
O7 V3 2.024102 1_555
O8 P1 1.525031 1_655
O8 V0 2.112054 1_555
O9 P0 1.525027 1_454
O9 V1 2.112061 1_555
O10 P3 1.525027 1_455
O10 V2 2.112061 1_555
O11 P2 1.525031 1_656
O11 V3 2.112054 1_555
O12 P4 1.529819 1_555
O12 V0 2.081862 1_555
O13 P5 1.529819 1_555
O13 V1 2.081862 1_555
O14 P6 1.529819 1_555
O14 V2 2.081862 1_555
O15 P7 1.529819 1_555
O15 V3 2.081862 1_555
O16 P5 1.531908 1_555
O16 V0 2.036431 1_555
O17 P4 1.531908 1_555
O17 V1 2.036431 1_556
O18 P7 1.531908 1_555
O18 V2 2.036431 1_555
O19 P6 1.531908 1_555
O19 V3 2.036431 1_554
O20 P0 1.544318 1_555
O20 V0 2.006887 1_555
O21 P1 1.544318 1_555
O21 V1 2.006887 1_555
O22 P2 1.544318 1_555
O22 V2 2.006887 1_555
O23 P3 1.544318 1_555
O23 V3 2.006887 1_555
O24 P0 1.626715 1_555
O24 P4 1.642754 1_555
O25 P1 1.626715 1_555
O25 P5 1.642754 1_555
O26 P2 1.626715 1_555
O26 P6 1.642754 1_555
O27 P3 1.626715 1_555
O27 P7 1.642754 1_555
