# generated using pymatgen
data_Li2GeSb2Te5
_symmetry_space_group_name_H-M   'P 1'
_cell_length_a   18.14034464
_cell_length_b   18.14034464
_cell_length_c   18.14034399
_cell_angle_alpha   13.72567977
_cell_angle_beta   13.72567977
_cell_angle_gamma   13.72567851
_symmetry_Int_Tables_number   1
_chemical_formula_structural   Li2GeSb2Te5
_chemical_formula_sum   'Li2 Ge1 Sb2 Te5'
_cell_volume   292.44067839
_cell_formula_units_Z   1
loop_
 _symmetry_equiv_pos_site_id
 _symmetry_equiv_pos_as_xyz
  1  'x, y, z'
loop_
 _atom_site_type_symbol
 _atom_site_label
 _atom_site_symmetry_multiplicity
 _atom_site_fract_x
 _atom_site_fract_y
 _atom_site_fract_z
 _atom_site_occupancy
  Li  Li0  1  0.41175300  0.41175300  0.41175300  1
  Li  Li1  1  0.78668000  0.78668000  0.78668000  1
  Ge  Ge0  1  0.00563700  0.00563700  0.00563700  1
  Sb  Sb0  1  0.19570200  0.19570200  0.19570200  1
  Sb  Sb1  1  0.60258200  0.60258200  0.60258200  1
  Te  Te0  1  0.30140200  0.30140200  0.30140200  1
  Te  Te1  1  0.49693300  0.49693300  0.49693300  1
  Te  Te2  1  0.89967700  0.89967700  0.89967700  1
  Te  Te3  1  0.69876800  0.69876800  0.69876800  1
  Te  Te4  1  0.10086700  0.10086700  0.10086700  1
loop_
_geom_bond_atom_site_label_1
_geom_bond_atom_site_label_2
_geom_bond_distance
_geom_bond_site_symmetry_2
Li0 Te4 2.780075 1_556
Li0 Te4 2.780075 1_565
Li0 Te4 2.780075 1_655
Li1 Te4 2.707382 1_665
Li1 Te4 2.707383 1_656
Li1 Te4 2.707383 1_566
Li1 Te1 3.432817 1_556
Li1 Te1 3.432817 1_655
Li1 Te1 3.432817 1_565
Ge0 Te3 2.880909 1_445
Ge0 Te3 2.880909 1_544
Ge0 Te3 2.880909 1_454
Ge0 Te0 3.219524 1_554
Ge0 Te0 3.219524 1_455
Ge0 Te0 3.219524 1_545
Sb0 Te1 3.042852 1_554
Sb0 Te1 3.042853 1_545
Sb0 Te1 3.042853 1_455
Sb0 Te2 3.210728 1_445
Sb0 Te2 3.210728 1_454
Sb0 Te2 3.210728 1_544
Sb1 Te0 3.044416 1_556
Sb1 Te0 3.044417 1_655
Sb1 Te0 3.044417 1_565
Sb1 Te2 3.174924 1_554
Sb1 Te2 3.174924 1_455
Sb1 Te2 3.174924 1_545
