# generated using pymatgen
data_RbSrMg14
_symmetry_space_group_name_H-M   'P 1'
_cell_length_a   6.88998116
_cell_length_b   6.88998051
_cell_length_c   10.60739446
_cell_angle_alpha   90.00000000
_cell_angle_beta   90.00000000
_cell_angle_gamma   120.00000310
_symmetry_Int_Tables_number   1
_chemical_formula_structural   RbSrMg14
_chemical_formula_sum   'Rb1 Sr1 Mg14'
_cell_volume   436.08923440
_cell_formula_units_Z   1
loop_
 _symmetry_equiv_pos_site_id
 _symmetry_equiv_pos_as_xyz
  1  'x, y, z'
loop_
 _atom_site_type_symbol
 _atom_site_label
 _atom_site_symmetry_multiplicity
 _atom_site_fract_x
 _atom_site_fract_y
 _atom_site_fract_z
 _atom_site_occupancy
  Rb  Rb0  1  0.16666700  0.33333300  0.12500000  1
  Sr  Sr0  1  0.16666700  0.33333300  0.62500000  1
  Mg  Mg0  1  0.17305604  0.83652752  0.12500000  1
  Mg  Mg1  1  0.17629691  0.83814796  0.62500000  1
  Mg  Mg2  1  0.66347248  0.32694396  0.12500000  1
  Mg  Mg3  1  0.66185204  0.32370309  0.62500000  1
  Mg  Mg4  1  0.66347248  0.83652752  0.12500000  1
  Mg  Mg5  1  0.66185204  0.83814796  0.62500000  1
  Mg  Mg6  1  0.34612942  0.15387058  0.37848129  1
  Mg  Mg7  1  0.34612942  0.15387058  0.87151871  1
  Mg  Mg8  1  0.34612942  0.69225985  0.37848129  1
  Mg  Mg9  1  0.34612942  0.69225985  0.87151871  1
  Mg  Mg10  1  0.80774015  0.15387058  0.37848129  1
  Mg  Mg11  1  0.80774015  0.15387058  0.87151871  1
  Mg  Mg12  1  0.83333300  0.66666700  0.37521508  1
  Mg  Mg13  1  0.83333300  0.66666700  0.87478492  1
loop_
_geom_bond_atom_site_label_1
_geom_bond_atom_site_label_2
_geom_bond_distance
_geom_bond_site_symmetry_2
Mg0 Mg9 3.290116 1_554
Mg0 Mg8 3.290116 1_555
Mg0 Mg7 3.290123 1_564
Mg0 Mg6 3.290123 1_565
Mg0 Mg12 3.339687 1_455
Mg0 Mg13 3.339687 1_454
Mg0 Mg2 3.378960 1_565
Mg0 Mg4 3.378960 1_555
Mg0 Rb0 3.445201 1_555
Mg0 Rb0 3.445201 1_565
Mg0 Mg2 3.511021 1_455
Mg0 Mg4 3.511021 1_455
Mg1 Mg8 3.223910 1_555
Mg1 Mg9 3.223910 1_555
Mg1 Mg6 3.223916 1_565
Mg1 Mg7 3.223916 1_565
Mg1 Mg3 3.345465 1_565
Mg1 Mg5 3.345466 1_555
Mg1 Mg13 3.347848 1_455
Mg1 Mg12 3.347848 1_455
Mg1 Sr0 3.445469 1_565
Mg1 Sr0 3.445469 1_555
Mg1 Mg3 3.544515 1_455
Mg1 Mg5 3.544515 1_455
Mg2 Mg7 3.290123 1_554
Mg2 Mg6 3.290123 1_555
Mg2 Mg4 3.378960 1_545
Mg2 Rb0 3.445202 1_655
Mg2 Rb0 3.445202 1_555
Mg2 Mg4 3.511021 1_555
Mg3 Mg6 3.223917 1_555
Mg3 Mg7 3.223917 1_555
Mg3 Mg5 3.345465 1_545
Mg3 Sr0 3.445470 1_555
Mg3 Sr0 3.445470 1_655
Mg3 Mg5 3.544515 1_555
Mg4 Mg9 3.290123 1_554
Mg4 Mg8 3.290123 1_555
Mg4 Rb0 3.445201 1_555
Mg4 Rb0 3.445201 1_665
Mg5 Mg8 3.223917 1_555
Mg5 Mg9 3.223917 1_555
Mg5 Sr0 3.445469 1_555
Mg5 Sr0 3.445469 1_665
Mg6 Mg8 3.180489 1_545
Mg6 Sr0 3.380023 1_555
Mg6 Rb0 3.437479 1_555
Mg7 Mg9 3.180489 1_545
Mg7 Sr0 3.380023 1_555
Mg7 Rb0 3.437479 1_556
Mg8 Sr0 3.380030 1_555
Mg8 Rb0 3.437486 1_555
Mg9 Sr0 3.380030 1_555
Mg9 Rb0 3.437486 1_556
Mg10 Mg8 3.180489 1_545
Mg10 Mg6 3.180489 1_555
Mg10 Mg3 3.223910 1_555
Mg10 Mg5 3.223917 1_545
Mg10 Mg2 3.290116 1_555
Mg10 Mg4 3.290123 1_545
Mg10 Sr0 3.380031 1_655
Mg10 Rb0 3.437486 1_655
Mg10 Mg12 3.448547 1_555
Mg10 Mg12 3.448547 1_545
Mg11 Mg9 3.180489 1_545
Mg11 Mg7 3.180489 1_555
Mg11 Mg3 3.223910 1_555
Mg11 Mg5 3.223917 1_545
Mg11 Mg2 3.290116 1_556
Mg11 Mg4 3.290123 1_546
Mg11 Sr0 3.380031 1_655
Mg11 Rb0 3.437486 1_656
Mg11 Mg13 3.448547 1_555
Mg11 Mg13 3.448547 1_545
Mg12 Mg4 3.339680 1_555
Mg12 Mg2 3.339687 1_555
Mg12 Mg5 3.347841 1_555
Mg12 Mg3 3.347848 1_555
Mg12 Mg6 3.448547 1_555
Mg12 Mg6 3.448547 1_665
Mg12 Mg8 3.448548 1_655
Mg12 Mg8 3.448548 1_555
Mg13 Mg4 3.339680 1_556
Mg13 Mg2 3.339687 1_556
Mg13 Mg5 3.347841 1_555
Mg13 Mg3 3.347848 1_555
Mg13 Mg7 3.448547 1_555
Mg13 Mg7 3.448547 1_665
Mg13 Mg9 3.448548 1_655
Mg13 Mg9 3.448548 1_555
