# generated using pymatgen
data_BaLaSmMn3O9
_symmetry_space_group_name_H-M   'P 1'
_cell_length_a   5.62166774
_cell_length_b   5.62166774
_cell_length_c   13.53232600
_cell_angle_alpha   90.00000000
_cell_angle_beta   90.00000000
_cell_angle_gamma   119.99999695
_symmetry_Int_Tables_number   1
_chemical_formula_structural   BaLaSmMn3O9
_chemical_formula_sum   'Ba2 La2 Sm2 Mn6 O18'
_cell_volume   370.36798963
_cell_formula_units_Z   2
loop_
 _symmetry_equiv_pos_site_id
 _symmetry_equiv_pos_as_xyz
  1  'x, y, z'
loop_
 _atom_site_type_symbol
 _atom_site_label
 _atom_site_symmetry_multiplicity
 _atom_site_fract_x
 _atom_site_fract_y
 _atom_site_fract_z
 _atom_site_occupancy
  Ba  Ba0  1  0.00000000  0.00000000  0.00000000  1
  Ba  Ba1  1  0.00000000  0.00000000  0.50000000  1
  La  La0  1  0.33333300  0.66666700  0.83135200  1
  La  La1  1  0.66666700  0.33333300  0.16864800  1
  Sm  Sm0  1  0.33333300  0.66666700  0.33024300  1
  Sm  Sm1  1  0.66666700  0.33333300  0.66975700  1
  Mn  Mn0  1  0.00000000  0.00000000  0.25176300  1
  Mn  Mn1  1  0.33333300  0.66666700  0.58222500  1
  Mn  Mn2  1  0.66666700  0.33333300  0.91653900  1
  Mn  Mn3  1  0.00000000  0.00000000  0.74823700  1
  Mn  Mn4  1  0.33333300  0.66666700  0.08346100  1
  Mn  Mn5  1  0.66666700  0.33333300  0.41777500  1
  O  O0  1  0.75513500  0.09709300  0.32758000  1
  O  O1  1  0.09709300  0.75513500  0.67242000  1
  O  O2  1  0.47811200  0.47811200  0.00000000  1
  O  O3  1  0.34195800  0.24486500  0.32758000  1
  O  O4  1  0.65804200  0.90290700  0.67242000  1
  O  O5  1  0.00000000  0.52188800  0.00000000  1
  O  O6  1  0.90290700  0.65804200  0.32758000  1
  O  O7  1  0.24486500  0.34195800  0.67242000  1
  O  O8  1  0.52188800  0.00000000  0.00000000  1
  O  O9  1  0.65681000  0.76751900  0.17532100  1
  O  O10  1  0.00000000  0.47348800  0.50000000  1
  O  O11  1  0.34319000  0.11070900  0.82467900  1
  O  O12  1  0.11070900  0.34319000  0.17532100  1
  O  O13  1  0.47348800  0.00000000  0.50000000  1
  O  O14  1  0.76751900  0.65681000  0.82467900  1
  O  O15  1  0.23248100  0.88929100  0.17532100  1
  O  O16  1  0.52651200  0.52651200  0.50000000  1
  O  O17  1  0.88929100  0.23248100  0.82467900  1
loop_
_geom_bond_atom_site_label_1
_geom_bond_atom_site_label_2
_geom_bond_distance
_geom_bond_site_symmetry_2
Ba0 O5 2.687787 1_545
Ba0 O8 2.687787 1_455
Ba0 O2 2.687787 1_555
Ba0 O17 2.921911 1_454
Ba0 O15 2.921911 1_545
Ba0 O11 2.921911 1_554
Ba0 O12 2.921911 1_555
Ba0 O14 2.921911 1_444
Ba0 O9 2.921911 1_445
Ba0 O8 2.933881 1_555
Ba0 O5 2.933881 1_555
Ba0 O2 2.933881 1_445
Ba1 O10 2.661792 1_555
Ba1 O13 2.661792 1_555
Ba1 O16 2.661792 1_445
Ba1 O1 2.896238 1_545
Ba1 O0 2.896238 1_455
Ba1 O6 2.896238 1_445
Ba1 O4 2.896238 1_445
Ba1 O3 2.896238 1_555
Ba1 O7 2.896238 1_555
Ba1 O10 2.959876 1_545
Ba1 O13 2.959876 1_455
Ba1 O16 2.959876 1_555
La0 O11 2.470667 1_565
La0 O17 2.470670 1_455
La0 O14 2.470673 1_555
La0 O1 2.701330 1_555
La0 O4 2.701333 1_555
La0 O7 2.701334 1_555
La0 O5 2.803064 1_556
La0 O8 2.803064 1_566
La0 O2 2.803067 1_556
La1 O12 2.470667 1_655
La1 O15 2.470670 1_545
La1 O9 2.470673 1_555
La1 O0 2.701330 1_555
La1 O6 2.701333 1_555
La1 O3 2.701334 1_555
La1 O8 2.803064 1_555
La1 O5 2.803064 1_655
La1 O2 2.803067 1_555
Mn0 O15 1.994710 1_545
Mn0 O12 1.994710 1_555
Mn0 O9 1.994710 1_445
Mn0 O0 1.999201 1_455
Mn0 O6 1.999201 1_445
Mn0 O3 1.999201 1_555
Mn1 O13 1.973295 1_565
Mn1 O10 1.973296 1_555
Mn1 O16 1.973299 1_555
Mn1 O1 2.039934 1_555
Mn1 O4 2.039937 1_555
Mn1 O7 2.039938 1_555
Mn2 O8 1.980990 1_556
Mn2 O5 1.980991 1_656
Mn2 O2 1.980995 1_556
Mn2 O17 2.035323 1_555
Mn2 O11 2.035326 1_555
Mn2 O14 2.035327 1_555
Mn3 O17 1.994710 1_455
Mn3 O11 1.994710 1_555
Mn3 O14 1.994710 1_445
Mn3 O1 1.999201 1_545
Mn3 O4 1.999201 1_445
Mn3 O7 1.999201 1_555
Mn4 O5 1.980990 1_555
Mn4 O8 1.980991 1_565
Mn4 O2 1.980995 1_555
Mn4 O15 2.035323 1_555
Mn4 O12 2.035326 1_555
Mn4 O9 2.035327 1_555
Mn5 O10 1.973295 1_655
Mn5 O13 1.973296 1_555
Mn5 O16 1.973299 1_555
Mn5 O0 2.039934 1_555
Mn5 O6 2.039937 1_555
Mn5 O3 2.039938 1_555
O0 Sm0 2.396110 1_545
O1 Sm1 2.396110 1_455
O3 Sm0 2.396113 1_555
O4 Sm1 2.396108 1_565
O6 Sm0 2.396108 1_655
O7 Sm1 2.396113 1_555
O9 Sm0 2.644321 1_555
O10 Sm1 2.816552 1_455
O10 Sm0 2.816552 1_555
O11 Sm1 2.644320 1_555
O12 Sm0 2.644320 1_555
O13 Sm0 2.816552 1_545
O13 Sm1 2.816552 1_555
O14 Sm1 2.644321 1_555
O15 Sm0 2.644318 1_555
O16 Sm0 2.816555 1_555
O16 Sm1 2.816555 1_555
O17 Sm1 2.644318 1_555
