# generated using pymatgen
data_Y10Cd3Pd
_symmetry_space_group_name_H-M   'P 1'
_cell_length_a   9.77011990
_cell_length_b   9.77011990
_cell_length_c   9.79754400
_cell_angle_alpha   90.00000000
_cell_angle_beta   90.00000000
_cell_angle_gamma   119.99999931
_symmetry_Int_Tables_number   1
_chemical_formula_structural   Y10Cd3Pd
_chemical_formula_sum   'Y20 Cd6 Pd2'
_cell_volume   809.93029532
_cell_formula_units_Z   2
loop_
 _symmetry_equiv_pos_site_id
 _symmetry_equiv_pos_as_xyz
  1  'x, y, z'
loop_
 _atom_site_type_symbol
 _atom_site_label
 _atom_site_symmetry_multiplicity
 _atom_site_fract_x
 _atom_site_fract_y
 _atom_site_fract_z
 _atom_site_occupancy
  Y  Y0  1  0.20731400  0.79268600  0.94049500  1
  Y  Y1  1  0.20731400  0.41462800  0.94049500  1
  Y  Y2  1  0.58537200  0.79268600  0.94049500  1
  Y  Y3  1  0.79268600  0.20731400  0.05950500  1
  Y  Y4  1  0.79268600  0.58537200  0.05950500  1
  Y  Y5  1  0.41462800  0.20731400  0.05950500  1
  Y  Y6  1  0.79268600  0.20731400  0.44049500  1
  Y  Y7  1  0.79268600  0.58537200  0.44049500  1
  Y  Y8  1  0.41462800  0.20731400  0.44049500  1
  Y  Y9  1  0.20731400  0.79268600  0.55950500  1
  Y  Y10  1  0.20731400  0.41462800  0.55950500  1
  Y  Y11  1  0.58537200  0.79268600  0.55950500  1
  Y  Y12  1  0.54332800  0.45667200  0.75000000  1
  Y  Y13  1  0.54332800  0.08665600  0.75000000  1
  Y  Y14  1  0.91334400  0.45667200  0.75000000  1
  Y  Y15  1  0.45667200  0.54332800  0.25000000  1
  Y  Y16  1  0.45667200  0.91334400  0.25000000  1
  Y  Y17  1  0.08665600  0.54332800  0.25000000  1
  Y  Y18  1  0.00000000  0.00000000  0.00000000  1
  Y  Y19  1  0.00000000  0.00000000  0.50000000  1
  Cd  Cd0  1  0.88416900  0.11583100  0.75000000  1
  Cd  Cd1  1  0.88416900  0.76833900  0.75000000  1
  Cd  Cd2  1  0.23166100  0.11583100  0.75000000  1
  Cd  Cd3  1  0.11583100  0.88416900  0.25000000  1
  Cd  Cd4  1  0.11583100  0.23166100  0.25000000  1
  Cd  Cd5  1  0.76833900  0.88416900  0.25000000  1
  Pd  Pd0  1  0.33333300  0.66666700  0.75000000  1
  Pd  Pd1  1  0.66666700  0.33333300  0.25000000  1
loop_
_geom_bond_atom_site_label_1
_geom_bond_atom_site_label_2
_geom_bond_distance
_geom_bond_site_symmetry_2
Cd0 Y19 3.137134 1_655
Cd0 Y18 3.137134 1_656
Cd0 Y14 3.197080 1_555
Cd0 Y13 3.197080 1_555
Cd0 Cd2 3.395039 1_655
Cd0 Cd1 3.395039 1_545
Cd0 Y3 3.404705 1_556
Cd0 Y6 3.404705 1_555
Cd0 Y11 3.571643 1_545
Cd0 Y2 3.571643 1_545
Cd0 Y1 3.571643 1_655
Cd0 Y10 3.571643 1_655
Cd1 Y19 3.137129 1_665
Cd1 Y18 3.137129 1_666
Cd1 Y12 3.197084 1_555
Cd1 Y14 3.197090 1_555
Cd1 Cd2 3.395039 1_665
Cd1 Y4 3.404709 1_556
Cd1 Y7 3.404709 1_555
Cd1 Y2 3.571638 1_555
Cd1 Y11 3.571638 1_555
Cd1 Y0 3.571646 1_655
Cd1 Y9 3.571646 1_655
Cd2 Y19 3.137129 1_555
Cd2 Y18 3.137129 1_556
Cd2 Y12 3.197084 1_555
Cd2 Y13 3.197090 1_555
Cd2 Y5 3.404709 1_556
Cd2 Y8 3.404709 1_555
Cd2 Y10 3.571638 1_555
Cd2 Y1 3.571638 1_555
Cd2 Y0 3.571646 1_545
Cd2 Y9 3.571646 1_545
Cd3 Y19 3.137134 1_565
Cd3 Y18 3.137134 1_565
Cd3 Y16 3.197080 1_555
Cd3 Y17 3.197080 1_555
Cd3 Cd4 3.395039 1_565
Cd3 Cd5 3.395039 1_455
Cd3 Y0 3.404705 1_554
Cd3 Y9 3.404705 1_555
Cd3 Y8 3.571643 1_565
Cd3 Y7 3.571643 1_455
Cd3 Y5 3.571643 1_565
Cd3 Y4 3.571643 1_455
Cd4 Y18 3.137129 1_555
Cd4 Y19 3.137129 1_555
Cd4 Y15 3.197084 1_555
Cd4 Y17 3.197090 1_555
Cd4 Cd5 3.395039 1_445
Cd4 Y1 3.404709 1_554
Cd4 Y10 3.404709 1_555
Cd4 Y8 3.571638 1_555
Cd4 Y5 3.571638 1_555
Cd4 Y3 3.571646 1_455
Cd4 Y6 3.571646 1_455
Cd5 Y19 3.137129 1_665
Cd5 Y18 3.137129 1_665
Cd5 Y15 3.197084 1_555
Cd5 Y16 3.197090 1_555
Cd5 Y11 3.404709 1_555
Cd5 Y2 3.404709 1_554
Cd5 Y7 3.571638 1_555
Cd5 Y4 3.571638 1_555
Cd5 Y6 3.571646 1_565
Cd5 Y3 3.571646 1_565
Pd0 Y0 2.833919 1_555
Pd0 Y9 2.833919 1_555
Pd0 Y10 2.833926 1_555
Pd0 Y1 2.833926 1_555
Pd0 Y2 2.833926 1_555
Pd0 Y11 2.833926 1_555
Pd0 Y14 3.553599 1_455
Pd0 Y13 3.553599 1_565
Pd0 Y12 3.553608 1_555
Pd1 Y3 2.833919 1_555
Pd1 Y6 2.833919 1_555
Pd1 Y7 2.833926 1_555
Pd1 Y8 2.833926 1_555
Pd1 Y5 2.833926 1_555
Pd1 Y4 2.833926 1_555
Pd1 Y16 3.553599 1_545
Pd1 Y17 3.553599 1_655
Pd1 Y15 3.553608 1_555
