# generated using pymatgen
data_La9Ge5S21
_symmetry_space_group_name_H-M   'P 1'
_cell_length_a   6.09196065
_cell_length_b   10.33696545
_cell_length_c   27.32751224
_cell_angle_alpha   79.18344663
_cell_angle_beta   89.99905335
_cell_angle_gamma   89.97791876
_symmetry_Int_Tables_number   1
_chemical_formula_structural   La9Ge5S21
_chemical_formula_sum   'La18 Ge10 S42'
_cell_volume   1690.30381461
_cell_formula_units_Z   2
loop_
 _symmetry_equiv_pos_site_id
 _symmetry_equiv_pos_as_xyz
  1  'x, y, z'
loop_
 _atom_site_type_symbol
 _atom_site_label
 _atom_site_symmetry_multiplicity
 _atom_site_fract_x
 _atom_site_fract_y
 _atom_site_fract_z
 _atom_site_occupancy
  La  La0  1  0.25271547  0.67105249  0.04616362  1
  La  La1  1  0.24472856  0.01804558  0.37837989  1
  La  La2  1  0.24498178  0.35437859  0.71040727  1
  La  La3  1  0.23965794  0.43749502  0.21427206  1
  La  La4  1  0.24463570  0.77236218  0.54752147  1
  La  La5  1  0.26087090  0.11334703  0.87404971  1
  La  La6  1  0.25061769  0.21910843  0.07766659  1
  La  La7  1  0.24482871  0.54187706  0.40881833  1
  La  La8  1  0.24665363  0.87293548  0.74226620  1
  La  La9  1  0.75536389  0.64760689  0.28923156  1
  La  La10  1  0.75481186  0.98266239  0.62162429  1
  La  La11  1  0.74214439  0.33322968  0.95117581  1
  La  La12  1  0.75532910  0.89055675  0.12438071  1
  La  La13  1  0.75387983  0.22723382  0.45405899  1
  La  La14  1  0.74316445  0.56165552  0.78889537  1
  La  La15  1  0.75494466  0.12482616  0.25840524  1
  La  La16  1  0.75413075  0.45645908  0.59140562  1
  La  La17  1  0.74285301  0.77467481  0.92130222  1
  Ge  Ge0  1  0.33601293  0.88801385  0.22333418  1
  Ge  Ge1  1  0.33535496  0.22225701  0.55548793  1
  Ge  Ge2  1  0.32221370  0.55647509  0.88688604  1
  Ge  Ge3  1  0.82500729  0.44383828  0.11220245  1
  Ge  Ge4  1  0.82635375  0.77769652  0.44442046  1
  Ge  Ge5  1  0.83129853  0.11205024  0.77702291  1
  Ge  Ge6  1  0.49840613  0.00002120  0.99991878  1
  Ge  Ge7  1  0.46654876  0.33300792  0.33350708  1
  Ge  Ge8  1  0.47154763  0.66691716  0.66695515  1
  Ge  Ge9  1  0.99690837  0.00041383  0.99899995  1
  S  S0  1  0.98079897  0.61845443  0.13972332  1
  S  S1  1  0.97699666  0.94940240  0.47219231  1
  S  S2  1  0.98069698  0.28402669  0.80463412  1
  S  S3  1  0.97744085  0.26117480  0.16035242  1
  S  S4  1  0.97737506  0.59862328  0.49200158  1
  S  S5  1  0.98360196  0.93478781  0.82573855  1
  S  S6  1  0.97885897  0.44986719  0.03554430  1
  S  S7  1  0.97743187  0.78568454  0.36845478  1
  S  S8  1  0.98056893  0.11870451  0.70146628  1
  S  S9  1  0.48174937  0.71677211  0.19442047  1
  S  S10  1  0.48503596  0.05089713  0.52717872  1
  S  S11  1  0.49177088  0.36957007  0.85981951  1
  S  S12  1  0.48459468  0.06633071  0.17424948  1
  S  S13  1  0.48495525  0.40177071  0.50733557  1
  S  S14  1  0.48800621  0.75052976  0.83790277  1
  S  S15  1  0.48806139  0.88098941  0.29837131  1
  S  S16  1  0.48531998  0.21458660  0.63109129  1
  S  S17  1  0.48119292  0.54850032  0.96966276  1
  S  S18  1  0.70234148  0.78185579  0.03350154  1
  S  S19  1  0.69761656  0.11547036  0.36515599  1
  S  S20  1  0.69839144  0.44894865  0.69833693  1
  S  S21  1  0.69797306  0.40536010  0.24899503  1
  S  S22  1  0.69752954  0.73747317  0.58285205  1
  S  S23  1  0.70303831  0.06734580  0.91800624  1
  S  S24  1  0.70071222  0.14781369  0.05214522  1
  S  S25  1  0.69828695  0.48073532  0.38478769  1
  S  S26  1  0.69882391  0.81380711  0.71670108  1
  S  S27  1  0.21089527  0.55886116  0.30108217  1
  S  S28  1  0.21099871  0.89221541  0.63391704  1
  S  S29  1  0.20155706  0.21774845  0.96812204  1
  S  S30  1  0.20197041  0.93047594  0.08354357  1
  S  S31  1  0.21194204  0.25861757  0.41851710  1
  S  S32  1  0.21168322  0.59047378  0.75367304  1
  S  S33  1  0.21202606  0.18220454  0.28031076  1
  S  S34  1  0.20932465  0.51625416  0.61229355  1
  S  S35  1  0.20133488  0.85366712  0.94912323  1
  S  S36  1  0.97006185  0.88888386  0.22334488  1
  S  S37  1  0.96925555  0.22246074  0.55517008  1
  S  S38  1  0.92435127  0.55509753  0.88826860  1
  S  S39  1  0.45182300  0.44357760  0.11360129  1
  S  S40  1  0.46139177  0.77792964  0.44410664  1
  S  S41  1  0.46604955  0.11185198  0.77554483  1
loop_
_geom_bond_atom_site_label_1
_geom_bond_atom_site_label_2
_geom_bond_distance
_geom_bond_site_symmetry_2
La0 S6 2.889129 1_455
La0 S39 2.961090 1_555
La0 S18 2.964444 1_555
La0 S35 2.968914 1_554
La0 S17 2.984162 1_554
La0 S0 3.009221 1_455
La0 S30 3.059049 1_555
La0 S18 3.538584 1_455
La1 S33 2.897305 1_555
La1 S31 2.906964 1_555
La1 S19 2.936368 1_555
La1 S7 2.956659 1_445
La1 S1 3.008992 1_445
La1 S40 3.074612 1_545
La1 S15 3.185279 1_545
La1 S19 3.480581 1_455
La2 S34 2.889950 1_555
La2 S32 2.911667 1_555
La2 S20 2.928303 1_555
La2 S8 2.969116 1_455
La2 S2 3.008234 1_455
La2 S41 3.096741 1_555
La2 S16 3.178633 1_555
La2 S20 3.468221 1_455
La3 S27 2.889518 1_555
La3 S33 2.908949 1_555
La3 S21 2.947419 1_555
La3 S0 2.950199 1_455
La3 S3 3.009178 1_455
La3 S39 3.029519 1_555
La3 S9 3.196698 1_555
La3 S21 3.432589 1_455
La4 S28 2.872067 1_555
La4 S34 2.903382 1_555
La4 S22 2.922845 1_555
La4 S1 2.971358 1_455
La4 S4 3.033681 1_455
La4 S40 3.110067 1_555
La4 S10 3.185299 1_565
La4 S22 3.470004 1_455
La5 S2 2.892412 1_455
La5 S23 2.951206 1_555
La5 S11 2.959905 1_555
La5 S41 2.970584 1_555
La5 S5 2.986638 1_445
La5 S29 2.990821 1_555
La5 S35 3.078919 1_545
La5 S23 3.606130 1_455
La6 S3 2.903872 1_455
La6 S39 2.950956 1_555
La6 S6 2.953332 1_455
La6 S24 2.956209 1_555
La6 S30 2.972579 1_545
La6 S29 3.011125 1_554
La6 S12 3.150548 1_555
La6 S24 3.528024 1_455
La7 S31 2.897067 1_555
La7 S27 2.923633 1_555
La7 S25 2.935337 1_555
La7 S4 2.943767 1_455
La7 S7 3.029076 1_455
La7 S40 3.083848 1_555
La7 S13 3.165527 1_555
La7 S25 3.474740 1_455
La8 S32 2.885591 1_555
La8 S26 2.934009 1_555
La8 S28 2.938096 1_555
La8 S5 2.954093 1_455
La8 S8 3.042797 1_465
La8 S14 3.057901 1_555
La8 S41 3.091644 1_565
La8 S26 3.487339 1_455
La9 S25 2.867942 1_555
La9 S27 2.921311 1_655
La9 S21 2.938691 1_555
La9 S15 2.959252 1_555
La9 S9 3.050661 1_555
La9 S36 3.080571 1_555
La9 S7 3.117024 1_555
La9 S27 3.440776 1_555
La10 S26 2.865646 1_555
La10 S28 2.930932 1_655
La10 S22 2.945640 1_555
La10 S16 2.956257 1_565
La10 S10 3.029162 1_565
La10 S37 3.076009 1_565
La10 S8 3.127757 1_565
La10 S28 3.441900 1_555
La11 S38 2.823006 1_555
La11 S17 2.855399 1_555
La11 S11 2.889282 1_555
La11 S29 3.043399 1_655
La11 S24 3.060402 1_556
La11 S23 3.060693 1_555
La11 S6 3.145421 1_556
La11 S29 3.504332 1_555
La12 S9 2.894803 1_555
La12 S18 2.929544 1_555
La12 S30 2.940581 1_655
La12 S12 2.967451 1_565
La12 S36 3.001351 1_555
La12 S24 3.017974 1_565
La12 S0 3.086779 1_555
La12 S30 3.550465 1_555
La13 S19 2.899733 1_555
La13 S10 2.938156 1_555
La13 S25 2.949980 1_555
La13 S31 2.952597 1_655
La13 S13 3.007034 1_555
La13 S37 3.050843 1_555
La13 S1 3.131118 1_545
La13 S31 3.439374 1_555
La14 S38 2.920357 1_555
La14 S11 2.932972 1_555
La14 S20 2.939127 1_555
La14 S26 2.971266 1_555
La14 S14 3.000098 1_555
La14 S32 3.009088 1_655
La14 S2 3.169926 1_555
La14 S32 3.374918 1_555
La15 S21 2.883603 1_555
La15 S19 2.921587 1_555
La15 S33 2.932284 1_655
La15 S12 2.981586 1_555
La15 S15 3.026410 1_545
La15 S36 3.075430 1_545
La15 S3 3.096371 1_555
La15 S33 3.432343 1_555
La16 S22 2.890669 1_555
La16 S34 2.920845 1_655
La16 S20 2.928349 1_555
La16 S13 2.962264 1_555
La16 S16 3.015686 1_555
La16 S37 3.073320 1_555
La16 S4 3.145067 1_555
La16 S34 3.442964 1_555
La17 S14 2.807278 1_555
La17 S38 2.820699 1_555
La17 S17 2.932000 1_555
La17 S23 3.019391 1_565
La17 S35 3.046431 1_655
La17 S18 3.090784 1_556
La17 S5 3.176444 1_555
La17 S35 3.515451 1_555
Ge0 S36 2.229374 1_455
Ge0 S15 2.238806 1_555
Ge0 S9 2.251575 1_555
Ge0 S12 2.255970 1_565
Ge1 S37 2.230279 1_455
Ge1 S16 2.246777 1_555
Ge1 S10 2.254035 1_555
Ge1 S13 2.256161 1_555
Ge2 S14 2.414418 1_555
Ge2 S38 2.424062 1_455
Ge2 S11 2.425201 1_555
Ge2 S17 2.447818 1_555
Ge3 S39 2.273739 1_555
Ge3 S6 2.285131 1_555
Ge3 S3 2.285856 1_555
Ge3 S0 2.288067 1_555
Ge4 S40 2.223349 1_555
Ge4 S4 2.249213 1_555
Ge4 S1 2.252859 1_555
Ge4 S7 2.258124 1_555
Ge5 S41 2.225458 1_555
Ge5 S8 2.245356 1_555
Ge5 S2 2.250038 1_555
Ge5 S5 2.252520 1_545
Ge6 S23 2.542631 1_555
Ge6 S18 2.587000 1_546
Ge6 S24 2.590307 1_556
Ge6 S35 2.877704 1_545
Ge6 S29 2.890259 1_555
Ge6 S30 2.895624 1_546
Ge7 S19 2.655883 1_555
Ge7 S25 2.663393 1_555
Ge7 S21 2.689458 1_555
Ge7 S31 2.779252 1_555
Ge7 S33 2.792846 1_555
Ge7 S27 2.807504 1_555
Ge8 S26 2.616679 1_555
Ge8 S20 2.644651 1_555
Ge8 S22 2.661014 1_555
Ge8 S28 2.822463 1_555
Ge8 S32 2.836272 1_555
Ge8 S34 2.843209 1_555
Ge9 S35 2.546418 1_645
Ge9 S29 2.569835 1_655
Ge9 S30 2.606438 1_646
Ge9 S23 2.829668 1_555
Ge9 S18 2.901178 1_546
Ge9 S24 2.918061 1_556
