# generated using pymatgen
data_WO2
_symmetry_space_group_name_H-M   'P 1'
_cell_length_a   6.48310300
_cell_length_b   6.51862400
_cell_length_c   15.49302782
_cell_angle_alpha   90.68623411
_cell_angle_beta   90.18964227
_cell_angle_gamma   119.51073523
_symmetry_Int_Tables_number   1
_chemical_formula_structural   WO2
_chemical_formula_sum   'W12 O24'
_cell_volume   569.73173140
_cell_formula_units_Z   12
loop_
 _symmetry_equiv_pos_site_id
 _symmetry_equiv_pos_as_xyz
  1  'x, y, z'
loop_
 _atom_site_type_symbol
 _atom_site_label
 _atom_site_symmetry_multiplicity
 _atom_site_fract_x
 _atom_site_fract_y
 _atom_site_fract_z
 _atom_site_occupancy
  W  W0  1  0.65742200  0.32482300  0.16281500  1
  W  W1  1  0.50340800  0.49690600  0.50284200  1
  W  W2  1  0.83817800  0.66789300  0.32934200  1
  W  W3  1  0.66175700  0.85033200  0.16290500  1
  W  W4  1  0.99608500  0.99255200  0.49860300  1
  W  W5  1  0.18048500  0.83856800  0.16084700  1
  W  W6  1  0.15786800  0.33231800  0.66504700  1
  W  W7  1  0.99280400  0.49436100  0.49908100  1
  W  W8  1  0.33290800  0.66460400  0.83396200  1
  W  W9  1  0.32889900  0.16964800  0.84008400  1
  W  W10  1  0.83681900  0.17013600  0.83352500  1
  W  W11  1  0.83612400  0.66820100  0.95451000  1
  O  O0  1  0.36512900  0.69092900  0.10372400  1
  O  O1  1  0.34689100  0.14438000  0.10094200  1
  O  O2  1  0.50931700  0.00236900  0.23211600  1
  O  O3  1  0.80983000  0.15305000  0.10516700  1
  O  O4  1  0.70743200  0.39120800  0.42063600  1
  O  O5  1  0.56680800  0.54362600  0.23650600  1
  O  O6  1  0.82707600  0.66969300  0.08468600  1
  O  O7  1  0.97487200  0.53981800  0.23529500  1
  O  O8  1  0.70130000  0.80481600  0.42012200  1
  O  O9  1  0.85910800  0.67962400  0.56556400  1
  O  O10  1  0.11079300  0.79470300  0.41851200  1
  O  O11  1  0.96426800  0.94010400  0.23069100  1
  O  O12  1  0.02051300  0.06539100  0.75366900  1
  O  O13  1  0.88305600  0.18703100  0.58316200  1
  O  O14  1  0.15144100  0.32098700  0.44146200  1
  O  O15  1  0.28833500  0.18126800  0.58390300  1
  O  O16  1  0.15289500  0.35039000  0.90128100  1
  O  O17  1  0.02487600  0.47380600  0.75581700  1
  O  O18  1  0.43526700  0.47492000  0.75736700  1
  O  O19  1  0.28913100  0.60181500  0.58817000  1
  O  O20  1  0.16114800  0.82191100  0.90526100  1
  O  O21  1  0.67829900  0.83006900  0.89976300  1
  O  O22  1  0.50311700  0.99347600  0.78190400  1
  O  O23  1  0.67963900  0.34087200  0.90561600  1
loop_
_geom_bond_atom_site_label_1
_geom_bond_atom_site_label_2
_geom_bond_distance
_geom_bond_site_symmetry_2
O0 W3 1.901444 1_555
O0 W5 2.064949 1_555
O1 W5 1.982779 1_545
O1 W0 1.995686 1_555
O2 W3 2.013760 1_545
O2 W0 2.136706 1_555
O2 W5 2.148888 1_545
O3 W3 1.948694 1_545
O3 W0 2.024756 1_555
O4 W7 2.022876 1_555
O4 W2 2.129548 1_555
O4 W1 2.175860 1_555
O5 W2 2.090803 1_555
O5 W0 2.115135 1_555
O5 W3 2.126786 1_555
O6 W11 2.017914 1_554
O6 W3 2.285079 1_555
O6 W5 2.306482 1_655
O6 W0 2.316642 1_555
O7 W2 2.076952 1_555
O7 W5 2.099128 1_655
O7 W0 2.136861 1_555
O8 W4 2.067200 1_555
O8 W2 2.078636 1_555
O8 W1 2.202879 1_555
O9 W7 2.068338 1_555
O9 W4 2.073179 1_555
O9 W1 2.220874 1_555
O10 W2 2.057361 1_455
O10 W7 2.136769 1_455
O10 W4 2.160728 1_455
O11 W3 2.032908 1_555
O11 W5 2.116801 1_655
O11 W2 2.190229 1_555
O12 W10 2.050796 1_455
O12 W6 2.060242 1_555
O12 W9 2.207581 1_555
O13 W6 1.993632 1_655
O13 W4 2.177655 1_545
O13 W7 2.209309 1_555
O14 W7 2.063709 1_455
O14 W4 2.075751 1_445
O14 W1 2.192661 1_555
O15 W6 2.015760 1_555
O15 W4 2.120829 1_445
O15 W1 2.236507 1_555
O16 W10 2.065377 1_455
O16 W8 2.085514 1_555
O16 W9 2.212221 1_555
O17 W6 2.081372 1_555
O17 W8 2.121724 1_555
O17 W10 2.131555 1_455
O18 W8 2.038605 1_555
O18 W6 2.109108 1_555
O18 W9 2.189249 1_555
O19 W6 1.952688 1_555
O19 W7 2.172563 1_455
O19 W1 2.252014 1_555
O20 W11 1.993796 1_455
O20 W8 2.148864 1_555
O20 W9 2.230269 1_565
O21 W11 1.989734 1_555
O21 W8 2.189946 1_555
O21 W10 2.200103 1_565
O22 W10 2.039175 1_565
O22 W8 2.044692 1_555
O22 W9 2.160283 1_565
O23 W11 1.994864 1_555
O23 W10 2.149332 1_555
O23 W9 2.214578 1_555
