# generated using pymatgen
data_Ba2V2Te2O11
_symmetry_space_group_name_H-M   'P 1'
_cell_length_a   7.78678000
_cell_length_b   7.69656000
_cell_length_c   9.71009238
_cell_angle_alpha   86.36318771
_cell_angle_beta   90.00000000
_cell_angle_gamma   90.00000000
_symmetry_Int_Tables_number   1
_chemical_formula_structural   Ba2V2Te2O11
_chemical_formula_sum   'Ba4 V4 Te4 O22'
_cell_volume   580.76769783
_cell_formula_units_Z   2
loop_
 _symmetry_equiv_pos_site_id
 _symmetry_equiv_pos_as_xyz
  1  'x, y, z'
loop_
 _atom_site_type_symbol
 _atom_site_label
 _atom_site_symmetry_multiplicity
 _atom_site_fract_x
 _atom_site_fract_y
 _atom_site_fract_z
 _atom_site_occupancy
  Ba  Ba0  1  0.75000000  0.36566100  0.57173800  1
  Ba  Ba1  1  0.25000000  0.63433900  0.42826200  1
  Ba  Ba2  1  0.75000000  0.63139900  0.14180500  1
  Ba  Ba3  1  0.25000000  0.36860100  0.85819500  1
  V  V0  1  0.25000000  0.81570800  0.01239000  1
  V  V1  1  0.75000000  0.18429200  0.98761000  1
  V  V2  1  0.75000000  0.88996700  0.42298400  1
  V  V3  1  0.25000000  0.11003300  0.57701600  1
  Te  Te0  1  0.53624900  0.78683800  0.76002000  1
  Te  Te1  1  0.03624900  0.21316200  0.23998000  1
  Te  Te2  1  0.46375100  0.21316200  0.23998000  1
  Te  Te3  1  0.96375100  0.78683800  0.76002000  1
  O  O0  1  0.75000000  0.69333900  0.85233400  1
  O  O1  1  0.25000000  0.30666100  0.14766600  1
  O  O2  1  0.48043500  0.58128600  0.67944900  1
  O  O3  1  0.98043500  0.41871400  0.32055100  1
  O  O4  1  0.51956500  0.41871400  0.32055100  1
  O  O5  1  0.01956500  0.58128600  0.67944900  1
  O  O6  1  0.75000000  0.83824300  0.61020200  1
  O  O7  1  0.25000000  0.16175700  0.38979800  1
  O  O8  1  0.43333400  0.69629100  0.94783400  1
  O  O9  1  0.93333400  0.30370900  0.05216600  1
  O  O10  1  0.56666600  0.30370900  0.05216600  1
  O  O11  1  0.06666600  0.69629100  0.94783400  1
  O  O12  1  0.25000000  0.01716600  0.93609200  1
  O  O13  1  0.75000000  0.98283400  0.06390800  1
  O  O14  1  0.25000000  0.82032900  0.18468500  1
  O  O15  1  0.75000000  0.17967100  0.81531500  1
  O  O16  1  0.57485300  0.79550900  0.35556900  1
  O  O17  1  0.07485300  0.20449100  0.64443100  1
  O  O18  1  0.42514700  0.20449100  0.64443100  1
  O  O19  1  0.92514700  0.79550900  0.35556900  1
  O  O20  1  0.75000000  0.11569100  0.38044500  1
  O  O21  1  0.25000000  0.88430900  0.61955500  1
loop_
_geom_bond_atom_site_label_1
_geom_bond_atom_site_label_2
_geom_bond_distance
_geom_bond_site_symmetry_2
Ba0 O15 2.685812 1_555
Ba0 O20 2.757715 1_555
Ba0 O17 2.885229 1_655
Ba0 O18 2.885229 1_555
Ba0 O2 2.911053 1_555
Ba0 O5 2.911053 1_655
Ba0 O3 3.034637 1_555
Ba0 O4 3.034637 1_555
Ba1 O14 2.685812 1_555
Ba1 O21 2.757715 1_555
Ba1 O19 2.885229 1_455
Ba1 O16 2.885229 1_555
Ba1 O4 2.911053 1_555
Ba1 O3 2.911053 1_455
Ba1 O5 3.034637 1_555
Ba1 O2 3.034637 1_555
Ba2 O13 2.762016 1_555
Ba2 O0 2.820960 1_554
Ba2 O19 2.845420 1_555
Ba2 O16 2.845420 1_555
Ba2 O3 2.924256 1_555
Ba2 O4 2.924256 1_555
Ba2 O10 3.071645 1_555
Ba2 O9 3.071645 1_555
Ba2 O8 3.123748 1_554
Ba2 O11 3.123748 1_654
Ba3 O12 2.762016 1_555
Ba3 O1 2.820960 1_556
Ba3 O18 2.845420 1_555
Ba3 O17 2.845420 1_555
Ba3 O2 2.924256 1_555
Ba3 O5 2.924256 1_555
Ba3 O8 3.071645 1_555
Ba3 O11 3.071645 1_555
Ba3 O10 3.123748 1_556
Ba3 O9 3.123748 1_456
O0 Te0 2.002460 1_555
O0 Te3 2.002460 1_555
O1 Te2 2.002460 1_555
O1 Te1 2.002460 1_555
O2 Te0 1.860334 1_555
O3 Te1 1.860334 1_655
O4 Te2 1.860334 1_555
O5 Te3 1.860334 1_455
O6 V2 1.836150 1_555
O6 Te3 2.229380 1_555
O6 Te0 2.229380 1_555
O7 V3 1.836150 1_555
O7 Te1 2.229380 1_555
O7 Te2 2.229380 1_555
O8 V0 1.829961 1_556
O8 Te0 2.071832 1_555
O9 V1 1.829961 1_554
O9 Te1 2.071832 1_655
O10 V1 1.829961 1_554
O10 Te2 2.071832 1_555
O11 V0 1.829961 1_556
O11 Te3 2.071832 1_455
O12 V0 1.675499 1_546
O13 V1 1.675499 1_564
O14 V0 1.675632 1_555
O15 V1 1.675632 1_555
O16 V2 1.696305 1_555
O17 V3 1.696305 1_555
O18 V3 1.696305 1_555
O19 V2 1.696305 1_555
O20 V2 1.760052 1_545
O20 Te2 2.694723 1_555
O20 Te1 2.694723 1_655
O21 V3 1.760052 1_565
O21 Te3 2.694723 1_455
O21 Te0 2.694723 1_555
