# generated using pymatgen
data_Sr2Eu3Ge10
_symmetry_space_group_name_H-M   'P 1'
_cell_length_a   4.20230312
_cell_length_b   4.20230312
_cell_length_c   24.93014200
_cell_angle_alpha   90.00000000
_cell_angle_beta   90.00000000
_cell_angle_gamma   119.99998611
_symmetry_Int_Tables_number   1
_chemical_formula_structural   Sr2Eu3Ge10
_chemical_formula_sum   'Sr2 Eu3 Ge10'
_cell_volume   381.26785897
_cell_formula_units_Z   1
loop_
 _symmetry_equiv_pos_site_id
 _symmetry_equiv_pos_as_xyz
  1  'x, y, z'
loop_
 _atom_site_type_symbol
 _atom_site_label
 _atom_site_symmetry_multiplicity
 _atom_site_fract_x
 _atom_site_fract_y
 _atom_site_fract_z
 _atom_site_occupancy
  Sr  Sr0  1  0.00000000  0.00000000  0.10046800  1
  Sr  Sr1  1  0.00000000  0.00000000  0.89953200  1
  Eu  Eu0  1  0.00000000  0.00000000  0.69972100  1
  Eu  Eu1  1  0.00000000  0.00000000  0.50000000  1
  Eu  Eu2  1  0.00000000  0.00000000  0.30027900  1
  Ge  Ge0  1  0.33333300  0.66666700  0.61969500  1
  Ge  Ge1  1  0.33333300  0.66666700  0.41979000  1
  Ge  Ge2  1  0.33333300  0.66666700  0.22145000  1
  Ge  Ge3  1  0.33333300  0.66666700  0.01953600  1
  Ge  Ge4  1  0.33333300  0.66666700  0.81758400  1
  Ge  Ge5  1  0.66666700  0.33333300  0.58021000  1
  Ge  Ge6  1  0.66666700  0.33333300  0.38030500  1
  Ge  Ge7  1  0.66666700  0.33333300  0.18241600  1
  Ge  Ge8  1  0.66666700  0.33333300  0.98046400  1
  Ge  Ge9  1  0.66666700  0.33333300  0.77855000  1
loop_
_geom_bond_atom_site_label_1
_geom_bond_atom_site_label_2
_geom_bond_distance
_geom_bond_site_symmetry_2
Eu0 Ge9 3.122262 1_455
Eu0 Ge9 3.122265 1_555
Eu0 Ge9 3.122265 1_445
Eu0 Ge0 3.141130 1_545
Eu0 Ge0 3.141134 1_445
Eu0 Ge0 3.141134 1_555
Eu1 Ge1 3.144046 1_545
Eu1 Ge5 3.144046 1_455
Eu1 Ge1 3.144049 1_555
Eu1 Ge1 3.144049 1_445
Eu1 Ge5 3.144049 1_555
Eu1 Ge5 3.144049 1_445
Eu2 Ge2 3.122262 1_545
Eu2 Ge2 3.122265 1_445
Eu2 Ge2 3.122265 1_555
Eu2 Ge6 3.141130 1_455
Eu2 Ge6 3.141134 1_555
Eu2 Ge6 3.141134 1_445
Ge0 Ge5 2.618285 1_455
Ge0 Ge5 2.618285 1_565
Ge0 Ge5 2.618292 1_555
Ge1 Ge6 2.618285 1_455
Ge1 Ge6 2.618285 1_565
Ge1 Ge6 2.618292 1_555
Ge2 Ge7 2.614079 1_455
Ge2 Ge7 2.614079 1_565
Ge2 Ge7 2.614085 1_555
Ge3 Ge8 2.614432 1_454
Ge3 Ge8 2.614432 1_564
Ge3 Ge8 2.614438 1_554
Ge3 Sr0 3.155524 1_565
Ge3 Sr0 3.155528 1_555
Ge3 Sr0 3.155528 1_665
Ge4 Ge9 2.614079 1_455
Ge4 Ge9 2.614079 1_565
Ge4 Ge9 2.614085 1_555
Ge4 Sr1 3.171780 1_565
Ge4 Sr1 3.171783 1_665
Ge4 Sr1 3.171783 1_555
Ge7 Sr0 3.171780 1_655
Ge7 Sr0 3.171783 1_555
Ge7 Sr0 3.171783 1_665
Ge8 Sr1 3.155524 1_655
Ge8 Sr1 3.155528 1_555
Ge8 Sr1 3.155528 1_665
