# generated using pymatgen
data_In2B(PO4)3
_symmetry_space_group_name_H-M   'P 1'
_cell_length_a   8.30281636
_cell_length_b   8.30281636
_cell_length_c   7.89851500
_cell_angle_alpha   90.00000000
_cell_angle_beta   90.00000000
_cell_angle_gamma   120.00000291
_symmetry_Int_Tables_number   1
_chemical_formula_structural   In2B(PO4)3
_chemical_formula_sum   'In4 B2 P6 O24'
_cell_volume   471.54911217
_cell_formula_units_Z   2
loop_
 _symmetry_equiv_pos_site_id
 _symmetry_equiv_pos_as_xyz
  1  'x, y, z'
loop_
 _atom_site_type_symbol
 _atom_site_label
 _atom_site_symmetry_multiplicity
 _atom_site_fract_x
 _atom_site_fract_y
 _atom_site_fract_z
 _atom_site_occupancy
  In  In0  1  0.66666700  0.33333300  0.54398300  1
  In  In1  1  0.33333300  0.66666700  0.04398300  1
  In  In2  1  0.33333300  0.66666700  0.45601700  1
  In  In3  1  0.66666700  0.33333300  0.95601700  1
  B  B0  1  0.00000000  0.00000000  0.75000000  1
  B  B1  1  0.00000000  0.00000000  0.25000000  1
  P  P0  1  0.04191700  0.35062500  0.75000000  1
  P  P1  1  0.64937500  0.69129300  0.75000000  1
  P  P2  1  0.30870700  0.95808300  0.75000000  1
  P  P3  1  0.95808300  0.64937500  0.25000000  1
  P  P4  1  0.35062500  0.30870700  0.25000000  1
  P  P5  1  0.69129300  0.04191700  0.25000000  1
  O  O0  1  0.94070000  0.12737600  0.75000000  1
  O  O1  1  0.87262400  0.81332400  0.75000000  1
  O  O2  1  0.18667600  0.05930000  0.75000000  1
  O  O3  1  0.05930000  0.87262400  0.25000000  1
  O  O4  1  0.12737600  0.18667600  0.25000000  1
  O  O5  1  0.81332400  0.94070000  0.25000000  1
  O  O6  1  0.87519900  0.38782500  0.75000000  1
  O  O7  1  0.61217500  0.48737400  0.75000000  1
  O  O8  1  0.51262600  0.12480100  0.75000000  1
  O  O9  1  0.12480100  0.61217500  0.25000000  1
  O  O10  1  0.38782500  0.51262600  0.25000000  1
  O  O11  1  0.48737400  0.87519900  0.25000000  1
  O  O12  1  0.15314200  0.41958400  0.58718800  1
  O  O13  1  0.58041600  0.73355900  0.58718800  1
  O  O14  1  0.26644100  0.84685800  0.58718800  1
  O  O15  1  0.84685800  0.58041600  0.08718800  1
  O  O16  1  0.41958400  0.26644100  0.08718800  1
  O  O17  1  0.73355900  0.15314200  0.08718800  1
  O  O18  1  0.84685800  0.58041600  0.41281200  1
  O  O19  1  0.41958400  0.26644100  0.41281200  1
  O  O20  1  0.73355900  0.15314200  0.41281200  1
  O  O21  1  0.15314200  0.41958400  0.91281200  1
  O  O22  1  0.58041600  0.73355900  0.91281200  1
  O  O23  1  0.26644100  0.84685800  0.91281200  1
loop_
_geom_bond_atom_site_label_1
_geom_bond_atom_site_label_2
_geom_bond_distance
_geom_bond_site_symmetry_2
In0 O18 2.109759 1_555
In0 O19 2.109759 1_555
In0 O20 2.109759 1_555
In0 O6 2.250995 1_555
In0 O8 2.250996 1_555
In0 O7 2.251000 1_555
In1 O21 2.109759 1_554
In1 O22 2.109759 1_554
In1 O23 2.109759 1_554
In1 O9 2.250995 1_555
In1 O11 2.250996 1_555
In1 O10 2.251000 1_555
In2 O12 2.109759 1_555
In2 O13 2.109759 1_555
In2 O14 2.109759 1_555
In2 O9 2.250995 1_555
In2 O11 2.250996 1_555
In2 O10 2.251000 1_555
In3 O15 2.109759 1_556
In3 O16 2.109759 1_556
In3 O17 2.109759 1_556
In3 O6 2.250995 1_555
In3 O8 2.250996 1_555
In3 O7 2.251000 1_555
B0 O1 1.371713 1_445
B0 O2 1.371713 1_555
B0 O0 1.371713 1_455
B1 O4 1.371713 1_555
B1 O5 1.371713 1_445
B1 O3 1.371713 1_545
O0 P0 1.607585 1_655
O1 P1 1.607584 1_555
O2 P2 1.607577 1_545
O3 P3 1.607585 1_455
O4 P4 1.607584 1_555
O5 P5 1.607577 1_565
O6 P0 1.561738 1_655
O7 P1 1.561747 1_555
O8 P2 1.561744 1_545
O9 P3 1.561738 1_455
O10 P4 1.561747 1_555
O11 P5 1.561744 1_565
O12 P0 1.518426 1_555
O13 P1 1.518426 1_555
O14 P2 1.518426 1_555
O15 P3 1.518426 1_555
O16 P4 1.518426 1_555
O17 P5 1.518426 1_555
O18 P3 1.518426 1_555
O19 P4 1.518426 1_555
O20 P5 1.518426 1_555
O21 P0 1.518426 1_555
O22 P1 1.518426 1_555
O23 P2 1.518426 1_555
