# generated using pymatgen
data_Cd(CoN)2
_symmetry_space_group_name_H-M   'P 1'
_cell_length_a   11.31679400
_cell_length_b   5.43420200
_cell_length_c   31.67130000
_cell_angle_alpha   90.00000000
_cell_angle_beta   90.00000000
_cell_angle_gamma   90.00000000
_symmetry_Int_Tables_number   1
_chemical_formula_structural   Cd(CoN)2
_chemical_formula_sum   'Cd32 Co64 N64'
_cell_volume   1947.71351818
_cell_formula_units_Z   32
loop_
 _symmetry_equiv_pos_site_id
 _symmetry_equiv_pos_as_xyz
  1  'x, y, z'
loop_
 _atom_site_type_symbol
 _atom_site_label
 _atom_site_symmetry_multiplicity
 _atom_site_fract_x
 _atom_site_fract_y
 _atom_site_fract_z
 _atom_site_occupancy
  Cd  Cd0_0  1  0.43259500  0.12500000  0.13603600  1
  Cd  Cd0_1  1  0.43259500  0.12500000  0.63603600  1
  Cd  Cd0_2  1  0.43259500  0.62500000  0.13603600  1
  Cd  Cd0_3  1  0.43259500  0.62500000  0.63603600  1
  Cd  Cd0_4  1  0.93259500  0.12500000  0.13603600  1
  Cd  Cd0_5  1  0.93259500  0.12500000  0.63603600  1
  Cd  Cd0_6  1  0.93259500  0.62500000  0.13603600  1
  Cd  Cd0_7  1  0.93259500  0.62500000  0.63603600  1
  Cd  Cd1_0  1  0.18259500  0.12500000  0.11396400  1
  Cd  Cd1_1  1  0.18259500  0.12500000  0.61396400  1
  Cd  Cd1_2  1  0.18259500  0.62500000  0.11396400  1
  Cd  Cd1_3  1  0.18259500  0.62500000  0.61396400  1
  Cd  Cd1_4  1  0.68259500  0.12500000  0.11396400  1
  Cd  Cd1_5  1  0.68259500  0.12500000  0.61396400  1
  Cd  Cd1_6  1  0.68259500  0.62500000  0.11396400  1
  Cd  Cd1_7  1  0.68259500  0.62500000  0.61396400  1
  Cd  Cd2_0  1  0.06740500  0.37500000  0.36396400  1
  Cd  Cd2_1  1  0.06740500  0.37500000  0.86396400  1
  Cd  Cd2_2  1  0.06740500  0.87500000  0.36396400  1
  Cd  Cd2_3  1  0.06740500  0.87500000  0.86396400  1
  Cd  Cd2_4  1  0.56740500  0.37500000  0.36396400  1
  Cd  Cd2_5  1  0.56740500  0.37500000  0.86396400  1
  Cd  Cd2_6  1  0.56740500  0.87500000  0.36396400  1
  Cd  Cd2_7  1  0.56740500  0.87500000  0.86396400  1
  Cd  Cd3_0  1  0.31740500  0.37500000  0.38603600  1
  Cd  Cd3_1  1  0.31740500  0.37500000  0.88603600  1
  Cd  Cd3_2  1  0.31740500  0.87500000  0.38603600  1
  Cd  Cd3_3  1  0.31740500  0.87500000  0.88603600  1
  Cd  Cd3_4  1  0.81740500  0.37500000  0.38603600  1
  Cd  Cd3_5  1  0.81740500  0.37500000  0.88603600  1
  Cd  Cd3_6  1  0.81740500  0.87500000  0.38603600  1
  Cd  Cd3_7  1  0.81740500  0.87500000  0.88603600  1
  Co  Co0_0  1  0.31855800  0.12500000  0.46682250  1
  Co  Co0_1  1  0.31855800  0.12500000  0.96682250  1
  Co  Co0_2  1  0.31855800  0.62500000  0.46682250  1
  Co  Co0_3  1  0.31855800  0.62500000  0.96682250  1
  Co  Co0_4  1  0.81855800  0.12500000  0.46682250  1
  Co  Co0_5  1  0.81855800  0.12500000  0.96682250  1
  Co  Co0_6  1  0.81855800  0.62500000  0.46682250  1
  Co  Co0_7  1  0.81855800  0.62500000  0.96682250  1
  Co  Co1_0  1  0.06855850  0.12500000  0.28317750  1
  Co  Co1_1  1  0.06855850  0.12500000  0.78317750  1
  Co  Co1_2  1  0.06855850  0.62500000  0.28317750  1
  Co  Co1_3  1  0.06855850  0.62500000  0.78317750  1
  Co  Co1_4  1  0.56855850  0.12500000  0.28317750  1
  Co  Co1_5  1  0.56855850  0.12500000  0.78317750  1
  Co  Co1_6  1  0.56855850  0.62500000  0.28317750  1
  Co  Co1_7  1  0.56855850  0.62500000  0.78317750  1
  Co  Co2_0  1  0.18144200  0.37500000  0.03317750  1
  Co  Co2_1  1  0.18144200  0.37500000  0.53317750  1
  Co  Co2_2  1  0.18144200  0.87500000  0.03317750  1
  Co  Co2_3  1  0.18144200  0.87500000  0.53317750  1
  Co  Co2_4  1  0.68144200  0.37500000  0.03317750  1
  Co  Co2_5  1  0.68144200  0.37500000  0.53317750  1
  Co  Co2_6  1  0.68144200  0.87500000  0.03317750  1
  Co  Co2_7  1  0.68144200  0.87500000  0.53317750  1
  Co  Co3_0  1  0.43144200  0.37500000  0.21682250  1
  Co  Co3_1  1  0.43144200  0.37500000  0.71682250  1
  Co  Co3_2  1  0.43144200  0.87500000  0.21682250  1
  Co  Co3_3  1  0.43144200  0.87500000  0.71682250  1
  Co  Co3_4  1  0.93144200  0.37500000  0.21682250  1
  Co  Co3_5  1  0.93144200  0.37500000  0.71682250  1
  Co  Co3_6  1  0.93144200  0.87500000  0.21682250  1
  Co  Co3_7  1  0.93144200  0.87500000  0.71682250  1
  Co  Co4_0  1  0.06866900  0.12500000  0.46667000  1
  Co  Co4_1  1  0.06866900  0.12500000  0.96667000  1
  Co  Co4_2  1  0.06866900  0.62500000  0.46667000  1
  Co  Co4_3  1  0.06866900  0.62500000  0.96667000  1
  Co  Co4_4  1  0.56866900  0.12500000  0.46667000  1
  Co  Co4_5  1  0.56866900  0.12500000  0.96667000  1
  Co  Co4_6  1  0.56866900  0.62500000  0.46667000  1
  Co  Co4_7  1  0.56866900  0.62500000  0.96667000  1
  Co  Co5_0  1  0.31866900  0.12500000  0.28333000  1
  Co  Co5_1  1  0.31866900  0.12500000  0.78333000  1
  Co  Co5_2  1  0.31866900  0.62500000  0.28333000  1
  Co  Co5_3  1  0.31866900  0.62500000  0.78333000  1
  Co  Co5_4  1  0.81866900  0.12500000  0.28333000  1
  Co  Co5_5  1  0.81866900  0.12500000  0.78333000  1
  Co  Co5_6  1  0.81866900  0.62500000  0.28333000  1
  Co  Co5_7  1  0.81866900  0.62500000  0.78333000  1
  Co  Co6_0  1  0.43133100  0.37500000  0.03333000  1
  Co  Co6_1  1  0.43133100  0.37500000  0.53333000  1
  Co  Co6_2  1  0.43133100  0.87500000  0.03333000  1
  Co  Co6_3  1  0.43133100  0.87500000  0.53333000  1
  Co  Co6_4  1  0.93133100  0.37500000  0.03333000  1
  Co  Co6_5  1  0.93133100  0.37500000  0.53333000  1
  Co  Co6_6  1  0.93133100  0.87500000  0.03333000  1
  Co  Co6_7  1  0.93133100  0.87500000  0.53333000  1
  Co  Co7_0  1  0.18133100  0.37500000  0.21667000  1
  Co  Co7_1  1  0.18133100  0.37500000  0.71667000  1
  Co  Co7_2  1  0.18133100  0.87500000  0.21667000  1
  Co  Co7_3  1  0.18133100  0.87500000  0.71667000  1
  Co  Co7_4  1  0.68133100  0.37500000  0.21667000  1
  Co  Co7_5  1  0.68133100  0.37500000  0.71667000  1
  Co  Co7_6  1  0.68133100  0.87500000  0.21667000  1
  Co  Co7_7  1  0.68133100  0.87500000  0.71667000  1
  N  N0_0  1  0.31897250  0.12500000  0.22055350  1
  N  N0_1  1  0.31897250  0.12500000  0.72055350  1
  N  N0_2  1  0.31897250  0.62500000  0.22055350  1
  N  N0_3  1  0.31897250  0.62500000  0.72055350  1
  N  N0_4  1  0.81897250  0.12500000  0.22055350  1
  N  N0_5  1  0.81897250  0.12500000  0.72055350  1
  N  N0_6  1  0.81897250  0.62500000  0.22055350  1
  N  N0_7  1  0.81897250  0.62500000  0.72055350  1
  N  N1_0  1  0.06897250  0.12500000  0.02944650  1
  N  N1_1  1  0.06897250  0.12500000  0.52944650  1
  N  N1_2  1  0.06897250  0.62500000  0.02944650  1
  N  N1_3  1  0.06897250  0.62500000  0.52944650  1
  N  N1_4  1  0.56897250  0.12500000  0.02944650  1
  N  N1_5  1  0.56897250  0.12500000  0.52944650  1
  N  N1_6  1  0.56897250  0.62500000  0.02944650  1
  N  N1_7  1  0.56897250  0.62500000  0.52944650  1
  N  N2_0  1  0.18102750  0.37500000  0.27944650  1
  N  N2_1  1  0.18102750  0.37500000  0.77944650  1
  N  N2_2  1  0.18102750  0.87500000  0.27944650  1
  N  N2_3  1  0.18102750  0.87500000  0.77944650  1
  N  N2_4  1  0.68102750  0.37500000  0.27944650  1
  N  N2_5  1  0.68102750  0.37500000  0.77944650  1
  N  N2_6  1  0.68102750  0.87500000  0.27944650  1
  N  N2_7  1  0.68102750  0.87500000  0.77944650  1
  N  N3_0  1  0.43102750  0.37500000  0.47055350  1
  N  N3_1  1  0.43102750  0.37500000  0.97055350  1
  N  N3_2  1  0.43102750  0.87500000  0.47055350  1
  N  N3_3  1  0.43102750  0.87500000  0.97055350  1
  N  N3_4  1  0.93102750  0.37500000  0.47055350  1
  N  N3_5  1  0.93102750  0.37500000  0.97055350  1
  N  N3_6  1  0.93102750  0.87500000  0.47055350  1
  N  N3_7  1  0.93102750  0.87500000  0.97055350  1
  N  N4_0  1  0.32002600  0.12500000  0.03116500  1
  N  N4_1  1  0.32002600  0.12500000  0.53116500  1
  N  N4_2  1  0.32002600  0.62500000  0.03116500  1
  N  N4_3  1  0.32002600  0.62500000  0.53116500  1
  N  N4_4  1  0.82002600  0.12500000  0.03116500  1
  N  N4_5  1  0.82002600  0.12500000  0.53116500  1
  N  N4_6  1  0.82002600  0.62500000  0.03116500  1
  N  N4_7  1  0.82002600  0.62500000  0.53116500  1
  N  N5_0  1  0.07002600  0.12500000  0.21883500  1
  N  N5_1  1  0.07002600  0.12500000  0.71883500  1
  N  N5_2  1  0.07002600  0.62500000  0.21883500  1
  N  N5_3  1  0.07002600  0.62500000  0.71883500  1
  N  N5_4  1  0.57002600  0.12500000  0.21883500  1
  N  N5_5  1  0.57002600  0.12500000  0.71883500  1
  N  N5_6  1  0.57002600  0.62500000  0.21883500  1
  N  N5_7  1  0.57002600  0.62500000  0.71883500  1
  N  N6_0  1  0.17997400  0.37500000  0.46883500  1
  N  N6_1  1  0.17997400  0.37500000  0.96883500  1
  N  N6_2  1  0.17997400  0.87500000  0.46883500  1
  N  N6_3  1  0.17997400  0.87500000  0.96883500  1
  N  N6_4  1  0.67997400  0.37500000  0.46883500  1
  N  N6_5  1  0.67997400  0.37500000  0.96883500  1
  N  N6_6  1  0.67997400  0.87500000  0.46883500  1
  N  N6_7  1  0.67997400  0.87500000  0.96883500  1
  N  N7_0  1  0.42997400  0.37500000  0.28116500  1
  N  N7_1  1  0.42997400  0.37500000  0.78116500  1
  N  N7_2  1  0.42997400  0.87500000  0.28116500  1
  N  N7_3  1  0.42997400  0.87500000  0.78116500  1
  N  N7_4  1  0.92997400  0.37500000  0.28116500  1
  N  N7_5  1  0.92997400  0.37500000  0.78116500  1
  N  N7_6  1  0.92997400  0.87500000  0.28116500  1
  N  N7_7  1  0.92997400  0.87500000  0.78116500  1
loop_
_geom_bond_atom_site_label_1
_geom_bond_atom_site_label_2
_geom_bond_distance
_geom_bond_site_symmetry_2
Cd0_0 Cd0_2 2.717101 1_545
Cd0_0 Cd0_2 2.717101 1_555
Cd0_0 Co3_2 2.896952 1_545
Cd0_0 Co3_0 2.896952 1_555
Cd0_0 Cd1_0 2.914281 1_555
Cd0_0 Cd1_4 2.914281 1_555
Cd0_1 Cd0_3 2.717101 1_555
Cd0_1 Cd0_3 2.717101 1_545
Cd0_1 Co3_3 2.896952 1_545
Cd0_1 Co3_1 2.896952 1_555
Cd0_1 Cd1_1 2.914281 1_555
Cd0_1 Cd1_5 2.914281 1_555
Cd0_2 Co3_0 2.896952 1_555
Cd0_2 Co3_2 2.896952 1_555
Cd0_2 Cd1_6 2.914281 1_555
Cd0_2 Cd1_2 2.914281 1_555
Cd0_3 Co3_1 2.896952 1_555
Cd0_3 Co3_3 2.896952 1_555
Cd0_3 Cd1_3 2.914281 1_555
Cd0_3 Cd1_7 2.914281 1_555
Cd0_4 Cd0_6 2.717101 1_555
Cd0_4 Cd0_6 2.717101 1_545
Cd0_4 Co3_4 2.896952 1_555
Cd0_4 Co3_6 2.896952 1_545
Cd0_4 Cd1_4 2.914281 1_555
Cd0_4 Cd1_0 2.914281 1_655
Cd0_5 Cd0_7 2.717101 1_545
Cd0_5 Cd0_7 2.717101 1_555
Cd0_5 Co3_7 2.896952 1_545
Cd0_5 Co3_5 2.896952 1_555
Cd0_5 Cd1_5 2.914281 1_555
Cd0_5 Cd1_1 2.914281 1_655
Cd0_6 Co3_4 2.896952 1_555
Cd0_6 Co3_6 2.896952 1_555
Cd0_6 Cd1_6 2.914281 1_555
Cd0_6 Cd1_2 2.914281 1_655
Cd0_7 Co3_5 2.896952 1_555
Cd0_7 Co3_7 2.896952 1_555
Cd0_7 Cd1_7 2.914281 1_555
Cd0_7 Cd1_3 2.914281 1_655
Cd1_0 Cd1_2 2.717101 1_555
Cd1_0 Cd1_2 2.717101 1_545
Cd1_0 Co2_2 2.896952 1_545
Cd1_0 Co2_0 2.896952 1_555
Cd1_1 Cd1_3 2.717101 1_555
Cd1_1 Cd1_3 2.717101 1_545
Cd1_1 Co2_3 2.896952 1_545
Cd1_1 Co2_1 2.896952 1_555
Cd1_2 Co2_0 2.896952 1_555
Cd1_2 Co2_2 2.896952 1_555
Cd1_3 Co2_1 2.896952 1_555
Cd1_3 Co2_3 2.896952 1_555
Cd1_4 Cd1_6 2.717101 1_545
Cd1_4 Cd1_6 2.717101 1_555
Cd1_4 Co2_6 2.896952 1_545
Cd1_4 Co2_4 2.896952 1_555
Cd1_5 Cd1_7 2.717101 1_555
Cd1_5 Cd1_7 2.717101 1_545
Cd1_5 Co2_7 2.896952 1_545
Cd1_5 Co2_5 2.896952 1_555
Cd1_6 Co2_4 2.896952 1_555
Cd1_6 Co2_6 2.896952 1_555
Cd1_7 Co2_5 2.896952 1_555
Cd1_7 Co2_7 2.896952 1_555
Cd2_0 Cd2_2 2.717101 1_545
Cd2_0 Cd2_2 2.717101 1_555
Cd2_0 Co1_0 2.896952 1_555
Cd2_0 Co1_2 2.896952 1_555
Cd2_0 Cd3_0 2.914281 1_555
Cd2_0 Cd3_4 2.914281 1_455
Cd2_1 Cd2_3 2.717101 1_545
Cd2_1 Cd2_3 2.717101 1_555
Cd2_1 Co1_3 2.896952 1_555
Cd2_1 Co1_1 2.896952 1_555
Cd2_1 Cd3_1 2.914281 1_555
Cd2_1 Cd3_5 2.914281 1_455
Cd2_2 Co1_0 2.896952 1_565
Cd2_2 Co1_2 2.896952 1_555
Cd2_2 Cd3_6 2.914281 1_455
Cd2_2 Cd3_2 2.914281 1_555
Cd2_3 Co1_1 2.896952 1_565
Cd2_3 Co1_3 2.896952 1_555
Cd2_3 Cd3_3 2.914281 1_555
Cd2_3 Cd3_7 2.914281 1_455
Cd2_4 Cd2_6 2.717101 1_545
Cd2_4 Cd2_6 2.717101 1_555
Cd2_4 Co1_6 2.896952 1_555
Cd2_4 Co1_4 2.896952 1_555
Cd2_4 Cd3_0 2.914281 1_555
Cd2_4 Cd3_4 2.914281 1_555
Cd2_5 Cd2_7 2.717101 1_545
Cd2_5 Cd2_7 2.717101 1_555
Cd2_5 Co1_7 2.896952 1_555
Cd2_5 Co1_5 2.896952 1_555
Cd2_5 Cd3_1 2.914281 1_555
Cd2_5 Cd3_5 2.914281 1_555
Cd2_6 Co1_4 2.896952 1_565
Cd2_6 Co1_6 2.896952 1_555
Cd2_6 Cd3_2 2.914281 1_555
Cd2_6 Cd3_6 2.914281 1_555
Cd2_7 Co1_5 2.896952 1_565
Cd2_7 Co1_7 2.896952 1_555
Cd2_7 Cd3_3 2.914281 1_555
Cd2_7 Cd3_7 2.914281 1_555
Cd3_0 Cd3_2 2.717101 1_545
Cd3_0 Cd3_2 2.717101 1_555
Cd3_0 Co0_2 2.896952 1_555
Cd3_0 Co0_0 2.896952 1_555
Cd3_1 Cd3_3 2.717101 1_545
Cd3_1 Cd3_3 2.717101 1_555
Cd3_1 Co0_3 2.896952 1_555
Cd3_1 Co0_1 2.896952 1_555
Cd3_2 Co0_0 2.896952 1_565
Cd3_2 Co0_2 2.896952 1_555
Cd3_3 Co0_1 2.896952 1_565
Cd3_3 Co0_3 2.896952 1_555
Cd3_4 Cd3_6 2.717101 1_545
Cd3_4 Cd3_6 2.717101 1_555
Cd3_4 Co0_6 2.896952 1_555
Cd3_4 Co0_4 2.896952 1_555
Cd3_5 Cd3_7 2.717101 1_545
Cd3_5 Cd3_7 2.717101 1_555
Cd3_5 Co0_7 2.896952 1_555
Cd3_5 Co0_5 2.896952 1_555
Cd3_6 Co0_4 2.896952 1_565
Cd3_6 Co0_6 2.896952 1_555
Cd3_7 Co0_5 2.896952 1_565
Cd3_7 Co0_7 2.896952 1_555
Co0_0 N3_2 1.865376 1_545
Co0_0 N3_0 1.865376 1_555
Co0_0 N4_1 2.037878 1_555
Co0_0 N6_2 2.075902 1_545
Co0_0 N6_0 2.075902 1_555
Co0_1 N3_3 1.865376 1_545
Co0_1 N3_1 1.865376 1_555
Co0_1 N4_0 2.037878 1_556
Co0_1 N6_3 2.075902 1_545
Co0_1 N6_1 2.075902 1_555
Co0_2 N3_0 1.865376 1_555
Co0_2 N3_2 1.865376 1_555
Co0_2 N4_3 2.037878 1_555
Co0_2 N6_0 2.075902 1_555
Co0_2 N6_2 2.075902 1_555
Co0_3 N3_1 1.865376 1_555
Co0_3 N3_3 1.865376 1_555
Co0_3 N4_2 2.037878 1_556
Co0_3 N6_1 2.075902 1_555
Co0_3 N6_3 2.075902 1_555
Co0_4 N3_6 1.865376 1_545
Co0_4 N3_4 1.865376 1_555
Co0_4 N4_5 2.037878 1_555
Co0_4 N6_6 2.075902 1_545
Co0_4 N6_4 2.075902 1_555
Co0_5 N3_7 1.865376 1_545
Co0_5 N3_5 1.865376 1_555
Co0_5 N4_4 2.037878 1_556
Co0_5 N6_7 2.075902 1_545
Co0_5 N6_5 2.075902 1_555
Co0_6 N3_4 1.865376 1_555
Co0_6 N3_6 1.865376 1_555
Co0_6 N4_7 2.037878 1_555
Co0_6 N6_4 2.075902 1_555
Co0_6 N6_6 2.075902 1_555
Co0_7 N3_5 1.865376 1_555
Co0_7 N3_7 1.865376 1_555
Co0_7 N4_6 2.037878 1_556
Co0_7 N6_5 2.075902 1_555
Co0_7 N6_7 2.075902 1_555
Co1_0 N2_2 1.865372 1_545
Co1_0 N2_0 1.865372 1_555
Co1_0 N5_0 2.037878 1_555
Co1_0 N7_6 2.075907 1_445
Co1_0 N7_4 2.075907 1_455
Co1_1 N2_3 1.865372 1_545
Co1_1 N2_1 1.865372 1_555
Co1_1 N5_1 2.037878 1_555
Co1_1 N7_7 2.075907 1_445
Co1_1 N7_5 2.075907 1_455
Co1_2 N2_0 1.865372 1_555
Co1_2 N2_2 1.865372 1_555
Co1_2 N5_2 2.037878 1_555
Co1_2 N7_4 2.075907 1_455
Co1_2 N7_6 2.075907 1_455
Co1_3 N2_1 1.865372 1_555
Co1_3 N2_3 1.865372 1_555
Co1_3 N5_3 2.037878 1_555
Co1_3 N7_5 2.075907 1_455
Co1_3 N7_7 2.075907 1_455
Co1_4 N2_6 1.865372 1_545
Co1_4 N2_4 1.865372 1_555
Co1_4 N5_4 2.037878 1_555
Co1_4 N7_2 2.075907 1_545
Co1_4 N7_0 2.075907 1_555
Co1_5 N2_7 1.865372 1_545
Co1_5 N2_5 1.865372 1_555
Co1_5 N5_5 2.037878 1_555
Co1_5 N7_3 2.075907 1_545
Co1_5 N7_1 2.075907 1_555
Co1_6 N2_4 1.865372 1_555
Co1_6 N2_6 1.865372 1_555
Co1_6 N5_6 2.037878 1_555
Co1_6 N7_0 2.075907 1_555
Co1_6 N7_2 2.075907 1_555
Co1_7 N2_5 1.865372 1_555
Co1_7 N2_7 1.865372 1_555
Co1_7 N5_7 2.037878 1_555
Co1_7 N7_1 2.075907 1_555
Co1_7 N7_3 2.075907 1_555
Co2_0 N1_2 1.865376 1_555
Co2_0 N1_0 1.865376 1_555
Co2_0 N6_1 2.037878 1_554
Co2_0 N4_2 2.075902 1_555
Co2_0 N4_0 2.075902 1_555
Co2_1 N1_3 1.865376 1_555
Co2_1 N1_1 1.865376 1_555
Co2_1 N6_0 2.037878 1_555
Co2_1 N4_3 2.075902 1_555
Co2_1 N4_1 2.075902 1_555
Co2_2 N1_0 1.865376 1_565
Co2_2 N1_2 1.865376 1_555
Co2_2 N6_3 2.037878 1_554
Co2_2 N4_0 2.075902 1_565
Co2_2 N4_2 2.075902 1_555
Co2_3 N1_1 1.865376 1_565
Co2_3 N1_3 1.865376 1_555
Co2_3 N6_2 2.037878 1_555
Co2_3 N4_1 2.075902 1_565
Co2_3 N4_3 2.075902 1_555
Co2_4 N1_6 1.865376 1_555
Co2_4 N1_4 1.865376 1_555
Co2_4 N6_5 2.037878 1_554
Co2_4 N4_6 2.075902 1_555
Co2_4 N4_4 2.075902 1_555
Co2_5 N1_7 1.865376 1_555
Co2_5 N1_5 1.865376 1_555
Co2_5 N6_4 2.037878 1_555
Co2_5 N4_7 2.075902 1_555
Co2_5 N4_5 2.075902 1_555
Co2_6 N1_4 1.865376 1_565
Co2_6 N1_6 1.865376 1_555
Co2_6 N6_7 2.037878 1_554
Co2_6 N4_4 2.075902 1_565
Co2_6 N4_6 2.075902 1_555
Co2_7 N1_5 1.865376 1_565
Co2_7 N1_7 1.865376 1_555
Co2_7 N6_6 2.037878 1_555
Co2_7 N4_5 2.075902 1_565
Co2_7 N4_7 2.075902 1_555
Co3_0 N0_2 1.865376 1_555
Co3_0 N0_0 1.865376 1_555
Co3_0 N7_0 2.037878 1_555
Co3_0 N5_6 2.075902 1_555
Co3_0 N5_4 2.075902 1_555
Co3_1 N0_3 1.865376 1_555
Co3_1 N0_1 1.865376 1_555
Co3_1 N7_1 2.037878 1_555
Co3_1 N5_7 2.075902 1_555
Co3_1 N5_5 2.075902 1_555
Co3_2 N0_0 1.865376 1_565
Co3_2 N0_2 1.865376 1_555
Co3_2 N7_2 2.037878 1_555
Co3_2 N5_4 2.075902 1_565
Co3_2 N5_6 2.075902 1_555
Co3_3 N0_1 1.865376 1_565
Co3_3 N0_3 1.865376 1_555
Co3_3 N7_3 2.037878 1_555
Co3_3 N5_5 2.075902 1_565
Co3_3 N5_7 2.075902 1_555
Co3_4 N0_6 1.865376 1_555
Co3_4 N0_4 1.865376 1_555
Co3_4 N7_4 2.037878 1_555
Co3_4 N5_2 2.075902 1_655
Co3_4 N5_0 2.075902 1_655
Co3_5 N0_7 1.865376 1_555
Co3_5 N0_5 1.865376 1_555
Co3_5 N7_5 2.037878 1_555
Co3_5 N5_3 2.075902 1_655
Co3_5 N5_1 2.075902 1_655
Co3_6 N0_4 1.865376 1_565
Co3_6 N0_6 1.865376 1_555
Co3_6 N7_6 2.037878 1_555
Co3_6 N5_0 2.075902 1_665
Co3_6 N5_2 2.075902 1_655
Co3_7 N0_5 1.865376 1_565
Co3_7 N0_7 1.865376 1_555
Co3_7 N7_7 2.037878 1_555
Co3_7 N5_1 2.075902 1_665
Co3_7 N5_3 2.075902 1_655
Co4_0 N6_2 1.853913 1_545
Co4_0 N6_0 1.853913 1_555
Co4_0 N1_1 1.988216 1_555
Co4_0 N3_6 2.070530 1_445
Co4_0 N3_4 2.070530 1_455
Co4_1 N6_3 1.853913 1_545
Co4_1 N6_1 1.853913 1_555
Co4_1 N1_0 1.988216 1_556
Co4_1 N3_7 2.070530 1_445
Co4_1 N3_5 2.070530 1_455
Co4_2 N6_0 1.853913 1_555
Co4_2 N6_2 1.853913 1_555
Co4_2 N1_3 1.988216 1_555
Co4_2 N3_4 2.070530 1_455
Co4_2 N3_6 2.070530 1_455
Co4_3 N6_1 1.853913 1_555
Co4_3 N6_3 1.853913 1_555
Co4_3 N1_2 1.988216 1_556
Co4_3 N3_5 2.070530 1_455
Co4_3 N3_7 2.070530 1_455
Co4_4 N6_6 1.853913 1_545
Co4_4 N6_4 1.853913 1_555
Co4_4 N1_5 1.988216 1_555
Co4_4 N3_2 2.070530 1_545
Co4_4 N3_0 2.070530 1_555
Co4_5 N6_7 1.853913 1_545
Co4_5 N6_5 1.853913 1_555
Co4_5 N1_4 1.988216 1_556
Co4_5 N3_3 2.070530 1_545
Co4_5 N3_1 2.070530 1_555
Co4_6 N6_4 1.853913 1_555
Co4_6 N6_6 1.853913 1_555
Co4_6 N1_7 1.988216 1_555
Co4_6 N3_0 2.070530 1_555
Co4_6 N3_2 2.070530 1_555
Co4_7 N6_5 1.853913 1_555
Co4_7 N6_7 1.853913 1_555
Co4_7 N1_6 1.988216 1_556
Co4_7 N3_1 2.070530 1_555
Co4_7 N3_3 2.070530 1_555
Co5_0 N7_2 1.853913 1_545
Co5_0 N7_0 1.853913 1_555
Co5_0 N0_0 1.988216 1_555
Co5_0 N2_2 2.070530 1_545
Co5_0 N2_0 2.070530 1_555
Co5_1 N7_3 1.853913 1_545
Co5_1 N7_1 1.853913 1_555
Co5_1 N0_1 1.988216 1_555
Co5_1 N2_3 2.070530 1_545
Co5_1 N2_1 2.070530 1_555
Co5_2 N7_0 1.853913 1_555
Co5_2 N7_2 1.853913 1_555
Co5_2 N0_2 1.988216 1_555
Co5_2 N2_0 2.070530 1_555
Co5_2 N2_2 2.070530 1_555
Co5_3 N7_1 1.853913 1_555
Co5_3 N7_3 1.853913 1_555
Co5_3 N0_3 1.988216 1_555
Co5_3 N2_1 2.070530 1_555
Co5_3 N2_3 2.070530 1_555
Co5_4 N7_6 1.853913 1_545
Co5_4 N7_4 1.853913 1_555
Co5_4 N0_4 1.988216 1_555
Co5_4 N2_6 2.070530 1_545
Co5_4 N2_4 2.070530 1_555
Co5_5 N7_7 1.853913 1_545
Co5_5 N7_5 1.853913 1_555
Co5_5 N0_5 1.988216 1_555
Co5_5 N2_7 2.070530 1_545
Co5_5 N2_5 2.070530 1_555
Co5_6 N7_4 1.853913 1_555
Co5_6 N7_6 1.853913 1_555
Co5_6 N0_6 1.988216 1_555
Co5_6 N2_4 2.070530 1_555
Co5_6 N2_6 2.070530 1_555
Co5_7 N7_5 1.853913 1_555
Co5_7 N7_7 1.853913 1_555
Co5_7 N0_7 1.988216 1_555
Co5_7 N2_5 2.070530 1_555
Co5_7 N2_7 2.070530 1_555
Co6_0 N4_2 1.853913 1_555
Co6_0 N4_0 1.853913 1_555
Co6_0 N3_1 1.988216 1_554
Co6_0 N1_6 2.070530 1_555
Co6_0 N1_4 2.070530 1_555
Co6_1 N4_3 1.853913 1_555
Co6_1 N4_1 1.853913 1_555
Co6_1 N3_0 1.988216 1_555
Co6_1 N1_7 2.070530 1_555
Co6_1 N1_5 2.070530 1_555
Co6_2 N4_0 1.853913 1_565
Co6_2 N4_2 1.853913 1_555
Co6_2 N3_3 1.988216 1_554
Co6_2 N1_4 2.070530 1_565
Co6_2 N1_6 2.070530 1_555
Co6_3 N4_1 1.853913 1_565
Co6_3 N4_3 1.853913 1_555
Co6_3 N3_2 1.988216 1_555
Co6_3 N1_5 2.070530 1_565
Co6_3 N1_7 2.070530 1_555
Co6_4 N4_6 1.853913 1_555
Co6_4 N4_4 1.853913 1_555
Co6_4 N3_5 1.988216 1_554
Co6_4 N1_2 2.070530 1_655
Co6_4 N1_0 2.070530 1_655
Co6_5 N4_7 1.853913 1_555
Co6_5 N4_5 1.853913 1_555
Co6_5 N3_4 1.988216 1_555
Co6_5 N1_3 2.070530 1_655
Co6_5 N1_1 2.070530 1_655
Co6_6 N4_4 1.853913 1_565
Co6_6 N4_6 1.853913 1_555
Co6_6 N3_7 1.988216 1_554
Co6_6 N1_0 2.070530 1_665
Co6_6 N1_2 2.070530 1_655
Co6_7 N4_5 1.853913 1_565
Co6_7 N4_7 1.853913 1_555
Co6_7 N3_6 1.988216 1_555
Co6_7 N1_1 2.070530 1_665
Co6_7 N1_3 2.070530 1_655
Co7_0 N5_2 1.853913 1_555
Co7_0 N5_0 1.853913 1_555
Co7_0 N2_0 1.988216 1_555
Co7_0 N0_2 2.070530 1_555
Co7_0 N0_0 2.070530 1_555
Co7_1 N5_3 1.853913 1_555
Co7_1 N5_1 1.853913 1_555
Co7_1 N2_1 1.988216 1_555
Co7_1 N0_3 2.070530 1_555
Co7_1 N0_1 2.070530 1_555
Co7_2 N5_0 1.853913 1_565
Co7_2 N5_2 1.853913 1_555
Co7_2 N2_2 1.988216 1_555
Co7_2 N0_0 2.070530 1_565
Co7_2 N0_2 2.070530 1_555
Co7_3 N5_1 1.853913 1_565
Co7_3 N5_3 1.853913 1_555
Co7_3 N2_3 1.988216 1_555
Co7_3 N0_1 2.070530 1_565
Co7_3 N0_3 2.070530 1_555
Co7_4 N5_6 1.853913 1_555
Co7_4 N5_4 1.853913 1_555
Co7_4 N2_4 1.988216 1_555
Co7_4 N0_6 2.070530 1_555
Co7_4 N0_4 2.070530 1_555
Co7_5 N5_7 1.853913 1_555
Co7_5 N5_5 1.853913 1_555
Co7_5 N2_5 1.988216 1_555
Co7_5 N0_7 2.070530 1_555
Co7_5 N0_5 2.070530 1_555
Co7_6 N5_4 1.853913 1_565
Co7_6 N5_6 1.853913 1_555
Co7_6 N2_6 1.988216 1_555
Co7_6 N0_4 2.070530 1_565
Co7_6 N0_6 2.070530 1_555
Co7_7 N5_5 1.853913 1_565
Co7_7 N5_7 1.853913 1_555
Co7_7 N2_7 1.988216 1_555
Co7_7 N0_5 2.070530 1_565
Co7_7 N0_7 2.070530 1_555
