# generated using pymatgen
data_Nb6BiSe8
_symmetry_space_group_name_H-M   'P 1'
_cell_length_a   20.33075672
_cell_length_b   20.33075672
_cell_length_c   6.93602200
_cell_angle_alpha   90.00000000
_cell_angle_beta   90.00000000
_cell_angle_gamma   120.00000233
_symmetry_Int_Tables_number   1
_chemical_formula_structural   Nb6BiSe8
_chemical_formula_sum   'Nb48 Bi8 Se64'
_cell_volume   2482.83678101
_cell_formula_units_Z   8
loop_
 _symmetry_equiv_pos_site_id
 _symmetry_equiv_pos_as_xyz
  1  'x, y, z'
loop_
 _atom_site_type_symbol
 _atom_site_label
 _atom_site_symmetry_multiplicity
 _atom_site_fract_x
 _atom_site_fract_y
 _atom_site_fract_z
 _atom_site_occupancy
  Nb  Nb0_0  1  0.25620500  0.31019200  0.37458400  1
  Nb  Nb0_1  1  0.25620500  0.31019200  0.87458400  1
  Nb  Nb0_2  1  0.25620500  0.81019200  0.37458400  1
  Nb  Nb0_3  1  0.25620500  0.81019200  0.87458400  1
  Nb  Nb0_4  1  0.75620500  0.31019200  0.37458400  1
  Nb  Nb0_5  1  0.75620500  0.31019200  0.87458400  1
  Nb  Nb0_6  1  0.75620500  0.81019200  0.37458400  1
  Nb  Nb0_7  1  0.75620500  0.81019200  0.87458400  1
  Nb  Nb1_0  1  0.18980800  0.44601250  0.37458400  1
  Nb  Nb1_1  1  0.18980800  0.44601250  0.87458400  1
  Nb  Nb1_2  1  0.18980800  0.94601250  0.37458400  1
  Nb  Nb1_3  1  0.18980800  0.94601250  0.87458400  1
  Nb  Nb1_4  1  0.68980800  0.44601250  0.37458400  1
  Nb  Nb1_5  1  0.68980800  0.44601250  0.87458400  1
  Nb  Nb1_6  1  0.68980800  0.94601250  0.37458400  1
  Nb  Nb1_7  1  0.68980800  0.94601250  0.87458400  1
  Nb  Nb2_0  1  0.05398750  0.24379500  0.37458400  1
  Nb  Nb2_1  1  0.05398750  0.24379500  0.87458400  1
  Nb  Nb2_2  1  0.05398750  0.74379500  0.37458400  1
  Nb  Nb2_3  1  0.05398750  0.74379500  0.87458400  1
  Nb  Nb2_4  1  0.55398750  0.24379500  0.37458400  1
  Nb  Nb2_5  1  0.55398750  0.24379500  0.87458400  1
  Nb  Nb2_6  1  0.55398750  0.74379500  0.37458400  1
  Nb  Nb2_7  1  0.55398750  0.74379500  0.87458400  1
  Nb  Nb3_0  1  0.24379500  0.18980800  0.12541600  1
  Nb  Nb3_1  1  0.24379500  0.18980800  0.62541600  1
  Nb  Nb3_2  1  0.24379500  0.68980800  0.12541600  1
  Nb  Nb3_3  1  0.24379500  0.68980800  0.62541600  1
  Nb  Nb3_4  1  0.74379500  0.18980800  0.12541600  1
  Nb  Nb3_5  1  0.74379500  0.18980800  0.62541600  1
  Nb  Nb3_6  1  0.74379500  0.68980800  0.12541600  1
  Nb  Nb3_7  1  0.74379500  0.68980800  0.62541600  1
  Nb  Nb4_0  1  0.31019200  0.05398750  0.12541600  1
  Nb  Nb4_1  1  0.31019200  0.05398750  0.62541600  1
  Nb  Nb4_2  1  0.31019200  0.55398750  0.12541600  1
  Nb  Nb4_3  1  0.31019200  0.55398750  0.62541600  1
  Nb  Nb4_4  1  0.81019200  0.05398750  0.12541600  1
  Nb  Nb4_5  1  0.81019200  0.05398750  0.62541600  1
  Nb  Nb4_6  1  0.81019200  0.55398750  0.12541600  1
  Nb  Nb4_7  1  0.81019200  0.55398750  0.62541600  1
  Nb  Nb5_0  1  0.44601250  0.25620500  0.12541600  1
  Nb  Nb5_1  1  0.44601250  0.25620500  0.62541600  1
  Nb  Nb5_2  1  0.44601250  0.75620500  0.12541600  1
  Nb  Nb5_3  1  0.44601250  0.75620500  0.62541600  1
  Nb  Nb5_4  1  0.94601250  0.25620500  0.12541600  1
  Nb  Nb5_5  1  0.94601250  0.25620500  0.62541600  1
  Nb  Nb5_6  1  0.94601250  0.75620500  0.12541600  1
  Nb  Nb5_7  1  0.94601250  0.75620500  0.62541600  1
  Bi  Bi0_0  1  0.00000000  0.00000000  0.25000000  1
  Bi  Bi0_1  1  0.00000000  0.00000000  0.75000000  1
  Bi  Bi0_2  1  0.00000000  0.50000000  0.25000000  1
  Bi  Bi0_3  1  0.00000000  0.50000000  0.75000000  1
  Bi  Bi0_4  1  0.50000000  0.00000000  0.25000000  1
  Bi  Bi0_5  1  0.50000000  0.00000000  0.75000000  1
  Bi  Bi0_6  1  0.50000000  0.50000000  0.25000000  1
  Bi  Bi0_7  1  0.50000000  0.50000000  0.75000000  1
  Se  Se0_0  1  0.33132200  0.47061250  0.37494150  1
  Se  Se0_1  1  0.33132200  0.47061250  0.87494150  1
  Se  Se0_2  1  0.33132200  0.97061250  0.37494150  1
  Se  Se0_3  1  0.33132200  0.97061250  0.87494150  1
  Se  Se0_4  1  0.83132200  0.47061250  0.37494150  1
  Se  Se0_5  1  0.83132200  0.47061250  0.87494150  1
  Se  Se0_6  1  0.83132200  0.97061250  0.37494150  1
  Se  Se0_7  1  0.83132200  0.97061250  0.87494150  1
  Se  Se1_0  1  0.02938750  0.36070900  0.37494150  1
  Se  Se1_1  1  0.02938750  0.36070900  0.87494150  1
  Se  Se1_2  1  0.02938750  0.86070900  0.37494150  1
  Se  Se1_3  1  0.02938750  0.86070900  0.87494150  1
  Se  Se1_4  1  0.52938750  0.36070900  0.37494150  1
  Se  Se1_5  1  0.52938750  0.36070900  0.87494150  1
  Se  Se1_6  1  0.52938750  0.86070900  0.37494150  1
  Se  Se1_7  1  0.52938750  0.86070900  0.87494150  1
  Se  Se2_0  1  0.13929100  0.16867800  0.37494150  1
  Se  Se2_1  1  0.13929100  0.16867800  0.87494150  1
  Se  Se2_2  1  0.13929100  0.66867800  0.37494150  1
  Se  Se2_3  1  0.13929100  0.66867800  0.87494150  1
  Se  Se2_4  1  0.63929100  0.16867800  0.37494150  1
  Se  Se2_5  1  0.63929100  0.16867800  0.87494150  1
  Se  Se2_6  1  0.63929100  0.66867800  0.37494150  1
  Se  Se2_7  1  0.63929100  0.66867800  0.87494150  1
  Se  Se3_0  1  0.16867800  0.02938750  0.12505850  1
  Se  Se3_1  1  0.16867800  0.02938750  0.62505850  1
  Se  Se3_2  1  0.16867800  0.52938750  0.12505850  1
  Se  Se3_3  1  0.16867800  0.52938750  0.62505850  1
  Se  Se3_4  1  0.66867800  0.02938750  0.12505850  1
  Se  Se3_5  1  0.66867800  0.02938750  0.62505850  1
  Se  Se3_6  1  0.66867800  0.52938750  0.12505850  1
  Se  Se3_7  1  0.66867800  0.52938750  0.62505850  1
  Se  Se4_0  1  0.47061250  0.13929100  0.12505850  1
  Se  Se4_1  1  0.47061250  0.13929100  0.62505850  1
  Se  Se4_2  1  0.47061250  0.63929100  0.12505850  1
  Se  Se4_3  1  0.47061250  0.63929100  0.62505850  1
  Se  Se4_4  1  0.97061250  0.13929100  0.12505850  1
  Se  Se4_5  1  0.97061250  0.13929100  0.62505850  1
  Se  Se4_6  1  0.97061250  0.63929100  0.12505850  1
  Se  Se4_7  1  0.97061250  0.63929100  0.62505850  1
  Se  Se5_0  1  0.36070900  0.33132200  0.12505850  1
  Se  Se5_1  1  0.36070900  0.33132200  0.62505850  1
  Se  Se5_2  1  0.36070900  0.83132200  0.12505850  1
  Se  Se5_3  1  0.36070900  0.83132200  0.62505850  1
  Se  Se5_4  1  0.86070900  0.33132200  0.12505850  1
  Se  Se5_5  1  0.86070900  0.33132200  0.62505850  1
  Se  Se5_6  1  0.86070900  0.83132200  0.12505850  1
  Se  Se5_7  1  0.86070900  0.83132200  0.62505850  1
  Se  Se6_0  1  0.33333350  0.16666650  0.37502800  1
  Se  Se6_1  1  0.33333350  0.16666650  0.87502800  1
  Se  Se6_2  1  0.33333350  0.66666650  0.37502800  1
  Se  Se6_3  1  0.33333350  0.66666650  0.87502800  1
  Se  Se6_4  1  0.83333350  0.16666650  0.37502800  1
  Se  Se6_5  1  0.83333350  0.16666650  0.87502800  1
  Se  Se6_6  1  0.83333350  0.66666650  0.37502800  1
  Se  Se6_7  1  0.83333350  0.66666650  0.87502800  1
  Se  Se7_0  1  0.16666650  0.33333350  0.12497200  1
  Se  Se7_1  1  0.16666650  0.33333350  0.62497200  1
  Se  Se7_2  1  0.16666650  0.83333350  0.12497200  1
  Se  Se7_3  1  0.16666650  0.83333350  0.62497200  1
  Se  Se7_4  1  0.66666650  0.33333350  0.12497200  1
  Se  Se7_5  1  0.66666650  0.33333350  0.62497200  1
  Se  Se7_6  1  0.66666650  0.83333350  0.12497200  1
  Se  Se7_7  1  0.66666650  0.83333350  0.62497200  1
loop_
_geom_bond_atom_site_label_1
_geom_bond_atom_site_label_2
_geom_bond_distance
_geom_bond_site_symmetry_2
Nb0_0 Se5_0 2.604095 1_555
Nb0_0 Se5_1 2.608475 1_555
Nb0_0 Se2_0 2.662486 1_555
Nb0_0 Se7_0 2.718284 1_555
Nb0_0 Se7_1 2.721716 1_555
Nb0_0 Se0_0 2.826415 1_555
Nb0_1 Se5_1 2.604095 1_555
Nb0_1 Se5_0 2.608475 1_556
Nb0_1 Se2_1 2.662486 1_555
Nb0_1 Se7_1 2.718284 1_555
Nb0_1 Se7_0 2.721716 1_556
Nb0_1 Se0_1 2.826415 1_555
Nb0_2 Se5_2 2.604095 1_555
Nb0_2 Se5_3 2.608475 1_555
Nb0_2 Se2_2 2.662486 1_555
Nb0_2 Se7_2 2.718284 1_555
Nb0_2 Se7_3 2.721716 1_555
Nb0_2 Se0_2 2.826415 1_555
Nb0_3 Se5_3 2.604095 1_555
Nb0_3 Se5_2 2.608475 1_556
Nb0_3 Se2_3 2.662486 1_555
Nb0_3 Se7_3 2.718284 1_555
Nb0_3 Se7_2 2.721716 1_556
Nb0_3 Se0_3 2.826415 1_555
Nb0_4 Se5_4 2.604095 1_555
Nb0_4 Se5_5 2.608475 1_555
Nb0_4 Se2_4 2.662486 1_555
Nb0_4 Se7_4 2.718284 1_555
Nb0_4 Se7_5 2.721716 1_555
Nb0_4 Se0_4 2.826415 1_555
Nb0_5 Se5_5 2.604095 1_555
Nb0_5 Se5_4 2.608475 1_556
Nb0_5 Se2_5 2.662486 1_555
Nb0_5 Se7_5 2.718284 1_555
Nb0_5 Se7_4 2.721716 1_556
Nb0_5 Se0_5 2.826415 1_555
Nb0_6 Se5_6 2.604095 1_555
Nb0_6 Se5_7 2.608475 1_555
Nb0_6 Se2_6 2.662486 1_555
Nb0_6 Se7_6 2.718284 1_555
Nb0_6 Se7_7 2.721716 1_555
Nb0_6 Se0_6 2.826415 1_555
Nb0_7 Se5_7 2.604095 1_555
Nb0_7 Se5_6 2.608475 1_556
Nb0_7 Se2_7 2.662486 1_555
Nb0_7 Se7_7 2.718284 1_555
Nb0_7 Se7_6 2.721716 1_556
Nb0_7 Se0_7 2.826415 1_555
Nb1_0 Se3_2 2.604110 1_555
Nb1_0 Se3_3 2.608490 1_555
Nb1_0 Se0_0 2.662486 1_555
Nb1_0 Se7_0 2.718269 1_555
Nb1_0 Se7_1 2.721700 1_555
Nb1_0 Se1_0 2.826415 1_555
Nb1_1 Se3_3 2.604110 1_555
Nb1_1 Se3_2 2.608490 1_556
Nb1_1 Se0_1 2.662486 1_555
Nb1_1 Se7_1 2.718269 1_555
Nb1_1 Se7_0 2.721700 1_556
Nb1_1 Se1_1 2.826415 1_555
Nb1_2 Se3_0 2.604110 1_565
Nb1_2 Se3_1 2.608490 1_565
Nb1_2 Se0_2 2.662486 1_555
Nb1_2 Se7_2 2.718269 1_555
Nb1_2 Se7_3 2.721700 1_555
Nb1_2 Se1_2 2.826415 1_555
Nb1_3 Se3_1 2.604110 1_565
Nb1_3 Se3_0 2.608490 1_566
Nb1_3 Se0_3 2.662486 1_555
Nb1_3 Se7_3 2.718269 1_555
Nb1_3 Se7_2 2.721700 1_556
Nb1_3 Se1_3 2.826415 1_555
Nb1_4 Se3_6 2.604110 1_555
Nb1_4 Se3_7 2.608490 1_555
Nb1_4 Se0_4 2.662486 1_555
Nb1_4 Se7_4 2.718269 1_555
Nb1_4 Se7_5 2.721700 1_555
Nb1_4 Se1_4 2.826415 1_555
Nb1_5 Se3_7 2.604110 1_555
Nb1_5 Se3_6 2.608490 1_556
Nb1_5 Se0_5 2.662486 1_555
Nb1_5 Se7_5 2.718269 1_555
Nb1_5 Se7_4 2.721700 1_556
Nb1_5 Se1_5 2.826415 1_555
Nb1_6 Se3_4 2.604110 1_565
Nb1_6 Se3_5 2.608490 1_565
Nb1_6 Se0_6 2.662486 1_555
Nb1_6 Se7_6 2.718269 1_555
Nb1_6 Se7_7 2.721700 1_555
Nb1_6 Se1_6 2.826415 1_555
Nb1_7 Se3_5 2.604110 1_565
Nb1_7 Se3_4 2.608490 1_566
Nb1_7 Se0_7 2.662486 1_555
Nb1_7 Se7_7 2.718269 1_555
Nb1_7 Se7_6 2.721700 1_556
Nb1_7 Se1_7 2.826415 1_555
Nb2_0 Se4_4 2.604100 1_455
Nb2_0 Se4_5 2.608480 1_455
Nb2_0 Se1_0 2.662487 1_555
Nb2_0 Se7_0 2.718274 1_555
Nb2_0 Se7_1 2.721705 1_555
Nb2_0 Se2_0 2.826415 1_555
Nb2_1 Se4_5 2.604100 1_455
Nb2_1 Se4_4 2.608480 1_456
Nb2_1 Se1_1 2.662487 1_555
Nb2_1 Se7_1 2.718274 1_555
Nb2_1 Se7_0 2.721705 1_556
Nb2_1 Se2_1 2.826415 1_555
Nb2_2 Se4_6 2.604100 1_455
Nb2_2 Se4_7 2.608480 1_455
Nb2_2 Se1_2 2.662487 1_555
Nb2_2 Se7_2 2.718274 1_555
Nb2_2 Se7_3 2.721705 1_555
Nb2_2 Se2_2 2.826415 1_555
Nb2_3 Se4_7 2.604100 1_455
Nb2_3 Se4_6 2.608480 1_456
Nb2_3 Se1_3 2.662487 1_555
Nb2_3 Se7_3 2.718274 1_555
Nb2_3 Se7_2 2.721705 1_556
Nb2_3 Se2_3 2.826415 1_555
Nb2_4 Se4_0 2.604100 1_555
Nb2_4 Se4_1 2.608480 1_555
Nb2_4 Se1_4 2.662487 1_555
Nb2_4 Se7_4 2.718274 1_555
Nb2_4 Se7_5 2.721705 1_555
Nb2_4 Se2_4 2.826415 1_555
Nb2_5 Se4_1 2.604100 1_555
Nb2_5 Se4_0 2.608480 1_556
Nb2_5 Se1_5 2.662487 1_555
Nb2_5 Se7_5 2.718274 1_555
Nb2_5 Se7_4 2.721705 1_556
Nb2_5 Se2_5 2.826415 1_555
Nb2_6 Se4_2 2.604100 1_555
Nb2_6 Se4_3 2.608480 1_555
Nb2_6 Se1_6 2.662487 1_555
Nb2_6 Se7_6 2.718274 1_555
Nb2_6 Se7_7 2.721705 1_555
Nb2_6 Se2_6 2.826415 1_555
Nb2_7 Se4_3 2.604100 1_555
Nb2_7 Se4_2 2.608480 1_556
Nb2_7 Se1_7 2.662487 1_555
Nb2_7 Se7_7 2.718274 1_555
Nb2_7 Se7_6 2.721705 1_556
Nb2_7 Se2_7 2.826415 1_555
Nb3_0 Se2_0 2.604095 1_555
Nb3_0 Se2_1 2.608475 1_554
Nb3_0 Se5_0 2.662486 1_555
Nb3_0 Se6_0 2.718284 1_555
Nb3_0 Se6_1 2.721716 1_554
Nb3_0 Se3_0 2.826415 1_555
Nb3_1 Se2_1 2.604095 1_555
Nb3_1 Se2_0 2.608475 1_555
Nb3_1 Se5_1 2.662486 1_555
Nb3_1 Se6_1 2.718284 1_555
Nb3_1 Se6_0 2.721716 1_555
Nb3_1 Se3_1 2.826415 1_555
Nb3_2 Se2_2 2.604095 1_555
Nb3_2 Se2_3 2.608475 1_554
Nb3_2 Se5_2 2.662486 1_555
Nb3_2 Se6_2 2.718284 1_555
Nb3_2 Se6_3 2.721716 1_554
Nb3_2 Se3_2 2.826415 1_555
Nb3_3 Se2_3 2.604095 1_555
Nb3_3 Se2_2 2.608475 1_555
Nb3_3 Se5_3 2.662486 1_555
Nb3_3 Se6_3 2.718284 1_555
Nb3_3 Se6_2 2.721716 1_555
Nb3_3 Se3_3 2.826415 1_555
Nb3_4 Se2_4 2.604095 1_555
Nb3_4 Se2_5 2.608475 1_554
Nb3_4 Se5_4 2.662486 1_555
Nb3_4 Se6_4 2.718284 1_555
Nb3_4 Se6_5 2.721716 1_554
Nb3_4 Se3_4 2.826415 1_555
Nb3_5 Se2_5 2.604095 1_555
Nb3_5 Se2_4 2.608475 1_555
Nb3_5 Se5_5 2.662486 1_555
Nb3_5 Se6_5 2.718284 1_555
Nb3_5 Se6_4 2.721716 1_555
Nb3_5 Se3_5 2.826415 1_555
Nb3_6 Se2_6 2.604095 1_555
Nb3_6 Se2_7 2.608475 1_554
Nb3_6 Se5_6 2.662486 1_555
Nb3_6 Se6_6 2.718284 1_555
Nb3_6 Se6_7 2.721716 1_554
Nb3_6 Se3_6 2.826415 1_555
Nb3_7 Se2_7 2.604095 1_555
Nb3_7 Se2_6 2.608475 1_555
Nb3_7 Se5_7 2.662486 1_555
Nb3_7 Se6_7 2.718284 1_555
Nb3_7 Se6_6 2.721716 1_555
Nb3_7 Se3_7 2.826415 1_555
Nb4_0 Se0_2 2.604110 1_545
Nb4_0 Se0_3 2.608490 1_544
Nb4_0 Se3_0 2.662486 1_555
Nb4_0 Se6_0 2.718269 1_555
Nb4_0 Se6_1 2.721700 1_554
Nb4_0 Se4_0 2.826415 1_555
Nb4_1 Se0_3 2.604110 1_545
Nb4_1 Se0_2 2.608490 1_545
Nb4_1 Se3_1 2.662486 1_555
Nb4_1 Se6_1 2.718269 1_555
Nb4_1 Se6_0 2.721700 1_555
Nb4_1 Se4_1 2.826415 1_555
Nb4_2 Se0_0 2.604110 1_555
Nb4_2 Se0_1 2.608490 1_554
Nb4_2 Se3_2 2.662486 1_555
Nb4_2 Se6_2 2.718269 1_555
Nb4_2 Se6_3 2.721700 1_554
Nb4_2 Se4_2 2.826415 1_555
Nb4_3 Se0_1 2.604110 1_555
Nb4_3 Se0_0 2.608490 1_555
Nb4_3 Se3_3 2.662486 1_555
Nb4_3 Se6_3 2.718269 1_555
Nb4_3 Se6_2 2.721700 1_555
Nb4_3 Se4_3 2.826415 1_555
Nb4_4 Se0_6 2.604110 1_545
Nb4_4 Se0_7 2.608490 1_544
Nb4_4 Se3_4 2.662486 1_555
Nb4_4 Se6_4 2.718269 1_555
Nb4_4 Se6_5 2.721700 1_554
Nb4_4 Se4_4 2.826415 1_555
Nb4_5 Se0_7 2.604110 1_545
Nb4_5 Se0_6 2.608490 1_545
Nb4_5 Se3_5 2.662486 1_555
Nb4_5 Se6_5 2.718269 1_555
Nb4_5 Se6_4 2.721700 1_555
Nb4_5 Se4_5 2.826415 1_555
Nb4_6 Se0_4 2.604110 1_555
Nb4_6 Se0_5 2.608490 1_554
Nb4_6 Se3_6 2.662486 1_555
Nb4_6 Se6_6 2.718269 1_555
Nb4_6 Se6_7 2.721700 1_554
Nb4_6 Se4_6 2.826415 1_555
Nb4_7 Se0_5 2.604110 1_555
Nb4_7 Se0_4 2.608490 1_555
Nb4_7 Se3_7 2.662486 1_555
Nb4_7 Se6_7 2.718269 1_555
Nb4_7 Se6_6 2.721700 1_555
Nb4_7 Se4_7 2.826415 1_555
Nb5_0 Se1_4 2.604100 1_555
Nb5_0 Se1_5 2.608480 1_554
Nb5_0 Se4_0 2.662487 1_555
Nb5_0 Se6_0 2.718274 1_555
Nb5_0 Se6_1 2.721705 1_554
Nb5_0 Se5_0 2.826415 1_555
Nb5_1 Se1_5 2.604100 1_555
Nb5_1 Se1_4 2.608480 1_555
Nb5_1 Se4_1 2.662487 1_555
Nb5_1 Se6_1 2.718274 1_555
Nb5_1 Se6_0 2.721705 1_555
Nb5_1 Se5_1 2.826415 1_555
Nb5_2 Se1_6 2.604100 1_555
Nb5_2 Se1_7 2.608480 1_554
Nb5_2 Se4_2 2.662487 1_555
Nb5_2 Se6_2 2.718274 1_555
Nb5_2 Se6_3 2.721705 1_554
Nb5_2 Se5_2 2.826415 1_555
Nb5_3 Se1_7 2.604100 1_555
Nb5_3 Se1_6 2.608480 1_555
Nb5_3 Se4_3 2.662487 1_555
Nb5_3 Se6_3 2.718274 1_555
Nb5_3 Se6_2 2.721705 1_555
Nb5_3 Se5_3 2.826415 1_555
Nb5_4 Se1_0 2.604100 1_655
Nb5_4 Se1_1 2.608480 1_654
Nb5_4 Se4_4 2.662487 1_555
Nb5_4 Se6_4 2.718274 1_555
Nb5_4 Se6_5 2.721705 1_554
Nb5_4 Se5_4 2.826415 1_555
Nb5_5 Se1_1 2.604100 1_655
Nb5_5 Se1_0 2.608480 1_655
Nb5_5 Se4_5 2.662487 1_555
Nb5_5 Se6_5 2.718274 1_555
Nb5_5 Se6_4 2.721705 1_555
Nb5_5 Se5_5 2.826415 1_555
Nb5_6 Se1_2 2.604100 1_655
Nb5_6 Se1_3 2.608480 1_654
Nb5_6 Se4_6 2.662487 1_555
Nb5_6 Se6_6 2.718274 1_555
Nb5_6 Se6_7 2.721705 1_554
Nb5_6 Se5_6 2.826415 1_555
Nb5_7 Se1_3 2.604100 1_655
Nb5_7 Se1_2 2.608480 1_655
Nb5_7 Se4_7 2.662487 1_555
Nb5_7 Se6_7 2.718274 1_555
Nb5_7 Se6_6 2.721705 1_555
Nb5_7 Se5_7 2.826415 1_555
Bi0_0 Se0_6 3.289297 1_445
Bi0_0 Se3_0 3.289297 1_555
Bi0_0 Se5_6 3.289301 1_445
Bi0_0 Se2_0 3.289301 1_555
Bi0_0 Se1_2 3.289307 1_545
Bi0_0 Se4_4 3.289307 1_455
Bi0_0 Bi0_1 3.468011 1_555
Bi0_0 Bi0_1 3.468011 1_554
Bi0_1 Se0_7 3.289297 1_445
Bi0_1 Se3_1 3.289297 1_555
Bi0_1 Se5_7 3.289301 1_445
Bi0_1 Se2_1 3.289301 1_555
Bi0_1 Se1_3 3.289307 1_545
Bi0_1 Se4_5 3.289307 1_455
Bi0_2 Se0_4 3.289297 1_455
Bi0_2 Se3_2 3.289297 1_555
Bi0_2 Se2_2 3.289301 1_555
Bi0_2 Se5_4 3.289301 1_455
Bi0_2 Se1_0 3.289307 1_555
Bi0_2 Se4_6 3.289307 1_455
Bi0_2 Bi0_3 3.468011 1_554
Bi0_2 Bi0_3 3.468011 1_555
Bi0_3 Se0_5 3.289297 1_455
Bi0_3 Se3_3 3.289297 1_555
Bi0_3 Se5_5 3.289301 1_455
Bi0_3 Se2_3 3.289301 1_555
Bi0_3 Se1_1 3.289307 1_555
Bi0_3 Se4_7 3.289307 1_455
Bi0_4 Se0_2 3.289297 1_545
Bi0_4 Se3_4 3.289297 1_555
Bi0_4 Se2_4 3.289301 1_555
Bi0_4 Se5_2 3.289301 1_545
Bi0_4 Se1_6 3.289307 1_545
Bi0_4 Se4_0 3.289307 1_555
Bi0_4 Bi0_5 3.468011 1_555
Bi0_4 Bi0_5 3.468011 1_554
Bi0_5 Se0_3 3.289297 1_545
Bi0_5 Se3_5 3.289297 1_555
Bi0_5 Se2_5 3.289301 1_555
Bi0_5 Se5_3 3.289301 1_545
Bi0_5 Se1_7 3.289307 1_545
Bi0_5 Se4_1 3.289307 1_555
Bi0_6 Se0_0 3.289297 1_555
Bi0_6 Se3_6 3.289297 1_555
Bi0_6 Se2_6 3.289301 1_555
Bi0_6 Se5_0 3.289301 1_555
Bi0_6 Se1_4 3.289307 1_555
Bi0_6 Se4_2 3.289307 1_555
Bi0_6 Bi0_7 3.468011 1_555
Bi0_6 Bi0_7 3.468011 1_554
Bi0_7 Se0_1 3.289297 1_555
Bi0_7 Se3_7 3.289297 1_555
Bi0_7 Se2_7 3.289301 1_555
Bi0_7 Se5_1 3.289301 1_555
Bi0_7 Se1_5 3.289307 1_555
Bi0_7 Se4_3 3.289307 1_555
