# generated using pymatgen
data_Ba3(VN2)2
_symmetry_space_group_name_H-M   'P 1'
_cell_length_a   6.22033400
_cell_length_b   10.38435200
_cell_length_c   10.32387300
_cell_angle_alpha   90.00000000
_cell_angle_beta   90.00000000
_cell_angle_gamma   90.00000000
_symmetry_Int_Tables_number   1
_chemical_formula_structural   Ba3(VN2)2
_chemical_formula_sum   'Ba12 V8 N16'
_cell_volume   666.86167533
_cell_formula_units_Z   4
loop_
 _symmetry_equiv_pos_site_id
 _symmetry_equiv_pos_as_xyz
  1  'x, y, z'
loop_
 _atom_site_type_symbol
 _atom_site_label
 _atom_site_symmetry_multiplicity
 _atom_site_fract_x
 _atom_site_fract_y
 _atom_site_fract_z
 _atom_site_occupancy
  Ba  Ba0  1  0.62086600  0.15756100  0.41885300  1
  Ba  Ba1  1  0.87913400  0.84243900  0.41885300  1
  Ba  Ba2  1  0.62086600  0.34243900  0.08114700  1
  Ba  Ba3  1  0.87913400  0.65756100  0.08114700  1
  Ba  Ba4  1  0.37913400  0.84243900  0.58114700  1
  Ba  Ba5  1  0.12086600  0.15756100  0.58114700  1
  Ba  Ba6  1  0.37913400  0.65756100  0.91885300  1
  Ba  Ba7  1  0.12086600  0.34243900  0.91885300  1
  Ba  Ba8  1  0.75000000  0.50000000  0.40351600  1
  Ba  Ba9  1  0.75000000  0.00000000  0.09648400  1
  Ba  Ba10  1  0.25000000  0.50000000  0.59648400  1
  Ba  Ba11  1  0.25000000  0.00000000  0.90351600  1
  V  V0  1  0.75000000  0.50000000  0.73589700  1
  V  V1  1  0.75000000  0.00000000  0.76410300  1
  V  V2  1  0.25000000  0.50000000  0.26410300  1
  V  V3  1  0.25000000  0.00000000  0.23589700  1
  V  V4  1  0.65796000  0.25000000  0.75000000  1
  V  V5  1  0.84204000  0.75000000  0.75000000  1
  V  V6  1  0.34204000  0.75000000  0.25000000  1
  V  V7  1  0.15796000  0.25000000  0.25000000  1
  N  N0  1  0.84297200  0.35386100  0.64163900  1
  N  N1  1  0.65702800  0.64613900  0.64163900  1
  N  N2  1  0.84297200  0.14613900  0.85836100  1
  N  N3  1  0.65702800  0.85386100  0.85836100  1
  N  N4  1  0.15702800  0.64613900  0.35836100  1
  N  N5  1  0.34297200  0.35386100  0.35836100  1
  N  N6  1  0.15702800  0.85386100  0.14163900  1
  N  N7  1  0.34297200  0.14613900  0.14163900  1
  N  N8  1  0.53465200  0.41100800  0.82728000  1
  N  N9  1  0.96534800  0.58899200  0.82728000  1
  N  N10  1  0.53465200  0.08899200  0.67272000  1
  N  N11  1  0.96534800  0.91100800  0.67272000  1
  N  N12  1  0.46534800  0.58899200  0.17272000  1
  N  N13  1  0.03465200  0.41100800  0.17272000  1
  N  N14  1  0.46534800  0.91100800  0.32728000  1
  N  N15  1  0.03465200  0.08899200  0.32728000  1
loop_
_geom_bond_atom_site_label_1
_geom_bond_atom_site_label_2
_geom_bond_distance
_geom_bond_site_symmetry_2
Ba0 N5 2.744690 1_555
Ba0 N10 2.768334 1_555
Ba0 N15 2.832960 1_655
Ba0 N14 2.895630 1_545
Ba1 N4 2.744690 1_655
Ba1 N11 2.768334 1_555
Ba1 N14 2.832960 1_555
Ba1 N15 2.895630 1_665
Ba2 N7 2.744690 1_555
Ba2 N8 2.768334 1_554
Ba2 N13 2.832960 1_655
Ba2 N12 2.895630 1_555
Ba3 N6 2.744690 1_655
Ba3 N9 2.768334 1_554
Ba3 N12 2.832960 1_555
Ba3 N13 2.895630 1_655
Ba4 N1 2.744690 1_555
Ba4 N14 2.768334 1_555
Ba4 N11 2.832960 1_455
Ba4 N10 2.895630 1_565
Ba5 N0 2.744690 1_455
Ba5 N15 2.768334 1_555
Ba5 N10 2.832960 1_555
Ba5 N11 2.895630 1_445
Ba6 N3 2.744690 1_555
Ba6 N12 2.768334 1_556
Ba6 N9 2.832960 1_455
Ba6 N8 2.895630 1_555
Ba7 N2 2.744690 1_455
Ba7 N13 2.768334 1_556
Ba7 N8 2.832960 1_555
Ba7 N9 2.895630 1_455
Ba8 N0 2.946341 1_555
Ba8 N1 2.946341 1_555
Ba8 N4 2.988406 1_655
Ba8 N5 2.988406 1_555
Ba8 N13 3.109090 1_655
Ba8 N12 3.109090 1_555
Ba9 N2 2.946341 1_554
Ba9 N3 2.946341 1_544
Ba9 N7 2.988406 1_555
Ba9 N6 2.988406 1_645
Ba9 N15 3.109090 1_655
Ba9 N14 3.109090 1_545
Ba10 N5 2.946341 1_555
Ba10 N4 2.946341 1_555
Ba10 N1 2.988406 1_555
Ba10 N0 2.988406 1_455
Ba10 N9 3.109090 1_455
Ba10 N8 3.109090 1_555
Ba11 N6 2.946341 1_546
Ba11 N7 2.946341 1_556
Ba11 N3 2.988406 1_545
Ba11 N2 2.988406 1_455
Ba11 N10 3.109090 1_555
Ba11 N11 3.109090 1_445
N0 V0 1.893244 1_555
N0 V4 1.933688 1_555
N1 V0 1.893244 1_555
N1 V5 1.933688 1_555
N2 V1 1.893244 1_555
N2 V4 1.933688 1_555
N3 V1 1.893244 1_565
N3 V5 1.933688 1_555
N4 V2 1.893244 1_555
N4 V6 1.933688 1_555
N5 V2 1.893244 1_555
N5 V7 1.933688 1_555
N6 V3 1.893244 1_565
N6 V6 1.933688 1_555
N7 V3 1.893244 1_555
N7 V7 1.933688 1_555
N8 V0 1.881068 1_555
N8 V4 2.005071 1_555
N9 V0 1.881068 1_555
N9 V5 2.005071 1_555
N10 V1 1.881068 1_555
N10 V4 2.005071 1_555
N11 V1 1.881068 1_565
N11 V5 2.005071 1_555
N12 V2 1.881068 1_555
N12 V6 2.005071 1_555
N13 V2 1.881068 1_555
N13 V7 2.005071 1_555
N14 V3 1.881068 1_565
N14 V6 2.005071 1_555
N15 V3 1.881068 1_555
N15 V7 2.005071 1_555
