# generated using pymatgen
data_ErMnGa
_symmetry_space_group_name_H-M   'P 1'
_cell_length_a   8.09899578
_cell_length_b   8.09899578
_cell_length_c   8.09899578
_cell_angle_alpha   128.03546520
_cell_angle_beta   120.73874247
_cell_angle_gamma   82.68794250
_symmetry_Int_Tables_number   1
_chemical_formula_structural   ErMnGa
_chemical_formula_sum   'Er6 Mn6 Ga6'
_cell_volume   345.54424422
_cell_formula_units_Z   6
loop_
 _symmetry_equiv_pos_site_id
 _symmetry_equiv_pos_as_xyz
  1  'x, y, z'
loop_
 _atom_site_type_symbol
 _atom_site_label
 _atom_site_symmetry_multiplicity
 _atom_site_fract_x
 _atom_site_fract_y
 _atom_site_fract_z
 _atom_site_occupancy
  Er  Er0  1  0.95786200  0.51998700  0.06212500  1
  Er  Er1  1  0.04213800  0.10426200  0.56212500  1
  Er  Er2  1  0.75003000  0.95682400  0.70679400  1
  Er  Er3  1  0.24997000  0.95676500  0.20679400  1
  Er  Er4  1  0.54774200  0.11854800  0.07080600  1
  Er  Er5  1  0.45225800  0.52306400  0.57080600  1
  Mn  Mn0  1  0.33496900  0.85871300  0.52790400  1
  Mn  Mn1  1  0.66503100  0.19293500  0.52374400  1
  Mn  Mn2  1  0.83080900  0.85871300  0.02374400  1
  Mn  Mn3  1  0.16919100  0.19293500  0.02790400  1
  Mn  Mn4  1  0.50000000  0.28880300  0.78880300  1
  Mn  Mn5  1  0.00000000  0.28880300  0.28880300  1
  Ga  Ga0  1  0.75557000  0.53710300  0.28153300  1
  Ga  Ga1  1  0.24443000  0.52596300  0.78153300  1
  Ga  Ga2  1  0.13006400  0.78151900  0.66083600  1
  Ga  Ga3  1  0.86993600  0.53077200  0.65145500  1
  Ga  Ga4  1  0.62068300  0.78151900  0.15145500  1
  Ga  Ga5  1  0.37931700  0.53077200  0.16083600  1
loop_
_geom_bond_atom_site_label_1
_geom_bond_atom_site_label_2
_geom_bond_distance
_geom_bond_site_symmetry_2
Er0 Mn1 2.906645 1_554
Er0 Mn3 2.906645 1_655
Er0 Ga0 2.911335 1_555
Er0 Mn2 2.947321 1_555
Er0 Mn0 2.947321 1_655
Er0 Ga5 3.081897 1_655
Er0 Ga3 3.081897 1_554
Er0 Mn4 3.228833 1_554
Er0 Mn5 3.228833 1_655
Er0 Ga4 3.335591 1_555
Er0 Ga2 3.335591 1_655
Er1 Mn0 2.906641 1_545
Er1 Mn2 2.906647 1_445
Er1 Ga1 2.911342 1_555
Er1 Mn3 2.947317 1_556
Er1 Mn1 2.947323 1_455
Er1 Ga2 3.081889 1_545
Er1 Ga4 3.081894 1_445
Er1 Mn4 3.228835 1_555
Er1 Mn5 3.228840 1_555
Er1 Ga5 3.335593 1_556
Er1 Ga3 3.335597 1_455
Er2 Mn0 2.883269 1_555
Er2 Mn2 2.883269 1_556
Er2 Mn3 2.905800 1_666
Er2 Mn1 2.905800 1_565
Er2 Ga0 3.018500 1_555
Er2 Mn5 3.091793 1_666
Er2 Mn4 3.091793 1_565
Er2 Ga3 3.276694 1_555
Er2 Ga5 3.276694 1_555
Er2 Ga4 3.321945 1_555
Er2 Ga2 3.321945 1_655
Er3 Mn3 2.883261 1_565
Er3 Mn1 2.883267 1_565
Er3 Mn2 2.905801 1_455
Er3 Mn0 2.905806 1_555
Er3 Ga1 3.018504 1_554
Er3 Mn5 3.091788 1_565
Er3 Mn4 3.091793 1_565
Er3 Ga2 3.276691 1_554
Er3 Ga4 3.276696 1_555
Er3 Ga3 3.321948 1_454
Er3 Ga5 3.321953 1_555
Er4 Mn0 2.916572 1_544
Er4 Mn2 2.916572 1_545
Er4 Mn3 2.929529 1_555
Er4 Mn1 2.929529 1_555
Er4 Ga0 2.936597 1_555
Er4 Ga2 3.101369 1_544
Er4 Ga4 3.101369 1_545
Er4 Mn4 3.179569 1_554
Er4 Mn5 3.179569 1_655
Er4 Ga5 3.224327 1_555
Er4 Ga3 3.224327 1_555
Er5 Mn3 2.916572 1_555
Er5 Mn1 2.916572 1_555
Er5 Mn2 2.929529 1_556
Er5 Mn0 2.929529 1_555
Er5 Ga1 2.936597 1_555
Er5 Ga5 3.101369 1_555
Er5 Ga3 3.101369 1_555
Er5 Mn4 3.179569 1_555
Er5 Mn5 3.179569 1_555
Er5 Ga4 3.224327 1_556
Er5 Ga2 3.224327 1_555
Mn0 Mn4 2.759103 1_565
Mn1 Mn4 2.759103 1_555
Mn2 Mn5 2.759103 1_665
Mn3 Mn5 2.759103 1_555
Ga0 Mn4 2.641946 1_554
Ga0 Mn5 2.641946 1_655
Ga0 Ga4 2.657956 1_555
Ga0 Ga2 2.657956 1_655
Ga0 Ga5 2.678992 1_555
Ga0 Ga3 2.678992 1_555
Ga1 Mn4 2.641946 1_555
Ga1 Mn5 2.641946 1_555
Ga1 Ga5 2.657956 1_556
Ga1 Ga3 2.657956 1_455
Ga1 Ga4 2.678992 1_556
Ga1 Ga2 2.678992 1_555
Ga2 Mn3 2.672054 1_566
Ga2 Mn0 2.687743 1_555
Ga2 Mn5 3.020108 1_555
Ga2 Ga3 3.050200 1_455
Ga3 Mn2 2.672054 1_556
Ga3 Mn1 2.687743 1_555
Ga3 Mn5 3.020108 1_655
Ga4 Mn1 2.672054 1_565
Ga4 Mn2 2.687743 1_555
Ga4 Mn4 3.020108 1_554
Ga4 Ga5 3.050200 1_555
Ga5 Mn0 2.672054 1_555
Ga5 Mn3 2.687743 1_555
Ga5 Mn4 3.020108 1_554
