# generated using pymatgen
data_GaNiPt2
_symmetry_space_group_name_H-M   'P 1'
_cell_length_a   9.47968909
_cell_length_b   9.47968909
_cell_length_c   9.47968909
_cell_angle_alpha   121.79482864
_cell_angle_beta   113.45951321
_cell_angle_gamma   94.30236953
_symmetry_Int_Tables_number   1
_chemical_formula_structural   GaNiPt2
_chemical_formula_sum   'Ga1 Ni1 Pt2'
_cell_volume   618.31724815
_cell_formula_units_Z   1
loop_
 _symmetry_equiv_pos_site_id
 _symmetry_equiv_pos_as_xyz
  1  'x, y, z'
loop_
 _atom_site_type_symbol
 _atom_site_label
 _atom_site_symmetry_multiplicity
 _atom_site_fract_x
 _atom_site_fract_y
 _atom_site_fract_z
 _atom_site_occupancy
  Ga  Ga0  1  0.00000000  0.50000000  0.50000000  1
  Ni  Ni0  1  0.00000000  0.00000000  0.00000000  1
  Pt  Pt0  1  0.00000000  0.24946600  0.24946600  1
  Pt  Pt1  1  0.00000000  0.75053400  0.75053400  1
loop_
_geom_bond_atom_site_label_1
_geom_bond_atom_site_label_2
_geom_bond_distance
_geom_bond_site_symmetry_2
Ga0 Pt1 2.310265 1_555
Ga0 Pt0 2.310265 1_555
Ni0 Pt0 2.300417 1_555
Ni0 Pt1 2.300417 1_544
