# generated using pymatgen
data_LiNiO2
_symmetry_space_group_name_H-M   'P 1'
_cell_length_a   5.04404400
_cell_length_b   5.06223070
_cell_length_c   7.55069839
_cell_angle_alpha   107.22642697
_cell_angle_beta   104.00352496
_cell_angle_gamma   100.02903078
_symmetry_Int_Tables_number   1
_chemical_formula_structural   LiNiO2
_chemical_formula_sum   'Li5 Ni5 O10'
_cell_volume   172.27921347
_cell_formula_units_Z   5
loop_
 _symmetry_equiv_pos_site_id
 _symmetry_equiv_pos_as_xyz
  1  'x, y, z'
loop_
 _atom_site_type_symbol
 _atom_site_label
 _atom_site_symmetry_multiplicity
 _atom_site_fract_x
 _atom_site_fract_y
 _atom_site_fract_z
 _atom_site_occupancy
  Li  Li0  1  0.79585600  0.50223200  0.40919500  1
  Li  Li1  1  0.60656700  0.49983000  0.78266500  1
  Li  Li2  1  0.00000000  0.00000000  0.50000000  1
  Li  Li3  1  0.39343300  0.50017000  0.21733500  1
  Li  Li4  1  0.20414400  0.49776800  0.59080500  1
  Ni  Ni0  1  0.40370400  0.99948500  0.69639000  1
  Ni  Ni1  1  0.00000000  0.50000000  0.00000000  1
  Ni  Ni2  1  0.80041400  0.99666000  0.89853500  1
  Ni  Ni3  1  0.19958600  0.00334000  0.10146500  1
  Ni  Ni4  1  0.59629600  0.00051500  0.30361000  1
  O  O0  1  0.19644500  0.24530700  0.86198900  1
  O  O1  1  0.37830400  0.76677400  0.94865800  1
  O  O2  1  0.59052200  0.76536700  0.53983700  1
  O  O3  1  0.99609300  0.24554000  0.23036900  1
  O  O4  1  0.77929000  0.22314700  0.66347600  1
  O  O5  1  0.22071000  0.77685300  0.33652400  1
  O  O6  1  0.00390700  0.75446000  0.76963100  1
  O  O7  1  0.40947800  0.23463300  0.46016300  1
  O  O8  1  0.62169600  0.23322600  0.05134200  1
  O  O9  1  0.80355500  0.75469300  0.13801100  1
loop_
_geom_bond_atom_site_label_1
_geom_bond_atom_site_label_2
_geom_bond_distance
_geom_bond_site_symmetry_2
Li0 O2 2.004199 1_555
Li0 O3 2.147031 1_555
Li0 Ni4 2.370933 1_555
Li1 O4 1.894360 1_555
Li1 O6 2.226842 1_655
Li1 O1 2.227059 1_555
Li1 Ni0 2.384159 1_545
Li1 O9 2.462485 1_556
Li1 O0 2.535086 1_555
Li2 O4 2.077556 1_455
Li2 O5 2.077556 1_545
Li2 Ni0 2.210935 1_545
Li2 Ni4 2.210935 1_455
Li2 O9 2.499001 1_445
Li2 O0 2.499001 1_555
Li3 O5 1.894360 1_555
Li3 O3 2.226842 1_455
Li3 O8 2.227059 1_555
Li3 Ni4 2.384159 1_565
Li3 O0 2.462485 1_554
Li3 O9 2.535086 1_555
Li4 O7 2.004199 1_555
Li4 O6 2.147031 1_555
Li4 Ni0 2.370933 1_555
Ni0 O2 1.946321 1_555
Ni0 O0 2.090229 1_565
Ni0 O4 2.140134 1_565
Ni0 Ni2 2.208791 1_555
Ni0 O7 2.422809 1_565
Ni0 O6 2.446594 1_555
Ni0 O8 2.456528 1_566
Ni0 O5 2.472966 1_555
Ni0 O1 2.535164 1_555
Ni1 O0 1.969518 1_554
Ni1 O9 1.969518 1_455
Ni2 O8 1.907614 1_566
Ni2 O6 1.928509 1_655
Ni2 O0 2.290774 1_665
Ni2 O9 2.464750 1_556
Ni3 O1 1.907614 1_544
Ni3 O3 1.928509 1_455
Ni3 Ni4 2.208791 1_555
Ni3 O9 2.290774 1_445
Ni3 O0 2.464750 1_554
Ni4 O7 1.946321 1_555
Ni4 O9 2.090229 1_545
Ni4 O5 2.140134 1_545
Ni4 O2 2.422809 1_545
Ni4 O3 2.446594 1_555
Ni4 O1 2.456528 1_544
Ni4 O4 2.472966 1_555
Ni4 O8 2.535164 1_555
