# generated using pymatgen
data_TiCrAgS4
_symmetry_space_group_name_H-M   'P 1'
_cell_length_a   7.26312951
_cell_length_b   7.26312951
_cell_length_c   7.36626441
_cell_angle_alpha   59.62609451
_cell_angle_beta   59.62609451
_cell_angle_gamma   60.00248214
_symmetry_Int_Tables_number   1
_chemical_formula_structural   TiCrAgS4
_chemical_formula_sum   'Ti2 Cr2 Ag2 S8'
_cell_volume   273.21857689
_cell_formula_units_Z   2
loop_
 _symmetry_equiv_pos_site_id
 _symmetry_equiv_pos_as_xyz
  1  'x, y, z'
loop_
 _atom_site_type_symbol
 _atom_site_label
 _atom_site_symmetry_multiplicity
 _atom_site_fract_x
 _atom_site_fract_y
 _atom_site_fract_z
 _atom_site_occupancy
  Ti  Ti0  1  0.51860900  0.96697200  0.01325400  1
  Ti  Ti1  1  0.03302800  0.48139100  0.98674600  1
  Cr  Cr0  1  0.49500200  0.50499800  0.00000000  1
  Cr  Cr1  1  0.49374600  0.50625400  0.50000000  1
  Ag  Ag0  1  0.86407600  0.89319000  0.37322200  1
  Ag  Ag1  1  0.10681000  0.13592400  0.62677800  1
  S  S0  1  0.74396900  0.73110900  0.24153000  1
  S  S1  1  0.26618100  0.25834500  0.21397100  1
  S  S2  1  0.69383300  0.27389200  0.76558000  1
  S  S3  1  0.26539800  0.71693500  0.75902500  1
  S  S4  1  0.28306500  0.73460200  0.24097500  1
  S  S5  1  0.72610800  0.30616700  0.23442000  1
  S  S6  1  0.26889100  0.25603100  0.75847000  1
  S  S7  1  0.74165500  0.73381900  0.78602900  1
loop_
_geom_bond_atom_site_label_1
_geom_bond_atom_site_label_2
_geom_bond_distance
_geom_bond_site_symmetry_2
Cr0 S2 2.422888 1_554
Cr0 S5 2.422888 1_555
Cr0 S1 2.434813 1_555
Cr0 S7 2.434813 1_554
Cr0 S3 2.442331 1_554
Cr0 S4 2.442331 1_555
Cr1 S5 2.423062 1_555
Cr1 S2 2.423062 1_555
Cr1 S6 2.432947 1_555
Cr1 S0 2.432947 1_555
Cr1 S3 2.438765 1_555
Cr1 S4 2.438765 1_555
Ag0 S5 2.444540 1_565
Ag0 S7 2.472346 1_555
Ag0 S0 2.474960 1_555
Ag0 S4 2.483624 1_655
Ag1 S2 2.444540 1_455
Ag1 S1 2.472346 1_555
Ag1 S6 2.474960 1_555
Ag1 S3 2.483624 1_545
S0 Ti0 2.346898 1_555
S0 Ti1 2.621048 1_654
S1 Ti1 2.382188 1_554
S1 Ti0 2.563071 1_545
S2 Ti0 2.508666 1_546
S3 Ti1 2.389779 1_555
S4 Ti0 2.389779 1_555
S5 Ti1 2.508666 1_654
S6 Ti1 2.346898 1_555
S6 Ti0 2.621048 1_546
S7 Ti0 2.382188 1_556
S7 Ti1 2.563071 1_655
