# generated using pymatgen
data_Ag2SeO4
_symmetry_space_group_name_H-M   'P 1'
_cell_length_a   6.26383881
_cell_length_b   6.26383943
_cell_length_c   7.02935936
_cell_angle_alpha   101.08814928
_cell_angle_beta   101.08816004
_cell_angle_gamma   124.63553946
_symmetry_Int_Tables_number   1
_chemical_formula_structural   Ag2SeO4
_chemical_formula_sum   'Ag4 Se2 O8'
_cell_volume   206.56740911
_cell_formula_units_Z   2
loop_
 _symmetry_equiv_pos_site_id
 _symmetry_equiv_pos_as_xyz
  1  'x, y, z'
loop_
 _atom_site_type_symbol
 _atom_site_label
 _atom_site_symmetry_multiplicity
 _atom_site_fract_x
 _atom_site_fract_y
 _atom_site_fract_z
 _atom_site_occupancy
  Ag  Ag0  1  0.17565733  0.82434267  0.25000000  1
  Ag  Ag1  1  0.57434267  0.42565733  0.25000000  1
  Ag  Ag2  1  0.82434267  0.17565733  0.75000000  1
  Ag  Ag3  1  0.42565733  0.57434267  0.75000000  1
  Se  Se0  1  0.87500000  0.12500000  0.25000000  1
  Se  Se1  1  0.12500000  0.87500000  0.75000000  1
  O  O0  1  0.87102729  0.30021414  0.10069338  1
  O  O1  1  0.19952076  0.27033590  0.39930662  1
  O  O2  1  0.69978586  0.12897271  0.39930662  1
  O  O3  1  0.72966410  0.80047924  0.10069338  1
  O  O4  1  0.12897271  0.69978586  0.89930662  1
  O  O5  1  0.80047924  0.72966410  0.60069338  1
  O  O6  1  0.27033590  0.19952076  0.89930662  1
  O  O7  1  0.30021414  0.87102729  0.60069338  1
loop_
_geom_bond_atom_site_label_1
_geom_bond_atom_site_label_2
_geom_bond_distance
_geom_bond_site_symmetry_2
Ag0 O7 2.344098 1_555
Ag0 O4 2.344098 1_554
Ag0 O2 2.510855 1_565
Ag0 O0 2.510855 1_455
Ag0 O3 2.695450 1_455
Ag0 O1 2.695451 1_565
Ag1 O6 2.344095 1_554
Ag1 O5 2.344095 1_555
Ag1 O1 2.510856 1_555
Ag1 O3 2.510856 1_555
Ag1 O2 2.695439 1_555
Ag1 O0 2.695439 1_555
Ag2 O2 2.344098 1_555
Ag2 O0 2.344098 1_556
Ag2 O7 2.510855 1_545
Ag2 O4 2.510855 1_655
Ag2 O6 2.695450 1_655
Ag2 O5 2.695451 1_545
Ag3 O3 2.344095 1_556
Ag3 O1 2.344095 1_555
Ag3 O5 2.510856 1_555
Ag3 O6 2.510856 1_555
Ag3 O7 2.695439 1_555
Ag3 O4 2.695439 1_555
O0 Se0 1.664548 1_555
O1 Se0 1.664545 1_455
O2 Se0 1.664548 1_555
O3 Se0 1.664545 1_565
O4 Se1 1.664548 1_555
O5 Se1 1.664545 1_655
O6 Se1 1.664545 1_545
O7 Se1 1.664548 1_555
