# generated using pymatgen
data_Sm8MgTi4O20
_symmetry_space_group_name_H-M   'P 1'
_cell_length_a   7.86908835
_cell_length_b   3.69983100
_cell_length_c   16.01888061
_cell_angle_alpha   90.00000000
_cell_angle_beta   89.66837053
_cell_angle_gamma   90.00000000
_symmetry_Int_Tables_number   1
_chemical_formula_structural   Sm8MgTi4O20
_chemical_formula_sum   'Sm8 Mg1 Ti4 O20'
_cell_volume   466.37063556
_cell_formula_units_Z   1
loop_
 _symmetry_equiv_pos_site_id
 _symmetry_equiv_pos_as_xyz
  1  'x, y, z'
loop_
 _atom_site_type_symbol
 _atom_site_label
 _atom_site_symmetry_multiplicity
 _atom_site_fract_x
 _atom_site_fract_y
 _atom_site_fract_z
 _atom_site_occupancy
  Sm  Sm0  1  0.15946000  0.25000000  0.07339400  1
  Sm  Sm1  1  0.10641300  0.25000000  0.73825700  1
  Sm  Sm2  1  0.38565100  0.75000000  0.23889000  1
  Sm  Sm3  1  0.33405800  0.75000000  0.55334000  1
  Sm  Sm4  1  0.65948900  0.25000000  0.42767300  1
  Sm  Sm5  1  0.68726000  0.25000000  0.76127000  1
  Sm  Sm6  1  0.87967000  0.75000000  0.25787700  1
  Sm  Sm7  1  0.85470600  0.75000000  0.94136200  1
  Mg  Mg0  1  0.42004000  0.75000000  0.73728400  1
  Ti  Ti0  1  0.14273200  0.25000000  0.40680000  1
  Ti  Ti1  1  0.35333300  0.75000000  0.91978000  1
  Ti  Ti2  1  0.64669200  0.25000000  0.08805600  1
  Ti  Ti3  1  0.84229000  0.75000000  0.58508600  1
  O  O0  1  0.11612100  0.75000000  0.16978800  1
  O  O1  1  0.12264800  0.75000000  0.44534700  1
  O  O2  1  0.08808800  0.75000000  0.64583400  1
  O  O3  1  0.13582200  0.75000000  0.98451400  1
  O  O4  1  0.26779000  0.25000000  0.31252000  1
  O  O5  1  0.22731900  0.75000000  0.81545400  1
  O  O6  1  0.35728300  0.25000000  0.47943200  1
  O  O7  1  0.42150000  0.25000000  0.14740000  1
  O  O8  1  0.38726300  0.25000000  0.95654800  1
  O  O9  1  0.39083400  0.25000000  0.68710000  1
  O  O10  1  0.61498600  0.75000000  0.33060500  1
  O  O11  1  0.62143000  0.75000000  0.04864300  1
  O  O12  1  0.57307300  0.75000000  0.84027100  1
  O  O13  1  0.63106100  0.75000000  0.51484700  1
  O  O14  1  0.76084900  0.25000000  0.18645900  1
  O  O15  1  0.68423100  0.75000000  0.67789900  1
  O  O16  1  0.86424300  0.25000000  0.02439600  1
  O  O17  1  0.92134800  0.25000000  0.34978900  1
  O  O18  1  0.87798100  0.25000000  0.54289200  1
  O  O19  1  0.90600400  0.25000000  0.84452700  1
loop_
_geom_bond_atom_site_label_1
_geom_bond_atom_site_label_2
_geom_bond_distance
_geom_bond_site_symmetry_2
Mg0 O5 1.961097 1_555
Mg0 O9 2.030612 1_565
Mg0 O9 2.030612 1_555
Mg0 O12 2.048121 1_555
Mg0 O15 2.281237 1_555
O0 Sm6 2.328692 1_455
O0 Sm2 2.398111 1_555
O0 Sm0 2.432430 1_555
O0 Sm0 2.432430 1_565
O1 Ti0 1.956353 1_565
O1 Ti0 1.956353 1_555
O1 Sm3 2.406977 1_555
O2 Ti3 2.170229 1_455
O2 Sm1 2.374315 1_565
O2 Sm1 2.374315 1_555
O2 Sm3 2.430737 1_555
O3 Ti1 1.996089 1_555
O3 Sm7 2.321428 1_455
O3 Sm0 2.342422 1_566
O3 Sm0 2.342422 1_556
O4 Ti0 1.797809 1_555
O4 Sm2 2.379255 1_555
O4 Sm2 2.379255 1_545
O5 Ti1 1.948165 1_555
O5 Sm1 2.422852 1_565
O5 Sm1 2.422852 1_555
O6 Ti0 2.055933 1_555
O6 Sm3 2.203352 1_555
O6 Sm3 2.203352 1_545
O6 Sm4 2.513943 1_555
O7 Ti2 2.006083 1_555
O7 Sm2 2.375893 1_555
O7 Sm2 2.375893 1_545
O7 Sm0 2.384450 1_555
O8 Ti1 1.960152 1_555
O8 Ti1 1.960152 1_545
O8 Sm0 2.584183 1_556
O9 Sm1 2.378982 1_555
O9 Sm5 2.623880 1_555
O9 Sm3 2.867748 1_545
O9 Sm3 2.867748 1_555
O10 Sm2 2.333655 1_555
O10 Sm6 2.380616 1_555
O10 Sm4 2.443135 1_555
O10 Sm4 2.443135 1_565
O11 Ti2 1.965137 1_555
O11 Ti2 1.965137 1_565
O11 Sm7 2.507285 1_554
O12 Ti1 2.141646 1_555
O12 Sm5 2.412037 1_565
O12 Sm5 2.412037 1_555
O12 Sm7 2.752346 1_555
O13 Ti3 2.012574 1_555
O13 Sm4 2.327795 1_555
O13 Sm4 2.327795 1_565
O13 Sm3 2.413663 1_555
O14 Ti2 1.818817 1_555
O14 Sm6 2.370156 1_545
O14 Sm6 2.370156 1_555
O15 Ti3 1.932884 1_555
O15 Sm5 2.281822 1_555
O15 Sm5 2.281822 1_565
O16 Ti2 1.987562 1_555
O16 Sm7 2.279950 1_554
O16 Sm7 2.279950 1_544
O16 Sm0 2.456401 1_655
O17 Ti0 1.971630 1_655
O17 Sm6 2.388114 1_545
O17 Sm6 2.388114 1_555
O17 Sm4 2.402669 1_555
O18 Ti3 1.988897 1_545
O18 Ti3 1.988897 1_555
O18 Sm4 2.529698 1_555
O19 Sm5 2.183625 1_555
O19 Sm1 2.313846 1_655
O19 Sm7 2.446236 1_555
O19 Sm7 2.446236 1_545
