# generated using pymatgen
data_Zn(NCl2)2
_symmetry_space_group_name_H-M   'P 1'
_cell_length_a   12.81441717
_cell_length_b   8.82302833
_cell_length_c   37.19920772
_cell_angle_alpha   90.00000000
_cell_angle_beta   91.24584827
_cell_angle_gamma   90.00000000
_symmetry_Int_Tables_number   1
_chemical_formula_structural   Zn(NCl2)2
_chemical_formula_sum   'Zn16 N32 Cl64'
_cell_volume   4204.82131480
_cell_formula_units_Z   16
loop_
 _symmetry_equiv_pos_site_id
 _symmetry_equiv_pos_as_xyz
  1  'x, y, z'
loop_
 _atom_site_type_symbol
 _atom_site_label
 _atom_site_symmetry_multiplicity
 _atom_site_fract_x
 _atom_site_fract_y
 _atom_site_fract_z
 _atom_site_occupancy
  Zn  Zn0  1  0.23670449  0.05989683  0.47955748  1
  Zn  Zn1  1  0.23670449  0.94010317  0.97955748  1
  Zn  Zn2  1  0.24763878  0.04242323  0.72101153  1
  Zn  Zn3  1  0.24763878  0.95757677  0.22101153  1
  Zn  Zn4  1  0.65011140  0.12512703  0.60013041  1
  Zn  Zn5  1  0.65011140  0.87487297  0.10013041  1
  Zn  Zn6  1  0.56471945  0.98361966  0.85419511  1
  Zn  Zn7  1  0.56471945  0.01638034  0.35419511  1
  Zn  Zn8  1  0.85325135  0.48682388  0.01100543  1
  Zn  Zn9  1  0.85325135  0.51317612  0.51100543  1
  Zn  Zn10  1  0.77331057  0.39212029  0.77914892  1
  Zn  Zn11  1  0.77331057  0.60787971  0.27914892  1
  Zn  Zn12  1  0.07929779  0.49548104  0.89803206  1
  Zn  Zn13  1  0.07929779  0.50451896  0.39803206  1
  Zn  Zn14  1  0.23399416  0.51282044  0.59807635  1
  Zn  Zn15  1  0.23399416  0.48717956  0.09807635  1
  N  N0  1  0.12685146  0.01301172  0.82043761  1
  N  N1  1  0.12685146  0.98698828  0.32043761  1
  N  N2  1  0.08928423  0.92909734  0.58207522  1
  N  N3  1  0.08928423  0.07090266  0.08207522  1
  N  N4  1  0.81386785  0.01527885  0.92741864  1
  N  N5  1  0.81386785  0.98472115  0.42741864  1
  N  N6  1  0.82594354  -0.00584288  0.70027782  1
  N  N7  1  0.82594354  0.00584288  0.20027782  1
  N  N8  1  0.29888613  0.96890624  0.66843450  1
  N  N9  1  0.29888613  0.03109376  0.16843450  1
  N  N10  1  0.33412140  0.07829527  0.94439467  1
  N  N11  1  0.33412140  0.92170473  0.44439467  1
  N  N12  1  0.62927081  0.06232952  0.54322284  1
  N  N13  1  0.62927081  0.93767048  0.04322284  1
  N  N14  1  0.52552846  0.95151047  0.78098305  1
  N  N15  1  0.52552846  0.04848853  0.28098305  1
  N  N16  1  0.62177402  0.50267213  0.67621916  1
  N  N17  1  0.62177402  0.49732787  0.17621916  1
  N  N18  1  0.59536155  0.49990855  0.94444445  1
  N  N19  1  0.59536155  0.50009145  0.44444445  1
  N  N20  1  0.34899329  0.53886034  0.55638142  1
  N  N21  1  0.34899329  0.46113966  0.05638142  1
  N  N22  1  0.30852109  0.53141934  0.82317915  1
  N  N23  1  0.30852109  0.46858066  0.32317915  1
  N  N24  1  0.81659305  0.57197286  0.81674760  1
  N  N25  1  0.81659305  0.42802714  0.31674760  1
  N  N26  1  0.68998280  0.54021122  0.58277454  1
  N  N27  1  0.68998280  0.45978878  0.08277454  1
  N  N28  1  0.11085797  0.50930002  0.95649567  1
  N  N29  1  0.11085797  0.49069998  0.45649567  1
  N  N30  1  0.09529779  0.42210616  0.70154807  1
  N  N31  1  0.09529779  0.57789384  0.20154807  1
  Cl  Cl0  1  0.22012398  0.96727019  0.58499946  1
  Cl  Cl1  1  0.22012398  0.03272981  0.08499946  1
  Cl  Cl2  1  0.11222773  0.91034594  0.48903362  1
  Cl  Cl3  1  0.11222773  0.08965406  0.98903362  1
  Cl  Cl4  1  0.32975885  0.25757258  0.48621483  1
  Cl  Cl5  1  0.32975885  0.74242742  0.98621483  1
  Cl  Cl6  1  0.40380391  0.77802801  0.45372070  1
  Cl  Cl7  1  0.40380391  0.22197199  0.95372070  1
  Cl  Cl8  1  0.24890099  0.00189679  0.83123539  1
  Cl  Cl9  1  0.24890099  -0.00189679  0.33123539  1
  Cl  Cl10  1  0.13523884  0.87296389  0.72932524  1
  Cl  Cl11  1  0.13523884  0.12703611  0.22932524  1
  Cl  Cl12  1  0.34739131  0.22838209  0.72969081  1
  Cl  Cl13  1  0.34739131  0.77161791  0.22969081  1
  Cl  Cl14  1  0.47358379  0.81541409  0.75859500  1
  Cl  Cl15  1  0.47358379  0.18458591  0.25859500  1
  Cl  Cl16  1  0.70175478  0.01974304  0.70301310  1
  Cl  Cl17  1  0.70175478  0.98025696  0.20301310  1
  Cl  Cl18  1  0.81336079  0.12110843  0.60440711  1
  Cl  Cl19  1  0.81336079  0.87889157  0.10440711  1
  Cl  Cl20  1  0.61167604  0.67655287  0.59105056  1
  Cl  Cl21  1  0.61167604  0.32344713  0.09105056  1
  Cl  Cl22  1  0.49129610  0.13374140  0.61344351  1
  Cl  Cl23  1  0.49129610  0.86625860  0.11344351  1
  Cl  Cl24  1  0.69161783  0.97483716  0.94150395  1
  Cl  Cl25  1  0.69161783  0.02516284  0.44150395  1
  Cl  Cl26  1  0.81402365  0.04866556  0.88206387  1
  Cl  Cl27  1  0.81402365  0.95133444  0.38206387  1
  Cl  Cl28  1  0.58837129  0.74886441  0.85440201  1
  Cl  Cl29  1  0.58837129  0.25113559  0.35440201  1
  Cl  Cl30  1  0.52908222  0.21153320  0.86320297  1
  Cl  Cl31  1  0.52908222  0.78846680  0.36320297  1
  Cl  Cl32  1  0.71356792  0.49328790  0.92530776  1
  Cl  Cl33  1  0.71356792  0.50671210  0.42530776  1
  Cl  Cl34  1  0.60559930  0.55343021  0.98875964  1
  Cl  Cl35  1  0.60559930  0.44656979  0.48875964  1
  Cl  Cl36  1  0.89073602  0.71432956  0.00372098  1
  Cl  Cl37  1  0.89073602  0.28567044  0.50372098  1
  Cl  Cl38  1  0.82582578  0.25481697  0.01581111  1
  Cl  Cl39  1  0.82582578  0.74518303  0.51581111  1
  Cl  Cl40  1  0.74622523  0.51583789  0.68279014  1
  Cl  Cl41  1  0.74622523  0.48416211  0.18279014  1
  Cl  Cl42  1  0.60997520  0.40901470  0.77242809  1
  Cl  Cl43  1  0.60997520  0.59098530  0.27242809  1
  Cl  Cl44  1  0.86113072  0.73318217  0.80662376  1
  Cl  Cl45  1  0.86113072  0.26681783  0.30662376  1
  Cl  Cl46  1  0.92079749  0.29788692  0.76762092  1
  Cl  Cl47  1  0.92079749  0.70211308  0.26762092  1
  Cl  Cl48  1  0.18863976  0.49751477  0.80523292  1
  Cl  Cl49  1  0.18863976  0.50248523  0.30523292  1
  Cl  Cl50  1  0.30546553  0.55260955  0.86922131  1
  Cl  Cl51  1  0.30546553  0.44739045  0.36922131  1
  Cl  Cl52  1  0.08858187  0.25868893  0.89188646  1
  Cl  Cl53  1  0.08858187  0.74131107  0.39188646  1
  Cl  Cl54  1  0.03219876  0.72280272  0.89015939  1
  Cl  Cl55  1  0.03219876  0.27719728  0.39015939  1
  Cl  Cl56  1  0.11423272  0.42004875  0.56502966  1
  Cl  Cl57  1  0.11423272  0.57995125  0.06502966  1
  Cl  Cl58  1  0.32177357  0.58529975  0.64346554  1
  Cl  Cl59  1  0.32177357  0.41470025  0.14346554  1
  Cl  Cl60  1  0.05723841  0.32512648  0.66679087  1
  Cl  Cl61  1  0.05723841  0.67487352  0.16679087  1
  Cl  Cl62  1  0.05353517  0.81455863  0.61659761  1
  Cl  Cl63  1  0.05353517  0.18544137  0.11659761  1
loop_
_geom_bond_atom_site_label_1
_geom_bond_atom_site_label_2
_geom_bond_distance
_geom_bond_site_symmetry_2
N8 Zn2 2.175568 1_565
N9 Zn3 2.175568 1_545
N10 Zn1 2.197026 1_545
N11 Zn0 2.197026 1_565
N12 Zn4 2.198877 1_555
N13 Zn5 2.198877 1_555
N20 Zn14 2.174734 1_555
N21 Zn15 2.174734 1_555
N24 Zn10 2.179028 1_555
N25 Zn11 2.179028 1_555
N28 Zn12 2.206793 1_555
N29 Zn13 2.206793 1_555
Cl0 N2 1.711269 1_555
Cl1 N3 1.711269 1_555
Cl2 Zn0 2.105731 1_565
Cl3 Zn1 2.105731 1_545
Cl4 Zn0 2.124212 1_555
Cl5 Zn1 2.124212 1_555
Cl6 N11 1.584676 1_555
Cl7 N10 1.584676 1_555
Cl8 N0 1.609259 1_555
Cl9 N1 1.609259 1_545
Cl10 Zn2 2.103580 1_565
Cl11 Zn3 2.103580 1_545
Cl12 Zn2 2.100531 1_555
Cl13 Zn3 2.100531 1_555
Cl14 N14 1.598260 1_555
Cl15 N15 1.598267 1_555
Cl16 N6 1.612740 1_555
Cl17 N7 1.612740 1_565
Cl18 Zn4 2.094835 1_555
Cl19 Zn5 2.094835 1_555
Cl20 N26 1.600692 1_555
Cl21 N27 1.600692 1_555
Cl22 Zn4 2.106324 1_555
Cl23 Zn5 2.106324 1_555
Cl24 N4 1.700490 1_565
Cl25 N5 1.700490 1_545
Cl26 N4 1.712728 1_555
Cl27 N5 1.712728 1_555
Cl28 Zn6 2.093300 1_555
Cl29 Zn7 2.093300 1_555
Cl30 Zn6 2.090730 1_545
Cl31 Zn7 2.090730 1_565
Cl32 N18 1.688643 1_555
Cl33 N19 1.688643 1_555
Cl34 N18 1.717067 1_555
Cl35 N19 1.717067 1_555
Cl36 Zn8 2.083033 1_555
Cl37 Zn9 2.083033 1_555
Cl38 Zn8 2.085288 1_555
Cl39 Zn9 2.085288 1_555
Cl40 N16 1.612322 1_555
Cl41 N17 1.612322 1_555
Cl42 Zn10 2.107799 1_555
Cl43 Zn11 2.107799 1_555
Cl44 N24 1.581136 1_555
Cl45 N25 1.581136 1_555
Cl46 Zn10 2.117156 1_555
Cl47 Zn11 2.117156 1_555
Cl48 N22 1.688342 1_555
Cl49 N23 1.688342 1_555
Cl50 N22 1.724197 1_555
Cl51 N23 1.724197 1_555
Cl52 Zn12 2.105340 1_555
Cl53 Zn13 2.105340 1_555
Cl54 Zn12 2.113065 1_555
Cl55 Zn13 2.113065 1_555
Cl56 Zn14 2.110539 1_555
Cl57 Zn15 2.110539 1_555
Cl58 Zn14 2.107715 1_555
Cl59 Zn15 2.107715 1_555
Cl60 N30 1.616873 1_555
Cl61 N31 1.616873 1_555
Cl62 N2 1.704668 1_555
Cl63 N3 1.704668 1_555
