# generated using pymatgen
data_Gd2Si3
_symmetry_space_group_name_H-M   'P 1'
_cell_length_a   3.98113831
_cell_length_b   3.98113831
_cell_length_c   8.00002300
_cell_angle_alpha   90.00000000
_cell_angle_beta   90.00000000
_cell_angle_gamma   120.00000512
_symmetry_Int_Tables_number   1
_chemical_formula_structural   Gd2Si3
_chemical_formula_sum   'Gd2 Si3'
_cell_volume   109.80860545
_cell_formula_units_Z   1
loop_
 _symmetry_equiv_pos_site_id
 _symmetry_equiv_pos_as_xyz
  1  'x, y, z'
loop_
 _atom_site_type_symbol
 _atom_site_label
 _atom_site_symmetry_multiplicity
 _atom_site_fract_x
 _atom_site_fract_y
 _atom_site_fract_z
 _atom_site_occupancy
  Gd  Gd0  1  0.00000000  0.00000000  0.24265900  1
  Gd  Gd1  1  0.00000000  0.00000000  0.75734100  1
  Si  Si0  1  0.33333300  0.66666700  0.50000000  1
  Si  Si1  1  0.66666700  0.33333300  0.00000000  1
  Si  Si2  1  0.66666700  0.33333300  0.50000000  1
loop_
_geom_bond_atom_site_label_1
_geom_bond_atom_site_label_2
_geom_bond_distance
_geom_bond_site_symmetry_2
Gd0 Si1 3.008605 1_455
Gd0 Si1 3.008607 1_445
Gd0 Si1 3.008607 1_555
Gd0 Si0 3.085698 1_545
Gd0 Si2 3.085698 1_455
Gd0 Si2 3.085700 1_445
Gd0 Si0 3.085700 1_445
Gd0 Si2 3.085700 1_555
Gd0 Si0 3.085700 1_555
Gd1 Si1 3.008605 1_456
Gd1 Si1 3.008607 1_556
Gd1 Si1 3.008607 1_446
Gd1 Si0 3.085698 1_545
Gd1 Si2 3.085698 1_455
Gd1 Si2 3.085700 1_445
Gd1 Si0 3.085700 1_445
Gd1 Si2 3.085700 1_555
Gd1 Si0 3.085700 1_555
Si0 Si2 2.298509 1_455
Si0 Si2 2.298509 1_565
Si0 Si2 2.298516 1_555
