# generated using pymatgen
data_K2Zr2NiH12(OF2)6
_symmetry_space_group_name_H-M   'P 1'
_cell_length_a   10.09789300
_cell_length_b   6.68762400
_cell_length_c   13.09480800
_cell_angle_alpha   65.69391973
_cell_angle_beta   90.00000000
_cell_angle_gamma   90.00000000
_symmetry_Int_Tables_number   1
_chemical_formula_structural   K2Zr2NiH12(OF2)6
_chemical_formula_sum   'K4 Zr4 Ni2 H24 O12 F24'
_cell_volume   805.91923369
_cell_formula_units_Z   2
loop_
 _symmetry_equiv_pos_site_id
 _symmetry_equiv_pos_as_xyz
  1  'x, y, z'
loop_
 _atom_site_type_symbol
 _atom_site_label
 _atom_site_symmetry_multiplicity
 _atom_site_fract_x
 _atom_site_fract_y
 _atom_site_fract_z
 _atom_site_occupancy
  K  K0  1  0.21577400  0.39022100  0.58473000  1
  K  K1  1  0.28422600  0.39022100  0.08473000  1
  K  K2  1  0.78422600  0.60977900  0.41527000  1
  K  K3  1  0.71577400  0.60977900  0.91527000  1
  Zr  Zr0  1  0.48550700  0.18745200  0.85037200  1
  Zr  Zr1  1  0.01449300  0.18745200  0.35037200  1
  Zr  Zr2  1  0.51449300  0.81254800  0.14962800  1
  Zr  Zr3  1  0.98550700  0.81254800  0.64962800  1
  Ni  Ni0  1  0.50000000  0.00000000  0.50000000  1
  Ni  Ni1  1  0.00000000  0.00000000  0.00000000  1
  H  H0  1  0.31710200  0.26665600  0.38156000  1
  H  H1  1  0.18289800  0.26665600  0.88156000  1
  H  H2  1  0.68289800  0.73334400  0.61844000  1
  H  H3  1  0.81710200  0.73334400  0.11844000  1
  H  H4  1  0.43684700  0.41218100  0.39025700  1
  H  H5  1  0.06315300  0.41218100  0.89025700  1
  H  H6  1  0.56315300  0.58781900  0.60974300  1
  H  H7  1  0.93684700  0.58781900  0.10974300  1
  H  H8  1  0.30688800  0.91918400  0.39411700  1
  H  H9  1  0.19311200  0.91918400  0.89411700  1
  H  H10  1  0.69311200  0.08081600  0.60588300  1
  H  H11  1  0.80688800  0.08081600  0.10588300  1
  H  H12  1  0.42639700  0.76113300  0.39642600  1
  H  H13  1  0.07360300  0.76113300  0.89642600  1
  H  H14  1  0.57360300  0.23886700  0.60357400  1
  H  H15  1  0.92639700  0.23886700  0.10357400  1
  H  H16  1  0.68546700  0.20267400  0.33650000  1
  H  H17  1  0.81453300  0.20267400  0.83650000  1
  H  H18  1  0.31453300  0.79732600  0.66350000  1
  H  H19  1  0.18546700  0.79732600  0.16350000  1
  H  H20  1  0.56524700  0.12017900  0.28322600  1
  H  H21  1  0.93475300  0.12017900  0.78322600  1
  H  H22  1  0.43475300  0.87982100  0.71677400  1
  H  H23  1  0.06524700  0.87982100  0.21677400  1
  O  O0  1  0.38237700  0.28051300  0.43441900  1
  O  O1  1  0.11762300  0.28051300  0.93441900  1
  O  O2  1  0.61762300  0.71948700  0.56558100  1
  O  O3  1  0.88237700  0.71948700  0.06558100  1
  O  O4  1  0.37414500  0.81782100  0.44311300  1
  O  O5  1  0.12585500  0.81782100  0.94311300  1
  O  O6  1  0.62585500  0.18217900  0.55688700  1
  O  O7  1  0.87414500  0.18217900  0.05688700  1
  O  O8  1  0.61103500  0.09790200  0.35361000  1
  O  O9  1  0.88896500  0.09790200  0.85361000  1
  O  O10  1  0.38896500  0.90209800  0.64639000  1
  O  O11  1  0.11103500  0.90209800  0.14639000  1
  F  F0  1  0.61369600  0.04203700  0.99582100  1
  F  F1  1  0.88630400  0.04203700  0.49582100  1
  F  F2  1  0.38630400  0.95796300  0.00417900  1
  F  F3  1  0.11369600  0.95796300  0.50417900  1
  F  F4  1  0.28606500  0.15914900  0.81171300  1
  F  F5  1  0.21393500  0.15914900  0.31171300  1
  F  F6  1  0.71393500  0.84085100  0.18828700  1
  F  F7  1  0.78606500  0.84085100  0.68828700  1
  F  F8  1  0.43004000  0.42576500  0.89763700  1
  F  F9  1  0.06996000  0.42576500  0.39763700  1
  F  F10  1  0.56996000  0.57423500  0.10236300  1
  F  F11  1  0.93004000  0.57423500  0.60236300  1
  F  F12  1  0.47470600  0.36010400  0.67245900  1
  F  F13  1  0.02529400  0.36010400  0.17245900  1
  F  F14  1  0.52529400  0.63989600  0.32754100  1
  F  F15  1  0.97470600  0.63989600  0.82754100  1
  F  F16  1  0.66562700  0.34559300  0.80458800  1
  F  F17  1  0.83437300  0.34559300  0.30458800  1
  F  F18  1  0.33437300  0.65440700  0.19541200  1
  F  F19  1  0.16562700  0.65440700  0.69541200  1
  F  F20  1  0.53349800  0.92199700  0.81773800  1
  F  F21  1  0.96650200  0.92199700  0.31773800  1
  F  F22  1  0.46650200  0.07800300  0.18226200  1
  F  F23  1  0.03349800  0.07800300  0.68226200  1
loop_
_geom_bond_atom_site_label_1
_geom_bond_atom_site_label_2
_geom_bond_distance
_geom_bond_site_symmetry_2
K0 O0 2.903715 1_555
K0 O4 3.131830 1_555
K1 O1 2.903715 1_554
K1 O5 3.131830 1_554
K2 O2 2.903715 1_555
K2 O6 3.131830 1_555
K3 O3 2.903715 1_556
K3 O7 3.131830 1_556
Ni0 O8 2.080213 1_555
Ni0 O10 2.080213 1_545
Ni0 O2 2.083564 1_545
Ni0 O0 2.083564 1_555
Ni0 O6 2.097981 1_555
Ni0 O4 2.097981 1_545
Ni1 O9 2.080213 1_454
Ni1 O11 2.080213 1_545
Ni1 O1 2.083564 1_554
Ni1 O3 2.083564 1_445
Ni1 O7 2.097981 1_455
Ni1 O5 2.097981 1_544
H0 O0 0.987405 1_555
H1 O1 0.987405 1_555
H2 O2 0.987405 1_555
H3 O3 0.987405 1_555
H4 O0 0.996556 1_555
H5 O1 0.996556 1_555
H6 O2 0.996556 1_555
H7 O3 0.996556 1_555
H8 O4 0.987103 1_555
H9 O5 0.987103 1_555
H10 O6 0.987103 1_555
H11 O7 0.987103 1_555
H12 O4 0.993317 1_555
H13 O5 0.993317 1_555
H14 O6 0.993317 1_555
H15 O7 0.993317 1_555
H16 O8 0.988343 1_555
H17 O9 0.988343 1_555
H18 O10 0.988343 1_555
H19 O11 0.988343 1_555
H20 O8 0.986105 1_555
H21 O9 0.986105 1_555
H22 O10 0.986105 1_555
H23 O11 0.986105 1_555
F0 Zr0 2.173502 1_555
F0 Zr2 2.206978 1_546
F1 Zr1 2.173502 1_655
F1 Zr3 2.206978 1_545
F2 Zr2 2.173502 1_555
F2 Zr0 2.206978 1_564
F3 Zr3 2.173502 1_455
F3 Zr1 2.206978 1_565
F4 Zr0 2.104032 1_555
F4 K0 2.818722 1_555
F5 Zr1 2.104032 1_555
F5 K1 2.818722 1_555
F6 Zr2 2.104032 1_555
F6 K2 2.818722 1_555
F7 Zr3 2.104032 1_555
F7 K3 2.818722 1_555
F8 Zr0 2.012175 1_555
F8 K1 2.783403 1_556
F8 K3 3.182243 1_555
F9 Zr1 2.012175 1_555
F9 K0 2.783403 1_555
F9 K2 3.182243 1_455
F10 Zr2 2.012175 1_555
F10 K3 2.783403 1_554
F10 K1 3.182243 1_555
F11 Zr3 2.012175 1_555
F11 K2 2.783403 1_555
F11 K0 3.182243 1_655
F12 Zr0 2.135014 1_555
F12 K0 2.829541 1_555
F13 Zr1 2.135014 1_555
F13 K1 2.829541 1_555
F14 Zr2 2.135014 1_555
F14 K2 2.829541 1_555
F15 Zr3 2.135014 1_555
F15 K3 2.829541 1_555
F16 Zr0 2.064973 1_555
F16 K3 2.754375 1_555
F17 Zr1 2.064973 1_655
F17 K2 2.754375 1_555
F18 Zr2 2.064973 1_555
F18 K1 2.754375 1_555
F19 Zr3 2.064973 1_455
F19 K0 2.754375 1_555
F20 Zr0 2.047815 1_565
F20 K3 2.680187 1_555
F21 Zr1 2.047815 1_665
F21 K2 2.680187 1_555
F22 Zr2 2.047815 1_545
F22 K1 2.680187 1_555
F23 Zr3 2.047815 1_445
F23 K0 2.680187 1_555
