# generated using pymatgen
data_Pr2HfS5
_symmetry_space_group_name_H-M   'P 1'
_cell_length_a   7.40190545
_cell_length_b   8.06202239
_cell_length_c   11.60210436
_cell_angle_alpha   90.00000000
_cell_angle_beta   90.00000000
_cell_angle_gamma   90.00000000
_symmetry_Int_Tables_number   1
_chemical_formula_structural   Pr2HfS5
_chemical_formula_sum   'Pr8 Hf4 S20'
_cell_volume   692.34777488
_cell_formula_units_Z   4
loop_
 _symmetry_equiv_pos_site_id
 _symmetry_equiv_pos_as_xyz
  1  'x, y, z'
loop_
 _atom_site_type_symbol
 _atom_site_label
 _atom_site_symmetry_multiplicity
 _atom_site_fract_x
 _atom_site_fract_y
 _atom_site_fract_z
 _atom_site_occupancy
  Pr  Pr0  1  0.54324626  0.00044062  0.32563647  1
  Pr  Pr1  1  0.95675374  0.49955938  0.82563647  1
  Pr  Pr2  1  0.45675374  0.50044062  0.67436353  1
  Pr  Pr3  1  0.04324626  -0.00044062  0.17436353  1
  Pr  Pr4  1  0.45675374  -0.00044062  0.67436353  1
  Pr  Pr5  1  0.04324626  0.50044062  0.17436353  1
  Pr  Pr6  1  0.54324626  0.49955938  0.32563647  1
  Pr  Pr7  1  0.95675374  0.00044062  0.82563647  1
  Hf  Hf0  1  0.07180377  0.75000000  0.49260256  1
  Hf  Hf1  1  0.42819623  0.75000000  0.99260256  1
  Hf  Hf2  1  0.92819623  0.25000000  0.50739744  1
  Hf  Hf3  1  0.57180377  0.25000000  0.00739744  1
  S  S0  1  0.83150527  0.53403635  0.58027944  1
  S  S1  1  0.66849473  0.96596365  0.08027944  1
  S  S2  1  0.16849473  0.03403635  0.41972056  1
  S  S3  1  0.33150527  0.46596365  0.91972056  1
  S  S4  1  0.16849473  0.46596365  0.41972056  1
  S  S5  1  0.33150527  0.03403635  0.91972056  1
  S  S6  1  0.83150527  0.96596365  0.58027944  1
  S  S7  1  0.66849473  0.53403635  0.08027944  1
  S  S8  1  0.85112295  0.75000000  0.31467406  1
  S  S9  1  0.64887705  0.75000000  0.81467406  1
  S  S10  1  0.14887705  0.25000000  0.68532594  1
  S  S11  1  0.35112295  0.25000000  0.18532594  1
  S  S12  1  0.44011970  0.75000000  0.49463923  1
  S  S13  1  0.05988030  0.75000000  0.99463923  1
  S  S14  1  0.55988030  0.25000000  0.50536077  1
  S  S15  1  0.94011970  0.25000000  0.00536077  1
  S  S16  1  0.16976351  0.75000000  0.70488631  1
  S  S17  1  0.33023649  0.75000000  0.20488631  1
  S  S18  1  0.83023649  0.25000000  0.29511369  1
  S  S19  1  0.66976351  0.25000000  0.79511369  1
loop_
_geom_bond_atom_site_label_1
_geom_bond_atom_site_label_2
_geom_bond_distance
_geom_bond_site_symmetry_2
Pr0 S14 2.900188 1_555
Pr0 S12 2.916155 1_545
Pr0 S17 2.919792 1_545
Pr0 S18 2.947186 1_555
Pr0 S11 2.953018 1_555
Pr0 S2 2.993205 1_555
Pr0 S1 3.006691 1_545
Pr0 S8 3.047300 1_545
Pr1 S15 2.900188 1_556
Pr1 S13 2.916155 1_655
Pr1 S16 2.919792 1_655
Pr1 S19 2.947186 1_555
Pr1 S10 2.953018 1_655
Pr1 S3 2.993205 1_655
Pr1 S0 3.006691 1_555
Pr1 S9 3.047300 1_555
Pr2 S12 2.900188 1_555
Pr2 S14 2.916155 1_555
Pr2 S19 2.919792 1_555
Pr2 S16 2.947186 1_555
Pr2 S9 2.953018 1_555
Pr2 S0 2.993205 1_555
Pr2 S3 3.006691 1_555
Pr2 S10 3.047300 1_555
Pr3 S13 2.900188 1_544
Pr3 S15 2.916155 1_455
Pr3 S18 2.919792 1_455
Pr3 S17 2.947186 1_545
Pr3 S8 2.953018 1_445
Pr3 S1 2.993205 1_445
Pr3 S2 3.006691 1_555
Pr3 S11 3.047300 1_555
Pr4 S12 2.900188 1_545
Pr4 S14 2.916155 1_555
Pr4 S19 2.919792 1_555
Pr4 S16 2.947186 1_545
Pr4 S9 2.953018 1_545
Pr4 S6 2.993205 1_545
Pr4 S5 3.006691 1_555
Pr4 S10 3.047300 1_555
Pr5 S13 2.900188 1_554
Pr5 S15 2.916155 1_455
Pr5 S18 2.919792 1_455
Pr5 S17 2.947186 1_555
Pr5 S8 2.953018 1_455
Pr5 S7 2.993205 1_455
Pr5 S4 3.006691 1_555
Pr5 S11 3.047300 1_555
Pr6 S14 2.900188 1_555
Pr6 S12 2.916155 1_555
Pr6 S17 2.919792 1_555
Pr6 S18 2.947186 1_555
Pr6 S11 2.953018 1_555
Pr6 S4 2.993205 1_555
Pr6 S7 3.006691 1_555
Pr6 S8 3.047300 1_555
Pr7 S15 2.900188 1_556
Pr7 S13 2.916155 1_645
Pr7 S16 2.919792 1_645
Pr7 S19 2.947186 1_555
Pr7 S10 2.953018 1_655
Pr7 S5 2.993205 1_655
Pr7 S6 3.006691 1_545
Pr7 S9 3.047300 1_545
Hf0 S4 2.543799 1_555
Hf0 S2 2.543799 1_565
Hf0 S16 2.567454 1_555
Hf0 S8 2.632434 1_455
Hf0 S0 2.688841 1_455
Hf0 S6 2.688841 1_455
Hf0 S12 2.726342 1_555
Hf1 S3 2.543799 1_555
Hf1 S5 2.543799 1_565
Hf1 S17 2.567454 1_556
Hf1 S9 2.632434 1_555
Hf1 S7 2.688841 1_556
Hf1 S1 2.688841 1_556
Hf1 S13 2.726342 1_555
Hf2 S6 2.543799 1_545
Hf2 S0 2.543799 1_555
Hf2 S18 2.567454 1_555
Hf2 S10 2.632434 1_655
Hf2 S2 2.688841 1_655
Hf2 S4 2.688841 1_655
Hf2 S14 2.726342 1_555
Hf3 S1 2.543799 1_545
Hf3 S7 2.543799 1_555
Hf3 S19 2.567454 1_554
Hf3 S11 2.632434 1_555
Hf3 S3 2.688841 1_554
Hf3 S5 2.688841 1_554
Hf3 S15 2.726342 1_555
