# generated using pymatgen
data_Y2PdPt
_symmetry_space_group_name_H-M   'P 1'
_cell_length_a   11.50990090
_cell_length_b   11.50990090
_cell_length_c   11.50990090
_cell_angle_alpha   126.58416515
_cell_angle_beta   117.90265622
_cell_angle_gamma   86.33206860
_symmetry_Int_Tables_number   1
_chemical_formula_structural   Y2PdPt
_chemical_formula_sum   'Y2 Pd1 Pt1'
_cell_volume   1031.22167420
_cell_formula_units_Z   1
loop_
 _symmetry_equiv_pos_site_id
 _symmetry_equiv_pos_as_xyz
  1  'x, y, z'
loop_
 _atom_site_type_symbol
 _atom_site_label
 _atom_site_symmetry_multiplicity
 _atom_site_fract_x
 _atom_site_fract_y
 _atom_site_fract_z
 _atom_site_occupancy
  Y  Y0  1  0.00000000  0.25102300  0.25102300  1
  Y  Y1  1  0.00000000  0.74897700  0.74897700  1
  Pd  Pd0  1  0.00000000  0.00000000  0.00000000  1
  Pt  Pt0  1  0.00000000  0.50000000  0.50000000  1
loop_
_geom_bond_atom_site_label_1
_geom_bond_atom_site_label_2
_geom_bond_distance
_geom_bond_site_symmetry_2
Pd0 Y0 2.597103 1_555
Pd0 Y1 2.597103 1_544
Pt0 Y0 2.575935 1_555
Pt0 Y1 2.575935 1_555
