# generated using pymatgen
data_Tl3PS4
_symmetry_space_group_name_H-M   'P 1'
_cell_length_a   8.92149012
_cell_length_b   9.11273035
_cell_length_c   10.92168557
_cell_angle_alpha   90.00000000
_cell_angle_beta   90.00000000
_cell_angle_gamma   90.00000000
_symmetry_Int_Tables_number   1
_chemical_formula_structural   Tl3PS4
_chemical_formula_sum   'Tl12 P4 S16'
_cell_volume   887.92357630
_cell_formula_units_Z   4
loop_
 _symmetry_equiv_pos_site_id
 _symmetry_equiv_pos_as_xyz
  1  'x, y, z'
loop_
 _atom_site_type_symbol
 _atom_site_label
 _atom_site_symmetry_multiplicity
 _atom_site_fract_x
 _atom_site_fract_y
 _atom_site_fract_z
 _atom_site_occupancy
  Tl  Tl0  1  0.39222216  0.61009658  0.75000000  1
  Tl  Tl1  1  0.89222216  0.88990342  0.75000000  1
  Tl  Tl2  1  0.10777784  0.11009658  0.25000000  1
  Tl  Tl3  1  0.60777784  0.38990342  0.25000000  1
  Tl  Tl4  1  0.43788058  0.80229956  0.44905666  1
  Tl  Tl5  1  0.93788058  0.69770044  0.05094334  1
  Tl  Tl6  1  0.06211942  0.30229956  0.55094334  1
  Tl  Tl7  1  0.56211942  0.19770044  0.94905666  1
  Tl  Tl8  1  0.56211942  0.19770044  0.55094334  1
  Tl  Tl9  1  0.06211942  0.30229956  0.94905666  1
  Tl  Tl10  1  0.93788058  0.69770044  0.44905666  1
  Tl  Tl11  1  0.43788058  0.80229956  0.05094334  1
  P  P0  1  0.27923714  0.02832982  0.75000000  1
  P  P1  1  0.77923714  0.47167018  0.75000000  1
  P  P2  1  0.22076286  0.52832982  0.25000000  1
  P  P3  1  0.72076286  0.97167018  0.25000000  1
  S  S0  1  0.30213298  0.25402154  0.75000000  1
  S  S1  1  0.80213298  0.24597846  0.75000000  1
  S  S2  1  0.19786702  0.75402154  0.25000000  1
  S  S3  1  0.69786702  0.74597846  0.25000000  1
  S  S4  1  0.48977657  0.94054408  0.75000000  1
  S  S5  1  0.98977657  0.55945592  0.75000000  1
  S  S6  1  0.01022343  0.44054408  0.25000000  1
  S  S7  1  0.51022343  0.05945592  0.25000000  1
  S  S8  1  0.83585590  0.03296579  0.09677110  1
  S  S9  1  0.33585590  0.46703421  0.40322890  1
  S  S10  1  0.66414410  0.53296579  0.90322890  1
  S  S11  1  0.16414410  0.96703421  0.59677110  1
  S  S12  1  0.16414410  0.96703421  0.90322890  1
  S  S13  1  0.66414410  0.53296579  0.59677110  1
  S  S14  1  0.33585590  0.46703421  0.09677110  1
  S  S15  1  0.83585590  0.03296579  0.40322890  1
loop_
_geom_bond_atom_site_label_1
_geom_bond_atom_site_label_2
_geom_bond_distance
_geom_bond_site_symmetry_2
P0 S11 2.041319 1_545
P0 S12 2.041319 1_545
P0 S4 2.041581 1_545
P0 S0 2.066787 1_555
P1 S10 2.041319 1_555
P1 S13 2.041319 1_555
P1 S5 2.041581 1_555
P1 S1 2.066787 1_555
P2 S14 2.041319 1_555
P2 S9 2.041319 1_555
P2 S6 2.041581 1_555
P2 S2 2.066787 1_555
P3 S8 2.041319 1_565
P3 S15 2.041319 1_565
P3 S7 2.041581 1_565
P3 S3 2.066787 1_555
S0 Tl6 3.083026 1_555
S0 Tl9 3.083026 1_555
S1 Tl7 3.083026 1_555
S1 Tl8 3.083026 1_555
S2 Tl4 3.083026 1_555
S2 Tl11 3.083026 1_555
S3 Tl10 3.083026 1_555
S3 Tl5 3.083026 1_555
S4 Tl0 3.134530 1_555
S5 Tl1 3.134530 1_555
S6 Tl2 3.134530 1_555
S7 Tl3 3.134530 1_555
S8 Tl2 3.029838 1_655
S9 Tl3 3.029838 1_555
S10 Tl0 3.029838 1_555
S11 Tl1 3.029838 1_455
S12 Tl1 3.029838 1_455
S13 Tl0 3.029838 1_555
S14 Tl3 3.029838 1_555
S15 Tl2 3.029838 1_655
