# generated using pymatgen
data_Mn2CuO4
_symmetry_space_group_name_H-M   'P 1'
_cell_length_a   5.96787547
_cell_length_b   5.94030769
_cell_length_c   5.93477466
_cell_angle_alpha   59.12798123
_cell_angle_beta   60.03666593
_cell_angle_gamma   59.83690732
_symmetry_Int_Tables_number   1
_chemical_formula_structural   Mn2CuO4
_chemical_formula_sum   'Mn4 Cu2 O8'
_cell_volume   147.62533738
_cell_formula_units_Z   2
loop_
 _symmetry_equiv_pos_site_id
 _symmetry_equiv_pos_as_xyz
  1  'x, y, z'
loop_
 _atom_site_type_symbol
 _atom_site_label
 _atom_site_symmetry_multiplicity
 _atom_site_fract_x
 _atom_site_fract_y
 _atom_site_fract_z
 _atom_site_occupancy
  Mn  Mn0  1  0.50001400  0.99996000  0.50002600  1
  Mn  Mn1  1  0.99991400  0.50003200  0.50002700  1
  Mn  Mn2  1  0.50000400  0.50003500  0.99994700  1
  Mn  Mn3  1  0.50000100  0.50001800  0.50004100  1
  Cu  Cu0  1  0.12204000  0.12771400  0.12699600  1
  Cu  Cu1  1  0.87799400  0.87232300  0.87301600  1
  O  O0  1  0.73843600  0.73491300  0.73484800  1
  O  O1  1  0.26279900  0.26058600  0.71656800  1
  O  O2  1  0.25865100  0.71749900  0.26227000  1
  O  O3  1  0.70805300  0.26771900  0.26420700  1
  O  O4  1  0.74140700  0.28222100  0.73784200  1
  O  O5  1  0.29182600  0.73232500  0.73585900  1
  O  O6  1  0.26159800  0.26513500  0.26520800  1
  O  O7  1  0.73726600  0.73951400  0.28314700  1
loop_
_geom_bond_atom_site_label_1
_geom_bond_atom_site_label_2
_geom_bond_distance
_geom_bond_site_symmetry_2
Mn0 O0 1.980739 1_555
Mn0 O6 1.980755 1_565
Mn0 O3 1.998604 1_565
Mn0 O5 1.998648 1_555
Mn0 O1 2.018566 1_565
Mn0 O7 2.019133 1_555
Mn1 O0 1.989773 1_555
Mn1 O6 1.989929 1_655
Mn1 O2 2.000404 1_655
Mn1 O4 2.000752 1_555
Mn1 O1 2.007877 1_655
Mn1 O7 2.008162 1_555
Mn2 O5 1.976566 1_555
Mn2 O3 1.976808 1_556
Mn2 O0 1.988185 1_555
Mn2 O6 1.988237 1_556
Mn2 O2 2.030090 1_556
Mn2 O4 2.030537 1_555
Mn3 O5 1.982121 1_555
Mn3 O3 1.982212 1_555
Mn3 O1 2.002180 1_555
Mn3 O7 2.002575 1_555
Mn3 O2 2.006062 1_555
Mn3 O4 2.006296 1_555
Cu0 O2 1.974054 1_545
Cu0 O1 1.977663 1_554
Cu0 O3 2.019722 1_455
Cu0 O6 2.021306 1_555
Cu1 O4 1.972526 1_565
Cu1 O7 1.976232 1_556
Cu1 O5 2.018967 1_655
Cu1 O0 2.021039 1_555
