# generated using pymatgen
data_CuNiPd
_symmetry_space_group_name_H-M   'P 1'
_cell_length_a   5.31837711
_cell_length_b   5.31837711
_cell_length_c   12.70564600
_cell_angle_alpha   90.00000000
_cell_angle_beta   90.00000000
_cell_angle_gamma   120.00001376
_symmetry_Int_Tables_number   1
_chemical_formula_structural   CuNiPd
_chemical_formula_sum   'Cu8 Ni8 Pd8'
_cell_volume   311.23295706
_cell_formula_units_Z   8
loop_
 _symmetry_equiv_pos_site_id
 _symmetry_equiv_pos_as_xyz
  1  'x, y, z'
loop_
 _atom_site_type_symbol
 _atom_site_label
 _atom_site_symmetry_multiplicity
 _atom_site_fract_x
 _atom_site_fract_y
 _atom_site_fract_z
 _atom_site_occupancy
  Cu  Cu0_0  1  0.00000000  0.00000000  0.00636600  1
  Cu  Cu0_1  1  0.00000000  0.00000000  0.50636600  1
  Cu  Cu0_2  1  0.00000000  0.50000000  0.00636600  1
  Cu  Cu0_3  1  0.00000000  0.50000000  0.50636600  1
  Cu  Cu0_4  1  0.50000000  0.00000000  0.00636600  1
  Cu  Cu0_5  1  0.50000000  0.00000000  0.50636600  1
  Cu  Cu0_6  1  0.50000000  0.50000000  0.00636600  1
  Cu  Cu0_7  1  0.50000000  0.50000000  0.50636600  1
  Ni  Ni0_0  1  0.33333350  0.16666650  0.16113700  1
  Ni  Ni0_1  1  0.33333350  0.16666650  0.66113700  1
  Ni  Ni0_2  1  0.33333350  0.66666650  0.16113700  1
  Ni  Ni0_3  1  0.33333350  0.66666650  0.66113700  1
  Ni  Ni0_4  1  0.83333350  0.16666650  0.16113700  1
  Ni  Ni0_5  1  0.83333350  0.16666650  0.66113700  1
  Ni  Ni0_6  1  0.83333350  0.66666650  0.16113700  1
  Ni  Ni0_7  1  0.83333350  0.66666650  0.66113700  1
  Pd  Pd0_0  1  0.16666650  0.33333350  0.33249650  1
  Pd  Pd0_1  1  0.16666650  0.33333350  0.83249650  1
  Pd  Pd0_2  1  0.16666650  0.83333350  0.33249650  1
  Pd  Pd0_3  1  0.16666650  0.83333350  0.83249650  1
  Pd  Pd0_4  1  0.66666650  0.33333350  0.33249650  1
  Pd  Pd0_5  1  0.66666650  0.33333350  0.83249650  1
  Pd  Pd0_6  1  0.66666650  0.83333350  0.33249650  1
  Pd  Pd0_7  1  0.66666650  0.83333350  0.83249650  1
loop_
_geom_bond_atom_site_label_1
_geom_bond_atom_site_label_2
_geom_bond_distance
_geom_bond_site_symmetry_2
Cu0_0 Ni0_4 2.494810 1_455
Cu0_0 Ni0_0 2.494811 1_555
Cu0_0 Ni0_6 2.494811 1_445
Cu0_0 Cu0_6 2.659188 1_445
Cu0_0 Cu0_6 2.659188 1_555
Cu0_0 Cu0_2 2.659189 1_555
Cu0_0 Cu0_2 2.659189 1_545
Cu0_0 Cu0_4 2.659189 1_455
Cu0_0 Cu0_4 2.659189 1_555
Cu0_0 Pd0_3 2.690227 1_544
Cu0_0 Pd0_1 2.690228 1_554
Cu0_0 Pd0_7 2.690228 1_444
Cu0_1 Ni0_5 2.494810 1_455
Cu0_1 Ni0_1 2.494811 1_555
Cu0_1 Ni0_7 2.494811 1_445
Cu0_1 Cu0_7 2.659188 1_555
Cu0_1 Cu0_7 2.659188 1_445
Cu0_1 Cu0_3 2.659189 1_545
Cu0_1 Cu0_5 2.659189 1_555
Cu0_1 Cu0_5 2.659189 1_455
Cu0_1 Cu0_3 2.659189 1_555
Cu0_1 Pd0_2 2.690227 1_545
Cu0_1 Pd0_0 2.690228 1_555
Cu0_1 Pd0_6 2.690228 1_445
Cu0_2 Ni0_6 2.494810 1_455
Cu0_2 Ni0_2 2.494811 1_555
Cu0_2 Ni0_4 2.494811 1_455
Cu0_2 Cu0_4 2.659188 1_455
Cu0_2 Cu0_4 2.659188 1_565
Cu0_2 Cu0_6 2.659189 1_455
Cu0_2 Cu0_6 2.659189 1_555
Cu0_2 Pd0_1 2.690227 1_554
Cu0_2 Pd0_5 2.690228 1_454
Cu0_2 Pd0_3 2.690228 1_554
Cu0_3 Ni0_7 2.494810 1_455
Cu0_3 Ni0_3 2.494811 1_555
Cu0_3 Ni0_5 2.494811 1_455
Cu0_3 Cu0_5 2.659188 1_565
Cu0_3 Cu0_5 2.659188 1_455
Cu0_3 Cu0_7 2.659189 1_455
Cu0_3 Cu0_7 2.659189 1_555
Cu0_3 Pd0_0 2.690227 1_555
Cu0_3 Pd0_4 2.690228 1_455
Cu0_3 Pd0_2 2.690228 1_555
Cu0_4 Ni0_0 2.494810 1_555
Cu0_4 Ni0_4 2.494811 1_555
Cu0_4 Ni0_2 2.494811 1_545
Cu0_4 Cu0_6 2.659189 1_545
Cu0_4 Cu0_6 2.659189 1_555
Cu0_4 Pd0_7 2.690227 1_544
Cu0_4 Pd0_3 2.690228 1_544
Cu0_4 Pd0_5 2.690228 1_554
Cu0_5 Ni0_1 2.494810 1_555
Cu0_5 Ni0_5 2.494811 1_555
Cu0_5 Ni0_3 2.494811 1_545
Cu0_5 Cu0_7 2.659189 1_555
Cu0_5 Cu0_7 2.659189 1_545
Cu0_5 Pd0_6 2.690227 1_545
Cu0_5 Pd0_4 2.690228 1_555
Cu0_5 Pd0_2 2.690228 1_545
Cu0_6 Ni0_2 2.494810 1_555
Cu0_6 Ni0_6 2.494811 1_555
Cu0_6 Ni0_0 2.494811 1_555
Cu0_6 Pd0_5 2.690227 1_554
Cu0_6 Pd0_7 2.690228 1_554
Cu0_6 Pd0_1 2.690228 1_554
Cu0_7 Ni0_3 2.494810 1_555
Cu0_7 Ni0_7 2.494811 1_555
Cu0_7 Ni0_1 2.494811 1_555
Cu0_7 Pd0_4 2.690227 1_555
Cu0_7 Pd0_6 2.690228 1_555
Cu0_7 Pd0_0 2.690228 1_555
Ni0_0 Ni0_6 2.659188 1_555
Ni0_0 Ni0_6 2.659188 1_445
Ni0_0 Ni0_4 2.659189 1_555
Ni0_0 Ni0_2 2.659189 1_545
Ni0_0 Ni0_2 2.659189 1_555
Ni0_0 Ni0_4 2.659189 1_455
Ni0_0 Pd0_2 2.664101 1_545
Ni0_0 Pd0_4 2.664101 1_555
Ni0_0 Pd0_0 2.664104 1_555
Ni0_1 Ni0_7 2.659188 1_555
Ni0_1 Ni0_7 2.659188 1_445
Ni0_1 Ni0_3 2.659189 1_545
Ni0_1 Ni0_5 2.659189 1_555
Ni0_1 Ni0_3 2.659189 1_555
Ni0_1 Ni0_5 2.659189 1_455
Ni0_1 Pd0_3 2.664101 1_545
Ni0_1 Pd0_5 2.664101 1_555
Ni0_1 Pd0_1 2.664104 1_555
Ni0_2 Ni0_4 2.659188 1_565
Ni0_2 Ni0_4 2.659188 1_455
Ni0_2 Ni0_6 2.659189 1_555
Ni0_2 Ni0_6 2.659189 1_455
Ni0_2 Pd0_6 2.664101 1_555
Ni0_2 Pd0_0 2.664101 1_555
Ni0_2 Pd0_2 2.664104 1_555
Ni0_3 Ni0_5 2.659188 1_565
Ni0_3 Ni0_5 2.659188 1_455
Ni0_3 Ni0_7 2.659189 1_555
Ni0_3 Ni0_7 2.659189 1_455
Ni0_3 Pd0_7 2.664101 1_555
Ni0_3 Pd0_1 2.664101 1_555
Ni0_3 Pd0_3 2.664104 1_555
Ni0_4 Ni0_6 2.659189 1_545
Ni0_4 Ni0_6 2.659189 1_555
Ni0_4 Pd0_0 2.664101 1_655
Ni0_4 Pd0_6 2.664101 1_545
Ni0_4 Pd0_4 2.664104 1_555
Ni0_5 Ni0_7 2.659189 1_545
Ni0_5 Ni0_7 2.659189 1_555
Ni0_5 Pd0_1 2.664101 1_655
Ni0_5 Pd0_7 2.664101 1_545
Ni0_5 Pd0_5 2.664104 1_555
Ni0_6 Pd0_2 2.664101 1_655
Ni0_6 Pd0_4 2.664101 1_555
Ni0_6 Pd0_6 2.664104 1_555
Ni0_7 Pd0_3 2.664101 1_655
Ni0_7 Pd0_5 2.664101 1_555
Ni0_7 Pd0_7 2.664104 1_555
Pd0_0 Pd0_6 2.659188 1_555
Pd0_0 Pd0_6 2.659188 1_445
Pd0_0 Pd0_4 2.659189 1_455
Pd0_0 Pd0_2 2.659189 1_545
Pd0_0 Pd0_4 2.659189 1_555
Pd0_0 Pd0_2 2.659189 1_555
Pd0_1 Pd0_7 2.659188 1_555
Pd0_1 Pd0_7 2.659188 1_445
Pd0_1 Pd0_5 2.659189 1_455
Pd0_1 Pd0_5 2.659189 1_555
Pd0_1 Pd0_3 2.659189 1_545
Pd0_1 Pd0_3 2.659189 1_555
Pd0_2 Pd0_4 2.659188 1_455
Pd0_2 Pd0_4 2.659188 1_565
Pd0_2 Pd0_6 2.659189 1_555
Pd0_2 Pd0_6 2.659189 1_455
Pd0_3 Pd0_5 2.659188 1_455
Pd0_3 Pd0_5 2.659188 1_565
Pd0_3 Pd0_7 2.659189 1_555
Pd0_3 Pd0_7 2.659189 1_455
Pd0_4 Pd0_6 2.659189 1_545
Pd0_4 Pd0_6 2.659189 1_555
Pd0_5 Pd0_7 2.659189 1_545
Pd0_5 Pd0_7 2.659189 1_555
