# generated using pymatgen
data_Ca2AlSnO5
_symmetry_space_group_name_H-M   'P 1'
_cell_length_a   5.69720100
_cell_length_b   6.08946712
_cell_length_c   8.44768613
_cell_angle_alpha   110.71104442
_cell_angle_beta   108.45107188
_cell_angle_gamma   91.10679273
_symmetry_Int_Tables_number   1
_chemical_formula_structural   Ca2AlSnO5
_chemical_formula_sum   'Ca4 Al2 Sn2 O10'
_cell_volume   257.18251113
_cell_formula_units_Z   2
loop_
 _symmetry_equiv_pos_site_id
 _symmetry_equiv_pos_as_xyz
  1  'x, y, z'
loop_
 _atom_site_type_symbol
 _atom_site_label
 _atom_site_symmetry_multiplicity
 _atom_site_fract_x
 _atom_site_fract_y
 _atom_site_fract_z
 _atom_site_occupancy
  Ca  Ca0  1  0.08137000  0.65433000  0.23716400  1
  Ca  Ca1  1  0.42660200  0.92468900  0.76344600  1
  Ca  Ca2  1  0.89977400  0.33432000  0.76046100  1
  Ca  Ca3  1  0.65652800  0.07328500  0.24328400  1
  Al  Al0  1  0.28148900  0.33172200  0.50989700  1
  Al  Al1  1  0.77664800  0.66165900  0.49409800  1
  Sn  Sn0  1  0.50052100  0.50185300  0.00003400  1
  Sn  Sn1  1  0.02489700  0.00190000  0.00526100  1
  O  O0  1  0.58776600  0.41150600  0.49443600  1
  O  O1  1  0.09456000  0.57777300  0.50987500  1
  O  O2  1  0.66684100  0.70970500  0.29033500  1
  O  O3  1  0.32466100  0.28288000  0.71211200  1
  O  O4  1  0.11022300  0.06878500  0.33159900  1
  O  O5  1  0.77570000  0.92579700  0.67025600  1
  O  O6  1  0.34944600  0.79918900  0.97435900  1
  O  O7  1  0.19539500  0.36906500  0.03032700  1
  O  O8  1  0.68306700  0.22254000  0.03398800  1
  O  O9  1  0.80228900  0.64452800  0.96555900  1
loop_
_geom_bond_atom_site_label_1
_geom_bond_atom_site_label_2
_geom_bond_distance
_geom_bond_site_symmetry_2
Ca0 O7 2.260052 1_555
Ca0 O9 2.320836 1_454
Ca0 O4 2.347324 1_565
Ca0 O1 2.486321 1_555
Ca0 O2 2.547151 1_455
Ca1 O6 2.323296 1_555
Ca1 O8 2.345161 1_566
Ca1 O5 2.360036 1_555
Ca1 O3 2.416921 1_565
Ca1 O1 2.590323 1_555
Ca2 O9 2.283285 1_555
Ca2 O7 2.300701 1_656
Ca2 O5 2.349300 1_545
Ca2 O0 2.584916 1_555
Ca2 O3 2.586349 1_655
Ca3 O8 2.296850 1_555
Ca3 O2 2.382425 1_545
Ca3 O6 2.386852 1_544
Ca3 O4 2.456631 1_655
Ca3 O0 2.522560 1_555
Al0 O4 1.757260 1_555
Al0 O3 1.778568 1_555
Al0 O1 1.854951 1_555
Al0 O0 1.858560 1_555
Al1 O5 1.764683 1_555
Al1 O2 1.766799 1_555
Al1 O0 1.849359 1_555
Al1 O1 1.868227 1_655
O2 Sn0 2.191182 1_555
O3 Sn0 2.193095 1_556
O4 Sn1 2.520322 1_555
O5 Sn1 2.596742 1_666
O6 Sn0 2.070265 1_556
O6 Sn1 2.275206 1_566
O7 Sn0 2.028520 1_555
O7 Sn1 2.332036 1_555
O8 Sn0 2.069156 1_555
O8 Sn1 2.413788 1_655
O9 Sn0 2.057576 1_556
O9 Sn1 2.358957 1_666
