# generated using pymatgen
data_LuNiGe2
_symmetry_space_group_name_H-M   'P 1'
_cell_length_a   4.02642765
_cell_length_b   3.92036259
_cell_length_c   8.58634270
_cell_angle_alpha   103.19645620
_cell_angle_beta   90.00000000
_cell_angle_gamma   90.00000000
_symmetry_Int_Tables_number   1
_chemical_formula_structural   LuNiGe2
_chemical_formula_sum   'Lu2 Ni2 Ge4'
_cell_volume   131.95680994
_cell_formula_units_Z   2
loop_
 _symmetry_equiv_pos_site_id
 _symmetry_equiv_pos_as_xyz
  1  'x, y, z'
loop_
 _atom_site_type_symbol
 _atom_site_label
 _atom_site_symmetry_multiplicity
 _atom_site_fract_x
 _atom_site_fract_y
 _atom_site_fract_z
 _atom_site_occupancy
  Lu  Lu0  1  0.75000000  0.10796272  0.21592644  1
  Lu  Lu1  1  0.25000000  0.89203728  0.78407356  1
  Ni  Ni0  1  0.75000000  0.32483947  0.64967994  1
  Ni  Ni1  1  0.25000000  0.67516053  0.35032006  1
  Ge  Ge0  1  0.75000000  0.45859919  0.91719838  1
  Ge  Ge1  1  0.25000000  0.54140081  0.08280162  1
  Ge  Ge2  1  0.75000000  0.74815575  0.49631050  1
  Ge  Ge3  1  0.25000000  0.25184425  0.50368950  1
loop_
_geom_bond_atom_site_label_1
_geom_bond_atom_site_label_2
_geom_bond_distance
_geom_bond_site_symmetry_2
Lu0 Ni1 3.026141 1_545
Lu0 Ni1 3.026141 1_645
Lu0 Ni1 3.026146 1_555
Lu0 Ni1 3.026146 1_655
Lu1 Ni0 3.026141 1_565
Lu1 Ni0 3.026141 1_465
Lu1 Ni0 3.026146 1_555
Lu1 Ni0 3.026146 1_455
Ge0 Ni0 2.236348 1_555
Ge0 Ge1 2.443262 1_556
Ge0 Ge1 2.443262 1_656
Ge0 Lu1 3.022220 1_545
Ge0 Lu1 3.022220 1_645
Ge0 Lu1 3.022223 1_555
Ge0 Lu1 3.022223 1_655
Ge0 Lu0 3.174673 1_566
Ge0 Lu0 3.174676 1_556
Ge1 Ni1 2.236348 1_555
Ge1 Lu0 3.022220 1_565
Ge1 Lu0 3.022220 1_465
Ge1 Lu0 3.022223 1_455
Ge1 Lu0 3.022223 1_555
Ge1 Lu1 3.174673 1_544
Ge1 Lu1 3.174676 1_554
Ge2 Ni0 2.342241 1_565
Ge2 Ni0 2.342248 1_555
Ge2 Ni1 2.354243 1_555
Ge2 Ni1 2.354243 1_655
Ge2 Lu0 3.055513 1_565
Ge2 Lu0 3.055518 1_555
Ge2 Lu1 3.136857 1_655
Ge2 Lu1 3.136857 1_555
Ge3 Ni1 2.342241 1_545
Ge3 Ni1 2.342248 1_555
Ge3 Ni0 2.354243 1_455
Ge3 Ni0 2.354243 1_555
Ge3 Lu1 3.055513 1_545
Ge3 Lu1 3.055518 1_555
Ge3 Lu0 3.136857 1_555
Ge3 Lu0 3.136857 1_455
