# generated using pymatgen
data_KLaPrSbO6
_symmetry_space_group_name_H-M   'P 1'
_cell_length_a   8.57869496
_cell_length_b   8.55830532
_cell_length_c   8.47632554
_cell_angle_alpha   90.00000000
_cell_angle_beta   90.00000000
_cell_angle_gamma   90.00000000
_symmetry_Int_Tables_number   1
_chemical_formula_structural   KLaPrSbO6
_chemical_formula_sum   'K4 La4 Pr4 Sb4 O24'
_cell_volume   622.32411375
_cell_formula_units_Z   4
loop_
 _symmetry_equiv_pos_site_id
 _symmetry_equiv_pos_as_xyz
  1  'x, y, z'
loop_
 _atom_site_type_symbol
 _atom_site_label
 _atom_site_symmetry_multiplicity
 _atom_site_fract_x
 _atom_site_fract_y
 _atom_site_fract_z
 _atom_site_occupancy
  K  K0  1  0.00000000  0.50000000  0.50000000  1
  K  K1  1  0.50000000  -0.00000000  0.50000000  1
  K  K2  1  0.50000000  -0.00000000  -0.00000000  1
  K  K3  1  0.00000000  0.50000000  -0.00000000  1
  La  La0  1  0.50000000  0.50000000  -0.00000000  1
  La  La1  1  0.00000000  -0.00000000  0.50000000  1
  La  La2  1  0.00000000  -0.00000000  -0.00000000  1
  La  La3  1  0.50000000  0.50000000  0.50000000  1
  Pr  Pr0  1  0.75000000  0.75000000  0.75000000  1
  Pr  Pr1  1  0.25000000  0.25000000  0.75000000  1
  Pr  Pr2  1  0.25000000  0.75000000  0.25000000  1
  Pr  Pr3  1  0.75000000  0.25000000  0.25000000  1
  Sb  Sb0  1  0.25000000  0.25000000  0.25000000  1
  Sb  Sb1  1  0.75000000  0.75000000  0.25000000  1
  Sb  Sb2  1  0.75000000  0.25000000  0.75000000  1
  Sb  Sb3  1  0.25000000  0.75000000  0.75000000  1
  O  O0  1  0.01851868  0.19562811  0.28294506  1
  O  O1  1  0.98148132  0.80437189  0.28294506  1
  O  O2  1  0.98148132  0.19562811  0.71705494  1
  O  O3  1  0.01851868  0.80437189  0.71705494  1
  O  O4  1  0.26295377  0.01898855  0.21191177  1
  O  O5  1  0.26295377  0.98101145  0.78808823  1
  O  O6  1  0.73704623  0.98101145  0.21191177  1
  O  O7  1  0.73704623  0.01898855  0.78808823  1
  O  O8  1  0.21164234  0.27481609  0.01971374  1
  O  O9  1  0.78835766  0.27481609  0.98028626  1
  O  O10  1  0.21164234  0.72518391  0.98028626  1
  O  O11  1  0.78835766  0.72518391  0.01971374  1
  O  O12  1  0.48148132  0.30437189  0.21705494  1
  O  O13  1  0.51851868  0.69562811  0.21705494  1
  O  O14  1  0.51851868  0.30437189  0.78294506  1
  O  O15  1  0.48148132  0.69562811  0.78294506  1
  O  O16  1  0.23704623  0.48101145  0.28808823  1
  O  O17  1  0.23704623  0.51898855  0.71191177  1
  O  O18  1  0.76295377  0.51898855  0.28808823  1
  O  O19  1  0.76295377  0.48101145  0.71191177  1
  O  O20  1  0.28835766  0.22518391  0.48028626  1
  O  O21  1  0.71164234  0.22518391  0.51971374  1
  O  O22  1  0.28835766  0.77481609  0.51971374  1
  O  O23  1  0.71164234  0.77481609  0.48028626  1
loop_
_geom_bond_atom_site_label_1
_geom_bond_atom_site_label_2
_geom_bond_distance
_geom_bond_site_symmetry_2
K0 O18 2.718120 1_455
K0 O16 2.718120 1_555
K0 O17 2.718120 1_555
K0 O19 2.718120 1_455
K0 O2 3.193078 1_455
K0 O1 3.193078 1_455
K0 O0 3.193078 1_555
K0 O3 3.193078 1_555
K1 O23 2.653008 1_545
K1 O22 2.653008 1_545
K1 O20 2.653008 1_555
K1 O21 2.653008 1_555
K1 O4 3.181940 1_555
K1 O6 3.181940 1_545
K1 O5 3.181940 1_545
K1 O7 3.181940 1_555
K2 O5 2.718120 1_544
K2 O7 2.718120 1_554
K2 O4 2.718120 1_555
K2 O6 2.718120 1_545
K2 O15 3.193078 1_544
K2 O13 3.193078 1_545
K2 O12 3.193078 1_555
K2 O14 3.193078 1_554
K3 O9 2.653008 1_454
K3 O8 2.653008 1_555
K3 O11 2.653008 1_455
K3 O10 2.653008 1_554
K3 O19 3.181940 1_454
K3 O17 3.181940 1_554
K3 O18 3.181940 1_455
K3 O16 3.181940 1_555
La0 O12 2.492650 1_555
La0 O14 2.492650 1_554
La0 O15 2.492650 1_554
La0 O13 2.492650 1_555
La1 O1 2.492650 1_445
La1 O0 2.492650 1_555
La1 O2 2.492650 1_455
La1 O3 2.492650 1_545
La2 O5 2.888165 1_544
La2 O7 2.888165 1_454
La2 O6 2.888165 1_445
La2 O4 2.888165 1_555
La2 O2 2.929222 1_454
La2 O1 2.929222 1_445
La2 O0 2.929222 1_555
La2 O3 2.929222 1_544
La2 O11 2.975919 1_445
La2 O9 2.975919 1_454
La2 O10 2.975919 1_544
La2 O8 2.975919 1_555
La3 O18 2.888165 1_555
La3 O19 2.888165 1_555
La3 O16 2.888165 1_555
La3 O17 2.888165 1_555
La3 O14 2.929222 1_555
La3 O12 2.929222 1_555
La3 O13 2.929222 1_555
La3 O15 2.929222 1_555
La3 O20 2.975919 1_555
La3 O21 2.975919 1_555
La3 O22 2.975919 1_555
La3 O23 2.975919 1_555
O0 Sb0 2.058628 1_555
O0 Pr3 2.366603 1_455
O1 Sb1 2.058628 1_555
O1 Pr2 2.366603 1_655
O2 Sb2 2.058628 1_555
O2 Pr1 2.366603 1_655
O3 Sb3 2.058628 1_555
O3 Pr0 2.366603 1_455
O4 Sb0 2.006333 1_555
O4 Pr2 2.327269 1_545
O5 Sb3 2.006333 1_555
O5 Pr1 2.327269 1_565
O6 Sb1 2.006333 1_555
O6 Pr3 2.327269 1_565
O7 Sb2 2.006333 1_555
O7 Pr0 2.327269 1_545
O8 Sb0 1.990884 1_555
O8 Pr1 2.319485 1_554
O9 Sb2 1.990884 1_555
O9 Pr3 2.319485 1_556
O10 Sb3 1.990884 1_555
O10 Pr2 2.319485 1_556
O11 Sb1 1.990884 1_555
O11 Pr0 2.319485 1_554
O12 Sb0 2.058628 1_555
O12 Pr3 2.366603 1_555
O13 Sb1 2.058628 1_555
O13 Pr2 2.366603 1_555
O14 Sb2 2.058628 1_555
O14 Pr1 2.366603 1_555
O15 Sb3 2.058628 1_555
O15 Pr0 2.366603 1_555
O16 Sb0 2.006333 1_555
O16 Pr2 2.327269 1_555
O17 Sb3 2.006333 1_555
O17 Pr1 2.327269 1_555
O18 Sb1 2.006333 1_555
O18 Pr3 2.327269 1_555
O19 Sb2 2.006333 1_555
O19 Pr0 2.327269 1_555
O20 Sb0 1.990884 1_555
O20 Pr1 2.319485 1_555
O21 Sb2 1.990884 1_555
O21 Pr3 2.319485 1_555
O22 Sb3 1.990884 1_555
O22 Pr2 2.319485 1_555
O23 Sb1 1.990884 1_555
O23 Pr0 2.319485 1_555
