# generated using pymatgen
data_NaClO3
_symmetry_space_group_name_H-M   'P 1'
_cell_length_a   7.68238881
_cell_length_b   7.68238881
_cell_length_c   7.68238918
_cell_angle_alpha   86.76561612
_cell_angle_beta   86.76561612
_cell_angle_gamma   86.76560981
_symmetry_Int_Tables_number   1
_chemical_formula_structural   NaClO3
_chemical_formula_sum   'Na4 Cl4 O12'
_cell_volume   451.31930645
_cell_formula_units_Z   4
loop_
 _symmetry_equiv_pos_site_id
 _symmetry_equiv_pos_as_xyz
  1  'x, y, z'
loop_
 _atom_site_type_symbol
 _atom_site_label
 _atom_site_symmetry_multiplicity
 _atom_site_fract_x
 _atom_site_fract_y
 _atom_site_fract_z
 _atom_site_occupancy
  Na  Na0  1  0.04778600  0.07230500  0.39962500  1
  Na  Na1  1  0.39962500  0.04778600  0.07230500  1
  Na  Na2  1  0.36174700  0.36174700  0.36174700  1
  Na  Na3  1  0.07230500  0.39962500  0.04778600  1
  Cl  Cl0  1  0.94646000  0.59478600  0.40772100  1
  Cl  Cl1  1  0.40772100  0.94646000  0.59478600  1
  Cl  Cl2  1  0.59478600  0.40772100  0.94646000  1
  Cl  Cl3  1  0.05738000  0.05738000  0.05738000  1
  O  O0  1  0.43901800  0.90264500  0.80456200  1
  O  O1  1  0.15015300  0.62113100  0.78319100  1
  O  O2  1  0.80456200  0.43901800  0.90264500  1
  O  O3  1  0.06175600  0.76014300  0.77034800  1
  O  O4  1  0.62113100  0.78319100  0.15015300  1
  O  O5  1  0.35956300  0.06306300  0.39823500  1
  O  O6  1  0.76014300  0.77034800  0.06175600  1
  O  O7  1  0.78319100  0.15015300  0.62113100  1
  O  O8  1  0.39823500  0.35956300  0.06306300  1
  O  O9  1  0.90264500  0.80456200  0.43901800  1
  O  O10  1  0.77034800  0.06175600  0.76014300  1
  O  O11  1  0.06306300  0.39823500  0.35956300  1
loop_
_geom_bond_atom_site_label_1
_geom_bond_atom_site_label_2
_geom_bond_distance
_geom_bond_site_symmetry_2
Na0 O9 2.390862 1_445
Na0 O5 2.391675 1_555
Na0 O11 2.514009 1_555
Na0 O7 2.640593 1_455
Na1 O0 2.390862 1_544
Na1 O8 2.391675 1_555
Na1 O5 2.514009 1_555
Na1 O4 2.640593 1_545
Na2 O11 2.296804 1_555
Na2 O5 2.296804 1_555
Na2 O8 2.296804 1_555
Na3 O2 2.390862 1_454
Na3 O11 2.391675 1_555
Na3 O8 2.514009 1_555
Na3 O1 2.640593 1_554
Cl0 O9 1.655803 1_555
Cl0 O11 1.758513 1_655
Cl1 O0 1.655803 1_555
Cl1 O5 1.758513 1_565
Cl2 O2 1.655803 1_555
Cl2 O8 1.758513 1_556
Cl3 Na1 2.634916 1_555
Cl3 Na3 2.634916 1_555
Cl3 Na0 2.634916 1_555
O1 O3 1.235010 1_555
O4 O6 1.235010 1_555
O10 O7 1.235010 1_555
