# generated using pymatgen
data_KNbPO5
_symmetry_space_group_name_H-M   'P 1'
_cell_length_a   6.61910600
_cell_length_b   11.22134000
_cell_length_c   13.36635500
_cell_angle_alpha   90.00000000
_cell_angle_beta   90.00000000
_cell_angle_gamma   90.00000000
_symmetry_Int_Tables_number   1
_chemical_formula_structural   KNbPO5
_chemical_formula_sum   'K8 Nb8 P8 O40'
_cell_volume   992.78921114
_cell_formula_units_Z   8
loop_
 _symmetry_equiv_pos_site_id
 _symmetry_equiv_pos_as_xyz
  1  'x, y, z'
loop_
 _atom_site_type_symbol
 _atom_site_label
 _atom_site_symmetry_multiplicity
 _atom_site_fract_x
 _atom_site_fract_y
 _atom_site_fract_z
 _atom_site_occupancy
  K  K0  1  0.18856100  0.58943200  0.10243100  1
  K  K1  1  0.81143900  0.08943200  0.89756900  1
  K  K2  1  0.31143900  0.58943200  0.60243100  1
  K  K3  1  0.68856100  0.08943200  0.39756900  1
  K  K4  1  0.77251200  0.32586900  0.12448600  1
  K  K5  1  0.22748800  0.82586900  0.87551400  1
  K  K6  1  0.72748800  0.32586900  0.62448600  1
  K  K7  1  0.27251200  0.82586900  0.37551400  1
  Nb  Nb0  1  0.24930400  0.27329100  0.25334600  1
  Nb  Nb1  1  0.75069600  0.77329100  0.74665400  1
  Nb  Nb2  1  0.25069600  0.27329100  0.75334600  1
  Nb  Nb3  1  0.74930400  0.77329100  0.24665400  1
  Nb  Nb4  1  0.49771100  0.02577200  0.12776100  1
  Nb  Nb5  1  0.50228900  0.52577200  0.87223900  1
  Nb  Nb6  1  0.00228900  0.02577200  0.62776100  1
  Nb  Nb7  1  0.99771100  0.52577200  0.37223900  1
  P  P0  1  0.00234200  0.02485700  0.17991500  1
  P  P1  1  0.99765800  0.52485700  0.82008500  1
  P  P2  1  0.49765800  0.02485700  0.67991500  1
  P  P3  1  0.50234200  0.52485700  0.32008500  1
  P  P4  1  0.33916800  0.27725000  0.00141600  1
  P  P5  1  0.66083200  0.77725000  0.99858400  1
  P  P6  1  0.16083200  0.27725000  0.50141600  1
  P  P7  1  0.83916800  0.77725000  0.49858400  1
  O  O0  1  0.18597000  0.00623100  0.10908000  1
  O  O1  1  0.81403000  0.50623100  0.89092000  1
  O  O2  1  0.31403000  0.00623100  0.60908000  1
  O  O3  1  0.68597000  0.50623100  0.39092000  1
  O  O4  1  0.19854700  0.29366900  0.09435200  1
  O  O5  1  0.80145300  0.79366900  0.90564800  1
  O  O6  1  0.30145300  0.29366900  0.59435200  1
  O  O7  1  0.69854700  0.79366900  0.40564800  1
  O  O8  1  0.03208800  0.39309200  0.48914800  1
  O  O9  1  0.96791200  0.89309200  0.51085200  1
  O  O10  1  0.46791200  0.39309200  0.98914800  1
  O  O11  1  0.53208800  0.89309200  0.01085200  1
  O  O12  1  0.03261600  0.13207400  0.25198000  1
  O  O13  1  0.96738400  0.63207400  0.74802000  1
  O  O14  1  0.46738400  0.13207400  0.75198000  1
  O  O15  1  0.53261600  0.63207400  0.24802000  1
  O  O16  1  0.48872300  0.17116600  0.01609800  1
  O  O17  1  0.51127700  0.67116600  0.98390200  1
  O  O18  1  0.01127700  0.17116600  0.51609800  1
  O  O19  1  0.98872300  0.67116600  0.48390200  1
  O  O20  1  0.31546200  0.55136900  0.38795600  1
  O  O21  1  0.68453800  0.05136900  0.61204400  1
  O  O22  1  0.18453800  0.55136900  0.88795600  1
  O  O23  1  0.81546200  0.05136900  0.11204400  1
  O  O24  1  0.04433000  0.40056700  0.27628600  1
  O  O25  1  0.95567000  0.90056700  0.72371400  1
  O  O26  1  0.45567000  0.40056700  0.77628600  1
  O  O27  1  0.54433000  0.90056700  0.22371400  1
  O  O28  1  0.29902200  0.25511300  0.40915400  1
  O  O29  1  0.70097800  0.75511300  0.59084600  1
  O  O30  1  0.20097800  0.25511300  0.90915400  1
  O  O31  1  0.79902200  0.75511300  0.09084600  1
  O  O32  1  0.47024800  0.41288500  0.25377600  1
  O  O33  1  0.52975200  0.91288500  0.74622400  1
  O  O34  1  0.02975200  0.41288500  0.75377600  1
  O  O35  1  0.97024800  0.91288500  0.24622400  1
  O  O36  1  0.45905500  0.14996100  0.22451100  1
  O  O37  1  0.54094500  0.64996100  0.77548900  1
  O  O38  1  0.04094500  0.14996100  0.72451100  1
  O  O39  1  0.95905500  0.64996100  0.27548900  1
loop_
_geom_bond_atom_site_label_1
_geom_bond_atom_site_label_2
_geom_bond_distance
_geom_bond_site_symmetry_2
K0 O17 2.813199 1_554
K0 O39 2.849519 1_455
K0 O22 2.898515 1_554
K0 O15 3.033499 1_555
K0 O31 3.182548 1_455
K1 O16 2.813199 1_556
K1 O38 2.849519 1_655
K1 O23 2.898515 1_556
K1 O14 3.033499 1_555
K1 O30 3.182548 1_655
K2 O19 2.813199 1_455
K2 O37 2.849519 1_555
K2 O20 2.898515 1_555
K2 O13 3.033499 1_455
K2 O29 3.182548 1_555
K3 O18 2.813199 1_655
K3 O36 2.849519 1_555
K3 O21 2.898515 1_555
K3 O12 3.033499 1_655
K3 O28 3.182548 1_555
K4 O10 2.811831 1_554
K4 O32 2.818289 1_555
K4 O24 2.838412 1_655
K4 O4 2.871415 1_655
K4 O16 2.939556 1_555
K4 O23 3.097816 1_555
K4 O36 3.160487 1_555
K4 O12 3.255337 1_655
K5 O11 2.811831 1_556
K5 O33 2.818289 1_555
K5 O25 2.838412 1_455
K5 O5 2.871415 1_455
K5 O17 2.939556 1_555
K5 O22 3.097816 1_555
K5 O37 3.160487 1_555
K5 O13 3.255337 1_455
K6 O8 2.811831 1_655
K6 O34 2.818289 1_655
K6 O26 2.838412 1_555
K6 O6 2.871415 1_555
K6 O18 2.939556 1_655
K6 O21 3.097816 1_555
K6 O38 3.160487 1_655
K6 O14 3.255337 1_555
K7 O9 2.811831 1_455
K7 O35 2.818289 1_455
K7 O27 2.838412 1_555
K7 O7 2.871415 1_555
K7 O19 2.939556 1_455
K7 O20 3.097816 1_555
K7 O39 3.160487 1_455
K7 O15 3.255337 1_555
Nb0 O24 1.993627 1_555
Nb0 O36 1.997839 1_555
Nb0 O28 2.118270 1_555
Nb0 O12 2.137426 1_555
Nb0 O32 2.143013 1_555
Nb0 O4 2.163680 1_555
Nb1 O25 1.993627 1_555
Nb1 O37 1.997839 1_555
Nb1 O29 2.118270 1_555
Nb1 O13 2.137426 1_555
Nb1 O33 2.143013 1_555
Nb1 O5 2.163680 1_555
Nb2 O26 1.993627 1_555
Nb2 O38 1.997839 1_555
Nb2 O30 2.118270 1_555
Nb2 O14 2.137426 1_555
Nb2 O34 2.143013 1_555
Nb2 O6 2.163680 1_555
Nb3 O27 1.993627 1_555
Nb3 O39 1.997839 1_555
Nb3 O31 2.118270 1_555
Nb3 O15 2.137426 1_555
Nb3 O35 2.143013 1_555
Nb3 O7 2.163680 1_555
Nb4 O36 1.918294 1_555
Nb4 O27 1.927192 1_545
Nb4 O0 2.090034 1_555
Nb4 O23 2.133120 1_555
Nb4 O11 2.170325 1_545
Nb4 O16 2.212017 1_555
Nb5 O37 1.918294 1_555
Nb5 O26 1.927192 1_555
Nb5 O1 2.090034 1_555
Nb5 O22 2.133120 1_555
Nb5 O10 2.170325 1_555
Nb5 O17 2.212017 1_555
Nb6 O38 1.918294 1_555
Nb6 O25 1.927192 1_445
Nb6 O2 2.090034 1_555
Nb6 O21 2.133120 1_455
Nb6 O9 2.170325 1_445
Nb6 O18 2.212017 1_555
Nb7 O39 1.918294 1_555
Nb7 O24 1.927192 1_655
Nb7 O3 2.090034 1_555
Nb7 O20 2.133120 1_655
Nb7 O8 2.170325 1_655
Nb7 O19 2.212017 1_555
O0 P0 1.554816 1_555
O1 P1 1.554816 1_555
O2 P2 1.554816 1_555
O3 P3 1.554816 1_555
O4 P4 1.563140 1_555
O5 P5 1.563140 1_555
O6 P6 1.563140 1_555
O7 P7 1.563140 1_555
O8 P6 1.562955 1_555
O9 P7 1.562955 1_555
O10 P4 1.562955 1_556
O11 P5 1.562955 1_554
O12 P0 1.554185 1_555
O13 P1 1.554185 1_555
O14 P2 1.554185 1_555
O15 P3 1.554185 1_555
O16 P4 1.560614 1_555
O17 P5 1.560614 1_555
O18 P6 1.560614 1_555
O19 P7 1.560614 1_555
O20 P3 1.562566 1_555
O21 P2 1.562566 1_555
O22 P1 1.562566 1_455
O23 P0 1.562566 1_655
O28 P6 1.555368 1_555
O29 P7 1.555368 1_555
O30 P4 1.555368 1_556
O31 P5 1.555368 1_554
O32 P3 1.552226 1_555
O33 P2 1.552226 1_565
O34 P1 1.552226 1_455
O35 P0 1.552226 1_665
