# generated using pymatgen
data_NdTlCd
_symmetry_space_group_name_H-M   'P 1'
_cell_length_a   4.94628304
_cell_length_b   4.94569675
_cell_length_c   7.62462578
_cell_angle_alpha   90.00063989
_cell_angle_beta   90.00000000
_cell_angle_gamma   120.00391470
_symmetry_Int_Tables_number   1
_chemical_formula_structural   NdTlCd
_chemical_formula_sum   'Nd2 Tl2 Cd2'
_cell_volume   161.52452772
_cell_formula_units_Z   2
loop_
 _symmetry_equiv_pos_site_id
 _symmetry_equiv_pos_as_xyz
  1  'x, y, z'
loop_
 _atom_site_type_symbol
 _atom_site_label
 _atom_site_symmetry_multiplicity
 _atom_site_fract_x
 _atom_site_fract_y
 _atom_site_fract_z
 _atom_site_occupancy
  Nd  Nd0  1  0.00000000  0.00000000  0.50000000  1
  Nd  Nd1  1  0.00000000  0.00000000  0.00000000  1
  Tl  Tl0  1  0.33321503  0.66643007  0.74998871  1
  Tl  Tl1  1  0.66678497  0.33356993  0.25001129  1
  Cd  Cd0  1  0.33335708  0.66671316  0.25001968  1
  Cd  Cd1  1  0.66664292  0.33328684  0.74998032  1
loop_
_geom_bond_atom_site_label_1
_geom_bond_atom_site_label_2
_geom_bond_distance
_geom_bond_site_symmetry_2
Nd0 Tl1 3.432177 1_445
Nd0 Tl0 3.432177 1_555
Nd0 Tl1 3.433753 1_455
Nd0 Tl0 3.433753 1_545
Nd0 Tl0 3.433754 1_445
Nd0 Tl1 3.433754 1_555
Nd0 Nd1 3.812313 1_555
Nd0 Nd1 3.812313 1_556
Nd1 Tl1 3.432314 1_445
Nd1 Tl0 3.432314 1_554
Nd1 Tl1 3.433829 1_455
Nd1 Tl0 3.433829 1_544
Nd1 Tl0 3.433829 1_444
Nd1 Tl1 3.433829 1_555
Cd0 Tl1 2.855216 1_555
Cd0 Tl1 2.855220 1_455
Cd0 Tl1 2.856101 1_565
Cd0 Nd0 3.433191 1_555
Cd0 Nd0 3.433192 1_665
Cd0 Nd0 3.433195 1_565
Cd0 Nd1 3.433317 1_555
Cd0 Nd1 3.433379 1_665
Cd0 Nd1 3.433382 1_565
Cd1 Tl0 2.855216 1_555
Cd1 Tl0 2.855220 1_655
Cd1 Tl0 2.856101 1_545
Cd1 Nd0 3.433191 1_665
Cd1 Nd0 3.433192 1_555
Cd1 Nd0 3.433195 1_655
Cd1 Nd1 3.433317 1_666
Cd1 Nd1 3.433379 1_556
Cd1 Nd1 3.433382 1_656
