# generated using pymatgen
data_Ti
_symmetry_space_group_name_H-M   'P 1'
_cell_length_a   11.84243552
_cell_length_b   12.36697055
_cell_length_c   11.97945926
_cell_angle_alpha   90.74867631
_cell_angle_beta   89.12357072
_cell_angle_gamma   89.41088682
_symmetry_Int_Tables_number   1
_chemical_formula_structural   Ti
_chemical_formula_sum   Ti100
_cell_volume   1754.00090911
_cell_formula_units_Z   100
loop_
 _symmetry_equiv_pos_site_id
 _symmetry_equiv_pos_as_xyz
  1  'x, y, z'
loop_
 _atom_site_type_symbol
 _atom_site_label
 _atom_site_symmetry_multiplicity
 _atom_site_fract_x
 _atom_site_fract_y
 _atom_site_fract_z
 _atom_site_occupancy
  Ti  Ti0  1  0.96869238  0.91855746  0.83426389  1
  Ti  Ti1  1  0.63753599  0.86279900  0.23609652  1
  Ti  Ti2  1  0.41707432  0.56198895  0.42932303  1
  Ti  Ti3  1  0.12508420  0.29118050  0.38842529  1
  Ti  Ti4  1  0.54510140  0.36872097  0.51505597  1
  Ti  Ti5  1  0.47596655  0.71448818  0.25404050  1
  Ti  Ti6  1  0.13026606  0.75343472  0.84902818  1
  Ti  Ti7  1  0.14465865  0.55575552  0.73509720  1
  Ti  Ti8  1  0.26562543  0.37340306  0.84822865  1
  Ti  Ti9  1  0.00863813  0.91921753  0.22823144  1
  Ti  Ti10  1  0.12685374  0.83641098  0.06690973  1
  Ti  Ti11  1  0.84056066  0.53308280  0.30831802  1
  Ti  Ti12  1  0.91024793  0.85202492  0.52155187  1
  Ti  Ti13  1  0.63788646  0.56636343  0.40577978  1
  Ti  Ti14  1  0.11363658  0.95742225  0.42636458  1
  Ti  Ti15  1  0.72910600  0.18737047  0.44941980  1
  Ti  Ti16  1  0.06221744  0.12989918  0.25360971  1
  Ti  Ti17  1  0.41978496  0.36833057  0.02051510  1
  Ti  Ti18  1  0.56936119  0.44764061  0.83985891  1
  Ti  Ti19  1  0.93514637  0.09600543  0.44708722  1
  Ti  Ti20  1  0.71096025  0.35523465  0.26531416  1
  Ti  Ti21  1  0.73068214  0.62761865  0.89805704  1
  Ti  Ti22  1  0.63041096  0.04059608  0.75786552  1
  Ti  Ti23  1  0.15807032  0.20355655  0.99014203  1
  Ti  Ti24  1  0.99573002  0.04574161  0.03520950  1
  Ti  Ti25  1  0.71577395  0.75613297  0.64609732  1
  Ti  Ti26  1  0.61661921  0.08799368  0.27110233  1
  Ti  Ti27  1  0.48269171  0.95200289  0.38068625  1
  Ti  Ti28  1  0.47036716  0.28702089  0.72607205  1
  Ti  Ti29  1  0.33028648  0.67479341  0.64245687  1
  Ti  Ti30  1  0.18256468  0.57852790  0.96796175  1
  Ti  Ti31  1  0.88309917  0.63827917  0.51194296  1
  Ti  Ti32  1  0.66764490  0.45127424  0.04321300  1
  Ti  Ti33  1  0.60808576  0.25009179  0.11221242  1
  Ti  Ti34  1  0.36370735  0.46468605  0.63316187  1
  Ti  Ti35  1  0.06297909  0.39517373  0.99181809  1
  Ti  Ti36  1  0.48628617  0.47245516  0.22139799  1
  Ti  Ti37  1  0.50564400  0.74811831  0.48839640  1
  Ti  Ti38  1  0.51133977  0.88604039  0.65246556  1
  Ti  Ti39  1  0.31287301  0.98732947  0.53858484  1
  Ti  Ti40  1  0.67424145  0.62529770  0.18014894  1
  Ti  Ti41  1  0.13026732  0.14466944  0.55164382  1
  Ti  Ti42  1  0.82702346  0.13463434  0.21224833  1
  Ti  Ti43  1  0.72137940  0.76588262  0.41655312  1
  Ti  Ti44  1  0.46297401  0.93741176  0.90199217  1
  Ti  Ti45  1  0.61185302  0.78857271  0.02797242  1
  Ti  Ti46  1  0.85716164  0.02427288  0.65879438  1
  Ti  Ti47  1  0.43166846  0.90276332  0.12745172  1
  Ti  Ti48  1  0.38027515  0.16369312  0.92609650  1
  Ti  Ti49  1  0.56974604  0.56737536  0.63045720  1
  Ti  Ti50  1  0.91907432  0.71015581  0.74439168  1
  Ti  Ti51  1  0.79922968  0.10004563  0.89001399  1
  Ti  Ti52  1  0.30661449  0.39670778  0.37866044  1
  Ti  Ti53  1  0.21055525  0.98681300  0.90065198  1
  Ti  Ti54  1  0.62977877  0.02721646  0.03346599  1
  Ti  Ti55  1  0.86562464  0.73875095  0.23258040  1
  Ti  Ti56  1  0.03151692  0.34214055  0.19102346  1
  Ti  Ti57  1  0.90596618  0.30494464  0.36842837  1
  Ti  Ti58  1  0.60793378  0.22366493  0.89429010  1
  Ti  Ti59  1  0.26752087  0.87901517  0.27645952  1
  Ti  Ti60  1  0.10682258  0.96300552  0.66356857  1
  Ti  Ti61  1  0.53171988  0.72343408  0.80980774  1
  Ti  Ti62  1  0.98395049  0.47547363  0.57513268  1
  Ti  Ti63  1  0.73264101  0.86383777  0.85816828  1
  Ti  Ti64  1  0.27753294  0.77647517  0.45671189  1
  Ti  Ti65  1  0.85658131  0.26638963  0.05500057  1
  Ti  Ti66  1  0.16972052  0.36264557  0.60394390  1
  Ti  Ti67  1  0.32743361  0.75882723  0.98761101  1
  Ti  Ti68  1  0.30836339  0.10857617  0.34045915  1
  Ti  Ti69  1  0.27500297  0.26367786  0.18665679  1
  Ti  Ti70  1  0.95058321  0.54786231  0.88125327  1
  Ti  Ti71  1  0.36718560  0.57363476  0.84118855  1
  Ti  Ti72  1  0.76780190  0.41390209  0.50357061  1
  Ti  Ti73  1  0.40467641  0.06995892  0.72198466  1
  Ti  Ti74  1  0.47050548  0.59107086  0.03963229  1
  Ti  Ti75  1  0.68276870  0.96754985  0.51910242  1
  Ti  Ti76  1  0.18858070  0.57377571  0.49805090  1
  Ti  Ti77  1  0.81203580  0.35749629  0.87493934  1
  Ti  Ti78  1  0.05935897  0.63564250  0.14614138  1
  Ti  Ti79  1  0.31218339  0.85647106  0.75131267  1
  Ti  Ti80  1  0.09674726  0.74335787  0.60589887  1
  Ti  Ti81  1  0.21962370  0.02998630  0.11900964  1
  Ti  Ti82  1  0.81236843  0.91141222  0.08527527  1
  Ti  Ti83  1  0.81391239  0.95365982  0.33600345  1
  Ti  Ti84  1  0.06278444  0.51144504  0.33633661  1
  Ti  Ti85  1  0.20735518  0.17516005  0.75778630  1
  Ti  Ti86  1  0.34405996  0.23090578  0.54434817  1
  Ti  Ti87  1  0.26615453  0.65347148  0.24742349  1
  Ti  Ti88  1  0.06098399  0.74078598  0.36429763  1
  Ti  Ti89  1  0.02906341  0.35772692  0.77486114  1
  Ti  Ti90  1  0.43398079  0.11679173  0.13978833  1
  Ti  Ti91  1  0.53102514  0.13639269  0.53369277  1
  Ti  Ti92  1  0.79074657  0.49874038  0.70904438  1
  Ti  Ti93  1  0.92328893  0.74783661  0.98254929  1
  Ti  Ti94  1  0.23949287  0.46482451  0.15196029  1
  Ti  Ti95  1  0.88709036  0.50099672  0.09199389  1
  Ti  Ti96  1  0.93111267  0.26465167  0.59692604  1
  Ti  Ti97  1  0.72429811  0.23595830  0.69144251  1
  Ti  Ti98  1  0.48655407  0.26224609  0.32118436  1
  Ti  Ti99  1  0.98509990  0.14242155  0.79904801  1
loop_
_geom_bond_atom_site_label_1
_geom_bond_atom_site_label_2
_geom_bond_distance
_geom_bond_site_symmetry_2
Ti0 Ti60 2.665500 1_655
Ti0 Ti6 2.793200 1_655
Ti0 Ti99 2.814162 1_565
Ti0 Ti46 2.827280 1_565
Ti0 Ti93 2.827429 1_555
Ti0 Ti50 2.850408 1_555
Ti0 Ti24 2.882044 1_566
Ti0 Ti63 2.893754 1_555
Ti0 Ti51 3.055860 1_565
Ti0 Ti53 3.106571 1_655
Ti1 Ti45 2.668407 1_555
Ti1 Ti5 2.672308 1_555
Ti1 Ti83 2.673465 1_555
Ti1 Ti43 2.684136 1_555
Ti1 Ti27 2.718654 1_555
Ti1 Ti82 2.802157 1_555
Ti1 Ti26 2.818762 1_565
Ti1 Ti47 2.823296 1_555
Ti1 Ti40 3.029606 1_555
Ti1 Ti55 3.092075 1_555
Ti1 Ti54 3.188603 1_565
Ti2 Ti52 2.510856 1_555
Ti2 Ti37 2.632351 1_555
Ti2 Ti34 2.802756 1_555
Ti2 Ti76 2.818105 1_555
Ti2 Ti36 2.819374 1_555
Ti2 Ti5 2.921999 1_555
Ti2 Ti4 3.017209 1_555
Ti2 Ti49 3.034874 1_555
Ti2 Ti29 3.052642 1_555
Ti2 Ti87 3.060155 1_555
Ti2 Ti64 3.121693 1_555
Ti3 Ti52 2.528301 1_555
Ti3 Ti57 2.613584 1_455
Ti3 Ti41 2.683987 1_555
Ti3 Ti56 2.705893 1_555
Ti3 Ti66 2.778117 1_555
Ti3 Ti84 2.893280 1_555
Ti3 Ti69 2.990790 1_555
Ti3 Ti68 3.157217 1_555
Ti3 Ti86 3.303653 1_555
Ti4 Ti72 2.703291 1_555
Ti4 Ti98 2.756198 1_555
Ti4 Ti49 2.823171 1_555
Ti4 Ti91 2.891084 1_555
Ti4 Ti86 2.961382 1_555
Ti4 Ti52 3.301802 1_555
Ti4 Ti97 3.438050 1_555
Ti5 Ti87 2.606218 1_555
Ti5 Ti74 2.972473 1_555
Ti5 Ti59 3.188699 1_555
Ti6 Ti79 2.766486 1_555
Ti6 Ti7 2.786657 1_555
Ti6 Ti67 2.886415 1_555
Ti6 Ti93 2.908200 1_455
Ti6 Ti80 2.946691 1_555
Ti7 Ti89 2.859724 1_555
Ti7 Ti80 2.862474 1_555
Ti7 Ti70 2.871124 1_455
Ti7 Ti76 2.890981 1_555
Ti7 Ti71 2.952256 1_555
Ti7 Ti8 3.007891 1_555
Ti8 Ti85 2.765675 1_555
Ti8 Ti89 2.956405 1_555
Ti10 Ti9 2.565029 1_555
Ti10 Ti67 2.706585 1_554
Ti10 Ti81 2.713572 1_565
Ti10 Ti78 2.789936 1_555
Ti10 Ti6 2.791633 1_554
Ti10 Ti93 2.851768 1_454
Ti10 Ti53 2.912612 1_554
Ti10 Ti24 3.036174 1_465
Ti10 Ti59 3.076625 1_555
Ti11 Ti95 2.664887 1_555
Ti11 Ti84 2.669241 1_655
Ti11 Ti13 2.678562 1_555
Ti11 Ti55 2.729145 1_555
Ti11 Ti20 2.742717 1_555
Ti11 Ti40 2.762155 1_555
Ti11 Ti31 2.804403 1_555
Ti11 Ti72 2.905235 1_555
Ti11 Ti57 3.017261 1_555
Ti12 Ti31 2.667353 1_555
Ti12 Ti46 2.735922 1_565
Ti12 Ti80 2.783461 1_655
Ti12 Ti43 2.796381 1_555
Ti12 Ti83 2.818364 1_555
Ti12 Ti88 2.899435 1_655
Ti12 Ti14 2.969857 1_655
Ti12 Ti25 2.988924 1_555
Ti12 Ti75 3.037028 1_555
Ti12 Ti19 3.172912 1_565
Ti12 Ti60 3.212969 1_655
Ti12 Ti50 3.215985 1_555
Ti13 Ti2 2.627013 1_555
Ti13 Ti43 2.669897 1_555
Ti13 Ti72 2.710657 1_555
Ti13 Ti49 2.797863 1_555
Ti13 Ti40 2.836328 1_555
Ti13 Ti37 2.882112 1_555
Ti13 Ti4 2.998361 1_555
Ti13 Ti36 3.089958 1_555
Ti13 Ti20 3.192487 1_555
Ti13 Ti5 3.233921 1_555
Ti13 Ti31 3.313257 1_555
Ti14 Ti59 2.702614 1_555
Ti14 Ti19 2.713896 1_465
Ti14 Ti9 2.734240 1_555
Ti14 Ti41 2.753379 1_565
Ti14 Ti39 2.759168 1_555
Ti14 Ti60 2.841404 1_555
Ti14 Ti88 2.848836 1_555
Ti14 Ti64 2.976662 1_555
Ti14 Ti16 3.054608 1_565
Ti14 Ti68 3.152384 1_565
Ti15 Ti91 2.625609 1_555
Ti15 Ti19 2.677978 1_555
Ti15 Ti57 2.734894 1_555
Ti15 Ti26 2.810727 1_555
Ti15 Ti75 2.909336 1_545
Ti15 Ti72 2.909856 1_555
Ti15 Ti97 2.952790 1_555
Ti15 Ti20 3.056956 1_555
Ti15 Ti42 3.110876 1_555
Ti15 Ti96 3.144987 1_555
Ti15 Ti4 3.193355 1_555
Ti15 Ti98 3.403750 1_555
Ti16 Ti3 2.669076 1_555
Ti16 Ti9 2.702374 1_545
Ti16 Ti81 2.722149 1_555
Ti16 Ti56 2.761147 1_555
Ti16 Ti19 2.782780 1_455
Ti16 Ti42 2.836598 1_455
Ti16 Ti24 2.925233 1_455
Ti16 Ti68 3.119802 1_555
Ti16 Ti57 3.124757 1_455
Ti16 Ti69 3.128727 1_555
Ti17 Ti8 2.777195 1_554
Ti17 Ti48 2.805117 1_554
Ti17 Ti74 2.832477 1_555
Ti17 Ti36 2.840306 1_555
Ti17 Ti94 2.873646 1_555
Ti17 Ti33 2.892638 1_555
Ti17 Ti69 2.929949 1_555
Ti17 Ti18 2.959259 1_554
Ti17 Ti32 3.133839 1_555
Ti18 Ti28 2.684051 1_555
Ti18 Ti32 2.715903 1_556
Ti18 Ti71 2.842894 1_555
Ti18 Ti58 2.887296 1_555
Ti18 Ti49 2.929537 1_555
Ti18 Ti21 3.029449 1_555
Ti18 Ti77 3.108341 1_555
Ti18 Ti92 3.108523 1_555
Ti18 Ti74 3.163041 1_556
Ti18 Ti61 3.459352 1_555
Ti18 Ti97 3.613964 1_555
Ti19 Ti83 2.642012 1_545
Ti19 Ti41 2.714376 1_655
Ti19 Ti96 2.733435 1_555
Ti19 Ti57 2.781965 1_555
Ti19 Ti46 2.841806 1_555
Ti20 Ti33 2.564651 1_555
Ti20 Ti57 2.706203 1_555
Ti20 Ti98 2.976804 1_555
Ti20 Ti32 2.977361 1_555
Ti20 Ti72 3.023341 1_555
Ti20 Ti36 3.072620 1_555
Ti20 Ti42 3.096283 1_555
Ti20 Ti65 3.206951 1_555
Ti20 Ti4 3.554848 1_555
Ti21 Ti70 2.778673 1_555
Ti21 Ti92 2.829538 1_555
Ti21 Ti61 2.850424 1_555
Ti21 Ti45 2.856395 1_556
Ti21 Ti32 2.903443 1_556
Ti21 Ti93 2.922081 1_555
Ti21 Ti63 2.966562 1_555
Ti21 Ti50 3.062401 1_555
Ti21 Ti74 3.530274 1_556
Ti22 Ti51 2.672109 1_555
Ti22 Ti38 2.698671 1_545
Ti22 Ti73 2.735350 1_555
Ti22 Ti58 2.783002 1_555
Ti22 Ti63 2.783275 1_545
Ti22 Ti97 2.790167 1_555
Ti22 Ti46 2.923203 1_555
Ti22 Ti44 2.923354 1_545
Ti22 Ti75 3.041096 1_545
Ti22 Ti91 3.186174 1_555
Ti22 Ti54 3.307745 1_556
Ti23 Ti35 2.612913 1_555
Ti23 Ti81 2.758811 1_556
Ti23 Ti48 2.767285 1_555
Ti23 Ti24 2.805271 1_456
Ti23 Ti69 2.843859 1_556
Ti23 Ti85 2.851731 1_555
Ti23 Ti53 2.930995 1_545
Ti23 Ti8 3.001107 1_555
Ti23 Ti99 3.184029 1_455
Ti23 Ti56 3.271622 1_556
Ti24 Ti82 2.809807 1_545
Ti24 Ti9 2.814051 1_645
Ti24 Ti81 2.855140 1_655
Ti24 Ti51 3.002289 1_554
Ti24 Ti53 3.067139 1_644
Ti24 Ti42 3.076089 1_555
Ti24 Ti99 3.089551 1_554
Ti24 Ti65 3.177482 1_555
Ti25 Ti50 2.753600 1_555
Ti25 Ti43 2.753847 1_555
Ti25 Ti63 2.863696 1_555
Ti25 Ti38 2.891238 1_555
Ti25 Ti31 2.900952 1_555
Ti25 Ti49 2.925133 1_555
Ti25 Ti61 2.944254 1_555
Ti25 Ti75 3.066660 1_555
Ti25 Ti37 3.148837 1_555
Ti25 Ti92 3.393311 1_555
Ti26 Ti42 2.650431 1_555
Ti26 Ti27 2.667601 1_545
Ti26 Ti98 2.691846 1_555
Ti26 Ti90 2.717047 1_555
Ti26 Ti33 2.784476 1_555
Ti26 Ti54 2.936214 1_555
Ti26 Ti83 2.972007 1_545
Ti26 Ti91 3.334948 1_555
Ti27 Ti39 2.767155 1_555
Ti27 Ti37 2.859732 1_555
Ti27 Ti68 2.866407 1_565
Ti27 Ti75 2.919197 1_555
Ti27 Ti91 2.972701 1_565
Ti27 Ti59 2.996987 1_555
Ti27 Ti47 3.155011 1_555
Ti28 Ti58 2.728419 1_555
Ti28 Ti86 2.745830 1_555
Ti28 Ti34 2.776994 1_555
Ti28 Ti73 2.802545 1_555
Ti28 Ti4 2.865471 1_555
Ti28 Ti8 2.993143 1_555
Ti28 Ti91 3.017767 1_555
Ti28 Ti48 3.042526 1_555
Ti28 Ti97 3.087042 1_555
Ti29 Ti79 2.588351 1_555
Ti29 Ti34 2.625000 1_555
Ti29 Ti64 2.649954 1_555
Ti29 Ti76 2.728531 1_555
Ti29 Ti71 2.742654 1_555
Ti29 Ti7 2.875043 1_555
Ti29 Ti37 2.916526 1_555
Ti29 Ti80 2.925452 1_555
Ti29 Ti49 3.119640 1_555
Ti29 Ti61 3.196198 1_555
Ti30 Ti71 2.642633 1_555
Ti30 Ti78 2.651029 1_556
Ti30 Ti6 2.678128 1_555
Ti30 Ti35 2.701770 1_555
Ti30 Ti94 2.719795 1_556
Ti30 Ti67 2.836866 1_555
Ti30 Ti7 2.843066 1_555
Ti30 Ti70 2.977993 1_455
Ti30 Ti8 3.044755 1_555
Ti30 Ti74 3.533515 1_556
Ti31 Ti62 2.463999 1_555
Ti31 Ti43 2.741506 1_555
Ti31 Ti50 2.950439 1_555
Ti31 Ti88 3.028638 1_655
Ti31 Ti80 3.077911 1_655
Ti31 Ti72 3.106297 1_555
Ti31 Ti92 3.132968 1_555
Ti31 Ti84 3.334963 1_655
Ti32 Ti40 2.691452 1_555
Ti32 Ti33 2.728175 1_555
Ti32 Ti95 2.746477 1_555
Ti32 Ti77 2.850465 1_554
Ti32 Ti74 2.891921 1_555
Ti32 Ti36 3.011855 1_555
Ti32 Ti65 3.188575 1_555
Ti32 Ti58 3.399168 1_554
Ti33 Ti58 2.626759 1_554
Ti33 Ti90 2.672295 1_555
Ti33 Ti98 2.869903 1_555
Ti33 Ti54 2.909143 1_555
Ti33 Ti65 3.020676 1_555
Ti34 Ti66 2.658031 1_555
Ti34 Ti49 2.762212 1_555
Ti34 Ti4 2.799201 1_555
Ti34 Ti71 2.818497 1_555
Ti34 Ti76 2.973753 1_555
Ti34 Ti8 3.045115 1_555
Ti34 Ti7 3.048915 1_555
Ti34 Ti86 3.079918 1_555
Ti34 Ti52 3.235239 1_555
Ti35 Ti56 2.506487 1_556
Ti35 Ti89 2.671148 1_555
Ti35 Ti70 2.675678 1_455
Ti35 Ti95 2.705173 1_456
Ti35 Ti8 2.939185 1_555
Ti35 Ti94 2.984691 1_556
Ti35 Ti65 3.023046 1_456
Ti36 Ti74 2.649219 1_555
Ti36 Ti98 2.875464 1_555
Ti36 Ti40 2.974678 1_555
Ti36 Ti52 2.986383 1_555
Ti36 Ti5 3.014567 1_555
Ti36 Ti94 3.052969 1_555
Ti37 Ti38 2.587611 1_555
Ti37 Ti43 2.695433 1_555
Ti37 Ti64 2.753167 1_555
Ti37 Ti5 2.860242 1_555
Ti37 Ti49 2.927931 1_555
Ti38 Ti79 2.653681 1_555
Ti38 Ti73 2.705877 1_565
Ti38 Ti75 2.770360 1_555
Ti38 Ti61 2.785301 1_555
Ti38 Ti39 3.006074 1_555
Ti38 Ti44 3.091516 1_555
Ti38 Ti91 3.432849 1_565
Ti39 Ti73 2.662775 1_565
Ti39 Ti64 2.811583 1_555
Ti39 Ti68 2.824829 1_565
Ti39 Ti60 2.863841 1_555
Ti39 Ti41 2.895210 1_565
Ti39 Ti79 3.036545 1_555
Ti39 Ti86 3.038643 1_565
Ti39 Ti91 3.189378 1_565
Ti40 Ti5 2.714997 1_555
Ti40 Ti55 2.754233 1_555
Ti40 Ti45 2.837804 1_555
Ti40 Ti74 2.993427 1_555
Ti40 Ti95 3.102973 1_555
Ti41 Ti60 2.646194 1_545
Ti41 Ti85 2.669383 1_555
Ti41 Ti86 2.757962 1_555
Ti41 Ti66 2.805062 1_555
Ti41 Ti96 2.815359 1_455
Ti41 Ti68 3.291761 1_555
Ti42 Ti65 2.529382 1_555
Ti42 Ti83 2.705163 1_545
Ti42 Ti57 2.966756 1_555
Ti42 Ti82 3.142097 1_545
Ti42 Ti54 3.456937 1_555
Ti43 Ti83 2.757398 1_555
Ti43 Ti55 2.782346 1_555
Ti43 Ti75 2.796005 1_555
Ti44 Ti79 2.745395 1_555
Ti44 Ti47 2.760200 1_556
Ti44 Ti54 2.776819 1_566
Ti44 Ti73 2.815725 1_565
Ti44 Ti67 2.930504 1_555
Ti44 Ti61 2.955809 1_555
Ti44 Ti48 2.964375 1_565
Ti44 Ti45 2.976825 1_556
Ti44 Ti53 3.045211 1_555
Ti44 Ti63 3.343428 1_555
Ti45 Ti63 2.652954 1_554
Ti45 Ti47 2.789968 1_555
Ti45 Ti61 2.901106 1_554
Ti45 Ti82 2.917966 1_555
Ti45 Ti54 2.961048 1_565
Ti45 Ti74 2.978773 1_555
Ti46 Ti99 2.704192 1_555
Ti46 Ti75 2.768125 1_545
Ti46 Ti51 2.980247 1_555
Ti46 Ti60 3.046154 1_645
Ti46 Ti97 3.058070 1_555
Ti46 Ti63 3.448454 1_545
Ti47 Ti59 2.640201 1_555
Ti47 Ti90 2.649523 1_565
Ti47 Ti67 2.743936 1_554
Ti47 Ti5 2.843902 1_555
Ti47 Ti81 2.953326 1_565
Ti47 Ti54 3.029762 1_565
Ti48 Ti73 2.702489 1_555
Ti48 Ti90 2.715716 1_556
Ti48 Ti58 2.825053 1_555
Ti48 Ti85 2.899432 1_555
Ti48 Ti53 3.001558 1_545
Ti48 Ti8 3.077216 1_555
Ti48 Ti81 3.424105 1_556
Ti49 Ti61 2.896188 1_555
Ti49 Ti92 2.916676 1_555
Ti49 Ti72 3.337379 1_555
Ti50 Ti70 2.635330 1_555
Ti50 Ti80 2.697599 1_655
Ti50 Ti6 2.866832 1_655
Ti50 Ti93 2.886060 1_555
Ti50 Ti92 3.065495 1_555
Ti50 Ti63 3.177794 1_555
Ti50 Ti7 3.267360 1_655
Ti51 Ti99 2.504494 1_555
Ti51 Ti58 2.719394 1_555
Ti51 Ti54 2.786286 1_556
Ti51 Ti65 2.926285 1_556
Ti51 Ti63 3.054194 1_545
Ti51 Ti97 3.067506 1_555
Ti51 Ti77 3.196381 1_555
Ti51 Ti82 3.329272 1_546
Ti52 Ti98 2.762683 1_555
Ti52 Ti69 2.842064 1_555
Ti52 Ti86 2.907796 1_555
Ti52 Ti76 2.930645 1_555
Ti52 Ti94 2.971330 1_555
Ti52 Ti66 3.162102 1_555
Ti52 Ti84 3.253878 1_555
Ti53 Ti79 2.658236 1_555
Ti53 Ti81 2.666894 1_566
Ti53 Ti85 2.908679 1_565
Ti53 Ti6 3.105532 1_555
Ti53 Ti60 3.123209 1_555
Ti53 Ti73 3.298297 1_565
Ti53 Ti67 3.315289 1_555
Ti53 Ti99 3.516870 1_465
Ti54 Ti82 2.666912 1_545
Ti54 Ti90 2.836526 1_555
Ti54 Ti58 2.975754 1_554
Ti54 Ti63 3.120323 1_544
Ti55 Ti78 2.791887 1_655
Ti55 Ti9 2.816061 1_655
Ti55 Ti88 2.820402 1_655
Ti55 Ti82 2.859374 1_555
Ti55 Ti83 2.971709 1_555
Ti55 Ti93 3.065649 1_554
Ti56 Ti57 2.623307 1_455
Ti56 Ti84 2.737105 1_555
Ti56 Ti65 2.815652 1_455
Ti56 Ti95 2.871604 1_455
Ti56 Ti94 2.940610 1_555
Ti56 Ti69 3.032362 1_555
Ti57 Ti72 2.632565 1_555
Ti57 Ti96 2.808418 1_555
Ti57 Ti84 3.196844 1_655
Ti57 Ti62 3.377218 1_555
Ti58 Ti97 2.781824 1_555
Ti58 Ti77 2.951340 1_555
Ti59 Ti64 2.522131 1_555
Ti59 Ti81 2.732806 1_565
Ti59 Ti87 2.806626 1_555
Ti59 Ti68 2.977283 1_565
Ti59 Ti9 3.163933 1_555
Ti59 Ti88 3.172731 1_555
Ti60 Ti80 2.798277 1_555
Ti60 Ti79 2.967101 1_555
Ti60 Ti99 3.066546 1_465
Ti60 Ti85 3.098891 1_565
Ti61 Ti71 2.727624 1_555
Ti61 Ti63 3.018769 1_555
Ti61 Ti79 3.155160 1_555
Ti61 Ti67 3.221399 1_555
Ti61 Ti74 3.296385 1_556
Ti62 Ti66 2.622719 1_655
Ti62 Ti96 2.702531 1_555
Ti62 Ti92 2.784475 1_555
Ti62 Ti72 2.820830 1_555
Ti62 Ti76 2.867844 1_655
Ti62 Ti89 2.871364 1_655
Ti62 Ti7 2.894941 1_655
Ti62 Ti84 3.035273 1_655
Ti63 Ti82 2.947465 1_556
Ti63 Ti93 3.076966 1_555
Ti64 Ti76 2.776624 1_555
Ti64 Ti80 2.804549 1_555
Ti64 Ti88 2.845042 1_555
Ti64 Ti87 2.921112 1_555
Ti65 Ti77 2.507324 1_554
Ti65 Ti95 2.955974 1_555
Ti66 Ti89 2.621369 1_555
Ti66 Ti86 2.698515 1_555
Ti66 Ti7 2.851862 1_555
Ti66 Ti76 2.926858 1_555
Ti66 Ti85 3.014412 1_555
Ti66 Ti96 3.087933 1_455
Ti66 Ti8 3.156904 1_555
Ti67 Ti74 2.749001 1_556
Ti67 Ti71 2.896769 1_555
Ti67 Ti79 3.099082 1_555
Ti68 Ti69 2.707225 1_555
Ti68 Ti90 2.811100 1_555
Ti68 Ti98 2.863036 1_555
Ti68 Ti86 2.895046 1_555
Ti68 Ti81 3.020845 1_555
Ti68 Ti91 3.551674 1_555
Ti69 Ti94 2.559001 1_555
Ti69 Ti90 2.651457 1_555
Ti69 Ti98 2.999540 1_555
Ti69 Ti81 3.071364 1_555
Ti70 Ti95 2.695146 1_556
Ti70 Ti93 2.754312 1_555
Ti70 Ti89 2.803170 1_655
Ti70 Ti92 2.884119 1_555
Ti70 Ti77 2.884236 1_555
Ti71 Ti74 2.697391 1_556
Ti71 Ti8 2.765702 1_555
Ti72 Ti92 2.681842 1_555
Ti72 Ti96 2.905966 1_555
Ti72 Ti97 3.207907 1_555
Ti73 Ti85 2.688736 1_555
Ti73 Ti91 2.823507 1_555
Ti73 Ti79 2.892368 1_545
Ti73 Ti86 3.022163 1_555
Ti74 Ti94 3.429691 1_555
Ti74 Ti87 3.517862 1_555
Ti75 Ti83 2.670783 1_555
Ti75 Ti91 2.742910 1_565
Ti76 Ti84 2.576687 1_555
Ti76 Ti80 2.662614 1_555
Ti76 Ti88 3.035280 1_555
Ti76 Ti87 3.292598 1_555
Ti77 Ti92 2.676045 1_555
Ti77 Ti89 2.819380 1_655
Ti77 Ti97 2.861198 1_555
Ti78 Ti95 2.727188 1_455
Ti78 Ti87 2.759195 1_555
Ti78 Ti84 2.764968 1_555
Ti78 Ti88 2.904177 1_555
Ti78 Ti93 2.912741 1_454
Ti78 Ti94 2.988962 1_555
Ti80 Ti88 2.931288 1_555
Ti81 Ti90 2.779717 1_555
Ti81 Ti9 3.138255 1_545
Ti82 Ti93 2.676370 1_554
Ti82 Ti9 2.909740 1_655
Ti82 Ti83 3.042322 1_555
Ti83 Ti9 2.653367 1_655
Ti84 Ti88 2.851437 1_555
Ti84 Ti94 3.064413 1_555
Ti84 Ti87 3.174485 1_555
Ti85 Ti99 2.706150 1_455
Ti85 Ti89 3.078024 1_555
Ti85 Ti86 3.094537 1_555
Ti86 Ti91 2.493804 1_555
Ti86 Ti98 3.169746 1_555
Ti87 Ti94 2.608990 1_555
Ti87 Ti88 2.971911 1_555
Ti88 Ti9 2.829716 1_555
Ti89 Ti96 2.693145 1_455
Ti89 Ti99 2.736587 1_455
Ti89 Ti92 3.410392 1_455
Ti90 Ti98 2.882312 1_555
Ti91 Ti98 3.050949 1_555
Ti91 Ti97 3.233499 1_555
Ti92 Ti97 3.356303 1_555
Ti92 Ti96 3.560772 1_555
Ti93 Ti95 3.366863 1_556
Ti96 Ti97 2.711085 1_555
Ti96 Ti99 2.946120 1_555
Ti97 Ti99 3.553319 1_555
