# generated using pymatgen
data_NaCuMoO5
_symmetry_space_group_name_H-M   'P 1'
_cell_length_a   5.79363800
_cell_length_b   7.87350400
_cell_length_c   9.75805900
_cell_angle_alpha   90.00000000
_cell_angle_beta   90.00000000
_cell_angle_gamma   90.00000000
_symmetry_Int_Tables_number   1
_chemical_formula_structural   NaCuMoO5
_chemical_formula_sum   'Na4 Cu4 Mo4 O20'
_cell_volume   445.12588290
_cell_formula_units_Z   4
loop_
 _symmetry_equiv_pos_site_id
 _symmetry_equiv_pos_as_xyz
  1  'x, y, z'
loop_
 _atom_site_type_symbol
 _atom_site_label
 _atom_site_symmetry_multiplicity
 _atom_site_fract_x
 _atom_site_fract_y
 _atom_site_fract_z
 _atom_site_occupancy
  Na  Na0  1  0.25000000  0.37150300  0.69442200  1
  Na  Na1  1  0.25000000  0.87150300  0.80557800  1
  Na  Na2  1  0.75000000  0.62849700  0.30557800  1
  Na  Na3  1  0.75000000  0.12849700  0.19442200  1
  Cu  Cu0  1  0.00000000  0.50000000  0.00000000  1
  Cu  Cu1  1  0.50000000  0.00000000  0.50000000  1
  Cu  Cu2  1  0.50000000  0.50000000  0.00000000  1
  Cu  Cu3  1  0.00000000  0.00000000  0.50000000  1
  Mo  Mo0  1  0.75000000  0.13535400  0.83972700  1
  Mo  Mo1  1  0.75000000  0.63535400  0.66027300  1
  Mo  Mo2  1  0.25000000  0.86464600  0.16027300  1
  Mo  Mo3  1  0.25000000  0.36464600  0.33972700  1
  O  O0  1  0.75000000  0.33771000  0.94848600  1
  O  O1  1  0.75000000  0.83771000  0.55151400  1
  O  O2  1  0.25000000  0.66229000  0.05151400  1
  O  O3  1  0.25000000  0.16229000  0.44848600  1
  O  O4  1  0.50226400  0.11941600  0.73281400  1
  O  O5  1  0.99773600  0.61941600  0.76718600  1
  O  O6  1  0.00226400  0.88058400  0.26718600  1
  O  O7  1  0.49773600  0.38058400  0.23281400  1
  O  O8  1  0.49773600  0.88058400  0.26718600  1
  O  O9  1  0.00226400  0.38058400  0.23281400  1
  O  O10  1  0.99773600  0.11941600  0.73281400  1
  O  O11  1  0.50226400  0.61941600  0.76718600  1
  O  O12  1  0.75000000  0.96045300  0.95082100  1
  O  O13  1  0.75000000  0.46045300  0.54917900  1
  O  O14  1  0.25000000  0.03954700  0.04917900  1
  O  O15  1  0.25000000  0.53954700  0.45082100  1
  O  O16  1  0.25000000  0.38019300  0.94335600  1
  O  O17  1  0.25000000  0.88019300  0.55664400  1
  O  O18  1  0.75000000  0.61980700  0.05664400  1
  O  O19  1  0.75000000  0.11980700  0.44335600  1
loop_
_geom_bond_atom_site_label_1
_geom_bond_atom_site_label_2
_geom_bond_distance
_geom_bond_site_symmetry_2
Na0 O16 2.430076 1_555
Na0 O4 2.493165 1_555
Na0 O10 2.493165 1_455
Na0 O11 2.539743 1_555
Na0 O5 2.539743 1_455
Na0 O15 2.720488 1_555
Na0 O3 2.910793 1_555
Na1 O17 2.430076 1_555
Na1 O11 2.493165 1_555
Na1 O5 2.493165 1_455
Na1 O4 2.539743 1_565
Na1 O10 2.539743 1_465
Na1 O14 2.720488 1_566
Na1 O2 2.910793 1_556
Na2 O18 2.430076 1_555
Na2 O6 2.493165 1_655
Na2 O8 2.493165 1_555
Na2 O9 2.539743 1_655
Na2 O7 2.539743 1_555
Na2 O13 2.720488 1_555
Na2 O1 2.910793 1_555
Na3 O19 2.430076 1_555
Na3 O9 2.493165 1_655
Na3 O7 2.493165 1_555
Na3 O6 2.539743 1_645
Na3 O8 2.539743 1_545
Na3 O12 2.720488 1_544
Na3 O0 2.910793 1_554
Cu0 O18 1.814724 1_455
Cu0 O16 1.814724 1_554
Cu0 O2 1.995827 1_555
Cu0 O0 1.995827 1_454
Cu0 O9 2.458724 1_555
Cu0 O5 2.458724 1_454
Cu1 O19 1.814724 1_555
Cu1 O17 1.814724 1_545
Cu1 O1 1.995827 1_545
Cu1 O3 1.995827 1_555
Cu1 O4 2.458724 1_555
Cu1 O8 2.458724 1_545
Cu2 O18 1.814724 1_555
Cu2 O16 1.814724 1_554
Cu2 O2 1.995827 1_555
Cu2 O0 1.995827 1_554
Cu2 O7 2.458724 1_555
Cu2 O11 2.458724 1_554
Cu3 O19 1.814724 1_455
Cu3 O17 1.814724 1_545
Cu3 O1 1.995827 1_445
Cu3 O3 1.995827 1_555
Cu3 O10 2.458724 1_455
Cu3 O6 2.458724 1_545
Mo0 O12 1.752584 1_545
Mo0 O10 1.778823 1_555
Mo0 O4 1.778823 1_555
Mo0 O0 1.914355 1_555
Mo1 O13 1.752584 1_555
Mo1 O5 1.778823 1_555
Mo1 O11 1.778823 1_555
Mo1 O1 1.914355 1_555
Mo2 O14 1.752584 1_565
Mo2 O8 1.778823 1_555
Mo2 O6 1.778823 1_555
Mo2 O2 1.914355 1_555
Mo3 O15 1.752584 1_555
Mo3 O7 1.778823 1_555
Mo3 O9 1.778823 1_555
Mo3 O3 1.914355 1_555
