# generated using pymatgen
data_Cr2CdSeS3
_symmetry_space_group_name_H-M   'P 1'
_cell_length_a   7.40173256
_cell_length_b   7.40173256
_cell_length_c   7.40173256
_cell_angle_alpha   120.10180485
_cell_angle_beta   119.92464015
_cell_angle_gamma   89.97716799
_symmetry_Int_Tables_number   1
_chemical_formula_structural   Cr2CdSeS3
_chemical_formula_sum   'Cr4 Cd2 Se2 S6'
_cell_volume   286.67975665
_cell_formula_units_Z   2
loop_
 _symmetry_equiv_pos_site_id
 _symmetry_equiv_pos_as_xyz
  1  'x, y, z'
loop_
 _atom_site_type_symbol
 _atom_site_label
 _atom_site_symmetry_multiplicity
 _atom_site_fract_x
 _atom_site_fract_y
 _atom_site_fract_z
 _atom_site_occupancy
  Cr  Cr0  1  0.62049000  0.37107800  0.75058800  1
  Cr  Cr1  1  0.62049000  0.86990300  0.24941200  1
  Cr  Cr2  1  0.61640200  0.37449200  0.24191100  1
  Cr  Cr3  1  0.13258100  0.37449200  0.75808900  1
  Cd  Cd0  1  0.24661200  0.74661200  0.50000000  1
  Cd  Cd1  1  0.01475600  0.01475600  0.00000000  1
  Se  Se0  1  0.86149300  0.13835400  0.27686100  1
  Se  Se1  1  0.86149300  0.58463200  0.72313900  1
  S  S0  1  0.85675800  0.14300600  0.71375200  1
  S  S1  1  0.42925300  0.14300600  0.28624800  1
  S  S2  1  0.38875100  0.60878300  0.22003200  1
  S  S3  1  0.38875100  0.16871800  0.77996800  1
  S  S4  1  0.39079200  0.60608500  0.78470700  1
  S  S5  1  0.82137800  0.60608500  0.21529300  1
loop_
_geom_bond_atom_site_label_1
_geom_bond_atom_site_label_2
_geom_bond_distance
_geom_bond_site_symmetry_2
Cr0 S3 2.435943 1_555
Cr0 S4 2.442425 1_555
Cr0 S5 2.442425 1_556
Cr0 S1 2.448279 1_555
Cr0 S0 2.448280 1_555
Cr0 Se1 2.531374 1_555
Cr1 S2 2.435943 1_555
Cr1 S4 2.442425 1_554
Cr1 S5 2.442430 1_555
Cr1 S1 2.448279 1_565
Cr1 S0 2.448279 1_565
Cr1 Se0 2.531369 1_565
Cr2 S2 2.424854 1_555
Cr2 S3 2.424858 1_554
Cr2 S5 2.432727 1_555
Cr2 S1 2.445760 1_555
Cr2 Se1 2.528942 1_555
Cr2 Se0 2.528947 1_555
Cr3 S2 2.424858 1_556
Cr3 S3 2.424863 1_555
Cr3 S4 2.432722 1_555
Cr3 S0 2.445760 1_455
Cr3 Se0 2.528942 1_455
Cr3 Se1 2.528942 1_455
Cd0 S3 2.548642 1_565
Cd0 S2 2.548648 1_555
Cd0 S5 2.572080 1_455
Cd0 S4 2.572080 1_555
Cd1 S1 2.510413 1_555
Cd1 S0 2.510419 1_454
Cd1 Se1 2.600253 1_444
Cd1 Se0 2.600253 1_455
