# generated using pymatgen
data_CaCu3(BiO3)4
_symmetry_space_group_name_H-M   'P 1'
_cell_length_a   7.11558688
_cell_length_b   7.11558688
_cell_length_c   7.11558688
_cell_angle_alpha   109.47122063
_cell_angle_beta   109.47122063
_cell_angle_gamma   109.47122063
_symmetry_Int_Tables_number   1
_chemical_formula_structural   CaCu3(BiO3)4
_chemical_formula_sum   'Ca1 Cu3 Bi4 O12'
_cell_volume   277.33857904
_cell_formula_units_Z   1
loop_
 _symmetry_equiv_pos_site_id
 _symmetry_equiv_pos_as_xyz
  1  'x, y, z'
loop_
 _atom_site_type_symbol
 _atom_site_label
 _atom_site_symmetry_multiplicity
 _atom_site_fract_x
 _atom_site_fract_y
 _atom_site_fract_z
 _atom_site_occupancy
  Ca  Ca0  1  0.00000000  0.00000000  0.00000000  1
  Cu  Cu0  1  0.50000000  0.50000000  0.00000000  1
  Cu  Cu1  1  0.50000000  0.00000000  0.50000000  1
  Cu  Cu2  1  0.00000000  0.50000000  0.50000000  1
  Bi  Bi0  1  0.50000000  0.50000000  0.50000000  1
  Bi  Bi1  1  0.00000000  0.50000000  0.00000000  1
  Bi  Bi2  1  0.00000000  0.00000000  0.50000000  1
  Bi  Bi3  1  0.50000000  0.00000000  0.00000000  1
  O  O0  1  0.31916200  0.84651000  0.16567200  1
  O  O1  1  0.68083800  0.15349000  0.83432800  1
  O  O2  1  0.68083800  0.84651000  0.52734900  1
  O  O3  1  0.83432800  0.68083800  0.15349000  1
  O  O4  1  0.84651000  0.16567200  0.31916200  1
  O  O5  1  0.15349000  0.47265100  0.31916200  1
  O  O6  1  0.47265100  0.31916200  0.15349000  1
  O  O7  1  0.15349000  0.83432800  0.68083800  1
  O  O8  1  0.31916200  0.15349000  0.47265100  1
  O  O9  1  0.16567200  0.31916200  0.84651000  1
  O  O10  1  0.84651000  0.52734900  0.68083800  1
  O  O11  1  0.52734900  0.68083800  0.84651000  1
loop_
_geom_bond_atom_site_label_1
_geom_bond_atom_site_label_2
_geom_bond_distance
_geom_bond_site_symmetry_2
Ca0 O6 2.909838 1_555
Ca0 O5 2.909838 1_555
Ca0 O8 2.909838 1_555
Ca0 O2 2.909838 1_444
Ca0 O10 2.909838 1_444
Ca0 O11 2.909838 1_444
Ca0 O4 2.909844 1_455
Ca0 O9 2.909844 1_554
Ca0 O0 2.909844 1_545
Ca0 O3 2.909844 1_445
Ca0 O7 2.909844 1_544
Ca0 O1 2.909844 1_454
Cu0 O3 1.948884 1_555
Cu0 O9 1.948884 1_554
Cu0 O11 1.948884 1_554
Cu0 O6 1.948884 1_555
Cu1 O1 1.948884 1_555
Cu1 O0 1.948884 1_545
Cu1 O2 1.948884 1_545
Cu1 O8 1.948884 1_555
Cu2 O7 1.948884 1_555
Cu2 O4 1.948884 1_455
Cu2 O10 1.948884 1_455
Cu2 O5 1.948884 1_555
Bi0 O10 2.273982 1_555
Bi0 O11 2.273982 1_555
Bi0 O2 2.273982 1_555
Bi0 O8 2.273982 1_555
Bi0 O5 2.273982 1_555
Bi0 O6 2.273982 1_555
Bi1 O9 2.273985 1_554
Bi1 O3 2.273985 1_455
Bi1 O0 2.273985 1_555
Bi1 O1 2.273985 1_454
Bi1 O5 2.273989 1_555
Bi1 O10 2.273989 1_454
Bi2 O4 2.273985 1_455
Bi2 O7 2.273985 1_545
Bi2 O9 2.273985 1_555
Bi2 O3 2.273985 1_445
Bi2 O8 2.273989 1_555
Bi2 O2 2.273989 1_445
Bi3 O0 2.273985 1_545
Bi3 O1 2.273985 1_554
Bi3 O4 2.273985 1_555
Bi3 O7 2.273985 1_544
Bi3 O6 2.273989 1_555
Bi3 O11 2.273989 1_544
