# generated using pymatgen
data_Li7Mn5O12
_symmetry_space_group_name_H-M   'P 1'
_cell_length_a   5.83705870
_cell_length_b   8.62528997
_cell_length_c   9.19924938
_cell_angle_alpha   72.07702456
_cell_angle_beta   90.34983002
_cell_angle_gamma   89.88675385
_symmetry_Int_Tables_number   1
_chemical_formula_structural   Li7Mn5O12
_chemical_formula_sum   'Li14 Mn10 O24'
_cell_volume   440.66046458
_cell_formula_units_Z   2
loop_
 _symmetry_equiv_pos_site_id
 _symmetry_equiv_pos_as_xyz
  1  'x, y, z'
loop_
 _atom_site_type_symbol
 _atom_site_label
 _atom_site_symmetry_multiplicity
 _atom_site_fract_x
 _atom_site_fract_y
 _atom_site_fract_z
 _atom_site_occupancy
  Li  Li0  1  0.50013700  0.33333100  0.99999700  1
  Li  Li1  1  0.99987500  0.83331600  0.49999400  1
  Li  Li2  1  0.74408000  0.58051900  0.75159900  1
  Li  Li3  1  0.25587300  0.08619200  0.24836100  1
  Li  Li4  1  0.25609300  0.57951000  0.75378600  1
  Li  Li5  1  0.74388100  0.08716200  0.24625700  1
  Li  Li6  1  0.25324500  0.41771400  0.24359300  1
  Li  Li7  1  0.74724600  0.91875200  0.74710600  1
  Li  Li8  1  0.74688100  0.24898200  0.75636500  1
  Li  Li9  1  0.25272700  0.74788800  0.25285700  1
  Li  Li10  1  0.49426300  0.66161200  0.00322400  1
  Li  Li11  1  0.99684000  0.17385800  0.47839300  1
  Li  Li12  1  0.00315600  0.49285200  0.52152700  1
  Li  Li13  1  0.50569100  0.00498000  0.99689300  1
  Mn  Mn0  1  0.49983500  0.83329700  0.49997400  1
  Mn  Mn1  1  0.00011200  0.33339700  0.99997400  1
  Mn  Mn2  1  0.49893200  0.49776900  0.50931200  1
  Mn  Mn3  1  0.99853600  0.99748200  0.00792200  1
  Mn  Mn4  1  0.00144200  0.66930700  0.99208400  1
  Mn  Mn5  1  0.50101500  0.16870700  0.49069500  1
  Mn  Mn6  1  0.25554000  0.25059200  0.75620400  1
  Mn  Mn7  1  0.74674700  0.75270800  0.24998100  1
  Mn  Mn8  1  0.74457500  0.41602900  0.24381200  1
  Mn  Mn9  1  0.25327100  0.91382900  0.75026600  1
  O  O0  1  0.98641500  0.26907400  0.22351300  1
  O  O1  1  0.48970500  0.76690700  0.72357200  1
  O  O2  1  0.01372700  0.39765000  0.77648600  1
  O  O3  1  0.51017300  0.89973200  0.27641000  1
  O  O4  1  0.22737700  0.82892700  0.00728200  1
  O  O5  1  0.73450400  0.33504400  0.50173100  1
  O  O6  1  0.77270800  0.83782400  0.99272600  1
  O  O7  1  0.26550100  0.33156400  0.49821800  1
  O  O8  1  0.22192300  0.50253700  0.00087300  1
  O  O9  1  0.72721000  0.99976400  0.50097900  1
  O  O10  1  0.77821200  0.16423900  0.99910600  1
  O  O11  1  0.27266500  0.66685000  0.49897200  1
  O  O12  1  0.97662300  0.59365400  0.22148000  1
  O  O13  1  0.47844800  0.07962000  0.75448400  1
  O  O14  1  0.52159000  0.58701900  0.24544900  1
  O  O15  1  0.02348100  0.07307400  0.77851200  1
  O  O16  1  0.22412200  0.16046400  0.01460900  1
  O  O17  1  0.73336400  0.66818700  0.50795900  1
  O  O18  1  0.77605100  0.50628300  0.98538100  1
  O  O19  1  0.26626700  0.99843300  0.49203900  1
  O  O20  1  0.48837300  0.40369900  0.75571100  1
  O  O21  1  0.98484700  0.91573700  0.22676300  1
  O  O22  1  0.01504500  0.75096800  0.77323400  1
  O  O23  1  0.51167800  0.26296400  0.24433300  1
loop_
_geom_bond_atom_site_label_1
_geom_bond_atom_site_label_2
_geom_bond_distance
_geom_bond_site_symmetry_2
Li0 O20 2.140488 1_555
Li0 O23 2.140899 1_556
Li0 O16 2.173870 1_556
Li0 O18 2.173917 1_555
Li0 O10 2.181729 1_555
Li0 O8 2.182959 1_556
Li1 O19 2.097023 1_655
Li1 O17 2.097592 1_555
Li1 O9 2.143228 1_555
Li1 O11 2.143946 1_655
Li1 O21 2.393355 1_555
Li1 O22 2.393475 1_655
Li2 O18 2.053549 1_555
Li2 O20 2.128239 1_555
Li2 O17 2.134043 1_555
Li2 O1 2.141595 1_555
Li2 O2 2.186577 1_655
Li2 O22 2.210890 1_655
Li3 O16 2.053176 1_555
Li3 O23 2.128499 1_555
Li3 O19 2.134356 1_545
Li3 O3 2.141711 1_545
Li3 O0 2.185906 1_455
Li3 O21 2.211082 1_445
Li4 O20 2.028097 1_555
Li4 O1 2.070292 1_555
Li4 O2 2.077562 1_555
Li4 O22 2.087211 1_555
Li4 O8 2.173571 1_556
Li4 O11 2.233351 1_555
Li5 O23 2.027742 1_555
Li5 O3 2.070931 1_545
Li5 O0 2.078505 1_555
Li5 O21 2.086811 1_545
Li5 O10 2.174211 1_554
Li5 O9 2.232587 1_545
Li6 O23 2.010846 1_555
Li6 O0 2.062465 1_455
Li6 O8 2.131508 1_555
Li6 O14 2.147156 1_555
Li6 O12 2.178926 1_455
Li6 O7 2.229439 1_555
Li7 O1 2.049484 1_555
Li7 O22 2.089967 1_655
Li7 O13 2.107662 1_565
Li7 O6 2.153954 1_555
Li7 O9 2.156654 1_555
Li7 O15 2.166689 1_665
Li8 O20 2.011148 1_555
Li8 O2 2.062797 1_655
Li8 O10 2.131680 1_555
Li8 O13 2.147917 1_555
Li8 O15 2.178608 1_655
Li8 O5 2.229528 1_555
Li9 O3 2.049123 1_555
Li9 O21 2.090720 1_455
Li9 O14 2.108016 1_555
Li9 O4 2.153522 1_555
Li9 O11 2.156522 1_555
Li9 O12 2.165536 1_455
Li10 O8 2.106309 1_555
Li10 O14 2.125449 1_555
Li10 O4 2.129756 1_555
Li10 O18 2.158064 1_554
Li10 O6 2.209593 1_554
Li10 O1 2.450470 1_554
Li11 O7 2.121418 1_655
Li11 O5 2.122041 1_555
Li11 O9 2.143900 1_545
Li11 O19 2.156327 1_645
Li11 O0 2.233541 1_555
Li12 O5 2.121893 1_455
Li12 O7 2.122599 1_555
Li12 O11 2.142856 1_555
Li12 O17 2.157464 1_455
Li12 O2 2.234233 1_555
Li13 O10 2.107888 1_555
Li13 O13 2.127024 1_555
Li13 O6 2.129611 1_545
Li13 O16 2.157633 1_556
Li13 O4 2.208267 1_546
Li13 O3 2.449287 1_546
Mn0 O17 1.954057 1_555
Mn0 O19 1.954464 1_555
Mn0 O11 1.958314 1_555
Mn0 O3 1.959083 1_555
Mn0 O9 1.959260 1_555
Mn0 O1 1.959349 1_555
Mn1 O18 1.954253 1_455
Mn1 O16 1.954288 1_556
Mn1 O8 1.954348 1_556
Mn1 O10 1.954743 1_455
Mn1 O2 1.959890 1_555
Mn1 O0 1.960340 1_456
Mn2 O11 1.945690 1_555
Mn2 O5 1.979737 1_555
Mn2 O7 2.004530 1_555
Mn2 O17 2.007529 1_555
Mn2 O20 2.161008 1_555
Mn2 O14 2.314376 1_555
Mn3 O10 1.910207 1_564
Mn3 O21 1.919619 1_555
Mn3 O16 1.942517 1_665
Mn3 O6 1.943430 1_554
Mn3 O4 1.973730 1_655
Mn3 O15 2.014283 1_664
Mn4 O8 1.910954 1_556
Mn4 O22 1.919640 1_555
Mn4 O18 1.942047 1_455
Mn4 O4 1.943620 1_556
Mn4 O6 1.973071 1_455
Mn4 O12 2.014104 1_456
Mn5 O9 1.944628 1_545
Mn5 O7 1.980183 1_555
Mn5 O5 2.005452 1_555
Mn5 O19 2.007900 1_545
Mn5 O23 2.160798 1_555
Mn5 O13 2.313683 1_555
Mn6 O20 1.895920 1_555
Mn6 O2 1.943646 1_555
Mn6 O13 1.968477 1_555
Mn6 O15 2.009851 1_555
Mn6 O7 2.259488 1_555
Mn6 O16 2.270955 1_556
Mn7 O3 1.939346 1_555
Mn7 O21 1.944477 1_555
Mn7 O14 1.953152 1_555
Mn7 O12 1.992396 1_555
Mn7 O6 2.257875 1_554
Mn7 O17 2.259937 1_555
Mn8 O23 1.895882 1_555
Mn8 O0 1.943203 1_555
Mn8 O14 1.968704 1_555
Mn8 O12 2.010455 1_555
Mn8 O5 2.258918 1_555
Mn8 O18 2.271232 1_554
Mn9 O1 1.938965 1_555
Mn9 O22 1.944254 1_555
Mn9 O13 1.953183 1_565
Mn9 O15 1.992444 1_565
Mn9 O4 2.255756 1_556
Mn9 O19 2.262022 1_555
