# generated using pymatgen
data_Be2Tl2Cu(O3F4)2
_symmetry_space_group_name_H-M   'P 1'
_cell_length_a   5.07460496
_cell_length_b   9.11764756
_cell_length_c   14.01472600
_cell_angle_alpha   90.00000000
_cell_angle_beta   90.00000000
_cell_angle_gamma   115.10776537
_symmetry_Int_Tables_number   1
_chemical_formula_structural   Be2Tl2Cu(O3F4)2
_chemical_formula_sum   'Be4 Tl4 Cu2 O12 F16'
_cell_volume   587.16955013
_cell_formula_units_Z   2
loop_
 _symmetry_equiv_pos_site_id
 _symmetry_equiv_pos_as_xyz
  1  'x, y, z'
loop_
 _atom_site_type_symbol
 _atom_site_label
 _atom_site_symmetry_multiplicity
 _atom_site_fract_x
 _atom_site_fract_y
 _atom_site_fract_z
 _atom_site_occupancy
  Be  Be0  1  0.71207700  0.55007900  0.86207400  1
  Be  Be1  1  0.28792300  0.44992100  0.13792600  1
  Be  Be2  1  0.28792300  0.94992100  0.36207400  1
  Be  Be3  1  0.71207700  0.05007900  0.63792600  1
  Tl  Tl0  1  0.95611100  0.72884100  0.11105100  1
  Tl  Tl1  1  0.04388900  0.27115900  0.88894900  1
  Tl  Tl2  1  0.04388900  0.77115900  0.61105100  1
  Tl  Tl3  1  0.95611100  0.22884100  0.38894900  1
  Cu  Cu0  1  0.50000000  0.00000000  0.00000000  1
  Cu  Cu1  1  0.50000000  0.50000000  0.50000000  1
  O  O0  1  0.21574400  0.90795200  0.82431700  1
  O  O1  1  0.78425600  0.09204800  0.17568300  1
  O  O2  1  0.78425600  0.59204800  0.32431700  1
  O  O3  1  0.21574400  0.40795200  0.67568300  1
  O  O4  1  0.34097500  0.53101000  0.62654700  1
  O  O5  1  0.65902500  0.46899000  0.37345300  1
  O  O6  1  0.65902500  0.96899000  0.12654700  1
  O  O7  1  0.34097500  0.03101000  0.87345300  1
  O  O8  1  0.83496700  0.04026900  0.93697500  1
  O  O9  1  0.16503300  0.95973100  0.06302500  1
  O  O10  1  0.16503300  0.45973100  0.43697500  1
  O  O11  1  0.83496700  0.54026900  0.56302500  1
  F  F0  1  0.35559500  0.50730400  0.85756800  1
  F  F1  1  0.64440500  0.49269600  0.14243200  1
  F  F2  1  0.64440500  0.99269600  0.35756800  1
  F  F3  1  0.35559500  0.00730400  0.64243200  1
  F  F4  1  0.69282400  0.87294600  0.61830800  1
  F  F5  1  0.30717600  0.12705400  0.38169200  1
  F  F6  1  0.30717600  0.62705400  0.11830800  1
  F  F7  1  0.69282400  0.37294600  0.88169200  1
  F  F8  1  0.84014700  0.65975500  0.94905500  1
  F  F9  1  0.15985300  0.34024500  0.05094500  1
  F  F10  1  0.15985300  0.84024500  0.44905500  1
  F  F11  1  0.84014700  0.15975500  0.55094500  1
  F  F12  1  0.84861900  0.62232500  0.76632100  1
  F  F13  1  0.15138100  0.37767500  0.23367900  1
  F  F14  1  0.15138100  0.87767500  0.26632100  1
  F  F15  1  0.84861900  0.12232500  0.73367900  1
loop_
_geom_bond_atom_site_label_1
_geom_bond_atom_site_label_2
_geom_bond_distance
_geom_bond_site_symmetry_2
Be0 F12 1.525617 1_555
Be0 F8 1.535193 1_555
Be0 F7 1.599866 1_555
Be0 F0 1.682217 1_555
Be1 F13 1.525617 1_555
Be1 F9 1.535193 1_555
Be1 F6 1.599866 1_555
Be1 F1 1.682217 1_555
Be2 F14 1.525617 1_555
Be2 F10 1.535193 1_555
Be2 F5 1.599866 1_565
Be2 F2 1.682217 1_555
Be3 F15 1.525617 1_555
Be3 F11 1.535193 1_555
Be3 F4 1.599866 1_545
Be3 F3 1.682217 1_555
Cu0 O9 1.809626 1_545
Cu0 O8 1.809626 1_554
Cu0 O6 2.017470 1_545
Cu0 O7 2.017470 1_554
Cu1 O11 1.809626 1_555
Cu1 O10 1.809626 1_555
Cu1 O4 2.017470 1_555
Cu1 O5 2.017470 1_555
O0 O7 1.237676 1_565
O1 O6 1.237676 1_545
O2 O5 1.237676 1_555
O3 O4 1.237676 1_555
O8 Tl1 2.028475 1_655
O9 Tl0 2.028475 1_455
O10 Tl3 2.028475 1_455
O11 Tl2 2.028475 1_655
F0 Tl1 2.107368 1_555
F1 Tl0 2.107368 1_555
F2 Tl3 2.107368 1_565
F3 Tl2 2.107368 1_545
F4 Tl2 2.334211 1_655
F5 Tl3 2.334211 1_455
F6 Tl0 2.334211 1_455
F7 Tl1 2.334211 1_655
F8 Tl0 2.362815 1_556
F9 Tl1 2.362815 1_554
F10 Tl2 2.362815 1_555
F11 Tl3 2.362815 1_555
F12 Tl2 2.533281 1_655
F13 Tl3 2.533281 1_455
F14 Tl0 2.533281 1_455
F15 Tl1 2.533281 1_655
