# generated using pymatgen
data_TbClO2
_symmetry_space_group_name_H-M   'P 1'
_cell_length_a   3.58017400
_cell_length_b   6.57412000
_cell_length_c   6.57772046
_cell_angle_alpha   65.68123199
_cell_angle_beta   90.00000000
_cell_angle_gamma   90.00000000
_symmetry_Int_Tables_number   1
_chemical_formula_structural   TbClO2
_chemical_formula_sum   'Tb2 Cl2 O4'
_cell_volume   141.07936604
_cell_formula_units_Z   2
loop_
 _symmetry_equiv_pos_site_id
 _symmetry_equiv_pos_as_xyz
  1  'x, y, z'
loop_
 _atom_site_type_symbol
 _atom_site_label
 _atom_site_symmetry_multiplicity
 _atom_site_fract_x
 _atom_site_fract_y
 _atom_site_fract_z
 _atom_site_occupancy
  Tb  Tb0  1  0.25000000  0.33751200  0.77361200  1
  Tb  Tb1  1  0.75000000  0.66248800  0.22638800  1
  Cl  Cl0  1  0.25000000  0.99170200  0.22677100  1
  Cl  Cl1  1  0.75000000  0.00829800  0.77322900  1
  O  O0  1  0.25000000  0.45858700  0.38490800  1
  O  O1  1  0.75000000  0.54141300  0.61509200  1
  O  O2  1  0.25000000  0.55302300  0.97707600  1
  O  O3  1  0.75000000  0.44697700  0.02292400  1
loop_
_geom_bond_atom_site_label_1
_geom_bond_atom_site_label_2
_geom_bond_distance
_geom_bond_site_symmetry_2
Cl0 Tb1 2.809461 1_555
Cl0 Tb1 2.809461 1_455
Cl0 Tb0 2.910666 1_564
Cl1 Tb0 2.809461 1_555
Cl1 Tb0 2.809461 1_655
Cl1 Tb1 2.910666 1_546
O0 Tb1 2.222005 1_555
O0 Tb1 2.222005 1_455
O0 Tb0 2.344045 1_555
O1 Tb0 2.222005 1_555
O1 Tb0 2.222005 1_655
O1 Tb1 2.344045 1_555
O2 O3 1.899533 1_456
O2 O3 1.899533 1_556
O2 Tb0 2.315198 1_555
O2 Tb1 2.717271 1_556
O2 Tb1 2.717271 1_456
O3 Tb1 2.315198 1_555
O3 Tb0 2.717271 1_654
O3 Tb0 2.717271 1_554
