# generated using pymatgen
data_BaSmFeCuO5
_symmetry_space_group_name_H-M   'P 1'
_cell_length_a   3.92711000
_cell_length_b   3.92711000
_cell_length_c   8.03821300
_cell_angle_alpha   90.00000000
_cell_angle_beta   90.00000000
_cell_angle_gamma   90.00000000
_symmetry_Int_Tables_number   1
_chemical_formula_structural   BaSmFeCuO5
_chemical_formula_sum   'Ba1 Sm1 Fe1 Cu1 O5'
_cell_volume   123.96687188
_cell_formula_units_Z   1
loop_
 _symmetry_equiv_pos_site_id
 _symmetry_equiv_pos_as_xyz
  1  'x, y, z'
loop_
 _atom_site_type_symbol
 _atom_site_label
 _atom_site_symmetry_multiplicity
 _atom_site_fract_x
 _atom_site_fract_y
 _atom_site_fract_z
 _atom_site_occupancy
  Ba  Ba0  1  0.50000000  0.50000000  0.74532900  1
  Sm  Sm0  1  0.50000000  0.50000000  0.20928600  1
  Fe  Fe0  1  0.00000000  0.00000000  0.45352000  1
  Cu  Cu0  1  0.00000000  0.00000000  0.99464800  1
  O  O0  1  0.50000000  0.00000000  0.38415800  1
  O  O1  1  0.00000000  0.50000000  0.38415800  1
  O  O2  1  0.50000000  0.00000000  0.01529900  1
  O  O3  1  0.00000000  0.50000000  0.01529900  1
  O  O4  1  0.00000000  0.00000000  0.68630300  1
loop_
_geom_bond_atom_site_label_1
_geom_bond_atom_site_label_2
_geom_bond_distance
_geom_bond_site_symmetry_2
Ba0 O4 2.817128 1_565
Ba0 O4 2.817128 1_665
Ba0 O4 2.817128 1_555
Ba0 O4 2.817128 1_655
Ba0 O2 2.926564 1_556
Ba0 O2 2.926564 1_566
Ba0 O3 2.926564 1_556
Ba0 O3 2.926564 1_656
Fe0 O4 1.871159 1_555
Fe0 O1 2.041178 1_555
Fe0 O1 2.041178 1_545
Fe0 O0 2.041178 1_455
Fe0 O0 2.041178 1_555
Cu0 O3 1.970559 1_546
Cu0 O2 1.970559 1_456
Cu0 O2 1.970559 1_556
Cu0 O3 1.970559 1_556
Cu0 O4 2.478543 1_555
O0 Sm0 2.414834 1_555
O0 Sm0 2.414834 1_545
O1 Sm0 2.414834 1_455
O1 Sm0 2.414834 1_555
O2 Sm0 2.507388 1_555
O2 Sm0 2.507388 1_545
O3 Sm0 2.507388 1_455
O3 Sm0 2.507388 1_555
