# generated using pymatgen
data_Y2SiO5
_symmetry_space_group_name_H-M   'P 1'
_cell_length_a   6.77619147
_cell_length_b   6.88669000
_cell_length_c   10.35870928
_cell_angle_alpha   90.00000000
_cell_angle_beta   119.32485071
_cell_angle_gamma   90.00000000
_symmetry_Int_Tables_number   1
_chemical_formula_structural   Y2SiO5
_chemical_formula_sum   'Y8 Si4 O20'
_cell_volume   421.45098460
_cell_formula_units_Z   4
loop_
 _symmetry_equiv_pos_site_id
 _symmetry_equiv_pos_as_xyz
  1  'x, y, z'
loop_
 _atom_site_type_symbol
 _atom_site_label
 _atom_site_symmetry_multiplicity
 _atom_site_fract_x
 _atom_site_fract_y
 _atom_site_fract_z
 _atom_site_occupancy
  Y  Y0  1  0.35555900  0.22204400  0.51031200  1
  Y  Y1  1  0.14444100  0.72204400  0.48968800  1
  Y  Y2  1  0.64444100  0.77795600  0.48968800  1
  Y  Y3  1  0.85555900  0.27795600  0.51031200  1
  Y  Y4  1  0.24103700  0.54625300  0.83310500  1
  Y  Y5  1  0.25896300  0.04625300  0.16689500  1
  Y  Y6  1  0.75896300  0.45374700  0.16689500  1
  Y  Y7  1  0.74103700  0.95374700  0.83310500  1
  Si  Si0  1  0.68270600  0.47877900  0.78403500  1
  Si  Si1  1  0.81729400  0.97877900  0.21596500  1
  Si  Si2  1  0.31729400  0.52122100  0.21596500  1
  Si  Si3  1  0.18270600  0.02122100  0.78403500  1
  O  O0  1  0.46927000  0.91486300  0.60214000  1
  O  O1  1  0.03073000  0.41486300  0.39786000  1
  O  O2  1  0.53073000  0.08513700  0.39786000  1
  O  O3  1  0.96927000  0.58513700  0.60214000  1
  O  O4  1  0.12635700  0.03017700  0.92142200  1
  O  O5  1  0.37364200  0.53017700  0.07857800  1
  O  O6  1  0.87364300  0.96982300  0.07857800  1
  O  O7  1  0.62635700  0.46982300  0.92142200  1
  O  O8  1  0.24011500  0.23310000  0.73325800  1
  O  O9  1  0.25988500  0.73310000  0.26674200  1
  O  O10  1  0.75988500  0.76690000  0.26674200  1
  O  O11  1  0.74011500  0.26690000  0.73325800  1
  O  O12  1  0.44540500  0.52971000  0.62877200  1
  O  O13  1  0.05459500  0.02971000  0.37122800  1
  O  O14  1  0.55459500  0.47029000  0.37122800  1
  O  O15  1  0.94540500  0.97029000  0.62877200  1
  O  O16  1  0.62774800  0.15011500  0.17707300  1
  O  O17  1  0.87225200  0.65011500  0.82292700  1
  O  O18  1  0.37225200  0.84988500  0.82292700  1
  O  O19  1  0.12774800  0.34988500  0.17707300  1
loop_
_geom_bond_atom_site_label_1
_geom_bond_atom_site_label_2
_geom_bond_distance
_geom_bond_site_symmetry_2
O0 Y7 2.207120 1_555
O0 Y2 2.238112 1_555
O0 Y0 2.292547 1_565
O0 Y1 2.335286 1_555
O1 Y6 2.207120 1_455
O1 Y3 2.238112 1_455
O1 Y1 2.292547 1_555
O1 Y0 2.335286 1_555
O2 Y5 2.207120 1_555
O2 Y0 2.238112 1_555
O2 Y2 2.292547 1_545
O2 Y3 2.335286 1_555
O3 Y4 2.207120 1_655
O3 Y1 2.238112 1_655
O3 Y3 2.292547 1_555
O3 Y2 2.335286 1_555
O4 Si3 1.645368 1_555
O4 Y5 2.246633 1_556
O4 Y7 2.364650 1_445
O5 Si2 1.645364 1_555
O5 Y4 2.246634 1_554
O5 Y6 2.364656 1_555
O6 Si1 1.645368 1_555
O6 Y7 2.246633 1_554
O6 Y5 2.364650 1_665
O7 Si0 1.645368 1_555
O7 Y6 2.246633 1_556
O7 Y4 2.364650 1_555
O8 Si3 1.660578 1_555
O8 Y4 2.390466 1_555
O8 Y3 2.514854 1_455
O8 Y0 2.778638 1_555
O9 Si2 1.660578 1_555
O9 Y5 2.390466 1_565
O9 Y2 2.514854 1_555
O9 Y1 2.778638 1_555
O10 Si1 1.660578 1_555
O10 Y6 2.390466 1_555
O10 Y1 2.514854 1_655
O10 Y2 2.778638 1_555
O11 Si0 1.660578 1_555
O11 Y7 2.390466 1_545
O11 Y0 2.514854 1_555
O11 Y3 2.778638 1_555
O12 Si0 1.661976 1_555
O12 Y1 2.260795 1_555
O12 Y0 2.373595 1_555
O12 Y2 2.953092 1_555
O13 Si1 1.661976 1_445
O13 Y0 2.260795 1_555
O13 Y1 2.373595 1_545
O13 Y3 2.953092 1_455
O14 Si2 1.661976 1_555
O14 Y3 2.260795 1_555
O14 Y2 2.373595 1_555
O14 Y0 2.953092 1_555
O15 Si3 1.661976 1_665
O15 Y2 2.260795 1_555
O15 Y3 2.373595 1_565
O15 Y1 2.953092 1_655
O16 Si1 1.642374 1_545
O16 Y6 2.294748 1_555
O16 Y5 2.551360 1_555
O16 Y3 3.139156 1_555
O17 Si0 1.642374 1_555
O17 Y7 2.294748 1_555
O17 Y4 2.551360 1_655
O17 Y2 3.139156 1_555
O18 Si3 1.642374 1_565
O18 Y4 2.294748 1_555
O18 Y7 2.551360 1_555
O18 Y1 3.139156 1_555
O19 Si2 1.642374 1_555
O19 Y5 2.294748 1_555
O19 Y6 2.551360 1_455
O19 Y0 3.139156 1_555
