# generated using pymatgen
data_Sm(InCu)6
_symmetry_space_group_name_H-M   'P 1'
_cell_length_a   7.16312435
_cell_length_b   7.16312435
_cell_length_c   7.16312435
_cell_angle_alpha   136.19799771
_cell_angle_beta   98.71353768
_cell_angle_gamma   97.28295864
_symmetry_Int_Tables_number   1
_chemical_formula_structural   Sm(InCu)6
_chemical_formula_sum   'Sm1 In6 Cu6'
_cell_volume   236.01670382
_cell_formula_units_Z   1
loop_
 _symmetry_equiv_pos_site_id
 _symmetry_equiv_pos_as_xyz
  1  'x, y, z'
loop_
 _atom_site_type_symbol
 _atom_site_label
 _atom_site_symmetry_multiplicity
 _atom_site_fract_x
 _atom_site_fract_y
 _atom_site_fract_z
 _atom_site_occupancy
  Sm  Sm0  1  0.00000000  0.00000000  0.00000000  1
  In  In0  1  0.66401200  0.00000000  0.66401200  1
  In  In1  1  0.33598800  0.00000000  0.33598800  1
  In  In2  1  0.65836700  0.65836700  0.00000000  1
  In  In3  1  0.34163300  0.34163300  0.00000000  1
  In  In4  1  0.17920200  0.67920200  0.50000000  1
  In  In5  1  0.82079800  0.32079800  0.50000000  1
  Cu  Cu0  1  0.00000000  0.00000000  0.50000000  1
  Cu  Cu1  1  0.00000000  0.50000000  0.00000000  1
  Cu  Cu2  1  0.50000000  0.50000000  0.50000000  1
  Cu  Cu3  1  0.50000000  0.00000000  0.00000000  1
  Cu  Cu4  1  0.23671200  0.50000000  0.73671200  1
  Cu  Cu5  1  0.76328800  0.50000000  0.26328800  1
loop_
_geom_bond_atom_site_label_1
_geom_bond_atom_site_label_2
_geom_bond_distance
_geom_bond_site_symmetry_2
In0 In1 3.060909 1_555
In0 Sm0 3.135224 1_656
In1 Sm0 3.135224 1_555
In2 Sm0 3.234013 1_665
In3 Sm0 3.234013 1_555
In4 Sm0 3.164907 1_555
In4 Sm0 3.164907 1_566
In5 Sm0 3.164907 1_655
In5 Sm0 3.164907 1_666
Cu0 Cu1 2.671874 1_556
Cu0 Cu1 2.671874 1_545
Cu0 Cu5 2.720445 1_445
Cu0 Cu4 2.720445 1_555
Cu0 In4 2.770565 1_545
Cu0 In5 2.770565 1_455
Cu0 In2 2.824766 1_445
Cu0 In3 2.824766 1_556
Cu0 In1 2.833596 1_555
Cu0 In0 2.833596 1_455
Cu0 Sm0 3.581562 1_556
Cu0 Sm0 3.581562 1_555
Cu1 Cu4 2.720445 1_554
Cu1 Cu5 2.720445 1_455
Cu1 In4 2.770565 1_555
Cu1 In5 2.770565 1_454
Cu1 In2 2.824766 1_455
Cu1 In3 2.824766 1_555
Cu1 In0 2.833596 1_454
Cu1 In1 2.833596 1_565
Cu1 Sm0 3.581562 1_555
Cu1 Sm0 3.581562 1_565
Cu2 Cu3 2.671874 1_555
Cu2 Cu3 2.671874 1_566
Cu2 Cu5 2.720445 1_555
Cu2 Cu4 2.720445 1_555
Cu2 In5 2.770565 1_555
Cu2 In4 2.770565 1_555
Cu2 In2 2.824766 1_556
Cu2 In3 2.824766 1_555
Cu2 In0 2.833596 1_565
Cu2 In1 2.833596 1_555
Cu2 Sm0 3.581562 1_555
Cu2 Sm0 3.581562 1_666
Cu3 Cu4 2.720445 1_544
Cu3 Cu5 2.720445 1_555
Cu3 In5 2.770565 1_555
Cu3 In4 2.770565 1_544
Cu3 In2 2.824766 1_545
Cu3 In3 2.824766 1_555
Cu3 In1 2.833596 1_555
Cu3 In0 2.833596 1_554
Cu3 Sm0 3.581562 1_555
Cu3 Sm0 3.581562 1_655
Cu4 In5 2.785089 1_455
Cu4 In4 2.785089 1_555
Cu4 In1 2.827913 1_555
Cu4 In1 2.827913 1_566
Cu4 In3 2.878107 1_556
Cu4 In2 2.878107 1_556
Cu4 Sm0 3.466685 1_555
Cu4 Sm0 3.466685 1_566
Cu5 In5 2.785089 1_555
Cu5 In4 2.785089 1_655
Cu5 In0 2.827913 1_565
Cu5 In0 2.827913 1_554
Cu5 In3 2.878107 1_555
Cu5 In2 2.878107 1_555
Cu5 Sm0 3.466685 1_655
Cu5 Sm0 3.466685 1_666
