# generated using pymatgen
data_Ca(CoO2)2
_symmetry_space_group_name_H-M   'P 1'
_cell_length_a   5.99513272
_cell_length_b   5.99513272
_cell_length_c   5.99513272
_cell_angle_alpha   60.00000000
_cell_angle_beta   60.00000000
_cell_angle_gamma   60.00000000
_symmetry_Int_Tables_number   1
_chemical_formula_structural   Ca(CoO2)2
_chemical_formula_sum   'Ca2 Co4 O8'
_cell_volume   152.36366398
_cell_formula_units_Z   2
loop_
 _symmetry_equiv_pos_site_id
 _symmetry_equiv_pos_as_xyz
  1  'x, y, z'
loop_
 _atom_site_type_symbol
 _atom_site_label
 _atom_site_symmetry_multiplicity
 _atom_site_fract_x
 _atom_site_fract_y
 _atom_site_fract_z
 _atom_site_occupancy
  Ca  Ca0  1  0.25000000  0.25000000  0.25000000  1
  Ca  Ca1  1  0.00000000  0.00000000  0.00000000  1
  Co  Co0  1  0.62500000  0.62500000  0.62500000  1
  Co  Co1  1  0.12500000  0.62500000  0.62500000  1
  Co  Co2  1  0.62500000  0.62500000  0.12500000  1
  Co  Co3  1  0.62500000  0.12500000  0.62500000  1
  O  O0  1  0.39622100  0.81133600  0.39622100  1
  O  O1  1  0.85377900  0.85377900  0.43866400  1
  O  O2  1  0.85377900  0.85377900  0.85377900  1
  O  O3  1  0.43866400  0.85377900  0.85377900  1
  O  O4  1  0.39622100  0.39622100  0.39622100  1
  O  O5  1  0.81133600  0.39622100  0.39622100  1
  O  O6  1  0.85377900  0.43866400  0.85377900  1
  O  O7  1  0.39622100  0.39622100  0.81133600  1
loop_
_geom_bond_atom_site_label_1
_geom_bond_atom_site_label_2
_geom_bond_distance
_geom_bond_site_symmetry_2
Ca0 O4 2.147258 1_555
Ca0 O7 2.147263 1_554
Ca0 O5 2.147263 1_455
Ca0 O0 2.147263 1_545
Ca1 O2 2.147258 1_444
Ca1 O6 2.147263 1_454
Ca1 O1 2.147263 1_445
Ca1 O3 2.147263 1_544
Co0 O3 1.956298 1_555
Co0 O6 1.956298 1_555
Co0 O1 1.956298 1_555
Co0 O7 1.956298 1_555
Co0 O0 1.956298 1_555
Co0 O5 1.956298 1_555
Co1 O0 1.956293 1_555
Co1 O7 1.956293 1_555
Co1 O6 1.956293 1_455
Co1 O1 1.956293 1_455
Co1 O2 1.956297 1_455
Co1 O4 1.956297 1_555
Co2 O0 1.956293 1_555
Co2 O5 1.956293 1_555
Co2 O3 1.956293 1_554
Co2 O6 1.956293 1_554
Co2 O2 1.956297 1_554
Co2 O4 1.956297 1_555
Co3 O7 1.956293 1_555
Co3 O5 1.956293 1_555
Co3 O1 1.956293 1_545
Co3 O3 1.956293 1_545
Co3 O2 1.956297 1_545
Co3 O4 1.956297 1_555
