# generated using pymatgen
data_Cr2CoP3
_symmetry_space_group_name_H-M   'P 1'
_cell_length_a   3.10882300
_cell_length_b   5.26236700
_cell_length_c   17.62032023
_cell_angle_alpha   89.99071318
_cell_angle_beta   90.00000000
_cell_angle_gamma   90.00000000
_symmetry_Int_Tables_number   1
_chemical_formula_structural   Cr2CoP3
_chemical_formula_sum   'Cr8 Co4 P12'
_cell_volume   288.26433960
_cell_formula_units_Z   4
loop_
 _symmetry_equiv_pos_site_id
 _symmetry_equiv_pos_as_xyz
  1  'x, y, z'
loop_
 _atom_site_type_symbol
 _atom_site_label
 _atom_site_symmetry_multiplicity
 _atom_site_fract_x
 _atom_site_fract_y
 _atom_site_fract_z
 _atom_site_occupancy
  Cr  Cr0  1  0.00000000  0.00901600  0.60318800  1
  Cr  Cr1  1  0.00000000  0.00805500  0.93751400  1
  Cr  Cr2  1  0.50000000  0.49665600  0.10085900  1
  Cr  Cr3  1  0.50000000  0.49404800  0.43153800  1
  Cr  Cr4  1  0.50000000  0.49288800  0.76620300  1
  Cr  Cr5  1  0.50000000  0.99652800  0.06681500  1
  Cr  Cr6  1  0.50000000  0.99584500  0.39784800  1
  Cr  Cr7  1  0.50000000  0.99517700  0.73179400  1
  Co  Co0  1  0.00000000  0.50111600  0.23327000  1
  Co  Co1  1  0.00000000  0.50615700  0.56572000  1
  Co  Co2  1  0.00000000  0.50542400  0.89932000  1
  Co  Co3  1  0.00000000  0.00145700  0.26574700  1
  P  P0  1  0.00000000  0.68619900  0.02215600  1
  P  P1  1  0.00000000  0.69040400  0.35305800  1
  P  P2  1  0.00000000  0.68829900  0.68831200  1
  P  P3  1  0.00000000  0.18976100  0.14650200  1
  P  P4  1  0.00000000  0.18318200  0.47927900  1
  P  P5  1  0.00000000  0.18350000  0.81300800  1
  P  P6  1  0.50000000  0.31235400  0.30725100  1
  P  P7  1  0.50000000  0.31691500  0.64194900  1
  P  P8  1  0.50000000  0.31784300  0.97642900  1
  P  P9  1  0.50000000  0.81168800  0.19139600  1
  P  P10  1  0.50000000  0.80870100  0.52371500  1
  P  P11  1  0.50000000  0.80878600  0.85712900  1
loop_
_geom_bond_atom_site_label_1
_geom_bond_atom_site_label_2
_geom_bond_distance
_geom_bond_site_symmetry_2
Cr0 P2 2.257731 1_545
Cr0 P10 2.342822 1_445
Cr0 P10 2.342822 1_545
Cr0 P7 2.346980 1_555
Cr0 P7 2.346980 1_455
Cr0 P4 2.367750 1_555
Cr1 P0 2.256594 1_546
Cr1 P11 2.350002 1_445
Cr1 P11 2.350002 1_545
Cr1 P8 2.354643 1_555
Cr1 P8 2.354643 1_455
Cr1 P5 2.380055 1_555
Cr2 P9 2.300904 1_555
Cr2 P0 2.309498 1_655
Cr2 P0 2.309498 1_555
Cr2 P3 2.381342 1_655
Cr2 P3 2.381342 1_555
Cr2 P8 2.386033 1_554
Cr3 P10 2.319612 1_555
Cr3 P1 2.322862 1_655
Cr3 P1 2.322862 1_555
Cr3 P6 2.389745 1_555
Cr3 P4 2.408220 1_655
Cr3 P4 2.408220 1_555
Cr4 P11 2.308941 1_555
Cr4 P2 2.314486 1_555
Cr4 P2 2.314486 1_655
Cr4 P7 2.377320 1_555
Cr4 P5 2.397222 1_555
Cr4 P5 2.397222 1_655
Cr5 P8 2.322642 1_564
Cr5 P3 2.328561 1_565
Cr5 P3 2.328561 1_665
Cr5 P0 2.388040 1_655
Cr5 P0 2.388040 1_555
Cr5 P9 2.400866 1_555
Cr6 P6 2.306869 1_565
Cr6 P4 2.333944 1_565
Cr6 P4 2.333944 1_665
Cr6 P1 2.371290 1_555
Cr6 P1 2.371290 1_655
Cr6 P10 2.426494 1_555
Cr7 P7 2.317742 1_565
Cr7 P5 2.333794 1_565
Cr7 P5 2.333794 1_665
Cr7 P2 2.368866 1_555
Cr7 P2 2.368866 1_655
Cr7 P11 2.416319 1_555
Co0 P3 2.241172 1_555
Co0 P6 2.258712 1_555
Co0 P6 2.258712 1_455
Co0 P1 2.334089 1_555
Co0 P9 2.373032 1_555
Co0 P9 2.373032 1_455
Co1 P4 2.282414 1_555
Co1 P7 2.282900 1_455
Co1 P7 2.282900 1_555
Co1 P10 2.344866 1_555
Co1 P10 2.344866 1_455
Co1 P2 2.363359 1_555
Co2 P5 2.276778 1_555
Co2 P8 2.288273 1_455
Co2 P8 2.288273 1_555
Co2 P11 2.348826 1_455
Co2 P11 2.348826 1_555
Co2 P0 2.364385 1_556
Co3 P1 2.246189 1_545
Co3 P9 2.264999 1_545
Co3 P9 2.264999 1_445
Co3 P3 2.322935 1_555
Co3 P6 2.372357 1_455
Co3 P6 2.372357 1_555
