# generated using pymatgen
data_Li4MnCo2O7
_symmetry_space_group_name_H-M   'P 1'
_cell_length_a   7.86677792
_cell_length_b   7.86677792
_cell_length_c   12.85176452
_cell_angle_alpha   62.29520438
_cell_angle_beta   62.29520438
_cell_angle_gamma   21.47867707
_symmetry_Int_Tables_number   1
_chemical_formula_structural   Li4MnCo2O7
_chemical_formula_sum   'Li8 Mn2 Co4 O14'
_cell_volume   256.55119583
_cell_formula_units_Z   2
loop_
 _symmetry_equiv_pos_site_id
 _symmetry_equiv_pos_as_xyz
  1  'x, y, z'
loop_
 _atom_site_type_symbol
 _atom_site_label
 _atom_site_symmetry_multiplicity
 _atom_site_fract_x
 _atom_site_fract_y
 _atom_site_fract_z
 _atom_site_occupancy
  Li  Li0  1  0.86763700  0.86763700  0.69442100  1
  Li  Li1  1  0.13236300  0.13236300  0.30557900  1
  Li  Li2  1  0.44179700  0.44179700  0.84430900  1
  Li  Li3  1  0.28908600  0.28908600  0.56339800  1
  Li  Li4  1  0.55820300  0.55820300  0.15569100  1
  Li  Li5  1  0.71091400  0.71091400  0.43660200  1
  Li  Li6  1  0.00000000  0.00000000  0.00000000  1
  Li  Li7  1  0.50000000  0.50000000  0.50000000  1
  Mn  Mn0  1  0.21425500  0.21425500  0.92658200  1
  Mn  Mn1  1  0.78574500  0.78574500  0.07341800  1
  Co  Co0  1  0.06609700  0.06609700  0.62956200  1
  Co  Co1  1  0.35909700  0.35909700  0.22526200  1
  Co  Co2  1  0.64090300  0.64090300  0.77473800  1
  Co  Co3  1  0.93390300  0.93390300  0.37043800  1
  O  O0  1  0.80684600  0.80684600  0.90624700  1
  O  O1  1  0.10933700  0.10933700  0.47316900  1
  O  O2  1  0.37843900  0.37843900  0.03869700  1
  O  O3  1  0.24089000  0.24089000  0.76872300  1
  O  O4  1  0.53178200  0.53178200  0.31986600  1
  O  O5  1  0.67396000  0.67396000  0.61877700  1
  O  O6  1  0.95854800  0.95854800  0.17495300  1
  O  O7  1  0.89066300  0.89066300  0.52683100  1
  O  O8  1  0.19315400  0.19315400  0.09375300  1
  O  O9  1  0.46821800  0.46821800  0.68013400  1
  O  O10  1  0.32604000  0.32604000  0.38122300  1
  O  O11  1  0.62156100  0.62156100  0.96130300  1
  O  O12  1  0.75911000  0.75911000  0.23127700  1
  O  O13  1  0.04145200  0.04145200  0.82504700  1
loop_
_geom_bond_atom_site_label_1
_geom_bond_atom_site_label_2
_geom_bond_distance
_geom_bond_site_symmetry_2
Li0 O7 2.010006 1_555
Li0 O9 2.080806 1_655
Li0 O9 2.080806 1_565
Li0 O3 2.264676 1_565
Li0 O3 2.264676 1_655
Li0 O0 2.423442 1_555
Li1 O1 2.010006 1_555
Li1 O4 2.080806 1_455
Li1 O4 2.080806 1_545
Li1 O12 2.264676 1_455
Li1 O12 2.264676 1_545
Li1 O8 2.423442 1_555
Li2 O9 1.950152 1_555
Li2 O13 2.054820 1_655
Li2 O13 2.054820 1_565
Li2 O2 2.210144 1_556
Li2 O0 2.358528 1_545
Li2 O0 2.358528 1_455
Li3 O7 2.033918 1_455
Li3 O7 2.033918 1_545
Li3 O10 2.131224 1_555
Li3 O5 2.150290 1_545
Li3 O5 2.150290 1_455
Li3 O3 2.378587 1_555
Li4 O4 1.950152 1_555
Li4 O6 2.054820 1_455
Li4 O6 2.054820 1_545
Li4 O11 2.210144 1_554
Li4 O8 2.358528 1_565
Li4 O8 2.358528 1_655
Li5 O1 2.033918 1_655
Li5 O1 2.033918 1_565
Li5 O5 2.131224 1_555
Li5 O10 2.150290 1_655
Li5 O10 2.150290 1_565
Li5 O12 2.378587 1_555
Li6 O6 2.025490 1_445
Li6 O13 2.025490 1_554
Li6 O2 2.245606 1_455
Li6 O2 2.245606 1_545
Li6 O11 2.245606 1_454
Li6 O11 2.245606 1_544
Li7 O4 2.127058 1_555
Li7 O9 2.127058 1_555
Li7 O7 2.138400 1_545
Li7 O1 2.138400 1_565
Li7 O7 2.138400 1_455
Li7 O1 2.138400 1_655
Mn0 O3 1.869461 1_555
Mn0 O11 1.948326 1_455
Mn0 O11 1.948326 1_545
Mn0 O0 1.977804 1_455
Mn0 O0 1.977804 1_545
Mn0 O8 2.014690 1_556
Mn1 O12 1.869461 1_555
Mn1 O2 1.948326 1_655
Mn1 O2 1.948326 1_565
Mn1 O8 1.977804 1_655
Mn1 O8 1.977804 1_565
Mn1 O0 2.014690 1_554
Co0 O1 1.793076 1_555
Co0 O9 1.982382 1_455
Co0 O9 1.982382 1_545
Co0 O5 2.174720 1_455
Co0 O5 2.174720 1_545
Co0 O13 2.356080 1_555
Co1 O10 1.819147 1_555
Co1 O6 1.997386 1_455
Co1 O6 1.997386 1_545
Co1 O12 2.104910 1_545
Co1 O12 2.104910 1_455
Co1 O2 2.271529 1_555
Co2 O5 1.819147 1_555
Co2 O13 1.997386 1_565
Co2 O13 1.997386 1_655
Co2 O3 2.104910 1_565
Co2 O3 2.104910 1_655
Co2 O11 2.271529 1_555
Co3 O7 1.793076 1_555
Co3 O4 1.982382 1_655
Co3 O4 1.982382 1_565
Co3 O10 2.174720 1_655
Co3 O10 2.174720 1_565
Co3 O6 2.356080 1_555
