# generated using pymatgen
data_Tb3MnB7
_symmetry_space_group_name_H-M   'P 1'
_cell_length_a   8.08776914
_cell_length_b   8.08776914
_cell_length_c   9.34837300
_cell_angle_alpha   90.00000000
_cell_angle_beta   90.00000000
_cell_angle_gamma   155.33921519
_symmetry_Int_Tables_number   1
_chemical_formula_structural   Tb3MnB7
_chemical_formula_sum   'Tb6 Mn2 B14'
_cell_volume   255.14369093
_cell_formula_units_Z   2
loop_
 _symmetry_equiv_pos_site_id
 _symmetry_equiv_pos_as_xyz
  1  'x, y, z'
loop_
 _atom_site_type_symbol
 _atom_site_label
 _atom_site_symmetry_multiplicity
 _atom_site_fract_x
 _atom_site_fract_y
 _atom_site_fract_z
 _atom_site_occupancy
  Tb  Tb0  1  0.89621700  0.10378300  0.44062300  1
  Tb  Tb1  1  0.10378300  0.89621700  0.55937700  1
  Tb  Tb2  1  0.89621700  0.10378300  0.05937700  1
  Tb  Tb3  1  0.10378300  0.89621700  0.94062300  1
  Tb  Tb4  1  0.24055400  0.75944600  0.25000000  1
  Tb  Tb5  1  0.75944600  0.24055400  0.75000000  1
  Mn  Mn0  1  0.05361400  0.94638600  0.25000000  1
  Mn  Mn1  1  0.94638600  0.05361400  0.75000000  1
  B  B0  1  0.72686600  0.27313400  0.46777800  1
  B  B1  1  0.27313400  0.72686600  0.53222200  1
  B  B2  1  0.72686600  0.27313400  0.03222200  1
  B  B3  1  0.27313400  0.72686600  0.96777800  1
  B  B4  1  0.62981000  0.37019000  0.15346400  1
  B  B5  1  0.37019000  0.62981000  0.84653700  1
  B  B6  1  0.62981000  0.37019000  0.34653700  1
  B  B7  1  0.37019000  0.62981000  0.65346300  1
  B  B8  1  0.52186600  0.47813400  0.09941000  1
  B  B9  1  0.47813400  0.52186600  0.90059000  1
  B  B10  1  0.52186600  0.47813400  0.40059000  1
  B  B11  1  0.47813400  0.52186600  0.59941000  1
  B  B12  1  0.46037200  0.53962800  0.25000000  1
  B  B13  1  0.53962800  0.46037200  0.75000000  1
loop_
_geom_bond_atom_site_label_1
_geom_bond_atom_site_label_2
_geom_bond_distance
_geom_bond_site_symmetry_2
B0 B6 1.907066 1_555
B0 B1 1.969899 1_655
B0 B1 1.969899 1_545
B0 Tb4 2.678533 1_655
B0 Tb4 2.678533 1_545
B0 Tb5 2.688081 1_555
B0 Tb0 2.688167 1_555
B0 Tb1 2.738484 1_655
B0 Tb1 2.738484 1_545
B1 B7 1.907066 1_555
B1 Tb5 2.678533 1_455
B1 Tb5 2.678533 1_565
B1 Tb4 2.688081 1_555
B1 Tb1 2.688167 1_555
B1 Tb0 2.738484 1_455
B1 Tb0 2.738484 1_565
B2 B4 1.907072 1_555
B2 B3 1.969899 1_544
B2 B3 1.969899 1_654
B2 Tb4 2.678533 1_655
B2 Tb4 2.678533 1_545
B2 Tb5 2.688081 1_554
B2 Tb2 2.688167 1_555
B2 Tb3 2.738484 1_544
B2 Tb3 2.738484 1_654
B3 B5 1.907066 1_555
B3 Tb5 2.678533 1_455
B3 Tb5 2.678533 1_565
B3 Tb4 2.688081 1_556
B3 Tb3 2.688167 1_555
B3 Tb2 2.738484 1_456
B3 Tb2 2.738484 1_566
B4 B8 1.779049 1_555
B4 B6 1.804918 1_555
B4 Mn0 2.290681 1_545
B4 Mn0 2.290681 1_655
B4 Tb4 2.619157 1_655
B4 Tb4 2.619157 1_545
B4 Tb3 2.666668 1_654
B4 Tb3 2.666668 1_544
B5 B9 1.779046 1_555
B5 B7 1.804928 1_555
B5 Mn1 2.290684 1_565
B5 Mn1 2.290684 1_455
B5 Tb5 2.619161 1_565
B5 Tb5 2.619161 1_455
B5 Tb2 2.666661 1_566
B5 Tb2 2.666661 1_456
B6 Mn0 2.290684 1_545
B6 Mn0 2.290684 1_655
B6 Tb4 2.619161 1_655
B6 Tb4 2.619161 1_545
B6 Tb1 2.666661 1_545
B6 Tb1 2.666661 1_655
B7 Mn1 2.290684 1_565
B7 Mn1 2.290684 1_455
B7 Tb5 2.619161 1_565
B7 Tb5 2.619161 1_455
B7 Tb0 2.666661 1_455
B7 Tb0 2.666661 1_565
B8 B9 1.982961 1_554
B8 Mn0 2.283967 1_545
B8 Mn0 2.283967 1_655
B8 Tb3 2.619565 1_654
B8 Tb3 2.619565 1_544
B8 Tb2 2.658097 1_565
B8 Tb2 2.658097 1_455
B9 Mn1 2.283967 1_565
B9 Mn1 2.283967 1_455
B9 Tb2 2.619565 1_566
B9 Tb2 2.619565 1_456
B9 Tb3 2.658097 1_655
B9 Tb3 2.658097 1_545
B10 B12 1.710592 1_555
B10 B6 1.779046 1_555
B10 B11 1.982961 1_555
B10 Mn0 2.283967 1_545
B10 Mn0 2.283967 1_655
B10 Tb1 2.619565 1_655
B10 Tb1 2.619565 1_545
B10 Tb0 2.658097 1_565
B10 Tb0 2.658097 1_455
B11 B13 1.710592 1_555
B11 B7 1.779046 1_555
B11 Mn1 2.283967 1_565
B11 Mn1 2.283967 1_455
B11 Tb0 2.619565 1_565
B11 Tb0 2.619565 1_455
B11 Tb1 2.658097 1_655
B11 Tb1 2.658097 1_545
B12 B8 1.710592 1_555
B12 Mn0 2.270250 1_545
B12 Mn0 2.270250 1_655
B12 Tb0 2.680739 1_565
B12 Tb2 2.680739 1_455
B12 Tb2 2.680739 1_565
B12 Tb0 2.680739 1_455
B13 B9 1.710592 1_555
B13 Mn1 2.270250 1_565
B13 Mn1 2.270250 1_455
B13 Tb1 2.680739 1_655
B13 Tb1 2.680739 1_545
B13 Tb3 2.680739 1_545
B13 Tb3 2.680739 1_655
