# generated using pymatgen
data_CeIn2Ni9
_symmetry_space_group_name_H-M   'P 1'
_cell_length_a   8.27270100
_cell_length_b   8.27270100
_cell_length_c   4.83124100
_cell_angle_alpha   90.00000000
_cell_angle_beta   90.00000000
_cell_angle_gamma   90.00000000
_symmetry_Int_Tables_number   1
_chemical_formula_structural   CeIn2Ni9
_chemical_formula_sum   'Ce2 In4 Ni18'
_cell_volume   330.63845130
_cell_formula_units_Z   2
loop_
 _symmetry_equiv_pos_site_id
 _symmetry_equiv_pos_as_xyz
  1  'x, y, z'
loop_
 _atom_site_type_symbol
 _atom_site_label
 _atom_site_symmetry_multiplicity
 _atom_site_fract_x
 _atom_site_fract_y
 _atom_site_fract_z
 _atom_site_occupancy
  Ce  Ce0  1  0.50000000  0.50000000  0.00000000  1
  Ce  Ce1  1  0.00000000  0.00000000  0.00000000  1
  In  In0  1  0.62348200  0.12348200  0.00000000  1
  In  In1  1  0.37651800  0.87651800  0.00000000  1
  In  In2  1  0.87651800  0.62348200  0.00000000  1
  In  In3  1  0.12348200  0.37651800  0.00000000  1
  Ni  Ni0  1  0.17607000  0.67607000  0.75424200  1
  Ni  Ni1  1  0.82393000  0.32393000  0.75424200  1
  Ni  Ni2  1  0.32393000  0.17607000  0.75424200  1
  Ni  Ni3  1  0.67607000  0.82393000  0.75424200  1
  Ni  Ni4  1  0.82393000  0.32393000  0.24575800  1
  Ni  Ni5  1  0.17607000  0.67607000  0.24575800  1
  Ni  Ni6  1  0.67607000  0.82393000  0.24575800  1
  Ni  Ni7  1  0.32393000  0.17607000  0.24575800  1
  Ni  Ni8  1  0.70488200  0.56431100  0.50000000  1
  Ni  Ni9  1  0.29511800  0.43568900  0.50000000  1
  Ni  Ni10  1  0.79511800  0.06431100  0.50000000  1
  Ni  Ni11  1  0.20488200  0.93568900  0.50000000  1
  Ni  Ni12  1  0.56431100  0.29511800  0.50000000  1
  Ni  Ni13  1  0.43568900  0.70488200  0.50000000  1
  Ni  Ni14  1  0.06431100  0.20488200  0.50000000  1
  Ni  Ni15  1  0.93568900  0.79511800  0.50000000  1
  Ni  Ni16  1  0.00000000  0.50000000  0.50000000  1
  Ni  Ni17  1  0.50000000  0.00000000  0.50000000  1
loop_
_geom_bond_atom_site_label_1
_geom_bond_atom_site_label_2
_geom_bond_distance
_geom_bond_site_symmetry_2
Ce0 Ni12 2.998508 1_554
Ce0 Ni8 2.998508 1_554
Ce0 Ni9 2.998508 1_554
Ce0 Ni12 2.998508 1_555
Ce0 Ni13 2.998508 1_555
Ce0 Ni8 2.998508 1_555
Ce0 Ni9 2.998508 1_555
Ce0 Ni13 2.998508 1_554
Ce0 Ni2 3.273000 1_554
Ce0 Ni5 3.273000 1_555
Ce0 Ni7 3.273000 1_555
Ce0 Ni0 3.273000 1_554
Ce0 Ni3 3.273000 1_554
Ce0 Ni6 3.273000 1_555
Ce0 Ni1 3.273000 1_554
Ce0 Ni4 3.273000 1_555
Ce0 In0 3.278053 1_555
Ce0 In2 3.278053 1_555
Ce0 In3 3.278053 1_555
Ce0 In1 3.278053 1_555
Ce1 Ni10 2.998508 1_455
Ce1 Ni14 2.998508 1_554
Ce1 Ni11 2.998508 1_544
Ce1 Ni15 2.998508 1_445
Ce1 Ni14 2.998508 1_555
Ce1 Ni15 2.998508 1_444
Ce1 Ni11 2.998508 1_545
Ce1 Ni10 2.998508 1_454
Ce1 Ni1 3.273000 1_454
Ce1 Ni4 3.273000 1_455
Ce1 Ni0 3.273000 1_544
Ce1 Ni7 3.273000 1_555
Ce1 Ni5 3.273000 1_545
Ce1 Ni6 3.273000 1_445
Ce1 Ni2 3.273000 1_554
Ce1 Ni3 3.273000 1_444
Ce1 In2 3.278053 1_445
Ce1 In3 3.278053 1_555
Ce1 In1 3.278053 1_545
Ce1 In0 3.278053 1_455
In0 Ni4 2.628551 1_555
In0 Ni1 2.628551 1_554
In0 Ni3 2.782083 1_544
In0 Ni6 2.782083 1_545
In0 Ni2 2.782083 1_554
In0 Ni7 2.782083 1_555
In0 Ni17 2.814652 1_554
In0 Ni17 2.814652 1_555
In0 Ni12 2.844457 1_554
In0 Ni10 2.844457 1_554
In0 Ni12 2.844457 1_555
In0 Ni10 2.844457 1_555
In0 In1 2.889322 1_545
In1 Ni5 2.628551 1_555
In1 Ni0 2.628551 1_554
In1 Ni2 2.782083 1_564
In1 Ni6 2.782083 1_555
In1 Ni7 2.782083 1_565
In1 Ni3 2.782083 1_554
In1 Ni17 2.814652 1_564
In1 Ni17 2.814652 1_565
In1 Ni13 2.844457 1_554
In1 Ni11 2.844457 1_555
In1 Ni13 2.844457 1_555
In1 Ni11 2.844457 1_554
In2 Ni3 2.628551 1_554
In2 Ni6 2.628551 1_555
In2 Ni5 2.782083 1_655
In2 Ni0 2.782083 1_654
In2 Ni4 2.782083 1_555
In2 Ni1 2.782083 1_554
In2 Ni16 2.814652 1_654
In2 Ni16 2.814652 1_655
In2 Ni8 2.844457 1_555
In2 Ni15 2.844457 1_555
In2 Ni15 2.844457 1_554
In2 Ni8 2.844457 1_554
In2 In3 2.889322 1_655
In3 Ni2 2.628551 1_554
In3 Ni7 2.628551 1_555
In3 Ni1 2.782083 1_454
In3 Ni5 2.782083 1_555
In3 Ni0 2.782083 1_554
In3 Ni4 2.782083 1_455
In3 Ni16 2.814652 1_554
In3 Ni16 2.814652 1_555
In3 Ni14 2.844457 1_555
In3 Ni9 2.844457 1_554
In3 Ni9 2.844457 1_555
In3 Ni14 2.844457 1_554
Ni0 Ni5 2.374632 1_556
Ni0 Ni16 2.398322 1_555
Ni0 Ni5 2.456609 1_555
Ni0 Ni13 2.485634 1_555
Ni0 Ni11 2.485634 1_555
Ni0 Ni9 2.536373 1_555
Ni0 Ni15 2.536373 1_455
Ni1 Ni4 2.374632 1_556
Ni1 Ni16 2.398322 1_655
Ni1 Ni4 2.456609 1_555
Ni1 Ni10 2.485634 1_555
Ni1 Ni12 2.485634 1_555
Ni1 Ni14 2.536373 1_655
Ni1 Ni8 2.536373 1_555
Ni2 Ni7 2.374632 1_556
Ni2 Ni7 2.456609 1_555
Ni2 Ni9 2.485634 1_555
Ni3 Ni6 2.374632 1_556
Ni3 Ni6 2.456609 1_555
Ni3 Ni8 2.485634 1_555
Ni4 Ni8 2.536373 1_555
Ni5 Ni9 2.536373 1_555
Ni6 Ni8 2.485634 1_555
Ni7 Ni9 2.485634 1_555
Ni10 Ni4 2.485634 1_555
Ni10 Ni17 2.498719 1_555
Ni10 Ni15 2.512302 1_545
Ni10 Ni14 2.512302 1_655
Ni10 Ni3 2.536373 1_545
Ni10 Ni6 2.536373 1_545
Ni10 Ni12 2.700296 1_555
Ni11 Ni5 2.485634 1_555
Ni11 Ni17 2.498719 1_565
Ni11 Ni15 2.512302 1_455
Ni11 Ni14 2.512302 1_565
Ni11 Ni2 2.536373 1_565
Ni11 Ni7 2.536373 1_565
Ni11 Ni13 2.700296 1_555
Ni12 Ni4 2.485634 1_555
Ni12 Ni17 2.498719 1_555
Ni12 Ni9 2.512302 1_555
Ni12 Ni8 2.512302 1_555
Ni12 Ni2 2.536373 1_555
Ni12 Ni7 2.536373 1_555
Ni13 Ni5 2.485634 1_555
Ni13 Ni17 2.498719 1_565
Ni13 Ni9 2.512302 1_555
Ni13 Ni8 2.512302 1_555
Ni13 Ni6 2.536373 1_555
Ni13 Ni3 2.536373 1_555
Ni14 Ni2 2.485634 1_555
Ni14 Ni7 2.485634 1_555
Ni14 Ni16 2.498719 1_555
Ni14 Ni4 2.536373 1_455
Ni14 Ni9 2.700296 1_555
Ni15 Ni6 2.485634 1_555
Ni15 Ni3 2.485634 1_555
Ni15 Ni16 2.498719 1_655
Ni15 Ni5 2.536373 1_655
Ni15 Ni8 2.700296 1_555
Ni16 Ni5 2.398322 1_555
Ni16 Ni4 2.398322 1_455
Ni16 Ni8 2.498719 1_455
Ni16 Ni9 2.498719 1_555
Ni17 Ni3 2.398322 1_545
Ni17 Ni6 2.398322 1_545
Ni17 Ni2 2.398322 1_555
Ni17 Ni7 2.398322 1_555
