# generated using pymatgen
data_Rb3Yb7Se12
_symmetry_space_group_name_H-M   'P 1'
_cell_length_a   4.39057900
_cell_length_b   13.89050200
_cell_length_c   22.97636800
_cell_angle_alpha   90.00000000
_cell_angle_beta   90.00000000
_cell_angle_gamma   90.00000000
_symmetry_Int_Tables_number   1
_chemical_formula_structural   Rb3Yb7Se12
_chemical_formula_sum   'Rb6 Yb14 Se24'
_cell_volume   1401.26771379
_cell_formula_units_Z   2
loop_
 _symmetry_equiv_pos_site_id
 _symmetry_equiv_pos_as_xyz
  1  'x, y, z'
loop_
 _atom_site_type_symbol
 _atom_site_label
 _atom_site_symmetry_multiplicity
 _atom_site_fract_x
 _atom_site_fract_y
 _atom_site_fract_z
 _atom_site_occupancy
  Rb  Rb0  1  0.00000000  0.01338500  0.38263600  1
  Rb  Rb1  1  0.00000000  0.50146000  0.60239300  1
  Rb  Rb2  1  0.50000000  0.49854000  0.10239300  1
  Rb  Rb3  1  0.50000000  0.98661500  0.88263600  1
  Rb  Rb4  1  0.50000000  0.76039400  0.49661000  1
  Rb  Rb5  1  0.00000000  0.23960600  0.99661000  1
  Yb  Yb0  1  0.50000000  0.48478000  0.40370200  1
  Yb  Yb1  1  0.50000000  0.02326800  0.59643400  1
  Yb  Yb2  1  0.00000000  0.97673200  0.09643400  1
  Yb  Yb3  1  0.00000000  0.51522000  0.90370200  1
  Yb  Yb4  1  0.00000000  0.41895100  0.26468700  1
  Yb  Yb5  1  0.00000000  0.08840800  0.73326500  1
  Yb  Yb6  1  0.50000000  0.91159200  0.23326500  1
  Yb  Yb7  1  0.50000000  0.58104900  0.76468700  1
  Yb  Yb8  1  0.00000000  0.24410200  0.49777700  1
  Yb  Yb9  1  0.50000000  0.75589800  0.99777700  1
  Yb  Yb10  1  0.00000000  0.69201800  0.32516600  1
  Yb  Yb11  1  0.00000000  0.81125600  0.67663600  1
  Yb  Yb12  1  0.50000000  0.18874400  0.17663600  1
  Yb  Yb13  1  0.50000000  0.30798200  0.82516600  1
  Se  Se0  1  0.00000000  0.59851400  0.43691300  1
  Se  Se1  1  0.00000000  0.90843400  0.56676500  1
  Se  Se2  1  0.50000000  0.09156600  0.06676500  1
  Se  Se3  1  0.50000000  0.40148600  0.93691300  1
  Se  Se4  1  0.50000000  0.55037300  0.28095700  1
  Se  Se5  1  0.50000000  0.95675100  0.71917700  1
  Se  Se6  1  0.00000000  0.04324900  0.21917700  1
  Se  Se7  1  0.00000000  0.44962700  0.78095700  1
  Se  Se8  1  0.00000000  0.62878200  0.00626500  1
  Se  Se9  1  0.00000000  0.88324300  0.98607200  1
  Se  Se10  1  0.50000000  0.11675700  0.48607200  1
  Se  Se11  1  0.50000000  0.37121800  0.50626500  1
  Se  Se12  1  0.00000000  0.32385100  0.15845900  1
  Se  Se13  1  0.00000000  0.17256600  0.84249300  1
  Se  Se14  1  0.50000000  0.82743400  0.34249300  1
  Se  Se15  1  0.50000000  0.67614900  0.65845900  1
  Se  Se16  1  0.00000000  0.29815300  0.36894100  1
  Se  Se17  1  0.00000000  0.20922400  0.62915600  1
  Se  Se18  1  0.50000000  0.79077600  0.12915600  1
  Se  Se19  1  0.50000000  0.70184700  0.86894100  1
  Se  Se20  1  0.00000000  0.74352700  0.17519600  1
  Se  Se21  1  0.00000000  0.74442700  0.82080100  1
  Se  Se22  1  0.50000000  0.25557300  0.32080100  1
  Se  Se23  1  0.50000000  0.25647300  0.67519600  1
loop_
_geom_bond_atom_site_label_1
_geom_bond_atom_site_label_2
_geom_bond_distance
_geom_bond_site_symmetry_2
Rb0 Se14 3.513069 1_545
Rb0 Se14 3.513069 1_445
Rb0 Se10 3.539664 1_455
Rb0 Se10 3.539664 1_555
Rb0 Se6 3.778534 1_555
Rb0 Se16 3.968066 1_555
Rb1 Se15 3.516636 1_555
Rb1 Se15 3.516636 1_455
Rb1 Se11 3.601454 1_455
Rb1 Se11 3.601454 1_555
Rb2 Se12 3.516636 1_655
Rb2 Se12 3.516636 1_555
Rb2 Se8 3.601454 1_555
Rb2 Se8 3.601454 1_655
Rb3 Se13 3.513069 1_665
Rb3 Se13 3.513069 1_565
Rb3 Se9 3.539664 1_555
Rb3 Se9 3.539664 1_655
Rb3 Se5 3.778534 1_555
Rb3 Se19 3.968066 1_555
Rb4 Se1 3.412641 1_555
Rb4 Se1 3.412641 1_655
Rb4 Se0 3.428821 1_555
Rb4 Se0 3.428821 1_655
Rb4 Se14 3.661447 1_555
Rb4 Se15 3.898477 1_555
Rb5 Se2 3.412641 1_456
Rb5 Se2 3.412641 1_556
Rb5 Se3 3.428821 1_455
Rb5 Se3 3.428821 1_555
Rb5 Se13 3.661447 1_555
Rb5 Se12 3.898477 1_556
Se0 Yb0 2.810233 1_455
Se0 Yb0 2.810233 1_555
Se0 Yb10 2.877358 1_555
Se1 Yb1 2.797917 1_565
Se1 Yb1 2.797917 1_465
Se1 Yb11 2.862670 1_555
Se2 Yb2 2.797917 1_545
Se2 Yb2 2.797917 1_645
Se2 Yb12 2.862670 1_555
Se3 Yb3 2.810233 1_555
Se3 Yb3 2.810233 1_655
Se3 Yb13 2.877358 1_555
Se4 Yb4 2.879506 1_655
Se4 Yb4 2.879506 1_555
Se4 Yb0 2.963758 1_555
Se4 Yb10 3.118045 1_555
Se4 Yb10 3.118045 1_655
Se5 Yb5 2.875503 1_565
Se5 Yb5 2.875503 1_665
Se5 Yb1 2.967685 1_565
Se5 Yb11 3.139923 1_555
Se5 Yb11 3.139923 1_655
Se6 Yb6 2.875503 1_445
Se6 Yb6 2.875503 1_545
Se6 Yb2 2.967685 1_545
Se6 Yb12 3.139923 1_455
Se6 Yb12 3.139923 1_555
Se7 Yb7 2.879506 1_555
Se7 Yb7 2.879506 1_455
Se7 Yb3 2.963758 1_555
Se7 Yb13 3.118045 1_455
Se7 Yb13 3.118045 1_555
Se8 Yb9 2.824012 1_554
Se8 Yb9 2.824012 1_454
Se8 Yb3 2.835755 1_554
Se9 Yb9 2.832063 1_555
Se9 Yb9 2.832063 1_455
Se9 Yb2 2.848903 1_556
Se10 Yb8 2.832063 1_555
Se10 Yb8 2.832063 1_655
Se10 Yb1 2.848903 1_555
Se11 Yb8 2.824012 1_655
Se11 Yb8 2.824012 1_555
Se11 Yb0 2.835755 1_555
Se12 Yb4 2.775281 1_555
Se12 Yb12 2.918174 1_555
Se12 Yb12 2.918174 1_455
Se13 Yb5 2.768567 1_555
Se13 Yb13 2.918208 1_455
Se13 Yb13 2.918208 1_555
Se14 Yb6 2.768567 1_555
Se14 Yb10 2.918208 1_555
Se14 Yb10 2.918208 1_655
Se15 Yb7 2.775281 1_555
Se15 Yb11 2.918174 1_655
Se15 Yb11 2.918174 1_555
Se16 Se22 2.528347 1_555
Se16 Se22 2.528347 1_455
Se16 Yb4 2.924609 1_555
Se16 Yb8 3.053912 1_555
Se16 Yb0 3.489617 1_455
Se16 Yb0 3.489617 1_555
Se17 Se23 2.523698 1_555
Se17 Se23 2.523698 1_455
Se17 Yb5 2.922024 1_555
Se17 Yb8 3.057243 1_555
Se17 Yb1 3.472255 1_555
Se17 Yb1 3.472255 1_455
Se18 Se20 2.523698 1_555
Se18 Se20 2.523698 1_655
Se18 Yb6 2.922024 1_555
Se18 Yb9 3.057243 1_554
Se18 Yb2 3.472255 1_655
Se18 Yb2 3.472255 1_555
Se19 Se21 2.528347 1_655
Se19 Se21 2.528347 1_555
Se19 Yb7 2.924609 1_555
Se19 Yb9 3.053912 1_555
Se19 Yb3 3.489617 1_555
Se19 Yb3 3.489617 1_655
Se20 Yb6 3.471217 1_455
Se20 Yb6 3.471217 1_555
Se20 Yb10 3.519265 1_555
Se20 Yb2 3.710549 1_555
Se21 Yb7 3.410538 1_555
Se21 Yb7 3.410538 1_455
Se21 Yb11 3.440005 1_555
Se22 Yb4 3.410538 1_655
Se22 Yb4 3.410538 1_555
Se22 Yb12 3.440005 1_555
Se23 Yb5 3.471217 1_555
Se23 Yb5 3.471217 1_655
Se23 Yb13 3.519265 1_555
Se23 Yb1 3.710549 1_555
