# generated using pymatgen
data_Sr7CaFe6(CoO10)2
_symmetry_space_group_name_H-M   'P 1'
_cell_length_a   11.01309516
_cell_length_b   11.40126484
_cell_length_c   17.71306116
_cell_angle_alpha   108.72705031
_cell_angle_beta   108.04807259
_cell_angle_gamma   90.34148599
_symmetry_Int_Tables_number   1
_chemical_formula_structural   Sr7CaFe6(CoO10)2
_chemical_formula_sum   'Sr28 Ca4 Fe24 Co8 O80'
_cell_volume   1988.94778511
_cell_formula_units_Z   4
loop_
 _symmetry_equiv_pos_site_id
 _symmetry_equiv_pos_as_xyz
  1  'x, y, z'
loop_
 _atom_site_type_symbol
 _atom_site_label
 _atom_site_symmetry_multiplicity
 _atom_site_fract_x
 _atom_site_fract_y
 _atom_site_fract_z
 _atom_site_occupancy
  Sr  Sr0  1  0.30998000  0.06300800  0.60898400  1
  Sr  Sr1  1  0.30618600  0.56369600  0.60908800  1
  Sr  Sr2  1  0.80240400  0.06333700  0.60979100  1
  Sr  Sr3  1  0.80782400  0.56542500  0.10957800  1
  Sr  Sr4  1  0.80708400  0.56348000  0.60946800  1
  Sr  Sr5  1  0.19703200  0.43390800  0.38952800  1
  Sr  Sr6  1  0.19743500  0.43774800  0.89272300  1
  Sr  Sr7  1  0.20041100  0.93693400  0.38817000  1
  Sr  Sr8  1  0.19670600  0.93572900  0.89281500  1
  Sr  Sr9  1  0.69607900  0.43626100  0.39007100  1
  Sr  Sr10  1  0.69971200  0.44036000  0.89272000  1
  Sr  Sr11  1  0.69098000  0.93630000  0.38945800  1
  Sr  Sr12  1  0.70001300  0.93495800  0.89304800  1
  Sr  Sr13  1  0.05396100  0.29106300  0.11059000  1
  Sr  Sr14  1  0.05631500  0.29530300  0.60885300  1
  Sr  Sr15  1  0.05646100  0.79654400  0.60893900  1
  Sr  Sr16  1  0.55769900  0.29406300  0.10980900  1
  Sr  Sr17  1  0.55631500  0.29289800  0.60874000  1
  Sr  Sr18  1  0.55687200  0.79766900  0.10989000  1
  Sr  Sr19  1  0.55631200  0.79807300  0.60913100  1
  Sr  Sr20  1  0.44544300  0.20007500  0.38661200  1
  Sr  Sr21  1  0.44684600  0.20811100  0.89202300  1
  Sr  Sr22  1  0.44616500  0.70600400  0.38746700  1
  Sr  Sr23  1  0.45078800  0.70833400  0.89287200  1
  Sr  Sr24  1  0.94602200  0.20147400  0.38832700  1
  Sr  Sr25  1  0.94861000  0.20351400  0.89318500  1
  Sr  Sr26  1  0.94609900  0.70469700  0.38922700  1
  Sr  Sr27  1  0.94851800  0.70507000  0.89280800  1
  Ca  Ca0  1  0.29680900  0.06555500  0.10530500  1
  Ca  Ca1  1  0.30001300  0.56518100  0.10520700  1
  Ca  Ca2  1  0.79868600  0.06802600  0.10659200  1
  Ca  Ca3  1  0.05409000  0.78547000  0.10517600  1
  Fe  Fe0  1  0.00363500  0.99994500  0.49895600  1
  Fe  Fe1  1  0.00347900  0.49938200  0.49886300  1
  Fe  Fe2  1  0.50419100  0.50052300  0.50026800  1
  Fe  Fe3  1  0.25600300  0.25189700  0.00554000  1
  Fe  Fe4  1  0.25493400  0.24860200  0.49982300  1
  Fe  Fe5  1  0.25476200  0.75066300  0.49924300  1
  Fe  Fe6  1  0.75234000  0.24873800  0.49927000  1
  Fe  Fe7  1  0.75282800  0.75095300  0.50011700  1
  Fe  Fe8  1  0.10381600  0.08470200  0.24584200  1
  Fe  Fe9  1  0.10822600  0.09096300  0.75037300  1
  Fe  Fe10  1  0.11030800  0.59140400  0.24912500  1
  Fe  Fe11  1  0.10890700  0.59122300  0.75071400  1
  Fe  Fe12  1  0.60538200  0.09010400  0.24816700  1
  Fe  Fe13  1  0.61006600  0.09213300  0.75373100  1
  Fe  Fe14  1  0.60418000  0.59066800  0.24793400  1
  Fe  Fe15  1  0.60801800  0.59084100  0.74880300  1
  Fe  Fe16  1  0.35691700  0.40790800  0.24746500  1
  Fe  Fe17  1  0.35745700  0.40984200  0.74943800  1
  Fe  Fe18  1  0.34897000  0.90601200  0.24161200  1
  Fe  Fe19  1  0.35746800  0.90907700  0.74953300  1
  Fe  Fe20  1  0.85781200  0.40743900  0.25019500  1
  Fe  Fe21  1  0.85811400  0.40863600  0.75016600  1
  Fe  Fe22  1  0.85826700  0.91274400  0.24868800  1
  Fe  Fe23  1  0.85792400  0.90774700  0.74961600  1
  Co  Co0  1  0.00808500  0.00053900  0.00792800  1
  Co  Co1  1  0.00939100  0.50220800  0.00608800  1
  Co  Co2  1  0.50689100  0.00380800  0.00419800  1
  Co  Co3  1  0.50366700  0.00027000  0.49962000  1
  Co  Co4  1  0.50548200  0.50276500  0.00602600  1
  Co  Co5  1  0.25599000  0.75394600  0.00692700  1
  Co  Co6  1  0.75775600  0.24873200  0.99979500  1
  Co  Co7  1  0.76221700  0.75724500  0.00952200  1
  O  O0  1  0.12504800  0.12205500  0.49170900  1
  O  O1  1  0.12786400  0.12196500  0.99445700  1
  O  O2  1  0.12403400  0.62188200  0.49097100  1
  O  O3  1  0.13184500  0.62460100  0.99629400  1
  O  O4  1  0.62236900  0.12140500  0.49155000  1
  O  O5  1  0.63234500  0.13333600  0.99452200  1
  O  O6  1  0.62361100  0.62269500  0.49135300  1
  O  O7  1  0.63581100  0.63656000  0.99411400  1
  O  O8  1  0.13289400  0.38399700  0.01399500  1
  O  O9  1  0.13209200  0.37672400  0.50656000  1
  O  O10  1  0.13224300  0.88180300  0.01580800  1
  O  O11  1  0.13242400  0.87743500  0.50653500  1
  O  O12  1  0.62727600  0.38939400  0.00920500  1
  O  O13  1  0.63139300  0.37704100  0.50690300  1
  O  O14  1  0.63713600  0.88954100  0.01374000  1
  O  O15  1  0.62980100  0.87791400  0.50630000  1
  O  O16  1  0.37508700  0.11907100  0.49136200  1
  O  O17  1  0.37642500  0.11960100  0.99458200  1
  O  O18  1  0.37382900  0.61969900  0.49083100  1
  O  O19  1  0.38361000  0.61454900  0.99432000  1
  O  O20  1  0.87287500  0.11946400  0.49108000  1
  O  O21  1  0.87744700  0.11215900  0.99546200  1
  O  O22  1  0.87372800  0.61994300  0.49129900  1
  O  O23  1  0.88527300  0.61517100  0.99457800  1
  O  O24  1  0.37932800  0.38338200  0.01464700  1
  O  O25  1  0.38093900  0.37792900  0.50487900  1
  O  O26  1  0.37649800  0.87699200  0.01197700  1
  O  O27  1  0.38279800  0.88012000  0.50623300  1
  O  O28  1  0.88141100  0.37767200  0.01088200  1
  O  O29  1  0.88141300  0.37930900  0.50679000  1
  O  O30  1  0.88446900  0.87647400  0.01525100  1
  O  O31  1  0.88055900  0.87945500  0.50607200  1
  O  O32  1  0.09753400  0.10056600  0.14364800  1
  O  O33  1  0.08150500  0.09253600  0.63929200  1
  O  O34  1  0.08834400  0.60030100  0.13993300  1
  O  O35  1  0.08114100  0.59391100  0.63961400  1
  O  O36  1  0.59831900  0.10139900  0.14433200  1
  O  O37  1  0.58788200  0.10165800  0.64748200  1
  O  O38  1  0.59049000  0.60129000  0.14198000  1
  O  O39  1  0.57874700  0.59250800  0.63718100  1
  O  O40  1  0.44169600  0.40658400  0.35799500  1
  O  O41  1  0.44208200  0.40287900  0.85715200  1
  O  O42  1  0.43534000  0.90017200  0.34866700  1
  O  O43  1  0.44270600  0.90064900  0.85635700  1
  O  O44  1  0.94077100  0.40585700  0.36087600  1
  O  O45  1  0.94275100  0.40323600  0.85971100  1
  O  O46  1  0.94367900  0.91009700  0.35927300  1
  O  O47  1  0.94284300  0.89748400  0.85552500  1
  O  O48  1  0.33288000  0.28416000  0.14131200  1
  O  O49  1  0.33004300  0.29681700  0.63817300  1
  O  O50  1  0.33246000  0.78168400  0.13713800  1
  O  O51  1  0.32995100  0.79671900  0.63784800  1
  O  O52  1  0.83555000  0.28766700  0.14380300  1
  O  O53  1  0.83102600  0.29639000  0.63911600  1
  O  O54  1  0.84210900  0.79298400  0.14292000  1
  O  O55  1  0.82898600  0.79614900  0.63751500  1
  O  O56  1  0.18889500  0.19681900  0.35770000  1
  O  O57  1  0.19184200  0.20567700  0.86054100  1
  O  O58  1  0.19077600  0.70402600  0.35955100  1
  O  O59  1  0.19241000  0.70347100  0.86037400  1
  O  O60  1  0.68558900  0.20247800  0.36005200  1
  O  O61  1  0.69492000  0.20725900  0.86365200  1
  O  O62  1  0.68646100  0.70281700  0.35891900  1
  O  O63  1  0.69483900  0.70537600  0.85609200  1
  O  O64  1  0.42438900  0.05830800  0.23807700  1
  O  O65  1  0.43350800  0.06355300  0.75120400  1
  O  O66  1  0.42507600  0.55920500  0.23992600  1
  O  O67  1  0.43381300  0.56387900  0.75048700  1
  O  O68  1  0.92465300  0.06461500  0.24131300  1
  O  O69  1  0.93427000  0.06238600  0.75066200  1
  O  O70  1  0.93663800  0.55876000  0.24874000  1
  O  O71  1  0.93438600  0.56179800  0.75054800  1
  O  O72  1  0.18429800  0.43904200  0.24922700  1
  O  O73  1  0.18320700  0.43769200  0.75014600  1
  O  O74  1  0.17118600  0.92603400  0.23996500  1
  O  O75  1  0.18342000  0.93826800  0.75084500  1
  O  O76  1  0.68406000  0.44027800  0.24969400  1
  O  O77  1  0.68422700  0.43839500  0.74972400  1
  O  O78  1  0.68441700  0.93875800  0.25020800  1
  O  O79  1  0.68465300  0.93814100  0.75146700  1
loop_
_geom_bond_atom_site_label_1
_geom_bond_atom_site_label_2
_geom_bond_distance
_geom_bond_site_symmetry_2
Ca0 O48 2.363682 1_555
Ca0 O64 2.364447 1_555
Ca0 O32 2.489372 1_555
Ca0 O10 2.495746 1_545
Ca0 O1 2.508414 1_554
Ca0 O26 2.600828 1_545
Ca0 O17 2.613445 1_554
Ca1 O50 2.346999 1_555
Ca1 O66 2.380131 1_555
Ca1 O8 2.496809 1_555
Ca1 O3 2.500213 1_554
Ca1 O24 2.527292 1_555
Ca1 O34 2.591198 1_555
Ca1 O19 2.616582 1_554
Ca2 O68 2.372667 1_555
Ca2 O52 2.373273 1_555
Ca2 O14 2.450731 1_545
Ca2 O36 2.494339 1_555
Ca2 O5 2.561861 1_554
Ca2 O21 2.563036 1_554
Ca2 O30 2.642461 1_545
Ca3 O74 2.354213 1_555
Ca3 O34 2.382964 1_555
Ca3 O23 2.514364 1_454
Ca3 O30 2.518712 1_455
Ca3 O10 2.530279 1_555
Ca3 O3 2.566622 1_554
Ca3 O54 2.614812 1_455
Ca3 O50 2.943265 1_555
Fe0 O31 1.983718 1_455
Fe0 O0 1.985338 1_565
Fe0 O20 1.992764 1_465
Fe0 O11 2.001695 1_555
Fe0 O46 2.226935 1_455
Fe0 O33 2.238808 1_565
Fe1 O29 1.979771 1_455
Fe1 O2 1.987762 1_555
Fe1 O22 1.993062 1_455
Fe1 O9 2.001728 1_555
Fe1 O44 2.204476 1_455
Fe1 O35 2.247478 1_555
Fe2 O25 1.980452 1_555
Fe2 O6 1.985686 1_555
Fe2 O18 1.988909 1_555
Fe2 O13 1.996517 1_555
Fe2 O39 2.185897 1_555
Fe2 O40 2.270462 1_555
Fe3 O24 1.950047 1_555
Fe3 O1 1.959907 1_554
Fe3 O17 2.016676 1_554
Fe3 O8 2.033306 1_555
Fe3 O48 2.191448 1_555
Fe3 O57 2.318513 1_554
Fe4 O0 1.965541 1_555
Fe4 O25 1.980323 1_555
Fe4 O16 1.989601 1_555
Fe4 O9 1.997488 1_555
Fe4 O49 2.205761 1_555
Fe4 O56 2.262967 1_555
Fe5 O27 1.982877 1_555
Fe5 O11 1.982975 1_555
Fe5 O2 1.988974 1_555
Fe5 O18 1.993178 1_555
Fe5 O51 2.212766 1_555
Fe5 O58 2.229825 1_555
Fe6 O4 1.975254 1_555
Fe6 O13 1.984983 1_555
Fe6 O20 1.990201 1_555
Fe6 O29 1.996161 1_555
Fe6 O60 2.221844 1_555
Fe6 O53 2.232103 1_555
Fe7 O6 1.969804 1_555
Fe7 O31 1.980077 1_555
Fe7 O15 1.989121 1_555
Fe7 O22 2.007756 1_555
Fe7 O55 2.194729 1_555
Fe7 O62 2.252066 1_555
Fe8 O32 1.856608 1_555
Fe8 O56 1.909646 1_555
Fe8 O74 1.943400 1_545
Fe8 O68 1.958800 1_455
Fe9 O57 1.897343 1_555
Fe9 O33 1.903222 1_555
Fe9 O75 1.933618 1_545
Fe9 O69 1.943233 1_455
Fe10 O58 1.886696 1_555
Fe10 O34 1.909455 1_555
Fe10 O72 1.923424 1_555
Fe10 O70 1.943856 1_455
Fe11 O59 1.881333 1_555
Fe11 O35 1.906075 1_555
Fe11 O73 1.935098 1_555
Fe11 O71 1.948046 1_455
Fe12 O36 1.862520 1_555
Fe12 O60 1.902827 1_555
Fe12 O78 1.942903 1_545
Fe12 O64 1.966117 1_555
Fe13 O37 1.860117 1_555
Fe13 O61 1.898433 1_555
Fe13 O79 1.936814 1_545
Fe13 O65 1.954026 1_555
Fe14 O38 1.878961 1_555
Fe14 O62 1.894481 1_555
Fe14 O76 1.936538 1_555
Fe14 O66 1.955771 1_555
Fe15 O63 1.869954 1_555
Fe15 O39 1.908597 1_555
Fe15 O77 1.937191 1_555
Fe15 O67 1.952046 1_555
Fe16 O48 1.892046 1_555
Fe16 O40 1.895135 1_555
Fe16 O66 1.936861 1_555
Fe16 O72 1.943897 1_555
Fe17 O41 1.873895 1_555
Fe17 O49 1.905735 1_555
Fe17 O67 1.934824 1_555
Fe17 O73 1.950200 1_555
Fe18 O42 1.862591 1_555
Fe18 O50 1.889699 1_555
Fe18 O64 1.947724 1_565
Fe18 O74 1.964879 1_555
Fe19 O43 1.867620 1_555
Fe19 O51 1.908686 1_555
Fe19 O65 1.933304 1_565
Fe19 O75 1.953380 1_555
Fe20 O52 1.879777 1_555
Fe20 O44 1.895164 1_555
Fe20 O70 1.937871 1_555
Fe20 O76 1.949891 1_555
Fe21 O45 1.895888 1_555
Fe21 O53 1.900370 1_555
Fe21 O71 1.930387 1_555
Fe21 O77 1.944915 1_555
Fe22 O54 1.885172 1_555
Fe22 O46 1.902427 1_555
Fe22 O68 1.933674 1_565
Fe22 O78 1.946296 1_555
Fe23 O47 1.860847 1_555
Fe23 O55 1.908936 1_555
Fe23 O69 1.940992 1_565
Fe23 O79 1.949854 1_555
Co0 O21 1.934851 1_454
Co0 O10 1.935695 1_545
Co0 O30 2.018739 1_445
Co0 O1 2.024607 1_554
Co0 O32 2.192958 1_555
Co0 O47 2.436308 1_444
Co1 O23 1.893594 1_454
Co1 O8 1.926419 1_555
Co1 O3 2.018423 1_554
Co1 O28 2.034092 1_455
Co1 O34 2.153152 1_555
Co1 O45 2.338129 1_454
Co2 O14 1.948531 1_545
Co2 O17 1.962589 1_554
Co2 O26 2.097015 1_545
Co2 O5 2.098599 1_554
Co2 O36 2.253384 1_555
Co2 O43 2.367706 1_544
Co3 O27 1.959616 1_545
Co3 O4 1.964142 1_555
Co3 O16 1.970531 1_555
Co3 O15 1.979135 1_545
Co3 O37 2.365178 1_555
Co3 O42 2.408674 1_545
Co4 O19 1.867189 1_554
Co4 O12 1.869139 1_555
Co4 O24 2.012119 1_555
Co4 O38 2.188841 1_555
Co4 O7 2.190857 1_554
Co4 O41 2.378986 1_554
Co5 O26 1.887091 1_555
Co5 O3 1.928096 1_554
Co5 O10 2.004078 1_555
Co5 O50 2.110401 1_555
Co5 O19 2.131751 1_554
Co5 O59 2.338767 1_554
Co6 O5 1.861934 1_555
Co6 O28 1.918152 1_556
Co6 O21 2.044126 1_555
Co6 O12 2.160761 1_556
Co6 O61 2.178925 1_555
Co6 O52 2.313438 1_556
Co7 O7 1.845634 1_554
Co7 O30 1.864358 1_555
Co7 O14 2.048033 1_555
Co7 O23 2.122183 1_554
Co7 O54 2.147718 1_555
Co7 O63 2.449389 1_554
O0 Sr24 2.628572 1_455
O0 Sr7 2.643029 1_545
O0 Sr14 2.671966 1_555
O0 Sr0 2.685001 1_555
O1 Sr8 2.595188 1_545
O1 Sr25 2.622611 1_455
O1 Sr13 2.668414 1_556
O2 Sr26 2.627913 1_455
O2 Sr5 2.628870 1_555
O2 Sr1 2.673606 1_555
O2 Sr15 2.682342 1_555
O3 Sr6 2.599177 1_555
O3 Sr27 2.662123 1_455
O4 Sr11 2.590394 1_545
O4 Sr20 2.627429 1_555
O4 Sr17 2.647177 1_555
O4 Sr2 2.662521 1_555
O5 Sr16 2.619017 1_556
O5 Sr21 2.629263 1_555
O5 Sr12 2.672319 1_545
O6 Sr9 2.613875 1_555
O6 Sr22 2.650191 1_555
O6 Sr19 2.682707 1_555
O6 Sr4 2.686937 1_555
O7 Sr23 2.595313 1_555
O7 Sr10 2.635701 1_555
O7 Sr18 2.653355 1_556
O7 Sr3 2.666856 1_556
O8 Sr13 2.623088 1_555
O8 Sr6 2.698391 1_554
O8 Sr25 2.713701 1_454
O9 Sr1 2.612721 1_555
O9 Sr14 2.617066 1_555
O9 Sr5 2.648549 1_555
O9 Sr24 2.680027 1_455
O10 Sr27 2.702201 1_454
O10 Sr8 2.727907 1_554
O11 Sr15 2.616467 1_555
O11 Sr0 2.622944 1_565
O11 Sr26 2.662542 1_455
O11 Sr7 2.701200 1_555
O12 Sr3 2.571638 1_555
O12 Sr10 2.648683 1_554
O12 Sr16 2.650261 1_555
O12 Sr21 2.677572 1_554
O13 Sr4 2.618374 1_555
O13 Sr17 2.623691 1_555
O13 Sr9 2.655368 1_555
O13 Sr20 2.700220 1_555
O14 Sr18 2.616568 1_555
O14 Sr12 2.634724 1_554
O14 Sr23 2.729558 1_554
O15 Sr2 2.597599 1_565
O15 Sr19 2.602051 1_555
O15 Sr11 2.631312 1_555
O15 Sr22 2.651068 1_555
O16 Sr7 2.586557 1_545
O16 Sr20 2.622710 1_555
O16 Sr17 2.640026 1_555
O16 Sr0 2.653066 1_555
O17 Sr8 2.622008 1_545
O17 Sr16 2.632266 1_556
O17 Sr21 2.638330 1_555
O18 Sr5 2.615957 1_555
O18 Sr22 2.646940 1_555
O18 Sr1 2.677769 1_555
O18 Sr19 2.677910 1_555
O19 Sr6 2.615509 1_555
O19 Sr23 2.639671 1_555
O19 Sr18 2.641650 1_556
O20 Sr24 2.613072 1_555
O20 Sr11 2.629854 1_545
O20 Sr14 2.665946 1_655
O20 Sr2 2.702338 1_555
O21 Sr12 2.567895 1_545
O21 Sr13 2.631263 1_656
O21 Sr25 2.657591 1_555
O22 Sr9 2.606683 1_555
O22 Sr26 2.615999 1_555
O22 Sr15 2.665585 1_655
O22 Sr4 2.673169 1_555
O23 Sr27 2.596378 1_555
O23 Sr10 2.600311 1_555
O23 Sr3 2.647878 1_556
O24 Sr16 2.609900 1_555
O24 Sr6 2.693478 1_554
O24 Sr21 2.737763 1_554
O25 Sr5 2.640609 1_555
O25 Sr17 2.649645 1_555
O25 Sr1 2.650060 1_555
O25 Sr20 2.686368 1_555
O26 Sr18 2.581811 1_555
O26 Sr8 2.675456 1_554
O26 Sr23 2.702077 1_554
O27 Sr0 2.605949 1_565
O27 Sr19 2.608960 1_555
O27 Sr22 2.664207 1_555
O27 Sr7 2.666480 1_555
O28 Sr13 2.601552 1_655
O28 Sr3 2.605928 1_555
O28 Sr25 2.674342 1_554
O28 Sr10 2.697821 1_554
O29 Sr14 2.621457 1_655
O29 Sr4 2.622550 1_555
O29 Sr9 2.669292 1_555
O29 Sr24 2.689001 1_555
O30 Sr27 2.695037 1_554
O30 Sr12 2.734056 1_554
O31 Sr15 2.628132 1_655
O31 Sr2 2.653201 1_565
O31 Sr26 2.658822 1_555
O31 Sr11 2.692459 1_555
O32 Sr13 2.438295 1_555
O33 Sr14 2.535235 1_555
O33 Sr0 2.732022 1_555
O33 Sr2 2.951740 1_455
O34 Sr3 2.968226 1_455
O35 Sr15 2.535445 1_555
O35 Sr1 2.697158 1_555
O35 Sr4 2.895696 1_455
O36 Sr16 2.470609 1_555
O37 Sr17 2.483510 1_555
O37 Sr2 2.649641 1_555
O37 Sr0 2.919589 1_555
O38 Sr18 2.483914 1_555
O38 Sr3 2.633956 1_555
O39 Sr19 2.545469 1_555
O39 Sr4 2.710108 1_555
O39 Sr1 2.885084 1_555
O40 Sr20 2.560603 1_555
O40 Sr9 2.676736 1_555
O40 Sr5 2.915513 1_555
O41 Sr21 2.485435 1_555
O41 Sr10 2.708298 1_555
O41 Sr6 2.952663 1_555
O42 Sr22 2.513287 1_555
O42 Sr11 2.674461 1_555
O42 Sr7 2.881970 1_555
O43 Sr23 2.472085 1_555
O43 Sr12 2.699611 1_555
O43 Sr8 2.974564 1_555
O44 Sr24 2.526155 1_555
O44 Sr5 2.705980 1_655
O44 Sr9 2.899854 1_555
O45 Sr25 2.527021 1_555
O45 Sr6 2.680824 1_655
O45 Sr10 2.917117 1_555
O46 Sr26 2.560502 1_555
O46 Sr7 2.709661 1_655
O46 Sr11 2.991578 1_555
O46 Sr24 3.192896 1_565
O47 Sr27 2.481725 1_555
O47 Sr8 2.664447 1_655
O47 Sr12 2.951082 1_555
O48 Sr16 2.710662 1_555
O48 Sr13 2.955107 1_555
O49 Sr0 2.541532 1_555
O49 Sr17 2.697224 1_555
O49 Sr14 2.895049 1_555
O50 Sr18 2.676670 1_555
O51 Sr1 2.535036 1_555
O51 Sr19 2.695185 1_555
O51 Sr15 2.894441 1_555
O52 Sr13 2.650247 1_655
O52 Sr16 2.936094 1_555
O53 Sr2 2.536072 1_555
O53 Sr14 2.695129 1_655
O53 Sr17 2.901792 1_555
O54 Sr3 2.467558 1_555
O54 Sr18 3.016031 1_555
O55 Sr4 2.532550 1_555
O55 Sr15 2.705425 1_655
O55 Sr19 2.888515 1_555
O56 Sr5 2.572927 1_555
O56 Sr20 2.708586 1_555
O56 Sr24 2.886852 1_455
O56 Sr7 3.174239 1_545
O57 Sr6 2.517409 1_555
O57 Sr21 2.686541 1_555
O57 Sr25 2.911822 1_455
O58 Sr7 2.533489 1_555
O58 Sr22 2.699293 1_555
O58 Sr26 2.900492 1_455
O59 Sr8 2.519744 1_555
O59 Sr23 2.719230 1_555
O59 Sr27 2.914625 1_455
O60 Sr9 2.539440 1_555
O60 Sr24 2.755244 1_555
O60 Sr20 2.827574 1_555
O61 Sr10 2.536494 1_555
O61 Sr25 2.681710 1_555
O61 Sr21 2.926553 1_555
O62 Sr11 2.537409 1_555
O62 Sr26 2.739642 1_555
O62 Sr22 2.842361 1_555
O63 Sr12 2.481545 1_555
O63 Sr27 2.665328 1_555
O63 Sr23 2.953231 1_555
O64 Sr20 2.544670 1_555
O65 Sr0 2.462362 1_555
O65 Sr21 2.467788 1_555
O66 Sr22 2.548662 1_555
O67 Sr1 2.462511 1_555
O67 Sr23 2.478965 1_555
O68 Sr24 2.505606 1_555
O69 Sr2 2.471365 1_555
O69 Sr25 2.475630 1_555
O70 Sr3 2.459518 1_555
O70 Sr26 2.479983 1_555
O71 Sr4 2.463929 1_555
O71 Sr27 2.480541 1_555
O72 Sr13 2.462496 1_555
O72 Sr5 2.465089 1_555
O73 Sr14 2.459463 1_555
O73 Sr6 2.481197 1_555
O74 Sr7 2.505398 1_555
O75 Sr15 2.464023 1_555
O75 Sr8 2.482918 1_555
O76 Sr16 2.457341 1_555
O76 Sr9 2.464060 1_555
O77 Sr17 2.470800 1_555
O77 Sr10 2.478107 1_555
O78 Sr18 2.445548 1_555
O78 Sr11 2.454341 1_555
O79 Sr19 2.466618 1_555
O79 Sr12 2.472814 1_555
