# generated using pymatgen
data_LiHfMg30O31
_symmetry_space_group_name_H-M   'P 1'
_cell_length_a   8.56694800
_cell_length_b   8.56694800
_cell_length_c   8.56846100
_cell_angle_alpha   90.00000000
_cell_angle_beta   90.00000000
_cell_angle_gamma   90.00000000
_symmetry_Int_Tables_number   1
_chemical_formula_structural   LiHfMg30O31
_chemical_formula_sum   'Li1 Hf1 Mg30 O31'
_cell_volume   628.86161395
_cell_formula_units_Z   1
loop_
 _symmetry_equiv_pos_site_id
 _symmetry_equiv_pos_as_xyz
  1  'x, y, z'
loop_
 _atom_site_type_symbol
 _atom_site_label
 _atom_site_symmetry_multiplicity
 _atom_site_fract_x
 _atom_site_fract_y
 _atom_site_fract_z
 _atom_site_occupancy
  Li  Li0  1  0.00000000  0.00000000  0.99377400  1
  Hf  Hf0  1  0.50000000  0.50000000  0.99990500  1
  Mg  Mg0  1  0.00000000  0.50000000  0.99962100  1
  Mg  Mg1  1  0.50000000  0.00000000  0.99962100  1
  Mg  Mg2  1  0.00000000  0.00000000  0.49996400  1
  Mg  Mg3  1  0.00000000  0.50000000  0.50075600  1
  Mg  Mg4  1  0.50000000  0.00000000  0.50075600  1
  Mg  Mg5  1  0.50000000  0.50000000  0.50016500  1
  Mg  Mg6  1  0.24043500  0.24043500  0.00025500  1
  Mg  Mg7  1  0.24043500  0.75956500  0.00025500  1
  Mg  Mg8  1  0.75956500  0.24043500  0.00025500  1
  Mg  Mg9  1  0.75956500  0.75956500  0.00025500  1
  Mg  Mg10  1  0.24817200  0.24817200  0.50012800  1
  Mg  Mg11  1  0.24817200  0.75182800  0.50012800  1
  Mg  Mg12  1  0.75182800  0.24817200  0.50012800  1
  Mg  Mg13  1  0.75182800  0.75182800  0.50012800  1
  Mg  Mg14  1  0.00000000  0.24827900  0.24865400  1
  Mg  Mg15  1  0.00000000  0.75172100  0.24865400  1
  Mg  Mg16  1  0.50000000  0.24484600  0.25506300  1
  Mg  Mg17  1  0.50000000  0.75515400  0.25506300  1
  Mg  Mg18  1  0.00000000  0.24623000  0.75189600  1
  Mg  Mg19  1  0.00000000  0.75377000  0.75189600  1
  Mg  Mg20  1  0.50000000  0.24434500  0.74513800  1
  Mg  Mg21  1  0.50000000  0.75565500  0.74513800  1
  Mg  Mg22  1  0.24827900  0.00000000  0.24865400  1
  Mg  Mg23  1  0.24484600  0.50000000  0.25506300  1
  Mg  Mg24  1  0.75172100  0.00000000  0.24865400  1
  Mg  Mg25  1  0.75515400  0.50000000  0.25506300  1
  Mg  Mg26  1  0.24623000  0.00000000  0.75189600  1
  Mg  Mg27  1  0.24434500  0.50000000  0.74513800  1
  Mg  Mg28  1  0.75377000  0.00000000  0.75189600  1
  Mg  Mg29  1  0.75565500  0.50000000  0.74513800  1
  O  O0  1  0.00000000  0.50000000  0.25088200  1
  O  O1  1  0.50000000  0.00000000  0.25088200  1
  O  O2  1  0.50000000  0.50000000  0.25269400  1
  O  O3  1  0.00000000  0.00000000  0.74396200  1
  O  O4  1  0.00000000  0.50000000  0.74966400  1
  O  O5  1  0.50000000  0.00000000  0.74966400  1
  O  O6  1  0.50000000  0.50000000  0.74736000  1
  O  O7  1  0.25183900  0.25183900  0.24938000  1
  O  O8  1  0.25183900  0.74816100  0.24938000  1
  O  O9  1  0.74816100  0.25183900  0.24938000  1
  O  O10  1  0.74816100  0.74816100  0.24938000  1
  O  O11  1  0.25078100  0.25078100  0.75092800  1
  O  O12  1  0.25078100  0.74921900  0.75092800  1
  O  O13  1  0.74921900  0.25078100  0.75092800  1
  O  O14  1  0.74921900  0.74921900  0.75092800  1
  O  O15  1  0.00000000  0.25798500  0.99980300  1
  O  O16  1  0.00000000  0.74201500  0.99980300  1
  O  O17  1  0.50000000  0.25154900  0.00003400  1
  O  O18  1  0.50000000  0.74845100  0.00003400  1
  O  O19  1  0.00000000  0.25284700  0.50115100  1
  O  O20  1  0.00000000  0.74715300  0.50115100  1
  O  O21  1  0.50000000  0.25073600  0.50015200  1
  O  O22  1  0.50000000  0.74926400  0.50015200  1
  O  O23  1  0.25798500  0.00000000  0.99980300  1
  O  O24  1  0.25154900  0.50000000  0.00003400  1
  O  O25  1  0.74201500  0.00000000  0.99980300  1
  O  O26  1  0.74845100  0.50000000  0.00003400  1
  O  O27  1  0.25284700  0.00000000  0.50115100  1
  O  O28  1  0.25073600  0.50000000  0.50015200  1
  O  O29  1  0.74715300  0.00000000  0.50115100  1
  O  O30  1  0.74926400  0.50000000  0.50015200  1
loop_
_geom_bond_atom_site_label_1
_geom_bond_atom_site_label_2
_geom_bond_distance
_geom_bond_site_symmetry_2
Li0 O3 2.140504 1_555
Li0 O15 2.210748 1_555
Li0 O23 2.210748 1_555
Li0 O25 2.210748 1_455
Li0 O16 2.210748 1_545
Hf0 O18 2.128467 1_556
Hf0 O26 2.128467 1_556
Hf0 O24 2.128467 1_556
Hf0 O17 2.128467 1_556
Hf0 O6 2.163922 1_555
Hf0 O2 2.166013 1_556
Mg0 O16 2.073331 1_555
Mg0 O15 2.073331 1_555
Mg0 O4 2.141747 1_555
Mg0 O0 2.152920 1_556
Mg0 O24 2.155010 1_556
Mg0 O26 2.155010 1_456
Mg1 O25 2.073331 1_555
Mg1 O23 2.073331 1_555
Mg1 O5 2.141747 1_555
Mg1 O1 2.152920 1_556
Mg1 O17 2.155010 1_556
Mg1 O18 2.155010 1_546
Mg2 O3 2.090687 1_555
Mg2 O19 2.166151 1_555
Mg2 O27 2.166151 1_555
Mg2 O20 2.166151 1_545
Mg2 O29 2.166151 1_455
Mg3 O20 2.117350 1_555
Mg3 O19 2.117350 1_555
Mg3 O4 2.132758 1_555
Mg3 O0 2.141036 1_555
Mg3 O28 2.148049 1_555
Mg3 O30 2.148049 1_455
Mg4 O29 2.117350 1_555
Mg4 O27 2.117350 1_555
Mg4 O5 2.132758 1_555
Mg4 O1 2.141036 1_555
Mg4 O21 2.148049 1_555
Mg4 O22 2.148049 1_545
Mg5 O6 2.118081 1_555
Mg5 O2 2.120446 1_555
Mg5 O22 2.135432 1_555
Mg5 O30 2.135432 1_555
Mg5 O28 2.135432 1_555
Mg5 O21 2.135432 1_555
Mg6 O23 2.065278 1_554
Mg6 O15 2.065278 1_554
Mg6 O7 2.139085 1_555
Mg6 O11 2.140023 1_554
Mg6 O17 2.225718 1_555
Mg6 O24 2.225718 1_555
Mg7 O16 2.065278 1_554
Mg7 O23 2.065278 1_564
Mg7 O8 2.139085 1_555
Mg7 O12 2.140023 1_554
Mg7 O24 2.225718 1_555
Mg7 O18 2.225718 1_555
Mg8 O25 2.065278 1_554
Mg8 O15 2.065278 1_654
Mg8 O9 2.139085 1_555
Mg8 O13 2.140023 1_554
Mg8 O17 2.225718 1_555
Mg8 O26 2.225718 1_555
Mg9 O16 2.065278 1_654
Mg9 O25 2.065278 1_564
Mg9 O10 2.139085 1_555
Mg9 O14 2.140023 1_554
Mg9 O18 2.225718 1_555
Mg9 O26 2.225718 1_555
Mg10 O27 2.126472 1_555
Mg10 O19 2.126472 1_555
Mg10 O7 2.148984 1_555
Mg10 O11 2.149202 1_555
Mg10 O21 2.157509 1_555
Mg10 O28 2.157509 1_555
Mg11 O20 2.126472 1_555
Mg11 O27 2.126472 1_565
Mg11 O8 2.148984 1_555
Mg11 O12 2.149202 1_555
Mg11 O28 2.157509 1_555
Mg11 O22 2.157509 1_555
Mg12 O29 2.126472 1_555
Mg12 O19 2.126472 1_655
Mg12 O9 2.148984 1_555
Mg12 O13 2.149202 1_555
Mg12 O21 2.157509 1_555
Mg12 O30 2.157509 1_555
Mg13 O29 2.126472 1_565
Mg13 O20 2.126472 1_655
Mg13 O10 2.148984 1_555
Mg13 O14 2.149202 1_555
Mg13 O22 2.157509 1_555
Mg13 O30 2.157509 1_555
Mg14 O15 2.133891 1_554
Mg14 O0 2.156565 1_555
Mg14 O7 2.157716 1_555
Mg14 O9 2.157716 1_455
Mg14 O19 2.163865 1_555
Mg15 O16 2.133891 1_554
Mg15 O0 2.156565 1_555
Mg15 O8 2.157716 1_555
Mg15 O10 2.157716 1_455
Mg15 O20 2.163865 1_555
Mg16 O1 2.097889 1_555
Mg16 O21 2.100642 1_555
Mg16 O9 2.127384 1_555
Mg16 O7 2.127384 1_555
Mg16 O17 2.185960 1_555
Mg16 O2 2.185985 1_555
Mg17 O1 2.097889 1_565
Mg17 O22 2.100642 1_555
Mg17 O10 2.127384 1_555
Mg17 O8 2.127384 1_555
Mg17 O18 2.185960 1_555
Mg17 O2 2.185985 1_555
Mg18 O3 2.110535 1_555
Mg18 O15 2.126567 1_555
Mg18 O11 2.148798 1_555
Mg18 O13 2.148798 1_455
Mg18 O19 2.149246 1_555
Mg18 O4 2.174119 1_555
Mg19 O3 2.110535 1_565
Mg19 O16 2.126567 1_555
Mg19 O12 2.148798 1_555
Mg19 O14 2.148798 1_455
Mg19 O20 2.149246 1_555
Mg19 O4 2.174119 1_555
Mg20 O5 2.093650 1_555
Mg20 O21 2.099867 1_555
Mg20 O13 2.136334 1_555
Mg20 O11 2.136334 1_555
Mg20 O17 2.184938 1_556
Mg20 O6 2.190266 1_555
Mg21 O5 2.093650 1_565
Mg21 O22 2.099867 1_555
Mg21 O14 2.136334 1_555
Mg21 O12 2.136334 1_555
Mg21 O18 2.184938 1_556
Mg21 O6 2.190266 1_555
Mg22 O23 2.133891 1_554
Mg22 O1 2.156565 1_555
Mg22 O7 2.157716 1_555
Mg22 O8 2.157716 1_545
Mg22 O27 2.163865 1_555
Mg23 O0 2.097889 1_555
Mg23 O28 2.100642 1_555
Mg23 O8 2.127384 1_555
Mg23 O7 2.127384 1_555
Mg23 O24 2.185960 1_555
Mg23 O2 2.185985 1_555
Mg24 O25 2.133891 1_554
Mg24 O1 2.156565 1_555
Mg24 O9 2.157716 1_555
Mg24 O10 2.157716 1_545
Mg24 O29 2.163865 1_555
Mg25 O0 2.097889 1_655
Mg25 O30 2.100642 1_555
Mg25 O10 2.127384 1_555
Mg25 O9 2.127384 1_555
Mg25 O26 2.185960 1_555
Mg25 O2 2.185985 1_555
Mg26 O3 2.110535 1_555
Mg26 O23 2.126567 1_555
Mg26 O11 2.148798 1_555
Mg26 O12 2.148798 1_545
Mg26 O27 2.149246 1_555
Mg26 O5 2.174119 1_555
Mg27 O4 2.093650 1_555
Mg27 O28 2.099867 1_555
Mg27 O12 2.136334 1_555
Mg27 O11 2.136334 1_555
Mg27 O24 2.184938 1_556
Mg27 O6 2.190266 1_555
Mg28 O3 2.110535 1_655
Mg28 O25 2.126567 1_555
Mg28 O13 2.148798 1_555
Mg28 O14 2.148798 1_545
Mg28 O29 2.149246 1_555
Mg28 O5 2.174119 1_555
Mg29 O4 2.093650 1_655
Mg29 O30 2.099867 1_555
Mg29 O14 2.136334 1_555
Mg29 O13 2.136334 1_555
Mg29 O26 2.184938 1_556
Mg29 O6 2.190266 1_555
