# generated using pymatgen
data_VNiP2O9
_symmetry_space_group_name_H-M   'P 1'
_cell_length_a   6.27620600
_cell_length_b   7.81709600
_cell_length_c   13.92829300
_cell_angle_alpha   90.00000000
_cell_angle_beta   90.00000000
_cell_angle_gamma   90.00000000
_symmetry_Int_Tables_number   1
_chemical_formula_structural   VNiP2O9
_chemical_formula_sum   'V4 Ni4 P8 O36'
_cell_volume   683.34579978
_cell_formula_units_Z   4
loop_
 _symmetry_equiv_pos_site_id
 _symmetry_equiv_pos_as_xyz
  1  'x, y, z'
loop_
 _atom_site_type_symbol
 _atom_site_label
 _atom_site_symmetry_multiplicity
 _atom_site_fract_x
 _atom_site_fract_y
 _atom_site_fract_z
 _atom_site_occupancy
  V  V0  1  0.75000000  0.84462600  0.38061400  1
  V  V1  1  0.25000000  0.15537400  0.61938600  1
  V  V2  1  0.25000000  0.34462600  0.11938600  1
  V  V3  1  0.75000000  0.65537400  0.88061400  1
  Ni  Ni0  1  0.50000000  0.50000000  0.50000000  1
  Ni  Ni1  1  0.50000000  0.00000000  0.00000000  1
  Ni  Ni2  1  0.00000000  0.00000000  0.00000000  1
  Ni  Ni3  1  0.00000000  0.50000000  0.50000000  1
  P  P0  1  0.25000000  0.84911200  0.44017700  1
  P  P1  1  0.75000000  0.15088800  0.55982300  1
  P  P2  1  0.75000000  0.34911200  0.05982300  1
  P  P3  1  0.25000000  0.65088800  0.94017700  1
  P  P4  1  0.75000000  0.89024500  0.18955200  1
  P  P5  1  0.25000000  0.10975500  0.81044800  1
  P  P6  1  0.25000000  0.39024500  0.31044800  1
  P  P7  1  0.75000000  0.60975500  0.68955200  1
  O  O0  1  0.04757400  0.10673800  0.87167400  1
  O  O1  1  0.54757400  0.89326200  0.12832600  1
  O  O2  1  0.95242600  0.60673800  0.62832600  1
  O  O3  1  0.45242600  0.39326200  0.37167400  1
  O  O4  1  0.95242600  0.89326200  0.12832600  1
  O  O5  1  0.45242600  0.10673800  0.87167400  1
  O  O6  1  0.04757400  0.39326200  0.37167400  1
  O  O7  1  0.54757400  0.60673800  0.62832600  1
  O  O8  1  0.25000000  0.83419400  0.98062400  1
  O  O9  1  0.75000000  0.16580600  0.01937600  1
  O  O10  1  0.75000000  0.33419400  0.51937600  1
  O  O11  1  0.25000000  0.66580600  0.48062400  1
  O  O12  1  0.75000000  0.65943500  0.44403600  1
  O  O13  1  0.25000000  0.34056500  0.55596400  1
  O  O14  1  0.25000000  0.15943500  0.05596400  1
  O  O15  1  0.75000000  0.84056500  0.94403600  1
  O  O16  1  0.75000000  0.72895100  0.25861800  1
  O  O17  1  0.25000000  0.27104900  0.74138200  1
  O  O18  1  0.25000000  0.22895100  0.24138200  1
  O  O19  1  0.75000000  0.77104900  0.75861800  1
  O  O20  1  0.44887400  0.62819600  0.87567700  1
  O  O21  1  0.94887400  0.37180400  0.12432300  1
  O  O22  1  0.55112600  0.12819600  0.62432300  1
  O  O23  1  0.05112600  0.87180400  0.37567700  1
  O  O24  1  0.55112600  0.37180400  0.12432300  1
  O  O25  1  0.05112600  0.62819600  0.87567700  1
  O  O26  1  0.44887400  0.87180400  0.37567700  1
  O  O27  1  0.94887400  0.12819600  0.62432300  1
  O  O28  1  0.75000000  0.46689500  0.76824200  1
  O  O29  1  0.25000000  0.53310500  0.23175800  1
  O  O30  1  0.25000000  0.96689500  0.73175800  1
  O  O31  1  0.75000000  0.03310500  0.26824200  1
  O  O32  1  0.75000000  0.48716000  0.98134800  1
  O  O33  1  0.25000000  0.51284000  0.01865200  1
  O  O34  1  0.25000000  0.98716000  0.51865200  1
  O  O35  1  0.75000000  0.01284000  0.48134800  1
loop_
_geom_bond_atom_site_label_1
_geom_bond_atom_site_label_2
_geom_bond_distance
_geom_bond_site_symmetry_2
Ni0 O7 1.994996 1_555
Ni0 O3 1.994996 1_555
Ni0 O10 2.052970 1_555
Ni0 O11 2.052970 1_555
Ni0 O13 2.150076 1_555
Ni0 O12 2.150076 1_555
Ni1 O1 1.994996 1_545
Ni1 O5 1.994996 1_554
Ni1 O9 2.052970 1_555
Ni1 O8 2.052970 1_544
Ni1 O14 2.150076 1_555
Ni1 O15 2.150076 1_544
Ni2 O4 1.994996 1_445
Ni2 O0 1.994996 1_554
Ni2 O9 2.052970 1_455
Ni2 O8 2.052970 1_544
Ni2 O14 2.150076 1_555
Ni2 O15 2.150076 1_444
Ni3 O2 1.994996 1_455
Ni3 O6 1.994996 1_555
Ni3 O10 2.052970 1_455
Ni3 O11 2.052970 1_555
Ni3 O13 2.150076 1_555
Ni3 O12 2.150076 1_455
O0 P5 1.530316 1_555
O1 P4 1.530316 1_555
O2 P7 1.530316 1_555
O3 P6 1.530316 1_555
O4 P4 1.530316 1_555
O5 P5 1.530316 1_555
O6 P6 1.530316 1_555
O7 P7 1.530316 1_555
O8 P3 1.539686 1_555
O9 P2 1.539686 1_555
O10 P1 1.539686 1_555
O11 P0 1.539686 1_555
O12 V0 1.695887 1_555
O13 V1 1.695887 1_555
O14 V2 1.695887 1_555
O15 V3 1.695887 1_555
O16 P4 1.585917 1_555
O16 V0 1.924817 1_555
O17 P5 1.585917 1_555
O17 V1 1.924817 1_555
O18 P6 1.585917 1_555
O18 V2 1.924817 1_555
O19 P7 1.585917 1_555
O19 V3 1.924817 1_555
O20 P3 1.548057 1_555
O20 V3 1.903075 1_555
O21 P2 1.548057 1_555
O21 V2 1.903075 1_655
O22 P1 1.548057 1_555
O22 V1 1.903075 1_555
O23 P0 1.548057 1_555
O23 V0 1.903075 1_455
O24 P2 1.548057 1_555
O24 V2 1.903075 1_555
O25 P3 1.548057 1_555
O25 V3 1.903075 1_455
O26 P0 1.548057 1_555
O26 V0 1.903075 1_555
O27 P1 1.548057 1_555
O27 V1 1.903075 1_655
O28 P7 1.564732 1_555
O28 V3 2.149530 1_555
O29 P6 1.564732 1_555
O29 V2 2.149530 1_555
O30 P5 1.564732 1_565
O30 V1 2.149530 1_565
O31 P4 1.564732 1_545
O31 V0 2.149530 1_545
O32 P2 1.535979 1_556
O32 V3 1.922924 1_555
O33 P3 1.535979 1_554
O33 V2 1.922924 1_555
O34 P0 1.535979 1_555
O34 V1 1.922924 1_565
O35 P1 1.535979 1_555
O35 V0 1.922924 1_545
