# generated using pymatgen
data_MgFe8(O7F)2
_symmetry_space_group_name_H-M   'P 1'
_cell_length_a   7.37368634
_cell_length_b   7.73977968
_cell_length_c   5.67588043
_cell_angle_alpha   111.90994259
_cell_angle_beta   109.01506010
_cell_angle_gamma   82.80592625
_symmetry_Int_Tables_number   1
_chemical_formula_structural   MgFe8(O7F)2
_chemical_formula_sum   'Mg1 Fe8 O14 F2'
_cell_volume   284.12830907
_cell_formula_units_Z   1
loop_
 _symmetry_equiv_pos_site_id
 _symmetry_equiv_pos_as_xyz
  1  'x, y, z'
loop_
 _atom_site_type_symbol
 _atom_site_label
 _atom_site_symmetry_multiplicity
 _atom_site_fract_x
 _atom_site_fract_y
 _atom_site_fract_z
 _atom_site_occupancy
  Mg  Mg0  1  0.12499100  0.64087700  0.77565000  1
  Fe  Fe0  1  0.74950300  0.23925400  0.50531000  1
  Fe  Fe1  1  0.49288500  0.00293600  0.98112400  1
  Fe  Fe2  1  0.25177700  0.23783000  0.52577900  1
  Fe  Fe3  1  0.72405100  0.78823700  0.47203900  1
  Fe  Fe4  1  0.51346800  0.46030100  0.02345300  1
  Fe  Fe5  1  0.95649300  0.03531100  0.99182400  1
  Fe  Fe6  1  0.25743900  0.75977300  0.46796500  1
  Fe  Fe7  1  0.99023800  0.48993300  0.06258800  1
  O  O0  1  0.98036800  0.17745300  0.36279800  1
  O  O1  1  0.90607100  0.23977100  0.86032700  1
  O  O2  1  0.57948200  0.25548000  0.15829500  1
  O  O3  1  0.32379200  0.01757100  0.63616500  1
  O  O4  1  0.52092900  0.32901700  0.67127300  1
  O  O5  1  0.75942000  0.57986100  0.17044000  1
  O  O6  1  0.70540100  0.91713500  0.81799000  1
  O  O7  1  0.24229200  0.41967800  0.87683300  1
  O  O8  1  0.48175000  0.66568600  0.33271300  1
  O  O9  1  0.64499400  0.98178100  0.31509200  1
  O  O10  1  0.16901600  0.51272300  0.40582700  1
  O  O11  1  0.37763100  0.76185900  0.82049400  1
  O  O12  1  0.08328100  0.75041600  0.14145100  1
  O  O13  1  0.98689200  0.84402900  0.64703800  1
  F  F0  1  0.86144400  0.51452900  0.68127800  1
  F  F1  1  0.25157200  0.09152400  0.14149100  1
loop_
_geom_bond_atom_site_label_1
_geom_bond_atom_site_label_2
_geom_bond_distance
_geom_bond_site_symmetry_2
Mg0 O13 2.003320 1_455
Mg0 O7 2.012014 1_555
Mg0 O12 2.039922 1_556
Mg0 O10 2.074821 1_555
Mg0 O11 2.088536 1_555
Fe0 O1 1.967852 1_555
Fe0 O9 1.991855 1_545
Fe0 O2 2.000746 1_555
Fe0 O0 2.045872 1_555
Fe0 O4 2.112718 1_555
Fe1 O11 1.912506 1_545
Fe1 O2 1.914898 1_556
Fe1 O9 1.917857 1_546
Fe1 O3 1.985028 1_555
Fe1 O6 1.994964 1_545
Fe2 O0 1.945378 1_455
Fe2 O7 1.982241 1_555
Fe2 O3 1.983509 1_555
Fe2 O4 1.991669 1_555
Fe2 O10 2.418219 1_555
Fe3 O6 1.884005 1_555
Fe3 O13 1.887960 1_555
Fe3 O8 1.913414 1_555
Fe3 O5 1.929937 1_555
Fe3 O9 1.953488 1_555
Fe4 O4 1.890255 1_554
Fe4 O7 1.915079 1_554
Fe4 O5 1.923438 1_555
Fe4 O8 1.937727 1_555
Fe4 O2 1.950695 1_555
Fe5 O1 1.937210 1_555
Fe5 O0 1.937283 1_556
Fe5 O6 1.948925 1_545
Fe5 O13 2.027879 1_545
Fe5 O12 2.611756 1_646
Fe6 O12 1.860436 1_555
Fe6 O11 1.900863 1_555
Fe6 O3 1.910641 1_565
Fe6 O10 1.965907 1_555
Fe6 O8 1.990943 1_555
Fe6 O13 2.436976 1_455
Fe7 O1 1.905204 1_554
Fe7 O10 1.921609 1_655
Fe7 O5 1.954523 1_555
Fe7 O12 2.051455 1_655
Fe7 O7 2.336123 1_654
F0 Mg0 2.103909 1_655
F0 Fe0 2.129166 1_555
F0 Fe7 2.131913 1_556
F1 Fe2 2.048118 1_555
F1 Fe5 2.098083 1_454
F1 Fe1 2.179183 1_554
