# generated using pymatgen
data_Li9Mn2Co5O16
_symmetry_space_group_name_H-M   'P 1'
_cell_length_a   5.88081300
_cell_length_b   5.91746728
_cell_length_c   8.09583110
_cell_angle_alpha   90.34971058
_cell_angle_beta   90.97825041
_cell_angle_gamma   92.67047589
_symmetry_Int_Tables_number   1
_chemical_formula_structural   Li9Mn2Co5O16
_chemical_formula_sum   'Li9 Mn2 Co5 O16'
_cell_volume   281.37733724
_cell_formula_units_Z   1
loop_
 _symmetry_equiv_pos_site_id
 _symmetry_equiv_pos_as_xyz
  1  'x, y, z'
loop_
 _atom_site_type_symbol
 _atom_site_label
 _atom_site_symmetry_multiplicity
 _atom_site_fract_x
 _atom_site_fract_y
 _atom_site_fract_z
 _atom_site_occupancy
  Li  Li0  1  0.50000000  0.00000000  0.00000000  1
  Li  Li1  1  0.25617800  0.74666900  0.73892900  1
  Li  Li2  1  0.74370100  0.74454100  0.26169100  1
  Li  Li3  1  0.50000000  0.50000000  0.00000000  1
  Li  Li4  1  0.00000000  0.50000000  0.50000000  1
  Li  Li5  1  0.74382200  0.25333100  0.26107100  1
  Li  Li6  1  0.25629900  0.25545900  0.73830900  1
  Li  Li7  1  0.00000000  0.00000000  0.50000000  1
  Li  Li8  1  0.50000000  0.50000000  0.50000000  1
  Mn  Mn0  1  0.00000000  0.00000000  0.00000000  1
  Mn  Mn1  1  0.00000000  0.50000000  0.00000000  1
  Co  Co0  1  0.74091400  0.75165300  0.74454200  1
  Co  Co1  1  0.25908600  0.24834700  0.25545800  1
  Co  Co2  1  0.74221800  0.25571700  0.74225700  1
  Co  Co3  1  0.50000000  0.00000000  0.50000000  1
  Co  Co4  1  0.25778200  0.74428300  0.25774300  1
  O  O0  1  0.24015300  0.23407400  0.01053700  1
  O  O1  1  0.98471100  0.98819000  0.76352700  1
  O  O2  1  0.48894800  0.98499400  0.26426300  1
  O  O3  1  0.22472800  0.76439800  0.00926200  1
  O  O4  1  0.72847300  0.77132400  0.51748000  1
  O  O5  1  0.47788300  0.48716700  0.24347900  1
  O  O6  1  0.98935800  0.48937800  0.75938500  1
  O  O7  1  0.74204600  0.23797500  0.51547100  1
  O  O8  1  0.75984700  0.76592600  0.98946300  1
  O  O9  1  0.52211700  0.51283300  0.75652100  1
  O  O10  1  0.01064200  0.51062200  0.24061500  1
  O  O11  1  0.77527200  0.23560200  0.99073800  1
  O  O12  1  0.27152700  0.22867600  0.48252000  1
  O  O13  1  0.01528900  0.01181000  0.23647300  1
  O  O14  1  0.51105200  0.01500600  0.73573700  1
  O  O15  1  0.25795400  0.76202500  0.48452900  1
loop_
_geom_bond_atom_site_label_1
_geom_bond_atom_site_label_2
_geom_bond_distance
_geom_bond_site_symmetry_2
Li0 O11 2.089265 1_554
Li0 O3 2.089265 1_545
Li0 O8 2.112159 1_544
Li0 O0 2.112159 1_555
Li0 O2 2.143780 1_545
Li0 O14 2.143780 1_554
Li1 O15 2.062320 1_555
Li1 O14 2.132759 1_565
Li1 O9 2.139465 1_555
Li1 O6 2.144046 1_455
Li1 O3 2.201790 1_556
Li1 O1 2.202472 1_455
Li2 O4 2.079688 1_555
Li2 O2 2.113956 1_555
Li2 O5 2.133656 1_555
Li2 O10 2.149014 1_655
Li2 O13 2.207625 1_665
Li2 O8 2.211716 1_554
Li3 O9 1.979352 1_554
Li3 O5 1.979352 1_555
Li3 O8 2.144915 1_554
Li3 O0 2.144915 1_555
Li3 O3 2.304952 1_555
Li3 O11 2.304952 1_554
Li4 O10 2.103173 1_555
Li4 O6 2.103173 1_455
Li4 O15 2.123846 1_555
Li4 O7 2.123846 1_455
Li4 O12 2.321945 1_555
Li4 O4 2.321945 1_455
Li5 O7 2.062320 1_555
Li5 O2 2.132759 1_545
Li5 O5 2.139465 1_555
Li5 O10 2.144046 1_655
Li5 O11 2.201790 1_554
Li5 O13 2.202472 1_655
Li6 O12 2.079688 1_555
Li6 O14 2.113956 1_555
Li6 O9 2.133656 1_555
Li6 O6 2.149014 1_455
Li6 O1 2.207625 1_445
Li6 O0 2.211716 1_556
Li7 O12 2.051732 1_555
Li7 O4 2.051732 1_445
Li7 O15 2.122113 1_545
Li7 O7 2.122113 1_455
Li7 O1 2.138328 1_445
Li7 O13 2.138328 1_555
Li8 O4 2.047637 1_555
Li8 O12 2.047637 1_555
Li8 O9 2.079305 1_555
Li8 O5 2.079305 1_555
Li8 O7 2.155900 1_555
Li8 O15 2.155900 1_555
Mn0 O13 1.915717 1_555
Mn0 O1 1.915717 1_444
Mn0 O0 1.931990 1_555
Mn0 O8 1.931990 1_444
Mn0 O11 1.966085 1_454
Mn0 O3 1.966085 1_545
Mn1 O10 1.948452 1_555
Mn1 O6 1.948452 1_454
Mn1 O3 2.000645 1_555
Mn1 O11 2.000645 1_454
Mn1 O0 2.163958 1_555
Mn1 O8 2.163958 1_454
Co0 O4 1.843068 1_555
Co0 O9 1.870472 1_555
Co0 O1 1.959898 1_555
Co0 O8 1.985125 1_555
Co0 O14 2.110758 1_565
Co0 O6 2.182982 1_555
Co1 O12 1.843068 1_555
Co1 O5 1.870472 1_555
Co1 O13 1.959898 1_555
Co1 O0 1.985125 1_555
Co1 O2 2.110758 1_545
Co1 O10 2.182982 1_555
Co2 O7 1.838361 1_555
Co2 O14 1.922493 1_555
Co2 O6 1.961347 1_555
Co2 O11 2.022488 1_555
Co2 O9 2.046972 1_555
Co2 O1 2.185120 1_545
Co3 O14 1.909866 1_555
Co3 O2 1.909866 1_545
Co3 O4 1.954911 1_545
Co3 O12 1.954911 1_555
Co3 O7 1.957003 1_555
Co3 O15 1.957003 1_545
Co4 O15 1.838361 1_555
Co4 O2 1.922493 1_555
Co4 O10 1.961347 1_555
Co4 O3 2.022488 1_555
Co4 O5 2.046972 1_555
Co4 O13 2.185120 1_565
