# generated using pymatgen
data_CdSn
_symmetry_space_group_name_H-M   'P 1'
_cell_length_a   6.53650182
_cell_length_b   6.53650182
_cell_length_c   10.87597662
_cell_angle_alpha   90.00000000
_cell_angle_beta   90.00000000
_cell_angle_gamma   119.99996460
_symmetry_Int_Tables_number   1
_chemical_formula_structural   CdSn
_chemical_formula_sum   'Cd8 Sn8'
_cell_volume   402.42951486
_cell_formula_units_Z   8
loop_
 _symmetry_equiv_pos_site_id
 _symmetry_equiv_pos_as_xyz
  1  'x, y, z'
loop_
 _atom_site_type_symbol
 _atom_site_label
 _atom_site_symmetry_multiplicity
 _atom_site_fract_x
 _atom_site_fract_y
 _atom_site_fract_z
 _atom_site_occupancy
  Cd  Cd0_0  1  0.16666647  0.33333353  0.25000000  1
  Cd  Cd0_1  1  0.16666647  0.33333353  0.75000000  1
  Cd  Cd0_2  1  0.16666647  0.83333353  0.25000000  1
  Cd  Cd0_3  1  0.16666647  0.83333353  0.75000000  1
  Cd  Cd0_4  1  0.66666646  0.33333353  0.25000000  1
  Cd  Cd0_5  1  0.66666646  0.33333353  0.75000000  1
  Cd  Cd0_6  1  0.66666647  0.83333353  0.25000000  1
  Cd  Cd0_7  1  0.66666647  0.83333353  0.75000000  1
  Sn  Sn0_0  1  0.00000003  0.99999996  0.00000000  1
  Sn  Sn0_1  1  0.00000003  0.99999996  0.50000000  1
  Sn  Sn0_2  1  0.00000004  0.49999996  0.00000000  1
  Sn  Sn0_3  1  0.00000004  0.49999996  0.50000000  1
  Sn  Sn0_4  1  0.50000004  0.99999996  0.00000000  1
  Sn  Sn0_5  1  0.50000004  0.99999996  0.50000000  1
  Sn  Sn0_6  1  0.50000004  0.49999996  0.00000000  1
  Sn  Sn0_7  1  0.50000004  0.49999996  0.50000000  1
loop_
_geom_bond_atom_site_label_1
_geom_bond_atom_site_label_2
_geom_bond_distance
_geom_bond_site_symmetry_2
Cd0_0 Cd0_4 3.268251 1_555
Cd0_0 Cd0_2 3.268251 1_555
Cd0_0 Cd0_2 3.268251 1_545
Cd0_0 Cd0_4 3.268251 1_455
Cd0_0 Cd0_6 3.268253 1_555
Cd0_0 Cd0_6 3.268253 1_445
Cd0_0 Sn0_3 3.309593 1_555
Cd0_0 Sn0_2 3.309593 1_555
Cd0_0 Sn0_6 3.309596 1_555
Cd0_0 Sn0_7 3.309596 1_555
Cd0_0 Sn0_1 3.309596 1_545
Cd0_0 Sn0_0 3.309596 1_545
Cd0_1 Cd0_5 3.268251 1_555
Cd0_1 Cd0_3 3.268251 1_545
Cd0_1 Cd0_3 3.268251 1_555
Cd0_1 Cd0_5 3.268251 1_455
Cd0_1 Cd0_7 3.268253 1_555
Cd0_1 Cd0_7 3.268253 1_445
Cd0_1 Sn0_3 3.309593 1_555
Cd0_1 Sn0_2 3.309593 1_556
Cd0_1 Sn0_7 3.309596 1_555
Cd0_1 Sn0_1 3.309596 1_545
Cd0_1 Sn0_6 3.309596 1_556
Cd0_1 Sn0_0 3.309596 1_546
Cd0_2 Cd0_6 3.268251 1_455
Cd0_2 Cd0_6 3.268251 1_555
Cd0_2 Cd0_4 3.268253 1_565
Cd0_2 Cd0_4 3.268253 1_455
Cd0_2 Sn0_1 3.309593 1_555
Cd0_2 Sn0_0 3.309593 1_555
Cd0_2 Sn0_2 3.309596 1_555
Cd0_2 Sn0_5 3.309596 1_555
Cd0_2 Sn0_3 3.309596 1_555
Cd0_2 Sn0_4 3.309596 1_555
Cd0_3 Cd0_7 3.268251 1_455
Cd0_3 Cd0_7 3.268251 1_555
Cd0_3 Cd0_5 3.268253 1_565
Cd0_3 Cd0_5 3.268253 1_455
Cd0_3 Sn0_1 3.309593 1_555
Cd0_3 Sn0_0 3.309593 1_556
Cd0_3 Sn0_5 3.309596 1_555
Cd0_3 Sn0_3 3.309596 1_555
Cd0_3 Sn0_4 3.309596 1_556
Cd0_3 Sn0_2 3.309596 1_556
Cd0_4 Cd0_6 3.268251 1_555
Cd0_4 Cd0_6 3.268251 1_545
Cd0_4 Sn0_6 3.309593 1_555
Cd0_4 Sn0_7 3.309593 1_555
Cd0_4 Sn0_4 3.309596 1_545
Cd0_4 Sn0_5 3.309596 1_545
Cd0_4 Sn0_2 3.309596 1_655
Cd0_4 Sn0_3 3.309596 1_655
Cd0_5 Cd0_7 3.268251 1_555
Cd0_5 Cd0_7 3.268251 1_545
Cd0_5 Sn0_7 3.309593 1_555
Cd0_5 Sn0_6 3.309593 1_556
Cd0_5 Sn0_5 3.309596 1_545
Cd0_5 Sn0_3 3.309596 1_655
Cd0_5 Sn0_2 3.309596 1_656
Cd0_5 Sn0_4 3.309596 1_546
Cd0_6 Sn0_5 3.309593 1_555
Cd0_6 Sn0_4 3.309593 1_555
Cd0_6 Sn0_6 3.309596 1_555
Cd0_6 Sn0_7 3.309596 1_555
Cd0_6 Sn0_0 3.309596 1_655
Cd0_6 Sn0_1 3.309596 1_655
Cd0_7 Sn0_5 3.309593 1_555
Cd0_7 Sn0_4 3.309593 1_556
Cd0_7 Sn0_7 3.309596 1_555
Cd0_7 Sn0_1 3.309596 1_655
Cd0_7 Sn0_6 3.309596 1_556
Cd0_7 Sn0_0 3.309596 1_656
Sn0_0 Sn0_2 3.268251 1_565
Sn0_0 Sn0_2 3.268251 1_555
Sn0_0 Sn0_4 3.268251 1_455
Sn0_0 Sn0_4 3.268251 1_555
Sn0_0 Sn0_6 3.268253 1_565
Sn0_0 Sn0_6 3.268253 1_455
Sn0_1 Sn0_5 3.268251 1_555
Sn0_1 Sn0_5 3.268251 1_455
Sn0_1 Sn0_3 3.268251 1_565
Sn0_1 Sn0_3 3.268251 1_555
Sn0_1 Sn0_7 3.268253 1_565
Sn0_1 Sn0_7 3.268253 1_455
Sn0_2 Sn0_6 3.268251 1_555
Sn0_2 Sn0_6 3.268251 1_455
Sn0_2 Sn0_4 3.268253 1_555
Sn0_2 Sn0_4 3.268253 1_445
Sn0_3 Sn0_7 3.268251 1_455
Sn0_3 Sn0_7 3.268251 1_555
Sn0_3 Sn0_5 3.268253 1_445
Sn0_3 Sn0_5 3.268253 1_555
Sn0_4 Sn0_6 3.268251 1_555
Sn0_4 Sn0_6 3.268251 1_565
Sn0_5 Sn0_7 3.268251 1_555
Sn0_5 Sn0_7 3.268251 1_565
