# generated using pymatgen
data_SiAg2(S2O7)3
_symmetry_space_group_name_H-M   'P 1'
_cell_length_a   10.66787169
_cell_length_b   16.31331700
_cell_length_c   16.31331090
_cell_angle_alpha   120.00008233
_cell_angle_beta   90.00006385
_cell_angle_gamma   90.00001996
_symmetry_Int_Tables_number   1
_chemical_formula_structural   SiAg2(S2O7)3
_chemical_formula_sum   'Si6 Ag12 S36 O126'
_cell_volume   2458.62584961
_cell_formula_units_Z   6
loop_
 _symmetry_equiv_pos_site_id
 _symmetry_equiv_pos_as_xyz
  1  'x, y, z'
loop_
 _atom_site_type_symbol
 _atom_site_label
 _atom_site_symmetry_multiplicity
 _atom_site_fract_x
 _atom_site_fract_y
 _atom_site_fract_z
 _atom_site_occupancy
  Si  Si0  1  0.22199695  0.66666301  0.33333160  1
  Si  Si1  1  0.77800305  0.33333699  0.66666840  1
  Si  Si2  1  0.72983760  0.66666335  0.33333165  1
  Si  Si3  1  0.27016240  0.33333665  0.66666835  1
  Si  Si4  1  0.25909337  0.99999986  -0.00000015  1
  Si  Si5  1  0.74090663  0.00000014  0.00000015  1
  Ag  Ag0  1  0.56280162  0.00106626  0.36133538  1
  Ag  Ag1  1  0.56280293  0.63866850  0.63973236  1
  Ag  Ag2  1  0.56279935  0.36026591  0.99893147  1
  Ag  Ag3  1  0.43719838  0.99893374  0.63866462  1
  Ag  Ag4  1  0.43719707  0.36133150  0.36026764  1
  Ag  Ag5  1  0.43720065  0.63973409  0.00106853  1
  Ag  Ag6  1  0.07656763  0.98917985  0.30442482  1
  Ag  Ag7  1  0.07656774  0.69557932  0.68475807  1
  Ag  Ag8  1  0.07656931  0.31523974  0.01081783  1
  Ag  Ag9  1  0.92343237  0.01082015  0.69557518  1
  Ag  Ag10  1  0.92343226  0.30442068  0.31524193  1
  Ag  Ag11  1  0.92343069  0.68476026  0.98918217  1
  S  S0  1  0.14343565  0.85223343  0.50363943  1
  S  S1  1  0.14343558  0.49635646  0.34859482  1
  S  S2  1  0.14343621  0.65140344  0.14776293  1
  S  S3  1  0.85656435  0.14776657  0.49636057  1
  S  S4  1  0.85656442  0.50364354  0.65140518  1
  S  S5  1  0.85656379  0.34859656  0.85223707  1
  S  S6  1  0.31505753  0.86521370  0.37663501  1
  S  S7  1  0.31505829  0.62336165  0.48857967  1
  S  S8  1  0.31505775  0.51141806  0.13478190  1
  S  S9  1  0.68494247  0.13478630  0.62336499  1
  S  S10  1  0.68494171  0.37663835  0.51142033  1
  S  S11  1  0.68494225  0.48858194  0.86521810  1
  S  S12  1  0.83267902  0.83830247  0.32781184  1
  S  S13  1  0.83267994  0.67218636  0.51049169  1
  S  S14  1  0.83268012  0.48950412  0.16169360  1
  S  S15  1  0.16732098  0.16169753  0.67218816  1
  S  S16  1  0.16732006  0.32781364  0.48950831  1
  S  S17  1  0.16731988  0.51049588  0.83830640  1
  S  S18  1  0.34621214  0.99044269  0.17189102  1
  S  S19  1  0.34621219  0.82810868  0.81855131  1
  S  S20  1  0.34621265  0.18144816  0.00955771  1
  S  S21  1  0.65378786  0.00955731  0.82810898  1
  S  S22  1  0.65378781  0.17189132  0.18144869  1
  S  S23  1  0.65378735  0.81855184  0.99044229  1
  S  S24  1  0.63900727  0.73409517  0.19691175  1
  S  S25  1  0.63900748  0.80308603  0.53718337  1
  S  S26  1  0.63900734  0.46281222  0.26590127  1
  S  S27  1  0.36099273  0.26590483  0.80308825  1
  S  S28  1  0.36099252  0.19691397  0.46281663  1
  S  S29  1  0.36099266  0.53718778  0.73409873  1
  S  S30  1  0.16810615  0.85178299  0.05303595  1
  S  S31  1  0.16810651  0.94696426  0.79874690  1
  S  S32  1  0.16810587  0.20125322  0.14821734  1
  S  S33  1  0.83189385  0.14821701  0.94696405  1
  S  S34  1  0.83189349  0.05303574  0.20125310  1
  S  S35  1  0.83189413  0.79874678  0.85178266  1
  O  O0  1  0.12256705  0.74875366  0.42734278  1
  O  O1  1  0.12256523  0.57265228  0.32141081  1
  O  O2  1  0.12256531  0.67858350  0.25124146  1
  O  O3  1  0.87743295  0.25124634  0.57265722  1
  O  O4  1  0.87743477  0.42734772  0.67858919  1
  O  O5  1  0.87743469  0.32141650  0.74875854  1
  O  O6  1  0.18420546  0.89984834  0.43983815  1
  O  O7  1  0.18420430  0.56015966  0.46001220  1
  O  O8  1  0.18420522  0.53998595  0.10014609  1
  O  O9  1  0.81579454  0.10015166  0.56016185  1
  O  O10  1  0.81579570  0.43984034  0.53998780  1
  O  O11  1  0.81579478  0.46001405  0.89985391  1
  O  O12  1  0.32326978  0.76033517  0.34537831  1
  O  O13  1  0.32327018  0.65461560  0.41495527  1
  O  O14  1  0.32326956  0.58503886  0.23966005  1
  O  O15  1  0.67673022  0.23966483  0.65462169  1
  O  O16  1  0.67672982  0.34538440  0.58504473  1
  O  O17  1  0.67673044  0.41496114  0.76033995  1
  O  O18  1  0.35992763  0.01838369  0.09578817  1
  O  O19  1  0.35992716  0.90421110  0.92259494  1
  O  O20  1  0.35992757  0.07740489  0.98161628  1
  O  O21  1  0.64007237  0.98161631  0.90421183  1
  O  O22  1  0.64007284  0.09578890  0.07740506  1
  O  O23  1  0.64007243  0.92259511  0.01838372  1
  O  O24  1  0.02387891  0.89466940  0.54177444  1
  O  O25  1  0.02387773  0.45822226  0.35289661  1
  O  O26  1  0.02387925  0.64710337  0.10532677  1
  O  O27  1  0.97612109  0.10533060  0.45822556  1
  O  O28  1  0.97612227  0.54177774  0.64710339  1
  O  O29  1  0.97612075  0.35289663  0.89467323  1
  O  O30  1  0.46722529  0.98733126  0.20779846  1
  O  O31  1  0.46722491  0.79220032  0.77953252  1
  O  O32  1  0.46722515  0.22046700  0.01266864  1
  O  O33  1  0.53277471  0.01266874  0.79220154  1
  O  O34  1  0.53277509  0.20779968  0.22046748  1
  O  O35  1  0.53277485  0.77953300  0.98733136  1
  O  O36  1  0.28547680  0.88435848  0.30226486  1
  O  O37  1  0.28547725  0.69773408  0.58209279  1
  O  O38  1  0.28547725  0.41790403  0.11563858  1
  O  O39  1  0.71452320  0.11564152  0.69773514  1
  O  O40  1  0.71452275  0.30226592  0.41790721  1
  O  O41  1  0.71452275  0.58209597  0.88436142  1
  O  O42  1  0.24505099  0.04050827  0.23620799  1
  O  O43  1  0.24505103  0.76379165  0.80430007  1
  O  O44  1  0.24505140  0.19569969  0.95949174  1
  O  O45  1  0.75494901  0.95949173  0.76379201  1
  O  O46  1  0.75494897  0.23620835  0.19569993  1
  O  O47  1  0.75494860  0.80430031  0.04050826  1
  O  O48  1  0.41971546  0.91361052  0.43750167  1
  O  O49  1  0.41971637  0.56249541  0.47611026  1
  O  O50  1  0.41971646  0.52388956  0.08638625  1
  O  O51  1  0.58028454  0.08638948  0.56249833  1
  O  O52  1  0.58028363  0.43750459  0.52388974  1
  O  O53  1  0.58028354  0.47611044  0.91361375  1
  O  O54  1  0.24621082  0.86475384  0.56543405  1
  O  O55  1  0.24621166  0.43456310  0.29932092  1
  O  O56  1  0.24621033  0.70067923  0.13524364  1
  O  O57  1  0.75378918  0.13524616  0.43456595  1
  O  O58  1  0.75378834  0.56543690  0.70067908  1
  O  O59  1  0.75378967  0.29932077  0.86475636  1
  O  O60  1  0.83125668  0.76440326  0.35903973  1
  O  O61  1  0.83125617  0.64095488  0.40536427  1
  O  O62  1  0.83125764  0.59463112  0.23559127  1
  O  O63  1  0.16874332  0.23559674  0.64096027  1
  O  O64  1  0.16874383  0.35904512  0.59463573  1
  O  O65  1  0.16874236  0.40536888  0.76440873  1
  O  O66  1  0.78370803  0.77688271  0.21756208  1
  O  O67  1  0.78370871  0.78243678  0.55932009  1
  O  O68  1  0.78370858  0.44067513  0.22311418  1
  O  O69  1  0.21629197  0.22311729  0.78243792  1
  O  O70  1  0.21629129  0.21756322  0.44067991  1
  O  O71  1  0.21629142  0.55932487  0.77688582  1
  O  O72  1  0.62793776  0.69444360  0.26352760  1
  O  O73  1  0.62793650  0.73646603  0.43091604  1
  O  O74  1  0.62793692  0.56907926  0.30555035  1
  O  O75  1  0.37206224  0.30555640  0.73647240  1
  O  O76  1  0.37206350  0.26353397  0.56908396  1
  O  O77  1  0.37206308  0.43092074  0.69444965  1
  O  O78  1  0.74461393  0.91303970  0.38063563  1
  O  O79  1  0.74461362  0.61936508  0.53240702  1
  O  O80  1  0.74461416  0.46759155  0.08695678  1
  O  O81  1  0.25538607  0.08696030  0.61936437  1
  O  O82  1  0.25538638  0.38063492  0.46759298  1
  O  O83  1  0.25538584  0.53240845  0.91304322  1
  O  O84  1  0.95958156  0.86110604  0.31828608  1
  O  O85  1  0.95958266  0.68171290  0.54282091  1
  O  O86  1  0.95958320  0.45717596  0.13889024  1
  O  O87  1  0.04041844  0.13889396  0.68171392  1
  O  O88  1  0.04041734  0.31828710  0.45717909  1
  O  O89  1  0.04041680  0.54282404  0.86110976  1
  O  O90  1  0.30453004  0.87879415  0.10889393  1
  O  O91  1  0.30452951  0.89110574  0.76989997  1
  O  O92  1  0.30452998  0.23009946  0.12120554  1
  O  O93  1  0.69546996  0.12120585  0.89110607  1
  O  O94  1  0.69547049  0.10889426  0.23010003  1
  O  O95  1  0.69547002  0.76990054  0.87879446  1
  O  O96  1  0.15754037  0.92331908  0.01916431  1
  O  O97  1  0.15754042  0.98083540  0.90415514  1
  O  O98  1  0.15754035  0.09584527  0.07668081  1
  O  O99  1  0.84245963  0.07668092  0.98083569  1
  O  O100  1  0.84245958  0.01916460  0.09584486  1
  O  O101  1  0.84245965  0.90415473  0.92331919  1
  O  O102  1  0.06998872  0.86930434  0.12079334  1
  O  O103  1  0.06998855  0.87920639  0.74851106  1
  O  O104  1  0.06998820  0.25148919  0.13069546  1
  O  O105  1  0.93001128  0.13069566  0.87920666  1
  O  O106  1  0.93001145  0.12079361  0.25148894  1
  O  O107  1  0.93001180  0.74851081  0.86930454  1
  O  O108  1  0.64431710  0.66115482  0.09932585  1
  O  O109  1  0.64431710  0.90067043  0.56182551  1
  O  O110  1  0.64431760  0.43816968  0.33884373  1
  O  O111  1  0.35568290  0.33884518  0.90067415  1
  O  O112  1  0.35568290  0.09932957  0.43817449  1
  O  O113  1  0.35568240  0.56183032  0.66115627  1
  O  O114  1  0.55241397  0.81051942  0.22358410  1
  O  O115  1  0.55241319  0.77641600  0.58693730  1
  O  O116  1  0.55241312  0.41305953  0.18947758  1
  O  O117  1  0.44758603  0.18948058  0.77641590  1
  O  O118  1  0.44758681  0.22358400  0.41306270  1
  O  O119  1  0.44758688  0.58694047  0.81052242  1
  O  O120  1  0.18698520  0.75666614  0.97857460  1
  O  O121  1  0.18698484  0.02142590  0.77809130  1
  O  O122  1  0.18698480  0.22190884  0.24333417  1
  O  O123  1  0.81301480  0.24333386  0.02142540  1
  O  O124  1  0.81301516  0.97857410  0.22190870  1
  O  O125  1  0.81301520  0.77809116  0.75666583  1
loop_
_geom_bond_atom_site_label_1
_geom_bond_atom_site_label_2
_geom_bond_distance
_geom_bond_site_symmetry_2
Ag0 O78 2.524921 1_545
Ag0 O30 2.608076 1_545
Ag0 O112 2.648297 1_555
Ag0 O48 2.771642 1_545
Ag0 O114 2.781959 1_545
Ag0 O57 2.784721 1_555
Ag0 O51 2.858945 1_555
Ag1 O79 2.524882 1_555
Ag1 O31 2.608029 1_555
Ag1 O113 2.648303 1_555
Ag1 O49 2.771637 1_555
Ag1 O115 2.781899 1_555
Ag1 O58 2.784692 1_555
Ag1 O52 2.858962 1_555
Ag2 O80 2.524926 1_556
Ag2 O32 2.608043 1_556
Ag2 O111 2.648231 1_555
Ag2 O50 2.771640 1_556
Ag2 O116 2.781956 1_556
Ag2 O59 2.784701 1_555
Ag2 O53 2.858948 1_555
Ag3 O81 2.524921 1_565
Ag3 O33 2.608076 1_565
Ag3 O109 2.648297 1_555
Ag3 O51 2.771642 1_565
Ag3 O117 2.781959 1_565
Ag3 O54 2.784721 1_555
Ag3 O48 2.858945 1_555
Ag4 O82 2.524882 1_555
Ag4 O34 2.608029 1_555
Ag4 O110 2.648303 1_555
Ag4 O52 2.771637 1_555
Ag4 O118 2.781899 1_555
Ag4 O55 2.784692 1_555
Ag4 O49 2.858962 1_555
Ag5 O83 2.524926 1_554
Ag5 O35 2.608043 1_554
Ag5 O108 2.648231 1_555
Ag5 O53 2.771640 1_554
Ag5 O119 2.781956 1_554
Ag5 O56 2.784701 1_555
Ag5 O50 2.858948 1_555
Ag6 O42 2.470198 1_565
Ag6 O27 2.505896 1_465
Ag6 O84 2.538950 1_455
Ag6 O102 2.635304 1_555
Ag6 O36 2.798530 1_555
Ag7 O43 2.470159 1_555
Ag7 O28 2.505884 1_455
Ag7 O85 2.538941 1_455
Ag7 O103 2.635247 1_555
Ag7 O37 2.798545 1_555
Ag8 O44 2.470137 1_554
Ag8 O29 2.505888 1_454
Ag8 O86 2.538950 1_455
Ag8 O104 2.635273 1_555
Ag8 O38 2.798526 1_555
Ag9 O45 2.470198 1_545
Ag9 O24 2.505896 1_645
Ag9 O87 2.538950 1_655
Ag9 O105 2.635304 1_555
Ag9 O39 2.798530 1_555
Ag10 O46 2.470159 1_555
Ag10 O25 2.505884 1_655
Ag10 O88 2.538941 1_655
Ag10 O106 2.635247 1_555
Ag10 O40 2.798545 1_555
Ag11 O47 2.470137 1_556
Ag11 O26 2.505888 1_656
Ag11 O89 2.538950 1_655
Ag11 O107 2.635273 1_555
Ag11 O41 2.798526 1_555
O0 S0 1.532088 1_555
O0 Si0 1.793518 1_555
O1 S1 1.532090 1_555
O1 Si0 1.793523 1_555
O2 S2 1.532087 1_555
O2 Si0 1.793522 1_555
O3 S3 1.532088 1_555
O3 Si1 1.793518 1_555
O4 S4 1.532090 1_555
O4 Si1 1.793523 1_555
O5 S5 1.532087 1_555
O5 Si1 1.793522 1_555
O6 S0 1.638371 1_555
O6 S6 1.657808 1_555
O7 S1 1.638382 1_555
O7 S7 1.657815 1_555
O8 S2 1.638383 1_555
O8 S8 1.657816 1_555
O9 S3 1.638371 1_555
O9 S9 1.657808 1_555
O10 S4 1.638382 1_555
O10 S10 1.657815 1_555
O11 S5 1.638383 1_555
O11 S11 1.657816 1_555
O12 S6 1.523978 1_555
O12 Si0 1.800168 1_555
O13 S7 1.523986 1_555
O13 Si0 1.800152 1_555
O14 S8 1.523968 1_555
O14 Si0 1.800155 1_555
O15 S9 1.523978 1_555
O15 Si1 1.800168 1_555
O16 S10 1.523986 1_555
O16 Si1 1.800152 1_555
O17 S11 1.523968 1_555
O17 Si1 1.800155 1_555
O18 S18 1.528513 1_545
O18 Si4 1.794492 1_545
O19 S19 1.528506 1_555
O19 Si4 1.794496 1_556
O20 S20 1.528501 1_556
O20 Si4 1.794498 1_546
O21 S21 1.528513 1_565
O21 Si5 1.794492 1_566
O22 S22 1.528506 1_555
O22 Si5 1.794496 1_555
O23 S23 1.528501 1_554
O23 Si5 1.794498 1_565
O24 S0 1.436063 1_555
O25 S1 1.436071 1_555
O26 S2 1.436068 1_555
O27 S3 1.436063 1_555
O28 S4 1.436071 1_555
O29 S5 1.436068 1_555
O30 S18 1.428983 1_555
O31 S19 1.428982 1_555
O32 S20 1.428978 1_555
O33 S21 1.428983 1_555
O34 S22 1.428982 1_555
O35 S23 1.428978 1_555
O36 S6 1.431062 1_555
O37 S7 1.431055 1_555
O38 S8 1.431055 1_555
O39 S9 1.431062 1_555
O40 S10 1.431055 1_555
O41 S11 1.431055 1_555
O42 S18 1.440696 1_545
O43 S19 1.440697 1_555
O44 S20 1.440701 1_556
O45 S21 1.440696 1_565
O46 S22 1.440697 1_555
O47 S23 1.440701 1_554
O48 S6 1.439387 1_555
O49 S7 1.439387 1_555
O50 S8 1.439395 1_555
O51 S9 1.439387 1_555
O52 S10 1.439387 1_555
O53 S11 1.439395 1_555
O54 S0 1.433216 1_555
O55 S1 1.433215 1_555
O56 S2 1.433217 1_555
O57 S3 1.433216 1_555
O58 S4 1.433215 1_555
O59 S5 1.433217 1_555
O60 S12 1.525523 1_555
O60 Si2 1.794453 1_555
O61 S13 1.525513 1_555
O61 Si2 1.794463 1_555
O62 S14 1.525514 1_555
O62 Si2 1.794465 1_555
O63 S15 1.525523 1_555
O63 Si3 1.794453 1_555
O64 S16 1.525513 1_555
O64 Si3 1.794463 1_555
O65 S17 1.525514 1_555
O65 Si3 1.794465 1_555
O66 S12 1.646060 1_555
O66 S24 1.657832 1_555
O67 S13 1.646074 1_555
O67 S25 1.657829 1_555
O68 S14 1.646063 1_555
O68 S26 1.657836 1_555
O69 S15 1.646060 1_555
O69 S27 1.657832 1_555
O70 S16 1.646074 1_555
O70 S28 1.657829 1_555
O71 S17 1.646063 1_555
O71 S29 1.657836 1_555
O72 S24 1.521932 1_555
O72 Si2 1.788811 1_555
O73 S25 1.521940 1_555
O73 Si2 1.788816 1_555
O74 S26 1.521932 1_555
O74 Si2 1.788810 1_555
O75 S27 1.521932 1_555
O75 Si3 1.788811 1_555
O76 S28 1.521940 1_555
O76 Si3 1.788816 1_555
O77 S29 1.521932 1_555
O77 Si3 1.788810 1_555
O78 S12 1.435627 1_555
O79 S13 1.435623 1_555
O80 S14 1.435629 1_555
O81 S15 1.435627 1_555
O82 S16 1.435623 1_555
O83 S17 1.435629 1_555
O84 S12 1.432851 1_555
O85 S13 1.432850 1_555
O86 S14 1.432852 1_555
O87 S15 1.432851 1_555
O88 S16 1.432850 1_555
O89 S17 1.432852 1_555
O90 S18 1.642990 1_555
O90 S30 1.655604 1_555
O91 S19 1.642992 1_555
O91 S31 1.655601 1_555
O92 S20 1.642983 1_555
O92 S32 1.655608 1_555
O93 S21 1.642990 1_555
O93 S33 1.655604 1_555
O94 S22 1.642992 1_555
O94 S34 1.655601 1_555
O95 S23 1.642983 1_555
O95 S35 1.655608 1_555
O96 S30 1.524705 1_555
O96 Si4 1.796462 1_555
O97 S31 1.524713 1_555
O97 Si4 1.796453 1_556
O98 S32 1.524707 1_555
O98 Si4 1.796464 1_545
O99 S33 1.524705 1_555
O99 Si5 1.796462 1_556
O100 S34 1.524713 1_555
O100 Si5 1.796453 1_555
O101 S35 1.524707 1_555
O101 Si5 1.796464 1_566
O102 S30 1.443309 1_555
O103 S31 1.443314 1_555
O104 S32 1.443314 1_555
O105 S33 1.443309 1_555
O106 S34 1.443314 1_555
O107 S35 1.443314 1_555
O108 S24 1.434959 1_555
O109 S25 1.434952 1_555
O110 S26 1.434960 1_555
O111 S27 1.434959 1_555
O112 S28 1.434952 1_555
O113 S29 1.434960 1_555
O114 S24 1.433367 1_555
O115 S25 1.433376 1_555
O116 S26 1.433367 1_555
O117 S27 1.433367 1_555
O118 S28 1.433376 1_555
O119 S29 1.433367 1_555
O120 S30 1.427912 1_556
O121 S31 1.427918 1_545
O122 S32 1.427911 1_555
O123 S33 1.427912 1_554
O124 S34 1.427918 1_565
O125 S35 1.427911 1_555
