# generated using pymatgen
data_Nd5CuBi3
_symmetry_space_group_name_H-M   'P 1'
_cell_length_a   9.61689365
_cell_length_b   9.61689365
_cell_length_c   6.61125073
_cell_angle_alpha   90.00000000
_cell_angle_beta   90.00000000
_cell_angle_gamma   119.99999746
_symmetry_Int_Tables_number   1
_chemical_formula_structural   Nd5CuBi3
_chemical_formula_sum   'Nd10 Cu2 Bi6'
_cell_volume   529.52186483
_cell_formula_units_Z   2
loop_
 _symmetry_equiv_pos_site_id
 _symmetry_equiv_pos_as_xyz
  1  'x, y, z'
loop_
 _atom_site_type_symbol
 _atom_site_label
 _atom_site_symmetry_multiplicity
 _atom_site_fract_x
 _atom_site_fract_y
 _atom_site_fract_z
 _atom_site_occupancy
  Nd  Nd0  1  0.66666700  0.33333300  -0.00000000  1
  Nd  Nd1  1  0.33333300  0.66666700  -0.00000000  1
  Nd  Nd2  1  0.33333300  0.66666700  0.50000000  1
  Nd  Nd3  1  0.66666700  0.33333300  0.50000000  1
  Nd  Nd4  1  0.74580902  0.74580902  0.75000000  1
  Nd  Nd5  1  0.25419098  -0.00000000  0.75000000  1
  Nd  Nd6  1  -0.00000000  0.25419098  0.75000000  1
  Nd  Nd7  1  0.25419098  0.25419098  0.25000000  1
  Nd  Nd8  1  0.74580902  0.00000000  0.25000000  1
  Nd  Nd9  1  0.00000000  0.74580902  0.25000000  1
  Cu  Cu0  1  -0.00000000  -0.00000000  -0.00000000  1
  Cu  Cu1  1  -0.00000000  -0.00000000  0.50000000  1
  Bi  Bi0  1  0.38462482  0.38462482  0.75000000  1
  Bi  Bi1  1  0.61537518  0.00000000  0.75000000  1
  Bi  Bi2  1  0.00000000  0.61537518  0.75000000  1
  Bi  Bi3  1  0.61537518  0.61537518  0.25000000  1
  Bi  Bi4  1  0.38462482  -0.00000000  0.25000000  1
  Bi  Bi5  1  -0.00000000  0.38462482  0.25000000  1
loop_
_geom_bond_atom_site_label_1
_geom_bond_atom_site_label_2
_geom_bond_distance
_geom_bond_site_symmetry_2
Cu0 Nd9 2.950848 1_545
Cu0 Nd8 2.950848 1_455
Cu0 Nd5 2.950848 1_554
Cu0 Nd6 2.950848 1_554
Cu0 Nd4 2.950848 1_444
Cu0 Nd7 2.950848 1_555
Cu1 Nd9 2.950848 1_545
Cu1 Nd8 2.950848 1_455
Cu1 Nd6 2.950848 1_555
Cu1 Nd5 2.950848 1_555
Cu1 Nd4 2.950848 1_445
Cu1 Nd7 2.950848 1_555
Bi0 Nd6 3.258143 1_555
Bi0 Nd5 3.258143 1_555
Bi0 Nd0 3.416135 1_556
Bi0 Nd3 3.416135 1_555
Bi0 Nd1 3.416135 1_556
Bi0 Nd2 3.416135 1_555
Bi0 Nd4 3.473470 1_555
Bi0 Nd7 3.535619 1_556
Bi0 Nd7 3.535619 1_555
Bi1 Nd4 3.258143 1_545
Bi1 Nd6 3.258143 1_655
Bi1 Nd3 3.416127 1_555
Bi1 Nd0 3.416127 1_556
Bi1 Nd1 3.416130 1_546
Bi1 Nd2 3.416130 1_545
Bi1 Nd5 3.473470 1_555
Bi1 Nd8 3.535619 1_555
Bi1 Nd8 3.535619 1_556
Bi2 Nd4 3.258143 1_455
Bi2 Nd5 3.258143 1_565
Bi2 Nd2 3.416127 1_555
Bi2 Nd1 3.416127 1_556
Bi2 Nd0 3.416130 1_456
Bi2 Nd3 3.416130 1_455
Bi2 Nd6 3.473470 1_555
Bi2 Nd9 3.535619 1_555
Bi2 Nd9 3.535619 1_556
Bi3 Nd8 3.258143 1_565
Bi3 Nd9 3.258143 1_655
Bi3 Nd1 3.416135 1_555
Bi3 Nd2 3.416135 1_555
Bi3 Nd0 3.416135 1_555
Bi3 Nd3 3.416135 1_555
Bi3 Nd7 3.473470 1_555
Bi3 Nd4 3.535619 1_555
Bi3 Nd4 3.535619 1_554
Bi4 Nd7 3.258143 1_555
Bi4 Nd9 3.258143 1_545
Bi4 Nd1 3.416127 1_545
Bi4 Nd2 3.416127 1_545
Bi4 Nd0 3.416130 1_555
Bi4 Nd3 3.416130 1_555
Bi4 Nd8 3.473470 1_555
Bi4 Nd5 3.535619 1_554
Bi4 Nd5 3.535619 1_555
Bi5 Nd7 3.258143 1_555
Bi5 Nd8 3.258143 1_455
Bi5 Nd0 3.416127 1_455
Bi5 Nd3 3.416127 1_455
Bi5 Nd1 3.416130 1_555
Bi5 Nd2 3.416130 1_555
Bi5 Nd9 3.473470 1_555
Bi5 Nd6 3.535619 1_555
Bi5 Nd6 3.535619 1_554
