# generated using pymatgen
data_Li3W2N5
_symmetry_space_group_name_H-M   'P 1'
_cell_length_a   9.16157040
_cell_length_b   11.51280586
_cell_length_c   8.40530244
_cell_angle_alpha   90.00016542
_cell_angle_beta   62.69516639
_cell_angle_gamma   128.92651686
_symmetry_Int_Tables_number   1
_chemical_formula_structural   Li3W2N5
_chemical_formula_sum   'Li12 W8 N20'
_cell_volume   557.03686035
_cell_formula_units_Z   4
loop_
 _symmetry_equiv_pos_site_id
 _symmetry_equiv_pos_as_xyz
  1  'x, y, z'
loop_
 _atom_site_type_symbol
 _atom_site_label
 _atom_site_symmetry_multiplicity
 _atom_site_fract_x
 _atom_site_fract_y
 _atom_site_fract_z
 _atom_site_occupancy
  Li  Li0  1  0.50276800  0.65939000  0.98144100  1
  Li  Li1  1  0.49723200  0.34061100  0.48420900  1
  Li  Li2  1  0.81601300  0.65662100  0.07481800  1
  Li  Li3  1  0.18398900  0.34338000  0.89082800  1
  Li  Li4  1  0.67384500  0.26829200  0.61593300  1
  Li  Li5  1  0.32615400  0.73170700  0.28978000  1
  Li  Li6  1  0.86274100  0.09444800  0.27148300  1
  Li  Li7  1  0.13725900  0.90555200  0.13422400  1
  Li  Li8  1  0.99999900  0.99999900  0.61476300  1
  Li  Li9  1  0.99999900  0.50000000  0.86476700  1
  Li  Li10  1  0.99999900  0.49999900  0.21490100  1
  Li  Li11  1  0.99999900  0.99999900  0.96490300  1
  W  W0  1  0.15895200  0.39198200  0.46249700  1
  W  W1  1  0.84105300  0.60801800  0.62144600  1
  W  W2  1  0.62502700  0.73304100  0.47945500  1
  W  W3  1  0.37497600  0.26696500  0.10448300  1
  W  W4  1  0.42417400  0.81249000  0.81710500  1
  W  W5  1  0.57581900  0.18750600  0.24127300  1
  W  W6  1  0.20081100  0.88831700  0.67877900  1
  W  W7  1  0.79919000  0.11168000  0.87959100  1
  N  N0  1  0.20294400  0.51360800  0.28117300  1
  N  N1  1  0.79705800  0.48639300  0.48411700  1
  N  N2  1  0.82427700  0.81066600  0.22050200  1
  N  N3  1  0.17572600  0.18933700  0.04478000  1
  N  N4  1  0.93554000  0.83542300  0.81339800  1
  N  N5  1  0.06445900  0.16457700  0.74893700  1
  N  N6  1  0.73530500  0.39988200  0.16351500  1
  N  N7  1  0.26469300  0.60011600  0.89882100  1
  N  N8  1  0.26385100  0.29851500  0.33483800  1
  N  N9  1  0.73615100  0.70148600  0.59868600  1
  N  N10  1  0.33318200  0.53466500  0.55017300  1
  N  N11  1  0.66682100  0.46533500  0.88335100  1
  N  N12  1  0.20370000  0.82536900  0.88990600  1
  N  N13  1  0.79630000  0.17463200  0.09360600  1
  N  N14  1  0.44703700  0.12167000  0.51823600  1
  N  N15  1  0.55296200  0.87832900  0.96527700  1
  N  N16  1  0.63972500  0.90483900  0.53759000  1
  N  N17  1  0.36026900  0.09515900  0.17731300  1
  N  N18  1  0.16995200  0.76511300  0.52247400  1
  N  N19  1  0.83004900  0.23488800  0.69242500  1
loop_
_geom_bond_atom_site_label_1
_geom_bond_atom_site_label_2
_geom_bond_distance
_geom_bond_site_symmetry_2
Li0 N0 2.137009 1_556
Li0 N15 2.251543 1_555
Li0 N7 2.285722 1_555
Li0 N4 2.566518 1_555
Li1 N1 2.137013 1_555
Li1 N14 2.251561 1_555
Li1 N6 2.285730 1_555
Li1 N5 2.566524 1_555
Li2 N2 2.136997 1_555
Li2 N12 2.251550 1_654
Li2 N4 2.285733 1_554
Li2 N6 2.566520 1_555
Li3 N3 2.137011 1_556
Li3 N13 2.251564 1_456
Li3 N5 2.285720 1_555
Li3 N7 2.566504 1_555
Li4 N1 2.024204 1_555
Li4 N19 2.035922 1_555
Li4 N14 2.235884 1_555
Li5 N0 2.024194 1_555
Li5 N18 2.035920 1_555
Li5 N15 2.235884 1_554
Li6 N3 2.024170 1_655
Li6 N16 2.035961 1_545
Li6 N13 2.235881 1_555
Li7 N2 2.024163 1_455
Li7 N17 2.035905 1_565
Li7 N12 2.235871 1_554
Li8 N5 2.101335 1_665
Li8 N4 2.101338 1_555
Li9 N7 2.101308 1_655
Li9 N6 2.101314 1_556
Li10 N0 2.091874 1_655
Li10 N1 2.091877 1_555
Li10 N6 2.200959 1_555
Li10 N7 2.200969 1_654
Li11 N2 2.091827 1_556
Li11 N3 2.091859 1_666
Li11 N4 2.200967 1_555
Li11 N5 2.200997 1_665
N0 W0 1.781363 1_555
N1 W1 1.781330 1_555
N2 W2 1.781330 1_555
N3 W3 1.781317 1_555
N4 W6 1.781805 1_655
N5 W7 1.781771 1_455
N6 W5 1.781789 1_555
N7 W4 1.781778 1_555
N8 W3 1.890376 1_555
N8 W0 1.893763 1_555
N9 W2 1.890404 1_555
N9 W1 1.893800 1_555
N10 W0 1.890394 1_555
N10 W2 1.893815 1_555
N11 W1 1.890394 1_555
N11 W3 1.893814 1_556
N12 W4 1.928410 1_555
N12 W6 1.934493 1_555
N13 W5 1.928412 1_555
N13 W7 1.934497 1_554
N14 W6 1.928397 1_545
N14 W5 1.934491 1_555
N15 W7 1.928376 1_565
N15 W4 1.934450 1_555
N16 W4 1.911776 1_555
N16 W2 1.973468 1_555
N17 W5 1.911736 1_555
N17 W3 1.973494 1_555
N18 W6 1.911734 1_555
N18 W1 1.973452 1_455
N19 W7 1.911784 1_555
N19 W0 1.973479 1_655
