# generated using pymatgen
data_TeMoWSeS2
_symmetry_space_group_name_H-M   'P 1'
_cell_length_a   3.30636108
_cell_length_b   3.30636108
_cell_length_c   37.62979900
_cell_angle_alpha   90.00000000
_cell_angle_beta   90.00000000
_cell_angle_gamma   120.00002159
_symmetry_Int_Tables_number   1
_chemical_formula_structural   TeMoWSeS2
_chemical_formula_sum   'Te2 Mo2 W2 Se2 S4'
_cell_volume   356.25666308
_cell_formula_units_Z   2
loop_
 _symmetry_equiv_pos_site_id
 _symmetry_equiv_pos_as_xyz
  1  'x, y, z'
loop_
 _atom_site_type_symbol
 _atom_site_label
 _atom_site_symmetry_multiplicity
 _atom_site_fract_x
 _atom_site_fract_y
 _atom_site_fract_z
 _atom_site_occupancy
  Te  Te0  1  0.33333300  0.66666700  0.04311400  1
  Te  Te1  1  0.33333300  0.66666700  0.14462600  1
  Mo  Mo0  1  0.00000000  0.00000000  0.09386100  1
  Mo  Mo1  1  0.00000000  0.00000000  0.46965500  1
  W  W0  1  0.33333300  0.66666700  0.28186000  1
  W  W1  1  0.33333300  0.66666700  0.65754100  1
  Se  Se0  1  0.00000000  0.00000000  0.32666900  1
  Se  Se1  1  0.00000000  0.00000000  0.23701600  1
  S  S0  1  0.00000000  0.00000000  0.69829500  1
  S  S1  1  0.33333300  0.66666700  0.42901100  1
  S  S2  1  0.33333300  0.66666700  0.51033400  1
  S  S3  1  0.00000000  0.00000000  0.61676700  1
loop_
_geom_bond_atom_site_label_1
_geom_bond_atom_site_label_2
_geom_bond_distance
_geom_bond_site_symmetry_2
Mo0 Te0 2.700106 1_545
Mo0 Te0 2.700107 1_445
Mo0 Te0 2.700107 1_555
Mo0 Te1 2.700585 1_545
Mo0 Te1 2.700586 1_445
Mo0 Te1 2.700586 1_555
Mo1 S1 2.446047 1_545
Mo1 S1 2.446048 1_445
Mo1 S1 2.446048 1_555
Mo1 S2 2.446870 1_545
Mo1 S2 2.446872 1_555
Mo1 S2 2.446872 1_445
Se0 W0 2.546982 1_545
Se0 W0 2.546983 1_555
Se0 W0 2.546983 1_445
Se1 W0 2.547854 1_545
Se1 W0 2.547855 1_445
Se1 W0 2.547855 1_555
S0 W1 2.448637 1_545
S0 W1 2.448639 1_445
S0 W1 2.448639 1_555
S3 W1 2.449108 1_545
S3 W1 2.449110 1_445
S3 W1 2.449110 1_555
