# generated using pymatgen
data_Li9Mn2Co5O16
_symmetry_space_group_name_H-M   'P 1'
_cell_length_a   4.99958900
_cell_length_b   7.72129887
_cell_length_c   7.85914866
_cell_angle_alpha   98.72678530
_cell_angle_beta   99.77691255
_cell_angle_gamma   103.42093391
_symmetry_Int_Tables_number   1
_chemical_formula_structural   Li9Mn2Co5O16
_chemical_formula_sum   'Li9 Mn2 Co5 O16'
_cell_volume   284.97794293
_cell_formula_units_Z   1
loop_
 _symmetry_equiv_pos_site_id
 _symmetry_equiv_pos_as_xyz
  1  'x, y, z'
loop_
 _atom_site_type_symbol
 _atom_site_label
 _atom_site_symmetry_multiplicity
 _atom_site_fract_x
 _atom_site_fract_y
 _atom_site_fract_z
 _atom_site_occupancy
  Li  Li0  1  0.49374000  0.62995900  0.37769500  1
  Li  Li1  1  0.98854700  0.24903400  0.74432300  1
  Li  Li2  1  0.49815400  0.87419600  0.12968400  1
  Li  Li3  1  0.01145300  0.75096600  0.25567700  1
  Li  Li4  1  0.50626000  0.37004100  0.62230500  1
  Li  Li5  1  0.00000000  0.00000000  0.00000000  1
  Li  Li6  1  0.00000000  0.50000000  0.50000000  1
  Li  Li7  1  0.50184600  0.12580400  0.87031600  1
  Li  Li8  1  0.50000000  0.00000000  0.50000000  1
  Mn  Mn0  1  0.99980000  0.87473900  0.61836000  1
  Mn  Mn1  1  0.00020000  0.12526100  0.38164000  1
  Co  Co0  1  0.50000000  0.50000000  0.00000000  1
  Co  Co1  1  0.49718600  0.75322000  0.74547700  1
  Co  Co2  1  0.00424600  0.37347300  0.12558500  1
  Co  Co3  1  0.99575400  0.62652700  0.87441500  1
  Co  Co4  1  0.50281400  0.24678000  0.25452300  1
  O  O0  1  0.75126700  0.64136100  0.63025100  1
  O  O1  1  0.25174800  0.27041900  0.00243900  1
  O  O2  1  0.78470300  0.88622300  0.39198200  1
  O  O3  1  0.22994200  0.75720700  0.50582500  1
  O  O4  1  0.74417000  0.38223600  0.88514800  1
  O  O5  1  0.25367700  0.02376600  0.25129100  1
  O  O6  1  0.25463400  0.52540400  0.75496600  1
  O  O7  1  0.76530500  0.12717000  0.15120000  1
  O  O8  1  0.25583000  0.61776400  0.11485200  1
  O  O9  1  0.77005800  0.24279300  0.49417500  1
  O  O10  1  0.23469500  0.87283000  0.84880000  1
  O  O11  1  0.74825200  0.72958100  0.99756100  1
  O  O12  1  0.24873300  0.35863900  0.36974900  1
  O  O13  1  0.74632300  0.97623400  0.74870900  1
  O  O14  1  0.74536600  0.47459600  0.24503400  1
  O  O15  1  0.21529700  0.11377700  0.60801800  1
loop_
_geom_bond_atom_site_label_1
_geom_bond_atom_site_label_2
_geom_bond_distance
_geom_bond_site_symmetry_2
Li0 O3 2.114519 1_555
Li0 O2 2.141239 1_555
Li0 O0 2.152122 1_555
Li0 O12 2.153193 1_555
Li0 O8 2.178387 1_555
Li0 O14 2.207983 1_555
Li1 O15 2.036168 1_655
Li1 O9 2.068330 1_555
Li1 O4 2.114862 1_555
Li1 O13 2.180972 1_545
Li1 O1 2.182855 1_656
Li1 O6 2.218262 1_655
Li2 O8 2.042104 1_555
Li2 O7 2.059096 1_565
Li2 O5 2.111447 1_565
Li2 O11 2.150760 1_554
Li2 O2 2.277657 1_555
Li2 O10 2.367941 1_554
Li3 O2 2.036168 1_455
Li3 O3 2.068330 1_555
Li3 O8 2.114862 1_555
Li3 O5 2.180972 1_565
Li3 O11 2.182855 1_454
Li3 O14 2.218262 1_455
Li4 O9 2.114519 1_555
Li4 O15 2.141239 1_555
Li4 O12 2.152122 1_555
Li4 O0 2.153193 1_555
Li4 O4 2.178387 1_555
Li4 O6 2.207983 1_555
Li5 O10 2.099373 1_544
Li5 O7 2.099373 1_455
Li5 O5 2.115155 1_555
Li5 O13 2.115155 1_444
Li5 O11 2.168856 1_444
Li5 O1 2.168856 1_555
Li6 O9 2.040221 1_455
Li6 O3 2.040221 1_555
Li6 O12 2.123455 1_555
Li6 O0 2.123455 1_455
Li6 O6 2.138429 1_555
Li6 O14 2.138429 1_455
Li7 O4 2.042104 1_555
Li7 O10 2.059096 1_545
Li7 O13 2.111447 1_545
Li7 O1 2.150760 1_556
Li7 O15 2.277657 1_555
Li7 O7 2.367941 1_556
Li8 O9 2.052207 1_555
Li8 O3 2.052207 1_545
Li8 O15 2.069559 1_555
Li8 O2 2.069559 1_545
Li8 O13 2.183377 1_545
Li8 O5 2.183377 1_555
Mn0 O3 1.875225 1_655
Mn0 O15 1.930314 1_665
Mn0 O2 1.942167 1_555
Mn0 O0 1.962391 1_555
Mn0 O13 1.981900 1_555
Mn0 O10 1.988247 1_655
Mn1 O9 1.875225 1_455
Mn1 O2 1.930314 1_445
Mn1 O15 1.942167 1_555
Mn1 O12 1.962391 1_555
Mn1 O5 1.981900 1_555
Mn1 O7 1.988247 1_455
Co0 O1 1.918395 1_555
Co0 O11 1.918395 1_554
Co0 O4 1.942228 1_554
Co0 O8 1.942228 1_555
Co0 O6 2.162380 1_554
Co0 O14 2.162380 1_555
Co1 O13 1.870185 1_555
Co1 O6 1.910662 1_555
Co1 O0 1.960195 1_555
Co1 O10 1.982818 1_555
Co1 O3 2.124990 1_555
Co1 O11 2.214820 1_555
Co2 O1 1.931613 1_555
Co2 O14 1.955885 1_455
Co2 O8 2.032264 1_555
Co2 O7 2.056114 1_455
Co2 O4 2.123949 1_454
Co2 O12 2.127099 1_555
Co3 O11 1.931613 1_555
Co3 O6 1.955885 1_655
Co3 O4 2.032264 1_555
Co3 O10 2.056114 1_655
Co3 O8 2.123949 1_656
Co3 O0 2.127099 1_555
Co4 O5 1.870185 1_555
Co4 O14 1.910662 1_555
Co4 O12 1.960195 1_555
Co4 O7 1.982818 1_555
Co4 O9 2.124990 1_555
Co4 O1 2.214820 1_555
