# generated using pymatgen
data_Er(CuO2)2
_symmetry_space_group_name_H-M   'P 1'
_cell_length_a   5.55781793
_cell_length_b   5.62486736
_cell_length_c   6.14567429
_cell_angle_alpha   116.26579457
_cell_angle_beta   115.91015219
_cell_angle_gamma   91.90820253
_symmetry_Int_Tables_number   1
_chemical_formula_structural   Er(CuO2)2
_chemical_formula_sum   'Er2 Cu4 O8'
_cell_volume   148.72591295
_cell_formula_units_Z   2
loop_
 _symmetry_equiv_pos_site_id
 _symmetry_equiv_pos_as_xyz
  1  'x, y, z'
loop_
 _atom_site_type_symbol
 _atom_site_label
 _atom_site_symmetry_multiplicity
 _atom_site_fract_x
 _atom_site_fract_y
 _atom_site_fract_z
 _atom_site_occupancy
  Er  Er0  1  0.87488779  0.12489719  0.74978043  1
  Er  Er1  1  0.12511221  0.87510281  0.25021957  1
  Cu  Cu0  1  0.50000000  0.00000000  -0.00000000  1
  Cu  Cu1  1  0.50000000  0.50000000  -0.00000000  1
  Cu  Cu2  1  -0.00000000  0.50000000  0.50000000  1
  Cu  Cu3  1  0.50000000  0.50000000  0.50000000  1
  O  O0  1  0.72446381  0.52483251  0.85831197  1
  O  O1  1  0.13385524  0.83351880  0.85828512  1
  O  O2  1  0.27553619  0.47516749  0.14168803  1
  O  O3  1  0.86614476  0.16648120  0.14171488  1
  O  O4  1  0.53554307  0.13279625  0.35183876  1
  O  O5  1  0.81627591  0.71905117  0.35185586  1
  O  O6  1  0.18372409  0.28094883  0.64814414  1
  O  O7  1  0.46445693  0.86720375  0.64816124  1
loop_
_geom_bond_atom_site_label_1
_geom_bond_atom_site_label_2
_geom_bond_distance
_geom_bond_site_symmetry_2
Er0 O7 2.329826 1_545
Er0 O6 2.329967 1_655
Er0 O2 2.337097 1_656
Er0 O3 2.337371 1_556
Er0 O1 2.342666 1_645
Er0 O0 2.342863 1_555
Er0 O4 2.368733 1_555
Er0 O5 2.368789 1_545
Er1 O4 2.329826 1_565
Er1 O5 2.329967 1_455
Er1 O0 2.337097 1_454
Er1 O1 2.337371 1_554
Er1 O3 2.342666 1_465
Er1 O2 2.342863 1_555
Er1 O7 2.368733 1_555
Er1 O6 2.368789 1_565
Cu0 O1 1.838180 1_544
Cu0 O3 1.838180 1_555
Cu0 O7 1.860060 1_544
Cu0 O4 1.860060 1_555
Cu1 O0 1.838334 1_554
Cu1 O2 1.838334 1_555
Cu1 O6 1.860040 1_554
Cu1 O5 1.860040 1_555
Cu2 O5 1.911524 1_455
Cu2 O6 1.911524 1_555
Cu2 O3 1.934080 1_455
Cu2 O1 1.934080 1_555
Cu3 O4 1.911570 1_555
Cu3 O7 1.911570 1_555
Cu3 O2 1.933990 1_555
Cu3 O0 1.933990 1_555
