# generated using pymatgen
data_CrN2
_symmetry_space_group_name_H-M   'P 1'
_cell_length_a   4.60854900
_cell_length_b   4.58836800
_cell_length_c   8.28378631
_cell_angle_alpha   84.36684781
_cell_angle_beta   90.00000000
_cell_angle_gamma   90.00000000
_symmetry_Int_Tables_number   1
_chemical_formula_structural   CrN2
_chemical_formula_sum   'Cr4 N8'
_cell_volume   174.32069567
_cell_formula_units_Z   4
loop_
 _symmetry_equiv_pos_site_id
 _symmetry_equiv_pos_as_xyz
  1  'x, y, z'
loop_
 _atom_site_type_symbol
 _atom_site_label
 _atom_site_symmetry_multiplicity
 _atom_site_fract_x
 _atom_site_fract_y
 _atom_site_fract_z
 _atom_site_occupancy
  Cr  Cr0  1  0.01622400  0.16738600  0.31917800  1
  Cr  Cr1  1  0.01622400  0.83261400  0.68082200  1
  Cr  Cr2  1  0.41968700  0.40758900  0.81147800  1
  Cr  Cr3  1  0.41968700  0.59241100  0.18852200  1
  N  N0  1  0.24278300  0.08321700  0.78475400  1
  N  N1  1  0.24278300  0.91678300  0.21524600  1
  N  N2  1  0.31288600  0.50000000  0.00000000  1
  N  N3  1  0.26775300  0.39577100  0.37023700  1
  N  N4  1  0.26775300  0.60422900  0.62976300  1
  N  N5  1  0.87779500  0.00000000  0.50000000  1
  N  N6  1  0.75505300  0.57933600  0.77823700  1
  N  N7  1  0.75505300  0.42066400  0.22176300  1
loop_
_geom_bond_atom_site_label_1
_geom_bond_atom_site_label_2
_geom_bond_distance
_geom_bond_site_symmetry_2
Cr0 N3 1.645522 1_555
Cr0 N5 1.736285 1_455
Cr0 N7 1.807301 1_455
Cr0 N1 1.829733 1_545
Cr1 N4 1.645522 1_555
Cr1 N5 1.736285 1_465
Cr1 N6 1.807301 1_455
Cr1 N0 1.829733 1_565
Cr2 N2 1.729415 1_556
Cr2 N0 1.730175 1_555
Cr2 N6 1.744407 1_555
Cr2 N4 1.817582 1_555
Cr3 N2 1.729415 1_555
Cr3 N1 1.730175 1_555
Cr3 N7 1.744407 1_555
Cr3 N3 1.817582 1_555
