# generated using pymatgen
data_Cu3(I3O10)2
_symmetry_space_group_name_H-M   'P 1'
_cell_length_a   7.26239900
_cell_length_b   7.78225761
_cell_length_c   8.17369834
_cell_angle_alpha   105.50031994
_cell_angle_beta   95.18988984
_cell_angle_gamma   93.62513351
_symmetry_Int_Tables_number   1
_chemical_formula_structural   Cu3(I3O10)2
_chemical_formula_sum   'Cu3 I6 O20'
_cell_volume   441.49053393
_cell_formula_units_Z   1
loop_
 _symmetry_equiv_pos_site_id
 _symmetry_equiv_pos_as_xyz
  1  'x, y, z'
loop_
 _atom_site_type_symbol
 _atom_site_label
 _atom_site_symmetry_multiplicity
 _atom_site_fract_x
 _atom_site_fract_y
 _atom_site_fract_z
 _atom_site_occupancy
  Cu  Cu0  1  0.00000000  0.00000000  0.00000000  1
  Cu  Cu1  1  0.41886900  0.37538400  0.58655500  1
  Cu  Cu2  1  0.58113100  0.62461600  0.41344500  1
  I  I0  1  0.60350600  0.87562700  0.13713700  1
  I  I1  1  0.39649400  0.12437300  0.86286300  1
  I  I2  1  0.85732500  0.39996600  0.14667600  1
  I  I3  1  0.14267500  0.60003400  0.85332400  1
  I  I4  1  0.18431600  0.85261300  0.40342500  1
  I  I5  1  0.81568400  0.14738700  0.59657500  1
  O  O0  1  0.53033000  0.18980800  0.07347400  1
  O  O1  1  0.46967000  0.81019200  0.92652600  1
  O  O2  1  0.58213100  0.65257200  0.17936400  1
  O  O3  1  0.41786900  0.34742800  0.82063600  1
  O  O4  1  0.83960000  0.83425700  0.06191700  1
  O  O5  1  0.16040000  0.16574300  0.93808300  1
  O  O6  1  0.79636100  0.47599100  0.36817500  1
  O  O7  1  0.20363900  0.52400900  0.63182500  1
  O  O8  1  0.08138800  0.52985500  0.18195000  1
  O  O9  1  0.91861200  0.47014500  0.81805000  1
  O  O10  1  0.93007700  0.18262800  0.18265800  1
  O  O11  1  0.06992300  0.81737200  0.81734200  1
  O  O12  1  0.41561700  0.81161100  0.49491500  1
  O  O13  1  0.58438300  0.18838900  0.50508500  1
  O  O14  1  0.80587600  0.91901300  0.45194000  1
  O  O15  1  0.19412400  0.08098700  0.54806000  1
  O  O16  1  0.24960800  0.89725200  0.20649000  1
  O  O17  1  0.75039200  0.10274800  0.79351000  1
  O  O18  1  0.39857700  0.41845200  0.36772600  1
  O  O19  1  0.60142300  0.58154800  0.63227400  1
loop_
_geom_bond_atom_site_label_1
_geom_bond_atom_site_label_2
_geom_bond_distance
_geom_bond_site_symmetry_2
Cu0 O5 1.882120 1_554
Cu0 O4 1.882120 1_445
Cu0 O10 1.897670 1_455
Cu0 O11 1.897670 1_544
Cu1 O18 1.900599 1_555
Cu1 O19 1.947416 1_555
Cu1 O13 1.963188 1_555
Cu1 O3 1.983162 1_555
Cu1 O7 2.005611 1_555
Cu2 O19 1.900599 1_555
Cu2 O18 1.947416 1_555
Cu2 O12 1.963188 1_555
Cu2 O2 1.983162 1_555
Cu2 O6 2.005611 1_555
I0 O1 1.825831 1_554
I0 O2 1.858043 1_555
I0 O4 1.891103 1_555
I1 O0 1.825831 1_556
I1 O3 1.858043 1_555
I1 O5 1.891103 1_555
I2 O8 1.817731 1_655
I2 O6 1.851885 1_555
I2 O10 1.891348 1_555
I3 O9 1.817731 1_455
I3 O7 1.851885 1_555
I3 O11 1.891348 1_555
I4 O16 1.831053 1_555
I4 O15 1.845833 1_565
I4 O12 1.857641 1_555
I5 O17 1.831053 1_555
I5 O14 1.845833 1_545
I5 O13 1.857641 1_555
