# generated using pymatgen
data_Pr31Ni64
_symmetry_space_group_name_H-M   'P 1'
_cell_length_a   10.37848170
_cell_length_b   10.37848170
_cell_length_c   18.02366990
_cell_angle_alpha   73.26697507
_cell_angle_beta   90.00000000
_cell_angle_gamma   120.00000000
_symmetry_Int_Tables_number   1
_chemical_formula_structural   Pr31Ni64
_chemical_formula_sum   'Pr31 Ni64'
_cell_volume   1585.65394914
_cell_formula_units_Z   1
loop_
 _symmetry_equiv_pos_site_id
 _symmetry_equiv_pos_as_xyz
  1  'x, y, z'
loop_
 _atom_site_type_symbol
 _atom_site_label
 _atom_site_symmetry_multiplicity
 _atom_site_fract_x
 _atom_site_fract_y
 _atom_site_fract_z
 _atom_site_occupancy
  Pr  Pr0  1  0.49973963  0.99947927  0.00015895  1
  Pr  Pr1  1  0.99301864  0.98603728  0.49279732  1
  Pr  Pr2  1  0.75018808  0.99104610  0.25876583  1
  Pr  Pr3  1  0.25763534  0.99345605  0.74890860  1
  Pr  Pr4  1  0.00036178  0.50010142  0.00015895  1
  Pr  Pr5  1  0.52116540  0.51418404  0.49279732  1
  Pr  Pr6  1  0.75018808  0.50037616  0.25876583  1
  Pr  Pr7  1  0.25763534  0.51527068  0.74890860  1
  Pr  Pr8  1  0.49973963  0.50010142  0.00015895  1
  Pr  Pr9  1  0.99301864  0.51418404  0.49279732  1
  Pr  Pr10  1  0.24085802  0.99104610  0.25876583  1
  Pr  Pr11  1  0.73582071  0.99345605  0.74890860  1
  Pr  Pr12  1  0.43834764  0.37368561  0.18796676  1
  Pr  Pr13  1  0.94017475  0.37358085  0.68624440  1
  Pr  Pr14  1  0.43834764  0.87669527  0.18796676  1
  Pr  Pr15  1  0.94017475  0.88034949  0.68624440  1
  Pr  Pr16  1  0.18597791  0.37195583  0.44206626  1
  Pr  Pr17  1  0.68783248  0.37566497  0.93650255  1
  Pr  Pr18  1  0.93533797  0.37368561  0.18796676  1
  Pr  Pr19  1  0.43340610  0.37358085  0.68624440  1
  Pr  Pr20  1  0.64615945  0.90199225  0.45184830  1
  Pr  Pr21  1  0.18749398  0.87616256  0.93634346  1
  Pr  Pr22  1  0.64615945  0.29231890  0.45184830  1
  Pr  Pr23  1  0.18749398  0.37498796  0.93634346  1
  Pr  Pr24  1  0.93734186  0.87468372  0.18797443  1
  Pr  Pr25  1  0.45176752  0.90353504  0.64469743  1
  Pr  Pr26  1  0.25583280  0.90199225  0.45184830  1
  Pr  Pr27  1  0.68866858  0.87616256  0.93634346  1
  Pr  Pr28  1  0.24927198  0.49854396  0.25218406  1
  Pr  Pr29  1  0.75062232  0.50124464  0.74813304  1
  Pr  Pr30  1  0.99976719  0.99953439  0.00069842  1
  Ni  Ni0  1  0.96882865  0.18749579  0.34374598  1
  Ni  Ni1  1  0.46867073  0.18748624  0.84376475  1
  Ni  Ni2  1  0.46875823  0.68742537  0.34374598  1
  Ni  Ni3  1  0.96874901  0.68756452  0.84376475  1
  Ni  Ni4  1  0.21866225  0.68742322  0.09391453  1
  Ni  Ni5  1  0.71896754  0.68743802  0.59359444  1
  Ni  Ni6  1  0.96882865  0.43758689  0.34374598  1
  Ni  Ni7  1  0.46867073  0.43741974  0.84376475  1
  Ni  Ni8  1  0.21866225  0.43732449  0.09391453  1
  Ni  Ni9  1  0.71896754  0.43793508  0.59359444  1
  Ni  Ni10  1  0.46875823  0.43758689  0.34374598  1
  Ni  Ni11  1  0.96874901  0.43741974  0.84376475  1
  Ni  Ni12  1  0.59416446  0.68778967  0.21858512  1
  Ni  Ni13  1  0.09406832  0.68772826  0.71861179  1
  Ni  Ni14  1  0.09362521  0.18725042  0.21858512  1
  Ni  Ni15  1  0.59365994  0.18731989  0.71861179  1
  Ni  Ni16  1  0.09362521  0.68778967  0.21858512  1
  Ni  Ni17  1  0.59365994  0.68772826  0.71861179  1
  Ni  Ni18  1  0.46876097  0.68742322  0.09391453  1
  Ni  Ni19  1  0.96847048  0.68743802  0.59359444  1
  Ni  Ni20  1  0.21866713  0.68742537  0.34374598  1
  Ni  Ni21  1  0.71881551  0.68756452  0.84376475  1
  Ni  Ni22  1  0.21866713  0.18749579  0.34374598  1
  Ni  Ni23  1  0.71881551  0.18748624  0.84376475  1
  Ni  Ni24  1  0.96748031  0.68770131  0.34481838  1
  Ni  Ni25  1  0.46809669  0.68926759  0.84263572  1
  Ni  Ni26  1  0.96748031  0.93496061  0.34481838  1
  Ni  Ni27  1  0.46809669  0.93619338  0.84263572  1
  Ni  Ni28  1  0.84433995  0.68867991  0.46698014  1
  Ni  Ni29  1  0.34375834  0.68751668  0.96872498  1
  Ni  Ni30  1  0.72022100  0.68770131  0.34481838  1
  Ni  Ni31  1  0.22117090  0.68926759  0.84263572  1
  Ni  Ni32  1  0.71928967  0.18687182  0.09383851  1
  Ni  Ni33  1  0.21653975  0.18874724  0.59471301  1
  Ni  Ni34  1  0.71928967  0.43857935  0.09383851  1
  Ni  Ni35  1  0.21653975  0.43307950  0.59471301  1
  Ni  Ni36  1  0.59474110  0.18948221  0.21577669  1
  Ni  Ni37  1  0.09315160  0.18630320  0.72054520  1
  Ni  Ni38  1  0.46758215  0.18687182  0.09383851  1
  Ni  Ni39  1  0.97220750  0.18874724  0.59471301  1
  Ni  Ni40  1  0.71947115  0.68732898  0.09419166  1
  Ni  Ni41  1  0.20986440  0.67364572  0.59549114  1
  Ni  Ni42  1  0.21847936  0.18633719  0.09419166  1
  Ni  Ni43  1  0.73086314  0.19464446  0.59549114  1
  Ni  Ni44  1  0.47039241  0.19227502  0.33733257  1
  Ni  Ni45  1  0.96901164  0.18744909  0.84353927  1
  Ni  Ni46  1  0.71947115  0.93795050  0.09419166  1
  Ni  Ni47  1  0.20986440  0.94072754  0.59549114  1
  Ni  Ni48  1  0.47039241  0.94078481  0.33733257  1
  Ni  Ni49  1  0.96901164  0.93802329  0.84353927  1
  Ni  Ni50  1  0.21847936  0.93795050  0.09419166  1
  Ni  Ni51  1  0.73086314  0.94072754  0.59549114  1
  Ni  Ni52  1  0.85635256  0.19279519  0.47076217  1
  Ni  Ni53  1  0.34331308  0.18725351  0.96880606  1
  Ni  Ni54  1  0.33644264  0.67288527  0.47076217  1
  Ni  Ni55  1  0.84394043  0.68788086  0.96880606  1
  Ni  Ni56  1  0.33644264  0.19279519  0.47076217  1
  Ni  Ni57  1  0.84394043  0.18725351  0.96880606  1
  Ni  Ni58  1  0.72188262  0.19227502  0.33733257  1
  Ni  Ni59  1  0.21843744  0.18744909  0.84353927  1
  Ni  Ni60  1  0.96785783  0.18633719  0.09419166  1
  Ni  Ni61  1  0.46378132  0.19464446  0.59549114  1
  Ni  Ni62  1  0.96785783  0.68732898  0.09419166  1
  Ni  Ni63  1  0.46378132  0.67364572  0.59549114  1
loop_
_geom_bond_atom_site_label_1
_geom_bond_atom_site_label_2
_geom_bond_distance
_geom_bond_site_symmetry_2
Pr0 Pr21 3.187915 1_554
Pr0 Pr27 3.187915 1_554
Pr0 Pr17 3.188931 1_564
Pr0 Pr14 3.192522 1_555
Pr1 Pr16 3.280054 1_665
Pr1 Pr15 3.294955 1_555
Pr1 Pr26 3.390474 1_655
Pr1 Pr20 3.390474 1_555
Pr2 Pr24 3.176831 1_555
Pr2 Pr20 3.358677 1_555
Pr10 Pr24 3.176831 1_455
Pr10 Pr12 3.246899 1_565
Pr10 Pr14 3.246899 1_555
Pr10 Pr26 3.358677 1_555
Pr11 Pr27 3.189085 1_555
Pr11 Pr15 3.225656 1_555
Pr11 Pr13 3.225656 1_565
Pr11 Pr25 3.368663 1_555
Pr12 Pr8 3.192522 1_555
Pr12 Pr28 3.205627 1_555
Pr12 Pr6 3.246899 1_555
Pr13 Pr29 3.213639 1_555
Pr13 Pr7 3.225656 1_655
Pr13 Pr9 3.294955 1_555
Pr14 Pr28 3.205627 1_555
Pr14 Pr2 3.246899 1_555
Pr15 Pr29 3.213639 1_555
Pr15 Pr3 3.225656 1_655
Pr16 Pr28 3.227709 1_555
Pr16 Pr9 3.280054 1_455
Pr16 Pr5 3.280054 1_555
Pr17 Pr4 3.188931 1_656
Pr17 Pr8 3.188931 1_556
Pr17 Pr29 3.201996 1_555
Pr18 Pr4 3.192522 1_655
Pr18 Pr28 3.205627 1_655
Pr18 Pr6 3.246899 1_555
Pr18 Pr2 3.246899 1_545
Pr19 Pr29 3.213639 1_555
Pr19 Pr7 3.225656 1_555
Pr19 Pr3 3.225656 1_545
Pr19 Pr5 3.294955 1_555
Pr20 Pr5 3.390474 1_555
Pr21 Pr30 3.182868 1_456
Pr21 Pr4 3.187915 1_556
Pr21 Pr3 3.189085 1_555
Pr22 Pr6 3.358677 1_555
Pr22 Pr5 3.390474 1_555
Pr22 Pr9 3.390474 1_555
Pr23 Pr30 3.182868 1_446
Pr23 Pr8 3.187915 1_556
Pr23 Pr4 3.187915 1_556
Pr23 Pr7 3.189085 1_555
Pr24 Pr6 3.176831 1_555
Pr24 Pr30 3.183408 1_555
Pr25 Pr3 3.368663 1_555
Pr25 Pr7 3.368663 1_555
Pr26 Pr9 3.390474 1_455
Pr27 Pr30 3.182868 1_556
Pr27 Pr8 3.187915 1_556
Ni0 Ni58 2.590025 1_555
Ni0 Ni22 2.592944 1_655
Ni0 Ni6 2.595566 1_555
Ni0 Ni52 2.596782 1_555
Ni0 Ni14 2.602508 1_655
Ni0 Ni26 2.608449 1_545
Ni0 Pr2 2.970466 1_545
Ni0 Pr1 2.990349 1_545
Ni0 Pr28 3.025324 1_655
Ni0 Pr18 3.047230 1_555
Ni0 Pr16 3.085999 1_655
Ni0 Pr20 3.247075 1_545
Ni1 Ni7 2.593930 1_555
Ni1 Ni23 2.596123 1_555
Ni1 Ni59 2.596852 1_555
Ni1 Ni53 2.601070 1_555
Ni1 Ni15 2.602972 1_555
Ni1 Ni27 2.611003 1_545
Ni1 Pr21 3.034224 1_545
Ni1 Pr17 3.036315 1_555
Ni1 Pr0 3.052695 1_546
Ni1 Pr3 3.057297 1_545
Ni1 Pr29 3.062143 1_555
Ni1 Pr19 3.077994 1_555
Ni2 Ni48 2.590025 1_555
Ni2 Ni20 2.595566 1_555
Ni2 Ni54 2.596782 1_555
Ni2 Ni30 2.608449 1_555
Ni2 Pr2 2.970466 1_555
Ni2 Pr5 2.990349 1_555
Ni2 Pr28 3.025324 1_555
Ni2 Pr14 3.047230 1_555
Ni2 Pr16 3.085999 1_555
Ni2 Pr20 3.247075 1_555
Ni3 Ni49 2.596852 1_555
Ni3 Ni55 2.601070 1_555
Ni3 Ni31 2.611003 1_655
Ni3 Pr21 3.034224 1_655
Ni3 Pr17 3.036315 1_555
Ni3 Pr4 3.052695 1_656
Ni3 Pr3 3.057297 1_655
Ni3 Pr29 3.062143 1_555
Ni3 Pr15 3.077994 1_555
Ni4 Ni8 2.595645 1_555
Ni4 Ni50 2.602484 1_555
Ni4 Ni62 2.602484 1_455
Ni4 Pr4 3.042237 1_555
Ni4 Pr0 3.042237 1_555
Ni4 Pr18 3.060948 1_455
Ni4 Pr14 3.060948 1_555
Ni4 Pr21 3.072063 1_554
Ni4 Pr28 3.079566 1_555
Ni5 Ni63 2.579534 1_555
Ni5 Ni51 2.579534 1_555
Ni5 Ni9 2.589462 1_555
Ni5 Pr5 2.989615 1_555
Ni5 Pr1 2.989615 1_555
Ni5 Pr29 3.022552 1_555
Ni5 Pr15 3.065360 1_555
Ni5 Pr19 3.065360 1_555
Ni5 Pr20 3.234678 1_555
Ni6 Pr6 2.970466 1_555
Ni6 Pr9 2.990349 1_555
Ni6 Pr28 3.025324 1_655
Ni6 Pr18 3.047230 1_555
Ni6 Pr16 3.085999 1_655
Ni6 Pr22 3.247075 1_555
Ni7 Pr23 3.034224 1_555
Ni7 Pr17 3.036315 1_555
Ni7 Pr8 3.052695 1_556
Ni7 Pr7 3.057297 1_555
Ni7 Pr29 3.062143 1_555
Ni7 Pr19 3.077994 1_555
Ni8 Pr8 3.042237 1_555
Ni8 Pr4 3.042237 1_555
Ni8 Pr12 3.060948 1_555
Ni8 Pr18 3.060948 1_455
Ni8 Pr23 3.072063 1_554
Ni8 Pr28 3.079566 1_555
Ni9 Pr5 2.989615 1_555
Ni9 Pr9 2.989615 1_555
Ni9 Pr29 3.022552 1_555
Ni9 Pr13 3.065360 1_555
Ni9 Pr19 3.065360 1_555
Ni9 Pr22 3.234678 1_555
Ni10 Ni44 2.590025 1_555
Ni10 Ni2 2.592944 1_555
Ni10 Ni22 2.595566 1_555
Ni10 Ni56 2.596782 1_555
Ni10 Ni12 2.602508 1_555
Ni10 Ni30 2.608449 1_555
Ni10 Pr6 2.970466 1_555
Ni10 Pr5 2.990349 1_555
Ni10 Pr28 3.025324 1_555
Ni10 Pr12 3.047230 1_555
Ni10 Pr16 3.085999 1_555
Ni10 Pr22 3.247075 1_555
Ni11 Ni23 2.593930 1_555
Ni11 Ni3 2.596123 1_555
Ni11 Ni45 2.596852 1_555
Ni11 Ni57 2.601070 1_555
Ni11 Ni13 2.602972 1_655
Ni11 Ni31 2.611003 1_655
Ni11 Pr23 3.034224 1_655
Ni11 Pr17 3.036315 1_555
Ni11 Pr4 3.052695 1_656
Ni11 Pr7 3.057297 1_655
Ni11 Pr29 3.062143 1_555
Ni11 Pr13 3.077994 1_555
Ni12 Ni46 2.594297 1_555
Ni12 Ni40 2.594298 1_555
Ni12 Ni18 2.596726 1_555
Ni12 Ni2 2.602508 1_555
Ni12 Ni30 2.624511 1_555
Ni12 Pr24 3.037675 1_555
Ni12 Pr6 3.044398 1_555
Ni12 Pr2 3.044398 1_555
Ni12 Pr12 3.051384 1_555
Ni12 Pr14 3.051384 1_555
Ni12 Pr28 3.053135 1_555
Ni13 Ni31 2.595519 1_555
Ni13 Ni41 2.598539 1_555
Ni13 Ni47 2.598539 1_555
Ni13 Ni3 2.602972 1_455
Ni13 Ni19 2.603147 1_455
Ni13 Pr3 2.976427 1_555
Ni13 Pr7 2.976427 1_555
Ni13 Pr29 3.040158 1_455
Ni13 Pr13 3.067439 1_455
Ni13 Pr15 3.067439 1_455
Ni13 Pr25 3.246542 1_555
Ni14 Ni60 2.594298 1_455
Ni14 Ni42 2.594298 1_555
Ni14 Ni8 2.596726 1_555
Ni14 Ni22 2.602508 1_555
Ni14 Ni26 2.624511 1_445
Ni14 Pr24 3.037675 1_445
Ni14 Pr2 3.044398 1_445
Ni14 Pr10 3.044398 1_545
Ni14 Pr18 3.051384 1_455
Ni14 Pr12 3.051384 1_555
Ni14 Pr28 3.053135 1_555
Ni15 Ni27 2.595519 1_545
Ni15 Ni61 2.598539 1_555
Ni15 Ni43 2.598539 1_555
Ni15 Ni23 2.602972 1_555
Ni15 Ni9 2.603147 1_555
Ni15 Pr3 2.976427 1_545
Ni15 Pr11 2.976427 1_545
Ni15 Pr29 3.040158 1_555
Ni15 Pr19 3.067439 1_555
Ni15 Pr13 3.067439 1_555
Ni15 Pr25 3.246543 1_545
Ni16 Ni50 2.594297 1_555
Ni16 Ni62 2.594298 1_455
Ni16 Ni4 2.596726 1_555
Ni16 Ni20 2.602508 1_555
Ni16 Ni6 2.602508 1_455
Ni16 Ni24 2.624511 1_455
Ni16 Pr24 3.037675 1_455
Ni16 Pr6 3.044398 1_455
Ni16 Pr10 3.044398 1_555
Ni16 Pr18 3.051384 1_455
Ni16 Pr14 3.051384 1_555
Ni16 Pr28 3.053135 1_555
Ni17 Ni25 2.595519 1_555
Ni17 Ni63 2.598539 1_555
Ni17 Ni51 2.598539 1_555
Ni17 Ni7 2.602972 1_555
Ni17 Ni21 2.602972 1_555
Ni17 Ni5 2.603147 1_555
Ni17 Pr11 2.976427 1_555
Ni17 Pr7 2.976427 1_555
Ni17 Pr29 3.040158 1_555
Ni17 Pr19 3.067439 1_555
Ni17 Pr15 3.067439 1_555
Ni17 Pr25 3.246542 1_555
Ni18 Ni4 2.595645 1_555
Ni18 Ni8 2.595645 1_555
Ni18 Ni46 2.602484 1_555
Ni18 Ni40 2.602484 1_555
Ni18 Ni29 2.602751 1_554
Ni18 Pr8 3.042237 1_555
Ni18 Pr0 3.042237 1_555
Ni18 Pr14 3.060948 1_555
Ni18 Pr12 3.060948 1_555
Ni18 Pr27 3.072063 1_554
Ni18 Pr28 3.079566 1_555
Ni19 Ni41 2.579534 1_655
Ni19 Ni47 2.579534 1_655
Ni19 Ni9 2.589462 1_555
Ni19 Ni5 2.589462 1_555
Ni19 Ni28 2.620551 1_555
Ni19 Pr1 2.989615 1_555
Ni19 Pr9 2.989615 1_555
Ni19 Pr29 3.022552 1_555
Ni19 Pr15 3.065360 1_555
Ni19 Pr13 3.065360 1_555
Ni19 Pr26 3.234678 1_655
Ni20 Ni48 2.590025 1_555
Ni20 Ni6 2.592944 1_455
Ni20 Ni54 2.596782 1_555
Ni20 Ni24 2.608449 1_455
Ni20 Pr10 2.970466 1_555
Ni20 Pr9 2.990349 1_455
Ni20 Pr28 3.025324 1_555
Ni20 Pr14 3.047230 1_555
Ni20 Pr16 3.085999 1_555
Ni20 Pr26 3.247075 1_555
Ni21 Ni3 2.593930 1_555
Ni21 Ni7 2.596123 1_555
Ni21 Ni49 2.596852 1_555
Ni21 Ni55 2.601070 1_555
Ni21 Ni25 2.611003 1_555
Ni21 Pr27 3.034224 1_555
Ni21 Pr17 3.036315 1_555
Ni21 Pr8 3.052695 1_556
Ni21 Pr11 3.057297 1_555
Ni21 Pr29 3.062143 1_555
Ni21 Pr15 3.077994 1_555
Ni22 Ni44 2.590025 1_555
Ni22 Ni56 2.596782 1_555
Ni22 Ni26 2.608449 1_445
Ni22 Pr10 2.970466 1_545
Ni22 Pr1 2.990349 1_445
Ni22 Pr28 3.025324 1_555
Ni22 Pr12 3.047230 1_555
Ni22 Pr16 3.085999 1_555
Ni22 Pr26 3.247075 1_545
Ni23 Ni45 2.596852 1_555
Ni23 Ni57 2.601070 1_555
Ni23 Ni27 2.611003 1_545
Ni23 Pr27 3.034224 1_545
Ni23 Pr17 3.036315 1_555
Ni23 Pr0 3.052695 1_546
Ni23 Pr11 3.057297 1_545
Ni23 Pr29 3.062143 1_555
Ni23 Pr13 3.077994 1_555
Ni24 Ni28 2.550923 1_555
Ni24 Ni26 2.566176 1_555
Ni24 Ni30 2.566176 1_555
Ni24 Ni6 2.608449 1_555
Ni24 Pr9 2.852792 1_555
Ni24 Pr6 2.936489 1_555
Ni24 Pr10 2.936489 1_655
Ni24 Pr24 3.050119 1_555
Ni25 Ni27 2.562715 1_555
Ni25 Ni31 2.562715 1_555
Ni25 Ni29 2.604422 1_555
Ni25 Ni7 2.611003 1_555
Ni25 Pr11 2.949235 1_555
Ni25 Pr7 2.949235 1_555
Ni25 Pr23 3.049836 1_555
Ni25 Pr27 3.049836 1_555
Ni25 Pr8 3.075401 1_556
Ni26 Ni28 2.550923 1_555
Ni26 Ni30 2.566176 1_555
Ni26 Pr1 2.852792 1_555
Ni26 Pr10 2.936489 1_655
Ni26 Pr2 2.936489 1_555
Ni26 Pr24 3.050119 1_555
Ni27 Ni31 2.562715 1_555
Ni27 Ni29 2.604422 1_555
Ni27 Pr11 2.949235 1_555
Ni27 Pr3 2.949235 1_555
Ni27 Pr27 3.049836 1_555
Ni27 Pr21 3.049836 1_555
Ni27 Pr0 3.075402 1_556
Ni28 Ni30 2.550923 1_555
Ni28 Ni5 2.620551 1_555
Ni28 Ni9 2.620551 1_555
Ni28 Pr1 2.861210 1_555
Ni28 Pr5 2.861210 1_555
Ni28 Pr9 2.861210 1_555
Ni29 Ni4 2.602751 1_556
Ni29 Ni8 2.602751 1_556
Ni29 Ni31 2.604422 1_555
Ni29 Pr8 3.039615 1_556
Ni29 Pr0 3.039615 1_556
Ni29 Pr4 3.039615 1_556
Ni29 Pr27 3.053077 1_555
Ni29 Pr21 3.053077 1_555
Ni29 Pr23 3.053077 1_555
Ni30 Pr5 2.852792 1_555
Ni30 Pr6 2.936489 1_555
Ni30 Pr2 2.936489 1_555
Ni30 Pr24 3.050119 1_555
Ni31 Pr3 2.949235 1_555
Ni31 Pr7 2.949235 1_555
Ni31 Pr23 3.049836 1_555
Ni31 Pr21 3.049836 1_555
Ni31 Pr4 3.075402 1_556
Ni32 Ni36 2.563421 1_555
Ni32 Ni60 2.582543 1_555
Ni32 Ni46 2.582543 1_545
Ni32 Ni57 2.596504 1_554
Ni32 Ni38 2.612342 1_555
Ni32 Ni34 2.612342 1_555
Ni32 Pr14 3.035086 1_545
Ni32 Pr18 3.035086 1_555
Ni32 Pr4 3.047074 1_655
Ni32 Pr0 3.047074 1_545
Ni32 Pr17 3.070436 1_554
Ni32 Pr2 3.200412 1_545
Ni33 Ni39 2.535798 1_455
Ni33 Ni35 2.535798 1_555
Ni33 Ni47 2.536080 1_545
Ni33 Ni61 2.536080 1_555
Ni33 Ni56 2.536725 1_555
Ni33 Ni37 2.592018 1_555
Ni33 Pr16 2.979298 1_555
Ni33 Pr19 2.995332 1_555
Ni33 Pr15 2.995333 1_445
Ni33 Pr3 3.103969 1_545
Ni33 Pr1 3.244468 1_445
Ni33 Pr5 3.244468 1_555
Ni34 Ni36 2.563421 1_555
Ni34 Ni40 2.582543 1_555
Ni34 Ni62 2.582543 1_555
Ni34 Ni55 2.596504 1_554
Ni34 Ni38 2.612342 1_555
Ni34 Pr12 3.035085 1_555
Ni34 Pr18 3.035086 1_555
Ni34 Pr8 3.047074 1_555
Ni34 Pr4 3.047074 1_655
Ni34 Pr17 3.070436 1_554
Ni34 Pr6 3.200412 1_555
Ni35 Ni39 2.535798 1_455
Ni35 Ni63 2.536080 1_555
Ni35 Ni41 2.536080 1_555
Ni35 Ni54 2.536725 1_555
Ni35 Ni37 2.592018 1_555
Ni35 Pr16 2.979298 1_555
Ni35 Pr19 2.995332 1_555
Ni35 Pr13 2.995332 1_455
Ni35 Pr7 3.103969 1_555
Ni35 Pr5 3.244468 1_555
Ni35 Pr9 3.244468 1_455
Ni36 Ni44 2.557402 1_555
Ni36 Ni48 2.557402 1_545
Ni36 Ni58 2.557402 1_555
Ni36 Ni38 2.563421 1_555
Ni36 Pr12 3.015263 1_555
Ni36 Pr18 3.015263 1_555
Ni36 Pr14 3.015263 1_545
Ni36 Pr10 3.138182 1_545
Ni36 Pr6 3.138182 1_555
Ni36 Pr2 3.138182 1_545
Ni37 Ni49 2.569981 1_445
Ni37 Ni59 2.569981 1_555
Ni37 Ni45 2.569981 1_455
Ni37 Ni39 2.592018 1_455
Ni37 Pr19 3.012417 1_555
Ni37 Pr13 3.012417 1_455
Ni37 Pr15 3.012417 1_445
Ni37 Pr7 3.163677 1_555
Ni37 Pr11 3.163677 1_445
Ni37 Pr3 3.163677 1_545
Ni38 Ni42 2.582543 1_555
Ni38 Ni50 2.582543 1_545
Ni38 Ni53 2.596504 1_554
Ni38 Pr14 3.035086 1_545
Ni38 Pr12 3.035086 1_555
Ni38 Pr0 3.047074 1_545
Ni38 Pr8 3.047074 1_555
Ni38 Pr17 3.070436 1_554
Ni38 Pr10 3.200412 1_545
Ni39 Ni51 2.536080 1_545
Ni39 Ni43 2.536080 1_555
Ni39 Ni52 2.536725 1_555
Ni39 Pr16 2.979298 1_655
Ni39 Pr13 2.995333 1_555
Ni39 Pr15 2.995333 1_545
Ni39 Pr11 3.103969 1_545
Ni39 Pr1 3.244468 1_545
Ni39 Pr9 3.244468 1_555
Ni40 Ni62 2.577877 1_555
Ni40 Ni55 2.600215 1_554
Ni40 Ni46 2.601071 1_555
Ni40 Pr30 3.038275 1_555
Ni40 Pr24 3.040852 1_555
Ni40 Pr12 3.049568 1_555
Ni40 Pr8 3.051856 1_555
Ni40 Pr27 3.074573 1_554
Ni40 Pr6 3.157428 1_555
Ni41 Ni54 2.607732 1_555
Ni41 Ni63 2.635272 1_555
Ni41 Ni47 2.771904 1_555
Ni41 Pr26 2.807687 1_555
Ni41 Pr25 2.830294 1_555
Ni41 Pr13 2.925456 1_455
Ni41 Pr7 2.965019 1_555
Ni41 Pr9 3.044508 1_455
Ni42 Ni50 2.577877 1_545
Ni42 Ni53 2.600215 1_554
Ni42 Ni60 2.601071 1_455
Ni42 Ni8 2.602484 1_555
Ni42 Pr30 3.038275 1_445
Ni42 Pr24 3.040852 1_445
Ni42 Pr12 3.049568 1_555
Ni42 Pr8 3.051856 1_555
Ni42 Pr23 3.074573 1_554
Ni42 Pr10 3.157428 1_545
Ni43 Ni9 2.579534 1_555
Ni43 Ni52 2.607732 1_555
Ni43 Ni51 2.635272 1_545
Ni43 Ni61 2.771904 1_555
Ni43 Pr22 2.807687 1_555
Ni43 Pr25 2.830294 1_545
Ni43 Pr13 2.925456 1_555
Ni43 Pr11 2.965019 1_545
Ni43 Pr9 3.044508 1_555
Ni44 Ni48 2.610087 1_545
Ni44 Ni58 2.610087 1_555
Ni44 Ni56 2.780495 1_555
Ni44 Pr22 2.829450 1_555
Ni44 Pr26 2.829450 1_545
Ni44 Pr12 2.934356 1_555
Ni44 Pr10 2.961352 1_545
Ni44 Pr6 2.961352 1_555
Ni45 Ni49 2.588661 1_545
Ni45 Ni59 2.588661 1_655
Ni45 Ni57 2.603301 1_555
Ni45 Pr23 3.031347 1_655
Ni45 Pr27 3.031347 1_545
Ni45 Pr13 3.046844 1_555
Ni45 Pr30 3.061120 1_546
Ni45 Pr7 3.150326 1_655
Ni45 Pr11 3.150326 1_545
Ni46 Ni60 2.577877 1_565
Ni46 Ni57 2.600215 1_564
Ni46 Pr30 3.038275 1_555
Ni46 Pr24 3.040852 1_555
Ni46 Pr14 3.049568 1_555
Ni46 Pr0 3.051856 1_555
Ni46 Pr27 3.074573 1_554
Ni46 Pr2 3.157428 1_555
Ni47 Ni56 2.607732 1_565
Ni47 Ni61 2.635272 1_565
Ni47 Pr26 2.807687 1_555
Ni47 Pr25 2.830294 1_555
Ni47 Pr15 2.925456 1_455
Ni47 Pr3 2.965019 1_555
Ni47 Pr1 3.044508 1_455
Ni48 Ni58 2.610087 1_565
Ni48 Ni54 2.780495 1_555
Ni48 Pr20 2.829450 1_555
Ni48 Pr26 2.829450 1_555
Ni48 Pr14 2.934356 1_555
Ni48 Pr2 2.961352 1_555
Ni48 Pr10 2.961352 1_555
Ni49 Ni59 2.588661 1_665
Ni49 Ni55 2.603301 1_555
Ni49 Pr27 3.031347 1_555
Ni49 Pr21 3.031347 1_655
Ni49 Pr15 3.046844 1_555
Ni49 Pr30 3.061120 1_556
Ni49 Pr11 3.150326 1_555
Ni49 Pr3 3.150326 1_655
Ni50 Ni53 2.600215 1_564
Ni50 Ni62 2.601071 1_455
Ni50 Pr30 3.038275 1_455
Ni50 Pr24 3.040852 1_455
Ni50 Pr14 3.049568 1_555
Ni50 Pr0 3.051855 1_555
Ni50 Pr21 3.074573 1_554
Ni50 Pr10 3.157428 1_555
Ni51 Ni52 2.607732 1_565
Ni51 Ni63 2.771904 1_555
Ni51 Pr20 2.807687 1_555
Ni51 Pr25 2.830294 1_555
Ni51 Pr15 2.925456 1_555
Ni51 Pr11 2.965019 1_555
Ni51 Pr1 3.044508 1_555
Ni52 Ni6 2.596782 1_555
Ni52 Ni58 2.780495 1_555
Ni52 Pr20 2.827100 1_545
Ni52 Pr22 2.827100 1_555
Ni52 Pr16 2.917771 1_655
Ni52 Pr1 3.054020 1_545
Ni52 Pr9 3.054020 1_555
Ni53 Ni7 2.601070 1_555
Ni53 Ni59 2.603301 1_555
Ni53 Pr30 3.040964 1_446
Ni53 Pr21 3.041095 1_545
Ni53 Pr23 3.041095 1_555
Ni53 Pr0 3.046729 1_546
Ni53 Pr8 3.046729 1_556
Ni53 Pr17 3.049612 1_555
Ni54 Ni63 2.607732 1_555
Ni54 Pr20 2.827100 1_555
Ni54 Pr26 2.827100 1_555
Ni54 Pr16 2.917771 1_555
Ni54 Pr5 3.054020 1_555
Ni54 Pr9 3.054020 1_455
Ni55 Ni62 2.600215 1_556
Ni55 Pr30 3.040964 1_556
Ni55 Pr27 3.041095 1_555
Ni55 Pr21 3.041095 1_655
Ni55 Pr4 3.046729 1_656
Ni55 Pr8 3.046729 1_556
Ni55 Pr17 3.049612 1_555
Ni56 Ni61 2.607732 1_555
Ni56 Pr26 2.827100 1_545
Ni56 Pr22 2.827100 1_555
Ni56 Pr16 2.917772 1_555
Ni56 Pr1 3.054020 1_445
Ni56 Pr5 3.054020 1_555
Ni57 Ni60 2.600215 1_556
Ni57 Pr30 3.040963 1_546
Ni57 Pr27 3.041095 1_545
Ni57 Pr23 3.041095 1_655
Ni57 Pr0 3.046729 1_546
Ni57 Pr4 3.046729 1_656
Ni57 Pr17 3.049612 1_555
Ni58 Ni6 2.590025 1_555
Ni58 Pr20 2.829450 1_545
Ni58 Pr22 2.829450 1_555
Ni58 Pr18 2.934356 1_555
Ni58 Pr2 2.961352 1_545
Ni58 Pr6 2.961352 1_555
Ni59 Ni7 2.596852 1_555
Ni59 Pr23 3.031347 1_555
Ni59 Pr21 3.031347 1_545
Ni59 Pr19 3.046844 1_555
Ni59 Pr30 3.061120 1_446
Ni59 Pr7 3.150326 1_555
Ni59 Pr3 3.150326 1_545
Ni60 Ni8 2.602484 1_655
Ni60 Pr30 3.038275 1_545
Ni60 Pr24 3.040852 1_545
Ni60 Pr18 3.049568 1_555
Ni60 Pr4 3.051856 1_655
Ni60 Pr23 3.074573 1_654
Ni60 Pr2 3.157428 1_545
Ni61 Ni9 2.579534 1_555
Ni61 Pr22 2.807687 1_555
Ni61 Pr25 2.830294 1_545
Ni61 Pr19 2.925456 1_555
Ni61 Pr3 2.965019 1_545
Ni61 Pr5 3.044508 1_555
Ni62 Pr30 3.038275 1_555
Ni62 Pr24 3.040852 1_555
Ni62 Pr18 3.049568 1_555
Ni62 Pr4 3.051856 1_655
Ni62 Pr21 3.074573 1_654
Ni62 Pr6 3.157428 1_555
Ni63 Pr20 2.807687 1_555
Ni63 Pr25 2.830294 1_555
Ni63 Pr19 2.925456 1_555
Ni63 Pr7 2.965019 1_555
Ni63 Pr5 3.044508 1_555
