# generated using pymatgen
data_Zn3Si4(SbO7)2
_symmetry_space_group_name_H-M   'P 1'
_cell_length_a   9.39850532
_cell_length_b   9.39850532
_cell_length_c   10.61268390
_cell_angle_alpha   60.09367832
_cell_angle_beta   60.09367832
_cell_angle_gamma   53.00375317
_symmetry_Int_Tables_number   1
_chemical_formula_structural   Zn3Si4(SbO7)2
_chemical_formula_sum   'Zn6 Si8 Sb4 O28'
_cell_volume   621.74844419
_cell_formula_units_Z   2
loop_
 _symmetry_equiv_pos_site_id
 _symmetry_equiv_pos_as_xyz
  1  'x, y, z'
loop_
 _atom_site_type_symbol
 _atom_site_label
 _atom_site_symmetry_multiplicity
 _atom_site_fract_x
 _atom_site_fract_y
 _atom_site_fract_z
 _atom_site_occupancy
  Zn  Zn0  1  0.01462200  0.30978400  0.10830300  1
  Zn  Zn1  1  0.69021600  0.98537800  0.39169700  1
  Zn  Zn2  1  0.30978400  0.01462200  0.60830300  1
  Zn  Zn3  1  0.41950000  0.58050000  0.75000000  1
  Zn  Zn4  1  0.98537800  0.69021600  0.89169700  1
  Zn  Zn5  1  0.58050000  0.41950000  0.25000000  1
  Si  Si0  1  0.52249700  0.08895600  0.71249800  1
  Si  Si1  1  0.08895600  0.52249700  0.21249800  1
  Si  Si2  1  0.49165600  0.26676200  0.11336200  1
  Si  Si3  1  0.26676200  0.49165600  0.61336200  1
  Si  Si4  1  0.91104400  0.47750300  0.78750200  1
  Si  Si5  1  0.50834400  0.73323800  0.88663800  1
  Si  Si6  1  0.73323800  0.50834400  0.38663800  1
  Si  Si7  1  0.47750300  0.91104400  0.28750200  1
  Sb  Sb0  1  0.79660700  0.20339300  0.75000000  1
  Sb  Sb1  1  0.20339300  0.79660700  0.25000000  1
  Sb  Sb2  1  0.00000000  0.00000000  0.00000000  1
  Sb  Sb3  1  0.00000000  0.00000000  0.50000000  1
  O  O0  1  0.79751600  0.34249600  0.31711500  1
  O  O1  1  0.93657100  0.89798300  0.39923400  1
  O  O2  1  0.49322900  0.61341200  0.06336400  1
  O  O3  1  0.89798300  0.93657100  0.89923400  1
  O  O4  1  0.27034300  0.94308900  0.32142500  1
  O  O5  1  0.06919800  0.51526600  0.63121500  1
  O  O6  1  0.61341200  0.49322900  0.56336400  1
  O  O7  1  0.05691100  0.72965700  0.17857500  1
  O  O8  1  0.93080200  0.48473400  0.36878500  1
  O  O9  1  0.63328500  0.70439800  0.26215200  1
  O  O10  1  0.06342900  0.10201700  0.60076600  1
  O  O11  1  0.72965700  0.05691100  0.67857500  1
  O  O12  1  0.48473400  0.93080200  0.86878500  1
  O  O13  1  0.34249600  0.79751600  0.81711500  1
  O  O14  1  0.70439800  0.63328500  0.76215200  1
  O  O15  1  0.94308900  0.27034300  0.82142500  1
  O  O16  1  0.92327200  0.49977900  0.92456300  1
  O  O17  1  0.36671500  0.29560200  0.73784800  1
  O  O18  1  0.50022100  0.07672800  0.57543700  1
  O  O19  1  0.29560200  0.36671500  0.23784800  1
  O  O20  1  0.51526600  0.06919800  0.13121500  1
  O  O21  1  0.10201700  0.06342900  0.10076600  1
  O  O22  1  0.49977900  0.92327200  0.42456300  1
  O  O23  1  0.50677100  0.38658800  0.93663600  1
  O  O24  1  0.07672800  0.50022100  0.07543700  1
  O  O25  1  0.38658800  0.50677100  0.43663600  1
  O  O26  1  0.65750400  0.20248400  0.18288500  1
  O  O27  1  0.20248400  0.65750400  0.68288500  1
loop_
_geom_bond_atom_site_label_1
_geom_bond_atom_site_label_2
_geom_bond_distance
_geom_bond_site_symmetry_2
O0 Si6 1.705285 1_555
O0 Zn5 2.085485 1_555
O0 Zn0 2.141106 1_655
O1 Zn1 1.967814 1_555
O1 Sb1 2.091297 1_655
O1 Sb3 2.182741 1_665
O2 Si5 1.620728 1_554
O2 Zn5 2.034396 1_555
O2 Sb1 2.585291 1_555
O3 Zn4 1.967814 1_555
O3 Sb0 2.091297 1_565
O3 Sb2 2.182741 1_666
O4 Si7 1.647584 1_555
O4 Sb3 2.215188 1_565
O4 Sb1 2.329086 1_555
O5 Si4 1.635825 1_455
O5 Si3 1.651697 1_555
O6 Si6 1.620728 1_555
O6 Zn3 2.034396 1_555
O6 Sb0 2.585291 1_555
O7 Si1 1.647584 1_555
O7 Sb2 2.215188 1_565
O7 Sb1 2.329086 1_555
O8 Si1 1.635825 1_655
O8 Si6 1.651697 1_555
O9 Si7 1.641332 1_555
O9 Si6 1.658302 1_555
O10 Zn2 1.967814 1_555
O10 Sb0 2.091297 1_455
O10 Sb3 2.182741 1_555
O11 Si0 1.647584 1_555
O11 Sb3 2.215188 1_655
O11 Sb0 2.329086 1_555
O12 Si0 1.635825 1_565
O12 Si5 1.651697 1_555
O13 Si5 1.705285 1_555
O13 Zn3 2.085485 1_555
O13 Zn2 2.141106 1_565
O14 Si4 1.641332 1_555
O14 Si5 1.658302 1_555
O15 Si4 1.647584 1_555
O15 Sb2 2.215188 1_656
O15 Sb0 2.329086 1_555
O16 Si4 1.634681 1_555
O16 Zn0 2.019971 1_656
O16 Zn4 2.024267 1_555
O17 Si0 1.641332 1_555
O17 Si3 1.658302 1_555
O18 Si0 1.634681 1_555
O18 Zn1 2.019971 1_545
O18 Zn2 2.024267 1_555
O19 Si1 1.641332 1_555
O19 Si2 1.658302 1_555
O20 Si7 1.635825 1_545
O20 Si2 1.651697 1_555
O21 Zn0 1.967814 1_555
O21 Sb1 2.091297 1_545
O21 Sb2 2.182741 1_555
O22 Si7 1.634681 1_555
O22 Zn2 2.019971 1_565
O22 Zn1 2.024267 1_555
O23 Si2 1.620728 1_556
O23 Zn3 2.034396 1_555
O23 Sb0 2.585291 1_555
O24 Si1 1.634681 1_555
O24 Zn4 2.019971 1_454
O24 Zn0 2.024267 1_555
O25 Si3 1.620728 1_555
O25 Zn5 2.034396 1_555
O25 Sb1 2.585291 1_555
O26 Si2 1.705285 1_555
O26 Zn5 2.085485 1_555
O26 Zn1 2.141106 1_545
O27 Si3 1.705285 1_555
O27 Zn3 2.085485 1_555
O27 Zn4 2.141106 1_455
