# generated using pymatgen
data_Mg(ZnSb)2
_symmetry_space_group_name_H-M   'P 1'
_cell_length_a   4.33680308
_cell_length_b   4.33680308
_cell_length_c   7.22099657
_cell_angle_alpha   90.00000000
_cell_angle_beta   90.00000000
_cell_angle_gamma   120.00000677
_symmetry_Int_Tables_number   1
_chemical_formula_structural   Mg(ZnSb)2
_chemical_formula_sum   'Mg1 Zn2 Sb2'
_cell_volume   117.61620083
_cell_formula_units_Z   1
loop_
 _symmetry_equiv_pos_site_id
 _symmetry_equiv_pos_as_xyz
  1  'x, y, z'
loop_
 _atom_site_type_symbol
 _atom_site_label
 _atom_site_symmetry_multiplicity
 _atom_site_fract_x
 _atom_site_fract_y
 _atom_site_fract_z
 _atom_site_occupancy
  Mg  Mg0  1  -0.00000000  -0.00000000  0.00000000  1
  Zn  Zn0  1  0.33333300  0.66666700  0.61945601  1
  Zn  Zn1  1  0.66666700  0.33333300  0.38054399  1
  Sb  Sb0  1  0.33333300  0.66666700  0.23810861  1
  Sb  Sb1  1  0.66666700  0.33333300  0.76189139  1
loop_
_geom_bond_atom_site_label_1
_geom_bond_atom_site_label_2
_geom_bond_distance
_geom_bond_site_symmetry_2
Mg0 Sb1 3.037359 1_454
Mg0 Sb0 3.037359 1_545
Mg0 Sb1 3.037362 1_444
Mg0 Sb0 3.037362 1_555
Mg0 Sb0 3.037362 1_445
Mg0 Sb1 3.037362 1_554
Sb0 Zn1 2.706869 1_455
Sb0 Zn1 2.706869 1_565
Sb0 Zn1 2.706876 1_555
Sb0 Zn0 2.753708 1_555
Sb1 Zn0 2.706869 1_545
Sb1 Zn0 2.706869 1_655
Sb1 Zn0 2.706876 1_555
Sb1 Zn1 2.753708 1_555
