# generated using pymatgen
data_NdEuCuS3
_symmetry_space_group_name_H-M   'P 1'
_cell_length_a   4.04315300
_cell_length_b   11.03674400
_cell_length_c   11.42447100
_cell_angle_alpha   90.00000000
_cell_angle_beta   90.00000000
_cell_angle_gamma   90.00000000
_symmetry_Int_Tables_number   1
_chemical_formula_structural   NdEuCuS3
_chemical_formula_sum   'Nd4 Eu4 Cu4 S12'
_cell_volume   509.79696402
_cell_formula_units_Z   4
loop_
 _symmetry_equiv_pos_site_id
 _symmetry_equiv_pos_as_xyz
  1  'x, y, z'
loop_
 _atom_site_type_symbol
 _atom_site_label
 _atom_site_symmetry_multiplicity
 _atom_site_fract_x
 _atom_site_fract_y
 _atom_site_fract_z
 _atom_site_occupancy
  Nd  Nd0  1  0.25000000  0.01165100  0.18336900  1
  Nd  Nd1  1  0.25000000  0.51165100  0.31663100  1
  Nd  Nd2  1  0.75000000  0.98834900  0.81663100  1
  Nd  Nd3  1  0.75000000  0.48834900  0.68336900  1
  Eu  Eu0  1  0.25000000  0.68304200  0.99544700  1
  Eu  Eu1  1  0.25000000  0.18304200  0.50455300  1
  Eu  Eu2  1  0.75000000  0.31695800  0.00455300  1
  Eu  Eu3  1  0.75000000  0.81695800  0.49544700  1
  Cu  Cu0  1  0.25000000  0.25590900  0.78633400  1
  Cu  Cu1  1  0.25000000  0.75590900  0.71366600  1
  Cu  Cu2  1  0.75000000  0.74409100  0.21366600  1
  Cu  Cu3  1  0.75000000  0.24409100  0.28633400  1
  S  S0  1  0.25000000  0.11583600  0.94257200  1
  S  S1  1  0.25000000  0.61583600  0.55742800  1
  S  S2  1  0.75000000  0.88416400  0.05742800  1
  S  S3  1  0.75000000  0.38416400  0.44257200  1
  S  S4  1  0.25000000  0.45145100  0.86155700  1
  S  S5  1  0.25000000  0.95145100  0.63844300  1
  S  S6  1  0.75000000  0.54854900  0.13844300  1
  S  S7  1  0.75000000  0.04854900  0.36155700  1
  S  S8  1  0.25000000  0.27711100  0.19140600  1
  S  S9  1  0.25000000  0.77711100  0.30859400  1
  S  S10  1  0.75000000  0.72288900  0.80859400  1
  S  S11  1  0.75000000  0.22288900  0.69140600  1
loop_
_geom_bond_atom_site_label_1
_geom_bond_atom_site_label_2
_geom_bond_distance
_geom_bond_site_symmetry_2
Nd0 S2 2.852492 1_445
Nd0 S2 2.852492 1_545
Nd0 S7 2.897706 1_455
Nd0 S7 2.897706 1_555
Nd0 S8 2.931252 1_555
Nd0 S9 2.957589 1_545
Nd0 S0 2.981622 1_554
Nd1 S3 2.852492 1_455
Nd1 S3 2.852492 1_555
Nd1 S6 2.897706 1_555
Nd1 S6 2.897706 1_455
Nd1 S9 2.931252 1_555
Nd1 S8 2.957589 1_555
Nd1 S1 2.981622 1_555
Nd2 S0 2.852492 1_565
Nd2 S0 2.852492 1_665
Nd2 S5 2.897706 1_655
Nd2 S5 2.897706 1_555
Nd2 S10 2.931252 1_555
Nd2 S11 2.957589 1_565
Nd2 S2 2.981622 1_556
Nd3 S1 2.852492 1_555
Nd3 S1 2.852492 1_655
Nd3 S4 2.897706 1_555
Nd3 S4 2.897706 1_655
Nd3 S11 2.931252 1_555
Nd3 S10 2.957589 1_555
Nd3 S3 2.981622 1_555
Eu0 S10 2.972728 1_555
Eu0 S10 2.972728 1_455
Eu0 S4 2.978747 1_555
Eu0 S6 2.993148 1_456
Eu0 S6 2.993148 1_556
Eu0 S2 3.084702 1_456
Eu0 S2 3.084702 1_556
Eu1 S11 2.972728 1_455
Eu1 S11 2.972728 1_555
Eu1 S5 2.978747 1_545
Eu1 S7 2.993148 1_555
Eu1 S7 2.993148 1_455
Eu1 S3 3.084702 1_555
Eu1 S3 3.084702 1_455
Eu2 S8 2.972728 1_655
Eu2 S8 2.972728 1_555
Eu2 S6 2.978747 1_555
Eu2 S4 2.993148 1_654
Eu2 S4 2.993148 1_554
Eu2 S0 3.084702 1_654
Eu2 S0 3.084702 1_554
Eu3 S9 2.972728 1_655
Eu3 S9 2.972728 1_555
Eu3 S7 2.978747 1_565
Eu3 S5 2.993148 1_555
Eu3 S5 2.993148 1_655
Eu3 S1 3.084702 1_555
Eu3 S1 3.084702 1_655
Cu0 S11 2.322871 1_555
Cu0 S11 2.322871 1_455
Cu0 S4 2.322959 1_555
Cu0 S0 2.361347 1_555
Cu1 S10 2.322871 1_555
Cu1 S10 2.322871 1_455
Cu1 S5 2.322959 1_555
Cu1 S1 2.361347 1_555
Cu2 S9 2.322871 1_555
Cu2 S9 2.322871 1_655
Cu2 S6 2.322959 1_555
Cu2 S2 2.361347 1_555
Cu3 S8 2.322871 1_655
Cu3 S8 2.322871 1_555
Cu3 S7 2.322959 1_555
Cu3 S3 2.361347 1_555
