# generated using pymatgen
data_Al2Si2O9
_symmetry_space_group_name_H-M   'P 1'
_cell_length_a   5.21456800
_cell_length_b   5.23300146
_cell_length_c   15.31064646
_cell_angle_alpha   98.28794746
_cell_angle_beta   90.00000000
_cell_angle_gamma   119.88354356
_symmetry_Int_Tables_number   1
_chemical_formula_structural   Al2Si2O9
_chemical_formula_sum   'Al4 Si4 O18'
_cell_volume   357.20318333
_cell_formula_units_Z   2
loop_
 _symmetry_equiv_pos_site_id
 _symmetry_equiv_pos_as_xyz
  1  'x, y, z'
loop_
 _atom_site_type_symbol
 _atom_site_label
 _atom_site_symmetry_multiplicity
 _atom_site_fract_x
 _atom_site_fract_y
 _atom_site_fract_z
 _atom_site_occupancy
  Al  Al0  1  0.21747200  0.64019000  0.72610700  1
  Al  Al1  1  0.42271800  0.64019000  0.22610700  1
  Al  Al2  1  0.94276500  0.00382900  0.72686000  1
  Al  Al3  1  0.06106400  0.00382900  0.22686000  1
  Si  Si0  1  0.86346500  0.19801900  0.54320800  1
  Si  Si1  1  0.33455500  0.19801900  0.04320800  1
  Si  Si2  1  0.18051900  0.85496200  0.54277500  1
  Si  Si3  1  0.67444300  0.85496200  0.04277500  1
  O  O0  1  0.51403500  0.04654200  0.51422400  1
  O  O1  1  0.53250700  0.04654200  0.01422400  1
  O  O2  1  0.97428200  0.96909000  0.50337900  1
  O  O3  1  0.99480700  0.96909000  0.00337900  1
  O  O4  1  0.04458700  0.50484000  0.50289300  1
  O  O5  1  0.46025300  0.50484000  0.00289300  1
  O  O6  1  0.93731500  0.27258400  0.65235000  1
  O  O7  1  0.33526800  0.27258400  0.15235000  1
  O  O8  1  0.17778000  0.89108600  0.65224600  1
  O  O9  1  0.71330600  0.89108600  0.15224600  1
  O  O10  1  0.56781800  0.67509100  0.67880400  1
  O  O11  1  0.10727200  0.67509100  0.17880400  1
  O  O12  1  0.59748200  0.97726700  0.78735700  1
  O  O13  1  0.37978500  0.97726700  0.28735700  1
  O  O14  1  0.97981200  0.75183600  0.79582800  1
  O  O15  1  0.77202400  0.75183600  0.29582800  1
  O  O16  1  0.21650800  0.37266400  0.79597100  1
  O  O17  1  0.15615600  0.37266400  0.29597100  1
loop_
_geom_bond_atom_site_label_1
_geom_bond_atom_site_label_2
_geom_bond_distance
_geom_bond_site_symmetry_2
Al0 O16 1.878513 1_555
Al0 O14 1.886370 1_455
Al0 O10 1.897657 1_555
Al0 O6 1.919202 1_455
Al0 O8 1.935027 1_555
Al0 O12 1.989371 1_555
Al1 O17 1.878513 1_555
Al1 O15 1.886370 1_555
Al1 O11 1.897662 1_555
Al1 O7 1.919201 1_555
Al1 O9 1.935027 1_555
Al1 O13 1.989371 1_555
Al2 O14 1.883227 1_545
Al2 O16 1.883713 1_655
Al2 O10 1.899199 1_545
Al2 O8 1.918634 1_645
Al2 O6 1.944877 1_555
Al2 O12 1.976561 1_545
Al3 O15 1.883227 1_445
Al3 O17 1.883713 1_555
Al3 O11 1.899196 1_545
Al3 O9 1.918634 1_445
Al3 O7 1.944875 1_555
Al3 O13 1.976561 1_545
O0 Si0 1.613916 1_555
O0 Si2 1.615461 1_545
O1 Si1 1.613912 1_555
O1 Si3 1.615461 1_545
O2 Si0 1.618697 1_565
O2 Si2 1.618936 1_655
O3 Si1 1.618705 1_665
O3 Si3 1.618931 1_555
O4 Si2 1.617263 1_555
O4 Si0 1.620363 1_455
O5 Si3 1.617263 1_555
O5 Si1 1.620364 1_555
O6 Si0 1.659878 1_555
O7 Si1 1.659880 1_555
O8 Si2 1.660272 1_555
O9 Si3 1.660272 1_555
