# generated using pymatgen
data_KHgSb
_symmetry_space_group_name_H-M   'P 1'
_cell_length_a   4.84360814
_cell_length_b   4.84360814
_cell_length_c   10.26769444
_cell_angle_alpha   90.00000000
_cell_angle_beta   90.00000000
_cell_angle_gamma   120.00001828
_symmetry_Int_Tables_number   1
_chemical_formula_structural   KHgSb
_chemical_formula_sum   'K2 Hg2 Sb2'
_cell_volume   208.61305737
_cell_formula_units_Z   2
loop_
 _symmetry_equiv_pos_site_id
 _symmetry_equiv_pos_as_xyz
  1  'x, y, z'
loop_
 _atom_site_type_symbol
 _atom_site_label
 _atom_site_symmetry_multiplicity
 _atom_site_fract_x
 _atom_site_fract_y
 _atom_site_fract_z
 _atom_site_occupancy
  K  K0  1  -0.00000000  0.00000000  0.50000000  1
  K  K1  1  -0.00000000  0.00000000  0.00000000  1
  Hg  Hg0  1  0.66666700  0.33333300  0.25000000  1
  Hg  Hg1  1  0.33333300  0.66666700  0.75000000  1
  Sb  Sb0  1  0.33333300  0.66666700  0.25000000  1
  Sb  Sb1  1  0.66666700  0.33333300  0.75000000  1
loop_
_geom_bond_atom_site_label_1
_geom_bond_atom_site_label_2
_geom_bond_distance
_geom_bond_site_symmetry_2
K0 Sb1 3.795953 1_455
K0 Sb0 3.795953 1_545
K0 Sb0 3.795956 1_555
K0 Sb1 3.795956 1_445
K0 Sb0 3.795956 1_445
K0 Sb1 3.795956 1_555
K1 Sb1 3.795953 1_454
K1 Sb0 3.795953 1_545
K1 Sb0 3.795956 1_555
K1 Sb1 3.795956 1_444
K1 Sb1 3.795956 1_554
K1 Sb0 3.795956 1_445
Hg0 Sb0 2.796455 1_545
Hg0 Sb0 2.796455 1_655
Hg0 Sb0 2.796464 1_555
Hg0 K0 3.795953 1_655
Hg0 K1 3.795953 1_655
Hg0 K0 3.795956 1_555
Hg0 K1 3.795956 1_555
Hg0 K0 3.795956 1_665
Hg0 K1 3.795956 1_665
Hg1 Sb1 2.796455 1_455
Hg1 Sb1 2.796455 1_565
Hg1 Sb1 2.796464 1_555
Hg1 K0 3.795953 1_565
Hg1 K1 3.795953 1_566
Hg1 K0 3.795956 1_555
Hg1 K0 3.795956 1_665
Hg1 K1 3.795956 1_556
Hg1 K1 3.795956 1_666
