# generated using pymatgen
data_NdV2Fe10N
_symmetry_space_group_name_H-M   'P 1'
_cell_length_a   6.52233764
_cell_length_b   6.52233764
_cell_length_c   6.52233764
_cell_angle_alpha   136.55028721
_cell_angle_beta   98.22730086
_cell_angle_gamma   97.52282929
_symmetry_Int_Tables_number   1
_chemical_formula_structural   NdV2Fe10N
_chemical_formula_sum   'Nd1 V2 Fe10 N1'
_cell_volume   177.26045481
_cell_formula_units_Z   1
loop_
 _symmetry_equiv_pos_site_id
 _symmetry_equiv_pos_as_xyz
  1  'x, y, z'
loop_
 _atom_site_type_symbol
 _atom_site_label
 _atom_site_symmetry_multiplicity
 _atom_site_fract_x
 _atom_site_fract_y
 _atom_site_fract_z
 _atom_site_occupancy
  Nd  Nd0  1  0.00000000  0.00000000  0.00000000  1
  V  V0  1  0.64042900  0.64042900  0.00000000  1
  V  V1  1  0.35957100  0.35957100  0.00000000  1
  Fe  Fe0  1  0.22542300  0.50000000  0.72542300  1
  Fe  Fe1  1  0.77457700  0.50000000  0.27457700  1
  Fe  Fe2  1  0.22390800  0.72390800  0.50000000  1
  Fe  Fe3  1  0.77609200  0.27609200  0.50000000  1
  Fe  Fe4  1  0.00000000  0.00000000  0.50000000  1
  Fe  Fe5  1  0.00000000  0.50000000  0.00000000  1
  Fe  Fe6  1  0.50000000  0.50000000  0.50000000  1
  Fe  Fe7  1  0.50000000  0.00000000  0.00000000  1
  Fe  Fe8  1  0.63842100  0.00000000  0.63842100  1
  Fe  Fe9  1  0.36157900  0.00000000  0.36157900  1
  N  N0  1  0.00000000  0.50000000  0.50000000  1
loop_
_geom_bond_atom_site_label_1
_geom_bond_atom_site_label_2
_geom_bond_distance
_geom_bond_site_symmetry_2
Nd0 V1 3.091950 1_555
Nd0 V0 3.091950 1_445
V0 V1 2.415097 1_555
Fe0 N0 1.924781 1_555
Fe0 Fe6 2.474389 1_555
Fe0 Fe4 2.474389 1_555
Fe0 Fe5 2.474389 1_556
Fe0 Fe7 2.474389 1_566
Fe0 V1 2.637192 1_556
Fe0 V0 2.637192 1_556
Fe0 Fe9 2.679578 1_566
Fe0 Fe9 2.679578 1_555
Fe1 N0 1.924781 1_655
Fe1 Fe5 2.474389 1_655
Fe1 Fe4 2.474389 1_665
Fe1 Fe7 2.474389 1_555
Fe1 Fe6 2.474389 1_555
Fe1 V0 2.637192 1_555
Fe1 V1 2.637192 1_555
Fe1 Fe8 2.679578 1_554
Fe1 Fe8 2.679578 1_565
Fe2 N0 1.925384 1_555
Fe2 Fe7 2.462547 1_566
Fe2 Fe6 2.462547 1_555
Fe2 Fe5 2.462547 1_555
Fe2 Fe4 2.462547 1_565
Fe2 Fe9 2.652044 1_565
Fe2 Fe8 2.652044 1_565
Fe2 V1 2.681313 1_566
Fe2 V1 2.681313 1_555
Fe3 N0 1.925384 1_655
Fe3 Fe5 2.462547 1_656
Fe3 Fe6 2.462547 1_555
Fe3 Fe7 2.462547 1_555
Fe3 Fe4 2.462547 1_655
Fe3 Fe9 2.652044 1_555
Fe3 Fe8 2.652044 1_555
Fe3 V0 2.681313 1_545
Fe3 V0 2.681313 1_556
Fe4 Fe5 2.414242 1_545
Fe4 Fe5 2.414242 1_556
Fe4 V0 2.627079 1_445
Fe4 V1 2.627079 1_556
Fe4 Fe8 2.643150 1_455
Fe4 Fe9 2.643150 1_555
Fe4 Nd0 3.261169 1_555
Fe4 Nd0 3.261169 1_556
Fe5 V0 2.627079 1_455
Fe5 V1 2.627079 1_555
Fe5 Fe9 2.643150 1_565
Fe5 Fe8 2.643150 1_454
Fe5 Nd0 3.261169 1_565
Fe5 Nd0 3.261169 1_555
Fe6 Fe7 2.414242 1_566
Fe6 Fe7 2.414242 1_555
Fe6 V0 2.627079 1_556
Fe6 V1 2.627079 1_555
Fe6 Fe8 2.643150 1_565
Fe6 Fe9 2.643150 1_555
Fe6 Nd0 3.261169 1_666
Fe6 Nd0 3.261169 1_555
Fe7 V0 2.627079 1_545
Fe7 V1 2.627079 1_555
Fe7 Fe8 2.643150 1_554
Fe7 Fe9 2.643150 1_555
Fe7 Nd0 3.261169 1_655
Fe7 Nd0 3.261169 1_555
Fe8 Fe9 2.363824 1_555
Fe8 V0 2.946804 1_556
Fe8 V1 2.946804 1_545
Fe8 V1 2.946804 1_556
Fe8 V0 2.946804 1_545
Fe8 Nd0 3.087354 1_656
Fe9 V1 2.946804 1_545
Fe9 V0 2.946804 1_556
Fe9 V1 2.946804 1_556
Fe9 V0 2.946804 1_545
Fe9 Nd0 3.087354 1_555
N0 Nd0 2.414242 1_555
N0 Nd0 2.414242 1_566
