# generated using pymatgen
data_Tb2O3
_symmetry_space_group_name_H-M   'P 1'
_cell_length_a   3.68185302
_cell_length_b   3.68185330
_cell_length_c   5.83317276
_cell_angle_alpha   90.00000000
_cell_angle_beta   90.00000000
_cell_angle_gamma   120.00000649
_symmetry_Int_Tables_number   1
_chemical_formula_structural   Tb2O3
_chemical_formula_sum   'Tb2 O3'
_cell_volume   68.48072821
_cell_formula_units_Z   1
loop_
 _symmetry_equiv_pos_site_id
 _symmetry_equiv_pos_as_xyz
  1  'x, y, z'
loop_
 _atom_site_type_symbol
 _atom_site_label
 _atom_site_symmetry_multiplicity
 _atom_site_fract_x
 _atom_site_fract_y
 _atom_site_fract_z
 _atom_site_occupancy
  Tb  Tb0  1  0.66666700  0.33333300  0.75087350  1
  Tb  Tb1  1  0.33333300  0.66666700  0.24912650  1
  O  O0  1  0.66666700  0.33333300  0.35401820  1
  O  O1  1  0.33333300  0.66666700  0.64598180  1
  O  O2  1  -0.00000000  0.00000000  -0.00000000  1
loop_
_geom_bond_atom_site_label_1
_geom_bond_atom_site_label_2
_geom_bond_distance
_geom_bond_site_symmetry_2
O0 Tb1 2.212020 1_655
O0 Tb1 2.212020 1_545
O0 Tb1 2.212027 1_555
O0 Tb0 2.314926 1_555
O1 Tb0 2.212020 1_455
O1 Tb0 2.212020 1_565
O1 Tb0 2.212027 1_555
O1 Tb1 2.314926 1_555
O2 Tb1 2.574967 1_545
O2 Tb0 2.574967 1_454
O2 Tb1 2.574970 1_445
O2 Tb0 2.574970 1_554
O2 Tb1 2.574970 1_555
O2 Tb0 2.574970 1_444
