# generated using pymatgen
data_Pr2(N4O9)3
_symmetry_space_group_name_H-M   'P 1'
_cell_length_a   13.76016042
_cell_length_b   13.76016042
_cell_length_c   13.76016042
_cell_angle_alpha   90.00000000
_cell_angle_beta   90.00000000
_cell_angle_gamma   90.00000000
_symmetry_Int_Tables_number   1
_chemical_formula_structural   Pr2(N4O9)3
_chemical_formula_sum   'Pr8 N48 O108'
_cell_volume   2605.37649768
_cell_formula_units_Z   4
loop_
 _symmetry_equiv_pos_site_id
 _symmetry_equiv_pos_as_xyz
  1  'x, y, z'
loop_
 _atom_site_type_symbol
 _atom_site_label
 _atom_site_symmetry_multiplicity
 _atom_site_fract_x
 _atom_site_fract_y
 _atom_site_fract_z
 _atom_site_occupancy
  Pr  Pr0  1  0.06081506  0.06081506  0.06081506  1
  Pr  Pr1  1  0.43918494  0.93918494  0.56081506  1
  Pr  Pr2  1  0.93918494  0.56081506  0.43918494  1
  Pr  Pr3  1  0.81081506  0.31081506  0.18918494  1
  Pr  Pr4  1  0.56081506  0.43918494  0.93918494  1
  Pr  Pr5  1  0.68918494  0.68918494  0.68918494  1
  Pr  Pr6  1  0.31081506  0.18918494  0.81081506  1
  Pr  Pr7  1  0.18918494  0.81081506  0.31081506  1
  N  N0  1  0.09767417  0.42288815  0.35963792  1
  N  N1  1  0.40232583  0.57711185  0.85963792  1
  N  N2  1  0.90232583  0.92288815  0.14036208  1
  N  N3  1  0.35963792  0.09767417  0.42288815  1
  N  N4  1  0.17288815  0.34767417  0.89036208  1
  N  N5  1  0.59767417  0.07711185  0.64036208  1
  N  N6  1  0.85963792  0.40232583  0.57711185  1
  N  N7  1  0.32711185  0.65232583  0.39036208  1
  N  N8  1  0.14036208  0.90232583  0.92288815  1
  N  N9  1  0.67288815  0.15232583  0.10963792  1
  N  N10  1  0.64036208  0.59767417  0.07711185  1
  N  N11  1  0.82711185  0.84767417  0.60963792  1
  N  N12  1  0.42288815  0.35963792  0.09767417  1
  N  N13  1  0.84767417  0.60963792  0.82711185  1
  N  N14  1  0.92288815  0.14036208  0.90232583  1
  N  N15  1  0.65232583  0.39036208  0.32711185  1
  N  N16  1  0.07711185  0.64036208  0.59767417  1
  N  N17  1  0.34767417  0.89036208  0.17288815  1
  N  N18  1  0.57711185  0.85963792  0.40232583  1
  N  N19  1  0.15232583  0.10963792  0.67288815  1
  N  N20  1  0.89036208  0.17288815  0.34767417  1
  N  N21  1  0.39036208  0.32711185  0.65232583  1
  N  N22  1  0.60963792  0.82711185  0.84767417  1
  N  N23  1  0.10963792  0.67288815  0.15232583  1
  N  N24  1  0.12500000  0.19877702  0.44877702  1
  N  N25  1  0.37500000  0.80122298  0.94877702  1
  N  N26  1  0.87500000  0.69877702  0.05122298  1
  N  N27  1  0.44877702  0.12500000  0.19877702  1
  N  N28  1  0.94877702  0.37500000  0.80122298  1
  N  N29  1  0.62500000  0.30122298  0.55122298  1
  N  N30  1  0.55122298  0.62500000  0.30122298  1
  N  N31  1  0.05122298  0.87500000  0.69877702  1
  N  N32  1  0.19877702  0.44877702  0.12500000  1
  N  N33  1  0.69877702  0.05122298  0.87500000  1
  N  N34  1  0.30122298  0.55122298  0.62500000  1
  N  N35  1  0.80122298  0.94877702  0.37500000  1
  N  N36  1  0.12500000  0.02103714  0.27103714  1
  N  N37  1  0.37500000  0.97896286  0.77103714  1
  N  N38  1  0.87500000  0.52103714  0.22896286  1
  N  N39  1  0.27103714  0.12500000  0.02103714  1
  N  N40  1  0.77103714  0.37500000  0.97896286  1
  N  N41  1  0.62500000  0.47896286  0.72896286  1
  N  N42  1  0.72896286  0.62500000  0.47896286  1
  N  N43  1  0.22896286  0.87500000  0.52103714  1
  N  N44  1  0.02103714  0.27103714  0.12500000  1
  N  N45  1  0.52103714  0.22896286  0.87500000  1
  N  N46  1  0.47896286  0.72896286  0.62500000  1
  N  N47  1  0.97896286  0.77103714  0.37500000  1
  O  O0  1  0.12500000  0.95376122  0.20376122  1
  O  O1  1  0.37500000  0.04623878  0.70376122  1
  O  O2  1  0.87500000  0.45376122  0.29623878  1
  O  O3  1  0.20376122  0.12500000  0.95376122  1
  O  O4  1  0.70376122  0.37500000  0.04623878  1
  O  O5  1  0.62500000  0.54623878  0.79623878  1
  O  O6  1  0.79623878  0.62500000  0.54623878  1
  O  O7  1  0.29623878  0.87500000  0.45376122  1
  O  O8  1  0.95376122  0.20376122  0.12500000  1
  O  O9  1  0.45376122  0.29623878  0.87500000  1
  O  O10  1  0.54623878  0.79623878  0.62500000  1
  O  O11  1  0.04623878  0.70376122  0.37500000  1
  O  O12  1  0.09597447  0.10374845  0.24809288  1
  O  O13  1  0.40402553  0.89625155  0.74809288  1
  O  O14  1  0.90402553  0.60374845  0.25190712  1
  O  O15  1  0.24809288  0.09597447  0.10374845  1
  O  O16  1  0.85374845  0.34597447  0.00190712  1
  O  O17  1  0.59597447  0.39625155  0.75190712  1
  O  O18  1  0.74809288  0.40402553  0.89625155  1
  O  O19  1  0.64625155  0.65402553  0.50190712  1
  O  O20  1  0.25190712  0.90402553  0.60374845  1
  O  O21  1  0.35374845  0.15402553  0.99809288  1
  O  O22  1  0.75190712  0.59597447  0.39625155  1
  O  O23  1  0.14625155  0.84597447  0.49809288  1
  O  O24  1  0.10374845  0.24809288  0.09597447  1
  O  O25  1  0.84597447  0.49809288  0.14625155  1
  O  O26  1  0.60374845  0.25190712  0.90402553  1
  O  O27  1  0.65402553  0.50190712  0.64625155  1
  O  O28  1  0.39625155  0.75190712  0.59597447  1
  O  O29  1  0.34597447  0.00190712  0.85374845  1
  O  O30  1  0.89625155  0.74809288  0.40402553  1
  O  O31  1  0.15402553  0.99809288  0.35374845  1
  O  O32  1  0.00190712  0.85374845  0.34597447  1
  O  O33  1  0.50190712  0.64625155  0.65402553  1
  O  O34  1  0.49809288  0.14625155  0.84597447  1
  O  O35  1  0.99809288  0.35374845  0.15402553  1
  O  O36  1  0.04886492  0.39953114  0.43432430  1
  O  O37  1  0.45113508  0.60046886  0.93432430  1
  O  O38  1  0.95113508  0.89953114  0.06567570  1
  O  O39  1  0.43432430  0.04886492  0.39953114  1
  O  O40  1  0.14953114  0.29886492  0.81567570  1
  O  O41  1  0.54886492  0.10046886  0.56567570  1
  O  O42  1  0.93432430  0.45113508  0.60046886  1
  O  O43  1  0.35046886  0.70113508  0.31567570  1
  O  O44  1  0.06567570  0.95113508  0.89953114  1
  O  O45  1  0.64953114  0.20113508  0.18432430  1
  O  O46  1  0.56567570  0.54886492  0.10046886  1
  O  O47  1  0.85046886  0.79886492  0.68432430  1
  O  O48  1  0.39953114  0.43432430  0.04886492  1
  O  O49  1  0.79886492  0.68432430  0.85046886  1
  O  O50  1  0.89953114  0.06567570  0.95113508  1
  O  O51  1  0.70113508  0.31567570  0.35046886  1
  O  O52  1  0.10046886  0.56567570  0.54886492  1
  O  O53  1  0.29886492  0.81567570  0.14953114  1
  O  O54  1  0.60046886  0.93432430  0.45113508  1
  O  O55  1  0.20113508  0.18432430  0.64953114  1
  O  O56  1  0.81567570  0.14953114  0.29886492  1
  O  O57  1  0.31567570  0.35046886  0.70113508  1
  O  O58  1  0.68432430  0.85046886  0.79886492  1
  O  O59  1  0.18432430  0.64953114  0.20113508  1
  O  O60  1  0.15968485  0.36730017  0.32464654  1
  O  O61  1  0.34031515  0.63269983  0.82464654  1
  O  O62  1  0.84031515  0.86730017  0.17535346  1
  O  O63  1  0.32464654  0.15968485  0.36730017  1
  O  O64  1  0.11730017  0.40968485  0.92535346  1
  O  O65  1  0.65968485  0.13269983  0.67535346  1
  O  O66  1  0.82464654  0.34031515  0.63269983  1
  O  O67  1  0.38269983  0.59031515  0.42535346  1
  O  O68  1  0.17535346  0.84031515  0.86730017  1
  O  O69  1  0.61730017  0.09031515  0.07464654  1
  O  O70  1  0.67535346  0.65968485  0.13269983  1
  O  O71  1  0.88269983  0.90968485  0.57464654  1
  O  O72  1  0.36730017  0.32464654  0.15968485  1
  O  O73  1  0.90968485  0.57464654  0.88269983  1
  O  O74  1  0.86730017  0.17535346  0.84031515  1
  O  O75  1  0.59031515  0.42535346  0.38269983  1
  O  O76  1  0.13269983  0.67535346  0.65968485  1
  O  O77  1  0.40968485  0.92535346  0.11730017  1
  O  O78  1  0.63269983  0.82464654  0.34031515  1
  O  O79  1  0.09031515  0.07464654  0.61730017  1
  O  O80  1  0.92535346  0.11730017  0.40968485  1
  O  O81  1  0.42535346  0.38269983  0.59031515  1
  O  O82  1  0.57464654  0.88269983  0.90968485  1
  O  O83  1  0.07464654  0.61730017  0.09031515  1
  O  O84  1  0.08111128  0.50563764  0.32160795  1
  O  O85  1  0.41888872  0.49436236  0.82160795  1
  O  O86  1  0.91888872  0.00563764  0.17839205  1
  O  O87  1  0.32160795  0.08111128  0.50563764  1
  O  O88  1  0.25563764  0.33111128  0.92839205  1
  O  O89  1  0.58111128  0.99436236  0.67839205  1
  O  O90  1  0.82160795  0.41888872  0.49436236  1
  O  O91  1  0.24436236  0.66888872  0.42839205  1
  O  O92  1  0.17839205  0.91888872  0.00563764  1
  O  O93  1  0.75563764  0.16888872  0.07160795  1
  O  O94  1  0.67839205  0.58111128  0.99436236  1
  O  O95  1  0.74436236  0.83111128  0.57160795  1
  O  O96  1  0.50563764  0.32160795  0.08111128  1
  O  O97  1  0.83111128  0.57160795  0.74436236  1
  O  O98  1  0.00563764  0.17839205  0.91888872  1
  O  O99  1  0.66888872  0.42839205  0.24436236  1
  O  O100  1  0.99436236  0.67839205  0.58111128  1
  O  O101  1  0.33111128  0.92839205  0.25563764  1
  O  O102  1  0.49436236  0.82160795  0.41888872  1
  O  O103  1  0.16888872  0.07160795  0.75563764  1
  O  O104  1  0.92839205  0.25563764  0.33111128  1
  O  O105  1  0.42839205  0.24436236  0.66888872  1
  O  O106  1  0.57160795  0.74436236  0.83111128  1
  O  O107  1  0.07160795  0.75563764  0.16888872  1
loop_
_geom_bond_atom_site_label_1
_geom_bond_atom_site_label_2
_geom_bond_distance
_geom_bond_site_symmetry_2
N0 O60 1.242973 1_555
N0 O36 1.269068 1_555
N0 O84 1.273695 1_555
N1 O61 1.242973 1_555
N1 O37 1.269068 1_555
N1 O85 1.273695 1_555
N2 O62 1.242973 1_555
N2 O38 1.269068 1_555
N2 O86 1.273695 1_565
N3 O63 1.242973 1_555
N3 O39 1.269068 1_555
N3 O87 1.273695 1_555
N4 O64 1.242973 1_555
N4 O40 1.269068 1_555
N4 O88 1.273695 1_555
N5 O65 1.242973 1_555
N5 O41 1.269068 1_555
N5 O89 1.273695 1_545
N6 O66 1.242973 1_555
N6 O42 1.269068 1_555
N6 O90 1.273695 1_555
N7 O67 1.242973 1_555
N7 O43 1.269068 1_555
N7 O91 1.273695 1_555
N8 O68 1.242973 1_555
N8 O44 1.269068 1_555
N8 O92 1.273695 1_556
N9 O69 1.242973 1_555
N9 O45 1.269068 1_555
N9 O93 1.273695 1_555
N10 O70 1.242973 1_555
N10 O46 1.269068 1_555
N10 O94 1.273695 1_554
N11 O71 1.242973 1_555
N11 O47 1.269068 1_555
N11 O95 1.273695 1_555
N12 O72 1.242973 1_555
N12 O48 1.269068 1_555
N12 O96 1.273695 1_555
N13 O73 1.242973 1_555
N13 O49 1.269068 1_555
N13 O97 1.273695 1_555
N14 O74 1.242973 1_555
N14 O50 1.269068 1_555
N14 O98 1.273695 1_655
N15 O75 1.242973 1_555
N15 O51 1.269068 1_555
N15 O99 1.273695 1_555
N16 O76 1.242973 1_555
N16 O52 1.269068 1_555
N16 O100 1.273695 1_455
N17 O77 1.242973 1_555
N17 O53 1.269068 1_555
N17 O101 1.273695 1_555
N18 O78 1.242973 1_555
N18 O54 1.269068 1_555
N18 O102 1.273695 1_555
N19 O79 1.242973 1_555
N19 O55 1.269068 1_555
N19 O103 1.273695 1_555
N20 O80 1.242973 1_555
N20 O56 1.269068 1_555
N20 O104 1.273695 1_555
N21 O81 1.242973 1_555
N21 O57 1.269068 1_555
N21 O105 1.273695 1_555
N22 O82 1.242973 1_555
N22 O58 1.269068 1_555
N22 O106 1.273695 1_555
N23 O83 1.242973 1_555
N23 O59 1.269068 1_555
N23 O107 1.273695 1_555
N36 O31 1.246801 1_545
N36 O12 1.246801 1_555
N36 O0 1.309176 1_545
N37 O13 1.246801 1_555
N37 O29 1.246801 1_565
N37 O1 1.309176 1_565
N38 O25 1.246801 1_555
N38 O14 1.246801 1_555
N38 O2 1.309176 1_555
N39 O15 1.246801 1_555
N39 O21 1.246801 1_554
N39 O3 1.309176 1_554
N40 O16 1.246801 1_556
N40 O18 1.246801 1_555
N40 O4 1.309176 1_556
N41 O17 1.246801 1_555
N41 O27 1.246801 1_555
N41 O5 1.309176 1_555
N42 O22 1.246801 1_555
N42 O19 1.246801 1_555
N42 O6 1.309176 1_555
N43 O23 1.246801 1_555
N43 O20 1.246801 1_555
N43 O7 1.309176 1_555
N44 O24 1.246801 1_555
N44 O35 1.246801 1_455
N44 O8 1.309176 1_455
N45 O34 1.246801 1_555
N45 O26 1.246801 1_555
N45 O9 1.309176 1_555
N46 O28 1.246801 1_555
N46 O33 1.246801 1_555
N46 O10 1.309176 1_555
N47 O30 1.246801 1_555
N47 O32 1.246801 1_655
N47 O11 1.309176 1_655
O0 Pr7 2.611309 1_555
O0 Pr0 2.611309 1_565
O1 Pr1 2.611309 1_545
O1 Pr6 2.611309 1_555
O2 Pr2 2.611309 1_555
O2 Pr3 2.611309 1_555
O3 Pr6 2.611309 1_555
O3 Pr0 2.611309 1_556
O4 Pr4 2.611309 1_554
O4 Pr3 2.611309 1_555
O5 Pr4 2.611309 1_555
O5 Pr5 2.611309 1_555
O6 Pr2 2.611309 1_555
O6 Pr5 2.611309 1_555
O7 Pr1 2.611309 1_555
O7 Pr7 2.611309 1_555
O8 Pr3 2.611309 1_555
O8 Pr0 2.611309 1_655
O9 Pr4 2.611309 1_555
O9 Pr6 2.611309 1_555
O10 Pr1 2.611309 1_555
O10 Pr5 2.611309 1_555
O11 Pr2 2.611309 1_455
O11 Pr7 2.611309 1_555
O12 Pr0 2.687724 1_555
O13 Pr1 2.687724 1_555
O14 Pr2 2.687724 1_555
O15 Pr0 2.687724 1_555
O16 Pr3 2.687724 1_555
O17 Pr4 2.687724 1_555
O18 Pr4 2.687724 1_555
O19 Pr5 2.687724 1_555
O20 Pr1 2.687724 1_555
O21 Pr6 2.687724 1_555
O22 Pr2 2.687724 1_555
O23 Pr7 2.687724 1_555
O24 Pr0 2.687724 1_555
O25 Pr3 2.687724 1_555
O26 Pr4 2.687724 1_555
O27 Pr5 2.687724 1_555
O28 Pr1 2.687724 1_555
O29 Pr6 2.687724 1_555
O30 Pr2 2.687724 1_555
O31 Pr7 2.687724 1_555
O32 Pr7 2.687724 1_555
O33 Pr5 2.687724 1_555
O34 Pr6 2.687724 1_555
O35 Pr3 2.687724 1_555
O36 Pr2 2.684671 1_455
O37 Pr4 2.684671 1_555
O38 Pr0 2.684671 1_665
O39 Pr1 2.684671 1_545
O40 Pr6 2.684671 1_555
O41 Pr1 2.684671 1_545
O42 Pr2 2.684671 1_555
O43 Pr7 2.684671 1_555
O44 Pr0 2.684671 1_566
O45 Pr3 2.684671 1_555
O46 Pr4 2.684671 1_554
O47 Pr5 2.684671 1_555
O48 Pr4 2.684671 1_554
O49 Pr5 2.684671 1_555
O50 Pr0 2.684671 1_656
O51 Pr3 2.684671 1_555
O52 Pr2 2.684671 1_455
O53 Pr7 2.684671 1_555
O54 Pr1 2.684671 1_555
O55 Pr6 2.684671 1_555
O56 Pr3 2.684671 1_555
O57 Pr6 2.684671 1_555
O58 Pr5 2.684671 1_555
O59 Pr7 2.684671 1_555
O84 Pr2 2.647248 1_455
O85 Pr4 2.647248 1_555
O86 Pr0 2.647248 1_655
O87 Pr1 2.647248 1_545
O88 Pr6 2.647248 1_555
O89 Pr1 2.647248 1_555
O90 Pr2 2.647248 1_555
O91 Pr7 2.647248 1_555
O92 Pr0 2.647248 1_565
O93 Pr3 2.647248 1_555
O94 Pr4 2.647248 1_555
O95 Pr5 2.647248 1_555
O96 Pr4 2.647248 1_554
O97 Pr5 2.647248 1_555
O98 Pr0 2.647248 1_556
O99 Pr3 2.647248 1_555
O100 Pr2 2.647248 1_555
O101 Pr7 2.647248 1_555
O102 Pr1 2.647248 1_555
O103 Pr6 2.647248 1_555
O104 Pr3 2.647248 1_555
O105 Pr6 2.647248 1_555
O106 Pr5 2.647248 1_555
O107 Pr7 2.647248 1_555
