# generated using pymatgen
data_Mg3Cu2(PO4)3
_symmetry_space_group_name_H-M   'P 1'
_cell_length_a   6.47906606
_cell_length_b   8.65918584
_cell_length_c   8.65918584
_cell_angle_alpha   93.87558345
_cell_angle_beta   108.37849749
_cell_angle_gamma   108.37849749
_symmetry_Int_Tables_number   1
_chemical_formula_structural   Mg3Cu2(PO4)3
_chemical_formula_sum   'Mg6 Cu4 P6 O24'
_cell_volume   429.92796253
_cell_formula_units_Z   2
loop_
 _symmetry_equiv_pos_site_id
 _symmetry_equiv_pos_as_xyz
  1  'x, y, z'
loop_
 _atom_site_type_symbol
 _atom_site_label
 _atom_site_symmetry_multiplicity
 _atom_site_fract_x
 _atom_site_fract_y
 _atom_site_fract_z
 _atom_site_occupancy
  Mg  Mg0  1  0.75000000  0.22961100  0.77038900  1
  Mg  Mg1  1  0.25000000  0.77038900  0.22961100  1
  Mg  Mg2  1  0.63046400  0.55801500  0.87340800  1
  Mg  Mg3  1  0.36953600  0.44198500  0.12659200  1
  Mg  Mg4  1  0.86953600  0.12659200  0.44198500  1
  Mg  Mg5  1  0.13046400  0.87340800  0.55801500  1
  Cu  Cu0  1  0.00000000  0.00000000  0.00000000  1
  Cu  Cu1  1  0.50000000  0.00000000  0.00000000  1
  Cu  Cu2  1  0.75000000  0.50263000  0.49737000  1
  Cu  Cu3  1  0.25000000  0.49737000  0.50263000  1
  P  P0  1  0.75000000  0.80045100  0.19954900  1
  P  P1  1  0.25000000  0.19954900  0.80045100  1
  P  P2  1  0.87299000  0.38191200  0.16310800  1
  P  P3  1  0.12701000  0.61808800  0.83689200  1
  P  P4  1  0.62701000  0.83689200  0.61808800  1
  P  P5  1  0.37299000  0.16310800  0.38191200  1
  O  O0  1  0.77418900  0.78090300  0.02492100  1
  O  O1  1  0.22581100  0.21909700  0.97507900  1
  O  O2  1  0.72581100  0.97507900  0.21909700  1
  O  O3  1  0.27418900  0.02492100  0.78090300  1
  O  O4  1  0.68389900  0.45718100  0.11155400  1
  O  O5  1  0.31610100  0.54281900  0.88844600  1
  O  O6  1  0.81610100  0.88844600  0.54281900  1
  O  O7  1  0.18389900  0.11155400  0.45718100  1
  O  O8  1  0.79915000  0.21933800  0.03594000  1
  O  O9  1  0.20085000  0.78066200  0.96406000  1
  O  O10  1  0.70085000  0.96406000  0.78066200  1
  O  O11  1  0.29915000  0.03594000  0.21933800  1
  O  O12  1  0.89184800  0.49264000  0.83188900  1
  O  O13  1  0.10815200  0.50736000  0.16811100  1
  O  O14  1  0.60815200  0.16811100  0.50736000  1
  O  O15  1  0.39184800  0.83188900  0.49264000  1
  O  O16  1  0.57613000  0.65224200  0.65084500  1
  O  O17  1  0.42387000  0.34775800  0.34915500  1
  O  O18  1  0.92387000  0.34915500  0.34775800  1
  O  O19  1  0.07613000  0.65084500  0.65224200  1
  O  O20  1  0.52998200  0.68478300  0.22202900  1
  O  O21  1  0.47001800  0.31521700  0.77797100  1
  O  O22  1  0.97001800  0.77797100  0.31521700  1
  O  O23  1  0.02998200  0.22202900  0.68478300  1
loop_
_geom_bond_atom_site_label_1
_geom_bond_atom_site_label_2
_geom_bond_distance
_geom_bond_site_symmetry_2
Mg0 O14 2.126788 1_555
Mg0 O12 2.126788 1_555
Mg0 O23 2.181959 1_655
Mg0 O21 2.181959 1_555
Mg0 O10 2.231722 1_545
Mg0 O8 2.231722 1_556
Mg1 O13 2.126788 1_555
Mg1 O15 2.126788 1_555
Mg1 O20 2.181959 1_555
Mg1 O22 2.181959 1_455
Mg1 O9 2.231722 1_554
Mg1 O11 2.231722 1_565
Mg2 O21 2.007246 1_555
Mg2 O0 2.016785 1_556
Mg2 O5 2.045311 1_555
Mg2 O12 2.068503 1_555
Mg2 O16 2.114166 1_555
Mg2 O4 2.262415 1_556
Mg3 O20 2.007246 1_555
Mg3 O1 2.016785 1_554
Mg3 O4 2.045311 1_555
Mg3 O13 2.068503 1_555
Mg3 O17 2.114166 1_555
Mg3 O5 2.262415 1_554
Mg4 O23 2.007246 1_655
Mg4 O2 2.016785 1_545
Mg4 O7 2.045311 1_655
Mg4 O14 2.068503 1_555
Mg4 O18 2.114166 1_555
Mg4 O6 2.262415 1_545
Mg5 O22 2.007246 1_455
Mg5 O3 2.016785 1_565
Mg5 O6 2.045311 1_455
Mg5 O15 2.068503 1_555
Mg5 O19 2.114166 1_555
Mg5 O7 2.262415 1_565
Cu0 O0 2.071367 1_445
Cu0 O1 2.071367 1_554
Cu0 O11 2.163151 1_555
Cu0 O10 2.163151 1_444
Cu1 O3 2.071367 1_554
Cu1 O2 2.071367 1_545
Cu1 O8 2.163151 1_555
Cu1 O9 2.163151 1_544
Cu2 O17 2.044709 1_555
Cu2 O19 2.044709 1_655
Cu2 O16 2.518961 1_555
Cu2 O18 2.518961 1_555
Cu3 O18 2.044709 1_455
Cu3 O16 2.044709 1_555
Cu3 O19 2.518961 1_555
Cu3 O17 2.518961 1_555
O0 P0 1.572049 1_555
O1 P1 1.572049 1_555
O2 P0 1.572049 1_555
O3 P1 1.572049 1_555
O4 P2 1.524145 1_555
O5 P3 1.524145 1_555
O6 P4 1.524145 1_555
O7 P5 1.524145 1_555
O8 P2 1.567415 1_555
O9 P3 1.567415 1_555
O10 P4 1.567415 1_555
O11 P5 1.567415 1_555
O12 P3 1.552954 1_655
O13 P2 1.552954 1_455
O14 P5 1.552954 1_555
O15 P4 1.552954 1_555
O16 P4 1.591718 1_555
O17 P5 1.591718 1_555
O18 P2 1.591718 1_555
O19 P3 1.591718 1_555
O20 P0 1.540830 1_555
O21 P1 1.540830 1_555
O22 P0 1.540830 1_555
O23 P1 1.540830 1_555
