# generated using pymatgen
data_Dy4MgNi
_symmetry_space_group_name_H-M   'P 1'
_cell_length_a   9.58237419
_cell_length_b   9.58240844
_cell_length_c   9.58239828
_cell_angle_alpha   60.00225807
_cell_angle_beta   60.00212652
_cell_angle_gamma   60.00217795
_symmetry_Int_Tables_number   1
_chemical_formula_structural   Dy4MgNi
_chemical_formula_sum   'Dy16 Mg4 Ni4'
_cell_volume   622.19793118
_cell_formula_units_Z   4
loop_
 _symmetry_equiv_pos_site_id
 _symmetry_equiv_pos_as_xyz
  1  'x, y, z'
loop_
 _atom_site_type_symbol
 _atom_site_label
 _atom_site_symmetry_multiplicity
 _atom_site_fract_x
 _atom_site_fract_y
 _atom_site_fract_z
 _atom_site_occupancy
  Dy  Dy0  1  0.34598559  0.34598539  0.34598730  1
  Dy  Dy1  1  0.34598719  0.34598759  0.96203909  1
  Dy  Dy2  1  0.34598706  0.96203852  0.34598863  1
  Dy  Dy3  1  0.96204260  0.34598586  0.34598732  1
  Dy  Dy4  1  0.81214871  0.18784709  0.18785479  1
  Dy  Dy5  1  0.18785168  0.81215105  0.81214822  1
  Dy  Dy6  1  0.18784782  0.81214752  0.18785428  1
  Dy  Dy7  1  0.81215237  0.18785139  0.81214771  1
  Dy  Dy8  1  0.18785084  0.18785084  0.81214666  1
  Dy  Dy9  1  0.81215047  0.81214841  0.18785545  1
  Dy  Dy10  1  0.93555979  0.56444420  0.56443613  1
  Dy  Dy11  1  0.56444045  0.93556069  0.93555738  1
  Dy  Dy12  1  0.56444155  0.93555999  0.56443736  1
  Dy  Dy13  1  0.93555951  0.56444331  0.93555586  1
  Dy  Dy14  1  0.56443950  0.56444276  0.93555650  1
  Dy  Dy15  1  0.93556006  0.93555880  0.56443839  1
  Mg  Mg0  1  0.57921729  0.57921976  0.57921524  1
  Mg  Mg1  1  0.57921818  0.57922036  0.26234233  1
  Mg  Mg2  1  0.57921917  0.26234415  0.57921771  1
  Mg  Mg3  1  0.26234160  0.57922154  0.57921734  1
  Ni  Ni0  1  0.14162596  0.14162226  0.14163198  1
  Ni  Ni1  1  0.14162484  0.14162277  0.57512602  1
  Ni  Ni2  1  0.14162369  0.57512714  0.14162932  1
  Ni  Ni3  1  0.57512706  0.14162062  0.14163000  1
loop_
_geom_bond_atom_site_label_1
_geom_bond_atom_site_label_2
_geom_bond_distance
_geom_bond_site_symmetry_2
Dy0 Ni2 2.779614 1_555
Dy0 Ni3 2.779626 1_555
Dy0 Ni1 2.779633 1_555
Dy0 Mg2 3.470501 1_555
Dy0 Mg3 3.470513 1_555
Dy0 Mg1 3.470517 1_555
Dy0 Dy10 3.485484 1_455
Dy0 Dy12 3.485489 1_545
Dy0 Dy14 3.485529 1_554
Dy1 Ni0 2.779627 1_556
Dy1 Ni2 2.779664 1_556
Dy1 Ni3 2.779670 1_556
Dy1 Mg2 3.470581 1_555
Dy1 Mg3 3.470598 1_555
Dy1 Mg0 3.470623 1_555
Dy1 Dy14 3.485339 1_555
Dy1 Dy11 3.485463 1_545
Dy1 Dy13 3.485463 1_455
Dy2 Ni0 2.779571 1_565
Dy2 Ni1 2.779610 1_565
Dy2 Ni3 2.779614 1_565
Dy2 Mg3 3.470561 1_555
Dy2 Mg1 3.470571 1_555
Dy2 Mg0 3.470584 1_555
Dy3 Ni0 2.779581 1_655
Dy3 Ni1 2.779608 1_655
Dy3 Ni2 2.779619 1_655
Dy3 Mg2 3.470584 1_555
Dy3 Mg1 3.470608 1_555
Dy3 Mg0 3.470621 1_555
Dy4 Ni3 2.785509 1_555
Dy4 Ni0 2.785614 1_655
Dy4 Mg2 3.502741 1_555
Dy4 Mg1 3.502792 1_555
Dy5 Ni1 2.785629 1_565
Dy5 Ni2 2.785690 1_556
Dy5 Mg3 3.502692 1_555
Dy5 Mg0 3.502807 1_555
Dy6 Ni2 2.785490 1_555
Dy6 Ni0 2.785614 1_565
Dy6 Mg3 3.502734 1_555
Dy6 Mg1 3.502761 1_555
Dy7 Ni1 2.785619 1_655
Dy7 Ni3 2.785695 1_556
Dy7 Mg2 3.502699 1_555
Dy7 Mg0 3.502842 1_555
Dy8 Ni1 2.785521 1_555
Dy8 Ni0 2.785680 1_556
Dy8 Mg2 3.502763 1_555
Dy8 Mg3 3.502787 1_555
Dy9 Ni2 2.785625 1_655
Dy9 Ni3 2.785631 1_565
Dy9 Mg1 3.502700 1_555
Dy9 Mg0 3.502779 1_555
Dy10 Mg3 3.279080 1_655
Dy10 Mg0 3.279135 1_555
Dy10 Ni2 3.480233 1_655
Dy10 Ni1 3.480342 1_655
Dy10 Dy3 3.485338 1_555
Dy10 Dy15 3.556184 1_555
Dy10 Dy13 3.556211 1_555
Dy10 Dy12 3.556306 1_555
Dy10 Dy14 3.556333 1_555
Dy10 Dy9 3.598563 1_555
Dy10 Dy6 3.598611 1_655
Dy10 Dy7 3.598653 1_555
Dy10 Dy8 3.598700 1_655
Dy11 Mg2 3.279213 1_565
Dy11 Mg1 3.279224 1_556
Dy11 Ni3 3.480210 1_566
Dy11 Ni0 3.480339 1_566
Dy11 Dy2 3.485481 1_556
Dy11 Dy14 3.556212 1_555
Dy11 Dy12 3.556218 1_555
Dy11 Dy13 3.556317 1_555
Dy11 Dy15 3.556323 1_555
Dy11 Dy7 3.598592 1_565
Dy11 Dy9 3.598627 1_556
Dy11 Dy8 3.598635 1_565
Dy11 Dy6 3.598669 1_556
Dy12 Mg2 3.279110 1_565
Dy12 Mg0 3.279130 1_555
Dy12 Ni3 3.480236 1_565
Dy12 Ni1 3.480294 1_565
Dy12 Dy2 3.485323 1_555
Dy12 Dy15 3.556196 1_555
Dy12 Dy14 3.556326 1_555
Dy12 Dy9 3.598579 1_555
Dy12 Dy5 3.598625 1_555
Dy12 Dy4 3.598627 1_565
Dy12 Dy8 3.598677 1_565
Dy13 Mg3 3.279190 1_655
Dy13 Mg1 3.279222 1_556
Dy13 Ni2 3.480233 1_656
Dy13 Ni0 3.480406 1_656
Dy13 Dy3 3.485505 1_556
Dy13 Dy14 3.556210 1_555
Dy13 Dy15 3.556309 1_555
Dy13 Dy5 3.598577 1_655
Dy13 Dy9 3.598615 1_556
Dy13 Dy8 3.598658 1_655
Dy13 Dy4 3.598698 1_556
Dy14 Mg1 3.279114 1_556
Dy14 Mg0 3.279131 1_555
Dy14 Ni2 3.480295 1_556
Dy14 Ni3 3.480357 1_556
Dy14 Dy5 3.598607 1_555
Dy14 Dy7 3.598645 1_555
Dy14 Dy6 3.598692 1_556
Dy14 Dy4 3.598736 1_556
Dy15 Mg3 3.279186 1_655
Dy15 Mg2 3.279219 1_565
Dy15 Ni1 3.480182 1_665
Dy15 Ni0 3.480284 1_665
Dy15 Dy2 3.485444 1_655
Dy15 Dy3 3.485470 1_565
Dy15 Dy5 3.598589 1_655
Dy15 Dy7 3.598596 1_565
Dy15 Dy6 3.598597 1_655
Dy15 Dy4 3.598598 1_565
Mg0 Mg1 3.036395 1_555
Mg0 Mg3 3.036403 1_555
Mg0 Mg2 3.036411 1_555
Mg1 Mg3 3.036524 1_555
Mg1 Mg2 3.036535 1_555
Mg2 Mg3 3.036544 1_555
