# generated using pymatgen
data_BaLuCo4O7
_symmetry_space_group_name_H-M   'P 1'
_cell_length_a   6.33937766
_cell_length_b   6.33937766
_cell_length_c   10.32753700
_cell_angle_alpha   90.00000000
_cell_angle_beta   90.00000000
_cell_angle_gamma   119.99999646
_symmetry_Int_Tables_number   1
_chemical_formula_structural   BaLuCo4O7
_chemical_formula_sum   'Ba2 Lu2 Co8 O14'
_cell_volume   359.43524223
_cell_formula_units_Z   2
loop_
 _symmetry_equiv_pos_site_id
 _symmetry_equiv_pos_as_xyz
  1  'x, y, z'
loop_
 _atom_site_type_symbol
 _atom_site_label
 _atom_site_symmetry_multiplicity
 _atom_site_fract_x
 _atom_site_fract_y
 _atom_site_fract_z
 _atom_site_occupancy
  Ba  Ba0  1  0.33333300  0.66666700  0.98189800  1
  Ba  Ba1  1  0.66666700  0.33333300  0.48189800  1
  Lu  Lu0  1  0.33333300  0.66666700  0.37524900  1
  Lu  Lu1  1  0.66666700  0.33333300  0.87524900  1
  Co  Co0  1  0.82985600  0.17014400  0.18484000  1
  Co  Co1  1  0.65971200  0.82985600  0.68484000  1
  Co  Co2  1  0.17014400  0.34028800  0.68484000  1
  Co  Co3  1  0.82985600  0.65971200  0.18484000  1
  Co  Co4  1  0.34028800  0.17014400  0.18484000  1
  Co  Co5  1  0.17014400  0.82985600  0.68484000  1
  Co  Co6  1  0.00000000  0.00000000  0.94002700  1
  Co  Co7  1  0.00000000  0.00000000  0.44002700  1
  O  O0  1  0.83035200  0.16964800  0.99867300  1
  O  O1  1  0.66070300  0.83035200  0.49867300  1
  O  O2  1  0.16964800  0.33929700  0.49867300  1
  O  O3  1  0.83035200  0.66070300  0.99867300  1
  O  O4  1  0.33929700  0.16964800  0.99867300  1
  O  O5  1  0.16964800  0.83035200  0.49867300  1
  O  O6  1  0.00000000  0.00000000  0.74015000  1
  O  O7  1  0.00000000  0.00000000  0.24015000  1
  O  O8  1  0.50530300  0.49469700  0.25831300  1
  O  O9  1  0.01060600  0.50530300  0.75831300  1
  O  O10  1  0.49469700  0.98939400  0.75831300  1
  O  O11  1  0.50530300  0.01060600  0.25831300  1
  O  O12  1  0.49469700  0.50530300  0.75831300  1
  O  O13  1  0.98939400  0.49469700  0.25831300  1
loop_
_geom_bond_atom_site_label_1
_geom_bond_atom_site_label_2
_geom_bond_distance
_geom_bond_site_symmetry_2
Ba0 O9 2.910516 1_555
Ba0 O10 2.910516 1_555
Ba0 O12 2.910520 1_555
Ba0 O3 3.174582 1_455
Ba0 O4 3.174582 1_565
Ba0 O0 3.174589 1_455
Ba0 O0 3.174589 1_565
Ba0 O3 3.174595 1_555
Ba0 O4 3.174595 1_555
Ba0 O11 3.422676 1_566
Ba0 O13 3.422676 1_456
Ba0 O8 3.422679 1_556
Ba1 O11 2.910516 1_555
Ba1 O13 2.910516 1_555
Ba1 O8 2.910520 1_555
Ba1 O1 3.174582 1_545
Ba1 O2 3.174582 1_655
Ba1 O5 3.174589 1_655
Ba1 O5 3.174589 1_545
Ba1 O1 3.174595 1_555
Ba1 O2 3.174595 1_555
Ba1 O9 3.422676 1_655
Ba1 O10 3.422676 1_545
Ba1 O12 3.422679 1_555
Lu0 O5 2.203405 1_555
Lu0 O2 2.203405 1_555
Lu0 O1 2.203405 1_555
Lu0 O11 2.241410 1_565
Lu0 O13 2.241410 1_455
Lu0 O8 2.241415 1_555
Lu1 O0 2.203405 1_555
Lu1 O4 2.203405 1_555
Lu1 O3 2.203405 1_555
Lu1 O9 2.241410 1_655
Lu1 O10 2.241410 1_545
Lu1 O12 2.241415 1_555
Co0 O0 1.922654 1_554
Co0 O13 1.936734 1_555
Co0 O11 1.936734 1_555
Co0 O7 1.953578 1_655
Co1 O1 1.922654 1_555
Co1 O10 1.936734 1_555
Co1 O12 1.936734 1_555
Co1 O6 1.953578 1_665
Co2 O2 1.922654 1_555
Co2 O9 1.936734 1_555
Co2 O12 1.936734 1_555
Co2 O6 1.953578 1_555
Co3 O3 1.922654 1_554
Co3 O13 1.936734 1_555
Co3 O8 1.936734 1_555
Co3 O7 1.953578 1_665
Co4 O4 1.922654 1_554
Co4 O11 1.936734 1_555
Co4 O8 1.936734 1_555
Co4 O7 1.953578 1_555
Co5 O5 1.922654 1_555
Co5 O10 1.936734 1_555
Co5 O9 1.936734 1_555
Co5 O6 1.953578 1_565
Co6 O0 1.958748 1_455
Co6 O3 1.958754 1_445
Co6 O4 1.958754 1_555
Co6 O6 2.064237 1_555
Co7 O5 1.958748 1_545
Co7 O1 1.958754 1_445
Co7 O2 1.958754 1_555
Co7 O7 2.064237 1_555
