# generated using pymatgen
data_FeMo3As4
_symmetry_space_group_name_H-M   'P 1'
_cell_length_a   3.36060000
_cell_length_b   5.99806600
_cell_length_c   6.39079812
_cell_angle_alpha   89.80736104
_cell_angle_beta   90.00000000
_cell_angle_gamma   90.00000000
_symmetry_Int_Tables_number   1
_chemical_formula_structural   FeMo3As4
_chemical_formula_sum   'Fe1 Mo3 As4'
_cell_volume   128.81923254
_cell_formula_units_Z   1
loop_
 _symmetry_equiv_pos_site_id
 _symmetry_equiv_pos_as_xyz
  1  'x, y, z'
loop_
 _atom_site_type_symbol
 _atom_site_label
 _atom_site_symmetry_multiplicity
 _atom_site_fract_x
 _atom_site_fract_y
 _atom_site_fract_z
 _atom_site_occupancy
  Fe  Fe0  1  0.50000000  0.51223000  0.31570500  1
  Mo  Mo0  1  0.50000000  0.01047400  0.18415600  1
  Mo  Mo1  1  0.00000000  0.48711300  0.69258700  1
  Mo  Mo2  1  0.00000000  0.99376300  0.81227200  1
  As  As0  1  0.50000000  0.69161100  0.92971500  1
  As  As1  1  0.50000000  0.19298300  0.55835900  1
  As  As2  1  0.00000000  0.31515600  0.07927100  1
  As  As3  1  0.00000000  0.79667000  0.42793500  1
loop_
_geom_bond_atom_site_label_1
_geom_bond_atom_site_label_2
_geom_bond_distance
_geom_bond_site_symmetry_2
Fe0 Mo1 2.940222 1_555
Fe0 Mo1 2.940222 1_655
As0 Mo0 2.514546 1_566
As0 Mo1 2.576235 1_555
As0 Mo1 2.576235 1_655
As0 Mo2 2.581109 1_655
As0 Mo2 2.581109 1_555
As0 Fe0 2.687903 1_556
As1 Fe0 2.459994 1_555
As1 Mo1 2.584935 1_655
As1 Mo1 2.584935 1_555
As1 Mo2 2.621338 1_545
As1 Mo2 2.621338 1_645
As1 Mo0 2.633446 1_555
As2 Fe0 2.552610 1_555
As2 Fe0 2.552610 1_455
As2 Mo0 2.569871 1_555
As2 Mo0 2.569871 1_455
As2 Mo2 2.578734 1_544
As2 Mo1 2.674620 1_554
As3 Fe0 2.501362 1_455
As3 Fe0 2.501362 1_555
As3 Mo1 2.507389 1_555
As3 Mo0 2.623306 1_565
As3 Mo0 2.623306 1_465
As3 Mo2 2.729484 1_555
