# generated using pymatgen
data_YMg2
_symmetry_space_group_name_H-M   'P 1'
_cell_length_a   17.56085486
_cell_length_b   17.56085486
_cell_length_c   10.93362000
_cell_angle_alpha   90.00000000
_cell_angle_beta   90.00000000
_cell_angle_gamma   157.98794839
_symmetry_Int_Tables_number   1
_chemical_formula_structural   YMg2
_chemical_formula_sum   'Y16 Mg32'
_cell_volume   1263.73708321
_cell_formula_units_Z   16
loop_
 _symmetry_equiv_pos_site_id
 _symmetry_equiv_pos_as_xyz
  1  'x, y, z'
loop_
 _atom_site_type_symbol
 _atom_site_label
 _atom_site_symmetry_multiplicity
 _atom_site_fract_x
 _atom_site_fract_y
 _atom_site_fract_z
 _atom_site_occupancy
  Y  Y0_0  1  0.44630450  0.05369550  0.12500000  1
  Y  Y0_1  1  0.44630450  0.05369550  0.62500000  1
  Y  Y0_2  1  0.44630450  0.55369550  0.12500000  1
  Y  Y0_3  1  0.44630450  0.55369550  0.62500000  1
  Y  Y0_4  1  0.94630450  0.05369550  0.12500000  1
  Y  Y0_5  1  0.94630450  0.05369550  0.62500000  1
  Y  Y0_6  1  0.94630450  0.55369550  0.12500000  1
  Y  Y0_7  1  0.94630450  0.55369550  0.62500000  1
  Y  Y1_0  1  0.05369550  0.44630450  0.37500000  1
  Y  Y1_1  1  0.05369550  0.44630450  0.87500000  1
  Y  Y1_2  1  0.05369550  0.94630450  0.37500000  1
  Y  Y1_3  1  0.05369550  0.94630450  0.87500000  1
  Y  Y1_4  1  0.55369550  0.44630450  0.37500000  1
  Y  Y1_5  1  0.55369550  0.44630450  0.87500000  1
  Y  Y1_6  1  0.55369550  0.94630450  0.37500000  1
  Y  Y1_7  1  0.55369550  0.94630450  0.87500000  1
  Mg  Mg0_0  1  0.27896250  0.22103750  0.12500000  1
  Mg  Mg0_1  1  0.27896250  0.22103750  0.62500000  1
  Mg  Mg0_2  1  0.27896250  0.72103750  0.12500000  1
  Mg  Mg0_3  1  0.27896250  0.72103750  0.62500000  1
  Mg  Mg0_4  1  0.77896250  0.22103750  0.12500000  1
  Mg  Mg0_5  1  0.77896250  0.22103750  0.62500000  1
  Mg  Mg0_6  1  0.77896250  0.72103750  0.12500000  1
  Mg  Mg0_7  1  0.77896250  0.72103750  0.62500000  1
  Mg  Mg1_0  1  0.11034200  0.38965850  0.12500000  1
  Mg  Mg1_1  1  0.11034200  0.38965850  0.62500000  1
  Mg  Mg1_2  1  0.11034200  0.88965850  0.12500000  1
  Mg  Mg1_3  1  0.11034200  0.88965850  0.62500000  1
  Mg  Mg1_4  1  0.61034200  0.38965850  0.12500000  1
  Mg  Mg1_5  1  0.61034200  0.38965850  0.62500000  1
  Mg  Mg1_6  1  0.61034200  0.88965850  0.12500000  1
  Mg  Mg1_7  1  0.61034200  0.88965850  0.62500000  1
  Mg  Mg2_0  1  0.38965850  0.11034200  0.37500000  1
  Mg  Mg2_1  1  0.38965850  0.11034200  0.87500000  1
  Mg  Mg2_2  1  0.38965850  0.61034200  0.37500000  1
  Mg  Mg2_3  1  0.38965850  0.61034200  0.87500000  1
  Mg  Mg2_4  1  0.88965850  0.11034200  0.37500000  1
  Mg  Mg2_5  1  0.88965850  0.11034200  0.87500000  1
  Mg  Mg2_6  1  0.88965850  0.61034200  0.37500000  1
  Mg  Mg2_7  1  0.88965850  0.61034200  0.87500000  1
  Mg  Mg3_0  1  0.22103750  0.27896250  0.37500000  1
  Mg  Mg3_1  1  0.22103750  0.27896250  0.87500000  1
  Mg  Mg3_2  1  0.22103750  0.77896250  0.37500000  1
  Mg  Mg3_3  1  0.22103750  0.77896250  0.87500000  1
  Mg  Mg3_4  1  0.72103750  0.27896250  0.37500000  1
  Mg  Mg3_5  1  0.72103750  0.27896250  0.87500000  1
  Mg  Mg3_6  1  0.72103750  0.77896250  0.37500000  1
  Mg  Mg3_7  1  0.72103750  0.77896250  0.87500000  1
loop_
_geom_bond_atom_site_label_1
_geom_bond_atom_site_label_2
_geom_bond_distance
_geom_bond_site_symmetry_2
Y0_0 Y0_6 3.352582 1_445
Y0_0 Y0_6 3.352582 1_555
Y0_1 Y0_7 3.352582 1_445
Y0_1 Y0_7 3.352582 1_555
Y0_2 Y0_4 3.352582 1_565
Y0_2 Y0_4 3.352582 1_455
Y0_3 Y0_5 3.352582 1_565
Y0_3 Y0_5 3.352582 1_455
Y1_0 Y1_6 3.352582 1_555
Y1_0 Y1_6 3.352582 1_445
Y1_1 Y1_7 3.352582 1_445
Y1_1 Y1_7 3.352582 1_555
Y1_2 Y1_4 3.352582 1_455
Y1_2 Y1_4 3.352582 1_565
Y1_3 Y1_5 3.352582 1_455
Y1_3 Y1_5 3.352582 1_565
Mg0_0 Mg1_2 3.268239 1_545
Mg0_0 Mg1_4 3.268240 1_555
Mg0_0 Y0_4 3.306162 1_455
Mg0_0 Y0_2 3.306162 1_555
Mg0_0 Y1_2 3.317911 1_545
Mg0_0 Y1_4 3.317911 1_555
Mg0_0 Y1_3 3.317911 1_544
Mg0_0 Y1_5 3.317911 1_554
Mg0_0 Mg0_6 3.352582 1_555
Mg0_0 Mg0_6 3.352582 1_445
Mg0_0 Mg3_0 3.385194 1_555
Mg0_0 Mg3_1 3.385194 1_554
Mg0_1 Mg1_3 3.268239 1_545
Mg0_1 Mg1_5 3.268240 1_555
Mg0_1 Y0_3 3.306162 1_555
Mg0_1 Y0_5 3.306162 1_455
Mg0_1 Y1_4 3.317911 1_555
Mg0_1 Y1_2 3.317911 1_545
Mg0_1 Y1_3 3.317911 1_545
Mg0_1 Y1_5 3.317911 1_555
Mg0_1 Mg0_7 3.352582 1_555
Mg0_1 Mg0_7 3.352582 1_445
Mg0_1 Mg3_0 3.385194 1_555
Mg0_1 Mg3_1 3.385194 1_555
Mg0_2 Mg1_0 3.268239 1_555
Mg0_2 Mg1_6 3.268240 1_555
Mg0_2 Y0_0 3.306162 1_565
Mg0_2 Y0_6 3.306162 1_455
Mg0_2 Y1_0 3.317911 1_555
Mg0_2 Y1_6 3.317911 1_555
Mg0_2 Y1_1 3.317911 1_554
Mg0_2 Y1_7 3.317911 1_554
Mg0_2 Mg0_4 3.352582 1_565
Mg0_2 Mg0_4 3.352582 1_455
Mg0_2 Mg3_2 3.385194 1_555
Mg0_2 Mg3_3 3.385194 1_554
Mg0_3 Mg1_1 3.268239 1_555
Mg0_3 Mg1_7 3.268240 1_555
Mg0_3 Y0_1 3.306162 1_565
Mg0_3 Y0_7 3.306162 1_455
Mg0_3 Y1_0 3.317911 1_555
Mg0_3 Y1_6 3.317911 1_555
Mg0_3 Y1_7 3.317911 1_555
Mg0_3 Y1_1 3.317911 1_555
Mg0_3 Mg0_5 3.352582 1_565
Mg0_3 Mg0_5 3.352582 1_455
Mg0_3 Mg3_2 3.385194 1_555
Mg0_3 Mg3_3 3.385194 1_555
Mg0_4 Mg1_6 3.268239 1_545
Mg0_4 Mg1_0 3.268240 1_655
Mg0_4 Y0_0 3.306162 1_555
Mg0_4 Y0_6 3.306162 1_555
Mg0_4 Y1_0 3.317911 1_655
Mg0_4 Y1_1 3.317911 1_654
Mg0_4 Y1_6 3.317911 1_545
Mg0_4 Y1_7 3.317911 1_544
Mg0_4 Mg3_4 3.385194 1_555
Mg0_4 Mg3_5 3.385194 1_554
Mg0_5 Mg1_7 3.268239 1_545
Mg0_5 Mg1_1 3.268240 1_655
Mg0_5 Y0_1 3.306162 1_555
Mg0_5 Y0_7 3.306162 1_555
Mg0_5 Y1_0 3.317911 1_655
Mg0_5 Y1_6 3.317911 1_545
Mg0_5 Y1_1 3.317911 1_655
Mg0_5 Y1_7 3.317911 1_545
Mg0_5 Mg3_4 3.385194 1_555
Mg0_5 Mg3_5 3.385194 1_555
Mg0_6 Mg1_4 3.268239 1_555
Mg0_6 Mg1_2 3.268240 1_655
Mg0_6 Y0_4 3.306162 1_565
Mg0_6 Y0_2 3.306162 1_555
Mg0_6 Y1_2 3.317911 1_655
Mg0_6 Y1_3 3.317911 1_654
Mg0_6 Y1_4 3.317911 1_555
Mg0_6 Y1_5 3.317911 1_554
Mg0_6 Mg3_6 3.385194 1_555
Mg0_6 Mg3_7 3.385194 1_554
Mg0_7 Mg1_5 3.268239 1_555
Mg0_7 Mg1_3 3.268240 1_655
Mg0_7 Y0_5 3.306162 1_565
Mg0_7 Y0_3 3.306162 1_555
Mg0_7 Y1_2 3.317911 1_655
Mg0_7 Y1_4 3.317911 1_555
Mg0_7 Y1_3 3.317911 1_655
Mg0_7 Y1_5 3.317911 1_555
Mg0_7 Mg3_6 3.385194 1_555
Mg0_7 Mg3_7 3.385194 1_555
Mg1_0 Mg1_6 3.352582 1_445
Mg1_0 Mg1_6 3.352582 1_555
Mg1_0 Y1_0 3.359375 1_555
Mg1_0 Y1_1 3.359375 1_554
Mg1_0 Mg2_2 3.361991 1_555
Mg1_0 Mg2_4 3.361991 1_455
Mg1_0 Mg2_5 3.361991 1_454
Mg1_0 Mg2_3 3.361991 1_554
Mg1_0 Y0_2 3.404855 1_555
Mg1_0 Y0_4 3.404856 1_455
Mg1_1 Mg1_7 3.352582 1_445
Mg1_1 Mg1_7 3.352582 1_555
Mg1_1 Y1_0 3.359375 1_555
Mg1_1 Y1_1 3.359375 1_555
Mg1_1 Mg2_2 3.361991 1_555
Mg1_1 Mg2_4 3.361991 1_455
Mg1_1 Mg2_5 3.361991 1_455
Mg1_1 Mg2_3 3.361991 1_555
Mg1_1 Y0_3 3.404855 1_555
Mg1_1 Y0_5 3.404856 1_455
Mg1_2 Mg1_4 3.352582 1_455
Mg1_2 Mg1_4 3.352582 1_565
Mg1_2 Y1_2 3.359375 1_555
Mg1_2 Y1_3 3.359375 1_554
Mg1_2 Mg2_6 3.361991 1_455
Mg1_2 Mg2_0 3.361991 1_565
Mg1_2 Mg2_7 3.361991 1_454
Mg1_2 Mg2_1 3.361991 1_564
Mg1_2 Y0_0 3.404855 1_565
Mg1_2 Y0_6 3.404856 1_455
Mg1_3 Mg1_5 3.352582 1_455
Mg1_3 Mg1_5 3.352582 1_565
Mg1_3 Y1_2 3.359375 1_555
Mg1_3 Y1_3 3.359375 1_555
Mg1_3 Mg2_6 3.361991 1_455
Mg1_3 Mg2_0 3.361991 1_565
Mg1_3 Mg2_7 3.361991 1_455
Mg1_3 Mg2_1 3.361991 1_565
Mg1_3 Y0_1 3.404855 1_565
Mg1_3 Y0_7 3.404856 1_455
Mg1_4 Y1_4 3.359375 1_555
Mg1_4 Y1_5 3.359375 1_554
Mg1_4 Mg2_6 3.361991 1_555
Mg1_4 Mg2_0 3.361991 1_555
Mg1_4 Mg2_7 3.361991 1_554
Mg1_4 Mg2_1 3.361991 1_554
Mg1_4 Y0_6 3.404855 1_555
Mg1_4 Y0_0 3.404856 1_555
Mg1_5 Y1_4 3.359375 1_555
Mg1_5 Y1_5 3.359375 1_555
Mg1_5 Mg2_6 3.361991 1_555
Mg1_5 Mg2_0 3.361991 1_555
Mg1_5 Mg2_7 3.361991 1_555
Mg1_5 Mg2_1 3.361991 1_555
Mg1_5 Y0_7 3.404855 1_555
Mg1_5 Y0_1 3.404856 1_555
Mg1_6 Y1_6 3.359375 1_555
Mg1_6 Y1_7 3.359375 1_554
Mg1_6 Mg2_4 3.361991 1_565
Mg1_6 Mg2_2 3.361991 1_555
Mg1_6 Mg2_3 3.361991 1_554
Mg1_6 Mg2_5 3.361991 1_564
Mg1_6 Y0_4 3.404855 1_565
Mg1_6 Y0_2 3.404856 1_555
Mg1_7 Y1_6 3.359375 1_555
Mg1_7 Y1_7 3.359375 1_555
Mg1_7 Mg2_2 3.361991 1_555
Mg1_7 Mg2_4 3.361991 1_565
Mg1_7 Mg2_3 3.361991 1_555
Mg1_7 Mg2_5 3.361991 1_565
Mg1_7 Y0_5 3.404855 1_565
Mg1_7 Y0_3 3.404856 1_555
Mg2_0 Mg3_4 3.268239 1_555
Mg2_0 Mg3_2 3.268240 1_545
Mg2_0 Mg2_6 3.352582 1_445
Mg2_0 Mg2_6 3.352582 1_555
Mg2_0 Y0_1 3.359375 1_555
Mg2_0 Y0_0 3.359375 1_555
Mg2_0 Y1_4 3.404855 1_555
Mg2_0 Y1_2 3.404856 1_545
Mg2_1 Mg3_5 3.268239 1_555
Mg2_1 Mg3_3 3.268240 1_545
Mg2_1 Mg2_7 3.352582 1_445
Mg2_1 Mg2_7 3.352582 1_555
Mg2_1 Y0_1 3.359375 1_555
Mg2_1 Y0_0 3.359375 1_556
Mg2_1 Y1_5 3.404855 1_555
Mg2_1 Y1_3 3.404856 1_545
Mg2_2 Mg3_6 3.268239 1_555
Mg2_2 Mg3_0 3.268240 1_555
Mg2_2 Mg2_4 3.352582 1_565
Mg2_2 Mg2_4 3.352582 1_455
Mg2_2 Y0_3 3.359375 1_555
Mg2_2 Y0_2 3.359375 1_555
Mg2_2 Y1_6 3.404855 1_555
Mg2_2 Y1_0 3.404856 1_555
Mg2_3 Mg3_7 3.268239 1_555
Mg2_3 Mg3_1 3.268240 1_555
Mg2_3 Mg2_5 3.352582 1_565
Mg2_3 Mg2_5 3.352582 1_455
Mg2_3 Y0_3 3.359375 1_555
Mg2_3 Y0_2 3.359375 1_556
Mg2_3 Y1_7 3.404855 1_555
Mg2_3 Y1_1 3.404856 1_555
Mg2_4 Mg3_0 3.268239 1_655
Mg2_4 Mg3_6 3.268240 1_545
Mg2_4 Y0_5 3.359375 1_555
Mg2_4 Y0_4 3.359375 1_555
Mg2_4 Y1_0 3.404855 1_655
Mg2_4 Y1_6 3.404856 1_545
Mg2_5 Mg3_1 3.268239 1_655
Mg2_5 Mg3_7 3.268240 1_545
Mg2_5 Y0_5 3.359375 1_555
Mg2_5 Y0_4 3.359375 1_556
Mg2_5 Y1_1 3.404855 1_655
Mg2_5 Y1_7 3.404856 1_545
Mg2_6 Mg3_2 3.268239 1_655
Mg2_6 Mg3_4 3.268240 1_555
Mg2_6 Y0_7 3.359375 1_555
Mg2_6 Y0_6 3.359375 1_555
Mg2_6 Y1_2 3.404855 1_655
Mg2_6 Y1_4 3.404856 1_555
Mg2_7 Mg3_3 3.268239 1_655
Mg2_7 Mg3_5 3.268240 1_555
Mg2_7 Y0_7 3.359375 1_555
Mg2_7 Y0_6 3.359375 1_556
Mg2_7 Y1_3 3.404855 1_655
Mg2_7 Y1_5 3.404856 1_555
Mg3_0 Y1_2 3.306162 1_545
Mg3_0 Y1_4 3.306162 1_555
Mg3_0 Y0_3 3.317911 1_555
Mg3_0 Y0_5 3.317911 1_455
Mg3_0 Y0_2 3.317911 1_555
Mg3_0 Y0_4 3.317911 1_455
Mg3_0 Mg3_6 3.352582 1_555
Mg3_0 Mg3_6 3.352582 1_445
Mg3_1 Y1_3 3.306162 1_545
Mg3_1 Y1_5 3.306162 1_555
Mg3_1 Y0_5 3.317911 1_455
Mg3_1 Y0_3 3.317911 1_555
Mg3_1 Y0_2 3.317911 1_556
Mg3_1 Y0_4 3.317911 1_456
Mg3_1 Mg3_7 3.352582 1_445
Mg3_1 Mg3_7 3.352582 1_555
Mg3_2 Y1_0 3.306162 1_555
Mg3_2 Y1_6 3.306162 1_555
Mg3_2 Y0_1 3.317911 1_565
Mg3_2 Y0_7 3.317911 1_455
Mg3_2 Y0_0 3.317911 1_565
Mg3_2 Y0_6 3.317911 1_455
Mg3_2 Mg3_4 3.352582 1_565
Mg3_2 Mg3_4 3.352582 1_455
Mg3_3 Y1_1 3.306162 1_555
Mg3_3 Y1_7 3.306162 1_555
Mg3_3 Y0_1 3.317911 1_565
Mg3_3 Y0_7 3.317911 1_455
Mg3_3 Y0_0 3.317911 1_566
Mg3_3 Y0_6 3.317911 1_456
Mg3_3 Mg3_5 3.352582 1_455
Mg3_3 Mg3_5 3.352582 1_565
Mg3_4 Y1_0 3.306162 1_655
Mg3_4 Y1_6 3.306162 1_545
Mg3_4 Y0_7 3.317911 1_555
Mg3_4 Y0_1 3.317911 1_555
Mg3_4 Y0_6 3.317911 1_555
Mg3_4 Y0_0 3.317911 1_555
Mg3_5 Y1_1 3.306162 1_655
Mg3_5 Y1_7 3.306162 1_545
Mg3_5 Y0_7 3.317911 1_555
Mg3_5 Y0_1 3.317911 1_555
Mg3_5 Y0_0 3.317911 1_556
Mg3_5 Y0_6 3.317911 1_556
Mg3_6 Y1_2 3.306162 1_655
Mg3_6 Y1_4 3.306162 1_555
Mg3_6 Y0_5 3.317911 1_565
Mg3_6 Y0_3 3.317911 1_555
Mg3_6 Y0_4 3.317911 1_565
Mg3_6 Y0_2 3.317911 1_555
Mg3_7 Y1_3 3.306162 1_655
Mg3_7 Y1_5 3.306162 1_555
Mg3_7 Y0_5 3.317911 1_565
Mg3_7 Y0_4 3.317911 1_566
Mg3_7 Y0_3 3.317911 1_555
Mg3_7 Y0_2 3.317911 1_556
