# generated using pymatgen
data_MgMo3O8
_symmetry_space_group_name_H-M   'P 1'
_cell_length_a   6.26615973
_cell_length_b   6.26615973
_cell_length_c   9.83141800
_cell_angle_alpha   90.00000000
_cell_angle_beta   90.00000000
_cell_angle_gamma   122.01019329
_symmetry_Int_Tables_number   1
_chemical_formula_structural   MgMo3O8
_chemical_formula_sum   'Mg2 Mo6 O16'
_cell_volume   327.33412125
_cell_formula_units_Z   2
loop_
 _symmetry_equiv_pos_site_id
 _symmetry_equiv_pos_as_xyz
  1  'x, y, z'
loop_
 _atom_site_type_symbol
 _atom_site_label
 _atom_site_symmetry_multiplicity
 _atom_site_fract_x
 _atom_site_fract_y
 _atom_site_fract_z
 _atom_site_occupancy
  Mg  Mg0  1  0.33929500  0.66070500  0.42924300  1
  Mg  Mg1  1  0.66070500  0.33929500  0.92924300  1
  Mo  Mo0  1  0.16225900  0.83774100  0.74087200  1
  Mo  Mo1  1  0.14899700  0.32159900  0.75670800  1
  Mo  Mo2  1  0.67840200  0.85100300  0.75670800  1
  Mo  Mo3  1  0.83774100  0.16225900  0.24087200  1
  Mo  Mo4  1  0.85100300  0.67840200  0.25670800  1
  Mo  Mo5  1  0.32159800  0.14899700  0.25670800  1
  O  O0  1  0.00740200  0.99259800  0.86893100  1
  O  O1  1  0.99259800  0.00740200  0.36893100  1
  O  O2  1  0.33050600  0.66949400  0.63602000  1
  O  O3  1  0.66949400  0.33050600  0.13602000  1
  O  O4  1  0.48784600  0.51215400  0.85089800  1
  O  O5  1  0.49837700  0.98947000  0.85330700  1
  O  O6  1  0.01053000  0.50162300  0.85330700  1
  O  O7  1  0.51215400  0.48784600  0.35089800  1
  O  O8  1  0.50162300  0.01053000  0.35330700  1
  O  O9  1  0.98947000  0.49837700  0.35330700  1
  O  O10  1  0.14386100  0.85613900  0.13564900  1
  O  O11  1  0.15226100  0.31185400  0.15592800  1
  O  O12  1  0.68814600  0.84773900  0.15592800  1
  O  O13  1  0.85613900  0.14386100  0.63564900  1
  O  O14  1  0.84773900  0.68814600  0.65592800  1
  O  O15  1  0.31185400  0.15226100  0.65592800  1
loop_
_geom_bond_atom_site_label_1
_geom_bond_atom_site_label_2
_geom_bond_distance
_geom_bond_site_symmetry_2
Mg0 O9 2.008312 1_455
Mg0 O8 2.008312 1_565
Mg0 O2 2.035193 1_555
Mg0 O7 2.045374 1_555
Mg1 O5 2.008312 1_545
Mg1 O6 2.008312 1_655
Mg1 O3 2.035193 1_556
Mg1 O4 2.045374 1_555
Mo0 O15 1.871300 1_565
Mo0 O14 1.871300 1_455
Mo0 O5 2.106870 1_555
Mo0 O6 2.106870 1_555
Mo0 O2 2.112792 1_555
Mo0 O0 2.113410 1_555
Mo1 O13 1.964125 1_455
Mo1 O6 1.991210 1_555
Mo1 O4 2.025788 1_555
Mo1 O15 2.072919 1_555
Mo1 O0 2.077367 1_545
Mo1 O2 2.196630 1_555
Mo2 O13 1.964124 1_565
Mo2 O5 1.991215 1_555
Mo2 O4 2.025788 1_555
Mo2 O14 2.072914 1_555
Mo2 O0 2.077362 1_655
Mo2 O2 2.196634 1_555
Mo3 O11 1.871300 1_655
Mo3 O12 1.871300 1_545
Mo3 O9 2.106870 1_555
Mo3 O8 2.106870 1_555
Mo3 O3 2.112792 1_555
Mo3 O1 2.113410 1_555
Mo4 O10 1.964124 1_655
Mo4 O9 1.991215 1_555
Mo4 O7 2.025788 1_555
Mo4 O12 2.072914 1_555
Mo4 O1 2.077362 1_565
Mo4 O3 2.196634 1_555
Mo5 O10 1.964124 1_545
Mo5 O8 1.991215 1_555
Mo5 O7 2.025788 1_555
Mo5 O11 2.072914 1_555
Mo5 O1 2.077362 1_455
Mo5 O3 2.196634 1_555
