# generated using pymatgen
data_KTaF6
_symmetry_space_group_name_H-M   'P 1'
_cell_length_a   5.23204478
_cell_length_b   5.23204478
_cell_length_c   9.65227605
_cell_angle_alpha   90.00000000
_cell_angle_beta   90.00000000
_cell_angle_gamma   90.00000000
_symmetry_Int_Tables_number   1
_chemical_formula_structural   KTaF6
_chemical_formula_sum   'K2 Ta2 F12'
_cell_volume   264.22422865
_cell_formula_units_Z   2
loop_
 _symmetry_equiv_pos_site_id
 _symmetry_equiv_pos_as_xyz
  1  'x, y, z'
loop_
 _atom_site_type_symbol
 _atom_site_label
 _atom_site_symmetry_multiplicity
 _atom_site_fract_x
 _atom_site_fract_y
 _atom_site_fract_z
 _atom_site_occupancy
  K  K0  1  0.00000000  0.00000000  -0.00000000  1
  K  K1  1  0.00000000  0.00000000  0.50000000  1
  Ta  Ta0  1  0.50000000  0.50000000  0.25000000  1
  Ta  Ta1  1  0.50000000  0.50000000  0.75000000  1
  F  F0  1  0.24046064  0.24046064  0.25000000  1
  F  F1  1  0.75953936  0.75953936  0.25000000  1
  F  F2  1  0.24046064  0.75953936  0.75000000  1
  F  F3  1  0.75953936  0.24046064  0.75000000  1
  F  F4  1  0.31543941  0.68226071  0.11088342  1
  F  F5  1  0.68456059  0.31773929  0.11088342  1
  F  F6  1  0.68226071  0.68456059  0.88911658  1
  F  F7  1  0.31543941  0.31773929  0.61088342  1
  F  F8  1  0.31773929  0.31543941  0.88911658  1
  F  F9  1  0.68456059  0.68226071  0.61088342  1
  F  F10  1  0.68226071  0.31543941  0.38911658  1
  F  F11  1  0.31773929  0.68456059  0.38911658  1
loop_
_geom_bond_atom_site_label_1
_geom_bond_atom_site_label_2
_geom_bond_distance
_geom_bond_site_symmetry_2
F0 Ta0 1.920391 1_555
F0 K1 2.998089 1_555
F0 K0 2.998089 1_555
F1 Ta0 1.920391 1_555
F1 K0 2.998089 1_665
F1 K1 2.998089 1_665
F2 Ta1 1.920391 1_555
F2 K0 2.998089 1_566
F2 K1 2.998089 1_565
F3 Ta1 1.920391 1_555
F3 K0 2.998089 1_656
F3 K1 2.998089 1_655
F4 Ta0 1.909156 1_555
F4 K0 2.575452 1_565
F5 Ta0 1.909156 1_555
F5 K0 2.575452 1_655
F6 Ta1 1.909156 1_555
F6 K0 2.575452 1_666
F7 Ta1 1.909156 1_555
F7 K1 2.575452 1_555
F8 Ta1 1.909156 1_555
F8 K0 2.575452 1_556
F9 Ta1 1.909156 1_555
F9 K1 2.575452 1_665
F10 Ta0 1.909156 1_555
F10 K1 2.575452 1_655
F11 Ta0 1.909156 1_555
F11 K1 2.575452 1_565
