# generated using pymatgen
data_Sr2CdWO6
_symmetry_space_group_name_H-M   'P 1'
_cell_length_a   5.82887700
_cell_length_b   6.06382400
_cell_length_c   8.33515900
_cell_angle_alpha   90.00000000
_cell_angle_beta   90.00000000
_cell_angle_gamma   90.00000000
_symmetry_Int_Tables_number   1
_chemical_formula_structural   Sr2CdWO6
_chemical_formula_sum   'Sr4 Cd2 W2 O12'
_cell_volume   294.60856409
_cell_formula_units_Z   2
loop_
 _symmetry_equiv_pos_site_id
 _symmetry_equiv_pos_as_xyz
  1  'x, y, z'
loop_
 _atom_site_type_symbol
 _atom_site_label
 _atom_site_symmetry_multiplicity
 _atom_site_fract_x
 _atom_site_fract_y
 _atom_site_fract_z
 _atom_site_occupancy
  Sr  Sr0  1  0.50000000  0.79020400  0.76396400  1
  Sr  Sr1  1  0.50000000  0.79020400  0.23603600  1
  Sr  Sr2  1  0.00000000  0.20979600  0.73603600  1
  Sr  Sr3  1  0.00000000  0.20979600  0.26396400  1
  Cd  Cd0  1  0.00000000  0.72605600  0.50000000  1
  Cd  Cd1  1  0.50000000  0.27394400  0.00000000  1
  W  W0  1  0.50000000  0.23728300  0.50000000  1
  W  W1  1  0.00000000  0.76271700  0.00000000  1
  O  O0  1  0.50000000  0.21908600  0.73303800  1
  O  O1  1  0.50000000  0.21908600  0.26696200  1
  O  O2  1  0.00000000  0.78091400  0.76696200  1
  O  O3  1  0.00000000  0.78091400  0.23303800  1
  O  O4  1  0.73374700  0.00174700  0.50000000  1
  O  O5  1  0.26625300  0.00174700  0.50000000  1
  O  O6  1  0.74276700  0.45101700  0.50000000  1
  O  O7  1  0.25723300  0.45101700  0.50000000  1
  O  O8  1  0.24276700  0.54898300  0.00000000  1
  O  O9  1  0.75723300  0.54898300  0.00000000  1
  O  O10  1  0.76625300  0.99825300  0.00000000  1
  O  O11  1  0.23374700  0.99825300  0.00000000  1
loop_
_geom_bond_atom_site_label_1
_geom_bond_atom_site_label_2
_geom_bond_distance
_geom_bond_site_symmetry_2
Cd0 O7 2.242689 1_555
Cd0 O6 2.242689 1_455
Cd0 O2 2.249898 1_555
Cd0 O3 2.249898 1_555
Cd0 O5 2.281072 1_565
Cd0 O4 2.281072 1_465
Cd1 O9 2.242689 1_555
Cd1 O8 2.242689 1_555
Cd1 O1 2.249898 1_555
Cd1 O0 2.249898 1_554
Cd1 O10 2.281072 1_545
Cd1 O11 2.281072 1_545
O0 W0 1.945540 1_555
O0 Sr0 2.613409 1_545
O0 Sr2 2.915090 1_555
O0 Sr2 2.915090 1_655
O1 W0 1.945540 1_555
O1 Sr1 2.613409 1_545
O1 Sr3 2.915090 1_555
O1 Sr3 2.915090 1_655
O2 W1 1.945540 1_556
O2 Sr2 2.613409 1_565
O2 Sr0 2.915090 1_455
O2 Sr0 2.915090 1_555
O3 W1 1.945540 1_555
O3 Sr3 2.613409 1_565
O3 Sr1 2.915090 1_555
O3 Sr1 2.915090 1_455
O4 W0 1.973893 1_555
O4 Sr2 2.805492 1_655
O4 Sr3 2.805492 1_655
O4 Sr1 2.888361 1_545
O4 Sr0 2.888361 1_545
O5 W0 1.973893 1_555
O5 Sr2 2.805492 1_555
O5 Sr3 2.805492 1_555
O5 Sr0 2.888361 1_545
O5 Sr1 2.888361 1_545
O6 W0 1.918887 1_555
O6 Sr2 2.873734 1_655
O6 Sr3 2.873734 1_655
O7 W0 1.918887 1_555
O7 Sr2 2.873734 1_555
O7 Sr3 2.873734 1_555
O8 W1 1.918887 1_555
O8 Sr1 2.873734 1_555
O8 Sr0 2.873734 1_554
O9 W1 1.918887 1_655
O9 Sr1 2.873734 1_555
O9 Sr0 2.873734 1_554
O10 W1 1.973893 1_655
O10 Sr1 2.805492 1_555
O10 Sr0 2.805492 1_554
O10 Sr3 2.888361 1_665
O10 Sr2 2.888361 1_664
O11 W1 1.973893 1_555
O11 Sr0 2.805492 1_554
O11 Sr1 2.805492 1_555
O11 Sr3 2.888361 1_565
O11 Sr2 2.888361 1_564
