# generated using pymatgen
data_TbZnGe
_symmetry_space_group_name_H-M   'P 1'
_cell_length_a   4.19448916
_cell_length_b   4.19448916
_cell_length_c   15.86394242
_cell_angle_alpha   90.00000000
_cell_angle_beta   90.00000000
_cell_angle_gamma   120.00000039
_symmetry_Int_Tables_number   1
_chemical_formula_structural   TbZnGe
_chemical_formula_sum   'Tb4 Zn4 Ge4'
_cell_volume   241.71294435
_cell_formula_units_Z   4
loop_
 _symmetry_equiv_pos_site_id
 _symmetry_equiv_pos_as_xyz
  1  'x, y, z'
loop_
 _atom_site_type_symbol
 _atom_site_label
 _atom_site_symmetry_multiplicity
 _atom_site_fract_x
 _atom_site_fract_y
 _atom_site_fract_z
 _atom_site_occupancy
  Tb  Tb0  1  -0.00000000  -0.00000000  0.25000000  1
  Tb  Tb1  1  -0.00000000  -0.00000000  0.75000000  1
  Tb  Tb2  1  -0.00000000  -0.00000000  0.00000000  1
  Tb  Tb3  1  -0.00000000  -0.00000000  0.50000000  1
  Zn  Zn0  1  0.33333300  0.66666700  0.14615523  1
  Zn  Zn1  1  0.66666700  0.33333300  0.85384477  1
  Zn  Zn2  1  0.66666700  0.33333300  0.64615523  1
  Zn  Zn3  1  0.33333300  0.66666700  0.35384477  1
  Ge  Ge0  1  0.33333300  0.66666700  0.61451678  1
  Ge  Ge1  1  0.66666700  0.33333300  0.38548322  1
  Ge  Ge2  1  0.66666700  0.33333300  0.11451678  1
  Ge  Ge3  1  0.33333300  0.66666700  0.88548322  1
loop_
_geom_bond_atom_site_label_1
_geom_bond_atom_site_label_2
_geom_bond_distance
_geom_bond_site_symmetry_2
Tb0 Zn0 2.928900 1_545
Tb0 Zn3 2.928900 1_545
Tb0 Zn3 2.928903 1_445
Tb0 Zn3 2.928903 1_555
Tb0 Zn0 2.928903 1_445
Tb0 Zn0 2.928903 1_555
Tb1 Zn1 2.928900 1_455
Tb1 Zn2 2.928900 1_455
Tb1 Zn1 2.928903 1_445
Tb1 Zn1 2.928903 1_555
Tb1 Zn2 2.928903 1_555
Tb1 Zn2 2.928903 1_445
Ge0 Zn2 2.473152 1_455
Ge0 Zn2 2.473152 1_565
Ge0 Zn2 2.473159 1_555
Ge0 Tb3 3.027362 1_565
Ge0 Tb3 3.027365 1_665
Ge0 Tb3 3.027365 1_555
Ge0 Tb1 3.237908 1_565
Ge0 Tb1 3.237911 1_665
Ge0 Tb1 3.237911 1_555
Ge1 Zn3 2.473152 1_655
Ge1 Zn3 2.473152 1_545
Ge1 Zn3 2.473159 1_555
Ge1 Tb3 3.027362 1_655
Ge1 Tb3 3.027365 1_665
Ge1 Tb3 3.027365 1_555
Ge1 Tb0 3.237908 1_655
Ge1 Tb0 3.237911 1_555
Ge1 Tb0 3.237911 1_665
Ge2 Zn0 2.473152 1_545
Ge2 Zn0 2.473152 1_655
Ge2 Zn0 2.473159 1_555
Ge2 Tb2 3.027362 1_655
Ge2 Tb2 3.027365 1_665
Ge2 Tb2 3.027365 1_555
Ge2 Tb0 3.237908 1_655
Ge2 Tb0 3.237911 1_555
Ge2 Tb0 3.237911 1_665
Ge3 Zn1 2.473152 1_455
Ge3 Zn1 2.473152 1_565
Ge3 Zn1 2.473159 1_555
Ge3 Tb2 3.027362 1_566
Ge3 Tb2 3.027365 1_556
Ge3 Tb2 3.027365 1_666
Ge3 Tb1 3.237908 1_565
Ge3 Tb1 3.237911 1_665
Ge3 Tb1 3.237911 1_555
