# generated using pymatgen
data_Ba2AlCu3O8
_symmetry_space_group_name_H-M   'P 1'
_cell_length_a   3.81042400
_cell_length_b   3.81042400
_cell_length_c   11.57635100
_cell_angle_alpha   90.00000000
_cell_angle_beta   90.00000000
_cell_angle_gamma   90.00000000
_symmetry_Int_Tables_number   1
_chemical_formula_structural   Ba2AlCu3O8
_chemical_formula_sum   'Ba2 Al1 Cu3 O8'
_cell_volume   168.08087263
_cell_formula_units_Z   1
loop_
 _symmetry_equiv_pos_site_id
 _symmetry_equiv_pos_as_xyz
  1  'x, y, z'
loop_
 _atom_site_type_symbol
 _atom_site_label
 _atom_site_symmetry_multiplicity
 _atom_site_fract_x
 _atom_site_fract_y
 _atom_site_fract_z
 _atom_site_occupancy
  Ba  Ba0  1  0.50000000  0.50000000  0.17146900  1
  Ba  Ba1  1  0.50000000  0.50000000  0.82853100  1
  Al  Al0  1  0.50000000  0.50000000  0.50000000  1
  Cu  Cu0  1  0.00000000  0.00000000  0.35577600  1
  Cu  Cu1  1  0.00000000  0.00000000  0.00000000  1
  Cu  Cu2  1  0.00000000  0.00000000  0.64422400  1
  O  O0  1  0.00000000  0.50000000  0.39753100  1
  O  O1  1  0.50000000  0.00000000  0.39753100  1
  O  O2  1  0.50000000  0.00000000  0.00000000  1
  O  O3  1  0.00000000  0.00000000  0.18291700  1
  O  O4  1  0.00000000  0.50000000  0.60246900  1
  O  O5  1  0.50000000  0.00000000  0.60246900  1
  O  O6  1  0.00000000  0.00000000  0.81708300  1
  O  O7  1  0.00000000  0.50000000  0.00000000  1
loop_
_geom_bond_atom_site_label_1
_geom_bond_atom_site_label_2
_geom_bond_distance
_geom_bond_site_symmetry_2
Ba0 O3 2.697634 1_665
Ba0 O3 2.697634 1_555
Ba0 O3 2.697634 1_565
Ba0 O3 2.697634 1_655
Ba0 O2 2.751363 1_565
Ba0 O7 2.751363 1_555
Ba0 O7 2.751363 1_655
Ba0 O2 2.751363 1_555
Ba0 O0 3.237033 1_655
Ba0 O0 3.237033 1_555
Ba0 O1 3.237033 1_565
Ba0 O1 3.237033 1_555
Ba1 O6 2.697634 1_665
Ba1 O6 2.697634 1_555
Ba1 O6 2.697634 1_655
Ba1 O6 2.697634 1_565
Ba1 O2 2.751363 1_566
Ba1 O7 2.751363 1_656
Ba1 O2 2.751363 1_556
Ba1 O7 2.751363 1_556
Ba1 O4 3.237033 1_555
Ba1 O4 3.237033 1_655
Ba1 O5 3.237033 1_555
Ba1 O5 3.237033 1_565
Al0 O0 2.244314 1_655
Al0 O1 2.244314 1_555
Al0 O0 2.244314 1_555
Al0 O4 2.244314 1_555
Al0 O1 2.244314 1_565
Al0 O5 2.244314 1_555
Al0 O4 2.244314 1_655
Al0 O5 2.244314 1_565
Cu0 O1 1.965574 1_455
Cu0 O1 1.965574 1_555
Cu0 O0 1.965574 1_555
Cu0 O0 1.965574 1_545
Cu0 O3 2.001076 1_555
Cu1 O2 1.905212 1_455
Cu1 O2 1.905212 1_555
Cu1 O7 1.905212 1_545
Cu1 O7 1.905212 1_555
Cu1 O6 2.117511 1_554
Cu1 O3 2.117511 1_555
Cu2 O5 1.965574 1_455
Cu2 O5 1.965574 1_555
Cu2 O4 1.965574 1_545
Cu2 O4 1.965574 1_555
Cu2 O6 2.001076 1_555
