# generated using pymatgen
data_Dy2Co17
_symmetry_space_group_name_H-M   'P 1'
_cell_length_a   6.27319531
_cell_length_b   6.27319531
_cell_length_c   6.27319514
_cell_angle_alpha   82.88501218
_cell_angle_beta   82.88501218
_cell_angle_gamma   82.88500499
_symmetry_Int_Tables_number   1
_chemical_formula_structural   Dy2Co17
_chemical_formula_sum   'Dy2 Co17'
_cell_volume   241.60077922
_cell_formula_units_Z   1
loop_
 _symmetry_equiv_pos_site_id
 _symmetry_equiv_pos_as_xyz
  1  'x, y, z'
loop_
 _atom_site_type_symbol
 _atom_site_label
 _atom_site_symmetry_multiplicity
 _atom_site_fract_x
 _atom_site_fract_y
 _atom_site_fract_z
 _atom_site_occupancy
  Dy  Dy0  1  0.65610400  0.65610400  0.65610400  1
  Dy  Dy1  1  0.34389600  0.34389600  0.34389600  1
  Co  Co0  1  0.00000000  0.00000000  0.50000000  1
  Co  Co1  1  0.00000000  0.50000000  0.00000000  1
  Co  Co2  1  0.50000000  0.00000000  0.00000000  1
  Co  Co3  1  0.28850000  0.71150000  0.00000000  1
  Co  Co4  1  0.71150000  0.00000000  0.28850000  1
  Co  Co5  1  0.00000000  0.28850000  0.71150000  1
  Co  Co6  1  0.28850000  0.00000000  0.71150000  1
  Co  Co7  1  0.00000000  0.71150000  0.28850000  1
  Co  Co8  1  0.71150000  0.28850000  0.00000000  1
  Co  Co9  1  0.34596500  0.34596500  0.84957900  1
  Co  Co10  1  0.34596500  0.84957900  0.34596500  1
  Co  Co11  1  0.84957900  0.34596500  0.34596500  1
  Co  Co12  1  0.65403500  0.65403500  0.15042100  1
  Co  Co13  1  0.65403500  0.15042100  0.65403500  1
  Co  Co14  1  0.15042100  0.65403500  0.65403500  1
  Co  Co15  1  0.90325900  0.90325900  0.90325900  1
  Co  Co16  1  0.09674100  0.09674100  0.09674100  1
loop_
_geom_bond_atom_site_label_1
_geom_bond_atom_site_label_2
_geom_bond_distance
_geom_bond_site_symmetry_2
Co0 Co4 2.372893 1_455
Co0 Co6 2.372893 1_555
Co0 Co7 2.372893 1_545
Co0 Co5 2.372893 1_555
Co0 Co13 2.394454 1_455
Co0 Co14 2.394454 1_545
Co0 Co10 2.394454 1_545
Co0 Co11 2.394454 1_455
Co0 Co15 2.542972 1_445
Co0 Co16 2.542972 1_555
Co0 Dy0 3.220765 1_445
Co0 Dy1 3.220765 1_555
Co1 Co7 2.372893 1_555
Co1 Co5 2.372893 1_554
Co1 Co3 2.372893 1_555
Co1 Co8 2.372893 1_455
Co1 Co12 2.394454 1_455
Co1 Co9 2.394454 1_554
Co1 Co14 2.394454 1_554
Co1 Co11 2.394454 1_455
Co1 Co16 2.542972 1_555
Co1 Co15 2.542972 1_454
Co1 Dy0 3.220764 1_454
Co1 Dy1 3.220764 1_555
Co2 Co6 2.372893 1_554
Co2 Co4 2.372893 1_555
Co2 Co8 2.372893 1_555
Co2 Co3 2.372893 1_545
Co2 Co9 2.394454 1_554
Co2 Dy0 3.220764 1_544
Co2 Dy1 3.220764 1_555
Co3 Co7 2.395720 1_555
Co3 Co6 2.395720 1_564
Co3 Co9 2.554512 1_554
Co3 Dy0 2.974474 1_554
Co3 Dy1 2.974474 1_555
Co4 Co7 2.395720 1_645
Co4 Co8 2.395720 1_555
Co4 Dy1 2.974474 1_555
Co4 Dy0 2.974475 1_545
Co5 Co6 2.395720 1_555
Co5 Co8 2.395720 1_456
Co5 Co9 2.515420 1_555
Co5 Dy0 2.974474 1_455
Co5 Dy1 2.974475 1_555
Co6 Co9 2.515420 1_555
Co6 Dy0 2.974474 1_545
Co6 Dy1 2.974475 1_555
Co7 Dy1 2.974474 1_555
Co7 Dy0 2.974475 1_455
Co8 Co9 2.554512 1_554
Co8 Dy0 2.974474 1_554
Co8 Dy1 2.974474 1_555
Co9 Dy0 2.968380 1_555
Co9 Dy1 3.097791 1_556
Co9 Dy1 3.175521 1_555
Co10 Co2 2.394454 1_565
Co10 Co12 2.437749 1_555
Co10 Co14 2.437749 1_555
Co10 Co3 2.515420 1_555
Co10 Co7 2.515420 1_555
Co10 Co6 2.554512 1_565
Co10 Co4 2.554512 1_565
Co10 Co16 2.587890 1_565
Co10 Dy0 2.968380 1_555
Co10 Dy1 3.097791 1_565
Co10 Dy1 3.175521 1_555
Co11 Co12 2.437749 1_555
Co11 Co13 2.437749 1_555
Co11 Co8 2.515420 1_555
Co11 Co4 2.515420 1_555
Co11 Co5 2.554512 1_655
Co11 Co7 2.554512 1_655
Co11 Co16 2.587890 1_655
Co11 Dy0 2.968380 1_555
Co11 Dy1 3.097791 1_655
Co11 Dy1 3.175521 1_555
Co12 Co2 2.394454 1_565
Co12 Co4 2.515420 1_565
Co12 Co7 2.515420 1_655
Co12 Co8 2.554512 1_555
Co12 Co3 2.554512 1_555
Co12 Co15 2.587890 1_554
Co12 Dy1 2.968380 1_555
Co12 Dy0 3.097791 1_554
Co12 Dy0 3.175521 1_555
Co13 Co2 2.394454 1_556
Co13 Co9 2.437749 1_555
Co13 Co8 2.515420 1_556
Co13 Co5 2.515420 1_655
Co13 Co4 2.554512 1_555
Co13 Co6 2.554512 1_555
Co13 Co15 2.587890 1_545
Co13 Dy1 2.968380 1_555
Co13 Dy0 3.097791 1_545
Co13 Dy0 3.175521 1_555
Co14 Co9 2.437749 1_555
Co14 Co3 2.515420 1_556
Co14 Co6 2.515420 1_565
Co14 Co7 2.554512 1_555
Co14 Co5 2.554512 1_555
Co14 Co15 2.587890 1_455
Co14 Dy1 2.968380 1_555
Co14 Dy0 3.097791 1_455
Co14 Dy0 3.175521 1_555
Co15 Co16 2.348275 1_666
Co15 Co2 2.542972 1_566
Co15 Co8 2.667972 1_566
Co15 Co3 2.667972 1_656
Co15 Co7 2.667972 1_656
Co15 Co4 2.667972 1_566
Co15 Co5 2.667972 1_665
Co15 Co6 2.667972 1_665
Co15 Dy0 2.999700 1_555
Co16 Co2 2.542972 1_555
Co16 Co9 2.587890 1_554
Co16 Co8 2.667972 1_455
Co16 Co3 2.667972 1_545
Co16 Co5 2.667972 1_554
Co16 Co6 2.667972 1_554
Co16 Co7 2.667972 1_545
Co16 Co4 2.667972 1_455
Co16 Dy1 2.999700 1_555
