# generated using pymatgen
data_Li4Fe3Ni2Sb3O16
_symmetry_space_group_name_H-M   'P 1'
_cell_length_a   6.11407584
_cell_length_b   6.11407584
_cell_length_c   9.81698546
_cell_angle_alpha   89.44145509
_cell_angle_beta   89.44145509
_cell_angle_gamma   59.92176084
_symmetry_Int_Tables_number   1
_chemical_formula_structural   Li4Fe3Ni2Sb3O16
_chemical_formula_sum   'Li4 Fe3 Ni2 Sb3 O16'
_cell_volume   317.54113640
_cell_formula_units_Z   1
loop_
 _symmetry_equiv_pos_site_id
 _symmetry_equiv_pos_as_xyz
  1  'x, y, z'
loop_
 _atom_site_type_symbol
 _atom_site_label
 _atom_site_symmetry_multiplicity
 _atom_site_fract_x
 _atom_site_fract_y
 _atom_site_fract_z
 _atom_site_occupancy
  Li  Li0  1  0.66227300  0.66227300  0.12703200  1
  Li  Li1  1  0.98985700  0.98985700  0.00908800  1
  Li  Li2  1  0.99195700  0.99195700  0.49308800  1
  Li  Li3  1  0.32828400  0.32828400  0.60072800  1
  Fe  Fe0  1  0.83195000  0.83195000  0.78255500  1
  Fe  Fe1  1  0.17057900  0.66223700  0.28490900  1
  Fe  Fe2  1  0.66223700  0.17057900  0.28490900  1
  Ni  Ni0  1  0.67358600  0.67358600  0.48878800  1
  Ni  Ni1  1  0.34239700  0.34239700  0.02557800  1
  Sb  Sb0  1  0.33726900  0.83221100  0.78427900  1
  Sb  Sb1  1  0.83221100  0.33726900  0.78427900  1
  Sb  Sb2  1  0.17110300  0.17110300  0.28521300  1
  O  O0  1  0.31876100  0.84954400  0.39947500  1
  O  O1  1  0.51440500  0.51440500  0.66769000  1
  O  O2  1  0.66367200  0.66367200  0.89825100  1
  O  O3  1  0.00354800  0.00354800  0.67905900  1
  O  O4  1  0.00484300  0.00484300  0.18820600  1
  O  O5  1  0.84954400  0.31876100  0.39947500  1
  O  O6  1  0.51098600  0.96767500  0.67093000  1
  O  O7  1  0.96767500  0.51098600  0.67093000  1
  O  O8  1  0.15511300  0.15511300  0.89627000  1
  O  O9  1  0.84118100  0.84118100  0.39544600  1
  O  O10  1  0.03482400  0.47760900  0.16234000  1
  O  O11  1  0.47760900  0.03482400  0.16234000  1
  O  O12  1  0.33044100  0.33044100  0.39834600  1
  O  O13  1  0.16274300  0.68913400  0.89320100  1
  O  O14  1  0.48187100  0.48187100  0.16656300  1
  O  O15  1  0.68913400  0.16274300  0.89320100  1
loop_
_geom_bond_atom_site_label_1
_geom_bond_atom_site_label_2
_geom_bond_distance
_geom_bond_site_symmetry_2
Li0 O14 1.945908 1_555
Li0 O10 2.003303 1_655
Li0 O11 2.003303 1_565
Li0 O2 2.245822 1_554
Li1 O4 1.767330 1_665
Li1 O15 1.965054 1_564
Li1 O13 1.965054 1_654
Li1 O8 2.061082 1_664
Li2 O3 1.831178 1_665
Li2 O9 1.872095 1_555
Li2 O5 1.957301 1_565
Li2 O0 1.957301 1_655
Li3 O12 1.986655 1_555
Li3 O6 2.024984 1_545
Li3 O7 2.024984 1_455
Li3 O1 2.085474 1_555
Fe0 O6 2.032815 1_555
Fe0 O7 2.032815 1_555
Fe0 O15 2.070492 1_565
Fe0 O13 2.070492 1_655
Fe0 O3 2.072574 1_665
Fe0 O2 2.103006 1_555
Fe1 O14 2.016516 1_555
Fe1 O4 2.041627 1_565
Fe1 O9 2.049996 1_455
Fe1 O12 2.073757 1_555
Fe1 O10 2.096695 1_555
Fe1 O0 2.117133 1_555
Fe2 O14 2.016516 1_555
Fe2 O4 2.041627 1_655
Fe2 O9 2.049996 1_545
Fe2 O12 2.073757 1_555
Fe2 O11 2.096695 1_555
Fe2 O5 2.117133 1_555
Ni0 O9 1.988845 1_555
Ni0 O0 2.076491 1_555
Ni0 O5 2.076491 1_555
Ni0 O6 2.378008 1_555
Ni0 O7 2.378008 1_555
Ni0 O1 2.421099 1_555
Ni1 O14 2.035903 1_555
Ni1 O10 2.106292 1_555
Ni1 O11 2.106292 1_555
Ni1 O13 2.242683 1_554
Ni1 O15 2.242683 1_554
Ni1 O8 2.367433 1_554
O0 Sb2 2.033763 1_565
O1 Sb1 2.041652 1_555
O1 Sb0 2.041652 1_555
O2 Sb1 2.063027 1_555
O2 Sb0 2.063027 1_555
O3 Sb0 2.050627 1_545
O3 Sb1 2.050627 1_455
O4 Sb2 2.011734 1_555
O5 Sb2 2.033763 1_655
O6 Sb0 1.973077 1_555
O7 Sb1 1.973077 1_555
O8 Sb0 2.039908 1_545
O8 Sb1 2.039908 1_455
O10 Sb2 2.017804 1_555
O11 Sb2 2.017804 1_555
O12 Sb2 2.031045 1_555
O13 Sb0 1.985553 1_555
O15 Sb1 1.985553 1_555
