# generated using pymatgen
data_Yb3(CuGe)4
_symmetry_space_group_name_H-M   'P 1'
_cell_length_a   7.94548212
_cell_length_b   7.94548212
_cell_length_c   7.94548212
_cell_angle_alpha   149.16876947
_cell_angle_beta   130.39234250
_cell_angle_gamma   59.55581350
_symmetry_Int_Tables_number   1
_chemical_formula_structural   Yb3(CuGe)4
_chemical_formula_sum   'Yb3 Cu4 Ge4'
_cell_volume   194.20031291
_cell_formula_units_Z   1
loop_
 _symmetry_equiv_pos_site_id
 _symmetry_equiv_pos_as_xyz
  1  'x, y, z'
loop_
 _atom_site_type_symbol
 _atom_site_label
 _atom_site_symmetry_multiplicity
 _atom_site_fract_x
 _atom_site_fract_y
 _atom_site_fract_z
 _atom_site_occupancy
  Yb  Yb0  1  0.50000000  0.00000000  0.50000000  1
  Yb  Yb1  1  0.86905500  0.86905500  0.00000000  1
  Yb  Yb2  1  0.13094500  0.13094500  0.00000000  1
  Cu  Cu0  1  0.48022300  0.67044900  0.80977400  1
  Cu  Cu1  1  0.86067500  0.67044900  0.19022600  1
  Cu  Cu2  1  0.13932500  0.32955100  0.80977400  1
  Cu  Cu3  1  0.51977700  0.32955100  0.19022600  1
  Ge  Ge0  1  0.28222000  0.78222000  0.50000000  1
  Ge  Ge1  1  0.71778000  0.21778000  0.50000000  1
  Ge  Ge2  1  0.81444400  0.50000000  0.31444400  1
  Ge  Ge3  1  0.18555600  0.50000000  0.68555600  1
loop_
_geom_bond_atom_site_label_1
_geom_bond_atom_site_label_2
_geom_bond_distance
_geom_bond_site_symmetry_2
Cu0 Ge3 2.492528 1_555
Cu0 Cu1 2.536269 1_556
Cu0 Ge1 2.548555 1_555
Cu0 Ge1 2.548555 1_566
Cu0 Ge0 2.577056 1_555
Cu0 Yb2 3.003714 1_555
Cu0 Yb2 3.003714 1_566
Cu0 Yb1 3.018604 1_556
Cu1 Ge2 2.492528 1_555
Cu1 Ge1 2.548555 1_554
Cu1 Ge1 2.548555 1_565
Cu1 Ge0 2.577056 1_655
Cu1 Yb2 3.003714 1_666
Cu1 Yb2 3.003714 1_655
Cu1 Yb1 3.018604 1_555
Cu2 Ge3 2.492528 1_555
Cu2 Cu3 2.536269 1_556
Cu2 Ge0 2.548555 1_556
Cu2 Ge0 2.548555 1_545
Cu2 Ge1 2.577056 1_455
Cu2 Yb1 3.003714 1_456
Cu2 Yb1 3.003714 1_445
Cu2 Yb2 3.018604 1_556
Cu3 Ge2 2.492528 1_555
Cu3 Ge0 2.548555 1_555
Cu3 Ge0 2.548555 1_544
Cu3 Ge1 2.577056 1_555
Cu3 Yb1 3.003714 1_545
Cu3 Yb1 3.003714 1_556
Cu3 Yb2 3.018604 1_555
Ge0 Yb2 2.968875 1_555
Ge0 Yb2 2.968875 1_566
Ge0 Yb0 3.003769 1_565
Ge1 Yb1 2.968875 1_545
Ge1 Yb1 2.968875 1_556
Ge1 Yb0 3.003769 1_555
Ge2 Ge3 2.474004 1_655
Ge2 Yb0 2.975730 1_554
Ge2 Yb0 2.975730 1_565
Ge2 Yb1 3.041858 1_545
Ge2 Yb1 3.041858 1_556
Ge2 Yb2 3.041858 1_666
Ge2 Yb2 3.041858 1_655
Ge3 Yb0 2.975730 1_555
Ge3 Yb0 2.975730 1_566
Ge3 Yb1 3.041858 1_445
Ge3 Yb1 3.041858 1_456
Ge3 Yb2 3.041858 1_555
Ge3 Yb2 3.041858 1_566
