# generated using pymatgen
data_La2InSi2
_symmetry_space_group_name_H-M   'P 1'
_cell_length_a   4.43877000
_cell_length_b   7.71721900
_cell_length_c   14.93654100
_cell_angle_alpha   90.00000000
_cell_angle_beta   90.00000000
_cell_angle_gamma   90.00000000
_symmetry_Int_Tables_number   1
_chemical_formula_structural   La2InSi2
_chemical_formula_sum   'La8 In4 Si8'
_cell_volume   511.65061719
_cell_formula_units_Z   4
loop_
 _symmetry_equiv_pos_site_id
 _symmetry_equiv_pos_as_xyz
  1  'x, y, z'
loop_
 _atom_site_type_symbol
 _atom_site_label
 _atom_site_symmetry_multiplicity
 _atom_site_fract_x
 _atom_site_fract_y
 _atom_site_fract_z
 _atom_site_occupancy
  La  La0  1  0.50000000  0.75077400  0.03531100  1
  La  La1  1  0.50000000  0.24922600  0.96468900  1
  La  La2  1  0.50000000  0.25077400  0.46468900  1
  La  La3  1  0.50000000  0.74922600  0.53531100  1
  La  La4  1  0.50000000  0.61210300  0.28312500  1
  La  La5  1  0.50000000  0.38789700  0.71687500  1
  La  La6  1  0.50000000  0.11210300  0.21687500  1
  La  La7  1  0.50000000  0.88789700  0.78312500  1
  In  In0  1  0.00000000  0.93529400  0.37623000  1
  In  In1  1  0.00000000  0.06470600  0.62377000  1
  In  In2  1  0.00000000  0.43529400  0.12377000  1
  In  In3  1  0.00000000  0.56470600  0.87623000  1
  Si  Si0  1  0.00000000  0.55111600  0.42401300  1
  Si  Si1  1  0.00000000  0.44888400  0.57598700  1
  Si  Si2  1  0.00000000  0.05111600  0.07598700  1
  Si  Si3  1  0.00000000  0.94888400  0.92401300  1
  Si  Si4  1  0.00000000  0.82132800  0.18342400  1
  Si  Si5  1  0.00000000  0.17867200  0.81657600  1
  Si  Si6  1  0.00000000  0.32132800  0.31657600  1
  Si  Si7  1  0.00000000  0.67867200  0.68342400  1
loop_
_geom_bond_atom_site_label_1
_geom_bond_atom_site_label_2
_geom_bond_distance
_geom_bond_site_symmetry_2
La0 Si3 3.166493 1_554
La0 Si3 3.166493 1_654
La0 Si4 3.180626 1_655
La0 Si4 3.180626 1_555
La0 Si2 3.266040 1_665
La0 Si2 3.266040 1_565
La1 Si2 3.166493 1_656
La1 Si2 3.166493 1_556
La1 Si5 3.180626 1_555
La1 Si5 3.180626 1_655
La1 Si3 3.266040 1_545
La1 Si3 3.266040 1_645
La2 Si1 3.166493 1_555
La2 Si1 3.166493 1_655
La2 Si6 3.180626 1_555
La2 Si6 3.180626 1_655
La2 Si0 3.266040 1_655
La2 Si0 3.266040 1_555
La3 Si0 3.166493 1_655
La3 Si0 3.166493 1_555
La3 Si7 3.180626 1_655
La3 Si7 3.180626 1_555
La3 Si1 3.266040 1_555
La3 Si1 3.266040 1_655
La4 Si0 3.094446 1_555
La4 Si0 3.094446 1_655
La4 Si4 3.122563 1_555
La4 Si4 3.122563 1_655
La4 Si6 3.195424 1_555
La4 Si6 3.195424 1_655
La5 Si1 3.094446 1_555
La5 Si1 3.094446 1_655
La5 Si5 3.122563 1_655
La5 Si5 3.122563 1_555
La5 Si7 3.195424 1_655
La5 Si7 3.195424 1_555
La6 Si2 3.094446 1_555
La6 Si2 3.094446 1_655
La6 Si6 3.122563 1_655
La6 Si6 3.122563 1_555
La6 Si4 3.195424 1_645
La6 Si4 3.195424 1_545
La7 Si3 3.094446 1_555
La7 Si3 3.094446 1_655
La7 Si7 3.122563 1_655
La7 Si7 3.122563 1_555
La7 Si5 3.195424 1_565
La7 Si5 3.195424 1_665
In0 Si4 3.011160 1_555
In0 Si0 3.049482 1_555
In0 Si6 3.109504 1_565
In0 La6 3.528862 1_465
In0 La6 3.528862 1_565
In0 La2 3.549485 1_465
In0 La2 3.549485 1_565
In0 La3 3.554364 1_555
In0 La3 3.554364 1_455
In0 La4 3.616675 1_555
In0 La4 3.616675 1_455
In1 Si5 3.011160 1_555
In1 Si1 3.049482 1_555
In1 Si7 3.109504 1_545
In1 La7 3.528862 1_545
In1 La7 3.528862 1_445
In1 La3 3.549485 1_545
In1 La3 3.549485 1_445
In1 La2 3.554364 1_455
In1 La2 3.554364 1_555
In1 La5 3.616675 1_455
In1 La5 3.616675 1_555
In2 Si6 3.011160 1_555
In2 Si2 3.049482 1_555
In2 Si4 3.109504 1_555
In2 La4 3.528862 1_455
In2 La4 3.528862 1_555
In2 La0 3.549485 1_455
In2 La0 3.549485 1_555
In2 La1 3.554364 1_554
In2 La1 3.554364 1_454
In2 La6 3.616675 1_555
In2 La6 3.616675 1_455
In3 Si7 3.011160 1_555
In3 Si3 3.049482 1_555
In3 Si5 3.109504 1_555
In3 La5 3.528862 1_555
In3 La5 3.528862 1_455
In3 La1 3.549485 1_455
In3 La1 3.549485 1_555
In3 La0 3.554364 1_456
In3 La0 3.554364 1_556
In3 La7 3.616675 1_555
In3 La7 3.616675 1_455
Si0 Si6 2.391623 1_555
Si0 Si1 2.403161 1_555
Si1 Si7 2.391623 1_555
Si2 Si4 2.391623 1_545
Si2 Si3 2.403161 1_544
Si3 Si5 2.391623 1_565
