# generated using pymatgen
data_Ba3Si4
_symmetry_space_group_name_H-M   'P 1'
_cell_length_a   8.60646820
_cell_length_b   8.60646820
_cell_length_c   11.96686350
_cell_angle_alpha   90.00000000
_cell_angle_beta   90.00000000
_cell_angle_gamma   90.00000000
_symmetry_Int_Tables_number   1
_chemical_formula_structural   Ba3Si4
_chemical_formula_sum   'Ba12 Si16'
_cell_volume   886.40107507
_cell_formula_units_Z   4
loop_
 _symmetry_equiv_pos_site_id
 _symmetry_equiv_pos_as_xyz
  1  'x, y, z'
loop_
 _atom_site_type_symbol
 _atom_site_label
 _atom_site_symmetry_multiplicity
 _atom_site_fract_x
 _atom_site_fract_y
 _atom_site_fract_z
 _atom_site_occupancy
  Ba  Ba0  1  0.50000000  -0.00000000  0.75000000  1
  Ba  Ba1  1  0.50000000  -0.00000000  0.25000000  1
  Ba  Ba2  1  0.00000000  0.50000000  0.75000000  1
  Ba  Ba3  1  0.00000000  0.50000000  0.25000000  1
  Ba  Ba4  1  0.00000000  -0.00000000  0.83010238  1
  Ba  Ba5  1  0.50000000  0.50000000  0.33010238  1
  Ba  Ba6  1  0.50000000  0.50000000  0.66989762  1
  Ba  Ba7  1  0.00000000  -0.00000000  0.16989762  1
  Ba  Ba8  1  0.66401638  0.66401638  0.00000000  1
  Ba  Ba9  1  0.83598362  0.16401638  0.50000000  1
  Ba  Ba10  1  0.16401638  0.83598362  0.50000000  1
  Ba  Ba11  1  0.33598362  0.33598362  0.00000000  1
  Si  Si0  1  0.79926978  0.79926978  0.64416786  1
  Si  Si1  1  0.20073022  0.20073022  0.64416786  1
  Si  Si2  1  0.79926978  0.79926978  0.35583214  1
  Si  Si3  1  0.29926978  0.70073022  0.14416786  1
  Si  Si4  1  0.70073022  0.29926978  0.14416786  1
  Si  Si5  1  0.70073022  0.29926978  0.85583214  1
  Si  Si6  1  0.29926978  0.70073022  0.85583214  1
  Si  Si7  1  0.20073022  0.20073022  0.35583214  1
  Si  Si8  1  0.70134554  0.10231348  0.00000000  1
  Si  Si9  1  0.29865446  0.89768652  0.00000000  1
  Si  Si10  1  0.10231348  0.70134554  0.00000000  1
  Si  Si11  1  0.60231348  0.79865446  0.50000000  1
  Si  Si12  1  0.89768652  0.29865446  0.00000000  1
  Si  Si13  1  0.20134554  0.39768652  0.50000000  1
  Si  Si14  1  0.79865446  0.60231348  0.50000000  1
  Si  Si15  1  0.39768652  0.20134554  0.50000000  1
loop_
_geom_bond_atom_site_label_1
_geom_bond_atom_site_label_2
_geom_bond_distance
_geom_bond_site_symmetry_2
Ba0 Si5 3.350000 1_555
Ba0 Si1 3.350000 1_555
Ba0 Si0 3.350000 1_545
Ba0 Si6 3.350000 1_545
Ba0 Si11 3.567716 1_545
Ba0 Si15 3.567716 1_555
Ba0 Si9 3.567716 1_546
Ba0 Si8 3.567716 1_556
Ba1 Si4 3.350000 1_555
Ba1 Si2 3.350000 1_545
Ba1 Si3 3.350000 1_545
Ba1 Si7 3.350000 1_555
Ba1 Si11 3.567716 1_545
Ba1 Si15 3.567716 1_555
Ba1 Si9 3.567716 1_545
Ba1 Si8 3.567716 1_555
Ba2 Si6 3.350000 1_555
Ba2 Si1 3.350000 1_555
Ba2 Si5 3.350000 1_455
Ba2 Si0 3.350000 1_455
Ba2 Si12 3.567716 1_456
Ba2 Si13 3.567716 1_555
Ba2 Si14 3.567716 1_455
Ba2 Si10 3.567716 1_556
Ba3 Si3 3.350000 1_555
Ba3 Si4 3.350000 1_455
Ba3 Si2 3.350000 1_455
Ba3 Si7 3.350000 1_555
Ba3 Si12 3.567716 1_455
Ba3 Si13 3.567716 1_555
Ba3 Si14 3.567716 1_455
Ba3 Si10 3.567716 1_555
Ba4 Si0 3.304529 1_445
Ba4 Si1 3.304529 1_555
Ba4 Si8 3.393493 1_456
Ba4 Si10 3.393493 1_546
Ba4 Si9 3.393493 1_546
Ba4 Si12 3.393493 1_456
Ba4 Si5 3.655518 1_455
Ba4 Si6 3.655518 1_545
Ba5 Si4 3.304529 1_555
Ba5 Si3 3.304529 1_555
Ba5 Si14 3.393493 1_555
Ba5 Si11 3.393493 1_555
Ba5 Si15 3.393493 1_555
Ba5 Si13 3.393493 1_555
Ba5 Si2 3.655518 1_555
Ba5 Si7 3.655518 1_555
Ba6 Si6 3.304529 1_555
Ba6 Si5 3.304529 1_555
Ba6 Si14 3.393493 1_555
Ba6 Si11 3.393493 1_555
Ba6 Si15 3.393493 1_555
Ba6 Si13 3.393493 1_555
Ba6 Si0 3.655518 1_555
Ba6 Si1 3.655518 1_555
Ba7 Si2 3.304529 1_445
Ba7 Si7 3.304529 1_555
Ba7 Si10 3.393493 1_545
Ba7 Si8 3.393493 1_455
Ba7 Si12 3.393493 1_455
Ba7 Si9 3.393493 1_545
Ba7 Si3 3.655518 1_545
Ba7 Si4 3.655518 1_455
Ba8 Si4 3.595933 1_555
Ba8 Si5 3.595933 1_554
Ba8 Si3 3.595933 1_555
Ba8 Si6 3.595933 1_554
Ba8 Si9 3.732579 1_555
Ba8 Si12 3.732579 1_555
Ba8 Si10 3.785846 1_655
Ba8 Si8 3.785846 1_565
Ba9 Si2 3.595933 1_545
Ba9 Si0 3.595933 1_545
Ba9 Si7 3.595933 1_655
Ba9 Si1 3.595933 1_655
Ba9 Si13 3.732579 1_655
Ba9 Si11 3.732579 1_545
Ba9 Si15 3.785846 1_555
Ba9 Si14 3.785846 1_555
Ba10 Si2 3.595933 1_455
Ba10 Si0 3.595933 1_455
Ba10 Si7 3.595933 1_565
Ba10 Si1 3.595933 1_565
Ba10 Si15 3.732579 1_565
Ba10 Si14 3.732579 1_455
Ba10 Si11 3.785846 1_555
Ba10 Si13 3.785846 1_555
Ba11 Si4 3.595933 1_555
Ba11 Si6 3.595933 1_554
Ba11 Si3 3.595933 1_555
Ba11 Si5 3.595933 1_554
Ba11 Si10 3.732579 1_555
Ba11 Si8 3.732579 1_555
Ba11 Si12 3.785846 1_455
Ba11 Si9 3.785846 1_545
Si0 Si14 2.418642 1_555
Si0 Si11 2.418642 1_555
Si1 Si13 2.418642 1_555
Si1 Si15 2.418642 1_555
Si3 Si9 2.418642 1_555
Si4 Si8 2.418642 1_555
Si5 Si8 2.418642 1_556
Si6 Si9 2.418642 1_556
Si10 Si9 2.389741 1_555
Si10 Si3 2.418642 1_555
Si10 Si6 2.418642 1_554
Si11 Si14 2.389741 1_555
Si11 Si2 2.418642 1_555
Si12 Si8 2.389741 1_555
Si12 Si4 2.418642 1_555
Si12 Si5 2.418642 1_554
Si13 Si15 2.389741 1_555
Si13 Si7 2.418642 1_555
Si14 Si2 2.418642 1_555
Si15 Si7 2.418642 1_555
