# generated using pymatgen
data_Er(AlCr)6
_symmetry_space_group_name_H-M   'P 1'
_cell_length_a   5.06366900
_cell_length_b   6.67010269
_cell_length_c   6.67010269
_cell_angle_alpha   97.47601160
_cell_angle_beta   112.30763608
_cell_angle_gamma   67.69236392
_symmetry_Int_Tables_number   1
_chemical_formula_structural   Er(AlCr)6
_chemical_formula_sum   'Er1 Al6 Cr6'
_cell_volume   192.79926998
_cell_formula_units_Z   1
loop_
 _symmetry_equiv_pos_site_id
 _symmetry_equiv_pos_as_xyz
  1  'x, y, z'
loop_
 _atom_site_type_symbol
 _atom_site_label
 _atom_site_symmetry_multiplicity
 _atom_site_fract_x
 _atom_site_fract_y
 _atom_site_fract_z
 _atom_site_occupancy
  Er  Er0  1  0.00000000  0.00000000  0.00000000  1
  Al  Al0  1  0.65434400  0.34565600  0.65434400  1
  Al  Al1  1  0.34565600  0.65434400  0.34565600  1
  Al  Al2  1  0.00000000  0.32925700  0.32925700  1
  Al  Al3  1  0.00000000  0.67074300  0.67074300  1
  Al  Al4  1  0.69344600  0.80655400  0.19344600  1
  Al  Al5  1  0.30655400  0.19344600  0.80655400  1
  Cr  Cr0  1  0.50000000  0.00000000  0.50000000  1
  Cr  Cr1  1  0.00000000  0.00000000  0.50000000  1
  Cr  Cr2  1  0.50000000  0.50000000  0.00000000  1
  Cr  Cr3  1  0.00000000  0.50000000  0.00000000  1
  Cr  Cr4  1  0.50000000  0.75977400  0.75977400  1
  Cr  Cr5  1  0.50000000  0.24022600  0.24022600  1
loop_
_geom_bond_atom_site_label_1
_geom_bond_atom_site_label_2
_geom_bond_distance
_geom_bond_site_symmetry_2
Al0 Cr4 2.647271 1_555
Al0 Cr5 2.647271 1_555
Al0 Cr2 2.669409 1_556
Al0 Cr0 2.669409 1_555
Al0 Cr3 2.669409 1_656
Al0 Cr1 2.669409 1_655
Al0 Al1 2.671840 1_555
Al0 Al5 2.854095 1_555
Al0 Al5 2.854095 1_655
Al0 Er0 2.991815 1_656
Al1 Cr4 2.647271 1_555
Al1 Cr5 2.647271 1_555
Al1 Cr0 2.669409 1_565
Al1 Cr2 2.669409 1_555
Al1 Cr1 2.669409 1_565
Al1 Cr3 2.669409 1_555
Al1 Al4 2.854095 1_555
Al1 Al4 2.854095 1_455
Al1 Er0 2.991815 1_565
Al2 Cr3 2.602132 1_555
Al2 Cr1 2.602132 1_555
Al2 Cr2 2.602132 1_455
Al2 Cr0 2.602132 1_555
Al2 Cr5 2.650231 1_455
Al2 Cr5 2.650231 1_555
Al2 Er0 2.896773 1_555
Al2 Al4 3.049084 1_455
Al2 Al5 3.049084 1_555
Al3 Cr1 2.602132 1_565
Al3 Cr3 2.602132 1_556
Al3 Cr2 2.602132 1_556
Al3 Cr0 2.602132 1_465
Al3 Cr4 2.650231 1_455
Al3 Cr4 2.650231 1_555
Al3 Er0 2.896773 1_566
Al3 Al4 3.049084 1_455
Al3 Al5 3.049084 1_555
Al4 Cr0 2.584542 1_565
Al4 Cr2 2.584542 1_555
Al4 Cr1 2.584542 1_665
Al4 Cr3 2.584542 1_655
Al4 Cr4 2.696354 1_554
Al4 Cr5 2.696354 1_565
Al4 Er0 3.035406 1_665
Al4 Er0 3.035406 1_565
Al5 Cr0 2.584542 1_555
Al5 Cr2 2.584542 1_556
Al5 Cr3 2.584542 1_556
Al5 Cr1 2.584542 1_555
Al5 Cr5 2.696354 1_556
Al5 Cr4 2.696354 1_545
Al5 Er0 3.035406 1_556
Al5 Er0 3.035406 1_656
Cr0 Cr5 2.508438 1_555
Cr0 Cr4 2.508438 1_545
Cr0 Cr1 2.531834 1_655
Cr0 Cr1 2.531834 1_555
Cr0 Er0 3.335052 1_656
Cr0 Er0 3.335052 1_555
Cr1 Cr4 2.508439 1_545
Cr1 Cr5 2.508439 1_455
Cr1 Er0 3.335051 1_556
Cr1 Er0 3.335051 1_555
Cr2 Cr5 2.508438 1_555
Cr2 Cr4 2.508438 1_554
Cr2 Cr3 2.531834 1_655
Cr2 Cr3 2.531834 1_555
Cr2 Er0 3.335052 1_565
Cr2 Er0 3.335052 1_655
Cr3 Cr4 2.508439 1_454
Cr3 Cr5 2.508439 1_555
Cr3 Er0 3.335051 1_565
Cr3 Er0 3.335051 1_555
Cr4 Er0 3.298031 1_566
Cr4 Er0 3.298031 1_666
Cr5 Er0 3.298031 1_555
Cr5 Er0 3.298031 1_655
