# generated using pymatgen
data_YC3O8
_symmetry_space_group_name_H-M   'P 1'
_cell_length_a   7.28704200
_cell_length_b   8.51269300
_cell_length_c   12.94914700
_cell_angle_alpha   90.00000000
_cell_angle_beta   90.00000000
_cell_angle_gamma   90.00000000
_symmetry_Int_Tables_number   1
_chemical_formula_structural   YC3O8
_chemical_formula_sum   'Y4 C12 O32'
_cell_volume   803.26603735
_cell_formula_units_Z   4
loop_
 _symmetry_equiv_pos_site_id
 _symmetry_equiv_pos_as_xyz
  1  'x, y, z'
loop_
 _atom_site_type_symbol
 _atom_site_label
 _atom_site_symmetry_multiplicity
 _atom_site_fract_x
 _atom_site_fract_y
 _atom_site_fract_z
 _atom_site_occupancy
  Y  Y0  1  0.26042600  0.03242400  0.70272300  1
  Y  Y1  1  0.76042600  0.46757600  0.29727700  1
  Y  Y2  1  0.73957400  0.53242400  0.79727700  1
  Y  Y3  1  0.23957400  0.96757600  0.20272300  1
  C  C0  1  0.97386700  0.86000900  0.76204700  1
  C  C1  1  0.47386700  0.63999100  0.23795300  1
  C  C2  1  0.02613300  0.36000900  0.73795300  1
  C  C3  1  0.52613300  0.13999100  0.26204700  1
  C  C4  1  0.40633100  0.78689200  0.95538700  1
  C  C5  1  0.90633100  0.71310800  0.04461300  1
  C  C6  1  0.59366900  0.28689200  0.54461300  1
  C  C7  1  0.09366900  0.21310800  0.45538700  1
  C  C8  1  0.04018700  0.76805600  0.39639900  1
  C  C9  1  0.54018700  0.73194400  0.60360100  1
  C  C10  1  0.95981300  0.26805600  0.10360100  1
  C  C11  1  0.45981300  0.23194400  0.89639900  1
  O  O0  1  0.96491900  0.95792200  0.68548900  1
  O  O1  1  0.46491900  0.54207800  0.31451100  1
  O  O2  1  0.03508100  0.45792200  0.81451100  1
  O  O3  1  0.53508100  0.04207800  0.18548900  1
  O  O4  1  0.83611500  0.77388800  0.78657500  1
  O  O5  1  0.33611500  0.72611200  0.21342500  1
  O  O6  1  0.16388500  0.27388800  0.71342500  1
  O  O7  1  0.66388500  0.22611200  0.28657500  1
  O  O8  1  0.47988400  0.70034500  0.89824800  1
  O  O9  1  0.97988400  0.79965500  0.10175200  1
  O  O10  1  0.52011600  0.20034500  0.60175200  1
  O  O11  1  0.02011600  0.29965500  0.39824800  1
  O  O12  1  0.33470600  0.87294000  0.01315300  1
  O  O13  1  0.83470600  0.62706000  0.98684700  1
  O  O14  1  0.66529400  0.37294000  0.48684700  1
  O  O15  1  0.16529400  0.12706000  0.51315300  1
  O  O16  1  0.10761000  0.76570600  0.48669200  1
  O  O17  1  0.60761000  0.73429400  0.51330800  1
  O  O18  1  0.89239000  0.26570600  0.01330800  1
  O  O19  1  0.39239000  0.23429400  0.98669200  1
  O  O20  1  0.44915200  0.85012100  0.63710600  1
  O  O21  1  0.94915200  0.64987900  0.36289400  1
  O  O22  1  0.55084800  0.35012100  0.86289400  1
  O  O23  1  0.05084800  0.14987900  0.13710600  1
  O  O24  1  0.12874600  0.85433900  0.81293300  1
  O  O25  1  0.62874600  0.64566100  0.18706700  1
  O  O26  1  0.87125400  0.35433900  0.68706700  1
  O  O27  1  0.37125400  0.14566100  0.31293300  1
  O  O28  1  0.56465300  0.60735400  0.65924900  1
  O  O29  1  0.06465300  0.89264600  0.34075100  1
  O  O30  1  0.43534700  0.10735400  0.84075100  1
  O  O31  1  0.93534700  0.39264600  0.15924900  1
loop_
_geom_bond_atom_site_label_1
_geom_bond_atom_site_label_2
_geom_bond_distance
_geom_bond_site_symmetry_2
C0 O4 1.282954 1_555
C0 O0 1.296833 1_555
C0 O24 1.307776 1_655
C1 O5 1.282954 1_555
C1 O1 1.296833 1_555
C1 O25 1.307776 1_555
C2 O6 1.282954 1_555
C2 O2 1.296833 1_555
C2 O26 1.307776 1_455
C3 O7 1.282954 1_555
C3 O3 1.296833 1_555
C3 O27 1.307776 1_555
C4 O12 1.169832 1_556
C4 O8 1.173682 1_555
C5 O13 1.169832 1_554
C5 O9 1.173682 1_555
C6 O14 1.169832 1_555
C6 O10 1.173682 1_555
C7 O15 1.169832 1_555
C7 O11 1.173682 1_555
C8 O16 1.268408 1_555
C8 O21 1.280761 1_455
C8 O29 1.294568 1_555
C9 O17 1.268408 1_555
C9 O20 1.280761 1_555
C9 O28 1.294568 1_555
C10 O18 1.268408 1_555
C10 O23 1.280761 1_655
C10 O31 1.294568 1_555
C11 O19 1.268408 1_555
C11 O22 1.280761 1_555
C11 O30 1.294568 1_555
O0 Y0 2.255890 1_665
O1 Y1 2.255890 1_555
O2 Y2 2.255890 1_455
O3 Y3 2.255890 1_545
O4 Y2 2.176978 1_555
O5 Y3 2.176978 1_555
O6 Y0 2.176978 1_555
O7 Y1 2.176978 1_555
O8 Y2 2.708127 1_555
O9 Y3 2.708127 1_655
O10 Y0 2.708127 1_555
O11 Y1 2.708127 1_455
O12 Y3 2.674970 1_555
O13 Y2 2.674970 1_555
O14 Y1 2.674970 1_555
O15 Y0 2.674970 1_555
O20 Y0 2.240903 1_565
O21 Y1 2.240903 1_555
O22 Y2 2.240903 1_555
O23 Y3 2.240903 1_545
O24 Y0 2.292519 1_565
O25 Y1 2.292519 1_555
O26 Y2 2.292519 1_555
O27 Y3 2.292519 1_545
O28 Y2 2.286091 1_555
O29 Y3 2.286091 1_555
O30 Y0 2.286091 1_555
O31 Y1 2.286091 1_555
