# generated using pymatgen
data_Ta6Cr3Fe3C2
_symmetry_space_group_name_H-M   'P 1'
_cell_length_a   8.08634411
_cell_length_b   8.08634411
_cell_length_c   8.08634411
_cell_angle_alpha   120.16130982
_cell_angle_beta   119.93501172
_cell_angle_gamma   89.91671521
_symmetry_Int_Tables_number   1
_chemical_formula_structural   Ta6Cr3Fe3C2
_chemical_formula_sum   'Ta12 Cr6 Fe6 C4'
_cell_volume   373.61368834
_cell_formula_units_Z   2
loop_
 _symmetry_equiv_pos_site_id
 _symmetry_equiv_pos_as_xyz
  1  'x, y, z'
loop_
 _atom_site_type_symbol
 _atom_site_label
 _atom_site_symmetry_multiplicity
 _atom_site_fract_x
 _atom_site_fract_y
 _atom_site_fract_z
 _atom_site_occupancy
  Ta  Ta0  1  0.07017800  0.57017800  0.50000000  1
  Ta  Ta1  1  0.68015200  0.18015200  0.50000000  1
  Ta  Ta2  1  0.06899300  0.17965400  0.49945800  1
  Ta  Ta3  1  0.68019700  0.56953600  0.50054200  1
  Ta  Ta4  1  0.68019700  0.17965400  0.11066100  1
  Ta  Ta5  1  0.06899300  0.56953600  0.88933900  1
  Ta  Ta6  1  0.42979600  0.42979600  0.00000000  1
  Ta  Ta7  1  0.81996600  0.81996600  0.00000000  1
  Ta  Ta8  1  0.43002400  0.81962800  0.00018000  1
  Ta  Ta9  1  0.81944800  0.42984400  0.99982000  1
  Ta  Ta10  1  0.81944800  0.81962800  0.38960300  1
  Ta  Ta11  1  0.43002400  0.42984400  0.61039700  1
  Cr  Cr0  1  0.75185200  0.00073600  0.75111600  1
  Cr  Cr1  1  0.24962000  0.00073600  0.24888400  1
  Cr  Cr2  1  0.24958600  0.49853800  0.24895200  1
  Cr  Cr3  1  0.24958600  0.00063300  0.75104800  1
  Cr  Cr4  1  0.14250100  0.79793500  0.34456600  1
  Cr  Cr5  1  0.45336900  0.79793500  0.65543400  1
  Fe  Fe0  1  0.45448300  0.11092700  0.65644400  1
  Fe  Fe1  1  0.45448300  0.79804000  0.34355600  1
  Fe  Fe2  1  0.35270300  0.20083200  0.15187200  1
  Fe  Fe3  1  0.04896000  0.20083200  0.84812800  1
  Fe  Fe4  1  0.04822400  0.89495400  0.84673000  1
  Fe  Fe5  1  0.04822400  0.20149400  0.15327000  1
  C  C0  1  0.25092000  0.49989800  0.75102200  1
  C  C1  1  0.74887600  0.49989800  0.24897800  1
  C  C2  1  0.74959900  0.00008200  0.25048300  1
  C  C3  1  0.74959900  0.49911500  0.74951700  1
loop_
_geom_bond_atom_site_label_1
_geom_bond_atom_site_label_2
_geom_bond_distance
_geom_bond_site_symmetry_2
Cr0 Fe3 2.420818 1_655
Cr0 Fe4 2.425350 1_645
Cr0 Fe5 2.425350 1_656
Cr0 Cr5 2.446692 1_545
Cr0 Fe0 2.450356 1_555
Cr0 Fe1 2.450356 1_545
Cr0 Ta9 2.877440 1_555
Cr0 Ta10 2.877447 1_545
Cr0 Ta3 2.886853 1_545
Cr0 Ta4 2.886853 1_556
Cr0 Ta7 2.887579 1_546
Cr0 Ta1 2.889179 1_555
Cr1 Fe2 2.420813 1_555
Cr1 Fe4 2.425350 1_544
Cr1 Fe5 2.425350 1_555
Cr1 Cr4 2.446692 1_545
Cr1 Fe1 2.450350 1_545
Cr1 Fe0 2.450356 1_555
Cr1 Ta8 2.877440 1_545
Cr1 Ta11 2.877441 1_555
Cr1 Ta5 2.886853 1_544
Cr1 Ta2 2.886859 1_555
Cr1 Ta7 2.887579 1_445
Cr1 Ta1 2.889179 1_555
Cr2 Fe2 2.419778 1_555
Cr2 Fe3 2.419782 1_554
Cr2 Fe5 2.430234 1_555
Cr2 Cr4 2.447469 1_555
Cr2 Cr5 2.447469 1_555
Cr2 Fe1 2.465930 1_555
Cr2 Ta6 2.878566 1_555
Cr2 Ta0 2.883845 1_555
Cr2 Ta9 2.890146 1_454
Cr2 Ta11 2.890153 1_555
Cr2 Ta3 2.890560 1_555
Cr2 Ta5 2.890560 1_554
Cr3 Fe2 2.419784 1_556
Cr3 Fe3 2.419786 1_555
Cr3 Fe4 2.430230 1_545
Cr3 Cr5 2.447465 1_545
Cr3 Cr4 2.447469 1_545
Cr3 Fe0 2.465927 1_555
Cr3 Ta6 2.878573 1_556
Cr3 Ta0 2.883838 1_545
Cr3 Ta8 2.890139 1_546
Cr3 Ta10 2.890147 1_445
Cr3 Ta4 2.890560 1_556
Cr3 Ta2 2.890561 1_555
Cr4 Cr5 2.516255 1_555
Cr4 Fe0 2.526882 1_565
Cr4 Fe1 2.526882 1_555
Cr4 Ta7 2.800389 1_455
Cr4 Ta10 2.805633 1_455
Cr4 Ta9 2.805637 1_454
Cr4 Ta2 2.881428 1_565
Cr4 Ta5 2.881428 1_554
Cr4 Ta0 2.894239 1_555
Cr5 Fe0 2.526882 1_565
Cr5 Fe1 2.526886 1_555
Cr5 Ta7 2.800389 1_556
Cr5 Ta8 2.805637 1_556
Cr5 Ta11 2.805641 1_555
Cr5 Ta4 2.881428 1_566
Cr5 Ta3 2.881431 1_555
Cr5 Ta0 2.894239 1_555
Fe0 Fe1 2.523945 1_545
Fe0 Ta11 2.778181 1_555
Fe0 Ta9 2.778186 1_555
Fe0 Ta6 2.785699 1_556
Fe0 Ta1 2.874425 1_555
Fe0 Ta4 2.896872 1_556
Fe0 Ta2 2.896872 1_555
Fe1 Ta8 2.778181 1_555
Fe1 Ta10 2.778189 1_555
Fe1 Ta6 2.785704 1_555
Fe1 Ta1 2.874419 1_565
Fe1 Ta5 2.896872 1_554
Fe1 Ta3 2.896875 1_555
Fe2 Fe3 2.458587 1_554
Fe2 Fe5 2.467768 1_555
Fe2 Fe4 2.467772 1_544
Fe2 Ta3 2.824108 1_555
Fe2 Ta4 2.824112 1_555
Fe2 Ta1 2.827772 1_555
Fe2 Ta8 2.891005 1_545
Fe2 Ta11 2.891005 1_555
Fe2 Ta6 2.894326 1_555
Fe3 Fe4 2.467776 1_545
Fe3 Fe5 2.467776 1_556
Fe3 Ta2 2.824096 1_555
Fe3 Ta5 2.824104 1_555
Fe3 Ta1 2.827769 1_455
Fe3 Ta9 2.891002 1_455
Fe3 Ta10 2.891005 1_445
Fe3 Ta6 2.894322 1_556
Fe4 Fe5 2.472742 1_566
Fe4 Ta0 2.808201 1_555
Fe4 Ta3 2.814863 1_455
Fe4 Ta5 2.814863 1_555
Fe4 Ta7 2.890030 1_456
Fe4 Ta8 2.893641 1_556
Fe4 Ta10 2.893648 1_455
Fe5 Ta0 2.808201 1_555
Fe5 Ta4 2.814863 1_455
Fe5 Ta2 2.814871 1_555
Fe5 Ta7 2.890030 1_445
Fe5 Ta9 2.893641 1_454
Fe5 Ta11 2.893644 1_555
C0 Ta6 2.169112 1_556
C0 Ta11 2.169227 1_555
C0 Ta8 2.169233 1_556
C0 Ta5 2.176965 1_555
C0 Ta2 2.176965 1_555
C0 Ta0 2.185241 1_555
C1 Ta6 2.169112 1_555
C1 Ta9 2.169233 1_554
C1 Ta10 2.169234 1_555
C1 Ta3 2.176958 1_555
C1 Ta4 2.176965 1_555
C1 Ta0 2.185241 1_655
C2 Ta1 2.163987 1_555
C2 Ta2 2.171636 1_655
C2 Ta4 2.171636 1_555
C2 Ta10 2.174145 1_545
C2 Ta8 2.174151 1_545
C2 Ta7 2.175113 1_545
C3 Ta1 2.163982 1_555
C3 Ta5 2.171636 1_655
C3 Ta3 2.171649 1_555
C3 Ta9 2.174145 1_555
C3 Ta11 2.174152 1_555
C3 Ta7 2.175119 1_556
