# generated using pymatgen
data_Ba3Ca3(MoN4)2
_symmetry_space_group_name_H-M   'P 1'
_cell_length_a   9.70586400
_cell_length_b   10.36019400
_cell_length_c   11.90264300
_cell_angle_alpha   90.00000000
_cell_angle_beta   90.00000000
_cell_angle_gamma   90.00000000
_symmetry_Int_Tables_number   1
_chemical_formula_structural   Ba3Ca3(MoN4)2
_chemical_formula_sum   'Ba12 Ca12 Mo8 N32'
_cell_volume   1196.86591023
_cell_formula_units_Z   4
loop_
 _symmetry_equiv_pos_site_id
 _symmetry_equiv_pos_as_xyz
  1  'x, y, z'
loop_
 _atom_site_type_symbol
 _atom_site_label
 _atom_site_symmetry_multiplicity
 _atom_site_fract_x
 _atom_site_fract_y
 _atom_site_fract_z
 _atom_site_occupancy
  Ba  Ba0  1  0.31430900  0.76238100  0.61665100  1
  Ba  Ba1  1  0.18569100  0.26238100  0.38334900  1
  Ba  Ba2  1  0.81430900  0.23761900  0.88334900  1
  Ba  Ba3  1  0.68569100  0.73761900  0.11665100  1
  Ba  Ba4  1  0.68111600  0.23280500  0.37966300  1
  Ba  Ba5  1  0.81888400  0.73280500  0.62033700  1
  Ba  Ba6  1  0.18111600  0.76719500  0.12033700  1
  Ba  Ba7  1  0.31888400  0.26719500  0.87966300  1
  Ba  Ba8  1  0.62845200  0.02849300  0.64761000  1
  Ba  Ba9  1  0.87154800  0.52849300  0.35239000  1
  Ba  Ba10  1  0.12845200  0.97150700  0.85239000  1
  Ba  Ba11  1  0.37154800  0.47150700  0.14761000  1
  Ca  Ca0  1  0.96763500  0.12174100  0.59990600  1
  Ca  Ca1  1  0.53236500  0.62174100  0.40009400  1
  Ca  Ca2  1  0.46763500  0.87825900  0.90009400  1
  Ca  Ca3  1  0.03236500  0.37825900  0.09990600  1
  Ca  Ca4  1  0.03132200  0.88101100  0.39588000  1
  Ca  Ca5  1  0.46867800  0.38101100  0.60412000  1
  Ca  Ca6  1  0.53132200  0.11898900  0.10412000  1
  Ca  Ca7  1  0.96867800  0.61898900  0.89588000  1
  Ca  Ca8  1  0.38629000  0.95512600  0.36482300  1
  Ca  Ca9  1  0.11371000  0.45512600  0.63517700  1
  Ca  Ca10  1  0.88629000  0.04487400  0.13517700  1
  Ca  Ca11  1  0.61371000  0.54487400  0.86482300  1
  Mo  Mo0  1  0.29307100  0.09872700  0.61131400  1
  Mo  Mo1  1  0.20692900  0.59872700  0.38868600  1
  Mo  Mo2  1  0.79307100  0.90127300  0.88868600  1
  Mo  Mo3  1  0.70692900  0.40127300  0.11131400  1
  Mo  Mo4  1  0.70428900  0.90524300  0.37960700  1
  Mo  Mo5  1  0.79571100  0.40524300  0.62039300  1
  Mo  Mo6  1  0.20428900  0.09475700  0.12039300  1
  Mo  Mo7  1  0.29571100  0.59475700  0.87960700  1
  N  N0  1  0.37489600  0.99952100  0.72711300  1
  N  N1  1  0.12510400  0.49952100  0.27288700  1
  N  N2  1  0.87489600  0.00047900  0.77288700  1
  N  N3  1  0.62510400  0.50047900  0.22711300  1
  N  N4  1  0.61137000  0.00395000  0.27055800  1
  N  N5  1  0.88863000  0.50395000  0.72944200  1
  N  N6  1  0.11137000  0.99605000  0.22944200  1
  N  N7  1  0.38863000  0.49605000  0.77055800  1
  N  N8  1  0.18616800  0.23204300  0.67400000  1
  N  N9  1  0.31383200  0.73204300  0.32600000  1
  N  N10  1  0.68616800  0.76795700  0.82600000  1
  N  N11  1  0.81383200  0.26795700  0.17400000  1
  N  N12  1  0.81497400  0.77936500  0.31425900  1
  N  N13  1  0.68502600  0.27936500  0.68574100  1
  N  N14  1  0.31497400  0.22063500  0.18574100  1
  N  N15  1  0.18502600  0.72063500  0.81425900  1
  N  N16  1  0.17472500  0.99220100  0.52690700  1
  N  N17  1  0.32527500  0.49220100  0.47309300  1
  N  N18  1  0.67472500  0.00779900  0.97309300  1
  N  N19  1  0.82527500  0.50779900  0.02690700  1
  N  N20  1  0.82413900  0.01034300  0.46530100  1
  N  N21  1  0.67586100  0.51034300  0.53469900  1
  N  N22  1  0.32413900  0.98965700  0.03469900  1
  N  N23  1  0.17586100  0.48965700  0.96530100  1
  N  N24  1  0.42816600  0.16329800  0.51247900  1
  N  N25  1  0.07183400  0.66329800  0.48752100  1
  N  N26  1  0.92816600  0.83670200  0.98752100  1
  N  N27  1  0.57183400  0.33670200  0.01247900  1
  N  N28  1  0.56761200  0.83614000  0.47607000  1
  N  N29  1  0.93238800  0.33614000  0.52393000  1
  N  N30  1  0.06761200  0.16386000  0.02393000  1
  N  N31  1  0.43238800  0.66386000  0.97607000  1
loop_
_geom_bond_atom_site_label_1
_geom_bond_atom_site_label_2
_geom_bond_distance
_geom_bond_site_symmetry_2
Ba0 N15 2.700696 1_555
Ba0 N0 2.847880 1_555
Ba0 N16 2.940329 1_555
Ba0 N25 2.992441 1_555
Ba0 N28 3.070531 1_555
Ba0 N17 3.281175 1_555
Ba1 N14 2.700696 1_555
Ba1 N1 2.847880 1_555
Ba1 N17 2.940329 1_555
Ba1 N24 2.992441 1_555
Ba1 N29 3.070531 1_455
Ba1 N16 3.281175 1_545
Ba2 N13 2.700696 1_555
Ba2 N2 2.847880 1_555
Ba2 N18 2.940329 1_555
Ba2 N27 2.992441 1_556
Ba2 N30 3.070531 1_656
Ba2 N19 3.281175 1_556
Ba3 N12 2.700696 1_555
Ba3 N3 2.847880 1_555
Ba3 N19 2.940329 1_555
Ba3 N26 2.992441 1_554
Ba3 N31 3.070531 1_554
Ba3 N18 3.281175 1_564
Ba4 N4 2.786803 1_555
Ba4 N11 2.790030 1_555
Ba4 N20 2.877129 1_555
Ba4 N24 3.007521 1_555
Ba4 N29 3.169000 1_555
Ba4 N3 3.358999 1_555
Ba4 N21 3.416943 1_555
Ba5 N5 2.786803 1_555
Ba5 N10 2.790030 1_555
Ba5 N21 2.877129 1_555
Ba5 N25 3.007521 1_655
Ba5 N28 3.169000 1_555
Ba5 N2 3.358999 1_565
Ba5 N20 3.416943 1_565
Ba6 N6 2.786803 1_555
Ba6 N9 2.790030 1_555
Ba6 N22 2.877129 1_555
Ba6 N26 3.007521 1_454
Ba6 N31 3.169000 1_554
Ba6 N1 3.358999 1_555
Ba6 N23 3.416943 1_554
Ba7 N7 2.786803 1_555
Ba7 N8 2.790030 1_555
Ba7 N23 2.877129 1_555
Ba7 N27 3.007521 1_556
Ba7 N30 3.169000 1_556
Ba7 N0 3.358999 1_545
Ba7 N22 3.416943 1_546
Ba8 N0 2.653675 1_545
Ba8 N13 2.694945 1_555
Ba8 N2 2.833572 1_555
Ba8 N24 2.883825 1_555
Ba8 N20 2.889890 1_555
Ba8 N28 2.913566 1_545
Ba9 N1 2.653675 1_655
Ba9 N12 2.694945 1_555
Ba9 N3 2.833572 1_555
Ba9 N25 2.883825 1_655
Ba9 N21 2.889890 1_555
Ba9 N29 2.913566 1_555
Ba10 N2 2.653675 1_465
Ba10 N15 2.694945 1_555
Ba10 N0 2.833572 1_555
Ba10 N26 2.883825 1_455
Ba10 N22 2.889890 1_556
Ba10 N30 2.913566 1_566
Ba11 N3 2.653675 1_555
Ba11 N14 2.694945 1_555
Ba11 N1 2.833572 1_555
Ba11 N27 2.883825 1_555
Ba11 N23 2.889890 1_554
Ba11 N31 2.913566 1_554
Ca0 N20 2.416324 1_555
Ca0 N29 2.422523 1_555
Ca0 N8 2.565640 1_655
Ca0 N16 2.568293 1_645
Ca0 N2 2.574429 1_555
Ca1 N21 2.416324 1_555
Ca1 N28 2.422523 1_555
Ca1 N9 2.565640 1_555
Ca1 N17 2.568293 1_555
Ca1 N3 2.574429 1_555
Ca2 N22 2.416324 1_556
Ca2 N31 2.422523 1_555
Ca2 N10 2.565640 1_555
Ca2 N18 2.568293 1_565
Ca2 N0 2.574429 1_555
Ca3 N23 2.416324 1_554
Ca3 N30 2.422523 1_555
Ca3 N11 2.565640 1_455
Ca3 N19 2.568293 1_455
Ca3 N1 2.574429 1_555
Ca4 N16 2.386731 1_555
Ca4 N6 2.438985 1_555
Ca4 N25 2.536117 1_555
Ca4 N12 2.542072 1_455
Ca4 N20 2.553778 1_465
Ca5 N17 2.386731 1_555
Ca5 N7 2.438985 1_555
Ca5 N24 2.536117 1_555
Ca5 N13 2.542072 1_555
Ca5 N21 2.553778 1_555
Ca6 N18 2.386731 1_554
Ca6 N4 2.438985 1_555
Ca6 N27 2.536117 1_555
Ca6 N14 2.542072 1_555
Ca6 N22 2.553778 1_545
Ca7 N19 2.386731 1_556
Ca7 N5 2.438985 1_555
Ca7 N26 2.536117 1_555
Ca7 N15 2.542072 1_655
Ca7 N23 2.553778 1_655
Ca8 N9 2.459611 1_555
Ca8 N4 2.507431 1_565
Ca8 N28 2.523910 1_555
Ca8 N24 2.811646 1_565
Ca8 N16 2.843588 1_555
Ca9 N8 2.459611 1_555
Ca9 N5 2.507431 1_455
Ca9 N29 2.523910 1_455
Ca9 N25 2.811646 1_555
Ca9 N17 2.843588 1_555
Ca10 N11 2.459611 1_555
Ca10 N6 2.507431 1_645
Ca10 N30 2.523910 1_655
Ca10 N26 2.811646 1_544
Ca10 N18 2.843588 1_554
Ca11 N10 2.459611 1_555
Ca11 N7 2.507431 1_555
Ca11 N31 2.523910 1_555
Ca11 N27 2.811646 1_556
Ca11 N19 2.843588 1_556
Mo0 N8 1.881741 1_555
Mo0 N16 1.883282 1_545
Mo0 N24 1.884333 1_555
Mo0 N0 1.893894 1_545
Mo1 N9 1.881741 1_555
Mo1 N17 1.883282 1_555
Mo1 N25 1.884333 1_555
Mo1 N1 1.893894 1_555
Mo2 N10 1.881741 1_555
Mo2 N18 1.883282 1_565
Mo2 N26 1.884333 1_555
Mo2 N2 1.893894 1_565
Mo3 N11 1.881741 1_555
Mo3 N19 1.883282 1_555
Mo3 N27 1.884333 1_555
Mo3 N3 1.893894 1_555
Mo4 N12 1.860062 1_555
Mo4 N4 1.882509 1_565
Mo4 N20 1.891857 1_565
Mo4 N28 1.894890 1_555
Mo5 N13 1.860062 1_555
Mo5 N5 1.882509 1_555
Mo5 N21 1.891857 1_555
Mo5 N29 1.894890 1_555
Mo6 N14 1.860062 1_555
Mo6 N6 1.882509 1_545
Mo6 N22 1.891857 1_545
Mo6 N30 1.894890 1_555
Mo7 N15 1.860062 1_555
Mo7 N7 1.882509 1_555
Mo7 N23 1.891857 1_555
Mo7 N31 1.894890 1_555
