# generated using pymatgen
data_Y2Fe14C
_symmetry_space_group_name_H-M   'P 1'
_cell_length_a   8.70045400
_cell_length_b   8.70045400
_cell_length_c   11.72441600
_cell_angle_alpha   90.00000000
_cell_angle_beta   90.00000000
_cell_angle_gamma   90.00000000
_symmetry_Int_Tables_number   1
_chemical_formula_structural   Y2Fe14C
_chemical_formula_sum   'Y8 Fe56 C4'
_cell_volume   887.51366765
_cell_formula_units_Z   4
loop_
 _symmetry_equiv_pos_site_id
 _symmetry_equiv_pos_as_xyz
  1  'x, y, z'
loop_
 _atom_site_type_symbol
 _atom_site_label
 _atom_site_symmetry_multiplicity
 _atom_site_fract_x
 _atom_site_fract_y
 _atom_site_fract_z
 _atom_site_occupancy
  Y  Y0  1  0.35768900  0.35768900  0.00000000  1
  Y  Y1  1  0.64231100  0.64231100  0.00000000  1
  Y  Y2  1  0.14231100  0.85768900  0.50000000  1
  Y  Y3  1  0.85768900  0.14231100  0.50000000  1
  Y  Y4  1  0.23809900  0.76190100  0.00000000  1
  Y  Y5  1  0.76190100  0.23809900  0.00000000  1
  Y  Y6  1  0.73809900  0.73809900  0.50000000  1
  Y  Y7  1  0.26190100  0.26190100  0.50000000  1
  Fe  Fe0  1  0.06621800  0.27468900  0.12095300  1
  Fe  Fe1  1  0.93378200  0.72531100  0.87904700  1
  Fe  Fe2  1  0.93378200  0.72531100  0.12095300  1
  Fe  Fe3  1  0.22531100  0.56621800  0.62095300  1
  Fe  Fe4  1  0.43378200  0.77468900  0.37904700  1
  Fe  Fe5  1  0.06621800  0.27468900  0.87904700  1
  Fe  Fe6  1  0.77468900  0.43378200  0.37904700  1
  Fe  Fe7  1  0.56621800  0.22531100  0.62095300  1
  Fe  Fe8  1  0.77468900  0.43378200  0.62095300  1
  Fe  Fe9  1  0.56621800  0.22531100  0.37904700  1
  Fe  Fe10  1  0.22531100  0.56621800  0.37904700  1
  Fe  Fe11  1  0.43378200  0.77468900  0.62095300  1
  Fe  Fe12  1  0.27468900  0.06621800  0.87904700  1
  Fe  Fe13  1  0.72531100  0.93378200  0.12095300  1
  Fe  Fe14  1  0.72531100  0.93378200  0.87904700  1
  Fe  Fe15  1  0.27468900  0.06621800  0.12095300  1
  Fe  Fe16  1  0.03716700  0.35836100  0.32460900  1
  Fe  Fe17  1  0.96283300  0.64163900  0.67539100  1
  Fe  Fe18  1  0.96283300  0.64163900  0.32460900  1
  Fe  Fe19  1  0.14163900  0.53716700  0.82460900  1
  Fe  Fe20  1  0.46283300  0.85836100  0.17539100  1
  Fe  Fe21  1  0.03716700  0.35836100  0.67539100  1
  Fe  Fe22  1  0.85836100  0.46283300  0.17539100  1
  Fe  Fe23  1  0.53716700  0.14163900  0.82460900  1
  Fe  Fe24  1  0.85836100  0.46283300  0.82460900  1
  Fe  Fe25  1  0.53716700  0.14163900  0.17539100  1
  Fe  Fe26  1  0.14163900  0.53716700  0.17539100  1
  Fe  Fe27  1  0.46283300  0.85836100  0.82460900  1
  Fe  Fe28  1  0.35836100  0.03716700  0.67539100  1
  Fe  Fe29  1  0.64163900  0.96283300  0.32460900  1
  Fe  Fe30  1  0.64163900  0.96283300  0.67539100  1
  Fe  Fe31  1  0.35836100  0.03716700  0.32460900  1
  Fe  Fe32  1  0.31750400  0.31750400  0.25425900  1
  Fe  Fe33  1  0.68249600  0.68249600  0.74574100  1
  Fe  Fe34  1  0.68249600  0.68249600  0.25425900  1
  Fe  Fe35  1  0.18249600  0.81750400  0.75425900  1
  Fe  Fe36  1  0.18249600  0.81750400  0.24574100  1
  Fe  Fe37  1  0.31750400  0.31750400  0.74574100  1
  Fe  Fe38  1  0.81750400  0.18249600  0.24574100  1
  Fe  Fe39  1  0.81750400  0.18249600  0.75425900  1
  Fe  Fe40  1  0.00000000  0.50000000  0.00000000  1
  Fe  Fe41  1  0.00000000  0.50000000  0.50000000  1
  Fe  Fe42  1  0.50000000  0.00000000  0.50000000  1
  Fe  Fe43  1  0.50000000  0.00000000  0.00000000  1
  Fe  Fe44  1  0.09761800  0.09761800  0.29634100  1
  Fe  Fe45  1  0.90238200  0.90238200  0.70365900  1
  Fe  Fe46  1  0.90238200  0.90238200  0.29634100  1
  Fe  Fe47  1  0.40238200  0.59761800  0.79634100  1
  Fe  Fe48  1  0.40238200  0.59761800  0.20365900  1
  Fe  Fe49  1  0.09761800  0.09761800  0.70365900  1
  Fe  Fe50  1  0.59761800  0.40238200  0.20365900  1
  Fe  Fe51  1  0.59761800  0.40238200  0.79634100  1
  Fe  Fe52  1  0.00000000  0.00000000  0.10849100  1
  Fe  Fe53  1  0.00000000  0.00000000  0.89150900  1
  Fe  Fe54  1  0.50000000  0.50000000  0.60849100  1
  Fe  Fe55  1  0.50000000  0.50000000  0.39150900  1
  C  C0  1  0.12559300  0.12559300  0.00000000  1
  C  C1  1  0.87440700  0.87440700  0.00000000  1
  C  C2  1  0.37440700  0.62559300  0.50000000  1
  C  C3  1  0.62559300  0.37440700  0.50000000  1
loop_
_geom_bond_atom_site_label_1
_geom_bond_atom_site_label_2
_geom_bond_distance
_geom_bond_site_symmetry_2
Fe0 Fe26 2.460314 1_555
Fe0 Fe40 2.487116 1_555
Fe0 Fe16 2.509021 1_555
Fe0 Fe22 2.521394 1_455
Fe0 Fe44 2.583900 1_555
Fe0 Fe32 2.713199 1_555
Fe0 Fe38 2.732495 1_455
Fe0 Y0 2.993901 1_555
Fe0 Y5 3.020374 1_455
Fe1 Fe24 2.460314 1_555
Fe1 Fe40 2.487116 1_656
Fe1 Fe17 2.509021 1_555
Fe1 Fe19 2.521394 1_655
Fe1 Fe45 2.583900 1_555
Fe1 Fe33 2.713199 1_555
Fe1 Fe35 2.732495 1_655
Fe1 Y1 2.993901 1_556
Fe1 Y4 3.020374 1_656
Fe2 Fe22 2.460314 1_555
Fe2 Fe40 2.487116 1_655
Fe2 Fe26 2.521394 1_655
Fe2 Fe46 2.583900 1_555
Fe2 Fe34 2.713199 1_555
Fe2 Fe36 2.732495 1_655
Fe2 Y1 2.993901 1_555
Fe2 Y4 3.020374 1_655
Fe3 Fe41 2.487116 1_555
Fe3 Fe47 2.583900 1_555
Fe3 Fe35 2.713199 1_555
Fe3 Fe37 2.732495 1_555
Fe3 Y2 2.993901 1_555
Fe3 Y7 3.020374 1_555
Fe4 Fe42 2.487116 1_565
Fe4 Fe48 2.583900 1_555
Fe4 Y2 2.993901 1_555
Fe4 Y6 3.020374 1_555
Fe5 Y0 2.993901 1_556
Fe5 Y5 3.020374 1_456
Fe6 Y3 2.993901 1_555
Fe6 Y6 3.020374 1_555
Fe7 Y3 2.993901 1_555
Fe7 Y7 3.020374 1_555
Fe8 Y3 2.993901 1_555
Fe8 Y6 3.020374 1_555
Fe9 Y3 2.993901 1_555
Fe9 Y7 3.020374 1_555
Fe10 Fe18 2.460314 1_455
Fe10 Fe41 2.487116 1_555
Fe10 Fe26 2.509021 1_555
Fe10 Fe16 2.521394 1_555
Fe10 Fe48 2.583900 1_555
Fe10 Fe36 2.713199 1_555
Fe10 Fe32 2.732495 1_555
Fe10 Y2 2.993901 1_555
Fe10 Y7 3.020374 1_555
Fe11 Fe28 2.460314 1_565
Fe11 Fe42 2.487116 1_565
Fe11 Fe27 2.509021 1_555
Fe11 Fe30 2.521394 1_555
Fe11 Fe47 2.583900 1_555
Fe11 Fe35 2.713199 1_555
Fe11 Fe33 2.732495 1_555
Fe11 Y2 2.993901 1_555
Fe11 Y6 3.020374 1_555
Fe12 Fe23 2.460314 1_555
Fe12 Fe43 2.487116 1_556
Fe12 Fe28 2.509021 1_555
Fe12 Fe27 2.521394 1_545
Fe12 Fe49 2.583900 1_555
Fe12 Fe37 2.713199 1_555
Fe12 Fe35 2.732495 1_545
Fe12 Y0 2.993901 1_556
Fe12 Y4 3.020374 1_546
Fe13 Fe20 2.460314 1_555
Fe13 Fe43 2.487116 1_565
Fe13 Fe29 2.509021 1_555
Fe13 Fe25 2.521394 1_565
Fe13 Fe46 2.583900 1_555
Fe13 Fe34 2.713199 1_555
Fe13 Fe38 2.732495 1_565
Fe13 Y1 2.993901 1_555
Fe13 Y5 3.020374 1_565
Fe14 Fe27 2.460314 1_555
Fe14 Fe43 2.487116 1_566
Fe14 Fe30 2.509021 1_555
Fe14 Fe23 2.521394 1_565
Fe14 Fe45 2.583900 1_555
Fe14 Fe33 2.713199 1_555
Fe14 Fe39 2.732495 1_565
Fe14 Y1 2.993901 1_556
Fe14 Y5 3.020374 1_566
Fe15 Fe25 2.460314 1_555
Fe15 Fe43 2.487116 1_555
Fe15 Fe31 2.509021 1_555
Fe15 Fe20 2.521394 1_545
Fe15 Fe44 2.583900 1_555
Fe15 Fe32 2.713199 1_555
Fe15 Fe36 2.732495 1_545
Fe15 Y0 2.993901 1_555
Fe15 Y4 3.020374 1_545
Fe16 Fe44 2.352219 1_555
Fe16 Fe41 2.419048 1_555
Fe16 Fe6 2.460314 1_455
Fe16 Fe26 2.511396 1_555
Fe16 Fe22 2.511396 1_455
Fe16 Fe18 2.548089 1_455
Fe16 Fe32 2.599171 1_555
Fe16 Fe38 2.617025 1_455
Fe16 Y7 2.959069 1_555
Fe16 Y3 3.193808 1_455
Fe17 Fe45 2.352219 1_555
Fe17 Fe41 2.419048 1_655
Fe17 Fe3 2.460314 1_655
Fe17 Fe19 2.511396 1_655
Fe17 Fe24 2.511396 1_555
Fe17 Fe8 2.521394 1_555
Fe17 Fe21 2.548089 1_655
Fe17 Fe33 2.599171 1_555
Fe17 Fe35 2.617025 1_655
Fe17 Y6 2.959069 1_555
Fe17 Y2 3.193808 1_655
Fe18 Fe46 2.352219 1_555
Fe18 Fe41 2.419048 1_655
Fe18 Fe2 2.509021 1_555
Fe18 Fe22 2.511396 1_555
Fe18 Fe26 2.511396 1_655
Fe18 Fe6 2.521394 1_555
Fe18 Fe34 2.599171 1_555
Fe18 Fe36 2.617025 1_655
Fe18 Y6 2.959069 1_555
Fe18 Y2 3.193808 1_655
Fe19 Fe47 2.352219 1_555
Fe19 Fe40 2.419048 1_556
Fe19 Fe5 2.460314 1_555
Fe19 Fe3 2.509021 1_555
Fe19 Fe21 2.511396 1_555
Fe19 Fe24 2.548089 1_455
Fe19 Fe35 2.599171 1_555
Fe19 Fe37 2.617025 1_555
Fe19 Y4 2.959069 1_556
Fe19 Y0 3.193808 1_556
Fe20 Fe48 2.352219 1_555
Fe20 Fe43 2.419048 1_565
Fe20 Fe4 2.509021 1_555
Fe20 Fe31 2.511396 1_565
Fe20 Fe29 2.511396 1_555
Fe20 Fe25 2.548089 1_565
Fe20 Fe36 2.599171 1_555
Fe20 Fe34 2.617025 1_555
Fe20 Y4 2.959069 1_555
Fe20 Y1 3.193808 1_555
Fe21 Fe49 2.352219 1_555
Fe21 Fe41 2.419048 1_555
Fe21 Fe8 2.460314 1_455
Fe21 Fe5 2.509021 1_555
Fe21 Fe24 2.511396 1_455
Fe21 Fe3 2.521394 1_555
Fe21 Fe37 2.599171 1_555
Fe21 Fe39 2.617025 1_455
Fe21 Y7 2.959069 1_555
Fe21 Y3 3.193808 1_455
Fe22 Fe50 2.352219 1_555
Fe22 Fe40 2.419048 1_655
Fe22 Fe6 2.509021 1_555
Fe22 Fe26 2.548089 1_655
Fe22 Fe38 2.599171 1_555
Fe22 Fe34 2.617025 1_555
Fe22 Y5 2.959069 1_555
Fe22 Y1 3.193808 1_555
Fe23 Fe51 2.352219 1_555
Fe23 Fe43 2.419048 1_556
Fe23 Fe7 2.509021 1_555
Fe23 Fe28 2.511396 1_555
Fe23 Fe30 2.511396 1_545
Fe23 Fe27 2.548089 1_545
Fe23 Fe39 2.599171 1_555
Fe23 Fe37 2.617025 1_555
Fe23 Y5 2.959069 1_556
Fe23 Y0 3.193808 1_556
Fe24 Fe51 2.352219 1_555
Fe24 Fe40 2.419048 1_656
Fe24 Fe8 2.509021 1_555
Fe24 Fe5 2.521394 1_655
Fe24 Fe39 2.599171 1_555
Fe24 Fe33 2.617025 1_555
Fe24 Y5 2.959069 1_556
Fe24 Y1 3.193808 1_556
Fe25 Fe50 2.352219 1_555
Fe25 Fe43 2.419048 1_555
Fe25 Fe9 2.509021 1_555
Fe25 Fe31 2.511396 1_555
Fe25 Fe29 2.511396 1_545
Fe25 Fe38 2.599171 1_555
Fe25 Fe32 2.617025 1_555
Fe25 Y5 2.959069 1_555
Fe25 Y0 3.193808 1_555
Fe26 Fe48 2.352219 1_555
Fe26 Fe40 2.419048 1_555
Fe26 Fe36 2.599171 1_555
Fe26 Fe32 2.617025 1_555
Fe26 Y4 2.959069 1_555
Fe26 Y0 3.193808 1_555
Fe27 Fe47 2.352219 1_555
Fe27 Fe43 2.419048 1_566
Fe27 Fe28 2.511396 1_565
Fe27 Fe30 2.511396 1_555
Fe27 Fe35 2.599171 1_555
Fe27 Fe33 2.617025 1_555
Fe27 Y4 2.959069 1_556
Fe27 Y1 3.193808 1_556
Fe28 Fe49 2.352219 1_555
Fe28 Fe42 2.419048 1_555
Fe28 Fe7 2.521394 1_555
Fe28 Fe30 2.548089 1_545
Fe28 Fe37 2.599171 1_555
Fe28 Fe35 2.617025 1_545
Fe28 Y7 2.959069 1_555
Fe28 Y2 3.193808 1_545
Fe29 Fe46 2.352219 1_555
Fe29 Fe42 2.419048 1_565
Fe29 Fe9 2.460314 1_565
Fe29 Fe4 2.521394 1_555
Fe29 Fe31 2.548089 1_565
Fe29 Fe34 2.599171 1_555
Fe29 Fe38 2.617025 1_565
Fe29 Y6 2.959069 1_555
Fe29 Y3 3.193808 1_565
Fe30 Fe45 2.352219 1_555
Fe30 Fe42 2.419048 1_565
Fe30 Fe7 2.460314 1_565
Fe30 Fe33 2.599171 1_555
Fe30 Fe39 2.617025 1_565
Fe30 Y6 2.959069 1_555
Fe30 Y3 3.193808 1_565
Fe31 Fe44 2.352219 1_555
Fe31 Fe42 2.419048 1_555
Fe31 Fe4 2.460314 1_545
Fe31 Fe9 2.521394 1_555
Fe31 Fe32 2.599171 1_555
Fe31 Fe36 2.617025 1_545
Fe31 Y7 2.959069 1_555
Fe31 Y2 3.193808 1_545
Fe32 Fe48 2.614737 1_555
Fe32 Fe50 2.614737 1_555
Fe32 Fe9 2.732495 1_555
Fe32 Fe44 2.750163 1_555
Fe32 Fe55 2.762545 1_555
Fe32 Y7 2.961285 1_555
Fe32 Y0 3.021766 1_555
Fe33 Fe51 2.614737 1_555
Fe33 Fe47 2.614737 1_555
Fe33 Fe8 2.732495 1_555
Fe33 Fe45 2.750163 1_555
Fe33 Fe54 2.762545 1_555
Fe33 Y6 2.961285 1_555
Fe33 Y1 3.021766 1_556
Fe34 Fe48 2.614737 1_555
Fe34 Fe50 2.614737 1_555
Fe34 Fe4 2.732495 1_555
Fe34 Fe6 2.732495 1_555
Fe34 Fe46 2.750163 1_555
Fe34 Fe55 2.762545 1_555
Fe34 Y6 2.961285 1_555
Fe34 Y1 3.021766 1_555
Fe35 Fe45 2.614737 1_455
Fe35 Fe49 2.614737 1_565
Fe35 Fe47 2.750163 1_555
Fe35 Fe53 2.762545 1_565
Fe35 Y4 2.961285 1_556
Fe35 Y2 3.021766 1_555
Fe36 Fe46 2.614737 1_455
Fe36 Fe44 2.614737 1_565
Fe36 Fe4 2.713199 1_555
Fe36 Fe48 2.750163 1_555
Fe36 Fe52 2.762545 1_565
Fe36 Y4 2.961285 1_555
Fe36 Y2 3.021766 1_555
Fe37 Fe51 2.614737 1_555
Fe37 Fe47 2.614737 1_555
Fe37 Fe5 2.713199 1_555
Fe37 Fe7 2.732495 1_555
Fe37 Fe49 2.750163 1_555
Fe37 Fe54 2.762545 1_555
Fe37 Y7 2.961285 1_555
Fe37 Y0 3.021766 1_556
Fe38 Fe44 2.614737 1_655
Fe38 Fe46 2.614737 1_545
Fe38 Fe9 2.713199 1_555
Fe38 Fe6 2.713199 1_555
Fe38 Fe50 2.750163 1_555
Fe38 Fe52 2.762545 1_655
Fe38 Y5 2.961285 1_555
Fe38 Y3 3.021766 1_555
Fe39 Fe45 2.614737 1_545
Fe39 Fe49 2.614737 1_655
Fe39 Fe8 2.713199 1_555
Fe39 Fe7 2.713199 1_555
Fe39 Fe5 2.732495 1_655
Fe39 Fe51 2.750163 1_555
Fe39 Fe53 2.762545 1_655
Fe39 Y5 2.961285 1_556
Fe39 Y3 3.021766 1_555
Fe40 Fe5 2.487116 1_554
Fe40 Y5 3.079558 1_455
Fe40 Y4 3.079558 1_555
Fe40 Y0 3.349323 1_555
Fe40 Y1 3.349323 1_455
Fe41 Fe8 2.487116 1_455
Fe41 Fe6 2.487116 1_455
Fe41 Y6 3.079558 1_455
Fe41 Y7 3.079558 1_555
Fe41 Y3 3.349323 1_455
Fe41 Y2 3.349323 1_555
Fe42 Fe9 2.487116 1_555
Fe42 Fe7 2.487116 1_555
Fe42 Y7 3.079558 1_555
Fe42 Y6 3.079558 1_545
Fe42 Y3 3.349323 1_555
Fe42 Y2 3.349323 1_545
Fe43 Y4 3.079558 1_545
Fe43 Y5 3.079558 1_555
Fe43 Y0 3.349323 1_555
Fe43 Y1 3.349323 1_545
Fe44 Fe46 2.402242 1_445
Fe44 Fe52 2.508664 1_555
Fe44 Y7 3.128500 1_555
Fe44 Y3 3.195361 1_455
Fe44 Y2 3.195361 1_545
Fe45 Fe49 2.402242 1_665
Fe45 Fe53 2.508664 1_665
Fe45 Y6 3.128500 1_555
Fe45 Y3 3.195361 1_565
Fe45 Y2 3.195361 1_655
Fe46 Fe52 2.508664 1_665
Fe46 Y6 3.128500 1_555
Fe46 Y2 3.195361 1_655
Fe46 Y3 3.195361 1_565
Fe47 Fe51 2.402242 1_555
Fe47 Fe54 2.508664 1_555
Fe47 Y4 3.128500 1_556
Fe47 Y1 3.195361 1_556
Fe47 Y0 3.195361 1_556
Fe48 Fe50 2.402242 1_555
Fe48 Fe55 2.508664 1_555
Fe48 Y4 3.128500 1_555
Fe48 Y1 3.195361 1_555
Fe48 Y0 3.195361 1_555
Fe49 Fe53 2.508664 1_555
Fe49 Fe5 2.583900 1_555
Fe49 Y7 3.128500 1_555
Fe49 Y3 3.195361 1_455
Fe49 Y2 3.195361 1_545
Fe50 Fe55 2.508664 1_555
Fe50 Fe9 2.583900 1_555
Fe50 Fe6 2.583900 1_555
Fe50 Y5 3.128500 1_555
Fe50 Y1 3.195361 1_555
Fe50 Y0 3.195361 1_555
Fe51 Fe54 2.508664 1_555
Fe51 Fe8 2.583900 1_555
Fe51 Fe7 2.583900 1_555
Fe51 Y5 3.128500 1_556
Fe51 Y1 3.195361 1_556
Fe51 Y0 3.195361 1_556
Fe52 Y4 3.193864 1_545
Fe52 Y5 3.193864 1_455
Fe53 Y4 3.193864 1_546
Fe53 Y5 3.193864 1_456
Fe54 Y6 3.193864 1_555
Fe54 Y7 3.193864 1_555
Fe55 Y6 3.193864 1_555
Fe55 Y7 3.193864 1_555
C0 Fe5 1.990130 1_554
C0 Fe12 1.990130 1_554
C0 Fe15 1.990130 1_555
C0 Fe0 1.990130 1_555
C0 Fe53 2.001506 1_554
C0 Fe52 2.001506 1_555
C0 Y0 2.855779 1_555
C1 Fe1 1.990130 1_554
C1 Fe14 1.990130 1_554
C1 Fe13 1.990130 1_555
C1 Fe2 1.990130 1_555
C1 Fe52 2.001506 1_665
C1 Fe53 2.001506 1_664
C1 Y1 2.855779 1_555
C2 Fe3 1.990130 1_555
C2 Fe10 1.990130 1_555
C2 Fe4 1.990130 1_555
C2 Fe11 1.990130 1_555
C2 Fe54 2.001506 1_555
C2 Fe55 2.001506 1_555
C2 Y2 2.855779 1_555
C3 Fe9 1.990130 1_555
C3 Fe7 1.990130 1_555
C3 Fe6 1.990130 1_555
C3 Fe8 1.990130 1_555
C3 Fe54 2.001506 1_555
C3 Fe55 2.001506 1_555
C3 Y3 2.855779 1_555
