# generated using pymatgen
data_CaCe(FeSb3)8
_symmetry_space_group_name_H-M   'P 1'
_cell_length_a   7.93824454
_cell_length_b   7.93824454
_cell_length_c   13.03127287
_cell_angle_alpha   90.05199550
_cell_angle_beta   89.94800450
_cell_angle_gamma   109.33001571
_symmetry_Int_Tables_number   1
_chemical_formula_structural   CaCe(FeSb3)8
_chemical_formula_sum   'Ca1 Ce1 Fe8 Sb24'
_cell_volume   774.88309466
_cell_formula_units_Z   1
loop_
 _symmetry_equiv_pos_site_id
 _symmetry_equiv_pos_as_xyz
  1  'x, y, z'
loop_
 _atom_site_type_symbol
 _atom_site_label
 _atom_site_symmetry_multiplicity
 _atom_site_fract_x
 _atom_site_fract_y
 _atom_site_fract_z
 _atom_site_occupancy
  Ca  Ca0  1  0.00000000  0.00000000  0.00000000  1
  Ce  Ce0  1  0.50000000  0.50000000  0.50000000  1
  Fe  Fe0  1  0.74941200  0.74930300  0.25143300  1
  Fe  Fe1  1  0.25058800  0.25069700  0.74856800  1
  Fe  Fe2  1  0.00000000  0.50000000  0.50000000  1
  Fe  Fe3  1  0.50000000  0.00000000  0.00000000  1
  Fe  Fe4  1  0.50000000  0.00000000  0.50000000  1
  Fe  Fe5  1  0.00000000  0.50000000  0.00000000  1
  Fe  Fe6  1  0.25069700  0.25058800  0.25143300  1
  Fe  Fe7  1  0.74930300  0.74941200  0.74856800  1
  Sb  Sb0  1  0.83056500  0.49534200  0.33270500  1
  Sb  Sb1  1  0.32854700  0.99516000  0.83312800  1
  Sb  Sb2  1  0.67145300  0.00484000  0.16687200  1
  Sb  Sb3  1  0.16943500  0.50465800  0.66729500  1
  Sb  Sb4  1  0.50465800  0.16943500  0.33270500  1
  Sb  Sb5  1  0.00484000  0.67145300  0.83312800  1
  Sb  Sb6  1  0.99516000  0.32854700  0.16687200  1
  Sb  Sb7  1  0.49534200  0.83056500  0.66729500  1
  Sb  Sb8  1  0.74656700  0.58504200  0.08146900  1
  Sb  Sb9  1  0.24805600  0.08438800  0.58177900  1
  Sb  Sb10  1  0.75194400  0.91561200  0.41822100  1
  Sb  Sb11  1  0.25343300  0.41495800  0.91853100  1
  Sb  Sb12  1  0.08438800  0.24805600  0.41822100  1
  Sb  Sb13  1  0.58504200  0.74656700  0.91853100  1
  Sb  Sb14  1  0.41495800  0.25343300  0.08146900  1
  Sb  Sb15  1  0.91561200  0.75194400  0.58177900  1
  Sb  Sb16  1  0.25124900  0.74875100  0.41409200  1
  Sb  Sb17  1  0.75219600  0.24780400  0.91415800  1
  Sb  Sb18  1  0.24780400  0.75219600  0.08584200  1
  Sb  Sb19  1  0.74875100  0.25124900  0.58590800  1
  Sb  Sb20  1  0.41392100  0.58607900  0.25128700  1
  Sb  Sb21  1  0.91411100  0.08588900  0.75229100  1
  Sb  Sb22  1  0.08588900  0.91411100  0.24770900  1
  Sb  Sb23  1  0.58607900  0.41392100  0.74871300  1
loop_
_geom_bond_atom_site_label_1
_geom_bond_atom_site_label_2
_geom_bond_distance
_geom_bond_site_symmetry_2
Ca0 Sb17 3.400037 1_454
Ca0 Sb18 3.400037 1_545
Ca0 Sb6 3.404140 1_455
Ca0 Sb2 3.404140 1_455
Ca0 Sb1 3.404140 1_544
Ca0 Sb5 3.404140 1_544
Ca0 Sb11 3.411811 1_554
Ca0 Sb14 3.411811 1_555
Ca0 Sb8 3.411811 1_445
Ca0 Sb13 3.411811 1_444
Ca0 Sb21 3.415437 1_454
Ca0 Sb22 3.415437 1_545
Ce0 Sb19 3.411905 1_555
Ce0 Sb16 3.411905 1_555
Ce0 Sb12 3.413913 1_555
Ce0 Sb9 3.413913 1_555
Ce0 Sb15 3.413913 1_555
Ce0 Sb10 3.413913 1_555
Ce0 Sb7 3.419605 1_555
Ce0 Sb3 3.419605 1_555
Ce0 Sb4 3.419605 1_555
Ce0 Sb0 3.419605 1_555
Ce0 Sb23 3.428611 1_555
Ce0 Sb20 3.428611 1_555
Fe0 Sb10 2.538615 1_555
Fe0 Sb0 2.542799 1_555
Fe0 Sb20 2.546979 1_555
Fe0 Sb22 2.556341 1_655
Fe0 Sb2 2.559002 1_565
Fe0 Sb8 2.565479 1_555
Fe1 Sb9 2.538627 1_555
Fe1 Sb3 2.542805 1_555
Fe1 Sb23 2.546979 1_555
Fe1 Sb21 2.556340 1_455
Fe1 Sb1 2.558996 1_545
Fe1 Sb11 2.565468 1_555
Fe2 Sb15 2.542874 1_455
Fe2 Sb12 2.542874 1_555
Fe2 Sb19 2.554036 1_455
Fe2 Sb16 2.554036 1_555
Fe2 Sb3 2.556439 1_555
Fe2 Sb0 2.556439 1_455
Fe3 Sb17 2.553761 1_554
Fe3 Sb18 2.553761 1_545
Fe3 Sb13 2.554243 1_544
Fe3 Sb14 2.554243 1_555
Fe3 Sb2 2.559919 1_555
Fe3 Sb1 2.559919 1_544
Fe4 Sb10 2.542874 1_545
Fe4 Sb9 2.542874 1_555
Fe4 Sb16 2.554036 1_545
Fe4 Sb19 2.554036 1_555
Fe4 Sb4 2.556439 1_555
Fe4 Sb7 2.556439 1_545
Fe5 Sb18 2.553761 1_555
Fe5 Sb17 2.553761 1_454
Fe5 Sb8 2.554243 1_455
Fe5 Sb11 2.554243 1_554
Fe5 Sb6 2.559919 1_455
Fe5 Sb5 2.559919 1_554
Fe6 Sb12 2.538615 1_555
Fe6 Sb4 2.542799 1_555
Fe6 Sb20 2.546979 1_555
Fe6 Sb22 2.556341 1_545
Fe6 Sb6 2.559002 1_455
Fe6 Sb14 2.565479 1_555
Fe7 Sb15 2.538627 1_555
Fe7 Sb7 2.542805 1_555
Fe7 Sb23 2.546979 1_555
Fe7 Sb21 2.556340 1_565
Fe7 Sb5 2.558996 1_655
Fe7 Sb13 2.565468 1_555
Sb0 Sb6 3.043894 1_555
Sb1 Sb5 2.972362 1_555
Sb1 Sb7 3.043894 1_555
Sb2 Sb6 2.972362 1_555
Sb2 Sb4 3.043894 1_555
Sb3 Sb5 3.043894 1_555
Sb11 Sb14 2.982426 1_556
Sb11 Sb13 3.044921 1_555
Sb13 Sb8 2.982426 1_556
Sb14 Sb8 3.044921 1_555
Sb16 Sb20 2.988321 1_555
Sb16 Sb22 3.049305 1_555
Sb17 Sb21 2.972748 1_555
Sb17 Sb23 3.047538 1_555
Sb18 Sb22 2.972748 1_555
Sb18 Sb20 3.047538 1_555
Sb19 Sb23 2.988321 1_555
Sb19 Sb21 3.049305 1_555
