# generated using pymatgen
data_Ti8Al4CN3
_symmetry_space_group_name_H-M   'P 1'
_cell_length_a   6.03406338
_cell_length_b   6.03406338
_cell_length_c   54.62346400
_cell_angle_alpha   90.00000000
_cell_angle_beta   90.00000000
_cell_angle_gamma   119.99999324
_symmetry_Int_Tables_number   1
_chemical_formula_structural   Ti8Al4CN3
_chemical_formula_sum   'Ti64 Al32 C8 N24'
_cell_volume   1722.38262103
_cell_formula_units_Z   8
loop_
 _symmetry_equiv_pos_site_id
 _symmetry_equiv_pos_as_xyz
  1  'x, y, z'
loop_
 _atom_site_type_symbol
 _atom_site_label
 _atom_site_symmetry_multiplicity
 _atom_site_fract_x
 _atom_site_fract_y
 _atom_site_fract_z
 _atom_site_occupancy
  Ti  Ti0_0  1  0.33333350  0.16666650  0.22870550  1
  Ti  Ti0_1  1  0.33333350  0.16666650  0.72870550  1
  Ti  Ti0_2  1  0.33333350  0.66666650  0.22870550  1
  Ti  Ti0_3  1  0.33333350  0.66666650  0.72870550  1
  Ti  Ti0_4  1  0.83333350  0.16666650  0.22870550  1
  Ti  Ti0_5  1  0.83333350  0.16666650  0.72870550  1
  Ti  Ti0_6  1  0.83333350  0.66666650  0.22870550  1
  Ti  Ti0_7  1  0.83333350  0.66666650  0.72870550  1
  Ti  Ti1_0  1  0.33333350  0.16666650  0.47876200  1
  Ti  Ti1_1  1  0.33333350  0.16666650  0.97876200  1
  Ti  Ti1_2  1  0.33333350  0.66666650  0.47876200  1
  Ti  Ti1_3  1  0.33333350  0.66666650  0.97876200  1
  Ti  Ti1_4  1  0.83333350  0.16666650  0.47876200  1
  Ti  Ti1_5  1  0.83333350  0.16666650  0.97876200  1
  Ti  Ti1_6  1  0.83333350  0.66666650  0.47876200  1
  Ti  Ti1_7  1  0.83333350  0.66666650  0.97876200  1
  Ti  Ti2_0  1  0.16666650  0.33333350  0.27129450  1
  Ti  Ti2_1  1  0.16666650  0.33333350  0.77129450  1
  Ti  Ti2_2  1  0.16666650  0.83333350  0.27129450  1
  Ti  Ti2_3  1  0.16666650  0.83333350  0.77129450  1
  Ti  Ti2_4  1  0.66666650  0.33333350  0.27129450  1
  Ti  Ti2_5  1  0.66666650  0.33333350  0.77129450  1
  Ti  Ti2_6  1  0.66666650  0.83333350  0.27129450  1
  Ti  Ti2_7  1  0.66666650  0.83333350  0.77129450  1
  Ti  Ti3_0  1  0.16666650  0.33333350  0.02123800  1
  Ti  Ti3_1  1  0.16666650  0.33333350  0.52123800  1
  Ti  Ti3_2  1  0.16666650  0.83333350  0.02123800  1
  Ti  Ti3_3  1  0.16666650  0.83333350  0.52123800  1
  Ti  Ti3_4  1  0.66666650  0.33333350  0.02123800  1
  Ti  Ti3_5  1  0.66666650  0.33333350  0.52123800  1
  Ti  Ti3_6  1  0.66666650  0.83333350  0.02123800  1
  Ti  Ti3_7  1  0.66666650  0.83333350  0.52123800  1
  Ti  Ti4_0  1  0.16666650  0.33333350  0.35401150  1
  Ti  Ti4_1  1  0.16666650  0.33333350  0.85401150  1
  Ti  Ti4_2  1  0.16666650  0.83333350  0.35401150  1
  Ti  Ti4_3  1  0.16666650  0.83333350  0.85401150  1
  Ti  Ti4_4  1  0.66666650  0.33333350  0.35401150  1
  Ti  Ti4_5  1  0.66666650  0.33333350  0.85401150  1
  Ti  Ti4_6  1  0.66666650  0.83333350  0.35401150  1
  Ti  Ti4_7  1  0.66666650  0.83333350  0.85401150  1
  Ti  Ti5_0  1  0.16666650  0.33333350  0.10371500  1
  Ti  Ti5_1  1  0.16666650  0.33333350  0.60371500  1
  Ti  Ti5_2  1  0.16666650  0.83333350  0.10371500  1
  Ti  Ti5_3  1  0.16666650  0.83333350  0.60371500  1
  Ti  Ti5_4  1  0.66666650  0.33333350  0.10371500  1
  Ti  Ti5_5  1  0.66666650  0.33333350  0.60371500  1
  Ti  Ti5_6  1  0.66666650  0.83333350  0.10371500  1
  Ti  Ti5_7  1  0.66666650  0.83333350  0.60371500  1
  Ti  Ti6_0  1  0.33333350  0.16666650  0.14598850  1
  Ti  Ti6_1  1  0.33333350  0.16666650  0.64598850  1
  Ti  Ti6_2  1  0.33333350  0.66666650  0.14598850  1
  Ti  Ti6_3  1  0.33333350  0.66666650  0.64598850  1
  Ti  Ti6_4  1  0.83333350  0.16666650  0.14598850  1
  Ti  Ti6_5  1  0.83333350  0.16666650  0.64598850  1
  Ti  Ti6_6  1  0.83333350  0.66666650  0.14598850  1
  Ti  Ti6_7  1  0.83333350  0.66666650  0.64598850  1
  Ti  Ti7_0  1  0.33333350  0.16666650  0.39628500  1
  Ti  Ti7_1  1  0.33333350  0.16666650  0.89628500  1
  Ti  Ti7_2  1  0.33333350  0.66666650  0.39628500  1
  Ti  Ti7_3  1  0.33333350  0.66666650  0.89628500  1
  Ti  Ti7_4  1  0.83333350  0.16666650  0.39628500  1
  Ti  Ti7_5  1  0.83333350  0.16666650  0.89628500  1
  Ti  Ti7_6  1  0.83333350  0.66666650  0.39628500  1
  Ti  Ti7_7  1  0.83333350  0.66666650  0.89628500  1
  Al  Al0_0  1  0.33333350  0.16666650  0.31285050  1
  Al  Al0_1  1  0.33333350  0.16666650  0.81285050  1
  Al  Al0_2  1  0.33333350  0.66666650  0.31285050  1
  Al  Al0_3  1  0.33333350  0.66666650  0.81285050  1
  Al  Al0_4  1  0.83333350  0.16666650  0.31285050  1
  Al  Al0_5  1  0.83333350  0.16666650  0.81285050  1
  Al  Al0_6  1  0.83333350  0.66666650  0.31285050  1
  Al  Al0_7  1  0.83333350  0.66666650  0.81285050  1
  Al  Al1_0  1  0.33333350  0.16666650  0.06248350  1
  Al  Al1_1  1  0.33333350  0.16666650  0.56248350  1
  Al  Al1_2  1  0.33333350  0.66666650  0.06248350  1
  Al  Al1_3  1  0.33333350  0.66666650  0.56248350  1
  Al  Al1_4  1  0.83333350  0.16666650  0.06248350  1
  Al  Al1_5  1  0.83333350  0.16666650  0.56248350  1
  Al  Al1_6  1  0.83333350  0.66666650  0.06248350  1
  Al  Al1_7  1  0.83333350  0.66666650  0.56248350  1
  Al  Al2_0  1  0.16666650  0.33333350  0.18714950  1
  Al  Al2_1  1  0.16666650  0.33333350  0.68714950  1
  Al  Al2_2  1  0.16666650  0.83333350  0.18714950  1
  Al  Al2_3  1  0.16666650  0.83333350  0.68714950  1
  Al  Al2_4  1  0.66666650  0.33333350  0.18714950  1
  Al  Al2_5  1  0.66666650  0.33333350  0.68714950  1
  Al  Al2_6  1  0.66666650  0.83333350  0.18714950  1
  Al  Al2_7  1  0.66666650  0.83333350  0.68714950  1
  Al  Al3_0  1  0.16666650  0.33333350  0.43751650  1
  Al  Al3_1  1  0.16666650  0.33333350  0.93751650  1
  Al  Al3_2  1  0.16666650  0.83333350  0.43751650  1
  Al  Al3_3  1  0.16666650  0.83333350  0.93751650  1
  Al  Al3_4  1  0.66666650  0.33333350  0.43751650  1
  Al  Al3_5  1  0.66666650  0.33333350  0.93751650  1
  Al  Al3_6  1  0.66666650  0.83333350  0.43751650  1
  Al  Al3_7  1  0.66666650  0.83333350  0.93751650  1
  C  C0_0  1  0.00000000  0.00000000  0.25000000  1
  C  C0_1  1  0.00000000  0.00000000  0.75000000  1
  C  C0_2  1  0.00000000  0.50000000  0.25000000  1
  C  C0_3  1  0.00000000  0.50000000  0.75000000  1
  C  C0_4  1  0.50000000  0.00000000  0.25000000  1
  C  C0_5  1  0.50000000  0.00000000  0.75000000  1
  C  C0_6  1  0.50000000  0.50000000  0.25000000  1
  C  C0_7  1  0.50000000  0.50000000  0.75000000  1
  N  N0_0  1  0.00000000  0.00000000  0.00000000  1
  N  N0_1  1  0.00000000  0.00000000  0.50000000  1
  N  N0_2  1  0.00000000  0.50000000  0.00000000  1
  N  N0_3  1  0.00000000  0.50000000  0.50000000  1
  N  N0_4  1  0.50000000  0.00000000  0.00000000  1
  N  N0_5  1  0.50000000  0.00000000  0.50000000  1
  N  N0_6  1  0.50000000  0.50000000  0.00000000  1
  N  N0_7  1  0.50000000  0.50000000  0.50000000  1
  N  N1_0  1  0.00000000  0.00000000  0.37498800  1
  N  N1_1  1  0.00000000  0.00000000  0.87498800  1
  N  N1_2  1  0.00000000  0.50000000  0.37498800  1
  N  N1_3  1  0.00000000  0.50000000  0.87498800  1
  N  N1_4  1  0.50000000  0.00000000  0.37498800  1
  N  N1_5  1  0.50000000  0.00000000  0.87498800  1
  N  N1_6  1  0.50000000  0.50000000  0.37498800  1
  N  N1_7  1  0.50000000  0.50000000  0.87498800  1
  N  N2_0  1  0.00000000  0.00000000  0.12501200  1
  N  N2_1  1  0.00000000  0.00000000  0.62501200  1
  N  N2_2  1  0.00000000  0.50000000  0.12501200  1
  N  N2_3  1  0.00000000  0.50000000  0.62501200  1
  N  N2_4  1  0.50000000  0.00000000  0.12501200  1
  N  N2_5  1  0.50000000  0.00000000  0.62501200  1
  N  N2_6  1  0.50000000  0.50000000  0.12501200  1
  N  N2_7  1  0.50000000  0.50000000  0.62501200  1
loop_
_geom_bond_atom_site_label_1
_geom_bond_atom_site_label_2
_geom_bond_distance
_geom_bond_site_symmetry_2
Al0_0 Ti4_4 2.844163 1_555
Al0_0 Ti4_2 2.844163 1_545
Al0_0 Ti4_0 2.844166 1_555
Al0_0 Ti2_4 2.861250 1_555
Al0_0 Ti2_2 2.861250 1_545
Al0_0 Ti2_0 2.861253 1_555
Al0_0 Al0_4 3.017032 1_555
Al0_0 Al0_2 3.017032 1_555
Al0_0 Al0_4 3.017032 1_455
Al0_0 Al0_2 3.017032 1_545
Al0_0 Al0_6 3.017032 1_555
Al0_0 Al0_6 3.017032 1_445
Al0_1 Ti4_5 2.844163 1_555
Al0_1 Ti4_3 2.844163 1_545
Al0_1 Ti4_1 2.844166 1_555
Al0_1 Ti2_5 2.861250 1_555
Al0_1 Ti2_3 2.861250 1_545
Al0_1 Ti2_1 2.861253 1_555
Al0_1 Al0_5 3.017032 1_555
Al0_1 Al0_5 3.017032 1_455
Al0_1 Al0_3 3.017032 1_545
Al0_1 Al0_3 3.017032 1_555
Al0_1 Al0_7 3.017032 1_555
Al0_1 Al0_7 3.017032 1_445
Al0_2 Ti4_0 2.844163 1_555
Al0_2 Ti4_6 2.844163 1_555
Al0_2 Ti4_2 2.844166 1_555
Al0_2 Ti2_6 2.861250 1_555
Al0_2 Ti2_0 2.861250 1_555
Al0_2 Ti2_2 2.861253 1_555
Al0_2 Al0_6 3.017032 1_555
Al0_2 Al0_6 3.017032 1_455
Al0_2 Al0_4 3.017032 1_565
Al0_2 Al0_4 3.017032 1_455
Al0_3 Ti4_1 2.844163 1_555
Al0_3 Ti4_7 2.844163 1_555
Al0_3 Ti4_3 2.844166 1_555
Al0_3 Ti2_1 2.861250 1_555
Al0_3 Ti2_7 2.861250 1_555
Al0_3 Ti2_3 2.861253 1_555
Al0_3 Al0_7 3.017032 1_555
Al0_3 Al0_7 3.017032 1_455
Al0_3 Al0_5 3.017032 1_455
Al0_3 Al0_5 3.017032 1_565
Al0_4 Ti4_6 2.844163 1_545
Al0_4 Ti4_0 2.844163 1_655
Al0_4 Ti4_4 2.844166 1_555
Al0_4 Ti2_0 2.861250 1_655
Al0_4 Ti2_6 2.861250 1_545
Al0_4 Ti2_4 2.861253 1_555
Al0_4 Al0_6 3.017032 1_545
Al0_4 Al0_6 3.017032 1_555
Al0_5 Ti4_7 2.844163 1_545
Al0_5 Ti4_1 2.844163 1_655
Al0_5 Ti4_5 2.844166 1_555
Al0_5 Ti2_1 2.861250 1_655
Al0_5 Ti2_7 2.861250 1_545
Al0_5 Ti2_5 2.861253 1_555
Al0_5 Al0_7 3.017032 1_545
Al0_5 Al0_7 3.017032 1_555
Al0_6 Ti4_2 2.844163 1_655
Al0_6 Ti4_4 2.844163 1_555
Al0_6 Ti4_6 2.844166 1_555
Al0_6 Ti2_2 2.861250 1_655
Al0_6 Ti2_4 2.861250 1_555
Al0_6 Ti2_6 2.861253 1_555
Al0_7 Ti4_5 2.844163 1_555
Al0_7 Ti4_3 2.844163 1_655
Al0_7 Ti4_7 2.844166 1_555
Al0_7 Ti2_5 2.861250 1_555
Al0_7 Ti2_3 2.861250 1_655
Al0_7 Ti2_7 2.861253 1_555
Al1_0 Ti5_2 2.847208 1_545
Al1_0 Ti5_4 2.847208 1_555
Al1_0 Ti5_0 2.847211 1_555
Al1_0 Ti3_4 2.847813 1_555
Al1_0 Ti3_2 2.847813 1_545
Al1_0 Ti3_0 2.847816 1_555
Al1_0 Al1_4 3.017032 1_555
Al1_0 Al1_4 3.017032 1_455
Al1_0 Al1_2 3.017032 1_545
Al1_0 Al1_2 3.017032 1_555
Al1_0 Al1_6 3.017032 1_555
Al1_0 Al1_6 3.017032 1_445
Al1_1 Ti5_5 2.847208 1_555
Al1_1 Ti5_3 2.847208 1_545
Al1_1 Ti5_1 2.847211 1_555
Al1_1 Ti3_5 2.847813 1_555
Al1_1 Ti3_3 2.847813 1_545
Al1_1 Ti3_1 2.847816 1_555
Al1_1 Al1_5 3.017032 1_555
Al1_1 Al1_3 3.017032 1_555
Al1_1 Al1_5 3.017032 1_455
Al1_1 Al1_3 3.017032 1_545
Al1_1 Al1_7 3.017032 1_555
Al1_1 Al1_7 3.017032 1_445
Al1_2 Ti5_0 2.847208 1_555
Al1_2 Ti5_6 2.847208 1_555
Al1_2 Ti5_2 2.847211 1_555
Al1_2 Ti3_0 2.847813 1_555
Al1_2 Ti3_6 2.847813 1_555
Al1_2 Ti3_2 2.847816 1_555
Al1_2 Al1_6 3.017032 1_555
Al1_2 Al1_6 3.017032 1_455
Al1_2 Al1_4 3.017032 1_455
Al1_2 Al1_4 3.017032 1_565
Al1_3 Ti5_1 2.847208 1_555
Al1_3 Ti5_7 2.847208 1_555
Al1_3 Ti5_3 2.847211 1_555
Al1_3 Ti3_1 2.847813 1_555
Al1_3 Ti3_7 2.847813 1_555
Al1_3 Ti3_3 2.847816 1_555
Al1_3 Al1_7 3.017032 1_555
Al1_3 Al1_7 3.017032 1_455
Al1_3 Al1_5 3.017032 1_565
Al1_3 Al1_5 3.017032 1_455
Al1_4 Ti5_0 2.847208 1_655
Al1_4 Ti5_6 2.847208 1_545
Al1_4 Ti5_4 2.847211 1_555
Al1_4 Ti3_0 2.847813 1_655
Al1_4 Ti3_6 2.847813 1_545
Al1_4 Ti3_4 2.847816 1_555
Al1_4 Al1_6 3.017032 1_555
Al1_4 Al1_6 3.017032 1_545
Al1_5 Ti5_7 2.847208 1_545
Al1_5 Ti5_1 2.847208 1_655
Al1_5 Ti5_5 2.847211 1_555
Al1_5 Ti3_7 2.847813 1_545
Al1_5 Ti3_1 2.847813 1_655
Al1_5 Ti3_5 2.847816 1_555
Al1_5 Al1_7 3.017032 1_555
Al1_5 Al1_7 3.017032 1_545
Al1_6 Ti5_4 2.847208 1_555
Al1_6 Ti5_2 2.847208 1_655
Al1_6 Ti5_6 2.847211 1_555
Al1_6 Ti3_4 2.847813 1_555
Al1_6 Ti3_2 2.847813 1_655
Al1_6 Ti3_6 2.847816 1_555
Al1_7 Ti5_5 2.847208 1_555
Al1_7 Ti5_3 2.847208 1_655
Al1_7 Ti5_7 2.847211 1_555
Al1_7 Ti3_5 2.847813 1_555
Al1_7 Ti3_3 2.847813 1_655
Al1_7 Ti3_7 2.847816 1_555
Al2_0 Ti6_2 2.844163 1_555
Al2_0 Ti6_4 2.844163 1_455
Al2_0 Ti6_0 2.844166 1_555
Al2_0 Ti0_2 2.861250 1_555
Al2_0 Ti0_4 2.861250 1_455
Al2_0 Ti0_0 2.861253 1_555
Al2_0 Al2_4 3.017032 1_555
Al2_0 Al2_2 3.017032 1_555
Al2_0 Al2_2 3.017032 1_545
Al2_0 Al2_4 3.017032 1_455
Al2_0 Al2_6 3.017032 1_555
Al2_0 Al2_6 3.017032 1_445
Al2_1 Ti6_5 2.844163 1_455
Al2_1 Ti6_3 2.844163 1_555
Al2_1 Ti6_1 2.844166 1_555
Al2_1 Ti0_5 2.861250 1_455
Al2_1 Ti0_3 2.861250 1_555
Al2_1 Ti0_1 2.861253 1_555
Al2_1 Al2_5 3.017032 1_555
Al2_1 Al2_3 3.017032 1_545
Al2_1 Al2_3 3.017032 1_555
Al2_1 Al2_5 3.017032 1_455
Al2_1 Al2_7 3.017032 1_555
Al2_1 Al2_7 3.017032 1_445
Al2_2 Ti6_0 2.844163 1_565
Al2_2 Ti6_6 2.844163 1_455
Al2_2 Ti6_2 2.844166 1_555
Al2_2 Ti0_0 2.861250 1_565
Al2_2 Ti0_6 2.861250 1_455
Al2_2 Ti0_2 2.861253 1_555
Al2_2 Al2_6 3.017032 1_455
Al2_2 Al2_6 3.017032 1_555
Al2_2 Al2_4 3.017032 1_565
Al2_2 Al2_4 3.017032 1_455
Al2_3 Ti6_1 2.844163 1_565
Al2_3 Ti6_7 2.844163 1_455
Al2_3 Ti6_3 2.844166 1_555
Al2_3 Ti0_1 2.861250 1_565
Al2_3 Ti0_7 2.861250 1_455
Al2_3 Ti0_3 2.861253 1_555
Al2_3 Al2_7 3.017032 1_455
Al2_3 Al2_7 3.017032 1_555
Al2_3 Al2_5 3.017032 1_565
Al2_3 Al2_5 3.017032 1_455
Al2_4 Ti6_0 2.844163 1_555
Al2_4 Ti6_6 2.844163 1_555
Al2_4 Ti6_4 2.844166 1_555
Al2_4 Ti0_6 2.861250 1_555
Al2_4 Ti0_0 2.861250 1_555
Al2_4 Ti0_4 2.861253 1_555
Al2_4 Al2_6 3.017032 1_555
Al2_4 Al2_6 3.017032 1_545
Al2_5 Ti6_1 2.844163 1_555
Al2_5 Ti6_7 2.844163 1_555
Al2_5 Ti6_5 2.844166 1_555
Al2_5 Ti0_1 2.861250 1_555
Al2_5 Ti0_7 2.861250 1_555
Al2_5 Ti0_5 2.861253 1_555
Al2_5 Al2_7 3.017032 1_555
Al2_5 Al2_7 3.017032 1_545
Al2_6 Ti6_2 2.844163 1_555
Al2_6 Ti6_4 2.844163 1_565
Al2_6 Ti6_6 2.844166 1_555
Al2_6 Ti0_2 2.861250 1_555
Al2_6 Ti0_4 2.861250 1_565
Al2_6 Ti0_6 2.861253 1_555
Al2_7 Ti6_3 2.844163 1_555
Al2_7 Ti6_5 2.844163 1_565
Al2_7 Ti6_7 2.844166 1_555
Al2_7 Ti0_3 2.861250 1_555
Al2_7 Ti0_5 2.861250 1_565
Al2_7 Ti0_7 2.861253 1_555
Al3_0 Ti7_2 2.847208 1_555
Al3_0 Ti7_4 2.847208 1_455
Al3_0 Ti7_0 2.847211 1_555
Al3_0 Ti1_2 2.847813 1_555
Al3_0 Ti1_4 2.847813 1_455
Al3_0 Ti1_0 2.847816 1_555
Al3_0 Al3_4 3.017032 1_555
Al3_0 Al3_2 3.017032 1_545
Al3_0 Al3_2 3.017032 1_555
Al3_0 Al3_4 3.017032 1_455
Al3_0 Al3_6 3.017032 1_555
Al3_0 Al3_6 3.017032 1_445
Al3_1 Ti7_3 2.847208 1_555
Al3_1 Ti7_5 2.847208 1_455
Al3_1 Ti7_1 2.847211 1_555
Al3_1 Ti1_3 2.847813 1_555
Al3_1 Ti1_5 2.847813 1_455
Al3_1 Ti1_1 2.847816 1_555
Al3_1 Al3_5 3.017032 1_555
Al3_1 Al3_3 3.017032 1_555
Al3_1 Al3_3 3.017032 1_545
Al3_1 Al3_5 3.017032 1_455
Al3_1 Al3_7 3.017032 1_555
Al3_1 Al3_7 3.017032 1_445
Al3_2 Ti7_6 2.847208 1_455
Al3_2 Ti7_0 2.847208 1_565
Al3_2 Ti7_2 2.847211 1_555
Al3_2 Ti1_6 2.847813 1_455
Al3_2 Ti1_0 2.847813 1_565
Al3_2 Ti1_2 2.847816 1_555
Al3_2 Al3_6 3.017032 1_455
Al3_2 Al3_6 3.017032 1_555
Al3_2 Al3_4 3.017032 1_565
Al3_2 Al3_4 3.017032 1_455
Al3_3 Ti7_1 2.847208 1_565
Al3_3 Ti7_7 2.847208 1_455
Al3_3 Ti7_3 2.847211 1_555
Al3_3 Ti1_1 2.847813 1_565
Al3_3 Ti1_7 2.847813 1_455
Al3_3 Ti1_3 2.847816 1_555
Al3_3 Al3_7 3.017032 1_455
Al3_3 Al3_7 3.017032 1_555
Al3_3 Al3_5 3.017032 1_565
Al3_3 Al3_5 3.017032 1_455
Al3_4 Ti7_0 2.847208 1_555
Al3_4 Ti7_6 2.847208 1_555
Al3_4 Ti7_4 2.847211 1_555
Al3_4 Ti1_0 2.847813 1_555
Al3_4 Ti1_6 2.847813 1_555
Al3_4 Ti1_4 2.847816 1_555
Al3_4 Al3_6 3.017032 1_555
Al3_4 Al3_6 3.017032 1_545
Al3_5 Ti7_1 2.847208 1_555
Al3_5 Ti7_7 2.847208 1_555
Al3_5 Ti7_5 2.847211 1_555
Al3_5 Ti1_1 2.847813 1_555
Al3_5 Ti1_7 2.847813 1_555
Al3_5 Ti1_5 2.847816 1_555
Al3_5 Al3_7 3.017032 1_555
Al3_5 Al3_7 3.017032 1_545
Al3_6 Ti7_2 2.847208 1_555
Al3_6 Ti7_4 2.847208 1_565
Al3_6 Ti7_6 2.847211 1_555
Al3_6 Ti1_2 2.847813 1_555
Al3_6 Ti1_4 2.847813 1_565
Al3_6 Ti1_6 2.847816 1_555
Al3_7 Ti7_3 2.847208 1_555
Al3_7 Ti7_5 2.847208 1_565
Al3_7 Ti7_7 2.847211 1_555
Al3_7 Ti1_3 2.847813 1_555
Al3_7 Ti1_5 2.847813 1_565
Al3_7 Ti1_7 2.847816 1_555
C0_0 Ti2_2 2.094550 1_545
C0_0 Ti0_4 2.094550 1_455
C0_0 Ti2_6 2.094552 1_445
C0_0 Ti2_0 2.094552 1_555
C0_0 Ti0_0 2.094552 1_555
C0_0 Ti0_6 2.094552 1_445
C0_1 Ti2_3 2.094550 1_545
C0_1 Ti0_5 2.094550 1_455
C0_1 Ti2_7 2.094552 1_445
C0_1 Ti2_1 2.094552 1_555
C0_1 Ti0_1 2.094552 1_555
C0_1 Ti0_7 2.094552 1_445
C0_2 Ti2_0 2.094550 1_555
C0_2 Ti0_6 2.094550 1_455
C0_2 Ti2_2 2.094552 1_555
C0_2 Ti2_4 2.094552 1_455
C0_2 Ti0_4 2.094552 1_455
C0_2 Ti0_2 2.094552 1_555
C0_3 Ti2_1 2.094550 1_555
C0_3 Ti0_7 2.094550 1_455
C0_3 Ti2_3 2.094552 1_555
C0_3 Ti2_5 2.094552 1_455
C0_3 Ti0_3 2.094552 1_555
C0_3 Ti0_5 2.094552 1_455
C0_4 Ti2_6 2.094550 1_545
C0_4 Ti0_0 2.094550 1_555
C0_4 Ti2_2 2.094552 1_545
C0_4 Ti2_4 2.094552 1_555
C0_4 Ti0_4 2.094552 1_555
C0_4 Ti0_2 2.094552 1_545
C0_5 Ti2_7 2.094550 1_545
C0_5 Ti0_1 2.094550 1_555
C0_5 Ti2_3 2.094552 1_545
C0_5 Ti2_5 2.094552 1_555
C0_5 Ti0_5 2.094552 1_555
C0_5 Ti0_3 2.094552 1_545
C0_6 Ti2_4 2.094550 1_555
C0_6 Ti0_2 2.094550 1_555
C0_6 Ti2_6 2.094552 1_555
C0_6 Ti2_0 2.094552 1_555
C0_6 Ti0_0 2.094552 1_555
C0_6 Ti0_6 2.094552 1_555
C0_7 Ti2_5 2.094550 1_555
C0_7 Ti0_3 2.094550 1_555
C0_7 Ti2_7 2.094552 1_555
C0_7 Ti2_1 2.094552 1_555
C0_7 Ti0_1 2.094552 1_555
C0_7 Ti0_7 2.094552 1_555
N0_0 Ti3_2 2.092838 1_545
N0_0 Ti1_5 2.092838 1_454
N0_0 Ti3_6 2.092840 1_445
N0_0 Ti3_0 2.092840 1_555
N0_0 Ti1_1 2.092840 1_554
N0_0 Ti1_7 2.092840 1_444
N0_1 Ti3_3 2.092838 1_545
N0_1 Ti1_4 2.092838 1_455
N0_1 Ti3_7 2.092840 1_445
N0_1 Ti3_1 2.092840 1_555
N0_1 Ti1_0 2.092840 1_555
N0_1 Ti1_6 2.092840 1_445
N0_2 Ti3_0 2.092838 1_555
N0_2 Ti1_7 2.092838 1_454
N0_2 Ti3_2 2.092840 1_555
N0_2 Ti3_4 2.092840 1_455
N0_2 Ti1_3 2.092840 1_554
N0_2 Ti1_5 2.092840 1_454
N0_3 Ti3_1 2.092838 1_555
N0_3 Ti1_6 2.092838 1_455
N0_3 Ti3_3 2.092840 1_555
N0_3 Ti3_5 2.092840 1_455
N0_3 Ti1_2 2.092840 1_555
N0_3 Ti1_4 2.092840 1_455
N0_4 Ti3_6 2.092838 1_545
N0_4 Ti1_1 2.092838 1_554
N0_4 Ti3_2 2.092840 1_545
N0_4 Ti3_4 2.092840 1_555
N0_4 Ti1_3 2.092840 1_544
N0_4 Ti1_5 2.092840 1_554
N0_5 Ti3_7 2.092838 1_545
N0_5 Ti1_0 2.092838 1_555
N0_5 Ti3_5 2.092840 1_555
N0_5 Ti3_3 2.092840 1_545
N0_5 Ti1_4 2.092840 1_555
N0_5 Ti1_2 2.092840 1_545
N0_6 Ti3_4 2.092838 1_555
N0_6 Ti1_3 2.092838 1_554
N0_6 Ti3_6 2.092840 1_555
N0_6 Ti3_0 2.092840 1_555
N0_6 Ti1_7 2.092840 1_554
N0_6 Ti1_1 2.092840 1_554
N0_7 Ti3_5 2.092838 1_555
N0_7 Ti1_2 2.092838 1_555
N0_7 Ti3_7 2.092840 1_555
N0_7 Ti3_1 2.092840 1_555
N0_7 Ti1_0 2.092840 1_555
N0_7 Ti1_6 2.092840 1_555
N1_0 Ti4_2 2.084954 1_545
N1_0 Ti4_6 2.084956 1_445
N1_0 Ti4_0 2.084956 1_555
N1_0 Ti7_4 2.094626 1_455
N1_0 Ti7_0 2.094628 1_555
N1_0 Ti7_6 2.094628 1_445
N1_1 Ti4_3 2.084954 1_545
N1_1 Ti4_7 2.084956 1_445
N1_1 Ti4_1 2.084956 1_555
N1_1 Ti7_5 2.094626 1_455
N1_1 Ti7_7 2.094628 1_445
N1_1 Ti7_1 2.094628 1_555
N1_2 Ti4_0 2.084954 1_555
N1_2 Ti4_2 2.084956 1_555
N1_2 Ti4_4 2.084956 1_455
N1_2 Ti7_6 2.094626 1_455
N1_2 Ti7_4 2.094628 1_455
N1_2 Ti7_2 2.094628 1_555
N1_3 Ti4_1 2.084954 1_555
N1_3 Ti4_3 2.084956 1_555
N1_3 Ti4_5 2.084956 1_455
N1_3 Ti7_7 2.094626 1_455
N1_3 Ti7_5 2.094628 1_455
N1_3 Ti7_3 2.094628 1_555
N1_4 Ti4_6 2.084954 1_545
N1_4 Ti4_2 2.084956 1_545
N1_4 Ti4_4 2.084956 1_555
N1_4 Ti7_0 2.094626 1_555
N1_4 Ti7_4 2.094628 1_555
N1_4 Ti7_2 2.094628 1_545
N1_5 Ti4_7 2.084954 1_545
N1_5 Ti4_3 2.084956 1_545
N1_5 Ti4_5 2.084956 1_555
N1_5 Ti7_1 2.094626 1_555
N1_5 Ti7_3 2.094628 1_545
N1_5 Ti7_5 2.094628 1_555
N1_6 Ti4_4 2.084954 1_555
N1_6 Ti4_6 2.084956 1_555
N1_6 Ti4_0 2.084956 1_555
N1_6 Ti7_2 2.094626 1_555
N1_6 Ti7_6 2.094628 1_555
N1_6 Ti7_0 2.094628 1_555
N1_7 Ti4_5 2.084954 1_555
N1_7 Ti4_7 2.084956 1_555
N1_7 Ti4_1 2.084956 1_555
N1_7 Ti7_3 2.094626 1_555
N1_7 Ti7_1 2.094628 1_555
N1_7 Ti7_7 2.094628 1_555
N2_0 Ti6_4 2.084954 1_455
N2_0 Ti6_0 2.084956 1_555
N2_0 Ti6_6 2.084956 1_445
N2_0 Ti5_2 2.094626 1_545
N2_0 Ti5_0 2.094628 1_555
N2_0 Ti5_6 2.094628 1_445
N2_1 Ti6_5 2.084954 1_455
N2_1 Ti6_1 2.084956 1_555
N2_1 Ti6_7 2.084956 1_445
N2_1 Ti5_3 2.094626 1_545
N2_1 Ti5_7 2.094628 1_445
N2_1 Ti5_1 2.094628 1_555
N2_2 Ti6_6 2.084954 1_455
N2_2 Ti6_2 2.084956 1_555
N2_2 Ti6_4 2.084956 1_455
N2_2 Ti5_0 2.094626 1_555
N2_2 Ti5_2 2.094628 1_555
N2_2 Ti5_4 2.094628 1_455
N2_3 Ti6_7 2.084954 1_455
N2_3 Ti6_5 2.084956 1_455
N2_3 Ti6_3 2.084956 1_555
N2_3 Ti5_1 2.094626 1_555
N2_3 Ti5_3 2.094628 1_555
N2_3 Ti5_5 2.094628 1_455
N2_4 Ti6_0 2.084954 1_555
N2_4 Ti6_4 2.084956 1_555
N2_4 Ti6_2 2.084956 1_545
N2_4 Ti5_6 2.094626 1_545
N2_4 Ti5_2 2.094628 1_545
N2_4 Ti5_4 2.094628 1_555
N2_5 Ti6_1 2.084954 1_555
N2_5 Ti6_5 2.084956 1_555
N2_5 Ti6_3 2.084956 1_545
N2_5 Ti5_7 2.094626 1_545
N2_5 Ti5_3 2.094628 1_545
N2_5 Ti5_5 2.094628 1_555
N2_6 Ti6_2 2.084954 1_555
N2_6 Ti6_6 2.084956 1_555
N2_6 Ti6_0 2.084956 1_555
N2_6 Ti5_4 2.094626 1_555
N2_6 Ti5_6 2.094628 1_555
N2_6 Ti5_0 2.094628 1_555
N2_7 Ti6_3 2.084954 1_555
N2_7 Ti6_7 2.084956 1_555
N2_7 Ti6_1 2.084956 1_555
N2_7 Ti5_5 2.094626 1_555
N2_7 Ti5_7 2.094628 1_555
N2_7 Ti5_1 2.094628 1_555
