# generated using pymatgen
data_CaTm2O4
_symmetry_space_group_name_H-M   'P 1'
_cell_length_a   6.74441983
_cell_length_b   6.74441983
_cell_length_c   6.74441983
_cell_angle_alpha   60.00000000
_cell_angle_beta   60.00000000
_cell_angle_gamma   60.00000000
_symmetry_Int_Tables_number   1
_chemical_formula_structural   CaTm2O4
_chemical_formula_sum   'Ca2 Tm4 O8'
_cell_volume   216.92958874
_cell_formula_units_Z   2
loop_
 _symmetry_equiv_pos_site_id
 _symmetry_equiv_pos_as_xyz
  1  'x, y, z'
loop_
 _atom_site_type_symbol
 _atom_site_label
 _atom_site_symmetry_multiplicity
 _atom_site_fract_x
 _atom_site_fract_y
 _atom_site_fract_z
 _atom_site_occupancy
  Ca  Ca0  1  0.25000000  0.25000000  0.25000000  1
  Ca  Ca1  1  0.00000000  0.00000000  0.00000000  1
  Tm  Tm0  1  0.62500000  0.12500000  0.62500000  1
  Tm  Tm1  1  0.12500000  0.62500000  0.62500000  1
  Tm  Tm2  1  0.62500000  0.62500000  0.62500000  1
  Tm  Tm3  1  0.62500000  0.62500000  0.12500000  1
  O  O0  1  0.38910400  0.38910400  0.38910400  1
  O  O1  1  0.86089600  0.86089600  0.41731100  1
  O  O2  1  0.83268900  0.38910400  0.38910400  1
  O  O3  1  0.38910400  0.83268900  0.38910400  1
  O  O4  1  0.86089600  0.86089600  0.86089600  1
  O  O5  1  0.38910400  0.38910400  0.83268900  1
  O  O6  1  0.41731100  0.86089600  0.86089600  1
  O  O7  1  0.86089600  0.41731100  0.86089600  1
loop_
_geom_bond_atom_site_label_1
_geom_bond_atom_site_label_2
_geom_bond_distance
_geom_bond_site_symmetry_2
Ca0 O5 2.298046 1_554
Ca0 O2 2.298046 1_455
Ca0 O3 2.298046 1_545
Ca0 O0 2.298052 1_555
Ca1 O7 2.298046 1_454
Ca1 O1 2.298046 1_445
Ca1 O6 2.298046 1_544
Ca1 O4 2.298052 1_444
O0 Tm3 2.258017 1_555
O0 Tm0 2.258017 1_555
O0 Tm1 2.258017 1_555
O1 Tm2 2.258016 1_555
O1 Tm0 2.258021 1_565
O1 Tm1 2.258021 1_655
O2 Tm2 2.258016 1_555
O2 Tm3 2.258021 1_555
O2 Tm0 2.258021 1_555
O3 Tm2 2.258016 1_555
O3 Tm1 2.258021 1_555
O3 Tm3 2.258021 1_555
O4 Tm3 2.258017 1_556
O4 Tm0 2.258017 1_565
O4 Tm1 2.258017 1_655
O5 Tm2 2.258016 1_555
O5 Tm1 2.258021 1_555
O5 Tm0 2.258021 1_555
O6 Tm2 2.258016 1_555
O6 Tm0 2.258021 1_565
O6 Tm3 2.258021 1_556
O7 Tm2 2.258016 1_555
O7 Tm1 2.258021 1_655
O7 Tm3 2.258021 1_556
