# generated using pymatgen
data_TbFe11W
_symmetry_space_group_name_H-M   'P 1'
_cell_length_a   4.69543500
_cell_length_b   6.46278681
_cell_length_c   6.46278681
_cell_angle_alpha   97.94801307
_cell_angle_beta   111.30097760
_cell_angle_gamma   68.69902240
_symmetry_Int_Tables_number   1
_chemical_formula_structural   TbFe11W
_chemical_formula_sum   'Tb1 Fe11 W1'
_cell_volume   170.23240985
_cell_formula_units_Z   1
loop_
 _symmetry_equiv_pos_site_id
 _symmetry_equiv_pos_as_xyz
  1  'x, y, z'
loop_
 _atom_site_type_symbol
 _atom_site_label
 _atom_site_symmetry_multiplicity
 _atom_site_fract_x
 _atom_site_fract_y
 _atom_site_fract_z
 _atom_site_occupancy
  Tb  Tb0  1  0.00617900  0.99382100  0.00617900  1
  Fe  Fe0  1  0.73059300  0.76940700  0.23059300  1
  Fe  Fe1  1  0.27299600  0.22700400  0.77299600  1
  Fe  Fe2  1  0.49846900  0.77779300  0.77473100  1
  Fe  Fe3  1  0.49846900  0.22526900  0.22220700  1
  Fe  Fe4  1  0.50108400  0.99867200  0.50083300  1
  Fe  Fe5  1  0.00107800  0.99867200  0.50083300  1
  Fe  Fe6  1  0.50108400  0.49916700  0.00132800  1
  Fe  Fe7  1  0.00107800  0.49916700  0.00132800  1
  Fe  Fe8  1  0.35596800  0.64403200  0.35596800  1
  Fe  Fe9  1  0.00019100  0.35838900  0.35877100  1
  Fe  Fe10  1  0.00019100  0.64122900  0.64161100  1
  W  W0  1  0.63262200  0.36737800  0.63262200  1
loop_
_geom_bond_atom_site_label_1
_geom_bond_atom_site_label_2
_geom_bond_distance
_geom_bond_site_symmetry_2
Tb0 W0 3.192523 1_464
Fe0 Fe6 2.428721 1_555
Fe0 Fe4 2.428721 1_555
Fe0 Fe7 2.428723 1_655
Fe0 Fe5 2.428723 1_655
Fe0 Fe8 2.580672 1_655
Fe0 Fe8 2.580672 1_555
Fe0 Fe9 2.597759 1_655
Fe0 Fe10 2.597759 1_655
Fe0 Fe3 2.745705 1_565
Fe0 Fe2 2.745705 1_554
Fe0 Tb0 3.031524 1_555
Fe0 Tb0 3.031524 1_655
Fe1 Fe7 2.433309 1_556
Fe1 Fe5 2.433309 1_545
Fe1 Fe6 2.433311 1_556
Fe1 Fe4 2.433311 1_545
Fe1 Fe9 2.622099 1_555
Fe1 Fe10 2.622099 1_555
Fe1 W0 2.636475 1_455
Fe1 W0 2.636475 1_555
Fe1 Fe3 2.704922 1_556
Fe1 Fe2 2.704922 1_545
Fe1 Tb0 3.079483 1_646
Fe1 Tb0 3.079483 1_546
Fe2 Fe5 2.428707 1_555
Fe2 Fe4 2.428709 1_555
Fe2 Fe6 2.467270 1_556
Fe2 Fe7 2.467272 1_656
Fe2 W0 2.609288 1_555
Fe2 Fe8 2.641414 1_555
Fe2 Tb0 3.019862 1_656
Fe2 Tb0 3.019862 1_556
Fe3 Fe7 2.428707 1_555
Fe3 Fe6 2.428709 1_555
Fe3 Fe4 2.467270 1_545
Fe3 Fe5 2.467272 1_645
Fe3 W0 2.609288 1_555
Fe3 Fe9 2.611674 1_655
Fe3 Fe9 2.611674 1_555
Fe3 Fe8 2.641414 1_555
Fe3 Tb0 3.019862 1_645
Fe3 Tb0 3.019862 1_545
Fe4 Fe5 2.347689 1_655
Fe4 Fe5 2.347746 1_555
Fe4 Fe8 2.582951 1_555
Fe4 Fe9 2.613044 1_565
Fe4 W0 2.628832 1_565
Fe4 Tb0 3.201366 1_555
Fe4 Tb0 3.261728 1_656
Fe5 Fe8 2.582949 1_555
Fe5 Fe9 2.613042 1_565
Fe5 W0 2.628834 1_465
Fe5 Tb0 3.201364 1_555
Fe5 Tb0 3.261730 1_556
Fe6 Fe7 2.347689 1_655
Fe6 Fe7 2.347746 1_555
Fe6 Fe8 2.582951 1_555
Fe6 Fe9 2.599080 1_655
Fe6 W0 2.628832 1_554
Fe6 Tb0 3.201366 1_555
Fe6 Tb0 3.261728 1_645
Fe7 Fe8 2.582949 1_555
Fe7 Fe9 2.599082 1_555
Fe7 W0 2.628834 1_454
Fe7 Tb0 3.201364 1_555
Fe7 Tb0 3.261730 1_545
Fe8 W0 2.364363 1_555
Fe8 Fe9 2.910441 1_655
Fe8 Fe9 2.910441 1_555
Fe8 Tb0 2.989395 1_555
Fe9 W0 2.869215 1_555
Fe9 W0 2.869215 1_455
Fe9 Tb0 3.042754 1_545
Fe10 Fe9 2.399718 1_555
Fe10 Fe4 2.599080 1_455
Fe10 Fe5 2.599082 1_555
Fe10 Fe2 2.611674 1_455
Fe10 Fe2 2.611674 1_555
Fe10 Fe7 2.613042 1_556
Fe10 Fe6 2.613044 1_556
Fe10 W0 2.869215 1_555
Fe10 W0 2.869215 1_455
Fe10 Fe8 2.910441 1_455
Fe10 Fe8 2.910441 1_555
Fe10 Tb0 3.042754 1_556
