# generated using pymatgen
data_DyMnAl
_symmetry_space_group_name_H-M   'P 1'
_cell_length_a   5.41546924
_cell_length_b   5.41546924
_cell_length_c   5.41546924
_cell_angle_alpha   119.50584155
_cell_angle_beta   118.84083209
_cell_angle_gamma   91.43882822
_symmetry_Int_Tables_number   1
_chemical_formula_structural   DyMnAl
_chemical_formula_sum   'Dy2 Mn2 Al2'
_cell_volume   113.66330171
_cell_formula_units_Z   2
loop_
 _symmetry_equiv_pos_site_id
 _symmetry_equiv_pos_as_xyz
  1  'x, y, z'
loop_
 _atom_site_type_symbol
 _atom_site_label
 _atom_site_symmetry_multiplicity
 _atom_site_fract_x
 _atom_site_fract_y
 _atom_site_fract_z
 _atom_site_occupancy
  Dy  Dy0  1  0.12970100  0.87970100  0.25000000  1
  Dy  Dy1  1  0.87029900  0.12029900  0.75000000  1
  Mn  Mn0  1  0.50000000  0.00000000  0.00000000  1
  Mn  Mn1  1  0.50000000  0.50000000  0.50000000  1
  Al  Al0  1  0.00000000  0.50000000  0.50000000  1
  Al  Al1  1  0.50000000  0.50000000  0.00000000  1
loop_
_geom_bond_atom_site_label_1
_geom_bond_atom_site_label_2
_geom_bond_distance
_geom_bond_site_symmetry_2
Dy0 Mn0 3.114684 1_565
Dy0 Mn1 3.114684 1_565
Dy0 Mn1 3.226851 1_555
Dy0 Mn0 3.226851 1_566
Dy0 Mn0 3.226851 1_465
Dy0 Mn1 3.226851 1_454
Dy0 Dy1 3.301566 1_464
Dy0 Dy1 3.301566 1_565
Dy0 Dy1 3.359963 1_454
Dy0 Dy1 3.359963 1_465
Dy1 Mn0 3.114684 1_556
Dy1 Mn1 3.114684 1_545
Dy1 Mn0 3.226851 1_656
Dy1 Mn1 3.226851 1_656
Dy1 Mn0 3.226851 1_555
Dy1 Mn1 3.226851 1_555
Mn0 Mn1 2.727934 1_555
Mn0 Mn1 2.727934 1_544
Al0 Mn1 2.707735 1_455
Al0 Mn1 2.707735 1_555
Al0 Mn0 2.707735 1_566
Al0 Mn0 2.707735 1_455
Al0 Al1 2.755037 1_556
Al0 Al1 2.755037 1_455
Al0 Dy0 3.184591 1_555
Al0 Dy1 3.184591 1_455
Al0 Dy1 3.188528 1_465
Al0 Dy0 3.188528 1_556
Al0 Dy0 3.188528 1_545
Al0 Dy1 3.188528 1_454
Al1 Mn0 2.707735 1_555
Al1 Mn1 2.707735 1_554
Al1 Mn1 2.707735 1_555
Al1 Mn0 2.707735 1_565
Al1 Dy0 3.184591 1_655
Al1 Dy1 3.184591 1_454
Al1 Dy1 3.188528 1_554
Al1 Dy0 3.188528 1_544
Al1 Dy0 3.188528 1_555
Al1 Dy1 3.188528 1_565
