# generated using pymatgen
data_Nb12N11
_symmetry_space_group_name_H-M   'P 1'
_cell_length_a   8.32204365
_cell_length_b   8.32204365
_cell_length_c   5.41903173
_cell_angle_alpha   89.67633932
_cell_angle_beta   89.67633932
_cell_angle_gamma   44.21645609
_symmetry_Int_Tables_number   1
_chemical_formula_structural   Nb12N11
_chemical_formula_sum   'Nb12 N11'
_cell_volume   261.72033676
_cell_formula_units_Z   1
loop_
 _symmetry_equiv_pos_site_id
 _symmetry_equiv_pos_as_xyz
  1  'x, y, z'
loop_
 _atom_site_type_symbol
 _atom_site_label
 _atom_site_symmetry_multiplicity
 _atom_site_fract_x
 _atom_site_fract_y
 _atom_site_fract_z
 _atom_site_occupancy
  Nb  Nb0  1  0.50000000  0.00000000  0.50000000  1
  Nb  Nb1  1  0.15582200  0.68661600  0.84660900  1
  Nb  Nb2  1  0.84417800  0.31338400  0.15339100  1
  Nb  Nb3  1  0.31338400  0.84417800  0.15339100  1
  Nb  Nb4  1  0.00000000  0.50000000  0.50000000  1
  Nb  Nb5  1  0.68661600  0.15582200  0.84660900  1
  Nb  Nb6  1  0.92190800  0.92190800  0.31409900  1
  Nb  Nb7  1  0.58434900  0.58434900  0.67520200  1
  Nb  Nb8  1  0.24983600  0.24983600  0.99610200  1
  Nb  Nb9  1  0.41565100  0.41565100  0.32479800  1
  Nb  Nb10  1  0.07809200  0.07809200  0.68590100  1
  Nb  Nb11  1  0.75016400  0.75016400  0.00389800  1
  N  N0  1  0.74894200  0.25105800  0.50000000  1
  N  N1  1  0.41670700  0.91794700  0.83309000  1
  N  N2  1  0.08205300  0.58329300  0.16691000  1
  N  N3  1  0.58329300  0.08205300  0.16691000  1
  N  N4  1  0.25105800  0.74894200  0.50000000  1
  N  N5  1  0.91794700  0.41670700  0.83309000  1
  N  N6  1  0.83544100  0.83544100  0.65995500  1
  N  N7  1  0.50000000  0.50000000  0.00000000  1
  N  N8  1  0.16455900  0.16455900  0.34004500  1
  N  N9  1  0.66204600  0.66204600  0.33124900  1
  N  N10  1  0.33795400  0.33795400  0.66875100  1
loop_
_geom_bond_atom_site_label_1
_geom_bond_atom_site_label_2
_geom_bond_distance
_geom_bond_site_symmetry_2
N0 Nb10 2.225537 1_655
N0 Nb6 2.225537 1_545
N0 Nb2 2.233061 1_555
N0 Nb5 2.233061 1_555
N0 Nb9 2.244994 1_555
N0 Nb7 2.244994 1_555
N1 Nb7 2.201653 1_555
N1 Nb8 2.202983 1_565
N1 Nb0 2.203474 1_565
N1 Nb3 2.203800 1_556
N1 Nb11 2.228788 1_556
N1 Nb10 2.232343 1_565
N2 Nb9 2.201653 1_555
N2 Nb11 2.202983 1_455
N2 Nb4 2.203474 1_555
N2 Nb1 2.203800 1_554
N2 Nb8 2.228788 1_554
N2 Nb6 2.232343 1_455
N3 Nb9 2.201653 1_555
N3 Nb11 2.202983 1_545
N3 Nb0 2.203474 1_555
N3 Nb5 2.203800 1_554
N3 Nb8 2.228788 1_554
N3 Nb6 2.232343 1_545
N4 Nb10 2.225537 1_565
N4 Nb6 2.225537 1_455
N4 Nb1 2.233061 1_555
N4 Nb3 2.233061 1_555
N4 Nb9 2.244994 1_555
N4 Nb7 2.244994 1_555
N5 Nb7 2.201653 1_555
N5 Nb8 2.202983 1_655
N5 Nb4 2.203474 1_655
N5 Nb2 2.203800 1_556
N5 Nb11 2.228788 1_556
N5 Nb10 2.232343 1_655
N6 Nb1 2.224564 1_655
N6 Nb5 2.224564 1_565
N6 Nb0 2.225669 1_565
N6 Nb4 2.225669 1_655
N6 Nb11 2.274473 1_556
N6 Nb6 2.293467 1_555
N7 Nb9 2.182153 1_555
N7 Nb7 2.182153 1_554
N7 Nb2 2.223265 1_555
N7 Nb5 2.223265 1_554
N7 Nb3 2.223265 1_555
N7 Nb1 2.223265 1_554
N8 Nb3 2.224564 1_545
N8 Nb2 2.224564 1_455
N8 Nb0 2.225669 1_555
N8 Nb4 2.225669 1_555
N8 Nb8 2.274473 1_554
N8 Nb10 2.293467 1_555
N9 Nb7 2.209601 1_555
N9 Nb11 2.227954 1_555
N9 Nb4 2.267889 1_655
N9 Nb0 2.267889 1_565
N9 Nb3 2.314403 1_555
N9 Nb2 2.314403 1_555
N10 Nb9 2.209601 1_555
N10 Nb8 2.227954 1_555
N10 Nb0 2.267889 1_555
N10 Nb4 2.267889 1_555
N10 Nb5 2.314403 1_555
N10 Nb1 2.314403 1_555
