# generated using pymatgen
data_U2Ta3Ge4
_symmetry_space_group_name_H-M   'P 1'
_cell_length_a   7.03433700
_cell_length_b   7.21291800
_cell_length_c   13.75232600
_cell_angle_alpha   90.00000000
_cell_angle_beta   90.00000000
_cell_angle_gamma   90.00000000
_symmetry_Int_Tables_number   1
_chemical_formula_structural   U2Ta3Ge4
_chemical_formula_sum   'U8 Ta12 Ge16'
_cell_volume   697.76683633
_cell_formula_units_Z   4
loop_
 _symmetry_equiv_pos_site_id
 _symmetry_equiv_pos_as_xyz
  1  'x, y, z'
loop_
 _atom_site_type_symbol
 _atom_site_label
 _atom_site_symmetry_multiplicity
 _atom_site_fract_x
 _atom_site_fract_y
 _atom_site_fract_z
 _atom_site_occupancy
  U  U0  1  0.36326200  0.34169900  0.62426500  1
  U  U1  1  0.63673800  0.65830100  0.37573500  1
  U  U2  1  0.13673800  0.84169900  0.37573500  1
  U  U3  1  0.63673800  0.65830100  0.12426500  1
  U  U4  1  0.86326200  0.15830100  0.62426500  1
  U  U5  1  0.36326200  0.34169900  0.87573500  1
  U  U6  1  0.86326200  0.15830100  0.87573500  1
  U  U7  1  0.13673800  0.84169900  0.12426500  1
  Ta  Ta0  1  0.17772600  0.00378700  0.75000000  1
  Ta  Ta1  1  0.82227400  0.99621300  0.25000000  1
  Ta  Ta2  1  0.32227400  0.50378700  0.25000000  1
  Ta  Ta3  1  0.67772600  0.49621300  0.75000000  1
  Ta  Ta4  1  0.03710200  0.68120400  0.59366300  1
  Ta  Ta5  1  0.96289800  0.31879600  0.40633700  1
  Ta  Ta6  1  0.46289800  0.18120400  0.40633700  1
  Ta  Ta7  1  0.96289800  0.31879600  0.09366300  1
  Ta  Ta8  1  0.53710200  0.81879600  0.59366300  1
  Ta  Ta9  1  0.03710200  0.68120400  0.90633700  1
  Ta  Ta10  1  0.53710200  0.81879600  0.90633700  1
  Ta  Ta11  1  0.46289800  0.18120400  0.09366300  1
  Ge  Ge0  1  0.21920800  0.01286200  0.54893400  1
  Ge  Ge1  1  0.78079200  0.98713800  0.45106600  1
  Ge  Ge2  1  0.28079200  0.51286200  0.45106600  1
  Ge  Ge3  1  0.78079200  0.98713800  0.04893400  1
  Ge  Ge4  1  0.71920800  0.48713800  0.54893400  1
  Ge  Ge5  1  0.21920800  0.01286200  0.95106600  1
  Ge  Ge6  1  0.71920800  0.48713800  0.95106600  1
  Ge  Ge7  1  0.28079200  0.51286200  0.04893400  1
  Ge  Ge8  1  0.04680800  0.42387700  0.75000000  1
  Ge  Ge9  1  0.95319200  0.57612300  0.25000000  1
  Ge  Ge10  1  0.45319200  0.92387700  0.25000000  1
  Ge  Ge11  1  0.54680800  0.07612300  0.75000000  1
  Ge  Ge12  1  0.32559600  0.66846600  0.75000000  1
  Ge  Ge13  1  0.67440400  0.33153400  0.25000000  1
  Ge  Ge14  1  0.17440400  0.16846600  0.25000000  1
  Ge  Ge15  1  0.82559600  0.83153400  0.75000000  1
loop_
_geom_bond_atom_site_label_1
_geom_bond_atom_site_label_2
_geom_bond_distance
_geom_bond_site_symmetry_2
Ge0 Ta8 2.708919 1_545
Ge0 U2 2.744838 1_545
Ge0 U0 2.779543 1_555
Ge0 Ta0 2.781249 1_555
Ge0 Ta4 2.782455 1_545
Ge0 Ta6 2.873765 1_555
Ge0 U4 2.905678 1_455
Ge1 Ta6 2.708919 1_565
Ge1 U4 2.744838 1_565
Ge1 U1 2.779543 1_555
Ge1 Ta1 2.781249 1_555
Ge1 Ta5 2.782455 1_565
Ge1 Ta8 2.873765 1_555
Ge1 U2 2.905678 1_655
Ge2 Ta5 2.708919 1_455
Ge2 U0 2.744838 1_555
Ge2 U2 2.779543 1_555
Ge2 Ta2 2.781249 1_555
Ge2 Ta6 2.782455 1_555
Ge2 Ta4 2.873765 1_555
Ge2 U1 2.905678 1_555
Ge3 Ta11 2.708919 1_565
Ge3 U6 2.744838 1_564
Ge3 U3 2.779543 1_555
Ge3 Ta1 2.781249 1_555
Ge3 Ta7 2.782455 1_565
Ge3 Ta10 2.873765 1_554
Ge3 U7 2.905678 1_655
Ge4 Ta4 2.708919 1_655
Ge4 U1 2.744838 1_555
Ge4 U4 2.779543 1_555
Ge4 Ta3 2.781249 1_555
Ge4 Ta8 2.782455 1_555
Ge4 Ta5 2.873765 1_555
Ge4 U0 2.905678 1_555
Ge5 Ta10 2.708919 1_545
Ge5 U7 2.744838 1_546
Ge5 U5 2.779543 1_555
Ge5 Ta0 2.781249 1_555
Ge5 Ta9 2.782455 1_545
Ge5 Ta11 2.873765 1_556
Ge5 U6 2.905678 1_455
Ge6 Ta9 2.708919 1_655
Ge6 U3 2.744838 1_556
Ge6 U6 2.779543 1_555
Ge6 Ta3 2.781249 1_555
Ge6 Ta10 2.782455 1_555
Ge6 Ta7 2.873765 1_556
Ge6 U5 2.905678 1_555
Ge7 Ta7 2.708919 1_455
Ge7 U5 2.744838 1_554
Ge7 U7 2.779543 1_555
Ge7 Ta2 2.781249 1_555
Ge7 Ta11 2.782455 1_555
Ge7 Ta9 2.873765 1_554
Ge7 U3 2.905678 1_555
Ge8 Ta3 2.648155 1_455
Ge8 Ta9 2.841158 1_555
Ge8 Ta4 2.841158 1_555
Ge8 U0 2.880377 1_555
Ge8 U5 2.880377 1_555
Ge8 U6 2.885550 1_455
Ge8 U4 2.885550 1_455
Ge8 Ta0 3.166931 1_555
Ge9 Ta2 2.648155 1_655
Ge9 Ta5 2.841158 1_555
Ge9 Ta7 2.841158 1_555
Ge9 U1 2.880377 1_555
Ge9 U3 2.880377 1_555
Ge9 U2 2.885550 1_655
Ge9 U7 2.885550 1_655
Ge9 Ta1 3.166931 1_555
Ge10 Ge14 2.637854 1_565
Ge10 Ta1 2.648155 1_555
Ge10 Ta6 2.841158 1_565
Ge10 Ta11 2.841158 1_565
Ge10 U2 2.880377 1_555
Ge10 U7 2.880377 1_555
Ge10 U1 2.885550 1_555
Ge10 U3 2.885550 1_555
Ge10 Ta2 3.166931 1_555
Ge11 Ge15 2.637854 1_545
Ge11 Ta0 2.648155 1_555
Ge11 Ta10 2.841158 1_545
Ge11 Ta8 2.841158 1_545
Ge11 U6 2.880377 1_555
Ge11 U4 2.880377 1_555
Ge11 U5 2.885550 1_555
Ge11 U0 2.885550 1_555
Ge11 Ta3 3.166931 1_555
Ge12 Ta0 2.632828 1_565
Ge12 Ge8 2.637854 1_555
Ge12 Ta3 2.771138 1_555
Ge12 Ta8 2.830512 1_555
Ge12 Ta10 2.830512 1_555
Ge12 U5 2.935190 1_555
Ge12 U0 2.935190 1_555
Ge12 Ta9 2.957913 1_555
Ge12 Ta4 2.957913 1_555
Ge13 Ta1 2.632828 1_545
Ge13 Ge9 2.637854 1_555
Ge13 Ta2 2.771138 1_555
Ge13 Ta11 2.830512 1_555
Ge13 Ta6 2.830512 1_555
Ge13 U3 2.935190 1_555
Ge13 U1 2.935190 1_555
Ge13 Ta7 2.957913 1_555
Ge13 Ta5 2.957913 1_555
Ge14 Ta2 2.632828 1_555
Ge14 Ta1 2.771138 1_445
Ge14 Ta7 2.830512 1_455
Ge14 Ta5 2.830512 1_455
Ge14 U2 2.935190 1_545
Ge14 U7 2.935190 1_545
Ge14 Ta11 2.957913 1_555
Ge14 Ta6 2.957913 1_555
Ge15 Ta3 2.632828 1_555
Ge15 Ta0 2.771138 1_665
Ge15 Ta4 2.830512 1_655
Ge15 Ta9 2.830512 1_655
Ge15 U4 2.935190 1_565
Ge15 U6 2.935190 1_565
Ge15 Ta8 2.957913 1_555
Ge15 Ta10 2.957913 1_555
