# generated using pymatgen
data_Hf3TePb4O13
_symmetry_space_group_name_H-M   'P 1'
_cell_length_a   7.62706301
_cell_length_b   7.62706301
_cell_length_c   7.62706322
_cell_angle_alpha   60.09613214
_cell_angle_beta   60.09613214
_cell_angle_gamma   60.09612579
_symmetry_Int_Tables_number   1
_chemical_formula_structural   Hf3TePb4O13
_chemical_formula_sum   'Hf3 Te1 Pb4 O13'
_cell_volume   314.41406230
_cell_formula_units_Z   1
loop_
 _symmetry_equiv_pos_site_id
 _symmetry_equiv_pos_as_xyz
  1  'x, y, z'
loop_
 _atom_site_type_symbol
 _atom_site_label
 _atom_site_symmetry_multiplicity
 _atom_site_fract_x
 _atom_site_fract_y
 _atom_site_fract_z
 _atom_site_occupancy
  Hf  Hf0  1  0.99895500  0.50062000  0.50062000  1
  Hf  Hf1  1  0.50062000  0.50062000  0.99895500  1
  Hf  Hf2  1  0.50062000  0.99895500  0.50062000  1
  Te  Te0  1  0.50035000  0.50035000  0.50035000  1
  Pb  Pb0  1  0.50017800  0.00075200  0.00075200  1
  Pb  Pb1  1  0.00075200  0.00075200  0.50017800  1
  Pb  Pb2  1  0.00075200  0.50017800  0.00075200  1
  Pb  Pb3  1  0.99943100  0.99943100  0.99943100  1
  O  O0  1  0.17185400  0.56889800  0.17185400  1
  O  O1  1  0.56624100  0.19674800  0.56624100  1
  O  O2  1  0.17185400  0.17185400  0.56889800  1
  O  O3  1  0.56624100  0.56624100  0.19674800  1
  O  O4  1  0.56889800  0.17185400  0.17185400  1
  O  O5  1  0.19674800  0.56624100  0.56624100  1
  O  O6  1  0.82462900  0.43628400  0.82462900  1
  O  O7  1  0.43576600  0.80241300  0.43576600  1
  O  O8  1  0.82462900  0.82462900  0.43628400  1
  O  O9  1  0.43576600  0.43576600  0.80241300  1
  O  O10  1  0.43628400  0.82462900  0.82462900  1
  O  O11  1  0.80241300  0.43576600  0.43576600  1
  O  O12  1  0.87201600  0.87201600  0.87201600  1
loop_
_geom_bond_atom_site_label_1
_geom_bond_atom_site_label_2
_geom_bond_distance
_geom_bond_site_symmetry_2
Hf0 O8 2.069023 1_555
Hf0 O6 2.069023 1_555
Hf0 O2 2.093676 1_655
Hf0 O0 2.093676 1_655
Hf0 O11 2.111658 1_555
Hf0 O5 2.128910 1_655
Hf1 O10 2.069023 1_555
Hf1 O6 2.069023 1_555
Hf1 O4 2.093676 1_556
Hf1 O0 2.093676 1_556
Hf1 O9 2.111658 1_555
Hf1 O3 2.128910 1_556
Hf2 O8 2.069023 1_555
Hf2 O10 2.069023 1_555
Hf2 O2 2.093676 1_565
Hf2 O4 2.093676 1_565
Hf2 O7 2.111658 1_555
Hf2 O1 2.128910 1_565
O0 Pb2 2.596709 1_555
O0 Pb3 2.711905 1_454
O1 Te0 1.948912 1_555
O1 Pb1 2.760033 1_655
O1 Pb0 2.760033 1_556
O2 Pb1 2.596709 1_555
O2 Pb3 2.711905 1_445
O3 Te0 1.948912 1_555
O3 Pb2 2.760033 1_655
O3 Pb0 2.760033 1_565
O4 Pb0 2.596709 1_555
O4 Pb3 2.711905 1_544
O5 Te0 1.948912 1_555
O5 Pb1 2.760033 1_565
O5 Pb2 2.760033 1_556
O6 Pb2 2.636485 1_656
O6 Pb3 2.751430 1_545
O7 Te0 1.942129 1_555
O7 Pb1 2.765740 1_565
O7 Pb0 2.765741 1_565
O8 Pb1 2.636485 1_665
O8 Pb3 2.751430 1_554
O9 Te0 1.942129 1_555
O9 Pb0 2.765740 1_556
O9 Pb2 2.765740 1_556
O10 Pb0 2.636485 1_566
O10 Pb3 2.751430 1_455
O11 Te0 1.942129 1_555
O11 Pb1 2.765740 1_655
O11 Pb2 2.765741 1_655
O12 Pb0 2.319363 1_566
O12 Pb2 2.319363 1_656
O12 Pb1 2.319363 1_665
O12 Pb3 2.378689 1_555
