# generated using pymatgen
data_MnGaNi2
_symmetry_space_group_name_H-M   'P 1'
_cell_length_a   3.75149500
_cell_length_b   3.75149500
_cell_length_c   3.48453100
_cell_angle_alpha   90.00000000
_cell_angle_beta   90.00000000
_cell_angle_gamma   90.00000000
_symmetry_Int_Tables_number   1
_chemical_formula_structural   MnGaNi2
_chemical_formula_sum   'Mn1 Ga1 Ni2'
_cell_volume   49.04029528
_cell_formula_units_Z   1
loop_
 _symmetry_equiv_pos_site_id
 _symmetry_equiv_pos_as_xyz
  1  'x, y, z'
loop_
 _atom_site_type_symbol
 _atom_site_label
 _atom_site_symmetry_multiplicity
 _atom_site_fract_x
 _atom_site_fract_y
 _atom_site_fract_z
 _atom_site_occupancy
  Mn  Mn0  1  0.00000000  0.00000000  0.00000000  1
  Ga  Ga0  1  0.50000000  0.50000000  0.00000000  1
  Ni  Ni0  1  0.00000000  0.50000000  0.50000000  1
  Ni  Ni1  1  0.50000000  0.00000000  0.50000000  1
loop_
_geom_bond_atom_site_label_1
_geom_bond_atom_site_label_2
_geom_bond_distance
_geom_bond_site_symmetry_2
Mn0 Ni1 2.560062 1_455
Mn0 Ni0 2.560062 1_555
Mn0 Ni1 2.560062 1_555
Mn0 Ni1 2.560062 1_454
Mn0 Ni0 2.560062 1_545
Mn0 Ni0 2.560062 1_554
Mn0 Ni1 2.560062 1_554
Mn0 Ni0 2.560062 1_544
Ga0 Ni0 2.560062 1_555
Ga0 Ni1 2.560062 1_555
Ga0 Ni1 2.560062 1_565
Ga0 Ni1 2.560062 1_564
Ga0 Ni0 2.560062 1_655
Ga0 Ni0 2.560062 1_654
Ga0 Ni0 2.560062 1_554
Ga0 Ni1 2.560062 1_554
Ga0 Mn0 2.652708 1_655
Ga0 Mn0 2.652708 1_565
Ga0 Mn0 2.652708 1_555
Ga0 Mn0 2.652708 1_665
Ni0 Ni1 2.652708 1_465
Ni0 Ni1 2.652708 1_455
Ni0 Ni1 2.652708 1_555
Ni0 Ni1 2.652708 1_565
