# generated using pymatgen
data_Sr2CoCuSO3
_symmetry_space_group_name_H-M   'P 1'
_cell_length_a   3.89810400
_cell_length_b   3.89810400
_cell_length_c   16.01504500
_cell_angle_alpha   90.00000000
_cell_angle_beta   90.00000000
_cell_angle_gamma   90.00000000
_symmetry_Int_Tables_number   1
_chemical_formula_structural   Sr2CoCuSO3
_chemical_formula_sum   'Sr4 Co2 Cu2 S2 O6'
_cell_volume   243.35204872
_cell_formula_units_Z   2
loop_
 _symmetry_equiv_pos_site_id
 _symmetry_equiv_pos_as_xyz
  1  'x, y, z'
loop_
 _atom_site_type_symbol
 _atom_site_label
 _atom_site_symmetry_multiplicity
 _atom_site_fract_x
 _atom_site_fract_y
 _atom_site_fract_z
 _atom_site_occupancy
  Sr  Sr0  1  0.50000000  0.50000000  0.19048100  1
  Sr  Sr1  1  0.00000000  0.00000000  0.80927900  1
  Sr  Sr2  1  0.50000000  0.50000000  0.41390300  1
  Sr  Sr3  1  0.00000000  0.00000000  0.58974000  1
  Co  Co0  1  0.00000000  0.00000000  0.31600200  1
  Co  Co1  1  0.50000000  0.50000000  0.69136800  1
  Cu  Cu0  1  0.50000000  0.00000000  0.99983600  1
  Cu  Cu1  1  0.00000000  0.50000000  0.99983600  1
  S  S0  1  0.00000000  0.00000000  0.08720100  1
  S  S1  1  0.50000000  0.50000000  0.91333200  1
  O  O0  1  0.50000000  0.00000000  0.28844600  1
  O  O1  1  0.00000000  0.50000000  0.28844600  1
  O  O2  1  0.00000000  0.50000000  0.71098800  1
  O  O3  1  0.50000000  0.00000000  0.71098800  1
  O  O4  1  0.00000000  0.00000000  0.42847700  1
  O  O5  1  0.50000000  0.50000000  0.56193300  1
loop_
_geom_bond_atom_site_label_1
_geom_bond_atom_site_label_2
_geom_bond_distance
_geom_bond_site_symmetry_2
Co0 O4 1.801292 1_555
Co0 O1 1.998389 1_555
Co0 O1 1.998389 1_545
Co0 O0 1.998389 1_455
Co0 O0 1.998389 1_555
Co1 O2 1.974218 1_555
Co1 O2 1.974218 1_655
Co1 O3 1.974218 1_555
Co1 O3 1.974218 1_565
Co1 O5 2.072907 1_555
Cu0 S1 2.391243 1_545
Cu0 S1 2.391243 1_555
Cu0 S0 2.399258 1_656
Cu0 S0 2.399258 1_556
Cu1 S1 2.391243 1_555
Cu1 S1 2.391243 1_455
Cu1 S0 2.399258 1_556
Cu1 S0 2.399258 1_566
S0 Sr0 3.214566 1_545
S0 Sr0 3.214566 1_455
S0 Sr0 3.214566 1_555
S0 Sr0 3.214566 1_445
S1 Sr1 3.220953 1_555
S1 Sr1 3.220953 1_655
S1 Sr1 3.220953 1_565
S1 Sr1 3.220953 1_665
O0 Sr0 2.502058 1_545
O0 Sr0 2.502058 1_555
O0 Sr2 2.799230 1_555
O0 Sr2 2.799230 1_545
O1 Sr0 2.502058 1_455
O1 Sr0 2.502058 1_555
O1 Sr2 2.799230 1_555
O1 Sr2 2.799230 1_455
O2 Sr1 2.505335 1_565
O2 Sr1 2.505335 1_555
O2 Sr3 2.751247 1_555
O2 Sr3 2.751247 1_565
O3 Sr1 2.505335 1_655
O3 Sr1 2.505335 1_555
O3 Sr3 2.751247 1_555
O3 Sr3 2.751247 1_655
O4 Sr3 2.582634 1_555
O4 Sr2 2.766240 1_545
O4 Sr2 2.766240 1_555
O4 Sr2 2.766240 1_445
O4 Sr2 2.766240 1_455
O5 Sr2 2.370707 1_555
O5 Sr3 2.792119 1_655
O5 Sr3 2.792119 1_665
O5 Sr3 2.792119 1_555
O5 Sr3 2.792119 1_565
