# generated using pymatgen
data_MnTeN2
_symmetry_space_group_name_H-M   'P 1'
_cell_length_a   5.44269000
_cell_length_b   8.17491300
_cell_length_c   5.93556700
_cell_angle_alpha   90.00000000
_cell_angle_beta   90.00000000
_cell_angle_gamma   90.00000000
_symmetry_Int_Tables_number   1
_chemical_formula_structural   MnTeN2
_chemical_formula_sum   'Mn4 Te4 N8'
_cell_volume   264.09425262
_cell_formula_units_Z   4
loop_
 _symmetry_equiv_pos_site_id
 _symmetry_equiv_pos_as_xyz
  1  'x, y, z'
loop_
 _atom_site_type_symbol
 _atom_site_label
 _atom_site_symmetry_multiplicity
 _atom_site_fract_x
 _atom_site_fract_y
 _atom_site_fract_z
 _atom_site_occupancy
  Mn  Mn0  1  0.47215800  0.89422800  0.99248600  1
  Mn  Mn1  1  0.52784200  0.10577200  0.49248600  1
  Mn  Mn2  1  0.02784200  0.39422800  0.49248600  1
  Mn  Mn3  1  0.97215800  0.60577200  0.99248600  1
  Te  Te0  1  0.52745700  0.48832200  0.99278800  1
  Te  Te1  1  0.47254300  0.51167800  0.49278800  1
  Te  Te2  1  0.97254300  0.98832200  0.49278800  1
  Te  Te3  1  0.02745700  0.01167800  0.99278800  1
  N  N0  1  0.49935000  0.99951000  0.24339300  1
  N  N1  1  0.50065000  0.00049000  0.74339300  1
  N  N2  1  0.00065000  0.49951000  0.74339300  1
  N  N3  1  0.99935000  0.50049000  0.24339300  1
  N  N4  1  0.68594500  0.29969400  0.49333300  1
  N  N5  1  0.31405500  0.70030600  0.99333300  1
  N  N6  1  0.81405500  0.79969400  0.99333300  1
  N  N7  1  0.18594500  0.20030600  0.49333300  1
loop_
_geom_bond_atom_site_label_1
_geom_bond_atom_site_label_2
_geom_bond_distance
_geom_bond_site_symmetry_2
Mn0 N1 1.721814 1_565
Mn0 N0 1.726441 1_556
Mn0 N5 1.803790 1_555
Mn0 N6 2.014939 1_555
Mn1 N0 1.721814 1_545
Mn1 N1 1.726441 1_555
Mn1 N4 1.803790 1_555
Mn1 N7 2.014939 1_555
Mn2 N3 1.721814 1_455
Mn2 N2 1.726441 1_555
Mn2 N7 1.803790 1_555
Mn2 N4 2.014939 1_455
Mn3 N2 1.721814 1_655
Mn3 N3 1.726441 1_556
Mn3 N6 1.803790 1_555
Mn3 N5 2.014939 1_655
N4 Te1 2.086185 1_555
N5 Te0 2.086185 1_555
N6 Te3 2.086185 1_665
N7 Te2 2.086185 1_445
