# generated using pymatgen
data_Mn2B4W
_symmetry_space_group_name_H-M   'P 1'
_cell_length_a   6.79107181
_cell_length_b   6.79107181
_cell_length_c   6.79107181
_cell_angle_alpha   154.28475617
_cell_angle_beta   153.65449081
_cell_angle_gamma   37.14633688
_symmetry_Int_Tables_number   1
_chemical_formula_structural   Mn2B4W
_chemical_formula_sum   'Mn2 B4 W1'
_cell_volume   60.22178227
_cell_formula_units_Z   1
loop_
 _symmetry_equiv_pos_site_id
 _symmetry_equiv_pos_as_xyz
  1  'x, y, z'
loop_
 _atom_site_type_symbol
 _atom_site_label
 _atom_site_symmetry_multiplicity
 _atom_site_fract_x
 _atom_site_fract_y
 _atom_site_fract_z
 _atom_site_occupancy
  Mn  Mn0  1  0.18636800  0.18636800  0.00000000  1
  Mn  Mn1  1  0.81363200  0.81363200  0.00000000  1
  B  B0  1  0.35198900  0.35198900  0.00000000  1
  B  B1  1  0.64801100  0.64801100  0.00000000  1
  B  B2  1  0.42756100  0.92756100  0.50000000  1
  B  B3  1  0.57243900  0.07243900  0.50000000  1
  W  W0  1  0.00000000  0.50000000  0.50000000  1
loop_
_geom_bond_atom_site_label_1
_geom_bond_atom_site_label_2
_geom_bond_distance
_geom_bond_site_symmetry_2
B0 B2 1.797340 1_555
B0 B2 1.797340 1_544
B0 Mn0 2.132330 1_555
B0 Mn1 2.218718 1_455
B0 Mn1 2.218718 1_556
B0 Mn1 2.218718 1_444
B0 Mn1 2.218718 1_545
B0 W0 2.454874 1_554
B0 W0 2.454874 1_655
B1 B3 1.797340 1_554
B1 B3 1.797340 1_565
B1 Mn1 2.132330 1_555
B1 Mn0 2.218718 1_554
B1 Mn0 2.218718 1_655
B1 Mn0 2.218718 1_666
B1 Mn0 2.218718 1_565
B1 W0 2.454874 1_655
B1 W0 2.454874 1_554
B2 B3 1.865269 1_565
B2 Mn1 2.132276 1_455
B2 Mn1 2.132276 1_556
B2 W0 2.355555 1_655
B2 W0 2.355555 1_666
B2 W0 2.355555 1_565
B2 W0 2.355555 1_554
B3 Mn0 2.132276 1_555
B3 Mn0 2.132276 1_656
B3 W0 2.355555 1_645
B3 W0 2.355555 1_656
B3 W0 2.355555 1_544
B3 W0 2.355555 1_555
