# generated using pymatgen
data_Ba5LiGaN3F5
_symmetry_space_group_name_H-M   'P 1'
_cell_length_a   5.79322400
_cell_length_b   12.35912900
_cell_length_c   15.59964100
_cell_angle_alpha   90.00000000
_cell_angle_beta   90.00000000
_cell_angle_gamma   90.00000000
_symmetry_Int_Tables_number   1
_chemical_formula_structural   Ba5LiGaN3F5
_chemical_formula_sum   'Ba20 Li4 Ga4 N12 F20'
_cell_volume   1116.92185866
_cell_formula_units_Z   4
loop_
 _symmetry_equiv_pos_site_id
 _symmetry_equiv_pos_as_xyz
  1  'x, y, z'
loop_
 _atom_site_type_symbol
 _atom_site_label
 _atom_site_symmetry_multiplicity
 _atom_site_fract_x
 _atom_site_fract_y
 _atom_site_fract_z
 _atom_site_occupancy
  Ba  Ba0  1  0.25000000  0.81694200  0.93528000  1
  Ba  Ba1  1  0.25000000  0.68305800  0.43528000  1
  Ba  Ba2  1  0.75000000  0.18305800  0.06472000  1
  Ba  Ba3  1  0.75000000  0.31694200  0.56472000  1
  Ba  Ba4  1  0.75000000  0.62062600  0.01115200  1
  Ba  Ba5  1  0.75000000  0.87937400  0.51115200  1
  Ba  Ba6  1  0.25000000  0.37937400  0.98884800  1
  Ba  Ba7  1  0.25000000  0.12062600  0.48884800  1
  Ba  Ba8  1  0.75000000  0.03063000  0.84292700  1
  Ba  Ba9  1  0.75000000  0.46937000  0.34292700  1
  Ba  Ba10  1  0.25000000  0.96937000  0.15707300  1
  Ba  Ba11  1  0.25000000  0.53063000  0.65707300  1
  Ba  Ba12  1  0.75000000  0.72150900  0.74467700  1
  Ba  Ba13  1  0.75000000  0.77849100  0.24467700  1
  Ba  Ba14  1  0.25000000  0.27849100  0.25532300  1
  Ba  Ba15  1  0.25000000  0.22150900  0.75532300  1
  Ba  Ba16  1  0.25000000  0.86652400  0.66427000  1
  Ba  Ba17  1  0.25000000  0.63347600  0.16427000  1
  Ba  Ba18  1  0.75000000  0.13347600  0.33573000  1
  Ba  Ba19  1  0.75000000  0.36652400  0.83573000  1
  Li  Li0  1  0.25000000  0.09832300  0.95777100  1
  Li  Li1  1  0.25000000  0.40167700  0.45777100  1
  Li  Li2  1  0.75000000  0.90167700  0.04222900  1
  Li  Li3  1  0.75000000  0.59832300  0.54222900  1
  Ga  Ga0  1  0.25000000  0.57551200  0.85885100  1
  Ga  Ga1  1  0.25000000  0.92448800  0.35885100  1
  Ga  Ga2  1  0.75000000  0.42448800  0.14114900  1
  Ga  Ga3  1  0.75000000  0.07551200  0.64114900  1
  N  N0  1  0.25000000  0.60161100  0.97961000  1
  N  N1  1  0.25000000  0.89838900  0.47961000  1
  N  N2  1  0.75000000  0.39838900  0.02039000  1
  N  N3  1  0.75000000  0.10161100  0.52039000  1
  N  N4  1  0.25000000  0.69721200  0.78164900  1
  N  N5  1  0.25000000  0.80278800  0.28164900  1
  N  N6  1  0.75000000  0.30278800  0.21835100  1
  N  N7  1  0.75000000  0.19721200  0.71835100  1
  N  N8  1  0.25000000  0.42740300  0.81583400  1
  N  N9  1  0.25000000  0.07259700  0.31583400  1
  N  N10  1  0.75000000  0.57259700  0.18416600  1
  N  N11  1  0.75000000  0.92740300  0.68416600  1
  F  F0  1  0.01216200  0.19895400  0.91104100  1
  F  F1  1  0.48783800  0.30104600  0.41104100  1
  F  F2  1  0.51216200  0.80104600  0.08895900  1
  F  F3  1  0.98783800  0.69895400  0.58895900  1
  F  F4  1  0.98783800  0.80104600  0.08895900  1
  F  F5  1  0.51216200  0.69895400  0.58895900  1
  F  F6  1  0.48783800  0.19895400  0.91104100  1
  F  F7  1  0.01216200  0.30104600  0.41104100  1
  F  F8  1  0.00000000  0.00000000  0.00000000  1
  F  F9  1  0.50000000  0.50000000  0.50000000  1
  F  F10  1  0.50000000  0.00000000  0.00000000  1
  F  F11  1  0.00000000  0.50000000  0.50000000  1
  F  F12  1  0.75000000  0.81449300  0.90724700  1
  F  F13  1  0.75000000  0.68550700  0.40724700  1
  F  F14  1  0.25000000  0.18550700  0.09275300  1
  F  F15  1  0.25000000  0.31449300  0.59275300  1
  F  F16  1  0.75000000  0.50653400  0.67804400  1
  F  F17  1  0.75000000  0.99346600  0.17804400  1
  F  F18  1  0.25000000  0.49346600  0.32195600  1
  F  F19  1  0.25000000  0.00653400  0.82195600  1
loop_
_geom_bond_atom_site_label_1
_geom_bond_atom_site_label_2
_geom_bond_distance
_geom_bond_site_symmetry_2
Ba0 N0 2.749682 1_555
Ba0 N4 2.816615 1_555
Ba0 F2 2.844726 1_556
Ba0 F4 2.844726 1_456
Ba0 F10 2.869760 1_566
Ba0 F8 2.869760 1_566
Ba0 F12 2.929593 1_455
Ba0 F12 2.929593 1_555
Ba0 F19 2.935254 1_565
Ba1 N1 2.749682 1_555
Ba1 N5 2.816615 1_555
Ba1 F5 2.844726 1_555
Ba1 F3 2.844726 1_455
Ba1 F9 2.869760 1_555
Ba1 F11 2.869760 1_555
Ba1 F13 2.929593 1_555
Ba1 F13 2.929593 1_455
Ba1 F18 2.935254 1_555
Ba2 N2 2.749682 1_555
Ba2 N6 2.816615 1_555
Ba2 F6 2.844726 1_554
Ba2 F0 2.844726 1_654
Ba2 F8 2.869760 1_655
Ba2 F10 2.869760 1_555
Ba2 F14 2.929593 1_655
Ba2 F14 2.929593 1_555
Ba2 F17 2.935254 1_545
Ba3 N3 2.749682 1_555
Ba3 N7 2.816615 1_555
Ba3 F7 2.844726 1_655
Ba3 F1 2.844726 1_555
Ba3 F9 2.869760 1_555
Ba3 F11 2.869760 1_655
Ba3 F15 2.929593 1_555
Ba3 F15 2.929593 1_655
Ba3 F16 2.935254 1_555
Ba4 N2 2.750434 1_555
Ba4 N10 2.763462 1_555
Ba4 F4 2.888571 1_555
Ba4 F2 2.888571 1_555
Ba4 F12 2.892784 1_554
Ba4 N0 2.947490 1_654
Ba4 N0 2.947490 1_554
Ba5 N3 2.750434 1_565
Ba5 N11 2.763462 1_555
Ba5 F5 2.888571 1_555
Ba5 F3 2.888571 1_555
Ba5 F13 2.892784 1_555
Ba5 N1 2.947490 1_655
Ba5 N1 2.947490 1_555
Ba6 N0 2.750434 1_555
Ba6 N8 2.763462 1_555
Ba6 F6 2.888571 1_555
Ba6 F0 2.888571 1_555
Ba6 F14 2.892784 1_556
Ba6 N2 2.947490 1_456
Ba6 N2 2.947490 1_556
Ba7 N1 2.750434 1_545
Ba7 N9 2.763462 1_555
Ba7 F7 2.888571 1_555
Ba7 F1 2.888571 1_555
Ba7 F15 2.892784 1_555
Ba7 N3 2.947490 1_555
Ba7 N3 2.947490 1_455
Ba8 N11 2.785906 1_545
Ba8 F6 2.786300 1_555
Ba8 F0 2.786300 1_655
Ba8 N7 2.831124 1_555
Ba8 F12 2.853490 1_545
Ba8 F10 2.871373 1_556
Ba8 F8 2.871373 1_656
Ba8 F19 2.930200 1_555
Ba8 F19 2.930200 1_655
Ba9 N10 2.785906 1_555
Ba9 F1 2.786300 1_555
Ba9 F7 2.786300 1_655
Ba9 N6 2.831124 1_555
Ba9 F13 2.853490 1_555
Ba9 F11 2.871373 1_655
Ba9 F9 2.871373 1_555
Ba9 F18 2.930200 1_655
Ba9 F18 2.930200 1_555
Ba10 N9 2.785906 1_565
Ba10 F2 2.786300 1_555
Ba10 F4 2.786300 1_455
Ba10 N5 2.831124 1_555
Ba10 F14 2.853490 1_565
Ba10 F10 2.871373 1_565
Ba10 F8 2.871373 1_565
Ba10 F17 2.930200 1_555
Ba10 F17 2.930200 1_455
Ba11 N8 2.785906 1_555
Ba11 F5 2.786300 1_555
Ba11 F3 2.786300 1_455
Ba11 N4 2.831124 1_555
Ba11 F15 2.853490 1_555
Ba11 F11 2.871373 1_555
Ba11 F9 2.871373 1_555
Ba11 F16 2.930200 1_455
Ba11 F16 2.930200 1_555
Ba12 N11 2.714109 1_555
Ba12 F12 2.784265 1_555
Ba12 F5 2.806585 1_555
Ba12 F3 2.806585 1_555
Ba12 F16 2.852998 1_555
Ba12 N4 2.968699 1_655
Ba12 N4 2.968699 1_555
Ba13 N10 2.714109 1_555
Ba13 F13 2.784265 1_555
Ba13 F2 2.806585 1_555
Ba13 F4 2.806585 1_555
Ba13 F17 2.852998 1_555
Ba13 N5 2.968699 1_655
Ba13 N5 2.968699 1_555
Ba14 N9 2.714109 1_555
Ba14 F14 2.784265 1_555
Ba14 F7 2.806585 1_555
Ba14 F1 2.806585 1_555
Ba14 F18 2.852998 1_555
Ba14 N6 2.968699 1_555
Ba14 N6 2.968699 1_455
Ba15 N8 2.714109 1_555
Ba15 F15 2.784265 1_555
Ba15 F0 2.806585 1_555
Ba15 F6 2.806585 1_555
Ba15 F19 2.852998 1_555
Ba15 N7 2.968699 1_455
Ba15 N7 2.968699 1_555
Ba16 N4 2.780572 1_555
Ba16 F5 2.824177 1_555
Ba16 F3 2.824177 1_455
Ba16 N1 2.907426 1_555
Ba16 F19 3.007512 1_565
Ba16 N11 3.008789 1_455
Ba16 N11 3.008789 1_555
Ba17 N5 2.780572 1_555
Ba17 F2 2.824177 1_555
Ba17 F4 2.824177 1_455
Ba17 N0 2.907426 1_554
Ba17 F18 3.007512 1_555
Ba17 N10 3.008789 1_555
Ba17 N10 3.008789 1_455
Ba18 N6 2.780572 1_555
Ba18 F1 2.824177 1_555
Ba18 F7 2.824177 1_655
Ba18 N3 2.907426 1_555
Ba18 F17 3.007512 1_545
Ba18 N9 3.008789 1_555
Ba18 N9 3.008789 1_655
Ba19 N7 2.780572 1_555
Ba19 F0 2.824177 1_655
Ba19 F6 2.824177 1_555
Ba19 N2 2.907426 1_556
Ba19 F16 3.007512 1_555
Ba19 N8 3.008789 1_655
Ba19 N8 3.008789 1_555
Ga0 N0 1.911213 1_555
Ga0 N4 1.926845 1_555
Ga0 N8 1.949623 1_555
Ga1 N1 1.911213 1_555
Ga1 N5 1.926845 1_555
Ga1 N9 1.949623 1_565
Ga2 N2 1.911213 1_555
Ga2 N6 1.926845 1_555
Ga2 N10 1.949623 1_555
Ga3 N3 1.911213 1_555
Ga3 N7 1.926845 1_555
Ga3 N11 1.949623 1_545
F0 Li0 1.994163 1_555
F1 Li1 1.994163 1_555
F2 Li2 1.994163 1_555
F3 Li3 1.994163 1_555
F4 Li2 1.994163 1_555
F5 Li3 1.994163 1_555
F6 Li0 1.994163 1_555
F7 Li1 1.994163 1_555
F8 Li0 2.002056 1_554
F8 Li2 2.002056 1_445
F9 Li1 2.002056 1_555
F9 Li3 2.002056 1_555
F10 Li0 2.002056 1_554
F10 Li2 2.002056 1_545
F11 Li1 2.002056 1_555
F11 Li3 2.002056 1_455
F12 Li2 2.365353 1_556
F13 Li3 2.365353 1_555
F14 Li0 2.365353 1_554
F15 Li1 2.365353 1_555
F16 Li3 2.403264 1_555
F17 Li2 2.403264 1_555
F18 Li1 2.403264 1_555
F19 Li0 2.403264 1_555
