# generated using pymatgen
data_BiB4(HO3)3
_symmetry_space_group_name_H-M   'P 1'
_cell_length_a   4.35930900
_cell_length_b   8.70748244
_cell_length_c   10.69232536
_cell_angle_alpha   111.70004737
_cell_angle_beta   96.81291545
_cell_angle_gamma   90.36577500
_symmetry_Int_Tables_number   1
_chemical_formula_structural   BiB4(HO3)3
_chemical_formula_sum   'Bi2 B8 H6 O18'
_cell_volume   373.88442782
_cell_formula_units_Z   2
loop_
 _symmetry_equiv_pos_site_id
 _symmetry_equiv_pos_as_xyz
  1  'x, y, z'
loop_
 _atom_site_type_symbol
 _atom_site_label
 _atom_site_symmetry_multiplicity
 _atom_site_fract_x
 _atom_site_fract_y
 _atom_site_fract_z
 _atom_site_occupancy
  Bi  Bi0  1  0.96678800  0.51821800  0.90545500  1
  Bi  Bi1  1  0.22279900  0.14610700  0.97544800  1
  B  B0  1  0.96067400  0.03897500  0.41941400  1
  B  B1  1  0.08804600  0.93099700  0.17939000  1
  B  B2  1  0.83215200  0.19823000  0.27885100  1
  B  B3  1  0.10089900  0.73493000  0.70137700  1
  B  B4  1  0.37826500  0.47572700  0.60721800  1
  B  B5  1  0.21469400  0.62253900  0.46001200  1
  B  B6  1  0.63674600  0.88832000  0.80514000  1
  B  B7  1  0.55435300  0.77781000  0.07513000  1
  H  H0  1  0.65051600  0.28667500  0.55662300  1
  H  H1  1  0.57104000  0.39183200  0.33286900  1
  H  H2  1  0.00601200  0.92317300  0.55045300  1
  H  H3  1  0.13364600  0.72843300  0.32407000  1
  H  H4  1  0.90337500  0.43048200  0.13880800  1
  H  H5  1  0.25184400  0.21927800  0.73737100  1
  O  O0  1  0.99147200  0.09550700  0.18051900  1
  O  O1  1  0.20744700  0.57376800  0.70298600  1
  O  O2  1  0.07876400  0.92088800  0.31443000  1
  O  O3  1  0.87575100  0.79589400  0.07705400  1
  O  O4  1  0.39935000  0.91329500  0.14228400  1
  O  O5  1  0.83681100  0.18026400  0.40356600  1
  O  O6  1  0.54346500  0.35435300  0.63315200  1
  O  O7  1  0.67483400  0.32293700  0.25518600  1
  O  O8  1  0.09278900  0.73995300  0.56398400  1
  O  O9  1  0.37173200  0.49236400  0.48182200  1
  O  O10  1  0.31389200  0.87365900  0.79882900  1
  O  O11  1  0.79262200  0.75161300  0.74178900  1
  O  O12  1  0.95113400  0.03119600  0.54364000  1
  O  O13  1  0.19471500  0.62225800  0.33192800  1
  O  O14  1  0.43715700  0.62034200  0.99891300  1
  O  O15  1  0.75561800  0.04494700  0.88248900  1
  O  O16  1  0.95720500  0.38374900  0.04604800  1
  O  O17  1  0.23471200  0.27862800  0.83365200  1
loop_
_geom_bond_atom_site_label_1
_geom_bond_atom_site_label_2
_geom_bond_distance
_geom_bond_site_symmetry_2
Bi0 O14 2.197104 1_655
Bi0 O16 2.224507 1_556
Bi0 O17 2.316317 1_655
Bi0 O3 2.504878 1_556
Bi0 O14 2.652636 1_555
Bi0 O1 2.707020 1_655
Bi1 O15 2.181948 1_455
Bi1 O17 2.223633 1_555
Bi1 O16 2.296745 1_456
Bi1 O10 2.495783 1_545
Bi1 O15 2.661821 1_555
Bi1 O0 2.693006 1_456
B0 O12 1.360223 1_555
B0 O2 1.368453 1_645
B0 O5 1.405266 1_555
B1 O4 1.451895 1_555
B1 O2 1.483918 1_555
B1 O0 1.491799 1_465
B1 O3 1.493868 1_455
B2 O0 1.368793 1_555
B2 O7 1.372958 1_555
B2 O5 1.396772 1_555
B3 O11 1.451777 1_455
B3 O8 1.482054 1_555
B3 O1 1.486475 1_555
B3 O10 1.494124 1_555
B4 O1 1.369093 1_555
B4 O6 1.375330 1_555
B4 O9 1.397892 1_555
B5 O13 1.361024 1_555
B5 O8 1.367538 1_555
B5 O9 1.405470 1_555
B6 O11 1.364117 1_555
B6 O15 1.366653 1_565
B6 O10 1.403740 1_555
B7 O4 1.364842 1_555
B7 O14 1.367900 1_554
B7 O3 1.405765 1_555
H0 O6 0.985975 1_555
H1 O7 0.989283 1_555
H2 O12 0.998344 1_465
H2 O8 1.695493 1_555
H3 O13 0.993953 1_555
H4 O16 0.980990 1_555
H5 O17 0.978653 1_555
