# generated using pymatgen
data_Sr2Li4MnS3O2
_symmetry_space_group_name_H-M   'P 1'
_cell_length_a   4.46303300
_cell_length_b   4.46303300
_cell_length_c   9.81948500
_cell_angle_alpha   90.00000000
_cell_angle_beta   90.00000000
_cell_angle_gamma   90.00000000
_symmetry_Int_Tables_number   1
_chemical_formula_structural   Sr2Li4MnS3O2
_chemical_formula_sum   'Sr2 Li4 Mn1 S3 O2'
_cell_volume   195.59101804
_cell_formula_units_Z   1
loop_
 _symmetry_equiv_pos_site_id
 _symmetry_equiv_pos_as_xyz
  1  'x, y, z'
loop_
 _atom_site_type_symbol
 _atom_site_label
 _atom_site_symmetry_multiplicity
 _atom_site_fract_x
 _atom_site_fract_y
 _atom_site_fract_z
 _atom_site_occupancy
  Sr  Sr0  1  0.50000000  0.50000000  0.14633300  1
  Sr  Sr1  1  0.50000000  0.50000000  0.85366700  1
  Li  Li0  1  0.00000000  0.50000000  0.37610300  1
  Li  Li1  1  0.00000000  0.50000000  0.62389700  1
  Li  Li2  1  0.50000000  0.00000000  0.62389700  1
  Li  Li3  1  0.50000000  0.00000000  0.37610300  1
  Mn  Mn0  1  0.00000000  0.00000000  0.00000000  1
  S  S0  1  0.00000000  0.00000000  0.69182400  1
  S  S1  1  0.00000000  0.00000000  0.30817600  1
  S  S2  1  0.50000000  0.50000000  0.50000000  1
  O  O0  1  0.50000000  0.00000000  0.00000000  1
  O  O1  1  0.00000000  0.50000000  0.00000000  1
loop_
_geom_bond_atom_site_label_1
_geom_bond_atom_site_label_2
_geom_bond_distance
_geom_bond_site_symmetry_2
Li0 S1 2.329070 1_565
Li0 S1 2.329070 1_555
Li0 S2 2.541612 1_455
Li0 S2 2.541612 1_555
Li1 S0 2.329070 1_555
Li1 S0 2.329070 1_565
Li1 S2 2.541612 1_455
Li1 S2 2.541612 1_555
Li2 S0 2.329070 1_655
Li2 S0 2.329070 1_555
Li2 S2 2.541612 1_545
Li2 S2 2.541612 1_555
Li3 S1 2.329070 1_555
Li3 S1 2.329070 1_655
Li3 S2 2.541612 1_545
Li3 S2 2.541612 1_555
Mn0 O0 2.231517 1_555
Mn0 O1 2.231517 1_555
Mn0 O1 2.231517 1_545
Mn0 O0 2.231517 1_455
O0 Sr0 2.654127 1_545
O0 Sr0 2.654127 1_555
O0 Sr1 2.654127 1_554
O0 Sr1 2.654127 1_544
O1 Sr0 2.654127 1_455
O1 Sr0 2.654127 1_555
O1 Sr1 2.654127 1_454
O1 Sr1 2.654127 1_554
