# generated using pymatgen
data_FeSO5
_symmetry_space_group_name_H-M   'P 1'
_cell_length_a   5.26419255
_cell_length_b   5.26419255
_cell_length_c   7.43583578
_cell_angle_alpha   110.27451312
_cell_angle_beta   110.27451312
_cell_angle_gamma   98.41416830
_symmetry_Int_Tables_number   1
_chemical_formula_structural   FeSO5
_chemical_formula_sum   'Fe2 S2 O10'
_cell_volume   172.80762102
_cell_formula_units_Z   2
loop_
 _symmetry_equiv_pos_site_id
 _symmetry_equiv_pos_as_xyz
  1  'x, y, z'
loop_
 _atom_site_type_symbol
 _atom_site_label
 _atom_site_symmetry_multiplicity
 _atom_site_fract_x
 _atom_site_fract_y
 _atom_site_fract_z
 _atom_site_occupancy
  Fe  Fe0  1  0.00000000  0.50000000  0.50000000  1
  Fe  Fe1  1  0.50000000  0.00000000  0.00000000  1
  S  S0  1  0.08925400  0.91074600  0.25000000  1
  S  S1  1  0.91074600  0.08925400  0.75000000  1
  O  O0  1  0.67477300  0.32522700  0.25000000  1
  O  O1  1  0.32522700  0.67477300  0.75000000  1
  O  O2  1  0.77239500  0.80901600  0.12398400  1
  O  O3  1  0.19098400  0.22760500  0.37601600  1
  O  O4  1  0.22760500  0.19098400  0.87601600  1
  O  O5  1  0.80901600  0.77239500  0.62398400  1
  O  O6  1  0.16568500  0.77340200  0.39494100  1
  O  O7  1  0.22659800  0.83431500  0.10505900  1
  O  O8  1  0.83431500  0.22659800  0.60505900  1
  O  O9  1  0.77340200  0.16568500  0.89494100  1
loop_
_geom_bond_atom_site_label_1
_geom_bond_atom_site_label_2
_geom_bond_distance
_geom_bond_site_symmetry_2
Fe0 O1 1.838848 1_555
Fe0 O0 1.838848 1_455
Fe0 O5 2.016183 1_455
Fe0 O3 2.016183 1_555
Fe0 O6 2.080015 1_555
Fe0 O8 2.080015 1_455
Fe1 O0 1.838848 1_555
Fe1 O1 1.838848 1_544
Fe1 O2 2.016183 1_545
Fe1 O4 2.016183 1_554
Fe1 O9 2.080015 1_554
Fe1 O7 2.080015 1_545
O2 S0 1.501558 1_655
O3 S0 1.501558 1_545
O4 S1 1.501558 1_455
O5 S1 1.501558 1_565
O6 S0 1.473371 1_555
O7 S0 1.473371 1_555
O8 S1 1.473371 1_555
O9 S1 1.473371 1_555
