# generated using pymatgen
data_YbAgPb
_symmetry_space_group_name_H-M   'P 1'
_cell_length_a   4.83202095
_cell_length_b   4.83202095
_cell_length_c   8.18244354
_cell_angle_alpha   89.91340314
_cell_angle_beta   90.08659686
_cell_angle_gamma   119.91198208
_symmetry_Int_Tables_number   1
_chemical_formula_structural   YbAgPb
_chemical_formula_sum   'Yb2 Ag2 Pb2'
_cell_volume   165.59800826
_cell_formula_units_Z   2
loop_
 _symmetry_equiv_pos_site_id
 _symmetry_equiv_pos_as_xyz
  1  'x, y, z'
loop_
 _atom_site_type_symbol
 _atom_site_label
 _atom_site_symmetry_multiplicity
 _atom_site_fract_x
 _atom_site_fract_y
 _atom_site_fract_z
 _atom_site_occupancy
  Yb  Yb0  1  0.00020200  0.99979800  0.71247900  1
  Yb  Yb1  1  0.99979800  0.00020200  0.28752100  1
  Ag  Ag0  1  0.66699500  0.33300500  0.51339800  1
  Ag  Ag1  1  0.33300500  0.66699500  0.48660200  1
  Pb  Pb0  1  0.33337000  0.66663000  0.08550500  1
  Pb  Pb1  1  0.66663000  0.33337000  0.91449500  1
loop_
_geom_bond_atom_site_label_1
_geom_bond_atom_site_label_2
_geom_bond_distance
_geom_bond_site_symmetry_2
Ag0 Ag1 2.798298 1_655
Ag0 Ag1 2.798298 1_545
Ag0 Ag1 2.802232 1_555
Ag0 Yb0 3.226096 1_645
Ag0 Yb0 3.234354 1_655
Ag0 Yb0 3.234354 1_545
Ag0 Pb1 3.281960 1_555
Ag0 Yb1 3.344411 1_555
Ag0 Yb1 3.349018 1_455
Ag0 Yb1 3.349018 1_565
Ag1 Yb1 3.226096 1_465
Ag1 Yb1 3.234354 1_565
Ag1 Yb1 3.234354 1_455
Ag1 Pb0 3.281960 1_555
Ag1 Yb0 3.344411 1_555
Ag1 Yb0 3.349018 1_545
Ag1 Yb0 3.349018 1_655
Pb0 Pb1 3.121552 1_554
Pb0 Pb1 3.122419 1_564
Pb0 Pb1 3.122419 1_454
Pb0 Yb1 3.242742 1_455
Pb0 Yb1 3.242742 1_565
Pb0 Yb1 3.245845 1_465
Pb1 Yb0 3.242742 1_545
Pb1 Yb0 3.242742 1_655
Pb1 Yb0 3.245845 1_645
