# generated using pymatgen
data_CaMoO4
_symmetry_space_group_name_H-M   'P 1'
_cell_length_a   5.23044958
_cell_length_b   5.22923698
_cell_length_c   6.78616531
_cell_angle_alpha   112.66334552
_cell_angle_beta   112.67534880
_cell_angle_gamma   90.01305517
_symmetry_Int_Tables_number   1
_chemical_formula_structural   CaMoO4
_chemical_formula_sum   'Ca2 Mo2 O8'
_cell_volume   155.60806378
_cell_formula_units_Z   2
loop_
 _symmetry_equiv_pos_site_id
 _symmetry_equiv_pos_as_xyz
  1  'x, y, z'
loop_
 _atom_site_type_symbol
 _atom_site_label
 _atom_site_symmetry_multiplicity
 _atom_site_fract_x
 _atom_site_fract_y
 _atom_site_fract_z
 _atom_site_occupancy
  Ca  Ca0  1  0.37500242  0.12510010  0.74998830  1
  Ca  Ca1  1  0.62499658  0.87489990  0.25001170  1
  Mo  Mo0  1  0.87498263  0.62517476  0.75007962  1
  Mo  Mo1  1  0.12501637  0.37482524  0.24992038  1
  O  O0  1  0.20167191  0.55945894  0.91986488  1
  O  O1  1  0.36037468  0.70164762  0.41988566  1
  O  O2  1  0.05947883  0.21792774  0.41971779  1
  O  O3  1  0.71804268  0.86050118  0.91989901  1
  O  O4  1  0.28195732  0.13949782  0.08010099  1
  O  O5  1  0.94052117  0.78207226  0.58028221  1
  O  O6  1  0.79832709  0.44054006  0.08013612  1
  O  O7  1  0.63962532  0.29835238  0.58011434  1
loop_
_geom_bond_atom_site_label_1
_geom_bond_atom_site_label_2
_geom_bond_distance
_geom_bond_site_symmetry_2
Ca0 O6 2.443070 1_556
Ca0 O2 2.443239 1_555
Ca0 O4 2.443693 1_556
Ca0 O1 2.443860 1_545
Ca0 O5 2.469132 1_445
Ca0 O3 2.469580 1_545
Ca0 O0 2.469592 1_555
Ca0 O7 2.469807 1_555
Ca1 O0 2.443069 1_554
Ca1 O5 2.443241 1_555
Ca1 O3 2.443694 1_554
Ca1 O7 2.443858 1_565
Ca1 O2 2.469136 1_665
Ca1 O4 2.469573 1_565
Ca1 O6 2.469594 1_555
Ca1 O1 2.469803 1_555
Mo0 O5 1.775205 1_555
Mo0 O7 1.775324 1_555
Mo0 O0 1.775619 1_655
Mo0 O3 1.775721 1_555
Mo1 O2 1.775203 1_555
Mo1 O1 1.775327 1_555
Mo1 O6 1.775615 1_455
Mo1 O4 1.775727 1_555
