# generated using pymatgen
data_La3Sn13Ru4
_symmetry_space_group_name_H-M   'P 1'
_cell_length_a   9.83649007
_cell_length_b   9.83648605
_cell_length_c   9.83655584
_cell_angle_alpha   90.00005825
_cell_angle_beta   90.00004299
_cell_angle_gamma   90.00001468
_symmetry_Int_Tables_number   1
_chemical_formula_structural   La3Sn13Ru4
_chemical_formula_sum   'La6 Sn26 Ru8'
_cell_volume   951.75068911
_cell_formula_units_Z   2
loop_
 _symmetry_equiv_pos_site_id
 _symmetry_equiv_pos_as_xyz
  1  'x, y, z'
loop_
 _atom_site_type_symbol
 _atom_site_label
 _atom_site_symmetry_multiplicity
 _atom_site_fract_x
 _atom_site_fract_y
 _atom_site_fract_z
 _atom_site_occupancy
  La  La0  1  0.50000778  0.25000072  -0.00000464  1
  La  La1  1  0.74999986  0.00000151  0.50000717  1
  La  La2  1  -0.00000660  0.50000169  0.75000144  1
  La  La3  1  0.50000606  0.75000038  0.99999215  1
  La  La4  1  0.24999947  -0.00000008  0.50000705  1
  La  La5  1  -0.00000716  0.49999791  0.24999846  1
  Sn  Sn0  1  0.49999277  0.20133257  0.65437151  1
  Sn  Sn1  1  0.79864644  0.34564095  0.49998941  1
  Sn  Sn2  1  0.65436449  0.50000213  0.79867902  1
  Sn  Sn3  1  0.50000054  0.79866158  0.34564016  1
  Sn  Sn4  1  0.20132060  0.65436677  0.49999427  1
  Sn  Sn5  1  0.34563247  0.49999399  0.20134061  1
  Sn  Sn6  1  0.79866302  0.65436044  0.49999271  1
  Sn  Sn7  1  0.65436601  0.49999623  0.20132651  1
  Sn  Sn8  1  0.20133348  0.34562697  0.49999337  1
  Sn  Sn9  1  0.34563303  0.49999759  0.79865606  1
  Sn  Sn10  1  0.50000205  0.79865020  0.65436168  1
  Sn  Sn11  1  0.49999539  0.20132828  0.34563321  1
  Sn  Sn12  1  0.00000809  0.15437261  0.70133894  1
  Sn  Sn13  1  0.29866921  0.00000474  0.84562782  1
  Sn  Sn14  1  0.15436791  0.29865871  0.00000681  1
  Sn  Sn15  1  -0.00000042  0.84563646  0.29866858  1
  Sn  Sn16  1  0.70134236  0.00000239  0.15436200  1
  Sn  Sn17  1  0.84563733  0.70133147  0.00000745  1
  Sn  Sn18  1  0.29867291  0.00000563  0.15436860  1
  Sn  Sn19  1  0.15436133  0.70135042  0.00000514  1
  Sn  Sn20  1  0.70135298  -0.00000263  0.84563929  1
  Sn  Sn21  1  0.84563397  0.29867978  0.00001224  1
  Sn  Sn22  1  0.00000451  0.15436155  0.29865027  1
  Sn  Sn23  1  -0.00000005  0.84563688  0.70133329  1
  Sn  Sn24  1  0.50000675  0.50000318  0.49999843  1
  Sn  Sn25  1  -0.00000642  -0.00000227  0.00000259  1
  Ru  Ru0  1  0.74999389  0.24998444  0.74998894  1
  Ru  Ru1  1  0.24999556  0.74998814  0.24999266  1
  Ru  Ru2  1  0.75000602  0.74999698  0.25000114  1
  Ru  Ru3  1  0.25000584  0.24999497  0.74999927  1
  Ru  Ru4  1  0.25001449  0.75000491  0.75000913  1
  Ru  Ru5  1  0.75001021  0.25000670  0.25000496  1
  Ru  Ru6  1  0.24998620  0.25001491  0.24999915  1
  Ru  Ru7  1  0.74998766  0.75001019  0.75000116  1
loop_
_geom_bond_atom_site_label_1
_geom_bond_atom_site_label_2
_geom_bond_distance
_geom_bond_site_symmetry_2
La0 Sn0 3.433287 1_554
La0 Sn21 3.433303 1_555
La0 Sn14 3.433407 1_555
La0 Sn11 3.433430 1_555
La0 Ru0 3.477685 1_554
La0 Ru3 3.477721 1_554
La0 Ru5 3.477818 1_555
La0 Ru6 3.477914 1_555
La0 Sn2 3.503442 1_554
La0 Sn7 3.503486 1_555
La0 Sn16 3.503561 1_555
La0 Sn13 3.503568 1_554
La0 Sn18 3.503569 1_555
La0 Sn20 3.503608 1_554
La0 Sn9 3.503615 1_554
La0 Sn5 3.503624 1_555
La1 Sn20 3.433340 1_555
La1 Sn1 3.433386 1_555
La1 Sn6 3.433425 1_545
La1 Sn16 3.433480 1_555
La1 Ru0 3.477488 1_555
La1 Ru7 3.477635 1_545
La1 Ru5 3.477789 1_555
La1 Ru2 3.477807 1_545
La1 Sn23 3.503520 1_645
La1 Sn15 3.503589 1_645
La1 Sn11 3.503591 1_555
La1 Sn0 3.503591 1_555
La1 Sn3 3.503596 1_545
La1 Sn10 3.503599 1_545
La1 Sn12 3.503633 1_655
La1 Sn22 3.503705 1_655
La2 Sn12 3.433307 1_555
La2 Sn2 3.433328 1_455
La2 Sn23 3.433375 1_555
La2 Sn9 3.433401 1_555
La2 Ru7 3.477823 1_455
La2 Ru0 3.477840 1_455
La2 Ru3 3.477857 1_555
La2 Ru4 3.477892 1_555
La2 Sn17 3.503548 1_456
La2 Sn21 3.503554 1_456
La2 Sn6 3.503582 1_455
La2 Sn4 3.503583 1_555
La2 Sn19 3.503686 1_556
La2 Sn14 3.503697 1_556
La2 Sn8 3.503700 1_555
La2 Sn1 3.503703 1_455
La3 Sn10 3.433328 1_555
La3 Sn17 3.433339 1_556
La3 Sn19 3.433444 1_556
La3 Sn3 3.433513 1_556
La3 Ru7 3.477547 1_555
La3 Ru4 3.477558 1_555
La3 Ru2 3.477797 1_556
La3 Ru1 3.477814 1_556
La3 Sn2 3.503408 1_555
La3 Sn20 3.503562 1_565
La3 Sn7 3.503574 1_556
La3 Sn13 3.503605 1_565
La3 Sn16 3.503606 1_566
La3 Sn9 3.503627 1_555
La3 Sn18 3.503641 1_566
La3 Sn5 3.503727 1_556
La4 Sn13 3.433260 1_555
La4 Sn8 3.433292 1_555
La4 Sn4 3.433369 1_545
La4 Sn18 3.433438 1_555
La4 Ru3 3.477645 1_555
La4 Ru4 3.477717 1_545
La4 Ru6 3.477896 1_555
La4 Ru1 3.477916 1_545
La4 Sn0 3.503503 1_555
La4 Sn23 3.503511 1_545
La4 Sn12 3.503527 1_555
La4 Sn11 3.503541 1_555
La4 Sn15 3.503580 1_545
La4 Sn3 3.503601 1_545
La4 Sn10 3.503623 1_545
La4 Sn22 3.503642 1_555
La5 Sn7 3.433300 1_455
La5 Sn22 3.433364 1_555
La5 Sn5 3.433406 1_555
La5 Sn15 3.433410 1_555
La5 Ru5 3.477541 1_455
La5 Ru6 3.477560 1_555
La5 Ru2 3.477626 1_455
La5 Ru1 3.477674 1_555
La5 Sn21 3.503357 1_455
La5 Sn17 3.503464 1_455
La5 Sn6 3.503495 1_455
La5 Sn4 3.503519 1_555
La5 Sn1 3.503543 1_455
La5 Sn14 3.503582 1_555
La5 Sn8 3.503596 1_555
La5 Sn19 3.503642 1_555
Sn0 Sn24 3.307102 1_555
Sn1 Sn24 3.306778 1_555
Sn2 Sn24 3.307132 1_555
Sn10 Sn24 3.306849 1_555
Sn11 Sn24 3.307102 1_555
Sn12 Sn25 3.307063 1_556
Sn13 Sn25 3.307154 1_556
Sn14 Sn25 3.307017 1_555
Sn15 Sn25 3.307022 1_565
Sn16 Sn25 3.306872 1_655
Sn17 Sn25 3.306982 1_665
Sn18 Sn25 3.307145 1_555
Sn19 Sn25 3.306869 1_565
Sn20 Sn25 3.306795 1_656
Sn21 Sn25 3.307136 1_655
Sn22 Sn25 3.306871 1_555
Sn23 Sn25 3.307046 1_566
Sn24 Sn6 3.306900 1_555
Sn24 Sn3 3.306929 1_555
Sn24 Sn9 3.307005 1_555
Sn24 Sn5 3.307007 1_555
Sn24 Sn7 3.307065 1_555
Sn24 Sn8 3.307134 1_555
Sn24 Sn4 3.307190 1_555
Ru0 Sn20 2.675970 1_555
Ru0 Sn0 2.676001 1_555
Ru0 Sn12 2.676096 1_655
Ru0 Sn1 2.676138 1_555
Ru0 Sn2 2.676258 1_555
Ru0 Sn21 2.676369 1_556
Ru1 Sn19 2.675924 1_555
Ru1 Sn5 2.676004 1_555
Ru1 Sn4 2.676075 1_555
Ru1 Sn15 2.676104 1_555
Ru1 Sn3 2.676178 1_555
Ru1 Sn18 2.676218 1_565
Ru2 Sn6 2.676004 1_555
Ru2 Sn17 2.676020 1_555
Ru2 Sn15 2.676035 1_655
Ru2 Sn7 2.676114 1_555
Ru2 Sn16 2.676137 1_565
Ru2 Sn3 2.676139 1_555
Ru3 Sn0 2.675929 1_555
Ru3 Sn13 2.675962 1_555
Ru3 Sn12 2.676001 1_555
Ru3 Sn9 2.676055 1_555
Ru3 Sn8 2.676145 1_555
Ru3 Sn14 2.676165 1_556
Ru4 Sn10 2.675973 1_555
Ru4 Sn13 2.675998 1_565
Ru4 Sn9 2.676051 1_555
Ru4 Sn19 2.676098 1_556
Ru4 Sn23 2.676214 1_555
Ru4 Sn4 2.676284 1_555
Ru5 Sn1 2.675894 1_555
Ru5 Sn21 2.675999 1_555
Ru5 Sn22 2.676023 1_655
Ru5 Sn7 2.676035 1_555
Ru5 Sn16 2.676145 1_555
Ru5 Sn11 2.676211 1_555
Ru6 Sn5 2.675912 1_555
Ru6 Sn14 2.675924 1_555
Ru6 Sn8 2.675935 1_555
Ru6 Sn22 2.675948 1_555
Ru6 Sn18 2.676181 1_555
Ru6 Sn11 2.676193 1_555
Ru7 Sn20 2.675916 1_565
Ru7 Sn10 2.675917 1_555
Ru7 Sn2 2.676128 1_555
Ru7 Sn23 2.676162 1_655
Ru7 Sn17 2.676220 1_556
Ru7 Sn6 2.676234 1_555
