# generated using pymatgen
data_SmTeAs
_symmetry_space_group_name_H-M   'P 1'
_cell_length_a   4.10541699
_cell_length_b   7.68280948
_cell_length_c   10.11491719
_cell_angle_alpha   90.00000000
_cell_angle_beta   90.00000000
_cell_angle_gamma   90.00000000
_symmetry_Int_Tables_number   1
_chemical_formula_structural   SmTeAs
_chemical_formula_sum   'Sm4 Te4 As4'
_cell_volume   319.03598449
_cell_formula_units_Z   4
loop_
 _symmetry_equiv_pos_site_id
 _symmetry_equiv_pos_as_xyz
  1  'x, y, z'
loop_
 _atom_site_type_symbol
 _atom_site_label
 _atom_site_symmetry_multiplicity
 _atom_site_fract_x
 _atom_site_fract_y
 _atom_site_fract_z
 _atom_site_occupancy
  Sm  Sm0  1  0.25000000  0.72851114  0.84181259  1
  Sm  Sm1  1  0.75000000  0.27148886  0.15818741  1
  Sm  Sm2  1  0.75000000  0.77148886  0.34181259  1
  Sm  Sm3  1  0.25000000  0.22851114  0.65818741  1
  Te  Te0  1  0.25000000  0.58818888  0.14889168  1
  Te  Te1  1  0.75000000  0.41181112  0.85110832  1
  Te  Te2  1  0.75000000  0.91181112  0.64889168  1
  Te  Te3  1  0.25000000  0.08818888  0.35110832  1
  As  As0  1  0.25000000  0.59277372  0.53863129  1
  As  As1  1  0.75000000  0.40722628  0.46136871  1
  As  As2  1  0.75000000  0.90722628  0.03863129  1
  As  As3  1  0.25000000  0.09277372  0.96136871  1
loop_
_geom_bond_atom_site_label_1
_geom_bond_atom_site_label_2
_geom_bond_distance
_geom_bond_site_symmetry_2
Sm0 Te2 3.163018 1_455
Sm0 Te2 3.163018 1_555
Sm0 Te1 3.184753 1_555
Sm0 Te1 3.184753 1_455
Sm0 Te0 3.287851 1_556
Sm1 Te3 3.163018 1_555
Sm1 Te3 3.163018 1_655
Sm1 Te0 3.184753 1_555
Sm1 Te0 3.184753 1_655
Sm1 Te1 3.287851 1_554
Sm2 Te0 3.163018 1_555
Sm2 Te0 3.163018 1_655
Sm2 Te3 3.184753 1_565
Sm2 Te3 3.184753 1_665
Sm2 Te2 3.287851 1_555
Sm3 Te1 3.163018 1_455
Sm3 Te1 3.163018 1_555
Sm3 Te2 3.184753 1_545
Sm3 Te2 3.184753 1_445
Sm3 Te3 3.287851 1_555
As0 As1 2.618489 1_455
As0 As1 2.618489 1_555
As0 Sm3 3.048663 1_555
As0 Sm2 3.172088 1_455
As0 Sm2 3.172088 1_555
As0 Sm0 3.239119 1_555
As1 Sm2 3.048663 1_555
As1 Sm3 3.172088 1_555
As1 Sm3 3.172088 1_655
As1 Sm1 3.239119 1_555
As2 As3 2.618489 1_664
As2 As3 2.618489 1_564
As2 Sm1 3.048663 1_565
As2 Sm0 3.172088 1_654
As2 Sm0 3.172088 1_554
As2 Sm2 3.239119 1_555
As3 Sm0 3.048663 1_545
As3 Sm1 3.172088 1_456
As3 Sm1 3.172088 1_556
As3 Sm3 3.239119 1_555
