# generated using pymatgen
data_CaLaNbCoO6
_symmetry_space_group_name_H-M   'P 1'
_cell_length_a   5.56787922
_cell_length_b   11.48977251
_cell_length_c   7.98259672
_cell_angle_alpha   89.99039209
_cell_angle_beta   90.32584700
_cell_angle_gamma   90.02671541
_symmetry_Int_Tables_number   1
_chemical_formula_structural   CaLaNbCoO6
_chemical_formula_sum   'Ca4 La4 Nb4 Co4 O24'
_cell_volume   510.66765233
_cell_formula_units_Z   4
loop_
 _symmetry_equiv_pos_site_id
 _symmetry_equiv_pos_as_xyz
  1  'x, y, z'
loop_
 _atom_site_type_symbol
 _atom_site_label
 _atom_site_symmetry_multiplicity
 _atom_site_fract_x
 _atom_site_fract_y
 _atom_site_fract_z
 _atom_site_occupancy
  Ca  Ca0  1  0.48544200  0.27733400  0.25252000  1
  Ca  Ca1  1  0.48554200  0.77732600  0.25252000  1
  Ca  Ca2  1  0.98532200  0.47271900  0.75263200  1
  Ca  Ca3  1  0.98539800  0.97275500  0.75266400  1
  La  La0  1  0.51184100  0.22393600  0.74748800  1
  La  La1  1  0.51229800  0.72380600  0.74738500  1
  La  La2  1  0.01189800  0.02607600  0.24747200  1
  La  La3  1  0.01189100  0.52601600  0.24751500  1
  Nb  Nb0  1  0.99981300  0.25257300  0.49854500  1
  Nb  Nb1  1  0.00034300  0.75264400  0.49849500  1
  Nb  Nb2  1  0.49975300  0.49738200  0.99843100  1
  Nb  Nb3  1  0.49974700  0.99743800  0.99853100  1
  Co  Co0  1  0.00060900  0.74958300  0.00024100  1
  Co  Co1  1  0.50080600  0.50041600  0.50011200  1
  Co  Co2  1  0.00054900  0.24955500  0.00019400  1
  Co  Co3  1  0.50103400  0.00050300  0.50020300  1
  O  O0  1  0.29294200  0.15343500  0.45288200  1
  O  O1  1  0.29337000  0.65342700  0.45267300  1
  O  O2  1  0.79345800  0.09647400  0.95263600  1
  O  O3  1  0.79322200  0.59623000  0.95254800  1
  O  O4  1  0.70910300  0.35079900  0.54701000  1
  O  O5  1  0.70971600  0.85084100  0.54709100  1
  O  O6  1  0.20841200  0.39938700  0.04701900  1
  O  O7  1  0.20881200  0.89948200  0.04721400  1
  O  O8  1  0.19696500  0.39475900  0.44674000  1
  O  O9  1  0.19735400  0.89471600  0.44671400  1
  O  O10  1  0.69608500  0.35494200  0.94716000  1
  O  O11  1  0.69624500  0.85508100  0.94700100  1
  O  O12  1  0.80844200  0.10723600  0.55473100  1
  O  O13  1  0.80872000  0.60711100  0.55446700  1
  O  O14  1  0.30901100  0.14306500  0.05452800  1
  O  O15  1  0.30882000  0.64288100  0.05434700  1
  O  O16  1  0.59336200  0.48209300  0.24324800  1
  O  O17  1  0.59378900  0.98208100  0.24310600  1
  O  O18  1  0.09337800  0.26804900  0.74331800  1
  O  O19  1  0.09368400  0.76789200  0.74332700  1
  O  O20  1  0.40051400  0.01527800  0.75691700  1
  O  O21  1  0.40073100  0.51506300  0.75672100  1
  O  O22  1  0.90068200  0.23484600  0.25684100  1
  O  O23  1  0.90089600  0.73477000  0.25681200  1
loop_
_geom_bond_atom_site_label_1
_geom_bond_atom_site_label_2
_geom_bond_distance
_geom_bond_site_symmetry_2
Ca0 O22 2.363265 1_555
Ca0 O0 2.398076 1_555
Ca0 O14 2.413438 1_555
Ca0 O16 2.429107 1_555
Ca0 O8 2.614369 1_555
Ca0 O6 2.647510 1_555
Ca0 O4 2.784948 1_555
Ca0 O10 2.853630 1_554
Ca1 O23 2.364045 1_555
Ca1 O1 2.396137 1_555
Ca1 O15 2.416327 1_555
Ca1 O17 2.429549 1_555
Ca1 O9 2.613043 1_555
Ca1 O7 2.646211 1_555
Ca1 O5 2.786931 1_555
Ca1 O11 2.855384 1_554
Ca2 O21 2.363386 1_655
Ca2 O3 2.392954 1_555
Ca2 O13 2.415874 1_555
Ca2 O18 2.428882 1_655
Ca2 O10 2.619495 1_555
Ca2 O4 2.644215 1_555
Ca2 O6 2.782501 1_656
Ca2 O8 2.861448 1_655
Ca3 O20 2.362224 1_665
Ca3 O2 2.394270 1_565
Ca3 O12 2.416116 1_565
Ca3 O19 2.431353 1_655
Ca3 O11 2.617686 1_555
Ca3 O5 2.642210 1_555
Ca3 O7 2.784188 1_656
Ca3 O9 2.862855 1_655
La0 O18 2.384720 1_555
La0 O10 2.416478 1_555
La0 O4 2.431007 1_555
La0 O20 2.477227 1_555
La0 O12 2.631427 1_555
La0 O2 2.693947 1_555
La0 O0 2.763938 1_555
La0 O14 2.859338 1_556
La1 O19 2.385468 1_555
La1 O11 2.417416 1_555
La1 O5 2.431618 1_555
La1 O21 2.478483 1_555
La1 O13 2.631525 1_555
La1 O3 2.692501 1_555
La1 O1 2.764316 1_555
La1 O15 2.860448 1_556
La2 O17 2.382061 1_445
La2 O9 2.419874 1_545
La2 O7 2.428047 1_545
La2 O22 2.478886 1_455
La2 O14 2.634748 1_555
La2 O0 2.692229 1_555
La2 O2 2.764138 1_454
La2 O12 2.863925 1_455
La3 O16 2.384164 1_455
La3 O8 2.418147 1_555
La3 O6 2.428548 1_555
La3 O23 2.478382 1_455
La3 O15 2.634428 1_555
La3 O1 2.692736 1_555
La3 O3 2.764963 1_454
La3 O13 2.860941 1_455
Nb0 O8 2.012012 1_655
Nb0 O4 2.013048 1_555
Nb0 O22 2.014133 1_555
Nb0 O0 2.025529 1_655
Nb0 O18 2.027138 1_655
Nb0 O12 2.031889 1_555
Nb1 O9 2.010479 1_555
Nb1 O5 2.012695 1_455
Nb1 O23 2.014617 1_455
Nb1 O1 2.025816 1_555
Nb1 O19 2.027050 1_555
Nb1 O13 2.034095 1_455
Nb2 O10 2.011950 1_555
Nb2 O6 2.013668 1_556
Nb2 O21 2.013949 1_555
Nb2 O3 2.024587 1_555
Nb2 O16 2.027335 1_556
Nb2 O15 2.032597 1_556
Nb3 O7 2.011744 1_556
Nb3 O11 2.012106 1_555
Nb3 O20 2.013717 1_565
Nb3 O17 2.026153 1_556
Nb3 O2 2.026904 1_565
Nb3 O14 2.033376 1_566
Co0 O7 2.108128 1_555
Co0 O11 2.124936 1_454
Co0 O19 2.128522 1_554
Co0 O23 2.131820 1_455
Co0 O3 2.139212 1_454
Co0 O15 2.151247 1_555
Co1 O4 2.106446 1_555
Co1 O8 2.123047 1_555
Co1 O16 2.127551 1_555
Co1 O21 2.132593 1_555
Co1 O1 2.136552 1_555
Co1 O13 2.149446 1_555
Co2 O6 2.106255 1_555
Co2 O10 2.124331 1_454
Co2 O18 2.128100 1_554
Co2 O22 2.132537 1_455
Co2 O2 2.135563 1_454
Co2 O14 2.151331 1_555
Co3 O5 2.108033 1_545
Co3 O9 2.123372 1_545
Co3 O17 2.129734 1_545
Co3 O20 2.134178 1_555
Co3 O0 2.137617 1_555
Co3 O12 2.147726 1_555
