# generated using pymatgen
data_SrCa7Mn7FeO24
_symmetry_space_group_name_H-M   'P 1'
_cell_length_a   7.64752247
_cell_length_b   7.64752247
_cell_length_c   7.64752200
_cell_angle_alpha   90.00110721
_cell_angle_beta   90.00110721
_cell_angle_gamma   90.00110192
_symmetry_Int_Tables_number   1
_chemical_formula_structural   SrCa7Mn7FeO24
_chemical_formula_sum   'Sr1 Ca7 Mn7 Fe1 O24'
_cell_volume   447.26226494
_cell_formula_units_Z   1
loop_
 _symmetry_equiv_pos_site_id
 _symmetry_equiv_pos_as_xyz
  1  'x, y, z'
loop_
 _atom_site_type_symbol
 _atom_site_label
 _atom_site_symmetry_multiplicity
 _atom_site_fract_x
 _atom_site_fract_y
 _atom_site_fract_z
 _atom_site_occupancy
  Sr  Sr0  1  0.75011500  0.75011500  0.75011500  1
  Ca  Ca0  1  0.24994600  0.24994600  0.75011100  1
  Ca  Ca1  1  0.75005300  0.24996400  0.75005300  1
  Ca  Ca2  1  0.24986200  0.24986200  0.24986200  1
  Ca  Ca3  1  0.75011100  0.24994600  0.24994600  1
  Ca  Ca4  1  0.24996400  0.75005300  0.75005300  1
  Ca  Ca5  1  0.24994600  0.75011100  0.24994600  1
  Ca  Ca6  1  0.75005300  0.75005300  0.24996400  1
  Mn  Mn0  1  0.49941900  0.00054700  0.00054700  1
  Mn  Mn1  1  0.00054700  0.00054700  0.49941900  1
  Mn  Mn2  1  0.49944700  0.00061300  0.49944700  1
  Mn  Mn3  1  0.00054700  0.49941900  0.00054700  1
  Mn  Mn4  1  0.49944700  0.49944700  0.00061300  1
  Mn  Mn5  1  0.00061300  0.49944700  0.49944700  1
  Mn  Mn6  1  0.49948600  0.49948600  0.49948600  1
  Fe  Fe0  1  0.00052900  0.00052900  0.00052900  1
  O  O0  1  0.00052300  0.25294800  0.00052300  1
  O  O1  1  0.49964800  0.25052500  0.00036900  1
  O  O2  1  0.00036900  0.25052500  0.49964800  1
  O  O3  1  0.49966200  0.25025900  0.49966200  1
  O  O4  1  0.00263500  0.74697600  0.00263500  1
  O  O5  1  0.49720100  0.74940600  0.00282900  1
  O  O6  1  0.00282900  0.74940600  0.49720100  1
  O  O7  1  0.49716900  0.74980000  0.49716900  1
  O  O8  1  0.00263500  0.00263500  0.74697600  1
  O  O9  1  0.49720100  0.00282900  0.74940600  1
  O  O10  1  0.00052300  0.00052300  0.25294800  1
  O  O11  1  0.49964800  0.00036900  0.25052500  1
  O  O12  1  0.00282900  0.49720100  0.74940600  1
  O  O13  1  0.49716900  0.49716900  0.74980000  1
  O  O14  1  0.00036900  0.49964800  0.25052500  1
  O  O15  1  0.49966200  0.49966200  0.25025900  1
  O  O16  1  0.25294800  0.00052300  0.00052300  1
  O  O17  1  0.74697600  0.00263500  0.00263500  1
  O  O18  1  0.25052500  0.00036900  0.49964800  1
  O  O19  1  0.74940600  0.00282900  0.49720100  1
  O  O20  1  0.25052500  0.49964800  0.00036900  1
  O  O21  1  0.74940600  0.49720100  0.00282900  1
  O  O22  1  0.25025900  0.49966200  0.49966200  1
  O  O23  1  0.74980000  0.49716900  0.49716900  1
loop_
_geom_bond_atom_site_label_1
_geom_bond_atom_site_label_2
_geom_bond_distance
_geom_bond_site_symmetry_2
Ca0 O9 2.673405 1_555
Ca0 O12 2.673405 1_555
Ca0 O13 2.673749 1_555
Ca0 O8 2.674806 1_555
Ca0 O16 2.703044 1_556
Ca0 O0 2.703044 1_556
Ca0 O1 2.703570 1_556
Ca0 O20 2.703570 1_556
Ca0 O18 2.704006 1_555
Ca0 O2 2.704006 1_555
Ca0 O22 2.704730 1_555
Ca0 O3 2.704730 1_555
Ca1 O8 2.703604 1_655
Ca1 O17 2.703604 1_556
Ca1 O19 2.703892 1_555
Ca1 O9 2.703892 1_555
Ca1 O21 2.704022 1_556
Ca1 O12 2.704022 1_655
Ca1 O13 2.704490 1_555
Ca1 O23 2.704490 1_555
Ca1 O1 2.707736 1_556
Ca1 O2 2.707736 1_655
Ca1 O3 2.708011 1_555
Ca1 O0 2.708960 1_656
Ca2 O16 2.696736 1_555
Ca2 O0 2.696736 1_555
Ca2 O10 2.696737 1_555
Ca2 O11 2.699940 1_555
Ca2 O14 2.699940 1_555
Ca2 O2 2.699940 1_555
Ca2 O18 2.699940 1_555
Ca2 O1 2.699940 1_555
Ca2 O20 2.699940 1_555
Ca2 O3 2.701620 1_555
Ca2 O22 2.701620 1_555
Ca2 O15 2.701620 1_555
Ca3 O21 2.673405 1_555
Ca3 O19 2.673405 1_555
Ca3 O23 2.673749 1_555
Ca3 O17 2.674806 1_555
Ca3 O10 2.703044 1_655
Ca3 O0 2.703044 1_655
Ca3 O2 2.703570 1_655
Ca3 O14 2.703570 1_655
Ca3 O1 2.704006 1_555
Ca3 O11 2.704006 1_555
Ca3 O15 2.704730 1_555
Ca3 O3 2.704730 1_555
Ca4 O8 2.703604 1_565
Ca4 O4 2.703604 1_556
Ca4 O6 2.703892 1_555
Ca4 O12 2.703892 1_555
Ca4 O5 2.704022 1_556
Ca4 O9 2.704022 1_565
Ca4 O13 2.704490 1_555
Ca4 O7 2.704490 1_555
Ca4 O20 2.707736 1_556
Ca4 O18 2.707736 1_565
Ca4 O22 2.708011 1_555
Ca4 O16 2.708960 1_566
Ca5 O5 2.673405 1_555
Ca5 O6 2.673405 1_555
Ca5 O7 2.673749 1_555
Ca5 O4 2.674806 1_555
Ca5 O10 2.703044 1_565
Ca5 O16 2.703044 1_565
Ca5 O18 2.703570 1_565
Ca5 O11 2.703570 1_565
Ca5 O20 2.704006 1_555
Ca5 O14 2.704006 1_555
Ca5 O15 2.704730 1_555
Ca5 O22 2.704730 1_555
Ca6 O17 2.703604 1_565
Ca6 O4 2.703604 1_655
Ca6 O21 2.703892 1_555
Ca6 O5 2.703892 1_555
Ca6 O6 2.704022 1_655
Ca6 O19 2.704022 1_565
Ca6 O7 2.704490 1_555
Ca6 O23 2.704490 1_555
Ca6 O14 2.707736 1_655
Ca6 O11 2.707736 1_565
Ca6 O15 2.708011 1_555
Ca6 O10 2.708960 1_665
Mn0 O16 1.884893 1_555
Mn0 O17 1.893332 1_555
Mn0 O11 1.911714 1_555
Mn0 O1 1.911714 1_555
Mn0 O9 1.920761 1_554
Mn0 O5 1.920761 1_545
Mn1 O10 1.884892 1_555
Mn1 O8 1.893332 1_555
Mn1 O2 1.911714 1_555
Mn1 O18 1.911714 1_555
Mn1 O6 1.920761 1_545
Mn1 O19 1.920761 1_455
Mn2 O11 1.903638 1_555
Mn2 O18 1.903638 1_555
Mn2 O3 1.909175 1_555
Mn2 O9 1.911719 1_555
Mn2 O19 1.911719 1_555
Mn2 O7 1.918256 1_545
Mn3 O0 1.884893 1_555
Mn3 O4 1.893332 1_555
Mn3 O14 1.911714 1_555
Mn3 O20 1.911714 1_555
Mn3 O12 1.920761 1_554
Mn3 O21 1.920761 1_455
Mn4 O20 1.903638 1_555
Mn4 O1 1.903638 1_555
Mn4 O15 1.909175 1_555
Mn4 O21 1.911719 1_555
Mn4 O5 1.911719 1_555
Mn4 O13 1.918255 1_554
Mn5 O14 1.903638 1_555
Mn5 O2 1.903638 1_555
Mn5 O22 1.909175 1_555
Mn5 O12 1.911719 1_555
Mn5 O6 1.911719 1_555
Mn5 O23 1.918256 1_455
Mn6 O15 1.905970 1_555
Mn6 O22 1.905970 1_555
Mn6 O3 1.905970 1_555
Mn6 O13 1.914447 1_555
Mn6 O7 1.914447 1_555
Mn6 O23 1.914447 1_555
Fe0 O10 1.930380 1_555
Fe0 O0 1.930380 1_555
Fe0 O16 1.930380 1_555
Fe0 O8 1.939187 1_554
Fe0 O17 1.939187 1_455
Fe0 O4 1.939187 1_545
O4 Sr0 2.731142 1_454
O5 Sr0 2.734273 1_554
O6 Sr0 2.734273 1_455
O7 Sr0 2.735644 1_555
O8 Sr0 2.731142 1_445
O9 Sr0 2.734273 1_545
O12 Sr0 2.734273 1_455
O13 Sr0 2.735644 1_555
O17 Sr0 2.731142 1_544
O19 Sr0 2.734273 1_545
O21 Sr0 2.734273 1_554
O23 Sr0 2.735644 1_555
