# generated using pymatgen
data_La7SmMn5(FeO8)3
_symmetry_space_group_name_H-M   'P 1'
_cell_length_a   7.82906864
_cell_length_b   7.82906864
_cell_length_c   7.84236712
_cell_angle_alpha   89.97837182
_cell_angle_beta   89.97837182
_cell_angle_gamma   90.01145711
_symmetry_Int_Tables_number   1
_chemical_formula_structural   La7SmMn5(FeO8)3
_chemical_formula_sum   'La7 Sm1 Mn5 Fe3 O24'
_cell_volume   480.69244872
_cell_formula_units_Z   1
loop_
 _symmetry_equiv_pos_site_id
 _symmetry_equiv_pos_as_xyz
  1  'x, y, z'
loop_
 _atom_site_type_symbol
 _atom_site_label
 _atom_site_symmetry_multiplicity
 _atom_site_fract_x
 _atom_site_fract_y
 _atom_site_fract_z
 _atom_site_occupancy
  La  La0  1  0.75170600  0.24837600  0.24549500  1
  La  La1  1  0.24884000  0.24884000  0.24581500  1
  La  La2  1  0.75154100  0.24825100  0.75454800  1
  La  La3  1  0.24821200  0.24821200  0.75481300  1
  La  La4  1  0.24837600  0.75170600  0.24549500  1
  La  La5  1  0.75118400  0.75118400  0.75424400  1
  La  La6  1  0.24825100  0.75154100  0.75454800  1
  Sm  Sm0  1  0.75205700  0.75205700  0.24458300  1
  Mn  Mn0  1  0.99959700  0.99959700  0.49954300  1
  Mn  Mn1  1  0.50042200  0.99956600  0.49960200  1
  Mn  Mn2  1  0.50044200  0.50044200  0.00049100  1
  Mn  Mn3  1  0.99956600  0.50042200  0.49960200  1
  Mn  Mn4  1  0.50041400  0.50041400  0.49961700  1
  Fe  Fe0  1  0.99972000  0.99972000  0.00028000  1
  Fe  Fe1  1  0.50035300  0.99971800  0.00030300  1
  Fe  Fe2  1  0.99971800  0.50035300  0.00030300  1
  O  O0  1  0.99989700  0.24494000  0.99984600  1
  O  O1  1  0.50017100  0.25761400  0.00018000  1
  O  O2  1  0.99984500  0.24987800  0.49979400  1
  O  O3  1  0.50019700  0.25016900  0.49977400  1
  O  O4  1  0.99804700  0.75513800  0.00219800  1
  O  O5  1  0.50175300  0.74258200  0.00179600  1
  O  O6  1  0.99835900  0.75010800  0.49837800  1
  O  O7  1  0.50151700  0.74983300  0.49850400  1
  O  O8  1  0.99821100  0.99821100  0.25038500  1
  O  O9  1  0.50162700  0.99821300  0.25781200  1
  O  O10  1  0.99970500  0.99970500  0.74942200  1
  O  O11  1  0.50016600  0.99985300  0.74213400  1
  O  O12  1  0.99821300  0.50162700  0.25781200  1
  O  O13  1  0.50158400  0.50158400  0.24854900  1
  O  O14  1  0.99985300  0.50016600  0.74213400  1
  O  O15  1  0.50019400  0.50019400  0.75153100  1
  O  O16  1  0.75513800  0.99804700  0.00219800  1
  O  O17  1  0.24494000  0.99989700  0.99984600  1
  O  O18  1  0.75010800  0.99835900  0.49837800  1
  O  O19  1  0.24987800  0.99984500  0.49979400  1
  O  O20  1  0.74258200  0.50175300  0.00179600  1
  O  O21  1  0.25761400  0.50017100  0.00018000  1
  O  O22  1  0.74983300  0.50151700  0.49850400  1
  O  O23  1  0.25016900  0.50019700  0.49977400  1
loop_
_geom_bond_atom_site_label_1
_geom_bond_atom_site_label_2
_geom_bond_distance
_geom_bond_site_symmetry_2
La0 O0 2.735854 1_554
La0 O16 2.735885 1_545
La0 O8 2.750176 1_545
La0 O1 2.754510 1_555
La0 O20 2.755011 1_555
La0 O12 2.768367 1_555
La0 O9 2.770689 1_545
La0 O2 2.784673 1_555
La0 O18 2.785983 1_545
La0 O13 2.786863 1_555
La0 O3 2.801995 1_555
La0 O22 2.804985 1_555
La1 O0 2.742867 1_454
La1 O17 2.742867 1_544
La1 O1 2.753972 1_555
La1 O21 2.753972 1_555
La1 O8 2.774893 1_445
La1 O19 2.786497 1_545
La1 O2 2.786497 1_455
La1 O9 2.788786 1_545
La1 O12 2.788786 1_455
La1 O13 2.798189 1_555
La1 O3 2.800411 1_555
La1 O23 2.800411 1_555
La2 O0 2.735844 1_555
La2 O10 2.750350 1_545
La2 O1 2.754350 1_556
La2 O16 2.758102 1_546
La2 O11 2.768274 1_545
La2 O14 2.770704 1_555
La2 O20 2.776060 1_556
La2 O15 2.786588 1_555
La2 O2 2.787077 1_555
La2 O18 2.804761 1_545
La2 O3 2.804908 1_555
La2 O22 2.821502 1_555
La3 O0 2.733112 1_455
La3 O17 2.733112 1_545
La3 O10 2.751536 1_445
La3 O1 2.757221 1_556
La3 O21 2.757221 1_556
La3 O11 2.771859 1_545
La3 O14 2.771859 1_455
La3 O15 2.789764 1_555
La3 O19 2.789967 1_545
La3 O2 2.789967 1_455
La3 O3 2.808848 1_555
La3 O23 2.808848 1_555
La4 O17 2.735854 1_554
La4 O4 2.735885 1_455
La4 O8 2.750176 1_455
La4 O21 2.754510 1_555
La4 O5 2.755011 1_555
La4 O9 2.768367 1_555
La4 O12 2.770689 1_455
La4 O19 2.784673 1_555
La4 O6 2.785983 1_455
La4 O13 2.786863 1_555
La4 O23 2.801995 1_555
La4 O7 2.804985 1_555
La5 O4 2.742341 1_556
La5 O16 2.742341 1_556
La5 O10 2.751583 1_555
La5 O5 2.753908 1_556
La5 O20 2.753908 1_556
La5 O11 2.768198 1_555
La5 O14 2.768198 1_555
La5 O15 2.778770 1_555
La5 O18 2.787183 1_555
La5 O6 2.787183 1_555
La5 O7 2.801113 1_555
La5 O22 2.801113 1_555
La6 O17 2.735844 1_555
La6 O10 2.750350 1_455
La6 O21 2.754350 1_556
La6 O4 2.758102 1_456
La6 O14 2.768274 1_455
La6 O11 2.770704 1_555
La6 O5 2.776060 1_556
La6 O15 2.786588 1_555
La6 O19 2.787077 1_555
La6 O6 2.804761 1_455
La6 O23 2.804908 1_555
La6 O7 2.821502 1_555
Mn0 O6 1.953313 1_555
Mn0 O18 1.953313 1_555
Mn0 O8 1.954057 1_555
Mn0 O2 1.959469 1_565
Mn0 O19 1.959469 1_655
Mn0 O10 1.959644 1_555
Mn1 O9 1.896259 1_555
Mn1 O11 1.902027 1_555
Mn1 O18 1.954854 1_555
Mn1 O7 1.955220 1_555
Mn1 O19 1.961528 1_555
Mn1 O3 1.961990 1_565
Mn2 O5 1.895788 1_555
Mn2 O20 1.895788 1_555
Mn2 O1 1.901120 1_555
Mn2 O21 1.901120 1_555
Mn2 O13 1.945410 1_555
Mn2 O15 1.952439 1_554
Mn3 O12 1.896259 1_555
Mn3 O14 1.902027 1_555
Mn3 O6 1.954854 1_555
Mn3 O22 1.955220 1_555
Mn3 O2 1.961528 1_555
Mn3 O23 1.961990 1_655
Mn4 O7 1.952752 1_555
Mn4 O22 1.952752 1_555
Mn4 O3 1.959186 1_555
Mn4 O23 1.959186 1_555
Mn4 O13 1.969003 1_555
Mn4 O15 1.975602 1_555
Fe0 O4 1.914945 1_555
Fe0 O16 1.914945 1_555
Fe0 O0 1.919846 1_564
Fe0 O17 1.919846 1_654
Fe0 O8 1.961477 1_555
Fe0 O10 1.967321 1_554
Fe1 O16 1.994836 1_555
Fe1 O17 1.999651 1_554
Fe1 O5 2.013197 1_555
Fe1 O1 2.019086 1_565
Fe1 O9 2.019538 1_555
Fe1 O11 2.024657 1_554
Fe2 O4 1.994836 1_555
Fe2 O0 1.999651 1_554
Fe2 O20 2.013197 1_555
Fe2 O21 2.019086 1_655
Fe2 O12 2.019538 1_555
Fe2 O14 2.024657 1_554
O4 Sm0 2.705562 1_555
O5 Sm0 2.733843 1_555
O6 Sm0 2.771827 1_555
O7 Sm0 2.794677 1_555
O8 Sm0 2.725543 1_555
O9 Sm0 2.751427 1_555
O12 Sm0 2.751427 1_555
O13 Sm0 2.773111 1_555
O16 Sm0 2.705562 1_555
O18 Sm0 2.771827 1_555
O20 Sm0 2.733843 1_555
O22 Sm0 2.794677 1_555
