# generated using pymatgen
data_RbHSO4
_symmetry_space_group_name_H-M   'P 1'
_cell_length_a   4.68544100
_cell_length_b   14.68406400
_cell_length_c   15.14832497
_cell_angle_alpha   59.30849384
_cell_angle_beta   90.00000000
_cell_angle_gamma   90.00000000
_symmetry_Int_Tables_number   1
_chemical_formula_structural   RbHSO4
_chemical_formula_sum   'Rb8 H8 S8 O32'
_cell_volume   896.23813488
_cell_formula_units_Z   8
loop_
 _symmetry_equiv_pos_site_id
 _symmetry_equiv_pos_as_xyz
  1  'x, y, z'
loop_
 _atom_site_type_symbol
 _atom_site_label
 _atom_site_symmetry_multiplicity
 _atom_site_fract_x
 _atom_site_fract_y
 _atom_site_fract_z
 _atom_site_occupancy
  Rb  Rb0  1  0.35932700  0.87729500  0.91573700  1
  Rb  Rb1  1  0.14067300  0.87729500  0.41573700  1
  Rb  Rb2  1  0.64067300  0.12270500  0.08426300  1
  Rb  Rb3  1  0.85932700  0.12270500  0.58426300  1
  Rb  Rb4  1  0.70219600  0.62461600  0.33603800  1
  Rb  Rb5  1  0.79780400  0.62461600  0.83603800  1
  Rb  Rb6  1  0.29780400  0.37538400  0.66396200  1
  Rb  Rb7  1  0.20219600  0.37538400  0.16396200  1
  H  H0  1  0.19273600  0.62358200  0.13769000  1
  H  H1  1  0.30726400  0.62358200  0.63769000  1
  H  H2  1  0.80726400  0.37641800  0.86231000  1
  H  H3  1  0.69273600  0.37641800  0.36231000  1
  H  H4  1  0.80868000  0.87006200  0.11163800  1
  H  H5  1  0.69132000  0.87006200  0.61163800  1
  H  H6  1  0.19132000  0.12993800  0.88836200  1
  H  H7  1  0.30868000  0.12993800  0.38836200  1
  S  S0  1  0.75999900  0.62797400  0.07829400  1
  S  S1  1  0.74000100  0.62797400  0.57829400  1
  S  S2  1  0.24000100  0.37202600  0.92170600  1
  S  S3  1  0.25999900  0.37202600  0.42170600  1
  S  S4  1  0.21696200  0.87624200  0.17307900  1
  S  S5  1  0.28303800  0.87624200  0.67307900  1
  S  S6  1  0.78303800  0.12375800  0.82692100  1
  S  S7  1  0.71696200  0.12375800  0.32692100  1
  O  O0  1  0.99667400  0.59225100  0.16608700  1
  O  O1  1  0.50332600  0.59225100  0.66608700  1
  O  O2  1  0.00332600  0.40774900  0.83391300  1
  O  O3  1  0.49667400  0.40774900  0.33391300  1
  O  O4  1  0.51779400  0.66249700  0.11706900  1
  O  O5  1  0.98220600  0.66249700  0.61706900  1
  O  O6  1  0.48220600  0.33750300  0.88293100  1
  O  O7  1  0.01779400  0.33750300  0.38293100  1
  O  O8  1  0.88162200  0.71468600  0.98322200  1
  O  O9  1  0.61837800  0.71468600  0.48322200  1
  O  O10  1  0.11837800  0.28531400  0.01677800  1
  O  O11  1  0.38162200  0.28531400  0.51677800  1
  O  O12  1  0.69401200  0.53344300  0.07260600  1
  O  O13  1  0.80598800  0.53344300  0.57260600  1
  O  O14  1  0.30598800  0.46655700  0.92739400  1
  O  O15  1  0.19401200  0.46655700  0.42739400  1
  O  O16  1  0.11330400  0.96860100  0.17667400  1
  O  O17  1  0.38669600  0.96860100  0.67667400  1
  O  O18  1  0.88669600  0.03139900  0.82332600  1
  O  O19  1  0.61330400  0.03139900  0.32332600  1
  O  O20  1  0.49538700  0.89486500  0.12216800  1
  O  O21  1  0.00461300  0.89486500  0.62216800  1
  O  O22  1  0.50461300  0.10513500  0.87783200  1
  O  O23  1  0.99538700  0.10513500  0.37783200  1
  O  O24  1  0.20459000  0.77805900  0.27348400  1
  O  O25  1  0.29541000  0.77805900  0.77348400  1
  O  O26  1  0.79541000  0.22194100  0.72651600  1
  O  O27  1  0.70459000  0.22194100  0.22651600  1
  O  O28  1  0.01497700  0.86154200  0.09669200  1
  O  O29  1  0.48502300  0.86154200  0.59669200  1
  O  O30  1  0.98502300  0.13845800  0.90330800  1
  O  O31  1  0.51497700  0.13845800  0.40330800  1
loop_
_geom_bond_atom_site_label_1
_geom_bond_atom_site_label_2
_geom_bond_distance
_geom_bond_site_symmetry_2
H0 O0 1.019103 1_455
H0 O4 1.600482 1_555
H1 O1 1.019103 1_555
H1 O5 1.600482 1_455
H2 O2 1.019103 1_655
H2 O6 1.600482 1_555
H3 O3 1.019103 1_555
H3 O7 1.600482 1_655
H4 O28 1.014952 1_655
H4 O20 1.540187 1_555
H5 O29 1.014952 1_555
H5 O21 1.540187 1_655
H6 O30 1.014952 1_455
H6 O22 1.540187 1_555
H7 O31 1.014952 1_555
H7 O23 1.540187 1_455
O0 S0 1.600440 1_555
O0 Rb4 3.163307 1_555
O0 Rb7 3.342745 1_655
O1 S1 1.600440 1_555
O1 Rb5 3.163307 1_555
O1 Rb6 3.342745 1_555
O2 S2 1.600440 1_555
O2 Rb6 3.163307 1_555
O2 Rb5 3.342745 1_455
O3 S3 1.600440 1_555
O3 Rb7 3.163307 1_555
O3 Rb4 3.342745 1_555
O4 S0 1.481154 1_555
O4 Rb0 3.159321 1_554
O4 Rb4 3.189824 1_555
O5 S1 1.481154 1_555
O5 Rb1 3.159321 1_655
O5 Rb5 3.189824 1_555
O6 S2 1.481154 1_555
O6 Rb2 3.159321 1_556
O6 Rb6 3.189824 1_555
O7 S3 1.481154 1_555
O7 Rb3 3.159321 1_455
O7 Rb7 3.189824 1_555
O8 S0 1.465658 1_556
O8 Rb0 3.043756 1_655
O8 Rb5 3.144015 1_555
O8 Rb0 3.200524 1_555
O9 S1 1.465658 1_555
O9 Rb1 3.043756 1_555
O9 Rb4 3.144015 1_555
O9 Rb1 3.200524 1_655
O10 S2 1.465658 1_554
O10 Rb2 3.043756 1_455
O10 Rb7 3.144015 1_555
O10 Rb2 3.200524 1_555
O11 S3 1.465658 1_555
O11 Rb3 3.043756 1_555
O11 Rb6 3.144015 1_555
O11 Rb3 3.200524 1_455
O12 S0 1.466946 1_555
O12 Rb7 3.055037 1_555
O12 Rb7 3.113292 1_655
O12 Rb5 3.158080 1_554
O13 S1 1.466946 1_555
O13 Rb6 3.055037 1_655
O13 Rb6 3.113292 1_555
O13 Rb4 3.158080 1_555
O14 S2 1.466946 1_555
O14 Rb5 3.055037 1_555
O14 Rb5 3.113292 1_455
O14 Rb7 3.158080 1_556
O15 S3 1.466946 1_555
O15 Rb4 3.055037 1_455
O15 Rb4 3.113292 1_555
O15 Rb6 3.158080 1_555
O16 S4 1.467495 1_555
O16 Rb2 2.958117 1_465
O16 Rb2 3.154702 1_565
O16 Rb1 3.157862 1_555
O17 S5 1.467495 1_555
O17 Rb3 2.958117 1_565
O17 Rb3 3.154702 1_465
O17 Rb0 3.157862 1_555
O18 S6 1.467495 1_555
O18 Rb0 2.958117 1_645
O18 Rb0 3.154702 1_545
O18 Rb3 3.157862 1_555
O19 S7 1.467495 1_555
O19 Rb1 2.958117 1_545
O19 Rb1 3.154702 1_645
O19 Rb2 3.157862 1_555
O20 S4 1.468366 1_555
O20 Rb2 3.166258 1_565
O20 Rb0 3.327945 1_554
O21 S5 1.468366 1_555
O21 Rb3 3.166258 1_465
O21 Rb1 3.327945 1_555
O22 S6 1.468366 1_555
O22 Rb0 3.166258 1_545
O22 Rb2 3.327945 1_556
O23 S7 1.468366 1_555
O23 Rb1 3.166258 1_645
O23 Rb3 3.327945 1_555
O24 S4 1.468598 1_555
O24 Rb4 3.038263 1_555
O24 Rb4 3.055512 1_455
O24 Rb1 3.172090 1_555
O25 S5 1.468598 1_555
O25 Rb5 3.038263 1_455
O25 Rb5 3.055512 1_555
O25 Rb0 3.172090 1_555
O26 S6 1.468598 1_555
O26 Rb6 3.038263 1_555
O26 Rb6 3.055512 1_655
O26 Rb3 3.172090 1_555
O27 S7 1.468598 1_555
O27 Rb7 3.038263 1_655
O27 Rb7 3.055512 1_555
O27 Rb2 3.172090 1_555
O28 S4 1.592540 1_555
O28 Rb0 3.085995 1_554
O29 S5 1.592540 1_555
O29 Rb1 3.085995 1_555
O30 S6 1.592540 1_555
O30 Rb2 3.085995 1_556
O31 S7 1.592540 1_555
O31 Rb3 3.085995 1_555
