# generated using pymatgen
data_Ca2Sn2O5
_symmetry_space_group_name_H-M   'P 1'
_cell_length_a   4.17369500
_cell_length_b   5.58238300
_cell_length_c   10.56626800
_cell_angle_alpha   90.00000000
_cell_angle_beta   90.00000000
_cell_angle_gamma   90.00000000
_symmetry_Int_Tables_number   1
_chemical_formula_structural   Ca2Sn2O5
_chemical_formula_sum   'Ca4 Sn4 O10'
_cell_volume   246.18521116
_cell_formula_units_Z   2
loop_
 _symmetry_equiv_pos_site_id
 _symmetry_equiv_pos_as_xyz
  1  'x, y, z'
loop_
 _atom_site_type_symbol
 _atom_site_label
 _atom_site_symmetry_multiplicity
 _atom_site_fract_x
 _atom_site_fract_y
 _atom_site_fract_z
 _atom_site_occupancy
  Ca  Ca0  1  0.00000000  0.65504800  0.35955100  1
  Ca  Ca1  1  0.00000000  0.34495200  0.64044900  1
  Ca  Ca2  1  0.00000000  0.15504800  0.14044900  1
  Ca  Ca3  1  0.00000000  0.84495200  0.85955100  1
  Sn  Sn0  1  0.50000000  0.66939100  0.10596700  1
  Sn  Sn1  1  0.50000000  0.33060900  0.89403300  1
  Sn  Sn2  1  0.50000000  0.83060900  0.60596700  1
  Sn  Sn3  1  0.50000000  0.16939100  0.39403300  1
  O  O0  1  0.50000000  0.00000000  0.00000000  1
  O  O1  1  0.50000000  0.64816300  0.78052000  1
  O  O2  1  0.50000000  0.14816300  0.71948000  1
  O  O3  1  0.50000000  0.85183700  0.28052000  1
  O  O4  1  0.00000000  0.77518700  0.62087800  1
  O  O5  1  0.00000000  0.22481300  0.37912200  1
  O  O6  1  0.50000000  0.35183700  0.21948000  1
  O  O7  1  0.00000000  0.72481300  0.12087800  1
  O  O8  1  0.50000000  0.50000000  0.50000000  1
  O  O9  1  0.00000000  0.27518700  0.87912200  1
loop_
_geom_bond_atom_site_label_1
_geom_bond_atom_site_label_2
_geom_bond_distance
_geom_bond_site_symmetry_2
Ca0 O5 2.410623 1_555
Ca0 O3 2.501815 1_455
Ca0 O3 2.501815 1_555
Ca0 O7 2.551778 1_555
Ca0 O8 2.703037 1_455
Ca0 O8 2.703037 1_555
Ca0 O4 2.841530 1_555
Ca1 O4 2.410623 1_555
Ca1 O2 2.501815 1_455
Ca1 O2 2.501815 1_555
Ca1 O9 2.551778 1_555
Ca1 O8 2.703037 1_455
Ca1 O8 2.703037 1_555
Ca1 O5 2.841530 1_555
Ca2 O7 2.410623 1_545
Ca2 O6 2.501815 1_455
Ca2 O6 2.501815 1_555
Ca2 O5 2.551778 1_555
Ca2 O0 2.703037 1_555
Ca2 O0 2.703037 1_455
Ca2 O9 2.841530 1_554
Ca3 O9 2.410623 1_565
Ca3 O1 2.501815 1_555
Ca3 O1 2.501815 1_455
Ca3 O4 2.551778 1_555
Ca3 O0 2.703037 1_566
Ca3 O0 2.703037 1_466
Ca3 O7 2.841530 1_556
O0 Sn1 2.158671 1_554
O0 Sn0 2.158671 1_545
O1 Sn2 2.106899 1_555
O1 Sn1 2.140345 1_555
O2 Sn1 2.106899 1_555
O2 Sn2 2.140345 1_545
O3 Sn0 2.106899 1_555
O3 Sn3 2.140345 1_565
O4 Sn2 2.115532 1_555
O4 Sn2 2.115532 1_455
O5 Sn3 2.115532 1_555
O5 Sn3 2.115532 1_455
O6 Sn3 2.106899 1_555
O6 Sn0 2.140345 1_555
O7 Sn0 2.115532 1_555
O7 Sn0 2.115532 1_455
O8 Sn3 2.158671 1_555
O8 Sn2 2.158671 1_555
O9 Sn1 2.115532 1_555
O9 Sn1 2.115532 1_455
