# generated using pymatgen
data_MgCr2O5
_symmetry_space_group_name_H-M   'P 1'
_cell_length_a   3.70045300
_cell_length_b   5.36398132
_cell_length_c   11.24412600
_cell_angle_alpha   90.00000000
_cell_angle_beta   90.00000000
_cell_angle_gamma   110.17784055
_symmetry_Int_Tables_number   1
_chemical_formula_structural   MgCr2O5
_chemical_formula_sum   'Mg2 Cr4 O10'
_cell_volume   209.48872966
_cell_formula_units_Z   2
loop_
 _symmetry_equiv_pos_site_id
 _symmetry_equiv_pos_as_xyz
  1  'x, y, z'
loop_
 _atom_site_type_symbol
 _atom_site_label
 _atom_site_symmetry_multiplicity
 _atom_site_fract_x
 _atom_site_fract_y
 _atom_site_fract_z
 _atom_site_occupancy
  Mg  Mg0  1  0.89298300  0.78596400  0.75000000  1
  Mg  Mg1  1  0.10701800  0.21403700  0.25000000  1
  Cr  Cr0  1  0.20796400  0.41592700  0.59659100  1
  Cr  Cr1  1  0.79203700  0.58407400  0.40340800  1
  Cr  Cr2  1  0.79203700  0.58407400  0.09659200  1
  Cr  Cr3  1  0.20796400  0.41592700  0.90340900  1
  O  O0  1  0.69948200  0.39896400  0.25000000  1
  O  O1  1  0.30051900  0.60103700  0.75000000  1
  O  O2  1  0.23219300  0.46438600  0.07782900  1
  O  O3  1  0.76780900  0.53561600  0.92217100  1
  O  O4  1  0.76780900  0.53561600  0.57782900  1
  O  O5  1  0.23219300  0.46438600  0.42217000  1
  O  O6  1  0.04496100  0.08992100  0.63377100  1
  O  O7  1  0.95503900  0.91007800  0.36622900  1
  O  O8  1  0.04496100  0.08992100  0.86622900  1
  O  O9  1  0.95503900  0.91007800  0.13377200  1
loop_
_geom_bond_atom_site_label_1
_geom_bond_atom_site_label_2
_geom_bond_distance
_geom_bond_site_symmetry_2
Mg0 O6 2.012451 1_665
Mg0 O8 2.012451 1_665
Mg0 O1 2.071283 1_655
Mg0 O1 2.071287 1_555
Mg0 O4 2.310082 1_555
Mg0 O3 2.310082 1_555
Mg1 O9 2.012451 1_445
Mg1 O7 2.012458 1_445
Mg1 O0 2.071283 1_455
Mg1 O0 2.071287 1_555
Mg1 O5 2.310076 1_555
Mg1 O2 2.310085 1_555
Cr0 O6 1.693770 1_555
Cr0 O4 1.957287 1_455
Cr0 O4 1.957290 1_555
Cr0 O1 1.960626 1_555
Cr0 O5 1.976329 1_555
Cr1 O7 1.693757 1_555
Cr1 O5 1.957287 1_655
Cr1 O5 1.957287 1_555
Cr1 O0 1.960616 1_555
Cr1 O4 1.976329 1_555
Cr2 O9 1.693760 1_555
Cr2 O2 1.957288 1_655
Cr2 O2 1.957288 1_555
Cr2 O0 1.960616 1_555
Cr2 O3 1.976329 1_554
Cr3 O8 1.693770 1_555
Cr3 O3 1.957287 1_455
Cr3 O3 1.957290 1_555
Cr3 O1 1.960626 1_555
Cr3 O2 1.976318 1_556
