# generated using pymatgen
data_Ta2FeS4
_symmetry_space_group_name_H-M   'P 1'
_cell_length_a   3.32377201
_cell_length_b   3.32377201
_cell_length_c   11.91691500
_cell_angle_alpha   90.00000000
_cell_angle_beta   90.00000000
_cell_angle_gamma   120.00000020
_symmetry_Int_Tables_number   1
_chemical_formula_structural   Ta2FeS4
_chemical_formula_sum   'Ta2 Fe1 S4'
_cell_volume   114.01366987
_cell_formula_units_Z   1
loop_
 _symmetry_equiv_pos_site_id
 _symmetry_equiv_pos_as_xyz
  1  'x, y, z'
loop_
 _atom_site_type_symbol
 _atom_site_label
 _atom_site_symmetry_multiplicity
 _atom_site_fract_x
 _atom_site_fract_y
 _atom_site_fract_z
 _atom_site_occupancy
  Ta  Ta0  1  0.00000000  0.00000000  0.25969700  1
  Ta  Ta1  1  0.00000000  0.00000000  0.74030300  1
  Fe  Fe0  1  0.00000000  0.00000000  0.50000000  1
  S  S0  1  0.33333300  0.66666700  0.39593300  1
  S  S1  1  0.66666700  0.33333300  0.60406700  1
  S  S2  1  0.66666700  0.33333300  0.87118000  1
  S  S3  1  0.33333300  0.66666700  0.12882000  1
loop_
_geom_bond_atom_site_label_1
_geom_bond_atom_site_label_2
_geom_bond_distance
_geom_bond_site_symmetry_2
Fe0 S0 2.284835 1_545
Fe0 S1 2.284835 1_455
Fe0 S0 2.284837 1_555
Fe0 S0 2.284837 1_445
Fe0 S1 2.284837 1_555
Fe0 S1 2.284837 1_445
S0 Ta0 2.513618 1_565
S0 Ta0 2.513620 1_555
S0 Ta0 2.513620 1_665
S1 Ta1 2.513618 1_655
S1 Ta1 2.513620 1_555
S1 Ta1 2.513620 1_665
S2 Ta1 2.472850 1_655
S2 Ta1 2.472852 1_555
S2 Ta1 2.472852 1_665
S3 Ta0 2.472850 1_565
S3 Ta0 2.472852 1_665
S3 Ta0 2.472852 1_555
