# generated using pymatgen
data_Ag3Sn
_symmetry_space_group_name_H-M   'P 1'
_cell_length_a   6.22187095
_cell_length_b   6.22187095
_cell_length_c   19.35718800
_cell_angle_alpha   90.00000000
_cell_angle_beta   90.00000000
_cell_angle_gamma   119.99998885
_symmetry_Int_Tables_number   1
_chemical_formula_structural   Ag3Sn
_chemical_formula_sum   'Ag24 Sn8'
_cell_volume   648.95554364
_cell_formula_units_Z   8
loop_
 _symmetry_equiv_pos_site_id
 _symmetry_equiv_pos_as_xyz
  1  'x, y, z'
loop_
 _atom_site_type_symbol
 _atom_site_label
 _atom_site_symmetry_multiplicity
 _atom_site_fract_x
 _atom_site_fract_y
 _atom_site_fract_z
 _atom_site_occupancy
  Ag  Ag0_0  1  0.16666650  0.33333350  0.25000000  1
  Ag  Ag0_1  1  0.16666650  0.33333350  0.75000000  1
  Ag  Ag0_2  1  0.16666650  0.83333350  0.25000000  1
  Ag  Ag0_3  1  0.16666650  0.83333350  0.75000000  1
  Ag  Ag0_4  1  0.66666650  0.33333350  0.25000000  1
  Ag  Ag0_5  1  0.66666650  0.33333350  0.75000000  1
  Ag  Ag0_6  1  0.66666650  0.83333350  0.25000000  1
  Ag  Ag0_7  1  0.66666650  0.83333350  0.75000000  1
  Ag  Ag1_0  1  0.00000000  0.00000000  0.13061100  1
  Ag  Ag1_1  1  0.00000000  0.00000000  0.63061100  1
  Ag  Ag1_2  1  0.00000000  0.50000000  0.13061100  1
  Ag  Ag1_3  1  0.00000000  0.50000000  0.63061100  1
  Ag  Ag1_4  1  0.50000000  0.00000000  0.13061100  1
  Ag  Ag1_5  1  0.50000000  0.00000000  0.63061100  1
  Ag  Ag1_6  1  0.50000000  0.50000000  0.13061100  1
  Ag  Ag1_7  1  0.50000000  0.50000000  0.63061100  1
  Ag  Ag2_0  1  0.00000000  0.00000000  0.36938900  1
  Ag  Ag2_1  1  0.00000000  0.00000000  0.86938900  1
  Ag  Ag2_2  1  0.00000000  0.50000000  0.36938900  1
  Ag  Ag2_3  1  0.00000000  0.50000000  0.86938900  1
  Ag  Ag2_4  1  0.50000000  0.00000000  0.36938900  1
  Ag  Ag2_5  1  0.50000000  0.00000000  0.86938900  1
  Ag  Ag2_6  1  0.50000000  0.50000000  0.36938900  1
  Ag  Ag2_7  1  0.50000000  0.50000000  0.86938900  1
  Sn  Sn0_0  1  0.16666650  0.33333350  0.00000000  1
  Sn  Sn0_1  1  0.16666650  0.33333350  0.50000000  1
  Sn  Sn0_2  1  0.16666650  0.83333350  0.00000000  1
  Sn  Sn0_3  1  0.16666650  0.83333350  0.50000000  1
  Sn  Sn0_4  1  0.66666650  0.33333350  0.00000000  1
  Sn  Sn0_5  1  0.66666650  0.33333350  0.50000000  1
  Sn  Sn0_6  1  0.66666650  0.83333350  0.00000000  1
  Sn  Sn0_7  1  0.66666650  0.83333350  0.50000000  1
loop_
_geom_bond_atom_site_label_1
_geom_bond_atom_site_label_2
_geom_bond_distance
_geom_bond_site_symmetry_2
Ag0_0 Ag2_2 2.926918 1_555
Ag0_0 Ag1_2 2.926918 1_555
Ag0_0 Ag2_6 2.926920 1_555
Ag0_0 Ag2_0 2.926920 1_555
Ag0_0 Ag1_0 2.926920 1_555
Ag0_0 Ag1_6 2.926920 1_555
Ag0_0 Ag0_2 3.110935 1_555
Ag0_0 Ag0_4 3.110935 1_555
Ag0_0 Ag0_4 3.110935 1_455
Ag0_0 Ag0_2 3.110935 1_545
Ag0_0 Ag0_6 3.110936 1_445
Ag0_0 Ag0_6 3.110936 1_555
Ag0_1 Ag2_3 2.926918 1_555
Ag0_1 Ag1_3 2.926918 1_555
Ag0_1 Ag2_7 2.926920 1_555
Ag0_1 Ag2_1 2.926920 1_555
Ag0_1 Ag1_1 2.926920 1_555
Ag0_1 Ag1_7 2.926920 1_555
Ag0_1 Ag0_5 3.110935 1_555
Ag0_1 Ag0_3 3.110935 1_555
Ag0_1 Ag0_5 3.110935 1_455
Ag0_1 Ag0_3 3.110935 1_545
Ag0_1 Ag0_7 3.110936 1_555
Ag0_1 Ag0_7 3.110936 1_445
Ag0_2 Ag2_0 2.926918 1_565
Ag0_2 Ag1_0 2.926918 1_565
Ag0_2 Ag2_2 2.926920 1_555
Ag0_2 Ag2_4 2.926920 1_565
Ag0_2 Ag1_2 2.926920 1_555
Ag0_2 Ag1_4 2.926920 1_565
Ag0_2 Ag0_6 3.110935 1_555
Ag0_2 Ag0_6 3.110935 1_455
Ag0_2 Ag0_4 3.110936 1_455
Ag0_2 Ag0_4 3.110936 1_565
Ag0_3 Ag2_1 2.926918 1_565
Ag0_3 Ag1_1 2.926918 1_565
Ag0_3 Ag2_3 2.926920 1_555
Ag0_3 Ag2_5 2.926920 1_565
Ag0_3 Ag1_3 2.926920 1_555
Ag0_3 Ag1_5 2.926920 1_565
Ag0_3 Ag0_7 3.110935 1_555
Ag0_3 Ag0_7 3.110935 1_455
Ag0_3 Ag0_5 3.110936 1_565
Ag0_3 Ag0_5 3.110936 1_455
Ag0_4 Ag2_6 2.926918 1_555
Ag0_4 Ag1_6 2.926918 1_555
Ag0_4 Ag2_4 2.926920 1_555
Ag0_4 Ag2_2 2.926920 1_655
Ag0_4 Ag1_4 2.926920 1_555
Ag0_4 Ag1_2 2.926920 1_655
Ag0_4 Ag0_6 3.110935 1_545
Ag0_4 Ag0_6 3.110935 1_555
Ag0_5 Ag2_7 2.926918 1_555
Ag0_5 Ag1_7 2.926918 1_555
Ag0_5 Ag2_5 2.926920 1_555
Ag0_5 Ag2_3 2.926920 1_655
Ag0_5 Ag1_5 2.926920 1_555
Ag0_5 Ag1_3 2.926920 1_655
Ag0_5 Ag0_7 3.110935 1_545
Ag0_5 Ag0_7 3.110935 1_555
Ag0_6 Ag2_4 2.926918 1_565
Ag0_6 Ag1_4 2.926918 1_565
Ag0_6 Ag2_0 2.926920 1_665
Ag0_6 Ag2_6 2.926920 1_555
Ag0_6 Ag1_6 2.926920 1_555
Ag0_6 Ag1_0 2.926920 1_665
Ag0_7 Ag2_5 2.926918 1_565
Ag0_7 Ag1_5 2.926918 1_565
Ag0_7 Ag2_1 2.926920 1_665
Ag0_7 Ag2_7 2.926920 1_555
Ag0_7 Ag1_1 2.926920 1_665
Ag0_7 Ag1_7 2.926920 1_555
Ag1_0 Sn0_2 3.101302 1_545
Ag1_0 Sn0_0 3.101304 1_555
Ag1_0 Sn0_6 3.101304 1_445
Ag1_0 Ag1_4 3.110935 1_455
Ag1_0 Ag1_2 3.110935 1_545
Ag1_0 Ag1_2 3.110935 1_555
Ag1_0 Ag1_4 3.110935 1_555
Ag1_0 Ag1_6 3.110936 1_445
Ag1_0 Ag1_6 3.110936 1_555
Ag1_1 Sn0_3 3.101302 1_545
Ag1_1 Sn0_7 3.101304 1_445
Ag1_1 Sn0_1 3.101304 1_555
Ag1_1 Ag1_3 3.110935 1_555
Ag1_1 Ag1_5 3.110935 1_455
Ag1_1 Ag1_5 3.110935 1_555
Ag1_1 Ag1_3 3.110935 1_545
Ag1_1 Ag1_7 3.110936 1_555
Ag1_1 Ag1_7 3.110936 1_445
Ag1_2 Sn0_0 3.101302 1_555
Ag1_2 Sn0_2 3.101304 1_555
Ag1_2 Sn0_4 3.101304 1_455
Ag1_2 Ag1_6 3.110935 1_555
Ag1_2 Ag1_6 3.110935 1_455
Ag1_2 Ag1_4 3.110936 1_565
Ag1_2 Ag1_4 3.110936 1_455
Ag1_3 Sn0_1 3.101302 1_555
Ag1_3 Sn0_3 3.101304 1_555
Ag1_3 Sn0_5 3.101304 1_455
Ag1_3 Ag1_7 3.110935 1_455
Ag1_3 Ag1_7 3.110935 1_555
Ag1_3 Ag1_5 3.110936 1_565
Ag1_3 Ag1_5 3.110936 1_455
Ag1_4 Sn0_6 3.101302 1_545
Ag1_4 Sn0_4 3.101304 1_555
Ag1_4 Sn0_2 3.101304 1_545
Ag1_4 Ag1_6 3.110935 1_555
Ag1_4 Ag1_6 3.110935 1_545
Ag1_5 Sn0_7 3.101302 1_545
Ag1_5 Sn0_3 3.101304 1_545
Ag1_5 Sn0_5 3.101304 1_555
Ag1_5 Ag1_7 3.110935 1_545
Ag1_5 Ag1_7 3.110935 1_555
Ag1_6 Sn0_4 3.101302 1_555
Ag1_6 Sn0_6 3.101304 1_555
Ag1_6 Sn0_0 3.101304 1_555
Ag1_7 Sn0_5 3.101302 1_555
Ag1_7 Sn0_7 3.101304 1_555
Ag1_7 Sn0_1 3.101304 1_555
Ag2_0 Sn0_3 3.101302 1_545
Ag2_0 Sn0_1 3.101304 1_555
Ag2_0 Sn0_7 3.101304 1_445
Ag2_0 Ag2_2 3.110935 1_555
Ag2_0 Ag2_4 3.110935 1_455
Ag2_0 Ag2_4 3.110935 1_555
Ag2_0 Ag2_2 3.110935 1_545
Ag2_0 Ag2_6 3.110936 1_445
Ag2_0 Ag2_6 3.110936 1_555
Ag2_1 Sn0_2 3.101302 1_546
Ag2_1 Sn0_0 3.101304 1_556
Ag2_1 Sn0_6 3.101304 1_446
Ag2_1 Ag2_5 3.110935 1_455
Ag2_1 Ag2_3 3.110935 1_545
Ag2_1 Ag2_3 3.110935 1_555
Ag2_1 Ag2_5 3.110935 1_555
Ag2_1 Ag2_7 3.110936 1_445
Ag2_1 Ag2_7 3.110936 1_555
Ag2_2 Sn0_1 3.101302 1_555
Ag2_2 Sn0_3 3.101304 1_555
Ag2_2 Sn0_5 3.101304 1_455
Ag2_2 Ag2_6 3.110935 1_455
Ag2_2 Ag2_6 3.110935 1_555
Ag2_2 Ag2_4 3.110936 1_455
Ag2_2 Ag2_4 3.110936 1_565
Ag2_3 Sn0_0 3.101302 1_556
Ag2_3 Sn0_2 3.101304 1_556
Ag2_3 Sn0_4 3.101304 1_456
Ag2_3 Ag2_7 3.110935 1_455
Ag2_3 Ag2_7 3.110935 1_555
Ag2_3 Ag2_5 3.110936 1_565
Ag2_3 Ag2_5 3.110936 1_455
Ag2_4 Sn0_7 3.101302 1_545
Ag2_4 Sn0_3 3.101304 1_545
Ag2_4 Sn0_5 3.101304 1_555
Ag2_4 Ag2_6 3.110935 1_545
Ag2_4 Ag2_6 3.110935 1_555
Ag2_5 Sn0_6 3.101302 1_546
Ag2_5 Sn0_4 3.101304 1_556
Ag2_5 Sn0_2 3.101304 1_546
Ag2_5 Ag2_7 3.110935 1_545
Ag2_5 Ag2_7 3.110935 1_555
Ag2_6 Sn0_5 3.101302 1_555
Ag2_6 Sn0_1 3.101304 1_555
Ag2_6 Sn0_7 3.101304 1_555
Ag2_7 Sn0_4 3.101302 1_556
Ag2_7 Sn0_0 3.101304 1_556
Ag2_7 Sn0_6 3.101304 1_556
Sn0_0 Sn0_4 3.110935 1_555
Sn0_0 Sn0_2 3.110935 1_555
Sn0_0 Sn0_4 3.110935 1_455
Sn0_0 Sn0_2 3.110935 1_545
Sn0_0 Sn0_6 3.110936 1_445
Sn0_0 Sn0_6 3.110936 1_555
Sn0_1 Sn0_5 3.110935 1_555
Sn0_1 Sn0_3 3.110935 1_555
Sn0_1 Sn0_3 3.110935 1_545
Sn0_1 Sn0_5 3.110935 1_455
Sn0_1 Sn0_7 3.110936 1_445
Sn0_1 Sn0_7 3.110936 1_555
Sn0_2 Sn0_6 3.110935 1_555
Sn0_2 Sn0_6 3.110935 1_455
Sn0_2 Sn0_4 3.110936 1_565
Sn0_2 Sn0_4 3.110936 1_455
Sn0_3 Sn0_7 3.110935 1_555
Sn0_3 Sn0_7 3.110935 1_455
Sn0_3 Sn0_5 3.110936 1_565
Sn0_3 Sn0_5 3.110936 1_455
Sn0_4 Sn0_6 3.110935 1_545
Sn0_4 Sn0_6 3.110935 1_555
Sn0_5 Sn0_7 3.110935 1_545
Sn0_5 Sn0_7 3.110935 1_555
