# generated using pymatgen
data_Y5Mg5Al12(Fe2Si3)2
_symmetry_space_group_name_H-M   'P 1'
_cell_length_a   11.91120700
_cell_length_b   11.91120700
_cell_length_c   3.99859300
_cell_angle_alpha   90.00000000
_cell_angle_beta   90.00000000
_cell_angle_gamma   90.00000000
_symmetry_Int_Tables_number   1
_chemical_formula_structural   Y5Mg5Al12(Fe2Si3)2
_chemical_formula_sum   'Y5 Mg5 Al12 Fe4 Si6'
_cell_volume   567.30778806
_cell_formula_units_Z   1
loop_
 _symmetry_equiv_pos_site_id
 _symmetry_equiv_pos_as_xyz
  1  'x, y, z'
loop_
 _atom_site_type_symbol
 _atom_site_label
 _atom_site_symmetry_multiplicity
 _atom_site_fract_x
 _atom_site_fract_y
 _atom_site_fract_z
 _atom_site_occupancy
  Y  Y0  1  0.25170600  0.50000000  0.00000000  1
  Y  Y1  1  0.74829400  0.50000000  0.00000000  1
  Y  Y2  1  0.50000000  0.74829400  0.00000000  1
  Y  Y3  1  0.50000000  0.25170600  0.00000000  1
  Y  Y4  1  0.00000000  0.00000000  0.00000000  1
  Mg  Mg0  1  0.20210300  0.20210300  0.00000000  1
  Mg  Mg1  1  0.79789700  0.79789700  0.00000000  1
  Mg  Mg2  1  0.20210300  0.79789700  0.00000000  1
  Mg  Mg3  1  0.79789700  0.20210300  0.00000000  1
  Mg  Mg4  1  0.50000000  0.50000000  0.50000000  1
  Al  Al0  1  0.11222400  0.37280100  0.50000000  1
  Al  Al1  1  0.88777600  0.62719900  0.50000000  1
  Al  Al2  1  0.11222400  0.62719900  0.50000000  1
  Al  Al3  1  0.88777600  0.37280100  0.50000000  1
  Al  Al4  1  0.37280100  0.88777600  0.50000000  1
  Al  Al5  1  0.62719900  0.11222400  0.50000000  1
  Al  Al6  1  0.37280100  0.11222400  0.50000000  1
  Al  Al7  1  0.62719900  0.88777600  0.50000000  1
  Al  Al8  1  0.33152900  0.33152900  0.50000000  1
  Al  Al9  1  0.66847100  0.66847100  0.50000000  1
  Al  Al10  1  0.33152900  0.66847100  0.50000000  1
  Al  Al11  1  0.66847100  0.33152900  0.50000000  1
  Fe  Fe0  1  0.30598300  0.00000000  0.00000000  1
  Fe  Fe1  1  0.69401700  0.00000000  0.00000000  1
  Fe  Fe2  1  0.00000000  0.69401700  0.00000000  1
  Fe  Fe3  1  0.00000000  0.30598300  0.00000000  1
  Si  Si0  1  0.18921400  0.00000000  0.50000000  1
  Si  Si1  1  0.81078600  0.00000000  0.50000000  1
  Si  Si2  1  0.00000000  0.81078600  0.50000000  1
  Si  Si3  1  0.00000000  0.18921400  0.50000000  1
  Si  Si4  1  0.00000000  0.50000000  0.00000000  1
  Si  Si5  1  0.50000000  0.00000000  0.00000000  1
loop_
_geom_bond_atom_site_label_1
_geom_bond_atom_site_label_2
_geom_bond_distance
_geom_bond_site_symmetry_2
Mg0 Si3 3.133018 1_554
Mg0 Si0 3.133018 1_554
Mg0 Si3 3.133018 1_555
Mg0 Si0 3.133018 1_555
Mg1 Si1 3.133018 1_564
Mg1 Si2 3.133018 1_654
Mg1 Si2 3.133018 1_655
Mg1 Si1 3.133018 1_565
Mg2 Si2 3.133018 1_555
Mg2 Si0 3.133018 1_565
Mg2 Si0 3.133018 1_564
Mg2 Si2 3.133018 1_554
Mg3 Si3 3.133018 1_655
Mg3 Si1 3.133018 1_554
Mg3 Si1 3.133018 1_555
Mg3 Si3 3.133018 1_654
Al0 Fe3 2.533268 1_556
Al0 Fe3 2.533268 1_555
Al0 Si3 2.562942 1_555
Al0 Al8 2.658043 1_555
Al0 Al3 2.673447 1_455
Al0 Si4 2.842450 1_555
Al0 Si4 2.842450 1_556
Al0 Y0 3.008811 1_556
Al0 Y0 3.008811 1_555
Al0 Al2 3.030187 1_555
Al0 Mg0 3.045863 1_555
Al0 Mg0 3.045863 1_556
Al1 Fe2 2.533268 1_656
Al1 Fe2 2.533268 1_655
Al1 Si2 2.562942 1_655
Al1 Al9 2.658043 1_555
Al1 Al2 2.673447 1_655
Al1 Si4 2.842450 1_656
Al1 Si4 2.842450 1_655
Al1 Y1 3.008811 1_556
Al1 Y1 3.008811 1_555
Al1 Al3 3.030187 1_555
Al1 Mg1 3.045863 1_555
Al1 Mg1 3.045863 1_556
Al2 Fe2 2.533268 1_556
Al2 Fe2 2.533268 1_555
Al2 Si2 2.562942 1_555
Al2 Si4 2.842450 1_556
Al2 Si4 2.842450 1_555
Al2 Y0 3.008811 1_555
Al2 Y0 3.008811 1_556
Al2 Mg2 3.045863 1_555
Al2 Mg2 3.045863 1_556
Al3 Fe3 2.533268 1_655
Al3 Fe3 2.533268 1_656
Al3 Si3 2.562942 1_655
Al3 Si4 2.842450 1_655
Al3 Si4 2.842450 1_656
Al3 Y1 3.008811 1_555
Al3 Y1 3.008811 1_556
Al3 Mg3 3.045863 1_555
Al3 Mg3 3.045863 1_556
Al4 Fe0 2.533268 1_565
Al4 Fe0 2.533268 1_566
Al4 Si0 2.562942 1_565
Al4 Al6 2.673447 1_565
Al4 Si5 2.842450 1_565
Al4 Si5 2.842450 1_566
Al4 Y2 3.008811 1_555
Al4 Y2 3.008811 1_556
Al4 Al7 3.030187 1_555
Al4 Mg2 3.045863 1_555
Al4 Mg2 3.045863 1_556
Al5 Fe1 2.533268 1_556
Al5 Fe1 2.533268 1_555
Al5 Si1 2.562942 1_555
Al5 Al7 2.673447 1_545
Al5 Si5 2.842450 1_555
Al5 Si5 2.842450 1_556
Al5 Y3 3.008811 1_555
Al5 Y3 3.008811 1_556
Al5 Al6 3.030187 1_555
Al5 Mg3 3.045863 1_555
Al5 Mg3 3.045863 1_556
Al6 Fe0 2.533268 1_555
Al6 Fe0 2.533268 1_556
Al6 Si0 2.562942 1_555
Al6 Al8 2.658043 1_555
Al6 Si5 2.842450 1_555
Al6 Si5 2.842450 1_556
Al6 Y3 3.008811 1_556
Al6 Y3 3.008811 1_555
Al6 Mg0 3.045863 1_555
Al6 Mg0 3.045863 1_556
Al7 Fe1 2.533268 1_565
Al7 Fe1 2.533268 1_566
Al7 Si1 2.562942 1_565
Al7 Al9 2.658043 1_555
Al7 Si5 2.842450 1_565
Al7 Si5 2.842450 1_566
Al7 Y2 3.008811 1_556
Al7 Y2 3.008811 1_555
Al7 Mg1 3.045863 1_555
Al7 Mg1 3.045863 1_556
Al8 Mg4 2.837892 1_555
Al8 Mg0 2.958102 1_555
Al8 Mg0 2.958102 1_556
Al8 Y3 2.987976 1_556
Al8 Y0 2.987976 1_556
Al8 Y3 2.987976 1_555
Al8 Y0 2.987976 1_555
Al9 Mg4 2.837892 1_555
Al9 Mg1 2.958102 1_555
Al9 Mg1 2.958102 1_556
Al9 Y1 2.987976 1_556
Al9 Y2 2.987976 1_556
Al9 Y1 2.987976 1_555
Al9 Y2 2.987976 1_555
Al10 Al4 2.658043 1_555
Al10 Al2 2.658043 1_555
Al10 Mg4 2.837892 1_555
Al10 Mg2 2.958102 1_556
Al10 Mg2 2.958102 1_555
Al10 Y2 2.987976 1_555
Al10 Y2 2.987976 1_556
Al10 Y0 2.987976 1_556
Al10 Y0 2.987976 1_555
Al11 Al3 2.658043 1_555
Al11 Al5 2.658043 1_555
Al11 Mg4 2.837892 1_555
Al11 Mg3 2.958102 1_555
Al11 Mg3 2.958102 1_556
Al11 Y1 2.987976 1_556
Al11 Y1 2.987976 1_555
Al11 Y3 2.987976 1_556
Al11 Y3 2.987976 1_555
Fe0 Si5 2.310977 1_555
Fe0 Si0 2.435503 1_555
Fe0 Si0 2.435503 1_554
Fe0 Mg0 2.706668 1_555
Fe0 Mg2 2.706668 1_545
Fe1 Si5 2.310977 1_555
Fe1 Si1 2.435503 1_555
Fe1 Si1 2.435503 1_554
Fe1 Mg1 2.706668 1_545
Fe1 Mg3 2.706668 1_555
Fe2 Si4 2.310977 1_555
Fe2 Si2 2.435503 1_554
Fe2 Si2 2.435503 1_555
Fe2 Mg2 2.706668 1_555
Fe2 Mg1 2.706668 1_455
Fe3 Si4 2.310977 1_555
Fe3 Si3 2.435503 1_555
Fe3 Si3 2.435503 1_554
Fe3 Mg3 2.706668 1_455
Fe3 Mg0 2.706668 1_555
Si0 Y4 3.012748 1_556
Si0 Y4 3.012748 1_555
Si1 Y4 3.012748 1_655
Si1 Y4 3.012748 1_656
Si2 Y4 3.012748 1_565
Si2 Y4 3.012748 1_566
Si3 Y4 3.012748 1_556
Si3 Y4 3.012748 1_555
Si4 Y1 2.998122 1_455
Si4 Y0 2.998122 1_555
Si5 Y2 2.998122 1_545
Si5 Y3 2.998122 1_555
