# generated using pymatgen
data_Mn5O3F5
_symmetry_space_group_name_H-M   'P 1'
_cell_length_a   6.37439997
_cell_length_b   11.14556144
_cell_length_c   6.36961191
_cell_angle_alpha   72.75927401
_cell_angle_beta   61.01750436
_cell_angle_gamma   89.85448961
_symmetry_Int_Tables_number   1
_chemical_formula_structural   Mn5O3F5
_chemical_formula_sum   'Mn10 O6 F10'
_cell_volume   372.64899741
_cell_formula_units_Z   2
loop_
 _symmetry_equiv_pos_site_id
 _symmetry_equiv_pos_as_xyz
  1  'x, y, z'
loop_
 _atom_site_type_symbol
 _atom_site_label
 _atom_site_symmetry_multiplicity
 _atom_site_fract_x
 _atom_site_fract_y
 _atom_site_fract_z
 _atom_site_occupancy
  Mn  Mn0  1  0.04204600  0.68160300  0.39024200  1
  Mn  Mn1  1  0.97300600  0.99366100  0.97028300  1
  Mn  Mn2  1  0.81291600  0.44417700  0.38217800  1
  Mn  Mn3  1  0.57273500  0.68928000  0.37928300  1
  Mn  Mn4  1  0.07485100  0.69430600  0.89004800  1
  Mn  Mn5  1  0.57090300  0.18157100  0.36109900  1
  Mn  Mn6  1  0.46403600  0.49405200  0.97915600  1
  Mn  Mn7  1  0.32639000  0.94409800  0.36898400  1
  Mn  Mn8  1  0.08438600  0.19421900  0.37978500  1
  Mn  Mn9  1  0.56928800  0.18954400  0.88322000  1
  O  O0  1  0.66375600  0.06562000  0.12865500  1
  O  O1  1  0.14732700  0.57560700  0.12160400  1
  O  O2  1  0.40389900  0.29289900  0.14529700  1
  O  O3  1  0.93837000  0.79277600  0.11132900  1
  O  O4  1  0.19665700  0.07564000  0.57172800  1
  O  O5  1  0.69427400  0.56576400  0.59800100  1
  F  F0  1  0.19342700  0.05971100  0.11094900  1
  F  F1  1  0.67075100  0.55968700  0.13380300  1
  F  F2  1  0.92365900  0.30953000  0.61625800  1
  F  F3  1  0.42641100  0.80962300  0.61389800  1
  F  F4  1  0.94006700  0.29939700  0.18481200  1
  F  F5  1  0.39566700  0.79840500  0.19525600  1
  F  F6  1  0.74542500  0.09409600  0.58879000  1
  F  F7  1  0.18347500  0.59406700  0.65137700  1
  F  F8  1  0.49352200  0.29856300  0.59751000  1
  F  F9  1  0.98477200  0.79944600  0.64113100  1
loop_
_geom_bond_atom_site_label_1
_geom_bond_atom_site_label_2
_geom_bond_distance
_geom_bond_site_symmetry_2
Mn0 O5 2.119276 1_455
Mn0 O1 2.203498 1_555
Mn0 O3 2.226437 1_455
Mn1 O0 2.022691 1_566
Mn1 O4 2.106262 1_665
Mn1 O3 2.118210 1_556
Mn2 O5 2.095186 1_555
Mn2 O1 2.142567 1_655
Mn3 O5 2.083250 1_555
Mn3 O3 2.160431 1_555
Mn4 O1 1.907784 1_556
Mn4 O3 1.916196 1_456
Mn5 O0 2.119829 1_555
Mn5 O4 2.204246 1_555
Mn5 O2 2.227705 1_555
Mn6 O5 2.022314 1_555
Mn6 O1 2.104664 1_556
Mn6 O2 2.120870 1_556
Mn7 O0 2.097152 1_565
Mn7 O4 2.140631 1_565
Mn8 O4 1.907596 1_555
Mn8 O2 1.917888 1_555
Mn9 O0 2.083851 1_556
Mn9 O2 2.157159 1_556
F0 Mn1 2.221517 1_444
F0 Mn7 2.273574 1_545
F0 Mn9 2.311668 1_554
F0 Mn8 2.454769 1_555
F1 Mn6 2.220730 1_554
F1 Mn2 2.271050 1_555
F1 Mn3 2.304115 1_555
F1 Mn4 2.461719 1_654
F2 Mn8 2.148377 1_655
F2 Mn2 2.159117 1_555
F2 Mn9 2.174288 1_555
F3 Mn4 2.149991 1_555
F3 Mn7 2.158600 1_555
F3 Mn3 2.175622 1_555
F4 Mn8 2.000384 1_655
F4 Mn2 2.247142 1_555
F4 Mn5 2.259184 1_555
F5 Mn3 2.134790 1_555
F5 Mn7 2.155066 1_555
F5 Mn0 2.159116 1_555
F6 Mn8 2.007533 1_655
F6 Mn5 2.238611 1_555
F6 Mn9 2.246218 1_555
F7 Mn4 2.005373 1_555
F7 Mn0 2.240095 1_555
F7 Mn3 2.245532 1_555
F8 Mn9 2.135311 1_555
F8 Mn2 2.156711 1_555
F8 Mn5 2.156849 1_555
F9 Mn4 1.998557 1_655
F9 Mn7 2.247051 1_655
F9 Mn0 2.255783 1_655
