# generated using pymatgen
data_Li8Fe7P12WO48
_symmetry_space_group_name_H-M   'P 1'
_cell_length_a   8.67775600
_cell_length_b   8.79782305
_cell_length_c   12.20509669
_cell_angle_alpha   90.26566298
_cell_angle_beta   90.10215051
_cell_angle_gamma   90.05498500
_symmetry_Int_Tables_number   1
_chemical_formula_structural   Li8Fe7P12WO48
_chemical_formula_sum   'Li8 Fe7 P12 W1 O48'
_cell_volume   931.79058868
_cell_formula_units_Z   1
loop_
 _symmetry_equiv_pos_site_id
 _symmetry_equiv_pos_as_xyz
  1  'x, y, z'
loop_
 _atom_site_type_symbol
 _atom_site_label
 _atom_site_symmetry_multiplicity
 _atom_site_fract_x
 _atom_site_fract_y
 _atom_site_fract_z
 _atom_site_occupancy
  Li  Li0  1  0.21733400  0.72256300  0.18072100  1
  Li  Li1  1  0.21933300  0.77898100  0.81993100  1
  Li  Li2  1  0.28143900  0.22229100  0.31731500  1
  Li  Li3  1  0.28109800  0.27714300  0.68401800  1
  Li  Li4  1  0.71550900  0.72647800  0.31499300  1
  Li  Li5  1  0.71750700  0.78997300  0.68365200  1
  Li  Li6  1  0.78611100  0.22205900  0.17958000  1
  Li  Li7  1  0.78777900  0.27375900  0.82839200  1
  Fe  Fe0  1  0.24738100  0.96100200  0.61363000  1
  Fe  Fe1  1  0.24861400  0.54253000  0.38336500  1
  Fe  Fe2  1  0.25141900  0.04161500  0.11252900  1
  Fe  Fe3  1  0.25264400  0.45701300  0.89105900  1
  Fe  Fe4  1  0.74958400  0.54024500  0.11162900  1
  Fe  Fe5  1  0.74641200  0.96221300  0.89167700  1
  Fe  Fe6  1  0.74964500  0.03645900  0.38409800  1
  P  P0  1  0.04402800  0.24479300  0.49646600  1
  P  P1  1  0.10421000  0.39365400  0.14744000  1
  P  P2  1  0.10595700  0.10623200  0.85239100  1
  P  P3  1  0.38893300  0.60386200  0.64555200  1
  P  P4  1  0.39361400  0.89459100  0.35434400  1
  P  P5  1  0.46100300  0.74960700  0.00020300  1
  P  P6  1  0.54003000  0.25059500  0.00103000  1
  P  P7  1  0.60355500  0.39209000  0.34962000  1
  P  P8  1  0.60196600  0.10344500  0.64381200  1
  P  P9  1  0.89820900  0.61181200  0.85322900  1
  P  P10  1  0.89529700  0.89243700  0.14739100  1
  P  P11  1  0.96384400  0.75223900  0.49701700  1
  W  W0  1  0.75304100  0.46160300  0.61378700  1
  O  O0  1  0.05522200  0.63795200  0.43130200  1
  O  O1  1  0.05238100  0.85377700  0.57486000  1
  O  O2  1  0.07331500  0.89489100  0.15637900  1
  O  O3  1  0.07280000  0.60454700  0.83967800  1
  O  O4  1  0.14216800  0.16561100  0.58317300  1
  O  O5  1  0.14612400  0.34009900  0.42197900  1
  O  O6  1  0.15367900  0.43412900  0.03060100  1
  O  O7  1  0.15603800  0.06603500  0.96903100  1
  O  O8  1  0.16210000  0.23361700  0.18051400  1
  O  O9  1  0.16229200  0.26727300  0.81950200  1
  O  O10  1  0.17454800  0.51481100  0.22631500  1
  O  O11  1  0.17447000  0.98529200  0.77282900  1
  O  O12  1  0.32591800  0.01486100  0.27527900  1
  O  O13  1  0.32797000  0.48398600  0.72474000  1
  O  O14  1  0.34683100  0.76633600  0.68047800  1
  O  O15  1  0.33608900  0.73373700  0.32053600  1
  O  O16  1  0.34962100  0.56712400  0.52743300  1
  O  O17  1  0.34275500  0.93420200  0.47164700  1
  O  O18  1  0.35120600  0.83683400  0.07923200  1
  O  O19  1  0.35109200  0.66203300  0.92118300  1
  O  O20  1  0.42738200  0.11179500  0.65700300  1
  O  O21  1  0.42804500  0.39323800  0.34880700  1
  O  O22  1  0.44372400  0.14210500  0.07019400  1
  O  O23  1  0.44552600  0.35809400  0.92906800  1
  O  O24  1  0.55734500  0.64232100  0.07103600  1
  O  O25  1  0.55673900  0.85663500  0.92897500  1
  O  O26  1  0.57667400  0.59241500  0.65410600  1
  O  O27  1  0.57207000  0.89500900  0.34532400  1
  O  O28  1  0.64802900  0.33834500  0.08106100  1
  O  O29  1  0.64888500  0.16380300  0.92088700  1
  O  O30  1  0.65491100  0.07054800  0.52808600  1
  O  O31  1  0.65964700  0.42947600  0.47476100  1
  O  O32  1  0.66576000  0.23440500  0.32163000  1
  O  O33  1  0.66475600  0.27439300  0.67370600  1
  O  O34  1  0.67621100  0.51745300  0.28114100  1
  O  O35  1  0.67668600  0.99396500  0.72504500  1
  O  O36  1  0.82626700  0.01334900  0.22671200  1
  O  O37  1  0.82809600  0.48695400  0.76580300  1
  O  O38  1  0.83694200  0.73205800  0.17976500  1
  O  O39  1  0.83413600  0.76612000  0.81689700  1
  O  O40  1  0.84055800  0.55938600  0.96379400  1
  O  O41  1  0.84477700  0.93230300  0.03078200  1
  O  O42  1  0.84980800  0.65341100  0.57762200  1
  O  O43  1  0.84690300  0.83367000  0.42396900  1
  O  O44  1  0.92734400  0.10432100  0.84353100  1
  O  O45  1  0.92592700  0.39659400  0.15653000  1
  O  O46  1  0.94015400  0.14142100  0.43061500  1
  O  O47  1  0.93458600  0.35798000  0.56758900  1
loop_
_geom_bond_atom_site_label_1
_geom_bond_atom_site_label_2
_geom_bond_distance
_geom_bond_site_symmetry_2
Li0 O10 1.948619 1_555
Li0 O18 1.977129 1_555
Li0 O2 1.988782 1_555
Li0 O15 1.993896 1_555
Li1 O11 1.945979 1_555
Li1 O19 1.975373 1_555
Li1 O3 2.007708 1_555
Li1 O14 2.034359 1_555
Li2 O12 1.932862 1_555
Li2 O8 1.966153 1_555
Li2 O21 2.004340 1_555
Li2 O5 2.019975 1_555
Li3 O13 1.927042 1_555
Li3 O9 1.952448 1_555
Li3 O20 1.958796 1_555
Li3 O4 1.977996 1_555
Li4 O34 1.913123 1_555
Li4 O38 1.960546 1_555
Li4 O27 1.971016 1_555
Li4 O43 1.984789 1_555
Li5 O35 1.896065 1_555
Li5 O39 1.926342 1_555
Li5 O42 2.104708 1_555
Li5 O26 2.152456 1_555
Li6 O36 1.958126 1_555
Li6 O45 1.977551 1_555
Li6 O28 1.984166 1_555
Li6 O32 2.028123 1_555
Li7 O29 1.917214 1_555
Li7 O44 1.930880 1_555
Li7 O37 2.058398 1_555
Li7 O33 2.167263 1_555
Fe0 O17 1.935269 1_555
Fe0 O1 1.991775 1_555
Fe0 O4 2.054345 1_565
Fe0 O11 2.054793 1_555
Fe0 O14 2.087308 1_555
Fe0 O20 2.113446 1_565
Fe1 O0 1.965990 1_555
Fe1 O16 1.974221 1_555
Fe1 O15 2.001412 1_555
Fe1 O10 2.034134 1_555
Fe1 O5 2.047228 1_555
Fe1 O21 2.080529 1_555
Fe2 O7 1.948672 1_554
Fe2 O22 1.959055 1_555
Fe2 O8 2.033340 1_555
Fe2 O18 2.039192 1_545
Fe2 O2 2.084937 1_545
Fe2 O12 2.102165 1_555
Fe3 O6 1.920092 1_556
Fe3 O23 1.943682 1_555
Fe3 O19 2.026878 1_555
Fe3 O9 2.036070 1_555
Fe3 O3 2.126397 1_555
Fe3 O13 2.147822 1_555
Fe4 O24 1.959313 1_555
Fe4 O40 1.978605 1_554
Fe4 O28 2.015113 1_555
Fe4 O38 2.023933 1_555
Fe4 O45 2.060680 1_555
Fe4 O34 2.175845 1_555
Fe5 O41 1.918268 1_556
Fe5 O25 1.944934 1_555
Fe5 O29 1.996731 1_565
Fe5 O39 2.092653 1_555
Fe5 O44 2.092822 1_565
Fe5 O35 2.140449 1_555
Fe6 O30 1.963392 1_555
Fe6 O46 1.974075 1_555
Fe6 O27 2.033571 1_545
Fe6 O43 2.035094 1_545
Fe6 O32 2.038811 1_555
Fe6 O36 2.043167 1_555
O0 P11 1.509761 1_455
O1 P11 1.509689 1_455
O2 P10 1.548615 1_455
O3 P9 1.525720 1_455
O4 P0 1.528158 1_555
O5 P0 1.524141 1_555
O6 P1 1.533377 1_555
O7 P2 1.530796 1_555
O8 P1 1.550360 1_555
O9 P2 1.553098 1_555
O10 P1 1.556479 1_555
O11 P2 1.556356 1_565
O12 P4 1.550664 1_545
O13 P3 1.528551 1_555
O14 P3 1.534384 1_555
O15 P4 1.553911 1_555
O16 P3 1.514240 1_555
O17 P4 1.537498 1_555
O18 P5 1.557213 1_555
O19 P5 1.556240 1_556
O20 P8 1.525617 1_555
O21 P7 1.523091 1_555
O22 P6 1.526599 1_555
O23 P6 1.531350 1_556
O24 P5 1.530938 1_555
O25 P5 1.530113 1_556
O26 P3 1.635556 1_555
O26 W0 1.977320 1_555
O27 P4 1.552704 1_555
O28 P6 1.554602 1_555
O29 P6 1.558811 1_556
O30 P8 1.512825 1_555
O31 P7 1.634111 1_555
O31 W0 1.898986 1_555
O32 P7 1.526548 1_555
O33 P8 1.638465 1_555
O33 W0 1.960930 1_555
O34 P7 1.523679 1_555
O35 P8 1.529346 1_565
O36 P10 1.556091 1_545
O37 P9 1.643456 1_555
O37 W0 1.976846 1_555
O38 P10 1.551757 1_555
O39 P9 1.534582 1_555
O40 P9 1.513865 1_555
O41 P10 1.530841 1_555
O42 P11 1.647070 1_555
O42 W0 1.937293 1_555
O43 P11 1.530362 1_555
O44 P2 1.553605 1_655
O45 P1 1.551498 1_655
O46 P0 1.508189 1_655
O47 P0 1.625989 1_655
O47 W0 1.905807 1_555
