# generated using pymatgen
data_CoH2(CO2)2
_symmetry_space_group_name_H-M   'P 1'
_cell_length_a   9.98683500
_cell_length_b   11.41393000
_cell_length_c   18.41433697
_cell_angle_alpha   53.10229695
_cell_angle_beta   90.00000000
_cell_angle_gamma   90.00000000
_symmetry_Int_Tables_number   1
_chemical_formula_structural   CoH2(CO2)2
_chemical_formula_sum   'Co12 H24 C24 O48'
_cell_volume   1678.61462125
_cell_formula_units_Z   12
loop_
 _symmetry_equiv_pos_site_id
 _symmetry_equiv_pos_as_xyz
  1  'x, y, z'
loop_
 _atom_site_type_symbol
 _atom_site_label
 _atom_site_symmetry_multiplicity
 _atom_site_fract_x
 _atom_site_fract_y
 _atom_site_fract_z
 _atom_site_occupancy
  Co  Co0  1  0.07920200  0.62279700  0.13332800  1
  Co  Co1  1  0.57920200  0.37720300  0.36667200  1
  Co  Co2  1  0.92079800  0.37720300  0.86667200  1
  Co  Co3  1  0.42079800  0.62279700  0.63332800  1
  Co  Co4  1  0.88827000  0.43063600  0.31035400  1
  Co  Co5  1  0.38827000  0.56936400  0.18964600  1
  Co  Co6  1  0.11173000  0.56936400  0.68964600  1
  Co  Co7  1  0.61173000  0.43063600  0.81035400  1
  Co  Co8  1  0.00000000  0.50000000  0.00000000  1
  Co  Co9  1  0.50000000  0.50000000  0.50000000  1
  Co  Co10  1  0.00000000  0.00000000  0.00000000  1
  Co  Co11  1  0.50000000  0.00000000  0.50000000  1
  H  H0  1  0.25501700  0.49142000  0.37159500  1
  H  H1  1  0.75501700  0.50858000  0.12840500  1
  H  H2  1  0.74498300  0.50858000  0.62840500  1
  H  H3  1  0.24498300  0.49142000  0.87159500  1
  H  H4  1  0.96698100  0.20075600  0.27225500  1
  H  H5  1  0.46698100  0.79924400  0.22774500  1
  H  H6  1  0.03301900  0.79924400  0.72774500  1
  H  H7  1  0.53301900  0.20075600  0.77225500  1
  H  H8  1  0.39545800  0.51872500  0.03970100  1
  H  H9  1  0.89545800  0.48127500  0.46029900  1
  H  H10  1  0.60454200  0.48127500  0.96029900  1
  H  H11  1  0.10454200  0.51872500  0.53970100  1
  H  H12  1  0.79577500  0.74760500  0.23672100  1
  H  H13  1  0.29577500  0.25239500  0.26327900  1
  H  H14  1  0.20422500  0.25239500  0.76327900  1
  H  H15  1  0.70422500  0.74760500  0.73672100  1
  H  H16  1  0.83500600  0.76327400  0.92548900  1
  H  H17  1  0.33500600  0.23672600  0.57451100  1
  H  H18  1  0.16499400  0.23672600  0.07451100  1
  H  H19  1  0.66499400  0.76327400  0.42548900  1
  H  H20  1  0.29568200  0.99445600  0.00322900  1
  H  H21  1  0.79568200  0.00554400  0.49677100  1
  H  H22  1  0.70431800  0.00554400  0.99677100  1
  H  H23  1  0.20431800  0.99445600  0.50322900  1
  C  C0  1  0.17112900  0.50031900  0.32942900  1
  C  C1  1  0.67112900  0.49968100  0.17057100  1
  C  C2  1  0.82887100  0.49968100  0.67057100  1
  C  C3  1  0.32887100  0.50031900  0.82942900  1
  C  C4  1  0.98907600  0.31024400  0.20879900  1
  C  C5  1  0.48907600  0.68975600  0.29120100  1
  C  C6  1  0.01092400  0.68975600  0.79120100  1
  C  C7  1  0.51092400  0.31024400  0.70879900  1
  C  C8  1  0.28688300  0.52864900  0.04729400  1
  C  C9  1  0.78688300  0.47135100  0.45270600  1
  C  C10  1  0.71311700  0.47135100  0.95270600  1
  C  C11  1  0.21311700  0.52864900  0.54729400  1
  C  C12  1  0.86886600  0.76977200  0.18446300  1
  C  C13  1  0.36886600  0.23022800  0.31553700  1
  C  C14  1  0.13113400  0.23022800  0.81553700  1
  C  C15  1  0.63113400  0.76977200  0.68446300  1
  C  C16  1  0.89648500  0.77269000  0.97150500  1
  C  C17  1  0.39648500  0.22731000  0.52849500  1
  C  C18  1  0.10351500  0.22731000  0.02849500  1
  C  C19  1  0.60351500  0.77269000  0.47150500  1
  C  C20  1  0.27782500  0.87531100  0.05151900  1
  C  C21  1  0.77782500  0.12468900  0.44848100  1
  C  C22  1  0.72217500  0.12468900  0.94848100  1
  C  C23  1  0.22217500  0.87531100  0.55151900  1
  O  O0  1  0.19828000  0.56299300  0.24518900  1
  O  O1  1  0.69828000  0.43700700  0.25481100  1
  O  O2  1  0.80172000  0.43700700  0.75481100  1
  O  O3  1  0.30172000  0.56299300  0.74518900  1
  O  O4  1  0.05922000  0.45001300  0.36722500  1
  O  O5  1  0.55922000  0.54998700  0.13277500  1
  O  O6  1  0.94078000  0.54998700  0.63277500  1
  O  O7  1  0.44078000  0.45001300  0.86722500  1
  O  O8  1  0.99438600  0.41487100  0.21648100  1
  O  O9  1  0.49438600  0.58512900  0.28351900  1
  O  O10  1  0.00561400  0.58512900  0.78351900  1
  O  O11  1  0.50561400  0.41487100  0.71648100  1
  O  O12  1  0.00647200  0.32247900  0.13727100  1
  O  O13  1  0.50647200  0.67752100  0.36272900  1
  O  O14  1  0.99352800  0.67752100  0.86272900  1
  O  O15  1  0.49352800  0.32247900  0.63727100  1
  O  O16  1  0.25491300  0.54530100  0.10823600  1
  O  O17  1  0.75491300  0.45469900  0.39176400  1
  O  O18  1  0.74508700  0.45469900  0.89176400  1
  O  O19  1  0.24508700  0.54530100  0.60823600  1
  O  O20  1  0.20768600  0.52186600  0.99696600  1
  O  O21  1  0.70768600  0.47813400  0.50303400  1
  O  O22  1  0.79231400  0.47813400  0.00303400  1
  O  O23  1  0.29231400  0.52186600  0.49696600  1
  O  O24  1  0.91621800  0.65618900  0.19452700  1
  O  O25  1  0.41621800  0.34381100  0.30547300  1
  O  O26  1  0.08378200  0.34381100  0.80547300  1
  O  O27  1  0.58378200  0.65618900  0.69452700  1
  O  O28  1  0.89632800  0.90098400  0.12227800  1
  O  O29  1  0.39632800  0.09901600  0.37772200  1
  O  O30  1  0.10367200  0.09901600  0.87772200  1
  O  O31  1  0.60367200  0.90098400  0.62227800  1
  O  O32  1  0.97362200  0.66194300  0.02537200  1
  O  O33  1  0.47362200  0.33805700  0.47462800  1
  O  O34  1  0.02637800  0.33805700  0.97462800  1
  O  O35  1  0.52637800  0.66194300  0.52537200  1
  O  O36  1  0.88536800  0.88481000  0.96811000  1
  O  O37  1  0.38536800  0.11519000  0.53189000  1
  O  O38  1  0.11463200  0.11519000  0.03189000  1
  O  O39  1  0.61463200  0.88481000  0.46811000  1
  O  O40  1  0.15439700  0.83462800  0.06082800  1
  O  O41  1  0.65439700  0.16537200  0.43917200  1
  O  O42  1  0.84560300  0.16537200  0.93917200  1
  O  O43  1  0.34560300  0.83462800  0.56082800  1
  O  O44  1  0.37687900  0.79349500  0.09206000  1
  O  O45  1  0.87687900  0.20650500  0.40794000  1
  O  O46  1  0.62312100  0.20650500  0.90794000  1
  O  O47  1  0.12312100  0.79349500  0.59206000  1
loop_
_geom_bond_atom_site_label_1
_geom_bond_atom_site_label_2
_geom_bond_distance
_geom_bond_site_symmetry_2
Co0 O32 2.048598 1_455
Co0 O40 2.077540 1_555
Co0 O8 2.081071 1_455
Co0 O0 2.105893 1_555
Co0 O16 2.136811 1_555
Co0 O24 2.140186 1_455
Co1 O33 2.048598 1_555
Co1 O41 2.077540 1_555
Co1 O9 2.081071 1_555
Co1 O1 2.105893 1_555
Co1 O17 2.136811 1_555
Co1 O25 2.140186 1_555
Co2 O34 2.048598 1_655
Co2 O42 2.077540 1_555
Co2 O10 2.081071 1_655
Co2 O2 2.105893 1_555
Co2 O18 2.136811 1_555
Co2 O26 2.140186 1_655
Co3 O35 2.048598 1_555
Co3 O43 2.077540 1_555
Co3 O11 2.081071 1_555
Co3 O3 2.105893 1_555
Co3 O19 2.136811 1_555
Co3 O27 2.140186 1_555
Co4 O45 2.065551 1_555
Co4 O4 2.082895 1_655
Co4 O8 2.125338 1_555
Co4 O1 2.135930 1_555
Co4 O17 2.142639 1_555
Co4 O24 2.159029 1_555
Co5 O44 2.065551 1_555
Co5 O5 2.082895 1_555
Co5 O9 2.125338 1_555
Co5 O0 2.135930 1_555
Co5 O16 2.142639 1_555
Co5 O25 2.159029 1_555
Co6 O47 2.065551 1_555
Co6 O6 2.082895 1_455
Co6 O10 2.125338 1_555
Co6 O3 2.135930 1_555
Co6 O19 2.142639 1_555
Co6 O26 2.159029 1_555
Co7 O46 2.065551 1_555
Co7 O7 2.082895 1_555
Co7 O11 2.125338 1_555
Co7 O2 2.135930 1_555
Co7 O18 2.142639 1_555
Co7 O27 2.159029 1_555
Co8 O14 2.085464 1_454
Co8 O12 2.085464 1_555
Co8 O20 2.085825 1_554
Co8 O22 2.085825 1_455
Co8 O32 2.177445 1_455
Co8 O34 2.177445 1_554
Co9 O15 2.085464 1_555
Co9 O13 2.085464 1_555
Co9 O21 2.085825 1_555
Co9 O23 2.085825 1_555
Co9 O35 2.177445 1_555
Co9 O33 2.177445 1_555
Co10 O38 2.076330 1_555
Co10 O36 2.076330 1_444
Co10 O28 2.088914 1_445
Co10 O30 2.088914 1_554
Co10 O42 2.157844 1_454
Co10 O40 2.157844 1_545
Co11 O39 2.076330 1_545
Co11 O37 2.076330 1_555
Co11 O31 2.088914 1_545
Co11 O29 2.088914 1_555
Co11 O41 2.157844 1_555
Co11 O43 2.157844 1_545
C0 H0 1.104704 1_555
C0 O4 1.258291 1_555
C0 O0 1.288052 1_555
C1 H1 1.104704 1_555
C1 O5 1.258291 1_555
C1 O1 1.288052 1_555
C2 H2 1.104704 1_555
C2 O6 1.258291 1_555
C2 O2 1.288052 1_555
C3 H3 1.104704 1_555
C3 O7 1.258291 1_555
C3 O3 1.288052 1_555
C4 H4 1.105603 1_555
C4 O12 1.250470 1_655
C4 O8 1.285223 1_555
C5 H5 1.105603 1_555
C5 O13 1.250470 1_555
C5 O9 1.285223 1_555
C6 H6 1.105603 1_555
C6 O14 1.250470 1_455
C6 O10 1.285223 1_555
C7 H7 1.105603 1_555
C7 O15 1.250470 1_555
C7 O11 1.285223 1_555
C8 H8 1.107768 1_555
C8 O20 1.255625 1_554
C8 O16 1.285895 1_555
C9 H9 1.107768 1_555
C9 O21 1.255625 1_555
C9 O17 1.285895 1_555
C10 H10 1.107768 1_555
C10 O22 1.255625 1_556
C10 O18 1.285895 1_555
C11 H11 1.107768 1_555
C11 O23 1.255625 1_555
C11 O19 1.285895 1_555
C12 H12 1.109278 1_555
C12 O28 1.253050 1_555
C12 O24 1.284604 1_555
C13 H13 1.109278 1_555
C13 O29 1.253050 1_555
C13 O25 1.284604 1_555
C14 H14 1.109278 1_555
C14 O30 1.253050 1_555
C14 O26 1.284604 1_555
C15 H15 1.109278 1_555
C15 O31 1.253050 1_555
C15 O27 1.284604 1_555
C16 H16 1.102671 1_555
C16 O36 1.248149 1_555
C16 O32 1.292134 1_556
C17 H17 1.102671 1_555
C17 O37 1.248149 1_555
C17 O33 1.292134 1_555
C18 H18 1.102671 1_555
C18 O38 1.248149 1_555
C18 O34 1.292134 1_554
C19 H19 1.102671 1_555
C19 O39 1.248149 1_555
C19 O35 1.292134 1_555
C20 H20 1.104458 1_555
C20 O44 1.253335 1_555
C20 O40 1.291846 1_555
C21 H21 1.104458 1_555
C21 O45 1.253335 1_555
C21 O41 1.291846 1_555
C22 H22 1.104458 1_555
C22 O46 1.253335 1_555
C22 O42 1.291846 1_555
C23 H23 1.104458 1_555
C23 O47 1.253335 1_555
C23 O43 1.291846 1_555
