# generated using pymatgen
data_K2NaTeO12
_symmetry_space_group_name_H-M   'P 1'
_cell_length_a   11.98118841
_cell_length_b   11.98118841
_cell_length_c   9.17543683
_cell_angle_alpha   69.65477787
_cell_angle_beta   69.65477787
_cell_angle_gamma   27.81027228
_symmetry_Int_Tables_number   1
_chemical_formula_structural   K2NaTeO12
_chemical_formula_sum   'K4 Na2 Te2 O24'
_cell_volume   573.72926274
_cell_formula_units_Z   2
loop_
 _symmetry_equiv_pos_site_id
 _symmetry_equiv_pos_as_xyz
  1  'x, y, z'
loop_
 _atom_site_type_symbol
 _atom_site_label
 _atom_site_symmetry_multiplicity
 _atom_site_fract_x
 _atom_site_fract_y
 _atom_site_fract_z
 _atom_site_occupancy
  K  K0  1  0.49587100  0.49587100  0.25888900  1
  K  K1  1  0.50412900  0.50412900  0.74111100  1
  K  K2  1  0.17381000  0.17381000  0.45464300  1
  K  K3  1  0.82619000  0.82619000  0.54535700  1
  Na  Na0  1  0.68067300  0.68067300  0.11651600  1
  Na  Na1  1  0.31932700  0.31932700  0.88348400  1
  Te  Te0  1  0.92937900  0.92937900  0.07259600  1
  Te  Te1  1  0.07062100  0.07062100  0.92740400  1
  O  O0  1  0.22483100  0.77516900  0.00000000  1
  O  O1  1  0.77516900  0.22483100  0.00000000  1
  O  O2  1  0.17597300  0.56381000  0.17071900  1
  O  O3  1  0.43619000  0.82402700  0.82928100  1
  O  O4  1  0.82402700  0.43619000  0.82928100  1
  O  O5  1  0.56381000  0.17597300  0.17071900  1
  O  O6  1  0.90649300  0.90649300  0.90223200  1
  O  O7  1  0.09350700  0.09350700  0.09776800  1
  O  O8  1  0.07861700  0.07861700  0.71980200  1
  O  O9  1  0.92138300  0.92138300  0.28019800  1
  O  O10  1  0.77453500  0.77453500  0.89714300  1
  O  O11  1  0.22546500  0.22546500  0.10285700  1
  O  O12  1  0.60527200  0.60527200  0.45111200  1
  O  O13  1  0.39472800  0.39472800  0.54888800  1
  O  O14  1  0.86191900  0.64340500  0.28205900  1
  O  O15  1  0.35659500  0.13808100  0.71794100  1
  O  O16  1  0.13808100  0.35659500  0.71794100  1
  O  O17  1  0.64340500  0.86191900  0.28205900  1
  O  O18  1  0.80348000  0.41022600  0.36700100  1
  O  O19  1  0.58977400  0.19652000  0.63299900  1
  O  O20  1  0.19652000  0.58977400  0.63299900  1
  O  O21  1  0.41022600  0.80348000  0.36700100  1
  O  O22  1  0.62359200  0.62359200  0.92689900  1
  O  O23  1  0.37640800  0.37640800  0.07310100  1
loop_
_geom_bond_atom_site_label_1
_geom_bond_atom_site_label_2
_geom_bond_distance
_geom_bond_site_symmetry_2
K0 O0 2.828298 1_555
K0 O1 2.828298 1_555
K0 O13 2.851432 1_555
K0 O18 3.280911 1_555
K0 O21 3.280911 1_555
K1 O0 2.828298 1_556
K1 O1 2.828298 1_556
K1 O12 2.851432 1_555
K1 O20 3.280911 1_555
K1 O19 3.280911 1_555
K2 O8 2.638743 1_555
K2 O18 2.649783 1_455
K2 O21 2.649783 1_545
K2 O14 2.975561 1_455
K2 O17 2.975561 1_545
K2 O11 3.013986 1_555
K3 O9 2.638743 1_555
K3 O19 2.649783 1_565
K3 O20 2.649783 1_655
K3 O15 2.975561 1_565
K3 O16 2.975561 1_655
K3 O10 3.013986 1_555
Na0 O10 2.381197 1_554
Na0 O22 2.538608 1_554
Na0 O21 2.585663 1_555
Na0 O18 2.585663 1_555
Na0 O17 2.707178 1_555
Na0 O14 2.707178 1_555
Na1 O11 2.381197 1_556
Na1 O23 2.538608 1_556
Na1 O20 2.585663 1_555
Na1 O19 2.585663 1_555
Na1 O15 2.707178 1_555
Na1 O16 2.707178 1_555
O0 Te0 2.008590 1_455
O0 Te1 2.008590 1_564
O1 Te1 2.008590 1_654
O1 Te0 2.008590 1_545
O2 O23 1.405333 1_555
O2 Te0 2.222488 1_455
O3 Te1 2.222488 1_565
O4 Te1 2.222488 1_655
O5 Te0 2.222488 1_545
O6 Te0 1.822895 1_556
O7 Te1 1.822895 1_554
O8 Te1 1.846407 1_555
O9 Te0 1.846407 1_555
O12 O21 1.363337 1_555
O12 O18 1.363337 1_555
O13 O19 1.363337 1_555
O13 O20 1.363337 1_555
O14 O17 1.258317 1_555
O15 O16 1.258317 1_555
O22 O4 1.405333 1_555
O22 O3 1.405333 1_555
O23 O5 1.405333 1_555
