# generated using pymatgen
data_Cs2MnH12(SO7)2
_symmetry_space_group_name_H-M   'P 1'
_cell_length_a   12.90088610
_cell_length_b   6.34313150
_cell_length_c   9.33491120
_cell_angle_alpha   72.71698954
_cell_angle_beta   90.00000000
_cell_angle_gamma   90.00000000
_symmetry_Int_Tables_number   1
_chemical_formula_structural   Cs2MnH12(SO7)2
_chemical_formula_sum   'Cs4 Mn2 H24 S4 O28'
_cell_volume   729.40395764
_cell_formula_units_Z   2
loop_
 _symmetry_equiv_pos_site_id
 _symmetry_equiv_pos_as_xyz
  1  'x, y, z'
loop_
 _atom_site_type_symbol
 _atom_site_label
 _atom_site_symmetry_multiplicity
 _atom_site_fract_x
 _atom_site_fract_y
 _atom_site_fract_z
 _atom_site_occupancy
  Cs  Cs0  1  0.14357383  0.64356205  0.63361420  1
  Cs  Cs1  1  0.64357383  0.35643795  0.86638580  1
  Cs  Cs2  1  0.85642617  0.35643795  0.36638580  1
  Cs  Cs3  1  0.35642617  0.64356205  0.13361420  1
  Mn  Mn0  1  0.50000000  -0.00000000  0.50000000  1
  Mn  Mn1  1  0.00000000  -0.00000000  0.00000000  1
  H  H0  1  0.39653594  0.67840729  0.71787400  1
  H  H1  1  0.89653594  0.32159271  0.78212600  1
  H  H2  1  0.60346406  0.32159271  0.28212600  1
  H  H3  1  0.10346406  0.67840729  0.21787400  1
  H  H4  1  0.36719742  0.91226496  0.74249679  1
  H  H5  1  0.86719742  0.08773504  0.75750321  1
  H  H6  1  0.63280258  0.08773504  0.25750321  1
  H  H7  1  0.13280258  0.91226496  0.24249679  1
  H  H8  1  0.39953572  0.07866803  0.21694261  1
  H  H9  1  0.89953572  0.92133197  0.28305739  1
  H  H10  1  0.60046428  0.92133197  0.78305739  1
  H  H11  1  0.10046428  0.07866803  0.71694261  1
  H  H12  1  0.31291071  0.02350190  0.34220207  1
  H  H13  1  0.81291071  0.97649810  0.15779793  1
  H  H14  1  0.68708929  0.97649810  0.65779793  1
  H  H15  1  0.18708929  0.02350190  0.84220207  1
  H  H16  1  0.56449503  0.65079978  0.40371393  1
  H  H17  1  0.06449503  0.34920022  0.09628607  1
  H  H18  1  0.43550497  0.34920022  0.59628607  1
  H  H19  1  0.93550497  0.65079978  0.90371393  1
  H  H20  1  0.64406237  0.67966105  0.52211054  1
  H  H21  1  0.14406237  0.32033895  0.97788946  1
  H  H22  1  0.35593763  0.32033895  0.47788946  1
  H  H23  1  0.85593763  0.67966105  0.02211054  1
  S  S0  1  0.35538507  0.26044533  0.89685581  1
  S  S1  1  0.85538507  0.73955467  0.60314419  1
  S  S2  1  0.64461493  0.73955467  0.10314419  1
  S  S3  1  0.14461493  0.26044533  0.39685581  1
  O  O0  1  0.26581039  0.39026890  0.92118833  1
  O  O1  1  0.76581039  0.60973110  0.57881167  1
  O  O2  1  0.73418961  0.60973110  0.07881167  1
  O  O3  1  0.23418961  0.39026890  0.42118833  1
  O  O4  1  0.42206106  0.19810147  0.03086691  1
  O  O5  1  0.92206106  0.80189853  0.46913309  1
  O  O6  1  0.57793894  0.80189853  0.96913309  1
  O  O7  1  0.07793894  0.19810147  0.53086691  1
  O  O8  1  0.41654276  0.39949797  0.76856798  1
  O  O9  1  0.91654276  0.60050203  0.73143202  1
  O  O10  1  0.58345724  0.60050203  0.23143202  1
  O  O11  1  0.08345724  0.39949797  0.26856798  1
  O  O12  1  0.31814091  0.06023599  0.86116474  1
  O  O13  1  0.81814091  0.93976401  0.63883526  1
  O  O14  1  0.68185909  0.93976401  0.13883526  1
  O  O15  1  0.18185909  0.06023599  0.36116474  1
  O  O16  1  0.38443724  0.83673635  0.66781956  1
  O  O17  1  0.88443724  0.16326365  0.83218044  1
  O  O18  1  0.61556276  0.16326365  0.33218044  1
  O  O19  1  0.11556276  0.83673635  0.16781956  1
  O  O20  1  0.38650494  0.99921518  0.32339170  1
  O  O21  1  0.88650494  0.00078482  0.17660830  1
  O  O22  1  0.61349506  0.00078482  0.67660830  1
  O  O23  1  0.11349506  0.99921518  0.82339170  1
  O  O24  1  0.56969808  0.69297659  0.49653546  1
  O  O25  1  0.06969808  0.30702341  0.00346454  1
  O  O26  1  0.43030192  0.30702341  0.50346454  1
  O  O27  1  0.93030192  0.69297659  0.99653546  1
loop_
_geom_bond_atom_site_label_1
_geom_bond_atom_site_label_2
_geom_bond_distance
_geom_bond_site_symmetry_2
Cs0 O9 3.055923 1_455
Cs0 O15 3.115083 1_565
Cs0 O0 3.116387 1_555
Cs0 O3 3.126223 1_555
Cs0 H11 3.131651 1_565
Cs0 O5 3.258289 1_455
Cs0 H21 3.258347 1_555
Cs0 O23 3.279177 1_555
Cs0 O7 3.351321 1_555
Cs0 H0 3.379473 1_555
Cs0 O16 3.389911 1_555
Cs0 O7 3.464853 1_565
Cs0 H11 3.478153 1_555
Cs1 O8 3.055923 1_555
Cs1 O14 3.115083 1_546
Cs1 O1 3.116387 1_555
Cs1 O2 3.126223 1_556
Cs1 H10 3.131651 1_545
Cs1 O4 3.258289 1_556
Cs1 H20 3.258347 1_555
Cs1 O22 3.279177 1_555
Cs1 O6 3.351321 1_555
Cs1 H1 3.379473 1_555
Cs1 O17 3.389911 1_555
Cs1 O6 3.464853 1_545
Cs1 H10 3.478153 1_555
Cs2 O11 3.055923 1_655
Cs2 O13 3.115083 1_545
Cs2 O2 3.116387 1_555
Cs2 O1 3.126223 1_555
Cs2 H9 3.131651 1_545
Cs2 O7 3.258289 1_655
Cs2 H23 3.258347 1_555
Cs2 O21 3.279177 1_555
Cs2 O5 3.351321 1_555
Cs2 H2 3.379473 1_555
Cs2 O18 3.389911 1_555
Cs2 O5 3.464853 1_545
Cs2 H9 3.478153 1_555
Cs3 O10 3.055923 1_555
Cs3 O12 3.115083 1_564
Cs3 O3 3.116387 1_555
Cs3 O0 3.126223 1_554
Cs3 H8 3.131651 1_565
Cs3 O6 3.258289 1_554
Cs3 H22 3.258347 1_555
Cs3 O20 3.279177 1_555
Cs3 O4 3.351321 1_555
Cs3 H3 3.379473 1_555
Cs3 O19 3.389911 1_555
Cs3 O4 3.464853 1_565
Cs3 H8 3.478153 1_555
Mn0 O24 2.153994 1_545
Mn0 O26 2.153994 1_555
Mn0 O16 2.187542 1_545
Mn0 O18 2.187542 1_555
Mn0 O22 2.206060 1_555
Mn0 O20 2.206060 1_545
Mn1 O25 2.153994 1_555
Mn1 O27 2.153994 1_444
Mn1 O17 2.187542 1_454
Mn1 O19 2.187542 1_545
Mn1 O21 2.206060 1_455
Mn1 O23 2.206060 1_544
H0 O16 0.986145 1_555
H1 O17 0.986145 1_555
H2 O18 0.986145 1_555
H3 O19 0.986145 1_555
H4 O16 0.981524 1_555
H5 O17 0.981524 1_555
H6 O18 0.981524 1_555
H7 O19 0.981524 1_555
H8 O20 0.985958 1_545
H9 O21 0.985958 1_565
H10 O22 0.985958 1_565
H11 O23 0.985958 1_545
H12 O20 0.985930 1_545
H13 O21 0.985930 1_565
H14 O22 0.985930 1_565
H15 O23 0.985930 1_545
H16 O24 0.982144 1_555
H17 O25 0.982144 1_555
H18 O26 0.982144 1_555
H19 O27 0.982144 1_555
H20 O24 0.986170 1_555
H21 O25 0.986170 1_556
H22 O26 0.986170 1_555
H23 O27 0.986170 1_554
O0 S0 1.475216 1_555
O1 S1 1.475216 1_555
O2 S2 1.475216 1_555
O3 S3 1.475216 1_555
O4 S0 1.472176 1_554
O5 S1 1.472176 1_555
O6 S2 1.472176 1_556
O7 S3 1.472176 1_555
O8 S0 1.485595 1_555
O9 S1 1.485595 1_555
O10 S2 1.485595 1_555
O11 S3 1.485595 1_555
O12 S0 1.485281 1_555
O13 S1 1.485281 1_555
O14 S2 1.485281 1_555
O15 S3 1.485281 1_555
