# generated using pymatgen
data_CsGaCuF6
_symmetry_space_group_name_H-M   'P 1'
_cell_length_a   7.40979040
_cell_length_b   7.40979040
_cell_length_c   7.40979040
_cell_angle_alpha   121.11358624
_cell_angle_beta   119.86602845
_cell_angle_gamma   89.15714799
_symmetry_Int_Tables_number   1
_chemical_formula_structural   CsGaCuF6
_chemical_formula_sum   'Cs2 Ga2 Cu2 F12'
_cell_volume   285.46906696
_cell_formula_units_Z   2
loop_
 _symmetry_equiv_pos_site_id
 _symmetry_equiv_pos_as_xyz
  1  'x, y, z'
loop_
 _atom_site_type_symbol
 _atom_site_label
 _atom_site_symmetry_multiplicity
 _atom_site_fract_x
 _atom_site_fract_y
 _atom_site_fract_z
 _atom_site_occupancy
  Cs  Cs0  1  0.37247900  0.62247900  0.75000000  1
  Cs  Cs1  1  0.62752100  0.37752100  0.25000000  1
  Ga  Ga0  1  0.00000000  0.00000000  0.00000000  1
  Ga  Ga1  1  0.50000000  0.00000000  0.50000000  1
  Cu  Cu0  1  0.00000000  0.00000000  0.50000000  1
  Cu  Cu1  1  0.00000000  0.50000000  0.00000000  1
  F  F0  1  0.31295800  0.06295800  0.25000000  1
  F  F1  1  0.93132600  0.68132600  0.25000000  1
  F  F2  1  0.33130100  0.69251700  0.26328000  1
  F  F3  1  0.92923700  0.06802200  0.23672000  1
  F  F4  1  0.33130100  0.06802200  0.63878500  1
  F  F5  1  0.92923700  0.69251700  0.86121500  1
  F  F6  1  0.68704200  0.93704200  0.75000000  1
  F  F7  1  0.06867400  0.31867400  0.75000000  1
  F  F8  1  0.66869900  0.30748300  0.73672000  1
  F  F9  1  0.07076300  0.93197800  0.76328000  1
  F  F10  1  0.66869900  0.93197800  0.36121500  1
  F  F11  1  0.07076300  0.30748300  0.13878500  1
loop_
_geom_bond_atom_site_label_1
_geom_bond_atom_site_label_2
_geom_bond_distance
_geom_bond_site_symmetry_2
Cs0 F10 3.178395 1_556
Cs0 F9 3.178395 1_555
Cs0 F11 3.178395 1_555
Cs0 F8 3.178400 1_555
Cs0 F7 3.206910 1_555
Cs0 F6 3.320470 1_555
Cs1 F4 3.178395 1_554
Cs1 F5 3.178395 1_555
Cs1 F3 3.178395 1_555
Cs1 F2 3.178400 1_555
Cs1 F1 3.206910 1_555
Cs1 F0 3.320470 1_555
Cu0 F1 1.960151 1_445
Cu0 F7 1.960151 1_555
Cu0 F10 2.079525 1_445
Cu0 F4 2.079525 1_555
Cu0 F3 2.079532 1_455
Cu0 F9 2.079532 1_545
Cu1 F7 1.960151 1_554
Cu1 F1 1.960151 1_455
Cu1 F8 2.079526 1_454
Cu1 F2 2.079526 1_555
Cu1 F11 2.079532 1_555
Cu1 F5 2.079532 1_454
F0 Ga0 1.971580 1_555
F0 Ga1 1.971580 1_555
F2 Ga1 1.897416 1_565
F3 Ga0 1.897415 1_655
F4 Ga1 1.897421 1_555
F5 Ga0 1.897415 1_666
F6 Ga0 1.971580 1_666
F6 Ga1 1.971580 1_565
F8 Ga1 1.897416 1_555
F9 Ga0 1.897415 1_566
F10 Ga1 1.897421 1_565
F11 Ga0 1.897415 1_555
