# generated using pymatgen
data_Ba3(Ge4Rh)4
_symmetry_space_group_name_H-M   'P 1'
_cell_length_a   12.13658326
_cell_length_b   12.13658326
_cell_length_c   12.13658326
_cell_angle_alpha   148.27297487
_cell_angle_beta   148.27297487
_cell_angle_gamma   45.48256093
_symmetry_Int_Tables_number   1
_chemical_formula_structural   Ba3(Ge4Rh)4
_chemical_formula_sum   'Ba3 Ge16 Rh4'
_cell_volume   492.75412603
_cell_formula_units_Z   1
loop_
 _symmetry_equiv_pos_site_id
 _symmetry_equiv_pos_as_xyz
  1  'x, y, z'
loop_
 _atom_site_type_symbol
 _atom_site_label
 _atom_site_symmetry_multiplicity
 _atom_site_fract_x
 _atom_site_fract_y
 _atom_site_fract_z
 _atom_site_occupancy
  Ba  Ba0  1  0.75000000  0.25000000  0.50000000  1
  Ba  Ba1  1  0.25000000  0.75000000  0.50000000  1
  Ba  Ba2  1  0.00000000  0.00000000  0.00000000  1
  Ge  Ge0  1  0.11425300  0.11425300  0.48667400  1
  Ge  Ge1  1  0.62757900  0.62757900  0.51332600  1
  Ge  Ge2  1  0.11425300  0.62757900  0.00000000  1
  Ge  Ge3  1  0.62757900  0.11425300  0.00000000  1
  Ge  Ge4  1  0.88574700  0.88574700  0.51332600  1
  Ge  Ge5  1  0.37242100  0.37242100  0.48667400  1
  Ge  Ge6  1  0.88574700  0.37242100  0.00000000  1
  Ge  Ge7  1  0.37242100  0.88574700  0.00000000  1
  Ge  Ge8  1  0.22693300  0.50000000  0.72693300  1
  Ge  Ge9  1  0.77306700  0.50000000  0.27306700  1
  Ge  Ge10  1  0.50000000  0.77306700  0.27306700  1
  Ge  Ge11  1  0.50000000  0.22693300  0.72693300  1
  Ge  Ge12  1  0.80340300  0.80340300  0.00000000  1
  Ge  Ge13  1  0.19659700  0.19659700  0.00000000  1
  Ge  Ge14  1  0.68940600  0.68940600  0.00000000  1
  Ge  Ge15  1  0.31059400  0.31059400  0.00000000  1
  Rh  Rh0  1  0.91119900  0.41119900  0.50000000  1
  Rh  Rh1  1  0.41119900  0.91119900  0.50000000  1
  Rh  Rh2  1  0.08880100  0.58880100  0.50000000  1
  Rh  Rh3  1  0.58880100  0.08880100  0.50000000  1
loop_
_geom_bond_atom_site_label_1
_geom_bond_atom_site_label_2
_geom_bond_distance
_geom_bond_site_symmetry_2
Ba0 Ge12 3.526325 1_545
Ba0 Ge12 3.526325 1_556
Ba0 Ge13 3.526325 1_555
Ba0 Ge13 3.526325 1_656
Ba0 Ge0 3.582431 1_655
Ba0 Ge5 3.582431 1_555
Ba0 Ge7 3.582431 1_545
Ba0 Ge2 3.582431 1_656
Ba0 Ge3 3.582431 1_555
Ba0 Ge6 3.582431 1_556
Ba0 Ge1 3.582431 1_555
Ba0 Ge4 3.582431 1_545
Ba0 Ge15 3.584101 1_555
Ba0 Ge15 3.584101 1_656
Ba0 Ge14 3.584101 1_545
Ba0 Ge14 3.584101 1_556
Ba0 Rh0 3.608628 1_555
Ba0 Rh3 3.608628 1_555
Ba1 Ge13 3.526325 1_555
Ba1 Ge12 3.526325 1_455
Ba1 Ge12 3.526325 1_556
Ba1 Ge13 3.526325 1_566
Ba1 Ge3 3.582431 1_566
Ba1 Ge0 3.582431 1_565
Ba1 Ge6 3.582431 1_455
Ba1 Ge1 3.582431 1_555
Ba1 Ge5 3.582431 1_555
Ba1 Ge7 3.582431 1_556
Ba1 Ge2 3.582431 1_555
Ba1 Ge4 3.582431 1_455
Ba1 Ge15 3.584101 1_555
Ba1 Ge15 3.584101 1_566
Ba1 Ge14 3.584101 1_455
Ba1 Ge14 3.584101 1_556
Ba1 Rh1 3.608628 1_555
Ba1 Rh2 3.608628 1_555
Ba2 Ge11 3.643199 1_555
Ba2 Ge8 3.643199 1_555
Ba2 Ge9 3.643199 1_444
Ba2 Ge10 3.643199 1_545
Ba2 Ge9 3.643199 1_455
Ba2 Ge10 3.643199 1_444
Ba2 Ge11 3.643199 1_454
Ba2 Ge8 3.643199 1_544
Ba2 Ge1 3.682908 1_444
Ba2 Ge4 3.682908 1_444
Ba2 Ge7 3.682908 1_545
Ba2 Ge5 3.682908 1_555
Ba2 Ge6 3.682908 1_455
Ba2 Ge3 3.682908 1_455
Ba2 Ge2 3.682908 1_545
Ba2 Ge0 3.682908 1_555
Ba2 Rh3 3.867502 1_454
Ba2 Rh2 3.867502 1_544
Ba2 Rh3 3.867502 1_555
Ba2 Rh2 3.867502 1_555
Ba2 Rh1 3.867502 1_444
Ba2 Rh1 3.867502 1_545
Ba2 Rh0 3.867502 1_455
Ba2 Rh0 3.867502 1_444
Ge0 Rh1 2.513962 1_545
Ge0 Rh0 2.513962 1_455
Ge0 Ge12 2.738187 1_445
Ge0 Ge15 2.761094 1_556
Ge1 Rh0 2.513962 1_555
Ge1 Rh1 2.513962 1_555
Ge1 Ge12 2.738187 1_556
Ge1 Ge15 2.761094 1_555
Ge2 Rh0 2.513962 1_454
Ge2 Rh1 2.513962 1_555
Ge3 Rh0 2.513962 1_555
Ge3 Rh1 2.513962 1_544
Ge4 Rh2 2.513962 1_655
Ge4 Rh3 2.513962 1_565
Ge5 Rh3 2.513962 1_555
Ge5 Rh2 2.513962 1_555
Ge6 Rh3 2.513962 1_554
Ge6 Rh2 2.513962 1_655
Ge7 Rh3 2.513962 1_565
Ge7 Rh2 2.513962 1_554
Ge8 Rh2 2.493778 1_555
Ge8 Rh0 2.493778 1_455
Ge9 Rh2 2.493778 1_655
Ge9 Rh0 2.493778 1_555
Ge10 Rh3 2.493778 1_565
Ge10 Rh1 2.493778 1_555
Ge11 Rh3 2.493778 1_555
Ge11 Rh1 2.493778 1_545
Ge12 Ge14 2.551956 1_555
Ge12 Ge2 2.738187 1_655
Ge12 Ge3 2.738187 1_565
Ge13 Ge15 2.551956 1_555
Ge13 Ge5 2.738187 1_555
Ge13 Ge4 2.738187 1_444
Ge13 Ge7 2.738187 1_545
Ge13 Ge6 2.738187 1_455
Ge14 Ge7 2.761094 1_555
Ge14 Ge4 2.761094 1_555
Ge14 Ge6 2.761094 1_555
Ge14 Ge5 2.761094 1_554
Ge15 Ge2 2.761094 1_555
Ge15 Ge3 2.761094 1_555
