# generated using pymatgen
data_Ba3Sr5Ti7MnO20
_symmetry_space_group_name_H-M   'P 1'
_cell_length_a   11.41850544
_cell_length_b   11.45944412
_cell_length_c   17.94359774
_cell_angle_alpha   108.71691846
_cell_angle_beta   108.60823541
_cell_angle_gamma   89.96477694
_symmetry_Int_Tables_number   1
_chemical_formula_structural   Ba3Sr5Ti7MnO20
_chemical_formula_sum   'Ba12 Sr20 Ti28 Mn4 O80'
_cell_volume   2093.90231870
_cell_formula_units_Z   4
loop_
 _symmetry_equiv_pos_site_id
 _symmetry_equiv_pos_as_xyz
  1  'x, y, z'
loop_
 _atom_site_type_symbol
 _atom_site_label
 _atom_site_symmetry_multiplicity
 _atom_site_fract_x
 _atom_site_fract_y
 _atom_site_fract_z
 _atom_site_occupancy
  Ba  Ba0  1  0.30949600  0.06091500  0.12208400  1
  Ba  Ba1  1  0.31032700  0.56354000  0.12265000  1
  Ba  Ba2  1  0.80805700  0.06191400  0.12366000  1
  Ba  Ba3  1  0.80551400  0.56132400  0.12014700  1
  Ba  Ba4  1  0.18869700  0.93741300  0.37932800  1
  Ba  Ba5  1  0.19212800  0.93624200  0.88479700  1
  Ba  Ba6  1  0.68729100  0.43394700  0.88009200  1
  Ba  Ba7  1  0.05892800  0.31092700  0.12337500  1
  Ba  Ba8  1  0.05882400  0.81035600  0.12125500  1
  Ba  Ba9  1  0.55910700  0.30928500  0.12281600  1
  Ba  Ba10  1  0.55870700  0.80903600  0.12097200  1
  Ba  Ba11  1  0.93895100  0.69938900  0.88353100  1
  Sr  Sr0  1  0.30343800  0.06013100  0.60452500  1
  Sr  Sr1  1  0.30617100  0.56134900  0.60881500  1
  Sr  Sr2  1  0.80260300  0.05616800  0.60546100  1
  Sr  Sr3  1  0.80037700  0.56773500  0.60546500  1
  Sr  Sr4  1  0.19461500  0.44316700  0.38695200  1
  Sr  Sr5  1  0.19288700  0.43836100  0.88826100  1
  Sr  Sr6  1  0.69132500  0.43755100  0.38450000  1
  Sr  Sr7  1  0.69099900  0.94219400  0.38350600  1
  Sr  Sr8  1  0.69535600  0.94511900  0.89461800  1
  Sr  Sr9  1  0.05344500  0.29868600  0.60810700  1
  Sr  Sr10  1  0.05646000  0.79155500  0.60461500  1
  Sr  Sr11  1  0.55165400  0.29384700  0.60775900  1
  Sr  Sr12  1  0.55062600  0.79513500  0.60223400  1
  Sr  Sr13  1  0.44016200  0.19311700  0.38395100  1
  Sr  Sr14  1  0.44375100  0.19882600  0.89233800  1
  Sr  Sr15  1  0.43967600  0.69481100  0.38298700  1
  Sr  Sr16  1  0.44527400  0.69984100  0.88930100  1
  Sr  Sr17  1  0.94476700  0.19612000  0.38623200  1
  Sr  Sr18  1  0.94668600  0.20032700  0.89244200  1
  Sr  Sr19  1  0.94207000  0.69233500  0.38509100  1
  Ti  Ti0  1  0.99880000  0.00406800  0.00292000  1
  Ti  Ti1  1  0.99825200  0.99788000  0.49753900  1
  Ti  Ti2  1  0.00277100  0.50204800  0.00694300  1
  Ti  Ti3  1  0.00287100  0.49945900  0.50213200  1
  Ti  Ti4  1  0.49905200  0.99870000  0.99826300  1
  Ti  Ti5  1  0.50111600  0.99688300  0.49652100  1
  Ti  Ti6  1  0.49416800  0.49567100  0.99325100  1
  Ti  Ti7  1  0.50180100  0.49934100  0.50140800  1
  Ti  Ti8  1  0.25170800  0.25350400  0.00565900  1
  Ti  Ti9  1  0.25255100  0.25348400  0.50289000  1
  Ti  Ti10  1  0.24855600  0.74649600  0.99701100  1
  Ti  Ti11  1  0.25177300  0.74994200  0.50038500  1
  Ti  Ti12  1  0.74975200  0.24880100  0.00110500  1
  Ti  Ti13  1  0.74966100  0.24856900  0.49630400  1
  Ti  Ti14  1  0.74618000  0.74951200  0.99648700  1
  Ti  Ti15  1  0.74967800  0.75145200  0.49630400  1
  Ti  Ti16  1  0.12370700  0.11626800  0.25452600  1
  Ti  Ti17  1  0.10695100  0.08860500  0.74445400  1
  Ti  Ti18  1  0.12532700  0.60965300  0.25496600  1
  Ti  Ti19  1  0.61941500  0.11326500  0.25396600  1
  Ti  Ti20  1  0.60169700  0.08927500  0.74785700  1
  Ti  Ti21  1  0.62158800  0.61308600  0.25437700  1
  Ti  Ti22  1  0.37787600  0.38951700  0.25615100  1
  Ti  Ti23  1  0.37048300  0.89051000  0.25240600  1
  Ti  Ti24  1  0.87096200  0.39404700  0.25525200  1
  Ti  Ti25  1  0.85708900  0.40572200  0.74048000  1
  Ti  Ti26  1  0.87206200  0.89245100  0.25396600  1
  Ti  Ti27  1  0.84695600  0.90976800  0.74796100  1
  Mn  Mn0  1  0.11874100  0.58705900  0.74668000  1
  Mn  Mn1  1  0.60198500  0.60672200  0.74615300  1
  Mn  Mn2  1  0.35441400  0.40213000  0.74729200  1
  Mn  Mn3  1  0.36943400  0.90249500  0.74664500  1
  O  O0  1  0.12111700  0.12506400  0.49431400  1
  O  O1  1  0.12023700  0.12559600  0.99485600  1
  O  O2  1  0.12227200  0.62166700  0.49186400  1
  O  O3  1  0.12157400  0.61958900  0.99457100  1
  O  O4  1  0.62484200  0.12302100  0.49521100  1
  O  O5  1  0.62139600  0.12199800  0.99653800  1
  O  O6  1  0.62175200  0.62075200  0.48897000  1
  O  O7  1  0.61975300  0.62363900  0.99506700  1
  O  O8  1  0.12278500  0.37353700  0.99923300  1
  O  O9  1  0.13034600  0.37790600  0.50651400  1
  O  O10  1  0.12373900  0.87480000  0.00126300  1
  O  O11  1  0.12994600  0.87825300  0.51003000  1
  O  O12  1  0.62333000  0.37254300  0.00105200  1
  O  O13  1  0.63270500  0.37919800  0.51108000  1
  O  O14  1  0.62554700  0.87621000  0.00312300  1
  O  O15  1  0.62870100  0.87770700  0.50437800  1
  O  O16  1  0.37585500  0.12158700  0.49329300  1
  O  O17  1  0.37119200  0.12288200  0.99393300  1
  O  O18  1  0.37126100  0.61814600  0.48875500  1
  O  O19  1  0.37222100  0.62008500  0.99517500  1
  O  O20  1  0.87141200  0.12008900  0.49238300  1
  O  O21  1  0.87148800  0.12435500  0.99752600  1
  O  O22  1  0.87364800  0.62270100  0.49427500  1
  O  O23  1  0.87198100  0.62089800  0.99484300  1
  O  O24  1  0.37399100  0.37528400  0.00116800  1
  O  O25  1  0.38147200  0.37998100  0.50746800  1
  O  O26  1  0.37690800  0.87540900  0.00193800  1
  O  O27  1  0.37880300  0.87574800  0.50437600  1
  O  O28  1  0.87477000  0.37293700  0.99822900  1
  O  O29  1  0.88011100  0.38067100  0.50927500  1
  O  O30  1  0.87249800  0.87941000  0.00339000  1
  O  O31  1  0.88138600  0.88019800  0.50993600  1
  O  O32  1  0.06318900  0.07434300  0.13204700  1
  O  O33  1  0.07219400  0.09680200  0.63808200  1
  O  O34  1  0.06212500  0.56616900  0.12985700  1
  O  O35  1  0.07664800  0.58546000  0.62664300  1
  O  O36  1  0.56438100  0.07168400  0.13244000  1
  O  O37  1  0.57299400  0.07614400  0.63366300  1
  O  O38  1  0.56641600  0.57472800  0.13500400  1
  O  O39  1  0.56844700  0.58950300  0.62373400  1
  O  O40  1  0.43762400  0.41359000  0.37338900  1
  O  O41  1  0.43754300  0.42031800  0.87341100  1
  O  O42  1  0.44117300  0.92028900  0.37258400  1
  O  O43  1  0.44245100  0.92259000  0.86949000  1
  O  O44  1  0.93770500  0.41676700  0.37339500  1
  O  O45  1  0.93337500  0.39389100  0.84521500  1
  O  O46  1  0.93261400  0.91482400  0.37316500  1
  O  O47  1  0.92237400  0.93303800  0.86393200  1
  O  O48  1  0.31290600  0.31062900  0.13073200  1
  O  O49  1  0.32408400  0.29163100  0.62433900  1
  O  O50  1  0.31563200  0.80992200  0.13078800  1
  O  O51  1  0.32652000  0.79191800  0.62631600  1
  O  O52  1  0.81416500  0.31115900  0.13275300  1
  O  O53  1  0.83247800  0.28371000  0.63908300  1
  O  O54  1  0.81519400  0.80921300  0.13333300  1
  O  O55  1  0.81336700  0.80574300  0.63434800  1
  O  O56  1  0.18822100  0.20831400  0.37295400  1
  O  O57  1  0.18461200  0.19650200  0.85269800  1
  O  O58  1  0.18295700  0.69794100  0.37341100  1
  O  O59  1  0.19315300  0.69276300  0.87099700  1
  O  O60  1  0.68858300  0.20499700  0.37496300  1
  O  O61  1  0.68447300  0.17873000  0.86490800  1
  O  O62  1  0.69047500  0.71065700  0.37248700  1
  O  O63  1  0.68593400  0.70288600  0.87240900  1
  O  O64  1  0.49365500  0.01675900  0.26032400  1
  O  O65  1  0.43939100  0.07554300  0.74692200  1
  O  O66  1  0.49282800  0.51390500  0.26113800  1
  O  O67  1  0.42851000  0.56764700  0.74809500  1
  O  O68  1  0.99390400  0.01365800  0.25975600  1
  O  O69  1  0.94844000  0.04665300  0.74685600  1
  O  O70  1  0.98569000  0.51847300  0.25788800  1
  O  O71  1  0.93348000  0.54205000  0.73631800  1
  O  O72  1  0.24005000  0.49089800  0.25901800  1
  O  O73  1  0.17664600  0.41940700  0.74720100  1
  O  O74  1  0.24810100  0.00366600  0.25573900  1
  O  O75  1  0.18761000  0.94963000  0.73789800  1
  O  O76  1  0.74058400  0.49446600  0.26193300  1
  O  O77  1  0.70137400  0.44864400  0.73754500  1
  O  O78  1  0.74295700  0.99727100  0.26024500  1
  O  O79  1  0.67998400  0.93556700  0.74640200  1
loop_
_geom_bond_atom_site_label_1
_geom_bond_atom_site_label_2
_geom_bond_distance
_geom_bond_site_symmetry_2
Ba0 O10 2.801991 1_545
Ba0 O26 2.806245 1_545
Ba0 O48 2.815236 1_555
Ba0 O36 2.856711 1_555
Ba0 O32 2.875456 1_555
Ba0 O64 2.882057 1_555
Ba0 O1 2.892539 1_554
Ba0 O17 2.893199 1_554
Ba0 O50 2.929697 1_545
Ba0 O74 2.959180 1_555
Ba1 O50 2.779667 1_555
Ba1 O24 2.815209 1_555
Ba1 O8 2.848760 1_554
Ba1 O3 2.850262 1_554
Ba1 O19 2.852161 1_554
Ba1 O38 2.860907 1_555
Ba1 O34 2.877677 1_555
Ba1 O66 2.905521 1_555
Ba1 O48 2.947624 1_555
Ba1 O72 3.144134 1_555
Ba2 O30 2.772644 1_545
Ba2 O14 2.779314 1_545
Ba2 O52 2.807724 1_555
Ba2 O36 2.836766 1_555
Ba2 O5 2.850158 1_554
Ba2 O32 2.869979 1_655
Ba2 O21 2.871458 1_554
Ba2 O68 2.886289 1_555
Ba2 O54 2.955632 1_545
Ba2 O78 3.071866 1_545
Ba3 O54 2.773076 1_555
Ba3 O12 2.788493 1_555
Ba3 O38 2.825957 1_555
Ba3 O7 2.834586 1_554
Ba3 O70 2.848682 1_555
Ba3 O28 2.853528 1_554
Ba3 O23 2.858701 1_554
Ba3 O34 2.878748 1_655
Ba3 O52 2.946311 1_555
Ba3 O76 3.172513 1_555
Ba4 O58 2.712025 1_555
Ba4 O0 2.764637 1_565
Ba4 O16 2.765832 1_565
Ba4 O74 2.827646 1_565
Ba4 O27 2.855411 1_555
Ba4 O46 2.899259 1_455
Ba4 O11 2.904298 1_555
Ba4 O68 2.910185 1_465
Ba4 O42 2.927620 1_555
Ba4 O56 3.142882 1_565
Ba5 O75 2.673367 1_555
Ba5 O17 2.711442 1_565
Ba5 O59 2.721158 1_555
Ba5 O10 2.731190 1_556
Ba5 O26 2.732048 1_556
Ba5 O1 2.750372 1_565
Ba5 O43 2.956818 1_555
Ba5 O47 2.980676 1_455
Ba5 O57 3.210081 1_565
Ba6 O77 2.671254 1_555
Ba6 O28 2.760133 1_555
Ba6 O23 2.771289 1_555
Ba6 O7 2.776932 1_555
Ba6 O12 2.780621 1_556
Ba6 O41 2.818082 1_555
Ba6 O61 2.848147 1_555
Ba6 O45 3.071524 1_555
Ba6 O63 3.128667 1_555
Ba7 O32 2.764510 1_555
Ba7 O28 2.824546 1_454
Ba7 O72 2.832985 1_555
Ba7 O8 2.841012 1_554
Ba7 O21 2.841461 1_454
Ba7 O52 2.852934 1_455
Ba7 O48 2.860713 1_555
Ba7 O1 2.864237 1_554
Ba7 O34 2.889493 1_555
Ba7 O70 3.127806 1_455
Ba8 O10 2.787514 1_555
Ba8 O30 2.797499 1_455
Ba8 O34 2.851102 1_555
Ba8 O23 2.857820 1_454
Ba8 O54 2.858791 1_455
Ba8 O3 2.882346 1_554
Ba8 O50 2.882439 1_555
Ba8 O74 2.940778 1_565
Ba8 O32 2.968087 1_565
Ba8 O68 3.100183 1_465
Ba9 O36 2.782423 1_555
Ba9 O12 2.806536 1_555
Ba9 O24 2.813817 1_555
Ba9 O5 2.855151 1_554
Ba9 O48 2.859529 1_555
Ba9 O52 2.860145 1_555
Ba9 O17 2.860686 1_554
Ba9 O76 2.886696 1_555
Ba9 O38 2.978127 1_555
Ba9 O66 3.113323 1_555
Ba10 O26 2.767824 1_555
Ba10 O38 2.774892 1_555
Ba10 O14 2.778873 1_555
Ba10 O7 2.833071 1_554
Ba10 O50 2.836482 1_555
Ba10 O19 2.849437 1_554
Ba10 O54 2.865594 1_555
Ba10 O78 2.918049 1_555
Ba10 O36 2.949522 1_565
Ba10 O64 3.135853 1_565
Ba11 O71 2.659067 1_555
Ba11 O10 2.718580 1_656
Ba11 O23 2.740754 1_555
Ba11 O30 2.765704 1_556
Ba11 O3 2.769469 1_655
Ba11 O47 2.808852 1_555
Ba11 O63 2.832882 1_555
Ba11 O59 2.981084 1_655
Ba11 O45 3.340692 1_555
Mn0 O73 2.033293 1_555
Mn0 O35 2.045633 1_555
Mn0 O59 2.054929 1_555
Mn0 O71 2.112892 1_455
Mn1 O67 2.044638 1_555
Mn1 O39 2.048382 1_555
Mn1 O63 2.068528 1_555
Mn1 O77 2.126746 1_555
Mn2 O73 2.038889 1_555
Mn2 O67 2.071300 1_555
Mn2 O49 2.076235 1_555
Mn2 O41 2.095800 1_555
Mn3 O51 2.019235 1_555
Mn3 O43 2.026971 1_555
Mn3 O75 2.114684 1_555
Mn3 O65 2.136264 1_565
O0 Ti9 2.037567 1_555
O0 Ti1 2.050418 1_445
O0 Sr17 2.645411 1_455
O0 Sr0 2.667133 1_555
O0 Sr9 2.668818 1_555
O1 Ti8 2.018480 1_556
O1 Ti0 2.035407 1_456
O1 Sr18 2.592557 1_455
O2 Ti11 2.021108 1_555
O2 Ti3 2.045050 1_555
O2 Sr10 2.624625 1_555
O2 Sr4 2.632357 1_555
O2 Sr19 2.652947 1_455
O2 Sr1 2.721734 1_555
O3 Ti2 2.022412 1_556
O3 Ti10 2.034800 1_555
O3 Sr5 2.657377 1_555
O4 Ti13 2.016971 1_555
O4 Ti5 2.032574 1_545
O4 Sr2 2.651147 1_555
O4 Sr11 2.673347 1_555
O4 Sr7 2.679722 1_545
O4 Sr13 2.723622 1_555
O5 Ti4 2.001744 1_545
O5 Ti12 2.028748 1_556
O5 Sr8 2.602066 1_545
O5 Sr14 2.649413 1_555
O6 Ti15 2.036615 1_555
O6 Ti7 2.063545 1_555
O6 Sr6 2.641050 1_555
O6 Sr3 2.644109 1_555
O6 Sr15 2.677603 1_555
O6 Sr12 2.688553 1_555
O7 Ti14 2.029967 1_555
O7 Ti6 2.037142 1_555
O7 Sr16 2.642334 1_555
O8 Ti2 2.013350 1_556
O8 Ti8 2.015788 1_556
O8 Sr18 2.599964 1_455
O8 Sr5 2.669241 1_555
O9 Ti9 1.995056 1_555
O9 Ti3 2.014917 1_555
O9 Sr1 2.645005 1_555
O9 Sr9 2.646307 1_555
O9 Sr17 2.772951 1_455
O9 Sr4 2.781293 1_555
O10 Ti10 2.047845 1_554
O10 Ti0 2.055892 1_465
O11 Ti11 2.028514 1_555
O11 Ti1 2.042134 1_455
O11 Sr10 2.561967 1_555
O11 Sr0 2.595528 1_565
O11 Sr19 2.835159 1_455
O12 Ti12 2.022888 1_555
O12 Ti6 2.044027 1_554
O12 Sr14 2.633032 1_554
O13 Ti13 2.015779 1_555
O13 Ti7 2.035951 1_555
O13 Sr3 2.605597 1_555
O13 Sr11 2.633863 1_555
O13 Sr6 2.828344 1_555
O13 Sr13 2.875345 1_555
O14 Ti14 2.002695 1_554
O14 Ti4 2.014898 1_554
O14 Sr8 2.650957 1_554
O14 Sr16 2.676979 1_554
O15 Ti5 1.999347 1_555
O15 Ti15 2.003296 1_555
O15 Sr2 2.596344 1_565
O15 Sr12 2.615267 1_555
O15 Sr7 2.787482 1_555
O15 Sr15 2.805558 1_555
O16 Ti5 2.022123 1_545
O16 Ti9 2.069196 1_555
O16 Sr11 2.629895 1_555
O16 Sr13 2.648166 1_555
O16 Sr0 2.668228 1_555
O17 Ti8 2.030961 1_556
O17 Ti4 2.039277 1_545
O17 Sr14 2.598086 1_555
O18 Ti7 2.026518 1_555
O18 Ti11 2.040342 1_555
O18 Sr4 2.593982 1_555
O18 Sr15 2.645953 1_555
O18 Sr12 2.673492 1_555
O18 Sr1 2.745792 1_555
O19 Ti6 1.992343 1_555
O19 Ti10 2.022378 1_555
O19 Sr5 2.672895 1_555
O19 Sr16 2.695708 1_555
O20 Ti1 2.015589 1_545
O20 Ti13 2.024541 1_555
O20 Sr7 2.664021 1_545
O20 Sr17 2.678216 1_555
O20 Sr2 2.691243 1_555
O20 Sr9 2.710007 1_655
O21 Ti12 1.991434 1_556
O21 Ti0 2.004011 1_556
O21 Sr8 2.621854 1_545
O21 Sr18 2.671774 1_555
O22 Ti15 2.043969 1_555
O22 Ti3 2.045504 1_655
O22 Sr10 2.632524 1_655
O22 Sr3 2.636250 1_555
O22 Sr19 2.658264 1_555
O22 Sr6 2.724321 1_555
O23 Ti2 2.027986 1_656
O23 Ti14 2.057436 1_555
O24 Ti8 2.012462 1_555
O24 Ti6 2.014684 1_554
O24 Sr14 2.644491 1_554
O24 Sr5 2.677240 1_554
O25 Ti7 1.990886 1_555
O25 Ti9 2.030790 1_555
O25 Sr11 2.625787 1_555
O25 Sr1 2.633629 1_555
O25 Sr4 2.794897 1_555
O25 Sr13 2.801234 1_555
O26 Ti4 2.016578 1_554
O26 Ti10 2.043098 1_554
O26 Sr16 2.671585 1_554
O27 Ti11 2.014319 1_555
O27 Ti5 2.037390 1_555
O27 Sr12 2.574128 1_555
O27 Sr0 2.642381 1_565
O27 Sr15 2.755468 1_555
O28 Ti2 2.014459 1_656
O28 Ti12 2.039777 1_556
O28 Sr18 2.602522 1_555
O29 Ti3 2.015752 1_655
O29 Ti13 2.029765 1_555
O29 Sr9 2.602287 1_655
O29 Sr3 2.651246 1_555
O29 Sr17 2.816710 1_555
O29 Sr6 2.817655 1_555
O30 Ti14 2.020359 1_554
O30 Ti0 2.034361 1_565
O30 Sr8 2.624792 1_554
O31 Ti1 2.008238 1_555
O31 Ti15 2.008632 1_555
O31 Sr2 2.564594 1_565
O31 Sr10 2.617633 1_655
O31 Sr19 2.833155 1_555
O31 Sr7 2.874429 1_555
O32 Ti16 1.972777 1_555
O32 Ti0 2.067276 1_455
O33 Ti17 1.855003 1_555
O33 Ti1 2.272714 1_445
O33 Sr9 2.532154 1_555
O33 Sr0 2.891729 1_555
O33 Sr2 2.951685 1_455
O34 Ti2 1.967271 1_555
O34 Ti18 2.014276 1_555
O35 Ti3 2.014755 1_555
O35 Sr10 2.515442 1_555
O35 Sr1 2.743129 1_555
O35 Sr3 3.053421 1_455
O35 Sr9 3.197459 1_555
O36 Ti19 1.958575 1_555
O36 Ti4 2.148218 1_544
O37 Ti20 1.924126 1_555
O37 Ti5 2.198120 1_545
O37 Sr11 2.677762 1_555
O37 Sr2 2.820268 1_555
O37 Sr0 2.948350 1_555
O37 Sr12 3.081654 1_545
O38 Ti21 1.926933 1_555
O38 Ti6 2.270217 1_554
O39 Ti7 1.985950 1_555
O39 Sr12 2.505143 1_555
O39 Sr3 2.771984 1_555
O39 Sr1 2.928941 1_555
O40 Ti22 1.918029 1_555
O40 Ti7 2.063319 1_555
O40 Sr13 2.593001 1_555
O40 Sr6 2.846813 1_555
O40 Sr4 2.872367 1_555
O40 Sr15 3.171264 1_555
O41 Ti6 1.925985 1_555
O41 Sr14 2.664646 1_555
O41 Sr5 2.890844 1_555
O41 Sr16 3.122111 1_555
O42 Ti23 1.958411 1_555
O42 Ti5 1.990249 1_555
O42 Sr15 2.650107 1_555
O42 Sr7 2.802051 1_555
O42 Sr13 3.067355 1_565
O43 Ti4 2.066822 1_555
O43 Sr16 2.686635 1_555
O43 Sr8 2.775709 1_555
O43 Sr14 3.058110 1_565
O44 Ti24 1.938446 1_555
O44 Ti3 2.070461 1_655
O44 Sr17 2.610462 1_555
O44 Sr4 2.873104 1_655
O44 Sr6 2.887476 1_555
O44 Sr19 3.096251 1_555
O45 Ti25 1.851390 1_555
O45 Sr18 2.604823 1_555
O45 Ti2 2.609764 1_656
O45 Sr5 2.815249 1_655
O46 Ti26 1.955251 1_555
O46 Ti1 2.004587 1_555
O46 Sr19 2.625450 1_555
O46 Sr7 2.834171 1_555
O46 Sr17 3.155927 1_565
O47 Ti27 1.908797 1_555
O47 Ti0 2.225524 1_566
O47 Sr8 2.811301 1_555
O47 Sr18 2.936905 1_565
O48 Ti8 2.002592 1_555
O48 Ti22 2.015407 1_555
O49 Ti9 1.964785 1_555
O49 Sr0 2.561564 1_555
O49 Sr11 2.709188 1_555
O49 Sr9 3.013579 1_555
O49 Sr1 3.191866 1_555
O50 Ti23 1.960213 1_555
O50 Ti10 2.141178 1_554
O51 Ti11 2.034203 1_555
O51 Sr1 2.560364 1_555
O51 Sr12 2.729903 1_555
O51 Sr10 2.982179 1_555
O51 Sr0 3.220827 1_565
O52 Ti24 1.976206 1_555
O52 Ti12 2.107191 1_555
O53 Ti25 1.840043 1_555
O53 Ti13 2.326431 1_555
O53 Sr2 2.477817 1_555
O53 Sr9 2.767894 1_655
O53 Sr11 3.082671 1_555
O54 Ti26 1.948226 1_555
O54 Ti14 2.192299 1_554
O55 Ti27 1.914690 1_555
O55 Ti15 2.216621 1_555
O55 Sr3 2.602648 1_555
O55 Sr12 2.863509 1_555
O55 Sr10 2.984090 1_655
O55 Sr2 3.071269 1_565
O56 Ti16 1.932451 1_555
O56 Ti9 2.091992 1_555
O56 Sr4 2.620331 1_555
O56 Sr13 2.829195 1_555
O56 Sr17 2.872031 1_455
O57 Ti17 1.857018 1_555
O57 Ti8 2.460665 1_556
O57 Sr5 2.631445 1_555
O57 Sr14 2.811930 1_555
O57 Sr18 3.017871 1_455
O58 Ti18 1.924035 1_555
O58 Ti11 2.037204 1_555
O58 Sr19 2.826736 1_455
O58 Sr15 2.882011 1_555
O58 Sr4 3.005792 1_555
O59 Ti10 2.021424 1_555
O59 Sr16 2.789617 1_555
O59 Sr5 3.029057 1_555
O60 Ti13 1.951908 1_555
O60 Ti19 1.970918 1_555
O60 Sr6 2.614607 1_555
O60 Sr17 2.871167 1_555
O60 Sr13 2.897818 1_555
O60 Sr7 3.063875 1_545
O61 Ti20 1.925619 1_555
O61 Ti12 2.179821 1_556
O61 Sr18 2.871978 1_555
O61 Sr8 2.887817 1_545
O61 Sr14 2.939462 1_555
O62 Ti21 1.943400 1_555
O62 Ti15 1.996721 1_555
O62 Sr7 2.596465 1_555
O62 Sr19 2.821971 1_555
O62 Sr15 2.938787 1_555
O63 Ti14 1.993777 1_555
O63 Sr8 2.671857 1_555
O63 Sr16 2.860584 1_555
O64 Ti19 1.866973 1_555
O64 Ti23 1.958158 1_545
O64 Sr13 2.713725 1_555
O64 Sr7 2.953724 1_545
O65 Ti20 1.854334 1_555
O65 Sr0 2.479721 1_555
O65 Sr14 2.521530 1_555
O66 Ti22 1.899518 1_555
O66 Ti21 1.916373 1_555
O66 Sr15 2.717123 1_555
O66 Sr6 2.973435 1_555
O67 Sr1 2.420509 1_555
O67 Sr16 2.445158 1_555
O68 Ti26 1.921750 1_545
O68 Ti16 1.936480 1_655
O68 Sr17 2.757323 1_555
O69 Ti17 1.890259 1_655
O69 Ti27 1.959757 1_545
O69 Sr2 2.589010 1_555
O69 Sr18 2.647033 1_555
O70 Ti24 1.915965 1_555
O70 Ti18 1.930628 1_655
O70 Sr19 2.689436 1_555
O70 Sr4 3.090848 1_655
O71 Ti25 1.823503 1_555
O71 Sr3 2.464770 1_555
O72 Ti18 1.890444 1_555
O72 Ti22 1.959633 1_555
O72 Sr4 2.721092 1_555
O72 Sr15 3.006483 1_555
O73 Sr9 2.380708 1_555
O73 Sr5 2.415743 1_555
O74 Ti23 1.907653 1_545
O74 Ti16 1.918086 1_555
O74 Sr13 2.897578 1_555
O75 Ti17 1.829069 1_565
O75 Sr10 2.486146 1_555
O76 Ti24 1.891596 1_555
O76 Ti21 1.926341 1_555
O76 Sr6 2.699839 1_555
O76 Sr19 2.977235 1_555
O77 Ti25 1.833546 1_555
O77 Sr11 2.510856 1_555
O78 Ti26 1.909376 1_555
O78 Ti19 1.939559 1_565
O78 Sr7 2.715869 1_555
O78 Sr17 2.998160 1_565
O79 Ti27 1.921920 1_555
O79 Ti20 1.971238 1_565
O79 Sr12 2.521137 1_555
O79 Sr8 2.575103 1_555
