# generated using pymatgen
data_Li4V5Cr4O18
_symmetry_space_group_name_H-M   'P 1'
_cell_length_a   2.98358900
_cell_length_b   8.89277600
_cell_length_c   24.81764700
_cell_angle_alpha   90.00000000
_cell_angle_beta   90.00000000
_cell_angle_gamma   90.00000000
_symmetry_Int_Tables_number   1
_chemical_formula_structural   Li4V5Cr4O18
_chemical_formula_sum   'Li8 V10 Cr8 O36'
_cell_volume   658.47145566
_cell_formula_units_Z   2
loop_
 _symmetry_equiv_pos_site_id
 _symmetry_equiv_pos_as_xyz
  1  'x, y, z'
loop_
 _atom_site_type_symbol
 _atom_site_label
 _atom_site_symmetry_multiplicity
 _atom_site_fract_x
 _atom_site_fract_y
 _atom_site_fract_z
 _atom_site_occupancy
  Li  Li0  1  0.00000000  0.17990300  0.99048200  1
  Li  Li1  1  0.00000000  0.20724500  0.19037500  1
  Li  Li2  1  0.00000000  0.29275500  0.69037500  1
  Li  Li3  1  0.00000000  0.32009700  0.49048200  1
  Li  Li4  1  0.00000000  0.67990300  0.50951800  1
  Li  Li5  1  0.00000000  0.70724500  0.30962500  1
  Li  Li6  1  0.00000000  0.79275500  0.80962500  1
  Li  Li7  1  0.00000000  0.82009700  0.00951800  1
  V  V0  1  0.00000000  0.00000000  0.50000000  1
  V  V1  1  0.00000000  0.99198000  0.10257700  1
  V  V2  1  0.50000000  0.14166100  0.80255100  1
  V  V3  1  0.50000000  0.35833900  0.30255100  1
  V  V4  1  0.00000000  0.50802000  0.60257700  1
  V  V5  1  0.00000000  0.50000000  0.00000000  1
  V  V6  1  0.00000000  0.49198000  0.39742300  1
  V  V7  1  0.50000000  0.64166100  0.69744900  1
  V  V8  1  0.50000000  0.85833900  0.19744900  1
  V  V9  1  0.00000000  0.00802000  0.89742300  1
  Cr  Cr0  1  0.00000000  0.01782700  0.31282500  1
  Cr  Cr1  1  0.50000000  0.15149800  0.58577200  1
  Cr  Cr2  1  0.50000000  0.34850200  0.08577200  1
  Cr  Cr3  1  0.00000000  0.48217300  0.81282500  1
  Cr  Cr4  1  0.00000000  0.51782700  0.18717500  1
  Cr  Cr5  1  0.50000000  0.65149800  0.91422800  1
  Cr  Cr6  1  0.50000000  0.84850200  0.41422800  1
  Cr  Cr7  1  0.00000000  0.98217300  0.68717500  1
  O  O0  1  0.00000000  0.99986500  0.42278000  1
  O  O1  1  0.00000000  0.00013500  0.57722000  1
  O  O2  1  0.50000000  0.06387000  0.94317600  1
  O  O3  1  0.50000000  0.04724300  0.15999300  1
  O  O4  1  0.50000000  0.11976200  0.66444700  1
  O  O5  1  0.00000000  0.09087600  0.75545700  1
  O  O6  1  0.50000000  0.15089300  0.50388400  1
  O  O7  1  0.50000000  0.15156500  0.28685400  1
  O  O8  1  0.00000000  0.18720100  0.85540900  1
  O  O9  1  0.00000000  0.19782000  0.08410300  1
  O  O10  1  0.00000000  0.30218000  0.58410300  1
  O  O11  1  0.00000000  0.31279900  0.35540900  1
  O  O12  1  0.50000000  0.34843500  0.78685400  1
  O  O13  1  0.50000000  0.34910700  0.00388400  1
  O  O14  1  0.00000000  0.40912400  0.25545700  1
  O  O15  1  0.50000000  0.38023800  0.16444700  1
  O  O16  1  0.50000000  0.45275700  0.65999300  1
  O  O17  1  0.50000000  0.43613000  0.44317600  1
  O  O18  1  0.00000000  0.49986500  0.07722000  1
  O  O19  1  0.00000000  0.50013500  0.92278000  1
  O  O20  1  0.50000000  0.56387000  0.55682400  1
  O  O21  1  0.50000000  0.54724300  0.34000700  1
  O  O22  1  0.50000000  0.61976200  0.83555300  1
  O  O23  1  0.00000000  0.59087600  0.74454300  1
  O  O24  1  0.50000000  0.65089300  0.99611600  1
  O  O25  1  0.50000000  0.65156500  0.21314600  1
  O  O26  1  0.00000000  0.68720100  0.64459100  1
  O  O27  1  0.00000000  0.69782000  0.41589700  1
  O  O28  1  0.00000000  0.80218000  0.91589700  1
  O  O29  1  0.00000000  0.81279900  0.14459100  1
  O  O30  1  0.50000000  0.84843500  0.71314600  1
  O  O31  1  0.50000000  0.84910700  0.49611600  1
  O  O32  1  0.00000000  0.90912400  0.24454300  1
  O  O33  1  0.50000000  0.88023800  0.33555300  1
  O  O34  1  0.50000000  0.95275700  0.84000700  1
  O  O35  1  0.50000000  0.93613000  0.05682400  1
loop_
_geom_bond_atom_site_label_1
_geom_bond_atom_site_label_2
_geom_bond_distance
_geom_bond_site_symmetry_2
Li0 O13 2.144803 1_456
Li0 O13 2.144803 1_556
Li0 O2 2.160673 1_455
Li0 O2 2.160673 1_555
Li0 O9 2.328910 1_556
Li1 O3 2.195112 1_455
Li1 O3 2.195112 1_555
Li1 O15 2.237442 1_455
Li1 O15 2.237442 1_555
Li1 O14 2.414910 1_555
Li2 O16 2.195112 1_455
Li2 O16 2.195112 1_555
Li2 O4 2.237442 1_555
Li2 O4 2.237442 1_455
Li2 O5 2.414910 1_555
Li3 O6 2.144803 1_455
Li3 O6 2.144803 1_555
Li3 O17 2.160673 1_455
Li3 O17 2.160673 1_555
Li3 O10 2.328910 1_555
Li4 O31 2.144803 1_455
Li4 O31 2.144803 1_555
Li4 O20 2.160673 1_455
Li4 O20 2.160673 1_555
Li4 O27 2.328910 1_555
Li5 O21 2.195112 1_455
Li5 O21 2.195112 1_555
Li5 O33 2.237442 1_555
Li5 O33 2.237442 1_455
Li5 O32 2.414910 1_555
Li6 O34 2.195112 1_455
Li6 O34 2.195112 1_555
Li6 O22 2.237442 1_555
Li6 O22 2.237442 1_455
Li6 O23 2.414910 1_555
Li7 O24 2.144803 1_454
Li7 O24 2.144803 1_554
Li7 O35 2.160673 1_555
Li7 O35 2.160673 1_455
Li7 O28 2.328910 1_554
Cr0 O32 1.950927 1_545
Cr0 O33 2.010144 1_445
Cr0 O33 2.010144 1_545
Cr0 O7 2.013783 1_455
Cr0 O7 2.013783 1_555
Cr1 O4 1.972819 1_555
Cr1 O10 2.005671 1_555
Cr1 O10 2.005671 1_655
Cr1 O1 2.020473 1_555
Cr1 O1 2.020473 1_655
Cr1 O6 2.032275 1_555
Cr2 O15 1.972819 1_555
Cr2 O9 2.005671 1_555
Cr2 O9 2.005671 1_655
Cr2 O18 2.020473 1_655
Cr2 O18 2.020473 1_555
Cr2 O13 2.032275 1_555
Cr3 O23 1.950927 1_555
Cr3 O22 2.010144 1_455
Cr3 O22 2.010144 1_555
Cr3 O12 2.013783 1_555
Cr3 O12 2.013783 1_455
Cr4 O14 1.950927 1_555
Cr4 O15 2.010144 1_455
Cr4 O15 2.010144 1_555
Cr4 O25 2.013783 1_455
Cr4 O25 2.013783 1_555
Cr5 O22 1.972819 1_555
Cr5 O28 2.005671 1_555
Cr5 O28 2.005671 1_655
Cr5 O19 2.020473 1_555
Cr5 O19 2.020473 1_655
Cr5 O24 2.032275 1_555
Cr6 O33 1.972819 1_555
Cr6 O27 2.005671 1_655
Cr6 O27 2.005671 1_555
Cr6 O0 2.020473 1_555
Cr6 O0 2.020473 1_655
Cr6 O31 2.032275 1_555
Cr7 O5 1.950927 1_565
Cr7 O4 2.010144 1_565
Cr7 O4 2.010144 1_465
Cr7 O30 2.013783 1_455
Cr7 O30 2.013783 1_555
O0 V0 1.916419 1_565
O1 V0 1.916419 1_555
O2 V9 1.939444 1_655
O2 V9 1.939444 1_555
O3 V8 1.919922 1_545
O3 V1 2.120705 1_545
O3 V1 2.120705 1_645
O5 V2 1.948183 1_455
O5 V2 1.948183 1_555
O6 V0 2.008812 1_555
O6 V0 2.008812 1_655
O7 V3 1.879608 1_555
O8 V9 1.904252 1_555
O8 V2 2.027389 1_455
O8 V2 2.027389 1_555
O9 V1 1.887033 1_545
O10 V4 1.887033 1_555
O11 V6 1.904252 1_555
O11 V3 2.027389 1_455
O11 V3 2.027389 1_555
O12 V2 1.879608 1_555
O13 V5 2.008812 1_655
O13 V5 2.008812 1_555
O14 V3 1.948183 1_555
O14 V3 1.948183 1_455
O16 V7 1.919922 1_555
O16 V4 2.120705 1_655
O16 V4 2.120705 1_555
O17 V6 1.939444 1_655
O17 V6 1.939444 1_555
O18 V5 1.916419 1_555
O19 V5 1.916419 1_556
O20 V4 1.939444 1_555
O20 V4 1.939444 1_655
O21 V3 1.919922 1_555
O21 V6 2.120705 1_655
O21 V6 2.120705 1_555
O23 V7 1.948183 1_555
O23 V7 1.948183 1_455
O24 V5 2.008812 1_556
O24 V5 2.008812 1_656
O25 V8 1.879608 1_555
O26 V4 1.904252 1_555
O26 V7 2.027389 1_455
O26 V7 2.027389 1_555
O27 V6 1.887033 1_555
O28 V9 1.887033 1_565
O29 V1 1.904252 1_555
O29 V8 2.027389 1_455
O29 V8 2.027389 1_555
O30 V7 1.879608 1_555
O31 V0 2.008812 1_565
O31 V0 2.008812 1_665
O32 V8 1.948183 1_455
O32 V8 1.948183 1_555
O34 V2 1.919922 1_565
O34 V9 2.120705 1_565
O34 V9 2.120705 1_665
O35 V1 1.939444 1_555
O35 V1 1.939444 1_655
