# generated using pymatgen
data_Sm6Al3Fe11
_symmetry_space_group_name_H-M   'P 1'
_cell_length_a   8.09184508
_cell_length_b   8.09184813
_cell_length_c   12.98995612
_cell_angle_alpha   71.86552562
_cell_angle_beta   71.86552001
_cell_angle_gamma   90.00295406
_symmetry_Int_Tables_number   1
_chemical_formula_structural   Sm6Al3Fe11
_chemical_formula_sum   'Sm12 Al6 Fe22'
_cell_volume   763.72121675
_cell_formula_units_Z   2
loop_
 _symmetry_equiv_pos_site_id
 _symmetry_equiv_pos_as_xyz
  1  'x, y, z'
loop_
 _atom_site_type_symbol
 _atom_site_label
 _atom_site_symmetry_multiplicity
 _atom_site_fract_x
 _atom_site_fract_y
 _atom_site_fract_z
 _atom_site_occupancy
  Sm  Sm0  1  0.35014735  0.85014823  0.62698989  1
  Sm  Sm1  1  0.02292831  0.52292865  0.62701396  1
  Sm  Sm2  1  0.52292669  0.35004383  0.62703000  1
  Sm  Sm3  1  0.85004342  0.02292761  0.62703002  1
  Sm  Sm4  1  0.64053539  0.14053565  0.38885219  1
  Sm  Sm5  1  0.97069870  0.47069948  0.38881135  1
  Sm  Sm6  1  0.47066073  0.64070627  0.38882045  1
  Sm  Sm7  1  0.14070523  0.97066083  0.38882054  1
  Sm  Sm8  1  0.39220593  0.39220330  0.21574797  1
  Sm  Sm9  1  0.89220261  0.89220542  0.21574810  1
  Sm  Sm10  1  0.60781042  0.60783537  0.78431880  1
  Sm  Sm11  1  0.10783545  0.10781045  0.78431877  1
  Al  Al0  1  0.75015161  0.75013945  0.49983394  1
  Al  Al1  1  0.25013742  0.25015204  0.49983484  1
  Al  Al2  1  0.52339028  0.02339050  0.19163533  1
  Al  Al3  1  0.28522867  0.78522887  0.19158856  1
  Al  Al4  1  0.78504172  0.52331398  0.19160448  1
  Al  Al5  1  0.02331474  0.28504150  0.19160455  1
  Fe  Fe0  1  0.23784986  0.73784914  0.87868087  1
  Fe  Fe1  1  0.88335142  0.38335156  0.87868124  1
  Fe  Fe2  1  0.38345239  0.23792944  0.87868892  1
  Fe  Fe3  1  0.73792978  0.88345138  0.87868902  1
  Fe  Fe4  1  0.76845154  0.26845096  0.11052704  1
  Fe  Fe5  1  0.12105363  0.62105291  0.11057880  1
  Fe  Fe6  1  0.62120657  0.76858798  0.11047477  1
  Fe  Fe7  1  0.26858799  0.12120640  0.11047415  1
  Fe  Fe8  1  0.70946459  0.56936406  0.99715301  1
  Fe  Fe9  1  0.29308518  0.43344066  0.99717603  1
  Fe  Fe10  1  0.79314690  0.06935905  0.99719238  1
  Fe  Fe11  1  0.20946434  0.93341944  0.99718803  1
  Fe  Fe12  1  0.56935972  0.29314665  0.99719212  1
  Fe  Fe13  1  0.43341970  0.70946380  0.99718833  1
  Fe  Fe14  1  0.06936452  0.20946503  0.99715285  1
  Fe  Fe15  1  0.93344134  0.79308491  0.99717612  1
  Fe  Fe16  1  0.00044254  0.50044318  0.99903376  1
  Fe  Fe17  1  0.50045959  0.00045795  0.99901807  1
  Fe  Fe18  1  0.48047274  0.98047172  0.80954459  1
  Fe  Fe19  1  0.70979749  0.20979628  0.80955615  1
  Fe  Fe20  1  0.20981470  0.48042258  0.80951465  1
  Fe  Fe21  1  0.98042182  0.70981649  0.80951438  1
loop_
_geom_bond_atom_site_label_1
_geom_bond_atom_site_label_2
_geom_bond_distance
_geom_bond_site_symmetry_2
Sm0 Sm4 3.400268 1_565
Sm0 Sm11 3.539315 1_565
Sm0 Sm10 3.539323 1_555
Sm0 Sm1 3.744332 1_555
Sm0 Sm7 3.844595 1_555
Sm0 Sm6 3.844596 1_555
Sm1 Sm5 3.399950 1_455
Sm1 Sm10 3.540090 1_455
Sm1 Sm11 3.540094 1_555
Sm1 Sm7 3.846261 1_555
Sm1 Sm6 3.846262 1_555
Sm2 Sm6 3.401463 1_555
Sm2 Sm3 3.743486 1_555
Sm2 Sm4 3.845057 1_555
Sm2 Sm5 3.846634 1_555
Sm3 Sm7 3.401463 1_645
Sm3 Sm4 3.845056 1_555
Sm3 Sm5 3.846634 1_555
Sm4 Sm8 3.633718 1_555
Sm4 Sm9 3.633720 1_545
Sm4 Sm5 3.777929 1_555
Sm5 Sm9 3.634093 1_555
Sm5 Sm8 3.634101 1_655
Sm6 Sm8 3.633658 1_555
Sm6 Sm9 3.634378 1_555
Sm6 Sm7 3.775970 1_555
Sm7 Sm9 3.633657 1_455
Sm7 Sm8 3.634387 1_565
Sm10 Sm2 3.538979 1_555
Sm10 Sm3 3.540176 1_565
Sm11 Sm3 3.538979 1_455
Sm11 Sm2 3.540170 1_555
Al0 Sm6 3.286850 1_555
Al0 Sm4 3.287231 1_565
Al0 Sm5 3.287248 1_555
Al0 Sm7 3.288138 1_655
Al0 Sm9 3.313517 1_555
Al0 Sm10 3.318171 1_555
Al0 Sm3 3.370065 1_565
Al0 Sm1 3.370642 1_655
Al0 Sm0 3.371075 1_555
Al0 Sm2 3.372026 1_555
Al1 Sm7 3.286858 1_545
Al1 Sm4 3.287245 1_555
Al1 Sm5 3.287246 1_455
Al1 Sm6 3.288149 1_555
Al1 Sm8 3.313529 1_555
Al1 Sm11 3.318161 1_555
Al1 Sm2 3.370062 1_555
Al1 Sm1 3.370630 1_555
Al1 Sm0 3.371073 1_545
Al1 Sm3 3.372013 1_455
Al2 Fe4 2.524493 1_555
Al2 Fe6 2.612077 1_545
Al2 Fe7 2.612079 1_555
Al2 Fe17 2.628183 1_554
Al2 Fe12 2.695512 1_554
Al2 Fe10 2.695512 1_554
Al2 Al3 2.725623 1_545
Al2 Sm9 3.241400 1_545
Al2 Sm8 3.241403 1_555
Al2 Sm6 3.273234 1_545
Al2 Sm7 3.273238 1_545
Al2 Sm4 3.373929 1_555
Al3 Fe5 2.525350 1_555
Al3 Fe7 2.612418 1_565
Al3 Fe6 2.612420 1_555
Al3 Fe17 2.626701 1_564
Al3 Fe11 2.696202 1_554
Al3 Fe13 2.696202 1_554
Al3 Sm8 3.241952 1_555
Al3 Sm9 3.241953 1_455
Al3 Sm6 3.272802 1_555
Al3 Sm7 3.272804 1_555
Al3 Sm5 3.376422 1_455
Al4 Fe6 2.524929 1_555
Al4 Fe4 2.611594 1_555
Al4 Fe5 2.612698 1_655
Al4 Fe16 2.627505 1_654
Al4 Fe15 2.695510 1_554
Al4 Fe8 2.696074 1_554
Al4 Al5 2.726768 1_655
Al4 Sm8 3.240436 1_555
Al4 Sm9 3.242278 1_555
Al4 Sm5 3.273736 1_555
Al4 Sm4 3.274212 1_555
Al4 Sm6 3.375662 1_555
Al5 Fe7 2.524928 1_555
Al5 Fe4 2.611596 1_455
Al5 Fe5 2.612695 1_555
Al5 Fe16 2.627512 1_554
Al5 Fe9 2.695509 1_554
Al5 Fe14 2.696075 1_554
Al5 Sm9 3.240442 1_445
Al5 Sm8 3.242276 1_555
Al5 Sm5 3.273740 1_455
Al5 Sm4 3.274216 1_455
Al5 Sm7 3.375654 1_545
Fe0 Fe16 2.466893 1_555
Fe0 Fe13 2.494659 1_555
Fe0 Fe11 2.494660 1_555
Fe0 Fe18 2.513930 1_555
Fe0 Fe20 2.547488 1_555
Fe0 Fe21 2.547497 1_455
Fe0 Fe9 2.589345 1_555
Fe0 Fe15 2.589347 1_455
Fe0 Fe5 2.704829 1_556
Fe0 Sm0 2.939711 1_555
Fe0 Sm10 3.176497 1_555
Fe0 Sm11 3.176505 1_565
Fe1 Fe16 2.466512 1_655
Fe1 Fe12 2.494737 1_555
Fe1 Fe10 2.494744 1_555
Fe1 Fe19 2.514082 1_555
Fe1 Fe20 2.546713 1_655
Fe1 Fe21 2.546725 1_555
Fe1 Fe8 2.589976 1_555
Fe1 Fe14 2.589977 1_655
Fe1 Fe4 2.704222 1_556
Fe1 Sm1 2.939653 1_655
Fe1 Sm10 3.176329 1_555
Fe1 Sm11 3.176331 1_655
Fe2 Fe9 2.494360 1_555
Fe2 Fe20 2.514064 1_555
Fe2 Fe7 2.703514 1_556
Fe2 Sm2 2.939468 1_555
Fe2 Sm10 3.176161 1_555
Fe2 Sm11 3.176552 1_555
Fe3 Fe8 2.495042 1_555
Fe3 Fe6 2.703521 1_556
Fe3 Sm3 2.939470 1_565
Fe3 Sm11 3.176163 1_665
Fe3 Sm10 3.176548 1_555
Fe4 Fe8 2.555606 1_554
Fe4 Sm9 3.225210 1_545
Fe4 Sm8 3.225213 1_555
Fe4 Sm4 3.248835 1_555
Fe5 Fe9 2.555068 1_554
Fe5 Sm8 3.225099 1_555
Fe5 Sm9 3.225107 1_455
Fe5 Sm5 3.247833 1_455
Fe6 Fe8 2.469556 1_554
Fe6 Sm9 3.224475 1_555
Fe6 Sm8 3.226317 1_555
Fe6 Sm6 3.249154 1_555
Fe7 Fe9 2.468281 1_554
Fe7 Sm8 3.224488 1_555
Fe7 Sm9 3.226321 1_445
Fe7 Sm7 3.249162 1_545
Fe8 Sm10 3.049108 1_555
Fe8 Sm8 3.104268 1_556
Fe9 Sm10 3.051178 1_555
Fe9 Sm8 3.105447 1_556
Fe10 Fe17 2.424315 1_555
Fe10 Fe4 2.469017 1_556
Fe10 Fe14 2.505931 1_655
Fe10 Fe15 2.507378 1_545
Fe10 Fe6 2.553483 1_546
Fe10 Fe12 2.560999 1_555
Fe10 Fe3 2.588798 1_545
Fe10 Fe19 2.643164 1_555
Fe10 Sm11 3.050992 1_655
Fe10 Sm9 3.104956 1_546
Fe11 Fe17 2.425311 1_565
Fe11 Fe5 2.469112 1_556
Fe11 Fe14 2.504925 1_565
Fe11 Fe15 2.505644 1_455
Fe11 Fe7 2.556094 1_566
Fe11 Fe13 2.562923 1_555
Fe11 Fe2 2.590876 1_565
Fe11 Fe18 2.643883 1_555
Fe11 Sm11 3.049654 1_565
Fe11 Sm9 3.104143 1_456
Fe12 Fe17 2.424324 1_555
Fe12 Fe4 2.469019 1_556
Fe12 Fe8 2.505929 1_555
Fe12 Fe9 2.507378 1_555
Fe12 Fe7 2.553486 1_556
Fe12 Fe2 2.588794 1_555
Fe12 Fe19 2.643166 1_555
Fe12 Sm10 3.050992 1_555
Fe12 Sm8 3.104962 1_556
Fe13 Fe17 2.425304 1_565
Fe13 Fe5 2.469108 1_556
Fe13 Fe8 2.504919 1_555
Fe13 Fe9 2.505648 1_555
Fe13 Fe6 2.556099 1_556
Fe13 Fe3 2.590875 1_555
Fe13 Fe18 2.643883 1_555
Fe13 Sm10 3.049654 1_555
Fe13 Sm8 3.104135 1_556
Fe14 Fe16 2.425491 1_555
Fe14 Fe7 2.469549 1_556
Fe14 Fe2 2.495046 1_555
Fe14 Fe4 2.555602 1_456
Fe14 Fe9 2.561695 1_555
Fe14 Fe20 2.643580 1_555
Fe14 Sm11 3.049109 1_555
Fe14 Sm9 3.104276 1_446
Fe15 Fe16 2.423781 1_655
Fe15 Fe6 2.468285 1_556
Fe15 Fe3 2.494361 1_555
Fe15 Fe5 2.555069 1_656
Fe15 Fe8 2.561702 1_555
Fe15 Fe21 2.643218 1_555
Fe15 Sm11 3.051180 1_665
Fe15 Sm9 3.105445 1_556
Fe16 Fe4 2.400078 1_456
Fe16 Fe5 2.401039 1_556
Fe16 Fe9 2.423789 1_555
Fe16 Fe8 2.425486 1_455
Fe16 Fe20 2.570837 1_555
Fe16 Fe21 2.570844 1_455
Fe17 Fe6 2.400199 1_546
Fe17 Fe7 2.400210 1_556
Fe17 Fe3 2.466532 1_545
Fe17 Fe2 2.466542 1_555
Fe17 Fe19 2.570065 1_555
Fe17 Fe18 2.570145 1_545
Fe18 Fe3 2.547401 1_555
Fe18 Fe2 2.547406 1_565
Fe18 Fe19 2.624298 1_565
Fe18 Sm3 3.124332 1_565
Fe18 Sm2 3.124344 1_565
Fe18 Sm10 3.265951 1_555
Fe18 Sm11 3.265960 1_565
Fe18 Sm0 3.310737 1_555
Fe19 Fe3 2.546143 1_545
Fe19 Fe2 2.546145 1_555
Fe19 Sm3 3.122985 1_555
Fe19 Sm2 3.122999 1_555
Fe19 Sm11 3.267087 1_655
Fe19 Sm10 3.267100 1_555
Fe19 Sm1 3.313944 1_655
Fe20 Fe21 2.625154 1_455
Fe20 Fe9 2.643221 1_555
Fe20 Sm1 3.122417 1_555
Fe20 Sm0 3.125656 1_555
Fe20 Sm11 3.265149 1_555
Fe20 Sm10 3.267307 1_555
Fe20 Sm2 3.312087 1_555
Fe21 Fe3 2.514044 1_555
Fe21 Fe8 2.643584 1_555
Fe21 Sm1 3.122422 1_655
Fe21 Sm0 3.125652 1_655
Fe21 Sm10 3.265145 1_555
Fe21 Sm11 3.267298 1_665
Fe21 Sm3 3.312080 1_565
