# generated using pymatgen
data_Ir4W
_symmetry_space_group_name_H-M   'P 1'
_cell_length_a   22.84382373
_cell_length_b   22.84382373
_cell_length_c   22.84382233
_cell_angle_alpha   13.85707527
_cell_angle_beta   13.85707527
_cell_angle_gamma   13.85707539
_symmetry_Int_Tables_number   1
_chemical_formula_structural   Ir4W
_chemical_formula_sum   'Ir32 W8'
_cell_volume   595.06216902
_cell_formula_units_Z   8
loop_
 _symmetry_equiv_pos_site_id
 _symmetry_equiv_pos_as_xyz
  1  'x, y, z'
loop_
 _atom_site_type_symbol
 _atom_site_label
 _atom_site_symmetry_multiplicity
 _atom_site_fract_x
 _atom_site_fract_y
 _atom_site_fract_z
 _atom_site_occupancy
  Ir  Ir0_0  1  0.30016600  0.30016600  0.30016600  1
  Ir  Ir0_1  1  0.30016600  0.30016600  0.80016600  1
  Ir  Ir0_2  1  0.30016600  0.80016600  0.30016600  1
  Ir  Ir0_3  1  0.30016600  0.80016600  0.80016600  1
  Ir  Ir0_4  1  0.80016600  0.30016600  0.30016600  1
  Ir  Ir0_5  1  0.80016600  0.30016600  0.80016600  1
  Ir  Ir0_6  1  0.80016600  0.80016600  0.30016600  1
  Ir  Ir0_7  1  0.80016600  0.80016600  0.80016600  1
  Ir  Ir1_0  1  0.09959550  0.09959550  0.09959550  1
  Ir  Ir1_1  1  0.09959550  0.09959550  0.59959550  1
  Ir  Ir1_2  1  0.09959550  0.59959550  0.09959550  1
  Ir  Ir1_3  1  0.09959550  0.59959550  0.59959550  1
  Ir  Ir1_4  1  0.59959550  0.09959550  0.09959550  1
  Ir  Ir1_5  1  0.59959550  0.09959550  0.59959550  1
  Ir  Ir1_6  1  0.59959550  0.59959550  0.09959550  1
  Ir  Ir1_7  1  0.59959550  0.59959550  0.59959550  1
  Ir  Ir2_0  1  0.40040450  0.40040450  0.40040450  1
  Ir  Ir2_1  1  0.40040450  0.40040450  0.90040450  1
  Ir  Ir2_2  1  0.40040450  0.90040450  0.40040450  1
  Ir  Ir2_3  1  0.40040450  0.90040450  0.90040450  1
  Ir  Ir2_4  1  0.90040450  0.40040450  0.40040450  1
  Ir  Ir2_5  1  0.90040450  0.40040450  0.90040450  1
  Ir  Ir2_6  1  0.90040450  0.90040450  0.40040450  1
  Ir  Ir2_7  1  0.90040450  0.90040450  0.90040450  1
  Ir  Ir3_0  1  0.19983400  0.19983400  0.19983400  1
  Ir  Ir3_1  1  0.19983400  0.19983400  0.69983400  1
  Ir  Ir3_2  1  0.19983400  0.69983400  0.19983400  1
  Ir  Ir3_3  1  0.19983400  0.69983400  0.69983400  1
  Ir  Ir3_4  1  0.69983400  0.19983400  0.19983400  1
  Ir  Ir3_5  1  0.69983400  0.19983400  0.69983400  1
  Ir  Ir3_6  1  0.69983400  0.69983400  0.19983400  1
  Ir  Ir3_7  1  0.69983400  0.69983400  0.69983400  1
  W  W0_0  1  0.00000000  0.00000000  0.00000000  1
  W  W0_1  1  0.00000000  0.00000000  0.50000000  1
  W  W0_2  1  0.00000000  0.50000000  0.00000000  1
  W  W0_3  1  0.00000000  0.50000000  0.50000000  1
  W  W0_4  1  0.50000000  0.00000000  0.00000000  1
  W  W0_5  1  0.50000000  0.00000000  0.50000000  1
  W  W0_6  1  0.50000000  0.50000000  0.00000000  1
  W  W0_7  1  0.50000000  0.50000000  0.50000000  1
loop_
_geom_bond_atom_site_label_1
_geom_bond_atom_site_label_2
_geom_bond_distance
_geom_bond_site_symmetry_2
Ir0_0 Ir0_5 2.755680 1_554
Ir0_0 Ir0_3 2.755680 1_545
Ir0_0 Ir0_5 2.755680 1_455
Ir0_0 Ir0_3 2.755680 1_554
Ir0_0 Ir0_6 2.755680 1_545
Ir0_0 Ir0_6 2.755680 1_455
Ir0_0 W0_5 2.756369 1_555
Ir0_0 W0_3 2.756369 1_555
Ir0_0 W0_6 2.756369 1_555
Ir0_0 Ir1_4 2.797332 1_555
Ir0_0 Ir1_2 2.797332 1_555
Ir0_0 Ir1_1 2.797333 1_555
Ir0_1 Ir0_4 2.755680 1_555
Ir0_1 Ir0_2 2.755680 1_555
Ir0_1 Ir0_4 2.755680 1_456
Ir0_1 Ir0_2 2.755680 1_546
Ir0_1 Ir0_7 2.755680 1_545
Ir0_1 Ir0_7 2.755680 1_455
Ir0_1 W0_4 2.756369 1_556
Ir0_1 W0_2 2.756369 1_556
Ir0_1 W0_7 2.756369 1_555
Ir0_1 Ir1_5 2.797332 1_555
Ir0_1 Ir1_3 2.797332 1_555
Ir0_1 Ir1_0 2.797333 1_556
Ir0_2 Ir0_7 2.755680 1_455
Ir0_2 Ir0_7 2.755680 1_554
Ir0_2 Ir0_4 2.755680 1_555
Ir0_2 Ir0_4 2.755680 1_465
Ir0_2 W0_1 2.756369 1_565
Ir0_2 W0_7 2.756369 1_555
Ir0_2 W0_4 2.756369 1_565
Ir0_2 Ir1_0 2.797332 1_565
Ir0_2 Ir1_6 2.797332 1_555
Ir0_2 Ir1_3 2.797333 1_555
Ir0_3 Ir0_6 2.755680 1_555
Ir0_3 Ir0_6 2.755680 1_456
Ir0_3 Ir0_5 2.755680 1_555
Ir0_3 Ir0_5 2.755680 1_465
Ir0_3 W0_6 2.756369 1_556
Ir0_3 W0_0 2.756369 1_566
Ir0_3 W0_5 2.756369 1_565
Ir0_3 Ir1_7 2.797332 1_555
Ir0_3 Ir1_1 2.797332 1_565
Ir0_3 Ir1_2 2.797333 1_556
Ir0_4 Ir0_7 2.755680 1_545
Ir0_4 Ir0_7 2.755680 1_554
Ir0_4 W0_7 2.756369 1_555
Ir0_4 W0_1 2.756369 1_655
Ir0_4 W0_2 2.756369 1_655
Ir0_4 Ir1_6 2.797332 1_555
Ir0_4 Ir1_0 2.797332 1_655
Ir0_4 Ir1_5 2.797333 1_555
Ir0_5 Ir0_6 2.755680 1_555
Ir0_5 Ir0_6 2.755680 1_546
Ir0_5 W0_6 2.756369 1_556
Ir0_5 W0_0 2.756369 1_656
Ir0_5 W0_3 2.756369 1_655
Ir0_5 Ir1_7 2.797332 1_555
Ir0_5 Ir1_1 2.797332 1_655
Ir0_5 Ir1_4 2.797333 1_556
Ir0_6 W0_3 2.756369 1_655
Ir0_6 W0_5 2.756369 1_565
Ir0_6 W0_0 2.756369 1_665
Ir0_6 Ir1_4 2.797332 1_565
Ir0_6 Ir1_2 2.797332 1_655
Ir0_6 Ir1_7 2.797333 1_555
Ir0_7 W0_2 2.756369 1_656
Ir0_7 W0_4 2.756369 1_566
Ir0_7 W0_1 2.756369 1_665
Ir0_7 Ir1_3 2.797332 1_655
Ir0_7 Ir1_5 2.797332 1_565
Ir0_7 Ir1_6 2.797333 1_556
Ir1_0 Ir2_5 2.720852 1_454
Ir1_0 Ir2_3 2.720852 1_544
Ir1_0 Ir2_6 2.720853 1_445
Ir1_0 Ir1_3 2.755680 1_545
Ir1_0 Ir1_5 2.755680 1_455
Ir1_0 Ir1_5 2.755680 1_554
Ir1_0 Ir1_3 2.755680 1_554
Ir1_0 Ir1_6 2.755680 1_455
Ir1_0 Ir1_6 2.755680 1_545
Ir1_1 Ir2_2 2.720852 1_545
Ir1_1 Ir2_4 2.720852 1_455
Ir1_1 Ir2_7 2.720853 1_445
Ir1_1 Ir1_2 2.755680 1_555
Ir1_1 Ir1_4 2.755680 1_555
Ir1_1 Ir1_4 2.755680 1_456
Ir1_1 Ir1_2 2.755680 1_546
Ir1_1 Ir1_7 2.755680 1_455
Ir1_1 Ir1_7 2.755680 1_545
Ir1_2 Ir2_7 2.720852 1_454
Ir1_2 Ir2_1 2.720852 1_554
Ir1_2 Ir2_4 2.720853 1_455
Ir1_2 Ir1_7 2.755680 1_455
Ir1_2 Ir1_7 2.755680 1_554
Ir1_2 Ir1_4 2.755680 1_555
Ir1_2 Ir1_4 2.755680 1_465
Ir1_3 Ir2_0 2.720852 1_555
Ir1_3 Ir2_6 2.720852 1_455
Ir1_3 Ir2_5 2.720853 1_455
Ir1_3 Ir1_6 2.755680 1_456
Ir1_3 Ir1_6 2.755680 1_555
Ir1_3 Ir1_5 2.755680 1_465
Ir1_3 Ir1_5 2.755680 1_555
Ir1_4 Ir2_7 2.720852 1_544
Ir1_4 Ir2_1 2.720852 1_554
Ir1_4 Ir2_2 2.720853 1_545
Ir1_4 Ir1_7 2.755680 1_545
Ir1_4 Ir1_7 2.755680 1_554
Ir1_5 Ir2_0 2.720852 1_555
Ir1_5 Ir2_6 2.720852 1_545
Ir1_5 Ir2_3 2.720853 1_545
Ir1_5 Ir1_6 2.755680 1_546
Ir1_5 Ir1_6 2.755680 1_555
Ir1_6 Ir2_5 2.720852 1_554
Ir1_6 Ir2_3 2.720852 1_554
Ir1_6 Ir2_0 2.720853 1_555
Ir1_7 Ir2_4 2.720852 1_555
Ir1_7 Ir2_2 2.720852 1_555
Ir1_7 Ir2_1 2.720853 1_555
Ir2_0 Ir2_3 2.755680 1_554
Ir2_0 Ir2_5 2.755680 1_554
Ir2_0 Ir2_3 2.755680 1_545
Ir2_0 Ir2_5 2.755680 1_455
Ir2_0 Ir2_6 2.755680 1_455
Ir2_0 Ir2_6 2.755680 1_545
Ir2_0 Ir3_4 2.797332 1_555
Ir2_0 Ir3_2 2.797332 1_555
Ir2_0 Ir3_1 2.797333 1_555
Ir2_1 Ir2_2 2.755680 1_555
Ir2_1 Ir2_4 2.755680 1_555
Ir2_1 Ir2_2 2.755680 1_546
Ir2_1 Ir2_4 2.755680 1_456
Ir2_1 Ir2_7 2.755680 1_545
Ir2_1 Ir2_7 2.755680 1_455
Ir2_1 Ir3_3 2.797332 1_555
Ir2_1 Ir3_5 2.797332 1_555
Ir2_1 Ir3_0 2.797333 1_556
Ir2_2 Ir2_7 2.755680 1_455
Ir2_2 Ir2_7 2.755680 1_554
Ir2_2 Ir2_4 2.755680 1_555
Ir2_2 Ir2_4 2.755680 1_465
Ir2_2 Ir3_0 2.797332 1_565
Ir2_2 Ir3_6 2.797332 1_555
Ir2_2 Ir3_3 2.797333 1_555
Ir2_3 Ir2_6 2.755680 1_555
Ir2_3 Ir2_6 2.755680 1_456
Ir2_3 Ir2_5 2.755680 1_465
Ir2_3 Ir2_5 2.755680 1_555
Ir2_3 Ir3_1 2.797332 1_565
Ir2_3 Ir3_7 2.797332 1_555
Ir2_3 Ir3_2 2.797333 1_556
Ir2_4 Ir2_7 2.755680 1_545
Ir2_4 Ir2_7 2.755680 1_554
Ir2_4 Ir3_0 2.797332 1_655
Ir2_4 Ir3_6 2.797332 1_555
Ir2_4 Ir3_5 2.797333 1_555
Ir2_5 Ir2_6 2.755680 1_555
Ir2_5 Ir2_6 2.755680 1_546
Ir2_5 Ir3_1 2.797332 1_655
Ir2_5 Ir3_7 2.797332 1_555
Ir2_5 Ir3_4 2.797333 1_556
Ir2_6 Ir3_4 2.797332 1_565
Ir2_6 Ir3_2 2.797332 1_655
Ir2_6 Ir3_7 2.797333 1_555
Ir2_7 Ir3_3 2.797332 1_655
Ir2_7 Ir3_5 2.797332 1_565
Ir2_7 Ir3_6 2.797333 1_556
Ir3_0 Ir3_3 2.755680 1_554
Ir3_0 Ir3_3 2.755680 1_545
Ir3_0 Ir3_5 2.755680 1_455
Ir3_0 Ir3_5 2.755680 1_554
Ir3_0 Ir3_6 2.755680 1_455
Ir3_0 Ir3_6 2.755680 1_545
Ir3_0 W0_4 2.756369 1_555
Ir3_0 W0_2 2.756369 1_555
Ir3_0 W0_1 2.756369 1_555
Ir3_1 Ir3_4 2.755680 1_555
Ir3_1 Ir3_2 2.755680 1_555
Ir3_1 Ir3_4 2.755680 1_456
Ir3_1 Ir3_2 2.755680 1_546
Ir3_1 Ir3_7 2.755680 1_455
Ir3_1 Ir3_7 2.755680 1_545
Ir3_1 W0_5 2.756369 1_555
Ir3_1 W0_3 2.756369 1_555
Ir3_1 W0_0 2.756369 1_556
Ir3_2 Ir3_7 2.755680 1_554
Ir3_2 Ir3_7 2.755680 1_455
Ir3_2 Ir3_4 2.755680 1_555
Ir3_2 Ir3_4 2.755680 1_465
Ir3_2 W0_6 2.756369 1_555
Ir3_2 W0_0 2.756369 1_565
Ir3_2 W0_3 2.756369 1_555
Ir3_3 Ir3_6 2.755680 1_555
Ir3_3 Ir3_6 2.755680 1_456
Ir3_3 Ir3_5 2.755680 1_555
Ir3_3 Ir3_5 2.755680 1_465
Ir3_3 W0_7 2.756369 1_555
Ir3_3 W0_1 2.756369 1_565
Ir3_3 W0_2 2.756369 1_556
Ir3_4 Ir3_7 2.755680 1_545
Ir3_4 Ir3_7 2.755680 1_554
Ir3_4 W0_6 2.756369 1_555
Ir3_4 W0_0 2.756369 1_655
Ir3_4 W0_5 2.756369 1_555
Ir3_5 Ir3_6 2.755680 1_555
Ir3_5 Ir3_6 2.755680 1_546
Ir3_5 W0_1 2.756369 1_655
Ir3_5 W0_7 2.756369 1_555
Ir3_5 W0_4 2.756369 1_556
Ir3_6 W0_4 2.756369 1_565
Ir3_6 W0_2 2.756369 1_655
Ir3_6 W0_7 2.756369 1_555
Ir3_7 W0_3 2.756369 1_655
Ir3_7 W0_5 2.756369 1_565
Ir3_7 W0_6 2.756369 1_556
W0_0 W0_5 2.755680 1_554
W0_0 W0_3 2.755680 1_545
W0_0 W0_5 2.755680 1_455
W0_0 W0_3 2.755680 1_554
W0_0 W0_6 2.755680 1_545
W0_0 W0_6 2.755680 1_455
W0_1 W0_2 2.755680 1_546
W0_1 W0_4 2.755680 1_555
W0_1 W0_2 2.755680 1_555
W0_1 W0_4 2.755680 1_456
W0_1 W0_7 2.755680 1_545
W0_1 W0_7 2.755680 1_455
W0_2 W0_7 2.755680 1_554
W0_2 W0_7 2.755680 1_455
W0_2 W0_4 2.755680 1_555
W0_2 W0_4 2.755680 1_465
W0_3 W0_6 2.755680 1_456
W0_3 W0_6 2.755680 1_555
W0_3 W0_5 2.755680 1_465
W0_3 W0_5 2.755680 1_555
W0_4 W0_7 2.755680 1_545
W0_4 W0_7 2.755680 1_554
W0_5 W0_6 2.755680 1_546
W0_5 W0_6 2.755680 1_555
