# generated using pymatgen
data_Li2V(OF)2
_symmetry_space_group_name_H-M   'P 1'
_cell_length_a   5.76754790
_cell_length_b   5.91919526
_cell_length_c   8.62636000
_cell_angle_alpha   89.99989361
_cell_angle_beta   90.00024455
_cell_angle_gamma   91.61956136
_symmetry_Int_Tables_number   1
_chemical_formula_structural   Li2V(OF)2
_chemical_formula_sum   'Li8 V4 O8 F8'
_cell_volume   294.37974863
_cell_formula_units_Z   4
loop_
 _symmetry_equiv_pos_site_id
 _symmetry_equiv_pos_as_xyz
  1  'x, y, z'
loop_
 _atom_site_type_symbol
 _atom_site_label
 _atom_site_symmetry_multiplicity
 _atom_site_fract_x
 _atom_site_fract_y
 _atom_site_fract_z
 _atom_site_occupancy
  Li  Li0  1  0.49999900  0.75004300  0.37112600  1
  Li  Li1  1  0.00000100  0.25003400  0.87117800  1
  Li  Li2  1  0.00000300  0.75004100  0.12879600  1
  Li  Li3  1  0.50000200  0.25002600  0.62880900  1
  Li  Li4  1  0.50009200  0.00011300  0.99994400  1
  Li  Li5  1  0.99999500  0.50004800  0.49997500  1
  Li  Li6  1  0.49997200  0.49995400  0.99996500  1
  Li  Li7  1  0.00007700  0.00002500  0.49999600  1
  V  V0  1  0.74994500  0.74983900  0.74996800  1
  V  V1  1  0.24986000  0.75008500  0.75009900  1
  V  V2  1  0.25008400  0.24989100  0.25012100  1
  V  V3  1  0.75005200  0.25001500  0.25018200  1
  O  O0  1  0.01095200  0.03411200  0.25421500  1
  O  O1  1  0.51075500  0.53407800  0.75414900  1
  O  O2  1  0.98900900  0.46582100  0.25421400  1
  O  O3  1  0.48914700  0.96575100  0.75414500  1
  O  O4  1  0.48898900  0.46578900  0.24580400  1
  O  O5  1  0.98920900  0.96588000  0.74575500  1
  O  O6  1  0.51099900  0.03415400  0.24580600  1
  O  O7  1  0.01069900  0.53396700  0.74574300  1
  F  F0  1  0.75886300  0.24536100  0.48351000  1
  F  F1  1  0.25886500  0.74530300  0.98346500  1
  F  F2  1  0.24119800  0.25473300  0.48348800  1
  F  F3  1  0.74116000  0.75475200  0.98342400  1
  F  F4  1  0.25884200  0.24534700  0.01655800  1
  F  F5  1  0.75891300  0.74530600  0.51646800  1
  F  F6  1  0.74120300  0.25474000  0.01658600  1
  F  F7  1  0.24111500  0.75478800  0.51651200  1
loop_
_geom_bond_atom_site_label_1
_geom_bond_atom_site_label_2
_geom_bond_distance
_geom_bond_site_symmetry_2
Li0 O6 1.998703 1_565
Li0 O4 1.999427 1_555
Li1 O7 1.998341 1_555
Li1 O5 1.999391 1_445
Li2 O0 1.998966 1_565
Li2 O2 1.999702 1_455
Li3 O1 1.998495 1_555
Li3 O3 1.999587 1_545
Li4 O3 2.130849 1_545
Li4 O6 2.131205 1_556
Li5 O7 2.130299 1_655
Li5 O2 2.130453 1_555
Li6 O1 2.130837 1_555
Li6 O4 2.131088 1_556
Li7 O5 2.130372 1_445
Li7 O0 2.130530 1_555
O0 V2 1.853434 1_555
O0 V3 2.001851 1_455
O1 V0 1.853620 1_555
O1 V1 2.002237 1_555
O2 V3 1.852799 1_555
O2 V2 2.002742 1_655
O3 V1 1.853627 1_555
O3 V0 2.001455 1_555
O4 V2 1.852994 1_555
O4 V3 2.002125 1_555
O5 V0 1.855042 1_555
O5 V1 2.000372 1_655
O6 V3 1.853476 1_555
O6 V2 2.001313 1_555
O7 V1 1.854940 1_555
O7 V0 2.001111 1_455
F0 Li3 1.950167 1_555
F0 V3 2.013621 1_555
F0 Li5 2.026944 1_555
F0 Li7 2.044201 1_655
F1 Li2 1.950365 1_556
F1 V1 2.013988 1_555
F1 Li4 2.027844 1_565
F1 Li6 2.043833 1_555
F2 Li3 1.950038 1_555
F2 V2 2.013985 1_555
F2 Li7 2.027018 1_555
F2 Li5 2.044068 1_455
F3 Li2 1.950494 1_656
F3 V0 2.014744 1_555
F3 Li6 2.027681 1_555
F3 Li4 2.043741 1_565
F4 Li1 1.950525 1_554
F4 V2 2.015630 1_555
F4 Li6 2.026672 1_554
F4 Li4 2.043984 1_554
F5 Li0 1.950647 1_555
F5 V0 2.015117 1_555
F5 Li7 2.027209 1_665
F5 Li5 2.043336 1_555
F6 Li1 1.950502 1_654
F6 V3 2.015943 1_555
F6 Li4 2.026714 1_554
F6 Li6 2.043824 1_554
F7 Li0 1.950768 1_555
F7 V1 2.015848 1_555
F7 Li5 2.027169 1_455
F7 Li7 2.043080 1_565
