# generated using pymatgen
data_GdCrO3
_symmetry_space_group_name_H-M   'P 1'
_cell_length_a   5.31706381
_cell_length_b   5.54613965
_cell_length_c   7.61618941
_cell_angle_alpha   90.00000000
_cell_angle_beta   90.00000000
_cell_angle_gamma   90.00000000
_symmetry_Int_Tables_number   1
_chemical_formula_structural   GdCrO3
_chemical_formula_sum   'Gd4 Cr4 O12'
_cell_volume   224.59516838
_cell_formula_units_Z   4
loop_
 _symmetry_equiv_pos_site_id
 _symmetry_equiv_pos_as_xyz
  1  'x, y, z'
loop_
 _atom_site_type_symbol
 _atom_site_label
 _atom_site_symmetry_multiplicity
 _atom_site_fract_x
 _atom_site_fract_y
 _atom_site_fract_z
 _atom_site_occupancy
  Gd  Gd0  1  0.01530836  0.93884302  0.75000000  1
  Gd  Gd1  1  0.51530836  0.56115698  0.25000000  1
  Gd  Gd2  1  0.48469164  0.43884302  0.75000000  1
  Gd  Gd3  1  0.98469164  0.06115698  0.25000000  1
  Cr  Cr0  1  -0.00000000  0.50000000  0.50000000  1
  Cr  Cr1  1  0.50000000  0.00000000  0.50000000  1
  Cr  Cr2  1  0.50000000  0.00000000  0.00000000  1
  Cr  Cr3  1  -0.00000000  0.50000000  0.00000000  1
  O  O0  1  0.69775912  0.29892311  0.44923243  1
  O  O1  1  0.19775912  0.20107689  0.55076757  1
  O  O2  1  0.80224088  0.79892311  0.05076757  1
  O  O3  1  0.30224088  0.70107689  0.94923243  1
  O  O4  1  0.30224088  0.70107689  0.55076757  1
  O  O5  1  0.80224088  0.79892311  0.44923243  1
  O  O6  1  0.19775912  0.20107689  0.94923243  1
  O  O7  1  0.69775912  0.29892311  0.05076757  1
  O  O8  1  0.09819724  0.46976512  0.25000000  1
  O  O9  1  0.59819724  0.03023488  0.75000000  1
  O  O10  1  0.40180276  0.96976512  0.25000000  1
  O  O11  1  0.90180276  0.53023488  0.75000000  1
loop_
_geom_bond_atom_site_label_1
_geom_bond_atom_site_label_2
_geom_bond_distance
_geom_bond_site_symmetry_2
Gd0 O9 2.274991 1_465
Gd0 O6 2.314911 1_565
Gd0 O1 2.314911 1_565
Gd0 O11 2.345183 1_455
Gd0 O3 2.523684 1_555
Gd0 O4 2.523684 1_555
Gd0 O5 2.670761 1_455
Gd0 O2 2.670761 1_456
Gd1 O8 2.274991 1_555
Gd1 O7 2.314911 1_555
Gd1 O0 2.314911 1_555
Gd1 O10 2.345183 1_555
Gd1 O2 2.523684 1_555
Gd1 O5 2.523684 1_555
Gd1 O3 2.670761 1_554
Gd1 O4 2.670761 1_555
Gd2 O11 2.274991 1_555
Gd2 O3 2.314911 1_555
Gd2 O4 2.314911 1_555
Gd2 O9 2.345183 1_555
Gd2 O6 2.523684 1_555
Gd2 O1 2.523684 1_555
Gd2 O0 2.670761 1_555
Gd2 O7 2.670761 1_556
Gd3 O10 2.274991 1_645
Gd3 O2 2.314911 1_545
Gd3 O5 2.314911 1_545
Gd3 O8 2.345183 1_655
Gd3 O0 2.523684 1_555
Gd3 O7 2.523684 1_555
Gd3 O1 2.670761 1_655
Gd3 O6 2.670761 1_654
Cr0 O11 1.981445 1_455
Cr0 O8 1.981445 1_555
Cr0 O4 1.993924 1_555
Cr0 O0 1.993924 1_455
Cr0 O1 2.000920 1_555
Cr0 O5 2.000920 1_455
Cr1 O10 1.981445 1_545
Cr1 O9 1.981445 1_555
Cr1 O5 1.993924 1_545
Cr1 O1 1.993924 1_555
Cr1 O0 2.000920 1_555
Cr1 O4 2.000920 1_545
Cr2 O9 1.981445 1_554
Cr2 O10 1.981445 1_545
Cr2 O2 1.993924 1_545
Cr2 O6 1.993924 1_554
Cr2 O7 2.000920 1_555
Cr2 O3 2.000920 1_544
Cr3 O11 1.981445 1_454
Cr3 O8 1.981445 1_555
Cr3 O3 1.993924 1_554
Cr3 O7 1.993924 1_455
Cr3 O6 2.000920 1_554
Cr3 O2 2.000920 1_455
