# generated using pymatgen
data_Nb2FeSe4
_symmetry_space_group_name_H-M   'P 1'
_cell_length_a   7.23334199
_cell_length_b   7.23334199
_cell_length_c   12.49515100
_cell_angle_alpha   90.00000000
_cell_angle_beta   90.00000000
_cell_angle_gamma   119.96734432
_symmetry_Int_Tables_number   1
_chemical_formula_structural   Nb2FeSe4
_chemical_formula_sum   'Nb8 Fe4 Se16'
_cell_volume   566.36049511
_cell_formula_units_Z   4
loop_
 _symmetry_equiv_pos_site_id
 _symmetry_equiv_pos_as_xyz
  1  'x, y, z'
loop_
 _atom_site_type_symbol
 _atom_site_label
 _atom_site_symmetry_multiplicity
 _atom_site_fract_x
 _atom_site_fract_y
 _atom_site_fract_z
 _atom_site_occupancy
  Nb  Nb0  1  0.99951400  0.00048600  0.25000000  1
  Nb  Nb1  1  0.00048600  0.99951400  0.75000000  1
  Nb  Nb2  1  0.47423300  0.94859100  0.25000000  1
  Nb  Nb3  1  0.47426400  0.52573600  0.25000000  1
  Nb  Nb4  1  0.05140900  0.52576700  0.25000000  1
  Nb  Nb5  1  0.52576700  0.05140900  0.75000000  1
  Nb  Nb6  1  0.52573600  0.47426400  0.75000000  1
  Nb  Nb7  1  0.94859100  0.47423300  0.75000000  1
  Fe  Fe0  1  0.00000000  0.00000000  0.00000000  1
  Fe  Fe1  1  0.00000000  0.00000000  0.50000000  1
  Fe  Fe2  1  0.66645400  0.33354600  0.25000000  1
  Fe  Fe3  1  0.33354600  0.66645400  0.75000000  1
  Se  Se0  1  0.83180200  0.66317000  0.12221100  1
  Se  Se1  1  0.83085500  0.16914500  0.12227000  1
  Se  Se2  1  0.33683000  0.16819800  0.12221100  1
  Se  Se3  1  0.16819800  0.33683000  0.87778900  1
  Se  Se4  1  0.16914500  0.83085500  0.87773000  1
  Se  Se5  1  0.66317000  0.83180200  0.87778900  1
  Se  Se6  1  0.16819800  0.33683000  0.62221100  1
  Se  Se7  1  0.16914500  0.83085500  0.62227000  1
  Se  Se8  1  0.66317000  0.83180200  0.62221100  1
  Se  Se9  1  0.83180200  0.66317000  0.37778900  1
  Se  Se10  1  0.83085500  0.16914500  0.37773000  1
  Se  Se11  1  0.33683000  0.16819800  0.37778900  1
  Se  Se12  1  0.66660800  0.33339200  0.60027000  1
  Se  Se13  1  0.33339200  0.66660800  0.39973000  1
  Se  Se14  1  0.33339200  0.66660800  0.10027000  1
  Se  Se15  1  0.66660800  0.33339200  0.89973000  1
loop_
_geom_bond_atom_site_label_1
_geom_bond_atom_site_label_2
_geom_bond_distance
_geom_bond_site_symmetry_2
Nb0 Se1 2.647779 1_555
Nb0 Se10 2.647779 1_555
Nb0 Se11 2.649051 1_655
Nb0 Se9 2.649051 1_545
Nb0 Se2 2.649051 1_655
Nb0 Se0 2.649051 1_545
Nb1 Se7 2.647779 1_555
Nb1 Se4 2.647779 1_555
Nb1 Se5 2.649051 1_455
Nb1 Se6 2.649051 1_565
Nb1 Se3 2.649051 1_565
Nb1 Se8 2.649051 1_455
Nb2 Se13 2.573429 1_555
Nb2 Se14 2.573429 1_555
Nb2 Se1 2.763204 1_565
Nb2 Se10 2.763204 1_565
Nb2 Se2 2.763678 1_565
Nb2 Se11 2.763678 1_565
Nb3 Se13 2.571803 1_555
Nb3 Se14 2.571803 1_555
Nb3 Se2 2.767277 1_555
Nb3 Se9 2.767277 1_555
Nb3 Se0 2.767277 1_555
Nb3 Se11 2.767277 1_555
Nb4 Se13 2.573429 1_555
Nb4 Se14 2.573429 1_555
Nb4 Se1 2.763204 1_455
Nb4 Se10 2.763204 1_455
Nb4 Se0 2.763678 1_455
Nb4 Se9 2.763678 1_455
Nb5 Se12 2.573429 1_555
Nb5 Se15 2.573429 1_555
Nb5 Se7 2.763204 1_545
Nb5 Se4 2.763204 1_545
Nb5 Se8 2.763678 1_545
Nb5 Se5 2.763678 1_545
Nb6 Se12 2.571803 1_555
Nb6 Se15 2.571803 1_555
Nb6 Se5 2.767277 1_555
Nb6 Se8 2.767277 1_555
Nb6 Se6 2.767277 1_555
Nb6 Se3 2.767277 1_555
Nb7 Se12 2.573429 1_555
Nb7 Se15 2.573429 1_555
Nb7 Se7 2.763204 1_655
Nb7 Se4 2.763204 1_655
Nb7 Se6 2.763678 1_655
Nb7 Se3 2.763678 1_655
Fe0 Se0 2.605159 1_445
Fe0 Se5 2.605159 1_444
Fe0 Se3 2.605159 1_554
Fe0 Se2 2.605159 1_555
Fe0 Se1 2.612159 1_455
Fe0 Se4 2.612159 1_544
Fe1 Se8 2.605159 1_445
Fe1 Se6 2.605159 1_555
Fe1 Se9 2.605159 1_445
Fe1 Se11 2.605159 1_555
Fe1 Se10 2.612159 1_455
Fe1 Se7 2.612159 1_545
Fe2 Nb3 2.407459 1_555
Fe2 Nb4 2.412251 1_655
Fe2 Nb2 2.412251 1_545
Fe2 Se1 2.605418 1_555
Fe2 Se10 2.605418 1_555
Fe2 Se0 2.610751 1_555
Fe2 Se9 2.610751 1_555
Fe2 Se2 2.610751 1_555
Fe2 Se11 2.610751 1_555
Fe3 Nb6 2.407459 1_555
Fe3 Nb5 2.412251 1_565
Fe3 Nb7 2.412251 1_455
Fe3 Se7 2.605418 1_555
Fe3 Se4 2.605418 1_555
Fe3 Se6 2.610751 1_555
Fe3 Se3 2.610751 1_555
Fe3 Se8 2.610751 1_555
Fe3 Se5 2.610751 1_555
