# generated using pymatgen
data_CaAcMg2
_symmetry_space_group_name_H-M   'P 1'
_cell_length_a   5.74134142
_cell_length_b   5.74134142
_cell_length_c   5.74134142
_cell_angle_alpha   60.00000000
_cell_angle_beta   60.00000000
_cell_angle_gamma   60.00000000
_symmetry_Int_Tables_number   1
_chemical_formula_structural   CaAcMg2
_chemical_formula_sum   'Ca1 Ac1 Mg2'
_cell_volume   133.82126262
_cell_formula_units_Z   1
loop_
 _symmetry_equiv_pos_site_id
 _symmetry_equiv_pos_as_xyz
  1  'x, y, z'
loop_
 _atom_site_type_symbol
 _atom_site_label
 _atom_site_symmetry_multiplicity
 _atom_site_fract_x
 _atom_site_fract_y
 _atom_site_fract_z
 _atom_site_occupancy
  Ca  Ca0  1  -0.00000000  0.00000000  0.00000000  1
  Ac  Ac0  1  0.50000000  0.50000000  0.50000000  1
  Mg  Mg0  1  0.75000000  0.75000000  0.75000000  1
  Mg  Mg1  1  0.25000000  0.25000000  0.25000000  1
loop_
_geom_bond_atom_site_label_1
_geom_bond_atom_site_label_2
_geom_bond_distance
_geom_bond_site_symmetry_2
Ca0 Mg0 3.515839 1_544
Ca0 Mg1 3.515839 1_455
Ca0 Mg1 3.515839 1_545
Ca0 Mg0 3.515839 1_454
Ca0 Mg1 3.515839 1_555
Ca0 Mg0 3.515839 1_444
Ca0 Mg1 3.515839 1_554
Ca0 Mg0 3.515839 1_445
Ac0 Mg0 3.515839 1_455
Ac0 Mg1 3.515839 1_655
Ac0 Mg1 3.515839 1_565
Ac0 Mg0 3.515839 1_545
Ac0 Mg0 3.515839 1_554
Ac0 Mg1 3.515839 1_555
Ac0 Mg0 3.515839 1_555
Ac0 Mg1 3.515839 1_556
