# generated using pymatgen
data_Rb2PuO4
_symmetry_space_group_name_H-M   'P 1'
_cell_length_a   7.55826092
_cell_length_b   7.55829575
_cell_length_c   7.55829575
_cell_angle_alpha   146.78865194
_cell_angle_beta   146.72212563
_cell_angle_gamma   47.72618619
_symmetry_Int_Tables_number   1
_chemical_formula_structural   Rb2PuO4
_chemical_formula_sum   'Rb2 Pu1 O4'
_cell_volume   129.25236446
_cell_formula_units_Z   1
loop_
 _symmetry_equiv_pos_site_id
 _symmetry_equiv_pos_as_xyz
  1  'x, y, z'
loop_
 _atom_site_type_symbol
 _atom_site_label
 _atom_site_symmetry_multiplicity
 _atom_site_fract_x
 _atom_site_fract_y
 _atom_site_fract_z
 _atom_site_occupancy
  Rb  Rb0  1  0.34862329  0.34862324  0.00000006  1
  Rb  Rb1  1  0.65137671  0.65137676  -0.00000006  1
  Pu  Pu0  1  -0.00000000  -0.00000000  0.00000000  1
  O  O0  1  0.13737769  0.13737890  -0.00000121  1
  O  O1  1  0.86262231  0.86262110  0.00000121  1
  O  O2  1  0.50000000  -0.00000000  0.50000000  1
  O  O3  1  -0.00000000  0.50000000  0.50000000  1
loop_
_geom_bond_atom_site_label_1
_geom_bond_atom_site_label_2
_geom_bond_distance
_geom_bond_site_symmetry_2
O0 Pu0 1.899169 1_555
O0 Rb0 2.920308 1_555
O0 Rb1 3.063836 1_455
O0 Rb1 3.063836 1_444
O0 Rb1 3.063841 1_556
O0 Rb1 3.063841 1_545
O1 Pu0 1.899169 1_665
O1 Rb1 2.920308 1_555
O1 Rb0 3.063836 1_655
O1 Rb0 3.063836 1_666
O1 Rb0 3.063841 1_554
O1 Rb0 3.063841 1_565
O2 Pu0 2.164234 1_555
O2 Pu0 2.164234 1_656
O2 Rb1 3.007500 1_556
O2 Rb0 3.007500 1_545
O2 Rb1 3.007500 1_545
O2 Rb0 3.007500 1_556
O3 Pu0 2.160034 1_555
O3 Pu0 2.160034 1_566
O3 Rb1 3.010505 1_556
O3 Rb0 3.010505 1_455
O3 Rb1 3.010531 1_455
O3 Rb0 3.010531 1_556
