# generated using pymatgen
data_BaCaCeNbO6
_symmetry_space_group_name_H-M   'P 1'
_cell_length_a   8.45241302
_cell_length_b   8.50880458
_cell_length_c   8.46291356
_cell_angle_alpha   90.00000000
_cell_angle_beta   90.00000000
_cell_angle_gamma   90.00000000
_symmetry_Int_Tables_number   1
_chemical_formula_structural   BaCaCeNbO6
_chemical_formula_sum   'Ba4 Ca4 Ce4 Nb4 O24'
_cell_volume   608.65215605
_cell_formula_units_Z   4
loop_
 _symmetry_equiv_pos_site_id
 _symmetry_equiv_pos_as_xyz
  1  'x, y, z'
loop_
 _atom_site_type_symbol
 _atom_site_label
 _atom_site_symmetry_multiplicity
 _atom_site_fract_x
 _atom_site_fract_y
 _atom_site_fract_z
 _atom_site_occupancy
  Ba  Ba0  1  -0.00000000  -0.00000000  0.00000000  1
  Ba  Ba1  1  0.50000000  0.50000000  0.50000000  1
  Ba  Ba2  1  0.50000000  -0.00000000  0.50000000  1
  Ba  Ba3  1  -0.00000000  -0.00000000  0.50000000  1
  Ca  Ca0  1  -0.00000000  0.50000000  0.50000000  1
  Ca  Ca1  1  0.50000000  0.50000000  0.00000000  1
  Ca  Ca2  1  0.50000000  -0.00000000  0.00000000  1
  Ca  Ca3  1  -0.00000000  0.50000000  0.00000000  1
  Ce  Ce0  1  0.74895974  0.74534138  0.75523209  1
  Ce  Ce1  1  0.25104026  0.25465862  0.75523209  1
  Ce  Ce2  1  0.25104026  0.74534138  0.24476791  1
  Ce  Ce3  1  0.74895974  0.25465862  0.24476791  1
  Nb  Nb0  1  0.24796051  0.25699222  0.24552229  1
  Nb  Nb1  1  0.75203949  0.74300778  0.24552229  1
  Nb  Nb2  1  0.75203949  0.25699222  0.75447771  1
  Nb  Nb3  1  0.24796051  0.74300778  0.75447771  1
  O  O0  1  0.01481698  0.21237608  0.27199155  1
  O  O1  1  0.98518302  0.78762392  0.27199155  1
  O  O2  1  0.98518302  0.21237608  0.72800845  1
  O  O3  1  0.01481698  0.78762392  0.72800845  1
  O  O4  1  0.29383383  0.02048437  0.19984436  1
  O  O5  1  0.29383383  0.97951563  0.80015564  1
  O  O6  1  0.70616617  0.97951563  0.19984436  1
  O  O7  1  0.70616617  0.02048437  0.80015564  1
  O  O8  1  0.20031766  0.30368577  0.01450413  1
  O  O9  1  0.79968234  0.30368577  0.98549587  1
  O  O10  1  0.20031766  0.69631423  0.98549587  1
  O  O11  1  0.79968234  0.69631423  0.01450413  1
  O  O12  1  0.48214726  0.30528733  0.20296708  1
  O  O13  1  0.51785274  0.69471267  0.20296708  1
  O  O14  1  0.51785274  0.30528733  0.79703292  1
  O  O15  1  0.48214726  0.69471267  0.79703292  1
  O  O16  1  0.20423521  0.48683445  0.30023163  1
  O  O17  1  0.20423521  0.51316555  0.69976837  1
  O  O18  1  0.79576479  0.51316555  0.30023163  1
  O  O19  1  0.79576479  0.48683445  0.69976837  1
  O  O20  1  0.28221528  0.22331142  0.48147135  1
  O  O21  1  0.71778472  0.22331142  0.51852865  1
  O  O22  1  0.28221528  0.77668858  0.51852865  1
  O  O23  1  0.71778472  0.77668858  0.48147135  1
loop_
_geom_bond_atom_site_label_1
_geom_bond_atom_site_label_2
_geom_bond_distance
_geom_bond_site_symmetry_2
Ba0 O2 2.929103 1_454
Ba0 O3 2.929103 1_544
Ba0 O1 2.929103 1_445
Ba0 O0 2.929103 1_555
Ba0 O6 3.009826 1_445
Ba0 O4 3.009826 1_555
Ba0 O5 3.009826 1_544
Ba0 O7 3.009826 1_454
Ba0 O11 3.091756 1_445
Ba0 O10 3.091756 1_544
Ba0 O8 3.091756 1_555
Ba0 O9 3.091756 1_454
Ba1 O22 2.992630 1_555
Ba1 O20 2.992630 1_555
Ba1 O23 2.992630 1_555
Ba1 O21 2.992630 1_555
Ba1 O15 3.014411 1_555
Ba1 O14 3.014411 1_555
Ba1 O12 3.014411 1_555
Ba1 O13 3.014411 1_555
Ba1 O18 3.019997 1_555
Ba1 O19 3.019997 1_555
Ba1 O16 3.019997 1_555
Ba1 O17 3.019997 1_555
Ba2 O20 2.650205 1_555
Ba2 O22 2.650205 1_545
Ba2 O21 2.650205 1_555
Ba2 O23 2.650205 1_545
Ba2 O4 3.085387 1_555
Ba2 O6 3.085387 1_545
Ba2 O5 3.085387 1_545
Ba2 O7 3.085387 1_555
Ba3 O1 2.646619 1_445
Ba3 O3 2.646619 1_545
Ba3 O0 2.646619 1_555
Ba3 O2 2.646619 1_455
Ba3 O21 3.053711 1_455
Ba3 O23 3.053711 1_445
Ba3 O20 3.053711 1_555
Ba3 O22 3.053711 1_545
Ca0 O16 2.418842 1_555
Ca0 O18 2.418842 1_455
Ca0 O17 2.418842 1_555
Ca0 O19 2.418842 1_455
Ca1 O12 2.391262 1_555
Ca1 O14 2.391262 1_554
Ca1 O13 2.391262 1_555
Ca1 O15 2.391262 1_554
Ca2 O4 2.434629 1_555
Ca2 O7 2.434629 1_554
Ca2 O5 2.434629 1_544
Ca2 O6 2.434629 1_545
Ca3 O9 2.381621 1_454
Ca3 O11 2.381621 1_455
Ca3 O8 2.381621 1_555
Ca3 O10 2.381621 1_554
Ce0 O11 2.274276 1_556
Ce0 O19 2.283639 1_555
Ce0 O3 2.287386 1_655
Ce0 O15 2.323078 1_555
Ce0 O23 2.346956 1_555
Ce0 O7 2.399229 1_565
Ce1 O8 2.274276 1_556
Ce1 O17 2.283639 1_555
Ce1 O2 2.287386 1_455
Ce1 O14 2.323078 1_555
Ce1 O20 2.346956 1_555
Ce1 O5 2.399229 1_545
Ce2 O10 2.274276 1_554
Ce2 O16 2.283639 1_555
Ce2 O1 2.287386 1_455
Ce2 O13 2.323078 1_555
Ce2 O22 2.346956 1_555
Ce2 O4 2.399229 1_565
Ce3 O9 2.274276 1_554
Ce3 O18 2.283639 1_555
Ce3 O0 2.287386 1_655
Ce3 O12 2.323078 1_555
Ce3 O21 2.346956 1_555
Ce3 O6 2.399229 1_545
Nb0 O0 2.019322 1_555
Nb0 O8 2.035284 1_555
Nb0 O20 2.037949 1_555
Nb0 O16 2.043442 1_555
Nb0 O12 2.053476 1_555
Nb0 O4 2.085552 1_555
Nb1 O1 2.019322 1_555
Nb1 O11 2.035284 1_555
Nb1 O23 2.037949 1_555
Nb1 O18 2.043442 1_555
Nb1 O13 2.053476 1_555
Nb1 O6 2.085552 1_555
Nb2 O2 2.019322 1_555
Nb2 O9 2.035284 1_555
Nb2 O21 2.037949 1_555
Nb2 O19 2.043442 1_555
Nb2 O14 2.053476 1_555
Nb2 O7 2.085552 1_555
Nb3 O3 2.019322 1_555
Nb3 O10 2.035284 1_555
Nb3 O22 2.037949 1_555
Nb3 O17 2.043442 1_555
Nb3 O15 2.053476 1_555
Nb3 O5 2.085552 1_555
