# generated using pymatgen
data_TiAgSe2
_symmetry_space_group_name_H-M   'P 1'
_cell_length_a   7.67661343
_cell_length_b   7.67661343
_cell_length_c   7.67661352
_cell_angle_alpha   27.82634162
_cell_angle_beta   27.82634162
_cell_angle_gamma   27.82634551
_symmetry_Int_Tables_number   1
_chemical_formula_structural   TiAgSe2
_chemical_formula_sum   'Ti1 Ag1 Se2'
_cell_volume   87.04291084
_cell_formula_units_Z   1
loop_
 _symmetry_equiv_pos_site_id
 _symmetry_equiv_pos_as_xyz
  1  'x, y, z'
loop_
 _atom_site_type_symbol
 _atom_site_label
 _atom_site_symmetry_multiplicity
 _atom_site_fract_x
 _atom_site_fract_y
 _atom_site_fract_z
 _atom_site_occupancy
  Ti  Ti0  1  0.00036200  0.00036200  0.00036200  1
  Ag  Ag0  1  0.15111600  0.15111600  0.15111600  1
  Se  Se0  1  0.26639500  0.26639500  0.26639500  1
  Se  Se1  1  0.73682700  0.73682700  0.73682700  1
loop_
_geom_bond_atom_site_label_1
_geom_bond_atom_site_label_2
_geom_bond_distance
_geom_bond_site_symmetry_2
Ag0 Se0 2.550475 1_555
Ag0 Se1 2.784044 1_445
Ag0 Se1 2.784044 1_454
Ag0 Se1 2.784044 1_544
Se0 Ti0 2.599988 1_556
Se0 Ti0 2.599989 1_565
Se0 Ti0 2.599989 1_655
Se1 Ti0 2.632029 1_665
Se1 Ti0 2.632029 1_566
Se1 Ti0 2.632029 1_656
