# generated using pymatgen
data_Mg14TiCd
_symmetry_space_group_name_H-M   'P 1'
_cell_length_a   6.35028787
_cell_length_b   6.32969958
_cell_length_c   10.14563730
_cell_angle_alpha   90.00000000
_cell_angle_beta   90.00000000
_cell_angle_gamma   119.89281521
_symmetry_Int_Tables_number   1
_chemical_formula_structural   Mg14TiCd
_chemical_formula_sum   'Mg14 Ti1 Cd1'
_cell_volume   353.55300235
_cell_formula_units_Z   1
loop_
 _symmetry_equiv_pos_site_id
 _symmetry_equiv_pos_as_xyz
  1  'x, y, z'
loop_
 _atom_site_type_symbol
 _atom_site_label
 _atom_site_symmetry_multiplicity
 _atom_site_fract_x
 _atom_site_fract_y
 _atom_site_fract_z
 _atom_site_occupancy
  Mg  Mg0  1  0.16706619  0.33353260  0.62500000  1
  Mg  Mg1  1  0.16690062  0.83344981  0.62500000  1
  Mg  Mg2  1  0.66558377  0.32941810  0.12500000  1
  Mg  Mg3  1  0.66633920  0.33329963  0.62500000  1
  Mg  Mg4  1  0.66558377  0.83616467  0.12500000  1
  Mg  Mg5  1  0.66633920  0.83303857  0.62500000  1
  Mg  Mg6  1  0.33091268  0.16907502  0.37108079  1
  Mg  Mg7  1  0.33091268  0.16907502  0.87891921  1
  Mg  Mg8  1  0.33091268  0.66183866  0.37108079  1
  Mg  Mg9  1  0.33091268  0.66183866  0.87891921  1
  Mg  Mg10  1  0.83840633  0.16920366  0.37280348  1
  Mg  Mg11  1  0.83840633  0.16920366  0.87719652  1
  Mg  Mg12  1  0.83364102  0.66682101  0.37307118  1
  Mg  Mg13  1  0.83364102  0.66682101  0.87692882  1
  Ti  Ti0  1  0.16408038  0.33203969  0.12500000  1
  Cd  Cd0  1  0.17036147  0.83518024  0.12500000  1
loop_
_geom_bond_atom_site_label_1
_geom_bond_atom_site_label_2
_geom_bond_distance
_geom_bond_site_symmetry_2
Mg0 Mg10 3.133833 1_455
Mg0 Mg11 3.133833 1_455
Mg0 Mg6 3.143636 1_555
Mg0 Mg7 3.143636 1_555
Mg0 Mg8 3.143642 1_555
Mg0 Mg9 3.143642 1_555
Mg0 Mg1 3.164850 1_555
Mg0 Mg1 3.164850 1_545
Mg0 Mg5 3.171262 1_555
Mg0 Mg3 3.171263 1_555
Mg0 Mg5 3.179026 1_445
Mg0 Mg3 3.179026 1_455
Mg1 Mg12 3.146315 1_455
Mg1 Mg13 3.146315 1_455
Mg1 Mg8 3.166868 1_555
Mg1 Mg9 3.166868 1_555
Mg1 Mg6 3.166874 1_565
Mg1 Mg7 3.166874 1_565
Mg1 Mg3 3.172877 1_565
Mg1 Mg5 3.172877 1_555
Mg1 Mg3 3.177412 1_455
Mg1 Mg5 3.177413 1_455
Mg2 Mg7 3.103233 1_554
Mg2 Mg6 3.103233 1_555
Mg2 Mg4 3.122146 1_545
Mg2 Ti0 3.157360 1_655
Mg2 Ti0 3.192993 1_555
Mg2 Mg4 3.207554 1_555
Mg3 Mg5 3.163197 1_555
Mg3 Mg5 3.166502 1_545
Mg3 Mg6 3.169755 1_555
Mg3 Mg7 3.169755 1_555
Mg4 Mg9 3.103232 1_554
Mg4 Mg8 3.103232 1_555
Mg4 Ti0 3.157359 1_665
Mg4 Ti0 3.192993 1_555
Mg5 Mg8 3.169754 1_555
Mg5 Mg9 3.169754 1_555
Mg6 Ti0 3.083659 1_555
Mg6 Mg8 3.119046 1_555
Mg6 Mg8 3.210654 1_545
Mg7 Ti0 3.083659 1_556
Mg7 Mg9 3.119046 1_555
Mg7 Mg9 3.210654 1_545
Mg8 Ti0 3.083665 1_555
Mg9 Ti0 3.083665 1_556
Mg10 Ti0 3.087976 1_655
Mg10 Mg2 3.108542 1_555
Mg10 Mg4 3.108548 1_545
Mg10 Mg8 3.128012 1_655
Mg10 Mg6 3.128012 1_655
Mg10 Mg3 3.154516 1_555
Mg10 Mg5 3.154522 1_545
Mg10 Mg12 3.164960 1_545
Mg10 Mg12 3.164960 1_555
Mg10 Mg8 3.222372 1_545
Mg10 Mg6 3.222372 1_555
Mg11 Ti0 3.087976 1_656
Mg11 Mg2 3.108542 1_556
Mg11 Mg4 3.108548 1_546
Mg11 Mg9 3.128012 1_655
Mg11 Mg7 3.128012 1_655
Mg11 Mg3 3.154516 1_555
Mg11 Mg5 3.154522 1_545
Mg11 Mg13 3.164960 1_545
Mg11 Mg13 3.164960 1_555
Mg11 Mg9 3.222372 1_545
Mg11 Mg7 3.222372 1_555
Mg12 Mg4 3.124518 1_555
Mg12 Mg2 3.124525 1_555
Mg12 Mg5 3.143697 1_555
Mg12 Mg3 3.143703 1_555
Mg12 Mg6 3.173717 1_665
Mg12 Mg8 3.173717 1_655
Mg12 Mg6 3.176934 1_555
Mg12 Mg8 3.176934 1_555
Mg13 Mg4 3.124518 1_556
Mg13 Mg2 3.124525 1_556
Mg13 Mg5 3.143697 1_555
Mg13 Mg3 3.143703 1_555
Mg13 Mg7 3.173717 1_665
Mg13 Mg9 3.173717 1_655
Mg13 Mg7 3.176934 1_555
Mg13 Mg9 3.176934 1_555
Cd0 Mg9 3.097029 1_554
Cd0 Mg8 3.097029 1_555
Cd0 Mg7 3.097035 1_564
Cd0 Mg6 3.097035 1_565
Cd0 Mg13 3.125866 1_454
Cd0 Mg12 3.125866 1_455
Cd0 Mg2 3.141703 1_565
Cd0 Mg4 3.141703 1_555
Cd0 Ti0 3.165039 1_565
Cd0 Ti0 3.165039 1_555
Cd0 Mg2 3.208594 1_455
Cd0 Mg4 3.208594 1_455
