# generated using pymatgen
data_Mg14MnMo
_symmetry_space_group_name_H-M   'P 1'
_cell_length_a   6.28324134
_cell_length_b   6.19081115
_cell_length_c   9.96716147
_cell_angle_alpha   90.00000000
_cell_angle_beta   90.00000000
_cell_angle_gamma   119.51456420
_symmetry_Int_Tables_number   1
_chemical_formula_structural   Mg14MnMo
_chemical_formula_sum   'Mg14 Mn1 Mo1'
_cell_volume   337.39379441
_cell_formula_units_Z   1
loop_
 _symmetry_equiv_pos_site_id
 _symmetry_equiv_pos_as_xyz
  1  'x, y, z'
loop_
 _atom_site_type_symbol
 _atom_site_label
 _atom_site_symmetry_multiplicity
 _atom_site_fract_x
 _atom_site_fract_y
 _atom_site_fract_z
 _atom_site_occupancy
  Mg  Mg0  1  0.16830363  0.33415131  0.62500000  1
  Mg  Mg1  1  0.16742561  0.83371230  0.62500000  1
  Mg  Mg2  1  0.66578564  0.33363190  0.12500000  1
  Mg  Mg3  1  0.66469422  0.33278901  0.62500000  1
  Mg  Mg4  1  0.66578564  0.83215274  0.12500000  1
  Mg  Mg5  1  0.66469422  0.83190422  0.62500000  1
  Mg  Mg6  1  0.32553533  0.15971344  0.36232244  1
  Mg  Mg7  1  0.32553533  0.15971344  0.88767756  1
  Mg  Mg8  1  0.32553533  0.66582290  0.36232244  1
  Mg  Mg9  1  0.32553533  0.66582290  0.88767756  1
  Mg  Mg10  1  0.84216646  0.17108373  0.37042178  1
  Mg  Mg11  1  0.84216646  0.17108373  0.87957822  1
  Mg  Mg12  1  0.84531126  0.67265613  0.36778410  1
  Mg  Mg13  1  0.84531126  0.67265613  0.88221590  1
  Mn  Mn0  1  0.16809212  0.33404556  0.12500000  1
  Mo  Mo0  1  0.15812216  0.82906058  0.12500000  1
loop_
_geom_bond_atom_site_label_1
_geom_bond_atom_site_label_2
_geom_bond_distance
_geom_bond_site_symmetry_2
Mg0 Mg1 3.095409 1_545
Mg0 Mg1 3.095409 1_555
Mg0 Mg11 3.101384 1_455
Mg0 Mg10 3.101384 1_455
Mg0 Mg5 3.123105 1_555
Mg0 Mg3 3.123105 1_555
Mg0 Mg5 3.160153 1_445
Mg0 Mg3 3.160153 1_455
Mg0 Mg6 3.169872 1_555
Mg0 Mg7 3.169872 1_555
Mg0 Mg9 3.169878 1_555
Mg0 Mg8 3.169878 1_555
Mg1 Mg12 3.110422 1_455
Mg1 Mg13 3.110422 1_455
Mg1 Mg3 3.129988 1_565
Mg1 Mg5 3.129988 1_555
Mg1 Mg9 3.152664 1_555
Mg1 Mg8 3.152664 1_555
Mg1 Mg6 3.152670 1_565
Mg1 Mg7 3.152670 1_565
Mg1 Mg3 3.153283 1_455
Mg1 Mg5 3.153283 1_455
Mg2 Mg7 3.009496 1_554
Mg2 Mg6 3.009496 1_555
Mg2 Mg4 3.086248 1_555
Mg2 Mo0 3.102944 1_655
Mg2 Mg4 3.104563 1_545
Mg2 Mn0 3.128391 1_555
Mg2 Mn0 3.154852 1_655
Mg2 Mo0 3.180385 1_545
Mg3 Mg5 3.089928 1_555
Mg3 Mg5 3.100883 1_545
Mg3 Mg6 3.208467 1_555
Mg3 Mg7 3.208467 1_555
Mg4 Mg9 3.009496 1_554
Mg4 Mg8 3.009496 1_555
Mg4 Mo0 3.102945 1_655
Mg4 Mn0 3.128391 1_555
Mg4 Mn0 3.154852 1_665
Mg4 Mo0 3.180385 1_555
Mg5 Mg8 3.208467 1_555
Mg5 Mg9 3.208467 1_555
Mg6 Mo0 2.961491 1_545
Mg6 Mn0 2.964901 1_555
Mg6 Mg8 3.057583 1_545
Mg6 Mg8 3.133228 1_555
Mg7 Mo0 2.961491 1_546
Mg7 Mn0 2.964901 1_556
Mg7 Mg9 3.057583 1_545
Mg7 Mg9 3.133228 1_555
Mg8 Mo0 2.961485 1_555
Mg8 Mn0 2.964907 1_555
Mg9 Mo0 2.961485 1_556
Mg9 Mn0 2.964907 1_556
Mg10 Mn0 3.026489 1_655
Mg10 Mg2 3.053419 1_555
Mg10 Mg4 3.053426 1_545
Mg10 Mg8 3.073472 1_655
Mg10 Mg6 3.073472 1_655
Mg10 Mg12 3.095565 1_555
Mg10 Mg12 3.095565 1_545
Mg10 Mg3 3.127943 1_555
Mg10 Mg5 3.127949 1_545
Mg10 Mg8 3.213038 1_545
Mg10 Mg6 3.213039 1_555
Mg11 Mn0 3.026489 1_656
Mg11 Mg2 3.053419 1_556
Mg11 Mg4 3.053426 1_546
Mg11 Mg9 3.073472 1_655
Mg11 Mg7 3.073472 1_655
Mg11 Mg13 3.095565 1_555
Mg11 Mg13 3.095565 1_545
Mg11 Mg3 3.127943 1_555
Mg11 Mg5 3.127949 1_545
Mg11 Mg9 3.213038 1_545
Mg11 Mg7 3.213039 1_555
Mg12 Mo0 2.963319 1_655
Mg12 Mg4 3.033242 1_555
Mg12 Mg2 3.033248 1_555
Mg12 Mg6 3.038915 1_665
Mg12 Mg8 3.038915 1_655
Mg12 Mg5 3.151960 1_555
Mg12 Mg3 3.151966 1_555
Mg12 Mg6 3.245702 1_555
Mg12 Mg8 3.245703 1_555
Mg13 Mo0 2.963319 1_656
Mg13 Mg4 3.033242 1_556
Mg13 Mg2 3.033248 1_556
Mg13 Mg7 3.038915 1_665
Mg13 Mg9 3.038915 1_655
Mg13 Mg5 3.151960 1_555
Mg13 Mg3 3.151966 1_555
Mg13 Mg7 3.245702 1_555
Mg13 Mg9 3.245703 1_555
Mn0 Mo0 3.095886 1_545
Mn0 Mo0 3.095886 1_555
