# generated using pymatgen
data_VAg(IO4)2
_symmetry_space_group_name_H-M   'P 1'
_cell_length_a   10.90238713
_cell_length_b   14.15331730
_cell_length_c   18.42820510
_cell_angle_alpha   90.00000000
_cell_angle_beta   90.00000000
_cell_angle_gamma   90.00000000
_symmetry_Int_Tables_number   1
_chemical_formula_structural   VAg(IO4)2
_chemical_formula_sum   'V16 Ag16 I32 O128'
_cell_volume   2843.56316295
_cell_formula_units_Z   16
loop_
 _symmetry_equiv_pos_site_id
 _symmetry_equiv_pos_as_xyz
  1  'x, y, z'
loop_
 _atom_site_type_symbol
 _atom_site_label
 _atom_site_symmetry_multiplicity
 _atom_site_fract_x
 _atom_site_fract_y
 _atom_site_fract_z
 _atom_site_occupancy
  V  V0  1  0.73188013  0.75872964  0.39142898  1
  V  V1  1  0.76811987  0.75872964  0.10857102  1
  V  V2  1  0.26811987  0.74127036  0.89142898  1
  V  V3  1  0.23188013  0.74127036  0.60857102  1
  V  V4  1  0.26811987  0.24127036  0.60857102  1
  V  V5  1  0.23188013  0.24127036  0.89142898  1
  V  V6  1  0.73188013  0.25872964  0.10857102  1
  V  V7  1  0.76811987  0.25872964  0.39142898  1
  V  V8  1  0.73625450  0.00254558  0.38955389  1
  V  V9  1  0.76374550  0.00254558  0.11044611  1
  V  V10  1  0.26374550  0.49745442  0.88955389  1
  V  V11  1  0.23625450  0.49745442  0.61044611  1
  V  V12  1  0.26374550  0.99745442  0.61044611  1
  V  V13  1  0.23625450  0.99745442  0.88955389  1
  V  V14  1  0.73625450  0.50254558  0.11044611  1
  V  V15  1  0.76374550  0.50254558  0.38955389  1
  Ag  Ag0  1  0.25433655  0.51229028  0.36638810  1
  Ag  Ag1  1  0.24566345  0.51229028  0.13361190  1
  Ag  Ag2  1  0.74566345  0.98770972  0.86638810  1
  Ag  Ag3  1  0.75433655  0.98770972  0.63361190  1
  Ag  Ag4  1  0.74566345  0.48770972  0.63361190  1
  Ag  Ag5  1  0.75433655  0.48770972  0.86638810  1
  Ag  Ag6  1  0.25433655  0.01229028  0.13361190  1
  Ag  Ag7  1  0.24566345  0.01229028  0.36638810  1
  Ag  Ag8  1  0.26303562  0.74229049  0.35991422  1
  Ag  Ag9  1  0.23696438  0.74229049  0.14008578  1
  Ag  Ag10  1  0.73696438  0.75770951  0.85991422  1
  Ag  Ag11  1  0.76303562  0.75770951  0.64008578  1
  Ag  Ag12  1  0.73696438  0.25770951  0.64008578  1
  Ag  Ag13  1  0.76303562  0.25770951  0.85991422  1
  Ag  Ag14  1  0.26303562  0.24229049  0.14008578  1
  Ag  Ag15  1  0.23696438  0.24229049  0.35991422  1
  I  I0  1  0.01215314  0.62360942  0.28703198  1
  I  I1  1  0.48784686  0.62360942  0.21296802  1
  I  I2  1  0.98784686  0.87639058  0.78703198  1
  I  I3  1  0.51215314  0.87639058  0.71296802  1
  I  I4  1  0.98784686  0.37639058  0.71296802  1
  I  I5  1  0.51215314  0.37639058  0.78703198  1
  I  I6  1  0.01215314  0.12360942  0.21296802  1
  I  I7  1  0.48784686  0.12360942  0.28703198  1
  I  I8  1  0.49914268  0.62324297  0.48706876  1
  I  I9  1  0.00085732  0.62324297  0.01293124  1
  I  I10  1  0.50085732  0.87675703  0.98706876  1
  I  I11  1  -0.00085732  0.87675703  0.51293124  1
  I  I12  1  0.50085732  0.37675703  0.51293124  1
  I  I13  1  -0.00085732  0.37675703  0.98706876  1
  I  I14  1  0.49914268  0.12324297  0.01293124  1
  I  I15  1  0.00085732  0.12324297  0.48706876  1
  I  I16  1  0.98060153  0.87750845  0.29474236  1
  I  I17  1  0.51939847  0.87750845  0.20525764  1
  I  I18  1  0.01939847  0.62249155  0.79474236  1
  I  I19  1  0.48060153  0.62249155  0.70525764  1
  I  I20  1  0.01939847  0.12249155  0.70525764  1
  I  I21  1  0.48060153  0.12249155  0.79474236  1
  I  I22  1  0.98060153  0.37750845  0.20525764  1
  I  I23  1  0.51939847  0.37750845  0.29474236  1
  I  I24  1  0.54211937  0.12535140  0.51655020  1
  I  I25  1  0.95788063  0.12535140  0.98344980  1
  I  I26  1  0.45788063  0.37464860  0.01655020  1
  I  I27  1  0.04211937  0.37464860  0.48344980  1
  I  I28  1  0.45788063  0.87464860  0.48344980  1
  I  I29  1  0.04211937  0.87464860  0.01655020  1
  I  I30  1  0.54211937  0.62535140  0.98344980  1
  I  I31  1  0.95788063  0.62535140  0.51655020  1
  O  O0  1  0.07625788  0.62166496  0.37968682  1
  O  O1  1  0.42374212  0.62166496  0.12031318  1
  O  O2  1  0.92374212  0.87833504  0.87968682  1
  O  O3  1  0.57625788  0.87833504  0.62031318  1
  O  O4  1  0.92374212  0.37833504  0.62031318  1
  O  O5  1  0.57625788  0.37833504  0.87968682  1
  O  O6  1  0.07625788  0.12166496  0.12031318  1
  O  O7  1  0.42374212  0.12166496  0.37968682  1
  O  O8  1  0.10599326  0.72646468  0.25642017  1
  O  O9  1  0.39400674  0.72646468  0.24357983  1
  O  O10  1  0.89400674  0.77353532  0.75642017  1
  O  O11  1  0.60599326  0.77353532  0.74357983  1
  O  O12  1  0.89400674  0.27353532  0.74357983  1
  O  O13  1  0.60599326  0.27353532  0.75642017  1
  O  O14  1  0.10599326  0.22646468  0.24357983  1
  O  O15  1  0.39400674  0.22646468  0.25642017  1
  O  O16  1  0.10565777  0.52536807  0.25065403  1
  O  O17  1  0.39434223  0.52536807  0.24934597  1
  O  O18  1  0.89434223  0.97463193  0.75065403  1
  O  O19  1  0.60565777  0.97463193  0.74934597  1
  O  O20  1  0.89434223  0.47463193  0.74934597  1
  O  O21  1  0.60565777  0.47463193  0.75065403  1
  O  O22  1  0.10565777  0.02536807  0.24934597  1
  O  O23  1  0.39434223  0.02536807  0.25065403  1
  O  O24  1  0.42035080  0.62127398  0.40007403  1
  O  O25  1  0.07964920  0.62127398  0.09992597  1
  O  O26  1  0.57964920  0.87872602  0.90007403  1
  O  O27  1  0.92035080  0.87872602  0.59992597  1
  O  O28  1  0.57964920  0.37872602  0.59992597  1
  O  O29  1  0.92035080  0.37872602  0.90007403  1
  O  O30  1  0.42035080  0.12127398  0.09992597  1
  O  O31  1  0.07964920  0.12127398  0.40007403  1
  O  O32  1  0.61437579  0.52700915  0.47563268  1
  O  O33  1  0.88562421  0.52700915  0.02436732  1
  O  O34  1  0.38562421  0.97299085  0.97563268  1
  O  O35  1  0.11437579  0.97299085  0.52436732  1
  O  O36  1  0.38562421  0.47299085  0.52436732  1
  O  O37  1  0.11437579  0.47299085  0.97563268  1
  O  O38  1  0.61437579  0.02700915  0.02436732  1
  O  O39  1  0.88562421  0.02700915  0.47563268  1
  O  O40  1  0.60718531  0.72715889  0.46818051  1
  O  O41  1  0.89281469  0.72715889  0.03181949  1
  O  O42  1  0.39281469  0.77284111  0.96818051  1
  O  O43  1  0.10718531  0.77284111  0.53181949  1
  O  O44  1  0.39281469  0.27284111  0.53181949  1
  O  O45  1  0.10718531  0.27284111  0.96818051  1
  O  O46  1  0.60718531  0.22715889  0.03181949  1
  O  O47  1  0.89281469  0.22715889  0.46818051  1
  O  O48  1  0.88989629  0.77631940  0.33499018  1
  O  O49  1  0.61010371  0.77631940  0.16500982  1
  O  O50  1  0.11010371  0.72368060  0.83499018  1
  O  O51  1  0.38989629  0.72368060  0.66500982  1
  O  O52  1  0.11010371  0.22368060  0.66500982  1
  O  O53  1  0.38989629  0.22368060  0.83499018  1
  O  O54  1  0.88989629  0.27631940  0.16500982  1
  O  O55  1  0.61010371  0.27631940  0.33499018  1
  O  O56  1  0.87683172  0.97481748  0.32608148  1
  O  O57  1  0.62316828  0.97481748  0.17391852  1
  O  O58  1  0.12316828  0.52518252  0.82608148  1
  O  O59  1  0.37683172  0.52518252  0.67391852  1
  O  O60  1  0.12316828  0.02518252  0.67391852  1
  O  O61  1  0.37683172  0.02518252  0.82608148  1
  O  O62  1  0.87683172  0.47481748  0.17391852  1
  O  O63  1  0.62316828  0.47481748  0.32608148  1
  O  O64  1  0.09770837  0.88170359  0.36563640  1
  O  O65  1  0.40229163  0.88170359  0.13436360  1
  O  O66  1  0.90229163  0.61829641  0.86563640  1
  O  O67  1  0.59770837  0.61829641  0.63436360  1
  O  O68  1  0.90229163  0.11829641  0.63436360  1
  O  O69  1  0.59770837  0.11829641  0.86563640  1
  O  O70  1  0.09770837  0.38170359  0.13436360  1
  O  O71  1  0.40229163  0.38170359  0.36563640  1
  O  O72  1  0.63482746  0.22634625  0.48524798  1
  O  O73  1  0.86517254  0.22634625  0.01475202  1
  O  O74  1  0.36517254  0.27365375  0.98524798  1
  O  O75  1  0.13482746  0.27365375  0.51475202  1
  O  O76  1  0.36517254  0.77365375  0.51475202  1
  O  O77  1  0.13482746  0.77365375  0.98524798  1
  O  O78  1  0.63482746  0.72634625  0.01475202  1
  O  O79  1  0.86517254  0.72634625  0.48524798  1
  O  O80  1  0.60801705  0.11996150  0.60749577  1
  O  O81  1  0.89198295  0.11996150  0.89250423  1
  O  O82  1  0.39198295  0.38003850  0.10749577  1
  O  O83  1  0.10801705  0.38003850  0.39250423  1
  O  O84  1  0.39198295  0.88003850  0.39250423  1
  O  O85  1  0.10801705  0.88003850  0.10749577  1
  O  O86  1  0.60801705  0.61996150  0.89250423  1
  O  O87  1  0.89198295  0.61996150  0.60749577  1
  O  O88  1  0.62931345  0.02083016  0.47821774  1
  O  O89  1  0.87068655  0.02083016  0.02178226  1
  O  O90  1  0.37068655  0.47916984  0.97821774  1
  O  O91  1  0.12931345  0.47916984  0.52178226  1
  O  O92  1  0.37068655  0.97916984  0.52178226  1
  O  O93  1  0.12931345  0.97916984  0.97821774  1
  O  O94  1  0.62931345  0.52083016  0.02178226  1
  O  O95  1  0.87068655  0.52083016  0.47821774  1
  O  O96  1  0.62420824  0.97973525  0.33140202  1
  O  O97  1  0.87579176  0.97973525  0.16859798  1
  O  O98  1  0.37579176  0.52026475  0.83140202  1
  O  O99  1  0.12420824  0.52026475  0.66859798  1
  O  O100  1  0.37579176  0.02026475  0.66859798  1
  O  O101  1  0.12420824  0.02026475  0.83140202  1
  O  O102  1  0.62420824  0.47973525  0.16859798  1
  O  O103  1  0.87579176  0.47973525  0.33140202  1
  O  O104  1  0.74488116  0.12669403  0.37632200  1
  O  O105  1  0.75511884  0.12669403  0.12367800  1
  O  O106  1  0.25511884  0.37330597  0.87632200  1
  O  O107  1  0.24488116  0.37330597  0.62367800  1
  O  O108  1  0.25511884  0.87330597  0.62367800  1
  O  O109  1  0.24488116  0.87330597  0.87632200  1
  O  O110  1  0.74488116  0.62669403  0.12367800  1
  O  O111  1  0.75511884  0.62669403  0.37632200  1
  O  O112  1  0.75009107  0.87581829  0.42874852  1
  O  O113  1  0.74990893  0.87581829  0.07125148  1
  O  O114  1  0.24990893  0.62418171  0.92874852  1
  O  O115  1  0.25009107  0.62418171  0.57125148  1
  O  O116  1  0.24990893  0.12418171  0.57125148  1
  O  O117  1  0.25009107  0.12418171  0.92874852  1
  O  O118  1  0.75009107  0.37581829  0.07125148  1
  O  O119  1  0.74990893  0.37581829  0.42874852  1
  O  O120  1  0.63742122  0.77744864  0.32404256  1
  O  O121  1  0.86257878  0.77744864  0.17595744  1
  O  O122  1  0.36257878  0.72255136  0.82404256  1
  O  O123  1  0.13742122  0.72255136  0.67595744  1
  O  O124  1  0.36257878  0.22255136  0.67595744  1
  O  O125  1  0.13742122  0.22255136  0.82404256  1
  O  O126  1  0.63742122  0.27744864  0.17595744  1
  O  O127  1  0.86257878  0.27744864  0.32404256  1
loop_
_geom_bond_atom_site_label_1
_geom_bond_atom_site_label_2
_geom_bond_distance
_geom_bond_site_symmetry_2
Ag0 O71 2.453189 1_555
Ag0 O24 2.457749 1_555
Ag0 O0 2.495148 1_555
Ag0 O83 2.505999 1_555
Ag0 O17 2.648823 1_555
Ag0 O16 2.685231 1_555
Ag1 O70 2.453189 1_555
Ag1 O25 2.457749 1_555
Ag1 O1 2.495148 1_555
Ag1 O82 2.505999 1_555
Ag1 O16 2.648823 1_555
Ag1 O17 2.685231 1_555
Ag2 O69 2.453189 1_565
Ag2 O26 2.457749 1_555
Ag2 O2 2.495148 1_555
Ag2 O81 2.505999 1_565
Ag2 O19 2.648823 1_555
Ag2 O18 2.685231 1_555
Ag3 O68 2.453189 1_565
Ag3 O27 2.457749 1_555
Ag3 O3 2.495148 1_555
Ag3 O80 2.505999 1_565
Ag3 O18 2.648823 1_555
Ag3 O19 2.685231 1_555
Ag4 O67 2.453189 1_555
Ag4 O28 2.457749 1_555
Ag4 O4 2.495148 1_555
Ag4 O87 2.505999 1_555
Ag4 O21 2.648823 1_555
Ag4 O20 2.685231 1_555
Ag5 O66 2.453189 1_555
Ag5 O29 2.457749 1_555
Ag5 O5 2.495148 1_555
Ag5 O86 2.505999 1_555
Ag5 O20 2.648823 1_555
Ag5 O21 2.685231 1_555
Ag6 O65 2.453189 1_545
Ag6 O30 2.457749 1_555
Ag6 O6 2.495148 1_555
Ag6 O85 2.505999 1_545
Ag6 O23 2.648823 1_555
Ag6 O22 2.685231 1_555
Ag7 O64 2.453189 1_545
Ag7 O31 2.457749 1_555
Ag7 O7 2.495148 1_555
Ag7 O84 2.505999 1_545
Ag7 O22 2.648823 1_555
Ag7 O23 2.685231 1_555
Ag8 O84 2.477492 1_555
Ag8 O24 2.534353 1_555
Ag8 O8 2.572748 1_555
Ag8 O9 2.585554 1_555
Ag8 O64 2.674573 1_555
Ag8 O0 2.682180 1_555
Ag9 O85 2.477492 1_555
Ag9 O25 2.534353 1_555
Ag9 O9 2.572748 1_555
Ag9 O8 2.585554 1_555
Ag9 O65 2.674573 1_555
Ag9 O1 2.682180 1_555
Ag10 O86 2.477492 1_555
Ag10 O26 2.534353 1_555
Ag10 O10 2.572748 1_555
Ag10 O11 2.585554 1_555
Ag10 O66 2.674573 1_555
Ag10 O2 2.682180 1_555
Ag11 O87 2.477492 1_555
Ag11 O27 2.534353 1_555
Ag11 O11 2.572748 1_555
Ag11 O10 2.585554 1_555
Ag11 O67 2.674573 1_555
Ag11 O3 2.682180 1_555
Ag12 O80 2.477492 1_555
Ag12 O28 2.534353 1_555
Ag12 O12 2.572748 1_555
Ag12 O13 2.585554 1_555
Ag12 O68 2.674573 1_555
Ag12 O4 2.682180 1_555
Ag13 O81 2.477492 1_555
Ag13 O29 2.534353 1_555
Ag13 O13 2.572748 1_555
Ag13 O12 2.585554 1_555
Ag13 O69 2.674573 1_555
Ag13 O5 2.682180 1_555
Ag14 O82 2.477492 1_555
Ag14 O30 2.534353 1_555
Ag14 O14 2.572748 1_555
Ag14 O15 2.585554 1_555
Ag14 O70 2.674573 1_555
Ag14 O6 2.682180 1_555
Ag15 O83 2.477492 1_555
Ag15 O31 2.534353 1_555
Ag15 O15 2.572748 1_555
Ag15 O14 2.585554 1_555
Ag15 O71 2.674573 1_555
Ag15 O7 2.682180 1_555
I0 O0 1.845166 1_555
I0 O16 1.849854 1_555
I0 O8 1.866579 1_555
I1 O1 1.845166 1_555
I1 O17 1.849854 1_555
I1 O9 1.866579 1_555
I2 O2 1.845166 1_555
I2 O18 1.849854 1_555
I2 O10 1.866579 1_555
I3 O3 1.845166 1_555
I3 O19 1.849854 1_555
I3 O11 1.866579 1_555
I4 O4 1.845166 1_555
I4 O20 1.849854 1_555
I4 O12 1.866579 1_555
I5 O5 1.845166 1_555
I5 O21 1.849854 1_555
I5 O13 1.866579 1_555
I6 O6 1.845166 1_555
I6 O22 1.849854 1_555
I6 O14 1.866579 1_555
I7 O7 1.845166 1_555
I7 O23 1.849854 1_555
I7 O15 1.866579 1_555
I8 O24 1.819011 1_555
I8 O32 1.864903 1_555
I8 O40 1.916189 1_555
I8 O36 2.554689 1_555
I8 O76 2.631621 1_555
I9 O25 1.819011 1_555
I9 O33 1.864903 1_455
I9 O41 1.916189 1_455
I9 O37 2.554689 1_554
I9 O77 2.631621 1_554
I10 O26 1.819011 1_555
I10 O34 1.864903 1_555
I10 O42 1.916189 1_555
I10 O38 2.554689 1_566
I10 O78 2.631621 1_556
I11 O27 1.819011 1_455
I11 O35 1.864903 1_555
I11 O43 1.916189 1_555
I11 O39 2.554689 1_465
I11 O79 2.631621 1_455
I12 O28 1.819011 1_555
I12 O36 1.864903 1_555
I12 O44 1.916189 1_555
I12 O32 2.554689 1_555
I12 O72 2.631621 1_555
I13 O29 1.819011 1_455
I13 O37 1.864903 1_555
I13 O45 1.916189 1_555
I13 O33 2.554689 1_456
I13 O73 2.631621 1_456
I14 O30 1.819011 1_555
I14 O38 1.864903 1_555
I14 O46 1.916189 1_555
I14 O34 2.554689 1_544
I14 O74 2.631621 1_554
I15 O31 1.819011 1_555
I15 O39 1.864903 1_455
I15 O47 1.916189 1_455
I15 O35 2.554689 1_545
I15 O75 2.631621 1_555
I16 O64 1.827679 1_655
I16 O56 1.873570 1_555
I16 O48 1.891858 1_555
I16 O8 2.633946 1_655
I16 O22 2.634038 1_665
I17 O65 1.827679 1_555
I17 O57 1.873570 1_555
I17 O49 1.891858 1_555
I17 O9 2.633946 1_555
I17 O23 2.634038 1_565
I18 O66 1.827679 1_455
I18 O58 1.873570 1_555
I18 O50 1.891858 1_555
I18 O10 2.633946 1_455
I18 O20 2.634038 1_455
I19 O67 1.827679 1_555
I19 O59 1.873570 1_555
I19 O51 1.891858 1_555
I19 O11 2.633946 1_555
I19 O21 2.634038 1_555
I20 O68 1.827679 1_455
I20 O60 1.873570 1_555
I20 O52 1.891858 1_555
I20 O12 2.633946 1_455
I20 O18 2.634038 1_445
I21 O69 1.827679 1_555
I21 O61 1.873570 1_555
I21 O53 1.891858 1_555
I21 O13 2.633946 1_555
I21 O19 2.634038 1_545
I22 O70 1.827679 1_655
I22 O62 1.873570 1_555
I22 O54 1.891858 1_555
I22 O14 2.633946 1_655
I22 O16 2.634038 1_655
I23 O71 1.827679 1_555
I23 O63 1.873570 1_555
I23 O55 1.891858 1_555
I23 O15 2.633946 1_555
I23 O17 2.634038 1_555
I24 O80 1.825057 1_555
I24 O72 1.843248 1_555
I24 O88 1.895014 1_555
I25 O81 1.825057 1_555
I25 O73 1.843248 1_556
I25 O89 1.895014 1_556
I26 O82 1.825057 1_555
I26 O74 1.843248 1_554
I26 O90 1.895014 1_554
I27 O83 1.825057 1_555
I27 O75 1.843248 1_555
I27 O91 1.895014 1_555
I28 O84 1.825057 1_555
I28 O76 1.843248 1_555
I28 O92 1.895014 1_555
I29 O85 1.825057 1_555
I29 O77 1.843248 1_554
I29 O93 1.895014 1_554
I30 O86 1.825057 1_555
I30 O78 1.843248 1_556
I30 O94 1.895014 1_556
I31 O87 1.825057 1_555
I31 O79 1.843248 1_555
I31 O95 1.895014 1_555
O32 V15 2.299593 1_555
O33 V14 2.299593 1_555
O34 V13 2.299593 1_555
O35 V12 2.299593 1_555
O36 V11 2.299593 1_555
O37 V10 2.299593 1_555
O38 V9 2.299593 1_555
O39 V8 2.299593 1_555
O40 V0 2.012046 1_555
O41 V1 2.012046 1_555
O42 V2 2.012046 1_555
O43 V3 2.012046 1_555
O44 V4 2.012046 1_555
O45 V5 2.012046 1_555
O46 V6 2.012046 1_555
O47 V7 2.012046 1_555
O48 V0 2.027707 1_555
O49 V1 2.027707 1_555
O50 V2 2.027707 1_555
O51 V3 2.027707 1_555
O52 V4 2.027707 1_555
O53 V5 2.027707 1_555
O54 V6 2.027707 1_555
O55 V7 2.027707 1_555
O56 V8 1.967515 1_565
O57 V9 1.967515 1_565
O58 V10 1.967515 1_555
O59 V11 1.967515 1_555
O60 V12 1.967515 1_545
O61 V13 1.967515 1_545
O62 V14 1.967515 1_555
O63 V15 1.967515 1_555
O72 V7 2.304566 1_555
O73 V6 2.304566 1_555
O74 V5 2.304566 1_555
O75 V4 2.304566 1_555
O76 V3 2.304566 1_555
O77 V2 2.304566 1_555
O78 V1 2.304566 1_555
O79 V0 2.304566 1_555
O88 V8 2.023859 1_555
O89 V9 2.023859 1_555
O90 V10 2.023859 1_555
O91 V11 2.023859 1_555
O92 V12 2.023859 1_555
O93 V13 2.023859 1_555
O94 V14 2.023859 1_555
O95 V15 2.023859 1_555
O96 V8 1.656763 1_565
O97 V9 1.656763 1_565
O98 V10 1.656763 1_555
O99 V11 1.656763 1_555
O100 V12 1.656763 1_545
O101 V13 1.656763 1_545
O102 V14 1.656763 1_555
O103 V15 1.656763 1_555
O104 V8 1.776442 1_555
O104 V7 1.906276 1_555
O105 V9 1.776442 1_555
O105 V6 1.906276 1_555
O106 V10 1.776442 1_555
O106 V5 1.906276 1_555
O107 V11 1.776442 1_555
O107 V4 1.906276 1_555
O108 V12 1.776442 1_555
O108 V3 1.906276 1_555
O109 V13 1.776442 1_555
O109 V2 1.906276 1_555
O110 V14 1.776442 1_555
O110 V1 1.906276 1_555
O111 V15 1.776442 1_555
O111 V0 1.906276 1_555
O112 V0 1.805182 1_555
O112 V8 1.939458 1_565
O113 V1 1.805182 1_555
O113 V9 1.939458 1_565
O114 V2 1.805182 1_555
O114 V10 1.939458 1_555
O115 V3 1.805182 1_555
O115 V11 1.939458 1_555
O116 V4 1.805182 1_555
O116 V12 1.939458 1_545
O117 V5 1.805182 1_555
O117 V13 1.939458 1_545
O118 V6 1.805182 1_555
O118 V14 1.939458 1_555
O119 V7 1.805182 1_555
O119 V15 1.939458 1_555
O120 V0 1.634879 1_555
O121 V1 1.634879 1_555
O122 V2 1.634879 1_555
O123 V3 1.634879 1_555
O124 V4 1.634879 1_555
O125 V5 1.634879 1_555
O126 V6 1.634879 1_555
O127 V7 1.634879 1_555
