# generated using pymatgen
data_Yb3Sc
_symmetry_space_group_name_H-M   'P 1'
_cell_length_a   6.90611640
_cell_length_b   6.90611640
_cell_length_c   5.57790198
_cell_angle_alpha   90.00000000
_cell_angle_beta   90.00000000
_cell_angle_gamma   120.00000293
_symmetry_Int_Tables_number   1
_chemical_formula_structural   Yb3Sc
_chemical_formula_sum   'Yb6 Sc2'
_cell_volume   230.39300237
_cell_formula_units_Z   2
loop_
 _symmetry_equiv_pos_site_id
 _symmetry_equiv_pos_as_xyz
  1  'x, y, z'
loop_
 _atom_site_type_symbol
 _atom_site_label
 _atom_site_symmetry_multiplicity
 _atom_site_fract_x
 _atom_site_fract_y
 _atom_site_fract_z
 _atom_site_occupancy
  Yb  Yb0  1  0.16838150  0.33676300  0.25000000  1
  Yb  Yb1  1  0.66323700  0.83161850  0.25000000  1
  Yb  Yb2  1  0.16838150  0.83161850  0.25000000  1
  Yb  Yb3  1  0.83161850  0.66323700  0.75000000  1
  Yb  Yb4  1  0.33676300  0.16838150  0.75000000  1
  Yb  Yb5  1  0.83161850  0.16838150  0.75000000  1
  Sc  Sc0  1  0.33333300  0.66666700  0.75000000  1
  Sc  Sc1  1  0.66666700  0.33333300  0.25000000  1
loop_
_geom_bond_atom_site_label_1
_geom_bond_atom_site_label_2
_geom_bond_distance
_geom_bond_site_symmetry_2
Yb0 Yb1 3.417530 1_555
Yb0 Yb2 3.417530 1_555
Yb0 Yb5 3.440202 1_454
Yb0 Yb5 3.440202 1_455
Yb0 Yb4 3.440203 1_554
Yb0 Yb4 3.440203 1_555
Yb0 Yb1 3.488587 1_445
Yb0 Yb2 3.488587 1_545
Yb1 Yb2 3.417530 1_555
Yb1 Yb5 3.440202 1_565
Yb1 Yb5 3.440202 1_564
Yb1 Yb3 3.440203 1_554
Yb1 Yb3 3.440203 1_555
Yb1 Yb2 3.488587 1_655
Yb2 Yb4 3.440202 1_565
Yb2 Yb4 3.440202 1_564
Yb2 Yb3 3.440202 1_454
Yb2 Yb3 3.440202 1_455
Yb3 Yb4 3.417530 1_555
Yb3 Yb5 3.417530 1_555
Yb3 Yb4 3.488587 1_665
Yb3 Yb5 3.488587 1_565
Yb4 Yb5 3.417530 1_555
Yb4 Yb5 3.488587 1_455
Sc0 Yb2 3.416343 1_556
Sc0 Yb2 3.416343 1_555
Sc0 Yb1 3.416347 1_556
Sc0 Yb1 3.416347 1_555
Sc0 Yb0 3.416347 1_555
Sc0 Yb0 3.416347 1_556
Sc0 Yb3 3.453116 1_455
Sc0 Yb4 3.453116 1_565
Sc0 Yb5 3.453119 1_565
Sc0 Yb5 3.453119 1_455
Sc0 Yb4 3.453123 1_555
Sc0 Yb3 3.453123 1_555
Sc1 Yb5 3.416343 1_555
Sc1 Yb5 3.416343 1_554
Sc1 Yb3 3.416347 1_555
Sc1 Yb3 3.416347 1_554
Sc1 Yb4 3.416347 1_554
Sc1 Yb4 3.416347 1_555
Sc1 Yb1 3.453116 1_545
Sc1 Yb0 3.453116 1_655
Sc1 Yb2 3.453119 1_545
Sc1 Yb2 3.453119 1_655
Sc1 Yb0 3.453123 1_555
Sc1 Yb1 3.453123 1_555
