# generated using pymatgen
data_Nb2Al3Ir
_symmetry_space_group_name_H-M   'P 1'
_cell_length_a   5.18660926
_cell_length_b   5.18660926
_cell_length_c   7.99022721
_cell_angle_alpha   90.00000000
_cell_angle_beta   90.00000000
_cell_angle_gamma   119.99999081
_symmetry_Int_Tables_number   1
_chemical_formula_structural   Nb2Al3Ir
_chemical_formula_sum   'Nb4 Al6 Ir2'
_cell_volume   186.14735218
_cell_formula_units_Z   2
loop_
 _symmetry_equiv_pos_site_id
 _symmetry_equiv_pos_as_xyz
  1  'x, y, z'
loop_
 _atom_site_type_symbol
 _atom_site_label
 _atom_site_symmetry_multiplicity
 _atom_site_fract_x
 _atom_site_fract_y
 _atom_site_fract_z
 _atom_site_occupancy
  Nb  Nb0  1  0.33333300  0.66666700  0.42716835  1
  Nb  Nb1  1  0.66666700  0.33333300  0.57283165  1
  Nb  Nb2  1  0.66666700  0.33333300  0.92716835  1
  Nb  Nb3  1  0.33333300  0.66666700  0.07283165  1
  Al  Al0  1  0.83083797  0.16916203  0.25000000  1
  Al  Al1  1  0.83083797  0.66167694  0.25000000  1
  Al  Al2  1  0.33832306  0.16916203  0.25000000  1
  Al  Al3  1  0.16916203  0.83083797  0.75000000  1
  Al  Al4  1  0.16916203  0.33832306  0.75000000  1
  Al  Al5  1  0.66167694  0.83083797  0.75000000  1
  Ir  Ir0  1  0.00000000  -0.00000000  0.50000000  1
  Ir  Ir1  1  0.00000000  -0.00000000  -0.00000000  1
loop_
_geom_bond_atom_site_label_1
_geom_bond_atom_site_label_2
_geom_bond_distance
_geom_bond_site_symmetry_2
Nb0 Nb3 2.831231 1_555
Nb0 Nb1 3.212721 1_455
Nb0 Nb1 3.212721 1_565
Nb0 Nb1 3.212729 1_555
Nb1 Nb2 2.831231 1_555
Nb2 Nb3 3.212721 1_546
Nb2 Nb3 3.212721 1_656
Nb2 Nb3 3.212729 1_556
Al0 Ir0 2.509902 1_655
Al0 Ir1 2.509902 1_655
Al0 Nb0 2.954607 1_545
Al0 Nb0 2.954607 1_655
Al0 Nb3 2.954607 1_545
Al0 Nb3 2.954607 1_655
Al0 Nb1 2.971350 1_555
Al0 Nb2 2.971350 1_554
Al1 Ir0 2.509899 1_665
Al1 Ir1 2.509899 1_665
Al1 Nb3 2.954606 1_555
Al1 Nb0 2.954606 1_555
Al1 Nb0 2.954606 1_655
Al1 Nb3 2.954606 1_655
Al1 Nb1 2.971354 1_555
Al1 Nb2 2.971354 1_554
Al2 Ir0 2.509899 1_555
Al2 Ir1 2.509899 1_555
Al2 Nb3 2.954606 1_555
Al2 Nb0 2.954606 1_555
Al2 Nb3 2.954606 1_545
Al2 Nb0 2.954606 1_545
Al2 Nb1 2.971354 1_555
Al2 Nb2 2.971354 1_554
Al3 Ir1 2.509902 1_566
Al3 Ir0 2.509902 1_565
Al3 Nb2 2.954607 1_455
Al3 Nb1 2.954607 1_455
Al3 Nb2 2.954607 1_565
Al3 Nb1 2.954607 1_565
Al3 Nb3 2.971350 1_556
Al3 Nb0 2.971350 1_555
Al4 Ir1 2.509899 1_556
Al4 Ir0 2.509899 1_555
Al4 Nb1 2.954606 1_555
Al4 Nb2 2.954606 1_555
Al4 Nb2 2.954606 1_455
Al4 Nb1 2.954606 1_455
Al4 Nb3 2.971354 1_556
Al4 Nb0 2.971354 1_555
Al5 Ir0 2.509899 1_665
Al5 Ir1 2.509899 1_666
Al5 Nb1 2.954606 1_555
Al5 Nb2 2.954606 1_555
Al5 Nb1 2.954606 1_565
Al5 Nb2 2.954606 1_565
Al5 Nb3 2.971354 1_556
Al5 Nb0 2.971354 1_555
Ir0 Nb0 3.050510 1_545
Ir0 Nb1 3.050510 1_455
Ir0 Nb0 3.050514 1_445
Ir0 Nb0 3.050514 1_555
Ir0 Nb1 3.050514 1_445
Ir0 Nb1 3.050514 1_555
Ir1 Nb2 3.050510 1_454
Ir1 Nb3 3.050510 1_545
Ir1 Nb2 3.050514 1_444
Ir1 Nb3 3.050514 1_555
Ir1 Nb3 3.050514 1_445
Ir1 Nb2 3.050514 1_554
