# generated using pymatgen
data_LaAs2Pd3
_symmetry_space_group_name_H-M   'P 1'
_cell_length_a   4.16983745
_cell_length_b   8.66643427
_cell_length_c   10.08150474
_cell_angle_alpha   107.50154813
_cell_angle_beta   90.03271410
_cell_angle_gamma   103.87778110
_symmetry_Int_Tables_number   1
_chemical_formula_structural   LaAs2Pd3
_chemical_formula_sum   'La3 As6 Pd9'
_cell_volume   336.27280167
_cell_formula_units_Z   3
loop_
 _symmetry_equiv_pos_site_id
 _symmetry_equiv_pos_as_xyz
  1  'x, y, z'
loop_
 _atom_site_type_symbol
 _atom_site_label
 _atom_site_symmetry_multiplicity
 _atom_site_fract_x
 _atom_site_fract_y
 _atom_site_fract_z
 _atom_site_occupancy
  La  La0  1  0.84403268  0.68868856  0.29715624  1
  La  La1  1  0.15596586  0.31130190  0.70282205  1
  La  La2  1  0.00000506  0.00004642  0.00000109  1
  As  As0  1  0.79987962  0.59935083  0.87367774  1
  As  As1  1  0.20007708  0.40067292  0.12630078  1
  As  As2  1  0.53552449  0.07053173  0.77937672  1
  As  As3  1  0.46450554  0.92943238  0.22060324  1
  As  As4  1  0.63562446  0.27228820  0.45200855  1
  As  As5  1  0.36436504  0.72774303  0.54800353  1
  Pd  Pd0  1  0.95371515  0.90649001  0.66469716  1
  Pd  Pd1  1  0.04614047  0.09350419  0.33531824  1
  Pd  Pd2  1  0.77745313  0.55513758  0.60886081  1
  Pd  Pd3  1  0.22259642  0.44481898  0.39114225  1
  Pd  Pd4  1  0.37376708  0.74603675  0.79685982  1
  Pd  Pd5  1  0.62626682  0.25395714  0.20316469  1
  Pd  Pd6  1  0.50000753  -0.00003383  0.49997979  1
  Pd  Pd7  1  0.67406172  0.34953576  0.96550885  1
  Pd  Pd8  1  0.32601485  0.65049745  0.03451847  1
loop_
_geom_bond_atom_site_label_1
_geom_bond_atom_site_label_2
_geom_bond_distance
_geom_bond_site_symmetry_2
La0 Pd3 3.264886 1_555
La0 Pd3 3.264900 1_655
La0 Pd8 3.302959 1_555
La0 Pd1 3.306958 1_665
La0 Pd8 3.310231 1_655
La0 Pd6 3.472516 1_565
La0 Pd6 3.475135 1_665
La0 Pd5 3.482481 1_555
La0 Pd0 3.588738 1_555
La0 Pd2 3.650495 1_555
La0 Pd7 3.661651 1_554
La1 Pd2 3.264393 1_455
La1 Pd2 3.264741 1_555
La1 Pd7 3.303434 1_555
La1 Pd0 3.307003 1_445
La1 Pd7 3.310408 1_455
La1 Pd6 3.472976 1_555
La1 Pd6 3.475368 1_455
La1 Pd4 3.482484 1_555
La1 Pd1 3.588406 1_555
La1 Pd3 3.650093 1_555
La1 Pd8 3.662162 1_556
La2 Pd5 3.222307 1_555
La2 Pd4 3.222401 1_444
La2 Pd0 3.224474 1_444
La2 Pd1 3.224671 1_555
La2 Pd5 3.225504 1_455
La2 Pd4 3.225992 1_544
La2 Pd7 3.707505 1_554
La2 Pd7 3.708047 1_454
As0 Pd7 2.545746 1_555
As0 Pd2 2.578836 1_555
As0 Pd8 2.592612 1_556
As0 Pd8 2.595405 1_656
As0 Pd4 2.654622 1_555
As0 Pd4 2.660320 1_655
As0 La2 3.213401 1_666
As0 La1 3.255488 1_655
As0 La1 3.255947 1_555
As1 Pd8 2.545517 1_555
As1 Pd3 2.579181 1_555
As1 Pd7 2.592717 1_554
As1 Pd7 2.594739 1_454
As1 Pd5 2.655265 1_555
As1 Pd5 2.660359 1_455
As1 La2 3.212846 1_555
As1 La0 3.255168 1_455
As1 La0 3.255939 1_555
As2 Pd7 2.510220 1_555
As2 Pd0 2.568502 1_445
As2 Pd0 2.569338 1_545
As2 Pd6 2.692576 1_555
As2 Pd4 2.789787 1_545
As2 La1 3.163225 1_555
As2 La1 3.166101 1_655
As2 La2 3.232858 1_656
As2 La2 3.236552 1_556
As3 Pd8 2.509592 1_555
As3 Pd1 2.568063 1_665
As3 Pd1 2.570181 1_565
As3 Pd6 2.692403 1_565
As3 Pd5 2.789872 1_565
As3 La0 3.162937 1_555
As3 La0 3.166058 1_455
As3 La2 3.233347 1_565
As3 La2 3.236588 1_665
As4 Pd2 2.414792 1_555
As4 Pd5 2.465287 1_555
As4 Pd6 2.483980 1_555
As4 Pd1 2.625479 1_655
As4 Pd1 2.626799 1_555
As4 Pd3 2.713738 1_555
As4 Pd3 2.720455 1_655
As4 La1 3.213157 1_555
As4 La1 3.216115 1_655
As5 Pd3 2.415315 1_555
As5 Pd4 2.465492 1_555
As5 Pd6 2.483417 1_565
As5 Pd0 2.625735 1_455
As5 Pd0 2.626291 1_555
As5 Pd2 2.714393 1_555
As5 Pd2 2.720487 1_455
As5 La0 3.213445 1_555
As5 La0 3.216244 1_455
Pd0 Pd2 2.832656 1_555
Pd0 Pd6 2.920809 1_665
Pd0 Pd6 2.921273 1_565
Pd0 Pd4 3.009476 1_655
Pd0 Pd4 3.010313 1_555
Pd1 Pd3 2.832362 1_555
Pd1 Pd6 2.920108 1_455
Pd1 Pd6 2.921705 1_555
Pd1 Pd5 3.008906 1_455
Pd1 Pd5 3.010773 1_555
Pd2 Pd4 2.935372 1_555
Pd2 Pd4 2.940648 1_655
Pd2 Pd3 2.959009 1_555
Pd2 Pd3 2.961579 1_655
Pd3 Pd5 2.935059 1_555
Pd3 Pd5 2.940538 1_455
Pd4 Pd8 2.753265 1_556
Pd5 Pd7 2.753423 1_554
Pd7 Pd8 3.181025 1_556
Pd7 Pd8 3.191006 1_656
