# generated using pymatgen
data_Sc3Si3Ni2
_symmetry_space_group_name_H-M   'P 1'
_cell_length_a   3.96632596
_cell_length_b   5.21378536
_cell_length_c   13.09204399
_cell_angle_alpha   90.00000000
_cell_angle_beta   90.00000000
_cell_angle_gamma   112.35654902
_symmetry_Int_Tables_number   1
_chemical_formula_structural   Sc3Si3Ni2
_chemical_formula_sum   'Sc6 Si6 Ni4'
_cell_volume   250.38779169
_cell_formula_units_Z   2
loop_
 _symmetry_equiv_pos_site_id
 _symmetry_equiv_pos_as_xyz
  1  'x, y, z'
loop_
 _atom_site_type_symbol
 _atom_site_label
 _atom_site_symmetry_multiplicity
 _atom_site_fract_x
 _atom_site_fract_y
 _atom_site_fract_z
 _atom_site_occupancy
  Sc  Sc0  1  0.08377580  0.16755260  0.88884854  1
  Sc  Sc1  1  0.91622420  0.83244740  0.11115146  1
  Sc  Sc2  1  0.91622420  0.83244740  0.38884854  1
  Sc  Sc3  1  0.36201199  0.72402498  0.75000000  1
  Sc  Sc4  1  0.08377580  0.16755260  0.61115146  1
  Sc  Sc5  1  0.63798801  0.27597502  0.25000000  1
  Si  Si0  1  0.33889526  0.67779152  0.25000000  1
  Si  Si1  1  0.66110474  0.32220848  0.75000000  1
  Si  Si2  1  0.38277667  0.76555235  0.53883757  1
  Si  Si3  1  0.61722333  0.23444765  0.46116243  1
  Si  Si4  1  0.61722333  0.23444765  0.03883757  1
  Si  Si5  1  0.38277667  0.76555235  0.96116243  1
  Ni  Ni0  1  0.20791605  0.41583311  0.40368339  1
  Ni  Ni1  1  0.79208395  0.58416689  0.59631661  1
  Ni  Ni2  1  0.20791605  0.41583311  0.09631661  1
  Ni  Ni3  1  0.79208395  0.58416689  0.90368339  1
loop_
_geom_bond_atom_site_label_1
_geom_bond_atom_site_label_2
_geom_bond_distance
_geom_bond_site_symmetry_2
Sc0 Si1 2.791680 1_455
Sc0 Si1 2.791685 1_555
Sc0 Si4 2.809440 1_456
Sc0 Si4 2.809440 1_556
Sc0 Si5 2.930295 1_445
Sc0 Si5 2.930300 1_545
Sc0 Si5 3.034933 1_555
Sc1 Si0 2.791680 1_655
Sc1 Si0 2.791685 1_555
Sc1 Si5 2.809440 1_654
Sc1 Si5 2.809440 1_554
Sc1 Si4 2.930295 1_665
Sc1 Si4 2.930300 1_565
Sc1 Si4 3.034933 1_555
Sc2 Si0 2.791680 1_655
Sc2 Si0 2.791685 1_555
Sc2 Si2 2.809440 1_655
Sc2 Si2 2.809440 1_555
Sc2 Si3 2.930295 1_665
Sc2 Si3 2.930300 1_565
Sc2 Si3 3.034933 1_555
Sc3 Si5 2.771790 1_555
Sc3 Si2 2.771790 1_555
Sc3 Si1 2.772523 1_455
Sc3 Si1 2.772529 1_555
Sc3 Si1 2.884375 1_565
Sc4 Si1 2.791680 1_455
Sc4 Si1 2.791685 1_555
Sc4 Si3 2.809440 1_455
Sc4 Si3 2.809440 1_555
Sc4 Si2 2.930295 1_445
Sc4 Si2 2.930300 1_545
Sc4 Si2 3.034933 1_555
Sc5 Si4 2.771790 1_555
Sc5 Si3 2.771790 1_555
Sc5 Si0 2.772523 1_655
Sc5 Si0 2.772529 1_555
Sc5 Si0 2.884375 1_545
Si2 Si3 2.479130 1_565
Si4 Si5 2.479130 1_544
Ni0 Si3 2.294380 1_455
Ni0 Si3 2.294380 1_555
Ni0 Si0 2.375663 1_555
Ni0 Si2 2.444293 1_555
Ni0 Sc2 2.819718 1_445
Ni0 Sc2 2.829522 1_455
Ni0 Sc2 2.829527 1_555
Ni0 Sc5 2.904474 1_455
Ni0 Sc5 2.904480 1_555
Ni0 Sc4 2.968313 1_555
Ni1 Si2 2.294380 1_655
Ni1 Si2 2.294380 1_555
Ni1 Si1 2.375663 1_555
Ni1 Si3 2.444293 1_555
Ni1 Sc4 2.819718 1_665
Ni1 Sc4 2.829522 1_655
Ni1 Sc4 2.829527 1_555
Ni1 Sc3 2.904474 1_655
Ni1 Sc3 2.904480 1_555
Ni1 Sc2 2.968313 1_555
Ni2 Si4 2.294380 1_455
Ni2 Si4 2.294380 1_555
Ni2 Si0 2.375663 1_555
Ni2 Si5 2.444293 1_554
Ni2 Sc1 2.819718 1_445
Ni2 Sc1 2.829522 1_455
Ni2 Sc1 2.829527 1_555
Ni2 Sc5 2.904474 1_455
Ni2 Sc5 2.904480 1_555
Ni2 Sc0 2.968313 1_554
Ni3 Si5 2.294380 1_655
Ni3 Si5 2.294380 1_555
Ni3 Si1 2.375663 1_555
Ni3 Si4 2.444293 1_556
Ni3 Sc0 2.819718 1_665
Ni3 Sc0 2.829522 1_655
Ni3 Sc0 2.829527 1_555
Ni3 Sc3 2.904474 1_655
Ni3 Sc3 2.904480 1_555
Ni3 Sc1 2.968313 1_556
