# generated using pymatgen
data_Mg6MnBi
_symmetry_space_group_name_H-M   'P 1'
_cell_length_a   5.07609300
_cell_length_b   6.41281300
_cell_length_c   11.03068700
_cell_angle_alpha   90.00000000
_cell_angle_beta   90.00000000
_cell_angle_gamma   90.00000000
_symmetry_Int_Tables_number   1
_chemical_formula_structural   Mg6MnBi
_chemical_formula_sum   'Mg12 Mn2 Bi2'
_cell_volume   359.07131128
_cell_formula_units_Z   2
loop_
 _symmetry_equiv_pos_site_id
 _symmetry_equiv_pos_as_xyz
  1  'x, y, z'
loop_
 _atom_site_type_symbol
 _atom_site_label
 _atom_site_symmetry_multiplicity
 _atom_site_fract_x
 _atom_site_fract_y
 _atom_site_fract_z
 _atom_site_occupancy
  Mg  Mg0  1  0.00000000  0.23642700  0.07788700  1
  Mg  Mg1  1  0.00000000  0.76357300  0.07788700  1
  Mg  Mg2  1  0.00000000  0.50000000  0.83380000  1
  Mg  Mg3  1  0.50000000  0.24433500  0.91489900  1
  Mg  Mg4  1  0.50000000  0.75566500  0.91489900  1
  Mg  Mg5  1  0.50000000  0.50000000  0.66828500  1
  Mg  Mg6  1  0.00000000  0.73642700  0.57788700  1
  Mg  Mg7  1  0.00000000  0.26357300  0.57788700  1
  Mg  Mg8  1  0.00000000  0.00000000  0.33380000  1
  Mg  Mg9  1  0.50000000  0.74433500  0.41489900  1
  Mg  Mg10  1  0.50000000  0.25566500  0.41489900  1
  Mg  Mg11  1  0.50000000  0.00000000  0.16828500  1
  Mn  Mn0  1  0.00000000  0.50000000  0.34070600  1
  Mn  Mn1  1  0.00000000  0.00000000  0.84070600  1
  Bi  Bi0  1  0.50000000  0.50000000  0.17163900  1
  Bi  Bi1  1  0.50000000  0.00000000  0.67163900  1
loop_
_geom_bond_atom_site_label_1
_geom_bond_atom_site_label_2
_geom_bond_distance
_geom_bond_site_symmetry_2
Mg0 Mn1 3.023841 1_554
Mg0 Mg1 3.032324 1_545
Mg0 Mg3 3.110721 1_554
Mg0 Mg3 3.110721 1_454
Mg0 Mg11 3.120054 1_555
Mg0 Mg11 3.120054 1_455
Mg0 Mg2 3.179025 1_554
Mg0 Mg8 3.204293 1_555
Mg0 Mn0 3.355824 1_555
Mg0 Mg1 3.380489 1_555
Mg1 Mn1 3.023841 1_564
Mg1 Mg4 3.110721 1_554
Mg1 Mg4 3.110721 1_454
Mg1 Mg11 3.120054 1_565
Mg1 Mg11 3.120054 1_465
Mg1 Mg2 3.179025 1_554
Mg1 Mg8 3.204293 1_565
Mg1 Mn0 3.355824 1_555
Mg2 Mg5 3.126503 1_455
Mg2 Mg5 3.126503 1_555
Mg2 Mg4 3.151192 1_555
Mg2 Mg4 3.151192 1_455
Mg2 Mg3 3.151192 1_555
Mg2 Mg3 3.151192 1_455
Mg2 Mg6 3.204293 1_555
Mg2 Mg7 3.204293 1_555
Mg2 Mn1 3.207311 1_565
Mg2 Mn1 3.207311 1_555
Mg3 Mn1 3.092985 1_555
Mg3 Mn1 3.092985 1_655
Mg3 Mg4 3.133749 1_545
Mg3 Mg5 3.176195 1_555
Mg3 Mg4 3.279064 1_555
Mg4 Mn1 3.092985 1_665
Mg4 Mn1 3.092985 1_565
Mg4 Mg5 3.176195 1_555
Mg5 Mg6 3.120054 1_555
Mg5 Mg6 3.120054 1_655
Mg5 Mg7 3.120054 1_655
Mg5 Mg7 3.120054 1_555
Mg5 Mg9 3.204254 1_555
Mg6 Mn0 3.023841 1_555
Mg6 Mg7 3.032324 1_555
Mg6 Mg9 3.110721 1_555
Mg6 Mg9 3.110721 1_455
Mg6 Mg8 3.179025 1_565
Mg6 Mn1 3.355824 1_565
Mg6 Mg7 3.380489 1_565
Mg7 Mn0 3.023841 1_555
Mg7 Mg8 3.179025 1_555
Mg7 Mn1 3.355824 1_555
Mg8 Mg9 3.151192 1_545
Mg8 Mg9 3.151192 1_445
Mg8 Mn0 3.207311 1_555
Mg8 Mn0 3.207311 1_545
Mg9 Mn0 3.092985 1_655
Mg9 Mn0 3.092985 1_555
Mg10 Mn0 3.092985 1_655
Mg10 Mn0 3.092985 1_555
Mg10 Mg7 3.110721 1_555
Mg10 Mg7 3.110721 1_655
Mg10 Mg9 3.133749 1_555
Mg10 Mg8 3.151192 1_655
Mg10 Mg8 3.151192 1_555
Mg10 Mg11 3.176195 1_555
Mg10 Mg5 3.204254 1_555
Mg10 Mg9 3.279064 1_545
Mg11 Mg8 3.126503 1_655
Mg11 Mg8 3.126503 1_555
Mg11 Mg9 3.176195 1_545
Mg11 Mg3 3.204254 1_554
Mg11 Mg4 3.204254 1_544
Bi0 Mg9 3.107303 1_555
Bi0 Mg10 3.107303 1_555
Bi0 Mn0 3.149544 1_555
Bi0 Mn0 3.149544 1_655
Bi0 Mg11 3.206620 1_565
Bi0 Mg11 3.206620 1_555
Bi0 Mg0 3.219949 1_655
Bi0 Mg1 3.219949 1_655
Bi0 Mg1 3.219949 1_555
Bi0 Mg0 3.219949 1_555
Bi0 Mg4 3.272368 1_554
Bi0 Mg3 3.272368 1_554
Bi1 Mg3 3.107303 1_555
Bi1 Mg4 3.107303 1_545
Bi1 Mn1 3.149544 1_655
Bi1 Mn1 3.149544 1_555
Bi1 Mg5 3.206620 1_545
Bi1 Mg5 3.206620 1_555
Bi1 Mg7 3.219949 1_555
Bi1 Mg7 3.219949 1_655
Bi1 Mg6 3.219949 1_545
Bi1 Mg6 3.219949 1_645
Bi1 Mg9 3.272368 1_545
Bi1 Mg10 3.272368 1_555
