# generated using pymatgen
data_Ba2FeWO6
_symmetry_space_group_name_H-M   'P 1'
_cell_length_a   5.84096198
_cell_length_b   10.11454166
_cell_length_c   5.86586859
_cell_angle_alpha   73.70473486
_cell_angle_beta   119.59379792
_cell_angle_gamma   106.65842587
_symmetry_Int_Tables_number   1
_chemical_formula_structural   Ba2FeWO6
_chemical_formula_sum   'Ba4 Fe2 W2 O12'
_cell_volume   284.64473763
_cell_formula_units_Z   2
loop_
 _symmetry_equiv_pos_site_id
 _symmetry_equiv_pos_as_xyz
  1  'x, y, z'
loop_
 _atom_site_type_symbol
 _atom_site_label
 _atom_site_symmetry_multiplicity
 _atom_site_fract_x
 _atom_site_fract_y
 _atom_site_fract_z
 _atom_site_occupancy
  Ba  Ba0  1  0.37267300  0.12455000  0.62625300  1
  Ba  Ba1  1  0.87774200  0.62482100  0.12305400  1
  Ba  Ba2  1  0.12729600  0.37542600  0.87371700  1
  Ba  Ba3  1  0.62217000  0.87516400  0.37685700  1
  Fe  Fe0  1  0.25015200  0.74999000  0.75012600  1
  Fe  Fe1  1  0.75017400  0.25012400  0.25025700  1
  W  W0  1  0.50388400  0.50013900  0.49791100  1
  W  W1  1  0.99610600  0.99986100  0.00208600  1
  O  O0  1  0.15125100  0.38184300  0.37968100  1
  O  O1  1  0.63681700  0.88025700  0.88397000  1
  O  O2  1  0.87454400  0.11939100  0.12224500  1
  O  O3  1  0.38728700  0.61874800  0.61603500  1
  O  O4  1  0.62545100  0.38059700  0.37774100  1
  O  O5  1  0.11270300  0.88123000  0.88391800  1
  O  O6  1  0.34870300  0.11814500  0.12027700  1
  O  O7  1  0.86311900  0.61972900  0.61597000  1
  O  O8  1  0.87704600  0.11730600  0.65032600  1
  O  O9  1  0.38873600  0.61798400  0.14497600  1
  O  O10  1  0.62293800  0.38268800  0.84961400  1
  O  O11  1  0.11120800  0.88200800  0.35498500  1
loop_
_geom_bond_atom_site_label_1
_geom_bond_atom_site_label_2
_geom_bond_distance
_geom_bond_site_symmetry_2
Ba0 O8 2.900246 1_555
Ba0 O0 2.916666 1_555
Ba0 O10 2.917249 1_555
Ba0 O11 2.919744 1_545
Ba0 O6 2.919765 1_555
Ba0 O1 2.925227 1_545
Ba0 O2 2.939279 1_556
Ba0 O8 2.946578 1_455
Ba0 O5 2.946842 1_545
Ba0 O6 2.951557 1_556
Ba0 O2 2.951648 1_455
Ba0 O4 2.971024 1_555
Ba1 O5 2.897665 1_654
Ba1 O9 2.902431 1_555
Ba1 O4 2.919230 1_555
Ba1 O7 2.920250 1_555
Ba1 O10 2.922755 1_554
Ba1 O11 2.932099 1_655
Ba1 O3 2.939764 1_554
Ba1 O0 2.942400 1_655
Ba1 O9 2.943466 1_655
Ba1 O7 2.947888 1_554
Ba1 O1 2.953658 1_554
Ba1 O3 2.954403 1_655
Ba2 O10 2.900133 1_455
Ba2 O6 2.916518 1_556
Ba2 O8 2.917167 1_455
Ba2 O0 2.919771 1_556
Ba2 O9 2.919851 1_556
Ba2 O7 2.925416 1_455
Ba2 O4 2.939158 1_455
Ba2 O10 2.946709 1_555
Ba2 O3 2.946971 1_555
Ba2 O0 2.951549 1_555
Ba2 O4 2.951772 1_556
Ba2 O2 2.970924 1_456
Ba3 O3 2.897616 1_555
Ba3 O11 2.902445 1_655
Ba3 O2 2.919266 1_565
Ba3 O1 2.920149 1_554
Ba3 O8 2.922922 1_565
Ba3 O9 2.931899 1_555
Ba3 O5 2.940108 1_655
Ba3 O6 2.942293 1_565
Ba3 O11 2.943437 1_555
Ba3 O1 2.947994 1_555
Ba3 O7 2.953717 1_555
Ba3 O5 2.954042 1_554
Fe0 O1 2.139230 1_555
Fe0 O7 2.140739 1_455
Fe0 O9 2.198842 1_556
Fe0 O3 2.200055 1_555
Fe0 O5 2.200109 1_555
Fe0 O11 2.200136 1_555
Fe1 O4 2.115310 1_555
Fe1 O2 2.118197 1_555
Fe1 O0 2.204766 1_655
Fe1 O6 2.207430 1_555
Fe1 O8 2.223745 1_555
Fe1 O10 2.225109 1_554
O0 W0 1.948555 1_555
O1 W1 1.981489 1_556
O2 W1 1.981736 1_545
O3 W0 1.945286 1_555
O4 W0 1.981901 1_555
O5 W1 1.945649 1_456
O6 W1 1.948355 1_445
O7 W0 1.981208 1_555
O8 W1 1.957837 1_546
O9 W0 1.964351 1_555
O10 W0 1.957625 1_555
O11 W1 1.964235 1_455
