# generated using pymatgen
data_Tb5Mg24
_symmetry_space_group_name_H-M   'P 1'
_cell_length_a   9.72969342
_cell_length_b   9.72970402
_cell_length_c   9.72970461
_cell_angle_alpha   109.47126475
_cell_angle_beta   109.47122061
_cell_angle_gamma   109.47121823
_symmetry_Int_Tables_number   1
_chemical_formula_structural   Tb5Mg24
_chemical_formula_sum   'Tb5 Mg24'
_cell_volume   709.04912582
_cell_formula_units_Z   1
loop_
 _symmetry_equiv_pos_site_id
 _symmetry_equiv_pos_as_xyz
  1  'x, y, z'
loop_
 _atom_site_type_symbol
 _atom_site_label
 _atom_site_symmetry_multiplicity
 _atom_site_fract_x
 _atom_site_fract_y
 _atom_site_fract_z
 _atom_site_occupancy
  Tb  Tb0  1  -0.00000000  -0.00000000  -0.00000000  1
  Tb  Tb1  1  0.62302266  -0.00000000  -0.00000000  1
  Tb  Tb2  1  0.00000000  0.62302266  -0.00000000  1
  Tb  Tb3  1  0.00000000  -0.00000000  0.62302266  1
  Tb  Tb4  1  0.37697734  0.37697734  0.37697734  1
  Mg  Mg0  1  0.38704275  0.67311472  -0.00000000  1
  Mg  Mg1  1  0.71392802  0.32688428  0.32688428  1
  Mg  Mg2  1  0.38704275  -0.00000000  0.67311572  1
  Mg  Mg3  1  0.67311472  0.38704275  -0.00000000  1
  Mg  Mg4  1  0.00000000  0.38704275  0.67311572  1
  Mg  Mg5  1  0.32688428  0.71392702  0.32688428  1
  Mg  Mg6  1  0.32688428  0.32688428  0.71392702  1
  Mg  Mg7  1  0.00000000  0.67311472  0.38704375  1
  Mg  Mg8  1  0.67311472  -0.00000000  0.38704275  1
  Mg  Mg9  1  0.61295725  0.61295725  0.28607298  1
  Mg  Mg10  1  0.28607198  0.61295725  0.61295725  1
  Mg  Mg11  1  0.61295725  0.28607298  0.61295725  1
  Mg  Mg12  1  0.36907353  0.19041333  0.00000000  1
  Mg  Mg13  1  0.17866020  0.80958667  0.80958667  1
  Mg  Mg14  1  0.36907353  0.00000000  0.19041333  1
  Mg  Mg15  1  0.19041333  0.36907353  0.00000000  1
  Mg  Mg16  1  -0.00000000  0.36907353  0.19041333  1
  Mg  Mg17  1  0.80958667  0.17866020  0.80958667  1
  Mg  Mg18  1  0.80958667  0.80958667  0.17866020  1
  Mg  Mg19  1  -0.00000000  0.19041333  0.36907353  1
  Mg  Mg20  1  0.19041333  0.00000000  0.36907353  1
  Mg  Mg21  1  0.63092647  0.63092647  0.82133980  1
  Mg  Mg22  1  0.82133980  0.63092647  0.63092647  1
  Mg  Mg23  1  0.63092647  0.82133980  0.63092647  1
loop_
_geom_bond_atom_site_label_1
_geom_bond_atom_site_label_2
_geom_bond_distance
_geom_bond_site_symmetry_2
Tb0 Tb1 3.667874 1_455
Tb0 Tb4 3.667874 1_555
Tb0 Tb2 3.667878 1_545
Tb0 Tb3 3.667878 1_554
Mg0 Mg15 2.939088 1_555
Mg0 Mg14 3.199511 1_565
Mg0 Mg13 3.199512 1_554
Mg0 Tb1 3.243290 1_565
Mg0 Mg6 3.284288 1_554
Mg0 Mg9 3.284289 1_555
Mg0 Mg4 3.342129 1_554
Mg0 Mg5 3.342132 1_555
Mg0 Mg8 3.342133 1_565
Mg0 Mg10 3.342136 1_554
Mg0 Mg18 3.427024 1_555
Mg0 Mg21 3.427026 1_554
Mg0 Tb2 3.632528 1_555
Mg1 Mg22 2.939097 1_555
Mg1 Mg14 3.199507 1_555
Mg1 Mg12 3.199508 1_555
Mg1 Tb1 3.243278 1_555
Mg1 Mg7 3.284279 1_655
Mg1 Mg4 3.284290 1_655
Mg1 Mg8 3.342132 1_555
Mg1 Mg3 3.342132 1_555
Mg1 Mg9 3.342139 1_555
Mg1 Mg11 3.342139 1_555
Mg1 Mg19 3.427019 1_655
Mg1 Mg16 3.427019 1_655
Mg1 Tb4 3.632536 1_555
Mg2 Mg20 2.939095 1_555
Mg2 Tb1 3.243282 1_556
Mg2 Mg5 3.284294 1_545
Mg2 Mg3 3.342130 1_556
Mg2 Mg7 3.342132 1_545
Mg2 Mg6 3.342133 1_555
Mg2 Mg23 3.427027 1_545
Mg2 Tb3 3.632525 1_555
Mg3 Tb2 3.243288 1_655
Mg3 Mg6 3.284286 1_554
Mg3 Mg9 3.284288 1_555
Mg3 Mg7 3.342138 1_655
Mg3 Tb1 3.632532 1_555
Mg4 Tb2 3.243282 1_556
Mg4 Mg6 3.342131 1_555
Mg4 Mg8 3.342134 1_455
Mg4 Tb3 3.632529 1_555
Mg5 Tb2 3.243281 1_555
Mg5 Mg8 3.284286 1_565
Mg5 Mg9 3.342131 1_555
Mg5 Mg7 3.342135 1_555
Mg5 Tb4 3.632530 1_555
Mg6 Tb3 3.243281 1_555
Mg6 Tb4 3.632530 1_555
Mg7 Tb3 3.243285 1_565
Mg7 Mg9 3.342132 1_455
Mg7 Tb2 3.632541 1_555
Mg8 Tb3 3.243288 1_655
Mg8 Mg9 3.342136 1_545
Mg8 Tb1 3.632532 1_555
Mg9 Tb4 3.243282 1_555
Mg9 Tb3 3.632526 1_665
Mg10 Mg13 2.939086 1_555
Mg10 Mg21 3.199510 1_555
Mg10 Mg23 3.199510 1_555
Mg10 Tb4 3.243289 1_555
Mg10 Mg7 3.284277 1_555
Mg10 Mg4 3.284288 1_555
Mg10 Mg2 3.342132 1_565
Mg10 Mg6 3.342137 1_555
Mg10 Mg5 3.342138 1_555
Mg10 Mg19 3.427026 1_555
Mg10 Mg16 3.427026 1_555
Mg10 Tb1 3.632528 1_566
Mg11 Mg17 2.939095 1_555
Mg11 Mg21 3.199503 1_555
Mg11 Mg22 3.199504 1_555
Mg11 Tb4 3.243282 1_555
Mg11 Mg8 3.284288 1_555
Mg11 Mg2 3.284295 1_555
Mg11 Mg4 3.342130 1_655
Mg11 Mg6 3.342131 1_555
Mg11 Mg3 3.342137 1_556
Mg11 Mg20 3.427026 1_555
Mg11 Mg14 3.427028 1_555
Mg11 Tb2 3.632526 1_656
Mg12 Mg15 2.838648 1_555
Mg12 Mg3 2.939086 1_555
Mg12 Mg13 3.025388 1_544
Mg12 Mg14 3.025391 1_555
Mg12 Mg2 3.199504 1_554
Mg12 Mg9 3.427028 1_555
Mg12 Mg6 3.427031 1_554
Mg12 Tb0 3.448508 1_555
Mg12 Tb3 3.469072 1_554
Mg12 Tb4 3.469074 1_555
Mg12 Tb1 3.548129 1_555
Mg13 Mg22 2.838646 1_455
Mg13 Mg14 3.025388 1_566
Mg13 Mg2 3.199504 1_565
Mg13 Mg7 3.427019 1_555
Mg13 Mg4 3.427029 1_555
Mg13 Tb0 3.448509 1_566
Mg13 Tb3 3.469075 1_565
Mg13 Tb2 3.469075 1_556
Mg13 Tb1 3.548127 1_566
Mg14 Mg20 2.838648 1_555
Mg14 Mg8 2.939086 1_555
Mg14 Mg5 3.427031 1_545
Mg14 Tb0 3.448508 1_555
Mg14 Tb2 3.469072 1_545
Mg14 Tb4 3.469074 1_555
Mg14 Tb1 3.548130 1_555
Mg15 Mg17 3.025386 1_454
Mg15 Mg16 3.025388 1_555
Mg15 Mg5 3.199503 1_555
Mg15 Mg4 3.199505 1_554
Mg15 Mg9 3.427026 1_555
Mg15 Mg6 3.427029 1_554
Mg15 Tb0 3.448511 1_555
Mg15 Tb3 3.469073 1_554
Mg15 Tb4 3.469075 1_555
Mg15 Tb2 3.548130 1_555
Mg16 Mg19 2.838651 1_555
Mg16 Mg7 2.939090 1_555
Mg16 Mg17 3.025388 1_454
Mg16 Mg5 3.199502 1_555
Mg16 Mg3 3.199510 1_455
Mg16 Tb0 3.448510 1_555
Mg16 Tb4 3.469071 1_555
Mg16 Tb1 3.469072 1_455
Mg16 Tb2 3.548133 1_555
Mg17 Mg23 2.838648 1_545
Mg17 Mg4 3.199505 1_655
Mg17 Mg3 3.199511 1_556
Mg17 Mg2 3.427026 1_555
Mg17 Mg8 3.427027 1_555
Mg17 Tb0 3.448511 1_656
Mg17 Tb3 3.469073 1_655
Mg17 Tb1 3.469075 1_556
Mg17 Tb2 3.548130 1_656
Mg18 Mg21 2.838648 1_554
Mg18 Mg9 2.939095 1_555
Mg18 Mg20 3.025386 1_665
Mg18 Mg19 3.025388 1_665
Mg18 Mg8 3.199511 1_565
Mg18 Mg7 3.199518 1_655
Mg18 Mg3 3.427027 1_555
Mg18 Tb0 3.448511 1_665
Mg18 Tb2 3.469073 1_655
Mg18 Tb1 3.469075 1_565
Mg18 Tb3 3.548131 1_665
Mg19 Mg4 2.939095 1_555
Mg19 Mg20 3.025388 1_555
Mg19 Mg6 3.199502 1_555
Mg19 Mg8 3.199510 1_455
Mg19 Tb0 3.448510 1_555
Mg19 Tb4 3.469071 1_555
Mg19 Tb1 3.469072 1_455
Mg19 Tb3 3.548133 1_555
Mg20 Mg6 3.199503 1_555
Mg20 Mg7 3.199518 1_545
Mg20 Mg5 3.427029 1_545
Mg20 Tb0 3.448511 1_555
Mg20 Tb2 3.469073 1_545
Mg20 Tb4 3.469075 1_555
Mg20 Tb3 3.548130 1_555
Mg21 Mg6 2.939093 1_555
Mg21 Mg22 3.025388 1_555
Mg21 Mg23 3.025391 1_555
Mg21 Mg3 3.427029 1_556
Mg21 Tb0 3.448508 1_666
Mg21 Tb2 3.469072 1_656
Mg21 Tb1 3.469074 1_566
Mg21 Tb4 3.548130 1_555
Mg22 Mg23 3.025388 1_555
Mg22 Mg9 3.199504 1_555
Mg22 Mg7 3.427018 1_655
Mg22 Mg4 3.427029 1_655
Mg22 Tb0 3.448509 1_666
Mg22 Tb3 3.469075 1_665
Mg22 Tb2 3.469075 1_656
Mg22 Tb4 3.548127 1_555
Mg23 Mg5 2.939093 1_555
Mg23 Mg9 3.199504 1_555
Mg23 Mg8 3.427029 1_565
Mg23 Tb0 3.448508 1_666
Mg23 Tb3 3.469072 1_665
Mg23 Tb1 3.469074 1_566
Mg23 Tb4 3.548130 1_555
