# generated using pymatgen
data_K2TeMo2(PO7)2
_symmetry_space_group_name_H-M   'P 1'
_cell_length_a   8.63677716
_cell_length_b   11.09218661
_cell_length_c   12.55253392
_cell_angle_alpha   90.00000000
_cell_angle_beta   90.00000000
_cell_angle_gamma   90.00000000
_symmetry_Int_Tables_number   1
_chemical_formula_structural   K2TeMo2(PO7)2
_chemical_formula_sum   'K8 Te4 Mo8 P8 O56'
_cell_volume   1202.54208822
_cell_formula_units_Z   4
loop_
 _symmetry_equiv_pos_site_id
 _symmetry_equiv_pos_as_xyz
  1  'x, y, z'
loop_
 _atom_site_type_symbol
 _atom_site_label
 _atom_site_symmetry_multiplicity
 _atom_site_fract_x
 _atom_site_fract_y
 _atom_site_fract_z
 _atom_site_occupancy
  K  K0  1  0.02668477  0.21877055  0.30199841  1
  K  K1  1  0.97331523  0.78122945  0.69800159  1
  K  K2  1  0.47331523  0.71877055  0.19800159  1
  K  K3  1  0.02668477  0.28122945  0.69800159  1
  K  K4  1  0.52668477  0.28122945  0.80199841  1
  K  K5  1  0.97331523  0.71877055  0.30199841  1
  K  K6  1  0.47331523  0.78122945  0.80199841  1
  K  K7  1  0.52668477  0.21877055  0.19800159  1
  Te  Te0  1  0.13436566  0.25000000  0.00000000  1
  Te  Te1  1  0.86563434  0.75000000  0.00000000  1
  Te  Te2  1  0.36563434  0.75000000  0.50000000  1
  Te  Te3  1  0.63436566  0.25000000  0.50000000  1
  Mo  Mo0  1  0.23551344  0.47805970  0.37991844  1
  Mo  Mo1  1  0.76448656  0.52194030  0.62008156  1
  Mo  Mo2  1  0.26448656  0.97805970  0.12008156  1
  Mo  Mo3  1  0.23551344  0.02194030  0.62008156  1
  Mo  Mo4  1  0.73551344  0.02194030  0.87991844  1
  Mo  Mo5  1  0.76448656  0.97805970  0.37991844  1
  Mo  Mo6  1  0.26448656  0.52194030  0.87991844  1
  Mo  Mo7  1  0.73551344  0.47805970  0.12008156  1
  P  P0  1  0.35471372  0.00688181  0.36956006  1
  P  P1  1  0.64528628  0.99311819  0.63043994  1
  P  P2  1  0.14528628  0.50688181  0.13043994  1
  P  P3  1  0.35471372  0.49311819  0.63043994  1
  P  P4  1  0.85471372  0.49311819  0.86956006  1
  P  P5  1  0.64528628  0.50688181  0.36956006  1
  P  P6  1  0.14528628  0.99311819  0.86956006  1
  P  P7  1  0.85471372  0.00688181  0.13043994  1
  O  O0  1  0.26917440  0.05951509  0.46658565  1
  O  O1  1  0.73082560  0.94048491  0.53341435  1
  O  O2  1  0.23082560  0.55951509  0.03341435  1
  O  O3  1  0.26917440  0.44048491  0.53341435  1
  O  O4  1  0.76917440  0.44048491  0.96658565  1
  O  O5  1  0.73082560  0.55951509  0.46658565  1
  O  O6  1  0.23082560  0.94048491  0.96658565  1
  O  O7  1  0.76917440  0.05951509  0.03341435  1
  O  O8  1  0.31126372  0.34370951  0.33772819  1
  O  O9  1  0.68873628  0.65629049  0.66227181  1
  O  O10  1  0.18873628  0.84370951  0.16227181  1
  O  O11  1  0.31126372  0.15629049  0.66227181  1
  O  O12  1  0.81126372  0.15629049  0.83772819  1
  O  O13  1  0.68873628  0.84370951  0.33772819  1
  O  O14  1  0.18873628  0.65629049  0.83772819  1
  O  O15  1  0.81126372  0.34370951  0.16227181  1
  O  O16  1  0.02143634  0.05089305  0.12751995  1
  O  O17  1  0.97856366  0.94910695  0.87247905  1
  O  O18  1  0.47856366  0.55089305  0.37248005  1
  O  O19  1  0.02143634  0.44910695  0.87247905  1
  O  O20  1  0.52143634  0.44910695  0.62752095  1
  O  O21  1  0.97856366  0.55089305  0.12751995  1
  O  O22  1  0.47856366  0.94910695  0.62752095  1
  O  O23  1  0.52143634  0.05089305  0.37248005  1
  O  O24  1  0.28080512  0.15508156  0.07063626  1
  O  O25  1  0.71919488  0.84491844  0.92936374  1
  O  O26  1  0.21919488  0.65508156  0.42936374  1
  O  O27  1  0.28080512  0.34491844  0.92936374  1
  O  O28  1  0.78080512  0.34491844  0.57063626  1
  O  O29  1  0.71919488  0.65508156  0.07063626  1
  O  O30  1  0.21919488  0.84491844  0.57063626  1
  O  O31  1  0.78080512  0.15508156  0.42936374  1
  O  O32  1  0.04203019  0.45154010  0.37746130  1
  O  O33  1  0.95796981  0.54845990  0.62253870  1
  O  O34  1  0.45796981  0.95154010  0.12253870  1
  O  O35  1  0.04203019  0.04845990  0.62253870  1
  O  O36  1  0.54203019  0.04845990  0.87746130  1
  O  O37  1  0.95796981  0.95154010  0.37746130  1
  O  O38  1  0.45796981  0.54845990  0.87746130  1
  O  O39  1  0.54203019  0.45154010  0.12253870  1
  O  O40  1  0.27252881  0.05479192  0.26903838  1
  O  O41  1  0.72747119  0.94520808  0.73096162  1
  O  O42  1  0.22747119  0.55479192  0.23096162  1
  O  O43  1  0.27252881  0.44520808  0.73096162  1
  O  O44  1  0.77252881  0.44520808  0.76903838  1
  O  O45  1  0.72747119  0.55479192  0.26903838  1
  O  O46  1  0.22747119  0.94520808  0.76903838  1
  O  O47  1  0.77252881  0.05479192  0.23096162  1
  O  O48  1  0.15647037  0.36854716  0.13102892  1
  O  O49  1  0.84352963  0.63145284  0.86897108  1
  O  O50  1  0.34352963  0.86854716  0.36897108  1
  O  O51  1  0.15647037  0.13145284  0.86897108  1
  O  O52  1  0.65647037  0.13145284  0.63102892  1
  O  O53  1  0.84352963  0.86854716  0.13102892  1
  O  O54  1  0.34352963  0.63145284  0.63102892  1
  O  O55  1  0.65647037  0.36854716  0.36897108  1
loop_
_geom_bond_atom_site_label_1
_geom_bond_atom_site_label_2
_geom_bond_distance
_geom_bond_site_symmetry_2
K0 O31 2.750420 1_455
K0 O32 2.753394 1_555
K0 O40 2.826289 1_555
K0 O8 2.857048 1_555
K0 O16 2.875121 1_555
K0 O15 2.908339 1_455
K0 O48 2.936378 1_555
K0 O47 2.986948 1_455
K0 O37 3.167933 1_445
K1 O30 2.750420 1_655
K1 O33 2.753394 1_555
K1 O41 2.826289 1_555
K1 O9 2.857048 1_555
K1 O17 2.875111 1_555
K1 O14 2.908339 1_655
K1 O49 2.936378 1_555
K1 O46 2.986948 1_655
K1 O35 3.167933 1_665
K2 O29 2.750420 1_555
K2 O34 2.753394 1_555
K2 O42 2.826289 1_555
K2 O10 2.857048 1_555
K2 O18 2.875121 1_555
K2 O13 2.908339 1_555
K2 O50 2.936378 1_555
K2 O45 2.986948 1_555
K2 O39 3.167933 1_555
K3 O28 2.750420 1_455
K3 O35 2.753394 1_555
K3 O43 2.826289 1_555
K3 O11 2.857048 1_555
K3 O19 2.875111 1_555
K3 O12 2.908339 1_455
K3 O51 2.936378 1_555
K3 O44 2.986948 1_455
K3 O33 3.167933 1_455
K4 O27 2.750420 1_555
K4 O36 2.753394 1_555
K4 O44 2.826289 1_555
K4 O12 2.857048 1_555
K4 O20 2.875111 1_555
K4 O11 2.908339 1_555
K4 O52 2.936378 1_555
K4 O43 2.986948 1_555
K4 O38 3.167933 1_555
K5 O26 2.750420 1_655
K5 O37 2.753394 1_555
K5 O45 2.826289 1_555
K5 O13 2.857048 1_555
K5 O21 2.875121 1_555
K5 O10 2.908339 1_655
K5 O53 2.936378 1_555
K5 O42 2.986948 1_655
K5 O32 3.167933 1_655
K6 O25 2.750420 1_555
K6 O38 2.753394 1_555
K6 O46 2.826289 1_555
K6 O14 2.857048 1_555
K6 O22 2.875111 1_555
K6 O9 2.908339 1_555
K6 O54 2.936378 1_555
K6 O41 2.986948 1_555
K6 O36 3.167933 1_565
K7 O24 2.750420 1_555
K7 O39 2.753394 1_555
K7 O47 2.826289 1_555
K7 O15 2.857048 1_555
K7 O23 2.875121 1_555
K7 O8 2.908339 1_555
K7 O55 2.936378 1_555
K7 O40 2.986948 1_555
K7 O34 3.167933 1_545
Mo0 O32 1.697045 1_555
Mo0 O8 1.711521 1_555
Mo0 O3 1.992648 1_555
Mo0 O42 2.055564 1_555
Mo0 O26 2.064135 1_555
Mo0 O18 2.251201 1_555
Mo1 O33 1.697045 1_555
Mo1 O9 1.711521 1_555
Mo1 O5 1.992648 1_555
Mo1 O44 2.055564 1_555
Mo1 O28 2.064135 1_555
Mo1 O20 2.251202 1_555
Mo2 O34 1.697045 1_555
Mo2 O10 1.711521 1_555
Mo2 O6 1.992648 1_554
Mo2 O40 2.055564 1_565
Mo2 O24 2.064135 1_565
Mo2 O16 2.251201 1_565
Mo3 O35 1.697045 1_555
Mo3 O11 1.711521 1_555
Mo3 O0 1.992648 1_555
Mo3 O46 2.055564 1_545
Mo3 O30 2.064135 1_545
Mo3 O22 2.251202 1_545
Mo4 O36 1.697045 1_555
Mo4 O12 1.711521 1_555
Mo4 O7 1.992648 1_556
Mo4 O41 2.055564 1_545
Mo4 O25 2.064135 1_545
Mo4 O17 2.251202 1_545
Mo5 O37 1.697045 1_555
Mo5 O13 1.711521 1_555
Mo5 O1 1.992648 1_555
Mo5 O47 2.055564 1_565
Mo5 O31 2.064135 1_565
Mo5 O23 2.251201 1_565
Mo6 O38 1.697045 1_555
Mo6 O14 1.711521 1_555
Mo6 O2 1.992648 1_556
Mo6 O43 2.055564 1_555
Mo6 O27 2.064135 1_555
Mo6 O19 2.251202 1_555
Mo7 O39 1.697045 1_555
Mo7 O15 1.711521 1_555
Mo7 O4 1.992648 1_554
Mo7 O45 2.055564 1_555
Mo7 O29 2.064135 1_555
Mo7 O21 2.251201 1_555
O0 P0 1.539470 1_555
O1 P1 1.539470 1_555
O2 P2 1.539470 1_555
O3 P3 1.539470 1_555
O4 P4 1.539470 1_555
O5 P5 1.539470 1_555
O6 P6 1.539470 1_555
O7 P7 1.539470 1_555
O16 P7 1.520891 1_455
O17 P6 1.520891 1_655
O18 P5 1.520891 1_555
O19 P4 1.520891 1_455
O20 P3 1.520891 1_555
O21 P2 1.520891 1_655
O22 P1 1.520891 1_555
O23 P0 1.520891 1_555
O24 Te0 1.869306 1_555
O25 Te1 1.869306 1_556
O26 Te2 1.869306 1_555
O27 Te0 1.869306 1_556
O28 Te3 1.869306 1_555
O29 Te1 1.869306 1_555
O30 Te2 1.869306 1_555
O31 Te3 1.869306 1_555
O40 P0 1.542204 1_555
O41 P1 1.542204 1_555
O42 P2 1.542204 1_555
O43 P3 1.542204 1_555
O44 P4 1.542204 1_555
O45 P5 1.542204 1_555
O46 P6 1.542204 1_555
O47 P7 1.542204 1_555
O48 P2 1.537489 1_555
O48 Te0 2.114408 1_555
O49 P4 1.537489 1_555
O49 Te1 2.114408 1_556
O50 P0 1.537489 1_565
O50 Te2 2.114408 1_555
O51 P6 1.537489 1_545
O51 Te0 2.114408 1_556
O52 P1 1.537489 1_545
O52 Te3 2.114408 1_555
O53 P7 1.537489 1_565
O53 Te1 2.114408 1_555
O54 P3 1.537489 1_555
O54 Te2 2.114408 1_555
O55 P5 1.537489 1_555
O55 Te3 2.114408 1_555
