# generated using pymatgen
data_Sr(Mg4Al3)4
_symmetry_space_group_name_H-M   'P 1'
_cell_length_a   8.95109420
_cell_length_b   9.33727551
_cell_length_c   9.33727542
_cell_angle_alpha   110.29383533
_cell_angle_beta   108.63552817
_cell_angle_gamma   108.63552464
_symmetry_Int_Tables_number   1
_chemical_formula_structural   Sr(Mg4Al3)4
_chemical_formula_sum   'Sr1 Mg16 Al12'
_cell_volume   606.83426947
_cell_formula_units_Z   1
loop_
 _symmetry_equiv_pos_site_id
 _symmetry_equiv_pos_as_xyz
  1  'x, y, z'
loop_
 _atom_site_type_symbol
 _atom_site_label
 _atom_site_symmetry_multiplicity
 _atom_site_fract_x
 _atom_site_fract_y
 _atom_site_fract_z
 _atom_site_occupancy
  Sr  Sr0  1  0.37451600  0.99999900  0.99999900  1
  Mg  Mg0  1  0.99567400  0.34051900  0.00000000  1
  Mg  Mg1  1  0.61677100  0.33354300  0.00000000  1
  Mg  Mg2  1  0.31400600  0.60069600  0.00000000  1
  Mg  Mg3  1  0.99181000  0.00000100  0.00000100  1
  Mg  Mg4  1  0.68704800  0.68581100  0.29204900  1
  Mg  Mg5  1  0.00123700  0.60623700  0.31418800  1
  Mg  Mg6  1  0.61677100  0.00000000  0.33354300  1
  Mg  Mg7  1  0.99567400  0.99999900  0.34051900  1
  Mg  Mg8  1  0.39500000  0.70795100  0.39376400  1
  Mg  Mg9  1  0.71331100  0.39930500  0.39930400  1
  Mg  Mg10  1  0.31400700  0.99999900  0.60069600  1
  Mg  Mg11  1  0.00123700  0.31418800  0.60623700  1
  Mg  Mg12  1  0.65515500  0.65948000  0.65948000  1
  Mg  Mg13  1  0.28323000  0.66645800  0.66645800  1
  Mg  Mg14  1  0.68704700  0.29204900  0.68581100  1
  Mg  Mg15  1  0.39500000  0.39376300  0.70795100  1
  Al  Al0  1  0.63434200  0.81815400  0.99999900  1
  Al  Al1  1  0.81254400  0.63851200  0.00000000  1
  Al  Al2  1  0.36196900  0.36616600  0.18048300  1
  Al  Al3  1  0.81618800  0.18184600  0.18184700  1
  Al  Al4  1  0.18148400  0.81951600  0.18568200  1
  Al  Al5  1  0.17403100  0.36148900  0.36148800  1
  Al  Al6  1  0.36196900  0.18048200  0.36616600  1
  Al  Al7  1  0.99580400  0.81431800  0.63383500  1
  Al  Al8  1  0.81254400  0.00000000  0.63851200  1
  Al  Al9  1  0.99580400  0.63383500  0.81431800  1
  Al  Al10  1  0.63434300  0.99999900  0.81815300  1
  Al  Al11  1  0.18148500  0.18568200  0.81951600  1
loop_
_geom_bond_atom_site_label_1
_geom_bond_atom_site_label_2
_geom_bond_distance
_geom_bond_site_symmetry_2
Mg0 Mg5 3.089225 1_655
Mg0 Mg14 3.089241 1_554
Mg0 Mg2 3.097896 1_655
Mg0 Mg3 3.168631 1_555
Mg0 Mg1 3.371347 1_555
Mg1 Mg14 3.114312 1_554
Mg1 Mg5 3.114313 1_655
Mg1 Mg4 3.163918 1_555
Mg1 Mg15 3.163921 1_554
Mg1 Sr0 3.175770 1_544
Mg2 Mg4 3.193582 1_555
Mg2 Mg8 3.213230 1_555
Mg2 Sr0 3.592183 1_554
Mg3 Mg7 3.168634 1_545
Mg3 Sr0 3.425649 1_644
Mg4 Mg7 3.089231 1_555
Mg4 Mg8 3.094256 1_555
Mg4 Mg5 3.094261 1_655
Mg4 Mg6 3.114317 1_565
Mg4 Mg9 3.213207 1_555
Mg5 Mg8 3.094256 1_555
Mg5 Mg9 3.193575 1_455
Mg6 Mg8 3.163928 1_545
Mg6 Sr0 3.175770 1_544
Mg6 Mg7 3.371350 1_545
Mg9 Sr0 3.592201 1_544
Mg10 Mg7 3.097902 1_455
Mg10 Mg8 3.193568 1_555
Mg10 Mg14 3.193574 1_565
Mg10 Mg5 3.213218 1_555
Mg10 Mg15 3.213232 1_565
Mg10 Sr0 3.592180 1_555
Mg11 Mg7 3.089232 1_445
Mg11 Mg15 3.094258 1_555
Mg11 Mg14 3.094270 1_455
Mg11 Mg6 3.114313 1_455
Mg11 Mg13 3.163931 1_555
Mg11 Mg9 3.193585 1_455
Mg11 Mg2 3.213221 1_556
Mg12 Mg8 3.089221 1_555
Mg12 Mg15 3.089226 1_555
Mg12 Mg9 3.097885 1_555
Mg12 Mg3 3.168650 1_566
Mg12 Mg13 3.371342 1_555
Mg13 Mg8 3.114300 1_555
Mg13 Mg15 3.114309 1_555
Mg13 Mg5 3.163931 1_555
Mg13 Sr0 3.175754 1_555
Mg14 Mg15 3.094243 1_555
Mg14 Mg6 3.163922 1_555
Mg14 Mg9 3.213224 1_555
Mg15 Mg2 3.193585 1_556
Al0 Al1 2.658544 1_556
Al0 Al10 2.786730 1_555
Al0 Al3 2.786737 1_566
Al0 Mg2 2.936616 1_556
Al0 Mg13 3.069623 1_555
Al0 Mg6 3.069649 1_566
Al0 Mg12 3.102647 1_555
Al0 Mg7 3.102652 1_556
Al0 Mg3 3.106295 1_566
Al0 Sr0 3.288729 1_555
Al0 Mg15 3.327704 1_555
Al0 Mg4 3.327721 1_556
Al1 Al4 2.740340 1_655
Al1 Al9 2.740355 1_554
Al1 Mg1 2.826738 1_555
Al1 Mg14 3.053161 1_554
Al1 Mg5 3.053162 1_655
Al1 Mg7 3.142894 1_555
Al1 Mg12 3.142902 1_554
Al1 Mg15 3.214411 1_554
Al1 Mg4 3.214417 1_555
Al1 Mg3 3.241324 1_565
Al2 Al5 2.740362 1_555
Al2 Al6 2.845546 1_555
Al2 Mg4 2.969150 1_555
Al2 Mg8 2.974912 1_555
Al2 Mg9 2.998950 1_555
Al2 Mg0 3.055236 1_455
Al2 Mg2 3.243179 1_555
Al2 Mg1 3.267863 1_555
Al2 Mg3 3.271473 1_455
Al2 Sr0 3.303296 1_544
Al3 Al5 2.658537 1_655
Al3 Mg9 2.936603 1_555
Al3 Mg6 3.069633 1_555
Al3 Mg1 3.069646 1_555
Al3 Mg7 3.102650 1_545
Al3 Mg0 3.102654 1_555
Al3 Mg3 3.106297 1_555
Al3 Sr0 3.288735 1_544
Al3 Mg11 3.327697 1_655
Al3 Mg5 3.327708 1_655
Al4 Al6 2.765850 1_565
Al4 Al9 2.845523 1_454
Al4 Mg8 2.969173 1_555
Al4 Mg5 2.974903 1_555
Al4 Mg2 2.998951 1_555
Al4 Mg7 3.055225 1_455
Al4 Mg10 3.243182 1_555
Al4 Mg6 3.267878 1_565
Al4 Mg3 3.271473 1_465
Al4 Sr0 3.303296 1_554
Al5 Al6 2.740378 1_555
Al5 Mg13 2.826734 1_555
Al5 Mg8 3.053153 1_555
Al5 Mg15 3.053169 1_555
Al5 Mg0 3.142894 1_455
Al5 Mg7 3.142915 1_445
Al5 Mg5 3.214396 1_555
Al5 Mg11 3.214407 1_555
Al5 Mg3 3.241317 1_455
Al6 Mg14 2.969142 1_555
Al6 Mg15 2.974912 1_555
Al6 Mg9 2.998960 1_555
Al6 Mg7 3.055236 1_445
Al6 Mg10 3.243177 1_545
Al6 Mg6 3.267856 1_555
Al6 Mg3 3.271474 1_455
Al6 Sr0 3.303294 1_544
Al7 Al8 2.740355 1_565
Al7 Al9 2.765850 1_555
Al7 Mg5 2.969165 1_655
Al7 Mg4 2.974919 1_555
Al7 Mg10 2.998947 1_655
Al7 Mg12 3.055237 1_555
Al7 Mg9 3.243179 1_555
Al7 Mg13 3.267871 1_655
Al7 Mg3 3.271481 1_566
Al7 Sr0 3.303275 1_655
Al8 Mg6 2.826737 1_555
Al8 Mg11 3.053162 1_655
Al8 Mg4 3.053164 1_545
Al8 Mg0 3.142899 1_556
Al8 Mg12 3.142903 1_545
Al8 Mg8 3.214410 1_545
Al8 Mg14 3.214423 1_555
Al8 Mg3 3.241324 1_556
Al9 Mg11 2.969165 1_655
Al9 Mg14 2.974923 1_555
Al9 Mg2 2.998943 1_656
Al9 Mg12 3.055237 1_555
Al9 Mg9 3.243185 1_555
Al9 Mg13 3.267871 1_655
Al9 Mg3 3.271481 1_566
Al9 Sr0 3.303275 1_655
Al10 Al8 2.658529 1_565
Al10 Al3 2.786753 1_566
Al10 Mg10 2.936607 1_555
Al10 Mg13 3.069631 1_555
Al10 Mg1 3.069656 1_566
Al10 Mg12 3.102641 1_555
Al10 Mg0 3.102645 1_566
Al10 Mg3 3.106289 1_566
Al10 Sr0 3.288744 1_555
Al10 Mg8 3.327690 1_555
Al10 Mg14 3.327714 1_565
Al11 Al8 2.740348 1_455
Al11 Al2 2.765857 1_556
Al11 Al7 2.845523 1_445
Al11 Mg15 2.969163 1_555
Al11 Mg11 2.974907 1_555
Al11 Mg10 2.998956 1_545
Al11 Mg0 3.055238 1_456
Al11 Mg2 3.243185 1_556
Al11 Mg1 3.267870 1_556
Al11 Mg3 3.271478 1_456
Al11 Sr0 3.303291 1_545
