# generated using pymatgen
data_GaN
_symmetry_space_group_name_H-M   'P 1'
_cell_length_a   10.84855438
_cell_length_b   11.78700036
_cell_length_c   11.53785924
_cell_angle_alpha   92.16414004
_cell_angle_beta   88.79691170
_cell_angle_gamma   90.12722740
_symmetry_Int_Tables_number   1
_chemical_formula_structural   GaN
_chemical_formula_sum   'Ga50 N50'
_cell_volume   1473.98932538
_cell_formula_units_Z   50
loop_
 _symmetry_equiv_pos_site_id
 _symmetry_equiv_pos_as_xyz
  1  'x, y, z'
loop_
 _atom_site_type_symbol
 _atom_site_label
 _atom_site_symmetry_multiplicity
 _atom_site_fract_x
 _atom_site_fract_y
 _atom_site_fract_z
 _atom_site_occupancy
  Ga  Ga0  1  0.06481070  0.58043400  0.72012811  1
  Ga  Ga1  1  0.22688770  0.63764791  0.41324649  1
  Ga  Ga2  1  0.15959269  0.66774780  0.10088078  1
  Ga  Ga3  1  0.93849420  0.72319220  0.55129576  1
  Ga  Ga4  1  0.11094286  0.20177785  0.13421240  1
  Ga  Ga5  1  0.49977447  0.53555238  0.76640474  1
  Ga  Ga6  1  0.46954607  0.81791762  0.78984470  1
  Ga  Ga7  1  0.10097223  0.96796834  0.09064003  1
  Ga  Ga8  1  0.44338262  0.44291713  0.51049827  1
  Ga  Ga9  1  0.86213556  0.01197937  0.18881737  1
  Ga  Ga10  1  0.25966192  0.81809934  0.90278285  1
  Ga  Ga11  1  0.18993618  0.05025595  0.80218876  1
  Ga  Ga12  1  0.70651437  0.40671497  0.92235881  1
  Ga  Ga13  1  0.80142964  0.20541419  0.14825702  1
  Ga  Ga14  1  0.81612338  0.16209866  0.49824557  1
  Ga  Ga15  1  0.44481272  0.04529312  0.79624616  1
  Ga  Ga16  1  0.02572148  0.01954044  0.55805588  1
  Ga  Ga17  1  0.59993862  0.66883503  0.98579503  1
  Ga  Ga18  1  0.65383588  0.64179832  0.41358719  1
  Ga  Ga19  1  0.74772487  0.02600133  0.68025016  1
  Ga  Ga20  1  0.05408567  0.84052034  0.31986092  1
  Ga  Ga21  1  0.46556645  0.73187319  0.19107465  1
  Ga  Ga22  1  0.95236005  0.40703350  0.56322293  1
  Ga  Ga23  1  0.63217980  0.19916267  0.94581214  1
  Ga  Ga24  1  0.24493524  0.32118083  0.41790828  1
  Ga  Ga25  1  0.60330999  0.93322534  0.01159794  1
  Ga  Ga26  1  0.98203177  0.39396559  0.11239044  1
  Ga  Ga27  1  0.98253546  0.57014139  0.31565151  1
  Ga  Ga28  1  0.49230194  0.01357753  0.52270620  1
  Ga  Ga29  1  0.87756186  0.03756125  0.93336175  1
  Ga  Ga30  1  0.94498753  0.56604045  0.97499700  1
  Ga  Ga31  1  0.68215358  0.37177877  0.64866836  1
  Ga  Ga32  1  0.00911475  0.21725065  0.65829765  1
  Ga  Ga33  1  0.18646153  0.41333733  0.61060639  1
  Ga  Ga34  1  0.35798567  0.01550409  0.06726332  1
  Ga  Ga35  1  0.01020510  0.30965231  0.89581774  1
  Ga  Ga36  1  0.66004486  0.77359563  0.60958808  1
  Ga  Ga37  1  0.76764938  0.75296602  0.81999889  1
  Ga  Ga38  1  0.22383701  0.45725134  0.83812588  1
  Ga  Ga39  1  0.76420845  0.56545513  0.16338866  1
  Ga  Ga40  1  0.80535674  0.40305148  0.37081195  1
  Ga  Ga41  1  0.84428934  0.79939258  0.07369250  1
  Ga  Ga42  1  0.93496555  0.89941990  0.71108798  1
  Ga  Ga43  1  0.40478589  0.24032938  0.69629582  1
  Ga  Ga44  1  0.48443578  0.92818772  0.30684417  1
  Ga  Ga45  1  0.36065754  0.64521368  0.99140520  1
  Ga  Ga46  1  0.18535576  0.08605107  0.34183091  1
  Ga  Ga47  1  0.43186063  0.65983242  0.52391435  1
  Ga  Ga48  1  0.75339375  0.57587761  0.67544435  1
  Ga  Ga49  1  0.05125048  0.76409083  0.83700906  1
  N  N0  1  0.29614358  0.16795477  0.45723360  1
  N  N1  1  0.51509787  0.06680783  0.95491189  1
  N  N2  1  0.55277366  0.13597383  0.21915133  1
  N  N3  1  0.08207308  0.97829639  0.40864409  1
  N  N4  1  0.03663961  0.70130638  0.40768924  1
  N  N5  1  0.04893488  0.47308504  0.86909451  1
  N  N6  1  0.78747502  0.55555221  0.32686381  1
  N  N7  1  0.36272581  0.53405706  0.87105702  1
  N  N8  1  0.75757330  0.83323419  0.36138104  1
  N  N9  1  0.19994772  0.78417806  0.22631757  1
  N  N10  1  0.49952282  0.68971759  0.67723166  1
  N  N11  1  0.61071610  0.80706313  0.89580977  1
  N  N12  1  0.99819183  0.30476898  0.34379236  1
  N  N13  1  0.92418070  0.56649961  0.61585891  1
  N  N14  1  0.13456319  0.23406799  0.78548796  1
  N  N15  1  0.11159631  0.25408213  0.30729643  1
  N  N16  1  0.78187324  0.14138733  0.83444904  1
  N  N17  1  0.57224358  0.22159713  0.44385219  1
  N  N18  1  0.00481019  0.41839041  0.39671246  1
  N  N19  1  0.70380985  0.70361077  0.11889865  1
  N  N20  1  0.30776619  0.43673910  0.23126278  1
  N  N21  1  0.26270347  0.43917157  0.14453304  1
  N  N22  1  0.36459589  0.29167409  0.94932809  1
  N  N23  1  0.97169678  0.87563502  0.17547938  1
  N  N24  1  0.22726029  0.81156816  0.59526159  1
  N  N25  1  0.22368757  0.96832160  0.96413944  1
  N  N26  1  0.64089918  0.54722839  0.87044536  1
  N  N27  1  0.47417638  0.90920264  0.13912907  1
  N  N28  1  0.27664789  0.89565399  0.59998396  1
  N  N29  1  0.57445146  0.44953577  0.18151419  1
  N  N30  1  0.53116240  0.29431323  0.39411942  1
  N  N31  1  0.98284082  0.09814536  0.06304560  1
  N  N32  1  0.71003128  0.91479679  0.33680686  1
  N  N33  1  0.90655731  0.31538469  0.25169592  1
  N  N34  1  0.22123657  0.07310138  0.17729038  1
  N  N35  1  0.02463153  0.56397896  0.14617710  1
  N  N36  1  0.28673933  0.72805258  0.27684739  1
  N  N37  1  0.52493249  0.42526148  0.09945699  1
  N  N38  1  0.78623683  0.33830367  0.78170265  1
  N  N39  1  0.82528458  0.45871793  0.04316021  1
  N  N40  1  0.77636528  0.95077348  0.04201285  1
  N  N41  1  0.37105741  0.14212222  0.53808217  1
  N  N42  1  0.48445529  0.19376739  0.17958427  1
  N  N43  1  0.23419994  0.30791807  0.74824781  1
  N  N44  1  0.78797027  0.32926862  0.51421288  1
  N  N45  1  0.50002270  0.38517710  0.66292549  1
  N  N46  1  0.59617731  0.94050209  0.63442387  1
  N  N47  1  0.85761202  0.24054064  0.79870745  1
  N  N48  1  0.29047591  0.24043145  0.99295357  1
  N  N49  1  0.90279559  0.71622478  0.93189757  1
loop_
_geom_bond_atom_site_label_1
_geom_bond_atom_site_label_2
_geom_bond_distance
_geom_bond_site_symmetry_2
Ga0 N13 1.965421 1_455
Ga0 N5 2.176159 1_555
Ga1 N36 2.028416 1_555
Ga1 N4 2.200669 1_555
Ga2 N35 1.980163 1_555
Ga2 N9 2.010864 1_555
Ga3 N4 1.959700 1_655
Ga3 N13 2.021872 1_555
Ga3 Ga42 2.724600 1_555
Ga4 N31 2.015511 1_455
Ga4 N34 2.017198 1_555
Ga4 N15 2.067804 1_555
Ga4 N48 2.564407 1_554
Ga5 N7 1.896021 1_555
Ga5 N26 1.966631 1_555
Ga5 N45 2.099332 1_555
Ga5 N10 2.121776 1_555
Ga6 N10 1.978265 1_555
Ga6 N11 1.986937 1_555
Ga7 N25 1.954853 1_554
Ga7 N23 2.031144 1_455
Ga7 N31 2.039825 1_465
Ga7 N34 2.047290 1_565
Ga8 N45 2.017761 1_555
Ga8 N30 2.356696 1_555
Ga9 N23 2.000318 1_545
Ga9 N40 2.055765 1_545
Ga9 N31 2.208543 1_555
Ga9 N32 2.640364 1_545
Ga10 N25 1.919775 1_555
Ga11 N25 2.173680 1_545
Ga11 N14 2.265896 1_555
Ga12 N26 1.925262 1_555
Ga12 N38 1.969077 1_555
Ga12 N39 1.996483 1_556
Ga13 N33 2.083028 1_555
Ga13 N31 2.504872 1_555
Ga14 N44 1.995675 1_555
Ga15 N1 2.004925 1_555
Ga16 N3 1.864307 1_545
Ga16 Ga42 2.490225 1_445
Ga17 N19 1.954319 1_556
Ga17 N26 1.963978 1_555
Ga17 N11 1.966729 1_555
Ga18 N6 2.001336 1_555
Ga18 N8 2.604581 1_555
Ga19 N46 1.996762 1_545
Ga19 N16 2.234942 1_555
Ga19 Ga42 2.561786 1_545
Ga20 N3 1.914162 1_555
Ga20 N23 1.965070 1_455
Ga20 N4 1.967601 1_555
Ga20 N9 1.997170 1_555
Ga21 N36 2.160421 1_555
Ga21 N27 2.197314 1_555
Ga22 N13 1.975808 1_555
Ga22 N18 2.001445 1_655
Ga22 N44 2.082395 1_555
Ga23 N1 2.013984 1_555
Ga23 N16 2.145495 1_555
Ga24 N0 1.962991 1_555
Ga24 N15 2.083970 1_555
Ga24 N20 2.667054 1_555
Ga25 N40 1.926400 1_555
Ga25 N11 1.961780 1_554
Ga25 N1 1.983300 1_564
Ga25 N27 2.037401 1_555
Ga26 N33 2.040955 1_555
Ga26 N39 2.054517 1_555
Ga26 N35 2.079856 1_655
Ga27 N4 1.939221 1_655
Ga27 N35 1.997307 1_655
Ga27 N18 2.066467 1_655
Ga27 N6 2.124348 1_555
Ga28 N46 1.955106 1_545
Ga28 N41 2.008982 1_555
Ga29 N40 1.964000 1_546
Ga29 N16 2.009627 1_555
Ga29 N31 2.010142 1_556
Ga29 Ga42 3.039429 1_545
Ga30 N49 1.915756 1_555
Ga30 N5 1.952349 1_655
Ga30 N39 1.982447 1_556
Ga30 N35 2.173323 1_656
Ga31 N44 1.960755 1_555
Ga31 N38 1.976660 1_555
Ga31 N45 1.985393 1_555
Ga32 N14 2.026253 1_555
Ga32 N47 2.292996 1_455
Ga33 N43 2.126185 1_555
Ga34 N25 1.966438 1_544
Ga34 N27 1.993919 1_545
Ga34 N34 2.033134 1_555
Ga34 N1 2.216534 1_554
Ga35 N5 2.004588 1_555
Ga35 N14 2.020354 1_555
Ga35 N47 2.159250 1_455
Ga36 N46 2.094683 1_555
Ga36 N10 2.147727 1_555
Ga37 N11 1.992573 1_555
Ga37 N49 2.031876 1_555
Ga37 Ga42 2.812089 1_555
Ga38 N7 1.796170 1_555
Ga38 N5 1.931536 1_555
Ga38 N43 2.011072 1_555
Ga39 N19 1.851120 1_555
Ga39 N6 1.916158 1_555
Ga39 N39 1.944076 1_555
Ga39 N29 2.477786 1_555
Ga40 N6 1.897464 1_555
Ga40 N44 1.903749 1_555
Ga40 N33 1.999087 1_555
Ga40 N18 2.196652 1_655
Ga41 N19 1.967910 1_555
Ga41 N49 1.969366 1_554
Ga41 N40 1.981620 1_555
Ga41 N23 2.019952 1_555
Ga42 Ga49 2.550998 1_655
Ga43 N45 2.038567 1_555
Ga43 N43 2.083900 1_555
Ga43 N41 2.161639 1_555
Ga44 N27 1.945045 1_555
Ga44 N32 2.485052 1_555
Ga45 N7 1.872607 1_555
Ga46 N3 1.869285 1_545
Ga46 N34 1.930352 1_555
Ga46 N0 2.028395 1_555
Ga46 N15 2.191300 1_555
Ga47 N10 1.948951 1_555
Ga48 N13 1.964530 1_555
Ga49 N49 2.019723 1_455
N0 N41 1.295277 1_555
N2 N42 1.123259 1_555
N12 N15 1.417864 1_655
N12 N18 1.453007 1_655
N12 N33 1.479175 1_555
N14 N43 1.454400 1_555
N16 N47 1.492980 1_555
N17 N30 1.145464 1_555
N20 N21 1.124248 1_555
N22 N48 1.126297 1_555
N24 N28 1.125673 1_555
N29 N37 1.125628 1_555
N32 N8 1.139991 1_555
N36 N9 1.311119 1_555
N38 N47 1.411861 1_555
