# generated using pymatgen
data_PuZr4C5
_symmetry_space_group_name_H-M   'P 1'
_cell_length_a   13.96943334
_cell_length_b   13.96943334
_cell_length_c   13.96943329
_cell_angle_alpha   13.83740369
_cell_angle_beta   13.83740369
_cell_angle_gamma   13.83740210
_symmetry_Int_Tables_number   1
_chemical_formula_structural   PuZr4C5
_chemical_formula_sum   'Pu1 Zr4 C5'
_cell_volume   135.69895748
_cell_formula_units_Z   1
loop_
 _symmetry_equiv_pos_site_id
 _symmetry_equiv_pos_as_xyz
  1  'x, y, z'
loop_
 _atom_site_type_symbol
 _atom_site_label
 _atom_site_symmetry_multiplicity
 _atom_site_fract_x
 _atom_site_fract_y
 _atom_site_fract_z
 _atom_site_occupancy
  Pu  Pu0  1  0.00000000  0.00000000  0.00000000  1
  Zr  Zr0  1  0.59717400  0.59717400  0.59717400  1
  Zr  Zr1  1  0.19906800  0.19906800  0.19906800  1
  Zr  Zr2  1  0.80093200  0.80093200  0.80093200  1
  Zr  Zr3  1  0.40282600  0.40282600  0.40282600  1
  C  C0  1  0.70089500  0.70089500  0.70089500  1
  C  C1  1  0.50000000  0.50000000  0.50000000  1
  C  C2  1  0.10060900  0.10060900  0.10060900  1
  C  C3  1  0.29910500  0.29910500  0.29910500  1
  C  C4  1  0.89939100  0.89939100  0.89939100  1
loop_
_geom_bond_atom_site_label_1
_geom_bond_atom_site_label_2
_geom_bond_distance
_geom_bond_site_symmetry_2
C0 Pu0 2.406961 1_566
C0 Pu0 2.406961 1_656
C0 Pu0 2.406961 1_665
C0 Zr3 2.432582 1_655
C0 Zr3 2.432582 1_565
C0 Zr3 2.432583 1_556
C1 Zr2 2.363006 1_545
C1 Zr1 2.363006 1_565
C1 Zr2 2.363006 1_455
C1 Zr1 2.363006 1_655
C1 Zr2 2.363006 1_554
C1 Zr1 2.363006 1_556
C2 Zr3 2.333071 1_545
C2 Zr3 2.333071 1_455
C2 Zr3 2.333071 1_554
C2 Zr2 2.393028 1_454
C2 Zr2 2.393028 1_544
C2 Zr2 2.393028 1_445
C3 Pu0 2.406961 1_565
C3 Pu0 2.406961 1_655
C3 Pu0 2.406961 1_556
C3 Zr0 2.432582 1_455
C3 Zr0 2.432582 1_545
C3 Zr0 2.432583 1_554
C4 Zr0 2.333071 1_565
C4 Zr0 2.333071 1_655
C4 Zr0 2.333071 1_556
C4 Zr1 2.393028 1_656
C4 Zr1 2.393028 1_566
C4 Zr1 2.393028 1_665
