# generated using pymatgen
data_Ho8Sb3O8
_symmetry_space_group_name_H-M   'P 1'
_cell_length_a   6.84530885
_cell_length_b   6.84530885
_cell_length_c   14.89839950
_cell_angle_alpha   73.47120571
_cell_angle_beta   73.47120571
_cell_angle_gamma   31.57101415
_symmetry_Int_Tables_number   1
_chemical_formula_structural   Ho8Sb3O8
_chemical_formula_sum   'Ho8 Sb3 O8'
_cell_volume   349.16163687
_cell_formula_units_Z   1
loop_
 _symmetry_equiv_pos_site_id
 _symmetry_equiv_pos_as_xyz
  1  'x, y, z'
loop_
 _atom_site_type_symbol
 _atom_site_label
 _atom_site_symmetry_multiplicity
 _atom_site_fract_x
 _atom_site_fract_y
 _atom_site_fract_z
 _atom_site_occupancy
  Ho  Ho0  1  0.45064340  0.45846774  0.82954564  1
  Ho  Ho1  1  0.54153226  0.54935660  0.17045436  1
  Ho  Ho2  1  0.64537919  0.64284139  0.56978211  1
  Ho  Ho3  1  0.35715861  0.35462081  0.43021789  1
  Ho  Ho4  1  0.87788443  0.87917117  0.65159957  1
  Ho  Ho5  1  0.12082883  0.12211557  0.34840043  1
  Ho  Ho6  1  0.71428372  0.72694404  0.91136013  1
  Ho  Ho7  1  0.27305596  0.28571628  0.08863987  1
  Sb  Sb0  1  0.17334021  0.17085022  0.73328427  1
  Sb  Sb1  1  0.82914978  0.82665979  0.26671573  1
  Sb  Sb2  1  0.98598214  0.01401786  -0.00000000  1
  O  O0  1  0.29104153  0.30371887  0.93395816  1
  O  O1  1  0.69628113  0.70895847  0.06604184  1
  O  O2  1  0.87842778  0.88708737  0.79740894  1
  O  O3  1  0.11291263  0.12157222  0.20259106  1
  O  O4  1  0.16590351  0.16315455  0.48609821  1
  O  O5  1  0.83684545  0.83409649  0.51390179  1
  O  O6  1  0.47076281  0.47181535  0.63126098  1
  O  O7  1  0.52818465  0.52923719  0.36873902  1
loop_
_geom_bond_atom_site_label_1
_geom_bond_atom_site_label_2
_geom_bond_distance
_geom_bond_site_symmetry_2
Ho0 O0 2.191572 1_555
Ho0 O2 2.203096 1_545
Ho0 O2 2.205724 1_455
Ho0 O6 2.896641 1_555
Ho0 Sb2 3.321961 1_556
Ho0 Sb0 3.352098 1_565
Ho0 Sb2 3.363893 1_466
Ho0 Sb0 3.373370 1_655
Ho1 O1 2.191572 1_555
Ho1 O3 2.203096 1_655
Ho1 O3 2.205724 1_565
Ho1 O7 2.896641 1_555
Ho1 Sb2 3.321961 1_555
Ho1 Sb1 3.352098 1_455
Ho1 Sb2 3.363893 1_465
Ho1 Sb1 3.373370 1_545
Ho2 O6 2.188541 1_555
Ho2 O4 2.212395 1_565
Ho2 O4 2.213057 1_655
Ho2 O5 2.409923 1_555
Ho2 Sb0 3.173016 1_655
Ho2 Sb0 3.173121 1_565
Ho3 O7 2.188541 1_555
Ho3 O5 2.212395 1_455
Ho3 O5 2.213057 1_545
Ho3 O4 2.409923 1_555
Ho3 Sb1 3.173016 1_545
Ho3 Sb1 3.173121 1_455
Ho4 O2 2.189491 1_555
Ho4 O6 2.198267 1_565
Ho4 O6 2.199006 1_655
Ho4 O5 2.284395 1_555
Ho4 Sb0 3.218980 1_565
Ho4 Sb0 3.227107 1_655
Ho5 O3 2.189491 1_555
Ho5 O7 2.198267 1_455
Ho5 O7 2.199006 1_545
Ho5 O4 2.284395 1_555
Ho5 Sb1 3.218980 1_455
Ho5 Sb1 3.227107 1_545
Ho6 O0 2.192049 1_655
Ho6 O0 2.192103 1_565
Ho6 O1 2.245871 1_556
Ho6 O2 2.302377 1_555
Ho6 Sb2 3.359121 1_556
Ho6 Sb2 3.390717 1_466
Ho6 Sb0 3.437060 1_565
Ho6 Sb0 3.467496 1_655
Ho7 O1 2.192049 1_545
Ho7 O1 2.192103 1_455
Ho7 O0 2.245871 1_554
Ho7 O3 2.302377 1_555
Ho7 Sb2 3.359121 1_555
Ho7 Sb2 3.390717 1_465
Ho7 Sb1 3.437060 1_455
Ho7 Sb1 3.467496 1_545
