# generated using pymatgen
data_Tl5Sb10As3S22
_symmetry_space_group_name_H-M   'P 1'
_cell_length_a   7.65609811
_cell_length_b   8.86158672
_cell_length_c   17.99660658
_cell_angle_alpha   103.46539513
_cell_angle_beta   91.46618934
_cell_angle_gamma   109.77051555
_symmetry_Int_Tables_number   1
_chemical_formula_structural   Tl5Sb10As3S22
_chemical_formula_sum   'Tl5 Sb10 As3 S22'
_cell_volume   1110.13886312
_cell_formula_units_Z   1
loop_
 _symmetry_equiv_pos_site_id
 _symmetry_equiv_pos_as_xyz
  1  'x, y, z'
loop_
 _atom_site_type_symbol
 _atom_site_label
 _atom_site_symmetry_multiplicity
 _atom_site_fract_x
 _atom_site_fract_y
 _atom_site_fract_z
 _atom_site_occupancy
  Tl  Tl0  1  0.68354300  0.75103400  0.62299400  1
  Tl  Tl1  1  0.31610100  0.25118400  0.37792900  1
  Tl  Tl2  1  0.22926600  0.64717000  0.18520000  1
  Tl  Tl3  1  0.76872500  0.35805100  0.81469200  1
  Tl  Tl4  1  0.79791100  0.93201800  0.97529300  1
  Sb  Sb0  1  0.28642400  0.77868900  0.81086600  1
  Sb  Sb1  1  0.71047000  0.22288300  0.19143200  1
  Sb  Sb2  1  0.16670700  0.79754600  0.59600400  1
  Sb  Sb3  1  0.83887100  0.20583700  0.40524200  1
  Sb  Sb4  1  0.41401300  0.79489400  0.41179700  1
  Sb  Sb5  1  0.57824200  0.20380400  0.58925600  1
  Sb  Sb6  1  0.76162200  0.82453100  0.20835300  1
  Sb  Sb7  1  0.24124800  0.18138900  0.79778800  1
  Sb  Sb8  1  0.31424100  0.07075400  0.01809700  1
  Sb  Sb9  1  0.86406300  0.67142500  0.39284600  1
  As  As0  1  0.13917300  0.33274700  0.61870100  1
  As  As1  1  0.26350100  0.54822300  0.96722200  1
  As  As2  1  0.75051500  0.44524300  0.02896200  1
  S  S0  1  0.91308600  0.71944500  0.09177000  1
  S  S1  1  0.07139400  0.27331000  0.90834200  1
  S  S2  1  0.44402100  0.96345200  0.68892600  1
  S  S3  1  0.56545000  0.04032200  0.30949800  1
  S  S4  1  0.48472500  0.38079500  0.08955900  1
  S  S5  1  0.49848200  0.58353400  0.89679200  1
  S  S6  1  0.01429400  0.85820000  0.30839900  1
  S  S7  1  0.99588900  0.14929100  0.68963600  1
  S  S8  1  0.09184400  0.68451600  0.91561200  1
  S  S9  1  0.91552200  0.32366700  0.08794500  1
  S  S10  1  0.05203300  0.55015500  0.67983900  1
  S  S11  1  0.96365500  0.44463200  0.32224600  1
  S  S12  1  0.54507500  0.57736600  0.32754200  1
  S  S13  1  0.44327700  0.41965900  0.67054000  1
  S  S14  1  0.71878800  0.96510900  0.48781800  1
  S  S15  1  0.27505900  0.03190500  0.51206100  1
  S  S16  1  0.48249100  0.94755400  0.09314400  1
  S  S17  1  0.49762500  0.07817600  0.90763000  1
  S  S18  1  0.69417100  0.38417700  0.49091000  1
  S  S19  1  0.30622700  0.61653200  0.50799500  1
  S  S20  1  0.03042000  0.89409700  0.79532300  1
  S  S21  1  0.96193700  0.10048500  0.19690100  1
loop_
_geom_bond_atom_site_label_1
_geom_bond_atom_site_label_2
_geom_bond_distance
_geom_bond_site_symmetry_2
As0 S13 2.285914 1_555
As0 S10 2.299412 1_555
As0 S7 2.303851 1_455
As1 S5 2.204899 1_555
As1 S1 2.348403 1_555
As1 S8 2.362700 1_555
As2 S9 2.295243 1_555
As2 S4 2.296461 1_555
As2 S0 2.309537 1_555
S0 Sb6 2.561066 1_555
S0 Tl2 3.230989 1_655
S1 Sb7 2.531274 1_555
S1 Tl3 3.215727 1_455
S2 Sb2 2.455069 1_555
S2 Sb5 3.033610 1_565
S2 Sb0 3.069984 1_555
S2 Tl0 3.117757 1_555
S3 Sb3 2.462442 1_555
S3 Sb1 2.978443 1_555
S3 Sb6 3.112491 1_545
S3 Sb4 3.119594 1_545
S3 Tl1 3.180328 1_555
S4 Sb8 2.597817 1_555
S5 Tl4 3.130643 1_555
S6 Sb6 2.500823 1_455
S6 Sb9 2.518942 1_455
S7 Sb7 2.567409 1_655
S8 Sb0 2.550393 1_555
S8 Tl3 3.204584 1_455
S9 Sb1 2.589701 1_555
S9 Tl2 3.137059 1_655
S10 Sb0 2.825398 1_555
S10 Sb2 2.856447 1_555
S11 Sb9 2.476255 1_555
S11 Sb3 2.792659 1_555
S11 Sb1 2.862915 1_555
S12 Sb9 2.461732 1_555
S12 Sb4 2.654618 1_555
S12 Tl1 3.181892 1_555
S13 Sb5 2.641558 1_555
S13 Tl0 3.214880 1_555
S14 Sb4 2.467014 1_555
S14 Sb3 2.797125 1_565
S14 Sb5 2.967583 1_565
S15 Sb5 2.468962 1_555
S15 Sb2 2.764630 1_545
S15 Sb4 2.940025 1_545
S16 Sb8 2.494868 1_565
S16 Sb1 2.660708 1_565
S17 Sb8 2.463552 1_556
S17 Sb0 2.736956 1_545
S18 Sb3 2.497787 1_555
S18 Sb5 2.629315 1_555
S18 Tl1 3.190074 1_555
S19 Sb2 2.507028 1_555
S19 Sb4 2.577103 1_555
S19 Tl0 3.203868 1_555
S20 Sb7 2.500503 1_565
S20 Sb0 2.535141 1_555
S21 Sb6 2.467428 1_545
S21 Sb1 2.519018 1_555
