# generated using pymatgen
data_Ba3Sr2Re3ClO15
_symmetry_space_group_name_H-M   'P 1'
_cell_length_a   10.90359366
_cell_length_b   10.90359366
_cell_length_c   7.82034600
_cell_angle_alpha   90.00000000
_cell_angle_beta   90.00000000
_cell_angle_gamma   119.99999792
_symmetry_Int_Tables_number   1
_chemical_formula_structural   Ba3Sr2Re3ClO15
_chemical_formula_sum   'Ba6 Sr4 Re6 Cl2 O30'
_cell_volume   805.18546340
_cell_formula_units_Z   2
loop_
 _symmetry_equiv_pos_site_id
 _symmetry_equiv_pos_as_xyz
  1  'x, y, z'
loop_
 _atom_site_type_symbol
 _atom_site_label
 _atom_site_symmetry_multiplicity
 _atom_site_fract_x
 _atom_site_fract_y
 _atom_site_fract_z
 _atom_site_occupancy
  Ba  Ba0  1  0.73682600  0.00000000  0.22672600  1
  Ba  Ba1  1  0.00000000  0.73682600  0.22672600  1
  Ba  Ba2  1  0.26317400  0.00000000  0.72672600  1
  Ba  Ba3  1  0.00000000  0.26317400  0.72672600  1
  Ba  Ba4  1  0.26317400  0.26317400  0.22672600  1
  Ba  Ba5  1  0.73682600  0.73682600  0.72672600  1
  Sr  Sr0  1  0.33333300  0.66666700  0.47171600  1
  Sr  Sr1  1  0.66666700  0.33333300  0.97171600  1
  Sr  Sr2  1  0.33333300  0.66666700  0.97171600  1
  Sr  Sr3  1  0.66666700  0.33333300  0.47171600  1
  Re  Re0  1  0.39175400  0.00000000  0.17022000  1
  Re  Re1  1  0.00000000  0.39175400  0.17022000  1
  Re  Re2  1  0.60824600  0.00000000  0.67022000  1
  Re  Re3  1  0.00000000  0.60824600  0.67022000  1
  Re  Re4  1  0.60824600  0.60824600  0.17022000  1
  Re  Re5  1  0.39175400  0.39175400  0.67022000  1
  Cl  Cl0  1  0.00000000  0.00000000  0.00187300  1
  Cl  Cl1  1  0.00000000  0.00000000  0.50187300  1
  O  O0  1  0.13553400  0.57998500  0.21384100  1
  O  O1  1  0.42001500  0.55554900  0.21384100  1
  O  O2  1  0.86446600  0.42001500  0.71384100  1
  O  O3  1  0.42001500  0.86446600  0.71384100  1
  O  O4  1  0.44445100  0.86446600  0.21384100  1
  O  O5  1  0.57998500  0.44445100  0.71384100  1
  O  O6  1  0.44445100  0.57998500  0.71384100  1
  O  O7  1  0.57998500  0.13553400  0.21384100  1
  O  O8  1  0.55554900  0.13553400  0.71384100  1
  O  O9  1  0.55554900  0.42001500  0.21384100  1
  O  O10  1  0.13553400  0.55554900  0.71384100  1
  O  O11  1  0.86446600  0.44445100  0.21384100  1
  O  O12  1  0.13474700  0.39231400  0.02613400  1
  O  O13  1  0.60768600  0.74243300  0.02613400  1
  O  O14  1  0.86525300  0.60768600  0.52613400  1
  O  O15  1  0.60768600  0.86525300  0.52613400  1
  O  O16  1  0.25756700  0.86525300  0.02613400  1
  O  O17  1  0.39231400  0.25756700  0.52613400  1
  O  O18  1  0.25756700  0.39231400  0.52613400  1
  O  O19  1  0.39231400  0.13474700  0.02613400  1
  O  O20  1  0.74243300  0.13474700  0.52613400  1
  O  O21  1  0.74243300  0.60768600  0.02613400  1
  O  O22  1  0.13474700  0.74243300  0.52613400  1
  O  O23  1  0.86525300  0.25756700  0.02613400  1
  O  O24  1  0.29195500  0.00000000  0.34753600  1
  O  O25  1  0.00000000  0.29195500  0.34753600  1
  O  O26  1  0.70804500  0.00000000  0.84753600  1
  O  O27  1  0.00000000  0.70804500  0.84753600  1
  O  O28  1  0.70804500  0.70804500  0.34753600  1
  O  O29  1  0.29195500  0.29195500  0.84753600  1
loop_
_geom_bond_atom_site_label_1
_geom_bond_atom_site_label_2
_geom_bond_distance
_geom_bond_site_symmetry_2
Ba0 O20 2.748644 1_555
Ba0 O15 2.748644 1_545
Ba0 O7 2.765115 1_555
Ba0 O4 2.765115 1_545
Ba0 O23 2.894165 1_555
Ba0 O13 2.894165 1_545
Ba0 O26 2.981956 1_554
Ba0 O28 3.182116 1_545
Ba0 O25 3.182117 1_655
Ba0 Cl0 3.365463 1_655
Ba0 Cl1 3.586681 1_655
Ba1 O22 2.748644 1_555
Ba1 O14 2.748644 1_455
Ba1 O0 2.765115 1_555
Ba1 O11 2.765115 1_455
Ba1 O16 2.894165 1_555
Ba1 O21 2.894165 1_455
Ba1 O27 2.981956 1_554
Ba1 O28 3.182116 1_455
Ba1 O24 3.182117 1_565
Ba1 Cl0 3.365463 1_565
Ba1 Cl1 3.586681 1_565
Ba2 O16 2.748644 1_546
Ba2 O19 2.748644 1_556
Ba2 O3 2.765115 1_545
Ba2 O8 2.765115 1_555
Ba2 O22 2.894165 1_545
Ba2 O17 2.894165 1_555
Ba2 O24 2.981956 1_555
Ba2 O29 3.182116 1_555
Ba2 O27 3.182117 1_545
Ba2 Cl1 3.365463 1_555
Ba2 Cl0 3.586681 1_556
Ba3 O23 2.748644 1_456
Ba3 O12 2.748644 1_556
Ba3 O2 2.765115 1_455
Ba3 O10 2.765115 1_555
Ba3 O20 2.894165 1_455
Ba3 O18 2.894165 1_555
Ba3 O25 2.981956 1_555
Ba3 O29 3.182116 1_555
Ba3 O26 3.182117 1_455
Ba3 Cl1 3.365463 1_555
Ba3 Cl0 3.586681 1_556
Ba4 O17 2.748644 1_555
Ba4 O18 2.748644 1_555
Ba4 O1 2.765115 1_555
Ba4 O9 2.765115 1_555
Ba4 O19 2.894165 1_555
Ba4 O12 2.894165 1_555
Ba4 O29 2.981956 1_554
Ba4 O25 3.182116 1_555
Ba4 O24 3.182116 1_555
Ba4 Cl0 3.365463 1_555
Ba4 Cl1 3.586681 1_555
Ba5 O21 2.748644 1_556
Ba5 O13 2.748644 1_556
Ba5 O6 2.765115 1_555
Ba5 O5 2.765115 1_555
Ba5 O14 2.894165 1_555
Ba5 O15 2.894165 1_555
Ba5 O28 2.981956 1_555
Ba5 O26 3.182116 1_565
Ba5 O27 3.182116 1_655
Ba5 Cl1 3.365463 1_665
Ba5 Cl0 3.586681 1_666
O0 Re1 1.865359 1_555
O0 Sr2 2.663020 1_554
O0 Sr0 2.751961 1_555
O1 Re4 1.865359 1_555
O1 Sr2 2.663027 1_554
O1 Sr0 2.751968 1_555
O2 Re3 1.865359 1_655
O2 Sr3 2.663020 1_555
O2 Sr1 2.751961 1_555
O3 Re2 1.865359 1_565
O3 Sr0 2.663020 1_555
O3 Sr2 2.751961 1_555
O4 Re0 1.865359 1_565
O4 Sr2 2.663020 1_554
O4 Sr0 2.751962 1_555
O5 Re5 1.865359 1_555
O5 Sr3 2.663027 1_555
O5 Sr1 2.751968 1_555
O6 Re5 1.865359 1_555
O6 Sr0 2.663027 1_555
O6 Sr2 2.751968 1_555
O7 Re0 1.865359 1_555
O7 Sr1 2.663020 1_554
O7 Sr3 2.751961 1_555
O8 Re2 1.865359 1_555
O8 Sr3 2.663020 1_555
O8 Sr1 2.751962 1_555
O9 Re4 1.865359 1_555
O9 Sr1 2.663027 1_554
O9 Sr3 2.751968 1_555
O10 Re3 1.865359 1_555
O10 Sr0 2.663020 1_555
O10 Sr2 2.751962 1_555
O11 Re1 1.865359 1_655
O11 Sr1 2.663020 1_554
O11 Sr3 2.751962 1_555
O12 Re1 1.849156 1_555
O12 Sr2 2.709420 1_554
O13 Re4 1.849156 1_555
O13 Sr2 2.709423 1_554
O14 Re3 1.849156 1_655
O14 Sr3 2.709420 1_555
O15 Re2 1.849156 1_565
O15 Sr0 2.709420 1_555
O16 Re0 1.849156 1_565
O16 Sr2 2.709412 1_554
O17 Re5 1.849156 1_555
O17 Sr3 2.709423 1_555
O18 Re5 1.849156 1_555
O18 Sr0 2.709423 1_555
O19 Re0 1.849156 1_555
O19 Sr1 2.709420 1_554
O20 Re2 1.849156 1_555
O20 Sr3 2.709412 1_555
O21 Re4 1.849156 1_555
O21 Sr1 2.709423 1_554
O22 Re3 1.849156 1_555
O22 Sr0 2.709412 1_555
O23 Re1 1.849156 1_655
O23 Sr1 2.709412 1_554
O24 Re0 1.762660 1_555
O25 Re1 1.762660 1_555
O26 Re2 1.762660 1_555
O27 Re3 1.762660 1_555
O28 Re4 1.762660 1_555
O29 Re5 1.762660 1_555
