# generated using pymatgen
data_Bi4S3N2
_symmetry_space_group_name_H-M   'P 1'
_cell_length_a   6.89113458
_cell_length_b   11.09095480
_cell_length_c   10.88065083
_cell_angle_alpha   90.00000000
_cell_angle_beta   90.00000000
_cell_angle_gamma   90.00000000
_symmetry_Int_Tables_number   1
_chemical_formula_structural   Bi4S3N2
_chemical_formula_sum   'Bi16 S12 N8'
_cell_volume   831.60011462
_cell_formula_units_Z   4
loop_
 _symmetry_equiv_pos_site_id
 _symmetry_equiv_pos_as_xyz
  1  'x, y, z'
loop_
 _atom_site_type_symbol
 _atom_site_label
 _atom_site_symmetry_multiplicity
 _atom_site_fract_x
 _atom_site_fract_y
 _atom_site_fract_z
 _atom_site_occupancy
  Bi  Bi0  1  0.59549365  0.25000000  0.81472879  1
  Bi  Bi1  1  0.09549365  0.25000000  0.68527121  1
  Bi  Bi2  1  0.40450635  0.75000000  0.18527121  1
  Bi  Bi3  1  0.90450635  0.75000000  0.31472879  1
  Bi  Bi4  1  0.73364771  0.25000000  0.45673886  1
  Bi  Bi5  1  0.23364771  0.25000000  0.04326114  1
  Bi  Bi6  1  0.26635229  0.75000000  0.54326114  1
  Bi  Bi7  1  0.76635229  0.75000000  0.95673886  1
  Bi  Bi8  1  0.69141274  0.44178406  0.09234541  1
  Bi  Bi9  1  0.19141274  0.05821594  0.40765459  1
  Bi  Bi10  1  0.30858726  0.94178406  0.90765459  1
  Bi  Bi11  1  0.80858726  0.55821594  0.59234541  1
  Bi  Bi12  1  0.30858726  0.55821594  0.90765459  1
  Bi  Bi13  1  0.80858726  0.94178406  0.59234541  1
  Bi  Bi14  1  0.69141274  0.05821594  0.09234541  1
  Bi  Bi15  1  0.19141274  0.44178406  0.40765459  1
  S  S0  1  0.96311233  0.25000000  0.27141112  1
  S  S1  1  0.46311233  0.25000000  0.22858888  1
  S  S2  1  0.03688767  0.75000000  0.72858888  1
  S  S3  1  0.53688767  0.75000000  0.77141112  1
  S  S4  1  0.61017498  0.57399065  0.37003479  1
  S  S5  1  0.11017498  0.92600935  0.12996521  1
  S  S6  1  0.38982502  0.07399065  0.62996521  1
  S  S7  1  0.88982502  0.42600935  0.87003479  1
  S  S8  1  0.38982502  0.42600935  0.62996521  1
  S  S9  1  0.88982502  0.07399065  0.87003479  1
  S  S10  1  0.61017498  0.92600935  0.37003479  1
  S  S11  1  0.11017498  0.57399065  0.12996521  1
  N  N0  1  0.55395739  0.62138978  0.04514596  1
  N  N1  1  0.05395739  0.87861022  0.45485404  1
  N  N2  1  0.44604261  0.12138978  0.95485404  1
  N  N3  1  0.94604261  0.37861022  0.54514596  1
  N  N4  1  0.44604261  0.37861022  0.95485404  1
  N  N5  1  0.94604261  0.12138978  0.54514596  1
  N  N6  1  0.55395739  0.87861022  0.04514596  1
  N  N7  1  0.05395739  0.62138978  0.45485404  1
loop_
_geom_bond_atom_site_label_1
_geom_bond_atom_site_label_2
_geom_bond_distance
_geom_bond_site_symmetry_2
Bi0 N4 2.328064 1_555
Bi0 N2 2.328064 1_555
Bi0 S9 2.878675 1_555
Bi0 S7 2.878675 1_555
Bi0 S6 3.140215 1_555
Bi0 S8 3.140215 1_555
Bi1 N5 2.328064 1_455
Bi1 N3 2.328064 1_455
Bi1 S6 2.878675 1_555
Bi1 S8 2.878675 1_555
Bi1 S7 3.140215 1_455
Bi1 S9 3.140215 1_455
Bi2 N6 2.328064 1_555
Bi2 N0 2.328064 1_555
Bi2 S11 2.878675 1_555
Bi2 S5 2.878675 1_555
Bi2 S4 3.140215 1_555
Bi2 S10 3.140215 1_555
Bi3 N7 2.328064 1_655
Bi3 N1 2.328064 1_655
Bi3 S4 2.878675 1_555
Bi3 S10 2.878675 1_555
Bi3 S11 3.140215 1_655
Bi3 S5 3.140215 1_655
Bi4 N3 2.258804 1_555
Bi4 N5 2.258804 1_555
Bi4 S0 2.562545 1_555
Bi4 S1 3.104514 1_555
Bi5 N2 2.258804 1_554
Bi5 N4 2.258804 1_554
Bi5 S1 2.562545 1_555
Bi5 S0 3.104514 1_455
Bi6 N1 2.258804 1_555
Bi6 N7 2.258804 1_555
Bi6 S2 2.562545 1_555
Bi6 S3 3.104514 1_555
Bi7 N0 2.258804 1_556
Bi7 N6 2.258804 1_556
Bi7 S3 2.562545 1_555
Bi7 S2 3.104514 1_655
Bi8 N0 2.264738 1_555
Bi8 N4 2.363894 1_554
Bi8 S7 2.784076 1_554
Bi8 S1 3.032671 1_555
Bi8 S11 3.262685 1_655
Bi9 N1 2.264738 1_545
Bi9 N5 2.363894 1_455
Bi9 S6 2.784076 1_555
Bi9 S0 3.032671 1_455
Bi9 S10 3.262685 1_545
Bi10 N2 2.264738 1_565
Bi10 N6 2.363894 1_556
Bi10 S5 2.784076 1_556
Bi10 S3 3.032671 1_555
Bi10 S9 3.262685 1_465
Bi11 N3 2.264738 1_555
Bi11 N7 2.363894 1_655
Bi11 S4 2.784076 1_555
Bi11 S2 3.032671 1_655
Bi11 S8 3.262685 1_555
Bi12 N4 2.264738 1_555
Bi12 N0 2.363894 1_556
Bi12 S11 2.784076 1_556
Bi12 S3 3.032671 1_555
Bi12 S7 3.262685 1_455
Bi13 N5 2.264738 1_565
Bi13 N1 2.363894 1_655
Bi13 S10 2.784076 1_555
Bi13 S2 3.032671 1_655
Bi13 S6 3.262685 1_565
Bi14 N6 2.264738 1_545
Bi14 N2 2.363894 1_554
Bi14 S9 2.784076 1_554
Bi14 S1 3.032671 1_555
Bi14 S5 3.262685 1_645
Bi15 N7 2.264738 1_555
Bi15 N3 2.363894 1_455
Bi15 S8 2.784076 1_555
Bi15 S0 3.032671 1_455
Bi15 S4 3.262685 1_555
