# generated using pymatgen
data_Sr3OsN3
_symmetry_space_group_name_H-M   'P 1'
_cell_length_a   7.79642671
_cell_length_b   7.79666275
_cell_length_c   5.31448904
_cell_angle_alpha   90.00000000
_cell_angle_beta   90.00000000
_cell_angle_gamma   120.00170234
_symmetry_Int_Tables_number   1
_chemical_formula_structural   Sr3OsN3
_chemical_formula_sum   'Sr6 Os2 N6'
_cell_volume   279.76220812
_cell_formula_units_Z   2
loop_
 _symmetry_equiv_pos_site_id
 _symmetry_equiv_pos_as_xyz
  1  'x, y, z'
loop_
 _atom_site_type_symbol
 _atom_site_label
 _atom_site_symmetry_multiplicity
 _atom_site_fract_x
 _atom_site_fract_y
 _atom_site_fract_z
 _atom_site_occupancy
  Sr  Sr0  1  0.90331494  0.64306985  0.25000000  1
  Sr  Sr1  1  0.73974675  0.09667113  0.25000000  1
  Sr  Sr2  1  0.35690837  0.26022045  0.25000000  1
  Sr  Sr3  1  0.09633079  0.35725064  0.75000000  1
  Sr  Sr4  1  0.26092704  0.90368897  0.75000000  1
  Sr  Sr5  1  0.64277618  0.73910440  0.75000000  1
  Os  Os0  1  0.66666046  0.33332668  0.75000000  1
  Os  Os1  1  0.33333495  0.66665923  0.25000000  1
  N  N0  1  0.89351834  0.58230600  0.75000000  1
  N  N1  1  0.68876271  0.10645108  0.75000000  1
  N  N2  1  0.41769782  0.31124725  0.75000000  1
  N  N3  1  0.10746122  0.41673364  0.25000000  1
  N  N4  1  0.30929242  0.89256163  0.25000000  1
  N  N5  1  0.58326702  0.69070803  0.25000000  1
loop_
_geom_bond_atom_site_label_1
_geom_bond_atom_site_label_2
_geom_bond_distance
_geom_bond_site_symmetry_2
N0 Os0 1.860905 1_555
N0 Sr0 2.693518 1_556
N0 Sr0 2.693518 1_555
N0 Sr4 2.702942 1_655
N0 Sr5 2.775988 1_555
N0 Sr3 2.890295 1_655
N1 Os0 1.861029 1_555
N1 Sr1 2.693525 1_555
N1 Sr1 2.693525 1_556
N1 Sr5 2.702698 1_545
N1 Sr3 2.776116 1_655
N1 Sr4 2.889966 1_545
N2 Os0 1.860923 1_555
N2 Sr2 2.693563 1_556
N2 Sr2 2.693563 1_555
N2 Sr3 2.702768 1_555
N2 Sr4 2.776146 1_545
N2 Sr5 2.890192 1_555
N3 Os1 1.861849 1_555
N3 Sr3 2.691340 1_554
N3 Sr3 2.691340 1_555
N3 Sr1 2.700299 1_455
N3 Sr2 2.764894 1_555
N3 Sr0 2.907935 1_455
N4 Os1 1.862102 1_555
N4 Sr4 2.691352 1_555
N4 Sr4 2.691352 1_554
N4 Sr2 2.700093 1_565
N4 Sr0 2.764944 1_455
N4 Sr1 2.907630 1_565
N5 Os1 1.861916 1_555
N5 Sr5 2.691377 1_555
N5 Sr5 2.691377 1_554
N5 Sr0 2.700176 1_555
N5 Sr1 2.764949 1_565
N5 Sr2 2.907936 1_555
