# generated using pymatgen
data_NpGa4
_symmetry_space_group_name_H-M   'P 1'
_cell_length_a   4.25858925
_cell_length_b   6.26695731
_cell_length_c   7.87444667
_cell_angle_alpha   113.47599269
_cell_angle_beta   105.68840129
_cell_angle_gamma   90.00000000
_symmetry_Int_Tables_number   1
_chemical_formula_structural   NpGa4
_chemical_formula_sum   'Np2 Ga8'
_cell_volume   184.19414682
_cell_formula_units_Z   2
loop_
 _symmetry_equiv_pos_site_id
 _symmetry_equiv_pos_as_xyz
  1  'x, y, z'
loop_
 _atom_site_type_symbol
 _atom_site_label
 _atom_site_symmetry_multiplicity
 _atom_site_fract_x
 _atom_site_fract_y
 _atom_site_fract_z
 _atom_site_occupancy
  Np  Np0  1  0.88766652  0.63778558  0.77533504  1
  Np  Np1  1  0.11233348  0.36221442  0.22466496  1
  Ga  Ga0  1  0.50000000  0.00000000  -0.00000000  1
  Ga  Ga1  1  0.50000000  0.50000000  -0.00000000  1
  Ga  Ga2  1  0.10760776  0.85743609  0.21521652  1
  Ga  Ga3  1  0.89239224  0.14256391  0.78478348  1
  Ga  Ga4  1  0.69683757  0.16208555  0.39367513  1
  Ga  Ga5  1  0.30316243  0.83791445  0.60632487  1
  Ga  Ga6  1  0.30308244  0.26950857  0.60616488  1
  Ga  Ga7  1  0.69691756  0.73049143  0.39383512  1
loop_
_geom_bond_atom_site_label_1
_geom_bond_atom_site_label_2
_geom_bond_distance
_geom_bond_site_symmetry_2
Ga0 Ga4 2.725833 1_555
Ga0 Ga5 2.725833 1_544
Ga0 Ga3 3.033236 1_454
Ga0 Ga2 3.033236 1_645
Ga0 Ga2 3.033238 1_545
Ga0 Ga3 3.033238 1_554
Ga0 Np0 3.063994 1_544
Ga0 Np1 3.063994 1_555
Ga0 Np0 3.064000 1_444
Ga0 Np1 3.064000 1_655
Ga0 Ga1 3.133479 1_555
Ga0 Ga1 3.133479 1_545
Ga1 Ga7 2.726142 1_555
Ga1 Ga6 2.726142 1_554
Ga1 Ga3 3.031359 1_454
Ga1 Ga2 3.031359 1_655
Ga1 Ga3 3.031362 1_554
Ga1 Ga2 3.031362 1_555
Ga1 Np1 3.065537 1_555
Ga1 Np0 3.065537 1_554
Ga1 Np0 3.065543 1_454
Ga1 Np1 3.065543 1_655
Ga2 Ga4 2.805673 1_465
Ga2 Ga4 2.805676 1_565
Ga2 Ga7 2.809264 1_455
Ga2 Ga7 2.809268 1_555
Ga2 Ga5 3.017708 1_555
Ga2 Ga6 3.019797 1_565
Ga2 Np0 3.035913 1_454
Ga2 Np1 3.133850 1_555
Ga2 Np1 3.134464 1_565
Ga3 Ga5 2.805673 1_645
Ga3 Ga5 2.805676 1_545
Ga3 Ga6 2.809264 1_655
Ga3 Ga6 2.809268 1_555
Ga3 Ga4 3.017708 1_555
Ga3 Ga7 3.019797 1_545
Ga3 Np1 3.035913 1_656
Ga3 Np0 3.133850 1_555
Ga3 Np0 3.134464 1_545
Ga4 Ga6 2.585470 1_555
Ga4 Ga6 2.585470 1_655
Ga4 Ga7 2.705284 1_545
Ga4 Np1 3.013047 1_555
Ga4 Np1 3.013053 1_655
Ga4 Np0 3.181340 1_555
Ga5 Ga7 2.585470 1_555
Ga5 Ga7 2.585470 1_455
Ga5 Ga6 2.705284 1_565
Ga5 Np0 3.013047 1_555
Ga5 Np0 3.013053 1_455
Ga5 Np1 3.181340 1_555
Ga6 Np0 3.009299 1_555
Ga6 Np0 3.009304 1_455
Ga6 Np1 3.176924 1_555
Ga7 Np1 3.009299 1_555
Ga7 Np1 3.009304 1_655
Ga7 Np0 3.176924 1_555
