# generated using pymatgen
data_V3CrGaSe8
_symmetry_space_group_name_H-M   'P 1'
_cell_length_a   7.38618731
_cell_length_b   7.38618731
_cell_length_c   7.38618763
_cell_angle_alpha   59.40096637
_cell_angle_beta   59.40096637
_cell_angle_gamma   59.40097288
_symmetry_Int_Tables_number   1
_chemical_formula_structural   V3CrGaSe8
_chemical_formula_sum   'V3 Cr1 Ga1 Se8'
_cell_volume   281.05095209
_cell_formula_units_Z   1
loop_
 _symmetry_equiv_pos_site_id
 _symmetry_equiv_pos_as_xyz
  1  'x, y, z'
loop_
 _atom_site_type_symbol
 _atom_site_label
 _atom_site_symmetry_multiplicity
 _atom_site_fract_x
 _atom_site_fract_y
 _atom_site_fract_z
 _atom_site_occupancy
  V  V0  1  0.60562200  0.17475400  0.60562200  1
  V  V1  1  0.17475400  0.60562200  0.60562200  1
  V  V2  1  0.60562200  0.60562200  0.17475400  1
  Cr  Cr0  1  0.61709300  0.61709300  0.61709300  1
  Ga  Ga0  1  0.99836300  0.99836300  0.99836300  1
  Se  Se0  1  0.37109700  0.37109700  0.37109700  1
  Se  Se1  1  0.37666700  0.87361100  0.37666700  1
  Se  Se2  1  0.87361100  0.37666700  0.37666700  1
  Se  Se3  1  0.37666700  0.37666700  0.87361100  1
  Se  Se4  1  0.86191300  0.86191300  0.86191300  1
  Se  Se5  1  0.86480900  0.40897300  0.86480900  1
  Se  Se6  1  0.40897300  0.86480900  0.86480900  1
  Se  Se7  1  0.86480900  0.86480900  0.40897300  1
loop_
_geom_bond_atom_site_label_1
_geom_bond_atom_site_label_2
_geom_bond_distance
_geom_bond_site_symmetry_2
Cr0 Se3 2.501345 1_555
Cr0 Se1 2.501345 1_555
Cr0 Se2 2.501345 1_555
Cr0 Se7 2.596122 1_555
Cr0 Se5 2.596123 1_555
Cr0 Se6 2.596123 1_555
Ga0 Se7 2.458339 1_556
Ga0 Se6 2.458339 1_655
Ga0 Se5 2.458339 1_565
Ga0 Se4 2.479824 1_555
Se0 V2 2.458526 1_555
Se0 V1 2.458526 1_555
Se0 V0 2.458526 1_555
Se1 V1 2.456015 1_555
Se1 V2 2.456015 1_555
Se2 V0 2.456015 1_555
Se2 V2 2.456015 1_555
Se3 V1 2.456015 1_555
Se3 V0 2.456015 1_555
Se4 V2 2.692251 1_556
Se4 V0 2.692252 1_565
Se4 V1 2.692252 1_655
Se5 V1 2.666120 1_655
Se5 V2 2.666120 1_556
Se6 V0 2.666120 1_565
Se6 V2 2.666120 1_556
Se7 V0 2.666120 1_565
Se7 V1 2.666120 1_655
