# generated using pymatgen
data_Zn2Co3O8
_symmetry_space_group_name_H-M   'P 1'
_cell_length_a   5.83240980
_cell_length_b   5.83240980
_cell_length_c   9.47125400
_cell_angle_alpha   90.00000000
_cell_angle_beta   90.00000000
_cell_angle_gamma   119.99999779
_symmetry_Int_Tables_number   1
_chemical_formula_structural   Zn2Co3O8
_chemical_formula_sum   'Zn4 Co6 O16'
_cell_volume   279.01926338
_cell_formula_units_Z   2
loop_
 _symmetry_equiv_pos_site_id
 _symmetry_equiv_pos_as_xyz
  1  'x, y, z'
loop_
 _atom_site_type_symbol
 _atom_site_label
 _atom_site_symmetry_multiplicity
 _atom_site_fract_x
 _atom_site_fract_y
 _atom_site_fract_z
 _atom_site_occupancy
  Zn  Zn0  1  0.66666700  0.33333300  0.02615000  1
  Zn  Zn1  1  0.33333300  0.66666700  0.52615000  1
  Zn  Zn2  1  0.66666700  0.33333300  0.42477300  1
  Zn  Zn3  1  0.33333300  0.66666700  0.92477300  1
  Co  Co0  1  0.67333700  0.83666900  0.24314100  1
  Co  Co1  1  0.83666900  0.16333100  0.74314100  1
  Co  Co2  1  0.16333100  0.32666300  0.24314100  1
  Co  Co3  1  0.83666900  0.67333700  0.74314100  1
  Co  Co4  1  0.32666300  0.16333100  0.74314100  1
  Co  Co5  1  0.16333100  0.83666900  0.24314100  1
  O  O0  1  0.83832500  0.16167500  0.14489800  1
  O  O1  1  0.67665000  0.83832500  0.64489800  1
  O  O2  1  0.16167500  0.32335000  0.64489800  1
  O  O3  1  0.83832500  0.67665000  0.14489800  1
  O  O4  1  0.32335000  0.16167500  0.14489800  1
  O  O5  1  0.16167500  0.83832500  0.64489800  1
  O  O6  1  0.51854000  0.48146000  0.86347900  1
  O  O7  1  0.03707900  0.51854000  0.36347900  1
  O  O8  1  0.48146000  0.96292100  0.36347900  1
  O  O9  1  0.51854000  0.03707900  0.86347900  1
  O  O10  1  0.00000000  0.00000000  0.35510800  1
  O  O11  1  0.00000000  0.00000000  0.85510800  1
  O  O12  1  0.33333300  0.66666700  0.13291700  1
  O  O13  1  0.96292100  0.48146000  0.86347900  1
  O  O14  1  0.48146000  0.51854000  0.36347900  1
  O  O15  1  0.66666700  0.33333300  0.63291700  1
loop_
_geom_bond_atom_site_label_1
_geom_bond_atom_site_label_2
_geom_bond_distance
_geom_bond_site_symmetry_2
Co0 O0 1.887034 1_565
Co0 O3 1.887038 1_555
Co0 O10 1.961384 1_665
Co0 O8 1.979319 1_555
Co0 O14 1.979319 1_555
Co0 O12 2.009775 1_555
Co1 O1 1.887033 1_545
Co1 O2 1.887033 1_655
Co1 O11 1.961379 1_655
Co1 O13 1.979319 1_555
Co1 O9 1.979319 1_555
Co1 O15 2.009775 1_555
Co2 O0 1.887034 1_455
Co2 O4 1.887038 1_555
Co2 O10 1.961384 1_555
Co2 O7 1.979319 1_555
Co2 O14 1.979319 1_555
Co2 O12 2.009775 1_555
Co3 O5 1.887034 1_655
Co3 O1 1.887038 1_555
Co3 O11 1.961384 1_665
Co3 O13 1.979319 1_555
Co3 O6 1.979319 1_555
Co3 O15 2.009775 1_555
Co4 O5 1.887034 1_545
Co4 O2 1.887038 1_555
Co4 O11 1.961384 1_555
Co4 O9 1.979319 1_555
Co4 O6 1.979319 1_555
Co4 O15 2.009775 1_555
Co5 O3 1.887033 1_455
Co5 O4 1.887033 1_565
Co5 O10 1.961379 1_565
Co5 O8 1.979319 1_555
Co5 O7 1.979319 1_555
Co5 O12 2.009775 1_555
O0 Zn0 2.066886 1_555
O1 Zn1 2.066890 1_555
O2 Zn1 2.066890 1_555
O3 Zn0 2.066890 1_555
O4 Zn0 2.066890 1_555
O5 Zn1 2.066886 1_555
O6 Zn3 1.958962 1_555
O6 Zn0 2.147770 1_556
O7 Zn2 1.958953 1_455
O7 Zn1 2.147770 1_555
O8 Zn2 1.958953 1_565
O8 Zn1 2.147770 1_555
O9 Zn3 1.958953 1_545
O9 Zn0 2.147770 1_556
O12 Zn3 1.971385 1_554
O13 Zn3 1.958953 1_655
O13 Zn0 2.147770 1_556
O14 Zn2 1.958962 1_555
O14 Zn1 2.147770 1_555
O15 Zn2 1.971385 1_555
