# generated using pymatgen
data_PuB12
_symmetry_space_group_name_H-M   'P 1'
_cell_length_a   5.28126114
_cell_length_b   5.28125154
_cell_length_c   5.28125451
_cell_angle_alpha   59.99983803
_cell_angle_beta   59.99987457
_cell_angle_gamma   60.00032567
_symmetry_Int_Tables_number   1
_chemical_formula_structural   PuB12
_chemical_formula_sum   'Pu1 B12'
_cell_volume   104.15898047
_cell_formula_units_Z   1
loop_
 _symmetry_equiv_pos_site_id
 _symmetry_equiv_pos_as_xyz
  1  'x, y, z'
loop_
 _atom_site_type_symbol
 _atom_site_label
 _atom_site_symmetry_multiplicity
 _atom_site_fract_x
 _atom_site_fract_y
 _atom_site_fract_z
 _atom_site_occupancy
  Pu  Pu0  1  -0.00000000  0.00000000  -0.00000000  1
  B  B0  1  0.16162605  0.49999978  0.49999918  1
  B  B1  1  0.16162822  0.49999644  0.83837428  1
  B  B2  1  0.16162684  0.83837461  0.49999738  1
  B  B3  1  0.49999952  0.16162552  0.83837611  1
  B  B4  1  0.49999743  0.16162727  0.50000223  1
  B  B5  1  0.83837316  0.16162639  0.50000262  1
  B  B6  1  0.50000048  0.83837448  0.16162389  1
  B  B7  1  0.83837178  0.50000356  0.16162572  1
  B  B8  1  0.49999807  0.50000298  0.16162475  1
  B  B9  1  0.83837395  0.50000022  0.50000082  1
  B  B10  1  0.50000257  0.83837273  0.49999777  1
  B  B11  1  0.50000193  0.49999702  0.83837525  1
loop_
_geom_bond_atom_site_label_1
_geom_bond_atom_site_label_2
_geom_bond_distance
_geom_bond_site_symmetry_2
B0 B9 1.707173 1_455
B0 B8 1.787033 1_555
B0 B4 1.787038 1_555
B0 B2 1.787040 1_555
B0 B1 1.787042 1_555
B0 Pu0 2.775151 1_556
B0 Pu0 2.775159 1_565
B1 B7 1.707184 1_456
B1 B3 1.787033 1_555
B1 B11 1.787044 1_555
B1 B2 1.787053 1_555
B1 Pu0 2.775145 1_556
B1 Pu0 2.775179 1_566
B2 B5 1.707189 1_465
B2 B6 1.787035 1_555
B2 Pu0 2.775154 1_565
B2 Pu0 2.775173 1_566
B3 B6 1.707158 1_546
B3 B5 1.787035 1_555
B3 B4 1.787039 1_555
B3 Pu0 2.775158 1_556
B3 Pu0 2.775167 1_656
B4 B8 1.787048 1_555
B4 B5 1.787049 1_555
B4 Pu0 2.775143 1_556
B4 Pu0 2.775178 1_655
B5 B9 1.787035 1_555
B5 B7 1.787050 1_555
B5 Pu0 2.775153 1_656
B5 Pu0 2.775176 1_655
B6 B8 1.787029 1_555
B6 B7 1.787033 1_555
B6 Pu0 2.775158 1_665
B6 Pu0 2.775167 1_565
B7 B9 1.787042 1_555
B7 B8 1.787044 1_555
B7 Pu0 2.775145 1_665
B7 Pu0 2.775179 1_655
B8 Pu0 2.775162 1_565
B8 Pu0 2.775186 1_655
B9 Pu0 2.775151 1_665
B9 Pu0 2.775159 1_656
B10 B4 1.707187 1_565
B10 B9 1.787038 1_555
B10 B6 1.787039 1_555
B10 B2 1.787047 1_555
B10 B11 1.787048 1_555
B10 Pu0 2.775143 1_665
B10 Pu0 2.775178 1_566
B11 B8 1.707168 1_556
B11 B3 1.787029 1_555
B11 B9 1.787033 1_555
B11 Pu0 2.775162 1_656
B11 Pu0 2.775186 1_566
