# generated using pymatgen
data_TmS2
_symmetry_space_group_name_H-M   'P 1'
_cell_length_a   5.48498488
_cell_length_b   5.48498488
_cell_length_c   5.48498488
_cell_angle_alpha   60.00000000
_cell_angle_beta   60.00000000
_cell_angle_gamma   60.00000000
_symmetry_Int_Tables_number   1
_chemical_formula_structural   TmS2
_chemical_formula_sum   'Tm2 S4'
_cell_volume   116.68399910
_cell_formula_units_Z   2
loop_
 _symmetry_equiv_pos_site_id
 _symmetry_equiv_pos_as_xyz
  1  'x, y, z'
loop_
 _atom_site_type_symbol
 _atom_site_label
 _atom_site_symmetry_multiplicity
 _atom_site_fract_x
 _atom_site_fract_y
 _atom_site_fract_z
 _atom_site_occupancy
  Tm  Tm0  1  0.25000000  0.25000000  0.25000000  1
  Tm  Tm1  1  0.50000000  0.50000000  0.50000000  1
  S  S0  1  0.37500000  0.87500000  0.87500000  1
  S  S1  1  0.87500000  0.37500000  0.87500000  1
  S  S2  1  0.87500000  0.87500000  0.87500000  1
  S  S3  1  0.87500000  0.87500000  0.37500000  1
loop_
_geom_bond_atom_site_label_1
_geom_bond_atom_site_label_2
_geom_bond_distance
_geom_bond_site_symmetry_2
S0 S1 2.742492 1_555
S0 S2 2.742492 1_455
S0 S2 2.742492 1_555
S0 S3 2.742492 1_456
S0 S3 2.742492 1_555
S0 S1 2.742492 1_465
S0 Tm0 3.215857 1_556
S0 Tm0 3.215857 1_565
S0 Tm1 3.215857 1_565
S0 Tm1 3.215857 1_556
S0 Tm0 3.215857 1_566
S0 Tm1 3.215857 1_555
S1 S3 2.742492 1_546
S1 S2 2.742492 1_555
S1 S3 2.742492 1_555
S1 S2 2.742492 1_545
S1 Tm0 3.215857 1_556
S1 Tm0 3.215857 1_655
S1 Tm0 3.215857 1_656
S1 Tm1 3.215857 1_556
S1 Tm1 3.215857 1_655
S1 Tm1 3.215857 1_555
S2 S3 2.742492 1_555
S2 S3 2.742492 1_556
S2 Tm0 3.215857 1_665
S2 Tm0 3.215857 1_656
S2 Tm1 3.215857 1_565
S2 Tm1 3.215857 1_556
S2 Tm0 3.215857 1_566
S2 Tm1 3.215857 1_655
S3 Tm0 3.215857 1_665
S3 Tm0 3.215857 1_565
S3 Tm0 3.215857 1_655
S3 Tm1 3.215857 1_565
S3 Tm1 3.215857 1_655
S3 Tm1 3.215857 1_555
