# generated using pymatgen
data_MgW2O5
_symmetry_space_group_name_H-M   'P 1'
_cell_length_a   5.92236621
_cell_length_b   5.92236621
_cell_length_c   10.90552800
_cell_angle_alpha   90.00000000
_cell_angle_beta   90.00000000
_cell_angle_gamma   142.24841709
_symmetry_Int_Tables_number   1
_chemical_formula_structural   MgW2O5
_chemical_formula_sum   'Mg2 W4 O10'
_cell_volume   234.18457859
_cell_formula_units_Z   2
loop_
 _symmetry_equiv_pos_site_id
 _symmetry_equiv_pos_as_xyz
  1  'x, y, z'
loop_
 _atom_site_type_symbol
 _atom_site_label
 _atom_site_symmetry_multiplicity
 _atom_site_fract_x
 _atom_site_fract_y
 _atom_site_fract_z
 _atom_site_occupancy
  Mg  Mg0  1  0.09680000  0.90320000  0.75000000  1
  Mg  Mg1  1  0.90320000  0.09680000  0.25000000  1
  W  W0  1  0.81001200  0.18998800  0.62379200  1
  W  W1  1  0.18998800  0.81001200  0.37620800  1
  W  W2  1  0.18998800  0.81001200  0.12379200  1
  W  W3  1  0.81001200  0.18998800  0.87620800  1
  O  O0  1  0.33741300  0.66258700  0.25000000  1
  O  O1  1  0.66258700  0.33741300  0.75000000  1
  O  O2  1  0.74510600  0.25489400  0.09259600  1
  O  O3  1  0.25489400  0.74510600  0.90740400  1
  O  O4  1  0.25489400  0.74510600  0.59259600  1
  O  O5  1  0.74510600  0.25489400  0.40740400  1
  O  O6  1  0.96970600  0.03029400  0.62007300  1
  O  O7  1  0.03029400  0.96970600  0.37992700  1
  O  O8  1  0.96970600  0.03029400  0.87992700  1
  O  O9  1  0.03029400  0.96970600  0.12007300  1
loop_
_geom_bond_atom_site_label_1
_geom_bond_atom_site_label_2
_geom_bond_distance
_geom_bond_site_symmetry_2
Mg0 O8 2.009152 1_465
Mg0 O6 2.009152 1_465
Mg0 O1 2.052965 1_565
Mg0 O1 2.052965 1_455
Mg0 O3 2.467018 1_555
Mg0 O4 2.467018 1_555
Mg1 O9 2.009152 1_645
Mg1 O7 2.009152 1_645
Mg1 O0 2.052965 1_545
Mg1 O0 2.052965 1_655
Mg1 O5 2.467018 1_555
Mg1 O2 2.467018 1_555
O0 W1 2.150461 1_555
O0 W2 2.150461 1_555
O1 W3 2.150461 1_555
O1 W0 2.150461 1_555
O2 W2 2.041659 1_655
O2 W2 2.041659 1_545
O2 W3 2.469405 1_554
O3 W3 2.041659 1_455
O3 W3 2.041659 1_565
O3 W2 2.469405 1_556
O4 W0 2.041659 1_455
O4 W0 2.041659 1_565
O4 W1 2.469405 1_555
O5 W1 2.041659 1_655
O5 W1 2.041659 1_545
O5 W0 2.469405 1_555
O6 W0 1.790270 1_555
O7 W1 1.790270 1_555
O8 W3 1.790270 1_555
O9 W2 1.790270 1_555
