# generated using pymatgen
data_Li3FeO3
_symmetry_space_group_name_H-M   'P 1'
_cell_length_a   3.57433300
_cell_length_b   9.08264700
_cell_length_c   9.08467600
_cell_angle_alpha   90.00158320
_cell_angle_beta   90.00016214
_cell_angle_gamma   90.00009225
_symmetry_Int_Tables_number   1
_chemical_formula_structural   Li3FeO3
_chemical_formula_sum   'Li12 Fe4 O12'
_cell_volume   294.92859999
_cell_formula_units_Z   4
loop_
 _symmetry_equiv_pos_site_id
 _symmetry_equiv_pos_as_xyz
  1  'x, y, z'
loop_
 _atom_site_type_symbol
 _atom_site_label
 _atom_site_symmetry_multiplicity
 _atom_site_fract_x
 _atom_site_fract_y
 _atom_site_fract_z
 _atom_site_occupancy
  Li  Li0  1  0.99999900  0.16921300  0.17380100  1
  Li  Li1  1  0.49999900  0.33078000  0.67378500  1
  Li  Li2  1  0.49999800  0.67371600  0.33013100  1
  Li  Li3  1  0.00000100  0.82629200  0.83014900  1
  Li  Li4  1  0.50000000  0.09147300  0.35614000  1
  Li  Li5  1  0.00000000  0.13858800  0.59359400  1
  Li  Li6  1  0.49999900  0.36134000  0.09362400  1
  Li  Li7  1  0.00000100  0.40853900  0.85615600  1
  Li  Li8  1  0.99999800  0.60060600  0.14053200  1
  Li  Li9  1  0.49999900  0.64551700  0.90175900  1
  Li  Li10  1  0.99999800  0.85451700  0.40176700  1
  Li  Li11  1  0.50000100  0.89937300  0.64057500  1
  Fe  Fe0  1  0.00000300  0.61648800  0.61601700  1
  Fe  Fe1  1  0.49999600  0.88353400  0.11602100  1
  Fe  Fe2  1  0.50000700  0.11569800  0.88378400  1
  Fe  Fe3  1  0.99999800  0.38430500  0.38376800  1
  O  O0  1  0.49999900  0.09702800  0.10458100  1
  O  O1  1  0.00000000  0.40298400  0.60456300  1
  O  O2  1  0.00000000  0.60425300  0.40303900  1
  O  O3  1  0.50000100  0.89575400  0.90305100  1
  O  O4  1  0.50000200  0.10957100  0.67544400  1
  O  O5  1  0.00000100  0.17642000  0.38879200  1
  O  O6  1  0.50000300  0.32357300  0.88879600  1
  O  O7  1  0.99999700  0.39041100  0.17545400  1
  O  O8  1  0.99999900  0.61429000  0.81942400  1
  O  O9  1  0.49999700  0.67973100  0.11290400  1
  O  O10  1  0.00000200  0.82028400  0.61291000  1
  O  O11  1  0.50000300  0.88572200  0.31943800  1
loop_
_geom_bond_atom_site_label_1
_geom_bond_atom_site_label_2
_geom_bond_distance
_geom_bond_site_symmetry_2
Li0 O5 1.954218 1_655
Li0 O0 2.004800 1_555
Li0 O0 2.004805 1_655
Li0 O7 2.009119 1_555
Li1 O6 1.954404 1_555
Li1 O1 2.004873 1_555
Li1 O1 2.004880 1_655
Li1 O4 2.009220 1_555
Li2 O11 1.928027 1_555
Li2 O9 1.974194 1_555
Li2 O2 2.007663 1_555
Li2 O2 2.007674 1_655
Li3 O8 1.928000 1_455
Li3 O10 1.974299 1_555
Li3 O3 2.007634 1_555
Li3 O3 2.007639 1_455
Li4 O11 1.898267 1_545
Li4 O5 1.969065 1_555
Li4 O5 1.969068 1_655
Li4 O0 2.285890 1_555
Li5 O5 1.892033 1_555
Li5 O4 1.953542 1_455
Li5 O4 1.953552 1_555
Li5 O1 2.403479 1_555
Li6 O6 1.892140 1_554
Li6 O7 1.953530 1_555
Li6 O7 1.953548 1_455
Li6 O0 2.402718 1_555
Li7 O8 1.898333 1_455
Li7 O6 1.969117 1_455
Li7 O6 1.969131 1_555
Li7 O1 2.286196 1_555
Li8 O7 1.935317 1_555
Li8 O9 1.942533 1_655
Li8 O9 1.942541 1_555
Li8 O2 2.385020 1_655
Li9 O9 1.943184 1_556
Li9 O8 1.958027 1_455
Li9 O8 1.958032 1_555
Li9 O3 2.272844 1_555
Li10 O10 1.943211 1_655
Li10 O11 1.957968 1_555
Li10 O11 1.958003 1_655
Li10 O2 2.273089 1_655
Li11 O4 1.935247 1_565
Li11 O10 1.942449 1_555
Li11 O10 1.942459 1_655
Li11 O3 2.384737 1_555
Fe0 O8 1.847995 1_455
Fe0 O10 1.851223 1_555
Fe0 O2 1.938022 1_555
Fe0 O1 1.941968 1_555
Fe1 O11 1.848084 1_555
Fe1 O9 1.851287 1_555
Fe1 O3 1.937947 1_554
Fe1 O0 1.941877 1_565
Fe2 O6 1.888603 1_555
Fe2 O4 1.893518 1_555
Fe2 O3 2.005332 1_545
Fe2 O0 2.013029 1_556
Fe3 O5 1.888699 1_655
Fe3 O7 1.893279 1_555
Fe3 O2 2.005362 1_655
Fe3 O1 2.013008 1_655
