# generated using pymatgen
data_Cu3(P3O16)2
_symmetry_space_group_name_H-M   'P 1'
_cell_length_a   6.35866733
_cell_length_b   9.76420113
_cell_length_c   11.14877268
_cell_angle_alpha   74.11754285
_cell_angle_beta   87.14283173
_cell_angle_gamma   67.44315847
_symmetry_Int_Tables_number   1
_chemical_formula_structural   Cu3(P3O16)2
_chemical_formula_sum   'Cu3 P6 O32'
_cell_volume   613.65529088
_cell_formula_units_Z   1
loop_
 _symmetry_equiv_pos_site_id
 _symmetry_equiv_pos_as_xyz
  1  'x, y, z'
loop_
 _atom_site_type_symbol
 _atom_site_label
 _atom_site_symmetry_multiplicity
 _atom_site_fract_x
 _atom_site_fract_y
 _atom_site_fract_z
 _atom_site_occupancy
  Cu  Cu0  1  0.00000000  0.00000000  0.00000000  1
  Cu  Cu1  1  0.54874200  0.57426200  0.73170300  1
  Cu  Cu2  1  0.45125800  0.42573800  0.26829700  1
  P  P0  1  0.08411400  0.54166900  0.78267000  1
  P  P1  1  0.91588600  0.45833100  0.21733000  1
  P  P2  1  0.84344300  0.86020500  0.81170100  1
  P  P3  1  0.15655700  0.13979500  0.18829900  1
  P  P4  1  0.31195900  0.22184600  0.93917500  1
  P  P5  1  0.68804100  0.77815400  0.06082500  1
  O  O0  1  0.87925500  0.53255300  0.72972500  1
  O  O1  1  0.12074500  0.46744700  0.27027500  1
  O  O2  1  0.27709700  0.53675900  0.69621000  1
  O  O3  1  0.72290300  0.46324100  0.30379000  1
  O  O4  1  0.02798700  0.68210600  0.84221900  1
  O  O5  1  0.97201300  0.31789400  0.15778100  1
  O  O6  1  0.18629300  0.40439600  0.91203900  1
  O  O7  1  0.81370700  0.59560400  0.08796100  1
  O  O8  1  0.03984600  0.04960000  0.14740500  1
  O  O9  1  0.96015400  0.95040000  0.85259500  1
  O  O10  1  0.26035700  0.08089900  0.31670800  1
  O  O11  1  0.73964300  0.91910100  0.68329200  1
  O  O12  1  0.65578100  0.83335200  0.91328100  1
  O  O13  1  0.34421900  0.16664800  0.08671900  1
  O  O14  1  0.56755000  0.18379500  0.89026100  1
  O  O15  1  0.43245000  0.81620500  0.10973900  1
  O  O16  1  0.80072200  0.84995700  0.12208400  1
  O  O17  1  0.19927800  0.15004300  0.87791600  1
  O  O18  1  0.50200800  0.57678500  0.89025800  1
  O  O19  1  0.49799200  0.42321500  0.10974200  1
  O  O20  1  0.30742100  0.88756800  0.61359000  1
  O  O21  1  0.69257900  0.11243200  0.38641000  1
  O  O22  1  0.73645000  0.18634800  0.96859900  1
  O  O23  1  0.26355000  0.81365200  0.03140100  1
  O  O24  1  0.30545700  0.63463700  0.39533600  1
  O  O25  1  0.69454300  0.36536300  0.60466400  1
  O  O26  1  0.32093900  0.01653100  0.58554100  1
  O  O27  1  0.67906100  0.98346900  0.41445900  1
  O  O28  1  0.10425500  0.72285900  0.38772500  1
  O  O29  1  0.89574500  0.27714100  0.61227500  1
  O  O30  1  0.50971200  0.22986300  0.41144600  1
  O  O31  1  0.49028800  0.77013700  0.58855400  1
loop_
_geom_bond_atom_site_label_1
_geom_bond_atom_site_label_2
_geom_bond_distance
_geom_bond_site_symmetry_2
Cu0 O8 1.889637 1_555
Cu0 O9 1.889637 1_444
Cu0 O22 1.900566 1_454
Cu0 O23 1.900566 1_545
Cu0 O17 2.401142 1_554
Cu0 O16 2.401142 1_445
Cu1 O18 1.783117 1_555
Cu1 O2 1.976601 1_555
Cu1 O0 1.981618 1_555
Cu1 O31 2.046016 1_555
Cu1 O25 2.650566 1_555
Cu2 O19 1.783117 1_555
Cu2 O3 1.976601 1_555
Cu2 O1 1.981618 1_555
Cu2 O30 2.046016 1_555
Cu2 O24 2.650566 1_555
O0 P0 1.499185 1_655
O1 P1 1.499185 1_455
O2 P0 1.516408 1_555
O3 P1 1.516408 1_555
O4 P0 1.596141 1_555
O4 P2 1.633172 1_455
O5 P1 1.596141 1_555
O5 P3 1.633172 1_655
O6 P4 1.594807 1_555
O6 P0 1.632834 1_555
O7 P5 1.594807 1_555
O7 P1 1.632834 1_555
O8 P3 1.512988 1_555
O9 P2 1.512988 1_555
O10 P3 1.472491 1_555
O11 P2 1.472491 1_555
O12 P5 1.581755 1_556
O12 P2 1.648635 1_555
O13 P4 1.581755 1_554
O13 P3 1.648635 1_555
O14 O22 1.429265 1_555
O14 P4 1.623589 1_555
O15 O23 1.429265 1_555
O15 P5 1.623589 1_555
O16 P5 1.472278 1_555
O17 P4 1.472278 1_555
O20 O26 1.247257 1_565
O20 O31 1.365522 1_555
O21 O27 1.247257 1_545
O21 O30 1.365522 1_555
O24 O28 1.229369 1_555
O25 O29 1.229369 1_555
