# generated using pymatgen
data_BaMn3(PO4)3
_symmetry_space_group_name_H-M   'P 1'
_cell_length_a   9.46721710
_cell_length_b   9.46721710
_cell_length_c   9.46721710
_cell_angle_alpha   137.83616822
_cell_angle_beta   112.46759234
_cell_angle_gamma   82.91225168
_symmetry_Int_Tables_number   1
_chemical_formula_structural   BaMn3(PO4)3
_chemical_formula_sum   'Ba2 Mn6 P6 O24'
_cell_volume   508.56107374
_cell_formula_units_Z   2
loop_
 _symmetry_equiv_pos_site_id
 _symmetry_equiv_pos_as_xyz
  1  'x, y, z'
loop_
 _atom_site_type_symbol
 _atom_site_label
 _atom_site_symmetry_multiplicity
 _atom_site_fract_x
 _atom_site_fract_y
 _atom_site_fract_z
 _atom_site_occupancy
  Ba  Ba0  1  0.75000000  0.86554200  0.11554200  1
  Ba  Ba1  1  0.25000000  0.13445800  0.88445800  1
  Mn  Mn0  1  0.61821200  0.61821200  0.50000000  1
  Mn  Mn1  1  0.88178800  0.38178800  0.00000000  1
  Mn  Mn2  1  0.11821200  0.61821200  0.00000000  1
  Mn  Mn3  1  0.38178800  0.38178800  0.50000000  1
  Mn  Mn4  1  0.00000000  0.50000000  0.50000000  1
  Mn  Mn5  1  0.50000000  0.00000000  0.50000000  1
  P  P0  1  0.75000000  0.35294300  0.60294300  1
  P  P1  1  0.25000000  0.64705700  0.39705700  1
  P  P2  1  0.82105900  0.82105900  0.50000000  1
  P  P3  1  0.67894100  0.17894100  0.00000000  1
  P  P4  1  0.32105900  0.82105900  0.00000000  1
  P  P5  1  0.17894100  0.17894100  0.50000000  1
  O  O0  1  0.66033800  0.13719900  0.47686100  1
  O  O1  1  0.33966200  0.86280100  0.52313900  1
  O  O2  1  0.16033800  0.68347700  0.52313900  1
  O  O3  1  0.83966200  0.31652300  0.47686100  1
  O  O4  1  0.63163400  0.49392200  0.62555600  1
  O  O5  1  0.13163400  0.50607800  0.13771300  1
  O  O6  1  0.36836600  0.50607800  0.37444400  1
  O  O7  1  0.86836600  0.49392200  0.86228700  1
  O  O8  1  0.91958400  0.05801200  0.71700600  1
  O  O9  1  0.65899500  0.94198800  0.86157300  1
  O  O10  1  0.41958400  0.70257800  0.86157300  1
  O  O11  1  0.15899500  0.29742200  0.71700600  1
  O  O12  1  0.08041600  0.94198800  0.28299400  1
  O  O13  1  0.34100500  0.05801200  0.13842700  1
  O  O14  1  0.58041600  0.29742200  0.13842700  1
  O  O15  1  0.84100500  0.70257800  0.28299400  1
  O  O16  1  0.63727100  0.79794400  0.43789700  1
  O  O17  1  0.63995300  0.20205600  0.83932700  1
  O  O18  1  0.13727100  0.69937400  0.83932700  1
  O  O19  1  0.13995300  0.30062600  0.43789700  1
  O  O20  1  0.36272900  0.20205600  0.56210300  1
  O  O21  1  0.36004700  0.79794400  0.16067300  1
  O  O22  1  0.86272900  0.30062600  0.16067300  1
  O  O23  1  0.86004700  0.69937400  0.56210300  1
loop_
_geom_bond_atom_site_label_1
_geom_bond_atom_site_label_2
_geom_bond_distance
_geom_bond_site_symmetry_2
Ba0 O0 2.770329 1_565
Ba0 O3 2.770329 1_565
Ba0 O9 2.808841 1_554
Ba0 O15 2.808849 1_555
Ba0 O10 2.808849 1_554
Ba0 O12 2.808850 1_655
Ba0 O4 2.820943 1_554
Ba0 O7 2.820944 1_554
Ba1 O1 2.770329 1_545
Ba1 O2 2.770329 1_545
Ba1 O13 2.808841 1_556
Ba1 O14 2.808849 1_556
Ba1 O11 2.808849 1_555
Ba1 O8 2.808850 1_455
Ba1 O6 2.820943 1_556
Ba1 O5 2.820944 1_556
Mn0 O6 2.175957 1_555
Mn0 O4 2.175957 1_555
Mn0 O23 2.216636 1_555
Mn0 O16 2.216636 1_555
Mn0 O9 2.233698 1_555
Mn0 O14 2.233701 1_555
Mn1 O5 2.175955 1_655
Mn1 O7 2.175966 1_554
Mn1 O22 2.216636 1_555
Mn1 O17 2.216636 1_554
Mn1 O8 2.233696 1_554
Mn1 O15 2.233701 1_555
Mn2 O7 2.175955 1_454
Mn2 O5 2.175966 1_555
Mn2 O18 2.216636 1_554
Mn2 O21 2.216636 1_555
Mn2 O12 2.233696 1_555
Mn2 O11 2.233701 1_554
Mn3 O4 2.175957 1_555
Mn3 O6 2.175957 1_555
Mn3 O19 2.216636 1_555
Mn3 O20 2.216636 1_555
Mn3 O13 2.233698 1_555
Mn3 O10 2.233701 1_555
Mn4 O23 1.999253 1_455
Mn4 O18 1.999253 1_555
Mn4 O19 1.999253 1_555
Mn4 O22 1.999253 1_455
Mn4 O2 2.280753 1_555
Mn4 O3 2.280753 1_455
Mn5 O16 1.999253 1_545
Mn5 O17 1.999253 1_555
Mn5 O20 1.999253 1_555
Mn5 O21 1.999253 1_545
Mn5 O0 2.280753 1_555
Mn5 O1 2.280753 1_545
O0 P0 1.535023 1_555
O1 P1 1.535023 1_555
O2 P1 1.535023 1_555
O3 P0 1.535023 1_555
O4 P0 1.572775 1_555
O5 P1 1.572769 1_555
O6 P1 1.572775 1_555
O7 P0 1.572769 1_555
O8 P2 1.530556 1_545
O9 P3 1.530559 1_566
O10 P4 1.530551 1_556
O11 P5 1.530551 1_555
O12 P5 1.530556 1_565
O13 P4 1.530559 1_545
O14 P3 1.530551 1_555
O15 P2 1.530551 1_555
O16 P2 1.594477 1_555
O17 P3 1.594477 1_556
O18 P4 1.594477 1_556
O19 P5 1.594477 1_555
O20 P5 1.594477 1_555
O21 P4 1.594477 1_555
O22 P3 1.594477 1_555
O23 P2 1.594477 1_555
