# generated using pymatgen
data_Ba3NaCaY(C2O7)3
_symmetry_space_group_name_H-M   'P 1'
_cell_length_a   9.40455904
_cell_length_b   9.40455904
_cell_length_c   14.25985015
_cell_angle_alpha   72.72923880
_cell_angle_beta   72.72923880
_cell_angle_gamma   59.49061951
_symmetry_Int_Tables_number   1
_chemical_formula_structural   Ba3NaCaY(C2O7)3
_chemical_formula_sum   'Ba6 Na2 Ca2 Y2 C12 O42'
_cell_volume   1021.10235533
_cell_formula_units_Z   2
loop_
 _symmetry_equiv_pos_site_id
 _symmetry_equiv_pos_as_xyz
  1  'x, y, z'
loop_
 _atom_site_type_symbol
 _atom_site_label
 _atom_site_symmetry_multiplicity
 _atom_site_fract_x
 _atom_site_fract_y
 _atom_site_fract_z
 _atom_site_occupancy
  Ba  Ba0  1  0.15246200  0.97969900  0.29263100  1
  Ba  Ba1  1  0.97969900  0.15246200  0.79263100  1
  Ba  Ba2  1  0.46652200  0.30827800  0.30514500  1
  Ba  Ba3  1  0.30827800  0.46652200  0.80514500  1
  Ba  Ba4  1  0.80748900  0.61466800  0.33522900  1
  Ba  Ba5  1  0.61466800  0.80748900  0.83522900  1
  Na  Na0  1  0.08590400  0.22873600  0.50360200  1
  Na  Na1  1  0.22873600  0.08590400  0.00360200  1
  Ca  Ca0  1  0.75139400  0.91859700  0.48509100  1
  Ca  Ca1  1  0.91859700  0.75139400  0.98509100  1
  Y  Y0  1  0.40918300  0.58144000  0.50405400  1
  Y  Y1  1  0.58144000  0.40918300  0.00405400  1
  C  C0  1  0.77885800  0.27984600  0.38840500  1
  C  C1  1  0.27984600  0.77885800  0.88840500  1
  C  C2  1  0.45432500  0.94271600  0.37961500  1
  C  C3  1  0.94271600  0.45432500  0.87961500  1
  C  C4  1  0.12132500  0.61613200  0.38656100  1
  C  C5  1  0.61613200  0.12132500  0.88656100  1
  C  C6  1  0.16985500  0.86229400  0.59625600  1
  C  C7  1  0.86229400  0.16985500  0.09625600  1
  C  C8  1  0.69015700  0.45543000  0.60065300  1
  C  C9  1  0.45543000  0.69015700  0.10065300  1
  C  C10  1  0.28966400  0.32780100  0.58970200  1
  C  C11  1  0.32780100  0.28966400  0.08970200  1
  O  O0  1  0.77544100  0.14429700  0.38716200  1
  O  O1  1  0.14429700  0.77544100  0.88716200  1
  O  O2  1  0.91798000  0.27678500  0.38660000  1
  O  O3  1  0.27678500  0.91798000  0.88660000  1
  O  O4  1  0.64007200  0.42271300  0.38557500  1
  O  O5  1  0.42271300  0.64007200  0.88557500  1
  O  O6  1  0.31965900  0.08224600  0.37241900  1
  O  O7  1  0.08224600  0.31965900  0.87241900  1
  O  O8  1  0.46180300  0.80283600  0.37337300  1
  O  O9  1  0.80283600  0.46180300  0.87337300  1
  O  O10  1  0.59083300  0.93938900  0.38830400  1
  O  O11  1  0.93938900  0.59083300  0.88830400  1
  O  O12  1  0.98179100  0.75685400  0.38480900  1
  O  O13  1  0.75685400  0.98179100  0.88480900  1
  O  O14  1  0.26096800  0.62045700  0.37953700  1
  O  O15  1  0.62045700  0.26096800  0.87953700  1
  O  O16  1  0.12125300  0.47816500  0.38979500  1
  O  O17  1  0.47816500  0.12125300  0.88979500  1
  O  O18  1  0.28239500  0.73047400  0.64343400  1
  O  O19  1  0.73047400  0.28239500  0.14343400  1
  O  O20  1  0.16303100  0.84823000  0.50961300  1
  O  O21  1  0.84823000  0.16303100  0.00961300  1
  O  O22  1  0.07628700  0.99812100  0.63082600  1
  O  O23  1  0.99812100  0.07628700  0.13082600  1
  O  O24  1  0.65485800  0.58927600  0.53008300  1
  O  O25  1  0.58927600  0.65485800  0.03008300  1
  O  O26  1  0.57648200  0.40346200  0.63405700  1
  O  O27  1  0.40346200  0.57648200  0.13405700  1
  O  O28  1  0.82922700  0.37965100  0.63167700  1
  O  O29  1  0.37965100  0.82922700  0.13167700  1
  O  O30  1  0.40869800  0.30410200  0.51231000  1
  O  O31  1  0.30410200  0.40869800  0.01231000  1
  O  O32  1  0.24672200  0.45436800  0.63070400  1
  O  O33  1  0.45436800  0.24672200  0.13070400  1
  O  O34  1  0.21535600  0.23652200  0.62310900  1
  O  O35  1  0.23652200  0.21535600  0.12310900  1
  O  O36  1  0.76481000  0.94710400  0.65813600  1
  O  O37  1  0.94710400  0.76481000  0.15813600  1
  O  O38  1  0.87986400  0.79431100  0.63340900  1
  O  O39  1  0.79431100  0.87986400  0.13340900  1
  O  O40  1  0.60435600  0.99253900  0.64340500  1
  O  O41  1  0.99253900  0.60435600  0.14340500  1
loop_
_geom_bond_atom_site_label_1
_geom_bond_atom_site_label_2
_geom_bond_distance
_geom_bond_site_symmetry_2
Ba0 O23 2.767865 1_465
Ba0 O29 2.789672 1_555
Ba0 O6 2.819688 1_565
Ba0 O8 2.914499 1_555
Ba0 O2 2.945720 1_465
Ba0 O14 2.959007 1_555
Ba0 O35 2.973794 1_565
Ba0 O20 2.983037 1_555
Ba0 O12 3.036998 1_455
Ba0 O0 3.100555 1_465
Ba1 O22 2.767865 1_645
Ba1 O28 2.789672 1_555
Ba1 O7 2.819688 1_655
Ba1 O9 2.914499 1_555
Ba1 O3 2.945720 1_645
Ba1 O15 2.959007 1_555
Ba1 O34 2.973794 1_655
Ba1 O21 2.983037 1_556
Ba1 O13 3.036998 1_545
Ba1 O1 3.100555 1_645
Ba2 O33 2.761691 1_555
Ba2 O19 2.803515 1_555
Ba2 O30 2.832513 1_555
Ba2 O16 2.846688 1_555
Ba2 O6 2.886208 1_555
Ba2 O14 2.889785 1_555
Ba2 O27 2.890038 1_555
Ba2 O0 2.929844 1_555
Ba2 O4 2.960670 1_555
Ba2 O10 3.011788 1_545
Ba3 O32 2.761691 1_555
Ba3 O18 2.803515 1_555
Ba3 O31 2.832513 1_556
Ba3 O17 2.846688 1_555
Ba3 O7 2.886208 1_555
Ba3 O15 2.889785 1_555
Ba3 O26 2.890038 1_555
Ba3 O1 2.929844 1_555
Ba3 O5 2.960670 1_555
Ba3 O11 3.011788 1_455
Ba4 O24 2.724673 1_555
Ba4 O2 2.725976 1_555
Ba4 O8 2.770685 1_555
Ba4 O41 2.771270 1_555
Ba4 O4 2.774636 1_555
Ba4 O16 2.807967 1_655
Ba4 O37 2.809167 1_555
Ba4 O10 2.861684 1_555
Ba4 O12 2.906921 1_555
Ba4 O39 3.186550 1_555
Ba5 O25 2.724673 1_556
Ba5 O3 2.725976 1_555
Ba5 O9 2.770685 1_555
Ba5 O40 2.771270 1_555
Ba5 O5 2.774636 1_555
Ba5 O17 2.807967 1_565
Ba5 O36 2.809167 1_555
Ba5 O11 2.861684 1_555
Ba5 O13 2.906921 1_555
Ba5 O38 3.186550 1_555
Na0 O22 2.401820 1_545
Na0 O34 2.405861 1_555
Na0 O2 2.423666 1_455
Na0 O6 2.498679 1_555
Na0 O16 2.541238 1_555
Na0 O28 2.572864 1_455
Na1 O23 2.401820 1_455
Na1 O35 2.405861 1_555
Na1 O3 2.423666 1_544
Na1 O7 2.498679 1_554
Na1 O17 2.541238 1_554
Na1 O29 2.572864 1_545
Ca0 O10 2.236209 1_555
Ca0 O0 2.246454 1_565
Ca0 O12 2.271317 1_555
Ca0 O40 2.365244 1_555
Ca0 O38 2.432012 1_555
Ca0 O36 2.605542 1_555
Ca1 O11 2.236209 1_555
Ca1 O1 2.246454 1_655
Ca1 O13 2.271317 1_555
Ca1 O41 2.365244 1_556
Ca1 O39 2.432012 1_556
Ca1 O37 2.605542 1_556
C0 O2 1.286683 1_555
C0 O0 1.296826 1_555
C0 O4 1.314893 1_555
C1 O3 1.286683 1_555
C1 O1 1.296826 1_555
C1 O5 1.314893 1_555
C2 O6 1.283044 1_565
C2 O8 1.309698 1_555
C2 O10 1.309897 1_555
C3 O7 1.283044 1_655
C3 O9 1.309698 1_555
C3 O11 1.309897 1_555
C4 O16 1.284923 1_555
C4 O14 1.307711 1_555
C4 O12 1.307894 1_455
C5 O17 1.284923 1_555
C5 O15 1.307711 1_555
C5 O13 1.307894 1_545
C6 O22 1.274398 1_555
C6 O20 1.304165 1_555
C6 O18 1.305750 1_555
C7 O23 1.274398 1_555
C7 O21 1.304165 1_555
C7 O19 1.305750 1_555
C8 O28 1.274418 1_555
C8 O26 1.303291 1_555
C8 O24 1.315025 1_555
C9 O29 1.274418 1_555
C9 O27 1.303291 1_555
C9 O25 1.315025 1_555
C10 O34 1.273126 1_555
C10 O30 1.296126 1_555
C10 O32 1.306416 1_555
C11 O35 1.273126 1_555
C11 O31 1.296126 1_555
C11 O33 1.306416 1_555
O4 Y0 2.413659 1_555
O5 Y1 2.413659 1_556
O8 Y0 2.499507 1_555
O9 Y1 2.499507 1_556
O14 Y0 2.407015 1_555
O15 Y1 2.407015 1_556
O18 Y0 2.426223 1_555
O19 Y1 2.426223 1_555
O20 Y0 2.402539 1_555
O21 Y1 2.402539 1_555
O24 Y0 2.485916 1_555
O25 Y1 2.485916 1_555
O26 Y0 2.435009 1_555
O27 Y1 2.435009 1_555
O30 Y0 2.578030 1_555
O31 Y1 2.578030 1_555
O32 Y0 2.440942 1_555
O33 Y1 2.440942 1_555
O36 O38 1.362186 1_555
O36 O40 1.408550 1_555
O37 O39 1.362186 1_555
O37 O41 1.408550 1_555
