# generated using pymatgen
data_Li6Mn3CoO10
_symmetry_space_group_name_H-M   'P 1'
_cell_length_a   5.02846478
_cell_length_b   5.82695064
_cell_length_c   6.63840141
_cell_angle_alpha   76.41165843
_cell_angle_beta   81.56712287
_cell_angle_gamma   106.92337901
_symmetry_Int_Tables_number   1
_chemical_formula_structural   Li6Mn3CoO10
_chemical_formula_sum   'Li6 Mn3 Co1 O10'
_cell_volume   175.97453142
_cell_formula_units_Z   1
loop_
 _symmetry_equiv_pos_site_id
 _symmetry_equiv_pos_as_xyz
  1  'x, y, z'
loop_
 _atom_site_type_symbol
 _atom_site_label
 _atom_site_symmetry_multiplicity
 _atom_site_fract_x
 _atom_site_fract_y
 _atom_site_fract_z
 _atom_site_occupancy
  Li  Li0  1  0.79508200  0.10156200  0.40422500  1
  Li  Li1  1  0.98632700  0.49955900  0.98833300  1
  Li  Li2  1  0.60226900  0.70120200  0.79397700  1
  Li  Li3  1  0.40986500  0.29755900  0.20140200  1
  Li  Li4  1  0.20773600  0.90047500  0.61323100  1
  Li  Li5  1  0.59857300  0.20054100  0.79377600  1
  Mn  Mn0  1  0.00212600  0.99999400  0.99495600  1
  Mn  Mn1  1  0.20190400  0.39919200  0.60427600  1
  Mn  Mn2  1  0.40171600  0.80342500  0.19611600  1
  Co  Co0  1  0.80116400  0.59849300  0.40441300  1
  O  O0  1  0.69922100  0.12302000  0.10316300  1
  O  O1  1  0.91626600  0.54887400  0.67152500  1
  O  O2  1  0.50588300  0.72200300  0.50872200  1
  O  O3  1  0.26966600  0.33597000  0.88882400  1
  O  O4  1  0.09109800  0.94091000  0.27898700  1
  O  O5  1  0.92310300  0.06362000  0.71305600  1
  O  O6  1  0.10608500  0.46669300  0.32205600  1
  O  O7  1  0.70914400  0.66357800  0.11393000  1
  O  O8  1  0.49969900  0.27832300  0.49770400  1
  O  O9  1  0.27307000  0.85500800  0.90733100  1
loop_
_geom_bond_atom_site_label_1
_geom_bond_atom_site_label_2
_geom_bond_distance
_geom_bond_site_symmetry_2
Li0 O0 2.107724 1_555
Li0 O6 2.130090 1_655
Li0 O8 2.138403 1_555
Li0 O4 2.144085 1_645
Li0 O2 2.144346 1_545
Li0 O5 2.218863 1_555
Li1 O9 2.041713 1_655
Li1 O3 2.045839 1_655
Li1 O7 2.088155 1_556
Li1 O0 2.127561 1_556
Li1 O1 2.149882 1_555
Li1 O6 2.359309 1_656
Li2 O2 2.007736 1_555
Li2 O5 2.140153 1_565
Li2 O3 2.170741 1_555
Li2 O1 2.172585 1_555
Li2 O9 2.219221 1_555
Li2 O7 2.243377 1_556
Li3 O8 2.066903 1_555
Li3 O7 2.108040 1_555
Li3 O4 2.113997 1_545
Li3 O0 2.114612 1_555
Li3 O6 2.198798 1_555
Li3 O3 2.270571 1_554
Li4 O9 1.996386 1_555
Li4 O5 2.049717 1_465
Li4 O1 2.051400 1_455
Li4 O8 2.141390 1_565
Li4 O2 2.179936 1_555
Li4 O4 2.353567 1_555
Li5 O1 2.070848 1_555
Li5 O5 2.071021 1_555
Li5 O9 2.075438 1_545
Li5 O8 2.077211 1_555
Li5 O3 2.108072 1_555
Li5 O0 2.163437 1_556
Mn0 O9 1.891268 1_555
Mn0 O3 1.918192 1_565
Mn0 O5 1.942993 1_465
Mn0 O7 1.971505 1_456
Mn0 O4 1.976337 1_556
Mn0 O0 1.976513 1_466
Mn1 O1 1.935781 1_455
Mn1 O5 1.937518 1_455
Mn1 O3 1.937731 1_555
Mn1 O2 1.938572 1_555
Mn1 O8 1.943275 1_555
Mn1 O6 1.981327 1_555
Mn2 O0 1.911581 1_565
Mn2 O6 1.981237 1_555
Mn2 O7 2.011565 1_555
Mn2 O4 2.016833 1_555
Mn2 O9 2.095268 1_554
Mn2 O2 2.192440 1_555
Co0 O8 1.922836 1_555
Co0 O1 1.928822 1_555
Co0 O2 1.938252 1_555
Co0 O6 1.968922 1_655
Co0 O4 1.992392 1_655
Co0 O7 2.024025 1_555
