# generated using pymatgen
data_HoZn(CoO3)2
_symmetry_space_group_name_H-M   'P 1'
_cell_length_a   5.47485200
_cell_length_b   5.15560500
_cell_length_c   8.98184125
_cell_angle_alpha   56.45171913
_cell_angle_beta   90.00000000
_cell_angle_gamma   90.00000000
_symmetry_Int_Tables_number   1
_chemical_formula_structural   HoZn(CoO3)2
_chemical_formula_sum   'Ho2 Zn2 Co4 O12'
_cell_volume   211.29126199
_cell_formula_units_Z   2
loop_
 _symmetry_equiv_pos_site_id
 _symmetry_equiv_pos_as_xyz
  1  'x, y, z'
loop_
 _atom_site_type_symbol
 _atom_site_label
 _atom_site_symmetry_multiplicity
 _atom_site_fract_x
 _atom_site_fract_y
 _atom_site_fract_z
 _atom_site_occupancy
  Ho  Ho0  1  0.32737400  0.77298400  0.24723400  1
  Ho  Ho1  1  0.67262600  0.77298400  0.74723400  1
  Zn  Zn0  1  0.79539700  0.23351200  0.25173900  1
  Zn  Zn1  1  0.20460300  0.23351200  0.75173900  1
  Co  Co0  1  0.76287200  0.00236900  0.99881700  1
  Co  Co1  1  0.76437300  0.49897600  0.50093000  1
  Co  Co2  1  0.23712800  0.00236900  0.49881700  1
  Co  Co3  1  0.23562700  0.49897600  0.00093000  1
  O  O0  1  0.80013500  0.36896800  0.73900600  1
  O  O1  1  0.05536300  0.13704500  0.06152000  1
  O  O2  1  0.06293800  0.76934300  0.43935900  1
  O  O3  1  0.57163500  0.24196000  0.05912200  1
  O  O4  1  0.56720100  0.86886400  0.44107100  1
  O  O5  1  0.28026100  0.60782800  0.76090200  1
  O  O6  1  0.19986500  0.36896800  0.23900600  1
  O  O7  1  0.94463700  0.13704500  0.56152000  1
  O  O8  1  0.93706200  0.76934300  0.93935900  1
  O  O9  1  0.43279900  0.86886400  0.94107100  1
  O  O10  1  0.42836500  0.24196000  0.55912200  1
  O  O11  1  0.71973900  0.60782800  0.26090200  1
loop_
_geom_bond_atom_site_label_1
_geom_bond_atom_site_label_2
_geom_bond_distance
_geom_bond_site_symmetry_2
Ho0 O6 2.236427 1_555
Ho0 O2 2.244626 1_555
Ho0 O1 2.250036 1_565
Ho0 O11 2.288899 1_555
Ho0 O4 2.439409 1_555
Ho0 O3 2.444141 1_565
Ho0 O9 2.576246 1_554
Ho0 O10 2.677997 1_555
Ho1 O0 2.236427 1_555
Ho1 O8 2.244626 1_555
Ho1 O7 2.250036 1_565
Ho1 O5 2.288899 1_555
Ho1 O9 2.439409 1_555
Ho1 O10 2.444141 1_565
Ho1 O4 2.576246 1_555
Ho1 O3 2.677997 1_556
Co0 O8 1.829523 1_545
Co0 O3 1.911778 1_556
Co0 O1 1.948281 1_656
Co0 O0 2.045622 1_555
Co0 O9 2.098324 1_545
Co0 O11 2.107672 1_546
Co1 O0 1.864406 1_555
Co1 O7 1.905161 1_555
Co1 O11 1.919707 1_555
Co1 O4 1.989413 1_555
Co1 O2 2.017103 1_655
Co1 O10 2.155834 1_555
Co2 O2 1.829523 1_545
Co2 O10 1.911778 1_555
Co2 O7 1.948281 1_455
Co2 O6 2.045622 1_555
Co2 O4 2.098324 1_545
Co2 O5 2.107672 1_545
Co3 O6 1.864406 1_555
Co3 O1 1.905161 1_555
Co3 O5 1.919707 1_554
Co3 O9 1.989413 1_554
Co3 O8 2.017103 1_454
Co3 O3 2.155834 1_555
O0 Zn1 2.305664 1_655
O1 Zn0 2.476142 1_455
O2 Zn0 2.500957 1_465
O3 Zn0 2.100592 1_555
O4 Zn0 2.110324 1_565
O5 Zn1 2.019436 1_555
O6 Zn0 2.305664 1_455
O7 Zn1 2.476142 1_655
O8 Zn1 2.500957 1_665
O9 Zn1 2.110324 1_565
O10 Zn1 2.100592 1_555
O11 Zn0 2.019436 1_555
