# generated using pymatgen
data_Ba3(WN2)2
_symmetry_space_group_name_H-M   'P 1'
_cell_length_a   6.26108600
_cell_length_b   10.91032900
_cell_length_c   10.43960200
_cell_angle_alpha   90.00000000
_cell_angle_beta   90.00000000
_cell_angle_gamma   90.00000000
_symmetry_Int_Tables_number   1
_chemical_formula_structural   Ba3(WN2)2
_chemical_formula_sum   'Ba12 W8 N16'
_cell_volume   713.13451758
_cell_formula_units_Z   4
loop_
 _symmetry_equiv_pos_site_id
 _symmetry_equiv_pos_as_xyz
  1  'x, y, z'
loop_
 _atom_site_type_symbol
 _atom_site_label
 _atom_site_symmetry_multiplicity
 _atom_site_fract_x
 _atom_site_fract_y
 _atom_site_fract_z
 _atom_site_occupancy
  Ba  Ba0  1  0.62392700  0.15922400  0.41873600  1
  Ba  Ba1  1  0.87607300  0.84077600  0.41873600  1
  Ba  Ba2  1  0.62392700  0.34077600  0.08126400  1
  Ba  Ba3  1  0.87607300  0.65922400  0.08126400  1
  Ba  Ba4  1  0.37607300  0.84077600  0.58126400  1
  Ba  Ba5  1  0.12392700  0.15922400  0.58126400  1
  Ba  Ba6  1  0.37607300  0.65922400  0.91873600  1
  Ba  Ba7  1  0.12392700  0.34077600  0.91873600  1
  Ba  Ba8  1  0.75000000  0.50000000  0.40171400  1
  Ba  Ba9  1  0.75000000  0.00000000  0.09828600  1
  Ba  Ba10  1  0.25000000  0.50000000  0.59828600  1
  Ba  Ba11  1  0.25000000  0.00000000  0.90171400  1
  W  W0  1  0.75000000  0.50000000  0.73695000  1
  W  W1  1  0.75000000  0.00000000  0.76305000  1
  W  W2  1  0.25000000  0.50000000  0.26305000  1
  W  W3  1  0.25000000  0.00000000  0.23695000  1
  W  W4  1  0.64099700  0.25000000  0.75000000  1
  W  W5  1  0.85900300  0.75000000  0.75000000  1
  W  W6  1  0.35900300  0.75000000  0.25000000  1
  W  W7  1  0.14099700  0.25000000  0.25000000  1
  N  N0  1  0.83588300  0.35036900  0.63809600  1
  N  N1  1  0.66411700  0.64963100  0.63809600  1
  N  N2  1  0.83588300  0.14963100  0.86190400  1
  N  N3  1  0.66411700  0.85036900  0.86190400  1
  N  N4  1  0.16411700  0.64963100  0.36190400  1
  N  N5  1  0.33588300  0.35036900  0.36190400  1
  N  N6  1  0.16411700  0.85036900  0.13809600  1
  N  N7  1  0.33588300  0.14963100  0.13809600  1
  N  N8  1  0.52579200  0.41159200  0.83155700  1
  N  N9  1  0.97420800  0.58840800  0.83155700  1
  N  N10  1  0.52579200  0.08840800  0.66844300  1
  N  N11  1  0.97420800  0.91159200  0.66844300  1
  N  N12  1  0.47420800  0.58840800  0.16844300  1
  N  N13  1  0.02579200  0.41159200  0.16844300  1
  N  N14  1  0.47420800  0.91159200  0.33155700  1
  N  N15  1  0.02579200  0.08840800  0.33155700  1
loop_
_geom_bond_atom_site_label_1
_geom_bond_atom_site_label_2
_geom_bond_distance
_geom_bond_site_symmetry_2
Ba0 N15 2.784973 1_655
Ba0 N10 2.787490 1_555
Ba0 N5 2.820218 1_555
Ba0 N14 3.001078 1_545
Ba0 N0 3.369643 1_555
Ba0 N7 3.441948 1_555
Ba1 N14 2.784973 1_555
Ba1 N11 2.787490 1_555
Ba1 N4 2.820218 1_655
Ba1 N15 3.001078 1_665
Ba1 N1 3.369643 1_555
Ba1 N6 3.441948 1_655
Ba2 N13 2.784973 1_655
Ba2 N8 2.787490 1_554
Ba2 N7 2.820218 1_555
Ba2 N12 3.001078 1_555
Ba2 N2 3.369643 1_554
Ba2 N5 3.441948 1_555
Ba3 N12 2.784973 1_555
Ba3 N9 2.787490 1_554
Ba3 N6 2.820218 1_655
Ba3 N13 3.001078 1_655
Ba3 N3 3.369643 1_554
Ba3 N4 3.441948 1_655
Ba4 N11 2.784973 1_455
Ba4 N14 2.787490 1_555
Ba4 N1 2.820218 1_555
Ba4 N10 3.001078 1_565
Ba4 N4 3.369643 1_555
Ba4 N3 3.441948 1_555
Ba5 N10 2.784973 1_555
Ba5 N15 2.787490 1_555
Ba5 N0 2.820218 1_455
Ba5 N11 3.001078 1_445
Ba5 N5 3.369643 1_555
Ba5 N2 3.441948 1_455
Ba6 N9 2.784973 1_455
Ba6 N12 2.787490 1_556
Ba6 N3 2.820218 1_555
Ba6 N8 3.001078 1_555
Ba6 N6 3.369643 1_556
Ba6 N1 3.441948 1_555
Ba7 N8 2.784973 1_555
Ba7 N13 2.787490 1_556
Ba7 N2 2.820218 1_455
Ba7 N9 3.001078 1_455
Ba7 N7 3.369643 1_556
Ba7 N0 3.441948 1_455
Ba8 N1 3.007322 1_555
Ba8 N0 3.007322 1_555
Ba8 N5 3.092019 1_555
Ba8 N4 3.092019 1_655
Ba8 N13 3.137283 1_655
Ba8 N12 3.137283 1_555
Ba9 N3 3.007322 1_544
Ba9 N2 3.007322 1_554
Ba9 N6 3.092019 1_645
Ba9 N7 3.092019 1_555
Ba9 N15 3.137283 1_655
Ba9 N14 3.137283 1_545
Ba10 N4 3.007322 1_555
Ba10 N5 3.007322 1_555
Ba10 N1 3.092019 1_555
Ba10 N0 3.092019 1_455
Ba10 N9 3.137283 1_455
Ba10 N8 3.137283 1_555
Ba11 N6 3.007322 1_546
Ba11 N7 3.007322 1_556
Ba11 N2 3.092019 1_455
Ba11 N3 3.092019 1_545
Ba11 N10 3.137283 1_555
Ba11 N11 3.137283 1_445
N0 W0 2.004817 1_555
N0 W4 2.013158 1_555
N1 W0 2.004817 1_555
N1 W5 2.013158 1_555
N2 W1 2.004817 1_555
N2 W4 2.013158 1_555
N3 W1 2.004817 1_565
N3 W5 2.013158 1_555
N4 W2 2.004817 1_555
N4 W6 2.013158 1_555
N5 W2 2.004817 1_555
N5 W7 2.013158 1_555
N6 W3 2.004817 1_565
N6 W6 2.013158 1_555
N7 W3 2.004817 1_555
N7 W7 2.013158 1_555
N8 W0 1.968873 1_555
N8 W4 2.086493 1_555
N9 W0 1.968873 1_555
N9 W5 2.086493 1_555
N10 W1 1.968873 1_555
N10 W4 2.086493 1_555
N11 W1 1.968873 1_565
N11 W5 2.086493 1_555
N12 W2 1.968873 1_555
N12 W6 2.086493 1_555
N13 W2 1.968873 1_555
N13 W7 2.086493 1_555
N14 W3 1.968873 1_565
N14 W6 2.086493 1_555
N15 W3 1.968873 1_555
N15 W7 2.086493 1_555
