# generated using pymatgen
data_La12Fe11S30
_symmetry_space_group_name_H-M   'P 1'
_cell_length_a   3.94897048
_cell_length_b   11.07738137
_cell_length_c   24.93934916
_cell_angle_alpha   91.99656424
_cell_angle_beta   85.45905589
_cell_angle_gamma   90.00000000
_symmetry_Int_Tables_number   1
_chemical_formula_structural   La12Fe11S30
_chemical_formula_sum   'La12 Fe11 S30'
_cell_volume   1086.86430072
_cell_formula_units_Z   1
loop_
 _symmetry_equiv_pos_site_id
 _symmetry_equiv_pos_as_xyz
  1  'x, y, z'
loop_
 _atom_site_type_symbol
 _atom_site_label
 _atom_site_symmetry_multiplicity
 _atom_site_fract_x
 _atom_site_fract_y
 _atom_site_fract_z
 _atom_site_occupancy
  La  La0  1  0.87510299  0.06642245  0.24979402  1
  La  La1  1  0.12398890  0.54585188  0.75202219  1
  La  La2  1  0.54156539  0.05768917  0.91686922  1
  La  La3  1  0.45833157  0.55859321  0.08333686  1
  La  La4  1  0.87296523  0.44777988  0.25406954  1
  La  La5  1  0.12713965  0.93650201  0.74572070  1
  La  La6  1  0.54103731  0.43943440  0.91792538  1
  La  La7  1  0.46041097  0.93577401  0.07917806  1
  La  La8  1  0.79407338  0.96252527  0.41185324  1
  La  La9  1  0.20439271  0.46936746  0.59121457  1
  La  La10  1  0.79166727  0.57747006  0.41666547  1
  La  La11  1  0.20420200  0.08950510  0.59159600  1
  Fe  Fe0  1  0.97303177  0.27910076  0.05393645  1
  Fe  Fe1  1  0.03133986  0.77040630  0.93732029  1
  Fe  Fe2  1  0.89728976  0.74615949  0.20542049  1
  Fe  Fe3  1  0.10583914  0.23399295  0.78832172  1
  Fe  Fe4  1  0.43597808  0.23935960  0.12804383  1
  Fe  Fe5  1  0.56559677  0.74943450  0.86880647  1
  Fe  Fe6  1  0.69898898  0.79941387  0.60202203  1
  Fe  Fe7  1  0.30028409  0.28920691  0.39943182  1
  Fe  Fe8  1  0.36202969  0.78337437  0.27594063  1
  Fe  Fe9  1  0.76732831  0.27082038  0.46534338  1
  Fe  Fe10  1  0.23178107  0.77554578  0.53643786  1
  S  S0  1  0.59955369  0.38838608  0.80089261  1
  S  S1  1  0.40019824  0.90040701  0.19960351  1
  S  S2  1  0.93415241  0.09352052  0.13169519  1
  S  S3  1  0.06346249  0.60701528  0.87307503  1
  S  S4  1  0.93333797  0.39665787  0.13332406  1
  S  S5  1  0.06711101  0.89505436  0.86577797  1
  S  S6  1  0.67076088  0.96540297  0.65847824  1
  S  S7  1  0.32759758  0.45533756  0.34480484  1
  S  S8  1  0.71773382  0.27366737  0.56453235  1
  S  S9  1  0.28162525  0.77073218  0.43674949  1
  S  S10  1  0.73103496  0.63247461  0.53793009  1
  S  S11  1  0.26913013  0.13023729  0.46173975  1
  S  S12  1  0.99696953  0.45976254  0.00606094  1
  S  S13  1  0.00482869  0.94451512  0.99034262  1
  S  S14  1  0.48610084  0.18604930  0.02779831  1
  S  S15  1  0.51304373  0.70166633  0.97391255  1
  S  S16  1  0.66412581  0.48654321  0.67174838  1
  S  S17  1  0.33695971  0.97174586  0.32608057  1
  S  S18  1  0.61502839  0.74311294  0.76994321  1
  S  S19  1  0.38523065  0.25417589  0.22953870  1
  S  S20  1  0.84592382  0.70004162  0.30815237  1
  S  S21  1  0.15006904  0.20045749  0.69986192  1
  S  S22  1  0.81825173  0.21484388  0.36349653  1
  S  S23  1  0.18161879  0.73179073  0.63676241  1
  S  S24  1  0.94769785  0.74634640  0.10460429  1
  S  S25  1  0.05165269  0.24592712  0.89669461  1
  S  S26  1  0.59965640  0.08685408  0.80068720  1
  S  S27  1  0.39844790  0.60036920  0.20310421  1
  S  S28  1  0.73407954  0.93227494  0.53184091  1
  S  S29  1  0.26455156  0.42530042  0.47089687  1
loop_
_geom_bond_atom_site_label_1
_geom_bond_atom_site_label_2
_geom_bond_distance
_geom_bond_site_symmetry_2
La0 S19 2.924212 1_655
La0 S19 2.924212 1_555
La0 S1 2.945701 1_645
La0 S1 2.945701 1_545
La0 S17 2.955418 1_645
La0 S17 2.955418 1_545
La0 S2 2.961786 1_555
La0 S22 3.220074 1_555
La1 S16 2.867292 1_455
La1 S16 2.867292 1_555
La1 S0 2.926686 1_455
La1 S0 2.926686 1_555
La1 S18 2.967130 1_555
La1 S18 2.967130 1_455
La1 S3 3.061638 1_555
La1 S23 3.586914 1_555
La2 S26 2.917620 1_555
La2 S25 2.927670 1_655
La2 S25 2.927670 1_555
La2 S5 2.932175 1_645
La2 S5 2.932175 1_545
La2 S13 2.994481 1_645
La2 S13 2.994481 1_545
La2 S14 3.058306 1_556
La3 S24 2.902914 1_555
La3 S24 2.902914 1_455
La3 S12 2.939557 1_555
La3 S12 2.939557 1_455
La3 S4 2.969275 1_555
La3 S4 2.969275 1_455
La3 S27 2.997267 1_555
La3 S15 3.195904 1_554
La4 S27 2.917327 1_555
La4 S27 2.917327 1_655
La4 S19 2.962857 1_555
La4 S19 2.962857 1_655
La4 S7 2.996819 1_555
La4 S7 2.996819 1_655
La4 S4 3.035299 1_555
La4 S20 3.058411 1_555
La5 S26 2.894963 1_465
La5 S26 2.894963 1_565
La5 S6 2.958703 1_455
La5 S6 2.958703 1_555
La5 S18 2.990087 1_555
La5 S18 2.990087 1_455
La5 S5 3.035677 1_555
La5 S21 3.175253 1_565
La5 S23 3.471403 1_555
La6 S0 2.944537 1_555
La6 S25 2.948377 1_655
La6 S25 2.948377 1_555
La6 S12 2.952274 1_556
La6 S12 2.952274 1_456
La6 S3 2.955101 1_555
La6 S3 2.955101 1_655
La6 S15 3.176930 1_555
La7 S2 2.915007 1_465
La7 S2 2.915007 1_565
La7 S24 2.965469 1_555
La7 S24 2.965469 1_455
La7 S13 2.966577 1_554
La7 S13 2.966577 1_654
La7 S1 3.032975 1_555
La7 S14 3.092789 1_565
La8 S17 2.910563 1_655
La8 S17 2.910563 1_555
La8 S11 2.954178 1_565
La8 S11 2.954178 1_665
La8 S9 2.981171 1_655
La8 S9 2.981171 1_555
La8 S28 3.013399 1_555
La8 S22 3.080965 1_565
La9 S16 2.813680 1_455
La9 S16 2.813680 1_555
La9 S8 2.989591 1_555
La9 S8 2.989591 1_455
La9 S29 3.013911 1_555
La9 S10 3.014179 1_455
La9 S10 3.014179 1_555
La9 S23 3.082629 1_555
La10 S9 2.942171 1_655
La10 S9 2.942172 1_555
La10 S29 2.952391 1_655
La10 S29 2.952391 1_555
La10 S7 2.958328 1_655
La10 S7 2.958328 1_555
La10 S10 3.054780 1_555
La10 S20 3.062261 1_555
La11 S21 2.919606 1_555
La11 S8 2.934107 1_555
La11 S8 2.934107 1_455
La11 S6 2.951783 1_445
La11 S6 2.951783 1_545
La11 S28 2.993022 1_545
La11 S28 2.993022 1_445
La11 S11 3.275323 1_555
Fe0 S14 2.310091 1_555
Fe0 S14 2.310091 1_655
Fe0 S4 2.326258 1_555
Fe0 S12 2.363937 1_555
Fe0 S2 2.870712 1_555
Fe1 S5 2.289472 1_555
Fe1 S13 2.297757 1_555
Fe1 S15 2.313963 1_455
Fe1 S15 2.313963 1_555
Fe1 S3 2.371687 1_555
Fe2 S24 2.506471 1_555
Fe2 S27 2.550206 1_555
Fe2 S27 2.550206 1_655
Fe2 S1 2.618452 1_655
Fe2 S1 2.618452 1_555
Fe2 S20 2.622065 1_555
Fe3 S21 2.217521 1_555
Fe3 S26 2.585486 1_455
Fe3 S26 2.585486 1_555
Fe3 S0 2.623725 1_555
Fe3 S0 2.623725 1_455
Fe3 S25 2.692888 1_555
Fe4 S19 2.522872 1_555
Fe4 S14 2.541058 1_555
Fe4 S2 2.554794 1_455
Fe4 S2 2.554794 1_555
Fe4 S4 2.633625 1_455
Fe4 S4 2.633625 1_555
Fe5 S18 2.456396 1_555
Fe5 S3 2.531892 1_555
Fe5 S3 2.531892 1_655
Fe5 S5 2.552410 1_655
Fe5 S5 2.552410 1_555
Fe5 S15 2.684151 1_555
Fe6 S6 2.273874 1_555
Fe6 S23 2.291483 1_555
Fe6 S23 2.291483 1_655
Fe6 S28 2.321593 1_555
Fe6 S10 2.398472 1_555
Fe7 S29 2.289578 1_555
Fe7 S22 2.307348 1_555
Fe7 S22 2.307348 1_455
Fe7 S7 2.325031 1_555
Fe7 S11 2.385625 1_555
Fe8 S20 2.333174 1_555
Fe8 S20 2.333174 1_455
Fe8 S1 2.335465 1_555
Fe8 S17 2.392946 1_555
Fe8 S27 2.670578 1_555
Fe9 S8 2.465043 1_555
Fe9 S11 2.514364 1_555
Fe9 S11 2.514364 1_655
Fe9 S22 2.585707 1_555
Fe9 S29 2.613324 1_655
Fe9 S29 2.613324 1_555
Fe10 S9 2.477069 1_555
Fe10 S10 2.532951 1_455
Fe10 S10 2.532951 1_555
Fe10 S23 2.557408 1_555
Fe10 S28 2.634338 1_555
Fe10 S28 2.634338 1_455
