# generated using pymatgen
data_KCrN2
_symmetry_space_group_name_H-M   'P 1'
_cell_length_a   5.72464600
_cell_length_b   11.48491500
_cell_length_c   15.68776200
_cell_angle_alpha   90.00000000
_cell_angle_beta   90.00000000
_cell_angle_gamma   90.00000000
_symmetry_Int_Tables_number   1
_chemical_formula_structural   KCrN2
_chemical_formula_sum   'K16 Cr16 N32'
_cell_volume   1031.42442895
_cell_formula_units_Z   16
loop_
 _symmetry_equiv_pos_site_id
 _symmetry_equiv_pos_as_xyz
  1  'x, y, z'
loop_
 _atom_site_type_symbol
 _atom_site_label
 _atom_site_symmetry_multiplicity
 _atom_site_fract_x
 _atom_site_fract_y
 _atom_site_fract_z
 _atom_site_occupancy
  K  K0  1  0.24833900  0.00004800  0.43289500  1
  K  K1  1  0.74833900  0.49995200  0.56710500  1
  K  K2  1  0.75166100  0.50004800  0.06710500  1
  K  K3  1  0.25166100  0.99995200  0.93289500  1
  K  K4  1  0.75166100  0.99995200  0.56710500  1
  K  K5  1  0.25166100  0.50004800  0.43289500  1
  K  K6  1  0.24833900  0.49995200  0.93289500  1
  K  K7  1  0.74833900  0.00004800  0.06710500  1
  K  K8  1  0.35374800  0.25092200  0.30755100  1
  K  K9  1  0.85374800  0.24907800  0.69244900  1
  K  K10  1  0.64625200  0.75092200  0.19244900  1
  K  K11  1  0.14625200  0.74907800  0.80755100  1
  K  K12  1  0.64625200  0.74907800  0.69244900  1
  K  K13  1  0.14625200  0.75092200  0.30755100  1
  K  K14  1  0.35374800  0.24907800  0.80755100  1
  K  K15  1  0.85374800  0.25092200  0.19244900  1
  Cr  Cr0  1  0.74720000  0.00077200  0.31521200  1
  Cr  Cr1  1  0.24720000  0.49922800  0.68478800  1
  Cr  Cr2  1  0.25280000  0.50077200  0.18478800  1
  Cr  Cr3  1  0.75280000  0.99922800  0.81521200  1
  Cr  Cr4  1  0.25280000  0.99922800  0.68478800  1
  Cr  Cr5  1  0.75280000  0.50077200  0.31521200  1
  Cr  Cr6  1  0.74720000  0.49922800  0.81521200  1
  Cr  Cr7  1  0.24720000  0.00077200  0.18478800  1
  Cr  Cr8  1  0.81572500  0.25078300  0.44185500  1
  Cr  Cr9  1  0.31572600  0.24921700  0.55814500  1
  Cr  Cr10  1  0.18427500  0.75078300  0.05814500  1
  Cr  Cr11  1  0.68427500  0.74921700  0.94185500  1
  Cr  Cr12  1  0.18427500  0.74921700  0.55814500  1
  Cr  Cr13  1  0.68427500  0.75078300  0.44185500  1
  Cr  Cr14  1  0.81572500  0.24921700  0.94185500  1
  Cr  Cr15  1  0.31572600  0.25078300  0.05814500  1
  N  N0  1  0.11717300  0.25065600  0.47147300  1
  N  N1  1  0.61717300  0.24934400  0.52852700  1
  N  N2  1  0.88282700  0.75065600  0.02852700  1
  N  N3  1  0.38282700  0.74934400  0.97147300  1
  N  N4  1  0.88282700  0.74934400  0.52852700  1
  N  N5  1  0.38282700  0.75065600  0.47147300  1
  N  N6  1  0.11717300  0.24934400  0.97147300  1
  N  N7  1  0.61717300  0.25065600  0.02852700  1
  N  N8  1  0.75866500  0.37669200  0.38117000  1
  N  N9  1  0.25866500  0.12330800  0.61883000  1
  N  N10  1  0.24133500  0.87669200  0.11883000  1
  N  N11  1  0.74133500  0.62330800  0.88117000  1
  N  N12  1  0.24133500  0.62330800  0.61883000  1
  N  N13  1  0.74133500  0.87669200  0.38117000  1
  N  N14  1  0.75866500  0.12330800  0.88117000  1
  N  N15  1  0.25866500  0.37669200  0.11883000  1
  N  N16  1  0.76025400  0.12646100  0.37937100  1
  N  N17  1  0.26025400  0.37354000  0.62062900  1
  N  N18  1  0.23974600  0.62646000  0.12062900  1
  N  N19  1  0.73974600  0.87354000  0.87937100  1
  N  N20  1  0.23974600  0.87354000  0.62062900  1
  N  N21  1  0.73974600  0.62646000  0.37937100  1
  N  N22  1  0.76025400  0.37354000  0.87937100  1
  N  N23  1  0.26025400  0.12646100  0.12062900  1
  N  N24  1  0.50676800  0.50005100  0.24807700  1
  N  N25  1  0.00676800  0.99994900  0.75192300  1
  N  N26  1  0.49323200  0.00005100  0.25192300  1
  N  N27  1  0.99323200  0.49994900  0.74807700  1
  N  N28  1  0.49323200  0.49994900  0.75192300  1
  N  N29  1  0.99323200  0.00005100  0.24807700  1
  N  N30  1  0.50676800  0.99994900  0.74807700  1
  N  N31  1  0.00676800  0.50005100  0.25192300  1
loop_
_geom_bond_atom_site_label_1
_geom_bond_atom_site_label_2
_geom_bond_distance
_geom_bond_site_symmetry_2
K0 N5 3.027031 1_545
K0 N0 3.035489 1_555
K0 N26 3.166319 1_555
K0 N9 3.242813 1_555
K0 N29 3.246409 1_455
K0 N16 3.258829 1_455
K0 N13 3.260453 1_545
K0 N20 3.284388 1_545
K0 N13 3.330107 1_445
K0 N16 3.376524 1_555
K1 N4 3.027031 1_555
K1 N1 3.035489 1_555
K1 N27 3.166319 1_555
K1 N8 3.242813 1_555
K1 N28 3.246409 1_555
K1 N17 3.258824 1_555
K1 N12 3.260453 1_655
K1 N21 3.284388 1_555
K1 N12 3.330107 1_555
K1 N17 3.376519 1_655
K2 N7 3.027031 1_555
K2 N2 3.035489 1_555
K2 N24 3.166319 1_555
K2 N11 3.242813 1_554
K2 N31 3.246409 1_655
K2 N18 3.258824 1_655
K2 N15 3.260453 1_555
K2 N22 3.284388 1_554
K2 N15 3.330107 1_655
K2 N18 3.376519 1_555
K3 N6 3.027031 1_565
K3 N3 3.035489 1_555
K3 N25 3.166319 1_555
K3 N10 3.242813 1_556
K3 N30 3.246409 1_555
K3 N19 3.258824 1_555
K3 N14 3.260453 1_465
K3 N23 3.284393 1_566
K3 N14 3.330107 1_565
K3 N19 3.376519 1_455
K4 N1 3.027031 1_565
K4 N4 3.035489 1_555
K4 N30 3.166319 1_555
K4 N13 3.242813 1_555
K4 N25 3.246409 1_655
K4 N20 3.258824 1_655
K4 N9 3.260453 1_565
K4 N16 3.284393 1_565
K4 N9 3.330107 1_665
K4 N20 3.376519 1_555
K5 N0 3.027031 1_555
K5 N5 3.035489 1_555
K5 N31 3.166319 1_555
K5 N12 3.242813 1_555
K5 N24 3.246409 1_555
K5 N21 3.258824 1_555
K5 N8 3.260453 1_455
K5 N17 3.284388 1_555
K5 N8 3.330107 1_555
K5 N21 3.376519 1_455
K6 N3 3.027031 1_555
K6 N6 3.035489 1_555
K6 N28 3.166319 1_555
K6 N15 3.242813 1_556
K6 N27 3.246409 1_455
K6 N22 3.258824 1_455
K6 N11 3.260453 1_555
K6 N18 3.284388 1_556
K6 N11 3.330107 1_455
K6 N22 3.376519 1_555
K7 N2 3.027031 1_545
K7 N7 3.035489 1_555
K7 N29 3.166319 1_555
K7 N14 3.242813 1_554
K7 N26 3.246409 1_555
K7 N23 3.258829 1_555
K7 N10 3.260453 1_645
K7 N19 3.284388 1_544
K7 N10 3.330107 1_545
K7 N23 3.376524 1_655
K8 N0 2.906394 1_555
K8 N16 2.954336 1_555
K8 N8 2.965375 1_555
K8 N26 3.114589 1_555
K8 N24 3.134402 1_555
K8 N23 3.305845 1_555
K8 N15 3.338855 1_555
K9 N1 2.906394 1_555
K9 N17 2.954342 1_655
K9 N9 2.965375 1_655
K9 N27 3.114589 1_555
K9 N25 3.134402 1_645
K9 N22 3.305850 1_555
K9 N14 3.338855 1_555
K10 N2 2.906394 1_555
K10 N18 2.954342 1_555
K10 N10 2.965375 1_555
K10 N24 3.114589 1_555
K10 N26 3.134402 1_565
K10 N21 3.305850 1_555
K10 N13 3.338855 1_555
K11 N3 2.906394 1_555
K11 N19 2.954342 1_455
K11 N11 2.965375 1_455
K11 N25 3.114589 1_555
K11 N27 3.134402 1_455
K11 N20 3.305850 1_555
K11 N12 3.338855 1_555
K12 N4 2.906394 1_555
K12 N20 2.954342 1_555
K12 N12 2.965375 1_555
K12 N30 3.114589 1_555
K12 N28 3.134402 1_555
K12 N19 3.305850 1_555
K12 N11 3.338855 1_555
K13 N5 2.906394 1_555
K13 N21 2.954342 1_455
K13 N13 2.965375 1_455
K13 N31 3.114589 1_555
K13 N29 3.134402 1_465
K13 N18 3.305850 1_555
K13 N10 3.338855 1_555
K14 N6 2.906394 1_555
K14 N22 2.954342 1_555
K14 N14 2.965375 1_555
K14 N28 3.114589 1_555
K14 N30 3.134402 1_545
K14 N17 3.305850 1_555
K14 N9 3.338855 1_555
K15 N7 2.906394 1_555
K15 N23 2.954336 1_655
K15 N15 2.965375 1_655
K15 N29 3.114589 1_555
K15 N31 3.134402 1_655
K15 N16 3.305845 1_555
K15 N8 3.338855 1_555
Cr0 N29 1.758697 1_555
Cr0 N26 1.760569 1_555
Cr0 N16 1.761369 1_555
Cr0 N13 1.761409 1_545
Cr1 N28 1.758697 1_555
Cr1 N27 1.760569 1_455
Cr1 N17 1.761360 1_555
Cr1 N12 1.761409 1_555
Cr2 N31 1.758697 1_555
Cr2 N24 1.760569 1_555
Cr2 N18 1.761360 1_555
Cr2 N15 1.761409 1_555
Cr3 N30 1.758697 1_555
Cr3 N25 1.760569 1_655
Cr3 N19 1.761360 1_555
Cr3 N14 1.761409 1_565
Cr4 N25 1.758697 1_555
Cr4 N30 1.760569 1_555
Cr4 N20 1.761360 1_555
Cr4 N9 1.761409 1_565
Cr5 N24 1.758697 1_555
Cr5 N31 1.760569 1_655
Cr5 N21 1.761360 1_555
Cr5 N8 1.761409 1_555
Cr6 N27 1.758697 1_555
Cr6 N28 1.760569 1_555
Cr6 N22 1.761360 1_555
Cr6 N11 1.761409 1_555
Cr7 N26 1.758697 1_555
Cr7 N29 1.760569 1_455
Cr7 N23 1.761369 1_555
Cr7 N10 1.761409 1_545
Cr8 N16 1.760792 1_555
Cr8 N8 1.761845 1_555
Cr8 N1 1.772281 1_555
Cr8 N0 1.787141 1_655
Cr9 N17 1.760803 1_555
Cr9 N9 1.761846 1_555
Cr9 N0 1.772285 1_555
Cr9 N1 1.787136 1_555
Cr10 N18 1.760802 1_555
Cr10 N10 1.761845 1_555
Cr10 N3 1.772281 1_554
Cr10 N2 1.787141 1_455
Cr11 N19 1.760802 1_555
Cr11 N11 1.761845 1_555
Cr11 N2 1.772281 1_556
Cr11 N3 1.787141 1_555
Cr12 N20 1.760802 1_555
Cr12 N12 1.761845 1_555
Cr12 N5 1.772281 1_555
Cr12 N4 1.787141 1_455
Cr13 N21 1.760802 1_555
Cr13 N13 1.761845 1_555
Cr13 N4 1.772281 1_555
Cr13 N5 1.787141 1_555
Cr14 N22 1.760802 1_555
Cr14 N14 1.761845 1_555
Cr14 N7 1.772281 1_556
Cr14 N6 1.787141 1_655
Cr15 N23 1.760793 1_555
Cr15 N15 1.761846 1_555
Cr15 N6 1.772285 1_554
Cr15 N7 1.787136 1_555
