# generated using pymatgen
data_Sm3Au
_symmetry_space_group_name_H-M   'P 1'
_cell_length_a   7.02806626
_cell_length_b   7.02806626
_cell_length_c   5.25986400
_cell_angle_alpha   90.00000000
_cell_angle_beta   90.00000000
_cell_angle_gamma   120.00000248
_symmetry_Int_Tables_number   1
_chemical_formula_structural   Sm3Au
_chemical_formula_sum   'Sm6 Au2'
_cell_volume   224.99705366
_cell_formula_units_Z   2
loop_
 _symmetry_equiv_pos_site_id
 _symmetry_equiv_pos_as_xyz
  1  'x, y, z'
loop_
 _atom_site_type_symbol
 _atom_site_label
 _atom_site_symmetry_multiplicity
 _atom_site_fract_x
 _atom_site_fract_y
 _atom_site_fract_z
 _atom_site_occupancy
  Sm  Sm0  1  0.17723800  0.35447500  0.25000000  1
  Sm  Sm1  1  0.64552500  0.82276200  0.25000000  1
  Sm  Sm2  1  0.17723800  0.82276200  0.25000000  1
  Sm  Sm3  1  0.82276200  0.64552500  0.75000000  1
  Sm  Sm4  1  0.35447500  0.17723800  0.75000000  1
  Sm  Sm5  1  0.82276200  0.17723800  0.75000000  1
  Au  Au0  1  0.33333300  0.66666700  0.75000000  1
  Au  Au1  1  0.66666700  0.33333300  0.25000000  1
loop_
_geom_bond_atom_site_label_1
_geom_bond_atom_site_label_2
_geom_bond_distance
_geom_bond_site_symmetry_2
Au0 Sm2 3.244545 1_555
Au0 Sm2 3.244545 1_556
Au0 Sm0 3.244552 1_556
Au0 Sm0 3.244552 1_555
Au0 Sm1 3.244552 1_556
Au0 Sm1 3.244552 1_555
Au0 Sm5 3.516388 1_455
Au0 Sm5 3.516388 1_565
Au0 Sm4 3.516388 1_565
Au0 Sm3 3.516388 1_455
Au0 Sm3 3.516388 1_555
Au0 Sm4 3.516388 1_555
Au1 Sm5 3.244545 1_554
Au1 Sm5 3.244545 1_555
Au1 Sm3 3.244552 1_555
Au1 Sm4 3.244552 1_554
Au1 Sm4 3.244552 1_555
Au1 Sm3 3.244552 1_554
Au1 Sm2 3.516388 1_545
Au1 Sm2 3.516388 1_655
Au1 Sm1 3.516388 1_545
Au1 Sm0 3.516388 1_655
Au1 Sm0 3.516388 1_555
Au1 Sm1 3.516388 1_555
