# generated using pymatgen
data_Ta5Si3N
_symmetry_space_group_name_H-M   'P 1'
_cell_length_a   7.47283703
_cell_length_b   7.47283703
_cell_length_c   5.41865700
_cell_angle_alpha   90.00000000
_cell_angle_beta   90.00000000
_cell_angle_gamma   120.00000909
_symmetry_Int_Tables_number   1
_chemical_formula_structural   Ta5Si3N
_chemical_formula_sum   'Ta10 Si6 N2'
_cell_volume   262.05549749
_cell_formula_units_Z   2
loop_
 _symmetry_equiv_pos_site_id
 _symmetry_equiv_pos_as_xyz
  1  'x, y, z'
loop_
 _atom_site_type_symbol
 _atom_site_label
 _atom_site_symmetry_multiplicity
 _atom_site_fract_x
 _atom_site_fract_y
 _atom_site_fract_z
 _atom_site_occupancy
  Ta  Ta0  1  0.23505400  0.00000000  0.75000000  1
  Ta  Ta1  1  0.76494600  0.00000000  0.25000000  1
  Ta  Ta2  1  0.00000000  0.23505400  0.75000000  1
  Ta  Ta3  1  0.00000000  0.76494600  0.25000000  1
  Ta  Ta4  1  0.76494600  0.76494600  0.75000000  1
  Ta  Ta5  1  0.23505400  0.23505400  0.25000000  1
  Ta  Ta6  1  0.33333300  0.66666700  0.50000000  1
  Ta  Ta7  1  0.66666700  0.33333300  0.50000000  1
  Ta  Ta8  1  0.66666700  0.33333300  0.00000000  1
  Ta  Ta9  1  0.33333300  0.66666700  0.00000000  1
  Si  Si0  1  0.59528200  0.00000000  0.75000000  1
  Si  Si1  1  0.40471800  0.00000000  0.25000000  1
  Si  Si2  1  0.00000000  0.59528200  0.75000000  1
  Si  Si3  1  0.00000000  0.40471800  0.25000000  1
  Si  Si4  1  0.40471800  0.40471800  0.75000000  1
  Si  Si5  1  0.59528200  0.59528200  0.25000000  1
  N  N0  1  0.00000000  0.00000000  0.50000000  1
  N  N1  1  0.00000000  0.00000000  0.00000000  1
loop_
_geom_bond_atom_site_label_1
_geom_bond_atom_site_label_2
_geom_bond_distance
_geom_bond_site_symmetry_2
Si0 Ta2 2.630571 1_655
Si0 Ta4 2.630571 1_545
Si0 Ta7 2.644937 1_555
Si0 Ta8 2.644937 1_556
Si0 Ta9 2.644939 1_546
Si0 Ta6 2.644939 1_545
Si0 Ta0 2.691925 1_555
Si0 Ta1 2.991314 1_555
Si0 Ta1 2.991314 1_556
Si1 Ta3 2.630571 1_545
Si1 Ta5 2.630571 1_555
Si1 Ta9 2.644937 1_545
Si1 Ta6 2.644937 1_545
Si1 Ta7 2.644939 1_555
Si1 Ta8 2.644939 1_555
Si1 Ta1 2.691925 1_555
Si1 Ta0 2.991314 1_555
Si1 Ta0 2.991314 1_554
Si2 Ta0 2.630571 1_565
Si2 Ta4 2.630571 1_455
Si2 Ta9 2.644937 1_556
Si2 Ta6 2.644937 1_555
Si2 Ta8 2.644939 1_456
Si2 Ta7 2.644939 1_455
Si2 Ta2 2.691925 1_555
Si2 Ta3 2.991314 1_555
Si2 Ta3 2.991314 1_556
Si3 Ta1 2.630571 1_455
Si3 Ta5 2.630571 1_555
Si3 Ta7 2.644937 1_455
Si3 Ta8 2.644937 1_455
Si3 Ta9 2.644939 1_555
Si3 Ta6 2.644939 1_555
Si3 Ta3 2.691925 1_555
Si3 Ta2 2.991314 1_555
Si3 Ta2 2.991314 1_554
Si4 Ta2 2.630571 1_555
Si4 Ta0 2.630571 1_555
Si4 Ta8 2.644943 1_556
Si4 Ta9 2.644943 1_556
Si4 Ta6 2.644943 1_555
Si4 Ta7 2.644943 1_555
Si4 Ta4 2.691925 1_555
Si4 Ta5 2.991314 1_555
Si4 Ta5 2.991314 1_556
Si5 Ta1 2.630571 1_565
Si5 Ta3 2.630571 1_655
Si5 Ta8 2.644943 1_555
Si5 Ta9 2.644943 1_555
Si5 Ta6 2.644943 1_555
Si5 Ta7 2.644943 1_555
Si5 Ta5 2.691925 1_555
Si5 Ta4 2.991314 1_555
Si5 Ta4 2.991314 1_554
N0 Ta4 2.218215 1_445
N0 Ta5 2.218215 1_555
N0 Ta2 2.218215 1_555
N0 Ta3 2.218215 1_545
N0 Ta0 2.218215 1_555
N0 Ta1 2.218215 1_455
N1 Ta4 2.218215 1_444
N1 Ta5 2.218215 1_555
N1 Ta3 2.218215 1_545
N1 Ta2 2.218215 1_554
N1 Ta0 2.218215 1_554
N1 Ta1 2.218215 1_455
