# generated using pymatgen
data_SrCa3Al6Si6(HO13)2
_symmetry_space_group_name_H-M   'P 1'
_cell_length_a   5.64068800
_cell_length_b   8.95149700
_cell_length_c   10.35028183
_cell_angle_alpha   64.96202789
_cell_angle_beta   90.00000000
_cell_angle_gamma   90.00000000
_symmetry_Int_Tables_number   1
_chemical_formula_structural   SrCa3Al6Si6(HO13)2
_chemical_formula_sum   'Sr1 Ca3 Al6 Si6 H2 O26'
_cell_volume   473.50144150
_cell_formula_units_Z   1
loop_
 _symmetry_equiv_pos_site_id
 _symmetry_equiv_pos_as_xyz
  1  'x, y, z'
loop_
 _atom_site_type_symbol
 _atom_site_label
 _atom_site_symmetry_multiplicity
 _atom_site_fract_x
 _atom_site_fract_y
 _atom_site_fract_z
 _atom_site_occupancy
  Sr  Sr0  1  0.00000000  0.40715000  0.42019600  1
  Ca  Ca0  1  0.50000000  0.76689400  0.84032000  1
  Ca  Ca1  1  0.00000000  0.23230700  0.16001900  1
  Ca  Ca2  1  0.50000000  0.60589900  0.58625900  1
  Al  Al0  1  0.00000000  0.28312400  0.78135900  1
  Al  Al1  1  0.50000000  0.71602600  0.22125900  1
  Al  Al2  1  0.74987400  0.99960900  0.00012500  1
  Al  Al3  1  0.25012600  0.99960900  0.00012500  1
  Al  Al4  1  0.74975300  0.99982700  0.49969500  1
  Al  Al5  1  0.25024700  0.99982700  0.49969500  1
  Si  Si0  1  0.50000000  0.17806600  0.68968100  1
  Si  Si1  1  0.00000000  0.82267400  0.31136400  1
  Si  Si2  1  0.50000000  0.33626100  0.95388300  1
  Si  Si3  1  0.00000000  0.66443600  0.04359600  1
  Si  Si4  1  0.00000000  0.67858900  0.72220600  1
  Si  Si5  1  0.50000000  0.32056500  0.27558700  1
  H  H0  1  0.00000000  0.04647200  0.67964500  1
  H  H1  1  0.50000000  0.95187400  0.32184600  1
  O  O0  1  0.00000000  0.07224500  0.57688400  1
  O  O1  1  0.50000000  0.92316000  0.42514200  1
  O  O2  1  0.76133500  0.78550400  0.64829600  1
  O  O3  1  0.26378900  0.21104500  0.34921200  1
  O  O4  1  0.73621100  0.21104500  0.34921200  1
  O  O5  1  0.23866500  0.78550400  0.64829600  1
  O  O6  1  0.00000000  0.66010400  0.88635600  1
  O  O7  1  0.50000000  0.34518300  0.10934300  1
  O  O8  1  0.74811800  0.23465200  0.95318800  1
  O  O9  1  0.24769700  0.76511300  0.04677700  1
  O  O10  1  0.75230300  0.76511300  0.04677700  1
  O  O11  1  0.25188200  0.23465200  0.95318800  1
  O  O12  1  0.50000000  0.05685900  0.60296100  1
  O  O13  1  0.00000000  0.94309100  0.39772800  1
  O  O14  1  0.50000000  0.03427800  0.85926800  1
  O  O15  1  0.00000000  0.96450100  0.14139300  1
  O  O16  1  0.73587600  0.29559300  0.65707000  1
  O  O17  1  0.23733200  0.70507400  0.34585500  1
  O  O18  1  0.76266800  0.70507400  0.34585500  1
  O  O19  1  0.26412400  0.29559300  0.65707000  1
  O  O20  1  0.00000000  0.50550000  0.71011200  1
  O  O21  1  0.50000000  0.49341000  0.28937800  1
  O  O22  1  0.00000000  0.05287700  0.87041900  1
  O  O23  1  0.50000000  0.94640900  0.13011500  1
  O  O24  1  0.50000000  0.51818100  0.82994200  1
  O  O25  1  0.00000000  0.48103100  0.16330000  1
loop_
_geom_bond_atom_site_label_1
_geom_bond_atom_site_label_2
_geom_bond_distance
_geom_bond_site_symmetry_2
Ca0 O24 2.273897 1_555
Ca0 O2 2.422946 1_555
Ca0 O5 2.422946 1_555
Ca0 O14 2.482854 1_565
Ca0 O10 2.561855 1_556
Ca0 O9 2.561855 1_556
Ca0 O12 2.715744 1_565
Ca0 O6 2.951210 1_655
Ca0 O6 2.951210 1_555
Ca1 O25 2.241036 1_555
Ca1 O4 2.401939 1_455
Ca1 O3 2.401939 1_555
Ca1 O15 2.485001 1_545
Ca1 O11 2.562009 1_554
Ca1 O8 2.562009 1_454
Ca1 O13 2.713728 1_545
Ca1 O7 2.966781 1_455
Ca1 O7 2.966781 1_555
Ca2 O24 2.302534 1_555
Ca2 O2 2.458434 1_555
Ca2 O5 2.458434 1_555
Ca2 O1 2.614883 1_555
Ca2 O18 2.702771 1_555
Ca2 O17 2.702771 1_555
Ca2 O16 2.880945 1_555
Ca2 O19 2.880945 1_555
Al0 O20 1.806592 1_555
Al0 O22 1.868029 1_555
Al0 O19 1.940474 1_555
Al0 O16 1.940474 1_455
Al0 O8 2.171800 1_455
Al0 O11 2.171800 1_555
Al1 O21 1.810774 1_555
Al1 O23 1.869808 1_555
Al1 O17 1.939303 1_555
Al1 O18 1.939303 1_555
Al1 O10 2.192761 1_555
Al1 O9 2.192761 1_555
Al2 O22 1.865049 1_664
Al2 O23 1.865804 1_555
Al2 O10 1.944633 1_555
Al2 O8 1.948767 1_564
Al2 O14 1.955869 1_564
Al2 O15 1.959165 1_655
Al3 O22 1.865049 1_564
Al3 O23 1.865804 1_555
Al3 O9 1.944633 1_555
Al3 O11 1.948767 1_564
Al3 O14 1.955869 1_564
Al3 O15 1.959165 1_555
Al4 O0 1.867995 1_665
Al4 O1 1.870648 1_555
Al4 O4 1.874549 1_565
Al4 O2 1.884922 1_555
Al4 O13 1.953966 1_655
Al4 O12 1.962030 1_565
Al5 O0 1.867995 1_565
Al5 O1 1.870648 1_555
Al5 O3 1.874549 1_565
Al5 O5 1.884922 1_555
Al5 O13 1.953966 1_555
Al5 O12 1.962030 1_565
H0 O0 0.988323 1_555
H1 O1 0.988194 1_555
O0 Sr0 2.739023 1_555
O2 Si4 1.641279 1_655
O3 Si5 1.638517 1_555
O3 Sr0 2.631921 1_555
O4 Si5 1.638517 1_555
O4 Sr0 2.631921 1_655
O5 Si4 1.641279 1_555
O6 Si4 1.635854 1_555
O6 Si3 1.644265 1_556
O7 Si5 1.639610 1_555
O7 Si2 1.644448 1_554
O8 Si2 1.670818 1_555
O9 Si3 1.670477 1_555
O10 Si3 1.670477 1_655
O11 Si2 1.670818 1_555
O12 Si0 1.675453 1_555
O13 Si1 1.666287 1_555
O14 Si0 1.680877 1_555
O15 Si1 1.678167 1_555
O16 Si0 1.640241 1_555
O16 Sr0 2.674959 1_655
O17 Si1 1.646110 1_555
O17 Sr0 2.785584 1_555
O18 Si1 1.646110 1_655
O18 Sr0 2.785584 1_655
O19 Si0 1.640241 1_555
O19 Sr0 2.674959 1_555
O20 Si4 1.606391 1_555
O21 Si5 1.612826 1_555
O21 Sr0 3.082035 1_555
O21 Sr0 3.082035 1_655
O24 Si2 1.590371 1_555
O25 Si3 1.583877 1_555
O25 Sr0 2.453350 1_555
