# generated using pymatgen
data_HoFe2
_symmetry_space_group_name_H-M   'P 1'
_cell_length_a   5.15097029
_cell_length_b   5.15097029
_cell_length_c   5.15097029
_cell_angle_alpha   60.00000000
_cell_angle_beta   60.00000000
_cell_angle_gamma   60.00000000
_symmetry_Int_Tables_number   1
_chemical_formula_structural   HoFe2
_chemical_formula_sum   'Ho2 Fe4'
_cell_volume   96.63893526
_cell_formula_units_Z   2
loop_
 _symmetry_equiv_pos_site_id
 _symmetry_equiv_pos_as_xyz
  1  'x, y, z'
loop_
 _atom_site_type_symbol
 _atom_site_label
 _atom_site_symmetry_multiplicity
 _atom_site_fract_x
 _atom_site_fract_y
 _atom_site_fract_z
 _atom_site_occupancy
  Ho  Ho0  1  0.75000000  0.75000000  0.75000000  1
  Ho  Ho1  1  0.50000000  0.50000000  0.50000000  1
  Fe  Fe0  1  0.12500000  0.62500000  0.12500000  1
  Fe  Fe1  1  0.12500000  0.12500000  0.62500000  1
  Fe  Fe2  1  0.62500000  0.12500000  0.12500000  1
  Fe  Fe3  1  0.12500000  0.12500000  0.12500000  1
loop_
_geom_bond_atom_site_label_1
_geom_bond_atom_site_label_2
_geom_bond_distance
_geom_bond_site_symmetry_2
Fe0 Fe1 2.575485 1_564
Fe0 Fe3 2.575485 1_555
Fe0 Fe2 2.575485 1_555
Fe0 Fe2 2.575485 1_465
Fe0 Fe3 2.575485 1_565
Fe0 Fe1 2.575485 1_555
Fe0 Ho1 3.020024 1_555
Fe0 Ho0 3.020024 1_455
Fe0 Ho1 3.020024 1_554
Fe0 Ho0 3.020024 1_454
Fe0 Ho0 3.020024 1_554
Fe0 Ho1 3.020024 1_455
Fe1 Fe3 2.575485 1_555
Fe1 Fe2 2.575485 1_555
Fe1 Fe3 2.575485 1_556
Fe1 Fe2 2.575485 1_456
Fe1 Ho1 3.020024 1_455
Fe1 Ho1 3.020024 1_545
Fe1 Ho0 3.020024 1_455
Fe1 Ho0 3.020024 1_545
Fe1 Ho1 3.020024 1_555
Fe1 Ho0 3.020024 1_445
Fe2 Fe3 2.575485 1_555
Fe2 Fe3 2.575485 1_655
Fe2 Ho1 3.020024 1_555
Fe2 Ho1 3.020024 1_554
Fe2 Ho0 3.020024 1_544
Fe2 Ho0 3.020024 1_545
Fe2 Ho0 3.020024 1_554
Fe2 Ho1 3.020024 1_545
Fe3 Ho1 3.020024 1_455
Fe3 Ho1 3.020024 1_545
Fe3 Ho0 3.020024 1_454
Fe3 Ho0 3.020024 1_544
Fe3 Ho1 3.020024 1_554
Fe3 Ho0 3.020024 1_445
