# generated using pymatgen
data_PrCd6
_symmetry_space_group_name_H-M   'P 1'
_cell_length_a   13.86507251
_cell_length_b   13.86507251
_cell_length_c   13.86507251
_cell_angle_alpha   110.49203775
_cell_angle_beta   109.78450835
_cell_angle_gamma   108.14598941
_symmetry_Int_Tables_number   1
_chemical_formula_structural   PrCd6
_chemical_formula_sum   'Pr12 Cd72'
_cell_volume   2050.94387585
_cell_formula_units_Z   12
loop_
 _symmetry_equiv_pos_site_id
 _symmetry_equiv_pos_as_xyz
  1  'x, y, z'
loop_
 _atom_site_type_symbol
 _atom_site_label
 _atom_site_symmetry_multiplicity
 _atom_site_fract_x
 _atom_site_fract_y
 _atom_site_fract_z
 _atom_site_occupancy
  Pr  Pr0  1  0.80401500  0.50608700  0.70207200  1
  Pr  Pr1  1  0.19598500  0.49391300  0.29792800  1
  Pr  Pr2  1  0.19598500  0.89805800  0.70207200  1
  Pr  Pr3  1  0.80401500  0.10194200  0.29792800  1
  Pr  Pr4  1  0.11049200  0.30130900  0.80918300  1
  Pr  Pr5  1  0.88950800  0.69869100  0.19081700  1
  Pr  Pr6  1  0.49212600  0.30130900  0.19081700  1
  Pr  Pr7  1  0.50787400  0.69869100  0.80918300  1
  Pr  Pr8  1  0.29721600  0.18833200  0.48554800  1
  Pr  Pr9  1  0.70278400  0.81166800  0.51445200  1
  Pr  Pr10  1  0.29721600  0.81166800  0.10888400  1
  Pr  Pr11  1  0.70278400  0.18833200  0.89111600  1
  Cd  Cd0  1  0.99817800  0.67701400  0.99963300  1
  Cd  Cd1  1  0.32261900  0.32298600  0.32116500  1
  Cd  Cd2  1  0.00182200  0.00145500  0.67883500  1
  Cd  Cd3  1  0.67738100  0.99854500  0.00036700  1
  Cd  Cd4  1  0.00182200  0.32298600  0.00036700  1
  Cd  Cd5  1  0.67738100  0.67701400  0.67883500  1
  Cd  Cd6  1  0.99817800  0.99854500  0.32116500  1
  Cd  Cd7  1  0.32261900  0.00145500  0.99963300  1
  Cd  Cd8  1  0.74353000  0.64745400  0.90392500  1
  Cd  Cd9  1  0.25647000  0.35254600  0.09607500  1
  Cd  Cd10  1  0.25647000  0.16039500  0.90392500  1
  Cd  Cd11  1  0.74353000  0.83960500  0.09607500  1
  Cd  Cd12  1  0.85455400  0.09026100  0.76429300  1
  Cd  Cd13  1  0.14544600  0.90973900  0.23570700  1
  Cd  Cd14  1  0.32596700  0.09026100  0.23570700  1
  Cd  Cd15  1  0.67403300  0.90973900  0.76429300  1
  Cd  Cd16  1  0.09449900  0.24219000  0.33668900  1
  Cd  Cd17  1  0.90550100  0.75781000  0.66331100  1
  Cd  Cd18  1  0.09449900  0.75781000  0.85230900  1
  Cd  Cd19  1  0.90550100  0.24219000  0.14769100  1
  Cd  Cd20  1  0.59636300  0.24261400  0.64625100  1
  Cd  Cd21  1  0.40363700  0.75738600  0.35374900  1
  Cd  Cd22  1  0.40363700  0.04988800  0.64625100  1
  Cd  Cd23  1  0.59636300  0.95011200  0.35374900  1
  Cd  Cd24  1  0.94841100  0.35279500  0.59561600  1
  Cd  Cd25  1  0.05158900  0.64720500  0.40438400  1
  Cd  Cd26  1  0.75717900  0.35279500  0.40438400  1
  Cd  Cd27  1  0.24282100  0.64720500  0.59561600  1
  Cd  Cd28  1  0.35001300  0.40369900  0.75371200  1
  Cd  Cd29  1  0.64998700  0.59630100  0.24628800  1
  Cd  Cd30  1  0.35001300  0.59630100  0.94631400  1
  Cd  Cd31  1  0.64998700  0.40369900  0.05368600  1
  Cd  Cd32  1  0.59187300  0.59187300  0.00000000  1
  Cd  Cd33  1  0.40812700  0.40812700  0.00000000  1
  Cd  Cd34  1  0.59573600  0.00000000  0.59573600  1
  Cd  Cd35  1  0.40426400  0.00000000  0.40426400  1
  Cd  Cd36  1  0.00000000  0.40467100  0.40467100  1
  Cd  Cd37  1  0.00000000  0.59532900  0.59532900  1
  Cd  Cd38  1  0.77249200  0.45249200  0.91465800  1
  Cd  Cd39  1  0.46216600  0.54750800  0.32000000  1
  Cd  Cd40  1  0.22750800  0.14216600  0.68000000  1
  Cd  Cd41  1  0.53783400  0.85783400  0.08534200  1
  Cd  Cd42  1  0.86014900  0.08970200  0.54852000  1
  Cd  Cd43  1  0.13985100  0.68837100  0.22955300  1
  Cd  Cd44  1  0.54118200  0.31162900  0.45148000  1
  Cd  Cd45  1  0.45881800  0.91029800  0.77044700  1
  Cd  Cd46  1  0.31567400  0.45591300  0.54051900  1
  Cd  Cd47  1  0.91539400  0.77515500  0.45948100  1
  Cd  Cd48  1  0.08460600  0.54408700  0.85976100  1
  Cd  Cd49  1  0.68432600  0.22484500  0.14023900  1
  Cd  Cd50  1  0.22750800  0.54750800  0.08534200  1
  Cd  Cd51  1  0.53783400  0.45249200  0.68000000  1
  Cd  Cd52  1  0.77249200  0.85783400  0.32000000  1
  Cd  Cd53  1  0.46216600  0.14216600  0.91465800  1
  Cd  Cd54  1  0.13985100  0.91029800  0.45148000  1
  Cd  Cd55  1  0.86014900  0.31162900  0.77044700  1
  Cd  Cd56  1  0.45881800  0.68837100  0.54852000  1
  Cd  Cd57  1  0.54118200  0.08970200  0.22955300  1
  Cd  Cd58  1  0.68432600  0.54408700  0.45948100  1
  Cd  Cd59  1  0.08460600  0.22484500  0.54051900  1
  Cd  Cd60  1  0.91539400  0.45591300  0.14023900  1
  Cd  Cd61  1  0.31567400  0.77515500  0.85976100  1
  Cd  Cd62  1  0.50000000  0.30196100  0.80196100  1
  Cd  Cd63  1  0.50000000  0.69803900  0.19803900  1
  Cd  Cd64  1  0.69874300  0.19874300  0.50000000  1
  Cd  Cd65  1  0.30125700  0.80125700  0.50000000  1
  Cd  Cd66  1  0.19361100  0.50000000  0.69361100  1
  Cd  Cd67  1  0.80638900  0.50000000  0.30638900  1
  Cd  Cd68  1  0.91526700  0.82099900  0.90573200  1
  Cd  Cd69  1  0.08473300  0.17900100  0.09426800  1
  Cd  Cd70  1  0.08473300  0.99046500  0.90573200  1
  Cd  Cd71  1  0.91526700  0.00953500  0.09426800  1
loop_
_geom_bond_atom_site_label_1
_geom_bond_atom_site_label_2
_geom_bond_distance
_geom_bond_site_symmetry_2
Cd0 Cd48 3.006692 1_655
Cd0 Cd68 3.039426 1_555
Cd0 Cd43 3.043433 1_656
Cd0 Cd13 3.044942 1_656
Cd0 Cd18 3.118967 1_655
Cd0 Cd38 3.120786 1_555
Cd0 Cd8 3.152925 1_555
Cd0 Pr0 3.398025 1_555
Cd0 Pr5 3.437326 1_556
Cd0 Pr10 3.452188 1_656
Cd1 Cd46 3.006681 1_555
Cd1 Cd69 3.039433 1_555
Cd1 Cd44 3.043429 1_555
Cd1 Cd14 3.044935 1_555
Cd1 Cd16 3.118960 1_555
Cd1 Cd39 3.120794 1_555
Cd1 Cd9 3.152951 1_555
Cd1 Pr1 3.398027 1_555
Cd1 Pr6 3.437336 1_555
Cd1 Pr8 3.452176 1_555
Cd2 Cd47 3.006685 1_445
Cd2 Cd70 3.039439 1_545
Cd2 Cd42 3.043426 1_455
Cd2 Cd40 3.120778 1_555
Cd2 Pr2 3.398015 1_545
Cd2 Pr4 3.437326 1_555
Cd2 Pr9 3.452188 1_445
Cd3 Cd49 3.006692 1_565
Cd3 Cd71 3.039426 1_565
Cd3 Cd45 3.043433 1_554
Cd3 Cd41 3.120786 1_555
Cd3 Pr3 3.398027 1_565
Cd3 Pr7 3.437326 1_554
Cd3 Pr11 3.452188 1_564
Cd4 Cd60 3.006692 1_455
Cd4 Cd69 3.039426 1_555
Cd4 Cd55 3.043433 1_454
Cd4 Cd50 3.120786 1_555
Cd4 Cd9 3.152925 1_555
Cd4 Pr1 3.398025 1_555
Cd4 Pr4 3.437326 1_554
Cd4 Pr11 3.452188 1_454
Cd5 Cd58 3.006681 1_555
Cd5 Cd68 3.039433 1_555
Cd5 Cd56 3.043429 1_555
Cd5 Cd51 3.120794 1_555
Cd5 Cd8 3.152951 1_555
Cd5 Pr0 3.398027 1_555
Cd5 Pr7 3.437336 1_555
Cd5 Pr9 3.452176 1_555
Cd6 Cd71 3.039439 1_565
Cd6 Pr3 3.398015 1_565
Cd6 Pr5 3.437326 1_555
Cd6 Pr8 3.452188 1_665
Cd7 Cd70 3.039426 1_545
Cd7 Pr2 3.398027 1_545
Cd7 Pr6 3.437326 1_556
Cd7 Pr10 3.452188 1_546
Cd8 Pr0 3.339142 1_555
Cd8 Pr5 3.478442 1_556
Cd8 Pr7 3.478456 1_555
Cd9 Pr1 3.339142 1_555
Cd9 Pr4 3.478442 1_554
Cd9 Pr6 3.478456 1_555
Cd10 Cd70 2.794440 1_545
Cd10 Cd33 2.897491 1_556
Cd10 Cd53 2.899635 1_555
Cd10 Cd40 2.899635 1_555
Cd10 Cd9 3.037453 1_556
Cd10 Cd7 3.152930 1_555
Cd10 Cd2 3.152935 1_555
Cd10 Pr2 3.339137 1_545
Cd10 Pr6 3.478447 1_556
Cd10 Pr4 3.478447 1_555
Cd11 Cd71 2.794440 1_565
Cd11 Cd32 2.897491 1_555
Cd11 Cd52 2.899635 1_555
Cd11 Cd41 2.899635 1_555
Cd11 Cd8 3.037453 1_554
Cd11 Cd3 3.152930 1_555
Cd11 Cd6 3.152935 1_555
Cd11 Pr3 3.339137 1_565
Cd11 Pr5 3.478447 1_555
Cd11 Pr7 3.478447 1_554
Cd12 Cd15 2.937225 1_545
Cd12 Cd42 3.016231 1_555
Cd12 Cd55 3.016231 1_555
Cd12 Cd4 3.044942 1_656
Cd12 Cd2 3.044948 1_655
Cd12 Cd34 3.063170 1_555
Cd12 Pr11 3.461527 1_555
Cd12 Pr9 3.461527 1_545
Cd12 Pr4 3.507748 1_655
Cd13 Cd14 2.937225 1_565
Cd13 Cd43 3.016231 1_555
Cd13 Cd54 3.016231 1_555
Cd13 Cd6 3.044948 1_455
Cd13 Cd35 3.063170 1_565
Cd13 Pr8 3.461527 1_565
Cd13 Pr10 3.461527 1_555
Cd13 Pr5 3.507748 1_455
Cd14 Cd44 3.016235 1_555
Cd14 Cd57 3.016245 1_555
Cd14 Cd7 3.044948 1_554
Cd14 Cd35 3.063173 1_555
Cd14 Pr8 3.461519 1_555
Cd14 Pr10 3.461532 1_545
Cd14 Pr6 3.507754 1_555
Cd15 Cd56 3.016235 1_555
Cd15 Cd45 3.016245 1_555
Cd15 Cd5 3.044935 1_555
Cd15 Cd3 3.044948 1_556
Cd15 Cd34 3.063173 1_565
Cd15 Pr9 3.461519 1_555
Cd15 Pr11 3.461532 1_565
Cd15 Pr7 3.507754 1_555
Cd16 Cd46 2.963331 1_555
Cd16 Cd59 2.963331 1_555
Cd16 Cd36 2.977951 1_555
Cd16 Cd19 3.014149 1_455
Cd16 Cd69 3.104782 1_555
Cd16 Cd71 3.104782 1_455
Cd16 Cd6 3.118974 1_445
Cd16 Pr8 3.343162 1_555
Cd16 Pr1 3.635411 1_555
Cd16 Pr3 3.635413 1_455
Cd17 Cd47 2.963331 1_555
Cd17 Cd58 2.963331 1_555
Cd17 Cd37 2.977951 1_655
Cd17 Cd18 3.014149 1_655
Cd17 Cd70 3.104782 1_655
Cd17 Cd68 3.104782 1_555
Cd17 Cd5 3.118960 1_555
Cd17 Cd2 3.118974 1_665
Cd17 Pr9 3.343162 1_555
Cd17 Pr0 3.635411 1_555
Cd17 Pr2 3.635413 1_655
Cd18 Cd48 2.963331 1_555
Cd18 Cd61 2.963331 1_555
Cd18 Cd37 2.977951 1_555
Cd18 Cd70 3.104782 1_555
Cd18 Cd68 3.104782 1_455
Cd18 Cd7 3.118967 1_565
Cd18 Pr10 3.343162 1_556
Cd18 Pr0 3.635411 1_455
Cd18 Pr2 3.635420 1_555
Cd19 Cd60 2.963331 1_555
Cd19 Cd49 2.963331 1_555
Cd19 Cd36 2.977951 1_655
Cd19 Cd71 3.104782 1_555
Cd19 Cd69 3.104782 1_655
Cd19 Cd4 3.118967 1_655
Cd19 Cd3 3.118967 1_545
Cd19 Pr11 3.343162 1_554
Cd19 Pr1 3.635411 1_655
Cd19 Pr3 3.635420 1_555
Cd20 Cd64 2.849513 1_555
Cd20 Cd62 2.918367 1_555
Cd20 Cd55 3.108116 1_555
Cd20 Cd44 3.108116 1_555
Cd20 Cd22 3.135802 1_555
Cd20 Cd38 3.181202 1_555
Cd20 Cd51 3.181202 1_555
Cd20 Cd34 3.183436 1_555
Cd20 Cd35 3.183436 1_555
Cd20 Pr0 3.491986 1_555
Cd20 Pr11 3.655081 1_555
Cd20 Pr8 3.655081 1_555
Cd21 Cd65 2.849513 1_555
Cd21 Cd63 2.918367 1_555
Cd21 Cd43 3.108116 1_555
Cd21 Cd56 3.108116 1_555
Cd21 Cd23 3.135802 1_555
Cd21 Cd50 3.181202 1_555
Cd21 Cd39 3.181202 1_555
Cd21 Cd34 3.183436 1_565
Cd21 Cd35 3.183436 1_565
Cd21 Pr1 3.491986 1_555
Cd21 Pr10 3.655081 1_555
Cd21 Pr9 3.655081 1_555
Cd22 Cd65 2.849513 1_545
Cd22 Cd62 2.918367 1_555
Cd22 Cd54 3.108116 1_545
Cd22 Cd45 3.108116 1_545
Cd22 Cd40 3.181202 1_555
Cd22 Cd53 3.181202 1_555
Cd22 Cd34 3.183436 1_555
Cd22 Cd35 3.183436 1_555
Cd22 Pr2 3.491980 1_545
Cd22 Pr11 3.655081 1_555
Cd22 Pr8 3.655081 1_555
Cd23 Cd64 2.849513 1_565
Cd23 Cd63 2.918367 1_555
Cd23 Cd42 3.108116 1_565
Cd23 Cd57 3.108116 1_565
Cd23 Cd41 3.181202 1_555
Cd23 Cd52 3.181202 1_555
Cd23 Cd34 3.183436 1_565
Cd23 Cd35 3.183436 1_565
Cd23 Pr3 3.491980 1_565
Cd23 Pr10 3.655081 1_555
Cd23 Pr9 3.655081 1_555
Cd24 Cd66 2.859917 1_655
Cd24 Cd64 2.933949 1_555
Cd24 Cd26 3.049777 1_555
Cd24 Cd59 3.067736 1_655
Cd24 Cd48 3.067736 1_655
Cd24 Cd42 3.200185 1_555
Cd24 Cd55 3.200185 1_555
Cd24 Cd36 3.214470 1_655
Cd24 Cd37 3.214470 1_655
Cd24 Pr4 3.507484 1_655
Cd24 Pr0 3.627493 1_555
Cd24 Pr3 3.627498 1_555
Cd25 Cd67 2.859917 1_455
Cd25 Cd65 2.933949 1_555
Cd25 Cd27 3.049777 1_555
Cd25 Cd60 3.067736 1_455
Cd25 Cd47 3.067736 1_455
Cd25 Cd54 3.200185 1_555
Cd25 Cd43 3.200185 1_555
Cd25 Cd36 3.214470 1_555
Cd25 Cd37 3.214470 1_555
Cd25 Pr5 3.507484 1_455
Cd25 Pr1 3.627493 1_555
Cd25 Pr2 3.627498 1_555
Cd26 Cd67 2.859917 1_555
Cd26 Cd64 2.933949 1_555
Cd26 Cd49 3.067736 1_555
Cd26 Cd58 3.067736 1_555
Cd26 Cd57 3.200185 1_555
Cd26 Cd44 3.200185 1_555
Cd26 Cd36 3.214470 1_655
Cd26 Cd37 3.214470 1_655
Cd26 Pr6 3.507484 1_555
Cd26 Pr0 3.627493 1_555
Cd26 Pr3 3.627505 1_555
Cd27 Cd66 2.859917 1_555
Cd27 Cd65 2.933949 1_555
Cd27 Cd61 3.067736 1_555
Cd27 Cd46 3.067736 1_555
Cd27 Cd56 3.200185 1_555
Cd27 Cd45 3.200185 1_555
Cd27 Cd36 3.214470 1_555
Cd27 Cd37 3.214470 1_555
Cd27 Pr7 3.507484 1_555
Cd27 Pr1 3.627493 1_555
Cd27 Pr2 3.627505 1_555
Cd28 Cd62 2.882378 1_555
Cd28 Cd66 2.922147 1_555
Cd28 Cd30 3.044590 1_555
Cd28 Cd51 3.077710 1_555
Cd28 Cd40 3.077710 1_555
Cd28 Cd46 3.201344 1_555
Cd28 Cd59 3.201344 1_555
Cd28 Cd32 3.205247 1_556
Cd28 Cd33 3.205247 1_556
Cd28 Pr8 3.507032 1_555
Cd28 Pr7 3.632183 1_555
Cd28 Pr4 3.632183 1_555
Cd29 Cd63 2.882378 1_555
Cd29 Cd67 2.922147 1_555
Cd29 Cd31 3.044590 1_555
Cd29 Cd52 3.077710 1_555
Cd29 Cd39 3.077710 1_555
Cd29 Cd47 3.201344 1_555
Cd29 Cd58 3.201344 1_555
Cd29 Cd32 3.205247 1_555
Cd29 Cd33 3.205247 1_555
Cd29 Pr9 3.507032 1_555
Cd29 Pr5 3.632183 1_555
Cd29 Pr6 3.632183 1_555
Cd30 Cd63 2.882378 1_556
Cd30 Cd66 2.922147 1_555
Cd30 Cd50 3.077710 1_556
Cd30 Cd41 3.077710 1_556
Cd30 Cd61 3.201344 1_555
Cd30 Cd48 3.201344 1_555
Cd30 Cd33 3.205247 1_556
Cd30 Cd32 3.205247 1_556
Cd30 Pr10 3.507032 1_556
Cd30 Pr7 3.632183 1_555
Cd30 Pr4 3.632183 1_555
Cd31 Cd62 2.882378 1_554
Cd31 Cd67 2.922147 1_555
Cd31 Cd38 3.077710 1_554
Cd31 Cd53 3.077710 1_554
Cd31 Cd60 3.201344 1_555
Cd31 Cd49 3.201344 1_555
Cd31 Cd32 3.205247 1_555
Cd31 Cd33 3.205247 1_555
Cd31 Pr11 3.507032 1_554
Cd31 Pr5 3.632183 1_555
Cd31 Pr6 3.632183 1_555
Cd32 Cd8 2.897488 1_554
Cd32 Cd33 2.989690 1_555
Cd32 Cd63 3.469124 1_555
Cd32 Cd62 3.469124 1_554
Cd32 Pr5 3.504497 1_555
Cd32 Pr7 3.504497 1_554
Cd33 Cd9 2.897488 1_555
Cd33 Cd63 3.469124 1_555
Cd33 Cd62 3.469124 1_554
Cd33 Pr6 3.504497 1_555
Cd33 Pr4 3.504497 1_554
Cd34 Cd35 3.053604 1_555
Cd34 Pr11 3.431855 1_555
Cd34 Pr9 3.431855 1_545
Cd35 Pr8 3.431855 1_555
Cd35 Pr10 3.431855 1_545
Cd36 Cd37 3.013860 1_555
Cd36 Cd66 3.435816 1_555
Cd36 Cd67 3.435816 1_455
Cd36 Pr1 3.607742 1_555
Cd36 Pr3 3.607753 1_455
Cd37 Cd66 3.435816 1_555
Cd37 Cd67 3.435816 1_455
Cd37 Pr0 3.607742 1_455
Cd37 Pr2 3.607753 1_555
Cd38 Cd8 2.899621 1_555
Cd38 Cd60 3.058245 1_556
Cd38 Cd55 3.111116 1_555
Cd38 Cd62 3.143302 1_555
Cd38 Pr11 3.346602 1_555
Cd38 Pr0 3.410933 1_555
Cd38 Pr5 3.484138 1_556
Cd39 Cd9 2.899631 1_555
Cd39 Cd58 3.058245 1_555
Cd39 Cd56 3.111116 1_555
Cd39 Cd63 3.143302 1_555
Cd39 Pr9 3.346602 1_555
Cd39 Pr1 3.410933 1_555
Cd39 Pr6 3.484138 1_555
Cd40 Cd59 3.058245 1_555
Cd40 Cd54 3.111116 1_545
Cd40 Cd62 3.143302 1_555
Cd40 Pr8 3.346602 1_555
Cd40 Pr2 3.410919 1_545
Cd40 Pr4 3.484138 1_555
Cd41 Cd61 3.058245 1_554
Cd41 Cd57 3.111116 1_565
Cd41 Cd63 3.143302 1_555
Cd41 Pr10 3.346602 1_555
Cd41 Pr3 3.410928 1_565
Cd41 Pr7 3.484138 1_554
Cd42 Cd64 3.089805 1_555
Cd42 Cd52 3.111116 1_545
Cd42 Cd59 3.155245 1_655
Cd42 Pr3 3.372093 1_555
Cd42 Pr4 3.384980 1_655
Cd42 Pr9 3.554259 1_545
Cd43 Cd65 3.089805 1_555
Cd43 Cd50 3.111116 1_555
Cd43 Cd60 3.155245 1_455
Cd43 Pr1 3.372099 1_555
Cd43 Pr5 3.384980 1_455
Cd43 Pr10 3.554259 1_555
Cd44 Cd64 3.089805 1_555
Cd44 Cd51 3.111116 1_555
Cd44 Cd58 3.155245 1_555
Cd44 Pr0 3.372099 1_555
Cd44 Pr6 3.384980 1_555
Cd44 Pr8 3.554259 1_555
Cd45 Cd65 3.089805 1_555
Cd45 Cd53 3.111116 1_565
Cd45 Cd61 3.155245 1_555
Cd45 Pr2 3.372105 1_555
Cd45 Pr7 3.384980 1_555
Cd45 Pr11 3.554259 1_565
Cd46 Cd51 3.058245 1_555
Cd46 Cd66 3.148225 1_555
Cd46 Cd56 3.155245 1_555
Cd46 Pr7 3.349868 1_555
Cd46 Pr8 3.421615 1_555
Cd46 Pr1 3.514491 1_555
Cd47 Cd52 3.058245 1_555
Cd47 Cd67 3.148225 1_555
Cd47 Cd54 3.155245 1_655
Cd47 Pr5 3.349868 1_555
Cd47 Pr9 3.421615 1_555
Cd47 Pr2 3.514488 1_655
Cd48 Cd50 3.058245 1_556
Cd48 Cd66 3.148225 1_555
Cd48 Cd55 3.155245 1_455
Cd48 Pr4 3.349868 1_555
Cd48 Pr10 3.421615 1_556
Cd48 Pr0 3.514491 1_455
Cd49 Cd53 3.058245 1_554
Cd49 Cd67 3.148225 1_555
Cd49 Cd57 3.155245 1_555
Cd49 Pr6 3.349868 1_555
Cd49 Pr11 3.421615 1_554
Cd49 Pr3 3.514503 1_555
Cd50 Cd9 2.899621 1_555
Cd50 Cd63 3.143302 1_555
Cd50 Pr10 3.346602 1_555
Cd50 Pr1 3.410933 1_555
Cd50 Pr4 3.484138 1_554
Cd51 Cd8 2.899631 1_555
Cd51 Cd62 3.143302 1_555
Cd51 Pr8 3.346602 1_555
Cd51 Pr0 3.410933 1_555
Cd51 Pr7 3.484138 1_555
Cd52 Cd6 3.120778 1_555
Cd52 Cd63 3.143302 1_555
Cd52 Pr9 3.346602 1_555
Cd52 Pr3 3.410919 1_565
Cd52 Pr5 3.484138 1_555
Cd53 Cd7 3.120786 1_555
Cd53 Cd62 3.143302 1_555
Cd53 Pr11 3.346602 1_555
Cd53 Pr2 3.410928 1_545
Cd53 Pr6 3.484138 1_556
Cd54 Cd6 3.043426 1_455
Cd54 Cd65 3.089805 1_555
Cd54 Pr2 3.372093 1_555
Cd54 Pr5 3.384980 1_455
Cd54 Pr8 3.554259 1_565
Cd55 Cd64 3.089805 1_555
Cd55 Pr0 3.372099 1_555
Cd55 Pr4 3.384980 1_655
Cd55 Pr11 3.554259 1_555
Cd56 Cd65 3.089805 1_555
Cd56 Pr1 3.372099 1_555
Cd56 Pr7 3.384980 1_555
Cd56 Pr9 3.554259 1_555
Cd57 Cd7 3.043433 1_554
Cd57 Cd64 3.089805 1_555
Cd57 Pr3 3.372105 1_555
Cd57 Pr6 3.384980 1_555
Cd57 Pr10 3.554259 1_545
Cd58 Cd67 3.148225 1_555
Cd58 Pr6 3.349868 1_555
Cd58 Pr9 3.421615 1_555
Cd58 Pr0 3.514491 1_555
Cd59 Cd6 3.006685 1_445
Cd59 Cd66 3.148225 1_555
Cd59 Pr4 3.349868 1_555
Cd59 Pr8 3.421615 1_555
Cd59 Pr3 3.514488 1_455
Cd60 Cd67 3.148225 1_555
Cd60 Pr5 3.349868 1_555
Cd60 Pr11 3.421615 1_554
Cd60 Pr1 3.514491 1_655
Cd61 Cd7 3.006692 1_565
Cd61 Cd66 3.148225 1_555
Cd61 Pr7 3.349868 1_555
Cd61 Pr10 3.421615 1_556
Cd61 Pr2 3.514503 1_555
Cd62 Pr8 3.699349 1_555
Cd62 Pr11 3.699349 1_555
Cd63 Pr10 3.699349 1_555
Cd63 Pr9 3.699349 1_555
Cd64 Pr0 3.624550 1_555
Cd64 Pr3 3.624553 1_555
Cd65 Pr1 3.624550 1_555
Cd65 Pr2 3.624553 1_555
Cd66 Pr4 3.721365 1_555
Cd66 Pr7 3.721365 1_555
Cd67 Pr5 3.721365 1_555
Cd67 Pr6 3.721365 1_555
Cd68 Cd70 2.757343 1_655
Cd68 Cd8 2.794448 1_555
Cd68 Cd71 2.980316 1_566
Cd68 Pr0 3.693392 1_555
Cd69 Cd71 2.757343 1_455
Cd69 Cd9 2.794448 1_555
Cd69 Cd70 2.980316 1_544
Cd69 Pr1 3.693392 1_555
Cd70 Pr2 3.693389 1_555
Cd71 Pr3 3.693389 1_555
