# generated using pymatgen
data_MoPt
_symmetry_space_group_name_H-M   'P 1'
_cell_length_a   5.64294945
_cell_length_b   5.64294945
_cell_length_c   9.05417600
_cell_angle_alpha   90.00000000
_cell_angle_beta   90.00000000
_cell_angle_gamma   120.00001706
_symmetry_Int_Tables_number   1
_chemical_formula_structural   MoPt
_chemical_formula_sum   'Mo8 Pt8'
_cell_volume   249.68463042
_cell_formula_units_Z   8
loop_
 _symmetry_equiv_pos_site_id
 _symmetry_equiv_pos_as_xyz
  1  'x, y, z'
loop_
 _atom_site_type_symbol
 _atom_site_label
 _atom_site_symmetry_multiplicity
 _atom_site_fract_x
 _atom_site_fract_y
 _atom_site_fract_z
 _atom_site_occupancy
  Mo  Mo0_0  1  0.33333350  0.16666650  0.00000000  1
  Mo  Mo0_1  1  0.33333350  0.16666650  0.50000000  1
  Mo  Mo0_2  1  0.33333350  0.66666650  0.00000000  1
  Mo  Mo0_3  1  0.33333350  0.66666650  0.50000000  1
  Mo  Mo0_4  1  0.83333350  0.16666650  0.00000000  1
  Mo  Mo0_5  1  0.83333350  0.16666650  0.50000000  1
  Mo  Mo0_6  1  0.83333350  0.66666650  0.00000000  1
  Mo  Mo0_7  1  0.83333350  0.66666650  0.50000000  1
  Pt  Pt0_0  1  0.16666650  0.33333350  0.25000000  1
  Pt  Pt0_1  1  0.16666650  0.33333350  0.75000000  1
  Pt  Pt0_2  1  0.16666650  0.83333350  0.25000000  1
  Pt  Pt0_3  1  0.16666650  0.83333350  0.75000000  1
  Pt  Pt0_4  1  0.66666650  0.33333350  0.25000000  1
  Pt  Pt0_5  1  0.66666650  0.33333350  0.75000000  1
  Pt  Pt0_6  1  0.66666650  0.83333350  0.25000000  1
  Pt  Pt0_7  1  0.66666650  0.83333350  0.75000000  1
loop_
_geom_bond_atom_site_label_1
_geom_bond_atom_site_label_2
_geom_bond_distance
_geom_bond_site_symmetry_2
Mo0_0 Pt0_5 2.788763 1_554
Mo0_0 Pt0_3 2.788763 1_544
Mo0_0 Pt0_2 2.788763 1_545
Mo0_0 Pt0_4 2.788763 1_555
Mo0_0 Pt0_1 2.788766 1_554
Mo0_0 Pt0_0 2.788766 1_555
Mo0_0 Mo0_6 2.821474 1_555
Mo0_0 Mo0_6 2.821474 1_445
Mo0_0 Mo0_2 2.821475 1_545
Mo0_0 Mo0_4 2.821475 1_555
Mo0_0 Mo0_4 2.821475 1_455
Mo0_0 Mo0_2 2.821475 1_555
Mo0_1 Pt0_2 2.788763 1_545
Mo0_1 Pt0_4 2.788763 1_555
Mo0_1 Pt0_5 2.788763 1_555
Mo0_1 Pt0_3 2.788763 1_545
Mo0_1 Pt0_0 2.788766 1_555
Mo0_1 Pt0_1 2.788766 1_555
Mo0_1 Mo0_7 2.821474 1_555
Mo0_1 Mo0_7 2.821474 1_445
Mo0_1 Mo0_5 2.821475 1_555
Mo0_1 Mo0_3 2.821475 1_545
Mo0_1 Mo0_3 2.821475 1_555
Mo0_1 Mo0_5 2.821475 1_455
Mo0_2 Pt0_7 2.788763 1_554
Mo0_2 Pt0_1 2.788763 1_554
Mo0_2 Pt0_6 2.788763 1_555
Mo0_2 Pt0_0 2.788763 1_555
Mo0_2 Pt0_3 2.788766 1_554
Mo0_2 Pt0_2 2.788766 1_555
Mo0_2 Mo0_4 2.821474 1_565
Mo0_2 Mo0_4 2.821474 1_455
Mo0_2 Mo0_6 2.821475 1_555
Mo0_2 Mo0_6 2.821475 1_455
Mo0_3 Pt0_6 2.788763 1_555
Mo0_3 Pt0_0 2.788763 1_555
Mo0_3 Pt0_1 2.788763 1_555
Mo0_3 Pt0_7 2.788763 1_555
Mo0_3 Pt0_2 2.788766 1_555
Mo0_3 Pt0_3 2.788766 1_555
Mo0_3 Mo0_5 2.821474 1_565
Mo0_3 Mo0_5 2.821474 1_455
Mo0_3 Mo0_7 2.821475 1_555
Mo0_3 Mo0_7 2.821475 1_455
Mo0_4 Pt0_7 2.788763 1_544
Mo0_4 Pt0_1 2.788763 1_654
Mo0_4 Pt0_6 2.788763 1_545
Mo0_4 Pt0_0 2.788763 1_655
Mo0_4 Pt0_5 2.788766 1_554
Mo0_4 Pt0_4 2.788766 1_555
Mo0_4 Mo0_6 2.821475 1_545
Mo0_4 Mo0_6 2.821475 1_555
Mo0_5 Pt0_6 2.788763 1_545
Mo0_5 Pt0_0 2.788763 1_655
Mo0_5 Pt0_7 2.788763 1_545
Mo0_5 Pt0_1 2.788763 1_655
Mo0_5 Pt0_4 2.788766 1_555
Mo0_5 Pt0_5 2.788766 1_555
Mo0_5 Mo0_7 2.821475 1_545
Mo0_5 Mo0_7 2.821475 1_555
Mo0_6 Pt0_3 2.788763 1_654
Mo0_6 Pt0_5 2.788763 1_554
Mo0_6 Pt0_4 2.788763 1_555
Mo0_6 Pt0_2 2.788763 1_655
Mo0_6 Pt0_7 2.788766 1_554
Mo0_6 Pt0_6 2.788766 1_555
Mo0_7 Pt0_4 2.788763 1_555
Mo0_7 Pt0_2 2.788763 1_655
Mo0_7 Pt0_5 2.788763 1_555
Mo0_7 Pt0_3 2.788763 1_655
Mo0_7 Pt0_6 2.788766 1_555
Mo0_7 Pt0_7 2.788766 1_555
Pt0_0 Pt0_6 2.821474 1_445
Pt0_0 Pt0_6 2.821474 1_555
Pt0_0 Pt0_2 2.821475 1_555
Pt0_0 Pt0_4 2.821475 1_455
Pt0_0 Pt0_4 2.821475 1_555
Pt0_0 Pt0_2 2.821475 1_545
Pt0_1 Pt0_7 2.821474 1_445
Pt0_1 Pt0_7 2.821474 1_555
Pt0_1 Pt0_3 2.821475 1_555
Pt0_1 Pt0_5 2.821475 1_455
Pt0_1 Pt0_5 2.821475 1_555
Pt0_1 Pt0_3 2.821475 1_545
Pt0_2 Pt0_4 2.821474 1_455
Pt0_2 Pt0_4 2.821474 1_565
Pt0_2 Pt0_6 2.821475 1_455
Pt0_2 Pt0_6 2.821475 1_555
Pt0_3 Pt0_5 2.821474 1_455
Pt0_3 Pt0_5 2.821474 1_565
Pt0_3 Pt0_7 2.821475 1_455
Pt0_3 Pt0_7 2.821475 1_555
Pt0_4 Pt0_6 2.821475 1_555
Pt0_4 Pt0_6 2.821475 1_545
Pt0_5 Pt0_7 2.821475 1_555
Pt0_5 Pt0_7 2.821475 1_545
