# generated using pymatgen
data_Mg14NbCdO16
_symmetry_space_group_name_H-M   'P 1'
_cell_length_a   8.69557185
_cell_length_b   8.76782275
_cell_length_c   4.31417247
_cell_angle_alpha   90.00000000
_cell_angle_beta   90.00000000
_cell_angle_gamma   90.00000000
_symmetry_Int_Tables_number   1
_chemical_formula_structural   Mg14NbCdO16
_chemical_formula_sum   'Mg14 Nb1 Cd1 O16'
_cell_volume   328.91782715
_cell_formula_units_Z   1
loop_
 _symmetry_equiv_pos_site_id
 _symmetry_equiv_pos_as_xyz
  1  'x, y, z'
loop_
 _atom_site_type_symbol
 _atom_site_label
 _atom_site_symmetry_multiplicity
 _atom_site_fract_x
 _atom_site_fract_y
 _atom_site_fract_z
 _atom_site_occupancy
  Mg  Mg0  1  0.50000000  0.00000000  0.00000000  1
  Mg  Mg1  1  0.50000000  0.50000000  0.00000000  1
  Mg  Mg2  1  -0.00000000  0.25280925  0.50000000  1
  Mg  Mg3  1  -0.00000000  0.74719075  0.50000000  1
  Mg  Mg4  1  0.50000000  0.25031813  0.50000000  1
  Mg  Mg5  1  0.50000000  0.74968187  0.50000000  1
  Mg  Mg6  1  0.25599255  0.00000000  0.50000000  1
  Mg  Mg7  1  0.25619540  0.50000000  0.50000000  1
  Mg  Mg8  1  0.74400745  0.00000000  0.50000000  1
  Mg  Mg9  1  0.74380460  0.50000000  0.50000000  1
  Mg  Mg10  1  0.25535822  0.25068400  0.00000000  1
  Mg  Mg11  1  0.25535822  0.74931600  -0.00000000  1
  Mg  Mg12  1  0.74464178  0.25068400  0.00000000  1
  Mg  Mg13  1  0.74464178  0.74931600  -0.00000000  1
  Nb  Nb0  1  -0.00000000  0.00000000  0.00000000  1
  Cd  Cd0  1  -0.00000000  0.50000000  0.00000000  1
  O  O0  1  0.26203268  0.00000000  0.00000000  1
  O  O1  1  0.26797496  0.50000000  0.00000000  1
  O  O2  1  0.73796732  0.00000000  -0.00000000  1
  O  O3  1  0.73202504  0.50000000  0.00000000  1
  O  O4  1  0.24893380  0.24955183  0.50000000  1
  O  O5  1  0.24893380  0.75044817  0.50000000  1
  O  O6  1  0.75106620  0.24955183  0.50000000  1
  O  O7  1  0.75106620  0.75044817  0.50000000  1
  O  O8  1  -0.00000000  0.00000000  0.50000000  1
  O  O9  1  -0.00000000  0.50000000  0.50000000  1
  O  O10  1  0.50000000  0.00000000  0.50000000  1
  O  O11  1  0.50000000  0.50000000  0.50000000  1
  O  O12  1  -0.00000000  0.24523067  0.00000000  1
  O  O13  1  -0.00000000  0.75476933  -0.00000000  1
  O  O14  1  0.50000000  0.24786492  -0.00000000  1
  O  O15  1  0.50000000  0.75213508  0.00000000  1
loop_
_geom_bond_atom_site_label_1
_geom_bond_atom_site_label_2
_geom_bond_distance
_geom_bond_site_symmetry_2
Mg0 O2 2.069262 1_555
Mg0 O0 2.069262 1_555
Mg0 O10 2.157086 1_555
Mg0 O10 2.157086 1_554
Mg0 O15 2.173236 1_545
Mg0 O14 2.173236 1_555
Mg1 O1 2.017590 1_555
Mg1 O3 2.017590 1_555
Mg1 O11 2.157086 1_555
Mg1 O11 2.157086 1_554
Mg1 O14 2.210676 1_555
Mg1 O15 2.210676 1_555
Mg2 O12 2.158109 1_555
Mg2 O12 2.158109 1_556
Mg2 O4 2.164810 1_555
Mg2 O6 2.164810 1_455
Mg2 O9 2.167325 1_555
Mg2 O8 2.216587 1_555
Mg3 O13 2.158109 1_555
Mg3 O13 2.158109 1_556
Mg3 O5 2.164810 1_555
Mg3 O7 2.164810 1_455
Mg3 O9 2.167325 1_555
Mg3 O8 2.216587 1_565
Mg4 O14 2.157193 1_556
Mg4 O14 2.157193 1_555
Mg4 O6 2.183175 1_555
Mg4 O4 2.183175 1_555
Mg4 O11 2.189166 1_555
Mg4 O10 2.194745 1_555
Mg5 O15 2.157193 1_556
Mg5 O15 2.157193 1_555
Mg5 O7 2.183175 1_555
Mg5 O5 2.183175 1_555
Mg5 O11 2.189166 1_555
Mg5 O10 2.194745 1_565
Mg6 O10 2.121784 1_555
Mg6 O0 2.157726 1_555
Mg6 O0 2.157726 1_556
Mg6 O4 2.188887 1_555
Mg6 O5 2.188887 1_545
Mg6 O8 2.226002 1_555
Mg7 O11 2.120020 1_555
Mg7 O1 2.159517 1_556
Mg7 O1 2.159517 1_555
Mg7 O4 2.196793 1_555
Mg7 O5 2.196793 1_555
Mg7 O9 2.227766 1_555
Mg8 O10 2.121784 1_555
Mg8 O2 2.157726 1_556
Mg8 O2 2.157726 1_555
Mg8 O6 2.188887 1_555
Mg8 O7 2.188887 1_545
Mg8 O8 2.226002 1_655
Mg9 O11 2.120020 1_555
Mg9 O3 2.159517 1_556
Mg9 O3 2.159517 1_555
Mg9 O7 2.196793 1_555
Mg9 O6 2.196793 1_555
Mg9 O9 2.227766 1_655
Mg10 O14 2.127444 1_555
Mg10 O4 2.157832 1_554
Mg10 O4 2.157832 1_555
Mg10 O1 2.188710 1_555
Mg10 O0 2.198719 1_555
Mg10 O12 2.221000 1_555
Mg11 O15 2.127444 1_555
Mg11 O5 2.157832 1_554
Mg11 O5 2.157832 1_555
Mg11 O1 2.188710 1_555
Mg11 O0 2.198719 1_565
Mg11 O13 2.221000 1_555
Mg12 O14 2.127444 1_555
Mg12 O6 2.157832 1_555
Mg12 O6 2.157832 1_554
Mg12 O3 2.188710 1_555
Mg12 O2 2.198719 1_555
Mg12 O12 2.221000 1_655
Mg13 O15 2.127444 1_555
Mg13 O7 2.157832 1_555
Mg13 O7 2.157832 1_554
Mg13 O3 2.188710 1_555
Mg13 O2 2.198719 1_565
Mg13 O13 2.221000 1_655
Nb0 O13 2.150139 1_545
Nb0 O12 2.150139 1_555
Nb0 O8 2.157086 1_554
Nb0 O8 2.157086 1_555
Nb0 O0 2.278524 1_555
Nb0 O2 2.278524 1_455
Cd0 O9 2.157086 1_554
Cd0 O9 2.157086 1_555
Cd0 O12 2.233772 1_555
Cd0 O13 2.233772 1_555
Cd0 O1 2.330196 1_555
Cd0 O3 2.330196 1_455
