# generated using pymatgen
data_Sc3Ni11Ge4
_symmetry_space_group_name_H-M   'P 1'
_cell_length_a   8.07399297
_cell_length_b   8.07399297
_cell_length_c   8.42927700
_cell_angle_alpha   90.00000000
_cell_angle_beta   90.00000000
_cell_angle_gamma   119.99718918
_symmetry_Int_Tables_number   1
_chemical_formula_structural   Sc3Ni11Ge4
_chemical_formula_sum   'Sc6 Ni22 Ge8'
_cell_volume   475.89373982
_cell_formula_units_Z   2
loop_
 _symmetry_equiv_pos_site_id
 _symmetry_equiv_pos_as_xyz
  1  'x, y, z'
loop_
 _atom_site_type_symbol
 _atom_site_label
 _atom_site_symmetry_multiplicity
 _atom_site_fract_x
 _atom_site_fract_y
 _atom_site_fract_z
 _atom_site_occupancy
  Sc  Sc0  1  0.80331400  0.60670800  0.75000000  1
  Sc  Sc1  1  0.80330600  0.19669400  0.75000000  1
  Sc  Sc2  1  0.39329200  0.19668600  0.75000000  1
  Sc  Sc3  1  0.19668600  0.39329200  0.25000000  1
  Sc  Sc4  1  0.19669400  0.80330600  0.25000000  1
  Sc  Sc5  1  0.60670800  0.80331400  0.25000000  1
  Ni  Ni0  1  0.84589900  0.69195900  0.09332100  1
  Ni  Ni1  1  0.84599400  0.15400600  0.09338500  1
  Ni  Ni2  1  0.30804100  0.15410100  0.09332100  1
  Ni  Ni3  1  0.15410100  0.30804100  0.90667900  1
  Ni  Ni4  1  0.15400600  0.84599400  0.90661500  1
  Ni  Ni5  1  0.69195900  0.84589900  0.90667900  1
  Ni  Ni6  1  0.15410100  0.30804100  0.59332100  1
  Ni  Ni7  1  0.15400600  0.84599400  0.59338500  1
  Ni  Ni8  1  0.69195900  0.84589900  0.59332100  1
  Ni  Ni9  1  0.84589900  0.69195900  0.40667900  1
  Ni  Ni10  1  0.84599400  0.15400600  0.40661500  1
  Ni  Ni11  1  0.30804100  0.15410100  0.40667900  1
  Ni  Ni12  1  0.43596400  0.87195100  0.75000000  1
  Ni  Ni13  1  0.43596400  0.56403600  0.75000000  1
  Ni  Ni14  1  0.12804900  0.56403600  0.75000000  1
  Ni  Ni15  1  0.56403600  0.12804900  0.25000000  1
  Ni  Ni16  1  0.56403600  0.43596400  0.25000000  1
  Ni  Ni17  1  0.87195100  0.43596400  0.25000000  1
  Ni  Ni18  1  0.66666700  0.33333300  0.50522400  1
  Ni  Ni19  1  0.33333300  0.66666700  0.49477600  1
  Ni  Ni20  1  0.33333300  0.66666700  0.00522400  1
  Ni  Ni21  1  0.66666700  0.33333300  0.99477600  1
  Ge  Ge0  1  0.50000000  0.00000000  0.50000000  1
  Ge  Ge1  1  0.50000000  0.50000000  0.50000000  1
  Ge  Ge2  1  0.00000000  0.50000000  0.50000000  1
  Ge  Ge3  1  0.50000000  0.00000000  0.00000000  1
  Ge  Ge4  1  0.50000000  0.50000000  0.00000000  1
  Ge  Ge5  1  0.00000000  0.50000000  0.00000000  1
  Ge  Ge6  1  0.99998000  0.00002000  0.75000000  1
  Ge  Ge7  1  0.00002000  0.99998000  0.25000000  1
loop_
_geom_bond_atom_site_label_1
_geom_bond_atom_site_label_2
_geom_bond_distance
_geom_bond_site_symmetry_2
Ni0 Ni16 2.547944 1_555
Ni0 Ni17 2.548583 1_555
Ni0 Ni9 2.641381 1_555
Ni0 Ni21 2.641683 1_554
Ni0 Ni5 2.666362 1_554
Ni0 Ni4 2.668036 1_654
Ni0 Sc5 2.831675 1_555
Ni0 Sc4 2.833441 1_655
Ni0 Sc0 2.954706 1_554
Ni1 Ni15 2.547985 1_555
Ni1 Ni17 2.547985 1_555
Ni1 Ni10 2.640302 1_555
Ni1 Ni21 2.641937 1_554
Ni1 Ni5 2.668036 1_544
Ni1 Ni3 2.668036 1_654
Ni1 Sc3 2.832447 1_655
Ni1 Sc5 2.832447 1_545
Ni1 Sc1 2.955406 1_554
Ni2 Ni21 2.641683 1_554
Ni2 Ni3 2.666362 1_554
Ni2 Ni4 2.668036 1_544
Ni2 Sc3 2.831675 1_555
Ni2 Sc4 2.833441 1_545
Ni2 Sc2 2.954706 1_554
Ni3 Ni6 2.641381 1_555
Ni3 Sc2 2.831675 1_555
Ni3 Sc1 2.833441 1_455
Ni3 Sc3 2.954706 1_556
Ni4 Ni7 2.640302 1_555
Ni4 Sc2 2.832447 1_565
Ni4 Sc0 2.832447 1_455
Ni4 Sc4 2.955406 1_556
Ni5 Ni8 2.641381 1_555
Ni5 Sc0 2.831675 1_555
Ni5 Sc1 2.833441 1_565
Ni5 Sc5 2.954706 1_556
Ni6 Sc2 2.831675 1_555
Ni6 Sc1 2.833441 1_455
Ni6 Sc3 2.954706 1_555
Ni7 Ni9 2.668036 1_455
Ni7 Sc2 2.832447 1_565
Ni7 Sc0 2.832447 1_455
Ni7 Sc4 2.955406 1_555
Ni8 Ni9 2.666362 1_555
Ni8 Sc0 2.831675 1_555
Ni8 Sc1 2.833441 1_565
Ni8 Sc5 2.954706 1_555
Ni9 Sc5 2.831675 1_555
Ni9 Sc4 2.833441 1_655
Ni9 Sc0 2.954706 1_555
Ni10 Ni15 2.547985 1_555
Ni10 Ni17 2.547985 1_555
Ni10 Ni18 2.641937 1_555
Ni10 Ni8 2.668036 1_545
Ni10 Ni6 2.668036 1_655
Ni10 Sc3 2.832447 1_655
Ni10 Sc5 2.832447 1_545
Ni10 Sc1 2.955406 1_555
Ni11 Ni16 2.547944 1_555
Ni11 Ni15 2.548583 1_555
Ni11 Ni2 2.641381 1_555
Ni11 Ni18 2.641683 1_555
Ni11 Ni6 2.666362 1_555
Ni11 Ni7 2.668036 1_545
Ni11 Sc3 2.831675 1_555
Ni11 Sc4 2.833441 1_545
Ni11 Sc2 2.954706 1_555
Ni12 Ni13 2.486104 1_555
Ni12 Ni14 2.486209 1_555
Ni12 Ni7 2.547985 1_555
Ni12 Ni4 2.547985 1_555
Ni12 Ni5 2.548583 1_555
Ni12 Ni8 2.548583 1_555
Ni12 Ni20 2.586276 1_556
Ni12 Ni19 2.586276 1_555
Ni12 Sc1 2.809895 1_565
Ni12 Sc2 2.810047 1_565
Ni13 Ni14 2.486104 1_555
Ni13 Ni6 2.547944 1_555
Ni13 Ni3 2.547944 1_555
Ni13 Ni5 2.547944 1_555
Ni13 Ni8 2.547944 1_555
Ni13 Ni20 2.586157 1_556
Ni13 Ni19 2.586157 1_555
Ni13 Sc0 2.809618 1_555
Ni13 Sc2 2.809618 1_555
Ni14 Ni7 2.547985 1_555
Ni14 Ni4 2.547985 1_555
Ni14 Ni6 2.548583 1_555
Ni14 Ni3 2.548583 1_555
Ni14 Ni20 2.586276 1_556
Ni14 Ni19 2.586276 1_555
Ni14 Sc1 2.809895 1_455
Ni14 Sc0 2.810047 1_455
Ni15 Ni16 2.486104 1_555
Ni15 Ni17 2.486209 1_555
Ni15 Ni2 2.548583 1_555
Ni15 Ni18 2.586276 1_555
Ni15 Ni21 2.586276 1_554
Ni15 Sc4 2.809895 1_545
Ni15 Sc5 2.810047 1_545
Ni16 Ni17 2.486104 1_555
Ni16 Ni9 2.547944 1_555
Ni16 Ni2 2.547944 1_555
Ni16 Ni18 2.586157 1_555
Ni16 Ni21 2.586157 1_554
Ni16 Sc3 2.809618 1_555
Ni16 Sc5 2.809618 1_555
Ni17 Ni9 2.548583 1_555
Ni17 Ni21 2.586276 1_554
Ni17 Ni18 2.586276 1_555
Ni17 Sc4 2.809895 1_655
Ni17 Sc3 2.810047 1_655
Ni18 Ni9 2.641683 1_555
Ni18 Sc1 2.812177 1_555
Ni18 Sc0 2.812693 1_555
Ni18 Sc2 2.812693 1_555
Ni19 Ni8 2.641683 1_555
Ni19 Ni6 2.641683 1_555
Ni19 Ni7 2.641937 1_555
Ni19 Sc4 2.812177 1_555
Ni19 Sc3 2.812693 1_555
Ni19 Sc5 2.812693 1_555
Ni20 Ni5 2.641683 1_554
Ni20 Ni3 2.641683 1_554
Ni20 Ni4 2.641937 1_554
Ni20 Sc4 2.812177 1_555
Ni20 Sc3 2.812693 1_555
Ni20 Sc5 2.812693 1_555
Ni21 Sc1 2.812177 1_555
Ni21 Sc0 2.812693 1_555
Ni21 Sc2 2.812693 1_555
Ge0 Ni12 2.289651 1_545
Ge0 Ni15 2.289651 1_555
Ge0 Ni18 2.331241 1_555
Ge0 Ni19 2.331241 1_545
Ge0 Ni7 2.548802 1_545
Ge0 Ni10 2.548802 1_555
Ge0 Ni11 2.548954 1_555
Ge0 Ni8 2.548954 1_545
Ge0 Sc4 3.011839 1_545
Ge0 Sc1 3.011839 1_555
Ge0 Sc2 3.012147 1_555
Ge0 Sc5 3.012147 1_545
Ge1 Ni16 2.289699 1_555
Ge1 Ni13 2.289699 1_555
Ge1 Ni18 2.331149 1_555
Ge1 Ni19 2.331149 1_555
Ge1 Ni8 2.548029 1_555
Ge1 Ni9 2.548029 1_555
Ge1 Ni11 2.548029 1_555
Ge1 Ni6 2.548029 1_555
Ge1 Sc2 3.011763 1_555
Ge1 Sc0 3.011763 1_555
Ge1 Sc3 3.011763 1_555
Ge1 Sc5 3.011763 1_555
Ge2 Ni14 2.289651 1_555
Ge2 Ni17 2.289651 1_455
Ge2 Ni18 2.331241 1_455
Ge2 Ni19 2.331241 1_555
Ge2 Ni7 2.548802 1_555
Ge2 Ni10 2.548802 1_455
Ge2 Ni6 2.548954 1_555
Ge2 Ni9 2.548954 1_455
Ge2 Sc4 3.011839 1_555
Ge2 Sc1 3.011839 1_455
Ge2 Sc3 3.012147 1_555
Ge2 Sc0 3.012147 1_455
Ge3 Ni12 2.289651 1_544
Ge3 Ni15 2.289651 1_555
Ge3 Ni21 2.331241 1_554
Ge3 Ni20 2.331241 1_545
Ge3 Ni1 2.548802 1_555
Ge3 Ni4 2.548802 1_544
Ge3 Ni2 2.548954 1_555
Ge3 Ni5 2.548954 1_544
Ge3 Sc4 3.011839 1_545
Ge3 Sc1 3.011839 1_554
Ge3 Sc2 3.012147 1_554
Ge3 Sc5 3.012147 1_545
Ge4 Ni16 2.289699 1_555
Ge4 Ni13 2.289699 1_554
Ge4 Ni21 2.331149 1_554
Ge4 Ni20 2.331149 1_555
Ge4 Ni0 2.548029 1_555
Ge4 Ni5 2.548029 1_554
Ge4 Ni3 2.548029 1_554
Ge4 Ni2 2.548029 1_555
Ge4 Sc0 3.011763 1_554
Ge4 Sc3 3.011763 1_555
Ge4 Sc2 3.011763 1_554
Ge4 Sc5 3.011763 1_555
Ge5 Ni14 2.289651 1_554
Ge5 Ni17 2.289651 1_455
Ge5 Ni20 2.331241 1_555
Ge5 Ni21 2.331241 1_454
Ge5 Ni4 2.548802 1_554
Ge5 Ni1 2.548802 1_455
Ge5 Ni3 2.548954 1_554
Ge5 Ni0 2.548954 1_455
Ge5 Sc4 3.011839 1_555
Ge5 Sc1 3.011839 1_454
Ge5 Sc3 3.012147 1_555
Ge5 Sc0 3.012147 1_454
Ge6 Ni4 2.526327 1_645
Ge6 Ni7 2.526327 1_645
Ge6 Ni3 2.526502 1_655
Ge6 Ni6 2.526502 1_655
Ge6 Ni8 2.526502 1_545
Ge6 Ni5 2.526502 1_545
Ge6 Sc0 2.750227 1_545
Ge6 Sc2 2.750227 1_655
Ge6 Sc1 2.750362 1_555
Ge7 Ni1 2.526327 1_465
Ge7 Ni10 2.526327 1_465
Ge7 Ni11 2.526502 1_565
Ge7 Ni9 2.526502 1_455
Ge7 Ni2 2.526502 1_565
Ge7 Ni0 2.526502 1_455
Ge7 Sc3 2.750227 1_565
Ge7 Sc5 2.750227 1_455
Ge7 Sc4 2.750362 1_555
