# generated using pymatgen
data_Sm2Co17
_symmetry_space_group_name_H-M   'P 1'
_cell_length_a   6.31633996
_cell_length_b   6.31633996
_cell_length_c   6.31634021
_cell_angle_alpha   82.96872490
_cell_angle_beta   82.96872490
_cell_angle_gamma   82.96871990
_symmetry_Int_Tables_number   1
_chemical_formula_structural   Sm2Co17
_chemical_formula_sum   'Sm2 Co17'
_cell_volume   246.74097991
_cell_formula_units_Z   1
loop_
 _symmetry_equiv_pos_site_id
 _symmetry_equiv_pos_as_xyz
  1  'x, y, z'
loop_
 _atom_site_type_symbol
 _atom_site_label
 _atom_site_symmetry_multiplicity
 _atom_site_fract_x
 _atom_site_fract_y
 _atom_site_fract_z
 _atom_site_occupancy
  Sm  Sm0  1  0.65599200  0.65599200  0.65599200  1
  Sm  Sm1  1  0.34400800  0.34400800  0.34400800  1
  Co  Co0  1  0.90391800  0.90391800  0.90391800  1
  Co  Co1  1  0.09608200  0.09608200  0.09608200  1
  Co  Co2  1  0.00000000  0.00000000  0.50000000  1
  Co  Co3  1  0.00000000  0.50000000  0.00000000  1
  Co  Co4  1  0.50000000  0.00000000  0.00000000  1
  Co  Co5  1  0.28625400  0.71374600  0.00000000  1
  Co  Co6  1  0.71374600  0.00000000  0.28625400  1
  Co  Co7  1  0.00000000  0.28625400  0.71374600  1
  Co  Co8  1  0.28625400  0.00000000  0.71374600  1
  Co  Co9  1  0.00000000  0.71374600  0.28625400  1
  Co  Co10  1  0.71374600  0.28625400  0.00000000  1
  Co  Co11  1  0.85037900  0.34397100  0.34397100  1
  Co  Co12  1  0.34397100  0.34397100  0.85037900  1
  Co  Co13  1  0.34397100  0.85037900  0.34397100  1
  Co  Co14  1  0.14962100  0.65602900  0.65602900  1
  Co  Co15  1  0.65602900  0.65602900  0.14962100  1
  Co  Co16  1  0.65602900  0.14962100  0.65602900  1
loop_
_geom_bond_atom_site_label_1
_geom_bond_atom_site_label_2
_geom_bond_distance
_geom_bond_site_symmetry_2
Co0 Co1 2.345589 1_666
Co0 Co3 2.564704 1_656
Co0 Co4 2.564704 1_566
Co0 Co2 2.564704 1_665
Co0 Co14 2.592695 1_655
Co0 Co16 2.592695 1_565
Co0 Co15 2.592695 1_556
Co0 Co10 2.667091 1_566
Co0 Co5 2.667091 1_656
Co0 Co9 2.667091 1_656
Co0 Co6 2.667091 1_566
Co0 Co7 2.667091 1_665
Co0 Co8 2.667091 1_665
Co0 Sm0 3.026230 1_555
Co1 Co3 2.564704 1_555
Co1 Co4 2.564704 1_555
Co1 Co2 2.564704 1_555
Co1 Co11 2.592695 1_455
Co1 Co13 2.592695 1_545
Co1 Co12 2.592695 1_554
Co1 Co10 2.667091 1_455
Co1 Co5 2.667091 1_545
Co1 Co7 2.667091 1_554
Co1 Co8 2.667091 1_554
Co1 Co6 2.667091 1_455
Co1 Co9 2.667091 1_545
Co1 Sm1 3.026230 1_555
Co2 Co8 2.385272 1_555
Co2 Co6 2.385272 1_455
Co2 Co9 2.385272 1_545
Co2 Co7 2.385272 1_555
Co2 Sm1 3.243633 1_555
Co2 Sm0 3.243633 1_445
Co3 Co9 2.385272 1_555
Co3 Co7 2.385272 1_554
Co3 Co5 2.385272 1_555
Co3 Sm0 3.243633 1_454
Co3 Sm1 3.243633 1_555
Co4 Co6 2.385272 1_555
Co4 Co8 2.385272 1_554
Co4 Co5 2.385272 1_545
Co4 Sm0 3.243633 1_544
Co4 Sm1 3.243633 1_555
Co5 Co8 2.395398 1_564
Co5 Co9 2.395398 1_555
Co5 Sm0 3.008593 1_554
Co5 Sm1 3.008593 1_555
Co6 Co9 2.395398 1_645
Co6 Sm1 3.008593 1_555
Co6 Sm0 3.008593 1_545
Co7 Co8 2.395398 1_555
Co7 Sm0 3.008593 1_455
Co7 Sm1 3.008593 1_555
Co8 Sm0 3.008593 1_545
Co8 Sm1 3.008593 1_555
Co9 Sm1 3.008593 1_555
Co9 Sm0 3.008593 1_455
Co10 Co3 2.385272 1_655
Co10 Co4 2.385272 1_555
Co10 Co7 2.395398 1_654
Co10 Co6 2.395398 1_555
Co10 Co11 2.515562 1_555
Co10 Co16 2.515562 1_554
Co10 Co12 2.593987 1_554
Co10 Co15 2.593987 1_555
Co10 Sm0 3.008593 1_554
Co10 Sm1 3.008593 1_555
Co11 Co2 2.405387 1_655
Co11 Co3 2.405387 1_655
Co11 Co15 2.466409 1_555
Co11 Co16 2.466410 1_555
Co11 Co6 2.515562 1_555
Co11 Co9 2.593987 1_655
Co11 Co7 2.593987 1_655
Co11 Sm0 3.006985 1_555
Co11 Sm1 3.117986 1_655
Co11 Sm1 3.198354 1_555
Co12 Co4 2.405387 1_556
Co12 Co3 2.405387 1_556
Co12 Co16 2.466409 1_555
Co12 Co14 2.466409 1_555
Co12 Co7 2.515562 1_555
Co12 Co8 2.515562 1_555
Co12 Co5 2.593987 1_556
Co12 Sm0 3.006985 1_555
Co12 Sm1 3.117986 1_556
Co12 Sm1 3.198354 1_555
Co13 Co2 2.405387 1_565
Co13 Co4 2.405387 1_565
Co13 Co15 2.466409 1_555
Co13 Co14 2.466410 1_555
Co13 Co9 2.515562 1_555
Co13 Co5 2.515562 1_555
Co13 Co6 2.593987 1_565
Co13 Co8 2.593987 1_565
Co13 Sm0 3.006985 1_555
Co13 Sm1 3.117986 1_565
Co13 Sm1 3.198354 1_555
Co14 Co2 2.405387 1_565
Co14 Co3 2.405387 1_556
Co14 Co8 2.515562 1_565
Co14 Co5 2.515562 1_556
Co14 Co7 2.593987 1_555
Co14 Co9 2.593987 1_555
Co14 Sm1 3.006985 1_555
Co14 Sm0 3.117986 1_455
Co14 Sm0 3.198354 1_555
Co15 Co3 2.405387 1_655
Co15 Co4 2.405387 1_565
Co15 Co6 2.515562 1_565
Co15 Co9 2.515562 1_655
Co15 Co5 2.593987 1_555
Co15 Sm1 3.006985 1_555
Co15 Sm0 3.117986 1_554
Co15 Sm0 3.198354 1_555
Co16 Co2 2.405387 1_655
Co16 Co4 2.405387 1_556
Co16 Co7 2.515562 1_655
Co16 Co8 2.593987 1_555
Co16 Co6 2.593987 1_555
Co16 Sm1 3.006985 1_555
Co16 Sm0 3.117986 1_545
Co16 Sm0 3.198354 1_555
