# generated using pymatgen
data_Ho2ZnS4
_symmetry_space_group_name_H-M   'P 1'
_cell_length_a   6.28666917
_cell_length_b   7.82691689
_cell_length_c   13.43599392
_cell_angle_alpha   90.00000000
_cell_angle_beta   90.00000000
_cell_angle_gamma   90.00000000
_symmetry_Int_Tables_number   1
_chemical_formula_structural   Ho2ZnS4
_chemical_formula_sum   'Ho8 Zn4 S16'
_cell_volume   661.12126662
_cell_formula_units_Z   4
loop_
 _symmetry_equiv_pos_site_id
 _symmetry_equiv_pos_as_xyz
  1  'x, y, z'
loop_
 _atom_site_type_symbol
 _atom_site_label
 _atom_site_symmetry_multiplicity
 _atom_site_fract_x
 _atom_site_fract_y
 _atom_site_fract_z
 _atom_site_occupancy
  Ho  Ho0  1  0.00000000  0.50000000  -0.00000000  1
  Ho  Ho1  1  0.50000000  -0.00000000  0.50000000  1
  Ho  Ho2  1  0.00000000  -0.00000000  -0.00000000  1
  Ho  Ho3  1  0.50000000  0.50000000  0.50000000  1
  Ho  Ho4  1  0.49556608  0.75000000  0.23381953  1
  Ho  Ho5  1  0.00443392  0.75000000  0.73381953  1
  Ho  Ho6  1  0.50443392  0.25000000  0.76618047  1
  Ho  Ho7  1  0.99556608  0.25000000  0.26618047  1
  Zn  Zn0  1  0.91179601  0.75000000  0.40766114  1
  Zn  Zn1  1  0.58820399  0.75000000  0.90766114  1
  Zn  Zn2  1  0.08820399  0.25000000  0.59233886  1
  Zn  Zn3  1  0.41179601  0.25000000  0.09233886  1
  S  S0  1  0.74471107  0.51371998  0.33189294  1
  S  S1  1  0.75528893  0.98628002  0.83189294  1
  S  S2  1  0.25528893  0.01371998  0.66810706  1
  S  S3  1  0.24471107  0.48628002  0.16810706  1
  S  S4  1  0.25528893  0.48628002  0.66810706  1
  S  S5  1  0.24471107  0.01371998  0.16810706  1
  S  S6  1  0.74471107  0.98628002  0.33189294  1
  S  S7  1  0.75528893  0.51371998  0.83189294  1
  S  S8  1  0.27478790  0.75000000  0.40969116  1
  S  S9  1  0.22521210  0.75000000  0.90969116  1
  S  S10  1  0.72521210  0.25000000  0.59030884  1
  S  S11  1  0.77478790  0.25000000  0.09030884  1
  S  S12  1  0.75825529  0.75000000  0.56930531  1
  S  S13  1  0.74174471  0.75000000  0.06930531  1
  S  S14  1  0.24174471  0.25000000  0.43069469  1
  S  S15  1  0.25825529  0.25000000  0.93069469  1
loop_
_geom_bond_atom_site_label_1
_geom_bond_atom_site_label_2
_geom_bond_distance
_geom_bond_site_symmetry_2
Ho0 S9 2.702904 1_554
Ho0 S11 2.702904 1_455
Ho0 S13 2.707741 1_455
Ho0 S15 2.707741 1_554
Ho0 S7 2.734944 1_454
Ho0 S3 2.734944 1_555
Ho1 S10 2.702904 1_555
Ho1 S8 2.702904 1_545
Ho1 S12 2.707741 1_545
Ho1 S14 2.707741 1_555
Ho1 S2 2.734944 1_555
Ho1 S6 2.734944 1_545
Ho2 S9 2.702904 1_544
Ho2 S11 2.702904 1_455
Ho2 S15 2.707741 1_554
Ho2 S13 2.707741 1_445
Ho2 S1 2.734944 1_444
Ho2 S5 2.734944 1_555
Ho3 S10 2.702904 1_555
Ho3 S8 2.702904 1_555
Ho3 S12 2.707741 1_555
Ho3 S14 2.707741 1_555
Ho3 S4 2.734944 1_555
Ho3 S0 2.734944 1_555
Ho4 S13 2.698355 1_555
Ho4 S8 2.740483 1_555
Ho4 S3 2.743568 1_555
Ho4 S5 2.743568 1_565
Ho4 S0 2.758571 1_555
Ho4 S6 2.758571 1_555
Ho5 S12 2.698355 1_455
Ho5 S9 2.740483 1_555
Ho5 S4 2.743568 1_555
Ho5 S2 2.743568 1_565
Ho5 S1 2.758571 1_455
Ho5 S7 2.758571 1_455
Ho6 S15 2.698355 1_555
Ho6 S10 2.740483 1_555
Ho6 S7 2.743568 1_555
Ho6 S1 2.743568 1_545
Ho6 S4 2.758571 1_555
Ho6 S2 2.758571 1_555
Ho7 S14 2.698355 1_655
Ho7 S11 2.740483 1_555
Ho7 S6 2.743568 1_545
Ho7 S0 2.743568 1_555
Ho7 S5 2.758571 1_655
Ho7 S3 2.758571 1_655
S0 Zn0 2.357922 1_555
S1 Zn1 2.357922 1_555
S2 Zn2 2.357922 1_555
S3 Zn3 2.357922 1_555
S4 Zn2 2.357922 1_555
S5 Zn3 2.357922 1_555
S6 Zn0 2.357922 1_555
S7 Zn1 2.357922 1_555
S8 Zn0 2.282173 1_455
S9 Zn1 2.282173 1_555
S10 Zn2 2.282173 1_655
S11 Zn3 2.282173 1_555
S12 Zn0 2.376691 1_555
S13 Zn1 2.376691 1_554
S14 Zn2 2.376691 1_555
S15 Zn3 2.376691 1_556
