# generated using pymatgen
data_CdPb3Se4
_symmetry_space_group_name_H-M   'P 1'
_cell_length_a   14.17643627
_cell_length_b   14.17643627
_cell_length_c   14.17643599
_cell_angle_alpha   17.64004192
_cell_angle_beta   17.64004192
_cell_angle_gamma   17.64004022
_symmetry_Int_Tables_number   1
_chemical_formula_structural   CdPb3Se4
_chemical_formula_sum   'Cd1 Pb3 Se4'
_cell_volume   228.36871736
_cell_formula_units_Z   1
loop_
 _symmetry_equiv_pos_site_id
 _symmetry_equiv_pos_as_xyz
  1  'x, y, z'
loop_
 _atom_site_type_symbol
 _atom_site_label
 _atom_site_symmetry_multiplicity
 _atom_site_fract_x
 _atom_site_fract_y
 _atom_site_fract_z
 _atom_site_occupancy
  Cd  Cd0  1  0.00000000  0.00000000  0.00000000  1
  Pb  Pb0  1  0.25386400  0.25386400  0.25386400  1
  Pb  Pb1  1  0.50000000  0.50000000  0.50000000  1
  Pb  Pb2  1  0.74613600  0.74613600  0.74613600  1
  Se  Se0  1  0.12355000  0.12355000  0.12355000  1
  Se  Se1  1  0.37008900  0.37008900  0.37008900  1
  Se  Se2  1  0.62991100  0.62991100  0.62991100  1
  Se  Se3  1  0.87645000  0.87645000  0.87645000  1
loop_
_geom_bond_atom_site_label_1
_geom_bond_atom_site_label_2
_geom_bond_distance
_geom_bond_site_symmetry_2
Cd0 Se1 2.943955 1_455
Cd0 Se1 2.943955 1_545
Cd0 Se2 2.943955 1_544
Cd0 Se2 2.943955 1_454
Cd0 Se2 2.943955 1_445
Cd0 Se1 2.943955 1_554
Pb0 Se2 3.081627 1_545
Pb0 Se2 3.081627 1_455
Pb0 Se2 3.081628 1_554
Pb0 Se3 3.115173 1_454
Pb0 Se3 3.115173 1_544
Pb0 Se3 3.115173 1_445
Pb1 Se0 3.091444 1_655
Pb1 Se0 3.091444 1_565
Pb1 Se3 3.091444 1_455
Pb1 Se3 3.091444 1_545
Pb1 Se0 3.091445 1_556
Pb1 Se3 3.091445 1_554
Pb2 Se1 3.081627 1_655
Pb2 Se1 3.081627 1_565
Pb2 Se1 3.081628 1_556
Pb2 Se0 3.115173 1_566
Pb2 Se0 3.115173 1_656
Pb2 Se0 3.115173 1_665
