# generated using pymatgen
data_Hf6Ga16Pd7
_symmetry_space_group_name_H-M   'P 1'
_cell_length_a   8.81172288
_cell_length_b   8.81172288
_cell_length_c   8.81172288
_cell_angle_alpha   60.00000000
_cell_angle_beta   60.00000000
_cell_angle_gamma   60.00000000
_symmetry_Int_Tables_number   1
_chemical_formula_structural   Hf6Ga16Pd7
_chemical_formula_sum   'Hf6 Ga16 Pd7'
_cell_volume   483.80181505
_cell_formula_units_Z   1
loop_
 _symmetry_equiv_pos_site_id
 _symmetry_equiv_pos_as_xyz
  1  'x, y, z'
loop_
 _atom_site_type_symbol
 _atom_site_label
 _atom_site_symmetry_multiplicity
 _atom_site_fract_x
 _atom_site_fract_y
 _atom_site_fract_z
 _atom_site_occupancy
  Hf  Hf0  1  0.68549400  0.68549400  0.31450600  1
  Hf  Hf1  1  0.31450600  0.68549400  0.31450600  1
  Hf  Hf2  1  0.68549400  0.31450600  0.31450600  1
  Hf  Hf3  1  0.31450600  0.31450600  0.68549400  1
  Hf  Hf4  1  0.68549400  0.31450600  0.68549400  1
  Hf  Hf5  1  0.31450600  0.68549400  0.68549400  1
  Ga  Ga0  1  0.87824000  0.87824000  0.36528000  1
  Ga  Ga1  1  0.87824000  0.36528000  0.87824000  1
  Ga  Ga2  1  0.36528000  0.87824000  0.87824000  1
  Ga  Ga3  1  0.87824000  0.87824000  0.87824000  1
  Ga  Ga4  1  0.12176000  0.12176000  0.63472000  1
  Ga  Ga5  1  0.12176000  0.63472000  0.12176000  1
  Ga  Ga6  1  0.63472000  0.12176000  0.12176000  1
  Ga  Ga7  1  0.12176000  0.12176000  0.12176000  1
  Ga  Ga8  1  0.65943000  0.65943000  0.02171000  1
  Ga  Ga9  1  0.65943000  0.02171000  0.65943000  1
  Ga  Ga10  1  0.02171000  0.65943000  0.65943000  1
  Ga  Ga11  1  0.65943000  0.65943000  0.65943000  1
  Ga  Ga12  1  0.34057000  0.34057000  0.97829000  1
  Ga  Ga13  1  0.34057000  0.97829000  0.34057000  1
  Ga  Ga14  1  0.97829000  0.34057000  0.34057000  1
  Ga  Ga15  1  0.34057000  0.34057000  0.34057000  1
  Pd  Pd0  1  0.00000000  0.00000000  0.00000000  1
  Pd  Pd1  1  0.00000000  0.00000000  0.50000000  1
  Pd  Pd2  1  0.50000000  0.00000000  0.50000000  1
  Pd  Pd3  1  0.00000000  0.50000000  0.50000000  1
  Pd  Pd4  1  0.50000000  0.50000000  0.00000000  1
  Pd  Pd5  1  0.00000000  0.50000000  0.00000000  1
  Pd  Pd6  1  0.50000000  0.00000000  0.00000000  1
loop_
_geom_bond_atom_site_label_1
_geom_bond_atom_site_label_2
_geom_bond_distance
_geom_bond_site_symmetry_2
Hf0 Pd5 3.217450 1_655
Hf0 Pd6 3.217450 1_565
Hf0 Pd3 3.217450 1_655
Hf0 Pd2 3.217450 1_565
Hf0 Hf5 3.269043 1_555
Hf0 Hf2 3.269043 1_555
Hf0 Hf4 3.269043 1_555
Hf0 Hf1 3.269043 1_555
Hf1 Pd3 3.217450 1_555
Hf1 Pd4 3.217450 1_555
Hf1 Pd6 3.217450 1_565
Hf1 Pd1 3.217450 1_565
Hf1 Hf3 3.269043 1_555
Hf1 Hf2 3.269043 1_555
Hf1 Hf5 3.269043 1_555
Hf2 Pd4 3.217450 1_555
Hf2 Pd2 3.217450 1_555
Hf2 Pd1 3.217450 1_655
Hf2 Pd5 3.217450 1_655
Hf2 Hf3 3.269043 1_555
Hf2 Hf4 3.269043 1_555
Hf3 Pd3 3.217450 1_555
Hf3 Pd2 3.217450 1_555
Hf3 Pd5 3.217450 1_556
Hf3 Pd6 3.217450 1_556
Hf3 Hf4 3.269043 1_555
Hf3 Hf5 3.269043 1_555
Hf4 Pd1 3.217450 1_655
Hf4 Pd6 3.217450 1_556
Hf4 Pd3 3.217450 1_655
Hf4 Pd4 3.217450 1_556
Hf4 Hf5 3.269043 1_555
Hf5 Pd5 3.217450 1_556
Hf5 Pd1 3.217450 1_565
Hf5 Pd2 3.217450 1_565
Hf5 Pd4 3.217450 1_556
Ga0 Pd0 2.628095 1_665
Ga0 Pd1 2.722138 1_665
Ga0 Pd3 2.722138 1_655
Ga0 Pd2 2.722138 1_565
Ga0 Ga9 2.806388 1_565
Ga0 Ga10 2.806388 1_655
Ga0 Ga11 2.806388 1_555
Ga0 Ga5 3.034663 1_655
Ga0 Ga6 3.034663 1_565
Ga0 Ga7 3.034663 1_665
Ga0 Hf2 3.220851 1_565
Ga0 Hf1 3.220851 1_655
Ga0 Hf0 3.220851 1_555
Ga1 Pd0 2.628095 1_656
Ga1 Pd5 2.722138 1_656
Ga1 Pd4 2.722138 1_556
Ga1 Pd3 2.722138 1_655
Ga1 Ga8 2.806388 1_556
Ga1 Ga10 2.806388 1_655
Ga1 Ga11 2.806388 1_555
Ga1 Ga4 3.034663 1_655
Ga1 Ga6 3.034663 1_556
Ga1 Ga7 3.034663 1_656
Ga1 Hf3 3.220851 1_655
Ga1 Hf2 3.220851 1_556
Ga1 Hf4 3.220851 1_555
Ga2 Pd0 2.628095 1_566
Ga2 Pd6 2.722138 1_566
Ga2 Pd2 2.722138 1_565
Ga2 Pd4 2.722138 1_556
Ga2 Ga9 2.806388 1_565
Ga2 Ga8 2.806388 1_556
Ga2 Ga4 3.034663 1_565
Ga2 Ga5 3.034663 1_556
Ga2 Ga7 3.034663 1_566
Ga2 Hf1 3.220851 1_556
Ga2 Hf3 3.220851 1_565
Ga2 Hf5 3.220851 1_555
Ga3 Pd0 2.628095 1_666
Ga3 Pd1 2.722138 1_665
Ga3 Pd5 2.722138 1_656
Ga3 Pd6 2.722138 1_566
Ga3 Ga9 2.806388 1_565
Ga3 Ga8 2.806388 1_556
Ga3 Ga4 3.034663 1_665
Ga3 Ga5 3.034663 1_656
Ga3 Ga6 3.034663 1_566
Ga3 Hf0 3.220851 1_556
Ga3 Hf5 3.220851 1_655
Ga3 Hf4 3.220851 1_565
Ga4 Pd0 2.628095 1_556
Ga4 Pd2 2.722138 1_555
Ga4 Pd3 2.722138 1_555
Ga4 Pd1 2.722138 1_555
Ga4 Hf3 3.220851 1_555
Ga4 Hf5 3.220851 1_545
Ga4 Hf4 3.220851 1_455
Ga5 Pd0 2.628095 1_565
Ga5 Pd4 2.722138 1_555
Ga5 Pd3 2.722138 1_555
Ga5 Pd5 2.722138 1_555
Ga5 Hf1 3.220851 1_555
Ga5 Hf5 3.220851 1_554
Ga5 Hf0 3.220851 1_455
Ga6 Pd0 2.628095 1_655
Ga6 Pd2 2.722138 1_555
Ga6 Pd4 2.722138 1_555
Ga6 Pd6 2.722138 1_555
Ga6 Hf2 3.220851 1_555
Ga6 Hf4 3.220851 1_554
Ga6 Hf0 3.220851 1_545
Ga7 Pd0 2.628095 1_555
Ga7 Pd6 2.722138 1_555
Ga7 Pd5 2.722138 1_555
Ga7 Pd1 2.722138 1_555
Ga7 Hf3 3.220851 1_554
Ga7 Hf2 3.220851 1_455
Ga7 Hf1 3.220851 1_545
Ga8 Pd6 2.548516 1_565
Ga8 Pd5 2.548516 1_655
Ga8 Pd4 2.548516 1_555
Ga8 Hf0 2.828417 1_555
Ga8 Hf1 2.828417 1_555
Ga8 Hf2 2.828417 1_555
Ga9 Pd6 2.548516 1_556
Ga9 Pd1 2.548516 1_655
Ga9 Pd2 2.548516 1_555
Ga9 Hf4 2.828417 1_555
Ga9 Hf2 2.828417 1_555
Ga9 Hf3 2.828417 1_555
Ga10 Pd5 2.548516 1_556
Ga10 Pd1 2.548516 1_565
Ga10 Pd3 2.548516 1_555
Ga10 Ga3 2.806388 1_455
Ga10 Hf5 2.828417 1_555
Ga10 Hf1 2.828417 1_555
Ga10 Hf3 2.828417 1_555
Ga11 Pd3 2.548516 1_655
Ga11 Pd2 2.548516 1_565
Ga11 Pd4 2.548516 1_556
Ga11 Ga2 2.806388 1_555
Ga11 Hf4 2.828417 1_555
Ga11 Hf0 2.828417 1_555
Ga11 Hf5 2.828417 1_555
Ga12 Pd4 2.548516 1_556
Ga12 Pd5 2.548516 1_556
Ga12 Pd6 2.548516 1_556
Ga12 Ga6 2.806388 1_556
Ga12 Ga5 2.806388 1_556
Ga12 Ga7 2.806388 1_556
Ga12 Hf4 2.828417 1_555
Ga12 Hf5 2.828417 1_555
Ga12 Hf3 2.828417 1_555
Ga13 Pd2 2.548516 1_565
Ga13 Pd1 2.548516 1_565
Ga13 Pd6 2.548516 1_565
Ga13 Ga4 2.806388 1_565
Ga13 Ga7 2.806388 1_565
Ga13 Ga6 2.806388 1_565
Ga13 Hf5 2.828417 1_555
Ga13 Hf0 2.828417 1_555
Ga13 Hf1 2.828417 1_555
Ga14 Pd3 2.548516 1_655
Ga14 Pd1 2.548516 1_655
Ga14 Pd5 2.548516 1_655
Ga14 Ga5 2.806388 1_655
Ga14 Ga7 2.806388 1_655
Ga14 Ga4 2.806388 1_655
Ga14 Hf4 2.828417 1_555
Ga14 Hf0 2.828417 1_555
Ga14 Hf2 2.828417 1_555
Ga15 Pd3 2.548516 1_555
Ga15 Pd4 2.548516 1_555
Ga15 Pd2 2.548516 1_555
Ga15 Ga6 2.806388 1_555
Ga15 Ga4 2.806388 1_555
Ga15 Ga5 2.806388 1_555
Ga15 Hf1 2.828417 1_555
Ga15 Hf3 2.828417 1_555
Ga15 Hf2 2.828417 1_555
