# generated using pymatgen
data_ZrCrCuS4
_symmetry_space_group_name_H-M   'P 1'
_cell_length_a   7.08274789
_cell_length_b   6.07054117
_cell_length_c   5.96873981
_cell_angle_alpha   92.52322457
_cell_angle_beta   89.99799647
_cell_angle_gamma   90.00040745
_symmetry_Int_Tables_number   1
_chemical_formula_structural   ZrCrCuS4
_chemical_formula_sum   'Zr2 Cr2 Cu2 S8'
_cell_volume   256.38379318
_cell_formula_units_Z   2
loop_
 _symmetry_equiv_pos_site_id
 _symmetry_equiv_pos_as_xyz
  1  'x, y, z'
loop_
 _atom_site_type_symbol
 _atom_site_label
 _atom_site_symmetry_multiplicity
 _atom_site_fract_x
 _atom_site_fract_y
 _atom_site_fract_z
 _atom_site_occupancy
  Zr  Zr0  1  0.76410100  0.49999600  0.49998500  1
  Zr  Zr1  1  0.48371900  0.99999500  0.49999300  1
  Cr  Cr0  1  0.24908600  0.50004300  0.49998700  1
  Cr  Cr1  1  0.99962800  0.99997700  0.50003200  1
  Cu  Cu0  1  0.00551400  0.00001500  0.99999600  1
  Cu  Cu1  1  0.49588200  0.00000700  0.99997500  1
  S  S0  1  0.01592100  0.31227600  0.26457700  1
  S  S1  1  0.49168700  0.33286400  0.25256600  1
  S  S2  1  0.23515100  0.81358900  0.25456500  1
  S  S3  1  0.75830600  0.83390300  0.24636500  1
  S  S4  1  0.23514800  0.18641200  0.74543300  1
  S  S5  1  0.75828300  0.16609100  0.75363700  1
  S  S6  1  0.49167900  0.66713800  0.74742900  1
  S  S7  1  0.01589600  0.68769300  0.73546000  1
loop_
_geom_bond_atom_site_label_1
_geom_bond_atom_site_label_2
_geom_bond_distance
_geom_bond_site_symmetry_2
Cr0 S7 2.420695 1_555
Cr0 S0 2.420736 1_555
Cr0 S2 2.454379 1_555
Cr0 S4 2.454879 1_555
Cr0 S6 2.455758 1_555
Cr0 S1 2.455859 1_555
Cr1 S7 2.411692 1_655
Cr1 S0 2.411868 1_665
Cr1 S4 2.462350 1_665
Cr1 S2 2.462409 1_655
Cr1 S5 2.468930 1_565
Cr1 S3 2.469008 1_555
Cu0 S0 2.414344 1_556
Cu0 S7 2.414449 1_545
Cu0 S3 2.524937 1_446
Cu0 S5 2.525003 1_455
Cu0 S4 2.526952 1_555
Cu0 S2 2.527150 1_546
Cu1 S6 2.467408 1_545
Cu1 S1 2.467503 1_556
Cu1 S5 2.600533 1_555
Cu1 S3 2.600964 1_546
Cu1 S4 2.674075 1_555
Cu1 S2 2.674179 1_546
S0 Zr0 2.512548 1_455
S1 Zr1 2.555418 1_545
S1 Zr0 2.607918 1_555
S2 Zr1 2.525890 1_555
S3 Zr0 2.583049 1_555
S3 Zr1 2.637444 1_555
S4 Zr1 2.525913 1_545
S5 Zr0 2.583158 1_555
S5 Zr1 2.637453 1_545
S6 Zr1 2.555393 1_555
S6 Zr0 2.607999 1_555
S7 Zr0 2.512636 1_455
