# generated using pymatgen
data_Mn(BO4)4
_symmetry_space_group_name_H-M   'P 1'
_cell_length_a   7.66443000
_cell_length_b   8.58104527
_cell_length_c   11.93782758
_cell_angle_alpha   103.60406718
_cell_angle_beta   106.03838322
_cell_angle_gamma   90.54714974
_symmetry_Int_Tables_number   1
_chemical_formula_structural   Mn(BO4)4
_chemical_formula_sum   'Mn2 B8 O32'
_cell_volume   731.06826586
_cell_formula_units_Z   2
loop_
 _symmetry_equiv_pos_site_id
 _symmetry_equiv_pos_as_xyz
  1  'x, y, z'
loop_
 _atom_site_type_symbol
 _atom_site_label
 _atom_site_symmetry_multiplicity
 _atom_site_fract_x
 _atom_site_fract_y
 _atom_site_fract_z
 _atom_site_occupancy
  Mn  Mn0  1  0.89447000  0.22277100  0.34286200  1
  Mn  Mn1  1  0.10553000  0.77722900  0.65713800  1
  B  B0  1  0.44538300  0.76404500  0.41127300  1
  B  B1  1  0.55461700  0.23595500  0.58872700  1
  B  B2  1  0.31963600  0.52009100  0.10875800  1
  B  B3  1  0.68036400  0.47990900  0.89124200  1
  B  B4  1  0.62164100  0.61726600  0.27139400  1
  B  B5  1  0.37835900  0.38273400  0.72860600  1
  B  B6  1  0.24373500  0.78617000  0.20629600  1
  B  B7  1  0.75626500  0.21383000  0.79370400  1
  O  O0  1  0.44004200  0.78058900  0.52238600  1
  O  O1  1  0.55995800  0.21941100  0.47761400  1
  O  O2  1  0.59729800  0.70429200  0.37277800  1
  O  O3  1  0.40270200  0.29570800  0.62722200  1
  O  O4  1  0.49804700  0.52413700  0.16985600  1
  O  O5  1  0.50195300  0.47586300  0.83014400  1
  O  O6  1  0.23926100  0.38226700  0.01046800  1
  O  O7  1  0.76073900  0.61773300  0.98953200  1
  O  O8  1  0.20779200  0.63987100  0.12223600  1
  O  O9  1  0.79220800  0.36012900  0.87776400  1
  O  O10  1  0.71771200  0.93884600  0.78331200  1
  O  O11  1  0.28228800  0.06115400  0.21668800  1
  O  O12  1  0.30631800  0.81382600  0.32462800  1
  O  O13  1  0.69368200  0.18617400  0.67537200  1
  O  O14  1  0.80027200  0.61468000  0.25106600  1
  O  O15  1  0.19972800  0.38532000  0.74893400  1
  O  O16  1  0.20810900  0.91750400  0.14704500  1
  O  O17  1  0.79189100  0.08249600  0.85295500  1
  O  O18  1  0.02193900  0.11725300  0.42015700  1
  O  O19  1  0.97806100  0.88274700  0.57984300  1
  O  O20  1  0.82608500  0.38357800  0.41053600  1
  O  O21  1  0.17391500  0.61642200  0.58946400  1
  O  O22  1  0.80414700  0.18042100  0.13340600  1
  O  O23  1  0.19585300  0.81957900  0.86659400  1
  O  O24  1  0.97482900  0.25505400  0.22107000  1
  O  O25  1  0.02517100  0.74494600  0.77893000  1
  O  O26  1  0.72623100  0.10826600  0.21011100  1
  O  O27  1  0.27376900  0.89173400  0.78988900  1
  O  O28  1  0.94260000  0.66476700  0.34773400  1
  O  O29  1  0.05740000  0.33523300  0.65226600  1
  O  O30  1  0.74045000  0.75353300  0.95011900  1
  O  O31  1  0.25955000  0.24646700  0.04988100  1
loop_
_geom_bond_atom_site_label_1
_geom_bond_atom_site_label_2
_geom_bond_distance
_geom_bond_site_symmetry_2
Mn0 O18 1.592976 1_655
Mn0 O20 1.598391 1_555
Mn0 O24 1.803060 1_555
Mn0 O26 1.803814 1_555
Mn1 O19 1.592976 1_455
Mn1 O21 1.598391 1_555
Mn1 O25 1.803060 1_555
Mn1 O27 1.803814 1_555
B0 O0 1.312564 1_555
B0 O12 1.412719 1_555
B0 O2 1.423375 1_555
B1 O1 1.312564 1_555
B1 O13 1.412719 1_555
B1 O3 1.423375 1_555
B2 O8 1.353665 1_555
B2 O4 1.356136 1_555
B2 O6 1.445292 1_555
B3 O9 1.353665 1_555
B3 O5 1.356136 1_555
B3 O7 1.445292 1_555
B4 O2 1.326491 1_555
B4 O4 1.378637 1_555
B4 O14 1.454463 1_555
B5 O3 1.326491 1_555
B5 O5 1.378637 1_555
B5 O15 1.454463 1_555
B6 O12 1.321977 1_555
B6 O8 1.380915 1_555
B6 O16 1.455718 1_555
B7 O13 1.321977 1_555
B7 O9 1.380915 1_555
B7 O17 1.455718 1_555
O10 O17 1.333132 1_565
O11 O16 1.333132 1_545
O14 O28 1.329872 1_555
O15 O29 1.329872 1_555
O22 O24 1.459082 1_555
O22 O26 1.462974 1_555
O23 O25 1.459082 1_555
O23 O27 1.462974 1_555
O30 O7 1.350723 1_555
O31 O6 1.350723 1_555
