# generated using pymatgen
data_Ca7SiN6
_symmetry_space_group_name_H-M   'P 1'
_cell_length_a   6.17597400
_cell_length_b   10.81628800
_cell_length_c   12.99618700
_cell_angle_alpha   90.00000000
_cell_angle_beta   90.00000000
_cell_angle_gamma   90.00000000
_symmetry_Int_Tables_number   1
_chemical_formula_structural   Ca7SiN6
_chemical_formula_sum   'Ca28 Si4 N24'
_cell_volume   868.15976239
_cell_formula_units_Z   4
loop_
 _symmetry_equiv_pos_site_id
 _symmetry_equiv_pos_as_xyz
  1  'x, y, z'
loop_
 _atom_site_type_symbol
 _atom_site_label
 _atom_site_symmetry_multiplicity
 _atom_site_fract_x
 _atom_site_fract_y
 _atom_site_fract_z
 _atom_site_occupancy
  Ca  Ca0  1  0.73532300  0.03844400  0.97973800  1
  Ca  Ca1  1  0.76467700  0.46155600  0.47973800  1
  Ca  Ca2  1  0.76467700  0.53844400  0.02026200  1
  Ca  Ca3  1  0.73532300  0.96155600  0.52026200  1
  Ca  Ca4  1  0.26467700  0.96155600  0.02026200  1
  Ca  Ca5  1  0.23532300  0.53844400  0.52026200  1
  Ca  Ca6  1  0.23532300  0.46155600  0.97973800  1
  Ca  Ca7  1  0.26467700  0.03844400  0.47973800  1
  Ca  Ca8  1  0.85609800  0.22556200  0.62534200  1
  Ca  Ca9  1  0.64390200  0.27443800  0.12534200  1
  Ca  Ca10  1  0.64390200  0.72556200  0.37465800  1
  Ca  Ca11  1  0.85609800  0.77443800  0.87465800  1
  Ca  Ca12  1  0.14390200  0.77443800  0.37465800  1
  Ca  Ca13  1  0.35609800  0.72556200  0.87465800  1
  Ca  Ca14  1  0.35609800  0.27443800  0.62534200  1
  Ca  Ca15  1  0.14390200  0.22556200  0.12534200  1
  Ca  Ca16  1  0.61171800  0.29429700  0.87849500  1
  Ca  Ca17  1  0.88828200  0.20570300  0.37849500  1
  Ca  Ca18  1  0.88828200  0.79429700  0.12150500  1
  Ca  Ca19  1  0.61171800  0.70570300  0.62150500  1
  Ca  Ca20  1  0.38828200  0.70570300  0.12150500  1
  Ca  Ca21  1  0.11171800  0.79429700  0.62150500  1
  Ca  Ca22  1  0.11171800  0.20570300  0.87849500  1
  Ca  Ca23  1  0.38828200  0.29429700  0.37849500  1
  Ca  Ca24  1  0.44305500  0.00000000  0.75000000  1
  Ca  Ca25  1  0.05694500  0.50000000  0.25000000  1
  Ca  Ca26  1  0.55694500  0.00000000  0.25000000  1
  Ca  Ca27  1  0.94305500  0.50000000  0.75000000  1
  Si  Si0  1  0.93291100  0.00000000  0.75000000  1
  Si  Si1  1  0.56708900  0.50000000  0.25000000  1
  Si  Si2  1  0.06708900  0.00000000  0.25000000  1
  Si  Si3  1  0.43291100  0.50000000  0.75000000  1
  N  N0  1  0.76353200  0.12611400  0.79090500  1
  N  N1  1  0.73646800  0.37388600  0.29090500  1
  N  N2  1  0.73646800  0.62611400  0.20909500  1
  N  N3  1  0.76353200  0.87388600  0.70909500  1
  N  N4  1  0.23646800  0.87388600  0.20909500  1
  N  N5  1  0.26353200  0.62611400  0.70909500  1
  N  N6  1  0.26353200  0.37388600  0.79090500  1
  N  N7  1  0.23646800  0.12611400  0.29090500  1
  N  N8  1  0.59219800  0.16655400  0.50327300  1
  N  N9  1  0.90780200  0.33344600  0.00327300  1
  N  N10  1  0.90780200  0.66655400  0.49672700  1
  N  N11  1  0.59219800  0.83344600  0.99672700  1
  N  N12  1  0.40780200  0.83344600  0.49672700  1
  N  N13  1  0.09219800  0.66655400  0.99672700  1
  N  N14  1  0.09219800  0.33344600  0.50327300  1
  N  N15  1  0.40780200  0.16655400  0.00327300  1
  N  N16  1  0.60020000  0.45461100  0.64494700  1
  N  N17  1  0.89980000  0.04538900  0.14494700  1
  N  N18  1  0.89980000  0.95461100  0.35505300  1
  N  N19  1  0.60020000  0.54538900  0.85505300  1
  N  N20  1  0.39980000  0.54538900  0.35505300  1
  N  N21  1  0.10020000  0.95461100  0.85505300  1
  N  N22  1  0.10020000  0.04538900  0.64494700  1
  N  N23  1  0.39980000  0.45461100  0.14494700  1
loop_
_geom_bond_atom_site_label_1
_geom_bond_atom_site_label_2
_geom_bond_distance
_geom_bond_site_symmetry_2
Ca0 N17 2.376444 1_556
Ca0 N11 2.397204 1_545
Ca0 N15 2.470872 1_556
Ca0 N0 2.636704 1_555
Ca0 N21 2.919955 1_645
Ca1 N16 2.376444 1_555
Ca1 N10 2.397204 1_555
Ca1 N14 2.470872 1_655
Ca1 N1 2.636704 1_555
Ca1 N20 2.919955 1_555
Ca2 N19 2.376444 1_554
Ca2 N9 2.397204 1_555
Ca2 N13 2.470872 1_654
Ca2 N2 2.636704 1_555
Ca2 N23 2.919955 1_555
Ca3 N18 2.376444 1_555
Ca3 N8 2.397204 1_565
Ca3 N12 2.470872 1_555
Ca3 N3 2.636704 1_555
Ca3 N22 2.919955 1_665
Ca4 N21 2.376444 1_554
Ca4 N15 2.397204 1_565
Ca4 N11 2.470872 1_554
Ca4 N4 2.636704 1_555
Ca4 N17 2.919955 1_465
Ca5 N20 2.376444 1_555
Ca5 N14 2.397204 1_555
Ca5 N10 2.470872 1_455
Ca5 N5 2.636704 1_555
Ca5 N16 2.919955 1_555
Ca6 N23 2.376444 1_556
Ca6 N13 2.397204 1_555
Ca6 N9 2.470872 1_456
Ca6 N6 2.636704 1_555
Ca6 N19 2.919955 1_555
Ca7 N22 2.376444 1_555
Ca7 N12 2.397204 1_545
Ca7 N8 2.470872 1_555
Ca7 N7 2.636704 1_555
Ca7 N18 2.919955 1_445
Ca8 N8 2.362309 1_555
Ca8 N14 2.450434 1_655
Ca8 N0 2.472574 1_555
Ca8 N22 2.476996 1_655
Ca8 N16 2.949653 1_555
Ca9 N9 2.362309 1_555
Ca9 N15 2.450434 1_555
Ca9 N1 2.472574 1_555
Ca9 N23 2.476996 1_555
Ca9 N17 2.949653 1_555
Ca10 N10 2.362309 1_555
Ca10 N12 2.450434 1_555
Ca10 N2 2.472574 1_555
Ca10 N20 2.476996 1_555
Ca10 N18 2.949653 1_555
Ca11 N11 2.362309 1_555
Ca11 N13 2.450434 1_655
Ca11 N3 2.472574 1_555
Ca11 N21 2.476996 1_655
Ca11 N19 2.949653 1_555
Ca12 N12 2.362309 1_555
Ca12 N10 2.450434 1_455
Ca12 N4 2.472574 1_555
Ca12 N18 2.476996 1_455
Ca12 N20 2.949653 1_555
Ca13 N13 2.362309 1_555
Ca13 N11 2.450434 1_555
Ca13 N5 2.472574 1_555
Ca13 N19 2.476996 1_555
Ca13 N21 2.949653 1_555
Ca14 N14 2.362309 1_555
Ca14 N8 2.450434 1_555
Ca14 N6 2.472574 1_555
Ca14 N16 2.476996 1_555
Ca14 N22 2.949653 1_555
Ca15 N15 2.362309 1_555
Ca15 N9 2.450434 1_455
Ca15 N7 2.472574 1_555
Ca15 N17 2.476996 1_455
Ca15 N23 2.949653 1_555
Ca16 N0 2.341812 1_555
Ca16 N15 2.474845 1_556
Ca16 N9 2.480488 1_556
Ca16 N6 2.580901 1_555
Ca16 N19 2.733843 1_555
Ca17 N1 2.341812 1_555
Ca17 N14 2.474845 1_655
Ca17 N8 2.480488 1_555
Ca17 N7 2.580901 1_655
Ca17 N18 2.733843 1_545
Ca18 N2 2.341812 1_555
Ca18 N13 2.474845 1_654
Ca18 N11 2.480488 1_554
Ca18 N4 2.580901 1_655
Ca18 N17 2.733843 1_565
Ca19 N3 2.341812 1_555
Ca19 N12 2.474845 1_555
Ca19 N10 2.480488 1_555
Ca19 N5 2.580901 1_555
Ca19 N16 2.733843 1_555
Ca20 N4 2.341812 1_555
Ca20 N11 2.474845 1_554
Ca20 N13 2.480488 1_554
Ca20 N2 2.580901 1_555
Ca20 N23 2.733843 1_555
Ca21 N5 2.341812 1_555
Ca21 N10 2.474845 1_455
Ca21 N12 2.480488 1_555
Ca21 N3 2.580901 1_455
Ca21 N22 2.733843 1_565
Ca22 N6 2.341812 1_555
Ca22 N9 2.474845 1_456
Ca22 N15 2.480488 1_556
Ca22 N0 2.580901 1_455
Ca22 N21 2.733843 1_545
Ca23 N7 2.341812 1_555
Ca23 N8 2.474845 1_555
Ca23 N14 2.480488 1_555
Ca23 N1 2.580901 1_555
Ca23 N20 2.733843 1_555
Ca24 N3 2.461869 1_545
Ca24 N0 2.461869 1_555
Ca24 N22 2.566844 1_555
Ca24 N21 2.566844 1_545
Ca25 N2 2.461869 1_455
Ca25 N1 2.461869 1_455
Ca25 N20 2.566844 1_555
Ca25 N23 2.566844 1_555
Ca26 N4 2.461869 1_545
Ca26 N7 2.461869 1_555
Ca26 N18 2.566844 1_545
Ca26 N17 2.566844 1_555
Ca27 N5 2.461869 1_655
Ca27 N6 2.461869 1_655
Ca27 N19 2.566844 1_555
Ca27 N16 2.566844 1_555
N0 Si0 1.799339 1_555
N1 Si1 1.799339 1_555
N2 Si1 1.799339 1_555
N3 Si0 1.799339 1_565
N4 Si2 1.799339 1_565
N5 Si3 1.799339 1_555
N6 Si3 1.799339 1_555
N7 Si2 1.799339 1_555
N16 Si3 1.781146 1_555
N17 Si2 1.781146 1_655
N18 Si2 1.781146 1_665
N19 Si3 1.781146 1_555
N20 Si1 1.781146 1_555
N21 Si0 1.781146 1_465
N22 Si0 1.781146 1_455
N23 Si1 1.781146 1_555
