# generated using pymatgen
data_Ce3Ge
_symmetry_space_group_name_H-M   'P 1'
_cell_length_a   11.96770500
_cell_length_b   11.96770500
_cell_length_c   5.93561200
_cell_angle_alpha   90.00000000
_cell_angle_beta   90.00000000
_cell_angle_gamma   90.00000000
_symmetry_Int_Tables_number   1
_chemical_formula_structural   Ce3Ge
_chemical_formula_sum   'Ce24 Ge8'
_cell_volume   850.13374450
_cell_formula_units_Z   8
loop_
 _symmetry_equiv_pos_site_id
 _symmetry_equiv_pos_as_xyz
  1  'x, y, z'
loop_
 _atom_site_type_symbol
 _atom_site_label
 _atom_site_symmetry_multiplicity
 _atom_site_fract_x
 _atom_site_fract_y
 _atom_site_fract_z
 _atom_site_occupancy
  Ce  Ce0  1  0.28203000  0.82605600  0.98317600  1
  Ce  Ce1  1  0.71797000  0.17394400  0.98317600  1
  Ce  Ce2  1  0.67394400  0.78203000  0.48317600  1
  Ce  Ce3  1  0.32605600  0.21797000  0.48317600  1
  Ce  Ce4  1  0.21797000  0.67394400  0.51682400  1
  Ce  Ce5  1  0.78203000  0.32605600  0.51682400  1
  Ce  Ce6  1  0.82605600  0.71797000  0.01682400  1
  Ce  Ce7  1  0.17394400  0.28203000  0.01682400  1
  Ce  Ce8  1  0.38760000  0.91933500  0.52527100  1
  Ce  Ce9  1  0.61240000  0.08066500  0.52527100  1
  Ce  Ce10  1  0.58066500  0.88760000  0.02527100  1
  Ce  Ce11  1  0.41933500  0.11240000  0.02527100  1
  Ce  Ce12  1  0.11240000  0.58066500  0.97472900  1
  Ce  Ce13  1  0.88760000  0.41933500  0.97472900  1
  Ce  Ce14  1  0.91933500  0.61240000  0.47472900  1
  Ce  Ce15  1  0.08066500  0.38760000  0.47472900  1
  Ce  Ce16  1  0.03167100  0.86058400  0.73032500  1
  Ce  Ce17  1  0.96832900  0.13941600  0.73032500  1
  Ce  Ce18  1  0.63941600  0.53167100  0.23032500  1
  Ce  Ce19  1  0.36058400  0.46832900  0.23032500  1
  Ce  Ce20  1  0.46832900  0.63941600  0.76967500  1
  Ce  Ce21  1  0.53167100  0.36058400  0.76967500  1
  Ce  Ce22  1  0.86058400  0.96832900  0.26967500  1
  Ce  Ce23  1  0.13941600  0.03167100  0.26967500  1
  Ge  Ge0  1  0.79633000  0.95031700  0.77768900  1
  Ge  Ge1  1  0.20367000  0.04968300  0.77768900  1
  Ge  Ge2  1  0.54968300  0.29633000  0.27768900  1
  Ge  Ge3  1  0.45031700  0.70367000  0.27768900  1
  Ge  Ge4  1  0.70367000  0.54968300  0.72231100  1
  Ge  Ge5  1  0.29633000  0.45031700  0.72231100  1
  Ge  Ge6  1  0.95031700  0.20367000  0.22231100  1
  Ge  Ge7  1  0.04968300  0.79633000  0.22231100  1
loop_
_geom_bond_atom_site_label_1
_geom_bond_atom_site_label_2
_geom_bond_distance
_geom_bond_site_symmetry_2
Ce0 Ge3 3.042602 1_556
Ce0 Ge1 3.087019 1_565
Ce0 Ge7 3.142191 1_556
Ce1 Ge2 3.042602 1_556
Ce1 Ge0 3.087019 1_545
Ce1 Ge6 3.142191 1_556
Ce2 Ge0 3.042602 1_555
Ce2 Ge3 3.087019 1_555
Ce2 Ge4 3.142191 1_555
Ce3 Ge1 3.042602 1_555
Ce3 Ge2 3.087019 1_555
Ce3 Ge5 3.142191 1_555
Ce4 Ge7 3.042602 1_555
Ce4 Ge5 3.087019 1_555
Ce4 Ge3 3.142191 1_555
Ce5 Ge6 3.042602 1_555
Ce5 Ge4 3.087019 1_555
Ce5 Ge2 3.142191 1_555
Ce6 Ge4 3.042602 1_554
Ce6 Ge7 3.087019 1_655
Ce6 Ge0 3.142191 1_554
Ce7 Ge5 3.042602 1_554
Ce7 Ge6 3.087019 1_455
Ce7 Ge1 3.142191 1_554
Ce8 Ge3 3.063427 1_555
Ce8 Ge1 3.086038 1_565
Ce9 Ge2 3.063427 1_555
Ce9 Ge0 3.086038 1_545
Ce10 Ge0 3.063427 1_554
Ce10 Ge3 3.086038 1_555
Ce11 Ge1 3.063427 1_554
Ce11 Ge2 3.086038 1_555
Ce12 Ge7 3.063427 1_556
Ce12 Ge5 3.086038 1_555
Ce13 Ge6 3.063427 1_556
Ce13 Ge4 3.086038 1_555
Ce14 Ge4 3.063427 1_555
Ce14 Ge7 3.086038 1_655
Ce15 Ge5 3.063427 1_555
Ce15 Ge6 3.086038 1_455
Ce16 Ge0 3.027362 1_455
Ce16 Ge7 3.027470 1_556
Ce16 Ge1 3.072087 1_565
Ce16 Ge7 3.119338 1_555
Ce17 Ge1 3.027362 1_655
Ce17 Ge6 3.027470 1_556
Ce17 Ge0 3.072087 1_545
Ce17 Ge6 3.119338 1_555
Ce18 Ge2 3.027362 1_555
Ce18 Ge4 3.027470 1_555
Ce18 Ge3 3.072087 1_555
Ce18 Ge4 3.119338 1_554
Ce19 Ge3 3.027362 1_555
Ce19 Ge5 3.027470 1_555
Ce19 Ge2 3.072087 1_555
Ce19 Ge5 3.119338 1_554
Ce20 Ge4 3.027362 1_555
Ce20 Ge3 3.027470 1_555
Ce20 Ge5 3.072087 1_555
Ce20 Ge3 3.119338 1_556
Ce21 Ge5 3.027362 1_555
Ce21 Ge2 3.027470 1_555
Ce21 Ge4 3.072087 1_555
Ce21 Ge2 3.119338 1_556
Ce22 Ge6 3.027362 1_565
Ce22 Ge0 3.027470 1_554
Ce22 Ge7 3.072087 1_655
Ce22 Ge0 3.119338 1_555
Ce23 Ge7 3.027362 1_545
Ce23 Ge1 3.027470 1_554
Ce23 Ge6 3.072087 1_455
Ce23 Ge1 3.119338 1_555
