# generated using pymatgen
data_Dy5(In2Pt)2
_symmetry_space_group_name_H-M   'P 1'
_cell_length_a   7.25158568
_cell_length_b   16.12825538
_cell_length_c   36.32356406
_cell_angle_alpha   90.00000000
_cell_angle_beta   90.00000000
_cell_angle_gamma   90.00000000
_symmetry_Int_Tables_number   1
_chemical_formula_structural   Dy5(In2Pt)2
_chemical_formula_sum   'Dy80 In64 Pt32'
_cell_volume   4248.23789965
_cell_formula_units_Z   16
loop_
 _symmetry_equiv_pos_site_id
 _symmetry_equiv_pos_as_xyz
  1  'x, y, z'
loop_
 _atom_site_type_symbol
 _atom_site_label
 _atom_site_symmetry_multiplicity
 _atom_site_fract_x
 _atom_site_fract_y
 _atom_site_fract_z
 _atom_site_occupancy
  Dy  Dy0_0  1  0.00000000  0.05792297  0.20775036  1
  Dy  Dy0_1  1  0.00000000  0.05792297  0.70775036  1
  Dy  Dy0_2  1  0.00000000  0.55792297  0.20775036  1
  Dy  Dy0_3  1  0.00000000  0.55792297  0.70775036  1
  Dy  Dy0_4  1  0.50000000  0.05792297  0.20775036  1
  Dy  Dy0_5  1  0.50000000  0.05792297  0.70775036  1
  Dy  Dy0_6  1  0.50000000  0.55792297  0.20775036  1
  Dy  Dy0_7  1  0.50000000  0.55792297  0.70775036  1
  Dy  Dy1_0  1  0.00000000  0.44207703  0.29224964  1
  Dy  Dy1_1  1  0.00000000  0.44207703  0.79224964  1
  Dy  Dy1_2  1  0.00000000  0.94207703  0.29224964  1
  Dy  Dy1_3  1  0.00000000  0.94207703  0.79224964  1
  Dy  Dy1_4  1  0.50000000  0.44207703  0.29224964  1
  Dy  Dy1_5  1  0.50000000  0.44207703  0.79224964  1
  Dy  Dy1_6  1  0.50000000  0.94207703  0.29224964  1
  Dy  Dy1_7  1  0.50000000  0.94207703  0.79224964  1
  Dy  Dy2_0  1  0.00000000  0.19207703  0.45775036  1
  Dy  Dy2_1  1  0.00000000  0.19207703  0.95775036  1
  Dy  Dy2_2  1  0.00000000  0.69207703  0.45775036  1
  Dy  Dy2_3  1  0.00000000  0.69207703  0.95775036  1
  Dy  Dy2_4  1  0.50000000  0.19207703  0.45775036  1
  Dy  Dy2_5  1  0.50000000  0.19207703  0.95775036  1
  Dy  Dy2_6  1  0.50000000  0.69207703  0.45775036  1
  Dy  Dy2_7  1  0.50000000  0.69207703  0.95775036  1
  Dy  Dy3_0  1  0.00000000  0.30792297  0.04224964  1
  Dy  Dy3_1  1  0.00000000  0.30792297  0.54224964  1
  Dy  Dy3_2  1  0.00000000  0.80792297  0.04224964  1
  Dy  Dy3_3  1  0.00000000  0.80792297  0.54224964  1
  Dy  Dy3_4  1  0.50000000  0.30792297  0.04224964  1
  Dy  Dy3_5  1  0.50000000  0.30792297  0.54224964  1
  Dy  Dy3_6  1  0.50000000  0.80792297  0.04224964  1
  Dy  Dy3_7  1  0.50000000  0.80792297  0.54224964  1
  Dy  Dy4_0  1  0.00000000  0.12175630  0.11015676  1
  Dy  Dy4_1  1  0.00000000  0.12175630  0.61015675  1
  Dy  Dy4_2  1  0.00000000  0.62175630  0.11015676  1
  Dy  Dy4_3  1  0.00000000  0.62175630  0.61015675  1
  Dy  Dy4_4  1  0.50000000  0.12175630  0.11015676  1
  Dy  Dy4_5  1  0.50000000  0.12175630  0.61015675  1
  Dy  Dy4_6  1  0.50000000  0.62175630  0.11015676  1
  Dy  Dy4_7  1  0.50000000  0.62175630  0.61015675  1
  Dy  Dy5_0  1  0.00000000  0.37824370  0.38984325  1
  Dy  Dy5_1  1  0.00000000  0.37824370  0.88984325  1
  Dy  Dy5_2  1  0.00000000  0.87824370  0.38984325  1
  Dy  Dy5_3  1  0.00000000  0.87824370  0.88984325  1
  Dy  Dy5_4  1  0.50000000  0.37824370  0.38984325  1
  Dy  Dy5_5  1  0.50000000  0.37824370  0.88984325  1
  Dy  Dy5_6  1  0.50000000  0.87824370  0.38984325  1
  Dy  Dy5_7  1  0.50000000  0.87824370  0.88984325  1
  Dy  Dy6_0  1  0.00000000  0.12824370  0.36015675  1
  Dy  Dy6_1  1  0.00000000  0.12824370  0.86015675  1
  Dy  Dy6_2  1  0.00000000  0.62824370  0.36015675  1
  Dy  Dy6_3  1  0.00000000  0.62824370  0.86015675  1
  Dy  Dy6_4  1  0.50000000  0.12824370  0.36015675  1
  Dy  Dy6_5  1  0.50000000  0.12824370  0.86015675  1
  Dy  Dy6_6  1  0.50000000  0.62824370  0.36015675  1
  Dy  Dy6_7  1  0.50000000  0.62824370  0.86015675  1
  Dy  Dy7_0  1  0.00000000  0.37175630  0.13984325  1
  Dy  Dy7_1  1  0.00000000  0.37175630  0.63984325  1
  Dy  Dy7_2  1  0.00000000  0.87175630  0.13984325  1
  Dy  Dy7_3  1  0.00000000  0.87175630  0.63984325  1
  Dy  Dy7_4  1  0.50000000  0.37175630  0.13984325  1
  Dy  Dy7_5  1  0.50000000  0.37175630  0.63984325  1
  Dy  Dy7_6  1  0.50000000  0.87175630  0.13984325  1
  Dy  Dy7_7  1  0.50000000  0.87175630  0.63984325  1
  Dy  Dy8_0  1  0.00000000  0.00000000  0.00000000  1
  Dy  Dy8_1  1  0.00000000  0.00000000  0.50000000  1
  Dy  Dy8_2  1  0.00000000  0.50000000  0.00000000  1
  Dy  Dy8_3  1  0.00000000  0.50000000  0.50000000  1
  Dy  Dy8_4  1  0.50000000  0.00000000  0.00000000  1
  Dy  Dy8_5  1  0.50000000  0.00000000  0.50000000  1
  Dy  Dy8_6  1  0.50000000  0.50000000  0.00000000  1
  Dy  Dy8_7  1  0.50000000  0.50000000  0.50000000  1
  Dy  Dy9_0  1  0.00000000  0.25000000  0.25000000  1
  Dy  Dy9_1  1  0.00000000  0.25000000  0.75000000  1
  Dy  Dy9_2  1  0.00000000  0.75000000  0.25000000  1
  Dy  Dy9_3  1  0.00000000  0.75000000  0.75000000  1
  Dy  Dy9_4  1  0.50000000  0.25000000  0.25000000  1
  Dy  Dy9_5  1  0.50000000  0.25000000  0.75000000  1
  Dy  Dy9_6  1  0.50000000  0.75000000  0.25000000  1
  Dy  Dy9_7  1  0.50000000  0.75000000  0.75000000  1
  In  In0_0  1  0.25000000  0.21252828  0.17571076  1
  In  In0_1  1  0.25000000  0.21252828  0.67571076  1
  In  In0_2  1  0.25000000  0.71252828  0.17571076  1
  In  In0_3  1  0.25000000  0.71252828  0.67571076  1
  In  In0_4  1  0.75000000  0.21252828  0.17571076  1
  In  In0_5  1  0.75000000  0.21252828  0.67571076  1
  In  In0_6  1  0.75000000  0.71252828  0.17571076  1
  In  In0_7  1  0.75000000  0.71252828  0.67571076  1
  In  In1_0  1  0.25000000  0.28747172  0.32428924  1
  In  In1_1  1  0.25000000  0.28747172  0.82428924  1
  In  In1_2  1  0.25000000  0.78747172  0.32428924  1
  In  In1_3  1  0.25000000  0.78747172  0.82428924  1
  In  In1_4  1  0.75000000  0.28747172  0.32428924  1
  In  In1_5  1  0.75000000  0.28747172  0.82428924  1
  In  In1_6  1  0.75000000  0.78747172  0.32428924  1
  In  In1_7  1  0.75000000  0.78747172  0.82428924  1
  In  In2_0  1  0.25000000  0.03747172  0.42571076  1
  In  In2_1  1  0.25000000  0.03747172  0.92571076  1
  In  In2_2  1  0.25000000  0.53747172  0.42571076  1
  In  In2_3  1  0.25000000  0.53747172  0.92571076  1
  In  In2_4  1  0.75000000  0.03747172  0.42571076  1
  In  In2_5  1  0.75000000  0.03747172  0.92571076  1
  In  In2_6  1  0.75000000  0.53747172  0.42571076  1
  In  In2_7  1  0.75000000  0.53747172  0.92571076  1
  In  In3_0  1  0.25000000  0.46252828  0.07428924  1
  In  In3_1  1  0.25000000  0.46252828  0.57428924  1
  In  In3_2  1  0.25000000  0.96252828  0.07428924  1
  In  In3_3  1  0.25000000  0.96252828  0.57428924  1
  In  In3_4  1  0.75000000  0.46252828  0.07428924  1
  In  In3_5  1  0.75000000  0.46252828  0.57428924  1
  In  In3_6  1  0.75000000  0.96252828  0.07428924  1
  In  In3_7  1  0.75000000  0.96252828  0.57428924  1
  In  In4_0  1  0.25000000  0.14520335  0.03388666  1
  In  In4_1  1  0.25000000  0.14520335  0.53388665  1
  In  In4_2  1  0.25000000  0.64520334  0.03388666  1
  In  In4_3  1  0.25000000  0.64520334  0.53388665  1
  In  In4_4  1  0.75000000  0.14520335  0.03388666  1
  In  In4_5  1  0.75000000  0.14520335  0.53388665  1
  In  In4_6  1  0.75000000  0.64520334  0.03388666  1
  In  In4_7  1  0.75000000  0.64520334  0.53388665  1
  In  In5_0  1  0.25000000  0.35479666  0.46611335  1
  In  In5_1  1  0.25000000  0.35479666  0.96611335  1
  In  In5_2  1  0.25000000  0.85479666  0.46611335  1
  In  In5_3  1  0.25000000  0.85479666  0.96611335  1
  In  In5_4  1  0.75000000  0.35479666  0.46611335  1
  In  In5_5  1  0.75000000  0.35479666  0.96611335  1
  In  In5_6  1  0.75000000  0.85479666  0.46611335  1
  In  In5_7  1  0.75000000  0.85479666  0.96611335  1
  In  In6_0  1  0.25000000  0.10479666  0.28388665  1
  In  In6_1  1  0.25000000  0.10479666  0.78388665  1
  In  In6_2  1  0.25000000  0.60479666  0.28388665  1
  In  In6_3  1  0.25000000  0.60479666  0.78388665  1
  In  In6_4  1  0.75000000  0.10479666  0.28388665  1
  In  In6_5  1  0.75000000  0.10479666  0.78388665  1
  In  In6_6  1  0.75000000  0.60479666  0.28388665  1
  In  In6_7  1  0.75000000  0.60479666  0.78388665  1
  In  In7_0  1  0.25000000  0.39520334  0.21611335  1
  In  In7_1  1  0.25000000  0.39520334  0.71611335  1
  In  In7_2  1  0.25000000  0.89520334  0.21611335  1
  In  In7_3  1  0.25000000  0.89520334  0.71611335  1
  In  In7_4  1  0.75000000  0.39520334  0.21611335  1
  In  In7_5  1  0.75000000  0.39520334  0.71611335  1
  In  In7_6  1  0.75000000  0.89520334  0.21611335  1
  In  In7_7  1  0.75000000  0.89520334  0.71611335  1
  Pt  Pt0_0  1  0.25000000  0.01345016  0.15195601  1
  Pt  Pt0_1  1  0.25000000  0.01345016  0.65195600  1
  Pt  Pt0_2  1  0.25000000  0.51345016  0.15195601  1
  Pt  Pt0_3  1  0.25000000  0.51345016  0.65195600  1
  Pt  Pt0_4  1  0.75000000  0.01345016  0.15195601  1
  Pt  Pt0_5  1  0.75000000  0.01345016  0.65195600  1
  Pt  Pt0_6  1  0.75000000  0.51345016  0.15195601  1
  Pt  Pt0_7  1  0.75000000  0.51345016  0.65195600  1
  Pt  Pt1_0  1  0.25000000  0.48654984  0.34804399  1
  Pt  Pt1_1  1  0.25000000  0.48654984  0.84804400  1
  Pt  Pt1_2  1  0.25000000  0.98654984  0.34804399  1
  Pt  Pt1_3  1  0.25000000  0.98654984  0.84804400  1
  Pt  Pt1_4  1  0.75000000  0.48654984  0.34804399  1
  Pt  Pt1_5  1  0.75000000  0.48654984  0.84804400  1
  Pt  Pt1_6  1  0.75000000  0.98654984  0.34804399  1
  Pt  Pt1_7  1  0.75000000  0.98654984  0.84804400  1
  Pt  Pt2_0  1  0.25000000  0.23654984  0.40195601  1
  Pt  Pt2_1  1  0.25000000  0.23654984  0.90195601  1
  Pt  Pt2_2  1  0.25000000  0.73654984  0.40195601  1
  Pt  Pt2_3  1  0.25000000  0.73654984  0.90195601  1
  Pt  Pt2_4  1  0.75000000  0.23654984  0.40195601  1
  Pt  Pt2_5  1  0.75000000  0.23654984  0.90195601  1
  Pt  Pt2_6  1  0.75000000  0.73654984  0.40195601  1
  Pt  Pt2_7  1  0.75000000  0.73654984  0.90195601  1
  Pt  Pt3_0  1  0.25000000  0.26345016  0.09804400  1
  Pt  Pt3_1  1  0.25000000  0.26345016  0.59804399  1
  Pt  Pt3_2  1  0.25000000  0.76345016  0.09804400  1
  Pt  Pt3_3  1  0.25000000  0.76345016  0.59804399  1
  Pt  Pt3_4  1  0.75000000  0.26345016  0.09804400  1
  Pt  Pt3_5  1  0.75000000  0.26345016  0.59804399  1
  Pt  Pt3_6  1  0.75000000  0.76345016  0.09804400  1
  Pt  Pt3_7  1  0.75000000  0.76345016  0.59804399  1
loop_
_geom_bond_atom_site_label_1
_geom_bond_atom_site_label_2
_geom_bond_distance
_geom_bond_site_symmetry_2
Dy0_0 Pt0_4 2.812184 1_455
Dy0_0 Pt0_0 2.812184 1_555
Dy0_0 In7_2 3.204101 1_545
Dy0_0 In7_6 3.204101 1_445
Dy0_0 In0_4 3.295242 1_455
Dy0_0 In0_0 3.295242 1_555
Dy0_0 In6_0 3.392099 1_555
Dy0_0 In6_4 3.392099 1_455
Dy0_0 Dy9_0 3.457160 1_555
Dy0_1 Pt0_1 2.812184 1_555
Dy0_1 Pt0_5 2.812184 1_455
Dy0_1 In7_7 3.204101 1_445
Dy0_1 In7_3 3.204101 1_545
Dy0_1 In0_1 3.295242 1_555
Dy0_1 In0_5 3.295242 1_455
Dy0_1 In6_1 3.392099 1_555
Dy0_1 In6_5 3.392099 1_455
Dy0_1 Dy9_1 3.457160 1_555
Dy0_2 Pt0_6 2.812184 1_455
Dy0_2 Pt0_2 2.812184 1_555
Dy0_2 In7_0 3.204101 1_555
Dy0_2 In7_4 3.204101 1_455
Dy0_2 In0_2 3.295242 1_555
Dy0_2 In0_6 3.295242 1_455
Dy0_2 In6_2 3.392099 1_555
Dy0_2 In6_6 3.392099 1_455
Dy0_2 Dy9_2 3.457160 1_555
Dy0_3 Pt0_3 2.812184 1_555
Dy0_3 Pt0_7 2.812184 1_455
Dy0_3 In7_1 3.204101 1_555
Dy0_3 In7_5 3.204101 1_455
Dy0_3 In0_7 3.295242 1_455
Dy0_3 In0_3 3.295242 1_555
Dy0_3 In6_7 3.392099 1_455
Dy0_3 In6_3 3.392099 1_555
Dy0_3 Dy9_3 3.457160 1_555
Dy0_4 Pt0_0 2.812184 1_555
Dy0_4 Pt0_4 2.812184 1_555
Dy0_4 In7_2 3.204101 1_545
Dy0_4 In7_6 3.204101 1_545
Dy0_4 In0_0 3.295242 1_555
Dy0_4 In0_4 3.295242 1_555
Dy0_4 In6_0 3.392099 1_555
Dy0_4 In6_4 3.392099 1_555
Dy0_4 Dy9_4 3.457160 1_555
Dy0_5 Pt0_1 2.812184 1_555
Dy0_5 Pt0_5 2.812184 1_555
Dy0_5 In7_3 3.204101 1_545
Dy0_5 In7_7 3.204101 1_545
Dy0_5 In0_1 3.295242 1_555
Dy0_5 In0_5 3.295242 1_555
Dy0_5 In6_1 3.392099 1_555
Dy0_5 In6_5 3.392099 1_555
Dy0_5 Dy9_5 3.457160 1_555
Dy0_6 Pt0_2 2.812184 1_555
Dy0_6 Pt0_6 2.812184 1_555
Dy0_6 In7_0 3.204101 1_555
Dy0_6 In7_4 3.204101 1_555
Dy0_6 In0_2 3.295242 1_555
Dy0_6 In0_6 3.295242 1_555
Dy0_6 In6_2 3.392099 1_555
Dy0_6 In6_6 3.392099 1_555
Dy0_6 Dy9_6 3.457160 1_555
Dy0_7 Pt0_3 2.812184 1_555
Dy0_7 Pt0_7 2.812184 1_555
Dy0_7 In7_1 3.204101 1_555
Dy0_7 In7_5 3.204101 1_555
Dy0_7 In0_3 3.295242 1_555
Dy0_7 In0_7 3.295242 1_555
Dy0_7 In6_3 3.392099 1_555
Dy0_7 In6_7 3.392099 1_555
Dy0_7 Dy9_7 3.457160 1_555
Dy1_0 Pt1_0 2.812184 1_555
Dy1_0 Pt1_4 2.812184 1_455
Dy1_0 In6_2 3.204101 1_555
Dy1_0 In6_6 3.204101 1_455
Dy1_0 In1_0 3.295242 1_555
Dy1_0 In1_4 3.295242 1_455
Dy1_0 In7_0 3.392099 1_555
Dy1_0 In7_4 3.392099 1_455
Dy1_0 Dy9_0 3.457160 1_555
Dy1_1 Pt1_1 2.812184 1_555
Dy1_1 Pt1_5 2.812184 1_455
Dy1_1 In6_3 3.204101 1_555
Dy1_1 In6_7 3.204101 1_455
Dy1_1 In1_1 3.295242 1_555
Dy1_1 In1_5 3.295242 1_455
Dy1_1 In7_1 3.392099 1_555
Dy1_1 In7_5 3.392099 1_455
Dy1_1 Dy9_1 3.457160 1_555
Dy1_2 Pt1_2 2.812184 1_555
Dy1_2 Pt1_6 2.812184 1_455
Dy1_2 In6_0 3.204101 1_565
Dy1_2 In6_4 3.204101 1_465
Dy1_2 In1_2 3.295242 1_555
Dy1_2 In1_6 3.295242 1_455
Dy1_2 In7_6 3.392099 1_455
Dy1_2 In7_2 3.392099 1_555
Dy1_2 Dy9_2 3.457160 1_555
Dy1_3 Pt1_7 2.812184 1_455
Dy1_3 Pt1_3 2.812184 1_555
Dy1_3 In6_1 3.204101 1_565
Dy1_3 In6_5 3.204101 1_465
Dy1_3 In1_3 3.295242 1_555
Dy1_3 In1_7 3.295242 1_455
Dy1_3 In7_7 3.392099 1_455
Dy1_3 In7_3 3.392099 1_555
Dy1_3 Dy9_3 3.457160 1_555
Dy1_4 Pt1_0 2.812184 1_555
Dy1_4 Pt1_4 2.812184 1_555
Dy1_4 In6_2 3.204101 1_555
Dy1_4 In6_6 3.204101 1_555
Dy1_4 In1_0 3.295242 1_555
Dy1_4 In1_4 3.295242 1_555
Dy1_4 In7_4 3.392099 1_555
Dy1_4 In7_0 3.392099 1_555
Dy1_4 Dy9_4 3.457160 1_555
Dy1_5 Pt1_1 2.812184 1_555
Dy1_5 Pt1_5 2.812184 1_555
Dy1_5 In6_3 3.204101 1_555
Dy1_5 In6_7 3.204101 1_555
Dy1_5 In1_1 3.295242 1_555
Dy1_5 In1_5 3.295242 1_555
Dy1_5 In7_1 3.392099 1_555
Dy1_5 In7_5 3.392099 1_555
Dy1_5 Dy9_5 3.457160 1_555
Dy1_6 Pt1_2 2.812184 1_555
Dy1_6 Pt1_6 2.812184 1_555
Dy1_6 In6_0 3.204101 1_565
Dy1_6 In6_4 3.204101 1_565
Dy1_6 In1_2 3.295242 1_555
Dy1_6 In1_6 3.295242 1_555
Dy1_6 In7_6 3.392099 1_555
Dy1_6 In7_2 3.392099 1_555
Dy1_6 Dy9_6 3.457160 1_555
Dy1_7 Pt1_3 2.812184 1_555
Dy1_7 Pt1_7 2.812184 1_555
Dy1_7 In6_1 3.204101 1_565
Dy1_7 In6_5 3.204101 1_565
Dy1_7 In1_3 3.295242 1_555
Dy1_7 In1_7 3.295242 1_555
Dy1_7 In7_3 3.392099 1_555
Dy1_7 In7_7 3.392099 1_555
Dy1_7 Dy9_7 3.457160 1_555
Dy2_0 Pt2_4 2.812184 1_455
Dy2_0 Pt2_0 2.812184 1_555
Dy2_0 In5_0 3.204101 1_555
Dy2_0 In5_4 3.204101 1_455
Dy2_0 In2_0 3.295242 1_555
Dy2_0 In2_4 3.295242 1_455
Dy2_0 In4_1 3.392099 1_555
Dy2_0 In4_5 3.392099 1_455
Dy2_0 Dy8_1 3.457160 1_555
Dy2_1 Pt2_1 2.812184 1_555
Dy2_1 Pt2_5 2.812184 1_455
Dy2_1 In5_1 3.204101 1_555
Dy2_1 In5_5 3.204101 1_455
Dy2_1 In2_1 3.295242 1_555
Dy2_1 In2_5 3.295242 1_455
Dy2_1 In4_0 3.392099 1_556
Dy2_1 In4_4 3.392099 1_456
Dy2_1 Dy8_0 3.457160 1_556
Dy2_2 Pt2_2 2.812184 1_555
Dy2_2 Pt2_6 2.812184 1_455
Dy2_2 In5_2 3.204101 1_555
Dy2_2 In5_6 3.204101 1_455
Dy2_2 In2_6 3.295242 1_455
Dy2_2 In2_2 3.295242 1_555
Dy2_2 In4_3 3.392099 1_555
Dy2_2 In4_7 3.392099 1_455
Dy2_2 Dy8_3 3.457160 1_555
Dy2_3 Pt2_7 2.812184 1_455
Dy2_3 Pt2_3 2.812184 1_555
Dy2_3 In5_3 3.204101 1_555
Dy2_3 In5_7 3.204101 1_455
Dy2_3 In2_7 3.295242 1_455
Dy2_3 In2_3 3.295242 1_555
Dy2_3 In4_2 3.392099 1_556
Dy2_3 In4_6 3.392099 1_456
Dy2_3 Dy8_2 3.457160 1_556
Dy2_4 Pt2_0 2.812184 1_555
Dy2_4 Pt2_4 2.812184 1_555
Dy2_4 In5_4 3.204101 1_555
Dy2_4 In5_0 3.204101 1_555
Dy2_4 In2_0 3.295242 1_555
Dy2_4 In2_4 3.295242 1_555
Dy2_4 In4_1 3.392099 1_555
Dy2_4 In4_5 3.392099 1_555
Dy2_4 Dy8_5 3.457160 1_555
Dy2_5 Pt2_1 2.812184 1_555
Dy2_5 Pt2_5 2.812184 1_555
Dy2_5 In5_1 3.204101 1_555
Dy2_5 In5_5 3.204101 1_555
Dy2_5 In2_1 3.295242 1_555
Dy2_5 In2_5 3.295242 1_555
Dy2_5 In4_0 3.392099 1_556
Dy2_5 In4_4 3.392099 1_556
Dy2_5 Dy8_4 3.457160 1_556
Dy2_6 Pt2_2 2.812184 1_555
Dy2_6 Pt2_6 2.812184 1_555
Dy2_6 In5_2 3.204101 1_555
Dy2_6 In5_6 3.204101 1_555
Dy2_6 In2_2 3.295242 1_555
Dy2_6 In2_6 3.295242 1_555
Dy2_6 In4_7 3.392099 1_555
Dy2_6 In4_3 3.392099 1_555
Dy2_6 Dy8_7 3.457160 1_555
Dy2_7 Pt2_3 2.812184 1_555
Dy2_7 Pt2_7 2.812184 1_555
Dy2_7 In5_3 3.204101 1_555
Dy2_7 In5_7 3.204101 1_555
Dy2_7 In2_3 3.295242 1_555
Dy2_7 In2_7 3.295242 1_555
Dy2_7 In4_2 3.392099 1_556
Dy2_7 In4_6 3.392099 1_556
Dy2_7 Dy8_6 3.457160 1_556
Dy3_0 Pt3_4 2.812184 1_455
Dy3_0 Pt3_0 2.812184 1_555
Dy3_0 In4_0 3.204101 1_555
Dy3_0 In4_4 3.204101 1_455
Dy3_0 In3_4 3.295242 1_455
Dy3_0 In3_0 3.295242 1_555
Dy3_0 In5_5 3.392099 1_454
Dy3_0 In5_1 3.392099 1_554
Dy3_0 Dy8_2 3.457160 1_555
Dy3_1 Pt3_1 2.812184 1_555
Dy3_1 Pt3_5 2.812184 1_455
Dy3_1 In4_1 3.204101 1_555
Dy3_1 In4_5 3.204101 1_455
Dy3_1 In3_1 3.295242 1_555
Dy3_1 In3_5 3.295242 1_455
Dy3_1 In5_4 3.392099 1_455
Dy3_1 In5_0 3.392099 1_555
Dy3_1 Dy8_3 3.457160 1_555
Dy3_2 Pt3_2 2.812184 1_555
Dy3_2 Pt3_6 2.812184 1_455
Dy3_2 In4_6 3.204101 1_455
Dy3_2 In4_2 3.204101 1_555
Dy3_2 In3_2 3.295242 1_555
Dy3_2 In3_6 3.295242 1_455
Dy3_2 In5_7 3.392099 1_454
Dy3_2 In5_3 3.392099 1_554
Dy3_2 Dy8_0 3.457160 1_565
Dy3_3 Pt3_7 2.812184 1_455
Dy3_3 Pt3_3 2.812184 1_555
Dy3_3 In4_3 3.204101 1_555
Dy3_3 In4_7 3.204101 1_455
Dy3_3 In3_7 3.295242 1_455
Dy3_3 In3_3 3.295242 1_555
Dy3_3 In5_2 3.392099 1_555
Dy3_3 In5_6 3.392099 1_455
Dy3_3 Dy8_1 3.457160 1_565
Dy3_4 Pt3_0 2.812184 1_555
Dy3_4 Pt3_4 2.812184 1_555
Dy3_4 In4_0 3.204101 1_555
Dy3_4 In4_4 3.204101 1_555
Dy3_4 In3_4 3.295242 1_555
Dy3_4 In3_0 3.295242 1_555
Dy3_4 In5_1 3.392099 1_554
Dy3_4 In5_5 3.392099 1_554
Dy3_4 Dy8_6 3.457160 1_555
Dy3_5 Pt3_1 2.812184 1_555
Dy3_5 Pt3_5 2.812184 1_555
Dy3_5 In4_1 3.204101 1_555
Dy3_5 In4_5 3.204101 1_555
Dy3_5 In3_1 3.295242 1_555
Dy3_5 In3_5 3.295242 1_555
Dy3_5 In5_0 3.392099 1_555
Dy3_5 In5_4 3.392099 1_555
Dy3_5 Dy8_7 3.457160 1_555
Dy3_6 Pt3_2 2.812184 1_555
Dy3_6 Pt3_6 2.812184 1_555
Dy3_6 In4_2 3.204101 1_555
Dy3_6 In4_6 3.204101 1_555
Dy3_6 In3_2 3.295242 1_555
Dy3_6 In3_6 3.295242 1_555
Dy3_6 In5_3 3.392099 1_554
Dy3_6 In5_7 3.392099 1_554
Dy3_6 Dy8_4 3.457160 1_565
Dy3_7 Pt3_3 2.812184 1_555
Dy3_7 Pt3_7 2.812184 1_555
Dy3_7 In4_3 3.204101 1_555
Dy3_7 In4_7 3.204101 1_555
Dy3_7 In3_3 3.295242 1_555
Dy3_7 In3_7 3.295242 1_555
Dy3_7 In5_2 3.392099 1_555
Dy3_7 In5_6 3.392099 1_555
Dy3_7 Dy8_5 3.457160 1_565
Dy4_0 Pt0_4 2.939914 1_455
Dy4_0 Pt0_0 2.939914 1_555
Dy4_0 Pt3_0 2.950026 1_555
Dy4_0 Pt3_4 2.950026 1_455
Dy4_0 In0_0 3.331632 1_555
Dy4_0 In0_4 3.331632 1_455
Dy4_0 In4_0 3.332375 1_555
Dy4_0 In4_4 3.332375 1_455
Dy4_0 In3_2 3.402787 1_545
Dy4_0 In3_6 3.402787 1_445
Dy4_1 Pt0_1 2.939914 1_555
Dy4_1 Pt0_5 2.939914 1_455
Dy4_1 Pt3_1 2.950026 1_555
Dy4_1 Pt3_5 2.950026 1_455
Dy4_1 In0_1 3.331632 1_555
Dy4_1 In0_5 3.331632 1_455
Dy4_1 In4_1 3.332375 1_555
Dy4_1 In4_5 3.332375 1_455
Dy4_1 In3_7 3.402787 1_445
Dy4_1 In3_3 3.402787 1_545
Dy4_2 Pt0_6 2.939914 1_455
Dy4_2 Pt0_2 2.939914 1_555
Dy4_2 Pt3_2 2.950026 1_555
Dy4_2 Pt3_6 2.950026 1_455
Dy4_2 In0_2 3.331632 1_555
Dy4_2 In0_6 3.331632 1_455
Dy4_2 In4_2 3.332375 1_555
Dy4_2 In4_6 3.332375 1_455
Dy4_2 In3_4 3.402787 1_455
Dy4_2 In3_0 3.402787 1_555
Dy4_3 Pt0_3 2.939914 1_555
Dy4_3 Pt0_7 2.939914 1_455
Dy4_3 Pt3_7 2.950026 1_455
Dy4_3 Pt3_3 2.950026 1_555
Dy4_3 In0_7 3.331632 1_455
Dy4_3 In0_3 3.331632 1_555
Dy4_3 In4_3 3.332375 1_555
Dy4_3 In4_7 3.332375 1_455
Dy4_3 In3_1 3.402787 1_555
Dy4_3 In3_5 3.402787 1_455
Dy4_4 Pt0_0 2.939914 1_555
Dy4_4 Pt0_4 2.939914 1_555
Dy4_4 Pt3_0 2.950026 1_555
Dy4_4 Pt3_4 2.950026 1_555
Dy4_4 In0_0 3.331632 1_555
Dy4_4 In0_4 3.331632 1_555
Dy4_4 In4_0 3.332375 1_555
Dy4_4 In4_4 3.332375 1_555
Dy4_4 In3_2 3.402787 1_545
Dy4_4 In3_6 3.402787 1_545
Dy4_5 Pt0_1 2.939914 1_555
Dy4_5 Pt0_5 2.939914 1_555
Dy4_5 Pt3_1 2.950026 1_555
Dy4_5 Pt3_5 2.950026 1_555
Dy4_5 In0_1 3.331632 1_555
Dy4_5 In0_5 3.331632 1_555
Dy4_5 In4_1 3.332375 1_555
Dy4_5 In4_5 3.332375 1_555
Dy4_5 In3_7 3.402787 1_545
Dy4_5 In3_3 3.402787 1_545
Dy4_6 Pt0_2 2.939914 1_555
Dy4_6 Pt0_6 2.939914 1_555
Dy4_6 Pt3_2 2.950026 1_555
Dy4_6 Pt3_6 2.950026 1_555
Dy4_6 In0_2 3.331632 1_555
Dy4_6 In0_6 3.331632 1_555
Dy4_6 In4_2 3.332375 1_555
Dy4_6 In4_6 3.332375 1_555
Dy4_6 In3_0 3.402787 1_555
Dy4_6 In3_4 3.402787 1_555
Dy4_7 Pt0_3 2.939914 1_555
Dy4_7 Pt0_7 2.939914 1_555
Dy4_7 Pt3_3 2.950026 1_555
Dy4_7 Pt3_7 2.950026 1_555
Dy4_7 In0_3 3.331632 1_555
Dy4_7 In0_7 3.331632 1_555
Dy4_7 In4_3 3.332375 1_555
Dy4_7 In4_7 3.332375 1_555
Dy4_7 In3_1 3.402787 1_555
Dy4_7 In3_5 3.402787 1_555
Dy5_0 Pt1_0 2.939914 1_555
Dy5_0 Pt1_4 2.939914 1_455
Dy5_0 Pt2_0 2.950026 1_555
Dy5_0 Pt2_4 2.950026 1_455
Dy5_0 In1_0 3.331632 1_555
Dy5_0 In1_4 3.331632 1_455
Dy5_0 In5_0 3.332375 1_555
Dy5_0 In5_4 3.332375 1_455
Dy5_0 In2_6 3.402787 1_455
Dy5_0 In2_2 3.402787 1_555
Dy5_1 Pt1_1 2.939914 1_555
Dy5_1 Pt1_5 2.939914 1_455
Dy5_1 Pt2_1 2.950026 1_555
Dy5_1 Pt2_5 2.950026 1_455
Dy5_1 In1_1 3.331632 1_555
Dy5_1 In1_5 3.331632 1_455
Dy5_1 In5_1 3.332375 1_555
Dy5_1 In5_5 3.332375 1_455
Dy5_1 In2_7 3.402787 1_455
Dy5_1 In2_3 3.402787 1_555
Dy5_2 Pt1_6 2.939914 1_455
Dy5_2 Pt1_2 2.939914 1_555
Dy5_2 Pt2_6 2.950026 1_455
Dy5_2 Pt2_2 2.950026 1_555
Dy5_2 In1_6 3.331632 1_455
Dy5_2 In1_2 3.331632 1_555
Dy5_2 In5_2 3.332375 1_555
Dy5_2 In5_6 3.332375 1_455
Dy5_2 In2_0 3.402787 1_565
Dy5_2 In2_4 3.402787 1_465
Dy5_3 Pt1_7 2.939914 1_455
Dy5_3 Pt1_3 2.939914 1_555
Dy5_3 Pt2_3 2.950026 1_555
Dy5_3 Pt2_7 2.950026 1_455
Dy5_3 In1_3 3.331632 1_555
Dy5_3 In1_7 3.331632 1_455
Dy5_3 In5_3 3.332375 1_555
Dy5_3 In5_7 3.332375 1_455
Dy5_3 In2_1 3.402787 1_565
Dy5_3 In2_5 3.402787 1_465
Dy5_4 Pt1_4 2.939914 1_555
Dy5_4 Pt1_0 2.939914 1_555
Dy5_4 Pt2_0 2.950026 1_555
Dy5_4 Pt2_4 2.950026 1_555
Dy5_4 In1_0 3.331632 1_555
Dy5_4 In1_4 3.331632 1_555
Dy5_4 In5_0 3.332375 1_555
Dy5_4 In5_4 3.332375 1_555
Dy5_4 In2_2 3.402787 1_555
Dy5_4 In2_6 3.402787 1_555
Dy5_5 Pt1_1 2.939914 1_555
Dy5_5 Pt1_5 2.939914 1_555
Dy5_5 Pt2_1 2.950026 1_555
Dy5_5 Pt2_5 2.950026 1_555
Dy5_5 In1_5 3.331632 1_555
Dy5_5 In1_1 3.331632 1_555
Dy5_5 In5_1 3.332375 1_555
Dy5_5 In5_5 3.332375 1_555
Dy5_5 In2_3 3.402787 1_555
Dy5_5 In2_7 3.402787 1_555
Dy5_6 Pt1_2 2.939914 1_555
Dy5_6 Pt1_6 2.939914 1_555
Dy5_6 Pt2_2 2.950026 1_555
Dy5_6 Pt2_6 2.950026 1_555
Dy5_6 In1_6 3.331632 1_555
Dy5_6 In1_2 3.331632 1_555
Dy5_6 In5_2 3.332375 1_555
Dy5_6 In5_6 3.332375 1_555
Dy5_6 In2_0 3.402787 1_565
Dy5_6 In2_4 3.402787 1_565
Dy5_7 Pt1_3 2.939914 1_555
Dy5_7 Pt1_7 2.939914 1_555
Dy5_7 Pt2_3 2.950026 1_555
Dy5_7 Pt2_7 2.950026 1_555
Dy5_7 In1_3 3.331632 1_555
Dy5_7 In1_7 3.331632 1_555
Dy5_7 In5_3 3.332375 1_555
Dy5_7 In5_7 3.332375 1_555
Dy5_7 In2_1 3.402787 1_565
Dy5_7 In2_5 3.402787 1_565
Dy6_0 Pt2_4 2.939914 1_455
Dy6_0 Pt2_0 2.939914 1_555
Dy6_0 Pt1_2 2.950026 1_545
Dy6_0 Pt1_6 2.950026 1_445
Dy6_0 In2_0 3.331632 1_555
Dy6_0 In2_4 3.331632 1_455
Dy6_0 In6_4 3.332375 1_455
Dy6_0 In6_0 3.332375 1_555
Dy6_0 In1_4 3.402787 1_455
Dy6_0 In1_0 3.402787 1_555
Dy6_1 Pt2_1 2.939914 1_555
Dy6_1 Pt2_5 2.939914 1_455
Dy6_1 Pt1_3 2.950026 1_545
Dy6_1 Pt1_7 2.950026 1_445
Dy6_1 In2_5 3.331632 1_455
Dy6_1 In2_1 3.331632 1_555
Dy6_1 In6_5 3.332375 1_455
Dy6_1 In6_1 3.332375 1_555
Dy6_1 In1_1 3.402787 1_555
Dy6_1 In1_5 3.402787 1_455
Dy6_2 Pt2_2 2.939914 1_555
Dy6_2 Pt2_6 2.939914 1_455
Dy6_2 Pt1_0 2.950026 1_555
Dy6_2 Pt1_4 2.950026 1_455
Dy6_2 In2_2 3.331632 1_555
Dy6_2 In2_6 3.331632 1_455
Dy6_2 In6_6 3.332375 1_455
Dy6_2 In6_2 3.332375 1_555
Dy6_2 In1_6 3.402787 1_455
Dy6_2 In1_2 3.402787 1_555
Dy6_3 Pt2_3 2.939914 1_555
Dy6_3 Pt2_7 2.939914 1_455
Dy6_3 Pt1_1 2.950026 1_555
Dy6_3 Pt1_5 2.950026 1_455
Dy6_3 In2_3 3.331632 1_555
Dy6_3 In2_7 3.331632 1_455
Dy6_3 In6_3 3.332375 1_555
Dy6_3 In6_7 3.332375 1_455
Dy6_3 In1_3 3.402787 1_555
Dy6_3 In1_7 3.402787 1_455
Dy6_4 Pt2_0 2.939914 1_555
Dy6_4 Pt2_4 2.939914 1_555
Dy6_4 Pt1_2 2.950026 1_545
Dy6_4 Pt1_6 2.950026 1_545
Dy6_4 In2_0 3.331632 1_555
Dy6_4 In2_4 3.331632 1_555
Dy6_4 In6_0 3.332375 1_555
Dy6_4 In6_4 3.332375 1_555
Dy6_4 In1_0 3.402787 1_555
Dy6_4 In1_4 3.402787 1_555
Dy6_5 Pt2_1 2.939914 1_555
Dy6_5 Pt2_5 2.939914 1_555
Dy6_5 Pt1_3 2.950026 1_545
Dy6_5 Pt1_7 2.950026 1_545
Dy6_5 In2_1 3.331632 1_555
Dy6_5 In2_5 3.331632 1_555
Dy6_5 In6_1 3.332375 1_555
Dy6_5 In6_5 3.332375 1_555
Dy6_5 In1_1 3.402787 1_555
Dy6_5 In1_5 3.402787 1_555
Dy6_6 Pt2_2 2.939914 1_555
Dy6_6 Pt2_6 2.939914 1_555
Dy6_6 Pt1_0 2.950026 1_555
Dy6_6 Pt1_4 2.950026 1_555
Dy6_6 In2_2 3.331632 1_555
Dy6_6 In2_6 3.331632 1_555
Dy6_6 In6_2 3.332375 1_555
Dy6_6 In6_6 3.332375 1_555
Dy6_6 In1_6 3.402787 1_555
Dy6_6 In1_2 3.402787 1_555
Dy6_7 Pt2_3 2.939914 1_555
Dy6_7 Pt2_7 2.939914 1_555
Dy6_7 Pt1_1 2.950026 1_555
Dy6_7 Pt1_5 2.950026 1_555
Dy6_7 In2_3 3.331632 1_555
Dy6_7 In2_7 3.331632 1_555
Dy6_7 In6_3 3.332375 1_555
Dy6_7 In6_7 3.332375 1_555
Dy6_7 In1_3 3.402787 1_555
Dy6_7 In1_7 3.402787 1_555
Dy7_0 Pt3_0 2.939914 1_555
Dy7_0 Pt3_4 2.939914 1_455
Dy7_0 Pt0_2 2.950026 1_555
Dy7_0 Pt0_6 2.950026 1_455
Dy7_0 In3_0 3.331632 1_555
Dy7_0 In3_4 3.331632 1_455
Dy7_0 In7_0 3.332375 1_555
Dy7_0 In7_4 3.332375 1_455
Dy7_0 In0_0 3.402787 1_555
Dy7_0 In0_4 3.402787 1_455
Dy7_1 Pt3_1 2.939914 1_555
Dy7_1 Pt3_5 2.939914 1_455
Dy7_1 Pt0_7 2.950026 1_455
Dy7_1 Pt0_3 2.950026 1_555
Dy7_1 In3_1 3.331632 1_555
Dy7_1 In3_5 3.331632 1_455
Dy7_1 In7_1 3.332375 1_555
Dy7_1 In7_5 3.332375 1_455
Dy7_1 In0_1 3.402787 1_555
Dy7_1 In0_5 3.402787 1_455
Dy7_2 Pt3_2 2.939914 1_555
Dy7_2 Pt3_6 2.939914 1_455
Dy7_2 Pt0_4 2.950026 1_465
Dy7_2 Pt0_0 2.950026 1_565
Dy7_2 In3_6 3.331632 1_455
Dy7_2 In3_2 3.331632 1_555
Dy7_2 In7_2 3.332375 1_555
Dy7_2 In7_6 3.332375 1_455
Dy7_2 In0_2 3.402787 1_555
Dy7_2 In0_6 3.402787 1_455
Dy7_3 Pt3_7 2.939914 1_455
Dy7_3 Pt3_3 2.939914 1_555
Dy7_3 Pt0_1 2.950026 1_565
Dy7_3 Pt0_5 2.950026 1_465
Dy7_3 In3_3 3.331632 1_555
Dy7_3 In3_7 3.331632 1_455
Dy7_3 In7_3 3.332375 1_555
Dy7_3 In7_7 3.332375 1_455
Dy7_3 In0_7 3.402787 1_455
Dy7_3 In0_3 3.402787 1_555
Dy7_4 Pt3_4 2.939914 1_555
Dy7_4 Pt3_0 2.939914 1_555
Dy7_4 Pt0_2 2.950026 1_555
Dy7_4 Pt0_6 2.950026 1_555
Dy7_4 In3_0 3.331632 1_555
Dy7_4 In3_4 3.331632 1_555
Dy7_4 In7_0 3.332375 1_555
Dy7_4 In7_4 3.332375 1_555
Dy7_4 In0_0 3.402787 1_555
Dy7_4 In0_4 3.402787 1_555
Dy7_5 Pt3_1 2.939914 1_555
Dy7_5 Pt3_5 2.939914 1_555
Dy7_5 Pt0_3 2.950026 1_555
Dy7_5 Pt0_7 2.950026 1_555
Dy7_5 In3_1 3.331632 1_555
Dy7_5 In3_5 3.331632 1_555
Dy7_5 In7_1 3.332375 1_555
Dy7_5 In7_5 3.332375 1_555
Dy7_5 In0_1 3.402787 1_555
Dy7_5 In0_5 3.402787 1_555
Dy7_6 Pt3_2 2.939914 1_555
Dy7_6 Pt3_6 2.939914 1_555
Dy7_6 Pt0_0 2.950026 1_565
Dy7_6 Pt0_4 2.950026 1_565
Dy7_6 In3_2 3.331632 1_555
Dy7_6 In3_6 3.331632 1_555
Dy7_6 In7_2 3.332375 1_555
Dy7_6 In7_6 3.332375 1_555
Dy7_6 In0_2 3.402787 1_555
Dy7_6 In0_6 3.402787 1_555
Dy7_7 Pt3_7 2.939914 1_555
Dy7_7 Pt3_3 2.939914 1_555
Dy7_7 Pt0_1 2.950026 1_565
Dy7_7 Pt0_5 2.950026 1_565
Dy7_7 In3_3 3.331632 1_555
Dy7_7 In3_7 3.331632 1_555
Dy7_7 In7_3 3.332375 1_555
Dy7_7 In7_7 3.332375 1_555
Dy7_7 In0_3 3.402787 1_555
Dy7_7 In0_7 3.402787 1_555
Dy8_0 In5_3 3.207188 1_544
Dy8_0 In5_7 3.207188 1_444
Dy8_0 In4_0 3.207188 1_555
Dy8_0 In4_4 3.207188 1_455
Dy8_0 In2_1 3.306580 1_554
Dy8_0 In2_5 3.306580 1_454
Dy8_0 In3_2 3.306580 1_545
Dy8_0 In3_6 3.306580 1_445
Dy8_0 Dy8_4 3.625793 1_555
Dy8_0 Dy8_4 3.625793 1_455
Dy8_1 In5_2 3.207188 1_545
Dy8_1 In5_6 3.207188 1_445
Dy8_1 In4_5 3.207188 1_455
Dy8_1 In4_1 3.207188 1_555
Dy8_1 In2_0 3.306580 1_555
Dy8_1 In2_4 3.306580 1_455
Dy8_1 In3_7 3.306580 1_445
Dy8_1 In3_3 3.306580 1_545
Dy8_1 Dy8_5 3.625793 1_555
Dy8_1 Dy8_5 3.625793 1_455
Dy8_2 In5_1 3.207188 1_554
Dy8_2 In4_6 3.207188 1_455
Dy8_2 In4_2 3.207188 1_555
Dy8_2 In5_5 3.207188 1_454
Dy8_2 In2_3 3.306580 1_554
Dy8_2 In2_7 3.306580 1_454
Dy8_2 In3_0 3.306580 1_555
Dy8_2 In3_4 3.306580 1_455
Dy8_2 Dy8_6 3.625793 1_555
Dy8_2 Dy8_6 3.625793 1_455
Dy8_3 In4_3 3.207188 1_555
Dy8_3 In5_0 3.207188 1_555
Dy8_3 In5_4 3.207188 1_455
Dy8_3 In4_7 3.207188 1_455
Dy8_3 In2_6 3.306580 1_455
Dy8_3 In2_2 3.306580 1_555
Dy8_3 In3_5 3.306580 1_455
Dy8_3 In3_1 3.306580 1_555
Dy8_3 Dy8_7 3.625793 1_555
Dy8_3 Dy8_7 3.625793 1_455
Dy8_4 In5_3 3.207188 1_544
Dy8_4 In5_7 3.207188 1_544
Dy8_4 In4_0 3.207188 1_555
Dy8_4 In4_4 3.207188 1_555
Dy8_4 In2_1 3.306580 1_554
Dy8_4 In2_5 3.306580 1_554
Dy8_4 In3_2 3.306580 1_545
Dy8_4 In3_6 3.306580 1_545
Dy8_5 In5_2 3.207188 1_545
Dy8_5 In5_6 3.207188 1_545
Dy8_5 In4_1 3.207188 1_555
Dy8_5 In4_5 3.207188 1_555
Dy8_5 In2_4 3.306580 1_555
Dy8_5 In2_0 3.306580 1_555
Dy8_5 In3_3 3.306580 1_545
Dy8_5 In3_7 3.306580 1_545
Dy8_6 In5_1 3.207188 1_554
Dy8_6 In4_2 3.207188 1_555
Dy8_6 In5_5 3.207188 1_554
Dy8_6 In4_6 3.207188 1_555
Dy8_6 In2_3 3.306580 1_554
Dy8_6 In2_7 3.306580 1_554
Dy8_6 In3_0 3.306580 1_555
Dy8_6 In3_4 3.306580 1_555
Dy8_7 In4_3 3.207188 1_555
Dy8_7 In5_0 3.207188 1_555
Dy8_7 In5_4 3.207188 1_555
Dy8_7 In4_7 3.207188 1_555
Dy8_7 In2_6 3.306580 1_555
Dy8_7 In2_2 3.306580 1_555
Dy8_7 In3_1 3.306580 1_555
Dy8_7 In3_5 3.306580 1_555
Dy9_0 In7_0 3.207188 1_555
Dy9_0 In6_0 3.207188 1_555
Dy9_0 In7_4 3.207188 1_455
Dy9_0 In6_4 3.207188 1_455
Dy9_0 In0_0 3.306580 1_555
Dy9_0 In0_4 3.306580 1_455
Dy9_0 In1_4 3.306580 1_455
Dy9_0 In1_0 3.306580 1_555
Dy9_0 Dy9_4 3.625793 1_555
Dy9_0 Dy9_4 3.625793 1_455
Dy9_1 In7_1 3.207188 1_555
Dy9_1 In6_1 3.207188 1_555
Dy9_1 In6_5 3.207188 1_455
Dy9_1 In7_5 3.207188 1_455
Dy9_1 In1_1 3.306580 1_555
Dy9_1 In1_5 3.306580 1_455
Dy9_1 In0_1 3.306580 1_555
Dy9_1 In0_5 3.306580 1_455
Dy9_1 Dy9_5 3.625793 1_555
Dy9_1 Dy9_5 3.625793 1_455
Dy9_2 In7_2 3.207188 1_555
Dy9_2 In6_2 3.207188 1_555
Dy9_2 In7_6 3.207188 1_455
Dy9_2 In6_6 3.207188 1_455
Dy9_2 In0_2 3.306580 1_555
Dy9_2 In0_6 3.306580 1_455
Dy9_2 In1_2 3.306580 1_555
Dy9_2 In1_6 3.306580 1_455
Dy9_2 Dy9_6 3.625793 1_555
Dy9_2 Dy9_6 3.625793 1_455
Dy9_3 In6_3 3.207188 1_555
Dy9_3 In7_3 3.207188 1_555
Dy9_3 In7_7 3.207188 1_455
Dy9_3 In6_7 3.207188 1_455
Dy9_3 In1_7 3.306580 1_455
Dy9_3 In1_3 3.306580 1_555
Dy9_3 In0_3 3.306580 1_555
Dy9_3 In0_7 3.306580 1_455
Dy9_3 Dy9_7 3.625793 1_555
Dy9_3 Dy9_7 3.625793 1_455
Dy9_4 In7_0 3.207188 1_555
Dy9_4 In6_0 3.207188 1_555
Dy9_4 In6_4 3.207188 1_555
Dy9_4 In7_4 3.207188 1_555
Dy9_4 In0_0 3.306580 1_555
Dy9_4 In0_4 3.306580 1_555
Dy9_4 In1_0 3.306580 1_555
Dy9_4 In1_4 3.306580 1_555
Dy9_5 In7_1 3.207188 1_555
Dy9_5 In6_1 3.207188 1_555
Dy9_5 In7_5 3.207188 1_555
Dy9_5 In6_5 3.207188 1_555
Dy9_5 In1_1 3.306580 1_555
Dy9_5 In1_5 3.306580 1_555
Dy9_5 In0_1 3.306580 1_555
Dy9_5 In0_5 3.306580 1_555
Dy9_6 In7_2 3.207188 1_555
Dy9_6 In6_2 3.207188 1_555
Dy9_6 In6_6 3.207188 1_555
Dy9_6 In7_6 3.207188 1_555
Dy9_6 In0_2 3.306580 1_555
Dy9_6 In0_6 3.306580 1_555
Dy9_6 In1_2 3.306580 1_555
Dy9_6 In1_6 3.306580 1_555
Dy9_7 In6_3 3.207188 1_555
Dy9_7 In7_3 3.207188 1_555
Dy9_7 In6_7 3.207188 1_555
Dy9_7 In7_7 3.207188 1_555
Dy9_7 In1_3 3.306580 1_555
Dy9_7 In1_7 3.306580 1_555
Dy9_7 In0_3 3.306580 1_555
Dy9_7 In0_7 3.306580 1_555
In0_0 Pt3_0 2.938247 1_555
In0_0 In7_0 3.291507 1_555
In0_0 Pt0_0 3.324703 1_555
In0_1 Pt3_1 2.938247 1_555
In0_1 In7_1 3.291507 1_555
In0_1 Pt0_1 3.324703 1_555
In0_2 Pt3_2 2.938247 1_555
In0_2 In7_2 3.291507 1_555
In0_2 Pt0_2 3.324703 1_555
In0_3 Pt3_3 2.938247 1_555
In0_3 In7_3 3.291507 1_555
In0_3 Pt0_3 3.324703 1_555
In0_4 Pt3_4 2.938247 1_555
In0_4 In7_4 3.291507 1_555
In0_4 Pt0_4 3.324703 1_555
In0_5 Pt3_5 2.938247 1_555
In0_5 In7_5 3.291507 1_555
In0_5 Pt0_5 3.324703 1_555
In0_6 Pt3_6 2.938247 1_555
In0_6 In7_6 3.291507 1_555
In0_6 Pt0_6 3.324703 1_555
In0_7 Pt3_7 2.938247 1_555
In0_7 In7_7 3.291507 1_555
In0_7 Pt0_7 3.324703 1_555
In1_0 Pt2_0 2.938247 1_555
In1_0 In6_0 3.291507 1_555
In1_0 Pt1_0 3.324703 1_555
In1_1 Pt2_1 2.938247 1_555
In1_1 In6_1 3.291507 1_555
In1_1 Pt1_1 3.324703 1_555
In1_2 Pt2_2 2.938247 1_555
In1_2 In6_2 3.291507 1_555
In1_2 Pt1_2 3.324703 1_555
In1_3 Pt2_3 2.938247 1_555
In1_3 In6_3 3.291507 1_555
In1_3 Pt1_3 3.324703 1_555
In1_4 Pt2_4 2.938247 1_555
In1_4 In6_4 3.291507 1_555
In1_4 Pt1_4 3.324703 1_555
In1_5 Pt2_5 2.938247 1_555
In1_5 In6_5 3.291507 1_555
In1_5 Pt1_5 3.324703 1_555
In1_6 Pt2_6 2.938247 1_555
In1_6 In6_6 3.291507 1_555
In1_6 Pt1_6 3.324703 1_555
In1_7 Pt2_7 2.938247 1_555
In1_7 In6_7 3.291507 1_555
In1_7 Pt1_7 3.324703 1_555
In2_0 Pt1_2 2.938247 1_545
In2_0 In5_2 3.291507 1_545
In2_0 Pt2_0 3.324703 1_555
In2_1 Pt1_3 2.938247 1_545
In2_1 In5_3 3.291507 1_545
In2_1 Pt2_1 3.324703 1_555
In2_2 Pt1_0 2.938247 1_555
In2_2 In5_0 3.291507 1_555
In2_2 Pt2_2 3.324703 1_555
In2_3 Pt1_1 2.938247 1_555
In2_3 In5_1 3.291507 1_555
In2_3 Pt2_3 3.324703 1_555
In2_4 Pt1_6 2.938247 1_545
In2_4 In5_6 3.291507 1_545
In2_4 Pt2_4 3.324703 1_555
In2_5 Pt1_7 2.938247 1_545
In2_5 In5_7 3.291507 1_545
In2_5 Pt2_5 3.324703 1_555
In2_6 Pt1_4 2.938247 1_555
In2_6 In5_4 3.291507 1_555
In2_6 Pt2_6 3.324703 1_555
In2_7 Pt1_5 2.938247 1_555
In2_7 In5_5 3.291507 1_555
In2_7 Pt2_7 3.324703 1_555
In3_0 Pt0_2 2.938247 1_555
In3_0 In4_2 3.291507 1_555
In3_0 Pt3_0 3.324703 1_555
In3_1 Pt0_3 2.938247 1_555
In3_1 In4_3 3.291507 1_555
In3_1 Pt3_1 3.324703 1_555
In3_2 Pt0_0 2.938247 1_565
In3_2 In4_0 3.291507 1_565
In3_2 Pt3_2 3.324703 1_555
In3_3 Pt0_1 2.938247 1_565
In3_3 In4_1 3.291507 1_565
In3_3 Pt3_3 3.324703 1_555
In3_4 Pt0_6 2.938247 1_555
In3_4 In4_6 3.291507 1_555
In3_4 Pt3_4 3.324703 1_555
In3_5 Pt0_7 2.938247 1_555
In3_5 In4_7 3.291507 1_555
In3_5 Pt3_5 3.324703 1_555
In3_6 Pt0_4 2.938247 1_565
In3_6 In4_4 3.291507 1_565
In3_6 Pt3_6 3.324703 1_555
In3_7 Pt0_5 2.938247 1_565
In3_7 In4_5 3.291507 1_565
In3_7 Pt3_7 3.324703 1_555
In4_0 Pt3_0 3.011305 1_555
In4_1 Pt3_1 3.011305 1_555
In4_2 Pt3_2 3.011305 1_555
In4_3 Pt3_3 3.011305 1_555
In4_4 Pt3_4 3.011305 1_555
In4_5 Pt3_5 3.011305 1_555
In4_6 Pt3_6 3.011305 1_555
In4_7 Pt3_7 3.011305 1_555
In5_0 Pt2_0 3.011305 1_555
In5_1 Pt2_1 3.011305 1_555
In5_2 Pt2_2 3.011305 1_555
In5_3 Pt2_3 3.011305 1_555
In5_4 Pt2_4 3.011305 1_555
In5_5 Pt2_5 3.011305 1_555
In5_6 Pt2_6 3.011305 1_555
In5_7 Pt2_7 3.011305 1_555
In6_0 Pt1_2 3.011305 1_545
In6_1 Pt1_3 3.011305 1_545
In6_2 Pt1_0 3.011305 1_555
In6_3 Pt1_1 3.011305 1_555
In6_4 Pt1_6 3.011305 1_545
In6_5 Pt1_7 3.011305 1_545
In6_6 Pt1_4 3.011305 1_555
In6_7 Pt1_5 3.011305 1_555
In7_0 Pt0_2 3.011305 1_555
In7_1 Pt0_3 3.011305 1_555
In7_2 Pt0_0 3.011305 1_565
In7_3 Pt0_1 3.011305 1_565
In7_4 Pt0_6 3.011305 1_555
In7_5 Pt0_7 3.011305 1_555
In7_6 Pt0_4 3.011305 1_565
In7_7 Pt0_5 3.011305 1_565
