# generated using pymatgen
data_Ti13Al9Co8
_symmetry_space_group_name_H-M   'P 1'
_cell_length_a   8.43175054
_cell_length_b   8.43175951
_cell_length_c   8.43170242
_cell_angle_alpha   59.84032390
_cell_angle_beta   59.84025127
_cell_angle_gamma   59.84013005
_symmetry_Int_Tables_number   1
_chemical_formula_structural   Ti13Al9Co8
_chemical_formula_sum   'Ti13 Al9 Co8'
_cell_volume   422.33654758
_cell_formula_units_Z   1
loop_
 _symmetry_equiv_pos_site_id
 _symmetry_equiv_pos_as_xyz
  1  'x, y, z'
loop_
 _atom_site_type_symbol
 _atom_site_label
 _atom_site_symmetry_multiplicity
 _atom_site_fract_x
 _atom_site_fract_y
 _atom_site_fract_z
 _atom_site_occupancy
  Ti  Ti0  1  0.20569193  0.20569791  0.79406841  1
  Ti  Ti1  1  0.79406852  0.20569422  0.20569338  1
  Ti  Ti2  1  0.20569446  0.79406698  0.20569953  1
  Ti  Ti3  1  0.80126307  0.80126718  0.18479521  1
  Ti  Ti4  1  0.18479623  0.80126340  0.80126528  1
  Ti  Ti5  1  0.80126562  0.18479716  0.80126731  1
  Ti  Ti6  1  0.38054856  0.38054807  0.38054556  1
  Ti  Ti7  1  0.38106840  0.86040035  0.38106793  1
  Ti  Ti8  1  0.86039699  0.38106704  0.38107135  1
  Ti  Ti9  1  0.38107013  0.38106893  0.86040252  1
  Ti  Ti10  1  0.84266722  0.47329176  0.84267198  1
  Ti  Ti11  1  0.47329318  0.84266891  0.84267310  1
  Ti  Ti12  1  0.84266990  0.84267032  0.47329320  1
  Al  Al0  1  0.15949415  0.15949765  0.15949435  1
  Al  Al1  1  0.16215322  0.51712340  0.16213755  1
  Al  Al2  1  0.51711753  0.16214920  0.16214504  1
  Al  Al3  1  0.16214365  0.16214596  0.51711781  1
  Al  Al4  1  0.61920406  0.61920703  0.61920606  1
  Al  Al5  1  0.61968919  0.14444894  0.61968352  1
  Al  Al6  1  0.14445540  0.61968280  0.61968537  1
  Al  Al7  1  0.61968466  0.61968298  0.14445581  1
  Al  Al8  1  0.82889486  0.82889847  0.82889451  1
  Co  Co0  1  0.00362466  0.00362441  0.49733511  1
  Co  Co1  1  0.49733742  0.00362767  0.00362141  1
  Co  Co2  1  0.00362581  0.49733698  0.00361997  1
  Co  Co3  1  0.49978708  0.49978782  0.00262301  1
  Co  Co4  1  0.00261780  0.49978822  0.49979125  1
  Co  Co5  1  0.49978870  0.00261945  0.49978874  1
  Co  Co6  1  0.50126256  0.50126226  0.50126454  1
  Co  Co7  1  0.00462302  0.00461353  0.00462018  1
loop_
_geom_bond_atom_site_label_1
_geom_bond_atom_site_label_2
_geom_bond_distance
_geom_bond_site_symmetry_2
Ti0 Ti6 2.890989 1_555
Ti0 Ti9 2.923232 1_555
Ti1 Ti6 2.890976 1_555
Ti1 Ti8 2.923204 1_555
Ti2 Ti6 2.890967 1_555
Ti2 Ti7 2.923171 1_555
Ti3 Ti7 2.949996 1_555
Ti3 Ti8 2.950040 1_555
Ti4 Ti9 2.949992 1_555
Ti4 Ti7 2.949996 1_555
Ti5 Ti8 2.949994 1_555
Ti5 Ti9 2.949997 1_555
Al0 Co2 2.404351 1_555
Al0 Co0 2.404353 1_555
Al0 Co1 2.404369 1_555
Al0 Ti8 2.716489 1_455
Al0 Ti9 2.716494 1_554
Al0 Ti7 2.716499 1_545
Al1 Co2 2.417486 1_555
Al1 Co3 2.422158 1_555
Al1 Co4 2.422289 1_555
Al1 Ti6 2.693357 1_555
Al1 Ti9 2.698515 1_554
Al1 Ti8 2.698686 1_455
Al2 Co1 2.417455 1_555
Al2 Co3 2.422207 1_555
Al2 Co5 2.422231 1_555
Al2 Ti6 2.693343 1_555
Al2 Ti9 2.698535 1_554
Al2 Ti7 2.698604 1_545
Al3 Co0 2.417443 1_555
Al3 Co4 2.422238 1_555
Al3 Co5 2.422250 1_555
Al3 Ti6 2.693404 1_555
Al3 Ti8 2.698565 1_455
Al3 Ti7 2.698574 1_545
Al4 Co6 2.438859 1_555
Al4 Co5 2.637421 1_565
Al4 Co4 2.637425 1_655
Al4 Co3 2.637436 1_556
Al4 Ti10 2.742747 1_555
Al4 Ti11 2.742754 1_555
Al4 Ti12 2.742768 1_555
Al4 Ti7 2.836207 1_555
Al4 Ti8 2.836211 1_555
Al4 Ti9 2.836212 1_555
Al4 Ti4 3.032699 1_555
Al4 Ti3 3.032716 1_555
Al4 Ti5 3.032725 1_555
Al5 Co6 2.451566 1_555
Al5 Co5 2.632614 1_555
Al5 Co0 2.639430 1_655
Al5 Co1 2.639437 1_556
Al5 Al8 2.645187 1_545
Al5 Ti12 2.747713 1_545
Al5 Ti11 2.747762 1_545
Al5 Ti8 2.842512 1_555
Al5 Ti9 2.842573 1_555
Al5 Ti6 2.848319 1_555
Al5 Ti5 2.864613 1_555
Al5 Ti1 2.899592 1_555
Al5 Ti0 2.899653 1_555
Al6 Co6 2.451520 1_555
Al6 Co4 2.632626 1_555
Al6 Co2 2.639416 1_556
Al6 Co0 2.639478 1_565
Al6 Al8 2.645246 1_455
Al6 Ti12 2.747768 1_455
Al6 Ti10 2.747791 1_455
Al6 Ti9 2.842533 1_555
Al6 Ti7 2.842540 1_555
Al6 Ti6 2.848294 1_555
Al6 Ti4 2.864575 1_555
Al6 Ti2 2.899571 1_555
Al6 Ti0 2.899587 1_555
Al7 Co6 2.451521 1_555
Al7 Co3 2.632618 1_555
Al7 Co2 2.639472 1_655
Al7 Co1 2.639500 1_565
Al7 Al8 2.645261 1_554
Al7 Ti11 2.747741 1_554
Al7 Ti10 2.747745 1_554
Al7 Ti8 2.842509 1_555
Al7 Ti7 2.842517 1_555
Al7 Ti6 2.848290 1_555
Al7 Ti3 2.864590 1_555
Al7 Ti2 2.899608 1_555
Al7 Ti1 2.899611 1_555
Al8 Co1 2.461769 1_566
Al8 Co0 2.461778 1_665
Al8 Co2 2.461791 1_656
Al8 Ti3 2.786245 1_556
Al8 Ti4 2.786263 1_655
Al8 Ti5 2.786272 1_565
Al8 Ti12 2.886295 1_555
Al8 Ti11 2.886307 1_555
Al8 Ti10 2.886350 1_555
Co0 Ti12 2.475531 1_445
Co0 Ti8 2.596257 1_455
Co0 Ti7 2.596259 1_545
Co0 Ti4 2.955151 1_545
Co0 Ti5 2.955172 1_455
Co0 Ti2 3.033571 1_545
Co0 Ti1 3.033608 1_455
Co1 Ti11 2.475522 1_544
Co1 Ti9 2.596246 1_554
Co1 Ti7 2.596270 1_545
Co1 Ti3 2.955137 1_545
Co1 Ti5 2.955150 1_554
Co1 Ti0 3.033618 1_554
Co1 Ti2 3.033652 1_545
Co2 Ti10 2.475523 1_454
Co2 Ti9 2.596261 1_554
Co2 Ti8 2.596303 1_455
Co2 Ti4 2.955144 1_554
Co2 Ti3 2.955175 1_455
Co2 Ti0 3.033569 1_554
Co2 Ti1 3.033637 1_455
Co3 Ti10 2.441922 1_554
Co3 Ti11 2.441938 1_554
Co3 Ti6 2.598646 1_555
Co3 Ti9 2.619377 1_554
Co4 Ti10 2.441913 1_455
Co4 Ti12 2.441934 1_455
Co4 Ti6 2.598712 1_555
Co4 Ti8 2.619416 1_455
Co5 Ti12 2.441929 1_545
Co5 Ti11 2.441942 1_545
Co5 Ti6 2.598703 1_555
Co5 Ti7 2.619404 1_545
Co6 Ti8 2.467475 1_555
Co6 Ti9 2.467490 1_555
Co6 Ti7 2.467504 1_555
Co6 Ti6 2.496203 1_555
Co7 Ti2 2.395839 1_545
Co7 Ti1 2.395858 1_455
Co7 Ti0 2.395867 1_554
Co7 Ti4 2.430438 1_544
Co7 Ti3 2.430459 1_445
Co7 Ti5 2.430464 1_454
