# generated using pymatgen
data_LaYTi2O6
_symmetry_space_group_name_H-M   'P 1'
_cell_length_a   5.47837700
_cell_length_b   5.71097600
_cell_length_c   7.82325800
_cell_angle_alpha   90.00000000
_cell_angle_beta   90.00000000
_cell_angle_gamma   90.00000000
_symmetry_Int_Tables_number   1
_chemical_formula_structural   LaYTi2O6
_chemical_formula_sum   'La2 Y2 Ti4 O12'
_cell_volume   244.76533086
_cell_formula_units_Z   2
loop_
 _symmetry_equiv_pos_site_id
 _symmetry_equiv_pos_as_xyz
  1  'x, y, z'
loop_
 _atom_site_type_symbol
 _atom_site_label
 _atom_site_symmetry_multiplicity
 _atom_site_fract_x
 _atom_site_fract_y
 _atom_site_fract_z
 _atom_site_occupancy
  La  La0  1  0.23555900  0.44571300  0.50000000  1
  La  La1  1  0.76444100  0.94571300  0.50000000  1
  Y  Y0  1  0.26349000  0.56895200  0.00000000  1
  Y  Y1  1  0.73651000  0.06895200  0.00000000  1
  Ti  Ti0  1  0.75058100  0.50187600  0.75560500  1
  Ti  Ti1  1  0.24941900  0.00187600  0.24439500  1
  Ti  Ti2  1  0.75058100  0.50187600  0.24439500  1
  Ti  Ti3  1  0.24941900  0.00187600  0.75560500  1
  O  O0  1  0.13681700  0.96043600  0.00000000  1
  O  O1  1  0.86318300  0.46043600  0.00000000  1
  O  O2  1  0.32897700  0.01689800  0.50000000  1
  O  O3  1  0.67102300  0.51689800  0.50000000  1
  O  O4  1  0.55277200  0.80077200  0.80907200  1
  O  O5  1  0.44722800  0.30077200  0.19092800  1
  O  O6  1  0.94591400  0.20135200  0.28907100  1
  O  O7  1  0.05408600  0.70135200  0.71092900  1
  O  O8  1  0.94591400  0.20135200  0.71092900  1
  O  O9  1  0.05408600  0.70135200  0.28907100  1
  O  O10  1  0.55277200  0.80077200  0.19092800  1
  O  O11  1  0.44722800  0.30077200  0.80907200  1
loop_
_geom_bond_atom_site_label_1
_geom_bond_atom_site_label_2
_geom_bond_distance
_geom_bond_site_symmetry_2
La0 O9 2.417197 1_555
La0 O7 2.417197 1_555
La0 O3 2.420027 1_555
La0 O2 2.501856 1_555
La0 O6 2.681123 1_455
La0 O8 2.681123 1_455
La0 O11 2.806481 1_555
La0 O5 2.806481 1_555
La1 O6 2.417197 1_565
La1 O8 2.417197 1_565
La1 O2 2.420027 1_565
La1 O3 2.501856 1_555
La1 O9 2.681123 1_655
La1 O7 2.681123 1_655
La1 O4 2.806481 1_555
La1 O10 2.806481 1_555
O0 Ti1 2.022908 1_565
O0 Ti3 2.022908 1_564
O0 Y1 2.278916 1_465
O0 Y0 2.340980 1_555
O1 Ti0 2.022908 1_554
O1 Ti2 2.022908 1_555
O1 Y0 2.278916 1_655
O1 Y1 2.340980 1_555
O2 Ti3 2.048409 1_555
O2 Ti1 2.048409 1_555
O3 Ti0 2.048409 1_555
O3 Ti2 2.048409 1_555
O4 Ti3 2.062976 1_565
O4 Ti0 2.064732 1_555
O4 Y1 2.364318 1_566
O4 Y0 2.548610 1_556
O5 Ti2 2.062976 1_555
O5 Ti1 2.064732 1_555
O5 Y0 2.364318 1_555
O5 Y1 2.548610 1_555
O6 Ti1 2.045620 1_655
O6 Ti2 2.052541 1_555
O6 Y1 2.646142 1_555
O7 Ti0 2.045620 1_455
O7 Ti3 2.052541 1_565
O7 Y0 2.646142 1_556
O8 Ti3 2.045620 1_655
O8 Ti0 2.052541 1_555
O8 Y1 2.646142 1_556
O9 Ti2 2.045620 1_455
O9 Ti1 2.052541 1_565
O9 Y0 2.646142 1_555
O10 Ti1 2.062976 1_565
O10 Ti2 2.064732 1_555
O10 Y1 2.364318 1_565
O10 Y0 2.548610 1_555
O11 Ti0 2.062976 1_555
O11 Ti3 2.064732 1_555
O11 Y0 2.364318 1_556
O11 Y1 2.548610 1_556
