# generated using pymatgen
data_SrCa3Mn4O10
_symmetry_space_group_name_H-M   'P 1'
_cell_length_a   5.59259633
_cell_length_b   11.11401653
_cell_length_c   15.45063063
_cell_angle_alpha   90.24337288
_cell_angle_beta   90.11258514
_cell_angle_gamma   91.31603801
_symmetry_Int_Tables_number   1
_chemical_formula_structural   SrCa3Mn4O10
_chemical_formula_sum   'Sr4 Ca12 Mn16 O40'
_cell_volume   960.08858458
_cell_formula_units_Z   4
loop_
 _symmetry_equiv_pos_site_id
 _symmetry_equiv_pos_as_xyz
  1  'x, y, z'
loop_
 _atom_site_type_symbol
 _atom_site_label
 _atom_site_symmetry_multiplicity
 _atom_site_fract_x
 _atom_site_fract_y
 _atom_site_fract_z
 _atom_site_occupancy
  Sr  Sr0  1  0.00867500  0.00222000  0.11335800  1
  Sr  Sr1  1  0.98148700  0.51410300  0.37705600  1
  Sr  Sr2  1  0.51208500  0.23992100  0.38844700  1
  Sr  Sr3  1  0.51082200  0.23173400  0.11749900  1
  Ca  Ca0  1  0.02380800  0.99429500  0.61354400  1
  Ca  Ca1  1  0.95809500  0.54357700  0.12928600  1
  Ca  Ca2  1  0.96573100  0.54508700  0.62898100  1
  Ca  Ca3  1  0.97900200  0.51890500  0.87164900  1
  Ca  Ca4  1  0.00984300  0.96026200  0.38457000  1
  Ca  Ca5  1  0.01011700  0.95817700  0.88273400  1
  Ca  Ca6  1  0.54495800  0.23238100  0.89072300  1
  Ca  Ca7  1  0.52333500  0.76680900  0.37684100  1
  Ca  Ca8  1  0.51744600  0.75957900  0.87383900  1
  Ca  Ca9  1  0.48368500  0.22483600  0.62120900  1
  Ca  Ca10  1  0.50043500  0.77807200  0.12142500  1
  Ca  Ca11  1  0.50691300  0.78048500  0.62184100  1
  Mn  Mn0  1  0.51078500  0.99219600  0.99354700  1
  Mn  Mn1  1  0.51206300  0.99581300  0.49805600  1
  Mn  Mn2  1  0.46664400  0.50852100  0.98519500  1
  Mn  Mn3  1  0.46638400  0.50540900  0.49835800  1
  Mn  Mn4  1  0.04698500  0.24727500  0.99419400  1
  Mn  Mn5  1  0.03162900  0.23833300  0.50599200  1
  Mn  Mn6  1  0.99266000  0.74267900  0.00098900  1
  Mn  Mn7  1  0.99978300  0.74784900  0.50394000  1
  Mn  Mn8  1  0.94104300  0.26839800  0.24752500  1
  Mn  Mn9  1  0.91438100  0.27050800  0.74236300  1
  Mn  Mn10  1  0.00806400  0.75566700  0.24800700  1
  Mn  Mn11  1  0.00730100  0.75671400  0.74714700  1
  Mn  Mn12  1  0.52672700  0.99166500  0.25278000  1
  Mn  Mn13  1  0.52382400  0.99412900  0.75200000  1
  Mn  Mn14  1  0.50260200  0.51872200  0.25259800  1
  Mn  Mn15  1  0.50233700  0.51505600  0.74483100  1
  O  O0  1  0.19542200  0.59242400  0.24991100  1
  O  O1  1  0.18567400  0.58866700  0.75362400  1
  O  O2  1  0.71681900  0.40470200  0.20458100  1
  O  O3  1  0.70318200  0.39999000  0.68115400  1
  O  O4  1  0.82514800  0.89718000  0.24014400  1
  O  O5  1  0.83818700  0.90617100  0.73542700  1
  O  O6  1  0.66172500  0.14939000  0.25183200  1
  O  O7  1  0.60975200  0.16208000  0.75360700  1
  O  O8  1  0.70970000  0.65727400  0.22843100  1
  O  O9  1  0.71349200  0.66075100  0.72505700  1
  O  O10  1  0.29586200  0.86008400  0.27108400  1
  O  O11  1  0.29982100  0.85618500  0.77144300  1
  O  O12  1  0.30189400  0.35459900  0.51886100  1
  O  O13  1  0.33976800  0.35079000  0.99761600  1
  O  O14  1  0.29327700  0.85698500  0.48476900  1
  O  O15  1  0.27059300  0.84818000  0.98185200  1
  O  O16  1  0.76142800  0.14866100  0.00162000  1
  O  O17  1  0.72859500  0.14858500  0.51168000  1
  O  O18  1  0.68951200  0.62761900  0.02623600  1
  O  O19  1  0.70560700  0.62643600  0.52162400  1
  O  O20  1  0.77292700  0.87779100  0.01200100  1
  O  O21  1  0.78530600  0.88651000  0.51684600  1
  O  O22  1  0.24150100  0.09589200  0.47631700  1
  O  O23  1  0.25581900  0.10056300  0.96959700  1
  O  O24  1  0.18801600  0.60401000  0.50199500  1
  O  O25  1  0.16600800  0.59106700  0.99667000  1
  O  O26  1  0.58961500  0.98729500  0.37767100  1
  O  O27  1  0.59446100  0.98549000  0.87315700  1
  O  O28  1  0.53077400  0.47506600  0.37556600  1
  O  O29  1  0.57104700  0.48480000  0.86993800  1
  O  O30  1  0.45977500  0.99785900  0.12666100  1
  O  O31  1  0.44503700  0.99815900  0.62694600  1
  O  O32  1  0.06899100  0.23893900  0.12798700  1
  O  O33  1  0.06961300  0.20903900  0.63379400  1
  O  O34  1  0.07317800  0.75205500  0.12377500  1
  O  O35  1  0.08272100  0.75716400  0.62687900  1
  O  O36  1  0.99288900  0.28604900  0.37852300  1
  O  O37  1  0.96838200  0.30141600  0.87316300  1
  O  O38  1  0.94351700  0.74586100  0.37666200  1
  O  O39  1  0.93277900  0.73932000  0.87450700  1
loop_
_geom_bond_atom_site_label_1
_geom_bond_atom_site_label_2
_geom_bond_distance
_geom_bond_site_symmetry_2
Ca0 O21 2.312986 1_455
Ca0 O5 2.357940 1_455
Ca0 O31 2.363833 1_555
Ca0 O33 2.413495 1_565
Ca0 O35 2.672261 1_555
Ca0 O22 2.687002 1_565
Ca0 O17 2.878560 1_465
Ca0 O14 2.941152 1_555
Ca1 O0 2.340612 1_655
Ca1 O2 2.341407 1_555
Ca1 O34 2.392383 1_655
Ca1 O18 2.394037 1_555
Ca1 O25 2.412340 1_654
Ca1 O8 2.438378 1_555
Ca2 O3 2.305047 1_555
Ca2 O1 2.326323 1_655
Ca2 O19 2.397675 1_555
Ca2 O24 2.409747 1_655
Ca2 O35 2.431997 1_655
Ca2 O9 2.433381 1_555
Ca3 O1 2.289454 1_655
Ca3 O29 2.304278 1_555
Ca3 O25 2.325656 1_655
Ca3 O37 2.416756 1_555
Ca3 O39 2.469413 1_555
Ca4 O26 2.378367 1_455
Ca4 O38 2.405675 1_455
Ca4 O22 2.417665 1_565
Ca4 O14 2.513145 1_555
Ca4 O21 2.530358 1_455
Ca4 O4 2.546041 1_455
Ca4 O10 2.636107 1_555
Ca5 O27 2.355681 1_455
Ca5 O15 2.459847 1_555
Ca5 O23 2.463423 1_565
Ca5 O39 2.463440 1_455
Ca5 O5 2.528525 1_455
Ca5 O20 2.553032 1_456
Ca5 O11 2.635421 1_555
Ca6 O7 2.287336 1_555
Ca6 O16 2.307458 1_556
Ca6 O13 2.415519 1_555
Ca6 O23 2.482000 1_555
Ca6 O37 2.488120 1_555
Ca6 O27 2.776407 1_545
Ca6 O29 2.825538 1_555
Ca7 O10 2.330206 1_555
Ca7 O14 2.343937 1_555
Ca7 O38 2.366734 1_555
Ca7 O26 2.469906 1_555
Ca7 O8 2.805397 1_555
Ca7 O19 2.927612 1_555
Ca8 O11 2.281221 1_555
Ca8 O39 2.338825 1_555
Ca8 O15 2.391284 1_555
Ca8 O27 2.537755 1_555
Ca8 O9 2.781489 1_555
Ca8 O20 2.863989 1_556
Ca8 O18 2.950676 1_556
Ca8 O29 3.075768 1_555
Ca9 O7 2.279738 1_555
Ca9 O33 2.326942 1_555
Ca9 O17 2.346978 1_555
Ca9 O12 2.386336 1_555
Ca9 O3 2.454521 1_555
Ca9 O31 2.525543 1_545
Ca10 O34 2.400670 1_555
Ca10 O8 2.447241 1_555
Ca10 O30 2.459476 1_555
Ca10 O18 2.478647 1_555
Ca10 O20 2.521407 1_555
Ca10 O15 2.638039 1_554
Ca10 O10 2.743537 1_555
Ca10 O4 2.875870 1_555
Ca11 O35 2.381987 1_555
Ca11 O9 2.393788 1_555
Ca11 O31 2.452671 1_555
Ca11 O21 2.527084 1_555
Ca11 O19 2.575911 1_555
Ca11 O14 2.586054 1_555
Ca11 O11 2.725942 1_555
Ca11 O5 2.882907 1_555
Mn0 O27 1.920513 1_555
Mn0 O23 1.923888 1_565
Mn0 O20 1.983528 1_556
Mn0 O15 2.072880 1_555
Mn0 O30 2.077828 1_556
Mn0 O16 2.211315 1_566
Mn1 O26 1.913197 1_555
Mn1 O22 1.928231 1_565
Mn1 O14 1.956924 1_555
Mn1 O21 1.995430 1_555
Mn1 O31 2.027297 1_555
Mn1 O17 2.072484 1_565
Mn2 O13 1.886708 1_555
Mn2 O29 1.894417 1_555
Mn2 O18 1.903072 1_556
Mn2 O25 1.941809 1_555
Mn3 O19 1.907816 1_555
Mn3 O12 1.921139 1_555
Mn3 O24 1.925062 1_555
Mn3 O28 1.961033 1_555
Mn4 O16 1.919945 1_456
Mn4 O13 1.979929 1_555
Mn4 O37 2.017601 1_455
Mn4 O23 2.061834 1_555
Mn4 O32 2.073195 1_556
Mn5 O17 1.948974 1_455
Mn5 O12 1.975037 1_555
Mn5 O33 2.014260 1_555
Mn5 O22 2.043365 1_555
Mn5 O36 2.054139 1_455
Mn6 O15 1.949196 1_654
Mn6 O34 1.950771 1_655
Mn6 O25 1.964164 1_654
Mn6 O20 1.969116 1_555
Mn6 O39 1.982115 1_554
Mn6 O18 2.137526 1_555
Mn7 O24 1.934357 1_655
Mn7 O35 1.956162 1_655
Mn7 O21 1.984110 1_555
Mn7 O38 1.990881 1_555
Mn7 O14 2.041236 1_655
Mn7 O19 2.122529 1_555
Mn8 O32 2.010279 1_655
Mn8 O6 2.024919 1_555
Mn8 O36 2.052035 1_555
Mn8 O2 2.097655 1_555
Mn9 O33 2.014325 1_655
Mn9 O37 2.068902 1_555
Mn9 O7 2.072075 1_555
Mn9 O3 2.108472 1_555
Mn10 O4 1.899976 1_455
Mn10 O34 1.954820 1_555
Mn10 O10 1.993218 1_555
Mn10 O8 1.995753 1_455
Mn10 O38 2.023955 1_455
Mn10 O0 2.116146 1_555
Mn11 O35 1.906296 1_555
Mn11 O5 1.939199 1_455
Mn11 O9 1.966761 1_455
Mn11 O11 1.987562 1_555
Mn11 O39 2.021393 1_455
Mn11 O1 2.140129 1_555
Mn12 O6 1.892764 1_565
Mn12 O10 1.950339 1_555
Mn12 O26 1.961759 1_555
Mn12 O30 1.985324 1_555
Mn12 O4 2.001568 1_555
Mn13 O27 1.915684 1_555
Mn13 O7 1.916806 1_565
Mn13 O11 1.981729 1_555
Mn13 O31 1.981844 1_555
Mn13 O5 2.047127 1_555
Mn14 O2 1.912268 1_555
Mn14 O0 1.920582 1_555
Mn14 O8 1.943385 1_555
Mn14 O28 1.969809 1_555
Mn15 O1 1.972473 1_555
Mn15 O3 1.981091 1_555
Mn15 O29 2.001423 1_555
Mn15 O9 2.006902 1_555
O0 Sr1 2.454439 1_455
O2 Sr3 2.589062 1_555
O4 Sr0 2.495198 1_665
O6 Sr3 2.429471 1_555
O6 Sr2 2.489122 1_555
O12 Sr2 2.668842 1_555
O13 Sr3 2.483724 1_556
O15 Sr0 3.049976 1_566
O16 Sr3 2.465268 1_555
O16 Sr0 2.767547 1_655
O17 Sr2 2.487117 1_555
O19 Sr1 3.001129 1_555
O20 Sr0 2.448041 1_665
O22 Sr2 2.571152 1_555
O23 Sr0 2.828789 1_556
O23 Sr3 3.040488 1_556
O24 Sr1 2.445565 1_455
O26 Sr2 2.855009 1_565
O28 Sr1 2.547925 1_555
O28 Sr2 2.621521 1_555
O30 Sr0 2.532367 1_565
O30 Sr3 2.612863 1_565
O30 Sr0 3.076337 1_665
O32 Sr3 2.479713 1_555
O32 Sr0 2.653373 1_555
O34 Sr0 2.817084 1_565
O36 Sr1 2.537058 1_555
O36 Sr2 2.730516 1_555
O36 Sr2 2.963923 1_655
O38 Sr1 2.589389 1_555
