# generated using pymatgen
data_Mg2Si
_symmetry_space_group_name_H-M   'P 1'
_cell_length_a   4.71214500
_cell_length_b   4.71214500
_cell_length_c   6.12271100
_cell_angle_alpha   90.00000000
_cell_angle_beta   90.00000000
_cell_angle_gamma   123.51680898
_symmetry_Int_Tables_number   1
_chemical_formula_structural   Mg2Si
_chemical_formula_sum   'Mg4 Si2'
_cell_volume   113.34523933
_cell_formula_units_Z   2
loop_
 _symmetry_equiv_pos_site_id
 _symmetry_equiv_pos_as_xyz
  1  'x, y, z'
loop_
 _atom_site_type_symbol
 _atom_site_label
 _atom_site_symmetry_multiplicity
 _atom_site_fract_x
 _atom_site_fract_y
 _atom_site_fract_z
 _atom_site_occupancy
  Mg  Mg0  1  0.00000000  0.00000000  0.00000000  1
  Mg  Mg1  1  0.00000000  0.00000000  0.50000000  1
  Mg  Mg2  1  0.67880400  0.32119600  0.75000000  1
  Mg  Mg3  1  0.32119600  0.67880400  0.25000000  1
  Si  Si0  1  0.65245000  0.34755000  0.25000000  1
  Si  Si1  1  0.34755000  0.65245000  0.75000000  1
loop_
_geom_bond_atom_site_label_1
_geom_bond_atom_site_label_2
_geom_bond_distance
_geom_bond_site_symmetry_2
Mg0 Si0 2.986090 1_445
Mg0 Si1 2.986090 1_444
Mg0 Si0 2.986090 1_555
Mg0 Si1 2.986090 1_554
Mg1 Si1 2.986090 1_445
Mg1 Si0 2.986090 1_445
Mg1 Si1 2.986090 1_555
Mg1 Si0 2.986090 1_555
Mg2 Si1 2.633354 1_545
Mg2 Si1 2.633354 1_655
Mg2 Si1 2.750211 1_555
Mg2 Si0 3.069165 1_556
Mg2 Si0 3.069165 1_555
Mg3 Si0 2.633354 1_455
Mg3 Si0 2.633354 1_565
Mg3 Si0 2.750211 1_555
Mg3 Si1 3.069165 1_555
Mg3 Si1 3.069165 1_554
