# generated using pymatgen
data_Sm3IrO7
_symmetry_space_group_name_H-M   'P 1'
_cell_length_a   6.53241273
_cell_length_b   6.53244972
_cell_length_c   7.46619853
_cell_angle_alpha   90.00120812
_cell_angle_beta   90.00146923
_cell_angle_gamma   111.32920745
_symmetry_Int_Tables_number   1
_chemical_formula_structural   Sm3IrO7
_chemical_formula_sum   'Sm6 Ir2 O14'
_cell_volume   296.78015088
_cell_formula_units_Z   2
loop_
 _symmetry_equiv_pos_site_id
 _symmetry_equiv_pos_as_xyz
  1  'x, y, z'
loop_
 _atom_site_type_symbol
 _atom_site_label
 _atom_site_symmetry_multiplicity
 _atom_site_fract_x
 _atom_site_fract_y
 _atom_site_fract_z
 _atom_site_occupancy
  Sm  Sm0  1  0.00003257  0.00003220  -0.00000170  1
  Sm  Sm1  1  0.00003084  0.00003002  0.49999982  1
  Sm  Sm2  1  0.47572916  0.92079780  0.74997999  1
  Sm  Sm3  1  0.52427314  0.07921392  0.25001877  1
  Sm  Sm4  1  0.92079931  0.47572681  0.75000871  1
  Sm  Sm5  1  0.07921099  0.52427549  0.24998959  1
  Ir  Ir0  1  0.49999554  0.49999498  0.00000811  1
  Ir  Ir1  1  0.49999463  0.49999195  0.49998097  1
  O  O0  1  0.59545000  0.59544936  0.75000637  1
  O  O1  1  0.40455167  0.40455300  0.25000715  1
  O  O2  1  0.84424787  0.10801012  0.74998841  1
  O  O3  1  0.15575389  0.89199384  0.25000959  1
  O  O4  1  0.10801070  0.84424866  0.74998780  1
  O  O5  1  0.89199256  0.15575112  0.25001720  1
  O  O6  1  0.44073894  0.18536506  0.96040986  1
  O  O7  1  0.55923967  0.81466341  0.46039205  1
  O  O8  1  0.18532190  0.44072832  0.96041235  1
  O  O9  1  0.81461731  0.55922927  0.46038874  1
  O  O10  1  0.44073658  0.18532986  0.53960610  1
  O  O11  1  0.55923376  0.81461982  0.03959247  1
  O  O12  1  0.81466541  0.55924396  0.03958863  1
  O  O13  1  0.18537157  0.44075000  0.53961001  1
loop_
_geom_bond_atom_site_label_1
_geom_bond_atom_site_label_2
_geom_bond_distance
_geom_bond_site_symmetry_2
Ir0 O11 1.970441 1_555
Ir0 O6 1.970467 1_554
Ir0 O12 1.970697 1_555
Ir0 O8 1.970717 1_554
Ir0 O1 1.994682 1_555
Ir0 O0 1.994730 1_554
Ir1 O9 1.970443 1_555
Ir1 O13 1.970481 1_555
Ir1 O10 1.970715 1_555
Ir1 O7 1.970750 1_555
Ir1 O1 1.994446 1_555
Ir1 O0 1.994846 1_555
O0 Sm2 2.517489 1_555
O0 Sm4 2.517493 1_555
O1 Sm3 2.517433 1_555
O1 Sm5 2.517438 1_555
O2 Sm4 2.268543 1_555
O2 Sm2 2.269172 1_545
O2 Sm1 2.353519 1_655
O2 Sm0 2.353627 1_656
O3 Sm5 2.268563 1_555
O3 Sm3 2.269183 1_565
O3 Sm1 2.353484 1_565
O3 Sm0 2.353591 1_565
O4 Sm2 2.268543 1_555
O4 Sm4 2.269200 1_455
O4 Sm1 2.353504 1_565
O4 Sm0 2.353634 1_566
O5 Sm3 2.268562 1_555
O5 Sm5 2.269221 1_655
O5 Sm1 2.353433 1_655
O5 Sm0 2.353640 1_655
O6 Sm3 2.393599 1_556
O6 Sm2 2.407246 1_545
O6 Sm0 2.702894 1_556
O7 Sm2 2.393364 1_555
O7 Sm3 2.406872 1_565
O7 Sm1 2.703401 1_665
O8 Sm5 2.393320 1_556
O8 Sm4 2.406905 1_455
O8 Sm0 2.702828 1_556
O9 Sm4 2.393673 1_555
O9 Sm5 2.407180 1_655
O9 Sm1 2.703494 1_665
O10 Sm3 2.393371 1_555
O10 Sm2 2.406845 1_545
O10 Sm1 2.702870 1_555
O11 Sm2 2.393624 1_554
O11 Sm3 2.407291 1_565
O11 Sm0 2.703475 1_665
O12 Sm4 2.393329 1_554
O12 Sm5 2.406935 1_655
O12 Sm0 2.703405 1_665
O13 Sm5 2.393674 1_555
O13 Sm4 2.407126 1_455
O13 Sm1 2.702988 1_555
