# generated using pymatgen
data_Mn12Pt4N
_symmetry_space_group_name_H-M   'P 1'
_cell_length_a   5.26374100
_cell_length_b   4.19785000
_cell_length_c   9.30672529
_cell_angle_alpha   89.84000151
_cell_angle_beta   90.00000000
_cell_angle_gamma   90.00000000
_symmetry_Int_Tables_number   1
_chemical_formula_structural   Mn12Pt4N
_chemical_formula_sum   'Mn12 Pt4 N1'
_cell_volume   205.64427775
_cell_formula_units_Z   1
loop_
 _symmetry_equiv_pos_site_id
 _symmetry_equiv_pos_as_xyz
  1  'x, y, z'
loop_
 _atom_site_type_symbol
 _atom_site_label
 _atom_site_symmetry_multiplicity
 _atom_site_fract_x
 _atom_site_fract_y
 _atom_site_fract_z
 _atom_site_occupancy
  Mn  Mn0  1  0.00000000  0.76469100  0.17057100  1
  Mn  Mn1  1  0.50000000  0.75248900  0.64539400  1
  Mn  Mn2  1  0.72722600  0.75206800  0.42757900  1
  Mn  Mn3  1  0.25777800  0.75972800  0.91396700  1
  Mn  Mn4  1  0.27277400  0.75206800  0.42757900  1
  Mn  Mn5  1  0.74222200  0.75972800  0.91396700  1
  Mn  Mn6  1  0.50000000  0.24751100  0.35460600  1
  Mn  Mn7  1  0.00000000  0.23530900  0.82942900  1
  Mn  Mn8  1  0.74222200  0.24027200  0.08603300  1
  Mn  Mn9  1  0.27277400  0.24793200  0.57242100  1
  Mn  Mn10  1  0.25777800  0.24027200  0.08603300  1
  Mn  Mn11  1  0.72722600  0.24793200  0.57242100  1
  Pt  Pt0  1  0.50000000  0.74624000  0.17743700  1
  Pt  Pt1  1  0.00000000  0.74761000  0.65845600  1
  Pt  Pt2  1  0.00000000  0.25239000  0.34154400  1
  Pt  Pt3  1  0.50000000  0.25376000  0.82256200  1
  N  N0  1  0.00000000  0.50000000  0.00000000  1
loop_
_geom_bond_atom_site_label_1
_geom_bond_atom_site_label_2
_geom_bond_distance
_geom_bond_site_symmetry_2
Mn0 N0 1.940229 1_555
Mn0 Pt2 2.596438 1_565
Mn0 Pt0 2.633780 1_455
Mn0 Pt0 2.633780 1_555
Mn0 Pt2 2.671652 1_555
Mn0 Mn4 2.790135 1_555
Mn0 Mn2 2.790135 1_455
Mn1 Mn2 2.353698 1_555
Mn1 Mn4 2.353698 1_555
Mn1 Mn11 2.491876 1_565
Mn1 Mn9 2.491876 1_565
Mn1 Mn11 2.527049 1_555
Mn1 Mn9 2.527049 1_555
Mn1 Pt1 2.634753 1_655
Mn1 Pt1 2.634753 1_555
Mn1 Pt3 2.661307 1_555
Mn1 Pt3 2.676940 1_565
Mn1 Mn5 2.806178 1_555
Mn1 Mn3 2.806178 1_555
Mn2 Mn4 2.392118 1_555
Mn2 Mn6 2.491876 1_565
Mn2 Mn6 2.527049 1_555
Mn2 Pt1 2.584305 1_655
Mn2 Pt0 2.617455 1_555
Mn2 Pt2 2.665418 1_665
Mn2 Pt2 2.666810 1_655
Mn2 Mn4 2.871623 1_655
Mn3 N0 1.914703 1_556
Mn3 Pt3 2.576890 1_565
Mn3 Pt3 2.621191 1_555
Mn3 Pt1 2.738452 1_555
Mn3 Pt0 2.764155 1_556
Mn4 Mn9 2.483081 1_565
Mn4 Mn6 2.491876 1_565
Mn4 Mn9 2.505964 1_555
Mn4 Mn6 2.527049 1_555
Mn4 Pt1 2.584305 1_555
Mn4 Pt0 2.617455 1_555
Mn4 Pt2 2.665418 1_565
Mn4 Pt2 2.666810 1_555
Mn5 N0 1.914703 1_656
Mn5 Pt3 2.576890 1_565
Mn5 Pt3 2.621191 1_555
Mn5 Pt1 2.738452 1_655
Mn5 Pt0 2.764155 1_556
Mn6 Mn9 2.353698 1_555
Mn6 Pt2 2.634753 1_555
Mn6 Pt2 2.634753 1_655
Mn6 Pt0 2.661313 1_555
Mn6 Pt0 2.676946 1_545
Mn6 Mn8 2.806178 1_555
Mn7 N0 1.940229 1_556
Mn7 Pt1 2.596438 1_545
Mn7 Pt3 2.633780 1_455
Mn7 Pt3 2.633780 1_555
Mn7 Pt1 2.671652 1_555
Mn7 Mn9 2.790135 1_555
Mn8 N0 1.914703 1_655
Mn8 Pt0 2.576887 1_545
Mn8 Pt0 2.621188 1_555
Mn8 Pt2 2.738452 1_655
Mn8 Pt3 2.764164 1_554
Mn9 Pt2 2.584305 1_555
Mn9 Pt3 2.617447 1_555
Mn9 Pt1 2.665418 1_545
Mn9 Pt1 2.666810 1_555
Mn10 N0 1.914703 1_555
Mn10 Pt0 2.576887 1_545
Mn10 Pt0 2.621188 1_555
Mn10 Pt2 2.738452 1_555
Mn10 Pt3 2.764164 1_554
Mn10 Mn6 2.806178 1_555
Mn11 Mn6 2.353698 1_555
Mn11 Mn9 2.392118 1_555
Mn11 Mn2 2.483081 1_545
Mn11 Mn2 2.505964 1_555
Mn11 Pt2 2.584305 1_655
Mn11 Pt3 2.617447 1_555
Mn11 Pt1 2.665418 1_645
Mn11 Pt1 2.666810 1_655
Mn11 Mn7 2.790135 1_655
Mn11 Mn9 2.871623 1_655
