# generated using pymatgen
data_La2Ti3(BiO6)2
_symmetry_space_group_name_H-M   'P 1'
_cell_length_a   16.90068440
_cell_length_b   16.90008588
_cell_length_c   3.85163982
_cell_angle_alpha   83.46570732
_cell_angle_beta   83.44801663
_cell_angle_gamma   13.08627606
_symmetry_Int_Tables_number   1
_chemical_formula_structural   La2Ti3(BiO6)2
_chemical_formula_sum   'La2 Ti3 Bi2 O12'
_cell_volume   247.44219003
_cell_formula_units_Z   1
loop_
 _symmetry_equiv_pos_site_id
 _symmetry_equiv_pos_as_xyz
  1  'x, y, z'
loop_
 _atom_site_type_symbol
 _atom_site_label
 _atom_site_symmetry_multiplicity
 _atom_site_fract_x
 _atom_site_fract_y
 _atom_site_fract_z
 _atom_site_occupancy
  La  La0  1  0.56233800  0.57010600  0.43766200  1
  La  La1  1  0.42989400  0.43766200  0.57010600  1
  Ti  Ti0  1  0.00515100  0.99484900  0.99484900  1
  Ti  Ti1  1  0.87083600  0.87166500  0.12916400  1
  Ti  Ti2  1  0.12833500  0.12916400  0.87166500  1
  Bi  Bi0  1  0.71155200  0.71170500  0.28844800  1
  Bi  Bi1  1  0.28829500  0.28844800  0.71170500  1
  O  O0  1  0.88450200  0.88330600  0.61601300  1
  O  O1  1  0.38398700  0.38382100  0.11549800  1
  O  O2  1  0.11669400  0.11549800  0.38382100  1
  O  O3  1  0.61617900  0.61601300  0.88330600  1
  O  O4  1  0.94346500  0.93893500  0.05653500  1
  O  O5  1  0.06106500  0.05653500  0.93893500  1
  O  O6  1  0.74993900  0.75006100  0.75006100  1
  O  O7  1  0.24993900  0.25006100  0.25006100  1
  O  O8  1  0.81737200  0.81761400  0.18262800  1
  O  O9  1  0.18238600  0.18262800  0.81761400  1
  O  O10  1  0.04435400  0.95564600  0.48328100  1
  O  O11  1  0.51671900  0.48328100  0.95564600  1
loop_
_geom_bond_atom_site_label_1
_geom_bond_atom_site_label_2
_geom_bond_distance
_geom_bond_site_symmetry_2
La0 O3 2.531986 1_555
La0 O2 2.531986 1_565
La0 O3 2.558080 1_554
La0 O2 2.558080 1_655
La0 O5 2.699570 1_565
La0 O5 2.736805 1_655
La0 O5 2.736805 1_564
La0 O5 2.766237 1_654
La0 O11 2.813268 1_555
La0 O10 2.813268 1_555
La0 O11 3.056939 1_554
La0 O10 3.056939 1_645
La1 O0 2.531986 1_455
La1 O1 2.531986 1_556
La1 O1 2.558080 1_555
La1 O0 2.558080 1_545
La1 O4 2.699570 1_456
La1 O4 2.736805 1_546
La1 O4 2.736805 1_455
La1 O4 2.766237 1_545
La1 O10 2.813268 1_555
La1 O11 2.813268 1_555
La1 O10 3.056939 1_645
La1 O11 3.056939 1_554
Bi0 O6 2.312367 1_555
Bi0 O7 2.312367 1_565
Bi0 O7 2.312466 1_655
Bi0 O6 2.312466 1_554
Bi1 O7 2.312367 1_556
Bi1 O6 2.312367 1_455
Bi1 O6 2.312466 1_545
Bi1 O7 2.312466 1_555
O0 Ti1 1.969674 1_555
O0 Ti1 1.973407 1_556
O1 Ti1 1.969674 1_545
O1 Ti1 1.973407 1_455
O2 Ti2 1.969674 1_554
O2 Ti2 1.973407 1_555
O3 Ti2 1.969674 1_655
O3 Ti2 1.973407 1_565
O4 Ti0 1.961571 1_654
O4 Ti1 2.333490 1_555
O5 Ti0 1.961571 1_545
O5 Ti2 2.333490 1_555
O8 Ti1 1.793296 1_555
O9 Ti2 1.793296 1_555
O10 Ti0 1.887519 1_554
O10 Ti0 1.975948 1_555
O11 Ti0 1.887519 1_645
O11 Ti0 1.975948 1_555
