# generated using pymatgen
data_Ti2NbNi9
_symmetry_space_group_name_H-M   'P 1'
_cell_length_a   5.11833377
_cell_length_b   5.11833377
_cell_length_c   25.29324900
_cell_angle_alpha   90.00000000
_cell_angle_beta   90.00000000
_cell_angle_gamma   119.99999699
_symmetry_Int_Tables_number   1
_chemical_formula_structural   Ti2NbNi9
_chemical_formula_sum   'Ti8 Nb4 Ni36'
_cell_volume   573.84218311
_cell_formula_units_Z   4
loop_
 _symmetry_equiv_pos_site_id
 _symmetry_equiv_pos_as_xyz
  1  'x, y, z'
loop_
 _atom_site_type_symbol
 _atom_site_label
 _atom_site_symmetry_multiplicity
 _atom_site_fract_x
 _atom_site_fract_y
 _atom_site_fract_z
 _atom_site_occupancy
  Ti  Ti0  1  0.00000000  0.00000000  0.66642100  1
  Ti  Ti1  1  0.00000000  0.00000000  0.33357900  1
  Ti  Ti2  1  0.66666700  0.33333300  0.91642200  1
  Ti  Ti3  1  0.66666700  0.33333300  0.58375100  1
  Ti  Ti4  1  0.66666700  0.33333300  0.25063000  1
  Ti  Ti5  1  0.66666700  0.33333300  0.08357800  1
  Ti  Ti6  1  0.66666700  0.33333300  0.74937000  1
  Ti  Ti7  1  0.66666700  0.33333300  0.41624900  1
  Nb  Nb0  1  0.33333300  0.66666700  0.83182300  1
  Nb  Nb1  1  0.33333300  0.66666700  0.50000000  1
  Nb  Nb2  1  0.33333300  0.66666700  0.16817700  1
  Nb  Nb3  1  0.00000000  0.00000000  0.00000000  1
  Ni  Ni0  1  0.83749200  0.16250800  0.83333800  1
  Ni  Ni1  1  0.83772000  0.16228000  0.50000000  1
  Ni  Ni2  1  0.83749200  0.16250800  0.16666200  1
  Ni  Ni3  1  0.83749200  0.67498300  0.83333800  1
  Ni  Ni4  1  0.83772000  0.67543900  0.50000000  1
  Ni  Ni5  1  0.83749200  0.67498300  0.16666200  1
  Ni  Ni6  1  0.32501700  0.16250800  0.83333800  1
  Ni  Ni7  1  0.32456100  0.16228000  0.50000000  1
  Ni  Ni8  1  0.32501700  0.16250800  0.16666200  1
  Ni  Ni9  1  0.49604000  0.50396000  0.00000000  1
  Ni  Ni10  1  0.49554200  0.50445800  0.66662300  1
  Ni  Ni11  1  0.49554200  0.50445800  0.33337700  1
  Ni  Ni12  1  0.49604000  0.99208100  0.00000000  1
  Ni  Ni13  1  0.49554200  0.99108500  0.66662300  1
  Ni  Ni14  1  0.49554200  0.99108500  0.33337700  1
  Ni  Ni15  1  0.00791900  0.50396000  0.00000000  1
  Ni  Ni16  1  0.00891500  0.50445800  0.66662300  1
  Ni  Ni17  1  0.00891500  0.50445800  0.33337700  1
  Ni  Ni18  1  0.66622100  0.83311100  0.91660800  1
  Ni  Ni19  1  0.66813400  0.83406700  0.58406100  1
  Ni  Ni20  1  0.66853200  0.83426600  0.25083900  1
  Ni  Ni21  1  0.16688900  0.83311100  0.91660800  1
  Ni  Ni22  1  0.16593300  0.83406700  0.58406100  1
  Ni  Ni23  1  0.16573400  0.83426600  0.25083900  1
  Ni  Ni24  1  0.16688900  0.33377900  0.91660800  1
  Ni  Ni25  1  0.16593300  0.33186600  0.58406100  1
  Ni  Ni26  1  0.16573400  0.33146800  0.25083900  1
  Ni  Ni27  1  0.66622100  0.83311100  0.08339200  1
  Ni  Ni28  1  0.66853200  0.83426600  0.74916100  1
  Ni  Ni29  1  0.66813400  0.83406700  0.41593900  1
  Ni  Ni30  1  0.16688900  0.83311100  0.08339200  1
  Ni  Ni31  1  0.16573400  0.83426600  0.74916100  1
  Ni  Ni32  1  0.16593300  0.83406700  0.41593900  1
  Ni  Ni33  1  0.16573400  0.33146800  0.74916100  1
  Ni  Ni34  1  0.16593300  0.33186600  0.41593900  1
  Ni  Ni35  1  0.16688900  0.33377900  0.08339200  1
loop_
_geom_bond_atom_site_label_1
_geom_bond_atom_site_label_2
_geom_bond_distance
_geom_bond_site_symmetry_2
Nb0 Ni3 2.559714 1_455
Nb0 Ni6 2.559714 1_565
Nb0 Ni0 2.559719 1_455
Nb0 Ni0 2.559719 1_565
Nb0 Ni6 2.559724 1_555
Nb0 Ni3 2.559724 1_555
Nb0 Ni31 2.564958 1_555
Nb0 Ni33 2.564961 1_555
Nb0 Ni28 2.564961 1_555
Nb0 Ni21 2.603097 1_555
Nb0 Ni18 2.603097 1_555
Nb0 Ni24 2.603097 1_555
Nb1 Ni7 2.559457 1_565
Nb1 Ni4 2.559457 1_455
Nb1 Ni1 2.559463 1_455
Nb1 Ni1 2.559463 1_565
Nb1 Ni7 2.559467 1_555
Nb1 Ni4 2.559467 1_555
Nb1 Ni32 2.592873 1_555
Nb1 Ni22 2.592873 1_555
Nb1 Ni29 2.592875 1_555
Nb1 Ni34 2.592875 1_555
Nb1 Ni25 2.592875 1_555
Nb1 Ni19 2.592875 1_555
Nb2 Ni5 2.559714 1_455
Nb2 Ni8 2.559714 1_565
Nb2 Ni2 2.559719 1_455
Nb2 Ni2 2.559719 1_565
Nb2 Ni5 2.559724 1_555
Nb2 Ni8 2.559724 1_555
Nb2 Ni23 2.564958 1_555
Nb2 Ni20 2.564961 1_555
Nb2 Ni26 2.564961 1_555
Nb2 Ni30 2.603097 1_555
Nb2 Ni27 2.603097 1_555
Nb2 Ni35 2.603097 1_555
Nb3 Ni15 2.559405 1_545
Nb3 Ni12 2.559405 1_545
Nb3 Ni9 2.559408 1_555
Nb3 Ni9 2.559408 1_445
Nb3 Ni12 2.559410 1_445
Nb3 Ni15 2.559410 1_555
Nb3 Ni30 2.576411 1_545
Nb3 Ni21 2.576411 1_544
Nb3 Ni35 2.576414 1_555
Nb3 Ni27 2.576414 1_445
Nb3 Ni18 2.576414 1_444
Nb3 Ni24 2.576414 1_554
Ni0 Ni6 2.495316 1_655
Ni0 Ni3 2.495316 1_545
Ni0 Ni18 2.562993 1_545
Ni0 Ni24 2.562993 1_655
Ni0 Ni28 2.578886 1_545
Ni0 Ni33 2.578886 1_655
Ni0 Ti2 2.590282 1_555
Ni0 Ti6 2.608454 1_555
Ni0 Ni6 2.623018 1_555
Ni0 Ni3 2.623018 1_555
Ni1 Ni4 2.491815 1_545
Ni1 Ni7 2.491815 1_655
Ni1 Ni34 2.576425 1_655
Ni1 Ni29 2.576425 1_545
Ni1 Ni25 2.576425 1_655
Ni1 Ni19 2.576425 1_545
Ni1 Ti3 2.605163 1_555
Ni1 Ti7 2.605163 1_555
Ni1 Ni7 2.626519 1_555
Ni1 Ni4 2.626519 1_555
Ni2 Ni8 2.495316 1_655
Ni2 Ni5 2.495316 1_545
Ni2 Ni27 2.562993 1_545
Ni2 Ni35 2.562993 1_655
Ni2 Ni20 2.578886 1_545
Ni2 Ni26 2.578886 1_655
Ni2 Ti5 2.590282 1_555
Ni2 Ti4 2.608454 1_555
Ni2 Ni8 2.623018 1_555
Ni2 Ni5 2.623018 1_555
Ni3 Ni6 2.495316 1_665
Ni3 Ni31 2.578886 1_655
Ni3 Ti2 2.590282 1_555
Ni3 Ti6 2.608454 1_555
Ni3 Ni6 2.623018 1_555
Ni4 Ni7 2.491815 1_665
Ni4 Ti3 2.605164 1_555
Ni4 Ti7 2.605164 1_555
Ni4 Ni7 2.626519 1_555
Ni5 Ni8 2.495316 1_665
Ni5 Ti5 2.590282 1_555
Ni5 Ti4 2.608454 1_555
Ni5 Ni8 2.623018 1_555
Ni6 Ti2 2.590282 1_555
Ni6 Ti6 2.608454 1_555
Ni7 Ti7 2.605164 1_555
Ni7 Ti3 2.605164 1_555
Ni8 Ti5 2.590282 1_555
Ni8 Ti4 2.608454 1_555
Ni9 Ti5 2.599407 1_555
Ni9 Ti2 2.599407 1_554
Ni10 Ni16 2.490719 1_555
Ni10 Ni13 2.490719 1_555
Ni10 Ni25 2.548926 1_555
Ni10 Ni19 2.548926 1_555
Ni10 Ni33 2.548959 1_555
Ni10 Ni28 2.548959 1_555
Ni10 Ti0 2.559477 1_665
Ni10 Ti0 2.559477 1_555
Ni10 Ti6 2.584931 1_555
Ni10 Ti3 2.587492 1_555
Ni10 Ni13 2.627614 1_545
Ni10 Ni16 2.627614 1_655
Ni11 Ni17 2.490719 1_555
Ni11 Ni14 2.490719 1_555
Ni11 Ni34 2.548926 1_555
Ni11 Ni29 2.548926 1_555
Ni11 Ni26 2.548959 1_555
Ni11 Ni20 2.548959 1_555
Ni11 Ti1 2.559477 1_555
Ni11 Ti1 2.559477 1_665
Ni11 Ti4 2.584931 1_555
Ni11 Ti7 2.587492 1_555
Ni11 Ni14 2.627614 1_545
Ni11 Ni17 2.627614 1_655
Ni12 Ni9 2.498366 1_555
Ni12 Ni15 2.498366 1_555
Ni12 Ni27 2.564849 1_555
Ni12 Ni18 2.564849 1_554
Ni12 Ni30 2.564849 1_555
Ni12 Ni21 2.564849 1_554
Ni12 Ti5 2.599402 1_565
Ni12 Ti2 2.599402 1_564
Ni12 Ni9 2.619968 1_565
Ni12 Ni15 2.619968 1_665
Ni13 Ni16 2.490720 1_555
Ni13 Ni22 2.548926 1_555
Ni13 Ni19 2.548929 1_555
Ni13 Ni31 2.548959 1_555
Ni13 Ni28 2.548961 1_555
Ni13 Ti0 2.559474 1_565
Ni13 Ti0 2.559480 1_665
Ni13 Ti6 2.584926 1_565
Ni13 Ti3 2.587487 1_565
Ni13 Ni16 2.627614 1_665
Ni14 Ni17 2.490720 1_555
Ni14 Ni32 2.548926 1_555
Ni14 Ni29 2.548929 1_555
Ni14 Ni23 2.548959 1_555
Ni14 Ni20 2.548961 1_555
Ni14 Ti1 2.559474 1_565
Ni14 Ti1 2.559480 1_665
Ni14 Ti4 2.584926 1_565
Ni14 Ti7 2.587487 1_565
Ni14 Ni17 2.627614 1_665
Ni15 Ni9 2.498366 1_555
Ni15 Ni35 2.564849 1_555
Ni15 Ni24 2.564849 1_554
Ni15 Ni30 2.564849 1_555
Ni15 Ni21 2.564849 1_554
Ni15 Ti5 2.599402 1_455
Ni15 Ti2 2.599402 1_454
Ni15 Ni9 2.619968 1_455
Ni16 Ni22 2.548926 1_555
Ni16 Ni25 2.548929 1_555
Ni16 Ni31 2.548959 1_555
Ni16 Ni33 2.548961 1_555
Ni16 Ti0 2.559474 1_565
Ni16 Ti0 2.559480 1_555
Ni16 Ti6 2.584926 1_455
Ni16 Ti3 2.587487 1_455
Ni17 Ni32 2.548926 1_555
Ni17 Ni34 2.548929 1_555
Ni17 Ni23 2.548959 1_555
Ni17 Ni26 2.548961 1_555
Ni17 Ti1 2.559474 1_565
Ni17 Ti1 2.559480 1_555
Ni17 Ti4 2.584926 1_455
Ni17 Ti7 2.587487 1_455
Ni18 Ni21 2.555748 1_555
Ni18 Ni24 2.555748 1_555
Ni18 Ti2 2.559167 1_565
Ni18 Ti2 2.559177 1_555
Ni18 Ni21 2.562586 1_655
Ni18 Ni24 2.562586 1_665
Ni18 Ni3 2.562998 1_555
Ni18 Ni9 2.564849 1_556
Ni19 Ni22 2.547901 1_655
Ni19 Ni25 2.547902 1_665
Ni19 Ti0 2.550187 1_665
Ni19 Ti3 2.559185 1_565
Ni19 Ti3 2.559190 1_555
Ni19 Ni22 2.570432 1_555
Ni19 Ni25 2.570432 1_555
Ni19 Ni4 2.576428 1_555
Ni20 Ni23 2.544846 1_655
Ni20 Ni26 2.544846 1_665
Ni20 Ti1 2.557031 1_665
Ni20 Ti4 2.559183 1_565
Ni20 Ti4 2.559188 1_555
Ni20 Ni23 2.573488 1_555
Ni20 Ni26 2.573488 1_555
Ni20 Ni5 2.578889 1_555
Ni21 Ni24 2.555748 1_555
Ni21 Ti2 2.559172 1_455
Ni21 Ti2 2.559172 1_565
Ni21 Ni24 2.562586 1_565
Ni21 Ni3 2.562993 1_455
Ni21 Ni6 2.562993 1_565
Ni22 Ni25 2.547901 1_565
Ni22 Ti0 2.550187 1_565
Ni22 Ti3 2.559187 1_455
Ni22 Ti3 2.559187 1_565
Ni22 Ni25 2.570432 1_555
Ni22 Ni4 2.576425 1_455
Ni22 Ni7 2.576425 1_565
Ni23 Ni26 2.544846 1_565
Ni23 Ti1 2.557031 1_565
Ni23 Ti4 2.559186 1_455
Ni23 Ti4 2.559186 1_565
Ni23 Ni26 2.573488 1_555
Ni23 Ni5 2.578886 1_455
Ni23 Ni8 2.578886 1_565
Ni24 Ti2 2.559167 1_455
Ni24 Ti2 2.559177 1_555
Ni24 Ni6 2.562998 1_555
Ni24 Ni9 2.564849 1_556
Ni25 Ti0 2.550187 1_555
Ni25 Ti3 2.559185 1_455
Ni25 Ti3 2.559190 1_555
Ni25 Ni7 2.576428 1_555
Ni26 Ti1 2.557031 1_555
Ni26 Ti4 2.559183 1_455
Ni26 Ti4 2.559188 1_555
Ni26 Ni8 2.578889 1_555
Ni27 Ni30 2.555748 1_555
Ni27 Ni35 2.555748 1_555
Ni27 Ti5 2.559167 1_565
Ni27 Ti5 2.559177 1_555
Ni27 Ni30 2.562586 1_655
Ni27 Ni35 2.562586 1_665
Ni27 Ni5 2.562998 1_555
Ni27 Ni9 2.564849 1_555
Ni28 Ni31 2.544846 1_655
Ni28 Ni33 2.544846 1_665
Ni28 Ti0 2.557031 1_665
Ni28 Ti6 2.559183 1_565
Ni28 Ti6 2.559188 1_555
Ni28 Ni31 2.573488 1_555
Ni28 Ni33 2.573488 1_555
Ni28 Ni3 2.578889 1_555
Ni29 Ni32 2.547901 1_655
Ni29 Ni34 2.547902 1_665
Ni29 Ti1 2.550187 1_665
Ni29 Ti7 2.559185 1_565
Ni29 Ti7 2.559190 1_555
Ni29 Ni32 2.570432 1_555
Ni29 Ni34 2.570432 1_555
Ni29 Ni4 2.576428 1_555
Ni30 Ni35 2.555748 1_555
Ni30 Ti5 2.559172 1_455
Ni30 Ti5 2.559172 1_565
Ni30 Ni35 2.562586 1_565
Ni30 Ni5 2.562993 1_455
Ni30 Ni8 2.562993 1_565
Ni31 Ni33 2.544846 1_565
Ni31 Ti0 2.557031 1_565
Ni31 Ti6 2.559186 1_455
Ni31 Ti6 2.559186 1_565
Ni31 Ni33 2.573488 1_555
Ni31 Ni6 2.578886 1_565
Ni32 Ni34 2.547901 1_565
Ni32 Ti1 2.550187 1_565
Ni32 Ti7 2.559187 1_455
Ni32 Ti7 2.559187 1_565
Ni32 Ni34 2.570432 1_555
Ni32 Ni7 2.576425 1_565
Ni32 Ni4 2.576425 1_455
Ni33 Ti0 2.557031 1_555
Ni33 Ti6 2.559183 1_455
Ni33 Ti6 2.559188 1_555
Ni33 Ni6 2.578889 1_555
Ni34 Ti1 2.550187 1_555
Ni34 Ti7 2.559185 1_455
Ni34 Ti7 2.559190 1_555
Ni34 Ni7 2.576428 1_555
Ni35 Ti5 2.559167 1_455
Ni35 Ti5 2.559177 1_555
Ni35 Ni8 2.562998 1_555
Ni35 Ni9 2.564849 1_555
