# generated using pymatgen
data_NpRu2
_symmetry_space_group_name_H-M   'P 1'
_cell_length_a   5.23064988
_cell_length_b   5.23064988
_cell_length_c   5.23064988
_cell_angle_alpha   60.00000000
_cell_angle_beta   60.00000000
_cell_angle_gamma   60.00000000
_symmetry_Int_Tables_number   1
_chemical_formula_structural   NpRu2
_chemical_formula_sum   'Np2 Ru4'
_cell_volume   101.19334570
_cell_formula_units_Z   2
loop_
 _symmetry_equiv_pos_site_id
 _symmetry_equiv_pos_as_xyz
  1  'x, y, z'
loop_
 _atom_site_type_symbol
 _atom_site_label
 _atom_site_symmetry_multiplicity
 _atom_site_fract_x
 _atom_site_fract_y
 _atom_site_fract_z
 _atom_site_occupancy
  Np  Np0  1  0.50000000  0.50000000  0.50000000  1
  Np  Np1  1  0.75000000  0.75000000  0.75000000  1
  Ru  Ru0  1  0.12500000  0.12500000  0.12500000  1
  Ru  Ru1  1  0.62500000  0.12500000  0.12500000  1
  Ru  Ru2  1  0.12500000  0.62500000  0.12500000  1
  Ru  Ru3  1  0.12500000  0.12500000  0.62500000  1
loop_
_geom_bond_atom_site_label_1
_geom_bond_atom_site_label_2
_geom_bond_distance
_geom_bond_site_symmetry_2
Np0 Ru1 3.066740 1_556
Np0 Ru1 3.066740 1_565
Np0 Ru3 3.066740 1_555
Np0 Ru2 3.066740 1_556
Np0 Ru0 3.066740 1_556
Np0 Ru2 3.066740 1_555
Np0 Ru0 3.066740 1_565
Np0 Ru3 3.066740 1_565
Np0 Ru2 3.066740 1_655
Np0 Ru3 3.066740 1_655
Np0 Ru0 3.066740 1_655
Np0 Ru1 3.066740 1_555
Np0 Np1 3.203106 1_455
Np0 Np1 3.203106 1_554
Np0 Np1 3.203106 1_545
Np0 Np1 3.203106 1_555
Np1 Ru1 3.066740 1_556
Np1 Ru0 3.066740 1_656
Np1 Ru2 3.066740 1_556
Np1 Ru1 3.066740 1_565
Np1 Ru2 3.066740 1_656
Np1 Ru3 3.066740 1_665
Np1 Ru3 3.066740 1_655
Np1 Ru0 3.066740 1_665
Np1 Ru2 3.066740 1_655
Np1 Ru3 3.066740 1_565
Np1 Ru0 3.066740 1_566
Np1 Ru1 3.066740 1_566
Ru0 Ru1 2.615325 1_455
Ru0 Ru3 2.615325 1_555
Ru0 Ru3 2.615325 1_554
Ru0 Ru1 2.615325 1_555
Ru0 Ru2 2.615325 1_545
Ru0 Ru2 2.615325 1_555
Ru1 Ru3 2.615325 1_555
Ru1 Ru2 2.615325 1_645
Ru1 Ru3 2.615325 1_654
Ru1 Ru2 2.615325 1_555
Ru2 Ru3 2.615325 1_555
Ru2 Ru3 2.615325 1_564
