# generated using pymatgen
data_MgV3CoSn2(PO4)6
_symmetry_space_group_name_H-M   'P 1'
_cell_length_a   9.24493108
_cell_length_b   8.68545633
_cell_length_c   8.63781523
_cell_angle_alpha   60.03626350
_cell_angle_beta   62.00644363
_cell_angle_gamma   62.33765923
_symmetry_Int_Tables_number   1
_chemical_formula_structural   MgV3CoSn2(PO4)6
_chemical_formula_sum   'Mg1 V3 Co1 Sn2 P6 O24'
_cell_volume   506.06682817
_cell_formula_units_Z   1
loop_
 _symmetry_equiv_pos_site_id
 _symmetry_equiv_pos_as_xyz
  1  'x, y, z'
loop_
 _atom_site_type_symbol
 _atom_site_label
 _atom_site_symmetry_multiplicity
 _atom_site_fract_x
 _atom_site_fract_y
 _atom_site_fract_z
 _atom_site_occupancy
  Mg  Mg0  1  0.25315400  0.24682300  0.24597700  1
  V  V0  1  0.05011100  0.64886800  0.64854400  1
  V  V1  1  0.44997400  0.85208600  0.84815000  1
  V  V2  1  0.90931700  0.36386600  0.36456400  1
  Co  Co0  1  0.57855300  0.14378200  0.13782500  1
  Sn  Sn0  1  0.96169800  0.01624500  0.01498500  1
  Sn  Sn1  1  0.46690500  0.50250600  0.51784300  1
  P  P0  1  0.25283300  0.24516600  0.54640300  1
  P  P1  1  0.25752900  0.94955400  0.24523900  1
  P  P2  1  0.25151100  0.54864500  0.95311800  1
  P  P3  1  0.75304900  0.46664100  0.03407500  1
  P  P4  1  0.75327700  0.03472500  0.74854400  1
  P  P5  1  0.75160300  0.74897100  0.46460100  1
  O  O0  1  0.09771400  0.12319100  0.26567100  1
  O  O1  1  0.09108300  0.50495600  0.12924900  1
  O  O2  1  0.09249900  0.27348700  0.50346600  1
  O  O3  1  0.28260800  0.06096700  0.71235300  1
  O  O4  1  0.40381200  0.24214100  0.36211200  1
  O  O5  1  0.22943500  0.40777800  0.59215200  1
  O  O6  1  0.29686600  0.92891600  0.06005600  1
  O  O7  1  0.23170000  0.76545500  0.40896600  1
  O  O8  1  0.59004500  0.62789000  0.99956800  1
  O  O9  1  0.22673600  0.59276200  0.76768300  1
  O  O10  1  0.74751400  0.28539500  0.04121100  1
  O  O11  1  0.58398200  0.01169000  0.78139200  1
  O  O12  1  0.40720100  0.98713100  0.24194300  1
  O  O13  1  0.28306000  0.71524600  0.93629200  1
  O  O14  1  0.75378600  0.43129100  0.22942300  1
  O  O15  1  0.40202300  0.36549500  0.98602600  1
  O  O16  1  0.75579300  0.23282800  0.59416200  1
  O  O17  1  0.75177100  0.03546800  0.93081000  1
  O  O18  1  0.74091100  0.59523100  0.43285800  1
  O  O19  1  0.58709300  0.79092400  0.63100600  1
  O  O20  1  0.74862900  0.93116400  0.28753500  1
  O  O21  1  0.91860200  0.68516200  0.50415700  1
  O  O22  1  0.92200100  0.49897200  0.88640900  1
  O  O23  1  0.91562100  0.88858700  0.68782200  1
loop_
_geom_bond_atom_site_label_1
_geom_bond_atom_site_label_2
_geom_bond_distance
_geom_bond_site_symmetry_2
Mg0 O15 2.025511 1_554
Mg0 O12 2.041127 1_545
Mg0 O4 2.041130 1_555
Mg0 O0 2.065885 1_555
Mg0 O2 2.073763 1_555
Mg0 O1 2.080666 1_555
Co0 O10 2.045509 1_555
Co0 O17 2.059221 1_554
Co0 O20 2.093325 1_545
Co0 O4 2.127599 1_555
Co0 O12 2.147342 1_545
Co0 O15 2.158589 1_554
O0 P1 1.562260 1_545
O0 V2 2.267012 1_455
O1 P2 1.576706 1_554
O1 V2 2.162063 1_455
O2 P0 1.575309 1_555
O2 V2 2.157771 1_455
O3 P0 1.536483 1_555
O3 V1 2.008229 1_545
O4 P0 1.550771 1_555
O5 P0 1.546384 1_555
O5 V0 2.099499 1_555
O5 Sn1 2.394886 1_555
O6 P1 1.550107 1_555
O6 V1 1.926167 1_554
O7 P1 1.546767 1_555
O7 V0 2.085694 1_555
O7 Sn1 2.447798 1_555
O8 P3 1.538256 1_556
O8 V1 1.970751 1_555
O9 P2 1.553938 1_555
O9 V0 2.073771 1_555
O9 Sn1 2.403607 1_555
O10 P3 1.568262 1_555
O10 Sn0 2.290600 1_555
O11 P4 1.545090 1_555
O11 V1 1.978518 1_545
O12 P1 1.547591 1_555
O13 P2 1.530368 1_555
O13 V1 2.017315 1_555
O14 P3 1.559778 1_555
O14 V2 1.970789 1_555
O14 Sn1 2.727038 1_555
O15 P2 1.553005 1_555
O16 P4 1.566978 1_555
O16 V2 1.961067 1_555
O16 Sn1 2.712130 1_555
O17 P4 1.571113 1_555
O17 Sn0 2.285962 1_556
O18 P5 1.543278 1_555
O18 V2 2.055980 1_555
O18 Sn1 2.676284 1_555
O19 P5 1.571098 1_555
O19 V1 1.882869 1_555
O20 P5 1.557421 1_555
O20 Sn0 2.286722 1_565
O21 P5 1.522849 1_555
O21 V0 1.951373 1_655
O22 P3 1.524696 1_556
O22 V0 1.947961 1_655
O23 P4 1.515234 1_565
O23 V0 1.975339 1_655
