# generated using pymatgen
data_Pu4Rh
_symmetry_space_group_name_H-M   'P 1'
_cell_length_a   7.31555422
_cell_length_b   7.31555422
_cell_length_c   7.31555422
_cell_angle_alpha   60.00000000
_cell_angle_beta   60.00000000
_cell_angle_gamma   60.00000000
_symmetry_Int_Tables_number   1
_chemical_formula_structural   Pu4Rh
_chemical_formula_sum   'Pu8 Rh2'
_cell_volume   276.83863763
_cell_formula_units_Z   2
loop_
 _symmetry_equiv_pos_site_id
 _symmetry_equiv_pos_as_xyz
  1  'x, y, z'
loop_
 _atom_site_type_symbol
 _atom_site_label
 _atom_site_symmetry_multiplicity
 _atom_site_fract_x
 _atom_site_fract_y
 _atom_site_fract_z
 _atom_site_occupancy
  Pu  Pu0  1  0.39339100  0.39339100  0.39339100  1
  Pu  Pu1  1  0.39339100  0.39339100  0.81982700  1
  Pu  Pu2  1  0.39339100  0.81982700  0.39339100  1
  Pu  Pu3  1  0.85660900  0.85660900  0.43017300  1
  Pu  Pu4  1  0.85660900  0.85660900  0.85660900  1
  Pu  Pu5  1  0.81982700  0.39339100  0.39339100  1
  Pu  Pu6  1  0.85660900  0.43017300  0.85660900  1
  Pu  Pu7  1  0.43017300  0.85660900  0.85660900  1
  Rh  Rh0  1  0.00000000  0.00000000  0.00000000  1
  Rh  Rh1  1  0.25000000  0.25000000  0.25000000  1
loop_
_geom_bond_atom_site_label_1
_geom_bond_atom_site_label_2
_geom_bond_distance
_geom_bond_site_symmetry_2
Pu0 Rh1 2.569477 1_555
Pu1 Rh1 2.569477 1_556
Pu2 Rh1 2.569477 1_565
Pu3 Rh0 2.569477 1_665
Pu4 Rh0 2.569477 1_666
Pu5 Rh1 2.569477 1_655
Pu6 Rh0 2.569477 1_656
Pu7 Rh0 2.569477 1_566
