# generated using pymatgen
data_BiTeRh
_symmetry_space_group_name_H-M   'P 1'
_cell_length_a   6.56674399
_cell_length_b   6.56674399
_cell_length_c   6.56674399
_cell_angle_alpha   90.00000000
_cell_angle_beta   90.00000000
_cell_angle_gamma   90.00000000
_symmetry_Int_Tables_number   1
_chemical_formula_structural   BiTeRh
_chemical_formula_sum   'Bi4 Te4 Rh4'
_cell_volume   283.17196588
_cell_formula_units_Z   4
loop_
 _symmetry_equiv_pos_site_id
 _symmetry_equiv_pos_as_xyz
  1  'x, y, z'
loop_
 _atom_site_type_symbol
 _atom_site_label
 _atom_site_symmetry_multiplicity
 _atom_site_fract_x
 _atom_site_fract_y
 _atom_site_fract_z
 _atom_site_occupancy
  Bi  Bi0  1  0.13101336  0.86898664  0.36898664  1
  Bi  Bi1  1  0.86898664  0.36898664  0.13101336  1
  Bi  Bi2  1  0.36898664  0.13101336  0.86898664  1
  Bi  Bi3  1  0.63101336  0.63101336  0.63101336  1
  Te  Te0  1  0.87295657  0.12704343  0.62704343  1
  Te  Te1  1  0.12704343  0.62704343  0.87295657  1
  Te  Te2  1  0.62704343  0.87295657  0.12704343  1
  Te  Te3  1  0.37295657  0.37295657  0.37295657  1
  Rh  Rh0  1  0.49386274  0.50613726  0.00613726  1
  Rh  Rh1  1  0.50613726  0.00613726  0.49386274  1
  Rh  Rh2  1  0.00613726  0.49386274  0.50613726  1
  Rh  Rh3  1  0.99386274  0.99386274  0.99386274  1
loop_
_geom_bond_atom_site_label_1
_geom_bond_atom_site_label_2
_geom_bond_distance
_geom_bond_site_symmetry_2
Bi0 Rh2 2.748026 1_555
Bi0 Rh3 2.748026 1_454
Bi0 Rh1 2.748026 1_565
Bi0 Te0 2.935121 1_465
Bi1 Rh3 2.748026 1_544
Bi1 Rh0 2.748026 1_555
Bi1 Rh2 2.748026 1_655
Bi1 Te1 2.935121 1_654
Bi2 Rh1 2.748026 1_555
Bi2 Rh3 2.748026 1_445
Bi2 Rh0 2.748026 1_556
Bi2 Te2 2.935121 1_546
Bi3 Rh1 2.748026 1_565
Bi3 Rh2 2.748026 1_655
Bi3 Rh0 2.748026 1_556
Bi3 Te3 2.935121 1_555
Rh0 Te1 2.682833 1_554
Rh0 Te2 2.682833 1_555
Rh0 Te3 2.682833 1_555
Rh1 Te2 2.682833 1_545
Rh1 Te0 2.682833 1_555
Rh1 Te3 2.682833 1_555
Rh2 Te1 2.682833 1_555
Rh2 Te0 2.682833 1_455
Rh2 Te3 2.682833 1_555
Rh3 Te2 2.682833 1_556
Rh3 Te1 2.682833 1_655
Rh3 Te0 2.682833 1_565
