# generated using pymatgen
data_Y4Co16B3C
_symmetry_space_group_name_H-M   'P 1'
_cell_length_a   5.02060434
_cell_length_b   5.02060434
_cell_length_c   13.50015200
_cell_angle_alpha   90.00000000
_cell_angle_beta   90.00000000
_cell_angle_gamma   120.00000449
_symmetry_Int_Tables_number   1
_chemical_formula_structural   Y4Co16B3C
_chemical_formula_sum   'Y4 Co16 B3 C1'
_cell_volume   294.70076610
_cell_formula_units_Z   1
loop_
 _symmetry_equiv_pos_site_id
 _symmetry_equiv_pos_as_xyz
  1  'x, y, z'
loop_
 _atom_site_type_symbol
 _atom_site_label
 _atom_site_symmetry_multiplicity
 _atom_site_fract_x
 _atom_site_fract_y
 _atom_site_fract_z
 _atom_site_occupancy
  Y  Y0  1  0.33333300  0.66666700  0.74876600  1
  Y  Y1  1  0.33333300  0.66666700  0.25123400  1
  Y  Y2  1  0.33333300  0.66666700  0.50000000  1
  Y  Y3  1  0.33333300  0.66666700  0.00000000  1
  Co  Co0  1  0.33726800  0.16863400  0.60106200  1
  Co  Co1  1  0.33274200  0.16637100  0.10591800  1
  Co  Co2  1  0.83136600  0.16863400  0.60106200  1
  Co  Co3  1  0.83362900  0.16637100  0.10591800  1
  Co  Co4  1  0.83136600  0.66273200  0.60106200  1
  Co  Co5  1  0.83362900  0.66725800  0.10591800  1
  Co  Co6  1  0.33726800  0.16863400  0.39893800  1
  Co  Co7  1  0.33274200  0.16637100  0.89408200  1
  Co  Co8  1  0.83136600  0.16863400  0.39893800  1
  Co  Co9  1  0.83362900  0.16637100  0.89408200  1
  Co  Co10  1  0.83136600  0.66273200  0.39893800  1
  Co  Co11  1  0.83362900  0.66725800  0.89408200  1
  Co  Co12  1  0.66666700  0.33333300  0.75004800  1
  Co  Co13  1  0.66666700  0.33333300  0.24995200  1
  Co  Co14  1  0.00000000  0.00000000  0.74703600  1
  Co  Co15  1  0.00000000  0.00000000  0.25296400  1
  B  B0  1  0.66666700  0.33333300  0.00000000  1
  B  B1  1  0.00000000  0.00000000  0.50000000  1
  B  B2  1  0.00000000  0.00000000  0.00000000  1
  C  C0  1  0.66666700  0.33333300  0.50000000  1
loop_
_geom_bond_atom_site_label_1
_geom_bond_atom_site_label_2
_geom_bond_distance
_geom_bond_site_symmetry_2
Co0 Co14 2.456413 1_555
Co0 Co12 2.469152 1_555
Co0 Y2 2.857158 1_545
Co0 Y2 2.857163 1_555
Co1 Co13 2.426728 1_555
Co1 Co15 2.456397 1_555
Co1 Y3 2.888988 1_545
Co1 Y3 2.888992 1_555
Co2 Y2 2.857160 1_655
Co2 Y2 2.857160 1_545
Co3 Y3 2.888990 1_545
Co3 Y3 2.888990 1_655
Co4 Y2 2.857158 1_655
Co4 Y2 2.857163 1_555
Co5 Y3 2.888988 1_655
Co5 Y3 2.888992 1_555
Co6 Y2 2.857158 1_545
Co6 Y2 2.857163 1_555
Co7 Y3 2.888988 1_546
Co7 Y3 2.888992 1_556
Co8 Y2 2.857160 1_655
Co8 Y2 2.857160 1_545
Co9 Y3 2.888990 1_656
Co9 Y3 2.888990 1_546
Co10 Co15 2.456413 1_665
Co10 Co13 2.469152 1_555
Co10 Y2 2.857158 1_655
Co10 Y2 2.857163 1_555
Co11 Co12 2.426728 1_555
Co11 Co14 2.456397 1_665
Co11 Y3 2.888988 1_656
Co11 Y3 2.888992 1_556
Co12 Co9 2.426725 1_555
Co12 Co7 2.426728 1_555
Co12 Co2 2.469149 1_555
Co12 Co4 2.469152 1_555
Co12 Y0 2.898696 1_545
Co12 Y0 2.898696 1_655
Co12 Y0 2.898705 1_555
Co13 Co3 2.426725 1_555
Co13 Co5 2.426728 1_555
Co13 Co8 2.469149 1_555
Co13 Co6 2.469152 1_555
Co13 Y1 2.898696 1_545
Co13 Y1 2.898696 1_655
Co13 Y1 2.898705 1_555
Co14 Co7 2.456397 1_555
Co14 Co9 2.456397 1_455
Co14 Co4 2.456413 1_445
Co14 Co2 2.456413 1_455
Co14 Y0 2.898739 1_545
Co14 Y0 2.898743 1_555
Co14 Y0 2.898743 1_445
Co15 Co5 2.456397 1_445
Co15 Co3 2.456397 1_455
Co15 Co6 2.456413 1_555
Co15 Co8 2.456413 1_455
Co15 Y1 2.898739 1_545
Co15 Y1 2.898743 1_555
Co15 Y1 2.898743 1_445
B0 Co9 2.037800 1_554
B0 Co3 2.037800 1_555
B0 Co7 2.037803 1_554
B0 Co11 2.037803 1_554
B0 Co5 2.037803 1_555
B0 Co1 2.037803 1_555
B0 Y3 2.898644 1_545
B0 Y3 2.898644 1_655
B0 Y3 2.898653 1_555
B1 Co4 2.002967 1_445
B1 Co6 2.002967 1_555
B1 Co10 2.002967 1_445
B1 Co0 2.002967 1_555
B1 Co8 2.002967 1_455
B1 Co2 2.002967 1_455
B1 Y2 2.898644 1_545
B1 Y2 2.898649 1_555
B1 Y2 2.898649 1_445
B2 Co11 2.034142 1_444
B2 Co7 2.034142 1_554
B2 Co1 2.034142 1_555
B2 Co5 2.034142 1_445
B2 Co9 2.034142 1_454
B2 Co3 2.034142 1_455
B2 Y3 2.898644 1_545
B2 Y3 2.898649 1_555
B2 Y3 2.898649 1_445
C0 Co8 1.978052 1_555
C0 Co2 1.978052 1_555
C0 Co10 1.978055 1_555
C0 Co4 1.978055 1_555
C0 Co6 1.978055 1_555
C0 Co0 1.978055 1_555
C0 Y2 2.898644 1_545
C0 Y2 2.898644 1_655
C0 Y2 2.898653 1_555
