# generated using pymatgen
data_Cu9Sb(AsS6)2
_symmetry_space_group_name_H-M   'P 1'
_cell_length_a   16.46345262
_cell_length_b   16.46345262
_cell_length_c   16.46345262
_cell_angle_alpha   161.31292341
_cell_angle_beta   161.31292341
_cell_angle_gamma   26.54737211
_symmetry_Int_Tables_number   1
_chemical_formula_structural   Cu9Sb(AsS6)2
_chemical_formula_sum   'Cu9 Sb1 As2 S12'
_cell_volume   457.91698705
_cell_formula_units_Z   1
loop_
 _symmetry_equiv_pos_site_id
 _symmetry_equiv_pos_as_xyz
  1  'x, y, z'
loop_
 _atom_site_type_symbol
 _atom_site_label
 _atom_site_symmetry_multiplicity
 _atom_site_fract_x
 _atom_site_fract_y
 _atom_site_fract_z
 _atom_site_occupancy
  Cu  Cu0  1  0.25000000  0.75000000  0.50000000  1
  Cu  Cu1  1  0.91446800  0.41446800  0.50000000  1
  Cu  Cu2  1  0.58553200  0.08553200  0.50000000  1
  Cu  Cu3  1  0.75000000  0.25000000  0.50000000  1
  Cu  Cu4  1  0.41446800  0.91446800  0.50000000  1
  Cu  Cu5  1  0.08553200  0.58553200  0.50000000  1
  Cu  Cu6  1  0.16733400  0.16733400  0.00000000  1
  Cu  Cu7  1  0.83266600  0.83266600  0.00000000  1
  Cu  Cu8  1  0.50000000  0.50000000  0.00000000  1
  Sb  Sb0  1  0.00000000  0.00000000  0.00000000  1
  As  As0  1  0.66730500  0.66730500  0.00000000  1
  As  As1  1  0.33269500  0.33269500  0.00000000  1
  S  S0  1  0.46047900  0.95793400  0.00000000  1
  S  S1  1  0.12333000  0.62526800  0.00000000  1
  S  S2  1  0.78237600  0.30789900  0.00000000  1
  S  S3  1  0.95793400  0.46047900  0.00000000  1
  S  S4  1  0.62526800  0.12333000  0.00000000  1
  S  S5  1  0.30789900  0.78237600  0.00000000  1
  S  S6  1  0.53952100  0.53952100  0.49745500  1
  S  S7  1  0.21762400  0.21762400  0.52552200  1
  S  S8  1  0.87667000  0.87667000  0.50193800  1
  S  S9  1  0.04206600  0.04206600  0.50254500  1
  S  S10  1  0.69210100  0.69210100  0.47447800  1
  S  S11  1  0.37473200  0.37473200  0.49806200  1
loop_
_geom_bond_atom_site_label_1
_geom_bond_atom_site_label_2
_geom_bond_distance
_geom_bond_site_symmetry_2
Cu0 S9 2.298125 1_565
Cu0 S3 2.298125 1_455
Cu0 S0 2.298125 1_556
Cu0 S6 2.298125 1_555
Cu1 S1 2.286791 1_656
Cu1 S4 2.286791 1_555
Cu1 S10 2.292876 1_555
Cu1 S7 2.292895 1_655
Cu2 S8 2.286791 1_545
Cu2 S11 2.286791 1_555
Cu2 S5 2.292886 1_545
Cu2 S2 2.292886 1_556
Cu3 S9 2.298125 1_655
Cu3 S0 2.298125 1_545
Cu3 S3 2.298125 1_556
Cu3 S6 2.298125 1_555
Cu4 S1 2.286791 1_555
Cu4 S4 2.286791 1_566
Cu4 S10 2.292876 1_555
Cu4 S7 2.292895 1_565
Cu5 S8 2.286791 1_455
Cu5 S11 2.286791 1_555
Cu5 S5 2.292886 1_556
Cu5 S2 2.292886 1_455
Cu6 S11 2.307534 1_555
Cu6 S8 2.307534 1_444
Cu6 S3 2.325801 1_455
Cu6 S0 2.325801 1_545
Cu7 S1 2.307534 1_655
Cu7 S4 2.307534 1_565
Cu7 S6 2.325801 1_554
Cu7 S9 2.325801 1_665
Cu8 S7 2.304179 1_554
Cu8 S5 2.304186 1_555
Cu8 S2 2.304186 1_555
Cu8 S10 2.304199 1_555
As0 S3 2.310653 1_555
As0 S0 2.310653 1_555
As0 S11 2.318970 1_554
As0 S8 2.318970 1_555
As1 S6 2.310653 1_555
As1 S9 2.310653 1_554
As1 S1 2.318970 1_555
As1 S4 2.318970 1_555
S2 Sb0 2.457369 1_655
S5 Sb0 2.457369 1_565
S7 Sb0 2.457356 1_555
S10 Sb0 2.457375 1_666
