# generated using pymatgen
data_Er2CoGe2
_symmetry_space_group_name_H-M   'P 1'
_cell_length_a   5.53722649
_cell_length_b   5.53722649
_cell_length_c   10.04600866
_cell_angle_alpha   64.77972239
_cell_angle_beta   64.77972239
_cell_angle_gamma   43.87323922
_symmetry_Int_Tables_number   1
_chemical_formula_structural   Er2CoGe2
_chemical_formula_sum   'Er4 Co2 Ge4'
_cell_volume   189.62168968
_cell_formula_units_Z   2
loop_
 _symmetry_equiv_pos_site_id
 _symmetry_equiv_pos_as_xyz
  1  'x, y, z'
loop_
 _atom_site_type_symbol
 _atom_site_label
 _atom_site_symmetry_multiplicity
 _atom_site_fract_x
 _atom_site_fract_y
 _atom_site_fract_z
 _atom_site_occupancy
  Er  Er0  1  0.81069016  0.81069016  0.11670979  1
  Er  Er1  1  0.18930984  0.18930984  0.88329021  1
  Er  Er2  1  0.99248624  0.99248624  0.33378462  1
  Er  Er3  1  0.00751376  0.00751376  0.66621538  1
  Co  Co0  1  0.72631163  0.72631163  0.65818959  1
  Co  Co1  1  0.27368837  0.27368837  0.34181041  1
  Ge  Ge0  1  0.51442474  0.51442474  0.12154434  1
  Ge  Ge1  1  0.48557526  0.48557526  0.87845566  1
  Ge  Ge2  1  0.65802827  0.65802827  0.43913580  1
  Ge  Ge3  1  0.34197173  0.34197173  0.56086420  1
loop_
_geom_bond_atom_site_label_1
_geom_bond_atom_site_label_2
_geom_bond_distance
_geom_bond_site_symmetry_2
Er0 Ge2 2.878251 1_555
Er0 Ge0 2.958893 1_565
Er0 Ge0 2.958893 1_655
Er0 Ge0 3.021425 1_555
Er0 Ge1 3.047131 1_654
Er0 Ge1 3.047131 1_564
Er1 Ge3 2.878251 1_555
Er1 Ge1 2.958893 1_545
Er1 Ge1 2.958893 1_455
Er1 Ge1 3.021425 1_555
Er1 Ge0 3.047131 1_456
Er1 Ge0 3.047131 1_546
Er2 Ge0 2.904235 1_655
Er2 Ge0 2.904235 1_565
Er2 Ge3 2.938256 1_565
Er2 Ge3 2.938256 1_655
Er2 Ge2 3.095788 1_555
Er2 Ge2 3.153509 1_565
Er2 Ge2 3.153509 1_655
Er3 Ge1 2.904235 1_545
Er3 Ge1 2.904235 1_455
Er3 Ge2 2.938256 1_455
Er3 Ge2 2.938256 1_545
Er3 Ge3 3.095788 1_555
Er3 Ge3 3.153509 1_545
Er3 Ge3 3.153509 1_455
Co0 Ge3 2.362093 1_655
Co0 Ge3 2.362093 1_565
Co0 Ge1 2.446374 1_555
Co0 Ge2 2.598633 1_555
Co0 Er3 2.926601 1_665
Co0 Er1 2.957645 1_655
Co0 Er1 2.957645 1_565
Co0 Er3 3.028360 1_565
Co0 Er3 3.028360 1_655
Co0 Er2 3.148120 1_555
Co1 Ge2 2.362093 1_545
Co1 Ge2 2.362093 1_455
Co1 Ge0 2.446374 1_555
Co1 Ge3 2.598633 1_555
Co1 Er2 2.926601 1_445
Co1 Er0 2.957645 1_545
Co1 Er0 2.957645 1_455
Co1 Er2 3.028360 1_455
Co1 Er2 3.028360 1_545
Co1 Er3 3.148120 1_555
Ge0 Ge1 2.591611 1_554
Ge2 Ge3 2.896390 1_555
