# generated using pymatgen
data_LiLa2Nb8O24
_symmetry_space_group_name_H-M   'P 1'
_cell_length_a   8.97358656
_cell_length_b   8.97358656
_cell_length_c   7.94845300
_cell_angle_alpha   90.00000000
_cell_angle_beta   90.00000000
_cell_angle_gamma   127.42866761
_symmetry_Int_Tables_number   1
_chemical_formula_structural   LiLa2Nb8O24
_chemical_formula_sum   'Li1 La2 Nb8 O24'
_cell_volume   508.27146642
_cell_formula_units_Z   1
loop_
 _symmetry_equiv_pos_site_id
 _symmetry_equiv_pos_as_xyz
  1  'x, y, z'
loop_
 _atom_site_type_symbol
 _atom_site_label
 _atom_site_symmetry_multiplicity
 _atom_site_fract_x
 _atom_site_fract_y
 _atom_site_fract_z
 _atom_site_occupancy
  Li  Li0  1  0.00000000  0.00000000  0.00000000  1
  La  La0  1  0.50000000  0.50000000  0.00000000  1
  La  La1  1  0.00000000  0.00000000  0.50000000  1
  Nb  Nb0  1  0.12187800  0.38041000  0.74875100  1
  Nb  Nb1  1  0.61959000  0.87812200  0.74875100  1
  Nb  Nb2  1  0.12187800  0.38041000  0.25124900  1
  Nb  Nb3  1  0.61959000  0.87812200  0.25124900  1
  Nb  Nb4  1  0.87812200  0.61959000  0.74875100  1
  Nb  Nb5  1  0.38041000  0.12187800  0.74875100  1
  Nb  Nb6  1  0.87812200  0.61959000  0.25124900  1
  Nb  Nb7  1  0.38041000  0.12187800  0.25124900  1
  O  O0  1  0.38418400  0.61581600  0.76082000  1
  O  O1  1  0.88609300  0.11390700  0.74484600  1
  O  O2  1  0.38418400  0.61581600  0.23918000  1
  O  O3  1  0.88609300  0.11390700  0.25515400  1
  O  O4  1  0.11390700  0.88609300  0.74484600  1
  O  O5  1  0.61581600  0.38418400  0.76082000  1
  O  O6  1  0.11390700  0.88609300  0.25515400  1
  O  O7  1  0.61581600  0.38418400  0.23918000  1
  O  O8  1  0.14123700  0.36914700  0.00000000  1
  O  O9  1  0.63085300  0.85876300  0.00000000  1
  O  O10  1  0.12330500  0.35495500  0.50000000  1
  O  O11  1  0.64504500  0.87669500  0.50000000  1
  O  O12  1  0.85876300  0.63085300  0.00000000  1
  O  O13  1  0.36914700  0.14123700  0.00000000  1
  O  O14  1  0.87669500  0.64504500  0.50000000  1
  O  O15  1  0.35495500  0.12330500  0.50000000  1
  O  O16  1  0.24694100  0.24694100  0.75311400  1
  O  O17  1  0.75305900  0.75305900  0.75311400  1
  O  O18  1  0.24694100  0.24694100  0.24688600  1
  O  O19  1  0.75305900  0.75305900  0.24688600  1
  O  O20  1  0.00000000  0.50000000  0.75013600  1
  O  O21  1  0.50000000  0.00000000  0.75013600  1
  O  O22  1  0.00000000  0.50000000  0.24986400  1
  O  O23  1  0.50000000  0.00000000  0.24986400  1
loop_
_geom_bond_atom_site_label_1
_geom_bond_atom_site_label_2
_geom_bond_distance
_geom_bond_site_symmetry_2
La0 O0 2.662213 1_554
La0 O5 2.662213 1_554
La0 O2 2.662213 1_555
La0 O7 2.662213 1_555
La0 O12 2.673606 1_555
La0 O9 2.673606 1_555
La0 O8 2.673606 1_555
La0 O13 2.673606 1_555
La0 O19 2.809998 1_555
La0 O17 2.809998 1_554
La0 O18 2.809998 1_555
La0 O16 2.809998 1_554
La1 O10 2.661927 1_555
La1 O15 2.661927 1_555
La1 O11 2.661927 1_445
La1 O14 2.661927 1_445
La1 O6 2.673404 1_545
La1 O4 2.673404 1_545
La1 O3 2.673404 1_455
La1 O1 2.673404 1_455
La1 O16 2.810622 1_555
La1 O18 2.810622 1_555
La1 O17 2.810622 1_445
La1 O19 2.810622 1_445
Nb0 O20 1.942830 1_555
Nb0 O10 1.991271 1_555
Nb0 O0 1.991988 1_555
Nb0 O1 2.011537 1_455
Nb0 O8 2.012438 1_556
Nb0 O16 2.080626 1_555
Nb1 O21 1.942830 1_565
Nb1 O11 1.991271 1_555
Nb1 O0 1.991988 1_555
Nb1 O1 2.011537 1_565
Nb1 O9 2.012438 1_556
Nb1 O17 2.080626 1_555
Nb2 O22 1.942830 1_555
Nb2 O10 1.991271 1_555
Nb2 O2 1.991988 1_555
Nb2 O3 2.011537 1_455
Nb2 O8 2.012438 1_555
Nb2 O18 2.080626 1_555
Nb3 O23 1.942830 1_565
Nb3 O11 1.991271 1_555
Nb3 O2 1.991988 1_555
Nb3 O3 2.011537 1_565
Nb3 O9 2.012438 1_555
Nb3 O19 2.080626 1_555
Nb4 O20 1.942830 1_655
Nb4 O14 1.991271 1_555
Nb4 O5 1.991988 1_555
Nb4 O4 2.011537 1_655
Nb4 O12 2.012438 1_556
Nb4 O17 2.080626 1_555
Nb5 O21 1.942830 1_555
Nb5 O15 1.991271 1_555
Nb5 O5 1.991988 1_555
Nb5 O4 2.011537 1_545
Nb5 O13 2.012438 1_556
Nb5 O16 2.080626 1_555
Nb6 O22 1.942830 1_655
Nb6 O14 1.991271 1_555
Nb6 O7 1.991988 1_555
Nb6 O6 2.011537 1_655
Nb6 O12 2.012438 1_555
Nb6 O19 2.080626 1_555
Nb7 O23 1.942830 1_555
Nb7 O15 1.991271 1_555
Nb7 O7 1.991988 1_555
Nb7 O6 2.011537 1_545
Nb7 O13 2.012438 1_555
Nb7 O18 2.080626 1_555
