# generated using pymatgen
data_KCdCl3O
_symmetry_space_group_name_H-M   'P 1'
_cell_length_a   4.02254500
_cell_length_b   7.96916500
_cell_length_c   19.18657900
_cell_angle_alpha   90.00000000
_cell_angle_beta   90.00000000
_cell_angle_gamma   90.00000000
_symmetry_Int_Tables_number   1
_chemical_formula_structural   KCdCl3O
_chemical_formula_sum   'K4 Cd4 Cl12 O4'
_cell_volume   615.05120870
_cell_formula_units_Z   4
loop_
 _symmetry_equiv_pos_site_id
 _symmetry_equiv_pos_as_xyz
  1  'x, y, z'
loop_
 _atom_site_type_symbol
 _atom_site_label
 _atom_site_symmetry_multiplicity
 _atom_site_fract_x
 _atom_site_fract_y
 _atom_site_fract_z
 _atom_site_occupancy
  K  K0  1  0.25000000  0.40433100  0.80376200  1
  K  K1  1  0.25000000  0.90433100  0.69623800  1
  K  K2  1  0.75000000  0.59566900  0.19623800  1
  K  K3  1  0.75000000  0.09566900  0.30376200  1
  Cd  Cd0  1  0.75000000  0.95806900  0.90988400  1
  Cd  Cd1  1  0.75000000  0.45806900  0.59011600  1
  Cd  Cd2  1  0.25000000  0.04193100  0.09011600  1
  Cd  Cd3  1  0.25000000  0.54193100  0.40988400  1
  Cl  Cl0  1  0.75000000  0.10731600  0.79165000  1
  Cl  Cl1  1  0.75000000  0.60731600  0.70835000  1
  Cl  Cl2  1  0.25000000  0.89268400  0.20835000  1
  Cl  Cl3  1  0.25000000  0.39268400  0.29165000  1
  Cl  Cl4  1  0.25000000  0.75755200  0.87361100  1
  Cl  Cl5  1  0.25000000  0.25755200  0.62638900  1
  Cl  Cl6  1  0.75000000  0.24244800  0.12638900  1
  Cl  Cl7  1  0.75000000  0.74244800  0.37361100  1
  Cl  Cl8  1  0.75000000  0.83721000  0.04104900  1
  Cl  Cl9  1  0.75000000  0.33721000  0.45895100  1
  Cl  Cl10  1  0.25000000  0.16279000  0.95895100  1
  Cl  Cl11  1  0.25000000  0.66279000  0.54104900  1
  O  O0  1  0.75000000  0.47176300  0.91854700  1
  O  O1  1  0.75000000  0.97176300  0.58145300  1
  O  O2  1  0.25000000  0.52823700  0.08145300  1
  O  O3  1  0.25000000  0.02823700  0.41854700  1
loop_
_geom_bond_atom_site_label_1
_geom_bond_atom_site_label_2
_geom_bond_distance
_geom_bond_site_symmetry_2
K0 O0 3.030554 1_455
K0 O0 3.030554 1_555
K1 O1 3.030554 1_455
K1 O1 3.030554 1_555
K2 O2 3.030554 1_655
K2 O2 3.030554 1_555
K3 O3 3.030554 1_555
K3 O3 3.030554 1_655
Cd0 Cl0 2.561392 1_565
Cd0 Cl4 2.661395 1_555
Cd0 Cl4 2.661395 1_655
Cd0 Cl8 2.694617 1_556
Cd0 Cl10 2.755567 1_665
Cd0 Cl10 2.755567 1_565
Cd1 Cl1 2.561392 1_555
Cd1 Cl5 2.661395 1_555
Cd1 Cl5 2.661395 1_655
Cd1 Cl9 2.694617 1_555
Cd1 Cl11 2.755567 1_555
Cd1 Cl11 2.755567 1_655
Cd2 Cl2 2.561392 1_545
Cd2 Cl6 2.661395 1_455
Cd2 Cl6 2.661395 1_555
Cd2 Cl10 2.694617 1_554
Cd2 Cl8 2.755567 1_445
Cd2 Cl8 2.755567 1_545
Cd3 Cl3 2.561392 1_555
Cd3 Cl7 2.661395 1_455
Cd3 Cl7 2.661395 1_555
Cd3 Cl11 2.694617 1_555
Cd3 Cl9 2.755567 1_555
Cd3 Cl9 2.755567 1_455
Cl0 K0 3.114760 1_555
Cl0 K0 3.114760 1_655
Cl0 K1 3.164351 1_545
Cl0 K1 3.164351 1_645
Cl1 K1 3.114760 1_555
Cl1 K1 3.114760 1_655
Cl1 K0 3.164351 1_555
Cl1 K0 3.164351 1_655
Cl2 K2 3.114760 1_555
Cl2 K2 3.114760 1_455
Cl2 K3 3.164351 1_465
Cl2 K3 3.164351 1_565
Cl3 K3 3.114760 1_455
Cl3 K3 3.114760 1_555
Cl3 K2 3.164351 1_455
Cl3 K2 3.164351 1_555
Cl4 K0 3.117622 1_555
Cl4 K1 3.598591 1_555
Cl5 K1 3.117622 1_545
Cl5 K0 3.598591 1_555
Cl6 K2 3.117622 1_555
Cl6 K3 3.598591 1_555
Cl7 K3 3.117622 1_565
Cl7 K2 3.598591 1_555
Cl8 K2 3.545553 1_555
Cl9 K3 3.545553 1_555
Cl10 K0 3.545553 1_555
Cl11 K1 3.545553 1_555
