# generated using pymatgen
data_Li3MnV(PO4)3
_symmetry_space_group_name_H-M   'P 1'
_cell_length_a   8.65645700
_cell_length_b   8.67394906
_cell_length_c   15.12546254
_cell_angle_alpha   89.41363356
_cell_angle_beta   105.53075435
_cell_angle_gamma   118.72760994
_symmetry_Int_Tables_number   1
_chemical_formula_structural   Li3MnV(PO4)3
_chemical_formula_sum   'Li12 Mn4 V4 P12 O48'
_cell_volume   950.07420032
_cell_formula_units_Z   4
loop_
 _symmetry_equiv_pos_site_id
 _symmetry_equiv_pos_as_xyz
  1  'x, y, z'
loop_
 _atom_site_type_symbol
 _atom_site_label
 _atom_site_symmetry_multiplicity
 _atom_site_fract_x
 _atom_site_fract_y
 _atom_site_fract_z
 _atom_site_occupancy
  Li  Li0  1  0.75510700  0.70227600  0.31555200  1
  Li  Li1  1  0.70960900  0.81538800  0.55217800  1
  Li  Li2  1  0.71705700  0.31149500  0.05164900  1
  Li  Li3  1  0.25099500  0.82696600  0.18522000  1
  Li  Li4  1  0.67984300  0.78780300  0.83075000  1
  Li  Li5  1  0.67883500  0.29062300  0.32772200  1
  Li  Li6  1  0.22260100  0.74151500  0.63399700  1
  Li  Li7  1  0.21631200  0.22802300  0.13312500  1
  Li  Li8  1  0.74447000  0.18114700  0.81660100  1
  Li  Li9  1  0.25018800  0.32022200  0.68974500  1
  Li  Li10  1  0.18102100  0.64193500  0.97862400  1
  Li  Li11  1  0.17605700  0.13400100  0.47969100  1
  Mn  Mn0  1  0.85917700  0.71483600  0.07357700  1
  Mn  Mn1  1  0.35551600  0.96888200  0.81959400  1
  Mn  Mn2  1  0.85609900  0.21845900  0.57242000  1
  Mn  Mn3  1  0.13677400  0.77524100  0.42390100  1
  V  V0  1  0.64374000  0.53118100  0.68153500  1
  V  V1  1  0.35397400  0.46677600  0.31972700  1
  V  V2  1  0.63924800  0.02367400  0.17971100  1
  V  V3  1  0.14020700  0.28644000  0.92330500  1
  P  P0  1  0.95028000  0.99194800  0.73353400  1
  P  P1  1  0.94871700  0.48451800  0.23341500  1
  P  P2  1  0.25569500  0.97941500  0.02155900  1
  P  P3  1  0.53178700  0.89728700  0.37500100  1
  P  P4  1  0.45425500  0.59496200  0.12327900  1
  P  P5  1  0.75428400  0.52254200  0.47646700  1
  P  P6  1  0.25544400  0.47955600  0.52465700  1
  P  P7  1  0.53887000  0.39679500  0.87570800  1
  P  P8  1  0.45682200  0.10103500  0.62723700  1
  P  P9  1  0.75855400  0.02068200  0.97927700  1
  P  P10  1  0.04497600  0.51894500  0.76430900  1
  P  P11  1  0.04121000  0.01118700  0.26525000  1
  O  O0  1  0.83962500  0.97240500  0.24148100  1
  O  O1  1  0.91762000  0.54005800  0.13356200  1
  O  O2  1  0.92390100  0.59165300  0.30367700  1
  O  O3  1  0.67085800  0.98314100  0.47092200  1
  O  O4  1  0.92043000  0.70376300  0.46892500  1
  O  O5  1  0.64899000  0.64395600  0.12365000  1
  O  O6  1  0.44195600  0.76282800  0.14585700  1
  O  O7  1  0.54205800  0.72964000  0.34907600  1
  O  O8  1  0.79178300  0.79875900  0.72660500  1
  O  O9  1  0.79190200  0.28952100  0.22348100  1
  O  O10  1  0.10297200  0.79545900  0.03660600  1
  O  O11  1  0.33094500  0.84481400  0.36957400  1
  O  O12  1  0.06110100  0.90026200  0.19439900  1
  O  O13  1  0.29620700  0.99414700  0.53920900  1
  O  O14  1  0.81284500  0.87346100  0.99613200  1
  O  O15  1  0.69751400  0.57113100  0.55546900  1
  O  O16  1  0.29950400  0.49435900  0.03136500  1
  O  O17  1  0.42712100  0.97808700  0.70567500  1
  O  O18  1  0.61226900  0.95064400  0.88229200  1
  O  O19  1  0.80554000  0.37368400  0.49134900  1
  O  O20  1  0.69174400  0.06197100  0.05594900  1
  O  O21  1  0.08156400  0.96372300  0.36586100  1
  O  O22  1  0.41132100  0.46915400  0.19853900  1
  O  O23  1  0.60105900  0.45299100  0.38081400  1
  O  O24  1  0.84536000  0.48371000  0.73971900  1
  O  O25  1  0.14285300  0.50930500  0.26105700  1
  O  O26  1  0.41854100  0.55872800  0.61579900  1
  O  O27  1  0.41811500  0.05828900  0.11317000  1
  O  O28  1  0.90661500  0.04299700  0.63317100  1
  O  O29  1  0.58991000  0.52984300  0.80428500  1
  O  O30  1  0.30506600  0.92790400  0.93951400  1
  O  O31  1  0.19376000  0.62092400  0.50989500  1
  O  O32  1  0.57506300  0.02664100  0.30122400  1
  O  O33  1  0.30770700  0.43313400  0.44306900  1
  O  O34  1  0.19394100  0.11943500  0.00544100  1
  O  O35  1  0.93750000  0.10492400  0.80728800  1
  O  O36  1  0.67733600  0.48066800  0.97208600  1
  O  O37  1  0.92349400  0.20313100  0.97515500  1
  O  O38  1  0.65010400  0.15006900  0.62427800  1
  O  O39  1  0.18727200  0.71433600  0.76151400  1
  O  O40  1  0.18092100  0.20647300  0.26331700  1
  O  O41  1  0.44719100  0.26937000  0.65099200  1
  O  O42  1  0.54748600  0.22639600  0.85132200  1
  O  O43  1  0.10049700  0.29510600  0.53779200  1
  O  O44  1  0.33850400  0.34487100  0.86766900  1
  O  O45  1  0.06337000  0.40622900  0.69394900  1
  O  O46  1  0.08683900  0.47362000  0.86495000  1
  O  O47  1  0.14182800  0.01553400  0.75355900  1
loop_
_geom_bond_atom_site_label_1
_geom_bond_atom_site_label_2
_geom_bond_distance
_geom_bond_site_symmetry_2
Li0 O2 2.140046 1_555
Li0 O7 2.153777 1_555
Li0 O23 2.305978 1_555
Li0 O4 2.373793 1_555
Li0 O0 2.453129 1_555
Li0 O21 2.535957 1_655
Li1 O3 1.987998 1_555
Li1 O28 2.000246 1_565
Li1 O15 2.071137 1_555
Li2 O36 1.986709 1_554
Li2 O1 2.017268 1_555
Li2 O20 2.070155 1_555
Li2 O9 2.533361 1_555
Li3 O12 2.062578 1_555
Li3 O6 2.194177 1_555
Li3 O10 2.214255 1_555
Li3 O27 2.305563 1_565
Li4 O29 1.987412 1_555
Li4 O18 2.001503 1_555
Li4 O8 2.038433 1_555
Li4 O14 2.410069 1_555
Li5 O32 2.014774 1_555
Li5 O9 2.068750 1_555
Li5 O23 2.075055 1_555
Li5 O19 2.381296 1_555
Li5 O2 2.553325 1_555
Li6 O17 2.011445 1_555
Li6 O39 2.026440 1_555
Li6 O31 2.053811 1_555
Li6 O13 2.519144 1_555
Li7 O22 1.989238 1_555
Li7 O40 2.065693 1_555
Li7 O34 2.077524 1_555
Li8 O35 2.106896 1_555
Li8 O42 2.112968 1_555
Li8 O18 2.159428 1_545
Li8 O37 2.434008 1_555
Li8 O17 2.530797 1_545
Li9 O45 2.095628 1_555
Li9 O41 2.170261 1_555
Li9 O43 2.270026 1_555
Li9 O26 2.362623 1_555
Li9 O44 2.574009 1_555
Li9 O47 2.616433 1_555
Li9 O29 2.674274 1_555
Li9 O28 2.676624 1_455
Li10 O46 1.977095 1_555
Li10 O16 2.032219 1_556
Li10 O10 2.050614 1_556
Li10 O30 2.324964 1_555
Li11 O21 1.987818 1_545
Li11 O13 2.013172 1_545
Li11 O43 2.089136 1_555
Li11 O33 2.409151 1_555
Mn0 O14 1.916254 1_554
Mn0 O1 1.959786 1_555
Mn0 O5 1.978683 1_555
Mn0 O10 2.112062 1_655
Mn0 O12 2.151492 1_655
Mn0 O36 2.157835 1_554
Mn1 O30 1.966947 1_555
Mn1 O17 1.970060 1_555
Mn1 O42 2.001940 1_565
Mn1 O39 2.007773 1_555
Mn1 O47 2.074835 1_565
Mn1 O18 2.251753 1_555
Mn2 O28 1.935942 1_555
Mn2 O19 1.937346 1_555
Mn2 O38 1.967112 1_555
Mn2 O43 2.103891 1_655
Mn2 O3 2.166543 1_545
Mn2 O45 2.176419 1_655
Mn3 O11 1.902371 1_555
Mn3 O4 1.978285 1_455
Mn3 O31 1.995582 1_555
Mn3 O21 2.041808 1_555
Mn3 O2 2.163843 1_455
Mn3 O13 2.193537 1_555
O0 P11 1.545868 1_665
O0 V2 1.986080 1_565
O1 P1 1.574063 1_555
O2 P1 1.540621 1_555
O3 P3 1.527674 1_555
O4 P5 1.569505 1_555
O5 P4 1.525975 1_555
O6 P4 1.557800 1_555
O6 V2 2.034454 1_565
O7 P3 1.559129 1_555
O7 V1 2.027735 1_555
O8 P0 1.554963 1_555
O8 V0 2.049192 1_555
O9 P1 1.554007 1_555
O9 V2 2.033572 1_555
O10 P2 1.572093 1_555
O11 P3 1.549264 1_555
O12 P11 1.543701 1_565
O13 P8 1.536308 1_565
O14 P9 1.556486 1_565
O15 P5 1.539769 1_555
O15 V0 2.068674 1_555
O16 P4 1.546791 1_555
O16 V3 2.070803 1_554
O17 P8 1.576342 1_565
O18 P9 1.551929 1_565
O19 P5 1.551123 1_555
O20 P9 1.540914 1_554
O20 V2 2.029479 1_555
O21 P11 1.564645 1_565
O22 P4 1.560784 1_555
O22 V1 2.020770 1_555
O23 P5 1.561240 1_555
O23 V1 2.151303 1_555
O24 P10 1.538864 1_655
O24 V0 1.962412 1_555
O25 P1 1.524289 1_455
O25 V1 2.009091 1_555
O26 P6 1.552551 1_555
O26 V0 2.061769 1_555
O27 P2 1.554459 1_545
O27 V2 2.069296 1_555
O28 P0 1.575829 1_545
O29 P7 1.560140 1_555
O29 V0 2.030291 1_555
O30 P2 1.549585 1_556
O31 P6 1.548725 1_555
O32 P3 1.561629 1_545
O32 V2 2.061302 1_555
O33 P6 1.540771 1_555
O33 V1 2.000670 1_555
O34 P2 1.539007 1_545
O34 V3 2.039519 1_554
O35 P0 1.552320 1_545
O35 V3 2.095027 1_655
O36 P7 1.529309 1_555
O37 P9 1.555800 1_555
O37 V3 2.032145 1_655
O38 P8 1.529028 1_555
O39 P10 1.552755 1_555
O40 P11 1.543185 1_555
O40 V1 2.042926 1_555
O41 P8 1.553006 1_555
O41 V0 2.037571 1_555
O42 P7 1.567818 1_555
O43 P6 1.572120 1_555
O44 P7 1.537279 1_555
O44 V3 1.959611 1_555
O45 P10 1.541268 1_555
O46 P10 1.559617 1_555
O46 V3 2.025307 1_555
O47 P0 1.513012 1_445
