# generated using pymatgen
data_LaVI5O16
_symmetry_space_group_name_H-M   'P 1'
_cell_length_a   18.36937700
_cell_length_b   7.59215600
_cell_length_c   12.76654919
_cell_angle_alpha   55.90851037
_cell_angle_beta   90.00000000
_cell_angle_gamma   90.00000000
_symmetry_Int_Tables_number   1
_chemical_formula_structural   LaVI5O16
_chemical_formula_sum   'La4 V4 I20 O64'
_cell_volume   1474.47944689
_cell_formula_units_Z   4
loop_
 _symmetry_equiv_pos_site_id
 _symmetry_equiv_pos_as_xyz
  1  'x, y, z'
loop_
 _atom_site_type_symbol
 _atom_site_label
 _atom_site_symmetry_multiplicity
 _atom_site_fract_x
 _atom_site_fract_y
 _atom_site_fract_z
 _atom_site_occupancy
  La  La0  1  0.23337100  0.00790700  0.24172600  1
  La  La1  1  0.26662900  0.00790700  0.74172600  1
  La  La2  1  0.76662900  0.99209300  0.75827400  1
  La  La3  1  0.73337100  0.99209300  0.25827400  1
  V  V0  1  0.99895800  0.49910100  0.23146700  1
  V  V1  1  0.50104200  0.49910100  0.73146700  1
  V  V2  1  0.00104200  0.50089900  0.76853300  1
  V  V3  1  0.49895800  0.50089900  0.26853300  1
  I  I0  1  0.12395400  0.46118400  0.43655000  1
  I  I1  1  0.37604600  0.46118400  0.93655000  1
  I  I2  1  0.87604600  0.53881600  0.56345000  1
  I  I3  1  0.62395400  0.53881600  0.06345000  1
  I  I4  1  0.37044600  0.87534700  0.05214700  1
  I  I5  1  0.12955400  0.87534700  0.55214700  1
  I  I6  1  0.62955400  0.12465300  0.94785300  1
  I  I7  1  0.87044600  0.12465300  0.44785300  1
  I  I8  1  0.16385400  0.65426800  0.06606600  1
  I  I9  1  0.33614600  0.65426800  0.56606600  1
  I  I10  1  0.83614600  0.34573200  0.93393400  1
  I  I11  1  0.66385400  0.34573200  0.43393400  1
  I  I12  1  0.82522400  0.68741000  0.10140000  1
  I  I13  1  0.67477600  0.68741000  0.60140000  1
  I  I14  1  0.17477600  0.31259000  0.89860000  1
  I  I15  1  0.32522400  0.31259000  0.39860000  1
  I  I16  1  0.00482400  0.97830600  0.24109800  1
  I  I17  1  0.49517600  0.97830600  0.74109800  1
  I  I18  1  0.99517600  0.02169400  0.75890200  1
  I  I19  1  0.50482400  0.02169400  0.25890200  1
  O  O0  1  0.08805100  0.35040400  0.34870300  1
  O  O1  1  0.41194900  0.35040400  0.84870300  1
  O  O2  1  0.91194900  0.64959600  0.65129700  1
  O  O3  1  0.58805100  0.64959600  0.15129700  1
  O  O4  1  0.18659800  0.65034700  0.31261600  1
  O  O5  1  0.31340200  0.65034700  0.81261600  1
  O  O6  1  0.81340200  0.34965300  0.68738400  1
  O  O7  1  0.68659800  0.34965300  0.18738400  1
  O  O8  1  0.19409300  0.25176000  0.52352600  1
  O  O9  1  0.30590700  0.25176000  0.02352600  1
  O  O10  1  0.80590700  0.74824000  0.47647400  1
  O  O11  1  0.69409300  0.74824000  0.97647400  1
  O  O12  1  0.42928700  0.63984000  0.11234100  1
  O  O13  1  0.07071300  0.63984000  0.61234100  1
  O  O14  1  0.57071300  0.36016000  0.88765900  1
  O  O15  1  0.92928700  0.36016000  0.38765900  1
  O  O16  1  0.30346300  0.80053200  0.97569000  1
  O  O17  1  0.19653700  0.80053200  0.47569000  1
  O  O18  1  0.69653700  0.19946800  0.02431000  1
  O  O19  1  0.80346300  0.19946800  0.52431000  1
  O  O20  1  0.31669100  0.78350900  0.19380800  1
  O  O21  1  0.18330900  0.78350900  0.69380800  1
  O  O22  1  0.68330900  0.21649100  0.80619200  1
  O  O23  1  0.81669100  0.21649100  0.30619200  1
  O  O24  1  0.06487900  0.68401900  0.08379700  1
  O  O25  1  0.43512100  0.68401900  0.58379700  1
  O  O26  1  0.93512100  0.31598100  0.91620300  1
  O  O27  1  0.56487900  0.31598100  0.41620300  1
  O  O28  1  0.16785900  0.39493200  0.08670300  1
  O  O29  1  0.33214100  0.39493200  0.58670300  1
  O  O30  1  0.83214100  0.60506800  0.91329700  1
  O  O31  1  0.66785900  0.60506800  0.41329700  1
  O  O32  1  0.16132900  0.82598100  0.89393100  1
  O  O33  1  0.33867100  0.82598100  0.39393100  1
  O  O34  1  0.83867100  0.17401900  0.10606900  1
  O  O35  1  0.66132900  0.17401900  0.60606900  1
  O  O36  1  0.77869700  0.73971800  0.20783200  1
  O  O37  1  0.72130300  0.73971800  0.70783200  1
  O  O38  1  0.22130300  0.26028200  0.79216800  1
  O  O39  1  0.27869700  0.26028200  0.29216800  1
  O  O40  1  0.92177300  0.71879900  0.13252100  1
  O  O41  1  0.57822700  0.71879900  0.63252100  1
  O  O42  1  0.07822700  0.28120100  0.86747900  1
  O  O43  1  0.42177300  0.28120100  0.36747900  1
  O  O44  1  0.82370900  0.95059500  0.95117300  1
  O  O45  1  0.67629100  0.95059500  0.45117300  1
  O  O46  1  0.17629100  0.04940500  0.04882700  1
  O  O47  1  0.32370900  0.04940500  0.54882700  1
  O  O48  1  0.94856800  0.90178500  0.37781700  1
  O  O49  1  0.55143200  0.90178500  0.87781700  1
  O  O50  1  0.05143200  0.09821500  0.62218300  1
  O  O51  1  0.44856800  0.09821500  0.12218300  1
  O  O52  1  0.09456200  0.00501200  0.29138400  1
  O  O53  1  0.40543800  0.00501200  0.79138400  1
  O  O54  1  0.90543800  0.99498800  0.70861600  1
  O  O55  1  0.59456200  0.99498800  0.20861600  1
  O  O56  1  0.02303800  0.69054500  0.29860200  1
  O  O57  1  0.47696200  0.69054500  0.79860200  1
  O  O58  1  0.97696200  0.30945500  0.70139800  1
  O  O59  1  0.52303800  0.30945500  0.20139800  1
  O  O60  1  0.98281000  0.31737000  0.19771100  1
  O  O61  1  0.51719000  0.31737000  0.69771100  1
  O  O62  1  0.01719000  0.68263000  0.80228900  1
  O  O63  1  0.48281000  0.68263000  0.30228900  1
loop_
_geom_bond_atom_site_label_1
_geom_bond_atom_site_label_2
_geom_bond_distance
_geom_bond_site_symmetry_2
La0 O39 2.482438 1_555
La0 O4 2.484438 1_545
La0 O46 2.528546 1_555
La0 O33 2.533041 1_545
La0 O17 2.566404 1_545
La0 O20 2.605303 1_545
La0 O52 2.624581 1_555
La0 O9 2.679812 1_555
La0 O28 2.734930 1_555
La1 O38 2.482438 1_555
La1 O5 2.484438 1_545
La1 O47 2.528546 1_555
La1 O32 2.533041 1_545
La1 O16 2.566404 1_545
La1 O21 2.605303 1_545
La1 O53 2.624581 1_555
La1 O8 2.679812 1_555
La1 O29 2.734930 1_555
La2 O37 2.482438 1_555
La2 O6 2.484438 1_565
La2 O44 2.528546 1_555
La2 O35 2.533041 1_565
La2 O19 2.566404 1_565
La2 O22 2.605303 1_565
La2 O54 2.624581 1_555
La2 O11 2.679812 1_555
La2 O30 2.734930 1_555
La3 O36 2.482438 1_555
La3 O7 2.484438 1_565
La3 O45 2.528546 1_555
La3 O34 2.533041 1_565
La3 O18 2.566404 1_565
La3 O23 2.605303 1_565
La3 O55 2.624581 1_555
La3 O10 2.679812 1_555
La3 O31 2.734930 1_555
I0 O4 1.828330 1_555
I0 O8 1.855214 1_555
I0 O0 1.859442 1_555
I0 O56 2.476364 1_555
I1 O5 1.828330 1_555
I1 O9 1.855214 1_556
I1 O1 1.859442 1_555
I1 O57 2.476364 1_555
I2 O6 1.828330 1_555
I2 O10 1.855214 1_555
I2 O2 1.859442 1_555
I2 O58 2.476364 1_555
I3 O7 1.828330 1_555
I3 O11 1.855214 1_554
I3 O3 1.859442 1_555
I3 O59 2.476364 1_555
I4 O20 1.821633 1_555
I4 O16 1.846860 1_554
I4 O12 1.848098 1_555
I5 O21 1.821633 1_555
I5 O17 1.846860 1_555
I5 O13 1.848098 1_555
I6 O22 1.821633 1_555
I6 O18 1.846860 1_556
I6 O14 1.848098 1_555
I7 O23 1.821633 1_555
I7 O19 1.846860 1_555
I7 O15 1.848098 1_555
I8 O32 1.821914 1_554
I8 O28 1.835742 1_555
I8 O24 1.861477 1_555
I9 O33 1.821914 1_555
I9 O29 1.835742 1_555
I9 O25 1.861477 1_555
I10 O34 1.821914 1_556
I10 O30 1.835742 1_555
I10 O26 1.861477 1_555
I11 O35 1.821914 1_555
I11 O31 1.835742 1_555
I11 O27 1.861477 1_555
I12 O36 1.827389 1_555
I12 O44 1.837279 1_554
I12 O40 1.861787 1_555
I13 O37 1.827389 1_555
I13 O45 1.837279 1_555
I13 O41 1.861787 1_555
I14 O38 1.827389 1_555
I14 O46 1.837279 1_556
I14 O42 1.861787 1_555
I15 O39 1.827389 1_555
I15 O47 1.837279 1_555
I15 O43 1.861787 1_555
I16 O48 1.820762 1_455
I16 O52 1.821124 1_565
I16 O56 1.904187 1_555
I16 O60 2.344895 1_465
I17 O49 1.820762 1_555
I17 O53 1.821124 1_565
I17 O57 1.904187 1_555
I17 O61 2.344895 1_565
I18 O50 1.820762 1_655
I18 O54 1.821124 1_545
I18 O58 1.904187 1_555
I18 O62 2.344895 1_645
I19 O51 1.820762 1_555
I19 O55 1.821124 1_545
I19 O59 1.904187 1_555
I19 O63 2.344895 1_545
O0 V0 2.073360 1_455
O1 V1 2.073360 1_555
O2 V2 2.073360 1_655
O3 V3 2.073360 1_555
O12 V3 2.090170 1_555
O13 V2 2.090170 1_555
O14 V1 2.090170 1_555
O15 V0 2.090170 1_555
O24 V0 2.006090 1_455
O25 V1 2.006090 1_555
O26 V2 2.006090 1_655
O27 V3 2.006090 1_555
O40 V0 2.006514 1_555
O41 V1 2.006514 1_555
O42 V2 2.006514 1_555
O43 V3 2.006514 1_555
O56 V0 2.106977 1_455
O57 V1 2.106977 1_555
O58 V2 2.106977 1_655
O59 V3 2.106977 1_555
O60 V0 1.686391 1_555
O61 V1 1.686391 1_555
O62 V2 1.686391 1_555
O63 V3 1.686391 1_555
