# generated using pymatgen
data_LaNdCuO4
_symmetry_space_group_name_H-M   'P 1'
_cell_length_a   7.05219292
_cell_length_b   7.05219292
_cell_length_c   7.05219292
_cell_angle_alpha   148.82050485
_cell_angle_beta   148.82050485
_cell_angle_gamma   44.67558097
_symmetry_Int_Tables_number   1
_chemical_formula_structural   LaNdCuO4
_chemical_formula_sum   'La1 Nd1 Cu1 O4'
_cell_volume   93.72250891
_cell_formula_units_Z   1
loop_
 _symmetry_equiv_pos_site_id
 _symmetry_equiv_pos_as_xyz
  1  'x, y, z'
loop_
 _atom_site_type_symbol
 _atom_site_label
 _atom_site_symmetry_multiplicity
 _atom_site_fract_x
 _atom_site_fract_y
 _atom_site_fract_z
 _atom_site_occupancy
  La  La0  1  0.35962300  0.35962300  0.00000000  1
  Nd  Nd0  1  0.63629300  0.63629300  0.00000000  1
  Cu  Cu0  1  0.00027600  0.00027600  0.00000000  1
  O  O0  1  0.81363900  0.81363900  0.00000000  1
  O  O1  1  0.18378300  0.18378300  0.00000000  1
  O  O2  1  0.00319300  0.50319300  0.50000000  1
  O  O3  1  0.50319300  0.00319300  0.50000000  1
loop_
_geom_bond_atom_site_label_1
_geom_bond_atom_site_label_2
_geom_bond_distance
_geom_bond_site_symmetry_2
La0 O1 2.294005 1_555
La0 O3 2.664616 1_565
La0 O2 2.664616 1_655
La0 O2 2.664616 1_554
La0 O3 2.664616 1_554
La0 O0 2.746616 1_556
La0 O0 2.746616 1_444
La0 O0 2.746616 1_545
La0 O0 2.746616 1_455
Nd0 O0 2.313653 1_555
Nd0 O2 2.570440 1_655
Nd0 O3 2.570440 1_565
Nd0 O3 2.570440 1_554
Nd0 O2 2.570440 1_554
Nd0 O1 2.750974 1_666
Nd0 O1 2.750974 1_565
Nd0 O1 2.750974 1_554
Nd0 O1 2.750974 1_655
Cu0 O2 1.895641 1_544
Cu0 O3 1.895641 1_454
Cu0 O2 1.895641 1_555
Cu0 O3 1.895641 1_555
Cu0 O1 2.394029 1_555
Cu0 O0 2.434863 1_445
