# generated using pymatgen
data_GaNi4Ge3
_symmetry_space_group_name_H-M   'P 1'
_cell_length_a   3.81752100
_cell_length_b   4.96422900
_cell_length_c   11.50290900
_cell_angle_alpha   90.00000000
_cell_angle_beta   90.00000000
_cell_angle_gamma   90.00000000
_symmetry_Int_Tables_number   1
_chemical_formula_structural   GaNi4Ge3
_chemical_formula_sum   'Ga2 Ni8 Ge6'
_cell_volume   217.99218585
_cell_formula_units_Z   2
loop_
 _symmetry_equiv_pos_site_id
 _symmetry_equiv_pos_as_xyz
  1  'x, y, z'
loop_
 _atom_site_type_symbol
 _atom_site_label
 _atom_site_symmetry_multiplicity
 _atom_site_fract_x
 _atom_site_fract_y
 _atom_site_fract_z
 _atom_site_occupancy
  Ga  Ga0  1  0.50000000  0.64184400  0.81442800  1
  Ga  Ga1  1  0.50000000  0.14184400  0.18557200  1
  Ni  Ni0  1  0.50000000  0.14091100  0.79554800  1
  Ni  Ni1  1  0.50000000  0.64091100  0.20445200  1
  Ni  Ni2  1  0.00000000  0.86246400  0.70145000  1
  Ni  Ni3  1  0.00000000  0.36246400  0.29855000  1
  Ni  Ni4  1  0.50000000  0.37912700  0.99558600  1
  Ni  Ni5  1  0.50000000  0.87912700  0.00441400  1
  Ni  Ni6  1  0.00000000  0.61953400  0.50545100  1
  Ni  Ni7  1  0.00000000  0.11953400  0.49454900  1
  Ge  Ge0  1  0.00000000  0.35744400  0.68733500  1
  Ge  Ge1  1  0.00000000  0.85744400  0.31266500  1
  Ge  Ge2  1  0.50000000  0.88722600  0.57313100  1
  Ge  Ge3  1  0.50000000  0.38722600  0.42686900  1
  Ge  Ge4  1  0.00000000  0.11145000  0.92816300  1
  Ge  Ge5  1  0.00000000  0.61145000  0.07183700  1
loop_
_geom_bond_atom_site_label_1
_geom_bond_atom_site_label_2
_geom_bond_distance
_geom_bond_site_symmetry_2
Ga0 Ni4 2.458315 1_555
Ga0 Ni5 2.482629 1_556
Ga0 Ni0 2.486983 1_565
Ga0 Ni0 2.496211 1_555
Ga0 Ni2 2.555728 1_555
Ga0 Ni2 2.555728 1_655
Ga0 Ge0 2.788169 1_555
Ga0 Ge0 2.788169 1_655
Ga1 Ni5 2.458315 1_545
Ga1 Ni4 2.482629 1_554
Ga1 Ni1 2.486983 1_555
Ga1 Ni1 2.496211 1_545
Ga1 Ni3 2.555728 1_655
Ga1 Ni3 2.555728 1_555
Ga1 Ge1 2.788169 1_545
Ga1 Ge1 2.788169 1_645
Ni0 Ni2 2.593384 1_645
Ni0 Ni2 2.593384 1_545
Ni1 Ni3 2.593384 1_555
Ni1 Ni3 2.593384 1_655
Ni2 Ni6 2.556829 1_555
Ni2 Ni7 2.700518 1_565
Ni3 Ni7 2.556829 1_555
Ni3 Ni6 2.700518 1_555
Ni6 Ni7 2.485280 1_565
Ni6 Ni7 2.485280 1_555
Ge0 Ni2 2.462552 1_545
Ge0 Ni6 2.463752 1_555
Ge0 Ni2 2.512287 1_555
Ge0 Ni7 2.512490 1_555
Ge0 Ni0 2.519575 1_455
Ge0 Ni0 2.519575 1_555
Ge1 Ni3 2.462552 1_555
Ge1 Ni7 2.463752 1_565
Ge1 Ni3 2.512287 1_565
Ge1 Ni6 2.512490 1_555
Ge1 Ni1 2.519575 1_455
Ge1 Ni1 2.519575 1_555
Ge2 Ni7 2.406321 1_665
Ge2 Ni7 2.406321 1_565
Ge2 Ni2 2.416025 1_655
Ge2 Ni2 2.416025 1_555
Ge2 Ni6 2.452629 1_555
Ge2 Ni6 2.452629 1_655
Ge3 Ni6 2.406321 1_555
Ge3 Ni6 2.406321 1_655
Ge3 Ni3 2.416025 1_655
Ge3 Ni3 2.416025 1_555
Ge3 Ni7 2.452629 1_555
Ge3 Ni7 2.452629 1_655
Ge4 Ni5 2.396413 1_546
Ge4 Ni5 2.396413 1_446
Ge4 Ni0 2.447811 1_455
Ge4 Ni0 2.447811 1_555
Ge4 Ni4 2.451652 1_455
Ge4 Ni4 2.451652 1_555
Ge4 Ni2 2.885946 1_545
Ge5 Ni4 2.396413 1_554
Ge5 Ni4 2.396413 1_454
Ge5 Ni1 2.447811 1_455
Ge5 Ni1 2.447811 1_555
Ge5 Ni5 2.451652 1_455
Ge5 Ni5 2.451652 1_555
Ge5 Ni3 2.885946 1_555
