# generated using pymatgen
data_Rb2TaAgS2
_symmetry_space_group_name_H-M   'P 1'
_cell_length_a   5.88150900
_cell_length_b   6.84873283
_cell_length_c   23.33243602
_cell_angle_alpha   86.89771323
_cell_angle_beta   82.75934553
_cell_angle_gamma   64.57136242
_symmetry_Int_Tables_number   1
_chemical_formula_structural   Rb2TaAgS2
_chemical_formula_sum   'Rb8 Ta4 Ag4 S8'
_cell_volume   842.03037612
_cell_formula_units_Z   4
loop_
 _symmetry_equiv_pos_site_id
 _symmetry_equiv_pos_as_xyz
  1  'x, y, z'
loop_
 _atom_site_type_symbol
 _atom_site_label
 _atom_site_symmetry_multiplicity
 _atom_site_fract_x
 _atom_site_fract_y
 _atom_site_fract_z
 _atom_site_occupancy
  Rb  Rb0  1  0.50438200  0.27168200  0.60796200  1
  Rb  Rb1  1  0.88765600  0.72831800  0.60796200  1
  Rb  Rb2  1  0.22393600  0.27168200  0.39203800  1
  Rb  Rb3  1  0.24561800  0.22831800  0.89203800  1
  Rb  Rb4  1  0.38402600  0.72831800  0.39203800  1
  Rb  Rb5  1  0.86234400  0.77168200  0.89203800  1
  Rb  Rb6  1  0.52606400  0.22831800  0.10796200  1
  Rb  Rb7  1  0.36597400  0.77168200  0.10796200  1
  Ta  Ta0  1  0.87500000  0.25000000  0.25000000  1
  Ta  Ta1  1  0.87500000  0.75000000  0.25000000  1
  Ta  Ta2  1  0.87500000  0.25000000  0.75000000  1
  Ta  Ta3  1  0.37500000  0.75000000  0.75000000  1
  Ag  Ag0  1  0.37500000  0.25000000  0.25000000  1
  Ag  Ag1  1  0.37500000  0.75000000  0.25000000  1
  Ag  Ag2  1  0.37500000  0.25000000  0.75000000  1
  Ag  Ag3  1  0.87500000  0.75000000  0.75000000  1
  S  S0  1  0.99083600  0.23901000  0.15135000  1
  S  S1  1  0.85781400  0.76099000  0.15135000  1
  S  S2  1  0.77015400  0.23901000  0.84865000  1
  S  S3  1  0.75916400  0.26099000  0.34865000  1
  S  S4  1  0.38119600  0.76099000  0.84865000  1
  S  S5  1  0.89218600  0.73901000  0.34865000  1
  S  S6  1  0.97984600  0.26099000  0.65135000  1
  S  S7  1  0.36880400  0.73901000  0.65135000  1
loop_
_geom_bond_atom_site_label_1
_geom_bond_atom_site_label_2
_geom_bond_distance
_geom_bond_site_symmetry_2
Rb0 S6 3.062688 1_555
Rb0 S7 3.140071 1_555
Rb0 S6 3.153813 1_455
Rb1 S7 3.062688 1_555
Rb1 S6 3.140071 1_555
Rb1 S7 3.153813 1_655
Rb2 S3 3.062688 1_455
Rb2 S5 3.140071 1_455
Rb2 S3 3.153813 1_555
Rb3 S2 3.062688 1_455
Rb3 S4 3.140071 1_545
Rb3 S2 3.153813 1_555
Rb4 S5 3.062688 1_555
Rb4 S3 3.140071 1_555
Rb4 S5 3.153813 1_455
Rb5 S4 3.062688 1_655
Rb5 S2 3.140071 1_565
Rb5 S4 3.153813 1_555
Rb6 S0 3.062688 1_555
Rb6 S1 3.140071 1_545
Rb6 S0 3.153813 1_455
Rb7 S1 3.062688 1_455
Rb7 S0 3.140071 1_465
Rb7 S1 3.153813 1_555
Ag0 Ta0 2.940755 1_555
Ag0 Ta0 2.940755 1_455
Ag0 Rb6 3.315477 1_555
Ag0 Rb2 3.315477 1_555
Ag1 Ta1 2.940755 1_455
Ag1 Ta1 2.940755 1_555
Ag1 Rb4 3.315477 1_555
Ag1 Rb7 3.315477 1_555
Ag2 Ta2 2.940755 1_555
Ag2 Ta2 2.940755 1_455
Ag2 Rb3 3.315477 1_555
Ag2 Rb0 3.315477 1_555
Ag3 Ta3 2.940755 1_655
Ag3 Ta3 2.940755 1_555
Ag3 Rb1 3.315477 1_555
Ag3 Rb5 3.315477 1_555
S0 Ta0 2.312417 1_555
S1 Ta1 2.312417 1_555
S2 Ta2 2.312417 1_555
S3 Ta0 2.312417 1_555
S4 Ta3 2.312417 1_555
S5 Ta1 2.312417 1_555
S6 Ta2 2.312417 1_555
S7 Ta3 2.312417 1_555
