# generated using pymatgen
data_CaLaCrSbO6
_symmetry_space_group_name_H-M   'P 1'
_cell_length_a   5.71561265
_cell_length_b   5.91880619
_cell_length_c   7.85117768
_cell_angle_alpha   90.26687161
_cell_angle_beta   89.99696136
_cell_angle_gamma   85.21729905
_symmetry_Int_Tables_number   1
_chemical_formula_structural   CaLaCrSbO6
_chemical_formula_sum   'Ca2 La2 Cr2 Sb2 O12'
_cell_volume   264.67452486
_cell_formula_units_Z   2
loop_
 _symmetry_equiv_pos_site_id
 _symmetry_equiv_pos_as_xyz
  1  'x, y, z'
loop_
 _atom_site_type_symbol
 _atom_site_label
 _atom_site_symmetry_multiplicity
 _atom_site_fract_x
 _atom_site_fract_y
 _atom_site_fract_z
 _atom_site_occupancy
  Ca  Ca0  1  0.50473000  0.44802200  0.75091200  1
  Ca  Ca1  1  0.98315500  0.05627800  0.25068500  1
  La  La0  1  0.01792600  0.94549100  0.74970400  1
  La  La1  1  0.49847000  0.55506400  0.25250300  1
  Cr  Cr0  1  0.50271300  0.00559500  0.49867800  1
  Cr  Cr1  1  0.99793800  0.49783800  0.99988200  1
  Sb  Sb0  1  0.50147800  0.00342400  0.00019600  1
  Sb  Sb1  1  0.99895000  0.49547500  0.50124400  1
  O  O0  1  0.09603300  0.45841700  0.25372000  1
  O  O1  1  0.19803300  0.19229500  0.95088700  1
  O  O2  1  0.18486500  0.19479000  0.54672500  1
  O  O3  1  0.33612300  0.72643700  0.94178600  1
  O  O4  1  0.27960800  0.66591100  0.54868900  1
  O  O5  1  0.39647400  0.96287100  0.24538100  1
  O  O6  1  0.59992300  0.04595500  0.75398500  1
  O  O7  1  0.72012000  0.32321000  0.45455800  1
  O  O8  1  0.66872000  0.27746200  0.05646200  1
  O  O9  1  0.81095200  0.79623300  0.44835500  1
  O  O10  1  0.80515800  0.81235700  0.04873900  1
  O  O11  1  0.89863100  0.53687600  0.74691000  1
loop_
_geom_bond_atom_site_label_1
_geom_bond_atom_site_label_2
_geom_bond_distance
_geom_bond_site_symmetry_2
Ca0 O11 2.354547 1_555
Ca0 O4 2.362655 1_555
Ca0 O3 2.366857 1_555
Ca0 O6 2.396764 1_555
Ca0 O7 2.703146 1_555
Ca0 O8 2.741809 1_556
Ca0 O1 2.879786 1_555
Ca0 O2 2.931505 1_555
Ca1 O5 2.381212 1_645
Ca1 O10 2.420121 1_545
Ca1 O9 2.453767 1_545
Ca1 O0 2.517463 1_655
Ca1 O8 2.625939 1_555
Ca1 O7 2.626506 1_555
Ca1 O2 2.746566 1_655
Ca1 O1 2.806944 1_654
La0 O6 2.413633 1_465
La0 O2 2.425661 1_565
La0 O1 2.432680 1_565
La0 O11 2.566922 1_455
La0 O3 2.624542 1_555
La0 O4 2.651182 1_555
La0 O10 2.790809 1_456
La0 O9 2.816503 1_455
La1 O8 2.392747 1_555
La1 O7 2.394851 1_555
La1 O0 2.416108 1_555
La1 O5 2.436327 1_555
La1 O4 2.692846 1_555
La1 O3 2.776211 1_554
La1 O9 2.827870 1_555
La1 O10 2.901496 1_555
Cr0 O2 2.086483 1_555
Cr0 O6 2.097957 1_555
Cr0 O5 2.099657 1_545
Cr0 O9 2.104000 1_545
Cr0 O7 2.365093 1_555
Cr0 O4 2.501457 1_545
Cr1 O11 2.074316 1_555
Cr1 O0 2.079228 1_656
Cr1 O1 2.091653 1_655
Cr1 O10 2.116117 1_556
Cr1 O8 2.419507 1_556
Cr1 O3 2.493342 1_655
O0 Sb1 2.026884 1_455
O1 Sb0 2.021979 1_556
O2 Sb1 2.028445 1_455
O3 Sb0 2.010642 1_566
O4 Sb1 1.999009 1_455
O5 Sb0 2.037548 1_565
O6 Sb0 2.035848 1_556
O7 Sb1 1.995323 1_555
O8 Sb0 1.997898 1_555
O9 Sb1 2.045446 1_555
O10 Sb0 2.028211 1_565
O11 Sb1 2.020151 1_555
