# generated using pymatgen
data_Sm(SeO4)2
_symmetry_space_group_name_H-M   'P 1'
_cell_length_a   6.59712400
_cell_length_b   7.15670400
_cell_length_c   16.15606100
_cell_angle_alpha   90.00000000
_cell_angle_beta   90.00000000
_cell_angle_gamma   90.00000000
_symmetry_Int_Tables_number   1
_chemical_formula_structural   Sm(SeO4)2
_chemical_formula_sum   'Sm4 Se8 O32'
_cell_volume   762.78683108
_cell_formula_units_Z   4
loop_
 _symmetry_equiv_pos_site_id
 _symmetry_equiv_pos_as_xyz
  1  'x, y, z'
loop_
 _atom_site_type_symbol
 _atom_site_label
 _atom_site_symmetry_multiplicity
 _atom_site_fract_x
 _atom_site_fract_y
 _atom_site_fract_z
 _atom_site_occupancy
  Sm  Sm0  1  0.11802300  0.40437200  0.22360200  1
  Sm  Sm1  1  0.38197700  0.59562800  0.72360200  1
  Sm  Sm2  1  0.88197700  0.90437200  0.27639800  1
  Sm  Sm3  1  0.61802300  0.09562800  0.77639800  1
  Se  Se0  1  0.14388700  0.11568400  0.71674600  1
  Se  Se1  1  0.35611300  0.88431600  0.21674600  1
  Se  Se2  1  0.85611300  0.61568400  0.78325400  1
  Se  Se3  1  0.64388700  0.38431600  0.28325400  1
  Se  Se4  1  0.13505900  0.22225000  0.44249100  1
  Se  Se5  1  0.36494100  0.77775000  0.94249100  1
  Se  Se6  1  0.86494100  0.72225000  0.05750900  1
  Se  Se7  1  0.63505900  0.27775000  0.55750900  1
  O  O0  1  0.19234600  0.07361700  0.22970000  1
  O  O1  1  0.30765400  0.92638300  0.72970000  1
  O  O2  1  0.80765400  0.57361700  0.27030000  1
  O  O3  1  0.69234600  0.42638300  0.77030000  1
  O  O4  1  0.46992000  0.40888500  0.20662000  1
  O  O5  1  0.03008000  0.59111500  0.70662000  1
  O  O6  1  0.53008000  0.90888500  0.29338000  1
  O  O7  1  0.96992000  0.09111500  0.79338000  1
  O  O8  1  0.99652800  0.29320300  0.52529000  1
  O  O9  1  0.50347200  0.70679700  0.02529000  1
  O  O10  1  0.00347200  0.79320300  0.97471000  1
  O  O11  1  0.49652800  0.20679700  0.47471000  1
  O  O12  1  0.18505700  0.72221200  0.25929300  1
  O  O13  1  0.31494300  0.27778800  0.75929300  1
  O  O14  1  0.81494300  0.22221200  0.24070700  1
  O  O15  1  0.68505700  0.77778800  0.74070700  1
  O  O16  1  0.99803600  0.54517000  0.10071200  1
  O  O17  1  0.50196400  0.45483000  0.60071200  1
  O  O18  1  0.00196400  0.04517000  0.39928800  1
  O  O19  1  0.49803600  0.95483000  0.89928800  1
  O  O20  1  0.12346900  0.17858100  0.03919500  1
  O  O21  1  0.37653100  0.82141900  0.53919500  1
  O  O22  1  0.87653100  0.67858100  0.46080500  1
  O  O23  1  0.62346900  0.32141900  0.96080500  1
  O  O24  1  0.15811200  0.39208300  0.37057800  1
  O  O25  1  0.34188800  0.60791700  0.87057800  1
  O  O26  1  0.84188800  0.89208300  0.12942200  1
  O  O27  1  0.65811200  0.10791700  0.62942200  1
  O  O28  1  0.61063300  0.23512400  0.02647800  1
  O  O29  1  0.88936700  0.76487600  0.52647800  1
  O  O30  1  0.38936700  0.73512400  0.47352200  1
  O  O31  1  0.11063300  0.26487600  0.97352200  1
loop_
_geom_bond_atom_site_label_1
_geom_bond_atom_site_label_2
_geom_bond_distance
_geom_bond_site_symmetry_2
O0 Se1 1.745408 1_545
O0 Sm0 2.419371 1_555
O0 Sm2 2.495742 1_445
O1 Se0 1.745408 1_565
O1 Sm1 2.419371 1_555
O1 Sm3 2.495742 1_565
O2 Se3 1.745408 1_555
O2 Sm2 2.419371 1_555
O2 Sm0 2.495742 1_655
O3 Se2 1.745408 1_555
O3 Sm3 2.419371 1_555
O3 Sm1 2.495742 1_555
O4 Se3 1.697348 1_555
O4 Sm0 2.337887 1_555
O5 Se2 1.697348 1_455
O5 Sm1 2.337887 1_555
O6 Se1 1.697348 1_555
O6 Sm2 2.337887 1_555
O7 Se0 1.697348 1_655
O7 Sm3 2.337887 1_555
O8 Se4 1.697802 1_655
O8 Se7 2.443311 1_555
O9 Se5 1.697802 1_554
O9 Se6 2.443311 1_555
O10 Se6 1.697802 1_456
O10 Se5 2.443311 1_555
O11 Se7 1.697802 1_555
O11 Se4 2.443311 1_555
O12 Se1 1.758372 1_555
O12 Sm0 2.387942 1_555
O12 Sm2 2.402860 1_455
O13 Se0 1.758372 1_555
O13 Sm1 2.387942 1_555
O13 Sm3 2.402860 1_555
O14 Se3 1.758372 1_555
O14 Sm2 2.387942 1_545
O14 Sm0 2.402860 1_655
O15 Se2 1.758372 1_555
O15 Sm3 2.387942 1_565
O15 Sm1 2.402860 1_555
O16 Se6 1.692402 1_555
O16 Sm0 2.363012 1_655
O17 Se7 1.692402 1_555
O17 Sm1 2.363012 1_555
O18 Se4 1.692402 1_555
O18 Sm2 2.363012 1_445
O19 Se5 1.692402 1_555
O19 Sm3 2.363012 1_565
O20 O31 1.230586 1_554
O21 O30 1.230586 1_555
O22 O29 1.230586 1_555
O23 O28 1.230586 1_556
O24 Se4 1.688279 1_555
O24 Sm0 2.390854 1_555
O25 Se5 1.688279 1_555
O25 Sm1 2.390854 1_555
O26 Se6 1.688279 1_555
O26 Sm2 2.390854 1_555
O27 Se7 1.688279 1_555
O27 Sm3 2.390854 1_555
