# generated using pymatgen
data_Rb2In(IO3)6
_symmetry_space_group_name_H-M   'P 1'
_cell_length_a   7.89075900
_cell_length_b   7.89765252
_cell_length_c   7.90381262
_cell_angle_alpha   98.31134960
_cell_angle_beta   97.30345061
_cell_angle_gamma   97.39257557
_symmetry_Int_Tables_number   1
_chemical_formula_structural   Rb2In(IO3)6
_chemical_formula_sum   'Rb2 In1 I6 O18'
_cell_volume   477.96985499
_cell_formula_units_Z   1
loop_
 _symmetry_equiv_pos_site_id
 _symmetry_equiv_pos_as_xyz
  1  'x, y, z'
loop_
 _atom_site_type_symbol
 _atom_site_label
 _atom_site_symmetry_multiplicity
 _atom_site_fract_x
 _atom_site_fract_y
 _atom_site_fract_z
 _atom_site_occupancy
  Rb  Rb0  1  0.16379000  0.16082700  0.67484300  1
  Rb  Rb1  1  0.83621000  0.83917300  0.32515700  1
  In  In0  1  0.50000000  0.50000000  0.00000000  1
  I  I0  1  0.11823200  0.68659800  0.83206900  1
  I  I1  1  0.88176800  0.31340200  0.16793100  1
  I  I2  1  0.30268100  0.67006600  0.36992800  1
  I  I3  1  0.69731900  0.32993400  0.63007200  1
  I  I4  1  0.33480200  0.12971300  0.20722600  1
  I  I5  1  0.66519800  0.87028700  0.79277400  1
  O  O0  1  0.27429900  0.52966400  0.82539900  1
  O  O1  1  0.72570100  0.47033600  0.17460100  1
  O  O2  1  0.27609700  0.88531500  0.87582500  1
  O  O3  1  0.72390300  0.11468500  0.12417500  1
  O  O4  1  0.06610500  0.66337700  0.59648700  1
  O  O5  1  0.93389500  0.33662300  0.40351300  1
  O  O6  1  0.30593900  0.90196400  0.42902300  1
  O  O7  1  0.69406100  0.09803600  0.57097700  1
  O  O8  1  0.45905900  0.68980700  0.21411300  1
  O  O9  1  0.54094100  0.31019300  0.78588700  1
  O  O10  1  0.10643500  0.61296700  0.20797300  1
  O  O11  1  0.89356500  0.38703300  0.79202700  1
  O  O12  1  0.10102100  0.08722400  0.19517700  1
  O  O13  1  0.89897900  0.91277600  0.80482300  1
  O  O14  1  0.39622900  0.28843300  0.40576400  1
  O  O15  1  0.60377100  0.71156700  0.59423600  1
  O  O16  1  0.32731000  0.28499400  0.05249500  1
  O  O17  1  0.67269000  0.71500600  0.94750500  1
loop_
_geom_bond_atom_site_label_1
_geom_bond_atom_site_label_2
_geom_bond_distance
_geom_bond_site_symmetry_2
In0 O17 2.159706 1_554
In0 O16 2.159706 1_555
In0 O1 2.169579 1_555
In0 O0 2.169579 1_554
In0 O8 2.178435 1_555
In0 O9 2.178435 1_554
I0 O4 1.832209 1_555
I0 O2 1.834338 1_555
I0 O0 1.856305 1_555
I1 O5 1.832209 1_555
I1 O3 1.834338 1_555
I1 O1 1.856305 1_555
I2 O6 1.819492 1_555
I2 O10 1.841005 1_555
I2 O8 1.859021 1_555
I3 O7 1.819492 1_555
I3 O11 1.841005 1_555
I3 O9 1.859021 1_555
I4 O12 1.819733 1_555
I4 O14 1.830366 1_555
I4 O16 1.853903 1_555
I5 O13 1.819733 1_555
I5 O15 1.830366 1_555
I5 O17 1.853903 1_555
O0 Rb0 2.956698 1_555
O1 Rb1 2.956698 1_555
O2 Rb0 3.029990 1_565
O3 Rb1 3.029990 1_545
O4 Rb1 3.215153 1_455
O5 Rb0 3.215153 1_655
O6 Rb0 3.034550 1_565
O7 Rb1 3.034550 1_545
O8 Rb1 3.025173 1_555
O9 Rb0 3.025173 1_555
O10 Rb1 3.098396 1_455
O11 Rb0 3.098396 1_655
O12 Rb1 3.055108 1_445
O13 Rb0 3.055108 1_665
O14 Rb0 3.168349 1_555
O15 Rb1 3.168349 1_555
O16 Rb0 3.063499 1_554
O17 Rb1 3.063499 1_556
