# generated using pymatgen
data_Dy2Mn9(CrGe4)3
_symmetry_space_group_name_H-M   'P 1'
_cell_length_a   5.12817591
_cell_length_b   5.12973327
_cell_length_c   16.45203712
_cell_angle_alpha   89.99782202
_cell_angle_beta   90.01322847
_cell_angle_gamma   119.81567053
_symmetry_Int_Tables_number   1
_chemical_formula_structural   Dy2Mn9(CrGe4)3
_chemical_formula_sum   'Dy2 Mn9 Cr3 Ge12'
_cell_volume   375.50149816
_cell_formula_units_Z   1
loop_
 _symmetry_equiv_pos_site_id
 _symmetry_equiv_pos_as_xyz
  1  'x, y, z'
loop_
 _atom_site_type_symbol
 _atom_site_label
 _atom_site_symmetry_multiplicity
 _atom_site_fract_x
 _atom_site_fract_y
 _atom_site_fract_z
 _atom_site_occupancy
  Dy  Dy0  1  0.99997900  0.00003300  0.99942800  1
  Dy  Dy1  1  0.99991800  0.99996100  0.49999100  1
  Mn  Mn0  1  0.50001500  0.50001500  0.62541700  1
  Mn  Mn1  1  0.99995200  0.49991500  0.12552900  1
  Mn  Mn2  1  0.99993300  0.49999600  0.62549900  1
  Mn  Mn3  1  0.50002500  0.00006500  0.37466900  1
  Mn  Mn4  1  0.50009900  0.00007200  0.87479900  1
  Mn  Mn5  1  0.49985500  0.49993600  0.37554000  1
  Mn  Mn6  1  0.49991600  0.49999900  0.87420000  1
  Mn  Mn7  1  0.00005100  0.49991300  0.37425900  1
  Mn  Mn8  1  0.99993800  0.49991100  0.87500000  1
  Cr  Cr0  1  0.50005200  0.00010600  0.12527300  1
  Cr  Cr1  1  0.50006100  0.99995200  0.62488200  1
  Cr  Cr2  1  0.50006100  0.49993500  0.12516900  1
  Ge  Ge0  1  0.00000800  0.99999700  0.17320200  1
  Ge  Ge1  1  0.99999500  0.99999200  0.67296500  1
  Ge  Ge2  1  0.00007500  0.00010800  0.32713600  1
  Ge  Ge3  1  0.00002600  0.00003700  0.82667200  1
  Ge  Ge4  1  0.33204500  0.66469900  0.25151700  1
  Ge  Ge5  1  0.33283400  0.66730600  0.75118900  1
  Ge  Ge6  1  0.66788200  0.33534400  0.25152900  1
  Ge  Ge7  1  0.66702100  0.33265900  0.75118200  1
  Ge  Ge8  1  0.33305900  0.66650200  0.49920100  1
  Ge  Ge9  1  0.33330300  0.66652700  0.99827900  1
  Ge  Ge10  1  0.66662400  0.33350100  0.99826800  1
  Ge  Ge11  1  0.66687000  0.33352100  0.49920500  1
loop_
_geom_bond_atom_site_label_1
_geom_bond_atom_site_label_2
_geom_bond_distance
_geom_bond_site_symmetry_2
Dy0 Ge3 2.842188 1_655
Dy0 Ge0 2.858936 1_646
Dy0 Ge10 2.959202 1_555
Dy0 Ge9 2.959238 1_645
Dy0 Ge10 2.966227 1_655
Dy0 Ge9 2.966355 1_545
Dy0 Ge9 2.966447 1_655
Dy0 Ge10 2.966614 1_545
Dy1 Ge2 2.843817 1_665
Dy1 Ge1 2.845775 1_555
Dy1 Ge8 2.958185 1_655
Dy1 Ge11 2.958216 1_565
Dy1 Ge11 2.966168 1_555
Dy1 Ge8 2.966621 1_665
Dy1 Ge8 2.967136 1_555
Dy1 Ge11 2.967557 1_665
Dy1 Mn2 3.292578 1_555
Dy1 Mn2 3.292920 1_565
Dy1 Mn0 3.297160 1_665
Dy1 Mn0 3.297174 1_555
Mn0 Mn2 2.563716 1_555
Mn0 Mn2 2.564461 1_455
Cr0 Ge6 2.557403 1_555
Cr0 Ge4 2.557899 1_545
Cr0 Ge10 2.562876 1_554
Cr0 Ge9 2.562988 1_544
Cr0 Cr2 2.563967 1_555
Cr0 Cr2 2.565767 1_545
Cr0 Mn1 2.570873 1_555
Cr0 Mn1 2.572372 1_445
Cr0 Ge0 2.682473 1_645
Cr0 Ge0 2.682721 1_545
Cr0 Dy0 3.295397 1_454
Cr0 Dy0 3.295848 1_554
Cr1 Ge8 2.545078 1_555
Cr1 Ge11 2.545546 1_565
Cr1 Ge7 2.551442 1_565
Cr1 Ge5 2.551600 1_555
Cr1 Mn0 2.564441 1_555
Cr1 Mn0 2.565323 1_565
Cr1 Mn2 2.571422 1_565
Cr1 Mn2 2.571857 1_455
Cr1 Ge1 2.682747 1_555
Cr1 Ge1 2.683938 1_455
Cr2 Ge6 2.548895 1_555
Cr2 Ge4 2.550056 1_555
Cr2 Ge10 2.558022 1_554
Cr2 Ge9 2.558405 1_554
Cr2 Mn1 2.563585 1_555
Cr2 Mn1 2.564604 1_455
Cr2 Ge0 2.690175 1_655
Cr2 Ge0 2.690421 1_545
Cr2 Dy0 3.300071 1_454
Cr2 Dy0 3.300755 1_564
Ge0 Ge2 2.532528 1_565
Ge0 Mn1 2.681812 1_465
Ge0 Mn1 2.682401 1_455
Ge1 Ge3 2.528793 1_665
Ge1 Mn2 2.680970 1_555
Ge1 Mn2 2.681255 1_565
Ge1 Mn0 2.687716 1_555
Ge1 Mn0 2.688215 1_665
Ge2 Mn7 2.678604 1_555
Ge2 Mn7 2.680345 1_545
Ge2 Mn3 2.680376 1_555
Ge2 Mn3 2.681002 1_455
Ge2 Mn5 2.690988 1_555
Ge2 Mn5 2.693207 1_445
Ge3 Mn4 2.683458 1_455
Ge3 Mn4 2.683654 1_555
Ge3 Mn8 2.684903 1_455
Ge3 Mn8 2.685652 1_445
Ge3 Mn6 2.687362 1_555
Ge3 Mn6 2.688377 1_445
Ge4 Mn7 2.502251 1_555
Ge4 Mn3 2.516443 1_565
Ge4 Mn5 2.518056 1_555
Ge4 Mn1 2.545219 1_455
Ge5 Mn6 2.509332 1_555
Ge5 Mn4 2.515692 1_565
Ge5 Mn8 2.518845 1_455
Ge5 Mn2 2.543337 1_455
Ge5 Mn0 2.546693 1_555
Ge6 Mn7 2.501970 1_655
Ge6 Mn3 2.516268 1_555
Ge6 Mn5 2.518393 1_555
Ge6 Mn1 2.545909 1_555
Ge7 Mn6 2.509944 1_555
Ge7 Mn4 2.515527 1_555
Ge7 Mn8 2.518406 1_555
Ge7 Mn2 2.543860 1_555
Ge7 Mn0 2.545941 1_555
Ge8 Mn5 2.515653 1_555
Ge8 Mn3 2.530254 1_565
Ge8 Mn7 2.533610 1_555
Ge8 Mn0 2.549605 1_555
Ge8 Mn2 2.552632 1_455
Ge9 Mn8 2.512403 1_455
Ge9 Mn4 2.516211 1_565
Ge9 Mn6 2.520642 1_555
Ge9 Mn1 2.565979 1_456
Ge10 Mn8 2.512706 1_555
Ge10 Mn4 2.515544 1_555
Ge10 Mn6 2.520293 1_555
Ge10 Mn1 2.565475 1_556
Ge11 Mn5 2.515511 1_555
Ge11 Mn3 2.529813 1_555
Ge11 Mn7 2.534698 1_655
Ge11 Mn0 2.549684 1_555
Ge11 Mn2 2.551827 1_555
