# generated using pymatgen
data_BiH6C3(S2N)3
_symmetry_space_group_name_H-M   'P 1'
_cell_length_a   6.23691900
_cell_length_b   8.52385002
_cell_length_c   12.93364062
_cell_angle_alpha   102.91839140
_cell_angle_beta   95.21490986
_cell_angle_gamma   94.20183725
_symmetry_Int_Tables_number   1
_chemical_formula_structural   BiH6C3(S2N)3
_chemical_formula_sum   'Bi2 H12 C6 S12 N6'
_cell_volume   664.29868962
_cell_formula_units_Z   2
loop_
 _symmetry_equiv_pos_site_id
 _symmetry_equiv_pos_as_xyz
  1  'x, y, z'
loop_
 _atom_site_type_symbol
 _atom_site_label
 _atom_site_symmetry_multiplicity
 _atom_site_fract_x
 _atom_site_fract_y
 _atom_site_fract_z
 _atom_site_occupancy
  Bi  Bi0  1  0.96079100  0.35809700  0.81253800  1
  Bi  Bi1  1  0.03920900  0.64190300  0.18746200  1
  H  H0  1  0.46182500  0.75118600  0.66329900  1
  H  H1  1  0.53817500  0.24881400  0.33670100  1
  H  H2  1  0.63704500  0.70789900  0.76443200  1
  H  H3  1  0.36295500  0.29210100  0.23556800  1
  H  H4  1  0.66411600  0.03807200  0.08053700  1
  H  H5  1  0.33588400  0.96192800  0.91946300  1
  H  H6  1  0.90712000  0.13117500  0.15292000  1
  H  H7  1  0.09288000  0.86882500  0.84708000  1
  H  H8  1  0.68990400  0.86267600  0.50381300  1
  H  H9  1  0.31009600  0.13732400  0.49618700  1
  H  H10  1  0.92376900  0.80255700  0.56475600  1
  H  H11  1  0.07623100  0.19744300  0.43524400  1
  C  C0  1  0.33700500  0.58120100  0.73764100  1
  C  C1  1  0.66299500  0.41879900  0.26235900  1
  C  C2  1  0.84853800  0.17742500  0.00428700  1
  C  C3  1  0.15146200  0.82257500  0.99571300  1
  C  C4  1  0.86055800  0.03766000  0.62344100  1
  C  C5  1  0.13944200  0.96234000  0.37655900  1
  S  S0  1  0.39734000  0.47819400  0.83477600  1
  S  S1  1  0.60266000  0.52180600  0.16522400  1
  S  S2  1  0.67432300  0.13770100  0.89016000  1
  S  S3  1  0.32567700  0.86229900  0.10984000  1
  S  S4  1  0.09058000  0.29796700  0.01786400  1
  S  S5  1  0.90942000  0.70203300  0.98213600  1
  S  S6  1  0.68847800  0.18172500  0.61766300  1
  S  S7  1  0.31152200  0.81827500  0.38233700  1
  S  S8  1  0.09960500  0.08059700  0.70812200  1
  S  S9  1  0.90039500  0.91940300  0.29187800  1
  S  S10  1  0.08798600  0.55455200  0.66510500  1
  S  S11  1  0.91201400  0.44544800  0.33489500  1
  N  N0  1  0.49280100  0.68425200  0.71778100  1
  N  N1  1  0.50719900  0.31574800  0.28221900  1
  N  N2  1  0.80230100  0.11283800  0.08528400  1
  N  N3  1  0.19769900  0.88716200  0.91471600  1
  N  N4  1  0.81679700  0.88709200  0.56254100  1
  N  N5  1  0.18320300  0.11290800  0.43745900  1
loop_
_geom_bond_atom_site_label_1
_geom_bond_atom_site_label_2
_geom_bond_distance
_geom_bond_site_symmetry_2
Bi0 S8 2.693078 1_655
Bi0 S0 2.803824 1_655
Bi0 S4 2.872081 1_656
Bi0 S2 2.899451 1_555
Bi0 S10 2.928747 1_655
Bi0 S6 2.941214 1_555
Bi1 S9 2.693078 1_455
Bi1 S1 2.803824 1_455
Bi1 S5 2.872081 1_454
Bi1 S3 2.899451 1_555
Bi1 S11 2.928747 1_455
Bi1 S7 2.941214 1_555
H0 N0 1.015150 1_555
H1 N1 1.015150 1_555
H2 N0 1.017056 1_555
H3 N1 1.017056 1_555
H4 N2 1.022299 1_555
H5 N3 1.022299 1_555
H6 N2 1.018326 1_555
H7 N3 1.018326 1_555
H8 N4 1.021033 1_555
H9 N5 1.021033 1_555
H10 N4 1.020470 1_555
H11 N5 1.020470 1_555
C0 N0 1.342723 1_555
C0 S10 1.712319 1_555
C0 S0 1.716542 1_555
C1 N1 1.342723 1_555
C1 S11 1.712319 1_555
C1 S1 1.716542 1_555
C2 N2 1.331616 1_555
C2 S2 1.704446 1_554
C2 S4 1.734727 1_655
C3 N3 1.331616 1_555
C3 S3 1.704446 1_556
C3 S5 1.734727 1_455
C4 N4 1.341512 1_545
C4 S6 1.698525 1_555
C4 S8 1.732136 1_655
C5 N5 1.341512 1_565
C5 S7 1.698525 1_555
C5 S9 1.732136 1_455
