# generated using pymatgen
data_Mg3(CrN2)2
_symmetry_space_group_name_H-M   'P 1'
_cell_length_a   6.25093202
_cell_length_b   7.36620034
_cell_length_c   5.43041318
_cell_angle_alpha   89.99999435
_cell_angle_beta   90.42212266
_cell_angle_gamma   126.10084001
_symmetry_Int_Tables_number   1
_chemical_formula_structural   Mg3(CrN2)2
_chemical_formula_sum   'Mg6 Cr4 N8'
_cell_volume   202.02466861
_cell_formula_units_Z   2
loop_
 _symmetry_equiv_pos_site_id
 _symmetry_equiv_pos_as_xyz
  1  'x, y, z'
loop_
 _atom_site_type_symbol
 _atom_site_label
 _atom_site_symmetry_multiplicity
 _atom_site_fract_x
 _atom_site_fract_y
 _atom_site_fract_z
 _atom_site_occupancy
  Mg  Mg0  1  0.22238000  0.98771400  0.97798400  1
  Mg  Mg1  1  0.77762000  0.76533400  0.52201600  1
  Mg  Mg2  1  0.77762000  0.01228600  0.02201600  1
  Mg  Mg3  1  0.22238000  0.23466600  0.47798400  1
  Mg  Mg4  1  0.00000000  0.59512400  0.75000000  1
  Mg  Mg5  1  0.00000000  0.40487600  0.25000000  1
  Cr  Cr0  1  0.60917400  0.17851900  0.59954500  1
  Cr  Cr1  1  0.39082600  0.56934400  0.90045500  1
  Cr  Cr2  1  0.39082600  0.82148100  0.40045500  1
  Cr  Cr3  1  0.60917400  0.43065600  0.09954500  1
  N  N0  1  0.22195600  0.94619800  0.56678000  1
  N  N1  1  0.77804400  0.72424300  0.93322000  1
  N  N2  1  0.77804400  0.05380200  0.43322000  1
  N  N3  1  0.22195600  0.27575700  0.06678000  1
  N  N4  1  0.71034000  0.26452900  0.93488600  1
  N  N5  1  0.28966000  0.55418800  0.56511400  1
  N  N6  1  0.28966000  0.73547100  0.06511400  1
  N  N7  1  0.71034000  0.44581200  0.43488600  1
loop_
_geom_bond_atom_site_label_1
_geom_bond_atom_site_label_2
_geom_bond_distance
_geom_bond_site_symmetry_2
Mg0 N3 2.177413 1_566
Mg0 N6 2.184286 1_556
Mg0 N0 2.253622 1_555
Mg0 N1 2.275533 1_455
Mg0 N4 2.489497 1_565
Mg1 N2 2.177421 1_565
Mg1 N7 2.184279 1_555
Mg1 N1 2.253621 1_555
Mg1 N0 2.275534 1_655
Mg1 N5 2.489496 1_555
Mg2 N1 2.177413 1_544
Mg2 N4 2.184286 1_554
Mg2 N2 2.253622 1_555
Mg2 N3 2.275533 1_655
Mg2 N6 2.489497 1_545
Mg3 N0 2.177421 1_545
Mg3 N5 2.184279 1_555
Mg3 N3 2.253621 1_555
Mg3 N2 2.275534 1_455
Mg3 N7 2.489496 1_555
Mg4 N7 2.241409 1_455
Mg4 N6 2.241409 1_556
Mg4 N4 2.246677 1_455
Mg4 N5 2.246682 1_555
Mg4 N0 2.322692 1_555
Mg4 N1 2.322698 1_455
Mg5 N5 2.241409 1_555
Mg5 N4 2.241409 1_454
Mg5 N6 2.246677 1_555
Mg5 N7 2.246682 1_455
Mg5 N2 2.322692 1_455
Mg5 N3 2.322698 1_555
Cr0 N7 1.901895 1_555
Cr0 N4 1.904834 1_555
Cr0 N2 1.982650 1_555
Cr0 N0 1.982771 1_545
Cr1 N6 1.901895 1_556
Cr1 N5 1.904834 1_555
Cr1 N3 1.982650 1_556
Cr1 N1 1.982769 1_555
Cr2 N5 1.901895 1_555
Cr2 N6 1.904834 1_555
Cr2 N0 1.982650 1_555
Cr2 N2 1.982771 1_565
Cr3 N4 1.901895 1_554
Cr3 N7 1.904834 1_555
Cr3 N1 1.982650 1_554
Cr3 N3 1.982769 1_555
