# generated using pymatgen
data_Cs4InSbCl12
_symmetry_space_group_name_H-M   'P 1'
_cell_length_a   7.67695800
_cell_length_b   7.67695800
_cell_length_c   10.67217000
_cell_angle_alpha   90.00000000
_cell_angle_beta   90.00000000
_cell_angle_gamma   90.00000000
_symmetry_Int_Tables_number   1
_chemical_formula_structural   Cs4InSbCl12
_chemical_formula_sum   'Cs4 In1 Sb1 Cl12'
_cell_volume   628.97164014
_cell_formula_units_Z   1
loop_
 _symmetry_equiv_pos_site_id
 _symmetry_equiv_pos_as_xyz
  1  'x, y, z'
loop_
 _atom_site_type_symbol
 _atom_site_label
 _atom_site_symmetry_multiplicity
 _atom_site_fract_x
 _atom_site_fract_y
 _atom_site_fract_z
 _atom_site_occupancy
  Cs  Cs0  1  0.50000000  0.00000000  0.78136400  1
  Cs  Cs1  1  0.00000000  0.50000000  0.21863600  1
  Cs  Cs2  1  0.50000000  0.00000000  0.21863600  1
  Cs  Cs3  1  0.00000000  0.50000000  0.78136400  1
  In  In0  1  0.00000000  0.00000000  0.00000000  1
  Sb  Sb0  1  0.50000000  0.50000000  0.50000000  1
  Cl  Cl0  1  0.00000000  0.00000000  0.76058200  1
  Cl  Cl1  1  0.50000000  0.50000000  0.27396100  1
  Cl  Cl2  1  0.72215500  0.72215500  0.50000000  1
  Cl  Cl3  1  0.23607400  0.23607400  0.00000000  1
  Cl  Cl4  1  0.72215500  0.27784500  0.50000000  1
  Cl  Cl5  1  0.23607400  0.76392600  0.00000000  1
  Cl  Cl6  1  0.00000000  0.00000000  0.23941800  1
  Cl  Cl7  1  0.50000000  0.50000000  0.72603900  1
  Cl  Cl8  1  0.27784500  0.27784500  0.50000000  1
  Cl  Cl9  1  0.76392600  0.76392600  0.00000000  1
  Cl  Cl10  1  0.27784500  0.72215500  0.50000000  1
  Cl  Cl11  1  0.76392600  0.23607400  0.00000000  1
loop_
_geom_bond_atom_site_label_1
_geom_bond_atom_site_label_2
_geom_bond_distance
_geom_bond_site_symmetry_2
Cl0 In0 2.555110 1_556
Cl0 Cs0 3.844881 1_555
Cl0 Cs0 3.844881 1_455
Cl0 Cs3 3.844881 1_545
Cl0 Cs3 3.844881 1_555
Cl1 Sb0 2.412327 1_555
Cl1 Cs1 3.883624 1_655
Cl1 Cs2 3.883624 1_555
Cl1 Cs1 3.883624 1_555
Cl1 Cs2 3.883624 1_565
Cl2 Sb0 2.411905 1_555
Cl2 Cs0 4.058934 1_565
Cl2 Cs3 4.058934 1_655
Cl2 Cs1 4.058934 1_655
Cl2 Cs2 4.058934 1_565
Cl3 In0 2.563022 1_555
Cl3 Cs2 3.582486 1_555
Cl3 Cs1 3.582486 1_555
Cl3 Cs3 3.582486 1_554
Cl3 Cs0 3.582486 1_554
Cl4 Sb0 2.411905 1_555
Cl4 Cs0 4.058934 1_555
Cl4 Cs3 4.058934 1_655
Cl4 Cs1 4.058934 1_655
Cl4 Cs2 4.058934 1_555
Cl5 In0 2.563022 1_565
Cl5 Cs2 3.582486 1_565
Cl5 Cs1 3.582486 1_555
Cl5 Cs3 3.582486 1_554
Cl5 Cs0 3.582486 1_564
Cl6 In0 2.555110 1_555
Cl6 Cs1 3.844881 1_555
Cl6 Cs1 3.844881 1_545
Cl6 Cs2 3.844881 1_455
Cl6 Cs2 3.844881 1_555
Cl7 Sb0 2.412327 1_555
Cl7 Cs3 3.883624 1_555
Cl7 Cs0 3.883624 1_565
Cl7 Cs3 3.883624 1_655
Cl7 Cs0 3.883624 1_555
Cl8 Sb0 2.411905 1_555
Cl8 Cs3 4.058934 1_555
Cl8 Cs0 4.058934 1_555
Cl8 Cs2 4.058934 1_555
Cl8 Cs1 4.058934 1_555
Cl9 In0 2.563022 1_665
Cl9 Cs2 3.582486 1_565
Cl9 Cs1 3.582486 1_655
Cl9 Cs0 3.582486 1_564
Cl9 Cs3 3.582486 1_654
Cl10 Sb0 2.411905 1_555
Cl10 Cs0 4.058934 1_565
Cl10 Cs3 4.058934 1_555
Cl10 Cs1 4.058934 1_555
Cl10 Cs2 4.058934 1_565
Cl11 In0 2.563022 1_655
Cl11 Cs1 3.582486 1_655
Cl11 Cs2 3.582486 1_555
Cl11 Cs0 3.582486 1_554
Cl11 Cs3 3.582486 1_654
