# generated using pymatgen
data_Nb6Sn5
_symmetry_space_group_name_H-M   'P 1'
_cell_length_a   10.06206234
_cell_length_b   10.06206234
_cell_length_c   10.06206234
_cell_angle_alpha   147.23423987
_cell_angle_beta   125.04891307
_cell_angle_gamma   65.47024754
_symmetry_Int_Tables_number   1
_chemical_formula_structural   Nb6Sn5
_chemical_formula_sum   'Nb12 Sn10'
_cell_volume   446.05915595
_cell_formula_units_Z   2
loop_
 _symmetry_equiv_pos_site_id
 _symmetry_equiv_pos_as_xyz
  1  'x, y, z'
loop_
 _atom_site_type_symbol
 _atom_site_label
 _atom_site_symmetry_multiplicity
 _atom_site_fract_x
 _atom_site_fract_y
 _atom_site_fract_z
 _atom_site_occupancy
  Nb  Nb0  1  0.65406365  0.65406365  0.00000000  1
  Nb  Nb1  1  0.34593635  0.34593635  0.00000000  1
  Nb  Nb2  1  -0.00000000  0.75847338  0.75847338  1
  Nb  Nb3  1  0.00000000  0.24152662  0.24152662  1
  Nb  Nb4  1  0.50000000  0.00000000  0.00000000  1
  Nb  Nb5  1  0.00000000  0.50000000  0.00000000  1
  Nb  Nb6  1  0.00000000  0.00000000  0.50000000  1
  Nb  Nb7  1  0.50000000  0.50000000  0.50000000  1
  Nb  Nb8  1  0.64487439  0.91575143  0.72912295  1
  Nb  Nb9  1  0.18662948  0.91575143  0.27087705  1
  Nb  Nb10  1  0.81337052  0.08424857  0.72912295  1
  Nb  Nb11  1  0.35512561  0.08424857  0.27087705  1
  Sn  Sn0  1  0.83240470  0.83240470  0.00000000  1
  Sn  Sn1  1  0.16759530  0.16759530  0.00000000  1
  Sn  Sn2  1  0.29462313  0.79462313  0.50000000  1
  Sn  Sn3  1  0.70537687  0.20537687  0.50000000  1
  Sn  Sn4  1  0.50000000  0.74449577  0.24449577  1
  Sn  Sn5  1  0.50000000  0.25550423  0.75550423  1
  Sn  Sn6  1  0.29716897  0.60395523  0.69321373  1
  Sn  Sn7  1  0.91074150  0.60395523  0.30678627  1
  Sn  Sn8  1  0.08925850  0.39604477  0.69321373  1
  Sn  Sn9  1  0.70283103  0.39604477  0.30678627  1
loop_
_geom_bond_atom_site_label_1
_geom_bond_atom_site_label_2
_geom_bond_distance
_geom_bond_site_symmetry_2
Nb0 Sn4 2.954243 1_555
Nb0 Sn5 2.954243 1_554
Nb0 Sn3 2.968007 1_554
Nb0 Sn3 2.968007 1_565
Nb0 Sn6 2.972025 1_554
Nb0 Sn7 2.972025 1_555
Nb0 Sn0 3.018957 1_555
Nb0 Nb7 3.168416 1_554
Nb0 Nb4 3.168416 1_565
Nb0 Nb5 3.168416 1_655
Nb0 Nb6 3.168416 1_665
Nb1 Sn5 2.954243 1_554
Nb1 Sn4 2.954243 1_555
Nb1 Sn2 2.968007 1_544
Nb1 Sn2 2.968007 1_555
Nb1 Sn9 2.972025 1_555
Nb1 Sn8 2.972025 1_554
Nb1 Sn1 3.018957 1_555
Nb1 Nb4 3.168416 1_555
Nb1 Nb5 3.168416 1_555
Nb1 Nb7 3.168416 1_555
Nb1 Nb6 3.168416 1_554
Nb2 Nb3 2.741861 1_566
Nb2 Sn7 2.909871 1_455
Nb2 Sn8 2.909871 1_555
Nb2 Sn9 2.909871 1_455
Nb2 Sn6 2.909871 1_555
Nb2 Nb3 2.934245 1_555
Nb2 Sn1 3.150924 1_566
Nb2 Sn0 3.150924 1_456
Nb2 Nb9 3.199784 1_556
Nb2 Nb8 3.199785 1_455
Nb3 Sn7 2.909871 1_455
Nb3 Sn8 2.909871 1_555
Nb3 Sn6 2.909871 1_555
Nb3 Sn9 2.909871 1_455
Nb3 Sn1 3.150924 1_555
Nb3 Sn0 3.150924 1_445
Nb3 Nb8 3.199785 1_444
Nb3 Nb9 3.199786 1_545
Nb4 Sn3 2.823482 1_555
Nb4 Sn2 2.823482 1_544
Nb4 Nb7 2.838053 1_555
Nb4 Nb7 2.838053 1_544
Nb4 Sn6 2.898900 1_544
Nb4 Sn9 2.898900 1_555
Nb4 Sn0 3.057340 1_545
Nb4 Sn1 3.057340 1_555
Nb4 Nb8 3.150230 1_544
Nb5 Sn2 2.823482 1_555
Nb5 Sn3 2.823482 1_454
Nb5 Nb6 2.838053 1_565
Nb5 Nb6 2.838053 1_554
Nb5 Sn8 2.898900 1_554
Nb5 Sn7 2.898900 1_455
Nb5 Sn1 3.057340 1_555
Nb5 Sn0 3.057340 1_455
Nb5 Nb9 3.150236 1_555
Nb6 Sn2 2.823482 1_545
Nb6 Sn3 2.823482 1_455
Nb6 Sn8 2.898900 1_555
Nb6 Sn7 2.898900 1_445
Nb6 Sn1 3.057340 1_556
Nb6 Sn0 3.057340 1_445
Nb6 Nb9 3.150239 1_545
Nb7 Sn3 2.823482 1_555
Nb7 Sn2 2.823482 1_555
Nb7 Sn6 2.898900 1_555
Nb7 Sn9 2.898900 1_555
Nb7 Sn0 3.057340 1_556
Nb7 Sn1 3.057340 1_555
Nb7 Nb8 3.150230 1_555
Nb8 Sn0 2.883723 1_556
Nb8 Sn4 2.943254 1_555
Nb8 Sn5 2.943254 1_565
Nb8 Sn9 2.947165 1_555
Nb8 Sn9 2.947165 1_566
Nb8 Sn2 2.954644 1_555
Nb9 Sn0 2.883732 1_455
Nb9 Sn4 2.943245 1_555
Nb9 Sn5 2.943248 1_565
Nb9 Sn8 2.947165 1_554
Nb9 Sn8 2.947170 1_565
Nb9 Sn2 2.954646 1_555
Nb10 Nb8 2.852311 1_545
Nb10 Sn1 2.883732 1_656
Nb10 Sn5 2.943245 1_555
Nb10 Sn4 2.943248 1_545
Nb10 Sn7 2.947165 1_556
Nb10 Sn7 2.947170 1_545
Nb10 Sn3 2.954646 1_555
Nb10 Nb5 3.150236 1_656
Nb10 Nb6 3.150239 1_655
Nb10 Nb3 3.199784 1_656
Nb10 Nb2 3.199786 1_645
Nb11 Nb9 2.852311 1_545
Nb11 Sn1 2.883723 1_555
Nb11 Sn5 2.943254 1_555
Nb11 Sn4 2.943254 1_545
Nb11 Sn6 2.947165 1_555
Nb11 Sn6 2.947165 1_544
Nb11 Sn3 2.954644 1_555
Nb11 Nb7 3.150230 1_555
Nb11 Nb4 3.150230 1_555
Nb11 Nb3 3.199785 1_555
Nb11 Nb2 3.199785 1_544
Sn4 Sn5 2.775568 1_554
Sn4 Sn5 2.900538 1_565
