# generated using pymatgen
data_Sr5Re3IO15
_symmetry_space_group_name_H-M   'P 1'
_cell_length_a   7.60539900
_cell_length_b   10.85831800
_cell_length_c   19.02156900
_cell_angle_alpha   90.00000000
_cell_angle_beta   90.00000000
_cell_angle_gamma   90.00000000
_symmetry_Int_Tables_number   1
_chemical_formula_structural   Sr5Re3IO15
_chemical_formula_sum   'Sr20 Re12 I4 O60'
_cell_volume   1570.83618404
_cell_formula_units_Z   4
loop_
 _symmetry_equiv_pos_site_id
 _symmetry_equiv_pos_as_xyz
  1  'x, y, z'
loop_
 _atom_site_type_symbol
 _atom_site_label
 _atom_site_symmetry_multiplicity
 _atom_site_fract_x
 _atom_site_fract_y
 _atom_site_fract_z
 _atom_site_occupancy
  Sr  Sr0  1  0.25833600  0.39304500  0.10297000  1
  Sr  Sr1  1  0.74166400  0.60695500  0.89703000  1
  Sr  Sr2  1  0.24166400  0.89304500  0.89703000  1
  Sr  Sr3  1  0.74166400  0.60695500  0.60297000  1
  Sr  Sr4  1  0.75833600  0.10695500  0.10297000  1
  Sr  Sr5  1  0.25833600  0.39304500  0.39703000  1
  Sr  Sr6  1  0.75833600  0.10695500  0.39703000  1
  Sr  Sr7  1  0.24166400  0.89304500  0.60297000  1
  Sr  Sr8  1  0.28617900  0.47518100  0.75000000  1
  Sr  Sr9  1  0.71382100  0.52481900  0.25000000  1
  Sr  Sr10  1  0.21382100  0.97518100  0.25000000  1
  Sr  Sr11  1  0.78617900  0.02481900  0.75000000  1
  Sr  Sr12  1  0.00168400  0.25444000  0.58476000  1
  Sr  Sr13  1  0.99831600  0.74556000  0.41524000  1
  Sr  Sr14  1  0.49831600  0.75444000  0.41524000  1
  Sr  Sr15  1  0.99831600  0.74556000  0.08476000  1
  Sr  Sr16  1  0.50168400  0.24556000  0.58476000  1
  Sr  Sr17  1  0.00168400  0.25444000  0.91524000  1
  Sr  Sr18  1  0.50168400  0.24556000  0.91524000  1
  Sr  Sr19  1  0.49831600  0.75444000  0.08476000  1
  Re  Re0  1  0.22123600  0.14686400  0.75000000  1
  Re  Re1  1  0.77876400  0.85313600  0.25000000  1
  Re  Re2  1  0.27876400  0.64686400  0.25000000  1
  Re  Re3  1  0.72123600  0.35313600  0.75000000  1
  Re  Re4  1  0.20644900  0.55885600  0.55677200  1
  Re  Re5  1  0.79355100  0.44114400  0.44322800  1
  Re  Re6  1  0.29355100  0.05885600  0.44322800  1
  Re  Re7  1  0.79355100  0.44114400  0.05677200  1
  Re  Re8  1  0.70644900  0.94114400  0.55677200  1
  Re  Re9  1  0.20644900  0.55885600  0.94322800  1
  Re  Re10  1  0.70644900  0.94114400  0.94322800  1
  Re  Re11  1  0.29355100  0.05885600  0.05677200  1
  I  I0  1  0.10503000  0.75502100  0.75000000  1
  I  I1  1  0.89497000  0.24497900  0.25000000  1
  I  I2  1  0.39497000  0.25502100  0.25000000  1
  I  I3  1  0.60503000  0.74497900  0.75000000  1
  O  O0  1  0.12544100  0.10705500  0.11413000  1
  O  O1  1  0.87455900  0.89294500  0.88587000  1
  O  O2  1  0.37455900  0.60705500  0.88587000  1
  O  O3  1  0.87455900  0.89294500  0.61413000  1
  O  O4  1  0.62544100  0.39294500  0.11413000  1
  O  O5  1  0.12544100  0.10705500  0.38587000  1
  O  O6  1  0.62544100  0.39294500  0.38587000  1
  O  O7  1  0.37455900  0.60705500  0.61413000  1
  O  O8  1  0.22617300  0.09975900  0.53488900  1
  O  O9  1  0.77382700  0.90024100  0.46511100  1
  O  O10  1  0.27382700  0.59975900  0.46511100  1
  O  O11  1  0.77382700  0.90024100  0.03488900  1
  O  O12  1  0.72617300  0.40024100  0.53488900  1
  O  O13  1  0.22617300  0.09975900  0.96511100  1
  O  O14  1  0.72617300  0.40024100  0.96511100  1
  O  O15  1  0.27382700  0.59975900  0.03488900  1
  O  O16  1  0.41791800  0.06372100  0.75000000  1
  O  O17  1  0.58208200  0.93627900  0.25000000  1
  O  O18  1  0.08208200  0.56372100  0.25000000  1
  O  O19  1  0.91791800  0.43627900  0.75000000  1
  O  O20  1  0.25190200  0.27227900  0.68309000  1
  O  O21  1  0.74809800  0.72772100  0.31691000  1
  O  O22  1  0.24809800  0.77227900  0.31691000  1
  O  O23  1  0.74809800  0.72772100  0.18309000  1
  O  O24  1  0.75190200  0.22772100  0.68309000  1
  O  O25  1  0.25190200  0.27227900  0.81691000  1
  O  O26  1  0.75190200  0.22772100  0.81691000  1
  O  O27  1  0.24809800  0.77227900  0.18309000  1
  O  O28  1  0.03797400  0.48855800  0.61347000  1
  O  O29  1  0.96202600  0.51144200  0.38653000  1
  O  O30  1  0.46202600  0.98855800  0.38653000  1
  O  O31  1  0.96202600  0.51144200  0.11347000  1
  O  O32  1  0.53797400  0.01144200  0.61347000  1
  O  O33  1  0.03797400  0.48855800  0.88653000  1
  O  O34  1  0.53797400  0.01144200  0.88653000  1
  O  O35  1  0.46202600  0.98855800  0.11347000  1
  O  O36  1  0.05676800  0.69292400  0.55066600  1
  O  O37  1  0.94323200  0.30707600  0.44933400  1
  O  O38  1  0.44323200  0.19292400  0.44933400  1
  O  O39  1  0.94323200  0.30707600  0.05066600  1
  O  O40  1  0.55676800  0.80707600  0.55066600  1
  O  O41  1  0.05676800  0.69292400  0.94933400  1
  O  O42  1  0.55676800  0.80707600  0.94933400  1
  O  O43  1  0.44323200  0.19292400  0.05066600  1
  O  O44  1  0.07969600  0.07321500  0.68286400  1
  O  O45  1  0.92030400  0.92678500  0.31713600  1
  O  O46  1  0.42030400  0.57321500  0.31713600  1
  O  O47  1  0.92030400  0.92678500  0.18286400  1
  O  O48  1  0.57969600  0.42678500  0.68286400  1
  O  O49  1  0.07969600  0.07321500  0.81713600  1
  O  O50  1  0.57969600  0.42678500  0.81713600  1
  O  O51  1  0.42030400  0.57321500  0.18286400  1
  O  O52  1  0.26436100  0.39697700  0.53163700  1
  O  O53  1  0.73563900  0.60302300  0.46836300  1
  O  O54  1  0.23563900  0.89697700  0.46836300  1
  O  O55  1  0.73563900  0.60302300  0.03163700  1
  O  O56  1  0.76436100  0.10302300  0.53163700  1
  O  O57  1  0.26436100  0.39697700  0.96836300  1
  O  O58  1  0.76436100  0.10302300  0.96836300  1
  O  O59  1  0.23563900  0.89697700  0.03163700  1
loop_
_geom_bond_atom_site_label_1
_geom_bond_atom_site_label_2
_geom_bond_distance
_geom_bond_site_symmetry_2
I0 Sr8 3.336334 1_555
I0 Sr7 3.338822 1_555
I0 Sr2 3.338822 1_555
I1 Sr9 3.336334 1_555
I1 Sr4 3.338822 1_555
I1 Sr6 3.338822 1_555
I2 Sr10 3.336334 1_545
I2 Sr0 3.338822 1_555
I2 Sr5 3.338822 1_555
I3 Sr11 3.336334 1_565
I3 Sr3 3.338822 1_555
I3 Sr1 3.338822 1_555
O0 Re11 1.760382 1_555
O0 Sr4 2.800039 1_455
O0 Sr10 3.030126 1_545
O0 Sr0 3.272605 1_555
O1 Re10 1.760382 1_555
O1 Sr2 2.800039 1_655
O1 Sr11 3.030126 1_565
O1 Sr1 3.272605 1_555
O2 Re9 1.760382 1_555
O2 Sr1 2.800039 1_555
O2 Sr8 3.030126 1_555
O2 Sr2 3.272605 1_555
O3 Re8 1.760382 1_555
O3 Sr7 2.800039 1_655
O3 Sr11 3.030126 1_565
O3 Sr3 3.272605 1_555
O4 Re7 1.760382 1_555
O4 Sr0 2.800039 1_555
O4 Sr9 3.030126 1_555
O4 Sr4 3.272605 1_555
O5 Re6 1.760382 1_555
O5 Sr6 2.800039 1_455
O5 Sr10 3.030126 1_545
O5 Sr5 3.272605 1_555
O6 Re5 1.760382 1_555
O6 Sr5 2.800039 1_555
O6 Sr9 3.030126 1_555
O6 Sr6 3.272605 1_555
O7 Re4 1.760382 1_555
O7 Sr3 2.800039 1_555
O7 Sr8 3.030126 1_555
O7 Sr7 3.272605 1_555
O8 Re6 1.870767 1_555
O8 Sr12 2.576011 1_555
O8 Sr7 2.594032 1_545
O8 Sr16 2.792283 1_555
O9 Re8 1.870767 1_555
O9 Sr13 2.576011 1_555
O9 Sr6 2.594032 1_565
O9 Sr14 2.792283 1_555
O10 Re4 1.870767 1_555
O10 Sr14 2.576011 1_555
O10 Sr5 2.594032 1_555
O10 Sr13 2.792283 1_455
O11 Re10 1.870767 1_554
O11 Sr15 2.576011 1_555
O11 Sr4 2.594032 1_565
O11 Sr19 2.792283 1_555
O12 Re5 1.870767 1_555
O12 Sr16 2.576011 1_555
O12 Sr3 2.594032 1_555
O12 Sr12 2.792283 1_655
O13 Re11 1.870767 1_556
O13 Sr17 2.576011 1_555
O13 Sr2 2.594032 1_545
O13 Sr18 2.792283 1_555
O14 Re7 1.870767 1_556
O14 Sr18 2.576011 1_555
O14 Sr1 2.594032 1_555
O14 Sr17 2.792283 1_655
O15 Re9 1.870767 1_554
O15 Sr19 2.576011 1_555
O15 Sr0 2.594032 1_555
O15 Sr15 2.792283 1_455
O16 Re0 1.747166 1_555
O16 Sr11 2.832447 1_555
O17 Re1 1.747166 1_555
O17 Sr10 2.832447 1_555
O18 Re2 1.747166 1_555
O18 Sr9 2.832447 1_455
O19 Re3 1.747166 1_555
O19 Sr8 2.832447 1_655
O20 Re0 1.878492 1_555
O20 Sr8 2.557692 1_555
O20 Sr12 2.675317 1_555
O20 Sr16 2.681672 1_555
O21 Re1 1.878492 1_555
O21 Sr9 2.557692 1_555
O21 Sr13 2.675317 1_555
O21 Sr14 2.681672 1_555
O22 Re2 1.878492 1_555
O22 Sr10 2.557692 1_555
O22 Sr14 2.675317 1_555
O22 Sr13 2.681672 1_455
O23 Re1 1.878492 1_555
O23 Sr9 2.557692 1_555
O23 Sr15 2.675317 1_555
O23 Sr19 2.681672 1_555
O24 Re3 1.878492 1_555
O24 Sr11 2.557692 1_555
O24 Sr16 2.675317 1_555
O24 Sr12 2.681672 1_655
O25 Re0 1.878492 1_555
O25 Sr8 2.557692 1_555
O25 Sr17 2.675317 1_555
O25 Sr18 2.681672 1_555
O26 Re3 1.878492 1_555
O26 Sr11 2.557692 1_555
O26 Sr18 2.675317 1_555
O26 Sr17 2.681672 1_655
O27 Re2 1.878492 1_555
O27 Sr10 2.557692 1_555
O27 Sr19 2.675317 1_555
O27 Sr15 2.681672 1_455
O28 Re4 1.840534 1_555
O28 Sr3 2.602144 1_455
O28 Sr12 2.614732 1_555
O28 Sr8 3.213874 1_555
O29 Re5 1.840534 1_555
O29 Sr5 2.602144 1_655
O29 Sr13 2.614732 1_555
O29 Sr9 3.213874 1_555
O30 Re6 1.840534 1_565
O30 Sr6 2.602144 1_565
O30 Sr14 2.614732 1_555
O30 Sr10 3.213874 1_555
O31 Re7 1.840534 1_555
O31 Sr0 2.602144 1_655
O31 Sr15 2.614732 1_555
O31 Sr9 3.213874 1_555
O32 Re8 1.840534 1_545
O32 Sr7 2.602144 1_545
O32 Sr16 2.614732 1_555
O32 Sr11 3.213874 1_555
O33 Re9 1.840534 1_555
O33 Sr1 2.602144 1_455
O33 Sr17 2.614732 1_555
O33 Sr8 3.213874 1_555
O34 Re10 1.840534 1_545
O34 Sr2 2.602144 1_545
O34 Sr18 2.614732 1_555
O34 Sr11 3.213874 1_555
O35 Re11 1.840534 1_565
O35 Sr4 2.602144 1_565
O35 Sr19 2.614732 1_555
O35 Sr10 3.213874 1_555
O36 Re4 1.851654 1_555
O36 Sr13 2.675843 1_455
O36 Sr3 2.757606 1_455
O36 Sr7 2.772920 1_555
O37 Re5 1.851654 1_555
O37 Sr12 2.675843 1_655
O37 Sr5 2.757606 1_655
O37 Sr6 2.772920 1_555
O38 Re6 1.851654 1_555
O38 Sr16 2.675843 1_555
O38 Sr6 2.757606 1_555
O38 Sr5 2.772920 1_555
O39 Re7 1.851654 1_555
O39 Sr17 2.675843 1_654
O39 Sr0 2.757606 1_655
O39 Sr4 2.772920 1_555
O40 Re8 1.851654 1_555
O40 Sr14 2.675843 1_555
O40 Sr7 2.757606 1_555
O40 Sr3 2.772920 1_555
O41 Re9 1.851654 1_555
O41 Sr15 2.675843 1_456
O41 Sr1 2.757606 1_455
O41 Sr2 2.772920 1_555
O42 Re10 1.851654 1_555
O42 Sr19 2.675843 1_556
O42 Sr2 2.757606 1_555
O42 Sr1 2.772920 1_555
O43 Re11 1.851654 1_555
O43 Sr18 2.675843 1_554
O43 Sr4 2.757606 1_555
O43 Sr0 2.772920 1_555
O44 Re0 1.851789 1_555
O44 Sr11 2.624916 1_455
O44 Sr7 2.766623 1_545
O44 Sr12 2.776067 1_555
O45 Re1 1.851789 1_555
O45 Sr10 2.624916 1_655
O45 Sr6 2.766623 1_565
O45 Sr13 2.776067 1_555
O46 Re2 1.851789 1_555
O46 Sr9 2.624916 1_555
O46 Sr5 2.766623 1_555
O46 Sr14 2.776067 1_555
O47 Re1 1.851789 1_555
O47 Sr10 2.624916 1_655
O47 Sr4 2.766623 1_565
O47 Sr15 2.776067 1_555
O48 Re3 1.851789 1_555
O48 Sr8 2.624916 1_555
O48 Sr3 2.766623 1_555
O48 Sr16 2.776067 1_555
O49 Re0 1.851789 1_555
O49 Sr11 2.624916 1_455
O49 Sr2 2.766623 1_545
O49 Sr17 2.776067 1_555
O50 Re3 1.851789 1_555
O50 Sr8 2.624916 1_555
O50 Sr1 2.766623 1_555
O50 Sr18 2.776067 1_555
O51 Re2 1.851789 1_555
O51 Sr9 2.624916 1_555
O51 Sr0 2.766623 1_555
O51 Sr19 2.776067 1_555
O52 Re4 1.874088 1_555
O52 Sr5 2.561202 1_555
O52 Sr16 2.642356 1_555
O52 Sr12 2.721681 1_555
O53 Re5 1.874088 1_555
O53 Sr3 2.561202 1_555
O53 Sr14 2.642356 1_555
O53 Sr13 2.721681 1_555
O54 Re6 1.874088 1_565
O54 Sr7 2.561202 1_555
O54 Sr13 2.642356 1_455
O54 Sr14 2.721681 1_555
O55 Re7 1.874088 1_555
O55 Sr1 2.561202 1_554
O55 Sr19 2.642356 1_555
O55 Sr15 2.721681 1_555
O56 Re8 1.874088 1_545
O56 Sr6 2.561202 1_555
O56 Sr12 2.642356 1_655
O56 Sr16 2.721681 1_555
O57 Re9 1.874088 1_555
O57 Sr0 2.561202 1_556
O57 Sr18 2.642356 1_555
O57 Sr17 2.721681 1_555
O58 Re10 1.874088 1_545
O58 Sr4 2.561202 1_556
O58 Sr17 2.642356 1_655
O58 Sr18 2.721681 1_555
O59 Re11 1.874088 1_565
O59 Sr2 2.561202 1_554
O59 Sr15 2.642356 1_455
O59 Sr19 2.721681 1_555
