# generated using pymatgen
data_Be4CrMo
_symmetry_space_group_name_H-M   'P 1'
_cell_length_a   4.34386573
_cell_length_b   4.34386573
_cell_length_c   7.10305300
_cell_angle_alpha   90.00000000
_cell_angle_beta   90.00000000
_cell_angle_gamma   119.99999596
_symmetry_Int_Tables_number   1
_chemical_formula_structural   Be4CrMo
_chemical_formula_sum   'Be8 Cr2 Mo2'
_cell_volume   116.07227343
_cell_formula_units_Z   2
loop_
 _symmetry_equiv_pos_site_id
 _symmetry_equiv_pos_as_xyz
  1  'x, y, z'
loop_
 _atom_site_type_symbol
 _atom_site_label
 _atom_site_symmetry_multiplicity
 _atom_site_fract_x
 _atom_site_fract_y
 _atom_site_fract_z
 _atom_site_occupancy
  Be  Be0  1  0.00000000  0.00000000  0.50000000  1
  Be  Be1  1  0.00000000  0.00000000  0.00000000  1
  Be  Be2  1  0.83000800  0.16999200  0.25799700  1
  Be  Be3  1  0.83000800  0.66001500  0.25799700  1
  Be  Be4  1  0.33998500  0.16999200  0.25799700  1
  Be  Be5  1  0.16999200  0.83000800  0.74200300  1
  Be  Be6  1  0.16999200  0.33998500  0.74200300  1
  Be  Be7  1  0.66001500  0.83000800  0.74200300  1
  Cr  Cr0  1  0.33333300  0.66666700  0.44015800  1
  Cr  Cr1  1  0.66666700  0.33333300  0.55984200  1
  Mo  Mo0  1  0.66666700  0.33333300  0.93420600  1
  Mo  Mo1  1  0.33333300  0.66666700  0.06579400  1
loop_
_geom_bond_atom_site_label_1
_geom_bond_atom_site_label_2
_geom_bond_distance
_geom_bond_site_symmetry_2
Be0 Be5 2.142575 1_545
Be0 Be2 2.142575 1_455
Be0 Be6 2.142577 1_555
Be0 Be7 2.142577 1_445
Be0 Be3 2.142577 1_445
Be0 Be4 2.142577 1_555
Be0 Cr1 2.543696 1_455
Be0 Cr0 2.543696 1_545
Be0 Cr0 2.543699 1_555
Be0 Cr0 2.543699 1_445
Be0 Cr1 2.543699 1_555
Be0 Cr1 2.543699 1_445
Be1 Be2 2.234749 1_455
Be1 Be5 2.234749 1_544
Be1 Be3 2.234751 1_445
Be1 Be4 2.234751 1_555
Be1 Be7 2.234751 1_444
Be1 Be6 2.234751 1_554
Be1 Mo1 2.551101 1_545
Be1 Mo0 2.551101 1_454
Be1 Mo1 2.551105 1_555
Be1 Mo1 2.551105 1_445
Be1 Mo0 2.551105 1_444
Be1 Mo0 2.551105 1_554
Be2 Be4 2.128594 1_555
Be2 Be3 2.128594 1_555
Be2 Be4 2.215272 1_655
Be2 Be3 2.215272 1_545
Be2 Cr1 2.471261 1_555
Be2 Cr0 2.528259 1_545
Be2 Cr0 2.528259 1_655
Be2 Mo1 2.565495 1_655
Be2 Mo1 2.565495 1_545
Be2 Mo0 2.607655 1_554
Be3 Be4 2.128594 1_555
Be3 Be4 2.215272 1_665
Be3 Cr1 2.471261 1_555
Be3 Cr0 2.528255 1_655
Be3 Cr0 2.528263 1_555
Be3 Mo1 2.565492 1_655
Be3 Mo1 2.565499 1_555
Be3 Mo0 2.607655 1_554
Be4 Cr1 2.471261 1_555
Be4 Cr0 2.528255 1_545
Be4 Cr0 2.528263 1_555
Be4 Mo1 2.565492 1_545
Be4 Mo1 2.565499 1_555
Be4 Mo0 2.607655 1_554
Be5 Be7 2.128594 1_555
Be5 Be6 2.128594 1_555
Be5 Be7 2.215272 1_455
Be5 Be6 2.215272 1_565
Be5 Cr0 2.471261 1_555
Be5 Cr1 2.528259 1_455
Be5 Cr1 2.528259 1_565
Be5 Mo0 2.565495 1_455
Be5 Mo0 2.565495 1_565
Be5 Mo1 2.607655 1_556
Be6 Be7 2.128594 1_555
Be6 Be7 2.215272 1_445
Be6 Cr0 2.471261 1_555
Be6 Cr1 2.528255 1_455
Be6 Cr1 2.528263 1_555
Be6 Mo0 2.565492 1_455
Be6 Mo0 2.565499 1_555
Be6 Mo1 2.607655 1_556
Be7 Cr0 2.471261 1_555
Be7 Cr1 2.528255 1_565
Be7 Cr1 2.528263 1_555
Be7 Mo0 2.565492 1_565
Be7 Mo0 2.565499 1_555
Be7 Mo1 2.607655 1_556
Cr0 Cr1 2.648097 1_455
Cr0 Cr1 2.648097 1_565
Cr0 Cr1 2.648104 1_555
Cr0 Mo1 2.659127 1_555
Cr1 Mo0 2.659127 1_555
Mo0 Mo1 2.676440 1_546
Mo0 Mo1 2.676440 1_656
Mo0 Mo1 2.676447 1_556
