# generated using pymatgen
data_Ba8Ge43
_symmetry_space_group_name_H-M   'P 1'
_cell_length_a   10.85479511
_cell_length_b   10.85479511
_cell_length_c   10.85479511
_cell_angle_alpha   90.09617260
_cell_angle_beta   89.90382740
_cell_angle_gamma   89.90382740
_symmetry_Int_Tables_number   1
_chemical_formula_structural   Ba8Ge43
_chemical_formula_sum   'Ba8 Ge43'
_cell_volume   1278.97794003
_cell_formula_units_Z   1
loop_
 _symmetry_equiv_pos_site_id
 _symmetry_equiv_pos_as_xyz
  1  'x, y, z'
loop_
 _atom_site_type_symbol
 _atom_site_label
 _atom_site_symmetry_multiplicity
 _atom_site_fract_x
 _atom_site_fract_y
 _atom_site_fract_z
 _atom_site_occupancy
  Ba  Ba0  1  0.50213920  0.49786080  0.49786080  1
  Ba  Ba1  1  0.99786080  0.00213920  0.00213920  1
  Ba  Ba2  1  0.99411133  0.75000000  0.49411133  1
  Ba  Ba3  1  0.25000000  0.49411133  0.00588867  1
  Ba  Ba4  1  0.50588867  0.00588867  0.75000000  1
  Ba  Ba5  1  0.99342135  0.25000000  0.49342135  1
  Ba  Ba6  1  0.75000000  0.49342135  0.00657865  1
  Ba  Ba7  1  0.50657865  0.00657865  0.25000000  1
  Ge  Ge0  1  0.19319984  0.49899543  0.61253520  1
  Ge  Ge1  1  0.50100457  0.61253520  0.80680016  1
  Ge  Ge2  1  0.38746480  0.80680016  0.49899543  1
  Ge  Ge3  1  0.82823219  0.49968437  0.37285592  1
  Ge  Ge4  1  0.50031563  0.37285592  0.17176781  1
  Ge  Ge5  1  0.62714408  0.17176781  0.49968437  1
  Ge  Ge6  1  0.80490700  0.49912912  0.61349673  1
  Ge  Ge7  1  0.49993147  0.37308958  0.83540802  1
  Ge  Ge8  1  0.16459198  0.50006853  0.37308958  1
  Ge  Ge9  1  0.50087088  0.61349673  0.19509300  1
  Ge  Ge10  1  0.62691042  0.83540802  0.50006853  1
  Ge  Ge11  1  0.38650327  0.19509300  0.49912912  1
  Ge  Ge12  1  0.00006853  0.66459198  0.12691042  1
  Ge  Ge13  1  0.11349673  0.00087088  0.30490700  1
  Ge  Ge14  1  0.30680016  0.88746480  0.00100457  1
  Ge  Ge15  1  0.99912912  0.30490700  0.88650327  1
  Ge  Ge16  1  0.87308958  0.99993147  0.66459198  1
  Ge  Ge17  1  0.67176781  0.12714408  0.00031563  1
  Ge  Ge18  1  0.99968437  0.32823219  0.12714408  1
  Ge  Ge19  1  0.87285592  0.00031563  0.32823219  1
  Ge  Ge20  1  0.99899543  0.69319984  0.88746480  1
  Ge  Ge21  1  0.11253520  0.00100457  0.69319984  1
  Ge  Ge22  1  0.33540802  0.12691042  0.99993147  1
  Ge  Ge23  1  0.69509300  0.88650327  0.00087088  1
  Ge  Ge24  1  0.31568828  0.68431172  0.68431172  1
  Ge  Ge25  1  0.68261691  0.31738309  0.31738309  1
  Ge  Ge26  1  0.67764498  0.31288689  0.68556276  1
  Ge  Ge27  1  0.31024452  0.67975935  0.31754107  1
  Ge  Ge28  1  0.68711311  0.68556276  0.32235502  1
  Ge  Ge29  1  0.32024065  0.31754107  0.68975548  1
  Ge  Ge30  1  0.31443724  0.32235502  0.31288689  1
  Ge  Ge31  1  0.68245893  0.68975548  0.67975935  1
  Ge  Ge32  1  0.17975935  0.81024452  0.18245893  1
  Ge  Ge33  1  0.81288689  0.17764498  0.81443724  1
  Ge  Ge34  1  0.81738309  0.18261691  0.18261691  1
  Ge  Ge35  1  0.18431172  0.81568828  0.81568828  1
  Ge  Ge36  1  0.18975548  0.18245893  0.82024065  1
  Ge  Ge37  1  0.82235502  0.81443724  0.18711311  1
  Ge  Ge38  1  0.81754107  0.82024065  0.81024452  1
  Ge  Ge39  1  0.18556276  0.18711311  0.17764498  1
  Ge  Ge40  1  0.50002881  0.75000000  0.00002881  1
  Ge  Ge41  1  0.25000000  0.00002881  0.49997119  1
  Ge  Ge42  1  -0.00002881  0.49997119  0.75000000  1
loop_
_geom_bond_atom_site_label_1
_geom_bond_atom_site_label_2
_geom_bond_distance
_geom_bond_site_symmetry_2
Ba0 Ge25 3.387471 1_555
Ba0 Ge30 3.438895 1_555
Ba0 Ge28 3.438895 1_555
Ba0 Ge26 3.438895 1_555
Ba0 Ge27 3.475823 1_555
Ba0 Ge31 3.475823 1_555
Ba0 Ge29 3.475823 1_555
Ba0 Ge24 3.499585 1_555
Ba0 Ge6 3.520034 1_555
Ba0 Ge11 3.520034 1_555
Ba0 Ge9 3.520034 1_555
Ba0 Ge1 3.575077 1_555
Ba0 Ge0 3.575077 1_555
Ba0 Ge2 3.575077 1_555
Ba1 Ge34 3.387471 1_555
Ba1 Ge37 3.438895 1_545
Ba1 Ge33 3.438895 1_554
Ba1 Ge39 3.438895 1_655
Ba1 Ge38 3.475823 1_544
Ba1 Ge36 3.475823 1_654
Ba1 Ge32 3.475823 1_645
Ba1 Ge35 3.499585 1_644
Ba1 Ge15 3.520034 1_554
Ba1 Ge23 3.520034 1_545
Ba1 Ge13 3.520034 1_655
Ba1 Ge21 3.575077 1_654
Ba1 Ge14 3.575077 1_645
Ba1 Ge20 3.575077 1_544
Ba2 Ge3 3.517049 1_555
Ba2 Ge19 3.517049 1_565
Ba2 Ge8 3.531761 1_655
Ba2 Ge16 3.531761 1_555
Ba2 Ge13 3.651657 1_665
Ba2 Ge6 3.651657 1_555
Ba2 Ge21 3.707750 1_665
Ba2 Ge0 3.707750 1_655
Ba2 Ge42 3.887209 1_655
Ba2 Ge41 3.887209 1_665
Ba3 Ge4 3.517049 1_555
Ba3 Ge18 3.517049 1_455
Ba3 Ge12 3.531761 1_555
Ba3 Ge7 3.531761 1_554
Ba3 Ge15 3.651657 1_454
Ba3 Ge9 3.651657 1_555
Ba3 Ge1 3.707750 1_554
Ba3 Ge20 3.707750 1_454
Ba3 Ge40 3.887209 1_555
Ba3 Ge42 3.887209 1_554
Ba4 Ge17 3.517049 1_556
Ba4 Ge5 3.517049 1_555
Ba4 Ge10 3.531761 1_545
Ba4 Ge22 3.531761 1_555
Ba4 Ge23 3.651657 1_546
Ba4 Ge11 3.651657 1_555
Ba4 Ge2 3.707750 1_545
Ba4 Ge14 3.707750 1_546
Ba4 Ge41 3.887209 1_555
Ba4 Ge40 3.887209 1_546
Ba5 Ge3 3.503850 1_555
Ba5 Ge19 3.503850 1_555
Ba5 Ge16 3.542207 1_545
Ba5 Ge8 3.542207 1_655
Ba5 Ge13 3.627630 1_655
Ba5 Ge6 3.627630 1_555
Ba5 Ge21 3.700922 1_655
Ba5 Ge0 3.700922 1_655
Ba5 Ge41 3.885909 1_655
Ba5 Ge42 3.885909 1_655
Ba6 Ge4 3.503850 1_555
Ba6 Ge18 3.503850 1_555
Ba6 Ge7 3.542207 1_554
Ba6 Ge12 3.542207 1_655
Ba6 Ge9 3.627630 1_555
Ba6 Ge15 3.627630 1_554
Ba6 Ge1 3.700922 1_554
Ba6 Ge20 3.700922 1_554
Ba6 Ge40 3.885909 1_555
Ba6 Ge42 3.885909 1_654
Ba7 Ge17 3.503850 1_555
Ba7 Ge5 3.503850 1_555
Ba7 Ge10 3.542207 1_545
Ba7 Ge22 3.542207 1_554
Ba7 Ge23 3.627630 1_545
Ba7 Ge11 3.627630 1_555
Ba7 Ge2 3.700922 1_545
Ba7 Ge14 3.700922 1_545
Ba7 Ge41 3.885909 1_555
Ba7 Ge40 3.885909 1_545
Ge0 Ge24 2.535437 1_555
Ge0 Ge29 2.546383 1_555
Ge0 Ge42 2.572027 1_555
Ge0 Ge8 2.618178 1_555
Ge1 Ge24 2.535437 1_555
Ge1 Ge31 2.546383 1_555
Ge1 Ge40 2.572027 1_556
Ge1 Ge7 2.618178 1_555
Ge2 Ge24 2.535437 1_555
Ge2 Ge27 2.546383 1_555
Ge2 Ge41 2.572027 1_565
Ge3 Ge6 2.623944 1_555
Ge4 Ge9 2.623944 1_555
Ge10 Ge31 2.584337 1_555
Ge10 Ge28 2.602989 1_555
Ge10 Ge2 2.618178 1_555
Ge11 Ge29 2.558940 1_555
Ge11 Ge30 2.572590 1_555
Ge11 Ge41 2.586391 1_555
Ge11 Ge5 2.623944 1_555
Ge12 Ge32 2.584337 1_555
Ge12 Ge37 2.602989 1_455
Ge12 Ge20 2.618178 1_454
Ge13 Ge32 2.558940 1_545
Ge13 Ge39 2.572590 1_555
Ge13 Ge41 2.586391 1_555
Ge13 Ge19 2.623944 1_455
Ge14 Ge35 2.535437 1_554
Ge14 Ge32 2.546383 1_555
Ge14 Ge40 2.572027 1_555
Ge14 Ge22 2.618178 1_564
Ge15 Ge36 2.558940 1_655
Ge15 Ge33 2.572590 1_555
Ge15 Ge42 2.586391 1_655
Ge15 Ge18 2.623944 1_556
Ge16 Ge38 2.584337 1_555
Ge16 Ge33 2.602989 1_565
Ge16 Ge21 2.618178 1_665
Ge17 Ge33 2.591162 1_554
Ge17 Ge34 2.605085 1_555
Ge17 Ge23 2.623944 1_545
Ge18 Ge39 2.591162 1_655
Ge18 Ge34 2.605085 1_555
Ge19 Ge37 2.591162 1_545
Ge19 Ge34 2.605085 1_555
Ge20 Ge35 2.535437 1_655
Ge20 Ge38 2.546383 1_555
Ge20 Ge42 2.572027 1_655
Ge21 Ge35 2.535437 1_545
Ge21 Ge36 2.546383 1_555
Ge21 Ge41 2.572027 1_555
Ge22 Ge36 2.584337 1_555
Ge22 Ge39 2.602989 1_556
Ge23 Ge38 2.558940 1_554
Ge23 Ge37 2.572590 1_555
Ge23 Ge40 2.586391 1_555
Ge24 Ge35 2.465869 1_555
Ge25 Ge34 2.529490 1_555
Ge25 Ge3 2.605085 1_555
Ge25 Ge5 2.605085 1_555
Ge25 Ge4 2.605085 1_555
Ge26 Ge33 2.504731 1_555
Ge26 Ge6 2.572590 1_555
Ge26 Ge5 2.591162 1_555
Ge26 Ge7 2.602989 1_555
Ge27 Ge32 2.483854 1_555
Ge27 Ge9 2.558940 1_555
Ge27 Ge8 2.584337 1_555
Ge28 Ge37 2.504731 1_555
Ge28 Ge9 2.572590 1_555
Ge28 Ge3 2.591162 1_555
Ge29 Ge36 2.483854 1_555
Ge29 Ge7 2.584337 1_555
Ge30 Ge39 2.504731 1_555
Ge30 Ge4 2.591162 1_555
Ge30 Ge8 2.602989 1_555
Ge31 Ge38 2.483854 1_555
Ge31 Ge6 2.558940 1_555
Ge40 Ge9 2.586391 1_555
Ge42 Ge6 2.586391 1_455
