# generated using pymatgen
data_CeY3
_symmetry_space_group_name_H-M   'P 1'
_cell_length_a   7.19720133
_cell_length_b   7.19720133
_cell_length_c   5.70336900
_cell_angle_alpha   90.00000000
_cell_angle_beta   90.00000000
_cell_angle_gamma   119.99999388
_symmetry_Int_Tables_number   1
_chemical_formula_structural   CeY3
_chemical_formula_sum   'Ce2 Y6'
_cell_volume   255.85236328
_cell_formula_units_Z   2
loop_
 _symmetry_equiv_pos_site_id
 _symmetry_equiv_pos_as_xyz
  1  'x, y, z'
loop_
 _atom_site_type_symbol
 _atom_site_label
 _atom_site_symmetry_multiplicity
 _atom_site_fract_x
 _atom_site_fract_y
 _atom_site_fract_z
 _atom_site_occupancy
  Ce  Ce0  1  0.33333300  0.66666700  0.75000000  1
  Ce  Ce1  1  0.66666700  0.33333300  0.25000000  1
  Y  Y0  1  0.16633800  0.33267500  0.25000000  1
  Y  Y1  1  0.66732500  0.83366200  0.25000000  1
  Y  Y2  1  0.16633800  0.83366200  0.25000000  1
  Y  Y3  1  0.83366200  0.66732500  0.75000000  1
  Y  Y4  1  0.33267500  0.16633800  0.75000000  1
  Y  Y5  1  0.83366200  0.16633800  0.75000000  1
loop_
_geom_bond_atom_site_label_1
_geom_bond_atom_site_label_2
_geom_bond_distance
_geom_bond_site_symmetry_2
Ce0 Y2 3.530690 1_556
Ce0 Y2 3.530690 1_555
Ce0 Y0 3.530697 1_556
Ce0 Y1 3.530697 1_556
Ce0 Y0 3.530697 1_555
Ce0 Y1 3.530697 1_555
Ce0 Y3 3.598603 1_455
Ce0 Y4 3.598603 1_565
Ce0 Y4 3.598603 1_555
Ce0 Y3 3.598603 1_555
Ce0 Y5 3.598603 1_455
Ce0 Y5 3.598603 1_565
Ce1 Y5 3.530690 1_554
Ce1 Y5 3.530690 1_555
Ce1 Y3 3.530697 1_554
Ce1 Y4 3.530697 1_554
Ce1 Y4 3.530697 1_555
Ce1 Y3 3.530697 1_555
Ce1 Y1 3.598603 1_545
Ce1 Y0 3.598603 1_655
Ce1 Y0 3.598603 1_555
Ce1 Y1 3.598603 1_555
Ce1 Y2 3.598603 1_545
Ce1 Y2 3.598603 1_655
Y0 Y4 3.525860 1_554
Y0 Y4 3.525860 1_555
Y0 Y5 3.525867 1_454
Y0 Y5 3.525867 1_455
Y0 Y2 3.591497 1_545
Y0 Y1 3.591497 1_445
Y0 Y2 3.605704 1_555
Y0 Y1 3.605705 1_555
Y1 Y3 3.525860 1_555
Y1 Y3 3.525860 1_554
Y1 Y5 3.525867 1_564
Y1 Y5 3.525867 1_565
Y1 Y2 3.591497 1_655
Y1 Y2 3.605704 1_555
Y2 Y3 3.525867 1_455
Y2 Y3 3.525867 1_454
Y2 Y4 3.525867 1_564
Y2 Y4 3.525867 1_565
Y3 Y5 3.591497 1_565
Y3 Y4 3.591497 1_665
Y3 Y5 3.605704 1_555
Y3 Y4 3.605705 1_555
Y4 Y5 3.591497 1_455
Y4 Y5 3.605704 1_555
