# generated using pymatgen
data_Ti3O5
_symmetry_space_group_name_H-M   'P 1'
_cell_length_a   10.96267360
_cell_length_b   10.58602917
_cell_length_c   11.00488833
_cell_angle_alpha   89.26310340
_cell_angle_beta   91.94959662
_cell_angle_gamma   89.43894757
_symmetry_Int_Tables_number   1
_chemical_formula_structural   Ti3O5
_chemical_formula_sum   'Ti39 O65'
_cell_volume   1276.21859457
_cell_formula_units_Z   13
loop_
 _symmetry_equiv_pos_site_id
 _symmetry_equiv_pos_as_xyz
  1  'x, y, z'
loop_
 _atom_site_type_symbol
 _atom_site_label
 _atom_site_symmetry_multiplicity
 _atom_site_fract_x
 _atom_site_fract_y
 _atom_site_fract_z
 _atom_site_occupancy
  Ti  Ti0  1  0.53275771  0.54204653  0.25009841  1
  Ti  Ti1  1  0.63217886  0.86158123  0.58992457  1
  Ti  Ti2  1  0.46271482  0.05580811  0.12114973  1
  Ti  Ti3  1  0.54638440  0.58965298  0.65720943  1
  Ti  Ti4  1  0.08013898  0.68771094  0.13656812  1
  Ti  Ti5  1  0.19532429  0.15342300  0.98095084  1
  Ti  Ti6  1  0.72109613  0.29930953  0.13330982  1
  Ti  Ti7  1  0.74090236  0.18142858  0.68264291  1
  Ti  Ti8  1  0.58801881  0.90893927  0.84202443  1
  Ti  Ti9  1  0.34878488  0.56431043  0.79494004  1
  Ti  Ti10  1  0.89200161  0.56321052  0.27455176  1
  Ti  Ti11  1  0.15514371  0.32467227  0.50591230  1
  Ti  Ti12  1  0.62877757  0.47877342  0.94905738  1
  Ti  Ti13  1  0.06939711  0.94445402  0.91669152  1
  Ti  Ti14  1  0.67638304  0.82083982  0.20215154  1
  Ti  Ti15  1  0.87645544  0.50374544  0.62389603  1
  Ti  Ti16  1  0.40537820  0.04465008  0.41058407  1
  Ti  Ti17  1  0.33778528  0.84935729  0.75513072  1
  Ti  Ti18  1  0.61769797  0.29044581  0.44879995  1
  Ti  Ti19  1  0.11962727  0.62828525  0.61781856  1
  Ti  Ti20  1  0.88228153  0.86049178  0.64641010  1
  Ti  Ti21  1  0.71647869  0.62189892  0.46148242  1
  Ti  Ti22  1  0.90207048  0.90651391  0.18415877  1
  Ti  Ti23  1  0.24631531  0.09869248  0.68666257  1
  Ti  Ti24  1  0.69295018  0.05439654  0.35423697  1
  Ti  Ti25  1  0.84345608  0.71127326  0.87162695  1
  Ti  Ti26  1  0.98546087  0.24055710  0.80047704  1
  Ti  Ti27  1  0.15146387  0.51153914  0.93299699  1
  Ti  Ti28  1  0.52915235  0.15697268  0.91133988  1
  Ti  Ti29  1  0.36637378  0.70278944  0.47212058  1
  Ti  Ti30  1  0.03020161  0.14484703  0.27129852  1
  Ti  Ti31  1  0.43641981  0.30262799  0.70734029  1
  Ti  Ti32  1  0.38194054  0.73980483  0.05945556  1
  Ti  Ti33  1  0.24344449  0.50190828  0.23310500  1
  Ti  Ti34  1  0.16643915  0.91020100  0.47741841  1
  Ti  Ti35  1  0.20529837  0.99020676  0.16317440  1
  Ti  Ti36  1  0.93667891  0.11254741  0.55399673  1
  Ti  Ti37  1  0.88498572  0.47431482  0.97596279  1
  Ti  Ti38  1  0.36420043  0.38004553  0.01036663  1
  O  O0  1  0.84437416  0.03220546  0.68920904  1
  O  O1  1  0.21883046  0.01330156  0.85619965  1
  O  O2  1  0.96610863  0.67952909  0.62438709  1
  O  O3  1  0.28185120  0.39783093  0.84762325  1
  O  O4  1  0.35614962  0.86795049  0.41455759  1
  O  O5  1  0.79368091  0.91589688  0.31329872  1
  O  O6  1  0.72046519  0.80699436  0.76354425  1
  O  O7  1  0.58340788  0.99024113  0.47797473  1
  O  O8  1  0.26475460  0.07043602  0.50114914  1
  O  O9  1  0.40516695  0.44423815  0.17440183  1
  O  O10  1  0.38495990  0.58700922  0.35262019  1
  O  O11  1  0.01292279  0.11098375  0.91977329  1
  O  O12  1  0.86457147  0.43277597  0.15778601  1
  O  O13  1  0.49038377  0.90471593  0.69590592  1
  O  O14  1  0.74808808  0.60726938  0.98148754  1
  O  O15  1  0.34212162  0.90850821  0.09476994  1
  O  O16  1  0.13359753  0.16495154  0.14272736  1
  O  O17  1  0.28418314  0.27294446  0.61646249  1
  O  O18  1  0.21777724  0.38943182  0.37517518  1
  O  O19  1  0.89061109  0.10287279  0.19473946  1
  O  O20  1  0.07809667  0.45866804  0.58917528  1
  O  O21  1  0.51433014  0.34229565  0.87798406  1
  O  O22  1  0.87241237  0.51960541  0.43897348  1
  O  O23  1  0.41867261  0.47353380  0.64556370  1
  O  O24  1  0.39990044  0.13894441  0.77700387  1
  O  O25  1  0.76100920  0.16414568  0.50319249  1
  O  O26  1  0.36252020  0.69627143  0.65872824  1
  O  O27  1  0.69507727  0.22959399  0.29481065  1
  O  O28  1  0.53598431  0.98303144  0.98382944  1
  O  O29  1  0.06961567  0.54481669  0.25086910  1
  O  O30  1  0.34422225  0.07475570  0.25575772  1
  O  O31  1  0.02152314  0.38226217  0.89806363  1
  O  O32  1  0.20238998  0.40780164  0.08012699  1
  O  O33  1  0.94497731  0.73725827  0.23672914  1
  O  O34  1  0.61901150  0.44612602  0.12451530  1
  O  O35  1  0.36954198  0.19473013  0.02050886  1
  O  O36  1  0.70089437  0.52310530  0.62191957  1
  O  O37  1  0.07026191  0.87854610  0.08154315  1
  O  O38  1  0.60914883  0.46211498  0.39129984  1
  O  O39  1  0.48053707  0.21015520  0.41494250  1
  O  O40  1  0.96441127  0.83912795  0.82372907  1
  O  O41  1  0.77750467  0.86266678  0.07054868  1
  O  O42  1  0.17418904  0.62494264  0.78378151  1
  O  O43  1  0.42837182  0.79797142  0.89808827  1
  O  O44  1  0.55056530  0.71133200  0.51434000  1
  O  O45  1  0.87107118  0.55853660  0.79799322  1
  O  O46  1  0.07204115  0.16998320  0.66599671  1
  O  O47  1  0.77780578  0.77594433  0.52356999  1
  O  O48  1  0.75668720  0.34775009  0.95423094  1
  O  O49  1  0.00449321  0.62175671  0.99546009  1
  O  O50  1  0.25189629  0.68775210  0.17152217  1
  O  O51  1  0.52309072  0.70788486  0.15183963  1
  O  O52  1  0.71909287  0.65447405  0.27864663  1
  O  O53  1  0.64890978  0.08403657  0.80639398  1
  O  O54  1  0.02647606  0.22123402  0.42932225  1
  O  O55  1  0.59985974  0.18782581  0.07602334  1
  O  O56  1  0.86300308  0.31876865  0.68150667  1
  O  O57  1  0.20637503  0.91210721  0.65173873  1
  O  O58  1  0.99610651  0.94193483  0.52747954  1
  O  O59  1  0.32940032  0.58630733  0.97228666  1
  O  O60  1  0.58624459  0.27501301  0.62979626  1
  O  O61  1  0.57692703  0.97468438  0.23662524  1
  O  O62  1  0.18224782  0.72144667  0.48406685  1
  O  O63  1  0.53768343  0.58620502  0.82876483  1
  O  O64  1  0.09451508  0.98169017  0.30906733  1
loop_
_geom_bond_atom_site_label_1
_geom_bond_atom_site_label_2
_geom_bond_distance
_geom_bond_site_symmetry_2
O0 Ti20 1.928562 1_545
O0 Ti7 1.934866 1_555
O0 Ti36 2.012013 1_555
O1 Ti13 1.934713 1_545
O1 Ti5 2.054365 1_555
O1 Ti23 2.095015 1_555
O1 Ti17 2.460433 1_545
O2 Ti19 1.767288 1_655
O2 Ti15 2.112932 1_555
O2 Ti20 2.136745 1_555
O3 Ti38 1.983938 1_556
O3 Ti9 2.002111 1_555
O3 Ti27 2.112247 1_555
O3 Ti31 2.540642 1_555
O4 Ti29 1.852997 1_555
O4 Ti16 1.952276 1_565
O4 Ti34 2.256441 1_555
O5 Ti22 1.886193 1_555
O5 Ti24 1.895036 1_565
O5 Ti14 2.027865 1_555
O6 Ti25 2.023021 1_555
O6 Ti8 2.024201 1_555
O6 Ti1 2.180855 1_555
O6 Ti20 2.299069 1_555
O7 Ti1 1.885861 1_555
O7 Ti24 1.964963 1_565
O7 Ti16 2.135259 1_565
O8 Ti16 1.883535 1_555
O8 Ti34 2.033513 1_545
O8 Ti23 2.083479 1_555
O9 Ti0 1.921908 1_555
O9 Ti38 1.975994 1_555
O9 Ti33 2.000035 1_555
O10 Ti29 1.824280 1_555
O10 Ti0 2.061022 1_555
O10 Ti33 2.206193 1_555
O11 Ti13 1.863817 1_545
O11 Ti26 1.901147 1_455
O11 Ti5 2.141801 1_555
O12 Ti10 1.917206 1_555
O12 Ti37 2.063247 1_554
O12 Ti6 2.137100 1_555
O13 Ti8 1.902375 1_555
O13 Ti17 1.910585 1_555
O13 Ti1 2.026887 1_555
O14 Ti12 1.924582 1_555
O14 Ti25 1.959902 1_555
O14 Ti37 2.050361 1_555
O15 Ti32 1.882856 1_555
O15 Ti35 1.905960 1_555
O15 Ti2 2.071089 1_565
O16 Ti30 1.854234 1_555
O16 Ti5 1.930888 1_554
O16 Ti35 2.009781 1_545
O17 Ti11 1.905700 1_555
O17 Ti31 1.946542 1_555
O17 Ti23 2.042549 1_555
O18 Ti11 1.749999 1_555
O18 Ti33 1.982405 1_555
O19 Ti30 1.784455 1_655
O19 Ti22 2.086211 1_545
O20 Ti19 1.884551 1_555
O20 Ti11 1.904665 1_555
O20 Ti15 2.302529 1_455
O21 Ti28 1.995274 1_555
O21 Ti12 2.066647 1_555
O21 Ti31 2.085803 1_555
O21 Ti38 2.270704 1_556
O22 Ti10 1.881536 1_555
O22 Ti21 2.038546 1_555
O22 Ti15 2.038754 1_555
O23 Ti3 1.874348 1_555
O23 Ti31 1.930224 1_555
O23 Ti9 2.079583 1_555
O24 Ti31 1.936691 1_555
O24 Ti23 1.978864 1_555
O24 Ti28 2.024775 1_555
O25 Ti7 2.005029 1_555
O25 Ti36 2.053770 1_555
O25 Ti18 2.118604 1_555
O25 Ti24 2.139235 1_555
O26 Ti17 1.969892 1_555
O26 Ti9 2.046149 1_555
O26 Ti29 2.055753 1_555
O26 Ti3 2.301132 1_555
O27 Ti6 1.946712 1_555
O27 Ti24 1.959242 1_555
O27 Ti18 2.030155 1_555
O28 Ti8 1.859890 1_555
O28 Ti2 1.903377 1_566
O28 Ti28 1.997000 1_565
O29 Ti4 1.961658 1_555
O29 Ti33 1.971457 1_555
O29 Ti10 1.981299 1_455
O30 Ti16 1.832558 1_555
O30 Ti2 2.013821 1_555
O30 Ti35 2.025640 1_545
O31 Ti26 1.893162 1_455
O31 Ti37 2.001299 1_455
O31 Ti27 2.016013 1_555
O32 Ti38 1.977522 1_555
O32 Ti27 2.005007 1_554
O32 Ti33 2.007377 1_555
O33 Ti22 1.924738 1_555
O33 Ti4 1.948436 1_655
O33 Ti10 1.980635 1_555
O34 Ti6 1.905792 1_555
O34 Ti12 1.963896 1_554
O34 Ti0 1.985293 1_555
O35 Ti38 1.963680 1_555
O35 Ti5 1.998273 1_554
O35 Ti2 2.069886 1_555
O35 Ti28 2.192359 1_554
O36 Ti3 1.882721 1_555
O36 Ti15 1.932859 1_555
O36 Ti21 2.053485 1_555
O37 Ti13 1.935006 1_554
O37 Ti35 2.089691 1_555
O37 Ti4 2.102225 1_555
O37 Ti22 2.214091 1_455
O38 Ti18 1.916979 1_555
O38 Ti0 1.922418 1_555
O38 Ti21 2.202909 1_555
O39 Ti18 1.765581 1_555
O39 Ti16 1.943856 1_555
O40 Ti13 1.894411 1_655
O40 Ti25 1.983014 1_555
O40 Ti20 2.129503 1_555
O41 Ti22 1.885360 1_555
O41 Ti14 1.903898 1_555
O41 Ti25 2.838783 1_554
O42 Ti19 1.902201 1_555
O42 Ti9 2.012092 1_555
O42 Ti27 2.045171 1_555
O43 Ti17 1.902172 1_555
O43 Ti32 1.957378 1_556
O43 Ti8 2.217824 1_555
O44 Ti1 2.008351 1_555
O44 Ti3 2.021700 1_555
O44 Ti29 2.059652 1_555
O44 Ti21 2.143676 1_555
O45 Ti25 1.844824 1_555
O45 Ti15 2.011533 1_555
O45 Ti37 2.141525 1_555
O46 Ti26 1.938916 1_455
O46 Ti36 2.000852 1_455
O46 Ti23 2.051611 1_555
O47 Ti21 1.896577 1_555
O47 Ti20 1.971339 1_555
O47 Ti1 1.992927 1_555
O48 Ti12 1.961570 1_555
O48 Ti37 1.962854 1_555
O48 Ti6 2.080688 1_556
O49 Ti4 1.881015 1_556
O49 Ti37 2.056250 1_455
O49 Ti27 2.118719 1_555
O49 Ti25 2.375308 1_455
O50 Ti4 1.908950 1_555
O50 Ti32 1.993635 1_555
O50 Ti33 2.076508 1_555
O51 Ti32 1.848267 1_555
O51 Ti0 2.049940 1_555
O51 Ti14 2.133892 1_555
O52 Ti14 1.987069 1_555
O52 Ti21 2.038260 1_555
O52 Ti10 2.121217 1_555
O52 Ti0 2.387782 1_555
O53 Ti28 1.939030 1_555
O53 Ti7 2.003090 1_555
O53 Ti8 2.014564 1_545
O54 Ti30 1.928770 1_555
O54 Ti11 1.967783 1_555
O54 Ti36 2.061262 1_455
O55 Ti6 1.884020 1_555
O55 Ti28 1.979049 1_554
O55 Ti2 2.129386 1_555
O56 Ti7 1.986062 1_555
O56 Ti26 2.008139 1_555
O56 Ti15 2.058693 1_555
O57 Ti17 1.913511 1_555
O57 Ti34 1.953527 1_555
O57 Ti23 2.065392 1_565
O58 Ti36 1.942955 1_565
O58 Ti34 1.991393 1_655
O58 Ti20 2.028930 1_555
O59 Ti32 1.978182 1_556
O59 Ti9 1.986801 1_555
O59 Ti27 2.144795 1_555
O59 Ti38 2.244566 1_556
O60 Ti31 1.898370 1_555
O60 Ti7 2.019771 1_555
O60 Ti18 2.037767 1_555
O61 Ti2 1.939771 1_565
O61 Ti24 1.985490 1_565
O61 Ti14 1.998575 1_555
O62 Ti19 1.911833 1_555
O62 Ti34 2.004151 1_555
O62 Ti29 2.035093 1_555
O63 Ti3 1.893496 1_555
O63 Ti12 1.972869 1_555
O63 Ti9 2.107084 1_555
O64 Ti30 1.894930 1_565
O64 Ti35 2.047420 1_555
O64 Ti34 2.116536 1_555
O64 Ti22 2.614848 1_455
