# generated using pymatgen
data_Pm2MgS4
_symmetry_space_group_name_H-M   'P 1'
_cell_length_a   7.76370200
_cell_length_b   12.95121400
_cell_length_c   12.96823300
_cell_angle_alpha   90.00000000
_cell_angle_beta   90.00000000
_cell_angle_gamma   90.00000000
_symmetry_Int_Tables_number   1
_chemical_formula_structural   Pm2MgS4
_chemical_formula_sum   'Pm16 Mg8 S32'
_cell_volume   1303.94760673
_cell_formula_units_Z   8
loop_
 _symmetry_equiv_pos_site_id
 _symmetry_equiv_pos_as_xyz
  1  'x, y, z'
loop_
 _atom_site_type_symbol
 _atom_site_label
 _atom_site_symmetry_multiplicity
 _atom_site_fract_x
 _atom_site_fract_y
 _atom_site_fract_z
 _atom_site_occupancy
  Pm  Pm0  1  0.88465600  0.11004800  0.68416300  1
  Pm  Pm1  1  0.11534400  0.88995200  0.18416300  1
  Pm  Pm2  1  0.88465600  0.38995200  0.18416300  1
  Pm  Pm3  1  0.11534400  0.61004800  0.68416300  1
  Pm  Pm4  1  0.38285700  0.12749700  0.32642000  1
  Pm  Pm5  1  0.61714300  0.87250300  0.82642000  1
  Pm  Pm6  1  0.38285700  0.37250300  0.82642000  1
  Pm  Pm7  1  0.61714300  0.62749700  0.32642000  1
  Pm  Pm8  1  0.62943300  0.13430600  0.99379100  1
  Pm  Pm9  1  0.37056700  0.86569400  0.49379100  1
  Pm  Pm10  1  0.62943300  0.36569400  0.49379100  1
  Pm  Pm11  1  0.37056700  0.63430600  0.99379100  1
  Pm  Pm12  1  0.12928400  0.13521700  0.99259800  1
  Pm  Pm13  1  0.87071600  0.86478300  0.49259800  1
  Pm  Pm14  1  0.12928400  0.36478300  0.49259800  1
  Pm  Pm15  1  0.87071600  0.63521700  0.99259800  1
  Mg  Mg0  1  0.38466400  0.11068700  0.69270400  1
  Mg  Mg1  1  0.61533600  0.88931300  0.19270400  1
  Mg  Mg2  1  0.38466400  0.38931300  0.19270400  1
  Mg  Mg3  1  0.61533600  0.61068700  0.69270400  1
  Mg  Mg4  1  0.87938900  0.12576900  0.32012100  1
  Mg  Mg5  1  0.12061100  0.87423100  0.82012100  1
  Mg  Mg6  1  0.87938900  0.37423100  0.82012100  1
  Mg  Mg7  1  0.12061100  0.62576900  0.32012100  1
  S  S0  1  0.88048100  0.01148200  0.87874400  1
  S  S1  1  0.11951900  0.98851800  0.37874400  1
  S  S2  1  0.88048100  0.48851800  0.37874400  1
  S  S3  1  0.11951900  0.51148200  0.87874400  1
  S  S4  1  0.38029000  0.02975400  0.12927900  1
  S  S5  1  0.61971000  0.97024600  0.62927900  1
  S  S6  1  0.38029000  0.47024600  0.62927900  1
  S  S7  1  0.61971000  0.52975400  0.12927900  1
  S  S8  1  0.37124000  0.02354900  0.86740100  1
  S  S9  1  0.62876000  0.97645100  0.36740100  1
  S  S10  1  0.37124000  0.47645100  0.36740100  1
  S  S11  1  0.62876000  0.52354900  0.86740100  1
  S  S12  1  0.87248300  0.04478300  0.13947400  1
  S  S13  1  0.12751700  0.95521700  0.63947400  1
  S  S14  1  0.87248300  0.45521700  0.63947400  1
  S  S15  1  0.12751700  0.54478300  0.13947400  1
  S  S16  1  0.87951000  0.21086300  0.49699500  1
  S  S17  1  0.12049000  0.78913700  0.99699500  1
  S  S18  1  0.87951000  0.28913700  0.99699500  1
  S  S19  1  0.12049000  0.71086300  0.49699500  1
  S  S20  1  0.38053900  0.21109200  0.52326900  1
  S  S21  1  0.61946100  0.78890800  0.02326900  1
  S  S22  1  0.38053900  0.28890800  0.02326900  1
  S  S23  1  0.61946100  0.71109200  0.52326900  1
  S  S24  1  0.12953100  0.23337500  0.77517100  1
  S  S25  1  0.87046900  0.76662500  0.27517100  1
  S  S26  1  0.12953100  0.26662500  0.27517100  1
  S  S27  1  0.87046900  0.73337500  0.77517100  1
  S  S28  1  0.63151900  0.23071200  0.77687000  1
  S  S29  1  0.36848100  0.76928800  0.27687000  1
  S  S30  1  0.63151900  0.26928800  0.27687000  1
  S  S31  1  0.36848100  0.73071200  0.77687000  1
loop_
_geom_bond_atom_site_label_1
_geom_bond_atom_site_label_2
_geom_bond_distance
_geom_bond_site_symmetry_2
Pm0 S24 2.749251 1_655
Pm0 S16 2.756424 1_555
Pm0 S28 2.783863 1_555
Pm0 S13 2.812828 1_645
Pm0 S0 2.828080 1_555
Pm0 S5 2.831249 1_545
Pm1 S25 2.749251 1_455
Pm1 S17 2.756424 1_554
Pm1 S29 2.783863 1_555
Pm1 S12 2.812828 1_465
Pm1 S1 2.828080 1_555
Pm1 S4 2.831249 1_565
Pm2 S26 2.749251 1_655
Pm2 S18 2.756424 1_554
Pm2 S30 2.783863 1_555
Pm2 S15 2.812828 1_655
Pm2 S2 2.828080 1_555
Pm2 S7 2.831249 1_555
Pm3 S27 2.749251 1_455
Pm3 S19 2.756424 1_555
Pm3 S31 2.783863 1_555
Pm3 S14 2.812828 1_455
Pm3 S3 2.828080 1_555
Pm3 S6 2.831249 1_555
Pm4 S30 2.740824 1_555
Pm4 S26 2.748920 1_555
Pm4 S20 2.772936 1_555
Pm4 S9 2.784601 1_545
Pm4 S1 2.807156 1_545
Pm4 S4 2.852881 1_555
Pm5 S31 2.740824 1_555
Pm5 S27 2.748920 1_555
Pm5 S21 2.772936 1_556
Pm5 S8 2.784601 1_565
Pm5 S0 2.807156 1_565
Pm5 S5 2.852881 1_555
Pm6 S28 2.740824 1_555
Pm6 S24 2.748920 1_555
Pm6 S22 2.772936 1_556
Pm6 S11 2.784601 1_555
Pm6 S3 2.807156 1_555
Pm6 S6 2.852881 1_555
Pm7 S29 2.740824 1_555
Pm7 S25 2.748920 1_555
Pm7 S23 2.772936 1_555
Pm7 S10 2.784601 1_555
Pm7 S2 2.807156 1_555
Pm7 S7 2.852881 1_555
Pm8 S18 2.791463 1_555
Pm8 S22 2.808774 1_556
Pm8 S12 2.911048 1_556
Pm8 S0 2.924921 1_555
Pm8 S4 2.943148 1_556
Pm8 S8 2.960113 1_555
Pm8 S28 3.077764 1_555
Pm9 S19 2.791463 1_555
Pm9 S23 2.808774 1_555
Pm9 S13 2.911048 1_555
Pm9 S1 2.924921 1_555
Pm9 S5 2.943148 1_555
Pm9 S9 2.960113 1_555
Pm9 S29 3.077764 1_555
Pm10 S16 2.791463 1_555
Pm10 S20 2.808774 1_555
Pm10 S14 2.911048 1_555
Pm10 S2 2.924921 1_555
Pm10 S6 2.943148 1_555
Pm10 S10 2.960113 1_555
Pm10 S30 3.077764 1_555
Pm11 S17 2.791463 1_555
Pm11 S21 2.808774 1_556
Pm11 S15 2.911048 1_556
Pm11 S3 2.924921 1_555
Pm11 S7 2.943148 1_556
Pm11 S11 2.960113 1_555
Pm11 S31 3.077764 1_555
Pm12 S18 2.781633 1_455
Pm12 S22 2.815199 1_556
Pm12 S8 2.873376 1_555
Pm12 S0 2.911920 1_455
Pm12 S4 2.967318 1_556
Pm12 S12 2.995779 1_456
Pm12 S24 3.092978 1_555
Pm13 S19 2.781633 1_655
Pm13 S23 2.815199 1_555
Pm13 S9 2.873376 1_555
Pm13 S1 2.911920 1_655
Pm13 S5 2.967318 1_555
Pm13 S13 2.995779 1_655
Pm13 S25 3.092978 1_555
Pm14 S16 2.781633 1_455
Pm14 S20 2.815199 1_555
Pm14 S10 2.873376 1_555
Pm14 S2 2.911920 1_455
Pm14 S6 2.967318 1_555
Pm14 S14 2.995779 1_455
Pm14 S26 3.092978 1_555
Pm15 S17 2.781633 1_655
Pm15 S21 2.815199 1_556
Pm15 S11 2.873376 1_555
Pm15 S3 2.911920 1_655
Pm15 S7 2.967318 1_556
Pm15 S15 2.995779 1_656
Pm15 S27 3.092978 1_555
Mg0 S8 2.533182 1_555
Mg0 S20 2.553426 1_555
Mg0 S28 2.698281 1_555
Mg0 S5 2.704597 1_545
Mg0 S24 2.755357 1_555
Mg0 S13 2.918297 1_545
Mg1 S9 2.533182 1_555
Mg1 S21 2.553426 1_555
Mg1 S29 2.698281 1_555
Mg1 S4 2.704597 1_565
Mg1 S25 2.755357 1_555
Mg1 S12 2.918297 1_565
Mg2 S10 2.533182 1_555
Mg2 S22 2.553426 1_555
Mg2 S30 2.698281 1_555
Mg2 S7 2.704597 1_555
Mg2 S26 2.755357 1_555
Mg2 S15 2.918297 1_555
Mg3 S11 2.533182 1_555
Mg3 S23 2.553426 1_555
Mg3 S31 2.698281 1_555
Mg3 S6 2.704597 1_555
Mg3 S27 2.755357 1_555
Mg3 S14 2.918297 1_555
Mg4 S16 2.544763 1_555
Mg4 S12 2.567316 1_555
Mg4 S1 2.685761 1_645
Mg4 S26 2.727486 1_655
Mg4 S30 2.733643 1_555
Mg4 S9 2.811029 1_545
Mg5 S17 2.544763 1_555
Mg5 S13 2.567316 1_555
Mg5 S0 2.685761 1_465
Mg5 S27 2.727486 1_455
Mg5 S31 2.733643 1_555
Mg5 S8 2.811029 1_565
Mg6 S18 2.544763 1_555
Mg6 S14 2.567316 1_555
Mg6 S3 2.685761 1_655
Mg6 S24 2.727486 1_655
Mg6 S28 2.733643 1_555
Mg6 S11 2.811029 1_555
Mg7 S19 2.544763 1_555
Mg7 S15 2.567316 1_555
Mg7 S2 2.685761 1_455
Mg7 S25 2.727486 1_455
Mg7 S29 2.733643 1_555
Mg7 S10 2.811029 1_555
