# generated using pymatgen
data_Mg5Si9
_symmetry_space_group_name_H-M   'P 1'
_cell_length_a   13.58444241
_cell_length_b   6.86101533
_cell_length_c   6.05335021
_cell_angle_alpha   73.17335354
_cell_angle_beta   101.60463132
_cell_angle_gamma   104.76773999
_symmetry_Int_Tables_number   1
_chemical_formula_structural   Mg5Si9
_chemical_formula_sum   'Mg10 Si18'
_cell_volume   517.22796248
_cell_formula_units_Z   2
loop_
 _symmetry_equiv_pos_site_id
 _symmetry_equiv_pos_as_xyz
  1  'x, y, z'
loop_
 _atom_site_type_symbol
 _atom_site_label
 _atom_site_symmetry_multiplicity
 _atom_site_fract_x
 _atom_site_fract_y
 _atom_site_fract_z
 _atom_site_occupancy
  Mg  Mg0  1  0.69032400  0.21799300  0.41048200  1
  Mg  Mg1  1  0.40646300  0.59586600  0.76295100  1
  Mg  Mg2  1  0.53813400  0.36773700  0.62239200  1
  Mg  Mg3  1  0.40065000  0.66767900  0.23880000  1
  Mg  Mg4  1  0.60628000  0.96587700  0.96053400  1
  Mg  Mg5  1  0.45213400  0.13607800  0.20445500  1
  Mg  Mg6  1  0.12442600  0.46434700  0.54104000  1
  Mg  Mg7  1  0.92613100  0.64559200  0.17269300  1
  Mg  Mg8  1  0.08587100  0.98331900  0.49392800  1
  Mg  Mg9  1  0.75928800  0.74280900  0.40189100  1
  Si  Si0  1  0.13448000  0.81781700  0.14991700  1
  Si  Si1  1  0.88563600  0.43107100  0.59733700  1
  Si  Si2  1  0.33040500  0.24553200  0.44418500  1
  Si  Si3  1  0.68570800  0.66728300  0.84317000  1
  Si  Si4  1  0.25503700  0.13693000  0.80334200  1
  Si  Si5  1  0.82192000  0.93175400  0.94845100  1
  Si  Si6  1  0.21222800  0.73169600  0.84759000  1
  Si  Si7  1  0.82850000  0.17320800  0.17668900  1
  Si  Si8  1  0.24388700  0.36955800  0.03155300  1
  Si  Si9  1  0.57509700  0.51628400  0.13712600  1
  Si  Si10  1  0.92425100  0.09247400  0.64188600  1
  Si  Si11  1  0.07628700  0.13638900  0.96981600  1
  Si  Si12  1  0.28333300  0.86411700  0.44959300  1
  Si  Si13  1  0.74360300  0.36490400  0.81480500  1
  Si  Si14  1  0.02111600  0.61391200  0.83510700  1
  Si  Si15  1  0.01086600  0.31334400  0.17491500  1
  Si  Si16  1  0.57410200  0.82251800  0.50469700  1
  Si  Si17  1  0.40365300  0.98396600  0.82053800  1
loop_
_geom_bond_atom_site_label_1
_geom_bond_atom_site_label_2
_geom_bond_distance
_geom_bond_site_symmetry_2
Mg0 Si7 2.689816 1_555
Mg0 Si16 2.731781 1_545
Mg0 Si13 2.806030 1_555
Mg0 Si9 2.829700 1_555
Mg0 Si1 2.868569 1_555
Mg1 Si17 2.794251 1_555
Mg1 Si12 2.838126 1_555
Mg1 Si8 2.857781 1_556
Mg1 Si16 2.875342 1_555
Mg1 Si9 2.917250 1_556
Mg1 Si6 3.188570 1_555
Mg1 Si4 3.265039 1_555
Mg2 Si13 2.802557 1_555
Mg2 Si2 2.814691 1_555
Mg2 Si17 2.882688 1_545
Mg2 Si3 2.905280 1_555
Mg2 Si9 2.918715 1_555
Mg2 Si16 2.925427 1_555
Mg3 Si16 2.731165 1_555
Mg3 Si2 2.797978 1_555
Mg3 Si17 2.817214 1_554
Mg3 Si8 2.912512 1_555
Mg3 Si12 2.982161 1_555
Mg3 Si9 3.047185 1_555
Mg3 Si6 3.144023 1_554
Mg4 Si17 2.735880 1_555
Mg4 Si3 2.853750 1_555
Mg4 Si13 2.900601 1_565
Mg4 Si9 2.905903 1_556
Mg4 Si5 3.014464 1_555
Mg4 Si16 3.104730 1_555
Mg4 Si7 3.185541 1_566
Mg4 Si16 3.239341 1_556
Mg5 Si9 2.682918 1_555
Mg5 Si17 2.713276 1_544
Mg5 Si2 2.762923 1_555
Mg5 Si12 2.920007 1_545
Mg5 Si16 3.003108 1_545
Mg5 Si4 3.232436 1_554
Mg6 Si15 2.739366 1_555
Mg6 Si0 2.853524 1_555
Mg6 Si6 2.862782 1_555
Mg6 Si11 2.962929 1_555
Mg6 Si14 2.998016 1_555
Mg6 Si12 3.012077 1_555
Mg6 Si8 3.058495 1_556
Mg6 Si4 3.090155 1_555
Mg6 Si10 3.241284 1_455
Mg7 Si5 2.608126 1_554
Mg7 Si1 2.653714 1_555
Mg7 Si14 2.710927 1_654
Mg7 Si0 2.789909 1_655
Mg7 Si15 2.799154 1_655
Mg7 Si7 3.168597 1_555
Mg8 Si15 2.783420 1_565
Mg8 Si14 2.833139 1_555
Mg8 Si4 2.841880 1_565
Mg8 Si10 2.863745 1_465
Mg8 Si0 2.892465 1_555
Mg8 Si6 2.898707 1_555
Mg8 Si11 3.026547 1_564
Mg8 Si12 3.077553 1_555
Mg9 Si7 2.869154 1_565
Mg9 Si5 2.873274 1_554
Mg9 Si3 2.900301 1_555
Mg9 Si1 2.917157 1_555
Mg9 Si16 2.922859 1_555
Mg9 Si9 3.015149 1_555
Mg9 Si13 3.032523 1_555
Mg9 Si10 3.294707 1_565
Si0 Si11 2.396964 1_564
Si0 Si12 2.451714 1_555
Si0 Si6 2.556498 1_554
Si0 Si14 2.687891 1_554
Si0 Si4 2.961763 1_564
Si1 Si14 2.415592 1_655
Si1 Si13 2.427154 1_555
Si1 Si10 2.438528 1_555
Si2 Si4 2.428760 1_555
Si2 Si8 2.538248 1_555
Si3 Si5 2.367688 1_555
Si3 Si9 2.390020 1_556
Si4 Si8 2.441861 1_556
Si4 Si6 2.635778 1_545
Si5 Si7 2.420979 1_566
Si6 Si8 2.519652 1_556
Si10 Si5 2.379873 1_545
Si10 Si11 2.583890 1_655
Si10 Si7 2.814106 1_555
Si11 Si15 2.381569 1_556
Si11 Si8 2.455508 1_556
Si11 Si4 2.808819 1_555
Si12 Si2 2.522665 1_565
Si12 Si6 2.604679 1_555
Si12 Si17 2.701299 1_555
Si13 Si7 2.438745 1_556
Si13 Si3 2.458551 1_555
Si14 Si15 2.452793 1_556
Si14 Si6 2.507115 1_555
Si15 Si7 2.419130 1_455
Si16 Si3 2.437417 1_555
Si17 Si4 2.473953 1_565
Si17 Si2 2.651831 1_565
Si17 Si6 2.738129 1_555
