# generated using pymatgen
data_NbPbS2
_symmetry_space_group_name_H-M   'P 1'
_cell_length_a   3.38733778
_cell_length_b   3.38733778
_cell_length_c   17.86342568
_cell_angle_alpha   90.00000000
_cell_angle_beta   90.00000000
_cell_angle_gamma   120.00001169
_symmetry_Int_Tables_number   1
_chemical_formula_structural   NbPbS2
_chemical_formula_sum   'Nb2 Pb2 S4'
_cell_volume   177.50571471
_cell_formula_units_Z   2
loop_
 _symmetry_equiv_pos_site_id
 _symmetry_equiv_pos_as_xyz
  1  'x, y, z'
loop_
 _atom_site_type_symbol
 _atom_site_label
 _atom_site_symmetry_multiplicity
 _atom_site_fract_x
 _atom_site_fract_y
 _atom_site_fract_z
 _atom_site_occupancy
  Nb  Nb0  1  0.66666700  0.33333300  0.75000000  1
  Nb  Nb1  1  0.33333300  0.66666700  0.25000000  1
  Pb  Pb0  1  0.00000000  -0.00000000  0.00000000  1
  Pb  Pb1  1  0.00000000  -0.00000000  0.50000000  1
  S  S0  1  0.00000000  -0.00000000  0.16358857  1
  S  S1  1  0.00000000  -0.00000000  0.66358857  1
  S  S2  1  0.00000000  0.00000000  0.33641143  1
  S  S3  1  0.00000000  -0.00000000  0.83641143  1
loop_
_geom_bond_atom_site_label_1
_geom_bond_atom_site_label_2
_geom_bond_distance
_geom_bond_site_symmetry_2
Nb0 S3 2.491464 1_655
Nb0 S1 2.491464 1_655
Nb0 S3 2.491466 1_665
Nb0 S3 2.491466 1_555
Nb0 S1 2.491466 1_665
Nb0 S1 2.491466 1_555
Nb1 S0 2.491464 1_565
Nb1 S2 2.491464 1_565
Nb1 S2 2.491466 1_555
Nb1 S0 2.491466 1_665
Nb1 S0 2.491466 1_555
Nb1 S2 2.491466 1_665
Pb0 S0 2.922252 1_555
Pb0 S3 2.922252 1_554
Pb1 S2 2.922252 1_555
Pb1 S1 2.922252 1_555
