# generated using pymatgen
data_AgRh(SO4)2
_symmetry_space_group_name_H-M   'P 1'
_cell_length_a   4.80481092
_cell_length_b   4.80481092
_cell_length_c   7.51359625
_cell_angle_alpha   87.04419025
_cell_angle_beta   87.04419025
_cell_angle_gamma   65.49035749
_symmetry_Int_Tables_number   1
_chemical_formula_structural   AgRh(SO4)2
_chemical_formula_sum   'Ag1 Rh1 S2 O8'
_cell_volume   157.53327862
_cell_formula_units_Z   1
loop_
 _symmetry_equiv_pos_site_id
 _symmetry_equiv_pos_as_xyz
  1  'x, y, z'
loop_
 _atom_site_type_symbol
 _atom_site_label
 _atom_site_symmetry_multiplicity
 _atom_site_fract_x
 _atom_site_fract_y
 _atom_site_fract_z
 _atom_site_occupancy
  Ag  Ag0  1  0.00000000  0.00000000  0.50000000  1
  Rh  Rh0  1  0.00000000  0.00000000  0.00000000  1
  S  S0  1  0.36634600  0.36634600  0.78847300  1
  S  S1  1  0.63365400  0.63365400  0.21152700  1
  O  O0  1  0.29232200  0.29232200  0.61732400  1
  O  O1  1  0.70767800  0.70767800  0.38267600  1
  O  O2  1  0.71433900  0.24083500  0.79621800  1
  O  O3  1  0.28566100  0.75916500  0.20378200  1
  O  O4  1  0.75916500  0.28566100  0.20378200  1
  O  O5  1  0.24083500  0.71433900  0.79621800  1
  O  O6  1  0.25208400  0.25208400  0.95182000  1
  O  O7  1  0.74791600  0.74791600  0.04818000  1
loop_
_geom_bond_atom_site_label_1
_geom_bond_atom_site_label_2
_geom_bond_distance
_geom_bond_site_symmetry_2
Ag0 O0 2.571924 1_555
Ag0 O1 2.571924 1_445
Ag0 O5 2.609460 1_545
Ag0 O4 2.609460 1_455
Ag0 O3 2.609460 1_545
Ag0 O2 2.609460 1_455
O0 S0 1.451191 1_555
O1 S1 1.451191 1_555
O2 S0 1.527282 1_555
O2 Rh0 2.069670 1_656
O3 S1 1.527282 1_555
O3 Rh0 2.069670 1_565
O4 S1 1.527282 1_555
O4 Rh0 2.069670 1_655
O5 S0 1.527282 1_555
O5 Rh0 2.069670 1_566
O6 S0 1.490046 1_555
O6 Rh0 2.047411 1_556
O7 S1 1.490046 1_555
O7 Rh0 2.047411 1_665
