# generated using pymatgen
data_K2Si3SnO10
_symmetry_space_group_name_H-M   'P 1'
_cell_length_a   7.20949700
_cell_length_b   10.17044900
_cell_length_c   13.31534700
_cell_angle_alpha   90.00000000
_cell_angle_beta   90.00000000
_cell_angle_gamma   90.00000000
_symmetry_Int_Tables_number   1
_chemical_formula_structural   K2Si3SnO10
_chemical_formula_sum   'K8 Si12 Sn4 O40'
_cell_volume   976.33212736
_cell_formula_units_Z   4
loop_
 _symmetry_equiv_pos_site_id
 _symmetry_equiv_pos_as_xyz
  1  'x, y, z'
loop_
 _atom_site_type_symbol
 _atom_site_label
 _atom_site_symmetry_multiplicity
 _atom_site_fract_x
 _atom_site_fract_y
 _atom_site_fract_z
 _atom_site_occupancy
  K  K0  1  0.34143800  0.78134900  0.12950000  1
  K  K1  1  0.84143800  0.71865100  0.87050000  1
  K  K2  1  0.65856200  0.28134900  0.37050000  1
  K  K3  1  0.15856200  0.21865100  0.62950000  1
  K  K4  1  0.78254500  0.56678800  0.58179100  1
  K  K5  1  0.28254500  0.93321200  0.41820900  1
  K  K6  1  0.21745500  0.06678800  0.91820900  1
  K  K7  1  0.71745500  0.43321200  0.08179100  1
  Si  Si0  1  0.49316000  0.82145900  0.67522200  1
  Si  Si1  1  0.99316000  0.67854100  0.32477800  1
  Si  Si2  1  0.50684000  0.32145900  0.82477800  1
  Si  Si3  1  0.00684000  0.17854100  0.17522200  1
  Si  Si4  1  0.76554200  0.97106300  0.54888600  1
  Si  Si5  1  0.26554200  0.52893700  0.45111400  1
  Si  Si6  1  0.23445800  0.47106300  0.95111400  1
  Si  Si7  1  0.73445800  0.02893700  0.04888600  1
  Si  Si8  1  0.92231700  0.35901600  0.83186100  1
  Si  Si9  1  0.42231700  0.14098400  0.16813900  1
  Si  Si10  1  0.07768300  0.85901600  0.66813900  1
  Si  Si11  1  0.57768300  0.64098400  0.33186100  1
  Sn  Sn0  1  0.24268800  0.54898400  0.70933800  1
  Sn  Sn1  1  0.74268800  0.95101600  0.29066200  1
  Sn  Sn2  1  0.75731200  0.04898400  0.79066200  1
  Sn  Sn3  1  0.25731200  0.45101600  0.20933800  1
  O  O0  1  0.25279400  0.58903000  0.86645800  1
  O  O1  1  0.75279400  0.91097000  0.13354200  1
  O  O2  1  0.74720600  0.08903000  0.63354200  1
  O  O3  1  0.24720600  0.41097000  0.36645800  1
  O  O4  1  0.46967800  0.66360600  0.68417200  1
  O  O5  1  0.96967800  0.83639400  0.31582800  1
  O  O6  1  0.53032200  0.16360600  0.81582800  1
  O  O7  1  0.03032200  0.33639400  0.18417200  1
  O  O8  1  0.22078500  0.47958900  0.56304900  1
  O  O9  1  0.72078500  0.02041100  0.43695100  1
  O  O10  1  0.77921500  0.97958900  0.93695100  1
  O  O11  1  0.27921500  0.52041100  0.06304900  1
  O  O12  1  0.00521600  0.43930100  0.73656500  1
  O  O13  1  0.50521600  0.06069900  0.26343500  1
  O  O14  1  0.99478400  0.93930100  0.76343500  1
  O  O15  1  0.49478400  0.56069900  0.23656500  1
  O  O16  1  0.40526300  0.38150200  0.72600100  1
  O  O17  1  0.90526300  0.11849800  0.27399900  1
  O  O18  1  0.59473700  0.88150200  0.77399900  1
  O  O19  1  0.09473700  0.61849800  0.22600100  1
  O  O20  1  0.05475500  0.70143200  0.68356400  1
  O  O21  1  0.55475500  0.79856800  0.31643600  1
  O  O22  1  0.94524500  0.20143200  0.81643600  1
  O  O23  1  0.44524500  0.29856800  0.18356400  1
  O  O24  1  0.29738300  0.89919200  0.65017200  1
  O  O25  1  0.79738300  0.60080800  0.34982800  1
  O  O26  1  0.70261700  0.39919200  0.84982800  1
  O  O27  1  0.20261700  0.10080800  0.15017200  1
  O  O28  1  0.97927800  0.91206700  0.56234900  1
  O  O29  1  0.47927800  0.58793300  0.43765100  1
  O  O30  1  0.02072200  0.41206700  0.93765100  1
  O  O31  1  0.52072200  0.08793300  0.06234900  1
  O  O32  1  0.62470400  0.84705100  0.57533400  1
  O  O33  1  0.12470400  0.65294900  0.42466600  1
  O  O34  1  0.37529600  0.34705100  0.92466600  1
  O  O35  1  0.87529600  0.15294900  0.07533400  1
  O  O36  1  0.64169500  0.28972700  0.58419200  1
  O  O37  1  0.14169500  0.21027300  0.41580800  1
  O  O38  1  0.35830500  0.78972700  0.91580800  1
  O  O39  1  0.85830500  0.71027300  0.08419200  1
loop_
_geom_bond_atom_site_label_1
_geom_bond_atom_site_label_2
_geom_bond_distance
_geom_bond_site_symmetry_2
K0 O19 2.749125 1_555
K0 O11 2.833213 1_555
K0 O38 2.849255 1_554
K0 O15 2.879344 1_555
K0 O21 2.931132 1_555
K0 O1 3.245923 1_555
K1 O18 2.749125 1_555
K1 O10 2.833213 1_555
K1 O39 2.849255 1_556
K1 O14 2.879344 1_555
K1 O20 2.931132 1_655
K1 O0 3.245923 1_655
K2 O17 2.749125 1_555
K2 O9 2.833213 1_555
K2 O36 2.849255 1_555
K2 O13 2.879344 1_555
K2 O23 2.931132 1_555
K2 O3 3.245923 1_555
K3 O16 2.749125 1_555
K3 O8 2.833213 1_555
K3 O37 2.849255 1_555
K3 O12 2.879344 1_555
K3 O22 2.931132 1_455
K3 O2 3.245923 1_455
K4 O20 2.750097 1_655
K4 O4 2.813505 1_555
K4 O12 2.916417 1_655
K4 O29 2.917228 1_555
K4 O36 2.995391 1_555
K4 O32 3.070361 1_555
K4 O25 3.109828 1_555
K4 O8 3.291073 1_655
K4 O33 3.351143 1_655
K5 O21 2.750097 1_555
K5 O5 2.813505 1_455
K5 O13 2.916417 1_565
K5 O28 2.917228 1_455
K5 O37 2.995391 1_565
K5 O33 3.070361 1_555
K5 O24 3.109828 1_555
K5 O9 3.291073 1_565
K5 O32 3.351143 1_555
K6 O22 2.750097 1_455
K6 O6 2.813505 1_555
K6 O14 2.916417 1_445
K6 O31 2.917228 1_556
K6 O38 2.995391 1_545
K6 O34 3.070361 1_555
K6 O27 3.109828 1_556
K6 O10 3.291073 1_445
K6 O35 3.351143 1_456
K7 O23 2.750097 1_555
K7 O7 2.813505 1_655
K7 O15 2.916417 1_555
K7 O30 2.917228 1_654
K7 O39 2.995391 1_555
K7 O35 3.070361 1_555
K7 O26 3.109828 1_554
K7 O11 3.291073 1_555
K7 O34 3.351143 1_554
O0 Si6 1.651537 1_555
O0 Sn0 2.132628 1_555
O1 Si7 1.651537 1_565
O1 Sn1 2.132628 1_555
O2 Si4 1.651537 1_545
O2 Sn2 2.132628 1_555
O3 Si5 1.651537 1_555
O3 Sn3 2.132628 1_555
O4 Si0 1.618730 1_555
O4 Sn0 2.036997 1_555
O5 Si1 1.618730 1_555
O5 Sn1 2.036997 1_555
O6 Si2 1.618730 1_555
O6 Sn2 2.036997 1_555
O7 Si3 1.618730 1_555
O7 Sn3 2.036997 1_555
O8 Si5 1.605449 1_555
O8 Sn0 2.077818 1_555
O9 Si4 1.605449 1_545
O9 Sn1 2.077818 1_545
O10 Si7 1.605449 1_566
O10 Sn2 2.077818 1_565
O11 Si6 1.605449 1_554
O11 Sn3 2.077818 1_555
O12 Si8 1.622970 1_455
O12 Sn0 2.075321 1_555
O13 Si9 1.622970 1_555
O13 Sn1 2.075321 1_545
O14 Si10 1.622970 1_655
O14 Sn2 2.075321 1_565
O15 Si11 1.622970 1_555
O15 Sn3 2.075321 1_555
O16 Si2 1.624526 1_555
O16 Sn0 2.079536 1_555
O17 Si3 1.624526 1_655
O17 Sn1 2.079536 1_545
O18 Si0 1.624526 1_555
O18 Sn2 2.079536 1_565
O19 Si1 1.624526 1_455
O19 Sn3 2.079536 1_555
O20 Si10 1.624240 1_555
O20 Sn0 2.087458 1_555
O21 Si11 1.624240 1_555
O21 Sn1 2.087458 1_555
O22 Si8 1.624240 1_555
O22 Sn2 2.087458 1_555
O23 Si9 1.624240 1_555
O23 Sn3 2.087458 1_555
O24 Si0 1.651809 1_555
O24 Si10 1.653184 1_555
O25 Si1 1.651809 1_555
O25 Si11 1.653184 1_555
O26 Si2 1.651809 1_555
O26 Si8 1.653184 1_555
O27 Si3 1.651809 1_555
O27 Si9 1.653184 1_555
O28 Si4 1.663315 1_555
O28 Si10 1.666936 1_655
O29 Si5 1.663315 1_555
O29 Si11 1.666936 1_555
O30 Si6 1.663315 1_555
O30 Si8 1.666936 1_455
O31 Si7 1.663315 1_555
O31 Si9 1.666936 1_555
O32 Si0 1.654134 1_555
O32 Si4 1.657036 1_555
O33 Si1 1.654134 1_455
O33 Si5 1.657036 1_555
O34 Si2 1.654134 1_555
O34 Si6 1.657036 1_555
O35 Si3 1.654134 1_655
O35 Si7 1.657036 1_555
