# generated using pymatgen
data_BaCaI4
_symmetry_space_group_name_H-M   'P 1'
_cell_length_a   9.92623300
_cell_length_b   11.08095700
_cell_length_c   11.08290900
_cell_angle_alpha   90.00000000
_cell_angle_beta   90.00000000
_cell_angle_gamma   90.00000000
_symmetry_Int_Tables_number   1
_chemical_formula_structural   BaCaI4
_chemical_formula_sum   'Ba4 Ca4 I16'
_cell_volume   1219.03311157
_cell_formula_units_Z   4
loop_
 _symmetry_equiv_pos_site_id
 _symmetry_equiv_pos_as_xyz
  1  'x, y, z'
loop_
 _atom_site_type_symbol
 _atom_site_label
 _atom_site_symmetry_multiplicity
 _atom_site_fract_x
 _atom_site_fract_y
 _atom_site_fract_z
 _atom_site_occupancy
  Ba  Ba0  1  0.24694600  0.25000000  0.25033400  1
  Ba  Ba1  1  0.25305400  0.75000000  0.75033400  1
  Ba  Ba2  1  0.74694600  0.25000000  0.24966600  1
  Ba  Ba3  1  0.75305400  0.75000000  0.74966600  1
  Ca  Ca0  1  0.00864400  0.25000000  0.75118500  1
  Ca  Ca1  1  0.49135600  0.75000000  0.25118500  1
  Ca  Ca2  1  0.50864400  0.25000000  0.74881500  1
  Ca  Ca3  1  0.99135600  0.75000000  0.24881500  1
  I  I0  1  0.00291600  0.96517200  0.76104200  1
  I  I1  1  0.00291600  0.53482800  0.76104200  1
  I  I2  1  0.23856100  0.75000000  0.43407900  1
  I  I3  1  0.25423600  0.25000000  0.56518000  1
  I  I4  1  0.24576400  0.75000000  0.06518000  1
  I  I5  1  0.26143900  0.25000000  0.93407900  1
  I  I6  1  0.49708400  0.46517200  0.26104200  1
  I  I7  1  0.49708400  0.03482800  0.26104200  1
  I  I8  1  0.50291600  0.96517200  0.73895800  1
  I  I9  1  0.50291600  0.53482800  0.73895800  1
  I  I10  1  0.73856100  0.75000000  0.06592100  1
  I  I11  1  0.75423600  0.25000000  0.93482000  1
  I  I12  1  0.74576400  0.75000000  0.43482000  1
  I  I13  1  0.76143900  0.25000000  0.56592100  1
  I  I14  1  0.99708400  0.46517200  0.23895800  1
  I  I15  1  0.99708400  0.03482800  0.23895800  1
loop_
_geom_bond_atom_site_label_1
_geom_bond_atom_site_label_2
_geom_bond_distance
_geom_bond_site_symmetry_2
Ba0 I14 3.442698 1_455
Ba0 I15 3.442698 1_455
Ba0 I6 3.444410 1_555
Ba0 I7 3.444410 1_555
Ba0 I3 3.490160 1_555
Ba0 I5 3.507976 1_554
Ba1 I8 3.442698 1_555
Ba1 I9 3.442698 1_555
Ba1 I0 3.444410 1_555
Ba1 I1 3.444410 1_555
Ba1 I4 3.490160 1_556
Ba1 I2 3.507976 1_555
Ba2 I6 3.442698 1_555
Ba2 I7 3.442698 1_555
Ba2 I14 3.444410 1_555
Ba2 I15 3.444410 1_555
Ba2 I11 3.490160 1_554
Ba2 I13 3.507976 1_555
Ba3 I0 3.442698 1_655
Ba3 I1 3.442698 1_655
Ba3 I8 3.444410 1_555
Ba3 I9 3.444410 1_555
Ba3 I12 3.490160 1_555
Ba3 I10 3.507976 1_556
Ca0 I1 3.158569 1_555
Ca0 I0 3.158569 1_545
Ca0 I3 3.192581 1_555
Ca0 I13 3.199547 1_455
Ca0 I5 3.225727 1_555
Ca0 I11 3.243345 1_455
Ca1 I6 3.158569 1_555
Ca1 I7 3.158569 1_565
Ca1 I4 3.192581 1_555
Ca1 I10 3.199547 1_555
Ca1 I2 3.225727 1_555
Ca1 I12 3.243345 1_555
Ca2 I9 3.158569 1_555
Ca2 I8 3.158569 1_545
Ca2 I11 3.192581 1_555
Ca2 I5 3.199547 1_555
Ca2 I13 3.225727 1_555
Ca2 I3 3.243345 1_555
Ca3 I14 3.158569 1_555
Ca3 I15 3.158569 1_565
Ca3 I12 3.192581 1_555
Ca3 I2 3.199547 1_655
Ca3 I10 3.225727 1_555
Ca3 I4 3.243345 1_655
