# generated using pymatgen
data_CeMg14Ni
_symmetry_space_group_name_H-M   'P 1'
_cell_length_a   6.56405732
_cell_length_b   6.56405732
_cell_length_c   10.19497800
_cell_angle_alpha   90.00000000
_cell_angle_beta   90.00000000
_cell_angle_gamma   125.57204795
_symmetry_Int_Tables_number   1
_chemical_formula_structural   CeMg14Ni
_chemical_formula_sum   'Ce1 Mg14 Ni1'
_cell_volume   357.29504921
_cell_formula_units_Z   1
loop_
 _symmetry_equiv_pos_site_id
 _symmetry_equiv_pos_as_xyz
  1  'x, y, z'
loop_
 _atom_site_type_symbol
 _atom_site_label
 _atom_site_symmetry_multiplicity
 _atom_site_fract_x
 _atom_site_fract_y
 _atom_site_fract_z
 _atom_site_occupancy
  Ce  Ce0  1  0.31263100  0.68736900  0.50000000  1
  Mg  Mg0  1  0.82867000  0.17133000  0.00000000  1
  Mg  Mg1  1  0.33302800  0.66697200  0.00000000  1
  Mg  Mg2  1  0.29572600  0.17455800  0.50000000  1
  Mg  Mg3  1  0.33367800  0.17396500  0.00000000  1
  Mg  Mg4  1  0.82544200  0.70427400  0.50000000  1
  Mg  Mg5  1  0.82603500  0.66632200  0.00000000  1
  Mg  Mg6  1  0.17069100  0.32475300  0.24930000  1
  Mg  Mg7  1  0.17069100  0.32475300  0.75070000  1
  Mg  Mg8  1  0.67524700  0.82930900  0.24930000  1
  Mg  Mg9  1  0.67524700  0.82930900  0.75070000  1
  Mg  Mg10  1  0.68586000  0.31414000  0.28711600  1
  Mg  Mg11  1  0.68586000  0.31414000  0.71288400  1
  Mg  Mg12  1  0.16742200  0.83257800  0.23546600  1
  Mg  Mg13  1  0.16742200  0.83257800  0.76453400  1
  Ni  Ni0  1  0.84635500  0.15364500  0.50000000  1
loop_
_geom_bond_atom_site_label_1
_geom_bond_atom_site_label_2
_geom_bond_distance
_geom_bond_site_symmetry_2
Ce0 Ni0 3.027552 1_455
Ce0 Ni0 3.027552 1_565
Ce0 Mg13 3.185500 1_555
Ce0 Mg12 3.185500 1_555
Ce0 Mg8 3.238202 1_555
Ce0 Mg9 3.238202 1_555
Ce0 Mg6 3.238202 1_555
Ce0 Mg7 3.238202 1_555
Ce0 Mg4 3.263736 1_455
Ce0 Mg2 3.263736 1_565
Ce0 Mg2 3.302803 1_555
Ce0 Mg4 3.302803 1_555
Mg0 Mg1 3.002272 1_545
Mg0 Mg1 3.002272 1_655
Mg0 Mg7 3.143838 1_654
Mg0 Mg6 3.143838 1_655
Mg0 Mg9 3.143838 1_544
Mg0 Mg8 3.143838 1_545
Mg0 Mg3 3.259248 1_555
Mg0 Mg5 3.259248 1_555
Mg0 Mg5 3.304870 1_545
Mg0 Mg3 3.304870 1_655
Mg0 Mg10 3.368682 1_555
Mg0 Mg11 3.368682 1_554
Mg1 Mg12 3.082353 1_555
Mg1 Mg13 3.082353 1_554
Mg1 Mg9 3.139488 1_554
Mg1 Mg8 3.139488 1_555
Mg1 Mg7 3.139488 1_554
Mg1 Mg6 3.139488 1_555
Mg1 Mg5 3.238610 1_555
Mg1 Mg3 3.238610 1_555
Mg1 Mg3 3.325451 1_565
Mg1 Mg5 3.325451 1_455
Mg2 Mg4 2.823436 1_445
Mg2 Ni0 2.872012 1_455
Mg2 Mg6 3.019855 1_555
Mg2 Mg7 3.019855 1_555
Mg2 Mg4 3.180246 1_555
Mg3 Mg5 2.955955 1_555
Mg3 Mg5 3.047727 1_445
Mg3 Mg7 3.133055 1_554
Mg3 Mg6 3.133055 1_555
Mg4 Ni0 2.872012 1_565
Mg4 Mg8 3.019855 1_555
Mg4 Mg9 3.019855 1_555
Mg5 Mg9 3.133055 1_554
Mg5 Mg8 3.133055 1_555
Mg6 Mg8 2.974488 1_445
Mg6 Mg8 3.029194 1_555
Mg6 Ni0 3.089415 1_455
Mg7 Mg9 2.974488 1_445
Mg7 Mg9 3.029194 1_555
Mg7 Ni0 3.089415 1_455
Mg8 Ni0 3.089415 1_565
Mg9 Ni0 3.089415 1_565
Mg10 Ni0 2.867297 1_555
Mg10 Mg12 3.055268 1_655
Mg10 Mg12 3.055268 1_545
Mg10 Mg4 3.062361 1_555
Mg10 Mg2 3.062361 1_555
Mg10 Mg8 3.166005 1_545
Mg10 Mg6 3.166005 1_655
Mg10 Mg6 3.444239 1_555
Mg10 Mg8 3.444239 1_555
Mg10 Mg3 3.504879 1_555
Mg10 Mg5 3.504879 1_555
Mg11 Ni0 2.867297 1_555
Mg11 Mg13 3.055268 1_655
Mg11 Mg13 3.055268 1_545
Mg11 Mg4 3.062361 1_555
Mg11 Mg2 3.062361 1_555
Mg11 Mg9 3.166005 1_545
Mg11 Mg7 3.166005 1_655
Mg11 Mg7 3.444239 1_555
Mg11 Mg9 3.444239 1_555
Mg11 Mg3 3.504879 1_556
Mg11 Mg5 3.504879 1_556
Mg12 Mg3 3.021595 1_565
Mg12 Mg5 3.021595 1_455
Mg12 Mg6 3.221319 1_565
Mg12 Mg8 3.221319 1_455
Mg12 Mg4 3.289700 1_455
Mg12 Mg2 3.289700 1_565
Mg12 Mg8 3.348892 1_555
Mg12 Mg6 3.348892 1_555
Mg13 Mg3 3.021595 1_566
Mg13 Mg5 3.021595 1_456
Mg13 Mg7 3.221319 1_565
Mg13 Mg9 3.221319 1_455
Mg13 Mg4 3.289700 1_455
Mg13 Mg2 3.289700 1_565
Mg13 Mg9 3.348892 1_555
Mg13 Mg7 3.348892 1_555
