# generated using pymatgen
data_CeMg3
_symmetry_space_group_name_H-M   'P 1'
_cell_length_a   6.26586800
_cell_length_b   10.62582200
_cell_length_c   12.45093200
_cell_angle_alpha   90.00000000
_cell_angle_beta   90.00000000
_cell_angle_gamma   90.00000000
_symmetry_Int_Tables_number   1
_chemical_formula_structural   CeMg3
_chemical_formula_sum   'Ce8 Mg24'
_cell_volume   828.98302820
_cell_formula_units_Z   8
loop_
 _symmetry_equiv_pos_site_id
 _symmetry_equiv_pos_as_xyz
  1  'x, y, z'
loop_
 _atom_site_type_symbol
 _atom_site_label
 _atom_site_symmetry_multiplicity
 _atom_site_fract_x
 _atom_site_fract_y
 _atom_site_fract_z
 _atom_site_occupancy
  Ce  Ce0_0  1  0.25000000  0.00000000  0.07747100  1
  Ce  Ce0_1  1  0.25000000  0.00000000  0.57747100  1
  Ce  Ce0_2  1  0.25000000  0.50000000  0.07747100  1
  Ce  Ce0_3  1  0.25000000  0.50000000  0.57747100  1
  Ce  Ce0_4  1  0.75000000  0.00000000  0.07747100  1
  Ce  Ce0_5  1  0.75000000  0.00000000  0.57747100  1
  Ce  Ce0_6  1  0.75000000  0.50000000  0.07747100  1
  Ce  Ce0_7  1  0.75000000  0.50000000  0.57747100  1
  Mg  Mg0_0  1  0.00000000  0.00000000  0.32642850  1
  Mg  Mg0_1  1  0.00000000  0.00000000  0.82642850  1
  Mg  Mg0_2  1  0.00000000  0.50000000  0.32642850  1
  Mg  Mg0_3  1  0.00000000  0.50000000  0.82642850  1
  Mg  Mg0_4  1  0.50000000  0.00000000  0.32642850  1
  Mg  Mg0_5  1  0.50000000  0.00000000  0.82642850  1
  Mg  Mg0_6  1  0.50000000  0.50000000  0.32642850  1
  Mg  Mg0_7  1  0.50000000  0.50000000  0.82642850  1
  Mg  Mg1_0  1  0.00000000  0.25000000  0.18037700  1
  Mg  Mg1_1  1  0.00000000  0.25000000  0.68037700  1
  Mg  Mg1_2  1  0.00000000  0.75000000  0.18037700  1
  Mg  Mg1_3  1  0.00000000  0.75000000  0.68037700  1
  Mg  Mg1_4  1  0.50000000  0.25000000  0.18037700  1
  Mg  Mg1_5  1  0.50000000  0.25000000  0.68037700  1
  Mg  Mg1_6  1  0.50000000  0.75000000  0.18037700  1
  Mg  Mg1_7  1  0.50000000  0.75000000  0.68037700  1
  Mg  Mg2_0  1  0.25000000  0.25000000  0.41572400  1
  Mg  Mg2_1  1  0.25000000  0.25000000  0.91572400  1
  Mg  Mg2_2  1  0.25000000  0.75000000  0.41572400  1
  Mg  Mg2_3  1  0.25000000  0.75000000  0.91572400  1
  Mg  Mg2_4  1  0.75000000  0.25000000  0.41572400  1
  Mg  Mg2_5  1  0.75000000  0.25000000  0.91572400  1
  Mg  Mg2_6  1  0.75000000  0.75000000  0.41572400  1
  Mg  Mg2_7  1  0.75000000  0.75000000  0.91572400  1
loop_
_geom_bond_atom_site_label_1
_geom_bond_atom_site_label_2
_geom_bond_distance
_geom_bond_site_symmetry_2
Ce0_0 Ce0_4 3.132934 1_455
Ce0_0 Ce0_4 3.132934 1_555
Ce0_0 Mg2_1 3.333550 1_554
Ce0_0 Mg2_3 3.333550 1_544
Ce0_0 Mg1_4 3.339497 1_555
Ce0_0 Mg1_2 3.339497 1_545
Ce0_0 Mg1_0 3.339497 1_555
Ce0_0 Mg1_6 3.339497 1_545
Ce0_0 Mg0_4 3.473080 1_555
Ce0_0 Mg0_0 3.473080 1_555
Ce0_0 Mg0_1 3.496270 1_554
Ce0_0 Mg0_5 3.496270 1_554
Ce0_1 Ce0_5 3.132934 1_555
Ce0_1 Ce0_5 3.132934 1_455
Ce0_1 Mg2_2 3.333550 1_545
Ce0_1 Mg2_0 3.333550 1_555
Ce0_1 Mg1_7 3.339497 1_545
Ce0_1 Mg1_5 3.339497 1_555
Ce0_1 Mg1_3 3.339497 1_545
Ce0_1 Mg1_1 3.339497 1_555
Ce0_1 Mg0_1 3.473080 1_555
Ce0_1 Mg0_5 3.473080 1_555
Ce0_1 Mg0_4 3.496270 1_555
Ce0_1 Mg0_0 3.496270 1_555
Ce0_2 Ce0_6 3.132934 1_555
Ce0_2 Ce0_6 3.132934 1_455
Ce0_2 Mg2_3 3.333550 1_554
Ce0_2 Mg2_1 3.333550 1_554
Ce0_2 Mg1_4 3.339497 1_555
Ce0_2 Mg1_2 3.339497 1_555
Ce0_2 Mg1_0 3.339497 1_555
Ce0_2 Mg1_6 3.339497 1_555
Ce0_2 Mg0_2 3.473080 1_555
Ce0_2 Mg0_6 3.473080 1_555
Ce0_2 Mg0_7 3.496270 1_554
Ce0_2 Mg0_3 3.496270 1_554
Ce0_3 Ce0_7 3.132934 1_455
Ce0_3 Ce0_7 3.132934 1_555
Ce0_3 Mg2_0 3.333550 1_555
Ce0_3 Mg2_2 3.333550 1_555
Ce0_3 Mg1_7 3.339497 1_555
Ce0_3 Mg1_3 3.339497 1_555
Ce0_3 Mg1_5 3.339497 1_555
Ce0_3 Mg1_1 3.339497 1_555
Ce0_3 Mg0_3 3.473080 1_555
Ce0_3 Mg0_7 3.473080 1_555
Ce0_3 Mg0_6 3.496270 1_555
Ce0_3 Mg0_2 3.496270 1_555
Ce0_4 Mg2_5 3.333550 1_554
Ce0_4 Mg2_7 3.333550 1_544
Ce0_4 Mg1_2 3.339497 1_645
Ce0_4 Mg1_0 3.339497 1_655
Ce0_4 Mg1_4 3.339497 1_555
Ce0_4 Mg1_6 3.339497 1_545
Ce0_4 Mg0_0 3.473080 1_655
Ce0_4 Mg0_4 3.473080 1_555
Ce0_4 Mg0_1 3.496270 1_654
Ce0_4 Mg0_5 3.496270 1_554
Ce0_5 Mg2_4 3.333550 1_555
Ce0_5 Mg2_6 3.333550 1_545
Ce0_5 Mg1_7 3.339497 1_545
Ce0_5 Mg1_1 3.339497 1_655
Ce0_5 Mg1_5 3.339497 1_555
Ce0_5 Mg1_3 3.339497 1_645
Ce0_5 Mg0_1 3.473080 1_655
Ce0_5 Mg0_5 3.473080 1_555
Ce0_5 Mg0_4 3.496270 1_555
Ce0_5 Mg0_0 3.496270 1_655
Ce0_6 Mg2_7 3.333550 1_554
Ce0_6 Mg2_5 3.333550 1_554
Ce0_6 Mg1_0 3.339497 1_655
Ce0_6 Mg1_4 3.339497 1_555
Ce0_6 Mg1_2 3.339497 1_655
Ce0_6 Mg1_6 3.339497 1_555
Ce0_6 Mg0_2 3.473080 1_655
Ce0_6 Mg0_6 3.473080 1_555
Ce0_6 Mg0_7 3.496270 1_554
Ce0_6 Mg0_3 3.496270 1_654
Ce0_7 Mg2_6 3.333550 1_555
Ce0_7 Mg2_4 3.333550 1_555
Ce0_7 Mg1_7 3.339497 1_555
Ce0_7 Mg1_1 3.339497 1_655
Ce0_7 Mg1_5 3.339497 1_555
Ce0_7 Mg1_3 3.339497 1_655
Ce0_7 Mg0_7 3.473080 1_555
Ce0_7 Mg0_3 3.473080 1_655
Ce0_7 Mg0_6 3.496270 1_555
Ce0_7 Mg0_2 3.496270 1_655
Mg0_0 Mg0_4 3.132934 1_455
Mg0_0 Mg0_4 3.132934 1_555
Mg0_0 Mg1_2 3.219257 1_545
Mg0_0 Mg1_0 3.219257 1_555
Mg0_0 Mg2_2 3.278216 1_545
Mg0_0 Mg2_0 3.278216 1_555
Mg0_0 Mg2_4 3.278216 1_455
Mg0_0 Mg2_6 3.278216 1_445
Mg0_1 Mg0_5 3.132934 1_455
Mg0_1 Mg0_5 3.132934 1_555
Mg0_1 Mg1_3 3.219257 1_545
Mg0_1 Mg1_1 3.219257 1_555
Mg0_1 Mg2_3 3.278216 1_545
Mg0_1 Mg2_7 3.278216 1_445
Mg0_1 Mg2_1 3.278216 1_555
Mg0_1 Mg2_5 3.278216 1_455
Mg0_2 Mg0_6 3.132934 1_555
Mg0_2 Mg0_6 3.132934 1_455
Mg0_2 Mg1_2 3.219257 1_555
Mg0_2 Mg1_0 3.219257 1_555
Mg0_2 Mg2_0 3.278216 1_555
Mg0_2 Mg2_4 3.278216 1_455
Mg0_2 Mg2_2 3.278216 1_555
Mg0_2 Mg2_6 3.278216 1_455
Mg0_3 Mg0_7 3.132934 1_555
Mg0_3 Mg0_7 3.132934 1_455
Mg0_3 Mg1_1 3.219257 1_555
Mg0_3 Mg1_3 3.219257 1_555
Mg0_3 Mg2_3 3.278216 1_555
Mg0_3 Mg2_1 3.278216 1_555
Mg0_3 Mg2_5 3.278216 1_455
Mg0_3 Mg2_7 3.278216 1_455
Mg0_4 Mg1_6 3.219257 1_545
Mg0_4 Mg1_4 3.219257 1_555
Mg0_4 Mg2_2 3.278216 1_545
Mg0_4 Mg2_0 3.278216 1_555
Mg0_4 Mg2_4 3.278216 1_555
Mg0_4 Mg2_6 3.278216 1_545
Mg0_5 Mg1_7 3.219257 1_545
Mg0_5 Mg1_5 3.219257 1_555
Mg0_5 Mg2_3 3.278216 1_545
Mg0_5 Mg2_1 3.278216 1_555
Mg0_5 Mg2_7 3.278216 1_545
Mg0_5 Mg2_5 3.278216 1_555
Mg0_6 Mg1_6 3.219257 1_555
Mg0_6 Mg1_4 3.219257 1_555
Mg0_6 Mg2_6 3.278216 1_555
Mg0_6 Mg2_0 3.278216 1_555
Mg0_6 Mg2_4 3.278216 1_555
Mg0_6 Mg2_2 3.278216 1_555
Mg0_7 Mg1_7 3.219257 1_555
Mg0_7 Mg1_5 3.219257 1_555
Mg0_7 Mg2_3 3.278216 1_555
Mg0_7 Mg2_1 3.278216 1_555
Mg0_7 Mg2_7 3.278216 1_555
Mg0_7 Mg2_5 3.278216 1_555
Mg1_0 Mg1_4 3.132934 1_455
Mg1_0 Mg1_4 3.132934 1_555
Mg1_0 Mg2_4 3.322712 1_455
Mg1_0 Mg2_0 3.322712 1_555
Mg1_1 Mg1_5 3.132934 1_555
Mg1_1 Mg1_5 3.132934 1_455
Mg1_1 Mg2_1 3.322712 1_555
Mg1_1 Mg2_5 3.322712 1_455
Mg1_2 Mg1_6 3.132934 1_455
Mg1_2 Mg1_6 3.132934 1_555
Mg1_2 Mg2_2 3.322712 1_555
Mg1_2 Mg2_6 3.322712 1_455
Mg1_3 Mg1_7 3.132934 1_455
Mg1_3 Mg1_7 3.132934 1_555
Mg1_3 Mg2_7 3.322712 1_455
Mg1_3 Mg2_3 3.322712 1_555
Mg1_4 Mg2_0 3.322712 1_555
Mg1_4 Mg2_4 3.322712 1_555
Mg1_5 Mg2_1 3.322712 1_555
Mg1_5 Mg2_5 3.322712 1_555
Mg1_6 Mg2_2 3.322712 1_555
Mg1_6 Mg2_6 3.322712 1_555
Mg1_7 Mg2_7 3.322712 1_555
Mg1_7 Mg2_3 3.322712 1_555
Mg2_0 Mg2_4 3.132934 1_555
Mg2_0 Mg2_4 3.132934 1_455
Mg2_1 Mg2_5 3.132934 1_455
Mg2_1 Mg2_5 3.132934 1_555
Mg2_2 Mg2_6 3.132934 1_455
Mg2_2 Mg2_6 3.132934 1_555
Mg2_3 Mg2_7 3.132934 1_555
Mg2_3 Mg2_7 3.132934 1_455
