# generated using pymatgen
data_Sr2As
_symmetry_space_group_name_H-M   'P 1'
_cell_length_a   4.86265800
_cell_length_b   4.86265800
_cell_length_c   9.14641032
_cell_angle_alpha   105.41587932
_cell_angle_beta   105.41587932
_cell_angle_gamma   90.00000000
_symmetry_Int_Tables_number   1
_chemical_formula_structural   Sr2As
_chemical_formula_sum   'Sr4 As2'
_cell_volume   200.40695066
_cell_formula_units_Z   2
loop_
 _symmetry_equiv_pos_site_id
 _symmetry_equiv_pos_as_xyz
  1  'x, y, z'
loop_
 _atom_site_type_symbol
 _atom_site_label
 _atom_site_symmetry_multiplicity
 _atom_site_fract_x
 _atom_site_fract_y
 _atom_site_fract_z
 _atom_site_occupancy
  Sr  Sr0  1  0.31858000  0.31858000  0.63716000  1
  Sr  Sr1  1  0.68142000  0.68142000  0.36284000  1
  Sr  Sr2  1  0.00000000  0.50000000  0.00000000  1
  Sr  Sr3  1  0.50000000  0.00000000  0.00000000  1
  As  As0  1  0.86656900  0.86656900  0.73313800  1
  As  As1  1  0.13343100  0.13343100  0.26686200  1
loop_
_geom_bond_atom_site_label_1
_geom_bond_atom_site_label_2
_geom_bond_distance
_geom_bond_site_symmetry_2
As0 Sr1 3.138461 1_555
As0 Sr3 3.320700 1_566
As0 Sr2 3.320700 1_656
As0 Sr3 3.320700 1_666
As0 Sr2 3.320700 1_666
As0 Sr0 3.533333 1_555
As0 Sr0 3.533333 1_565
As0 Sr0 3.533333 1_655
As0 Sr0 3.533333 1_665
As1 Sr0 3.138461 1_555
As1 Sr2 3.320700 1_545
As1 Sr2 3.320700 1_555
As1 Sr3 3.320700 1_555
As1 Sr3 3.320700 1_455
As1 Sr1 3.533333 1_455
As1 Sr1 3.533333 1_555
As1 Sr1 3.533333 1_445
As1 Sr1 3.533333 1_545
