# generated using pymatgen
data_PrMo5O8
_symmetry_space_group_name_H-M   'P 1'
_cell_length_a   9.36552300
_cell_length_b   8.38881800
_cell_length_c   10.74474374
_cell_angle_alpha   70.37636120
_cell_angle_beta   90.00000000
_cell_angle_gamma   90.00000000
_symmetry_Int_Tables_number   1
_chemical_formula_structural   PrMo5O8
_chemical_formula_sum   'Pr4 Mo20 O32'
_cell_volume   795.13782689
_cell_formula_units_Z   4
loop_
 _symmetry_equiv_pos_site_id
 _symmetry_equiv_pos_as_xyz
  1  'x, y, z'
loop_
 _atom_site_type_symbol
 _atom_site_label
 _atom_site_symmetry_multiplicity
 _atom_site_fract_x
 _atom_site_fract_y
 _atom_site_fract_z
 _atom_site_occupancy
  Pr  Pr0  1  0.01673500  0.70572700  0.03357600  1
  Pr  Pr1  1  0.51673500  0.29427300  0.46642400  1
  Pr  Pr2  1  0.98326500  0.29427300  0.96642400  1
  Pr  Pr3  1  0.48326500  0.70572700  0.53357600  1
  Mo  Mo0  1  0.35853700  0.98979800  0.08065100  1
  Mo  Mo1  1  0.85853700  0.01020200  0.41934900  1
  Mo  Mo2  1  0.64146300  0.01020200  0.91934900  1
  Mo  Mo3  1  0.14146300  0.98979800  0.58065100  1
  Mo  Mo4  1  0.35764800  0.20390900  0.77391800  1
  Mo  Mo5  1  0.85764800  0.79609100  0.72608200  1
  Mo  Mo6  1  0.64235200  0.79609100  0.22608200  1
  Mo  Mo7  1  0.14235200  0.20390900  0.27391800  1
  Mo  Mo8  1  0.37404700  0.80271300  0.86442000  1
  Mo  Mo9  1  0.87404700  0.19728700  0.63558000  1
  Mo  Mo10  1  0.62595300  0.19728700  0.13558000  1
  Mo  Mo11  1  0.12595300  0.80271300  0.36442000  1
  Mo  Mo12  1  0.36395600  0.59656800  0.18985800  1
  Mo  Mo13  1  0.86395600  0.40343200  0.31014200  1
  Mo  Mo14  1  0.63604400  0.40343200  0.81014200  1
  Mo  Mo15  1  0.13604400  0.59656800  0.68985800  1
  Mo  Mo16  1  0.35350900  0.39096100  0.98270900  1
  Mo  Mo17  1  0.85350900  0.60903900  0.51729100  1
  Mo  Mo18  1  0.64649100  0.60903900  0.01729100  1
  Mo  Mo19  1  0.14649100  0.39096100  0.48270900  1
  O  O0  1  0.50128500  0.58297100  0.86439400  1
  O  O1  1  0.00128500  0.41702900  0.63560600  1
  O  O2  1  0.49871500  0.41702900  0.13560600  1
  O  O3  1  0.99871500  0.58297100  0.36439400  1
  O  O4  1  0.28192100  0.37549200  0.32883600  1
  O  O5  1  0.78192100  0.62450800  0.17116400  1
  O  O6  1  0.71807900  0.62450800  0.67116400  1
  O  O7  1  0.21807900  0.37549200  0.82883600  1
  O  O8  1  0.28601000  0.79217900  0.68646700  1
  O  O9  1  0.78601000  0.20782100  0.81353300  1
  O  O10  1  0.71399000  0.20782100  0.31353300  1
  O  O11  1  0.21399000  0.79217900  0.18646700  1
  O  O12  1  0.28166800  0.18806800  0.59450400  1
  O  O13  1  0.78166800  0.81193200  0.90549600  1
  O  O14  1  0.71833200  0.81193200  0.40549600  1
  O  O15  1  0.21833200  0.18806800  0.09450400  1
  O  O16  1  0.24805700  0.60297700  0.51066200  1
  O  O17  1  0.74805700  0.39702300  0.98933800  1
  O  O18  1  0.75194300  0.39702300  0.48933800  1
  O  O19  1  0.25194300  0.60297700  0.01066200  1
  O  O20  1  0.50705800  0.01568700  0.76411200  1
  O  O21  1  0.00705800  0.98431300  0.73588800  1
  O  O22  1  0.49294200  0.98431300  0.23588800  1
  O  O23  1  0.99294200  0.01568700  0.26411200  1
  O  O24  1  0.99652200  0.59491800  0.85215900  1
  O  O25  1  0.49652200  0.40508200  0.64784100  1
  O  O26  1  0.00347800  0.40508200  0.14784100  1
  O  O27  1  0.50347800  0.59491800  0.35215900  1
  O  O28  1  0.25139700  0.98880500  0.91069400  1
  O  O29  1  0.75139700  0.01119500  0.58930600  1
  O  O30  1  0.74860300  0.01119500  0.08930600  1
  O  O31  1  0.24860300  0.98880500  0.41069400  1
loop_
_geom_bond_atom_site_label_1
_geom_bond_atom_site_label_2
_geom_bond_distance
_geom_bond_site_symmetry_2
Mo0 O22 2.077797 1_555
Mo0 O28 2.086132 1_554
Mo0 O11 2.146533 1_555
Mo0 O15 2.163114 1_565
Mo1 O23 2.077797 1_555
Mo1 O29 2.086132 1_555
Mo1 O10 2.146533 1_555
Mo1 O14 2.163114 1_545
Mo2 O20 2.077797 1_555
Mo2 O30 2.086132 1_556
Mo2 O9 2.146533 1_555
Mo2 O13 2.163114 1_545
Mo3 O21 2.077797 1_555
Mo3 O31 2.086132 1_555
Mo3 O8 2.146533 1_555
Mo3 O12 2.163114 1_565
Mo4 O12 2.100557 1_555
Mo4 O20 2.138693 1_555
Mo4 O28 2.150556 1_545
Mo4 O7 2.167741 1_555
Mo4 O25 2.199819 1_555
Mo5 O13 2.100557 1_555
Mo5 O21 2.138693 1_655
Mo5 O29 2.150556 1_565
Mo5 O6 2.167741 1_555
Mo5 O24 2.199819 1_555
Mo6 O14 2.100557 1_555
Mo6 O22 2.138693 1_555
Mo6 O30 2.150556 1_565
Mo6 O5 2.167741 1_555
Mo6 O27 2.199819 1_555
Mo7 O15 2.100557 1_555
Mo7 O23 2.138693 1_455
Mo7 O31 2.150556 1_545
Mo7 O4 2.167741 1_555
Mo7 O26 2.199819 1_555
Mo8 O8 2.111182 1_555
Mo8 O28 2.127212 1_555
Mo8 O20 2.147558 1_565
Mo8 O19 2.194509 1_556
Mo8 O0 2.195088 1_555
Mo9 O9 2.111182 1_555
Mo9 O29 2.127212 1_555
Mo9 O21 2.147558 1_645
Mo9 O18 2.194509 1_555
Mo9 O1 2.195088 1_655
Mo10 O10 2.111182 1_555
Mo10 O30 2.127212 1_555
Mo10 O22 2.147558 1_545
Mo10 O17 2.194509 1_554
Mo10 O2 2.195088 1_555
Mo11 O11 2.111182 1_555
Mo11 O31 2.127212 1_555
Mo11 O23 2.147558 1_465
Mo11 O16 2.194509 1_555
Mo11 O3 2.195088 1_455
Mo12 O4 2.097487 1_555
Mo12 O11 2.150934 1_555
Mo12 O27 2.175445 1_555
Mo12 O19 2.177409 1_555
Mo12 O2 2.188783 1_555
Mo13 O5 2.097487 1_555
Mo13 O10 2.150934 1_555
Mo13 O26 2.175445 1_655
Mo13 O18 2.177409 1_555
Mo13 O3 2.188783 1_555
Mo14 O6 2.097487 1_555
Mo14 O9 2.150934 1_555
Mo14 O25 2.175445 1_555
Mo14 O17 2.177409 1_555
Mo14 O0 2.188783 1_555
Mo15 O7 2.097487 1_555
Mo15 O8 2.150934 1_555
Mo15 O24 2.175445 1_455
Mo15 O16 2.177409 1_555
Mo15 O1 2.188783 1_555
Mo16 O7 2.122075 1_555
Mo16 O19 2.125351 1_556
Mo16 O15 2.137600 1_556
Mo16 O0 2.179601 1_555
Mo16 O2 2.199422 1_556
Mo17 O6 2.122075 1_555
Mo17 O18 2.125351 1_555
Mo17 O14 2.137600 1_555
Mo17 O1 2.179601 1_655
Mo17 O3 2.199422 1_555
Mo18 O5 2.122075 1_555
Mo18 O17 2.125351 1_554
Mo18 O13 2.137600 1_554
Mo18 O2 2.179601 1_555
Mo18 O0 2.199422 1_554
Mo19 O4 2.122075 1_555
Mo19 O16 2.125351 1_555
Mo19 O12 2.137600 1_555
Mo19 O3 2.179601 1_455
Mo19 O1 2.199422 1_555
O4 Pr1 2.609495 1_555
O5 Pr0 2.609495 1_655
O6 Pr3 2.609495 1_555
O7 Pr2 2.609495 1_455
O8 Pr3 2.727228 1_555
O9 Pr2 2.727228 1_555
O10 Pr1 2.727228 1_555
O11 Pr0 2.727228 1_555
O12 Pr1 2.590526 1_555
O13 Pr0 2.590526 1_656
O14 Pr3 2.590526 1_555
O15 Pr2 2.590526 1_454
O16 Pr3 2.408038 1_555
O17 Pr2 2.408038 1_555
O18 Pr1 2.408038 1_555
O19 Pr0 2.408038 1_555
O24 Pr2 2.409092 1_555
O24 Pr0 2.432419 1_656
O25 Pr3 2.409092 1_555
O25 Pr1 2.432419 1_555
O26 Pr0 2.409092 1_555
O26 Pr2 2.432419 1_454
O27 Pr1 2.409092 1_555
O27 Pr3 2.432419 1_555
