# generated using pymatgen
data_Ca2BiWO6
_symmetry_space_group_name_H-M   'P 1'
_cell_length_a   5.80714406
_cell_length_b   5.80714406
_cell_length_c   8.57480238
_cell_angle_alpha   90.00000000
_cell_angle_beta   90.00000000
_cell_angle_gamma   90.00000000
_symmetry_Int_Tables_number   1
_chemical_formula_structural   Ca2BiWO6
_chemical_formula_sum   'Ca4 Bi2 W2 O12'
_cell_volume   289.16739297
_cell_formula_units_Z   2
loop_
 _symmetry_equiv_pos_site_id
 _symmetry_equiv_pos_as_xyz
  1  'x, y, z'
loop_
 _atom_site_type_symbol
 _atom_site_label
 _atom_site_symmetry_multiplicity
 _atom_site_fract_x
 _atom_site_fract_y
 _atom_site_fract_z
 _atom_site_occupancy
  Ca  Ca0  1  0.50000000  0.00000000  0.75000000  1
  Ca  Ca1  1  -0.00000000  0.50000000  0.75000000  1
  Ca  Ca2  1  0.50000000  -0.00000000  0.25000000  1
  Ca  Ca3  1  0.00000000  0.50000000  0.25000000  1
  Bi  Bi0  1  0.50000000  0.50000000  0.50000000  1
  Bi  Bi1  1  -0.00000000  -0.00000000  0.00000000  1
  W  W0  1  0.50000000  0.50000000  0.00000000  1
  W  W1  1  -0.00000000  -0.00000000  0.50000000  1
  O  O0  1  0.50000000  0.50000000  0.76516582  1
  O  O1  1  0.00000000  0.00000000  0.73483418  1
  O  O2  1  0.50000000  0.50000000  0.23483418  1
  O  O3  1  -0.00000000  0.00000000  0.26516582  1
  O  O4  1  0.68545669  0.14042751  0.50000000  1
  O  O5  1  0.31454331  0.85957249  0.50000000  1
  O  O6  1  0.85957249  0.68545669  0.50000000  1
  O  O7  1  0.14042751  0.31454331  0.50000000  1
  O  O8  1  0.81454331  0.64042751  -0.00000000  1
  O  O9  1  0.18545669  0.35957249  0.00000000  1
  O  O10  1  0.64042751  0.18545669  0.00000000  1
  O  O11  1  0.35957249  0.81454331  -0.00000000  1
loop_
_geom_bond_atom_site_label_1
_geom_bond_atom_site_label_2
_geom_bond_distance
_geom_bond_site_symmetry_2
Ca0 O11 2.533838 1_546
Ca0 O10 2.533838 1_556
Ca0 O5 2.533838 1_545
Ca0 O4 2.533838 1_555
Ca0 O1 2.906483 1_555
Ca0 O0 2.906483 1_545
Ca0 O1 2.906483 1_655
Ca0 O0 2.906483 1_555
Ca1 O8 2.533838 1_456
Ca1 O9 2.533838 1_556
Ca1 O6 2.533838 1_455
Ca1 O7 2.533838 1_555
Ca1 O1 2.906483 1_555
Ca1 O0 2.906483 1_555
Ca1 O1 2.906483 1_565
Ca1 O0 2.906483 1_455
Ca2 O10 2.533838 1_555
Ca2 O11 2.533838 1_545
Ca2 O5 2.533838 1_545
Ca2 O4 2.533838 1_555
Ca2 O3 2.906483 1_655
Ca2 O2 2.906483 1_545
Ca2 O2 2.906483 1_555
Ca2 O3 2.906483 1_555
Ca3 O8 2.533838 1_455
Ca3 O6 2.533838 1_455
Ca3 O9 2.533838 1_555
Ca3 O7 2.533838 1_555
Ca3 O2 2.906483 1_455
Ca3 O2 2.906483 1_555
Ca3 O3 2.906483 1_555
Ca3 O3 2.906483 1_565
Bi0 O2 2.273745 1_555
Bi0 O0 2.273745 1_555
Bi0 O5 2.349466 1_555
Bi0 O6 2.349466 1_555
Bi0 O7 2.349466 1_555
Bi0 O4 2.349466 1_555
Bi1 O1 2.273745 1_554
Bi1 O3 2.273745 1_555
Bi1 O8 2.349466 1_445
Bi1 O9 2.349466 1_555
Bi1 O11 2.349466 1_545
Bi1 O10 2.349466 1_455
O0 W0 2.013657 1_556
O1 W1 2.013657 1_555
O2 W0 2.013657 1_555
O3 W1 2.013657 1_555
O4 W1 2.000368 1_655
O5 W1 2.000368 1_565
O6 W1 2.000368 1_665
O7 W1 2.000368 1_555
O8 W0 2.000368 1_555
O9 W0 2.000368 1_555
O10 W0 2.000368 1_555
O11 W0 2.000368 1_555
