# generated using pymatgen
data_BaLiAl3P2(HO7)2
_symmetry_space_group_name_H-M   'P 1'
_cell_length_a   7.35544837
_cell_length_b   7.35545688
_cell_length_c   7.53773117
_cell_angle_alpha   62.82367260
_cell_angle_beta   117.17625491
_cell_angle_gamma   125.62409470
_symmetry_Int_Tables_number   1
_chemical_formula_structural   BaLiAl3P2(HO7)2
_chemical_formula_sum   'Ba1 Li1 Al3 P2 H2 O14'
_cell_volume   284.45756579
_cell_formula_units_Z   1
loop_
 _symmetry_equiv_pos_site_id
 _symmetry_equiv_pos_as_xyz
  1  'x, y, z'
loop_
 _atom_site_type_symbol
 _atom_site_label
 _atom_site_symmetry_multiplicity
 _atom_site_fract_x
 _atom_site_fract_y
 _atom_site_fract_z
 _atom_site_occupancy
  Ba  Ba0  1  0.00715400  0.99284300  0.00655400  1
  Li  Li0  1  0.78794900  0.21205300  0.41054800  1
  Al  Al0  1  0.00314300  0.99685800  0.50766000  1
  Al  Al1  1  0.47390000  0.98299700  0.51134900  1
  Al  Al2  1  0.01700300  0.52610000  0.51135000  1
  P  P0  1  0.27217800  0.72782200  0.87774400  1
  P  P1  1  0.72195800  0.27804200  0.10593000  1
  H  H0  1  0.31251100  0.68748800  0.33127800  1
  H  H1  1  0.69211400  0.30788500  0.66694600  1
  O  O0  1  0.33581200  0.66418800  0.10840700  1
  O  O1  1  0.66146600  0.33853300  0.87712700  1
  O  O2  1  0.13236500  0.86763600  0.77529500  1
  O  O3  1  0.86486000  0.13514100  0.23033600  1
  O  O4  1  0.11970800  0.51036200  0.78524000  1
  O  O5  1  0.48963800  0.88029100  0.78523900  1
  O  O6  1  0.50762500  0.12299400  0.20973300  1
  O  O7  1  0.87700500  0.49237500  0.20973200  1
  O  O8  1  0.30360100  0.69639800  0.45587900  1
  O  O9  1  0.69858000  0.30142000  0.53999900  1
  O  O10  1  0.79558300  0.96741400  0.61284100  1
  O  O11  1  0.03258700  0.20441800  0.61284100  1
  O  O12  1  0.97656200  0.79272000  0.40309300  1
  O  O13  1  0.20728000  0.02343800  0.40309200  1
loop_
_geom_bond_atom_site_label_1
_geom_bond_atom_site_label_2
_geom_bond_distance
_geom_bond_site_symmetry_2
Ba0 O10 2.685760 1_454
Ba0 O11 2.685766 1_564
Ba0 O12 2.713121 1_455
Ba0 O13 2.713122 1_565
Ba0 O2 2.942111 1_554
Ba0 O7 2.982806 1_455
Ba0 O6 2.982821 1_565
Ba0 O3 3.088344 1_465
Ba0 O5 3.122190 1_454
Ba0 O4 3.122206 1_564
Li0 O11 1.760488 1_655
Li0 O10 1.760491 1_545
Li0 O7 1.858259 1_555
Li0 O6 1.858266 1_555
Li0 O9 1.868553 1_555
Li0 P1 1.995431 1_555
Li0 O3 2.064472 1_555
Al0 O2 1.850932 1_555
Al0 O12 1.874138 1_455
Al0 O13 1.874138 1_565
Al0 O10 1.889422 1_455
Al0 O11 1.889424 1_565
Al0 O3 1.938981 1_465
Al1 O5 1.818023 1_555
Al1 O8 1.854300 1_555
Al1 O13 1.896406 1_565
Al1 O9 1.972408 1_565
Al1 O6 2.090402 1_565
Al1 Li0 2.156852 1_565
Al1 O10 2.186158 1_555
Al2 O4 1.818024 1_555
Al2 O8 1.854294 1_555
Al2 O12 1.896407 1_455
Al2 O9 1.972404 1_455
Al2 O7 2.090417 1_455
Al2 Li0 2.156848 1_455
Al2 O11 2.186158 1_555
H0 O8 1.004071 1_555
H1 O9 1.002965 1_555
O0 P0 1.493188 1_554
O1 P1 1.482930 1_556
O2 P0 1.578821 1_555
O3 P1 1.604778 1_555
O4 P0 1.586554 1_555
O5 P0 1.586556 1_555
O6 P1 1.617230 1_555
O7 P1 1.617229 1_555
O10 O11 1.593040 1_665
O12 O13 1.550788 1_665
