# generated using pymatgen
data_ZnP2WO7
_symmetry_space_group_name_H-M   'P 1'
_cell_length_a   5.53078600
_cell_length_b   6.62322554
_cell_length_c   8.28295146
_cell_angle_alpha   93.69345877
_cell_angle_beta   91.24439126
_cell_angle_gamma   112.13570674
_symmetry_Int_Tables_number   1
_chemical_formula_structural   ZnP2WO7
_chemical_formula_sum   'Zn2 P4 W2 O14'
_cell_volume   280.12328131
_cell_formula_units_Z   2
loop_
 _symmetry_equiv_pos_site_id
 _symmetry_equiv_pos_as_xyz
  1  'x, y, z'
loop_
 _atom_site_type_symbol
 _atom_site_label
 _atom_site_symmetry_multiplicity
 _atom_site_fract_x
 _atom_site_fract_y
 _atom_site_fract_z
 _atom_site_occupancy
  Zn  Zn0  1  0.65654700  0.68330100  0.38258100  1
  Zn  Zn1  1  0.34345300  0.31669900  0.61741900  1
  P  P0  1  0.82578900  0.65321500  0.85305500  1
  P  P1  1  0.17421100  0.34678500  0.14694500  1
  P  P2  1  0.80024700  0.22982600  0.41085600  1
  P  P3  1  0.19975300  0.77017400  0.58914400  1
  W  W0  1  0.66665000  0.11235400  0.85971000  1
  W  W1  1  0.33335000  0.88764600  0.14029000  1
  O  O0  1  0.95897500  0.70114400  0.02035900  1
  O  O1  1  0.04102500  0.29885600  0.97964100  1
  O  O2  1  0.74451400  0.82969400  0.79502400  1
  O  O3  1  0.25548600  0.17030600  0.20497600  1
  O  O4  1  0.59717600  0.42229000  0.82992500  1
  O  O5  1  0.40282400  0.57771000  0.17007500  1
  O  O6  1  0.37672200  0.64461000  0.54330300  1
  O  O7  1  0.62327800  0.35539000  0.45669700  1
  O  O8  1  0.96901300  0.21460800  0.55392100  1
  O  O9  1  0.03098700  0.78539200  0.44607900  1
  O  O10  1  0.96651900  0.37490700  0.27454700  1
  O  O11  1  0.35182800  0.00325800  0.67110300  1
  O  O12  1  0.64817200  0.99674200  0.32889700  1
  O  O13  1  0.03348100  0.62509300  0.72545300  1
loop_
_geom_bond_atom_site_label_1
_geom_bond_atom_site_label_2
_geom_bond_distance
_geom_bond_site_symmetry_2
O0 P0 1.512122 1_554
O0 W1 2.150596 1_655
O1 P1 1.512122 1_556
O1 W0 2.150596 1_455
O2 P0 1.502763 1_555
O2 W0 2.113228 1_565
O3 P1 1.502763 1_555
O3 W1 2.113228 1_545
O4 P0 1.571325 1_555
O4 Zn1 2.133324 1_555
O4 W0 2.253431 1_555
O5 P1 1.571325 1_555
O5 Zn0 2.133324 1_555
O5 W1 2.253431 1_555
O6 P3 1.543594 1_555
O6 Zn0 2.016852 1_555
O6 Zn1 2.236759 1_555
O7 P2 1.543594 1_555
O7 Zn1 2.016852 1_555
O7 Zn0 2.236759 1_555
O8 P2 1.524428 1_555
O8 Zn1 1.968310 1_655
O9 P3 1.524428 1_555
O9 Zn0 1.968310 1_455
O10 P2 1.600844 1_555
O10 P1 1.630918 1_655
O11 P3 1.553439 1_545
O11 Zn1 2.167974 1_555
O11 W0 2.186949 1_555
O12 P2 1.553439 1_565
O12 Zn0 2.167974 1_555
O12 W1 2.186949 1_555
O13 P3 1.600844 1_555
O13 P0 1.630918 1_455
