# generated using pymatgen
data_Eu(In4Ir)2
_symmetry_space_group_name_H-M   'P 1'
_cell_length_a   4.49060700
_cell_length_b   14.33299100
_cell_length_c   16.61306900
_cell_angle_alpha   90.00000000
_cell_angle_beta   90.00000000
_cell_angle_gamma   90.00000000
_symmetry_Int_Tables_number   1
_chemical_formula_structural   Eu(In4Ir)2
_chemical_formula_sum   'Eu4 In32 Ir8'
_cell_volume   1069.28074417
_cell_formula_units_Z   4
loop_
 _symmetry_equiv_pos_site_id
 _symmetry_equiv_pos_as_xyz
  1  'x, y, z'
loop_
 _atom_site_type_symbol
 _atom_site_label
 _atom_site_symmetry_multiplicity
 _atom_site_fract_x
 _atom_site_fract_y
 _atom_site_fract_z
 _atom_site_occupancy
  Eu  Eu0  1  0.00000000  0.84308600  0.18063400  1
  Eu  Eu1  1  0.00000000  0.15691400  0.81936600  1
  Eu  Eu2  1  0.00000000  0.34308600  0.31936600  1
  Eu  Eu3  1  0.00000000  0.65691400  0.68063400  1
  In  In0  1  0.50000000  0.51962100  0.36651000  1
  In  In1  1  0.50000000  0.48037900  0.63349000  1
  In  In2  1  0.50000000  0.01962100  0.13349000  1
  In  In3  1  0.50000000  0.98037900  0.86651000  1
  In  In4  1  0.50000000  0.66656300  0.12206200  1
  In  In5  1  0.50000000  0.33343700  0.87793800  1
  In  In6  1  0.50000000  0.16656300  0.37793800  1
  In  In7  1  0.50000000  0.83343700  0.62206200  1
  In  In8  1  0.50000000  0.73959800  0.32292300  1
  In  In9  1  0.50000000  0.26040200  0.67707700  1
  In  In10  1  0.50000000  0.23959800  0.17707700  1
  In  In11  1  0.50000000  0.76040200  0.82292300  1
  In  In12  1  0.50000000  0.83091600  0.01100200  1
  In  In13  1  0.50000000  0.16908400  0.98899800  1
  In  In14  1  0.50000000  0.33091600  0.48899800  1
  In  In15  1  0.50000000  0.66908400  0.51100200  1
  In  In16  1  0.50000000  0.94878000  0.31734100  1
  In  In17  1  0.50000000  0.05122000  0.68265900  1
  In  In18  1  0.50000000  0.44878000  0.18265900  1
  In  In19  1  0.50000000  0.55122000  0.81734100  1
  In  In20  1  0.00000000  0.59999400  0.24645700  1
  In  In21  1  0.00000000  0.40000600  0.75354300  1
  In  In22  1  0.00000000  0.09999400  0.25354300  1
  In  In23  1  0.00000000  0.90000600  0.74645700  1
  In  In24  1  0.00000000  0.84018500  0.45573700  1
  In  In25  1  0.00000000  0.15981500  0.54426300  1
  In  In26  1  0.00000000  0.34018500  0.04426300  1
  In  In27  1  0.00000000  0.65981500  0.95573700  1
  In  In28  1  0.50000000  0.50000000  0.00000000  1
  In  In29  1  0.50000000  0.00000000  0.50000000  1
  In  In30  1  0.00000000  0.50000000  0.50000000  1
  In  In31  1  0.00000000  0.00000000  0.00000000  1
  Ir  Ir0  1  0.00000000  0.53444200  0.09493600  1
  Ir  Ir1  1  0.00000000  0.46555800  0.90506400  1
  Ir  Ir2  1  0.00000000  0.03444200  0.40506400  1
  Ir  Ir3  1  0.00000000  0.96555800  0.59493600  1
  Ir  Ir4  1  0.00000000  0.65375600  0.40333700  1
  Ir  Ir5  1  0.00000000  0.34624400  0.59666300  1
  Ir  Ir6  1  0.00000000  0.15375600  0.09666300  1
  Ir  Ir7  1  0.00000000  0.84624400  0.90333700  1
loop_
_geom_bond_atom_site_label_1
_geom_bond_atom_site_label_2
_geom_bond_distance
_geom_bond_site_symmetry_2
Eu0 In2 3.472332 1_465
Eu0 In2 3.472332 1_565
Eu0 In4 3.519894 1_455
Eu0 In4 3.519894 1_555
Eu0 In16 3.534734 1_555
Eu0 In16 3.534734 1_455
Eu0 In8 3.581810 1_455
Eu0 In8 3.581810 1_555
Eu0 In12 3.607430 1_555
Eu0 In12 3.607430 1_455
Eu0 In20 3.651806 1_555
Eu0 In31 3.750136 1_565
Eu0 In22 3.876357 1_565
Eu1 In3 3.472332 1_445
Eu1 In3 3.472332 1_545
Eu1 In5 3.519894 1_555
Eu1 In5 3.519894 1_455
Eu1 In17 3.534734 1_555
Eu1 In17 3.534734 1_455
Eu1 In9 3.581810 1_455
Eu1 In9 3.581810 1_555
Eu1 In13 3.607430 1_555
Eu1 In13 3.607430 1_455
Eu1 In21 3.651806 1_555
Eu1 In31 3.750136 1_556
Eu1 In23 3.876357 1_545
Eu2 In0 3.472332 1_455
Eu2 In0 3.472332 1_555
Eu2 In6 3.519894 1_455
Eu2 In6 3.519894 1_555
Eu2 In18 3.534734 1_455
Eu2 In18 3.534734 1_555
Eu2 In10 3.581810 1_455
Eu2 In10 3.581810 1_555
Eu2 In14 3.607430 1_455
Eu2 In14 3.607430 1_555
Eu2 In22 3.651806 1_555
Eu2 In30 3.750136 1_555
Eu2 In20 3.876357 1_555
Eu3 In1 3.472332 1_555
Eu3 In1 3.472332 1_455
Eu3 In7 3.519894 1_455
Eu3 In7 3.519894 1_555
Eu3 In19 3.534734 1_455
Eu3 In19 3.534734 1_555
Eu3 In11 3.581810 1_455
Eu3 In11 3.581810 1_555
Eu3 In15 3.607430 1_455
Eu3 In15 3.607430 1_555
Eu3 In23 3.651806 1_555
Eu3 In30 3.750136 1_555
Eu3 In21 3.876357 1_555
In0 Ir4 3.018596 1_655
In0 Ir4 3.018596 1_555
In0 In30 3.168371 1_555
In0 In30 3.168371 1_655
In0 In20 3.216564 1_555
In0 In20 3.216564 1_655
In0 In15 3.217364 1_555
In0 In18 3.218678 1_555
In0 In8 3.235011 1_555
In0 In14 3.384710 1_555
In1 Ir5 3.018596 1_555
In1 Ir5 3.018596 1_655
In1 In30 3.168371 1_555
In1 In30 3.168371 1_655
In1 In21 3.216564 1_555
In1 In21 3.216564 1_655
In1 In14 3.217364 1_555
In1 In19 3.218678 1_555
In1 In9 3.235011 1_555
In1 In15 3.384710 1_555
In2 Ir6 3.018596 1_655
In2 Ir6 3.018596 1_555
In2 In31 3.168371 1_655
In2 In31 3.168371 1_555
In2 In22 3.216564 1_555
In2 In22 3.216564 1_655
In3 Ir7 3.018596 1_655
In3 Ir7 3.018596 1_555
In3 In31 3.168371 1_566
In3 In31 3.168371 1_666
In4 Ir0 2.971620 1_655
In4 Ir0 2.971620 1_555
In5 Ir1 2.971620 1_655
In5 Ir1 2.971620 1_555
In6 Ir2 2.971620 1_555
In6 Ir2 2.971620 1_655
In7 Ir3 2.971620 1_655
In7 Ir3 2.971620 1_555
In8 Ir4 2.887888 1_655
In8 Ir4 2.887888 1_555
In9 Ir5 2.887888 1_555
In9 Ir5 2.887888 1_655
In10 Ir6 2.887888 1_655
In10 Ir6 2.887888 1_555
In10 In2 3.235011 1_555
In11 Ir7 2.887888 1_655
In11 Ir7 2.887888 1_555
In11 In3 3.235011 1_555
In12 Ir7 2.879047 1_554
In12 Ir7 2.879047 1_654
In12 In4 2.992220 1_555
In12 In3 3.217364 1_554
In12 In2 3.384710 1_565
In13 Ir6 2.879047 1_556
In13 Ir6 2.879047 1_656
In13 In5 2.992220 1_555
In13 In2 3.217364 1_556
In13 In3 3.384710 1_545
In14 Ir5 2.879047 1_655
In14 Ir5 2.879047 1_555
In14 In6 2.992220 1_555
In15 Ir4 2.879047 1_655
In15 Ir4 2.879047 1_555
In15 In7 2.992220 1_555
In16 Ir2 2.944949 1_565
In16 Ir2 2.944949 1_665
In16 In2 3.218678 1_565
In17 Ir3 2.944949 1_545
In17 Ir3 2.944949 1_645
In17 In3 3.218678 1_545
In18 Ir0 2.944949 1_655
In18 Ir0 2.944949 1_555
In19 Ir1 2.944949 1_555
In19 Ir1 2.944949 1_655
In20 Ir0 2.686858 1_555
In20 Ir4 2.717786 1_555
In21 Ir1 2.686858 1_555
In21 Ir5 2.717786 1_555
In22 Ir2 2.686858 1_555
In22 Ir6 2.717786 1_555
In23 Ir3 2.686858 1_555
In23 Ir7 2.717786 1_555
In23 In3 3.216564 1_455
In23 In3 3.216564 1_555
In24 Ir4 2.810312 1_555
In24 Ir2 2.908766 1_565
In24 Ir3 2.928628 1_555
In25 Ir5 2.810312 1_555
In25 Ir3 2.908766 1_545
In25 Ir2 2.928628 1_555
In26 Ir6 2.810312 1_555
In26 Ir0 2.908766 1_555
In26 Ir1 2.928628 1_554
In27 Ir7 2.810312 1_555
In27 Ir1 2.908766 1_555
In27 Ir0 2.928628 1_556
In28 Ir1 2.787934 1_654
In28 Ir1 2.787934 1_554
In28 Ir0 2.787934 1_655
In28 Ir0 2.787934 1_555
In29 Ir3 2.787934 1_645
In29 Ir3 2.787934 1_545
In29 Ir2 2.787934 1_555
In29 Ir2 2.787934 1_655
In30 Ir4 2.726807 1_555
In30 Ir5 2.726807 1_555
In31 Ir6 2.726807 1_555
In31 Ir7 2.726807 1_544
