# generated using pymatgen
data_Li5Ga4
_symmetry_space_group_name_H-M   'P 1'
_cell_length_a   4.31404989
_cell_length_b   4.31404989
_cell_length_c   8.21942296
_cell_angle_alpha   90.00000000
_cell_angle_beta   90.00000000
_cell_angle_gamma   120.00003085
_symmetry_Int_Tables_number   1
_chemical_formula_structural   Li5Ga4
_chemical_formula_sum   'Li5 Ga4'
_cell_volume   132.47750877
_cell_formula_units_Z   1
loop_
 _symmetry_equiv_pos_site_id
 _symmetry_equiv_pos_as_xyz
  1  'x, y, z'
loop_
 _atom_site_type_symbol
 _atom_site_label
 _atom_site_symmetry_multiplicity
 _atom_site_fract_x
 _atom_site_fract_y
 _atom_site_fract_z
 _atom_site_occupancy
  Li  Li0  1  0.66666700  0.33333300  0.88146559  1
  Li  Li1  1  0.33333300  0.66666700  0.11853441  1
  Li  Li2  1  0.66666700  0.33333300  0.55313478  1
  Li  Li3  1  0.33333300  0.66666700  0.44686522  1
  Li  Li4  1  0.00000000  0.00000000  -0.00000000  1
  Ga  Ga0  1  0.66666700  0.33333300  0.22191717  1
  Ga  Ga1  1  0.33333300  0.66666700  0.77808283  1
  Ga  Ga2  1  0.00000000  0.00000000  0.66660168  1
  Ga  Ga3  1  0.00000000  0.00000000  0.33339832  1
loop_
_geom_bond_atom_site_label_1
_geom_bond_atom_site_label_2
_geom_bond_distance
_geom_bond_site_symmetry_2
Li0 Li4 2.674490 1_656
Li0 Li4 2.674492 1_556
Li0 Li4 2.674492 1_666
Li1 Li4 2.674490 1_565
Li1 Li4 2.674492 1_665
Li1 Li4 2.674492 1_555
Ga0 Li1 2.631678 1_545
Ga0 Li1 2.631678 1_655
Ga0 Li1 2.631686 1_555
Ga0 Li2 2.722418 1_555
Ga0 Li0 2.798316 1_554
Ga0 Li4 3.087192 1_655
Ga0 Li4 3.087194 1_555
Ga0 Li4 3.087194 1_665
Ga1 Li0 2.631678 1_565
Ga1 Li0 2.631678 1_455
Ga1 Li0 2.631686 1_555
Ga1 Li3 2.722418 1_555
Ga1 Li1 2.798316 1_556
Ga1 Li4 3.087192 1_566
Ga1 Li4 3.087194 1_666
Ga1 Li4 3.087194 1_556
Ga2 Li2 2.659599 1_455
Ga2 Li2 2.659602 1_555
Ga2 Li2 2.659602 1_445
Ga2 Li4 2.740342 1_556
Ga3 Li3 2.659599 1_545
Ga3 Li3 2.659602 1_555
Ga3 Li3 2.659602 1_445
Ga3 Li4 2.740342 1_555
