# generated using pymatgen
data_Nd4Mg(RhO3)4
_symmetry_space_group_name_H-M   'P 1'
_cell_length_a   6.22108533
_cell_length_b   6.41927153
_cell_length_c   7.57304700
_cell_angle_alpha   90.00000000
_cell_angle_beta   90.00000000
_cell_angle_gamma   107.43426708
_symmetry_Int_Tables_number   1
_chemical_formula_structural   Nd4Mg(RhO3)4
_chemical_formula_sum   'Nd4 Mg1 Rh4 O12'
_cell_volume   288.53522547
_cell_formula_units_Z   1
loop_
 _symmetry_equiv_pos_site_id
 _symmetry_equiv_pos_as_xyz
  1  'x, y, z'
loop_
 _atom_site_type_symbol
 _atom_site_label
 _atom_site_symmetry_multiplicity
 _atom_site_fract_x
 _atom_site_fract_y
 _atom_site_fract_z
 _atom_site_occupancy
  Nd  Nd0  1  0.55159100  0.56109400  0.75000000  1
  Nd  Nd1  1  0.04391400  0.85331700  0.25000000  1
  Nd  Nd2  1  0.04930100  0.08637100  0.75000000  1
  Nd  Nd3  1  0.44928700  0.45929500  0.25000000  1
  Mg  Mg0  1  0.69343600  0.02004800  0.25000000  1
  Rh  Rh0  1  0.48660300  0.01082800  0.52364600  1
  Rh  Rh1  1  0.99438600  0.49475200  0.50819400  1
  Rh  Rh2  1  0.99438600  0.49475200  0.99180600  1
  Rh  Rh3  1  0.48660300  0.01082800  0.97635400  1
  O  O0  1  0.83772900  0.17394400  0.46788400  1
  O  O1  1  0.35881300  0.28120600  0.56025400  1
  O  O2  1  0.62403900  0.75884800  0.06376100  1
  O  O3  1  0.14780600  0.82873800  0.95159200  1
  O  O4  1  0.14780600  0.82873800  0.54840800  1
  O  O5  1  0.62403900  0.75884800  0.43623900  1
  O  O6  1  0.35881300  0.28120600  0.93974600  1
  O  O7  1  0.83772900  0.17394400  0.03211600  1
  O  O8  1  0.40286100  0.08000400  0.25000000  1
  O  O9  1  0.88327400  0.46441200  0.75000000  1
  O  O10  1  0.11062800  0.52541400  0.25000000  1
  O  O11  1  0.60445800  0.94716000  0.75000000  1
loop_
_geom_bond_atom_site_label_1
_geom_bond_atom_site_label_2
_geom_bond_distance
_geom_bond_site_symmetry_2
Nd0 O9 2.326004 1_555
Nd0 O1 2.332384 1_555
Nd0 O6 2.332384 1_555
Nd0 O11 2.400321 1_555
Nd0 O2 2.667910 1_556
Nd0 O5 2.667910 1_555
Nd1 O10 2.264141 1_555
Nd1 O8 2.270866 1_565
Nd1 O4 2.368689 1_555
Nd1 O3 2.368689 1_554
Nd1 O5 2.868926 1_455
Nd1 O2 2.868926 1_455
Nd2 O6 2.427670 1_555
Nd2 O1 2.427670 1_555
Nd2 O3 2.459399 1_545
Nd2 O4 2.459399 1_545
Nd2 O11 2.641063 1_445
Nd2 O7 2.656375 1_456
Nd2 O0 2.656375 1_455
Nd2 O9 2.908243 1_455
Nd3 O10 2.270396 1_555
Nd3 O8 2.364350 1_555
Nd3 O2 2.369816 1_555
Nd3 O5 2.369816 1_555
Nd3 O6 2.599732 1_554
Nd3 O1 2.599732 1_555
Mg0 O8 1.957748 1_555
Mg0 O0 1.993239 1_555
Mg0 O7 1.993239 1_555
Mg0 O5 2.133825 1_545
Mg0 O2 2.133825 1_545
O0 Rh1 2.020220 1_555
O0 Rh0 2.162334 1_555
O1 Rh0 2.132627 1_555
O2 Rh3 2.148093 1_564
O3 Rh3 2.089862 1_565
O3 Rh2 2.091420 1_455
O4 Rh0 2.089862 1_565
O4 Rh1 2.091420 1_455
O5 Rh0 2.148093 1_565
O6 Rh3 2.132627 1_555
O7 Rh2 2.020220 1_554
O7 Rh3 2.162334 1_554
O8 Rh0 2.213998 1_555
O8 Rh3 2.213998 1_554
O9 Rh2 1.946380 1_555
O9 Rh1 1.946380 1_555
O10 Rh1 2.073561 1_455
O10 Rh2 2.073561 1_454
O11 Rh3 1.955148 1_565
O11 Rh0 1.955148 1_565
