# generated using pymatgen
data_Ca3Sn13Pt4
_symmetry_space_group_name_H-M   'P 1'
_cell_length_a   9.94085400
_cell_length_b   9.94085400
_cell_length_c   9.94085400
_cell_angle_alpha   90.00000000
_cell_angle_beta   90.00000000
_cell_angle_gamma   90.00000000
_symmetry_Int_Tables_number   1
_chemical_formula_structural   Ca3Sn13Pt4
_chemical_formula_sum   'Ca6 Sn26 Pt8'
_cell_volume   982.36094057
_cell_formula_units_Z   2
loop_
 _symmetry_equiv_pos_site_id
 _symmetry_equiv_pos_as_xyz
  1  'x, y, z'
loop_
 _atom_site_type_symbol
 _atom_site_label
 _atom_site_symmetry_multiplicity
 _atom_site_fract_x
 _atom_site_fract_y
 _atom_site_fract_z
 _atom_site_occupancy
  Ca  Ca0  1  0.25000000  0.00000000  0.50000000  1
  Ca  Ca1  1  0.75000000  0.00000000  0.50000000  1
  Ca  Ca2  1  0.50000000  0.25000000  0.00000000  1
  Ca  Ca3  1  0.50000000  0.75000000  0.00000000  1
  Ca  Ca4  1  0.00000000  0.50000000  0.25000000  1
  Ca  Ca5  1  0.00000000  0.50000000  0.75000000  1
  Sn  Sn0  1  0.00000000  0.00000000  0.00000000  1
  Sn  Sn1  1  0.50000000  0.50000000  0.50000000  1
  Sn  Sn2  1  0.00000000  0.15032200  0.30700000  1
  Sn  Sn3  1  0.00000000  0.84967800  0.69300000  1
  Sn  Sn4  1  0.00000000  0.84967800  0.30700000  1
  Sn  Sn5  1  0.00000000  0.15032200  0.69300000  1
  Sn  Sn6  1  0.30700000  0.00000000  0.15032200  1
  Sn  Sn7  1  0.65032200  0.50000000  0.19300000  1
  Sn  Sn8  1  0.69300000  0.00000000  0.84967800  1
  Sn  Sn9  1  0.34967800  0.50000000  0.80700000  1
  Sn  Sn10  1  0.30700000  0.00000000  0.84967800  1
  Sn  Sn11  1  0.34967800  0.50000000  0.19300000  1
  Sn  Sn12  1  0.69300000  0.00000000  0.15032200  1
  Sn  Sn13  1  0.65032200  0.50000000  0.80700000  1
  Sn  Sn14  1  0.15032200  0.30700000  0.00000000  1
  Sn  Sn15  1  0.50000000  0.80700000  0.34967800  1
  Sn  Sn16  1  0.84967800  0.69300000  0.00000000  1
  Sn  Sn17  1  0.50000000  0.19300000  0.65032200  1
  Sn  Sn18  1  0.15032200  0.69300000  0.00000000  1
  Sn  Sn19  1  0.50000000  0.19300000  0.34967800  1
  Sn  Sn20  1  0.84967800  0.30700000  0.00000000  1
  Sn  Sn21  1  0.50000000  0.80700000  0.65032200  1
  Sn  Sn22  1  0.19300000  0.65032200  0.50000000  1
  Sn  Sn23  1  0.80700000  0.34967800  0.50000000  1
  Sn  Sn24  1  0.19300000  0.34967800  0.50000000  1
  Sn  Sn25  1  0.80700000  0.65032200  0.50000000  1
  Pt  Pt0  1  0.25000000  0.25000000  0.25000000  1
  Pt  Pt1  1  0.75000000  0.75000000  0.75000000  1
  Pt  Pt2  1  0.75000000  0.75000000  0.25000000  1
  Pt  Pt3  1  0.75000000  0.25000000  0.75000000  1
  Pt  Pt4  1  0.25000000  0.25000000  0.75000000  1
  Pt  Pt5  1  0.25000000  0.75000000  0.25000000  1
  Pt  Pt6  1  0.25000000  0.75000000  0.75000000  1
  Pt  Pt7  1  0.75000000  0.25000000  0.25000000  1
loop_
_geom_bond_atom_site_label_1
_geom_bond_atom_site_label_2
_geom_bond_distance
_geom_bond_site_symmetry_2
Ca0 Sn5 3.477107 1_555
Ca0 Sn2 3.477107 1_555
Ca0 Sn17 3.477107 1_555
Ca0 Sn21 3.477107 1_545
Ca0 Sn15 3.477107 1_545
Ca0 Sn19 3.477107 1_555
Ca0 Sn4 3.477107 1_545
Ca0 Sn3 3.477107 1_545
Ca0 Pt0 3.514623 1_555
Ca0 Pt6 3.514623 1_545
Ca0 Pt4 3.514623 1_555
Ca0 Pt5 3.514623 1_545
Ca0 Sn10 3.521977 1_555
Ca0 Sn24 3.521977 1_555
Ca0 Sn22 3.521977 1_545
Ca0 Sn6 3.521977 1_555
Ca1 Sn5 3.477107 1_655
Ca1 Sn2 3.477107 1_655
Ca1 Sn17 3.477107 1_555
Ca1 Sn21 3.477107 1_545
Ca1 Sn15 3.477107 1_545
Ca1 Sn19 3.477107 1_555
Ca1 Sn4 3.477107 1_645
Ca1 Sn3 3.477107 1_645
Ca1 Pt3 3.514623 1_555
Ca1 Pt2 3.514623 1_545
Ca1 Pt7 3.514623 1_555
Ca1 Pt1 3.514623 1_545
Ca1 Sn8 3.521977 1_555
Ca1 Sn23 3.521977 1_555
Ca1 Sn25 3.521977 1_545
Ca1 Sn12 3.521977 1_555
Ca2 Sn6 3.477107 1_555
Ca2 Sn12 3.477107 1_555
Ca2 Sn7 3.477107 1_555
Ca2 Sn13 3.477107 1_554
Ca2 Sn9 3.477107 1_554
Ca2 Sn11 3.477107 1_555
Ca2 Sn10 3.477107 1_554
Ca2 Sn8 3.477107 1_554
Ca2 Pt3 3.514623 1_554
Ca2 Pt0 3.514623 1_555
Ca2 Pt7 3.514623 1_555
Ca2 Pt4 3.514623 1_554
Ca2 Sn20 3.521977 1_555
Ca2 Sn19 3.521977 1_555
Ca2 Sn17 3.521977 1_554
Ca2 Sn14 3.521977 1_555
Ca3 Sn6 3.477107 1_565
Ca3 Sn12 3.477107 1_565
Ca3 Sn7 3.477107 1_555
Ca3 Sn13 3.477107 1_554
Ca3 Sn9 3.477107 1_554
Ca3 Sn11 3.477107 1_555
Ca3 Sn10 3.477107 1_564
Ca3 Sn8 3.477107 1_564
Ca3 Pt5 3.514623 1_555
Ca3 Pt1 3.514623 1_554
Ca3 Pt2 3.514623 1_555
Ca3 Pt6 3.514623 1_554
Ca3 Sn16 3.521977 1_555
Ca3 Sn15 3.521977 1_555
Ca3 Sn21 3.521977 1_554
Ca3 Sn18 3.521977 1_555
Ca4 Sn14 3.477107 1_555
Ca4 Sn18 3.477107 1_555
Ca4 Sn25 3.477107 1_455
Ca4 Sn23 3.477107 1_455
Ca4 Sn22 3.477107 1_555
Ca4 Sn24 3.477107 1_555
Ca4 Sn20 3.477107 1_455
Ca4 Sn16 3.477107 1_455
Ca4 Pt0 3.514623 1_555
Ca4 Pt5 3.514623 1_555
Ca4 Pt2 3.514623 1_455
Ca4 Pt7 3.514623 1_455
Ca4 Sn4 3.521977 1_555
Ca4 Sn11 3.521977 1_555
Ca4 Sn7 3.521977 1_455
Ca4 Sn2 3.521977 1_555
Ca5 Sn14 3.477107 1_556
Ca5 Sn18 3.477107 1_556
Ca5 Sn25 3.477107 1_455
Ca5 Sn23 3.477107 1_455
Ca5 Sn22 3.477107 1_555
Ca5 Sn24 3.477107 1_555
Ca5 Sn20 3.477107 1_456
Ca5 Sn16 3.477107 1_456
Ca5 Pt1 3.514623 1_455
Ca5 Pt4 3.514623 1_555
Ca5 Pt3 3.514623 1_455
Ca5 Pt6 3.514623 1_555
Ca5 Sn3 3.521977 1_555
Ca5 Sn9 3.521977 1_555
Ca5 Sn13 3.521977 1_455
Ca5 Sn5 3.521977 1_555
Sn0 Sn12 3.398052 1_455
Sn0 Sn18 3.398052 1_545
Sn0 Sn5 3.398052 1_554
Sn0 Sn6 3.398052 1_555
Sn0 Sn2 3.398052 1_555
Sn0 Sn14 3.398052 1_555
Sn0 Sn16 3.398052 1_445
Sn0 Sn3 3.398052 1_544
Sn0 Sn8 3.398052 1_454
Sn0 Sn4 3.398052 1_545
Sn0 Sn20 3.398052 1_455
Sn0 Sn10 3.398052 1_554
Sn1 Sn17 3.398052 1_555
Sn1 Sn7 3.398052 1_555
Sn1 Sn22 3.398052 1_555
Sn1 Sn24 3.398052 1_555
Sn1 Sn19 3.398052 1_555
Sn1 Sn11 3.398052 1_555
Sn1 Sn23 3.398052 1_555
Sn1 Sn21 3.398052 1_555
Sn1 Sn15 3.398052 1_555
Sn1 Sn9 3.398052 1_555
Sn1 Sn13 3.398052 1_555
Sn1 Sn25 3.398052 1_555
Pt0 Sn11 2.734814 1_555
Pt0 Sn24 2.734814 1_555
Pt0 Sn19 2.734814 1_555
Pt0 Sn2 2.734814 1_555
Pt0 Sn14 2.734814 1_555
Pt0 Sn6 2.734814 1_555
Pt1 Sn8 2.734814 1_565
Pt1 Sn16 2.734814 1_556
Pt1 Sn3 2.734814 1_655
Pt1 Sn13 2.734814 1_555
Pt1 Sn25 2.734814 1_555
Pt1 Sn21 2.734814 1_555
Pt2 Sn16 2.734814 1_555
Pt2 Sn4 2.734814 1_655
Pt2 Sn25 2.734814 1_555
Pt2 Sn7 2.734814 1_555
Pt2 Sn15 2.734814 1_555
Pt2 Sn12 2.734814 1_565
Pt3 Sn8 2.734814 1_555
Pt3 Sn20 2.734814 1_556
Pt3 Sn13 2.734814 1_555
Pt3 Sn17 2.734814 1_555
Pt3 Sn23 2.734814 1_555
Pt3 Sn5 2.734814 1_655
Pt4 Sn10 2.734814 1_555
Pt4 Sn24 2.734814 1_555
Pt4 Sn9 2.734814 1_555
Pt4 Sn17 2.734814 1_555
Pt4 Sn5 2.734814 1_555
Pt4 Sn14 2.734814 1_556
Pt5 Sn4 2.734814 1_555
Pt5 Sn11 2.734814 1_555
Pt5 Sn22 2.734814 1_555
Pt5 Sn15 2.734814 1_555
Pt5 Sn18 2.734814 1_555
Pt5 Sn6 2.734814 1_565
Pt6 Sn3 2.734814 1_555
Pt6 Sn10 2.734814 1_565
Pt6 Sn9 2.734814 1_555
Pt6 Sn22 2.734814 1_555
Pt6 Sn21 2.734814 1_555
Pt6 Sn18 2.734814 1_556
Pt7 Sn20 2.734814 1_555
Pt7 Sn19 2.734814 1_555
Pt7 Sn7 2.734814 1_555
Pt7 Sn23 2.734814 1_555
Pt7 Sn12 2.734814 1_555
Pt7 Sn2 2.734814 1_655
