# generated using pymatgen
data_Li6Fe3P8O29
_symmetry_space_group_name_H-M   'P 1'
_cell_length_a   9.98682007
_cell_length_b   9.98682007
_cell_length_c   13.92947433
_cell_angle_alpha   89.74053816
_cell_angle_beta   89.74053816
_cell_angle_gamma   59.94753903
_symmetry_Int_Tables_number   1
_chemical_formula_structural   Li6Fe3P8O29
_chemical_formula_sum   'Li12 Fe6 P16 O58'
_cell_volume   1202.49713653
_cell_formula_units_Z   2
loop_
 _symmetry_equiv_pos_site_id
 _symmetry_equiv_pos_as_xyz
  1  'x, y, z'
loop_
 _atom_site_type_symbol
 _atom_site_label
 _atom_site_symmetry_multiplicity
 _atom_site_fract_x
 _atom_site_fract_y
 _atom_site_fract_z
 _atom_site_occupancy
  Li  Li0  1  0.31143300  0.91025600  0.06225300  1
  Li  Li1  1  0.66380300  0.66473700  0.37945600  1
  Li  Li2  1  0.66473700  0.66380300  0.87945600  1
  Li  Li3  1  0.91025600  0.31143300  0.56225300  1
  Li  Li4  1  0.77734900  0.91390900  0.56349000  1
  Li  Li5  1  0.08912700  0.21964600  0.93659500  1
  Li  Li6  1  0.91390900  0.77734900  0.06349000  1
  Li  Li7  1  0.21964600  0.08912700  0.43659500  1
  Li  Li8  1  0.08929100  0.68820200  0.44037500  1
  Li  Li9  1  0.22110500  0.68894900  0.93750100  1
  Li  Li10  1  0.68820200  0.08929100  0.94037500  1
  Li  Li11  1  0.68894900  0.22110500  0.43750100  1
  Fe  Fe0  1  0.43006100  0.57164100  0.74524500  1
  Fe  Fe1  1  0.57164100  0.43006100  0.24524500  1
  Fe  Fe2  1  0.43288000  0.99785400  0.25086300  1
  Fe  Fe3  1  0.57323200  0.99648300  0.74860100  1
  Fe  Fe4  1  0.99785400  0.43288000  0.75086300  1
  Fe  Fe5  1  0.99648300  0.57323200  0.24860100  1
  P  P0  1  0.32208900  0.76759200  0.34030000  1
  P  P1  1  0.32593500  0.90641200  0.84203200  1
  P  P2  1  0.76759200  0.32208900  0.84030000  1
  P  P3  1  0.66648300  0.67248800  0.12530900  1
  P  P4  1  0.67248800  0.66648300  0.62530900  1
  P  P5  1  0.90641200  0.32593500  0.34203200  1
  P  P6  1  0.08983500  0.23363700  0.16022500  1
  P  P7  1  0.76677800  0.90660300  0.34307200  1
  P  P8  1  0.23363700  0.08983500  0.66022500  1
  P  P9  1  0.90660300  0.76677800  0.84307200  1
  P  P10  1  0.08793000  0.67670000  0.66008100  1
  P  P11  1  0.33226600  0.33181200  0.86976600  1
  P  P12  1  0.33181200  0.33226600  0.36976600  1
  P  P13  1  0.23610200  0.67669300  0.15687400  1
  P  P14  1  0.67670000  0.08793000  0.16008100  1
  P  P15  1  0.67669300  0.23610200  0.65687400  1
  O  O0  1  0.22250400  0.78901700  0.24462100  1
  O  O1  1  0.24697800  0.75391400  0.06552900  1
  O  O2  1  0.33245400  0.74905600  0.84295300  1
  O  O3  1  0.21831400  0.99750100  0.75087300  1
  O  O4  1  0.23499900  0.01163400  0.56700200  1
  O  O5  1  0.33236400  0.91682100  0.34361500  1
  O  O6  1  0.48673700  0.62637900  0.32827300  1
  O  O7  1  0.52515000  0.67265400  0.66673800  1
  O  O8  1  0.62637900  0.48673700  0.82827300  1
  O  O9  1  0.75391400  0.24697800  0.56553000  1
  O  O10  1  0.78901700  0.22250400  0.74462100  1
  O  O11  1  0.74905600  0.33245400  0.34295300  1
  O  O12  1  0.51213800  0.81802200  0.15680300  1
  O  O13  1  0.49025900  0.88099300  0.82605200  1
  O  O14  1  0.67265400  0.52515000  0.16673800  1
  O  O15  1  0.66161900  0.66787000  0.01565300  1
  O  O16  1  0.66787000  0.66161900  0.51565300  1
  O  O17  1  0.81802200  0.51213800  0.65680300  1
  O  O18  1  0.62855600  0.87963400  0.32697400  1
  O  O19  1  0.68190700  0.80999400  0.65806800  1
  O  O20  1  0.91682100  0.33236400  0.84361500  1
  O  O21  1  0.99750100  0.21831400  0.25087300  1
  O  O22  1  0.01163400  0.23499900  0.06700200  1
  O  O23  1  0.00058200  0.24856100  0.43113100  1
  O  O24  1  0.88099300  0.49025900  0.32605200  1
  O  O25  1  0.80999400  0.68190700  0.15806800  1
  O  O26  1  0.08407100  0.24860500  0.66214600  1
  O  O27  1  0.87963400  0.62855600  0.82697400  1
  O  O28  1  0.74863800  0.91731100  0.84534100  1
  O  O29  1  0.24856100  0.00058200  0.93113100  1
  O  O30  1  0.75621200  0.99827000  0.06987100  1
  O  O31  1  0.78507400  0.99427100  0.25096700  1
  O  O32  1  0.24860500  0.08407100  0.16214600  1
  O  O33  1  0.09689600  0.38154800  0.17279800  1
  O  O34  1  0.91731100  0.74863800  0.34534100  1
  O  O35  1  0.18601900  0.32742900  0.83872900  1
  O  O36  1  0.09988200  0.51921800  0.67582800  1
  O  O37  1  0.99827000  0.75621200  0.56987100  1
  O  O38  1  0.00144100  0.74863800  0.93154800  1
  O  O39  1  0.99427100  0.78507400  0.75096700  1
  O  O40  1  0.08490200  0.67063600  0.15943600  1
  O  O41  1  0.32742900  0.18601900  0.33872900  1
  O  O42  1  0.38154800  0.09689600  0.67279800  1
  O  O43  1  0.18548000  0.48283500  0.33820200  1
  O  O44  1  0.33827200  0.33221600  0.48115800  1
  O  O45  1  0.33221600  0.33827200  0.98115800  1
  O  O46  1  0.32818200  0.48463500  0.84211200  1
  O  O47  1  0.51921800  0.09988200  0.17582800  1
  O  O48  1  0.48283500  0.18548000  0.83820200  1
  O  O49  1  0.24684200  0.66293800  0.66247700  1
  O  O50  1  0.23732700  0.75350500  0.42548900  1
  O  O51  1  0.37778500  0.51882200  0.17600700  1
  O  O52  1  0.48463500  0.32818200  0.34211200  1
  O  O53  1  0.51882200  0.37778500  0.67600700  1
  O  O54  1  0.67063600  0.08490200  0.65943600  1
  O  O55  1  0.74863800  0.00144100  0.43154800  1
  O  O56  1  0.66293800  0.24684200  0.16247700  1
  O  O57  1  0.75350500  0.23732700  0.92548900  1
loop_
_geom_bond_atom_site_label_1
_geom_bond_atom_site_label_2
_geom_bond_distance
_geom_bond_site_symmetry_2
Li0 O1 1.964690 1_555
Li0 O29 1.993013 1_564
Li0 O32 2.065461 1_565
Li0 O12 2.182744 1_555
Li1 O16 1.897552 1_555
Li1 O6 2.115276 1_555
Li1 O18 2.120310 1_555
Li1 O24 2.122725 1_555
Li2 O15 1.897552 1_556
Li2 O8 2.115276 1_555
Li2 O27 2.120310 1_555
Li2 O13 2.122725 1_555
Li3 O9 1.964690 1_555
Li3 O23 1.993013 1_655
Li3 O26 2.065461 1_655
Li3 O17 2.182744 1_555
Li4 O37 1.968821 1_555
Li4 O55 1.990821 1_565
Li4 O54 2.005759 1_565
Li4 O19 2.165200 1_555
Li5 O22 1.947578 1_556
Li5 O29 1.959271 1_555
Li5 O20 1.993132 1_455
Li5 O35 2.229654 1_555
Li6 O30 1.968821 1_555
Li6 O38 1.990821 1_654
Li6 O40 2.005759 1_655
Li6 O25 2.165200 1_555
Li7 O4 1.947578 1_555
Li7 O23 1.959271 1_555
Li7 O5 1.993132 1_545
Li7 O41 2.229654 1_555
Li8 O50 1.901503 1_555
Li8 O37 1.979701 1_455
Li8 O34 2.010388 1_455
Li8 O43 2.279368 1_555
Li9 O1 1.962305 1_556
Li9 O38 1.966255 1_555
Li9 O2 1.994889 1_555
Li9 O46 2.213301 1_555
Li10 O57 1.901503 1_555
Li10 O30 1.979701 1_546
Li10 O28 2.010388 1_545
Li10 O48 2.279368 1_555
Li11 O9 1.962318 1_555
Li11 O55 1.966255 1_555
Li11 O11 1.994889 1_555
Li11 O52 2.213301 1_555
Fe0 O53 1.937614 1_555
Fe0 O49 1.961433 1_555
Fe0 O7 2.013821 1_555
Fe0 O2 2.054714 1_555
Fe0 O8 2.060840 1_555
Fe0 O46 2.115008 1_555
Fe1 O51 1.937614 1_555
Fe1 O56 1.961433 1_555
Fe1 O14 2.013821 1_555
Fe1 O11 2.054714 1_555
Fe1 O6 2.060840 1_555
Fe1 O52 2.115008 1_555
Fe2 O47 1.932947 1_565
Fe2 O18 2.008311 1_555
Fe2 O32 2.019700 1_565
Fe2 O5 2.030827 1_555
Fe2 O12 2.038802 1_555
Fe2 O41 2.040923 1_565
Fe3 O42 1.967516 1_565
Fe3 O54 2.026835 1_565
Fe3 O13 2.029463 1_555
Fe3 O28 2.033252 1_555
Fe3 O19 2.054562 1_555
Fe3 O48 2.059073 1_565
Fe4 O36 1.932947 1_655
Fe4 O27 2.008311 1_555
Fe4 O26 2.019700 1_655
Fe4 O20 2.030827 1_555
Fe4 O17 2.038802 1_555
Fe4 O35 2.040923 1_655
Fe5 O33 1.967516 1_655
Fe5 O40 2.026835 1_655
Fe5 O24 2.029463 1_555
Fe5 O34 2.033252 1_555
Fe5 O25 2.054562 1_555
Fe5 O43 2.059073 1_655
O0 P0 1.614750 1_555
O0 P13 1.621440 1_555
O1 P13 1.516332 1_555
O2 P1 1.539910 1_555
O3 P8 1.611560 1_565
O3 P1 1.617936 1_555
O4 P8 1.514835 1_555
O5 P0 1.545174 1_555
O6 P0 1.548460 1_555
O7 P4 1.550406 1_555
O8 P2 1.548460 1_555
O9 P15 1.516321 1_555
O10 P2 1.614750 1_555
O10 P15 1.621440 1_555
O11 P5 1.539910 1_555
O12 P3 1.560968 1_555
O13 P1 1.545012 1_555
O14 P3 1.550406 1_555
O15 P3 1.530080 1_555
O16 P4 1.530080 1_555
O17 P4 1.560968 1_555
O18 P7 1.550500 1_555
O19 P4 1.553232 1_555
O20 P2 1.545174 1_555
O21 P6 1.611560 1_655
O21 P5 1.617936 1_555
O22 P6 1.514835 1_555
O23 P5 1.515228 1_455
O24 P5 1.545012 1_555
O25 P3 1.553232 1_555
O26 P8 1.540726 1_555
O27 P9 1.550500 1_555
O28 P9 1.540895 1_555
O29 P1 1.515228 1_545
O30 P14 1.516678 1_565
O31 P7 1.610554 1_555
O31 P14 1.623811 1_565
O32 P6 1.540726 1_555
O33 P6 1.524609 1_555
O34 P7 1.540895 1_555
O35 P11 1.546587 1_555
O36 P10 1.531331 1_555
O37 P10 1.516678 1_655
O38 P9 1.511767 1_455
O39 P9 1.610554 1_555
O39 P10 1.623811 1_655
O40 P13 1.541438 1_555
O41 P12 1.546587 1_555
O42 P8 1.524609 1_555
O43 P12 1.545623 1_555
O44 P12 1.553252 1_555
O45 P11 1.553252 1_555
O46 P11 1.553014 1_555
O47 P14 1.531331 1_555
O48 P11 1.545623 1_555
O49 P10 1.523360 1_555
O50 P0 1.501046 1_555
O51 P13 1.524503 1_555
O52 P12 1.553014 1_555
O53 P15 1.524503 1_555
O54 P15 1.541438 1_555
O55 P7 1.511767 1_545
O56 P14 1.523360 1_555
O57 P2 1.501046 1_555
