# generated using pymatgen
data_SrRhO3
_symmetry_space_group_name_H-M   'P 1'
_cell_length_a   5.55879851
_cell_length_b   5.55879851
_cell_length_c   5.55879851
_cell_angle_alpha   120.61003248
_cell_angle_beta   119.09029262
_cell_angle_gamma   90.26473851
_symmetry_Int_Tables_number   1
_chemical_formula_structural   SrRhO3
_chemical_formula_sum   'Sr2 Rh2 O6'
_cell_volume   121.70552592
_cell_formula_units_Z   2
loop_
 _symmetry_equiv_pos_site_id
 _symmetry_equiv_pos_as_xyz
  1  'x, y, z'
loop_
 _atom_site_type_symbol
 _atom_site_label
 _atom_site_symmetry_multiplicity
 _atom_site_fract_x
 _atom_site_fract_y
 _atom_site_fract_z
 _atom_site_occupancy
  Sr  Sr0  1  0.25605827  0.75000000  0.50605827  1
  Sr  Sr1  1  0.74394173  0.25000000  0.49394173  1
  Rh  Rh0  1  0.50000000  0.50000000  -0.00000000  1
  Rh  Rh1  1  -0.00000000  0.00000000  -0.00000000  1
  O  O0  1  0.29489828  0.29489828  0.50000000  1
  O  O1  1  0.70510172  0.70510172  0.50000000  1
  O  O2  1  0.70510172  0.20510172  -0.00000000  1
  O  O3  1  0.29489828  0.79489828  -0.00000000  1
  O  O4  1  0.82772325  0.75000000  0.07772325  1
  O  O5  1  0.17227675  0.25000000  0.92227675  1
loop_
_geom_bond_atom_site_label_1
_geom_bond_atom_site_label_2
_geom_bond_distance
_geom_bond_site_symmetry_2
O0 Rh1 2.001095 1_555
O0 Rh0 2.001095 1_556
O0 Sr1 2.524497 1_555
O0 Sr0 2.524497 1_555
O1 Rh0 2.001095 1_555
O1 Rh1 2.001095 1_666
O1 Sr0 2.524497 1_555
O1 Sr1 2.524497 1_555
O2 Rh1 2.001095 1_655
O2 Rh0 2.001095 1_555
O2 Sr0 2.524497 1_544
O2 Sr1 2.524497 1_555
O3 Rh1 2.001095 1_565
O3 Rh0 2.001095 1_555
O3 Sr0 2.524497 1_554
O3 Sr1 2.524497 1_565
O4 Rh1 2.009106 1_665
O4 Rh0 2.009106 1_555
O4 Sr0 2.413692 1_655
O4 Sr1 2.793910 1_554
O4 Sr1 2.793910 1_565
O5 Rh0 2.009106 1_556
O5 Rh1 2.009106 1_556
O5 Sr1 2.413692 1_455
O5 Sr0 2.793910 1_556
O5 Sr0 2.793910 1_545
