# generated using pymatgen
data_EuCu4Pd
_symmetry_space_group_name_H-M   'P 1'
_cell_length_a   4.12288163
_cell_length_b   5.15433812
_cell_length_c   5.15464700
_cell_angle_alpha   60.01258833
_cell_angle_beta   90.00000000
_cell_angle_gamma   90.00000000
_symmetry_Int_Tables_number   1
_chemical_formula_structural   EuCu4Pd
_chemical_formula_sum   'Eu1 Cu4 Pd1'
_cell_volume   94.87644594
_cell_formula_units_Z   1
loop_
 _symmetry_equiv_pos_site_id
 _symmetry_equiv_pos_as_xyz
  1  'x, y, z'
loop_
 _atom_site_type_symbol
 _atom_site_label
 _atom_site_symmetry_multiplicity
 _atom_site_fract_x
 _atom_site_fract_y
 _atom_site_fract_z
 _atom_site_occupancy
  Eu  Eu0  1  0.00000000  0.99998647  0.00005096  1
  Cu  Cu0  1  0.00000000  0.66664011  0.66668131  1
  Cu  Cu1  1  0.50000000  0.50412893  0.50415269  1
  Cu  Cu2  1  0.50000000  0.50407792  0.99182603  1
  Cu  Cu3  1  0.50000000  0.99176223  0.50412733  1
  Pd  Pd0  1  0.00000000  0.33330535  0.33326169  1
loop_
_geom_bond_atom_site_label_1
_geom_bond_atom_site_label_2
_geom_bond_distance
_geom_bond_site_symmetry_2
Eu0 Pd0 2.975147 1_565
Eu0 Pd0 2.976300 1_555
Eu0 Pd0 2.976962 1_564
Cu0 Cu1 2.520820 1_455
Cu0 Cu1 2.520820 1_555
Cu0 Cu3 2.521165 1_555
Cu0 Cu3 2.521165 1_455
Cu0 Cu2 2.521274 1_555
Cu0 Cu2 2.521274 1_455
Cu0 Eu0 2.975979 1_556
Cu0 Pd0 2.976029 1_556
Cu0 Pd0 2.976150 1_555
Cu0 Eu0 2.976178 1_546
Cu0 Pd0 2.976230 1_565
Cu0 Eu0 2.976252 1_555
Cu1 Cu3 2.513362 1_555
Cu1 Cu2 2.513653 1_555
Cu1 Pd0 2.564381 1_655
Cu1 Pd0 2.564381 1_555
Cu1 Cu3 2.640977 1_545
Cu1 Cu2 2.640995 1_554
Cu1 Eu0 3.300771 1_555
Cu1 Eu0 3.300771 1_655
Cu1 Eu0 3.300931 1_646
Cu1 Eu0 3.300931 1_546
Cu2 Cu3 2.514281 1_555
Cu2 Pd0 2.563840 1_556
Cu2 Pd0 2.563840 1_656
Cu2 Cu3 2.641193 1_546
Cu2 Eu0 3.300328 1_646
Cu2 Eu0 3.300328 1_546
Cu2 Eu0 3.300486 1_556
Cu2 Eu0 3.300486 1_656
Cu3 Pd0 2.564071 1_565
Cu3 Pd0 2.564071 1_665
Cu3 Eu0 3.300391 1_655
Cu3 Eu0 3.300391 1_555
Cu3 Eu0 3.300664 1_656
Cu3 Eu0 3.300664 1_556
