# generated using pymatgen
data_CsSbN2
_symmetry_space_group_name_H-M   'P 1'
_cell_length_a   6.13320800
_cell_length_b   12.29143600
_cell_length_c   17.98426500
_cell_angle_alpha   90.00000000
_cell_angle_beta   90.00000000
_cell_angle_gamma   90.00000000
_symmetry_Int_Tables_number   1
_chemical_formula_structural   CsSbN2
_chemical_formula_sum   'Cs16 Sb16 N32'
_cell_volume   1355.76060726
_cell_formula_units_Z   16
loop_
 _symmetry_equiv_pos_site_id
 _symmetry_equiv_pos_as_xyz
  1  'x, y, z'
loop_
 _atom_site_type_symbol
 _atom_site_label
 _atom_site_symmetry_multiplicity
 _atom_site_fract_x
 _atom_site_fract_y
 _atom_site_fract_z
 _atom_site_occupancy
  Cs  Cs0  1  0.25489300  0.01184600  0.43619700  1
  Cs  Cs1  1  0.75489300  0.48815400  0.56380300  1
  Cs  Cs2  1  0.74510700  0.51184600  0.06380300  1
  Cs  Cs3  1  0.24510700  0.98815400  0.93619700  1
  Cs  Cs4  1  0.74510700  0.98815400  0.56380300  1
  Cs  Cs5  1  0.24510700  0.51184600  0.43619700  1
  Cs  Cs6  1  0.25489300  0.48815400  0.93619700  1
  Cs  Cs7  1  0.75489300  0.01184600  0.06380300  1
  Cs  Cs8  1  0.30211700  0.25756000  0.31358100  1
  Cs  Cs9  1  0.80211700  0.24244000  0.68641900  1
  Cs  Cs10  1  0.69788300  0.75756000  0.18641900  1
  Cs  Cs11  1  0.19788300  0.74244000  0.81358100  1
  Cs  Cs12  1  0.69788300  0.74244000  0.68641900  1
  Cs  Cs13  1  0.19788300  0.75756000  0.31358100  1
  Cs  Cs14  1  0.30211700  0.24244000  0.81358100  1
  Cs  Cs15  1  0.80211700  0.25756000  0.18641900  1
  Sb  Sb0  1  0.75397300  0.00478600  0.31216600  1
  Sb  Sb1  1  0.25397300  0.49521400  0.68783400  1
  Sb  Sb2  1  0.24602700  0.50478600  0.18783400  1
  Sb  Sb3  1  0.74602700  0.99521400  0.81216600  1
  Sb  Sb4  1  0.24602700  0.99521400  0.68783400  1
  Sb  Sb5  1  0.74602700  0.50478600  0.31216600  1
  Sb  Sb6  1  0.75397300  0.49521400  0.81216600  1
  Sb  Sb7  1  0.25397300  0.00478600  0.18783400  1
  Sb  Sb8  1  0.78515200  0.25770900  0.43721700  1
  Sb  Sb9  1  0.28515200  0.24229100  0.56278300  1
  Sb  Sb10  1  0.21484800  0.75770900  0.06278300  1
  Sb  Sb11  1  0.71484800  0.74229100  0.93721700  1
  Sb  Sb12  1  0.21484800  0.74229100  0.56278300  1
  Sb  Sb13  1  0.71484800  0.75770900  0.43721700  1
  Sb  Sb14  1  0.78515200  0.24229100  0.93721700  1
  Sb  Sb15  1  0.28515200  0.25770900  0.06278300  1
  N  N0  1  0.08949300  0.28387200  0.47726300  1
  N  N1  1  0.58949300  0.21612800  0.52273700  1
  N  N2  1  0.91050700  0.78387200  0.02273700  1
  N  N3  1  0.41050700  0.71612800  0.97726300  1
  N  N4  1  0.91050700  0.71612800  0.52273700  1
  N  N5  1  0.41050700  0.78387200  0.47726300  1
  N  N6  1  0.08949300  0.21612800  0.97726300  1
  N  N7  1  0.58949300  0.28387200  0.02273700  1
  N  N8  1  0.68662400  0.40501200  0.39940300  1
  N  N9  1  0.18662400  0.09498800  0.60059700  1
  N  N10  1  0.31337600  0.90501200  0.10059700  1
  N  N11  1  0.81337600  0.59498800  0.89940300  1
  N  N12  1  0.31337600  0.59498800  0.60059700  1
  N  N13  1  0.81337600  0.90501200  0.39940300  1
  N  N14  1  0.68662400  0.09498800  0.89940300  1
  N  N15  1  0.18662400  0.40501200  0.10059700  1
  N  N16  1  0.81377700  0.15864200  0.34732800  1
  N  N17  1  0.31377700  0.34135800  0.65267200  1
  N  N18  1  0.18622300  0.65864200  0.15267200  1
  N  N19  1  0.68622300  0.84135800  0.84732800  1
  N  N20  1  0.18622300  0.84135800  0.65267200  1
  N  N21  1  0.68622300  0.65864200  0.34732800  1
  N  N22  1  0.81377700  0.34135800  0.84732800  1
  N  N23  1  0.31377700  0.15864200  0.15267200  1
  N  N24  1  0.55657800  0.47749300  0.22165900  1
  N  N25  1  0.05657800  0.02250700  0.77834100  1
  N  N26  1  0.44342200  0.97749300  0.27834100  1
  N  N27  1  0.94342200  0.52250700  0.72165900  1
  N  N28  1  0.44342200  0.52250700  0.77834100  1
  N  N29  1  0.94342200  0.97749300  0.22165900  1
  N  N30  1  0.55657800  0.02250700  0.72165900  1
  N  N31  1  0.05657800  0.47749300  0.27834100  1
loop_
_geom_bond_atom_site_label_1
_geom_bond_atom_site_label_2
_geom_bond_distance
_geom_bond_site_symmetry_2
Cs0 N5 3.050946 1_545
Cs0 N13 3.081398 1_445
Cs0 N26 3.094315 1_545
Cs0 N9 3.156141 1_555
Cs1 N4 3.050946 1_555
Cs1 N12 3.081398 1_555
Cs1 N27 3.094315 1_555
Cs1 N8 3.156141 1_555
Cs2 N7 3.050946 1_555
Cs2 N15 3.081398 1_655
Cs2 N24 3.094315 1_555
Cs2 N11 3.156141 1_554
Cs3 N6 3.050946 1_565
Cs3 N14 3.081398 1_565
Cs3 N25 3.094315 1_565
Cs3 N10 3.156141 1_556
Cs4 N1 3.050946 1_565
Cs4 N9 3.081398 1_665
Cs4 N30 3.094315 1_565
Cs4 N13 3.156141 1_555
Cs5 N0 3.050946 1_555
Cs5 N8 3.081398 1_555
Cs5 N31 3.094315 1_555
Cs5 N12 3.156141 1_555
Cs6 N3 3.050946 1_555
Cs6 N11 3.081398 1_455
Cs6 N28 3.094315 1_555
Cs6 N15 3.156141 1_556
Cs7 N2 3.050946 1_545
Cs7 N10 3.081398 1_545
Cs7 N29 3.094315 1_545
Cs7 N14 3.156141 1_554
Cs8 N23 3.139689 1_555
Cs8 N31 3.158688 1_555
Cs8 N0 3.235824 1_555
Cs8 N16 3.288950 1_455
Cs8 N8 3.350881 1_555
Cs8 N16 3.419708 1_555
Cs8 N24 3.532189 1_555
Cs8 N26 3.605973 1_545
Cs9 N22 3.139689 1_555
Cs9 N30 3.158688 1_555
Cs9 N1 3.235824 1_555
Cs9 N17 3.288950 1_555
Cs9 N9 3.350881 1_655
Cs9 N17 3.419708 1_655
Cs9 N25 3.532189 1_655
Cs9 N27 3.605973 1_555
Cs10 N21 3.139689 1_555
Cs10 N29 3.158688 1_555
Cs10 N2 3.235824 1_555
Cs10 N18 3.288950 1_655
Cs10 N10 3.350881 1_555
Cs10 N18 3.419708 1_555
Cs10 N26 3.532189 1_555
Cs10 N24 3.605973 1_555
Cs11 N20 3.139689 1_555
Cs11 N28 3.158688 1_555
Cs11 N3 3.235824 1_555
Cs11 N19 3.288950 1_555
Cs11 N11 3.350881 1_455
Cs11 N19 3.419708 1_455
Cs11 N27 3.532189 1_455
Cs11 N25 3.605973 1_565
Cs12 N19 3.139689 1_555
Cs12 N27 3.158688 1_555
Cs12 N4 3.235824 1_555
Cs12 N20 3.288950 1_655
Cs12 N12 3.350881 1_555
Cs12 N20 3.419708 1_555
Cs12 N28 3.532189 1_555
Cs12 N30 3.605973 1_565
Cs13 N18 3.139689 1_555
Cs13 N26 3.158688 1_555
Cs13 N5 3.235824 1_555
Cs13 N21 3.288950 1_555
Cs13 N13 3.350881 1_455
Cs13 N21 3.419708 1_455
Cs13 N29 3.532189 1_455
Cs13 N31 3.605973 1_555
Cs14 N17 3.139689 1_555
Cs14 N25 3.158688 1_555
Cs14 N6 3.235824 1_555
Cs14 N22 3.288950 1_455
Cs14 N14 3.350881 1_555
Cs14 N22 3.419708 1_555
Cs14 N30 3.532189 1_555
Cs14 N28 3.605973 1_555
Cs15 N16 3.139689 1_555
Cs15 N24 3.158688 1_555
Cs15 N7 3.235824 1_555
Cs15 N23 3.288950 1_555
Cs15 N15 3.350881 1_655
Cs15 N23 3.419708 1_655
Cs15 N31 3.532189 1_655
Cs15 N29 3.605973 1_545
N0 Sb9 2.016617 1_555
N0 Sb8 2.026387 1_455
N1 Sb8 2.016617 1_555
N1 Sb9 2.026387 1_555
N2 Sb11 2.016617 1_554
N2 Sb10 2.026387 1_655
N3 Sb10 2.016617 1_556
N3 Sb11 2.026387 1_555
N4 Sb13 2.016617 1_555
N4 Sb12 2.026387 1_655
N5 Sb12 2.016617 1_555
N5 Sb13 2.026387 1_555
N6 Sb15 2.016617 1_556
N6 Sb14 2.026387 1_455
N7 Sb14 2.016617 1_554
N7 Sb15 2.026387 1_555
N8 Sb5 2.024385 1_555
N8 Sb8 2.026276 1_555
N9 Sb4 2.024385 1_545
N9 Sb9 2.026276 1_555
N10 Sb7 2.024385 1_565
N10 Sb10 2.026276 1_555
N11 Sb6 2.024385 1_555
N11 Sb11 2.026276 1_555
N12 Sb1 2.024385 1_555
N12 Sb12 2.026276 1_555
N13 Sb0 2.024385 1_565
N13 Sb13 2.026276 1_555
N14 Sb3 2.024385 1_545
N14 Sb14 2.026276 1_555
N15 Sb2 2.024385 1_555
N15 Sb15 2.026276 1_555
N16 Sb0 2.027491 1_555
N16 Sb8 2.031480 1_555
N17 Sb1 2.027491 1_555
N17 Sb9 2.031480 1_555
N18 Sb2 2.027491 1_555
N18 Sb10 2.031480 1_555
N19 Sb3 2.027491 1_555
N19 Sb11 2.031480 1_555
N20 Sb4 2.027491 1_555
N20 Sb12 2.031480 1_555
N21 Sb5 2.027491 1_555
N21 Sb13 2.031480 1_555
N22 Sb6 2.027491 1_555
N22 Sb14 2.031480 1_555
N23 Sb7 2.027491 1_555
N23 Sb15 2.031480 1_555
N24 Sb2 2.027406 1_555
N24 Sb5 2.027815 1_555
N25 Sb3 2.027406 1_445
N25 Sb4 2.027815 1_545
N26 Sb0 2.027406 1_565
N26 Sb7 2.027815 1_565
N27 Sb1 2.027406 1_655
N27 Sb6 2.027815 1_555
N28 Sb6 2.027406 1_555
N28 Sb1 2.027815 1_555
N29 Sb7 2.027406 1_665
N29 Sb0 2.027815 1_565
N30 Sb4 2.027406 1_545
N30 Sb3 2.027815 1_545
N31 Sb5 2.027406 1_455
N31 Sb2 2.027815 1_555
