# generated using pymatgen
data_SrCdAu
_symmetry_space_group_name_H-M   'P 1'
_cell_length_a   4.52546495
_cell_length_b   7.73932118
_cell_length_c   8.97865043
_cell_angle_alpha   90.00000000
_cell_angle_beta   90.00000000
_cell_angle_gamma   90.00000000
_symmetry_Int_Tables_number   1
_chemical_formula_structural   SrCdAu
_chemical_formula_sum   'Sr4 Cd4 Au4'
_cell_volume   314.46849272
_cell_formula_units_Z   4
loop_
 _symmetry_equiv_pos_site_id
 _symmetry_equiv_pos_as_xyz
  1  'x, y, z'
loop_
 _atom_site_type_symbol
 _atom_site_label
 _atom_site_symmetry_multiplicity
 _atom_site_fract_x
 _atom_site_fract_y
 _atom_site_fract_z
 _atom_site_occupancy
  Sr  Sr0  1  0.25000000  0.03562979  0.31569809  1
  Sr  Sr1  1  0.25000000  0.53562979  0.18430191  1
  Sr  Sr2  1  0.75000000  0.96437021  0.68430191  1
  Sr  Sr3  1  0.75000000  0.46437021  0.81569809  1
  Cd  Cd0  1  0.25000000  0.14555682  0.93700789  1
  Cd  Cd1  1  0.25000000  0.64555682  0.56299211  1
  Cd  Cd2  1  0.75000000  0.85444318  0.06299211  1
  Cd  Cd3  1  0.75000000  0.35444318  0.43700789  1
  Au  Au0  1  0.25000000  0.26358638  0.62333391  1
  Au  Au1  1  0.25000000  0.76358638  0.87666609  1
  Au  Au2  1  0.75000000  0.73641362  0.37666609  1
  Au  Au3  1  0.75000000  0.23641362  0.12333391  1
loop_
_geom_bond_atom_site_label_1
_geom_bond_atom_site_label_2
_geom_bond_distance
_geom_bond_site_symmetry_2
Au0 Cd3 2.900550 1_555
Au0 Cd3 2.900550 1_455
Au0 Cd0 2.960804 1_555
Au0 Cd1 3.005429 1_555
Au0 Sr3 3.243112 1_455
Au0 Sr3 3.243112 1_555
Au0 Sr0 3.277499 1_555
Au0 Sr2 3.283629 1_545
Au0 Sr2 3.283629 1_445
Au1 Cd2 2.900550 1_456
Au1 Cd2 2.900550 1_556
Au1 Cd1 2.960804 1_555
Au1 Cd0 3.005429 1_565
Au1 Sr2 3.243112 1_555
Au1 Sr2 3.243112 1_455
Au1 Sr1 3.277499 1_556
Au1 Sr3 3.283629 1_455
Au1 Sr3 3.283629 1_555
Au2 Cd1 2.900550 1_555
Au2 Cd1 2.900550 1_655
Au2 Cd2 2.960804 1_555
Au2 Cd3 3.005429 1_555
Au2 Sr1 3.243112 1_555
Au2 Sr1 3.243112 1_655
Au2 Sr2 3.277499 1_555
Au2 Sr0 3.283629 1_665
Au2 Sr0 3.283629 1_565
Au3 Cd0 2.900550 1_554
Au3 Cd0 2.900550 1_654
Au3 Cd3 2.960804 1_555
Au3 Cd2 3.005429 1_545
Au3 Sr0 3.243112 1_555
Au3 Sr0 3.243112 1_655
Au3 Sr3 3.277499 1_554
Au3 Sr1 3.283629 1_655
Au3 Sr1 3.283629 1_555
