# generated using pymatgen
data_KRbNa2
_symmetry_space_group_name_H-M   'P 1'
_cell_length_a   15.60518850
_cell_length_b   15.37339639
_cell_length_c   15.37339666
_cell_angle_alpha   59.64357397
_cell_angle_beta   59.49997456
_cell_angle_gamma   59.49997605
_symmetry_Int_Tables_number   1
_chemical_formula_structural   KRbNa2
_chemical_formula_sum   'K1 Rb1 Na2'
_cell_volume   2581.09533145
_cell_formula_units_Z   1
loop_
 _symmetry_equiv_pos_site_id
 _symmetry_equiv_pos_as_xyz
  1  'x, y, z'
loop_
 _atom_site_type_symbol
 _atom_site_label
 _atom_site_symmetry_multiplicity
 _atom_site_fract_x
 _atom_site_fract_y
 _atom_site_fract_z
 _atom_site_occupancy
  K  K0  1  -0.00000000  -0.00000000  0.00000000  1
  Rb  Rb0  1  0.50000000  -0.00000000  0.00000000  1
  Na  Na0  1  0.75120279  0.00000000  -0.00000000  1
  Na  Na1  1  0.24879721  -0.00000000  0.00000000  1
loop_
_geom_bond_atom_site_label_1
_geom_bond_atom_site_label_2
_geom_bond_distance
_geom_bond_site_symmetry_2
K0 Na0 3.882527 1_455
K0 Na1 3.882527 1_555
Na0 Rb0 3.920067 1_555
Na1 Rb0 3.920067 1_555
