# generated using pymatgen
data_Fe3P2(HO)8
_symmetry_space_group_name_H-M   'P 1'
_cell_length_a   8.23051999
_cell_length_b   8.23051999
_cell_length_c   4.89563071
_cell_angle_alpha   80.45971318
_cell_angle_beta   80.45971318
_cell_angle_gamma   103.92209911
_symmetry_Int_Tables_number   1
_chemical_formula_structural   Fe3P2(HO)8
_chemical_formula_sum   'Fe3 P2 H8 O8'
_cell_volume   310.03224920
_cell_formula_units_Z   1
loop_
 _symmetry_equiv_pos_site_id
 _symmetry_equiv_pos_as_xyz
  1  'x, y, z'
loop_
 _atom_site_type_symbol
 _atom_site_label
 _atom_site_symmetry_multiplicity
 _atom_site_fract_x
 _atom_site_fract_y
 _atom_site_fract_z
 _atom_site_occupancy
  Fe  Fe0  1  0.60675000  0.39325000  0.00000000  1
  Fe  Fe1  1  0.39325000  0.60675000  0.00000000  1
  Fe  Fe2  1  0.00000000  0.00000000  0.00000000  1
  P  P0  1  0.68221100  0.68221100  0.34334800  1
  P  P1  1  0.31778900  0.31778900  0.65665200  1
  H  H0  1  0.15185300  0.09288900  0.24857500  1
  H  H1  1  0.84814700  0.90711100  0.75142500  1
  H  H2  1  0.90711100  0.84814700  0.75142500  1
  H  H3  1  0.09288900  0.15185300  0.24857500  1
  H  H4  1  0.73442800  0.20455900  0.06679900  1
  H  H5  1  0.26557200  0.79544100  0.93320100  1
  H  H6  1  0.79544100  0.26557200  0.93320100  1
  H  H7  1  0.20455900  0.73442800  0.06679900  1
  O  O0  1  0.38322900  0.38322900  0.33136300  1
  O  O1  1  0.61677100  0.61677100  0.66863700  1
  O  O2  1  0.84153000  0.84153000  0.30377100  1
  O  O3  1  0.15847000  0.15847000  0.69622900  1
  O  O4  1  0.54583700  0.74498100  0.20270000  1
  O  O5  1  0.45416300  0.25501900  0.79730000  1
  O  O6  1  0.25501900  0.45416300  0.79730000  1
  O  O7  1  0.74498100  0.54583700  0.20270000  1
loop_
_geom_bond_atom_site_label_1
_geom_bond_atom_site_label_2
_geom_bond_distance
_geom_bond_site_symmetry_2
Fe0 O5 1.989007 1_554
Fe0 O7 1.989007 1_555
Fe0 H6 2.086630 1_554
Fe0 H4 2.086630 1_555
Fe0 O1 2.217265 1_554
Fe0 O0 2.217265 1_555
Fe1 O4 1.989007 1_555
Fe1 O6 1.989007 1_554
Fe1 H5 2.086630 1_554
Fe1 H7 2.086630 1_555
Fe1 O1 2.217265 1_554
Fe1 O0 2.217265 1_555
Fe2 O2 1.873343 1_445
Fe2 O3 1.873343 1_554
H0 H3 0.764444 1_555
H1 H2 0.764444 1_555
H4 H6 0.770085 1_554
H5 H7 0.770085 1_556
O0 P1 1.551771 1_555
O1 P0 1.551771 1_555
O2 P0 1.574991 1_555
O3 P1 1.574991 1_555
O4 P0 1.555050 1_555
O5 P1 1.555050 1_555
O6 P1 1.555050 1_555
O7 P0 1.555050 1_555
