# generated using pymatgen
data_Cs5GeP3
_symmetry_space_group_name_H-M   'P 1'
_cell_length_a   14.36893196
_cell_length_b   6.00897178
_cell_length_c   15.81379166
_cell_angle_alpha   90.00000000
_cell_angle_beta   90.00000000
_cell_angle_gamma   90.00000000
_symmetry_Int_Tables_number   1
_chemical_formula_structural   Cs5GeP3
_chemical_formula_sum   'Cs20 Ge4 P12'
_cell_volume   1365.40241167
_cell_formula_units_Z   4
loop_
 _symmetry_equiv_pos_site_id
 _symmetry_equiv_pos_as_xyz
  1  'x, y, z'
loop_
 _atom_site_type_symbol
 _atom_site_label
 _atom_site_symmetry_multiplicity
 _atom_site_fract_x
 _atom_site_fract_y
 _atom_site_fract_z
 _atom_site_occupancy
  Cs  Cs0  1  0.56151370  0.25000000  0.54909286  1
  Cs  Cs1  1  0.06151370  0.25000000  0.95090714  1
  Cs  Cs2  1  0.43848630  0.75000000  0.45090714  1
  Cs  Cs3  1  0.93848630  0.75000000  0.04909286  1
  Cs  Cs4  1  0.61741767  0.25000000  0.31197210  1
  Cs  Cs5  1  0.11741767  0.25000000  0.18802790  1
  Cs  Cs6  1  0.38258233  0.75000000  0.68802790  1
  Cs  Cs7  1  0.88258233  0.75000000  0.81197210  1
  Cs  Cs8  1  0.85317617  0.25000000  0.45113323  1
  Cs  Cs9  1  0.35317617  0.25000000  0.04886677  1
  Cs  Cs10  1  0.14682383  0.75000000  0.54886677  1
  Cs  Cs11  1  0.64682383  0.75000000  0.95113323  1
  Cs  Cs12  1  0.27357253  0.25000000  0.79362980  1
  Cs  Cs13  1  0.77357253  0.25000000  0.70637020  1
  Cs  Cs14  1  0.72642747  0.75000000  0.20637020  1
  Cs  Cs15  1  0.22642747  0.75000000  0.29362980  1
  Cs  Cs16  1  0.04592552  0.25000000  0.64938553  1
  Cs  Cs17  1  0.54592552  0.25000000  0.85061447  1
  Cs  Cs18  1  0.95407448  0.75000000  0.35061447  1
  Cs  Cs19  1  0.45407448  0.75000000  0.14938553  1
  Ge  Ge0  1  0.26054554  0.25000000  0.43575275  1
  Ge  Ge1  1  0.76054554  0.25000000  0.06424725  1
  Ge  Ge2  1  0.73945446  0.75000000  0.56424725  1
  Ge  Ge3  1  0.23945446  0.75000000  0.93575275  1
  P  P0  1  0.10472408  0.25000000  0.41316182  1
  P  P1  1  0.60472408  0.25000000  0.08683818  1
  P  P2  1  0.89527592  0.75000000  0.58683818  1
  P  P3  1  0.39527592  0.75000000  0.91316182  1
  P  P4  1  0.30676440  0.25000000  0.57270282  1
  P  P5  1  0.80676440  0.25000000  0.92729718  1
  P  P6  1  0.69323560  0.75000000  0.42729718  1
  P  P7  1  0.19323560  0.75000000  0.07270282  1
  P  P8  1  0.36522782  0.25000000  0.32790503  1
  P  P9  1  0.86522782  0.25000000  0.17209497  1
  P  P10  1  0.63477218  0.75000000  0.67209497  1
  P  P11  1  0.13477218  0.75000000  0.82790503  1
loop_
_geom_bond_atom_site_label_1
_geom_bond_atom_site_label_2
_geom_bond_distance
_geom_bond_site_symmetry_2
Cs0 P4 3.679467 1_555
Cs0 P10 3.730754 1_545
Cs0 P10 3.730754 1_555
Cs0 P6 4.039670 1_555
Cs0 P6 4.039670 1_545
Cs1 P5 3.679467 1_455
Cs1 P11 3.730754 1_545
Cs1 P11 3.730754 1_555
Cs1 P7 4.039670 1_556
Cs1 P7 4.039670 1_546
Cs2 P6 3.679467 1_555
Cs2 P8 3.730754 1_565
Cs2 P8 3.730754 1_555
Cs2 P4 4.039670 1_565
Cs2 P4 4.039670 1_555
Cs3 P7 3.679467 1_655
Cs3 P9 3.730754 1_555
Cs3 P9 3.730754 1_565
Cs3 P5 4.039670 1_564
Cs3 P5 4.039670 1_554
Cs4 P1 3.564890 1_555
Cs4 P8 3.632448 1_555
Cs4 P6 3.679641 1_555
Cs4 P6 3.679641 1_545
Cs5 P0 3.564890 1_555
Cs5 P9 3.632448 1_455
Cs5 P7 3.679641 1_555
Cs5 P7 3.679641 1_545
Cs6 P3 3.564890 1_555
Cs6 P10 3.632448 1_555
Cs6 P4 3.679641 1_555
Cs6 P4 3.679641 1_565
Cs7 P2 3.564890 1_555
Cs7 P11 3.632448 1_655
Cs7 P5 3.679641 1_565
Cs7 P5 3.679641 1_555
Cs8 P0 3.664013 1_655
Cs8 P2 3.741421 1_555
Cs8 P2 3.741421 1_545
Cs8 P6 3.801398 1_545
Cs8 P6 3.801398 1_555
Cs9 P1 3.664013 1_555
Cs9 P3 3.741421 1_554
Cs9 P3 3.741421 1_544
Cs9 P7 3.801398 1_545
Cs9 P7 3.801398 1_555
Cs10 P2 3.664013 1_455
Cs10 P0 3.741421 1_565
Cs10 P0 3.741421 1_555
Cs10 P4 3.801398 1_565
Cs10 P4 3.801398 1_555
Cs11 P3 3.664013 1_555
Cs11 P1 3.741421 1_556
Cs11 P1 3.741421 1_566
Cs11 P5 3.801398 1_555
Cs11 P5 3.801398 1_565
Cs12 P4 3.526096 1_555
Cs12 P11 3.646698 1_545
Cs12 P11 3.646698 1_555
Cs12 P3 3.957034 1_555
Cs12 P3 3.957034 1_545
Cs13 P5 3.526096 1_555
Cs13 P10 3.646698 1_555
Cs13 P10 3.646698 1_545
Cs13 P2 3.957034 1_555
Cs13 P2 3.957034 1_545
Cs14 P6 3.526096 1_555
Cs14 P9 3.646698 1_555
Cs14 P9 3.646698 1_565
Cs14 P1 3.957034 1_565
Cs14 P1 3.957034 1_555
Cs15 P7 3.526096 1_555
Cs15 P8 3.646698 1_565
Cs15 P8 3.646698 1_555
Cs15 P0 3.957034 1_565
Cs15 P0 3.957034 1_555
Cs16 P0 3.829943 1_555
Cs16 P2 3.832896 1_455
Cs16 P2 3.832896 1_445
Cs16 P4 3.939268 1_555
Cs17 P1 3.829943 1_556
Cs17 P3 3.832896 1_555
Cs17 P3 3.832896 1_545
Cs17 P5 3.939268 1_555
Cs18 P2 3.829943 1_555
Cs18 P0 3.832896 1_655
Cs18 P0 3.832896 1_665
Cs18 P6 3.939268 1_555
Cs19 P3 3.829943 1_554
Cs19 P1 3.832896 1_565
Cs19 P1 3.832896 1_555
Cs19 P7 3.939268 1_555
Ge0 P4 2.265239 1_555
Ge0 P0 2.267310 1_555
Ge0 P8 2.274028 1_555
Ge1 P5 2.265239 1_554
Ge1 P1 2.267310 1_555
Ge1 P9 2.274028 1_555
Ge2 P6 2.265239 1_555
Ge2 P2 2.267310 1_555
Ge2 P10 2.274028 1_555
Ge3 P7 2.265239 1_556
Ge3 P3 2.267310 1_555
Ge3 P11 2.274028 1_555
