# generated using pymatgen
data_Ga21Ni5
_symmetry_space_group_name_H-M   'P 1'
_cell_length_a   9.88956301
_cell_length_b   8.21957573
_cell_length_c   8.18127175
_cell_angle_alpha   74.16841074
_cell_angle_beta   53.09282880
_cell_angle_gamma   52.73876045
_symmetry_Int_Tables_number   1
_chemical_formula_structural   Ga21Ni5
_chemical_formula_sum   'Ga21 Ni5'
_cell_volume   418.90067783
_cell_formula_units_Z   1
loop_
 _symmetry_equiv_pos_site_id
 _symmetry_equiv_pos_as_xyz
  1  'x, y, z'
loop_
 _atom_site_type_symbol
 _atom_site_label
 _atom_site_symmetry_multiplicity
 _atom_site_fract_x
 _atom_site_fract_y
 _atom_site_fract_z
 _atom_site_occupancy
  Ga  Ga0  1  0.31359300  0.00657700  0.31928800  1
  Ga  Ga1  1  0.69406200  0.30593800  0.64414700  1
  Ga  Ga2  1  0.99342300  0.68640700  0.63945800  1
  Ga  Ga3  1  0.63834600  0.99782400  0.68101800  1
  Ga  Ga4  1  0.65974500  0.70642500  0.34025500  1
  Ga  Ga5  1  0.31898200  0.31718800  0.36165400  1
  Ga  Ga6  1  0.68281200  0.68101800  0.99782400  1
  Ga  Ga7  1  0.29357500  0.34025500  0.70642500  1
  Ga  Ga8  1  0.00217600  0.36165400  0.31718800  1
  Ga  Ga9  1  0.36054200  0.31928800  0.00657700  1
  Ga  Ga10  1  0.35585300  0.64414700  0.30593800  1
  Ga  Ga11  1  0.68071200  0.63945800  0.68640700  1
  Ga  Ga12  1  0.00701200  0.99298800  0.71501800  1
  Ga  Ga13  1  0.72380200  0.02329100  0.27619800  1
  Ga  Ga14  1  0.97670900  0.27619800  0.02329100  1
  Ga  Ga15  1  0.28498200  0.71501800  0.99298800  1
  Ga  Ga16  1  0.99721900  0.00278100  0.32340600  1
  Ga  Ga17  1  0.31784400  0.99848300  0.68215600  1
  Ga  Ga18  1  0.00151700  0.68215600  0.99848300  1
  Ga  Ga19  1  0.67659400  0.32340600  0.00278100  1
  Ga  Ga20  1  0.36284300  0.63715700  0.63715700  1
  Ni  Ni0  1  0.00438400  0.32569600  0.67391900  1
  Ni  Ni1  1  0.67430400  0.99561600  0.00399900  1
  Ni  Ni2  1  0.65688700  0.34311300  0.34311300  1
  Ni  Ni3  1  0.99600100  0.67391900  0.32569600  1
  Ni  Ni4  1  0.32608100  0.00399900  0.99561600  1
loop_
_geom_bond_atom_site_label_1
_geom_bond_atom_site_label_2
_geom_bond_distance
_geom_bond_site_symmetry_2
Ga0 Ni4 2.581187 1_554
Ga0 Ga8 2.674951 1_555
Ga0 Ga5 2.703892 1_555
Ga0 Ga10 2.770606 1_545
Ga0 Ga6 2.807988 1_544
Ga0 Ni1 2.841349 1_545
Ga0 Ga4 2.842980 1_545
Ga0 Ga12 2.847850 1_545
Ga0 Ni0 2.903938 1_555
Ga0 Ga17 2.976281 1_545
Ga1 Ni2 2.614376 1_555
Ga1 Ga16 2.675074 1_555
Ga1 Ga20 2.736107 1_555
Ga1 Ga9 2.770606 1_556
Ga1 Ga11 2.770606 1_555
Ga1 Ga8 2.807455 1_655
Ga1 Ga3 2.807455 1_545
Ga1 Ga12 2.869312 1_645
Ga1 Ga19 2.872343 1_556
Ga2 Ni3 2.581187 1_555
Ga2 Ga3 2.674951 1_555
Ga2 Ga6 2.703892 1_555
Ga2 Ga5 2.807988 1_655
Ga2 Ni0 2.841349 1_655
Ga2 Ga7 2.842980 1_655
Ga2 Ni1 2.903938 1_556
Ga3 Ni4 2.549319 1_565
Ga3 Ga7 2.727294 1_565
Ga3 Ga9 2.807988 1_566
Ga3 Ni1 2.864198 1_556
Ga3 Ni3 2.918912 1_555
Ga4 Ga6 2.727294 1_554
Ga4 Ga8 2.727294 1_655
Ga4 Ni2 2.997077 1_555
Ga4 Ni3 3.099963 1_555
Ga4 Ni1 3.099963 1_555
Ga5 Ni0 2.549319 1_555
Ga5 Ga9 2.674951 1_555
Ga5 Ga7 2.727294 1_555
Ga5 Ni3 2.864198 1_455
Ga5 Ni1 2.918912 1_545
Ga6 Ni1 2.549319 1_556
Ga6 Ni4 2.864198 1_565
Ga6 Ni0 2.918912 1_655
Ga7 Ga9 2.842980 1_556
Ga7 Ni2 2.997077 1_555
Ga7 Ni4 3.099963 1_555
Ga7 Ni0 3.099963 1_555
Ga8 Ni3 2.549319 1_455
Ga8 Ga9 2.703892 1_555
Ga8 Ni0 2.864198 1_555
Ga8 Ni4 2.918912 1_554
Ga9 Ni1 2.581187 1_545
Ga9 Ni4 2.841349 1_554
Ga9 Ni3 2.903938 1_455
Ga10 Ni2 2.614376 1_555
Ga10 Ga19 2.675074 1_555
Ga10 Ga20 2.736107 1_555
Ga10 Ga2 2.770606 1_455
Ga10 Ga6 2.807455 1_554
Ga10 Ga5 2.807455 1_555
Ga10 Ga15 2.869312 1_554
Ga10 Ga16 2.872343 1_465
Ga11 Ni0 2.581187 1_655
Ga11 Ga6 2.674951 1_555
Ga11 Ga3 2.703892 1_555
Ga11 Ga8 2.807988 1_655
Ga11 Ni3 2.841349 1_555
Ga11 Ga4 2.842980 1_555
Ga11 Ga15 2.847850 1_555
Ga11 Ni4 2.903938 1_565
Ga11 Ga17 2.976281 1_555
Ga12 Ni0 2.648610 1_565
Ga12 Ni1 2.648610 1_456
Ga12 Ga19 2.664419 1_466
Ga12 Ga20 2.684182 1_555
Ga12 Ga2 2.847850 1_455
Ga12 Ga17 2.948330 1_555
Ga12 Ga18 2.948330 1_555
Ga13 Ni2 2.427305 1_555
Ga13 Ni3 2.640286 1_545
Ga13 Ni1 2.640286 1_545
Ga13 Ga18 2.687724 1_644
Ga13 Ga16 2.855844 1_555
Ga13 Ga19 2.855844 1_555
Ga13 Ga5 2.863783 1_555
Ga13 Ga3 2.863783 1_545
Ga13 Ga4 2.883374 1_545
Ga14 Ni2 2.427305 1_555
Ga14 Ni0 2.640286 1_654
Ga14 Ni4 2.640286 1_654
Ga14 Ga17 2.687724 1_644
Ga14 Ga16 2.855844 1_555
Ga14 Ga19 2.855844 1_555
Ga14 Ga8 2.863783 1_655
Ga14 Ga6 2.863783 1_554
Ga14 Ga7 2.883374 1_654
Ga15 Ni3 2.648610 1_456
Ga15 Ni4 2.648610 1_565
Ga15 Ga16 2.664419 1_466
Ga15 Ga20 2.684182 1_555
Ga15 Ga9 2.847850 1_556
Ga15 Ga18 2.948330 1_555
Ga15 Ga17 2.948330 1_555
Ga16 Ni4 2.705329 1_654
Ga16 Ni3 2.705329 1_545
Ga16 Ni2 2.715314 1_555
Ga16 Ga8 2.965881 1_655
Ga16 Ga3 2.965881 1_545
Ga17 Ni0 2.627580 1_565
Ga17 Ni4 2.627580 1_565
Ga17 Ga7 2.723859 1_565
Ga17 Ga4 2.737779 1_555
Ga17 Ga20 2.820200 1_555
Ga18 Ni3 2.627580 1_456
Ga18 Ni1 2.627580 1_456
Ga18 Ga4 2.723859 1_456
Ga18 Ga7 2.737779 1_555
Ga18 Ga20 2.820200 1_555
Ga18 Ga9 2.976281 1_556
Ga18 Ga2 2.976281 1_455
Ga19 Ni1 2.705329 1_545
Ga19 Ni0 2.705329 1_654
Ga19 Ni2 2.715314 1_555
Ga19 Ga5 2.965881 1_555
Ga19 Ga6 2.965881 1_554
Ga20 Ni2 2.518884 1_555
Ga20 Ga7 2.747635 1_555
Ga20 Ga4 2.747635 1_555
