# generated using pymatgen
data_NaLi2B(PO4)2
_symmetry_space_group_name_H-M   'P 1'
_cell_length_a   5.50286800
_cell_length_b   7.48331182
_cell_length_c   8.11016794
_cell_angle_alpha   103.38545186
_cell_angle_beta   109.46941993
_cell_angle_gamma   87.31721742
_symmetry_Int_Tables_number   1
_chemical_formula_structural   NaLi2B(PO4)2
_chemical_formula_sum   'Na2 Li4 B2 P4 O16'
_cell_volume   306.15576988
_cell_formula_units_Z   2
loop_
 _symmetry_equiv_pos_site_id
 _symmetry_equiv_pos_as_xyz
  1  'x, y, z'
loop_
 _atom_site_type_symbol
 _atom_site_label
 _atom_site_symmetry_multiplicity
 _atom_site_fract_x
 _atom_site_fract_y
 _atom_site_fract_z
 _atom_site_occupancy
  Na  Na0  1  0.25369500  0.88073800  0.74104800  1
  Na  Na1  1  0.74630500  0.11926200  0.25895200  1
  Li  Li0  1  0.30952200  0.50135200  0.85803400  1
  Li  Li1  1  0.69047800  0.49864800  0.14196600  1
  Li  Li2  1  0.85509300  0.46982300  0.59777800  1
  Li  Li3  1  0.14490700  0.53017700  0.40222200  1
  B  B0  1  0.74871000  0.04602800  0.76590300  1
  B  B1  1  0.25129000  0.95397200  0.23409700  1
  P  P0  1  0.62154100  0.77383900  0.45284500  1
  P  P1  1  0.37845900  0.22616100  0.54715500  1
  P  P2  1  0.85488400  0.75155600  0.94574800  1
  P  P3  1  0.14511600  0.24844400  0.05425200  1
  O  O0  1  0.96721500  0.17987400  0.85174700  1
  O  O1  1  0.03278500  0.82012600  0.14825300  1
  O  O2  1  0.50194800  0.86218700  0.28349400  1
  O  O3  1  0.49805200  0.13781300  0.71650600  1
  O  O4  1  0.01292600  0.66585900  0.82588300  1
  O  O5  1  0.98707400  0.33414100  0.17411700  1
  O  O6  1  0.80021600  0.62392900  0.40387400  1
  O  O7  1  0.19978400  0.37607100  0.59612600  1
  O  O8  1  0.72316900  0.93404100  0.89043600  1
  O  O9  1  0.27683100  0.06595900  0.10956400  1
  O  O10  1  0.64584400  0.62695700  0.94570700  1
  O  O11  1  0.35415600  0.37304300  0.05429300  1
  O  O12  1  0.80121200  0.93258100  0.60627100  1
  O  O13  1  0.19878800  0.06741900  0.39372900  1
  O  O14  1  0.41435900  0.71278300  0.51375100  1
  O  O15  1  0.58564100  0.28721700  0.48624900  1
loop_
_geom_bond_atom_site_label_1
_geom_bond_atom_site_label_2
_geom_bond_distance
_geom_bond_site_symmetry_2
Na0 O14 2.381010 1_555
Na0 O12 2.415945 1_455
Na0 O8 2.467274 1_555
Na0 O4 2.476656 1_555
Na0 O3 2.479213 1_565
Na0 O0 2.825751 1_465
Na0 O9 2.952072 1_566
Na1 O15 2.381010 1_555
Na1 O13 2.415945 1_655
Na1 O9 2.467274 1_555
Na1 O5 2.476656 1_555
Na1 O2 2.479213 1_545
Na1 O1 2.825751 1_645
Na1 O8 2.952072 1_544
Li0 O10 1.946914 1_555
Li0 O4 1.980953 1_555
Li0 O11 1.985114 1_556
Li0 O7 2.007834 1_555
Li1 O11 1.946914 1_555
Li1 O5 1.980953 1_555
Li1 O10 1.985114 1_554
Li1 O6 2.007834 1_555
Li2 O15 1.899315 1_555
Li2 O7 1.994545 1_655
Li2 O4 2.029896 1_655
Li2 O6 2.093962 1_555
Li3 O14 1.899315 1_555
Li3 O6 1.994545 1_455
Li3 O5 2.029896 1_455
Li3 O7 2.093962 1_555
B0 O0 1.471581 1_555
B0 O12 1.482495 1_545
B0 O3 1.484989 1_555
B0 O8 1.496549 1_545
B1 O1 1.471581 1_555
B1 O13 1.482495 1_565
B1 O2 1.484989 1_555
B1 O9 1.496549 1_565
O0 P3 1.582419 1_656
O1 P2 1.582419 1_454
O2 P0 1.591782 1_555
O3 P1 1.591782 1_555
O4 P2 1.528189 1_455
O5 P3 1.528189 1_655
O6 P0 1.527653 1_555
O7 P1 1.527653 1_555
O8 P2 1.601766 1_555
O9 P3 1.601766 1_555
O10 P2 1.514146 1_555
O11 P3 1.514146 1_555
O12 P0 1.594510 1_555
O13 P1 1.594510 1_555
O14 P0 1.510376 1_555
O15 P1 1.510376 1_555
