# generated using pymatgen
data_V3(O2F)2
_symmetry_space_group_name_H-M   'P 1'
_cell_length_a   4.67800200
_cell_length_b   7.71667500
_cell_length_c   5.62253490
_cell_angle_alpha   93.90033773
_cell_angle_beta   90.00184171
_cell_angle_gamma   89.99872353
_symmetry_Int_Tables_number   1
_chemical_formula_structural   V3(O2F)2
_chemical_formula_sum   'V6 O8 F4'
_cell_volume   202.49566336
_cell_formula_units_Z   2
loop_
 _symmetry_equiv_pos_site_id
 _symmetry_equiv_pos_as_xyz
  1  'x, y, z'
loop_
 _atom_site_type_symbol
 _atom_site_label
 _atom_site_symmetry_multiplicity
 _atom_site_fract_x
 _atom_site_fract_y
 _atom_site_fract_z
 _atom_site_occupancy
  V  V0  1  0.49641100  0.33218200  0.83795100  1
  V  V1  1  0.99641000  0.33448500  0.32867800  1
  V  V2  1  0.45065600  0.99389100  0.50592900  1
  V  V3  1  0.95071000  0.67277300  0.66070900  1
  V  V4  1  0.53016300  0.67080700  0.16027100  1
  V  V5  1  0.03009600  0.99580700  0.00639900  1
  O  O0  1  0.81114000  0.44302000  0.63575800  1
  O  O1  1  0.68699600  0.43685100  0.13202300  1
  O  O2  1  0.31111100  0.22363600  0.53085600  1
  O  O3  1  0.18706200  0.22980700  0.03466600  1
  O  O4  1  0.81200300  0.76897100  0.95480600  1
  O  O5  1  0.71458500  0.77603100  0.46898000  1
  O  O6  1  0.31198500  0.89765100  0.21199300  1
  O  O7  1  0.21454800  0.89070700  0.69766500  1
  F  F0  1  0.79451200  0.09346200  0.30799100  1
  F  F1  1  0.70348300  0.09325100  0.79482400  1
  F  F2  1  0.29454800  0.57327000  0.85870800  1
  F  F3  1  0.20358100  0.57339900  0.37179200  1
loop_
_geom_bond_atom_site_label_1
_geom_bond_atom_site_label_2
_geom_bond_distance
_geom_bond_site_symmetry_2
O0 V3 1.885592 1_555
O0 V1 2.058395 1_555
O0 V0 2.079437 1_555
O1 V4 1.945190 1_555
O1 V0 1.999834 1_554
O1 V1 2.015019 1_555
O2 V2 1.885468 1_545
O2 V0 2.058521 1_555
O2 V1 2.079255 1_455
O3 V5 1.945766 1_545
O3 V1 1.999760 1_455
O3 V0 2.015101 1_554
O4 V3 1.881340 1_555
O4 V4 1.940585 1_556
O4 V5 2.029776 1_656
O5 V3 1.770271 1_555
O5 V4 2.055373 1_555
O5 V2 2.084763 1_555
O6 V2 1.880594 1_555
O6 V5 1.941091 1_555
O6 V4 2.030059 1_555
O7 V2 1.770031 1_555
O7 V5 2.055255 1_556
O7 V3 2.085006 1_455
F0 V1 2.082168 1_555
F0 V5 2.117568 1_645
F0 V2 2.129064 1_545
F1 V0 2.082230 1_555
F1 V5 2.106307 1_646
F1 V2 2.110835 1_545
F2 V0 2.082504 1_555
F2 V4 2.117203 1_556
F2 V3 2.128900 1_455
F3 V1 2.082358 1_455
F3 V4 2.105993 1_555
F3 V3 2.111115 1_455
