# generated using pymatgen
data_Zn2AgWO6
_symmetry_space_group_name_H-M   'P 1'
_cell_length_a   5.12293400
_cell_length_b   5.54083435
_cell_length_c   5.68665603
_cell_angle_alpha   114.91773899
_cell_angle_beta   115.50562037
_cell_angle_gamma   90.02036072
_symmetry_Int_Tables_number   1
_chemical_formula_structural   Zn2AgWO6
_chemical_formula_sum   'Zn2 Ag1 W1 O6'
_cell_volume   128.82572743
_cell_formula_units_Z   1
loop_
 _symmetry_equiv_pos_site_id
 _symmetry_equiv_pos_as_xyz
  1  'x, y, z'
loop_
 _atom_site_type_symbol
 _atom_site_label
 _atom_site_symmetry_multiplicity
 _atom_site_fract_x
 _atom_site_fract_y
 _atom_site_fract_z
 _atom_site_occupancy
  Zn  Zn0  1  0.68626100  0.19192900  0.46128300  1
  Zn  Zn1  1  0.27800100  0.67083900  0.47410800  1
  Ag  Ag0  1  0.52058500  0.52103600  0.02027000  1
  W  W0  1  0.00411900  0.01709800  0.00598500  1
  O  O0  1  0.31191900  0.84494300  0.21807600  1
  O  O1  1  0.76597700  0.23723100  0.84511300  1
  O  O2  1  0.67125600  0.74251400  0.84956500  1
  O  O3  1  0.06620500  0.86365300  0.67520200  1
  O  O4  1  0.00030400  0.23539700  0.37344700  1
  O  O5  1  0.37655400  0.33888800  0.22415200  1
loop_
_geom_bond_atom_site_label_1
_geom_bond_atom_site_label_2
_geom_bond_distance
_geom_bond_site_symmetry_2
Ag0 O5 2.151617 1_555
Ag0 O2 2.166219 1_554
Ag0 O1 2.192088 1_554
Ag0 O0 2.228190 1_555
O0 W0 2.045389 1_565
O0 Zn1 2.117052 1_555
O0 Zn0 2.181626 1_565
O1 Zn0 1.940261 1_555
O1 W0 1.947593 1_656
O2 W0 1.888202 1_666
O2 Zn1 2.087010 1_555
O3 W0 1.878881 1_566
O3 Zn1 1.914750 1_555
O4 Zn0 1.920666 1_455
O4 W0 1.932712 1_555
O4 Zn1 2.511015 1_555
O5 Zn1 2.018420 1_555
O5 Zn0 2.020492 1_555
O5 W0 2.110364 1_555
