# generated using pymatgen
data_BaO10
_symmetry_space_group_name_H-M   'P 1'
_cell_length_a   6.05843914
_cell_length_b   6.05843914
_cell_length_c   9.49285662
_cell_angle_alpha   90.00000000
_cell_angle_beta   90.00000000
_cell_angle_gamma   90.00000000
_symmetry_Int_Tables_number   1
_chemical_formula_structural   BaO10
_chemical_formula_sum   'Ba2 O20'
_cell_volume   348.43231021
_cell_formula_units_Z   2
loop_
 _symmetry_equiv_pos_site_id
 _symmetry_equiv_pos_as_xyz
  1  'x, y, z'
loop_
 _atom_site_type_symbol
 _atom_site_label
 _atom_site_symmetry_multiplicity
 _atom_site_fract_x
 _atom_site_fract_y
 _atom_site_fract_z
 _atom_site_occupancy
  Ba  Ba0  1  -0.00000000  0.00000000  0.25000000  1
  Ba  Ba1  1  -0.00000000  0.00000000  0.75000000  1
  O  O0  1  0.50000000  0.50000000  0.31473241  1
  O  O1  1  0.50000000  0.50000000  0.81473241  1
  O  O2  1  0.50000000  0.50000000  0.68526759  1
  O  O3  1  0.50000000  0.50000000  0.18526759  1
  O  O4  1  0.07395433  0.34797652  0.43319499  1
  O  O5  1  0.92604567  0.65202348  0.43319499  1
  O  O6  1  0.65202348  0.07395433  0.43319499  1
  O  O7  1  0.34797652  0.92604567  0.43319499  1
  O  O8  1  0.92604567  0.34797652  0.93319499  1
  O  O9  1  0.07395433  0.65202348  0.93319499  1
  O  O10  1  0.34797652  0.07395433  0.93319499  1
  O  O11  1  0.65202348  0.92604567  0.93319499  1
  O  O12  1  0.92604567  0.65202348  0.56680501  1
  O  O13  1  0.07395433  0.34797652  0.56680501  1
  O  O14  1  0.34797652  0.92604567  0.56680501  1
  O  O15  1  0.65202348  0.07395433  0.56680501  1
  O  O16  1  0.07395433  0.65202348  0.06680501  1
  O  O17  1  0.92604567  0.34797652  0.06680501  1
  O  O18  1  0.65202348  0.92604567  0.06680501  1
  O  O19  1  0.34797652  0.07395433  0.06680501  1
loop_
_geom_bond_atom_site_label_1
_geom_bond_atom_site_label_2
_geom_bond_distance
_geom_bond_site_symmetry_2
Ba0 O18 2.769387 1_445
Ba0 O19 2.769387 1_555
Ba0 O17 2.769387 1_455
Ba0 O4 2.769387 1_555
Ba0 O16 2.769387 1_545
Ba0 O5 2.769387 1_445
Ba0 O7 2.769387 1_545
Ba0 O6 2.769387 1_455
Ba1 O11 2.769387 1_445
Ba1 O12 2.769387 1_445
Ba1 O14 2.769387 1_545
Ba1 O13 2.769387 1_555
Ba1 O10 2.769387 1_555
Ba1 O9 2.769387 1_545
Ba1 O8 2.769387 1_455
Ba1 O15 2.769387 1_455
O0 O3 1.228991 1_555
O1 O2 1.228991 1_555
O10 O19 1.268341 1_556
O11 O18 1.268341 1_556
O12 O5 1.268341 1_555
O13 O4 1.268341 1_555
O14 O7 1.268341 1_555
O15 O6 1.268341 1_555
O16 O9 1.268341 1_554
O17 O8 1.268341 1_554
