# generated using pymatgen
data_K3Gd(AsS4)2
_symmetry_space_group_name_H-M   'P 1'
_cell_length_a   9.00886062
_cell_length_b   10.20662456
_cell_length_c   10.90144008
_cell_angle_alpha   107.45776142
_cell_angle_beta   102.86844125
_cell_angle_gamma   114.01022321
_symmetry_Int_Tables_number   1
_chemical_formula_structural   K3Gd(AsS4)2
_chemical_formula_sum   'K6 Gd2 As4 S16'
_cell_volume   802.19626614
_cell_formula_units_Z   2
loop_
 _symmetry_equiv_pos_site_id
 _symmetry_equiv_pos_as_xyz
  1  'x, y, z'
loop_
 _atom_site_type_symbol
 _atom_site_label
 _atom_site_symmetry_multiplicity
 _atom_site_fract_x
 _atom_site_fract_y
 _atom_site_fract_z
 _atom_site_occupancy
  K  K0  1  0.25499400  0.00499400  0.00998800  1
  K  K1  1  0.74500600  0.99500600  0.99001200  1
  K  K2  1  0.00000000  0.50000000  0.00000000  1
  K  K3  1  0.50000000  0.50000000  0.00000000  1
  K  K4  1  0.48797100  0.73797100  0.47594100  1
  K  K5  1  0.51202900  0.26202900  0.52405900  1
  Gd  Gd0  1  0.00694000  0.75694000  0.51388000  1
  Gd  Gd1  1  0.99306000  0.24306000  0.48612000  1
  As  As0  1  0.74081700  0.34311700  0.24791000  1
  As  As1  1  0.00709300  0.90479300  0.24791000  1
  As  As2  1  0.25918300  0.65688300  0.75209000  1
  As  As3  1  0.99290700  0.09520700  0.75209000  1
  S  S0  1  0.63806600  0.26535400  0.02457200  1
  S  S1  1  0.88650600  0.75921800  0.02457200  1
  S  S2  1  0.36193400  0.73464600  0.97542800  1
  S  S3  1  0.11349400  0.24078200  0.97542800  1
  S  S4  1  0.34412000  0.86723200  0.70851700  1
  S  S5  1  0.86439700  0.84128500  0.70851700  1
  S  S6  1  0.65588000  0.13276800  0.29148300  1
  S  S7  1  0.13560300  0.15871500  0.29148300  1
  S  S8  1  0.96781500  0.52728300  0.65264400  1
  S  S9  1  0.18482900  0.12536100  0.65264400  1
  S  S10  1  0.03218500  0.47271700  0.34735600  1
  S  S11  1  0.81517100  0.87463900  0.34735600  1
  S  S12  1  0.20305100  0.85747900  0.35636500  1
  S  S13  1  0.65331400  0.49888600  0.35636500  1
  S  S14  1  0.79694900  0.14252100  0.64363500  1
  S  S15  1  0.34668600  0.50111400  0.64363500  1
loop_
_geom_bond_atom_site_label_1
_geom_bond_atom_site_label_2
_geom_bond_distance
_geom_bond_site_symmetry_2
K0 S3 3.222631 1_554
K0 S2 3.222631 1_544
K0 S1 3.321996 1_445
K0 S0 3.321996 1_555
K0 S4 3.569891 1_544
K0 S5 3.569891 1_444
K0 S6 3.604182 1_555
K0 S7 3.604182 1_555
K1 S1 3.222631 1_556
K1 S0 3.222631 1_566
K1 S3 3.321996 1_665
K1 S2 3.321996 1_555
K1 S6 3.569891 1_566
K1 S7 3.569891 1_666
K1 S4 3.604182 1_555
K1 S5 3.604182 1_555
K2 S3 3.164698 1_554
K2 S1 3.164698 1_455
K2 S2 3.295168 1_554
K2 S0 3.295168 1_455
K3 S0 3.164698 1_555
K3 S2 3.164698 1_554
K3 S1 3.295168 1_555
K3 S3 3.295168 1_554
K4 S5 3.270514 1_555
K4 S4 3.270517 1_555
K4 S12 3.433245 1_555
K4 S13 3.433245 1_555
K4 S14 3.462712 1_565
K4 S15 3.462720 1_555
K4 S11 3.502455 1_555
K4 S10 3.502464 1_555
K5 S7 3.270514 1_555
K5 S6 3.270517 1_555
K5 S14 3.433245 1_555
K5 S15 3.433245 1_555
K5 S12 3.462712 1_545
K5 S13 3.462720 1_555
K5 S9 3.502455 1_555
K5 S8 3.502464 1_555
Gd0 S5 2.812405 1_455
Gd0 S4 2.812405 1_555
Gd0 S12 2.838329 1_555
Gd0 S13 2.838329 1_455
Gd0 S11 3.053491 1_455
Gd0 S10 3.053491 1_555
Gd0 S8 3.098338 1_455
Gd0 S9 3.098338 1_565
Gd1 S7 2.812405 1_655
Gd1 S6 2.812405 1_555
Gd1 S14 2.838329 1_555
Gd1 S15 2.838329 1_655
Gd1 S9 3.053491 1_655
Gd1 S8 3.053491 1_555
Gd1 S10 3.098338 1_655
Gd1 S11 3.098338 1_545
As0 S0 2.157169 1_555
As0 S13 2.203231 1_555
As0 S6 2.203956 1_555
As0 S10 2.204881 1_655
As1 S1 2.157169 1_455
As1 S12 2.203231 1_555
As1 S7 2.203956 1_565
As1 S11 2.204881 1_455
As2 S2 2.157169 1_555
As2 S15 2.203231 1_555
As2 S4 2.203956 1_555
As2 S8 2.204881 1_455
As3 S3 2.157169 1_655
As3 S14 2.203231 1_555
As3 S5 2.203956 1_545
As3 S9 2.204881 1_655
