# generated using pymatgen
data_LiMg6V
_symmetry_space_group_name_H-M   'P 1'
_cell_length_a   6.23559745
_cell_length_b   6.23559697
_cell_length_c   5.07706700
_cell_angle_alpha   90.00000000
_cell_angle_beta   90.00000000
_cell_angle_gamma   120.21117700
_symmetry_Int_Tables_number   1
_chemical_formula_structural   LiMg6V
_chemical_formula_sum   'Li1 Mg6 V1'
_cell_volume   170.59705693
_cell_formula_units_Z   1
loop_
 _symmetry_equiv_pos_site_id
 _symmetry_equiv_pos_as_xyz
  1  'x, y, z'
loop_
 _atom_site_type_symbol
 _atom_site_label
 _atom_site_symmetry_multiplicity
 _atom_site_fract_x
 _atom_site_fract_y
 _atom_site_fract_z
 _atom_site_occupancy
  Li  Li0  1  0.32944718  0.17055282  0.75000000  1
  Mg  Mg0  1  0.17043068  0.83921108  0.25000000  1
  Mg  Mg1  1  0.66078892  0.32956932  0.25000000  1
  Mg  Mg2  1  0.66532819  0.83467181  0.25000000  1
  Mg  Mg3  1  0.32809358  0.65167423  0.75000000  1
  Mg  Mg4  1  0.84832577  0.17190642  0.75000000  1
  Mg  Mg5  1  0.83277161  0.66722839  0.75000000  1
  V  V0  1  0.16481407  0.33518593  0.25000000  1
loop_
_geom_bond_atom_site_label_1
_geom_bond_atom_site_label_2
_geom_bond_distance
_geom_bond_site_symmetry_2
Li0 Mg3 3.004335 1_555
Li0 Mg4 3.004335 1_455
Li0 V0 3.100404 1_556
Li0 V0 3.100404 1_555
Li0 Mg0 3.103938 1_546
Li0 Mg0 3.103938 1_545
Li0 Mg1 3.103938 1_556
Li0 Mg1 3.103938 1_555
Li0 Mg5 3.108049 1_445
Li0 Mg5 3.108049 1_555
Li0 Mg3 3.231279 1_545
Li0 Mg4 3.231279 1_555
Mg0 Mg1 3.047911 1_565
Mg0 Mg2 3.100321 1_555
Mg0 V0 3.110470 1_565
Mg0 Mg5 3.123301 1_455
Mg0 Mg5 3.123301 1_454
Mg0 V0 3.125421 1_555
Mg0 Mg2 3.135468 1_455
Mg0 Mg3 3.152013 1_554
Mg0 Mg3 3.152013 1_555
Mg0 Mg1 3.167772 1_455
Mg1 Mg2 3.100321 1_545
Mg1 V0 3.110470 1_555
Mg1 Mg5 3.123300 1_554
Mg1 Mg5 3.123300 1_555
Mg1 V0 3.125421 1_655
Mg1 Mg2 3.135468 1_555
Mg1 Mg4 3.152013 1_555
Mg1 Mg4 3.152013 1_554
Mg2 V0 3.107846 1_665
Mg2 V0 3.107846 1_555
Mg2 Mg5 3.117948 1_554
Mg2 Mg5 3.117948 1_555
Mg2 Mg4 3.123044 1_565
Mg2 Mg4 3.123044 1_564
Mg2 Mg3 3.123044 1_555
Mg2 Mg3 3.123044 1_554
Mg3 Mg4 2.982085 1_455
Mg3 V0 3.058322 1_556
Mg3 V0 3.058322 1_555
Mg3 Mg5 3.099299 1_555
Mg3 Mg5 3.138552 1_455
Mg3 Mg4 3.233598 1_565
Mg4 V0 3.058322 1_656
Mg4 V0 3.058322 1_655
Mg4 Mg5 3.099298 1_545
Mg4 Mg5 3.138552 1_555
