# generated using pymatgen
data_La7SmCo6(AgO10)2
_symmetry_space_group_name_H-M   'P 1'
_cell_length_a   10.79665142
_cell_length_b   11.42017003
_cell_length_c   18.06132794
_cell_angle_alpha   108.43412619
_cell_angle_beta   107.38796628
_cell_angle_gamma   90.16421722
_symmetry_Int_Tables_number   1
_chemical_formula_structural   La7SmCo6(AgO10)2
_chemical_formula_sum   'La28 Sm4 Co24 Ag8 O80'
_cell_volume   2004.44844564
_cell_formula_units_Z   4
loop_
 _symmetry_equiv_pos_site_id
 _symmetry_equiv_pos_as_xyz
  1  'x, y, z'
loop_
 _atom_site_type_symbol
 _atom_site_label
 _atom_site_symmetry_multiplicity
 _atom_site_fract_x
 _atom_site_fract_y
 _atom_site_fract_z
 _atom_site_occupancy
  La  La0  1  0.30596586  0.06390747  0.11206777  1
  La  La1  1  0.30975179  0.06240084  0.61328843  1
  La  La2  1  0.30960471  0.56230251  0.61313918  1
  La  La3  1  0.80691546  0.06286049  0.61144784  1
  La  La4  1  0.80839169  0.56495132  0.11104193  1
  La  La5  1  0.81109164  0.56520918  0.61370128  1
  La  La6  1  0.19745722  0.43443237  0.38735911  1
  La  La7  1  0.19535920  0.43561377  0.88789803  1
  La  La8  1  0.19592474  0.93497624  0.38636336  1
  La  La9  1  0.19552284  0.93653132  0.88739272  1
  La  La10  1  0.69861542  0.43580872  0.38848318  1
  La  La11  1  0.69711943  0.93450716  0.38627143  1
  La  La12  1  0.69550418  0.93678509  0.88773196  1
  La  La13  1  0.06075052  0.29877248  0.11383544  1
  La  La14  1  0.05924558  0.29804063  0.61270798  1
  La  La15  1  0.05842418  0.79903741  0.61273549  1
  La  La16  1  0.55923583  0.29684683  0.11216391  1
  La  La17  1  0.56056896  0.30178362  0.61605486  1
  La  La18  1  0.55865953  0.79849932  0.11270660  1
  La  La19  1  0.55796919  0.79899243  0.61221818  1
  La  La20  1  0.44739082  0.20274483  0.38930985  1
  La  La21  1  0.44763367  0.19970761  0.88656435  1
  La  La22  1  0.44503175  0.70122206  0.38399290  1
  La  La23  1  0.44639061  0.69782693  0.88634147  1
  La  La24  1  0.94599569  0.20154439  0.38514301  1
  La  La25  1  0.94381011  0.20219024  0.88846776  1
  La  La26  1  0.94584830  0.70212518  0.38766825  1
  La  La27  1  0.94621818  0.70009228  0.88632542  1
  Sm  Sm0  1  0.30735189  0.56802086  0.11002498  1
  Sm  Sm1  1  0.80900218  0.06743184  0.11108549  1
  Sm  Sm2  1  0.69522891  0.43641430  0.89081629  1
  Sm  Sm3  1  0.05967605  0.79378218  0.10926682  1
  Co  Co0  1  0.00684773  0.00031184  0.00227053  1
  Co  Co1  1  0.00718530  0.00085186  0.50134826  1
  Co  Co2  1  0.00820426  0.50153974  0.00405112  1
  Co  Co3  1  0.00472334  0.49827365  0.49553609  1
  Co  Co4  1  0.50905882  0.00138068  0.00443318  1
  Co  Co5  1  0.50369006  0.99780039  0.49479866  1
  Co  Co6  1  0.50831496  0.50123327  0.00351846  1
  Co  Co7  1  0.50675727  0.50015896  0.49858658  1
  Co  Co8  1  0.25604760  0.25047539  0.99911038  1
  Co  Co9  1  0.25493946  0.24747605  0.49705596  1
  Co  Co10  1  0.25926740  0.75326120  0.00515138  1
  Co  Co11  1  0.25450325  0.74747924  0.49627618  1
  Co  Co12  1  0.75934032  0.25314600  0.00545813  1
  Co  Co13  1  0.75475316  0.24758677  0.49678171  1
  Co  Co14  1  0.75982447  0.75257070  0.00253452  1
  Co  Co15  1  0.75538614  0.74973809  0.49911485  1
  Co  Co16  1  0.10744611  0.09475118  0.24777848  1
  Co  Co17  1  0.10892932  0.09956611  0.75034720  1
  Co  Co18  1  0.10411701  0.59717762  0.24864717  1
  Co  Co19  1  0.60390443  0.09623571  0.24921903  1
  Co  Co20  1  0.60819477  0.59713956  0.24845076  1
  Co  Co21  1  0.35947100  0.90329210  0.24852300  1
  Co  Co22  1  0.86230929  0.40383670  0.24913050  1
  Co  Co23  1  0.86699801  0.90050641  0.75056336  1
  Ag  Ag0  1  0.12707184  0.62023329  0.75029110  1
  Ag  Ag1  1  0.62313737  0.12221103  0.75054148  1
  Ag  Ag2  1  0.62498429  0.61791519  0.75072899  1
  Ag  Ag3  1  0.36900083  0.38402858  0.24968664  1
  Ag  Ag4  1  0.37719332  0.37727652  0.75064326  1
  Ag  Ag5  1  0.36737991  0.87891428  0.75043390  1
  Ag  Ag6  1  0.87376540  0.37946689  0.75057994  1
  Ag  Ag7  1  0.86837048  0.88446414  0.24882602  1
  O  O0  1  0.12286408  0.11996845  0.48333968  1
  O  O1  1  0.11924227  0.11632138  0.98338475  1
  O  O2  1  0.12034144  0.61726250  0.47738901  1
  O  O3  1  0.12400935  0.62321051  0.99342112  1
  O  O4  1  0.62092038  0.11599347  0.47746420  1
  O  O5  1  0.62503878  0.12079952  0.99099365  1
  O  O6  1  0.62327383  0.62235804  0.48212853  1
  O  O7  1  0.62347664  0.61580043  0.98598526  1
  O  O8  1  0.14253119  0.38877190  0.02284887  1
  O  O9  1  0.13477007  0.37447049  0.50851609  1
  O  O10  1  0.13603328  0.88295570  0.01985245  1
  O  O11  1  0.13965759  0.87838301  0.51675739  1
  O  O12  1  0.64009971  0.38571552  0.02101641  1
  O  O13  1  0.63914546  0.37711062  0.51535847  1
  O  O14  1  0.64501342  0.89049241  0.02561060  1
  O  O15  1  0.63557888  0.87547598  0.51022222  1
  O  O16  1  0.36801462  0.11373820  0.47819269  1
  O  O17  1  0.37311221  0.11168624  0.98273119  1
  O  O18  1  0.36828712  0.61463775  0.47709168  1
  O  O19  1  0.37533900  0.61547578  0.99253609  1
  O  O20  1  0.86965131  0.11412618  0.47994981  1
  O  O21  1  0.87387512  0.11413047  0.99063400  1
  O  O22  1  0.87000161  0.61850330  0.48321717  1
  O  O23  1  0.87189987  0.60888381  0.98253158  1
  O  O24  1  0.38879742  0.39085620  0.01862047  1
  O  O25  1  0.38492932  0.38002146  0.51258192  1
  O  O26  1  0.39303112  0.89019244  0.02304651  1
  O  O27  1  0.38320235  0.88054809  0.50932753  1
  O  O28  1  0.89229577  0.38989030  0.02147741  1
  O  O29  1  0.88311925  0.38134005  0.50972659  1
  O  O30  1  0.89408162  0.89232704  0.02343847  1
  O  O31  1  0.88575388  0.88196479  0.51575980  1
  O  O32  1  0.09001467  0.10887086  0.13885066  1
  O  O33  1  0.08141984  0.10163858  0.63559012  1
  O  O34  1  0.09223062  0.61138173  0.14074619  1
  O  O35  1  0.07877223  0.59791513  0.62042161  1
  O  O36  1  0.59372198  0.10874056  0.14140177  1
  O  O37  1  0.58081750  0.09697152  0.62055785  1
  O  O38  1  0.58802687  0.60631839  0.13816174  1
  O  O39  1  0.57572211  0.59647246  0.61959209  1
  O  O40  1  0.45869183  0.40190135  0.37683705  1
  O  O41  1  0.46395358  0.40267215  0.87933419  1
  O  O42  1  0.44395836  0.89631332  0.36070694  1
  O  O43  1  0.46316797  0.89803714  0.87820192  1
  O  O44  1  0.94417128  0.39725830  0.36174115  1
  O  O45  1  0.96024676  0.39917944  0.87902087  1
  O  O46  1  0.95890489  0.89920044  0.37574927  1
  O  O47  1  0.95063230  0.89610130  0.86472240  1
  O  O48  1  0.33378921  0.27122182  0.12370271  1
  O  O49  1  0.32893990  0.27338829  0.62151097  1
  O  O50  1  0.33192372  0.78227014  0.13716662  1
  O  O51  1  0.33480858  0.77183199  0.62232037  1
  O  O52  1  0.83483756  0.28208449  0.13791860  1
  O  O53  1  0.83024105  0.27033112  0.62219780  1
  O  O54  1  0.84150520  0.77280644  0.12301382  1
  O  O55  1  0.83693892  0.78328653  0.63628466  1
  O  O56  1  0.19728805  0.21378851  0.35958003  1
  O  O57  1  0.19665011  0.21750259  0.86497123  1
  O  O58  1  0.19516138  0.71838214  0.35844849  1
  O  O59  1  0.20845641  0.72738274  0.88044744  1
  O  O60  1  0.69585262  0.21764757  0.35875477  1
  O  O61  1  0.71003073  0.23012602  0.88018582  1
  O  O62  1  0.69897694  0.71642488  0.35985550  1
  O  O63  1  0.70777523  0.72976573  0.88184214  1
  O  O64  1  0.41494901  0.07312072  0.24983484  1
  O  O65  1  0.39093360  0.09324479  0.75020385  1
  O  O66  1  0.41956423  0.59344234  0.24472923  1
  O  O67  1  0.39465271  0.59333439  0.74985258  1
  O  O68  1  0.91963139  0.09431352  0.24583408  1
  O  O69  1  0.91812306  0.07361236  0.75047411  1
  O  O70  1  0.91550977  0.57337620  0.24926472  1
  O  O71  1  0.89117106  0.59522323  0.74998316  1
  O  O72  1  0.14181042  0.42838296  0.25042500  1
  O  O73  1  0.14462006  0.40270847  0.75048930  1
  O  O74  1  0.16704301  0.92447217  0.24380995  1
  O  O75  1  0.13889573  0.92798924  0.75037349  1
  O  O76  1  0.67318637  0.43073150  0.25022603  1
  O  O77  1  0.64377221  0.40619535  0.75555018  1
  O  O78  1  0.64134067  0.92695526  0.24982134  1
  O  O79  1  0.67900727  0.90661075  0.75010765  1
loop_
_geom_bond_atom_site_label_1
_geom_bond_atom_site_label_2
_geom_bond_distance
_geom_bond_site_symmetry_2
La0 O48 2.320196 1_555
La0 O64 2.381348 1_555
La0 O26 2.510221 1_545
La0 O10 2.527004 1_545
La0 O32 2.541193 1_555
La0 O1 2.812587 1_554
La0 O17 2.845371 1_554
La0 O36 3.005096 1_555
La1 O65 2.271415 1_555
La1 O49 2.371322 1_555
La1 O11 2.564305 1_545
La1 O27 2.626941 1_545
La1 O33 2.631734 1_555
La1 O0 2.857478 1_555
La1 O37 2.910162 1_555
La1 O16 2.917708 1_555
La2 O67 2.270551 1_555
La2 O51 2.354929 1_555
La2 O35 2.561593 1_555
La2 O25 2.606683 1_555
La2 O9 2.648889 1_555
La2 O39 2.861062 1_555
La2 O2 2.926959 1_555
La2 O18 2.941693 1_555
La3 O53 2.321930 1_555
La3 O69 2.400839 1_555
La3 O37 2.518487 1_555
La3 O31 2.571089 1_545
La3 O15 2.612583 1_545
La3 O33 2.875396 1_655
La3 O20 2.877658 1_555
La3 O4 2.878884 1_555
La4 O54 2.330996 1_555
La4 O70 2.387687 1_555
La4 O12 2.498622 1_555
La4 O28 2.505046 1_555
La4 O38 2.584633 1_555
La4 O7 2.750590 1_554
La4 O23 2.791941 1_554
La4 O34 2.964513 1_655
La5 O71 2.261953 1_555
La5 O55 2.394219 1_555
La5 O39 2.596012 1_555
La5 O13 2.609405 1_555
La5 O29 2.632284 1_555
La5 O22 2.851294 1_555
La5 O35 2.874393 1_655
La5 O6 2.879833 1_555
La6 O72 2.342246 1_555
La6 O56 2.408518 1_555
La6 O18 2.519122 1_555
La6 O2 2.523643 1_555
La6 O44 2.642999 1_455
La6 O9 2.746936 1_555
La6 O25 2.785346 1_555
La6 O40 2.900145 1_555
La7 O73 2.279692 1_555
La7 O57 2.393202 1_555
La7 O45 2.520109 1_455
La7 O19 2.625631 1_555
La7 O3 2.668392 1_555
La7 O24 2.831899 1_556
La7 O8 2.864630 1_556
La7 O41 2.968590 1_555
La8 O58 2.362491 1_555
La8 O74 2.462789 1_555
La8 O16 2.523042 1_565
La8 O46 2.530519 1_455
La8 O0 2.578454 1_565
La8 O27 2.757429 1_555
La8 O11 2.854590 1_555
La8 O42 2.863575 1_555
La9 O75 2.334602 1_555
La9 O59 2.358627 1_555
La9 O17 2.543416 1_565
La9 O1 2.551804 1_565
La9 O47 2.568648 1_455
La9 O10 2.890041 1_556
La9 O26 2.921306 1_556
La10 O60 2.374958 1_555
La10 O76 2.410989 1_555
La10 O40 2.553682 1_555
La10 O22 2.555879 1_555
La10 O6 2.571863 1_555
La10 O29 2.722458 1_555
La10 O13 2.821554 1_555
La10 O44 2.844893 1_555
La11 O78 2.328508 1_555
La11 O62 2.384392 1_555
La11 O4 2.519137 1_565
La11 O20 2.537673 1_565
La11 O42 2.643072 1_555
La11 O15 2.783655 1_555
La11 O31 2.832885 1_555
La11 O46 2.909704 1_555
La12 O63 2.338687 1_555
La12 O79 2.349977 1_555
La12 O43 2.491021 1_555
La12 O21 2.592818 1_565
La12 O5 2.617614 1_565
La12 O14 2.901799 1_556
La12 O30 2.917954 1_556
La12 O47 2.923255 1_555
La13 O72 2.331454 1_555
La13 O32 2.354898 1_555
La13 O8 2.542989 1_555
La13 O28 2.543339 1_455
La13 O52 2.618896 1_455
La13 O21 2.791680 1_454
La13 O1 2.843177 1_554
La13 O48 2.923640 1_555
La14 O73 2.283123 1_555
La14 O33 2.406055 1_555
La14 O53 2.554562 1_455
La14 O9 2.630576 1_555
La14 O29 2.644980 1_455
La14 O0 2.833556 1_555
La14 O20 2.864913 1_455
La14 O49 2.887802 1_555
La15 O75 2.343054 1_555
La15 O35 2.351462 1_555
La15 O11 2.548105 1_555
La15 O31 2.558852 1_455
La15 O55 2.566201 1_455
La15 O22 2.818324 1_455
La15 O2 2.916737 1_555
La16 O36 2.374192 1_555
La16 O76 2.411177 1_555
La16 O48 2.528129 1_555
La16 O12 2.532382 1_555
La16 O24 2.587196 1_555
La16 O5 2.736996 1_554
La16 O17 2.831280 1_554
La16 O52 2.885144 1_555
La17 O77 2.306016 1_555
La17 O37 2.374424 1_555
La17 O49 2.555742 1_555
La17 O13 2.583584 1_555
La17 O25 2.614302 1_555
La17 O53 2.908025 1_555
La17 O16 2.938117 1_555
La17 O4 2.969174 1_555
La18 O78 2.335695 1_555
La18 O38 2.384071 1_555
La18 O26 2.503812 1_555
La18 O14 2.522624 1_555
La18 O50 2.630156 1_555
La18 O19 2.745304 1_554
La18 O7 2.833196 1_554
La18 O54 3.024278 1_555
La19 O79 2.351703 1_555
La19 O39 2.363401 1_555
La19 O51 2.495777 1_555
La19 O15 2.606662 1_555
La19 O27 2.624921 1_555
La19 O6 2.843875 1_555
La19 O18 2.884675 1_555
La19 O55 2.926227 1_555
La20 O40 2.361654 1_555
La20 O64 2.402336 1_555
La20 O16 2.488784 1_555
La20 O4 2.500411 1_555
La20 O56 2.602669 1_555
La20 O25 2.750482 1_555
La20 O13 2.779682 1_555
La20 O60 2.910536 1_555
La21 O65 2.262631 1_555
La21 O41 2.371402 1_555
La21 O17 2.570885 1_555
La21 O57 2.637795 1_555
La21 O5 2.638908 1_555
La21 O61 2.893895 1_555
La21 O12 2.902383 1_556
La21 O24 2.911743 1_556
La22 O66 2.354572 1_555
La22 O42 2.393895 1_555
La22 O18 2.524131 1_555
La22 O6 2.576238 1_555
La22 O58 2.616390 1_555
La22 O15 2.773847 1_555
La22 O27 2.782654 1_555
La22 O62 2.914956 1_555
La23 O67 2.264028 1_555
La23 O43 2.346983 1_555
La23 O59 2.566850 1_555
La23 O7 2.606114 1_555
La23 O19 2.677271 1_555
La23 O63 2.872923 1_555
La23 O26 2.946418 1_556
La23 O14 3.002642 1_556
La23 O41 3.340947 1_555
La24 O68 2.352177 1_555
La24 O44 2.401537 1_555
La24 O20 2.555025 1_555
La24 O0 2.586673 1_655
La24 O60 2.616057 1_555
La24 O9 2.738388 1_655
La24 O29 2.781911 1_555
La24 O56 2.895006 1_655
La25 O45 2.319503 1_555
La25 O69 2.390584 1_555
La25 O61 2.510786 1_555
La25 O1 2.573176 1_655
La25 O21 2.643564 1_555
La25 O28 2.867769 1_556
La25 O57 2.898141 1_655
La25 O8 2.936852 1_656
La26 O46 2.335443 1_555
La26 O70 2.387743 1_555
La26 O2 2.508676 1_655
La26 O22 2.538339 1_555
La26 O62 2.576318 1_555
La26 O31 2.809123 1_555
La26 O11 2.821021 1_655
La26 O58 2.909747 1_655
La27 O71 2.259998 1_555
La27 O47 2.393337 1_555
La27 O63 2.578103 1_555
La27 O23 2.592537 1_555
La27 O3 2.657366 1_655
La27 O10 2.865929 1_656
La27 O59 2.884468 1_655
La27 O30 2.944682 1_556
Co0 O30 1.927962 1_445
Co0 O21 1.948838 1_454
Co0 O10 1.964074 1_545
Co0 O1 1.966748 1_554
Co0 O32 2.272462 1_555
Co0 O47 2.276251 1_444
Co1 O20 2.002984 1_455
Co1 O0 2.007246 1_555
Co1 O31 2.011777 1_445
Co1 O11 2.024585 1_545
Co1 O46 2.095162 1_445
Co1 O33 2.216786 1_555
Co2 O28 1.941895 1_455
Co2 O23 1.946632 1_454
Co2 O3 1.957823 1_554
Co2 O8 1.967236 1_555
Co2 O45 2.088618 1_454
Co2 O34 2.277755 1_555
Co3 O29 1.995060 1_455
Co3 O2 2.007155 1_555
Co3 O9 2.012367 1_555
Co3 O22 2.015360 1_455
Co3 O35 2.077376 1_555
Co3 O44 2.210471 1_455
Co4 O26 1.951211 1_545
Co4 O5 1.966737 1_554
Co4 O17 1.968212 1_554
Co4 O14 1.971293 1_545
Co4 O43 2.110952 1_544
Co4 O36 2.276506 1_555
Co5 O27 1.992586 1_555
Co5 O16 1.997108 1_565
Co5 O4 2.004054 1_565
Co5 O15 2.019208 1_555
Co5 O37 2.091050 1_565
Co5 O42 2.216230 1_555
Co6 O24 1.935694 1_555
Co6 O19 1.951134 1_554
Co6 O7 1.961151 1_554
Co6 O12 1.967330 1_555
Co6 O41 2.070095 1_554
Co6 O38 2.234328 1_555
Co7 O39 2.010754 1_555
Co7 O18 2.019974 1_555
Co7 O25 2.020906 1_555
Co7 O6 2.023412 1_555
Co7 O40 2.029282 1_555
Co7 O13 2.032589 1_555
Co8 O1 2.017578 1_555
Co8 O24 2.018972 1_556
Co8 O8 2.019216 1_556
Co8 O17 2.033618 1_555
Co8 O48 2.087412 1_556
Co8 O57 2.217144 1_555
Co9 O0 1.940099 1_555
Co9 O9 1.952170 1_555
Co9 O25 1.955438 1_555
Co9 O16 1.967074 1_555
Co9 O49 2.069587 1_555
Co9 O56 2.274091 1_555
Co10 O3 1.996731 1_554
Co10 O10 2.002063 1_555
Co10 O26 2.005992 1_555
Co10 O19 2.013359 1_554
Co10 O59 2.073846 1_554
Co10 O50 2.188920 1_555
Co11 O2 1.948711 1_555
Co11 O11 1.960663 1_555
Co11 O27 1.965020 1_555
Co11 O18 1.965553 1_555
Co11 O51 2.104793 1_555
Co11 O58 2.289141 1_555
Co12 O5 1.991600 1_554
Co12 O12 1.996695 1_555
Co12 O28 2.009028 1_555
Co12 O21 2.015335 1_554
Co12 O61 2.091628 1_554
Co12 O52 2.197763 1_555
Co13 O13 1.950774 1_555
Co13 O4 1.955171 1_555
Co13 O29 1.969010 1_555
Co13 O20 1.974212 1_555
Co13 O53 2.094287 1_555
Co13 O60 2.290911 1_555
Co14 O63 2.010821 1_554
Co14 O30 2.017318 1_555
Co14 O14 2.023849 1_555
Co14 O54 2.024852 1_555
Co14 O7 2.030923 1_554
Co14 O23 2.045753 1_554
Co15 O6 1.920709 1_555
Co15 O15 1.938798 1_555
Co15 O31 1.949255 1_555
Co15 O22 1.952121 1_555
Co15 O55 2.270221 1_555
Co15 O62 2.306488 1_555
Co16 O32 1.977755 1_555
Co16 O56 1.988000 1_555
Co16 O68 2.017518 1_455
Co16 O74 2.036487 1_545
Co17 O75 1.987008 1_545
Co17 O33 2.011926 1_555
Co17 O57 2.013543 1_555
Co17 O69 2.081223 1_455
Co18 O34 1.972640 1_555
Co18 O58 1.976396 1_555
Co18 O72 1.979487 1_555
Co18 O70 2.057414 1_455
Co19 O36 1.967881 1_555
Co19 O60 1.976210 1_555
Co19 O78 1.978874 1_545
Co19 O64 2.060119 1_555
Co20 O38 1.974659 1_555
Co20 O62 1.986245 1_555
Co20 O66 2.017386 1_555
Co20 O76 2.034130 1_555
Co21 O50 1.981384 1_555
Co21 O42 1.985385 1_555
Co21 O64 2.019079 1_565
Co21 O74 2.071783 1_555
Co22 O52 1.982714 1_555
Co22 O44 1.986493 1_555
Co22 O70 2.017053 1_555
Co22 O76 2.070739 1_555
Co23 O55 2.001820 1_555
Co23 O47 2.005559 1_555
Co23 O79 2.028714 1_555
Co23 O69 2.051611 1_565
Ag0 O35 2.174600 1_555
Ag0 O59 2.176169 1_555
Ag0 O73 2.492976 1_555
Ag0 O71 2.560247 1_455
Ag1 O37 2.175684 1_555
Ag1 O61 2.176515 1_555
Ag1 O65 2.525760 1_555
Ag1 O79 2.534847 1_545
Ag2 O39 2.198227 1_555
Ag2 O63 2.203116 1_555
Ag2 O77 2.453622 1_555
Ag2 O67 2.496585 1_555
Ag3 O48 2.146641 1_555
Ag3 O40 2.150952 1_555
Ag3 O66 2.486496 1_555
Ag3 O72 2.509154 1_555
Ag4 O41 2.152878 1_555
Ag4 O49 2.153807 1_555
Ag4 O67 2.478934 1_555
Ag4 O73 2.527857 1_555
Ag5 O51 2.166776 1_555
Ag5 O43 2.167054 1_555
Ag5 O65 2.461579 1_565
Ag5 O75 2.531051 1_555
Ag6 O53 2.160674 1_555
Ag6 O45 2.162857 1_555
Ag6 O71 2.474258 1_555
Ag6 O77 2.527359 1_555
Ag7 O54 2.155247 1_555
Ag7 O46 2.157474 1_555
Ag7 O68 2.478847 1_565
Ag7 O78 2.504322 1_555
O3 Sm3 2.636959 1_556
O3 Sm0 2.665693 1_556
O5 Sm1 2.699844 1_556
O7 Sm2 2.515849 1_555
O8 Sm0 2.470282 1_555
O10 Sm3 2.481086 1_555
O12 Sm2 2.813385 1_554
O14 Sm1 2.444213 1_565
O19 Sm0 2.644124 1_556
O21 Sm1 2.673982 1_556
O23 Sm2 2.507663 1_555
O23 Sm3 2.820198 1_656
O24 Sm0 2.521436 1_555
O28 Sm2 2.859522 1_554
O30 Sm1 2.495245 1_565
O30 Sm3 2.514835 1_655
O32 Sm1 2.934771 1_455
O34 Sm3 2.328011 1_555
O34 Sm0 2.559410 1_555
O36 Sm1 2.555061 1_555
O38 Sm0 2.926428 1_555
O41 Sm2 2.461899 1_555
O45 Sm2 2.954198 1_555
O50 Sm0 2.336093 1_555
O50 Sm3 2.840759 1_555
O52 Sm1 2.342185 1_555
O54 Sm3 2.459962 1_655
O61 Sm2 2.312327 1_555
O66 Sm0 2.293651 1_555
O68 Sm1 2.287347 1_555
O74 Sm3 2.342888 1_555
O77 Sm2 2.247416 1_555
