# generated using pymatgen
data_ErAlPd
_symmetry_space_group_name_H-M   'P 1'
_cell_length_a   4.01900379
_cell_length_b   7.06732408
_cell_length_c   7.06726717
_cell_angle_alpha   120.00072351
_cell_angle_beta   90.00000000
_cell_angle_gamma   90.00000000
_symmetry_Int_Tables_number   1
_chemical_formula_structural   ErAlPd
_chemical_formula_sum   'Er3 Al3 Pd3'
_cell_volume   173.84107458
_cell_formula_units_Z   3
loop_
 _symmetry_equiv_pos_site_id
 _symmetry_equiv_pos_as_xyz
  1  'x, y, z'
loop_
 _atom_site_type_symbol
 _atom_site_label
 _atom_site_symmetry_multiplicity
 _atom_site_fract_x
 _atom_site_fract_y
 _atom_site_fract_z
 _atom_site_occupancy
  Er  Er0  1  0.50000000  0.58360486  -0.00000164  1
  Er  Er1  1  0.50000000  0.41637394  0.41638833  1
  Er  Er2  1  0.50000000  0.99998542  0.58361002  1
  Al  Al0  1  -0.00000000  0.23694471  0.00001095  1
  Al  Al1  1  -0.00000000  0.76305403  0.76306824  1
  Al  Al2  1  -0.00000000  0.99998660  0.23693077  1
  Pd  Pd0  1  -0.00000000  0.33331384  0.66666595  1
  Pd  Pd1  1  -0.00000000  0.66664751  0.33333245  1
  Pd  Pd2  1  0.50000000  -0.00001290  0.99999793  1
loop_
_geom_bond_atom_site_label_1
_geom_bond_atom_site_label_2
_geom_bond_distance
_geom_bond_site_symmetry_2
Er0 Pd0 2.923948 1_554
Er0 Pd0 2.923948 1_654
Er0 Pd1 2.923961 1_555
Er0 Pd1 2.923961 1_655
Er0 Pd2 2.942710 1_564
Er1 Pd1 2.923939 1_555
Er1 Pd1 2.923939 1_655
Er1 Pd0 2.923966 1_655
Er1 Pd0 2.923966 1_555
Er1 Pd2 2.942709 1_554
Er2 Pd0 2.923928 1_565
Er2 Pd0 2.923928 1_665
Er2 Pd1 2.923955 1_655
Er2 Pd1 2.923955 1_555
Er2 Pd2 2.942719 1_565
Al0 Pd2 2.615801 1_554
Al0 Pd2 2.615801 1_454
Al0 Pd1 2.760012 1_555
Al0 Pd0 2.760138 1_554
Al0 Er0 3.168693 1_555
Al0 Er0 3.168693 1_455
Al0 Er1 3.251725 1_455
Al0 Er1 3.251725 1_555
Al0 Er2 3.251835 1_444
Al0 Er2 3.251835 1_544
Al1 Pd2 2.615696 1_565
Al1 Pd2 2.615696 1_465
Al1 Pd1 2.760188 1_555
Al1 Pd0 2.760253 1_555
Al1 Er1 3.168739 1_555
Al1 Er1 3.168739 1_455
Al1 Er0 3.251753 1_456
Al1 Er0 3.251753 1_556
Al1 Er2 3.251803 1_555
Al1 Er2 3.251803 1_455
Al2 Pd2 2.615711 1_464
Al2 Pd2 2.615711 1_564
Al2 Pd0 2.760168 1_565
Al2 Pd1 2.760267 1_555
Al2 Er2 3.168751 1_555
Al2 Er2 3.168751 1_455
Al2 Er0 3.251750 1_555
Al2 Er0 3.251750 1_455
Al2 Er1 3.251780 1_565
Al2 Er1 3.251780 1_465
