# generated using pymatgen
data_Mn3O4
_symmetry_space_group_name_H-M   'P 1'
_cell_length_a   5.74281801
_cell_length_b   6.22544741
_cell_length_c   5.75147596
_cell_angle_alpha   62.36716679
_cell_angle_beta   89.96554983
_cell_angle_gamma   62.50438052
_symmetry_Int_Tables_number   1
_chemical_formula_structural   Mn3O4
_chemical_formula_sum   'Mn6 O8'
_cell_volume   155.51442379
_cell_formula_units_Z   2
loop_
 _symmetry_equiv_pos_site_id
 _symmetry_equiv_pos_as_xyz
  1  'x, y, z'
loop_
 _atom_site_type_symbol
 _atom_site_label
 _atom_site_symmetry_multiplicity
 _atom_site_fract_x
 _atom_site_fract_y
 _atom_site_fract_z
 _atom_site_occupancy
  Mn  Mn0  1  0.12589274  0.24848891  0.37461294  1
  Mn  Mn1  1  0.87410726  0.75151109  0.62538706  1
  Mn  Mn2  1  0.50000000  0.50000000  0.50000000  1
  Mn  Mn3  1  0.00000000  -0.00000000  -0.00000000  1
  Mn  Mn4  1  0.50000000  -0.00000000  -0.00000000  1
  Mn  Mn5  1  0.50000000  0.50000000  -0.00000000  1
  O  O0  1  0.26892734  0.51426221  0.24170808  1
  O  O1  1  0.25783477  0.98403140  0.22966539  1
  O  O2  1  0.74248240  0.01471032  0.21706797  1
  O  O3  1  0.74216523  0.01596860  0.77033461  1
  O  O4  1  0.28312545  0.48586932  0.75854343  1
  O  O5  1  0.73107266  0.48573779  0.75829192  1
  O  O6  1  0.71687455  0.51413068  0.24145657  1
  O  O7  1  0.25751760  0.98528968  0.78293203  1
loop_
_geom_bond_atom_site_label_1
_geom_bond_atom_site_label_2
_geom_bond_distance
_geom_bond_site_symmetry_2
Mn0 O7 2.015042 1_545
Mn0 O0 2.019305 1_555
Mn0 O6 2.019735 1_455
Mn0 O1 2.024888 1_545
Mn1 O2 2.015042 1_565
Mn1 O5 2.019305 1_555
Mn1 O4 2.019735 1_655
Mn1 O3 2.024888 1_565
Mn2 O0 1.935703 1_555
Mn2 O5 1.935703 1_555
Mn2 O6 1.935904 1_555
Mn2 O4 1.935904 1_555
Mn2 O3 2.284452 1_555
Mn2 O1 2.284452 1_555
Mn3 O3 1.921404 1_454
Mn3 O1 1.921404 1_545
Mn3 O7 1.932071 1_544
Mn3 O2 1.932071 1_455
Mn3 O0 2.291898 1_545
Mn3 O5 2.291898 1_454
Mn4 O3 1.921566 1_554
Mn4 O1 1.921566 1_545
Mn4 O7 1.931861 1_544
Mn4 O2 1.931861 1_555
Mn4 O4 2.292592 1_554
Mn4 O6 2.292592 1_545
Mn5 O4 1.924599 1_554
Mn5 O6 1.924599 1_555
Mn5 O0 1.924815 1_555
Mn5 O5 1.924815 1_554
Mn5 O2 2.289947 1_555
Mn5 O7 2.289947 1_554
