# generated using pymatgen
data_LaAlSi
_symmetry_space_group_name_H-M   'P 1'
_cell_length_a   7.93938939
_cell_length_b   7.93938939
_cell_length_c   7.93938939
_cell_angle_alpha   148.32290474
_cell_angle_beta   148.32290474
_cell_angle_gamma   45.40891860
_symmetry_Int_Tables_number   1
_chemical_formula_structural   LaAlSi
_chemical_formula_sum   'La2 Al2 Si2'
_cell_volume   137.55811504
_cell_formula_units_Z   2
loop_
 _symmetry_equiv_pos_site_id
 _symmetry_equiv_pos_as_xyz
  1  'x, y, z'
loop_
 _atom_site_type_symbol
 _atom_site_label
 _atom_site_symmetry_multiplicity
 _atom_site_fract_x
 _atom_site_fract_y
 _atom_site_fract_z
 _atom_site_occupancy
  La  La0  1  0.62502555  0.12502555  0.50000000  1
  La  La1  1  0.87502555  0.87502555  0.00000000  1
  Al  Al0  1  0.45826459  0.45826459  -0.00000000  1
  Al  Al1  1  0.20826459  0.70826459  0.50000000  1
  Si  Si0  1  0.04170886  0.54170886  0.50000000  1
  Si  Si1  1  0.29170886  0.29170886  -0.00000000  1
loop_
_geom_bond_atom_site_label_1
_geom_bond_atom_site_label_2
_geom_bond_distance
_geom_bond_site_symmetry_2
La0 Si1 3.264491 1_656
La0 Si1 3.264491 1_555
La0 Si0 3.298517 1_555
La0 Si0 3.298517 1_544
La0 Si0 3.298517 1_656
La0 Si0 3.298517 1_645
La1 Si0 3.264491 1_654
La1 Si0 3.264491 1_665
La1 Si1 3.298517 1_655
La1 Si1 3.298517 1_554
La1 Si1 3.298517 1_666
La1 Si1 3.298517 1_565
Al0 Si1 2.439759 1_555
Al0 Si0 2.487854 1_655
Al0 Si0 2.487854 1_554
Al0 La0 3.265342 1_565
Al0 La0 3.265342 1_554
Al0 La1 3.298096 1_556
Al0 La1 3.298096 1_455
Al0 La1 3.298096 1_545
Al0 La1 3.298096 1_444
Al1 Si0 2.439759 1_555
Al1 Si1 2.487854 1_555
Al1 Si1 2.487854 1_566
Al1 La1 3.265342 1_556
Al1 La1 3.265342 1_455
Al1 La0 3.298096 1_454
Al1 La0 3.298096 1_555
Al1 La0 3.298096 1_465
Al1 La0 3.298096 1_566
