# generated using pymatgen
data_TbNi3
_symmetry_space_group_name_H-M   'P 1'
_cell_length_a   4.95675770
_cell_length_b   4.95675770
_cell_length_c   8.60425718
_cell_angle_alpha   73.25928679
_cell_angle_beta   73.25928679
_cell_angle_gamma   60.00000403
_symmetry_Int_Tables_number   1
_chemical_formula_structural   TbNi3
_chemical_formula_sum   'Tb3 Ni9'
_cell_volume   172.65621946
_cell_formula_units_Z   3
loop_
 _symmetry_equiv_pos_site_id
 _symmetry_equiv_pos_as_xyz
  1  'x, y, z'
loop_
 _atom_site_type_symbol
 _atom_site_label
 _atom_site_symmetry_multiplicity
 _atom_site_fract_x
 _atom_site_fract_y
 _atom_site_fract_z
 _atom_site_occupancy
  Tb  Tb0  1  0.13883500  0.13883500  0.58349600  1
  Tb  Tb1  1  0.86116500  0.86116500  0.41650400  1
  Tb  Tb2  1  0.00000000  0.00000000  0.00000000  1
  Ni  Ni0  1  0.08000000  0.58272700  0.75454500  1
  Ni  Ni1  1  0.58272700  0.58272700  0.75454500  1
  Ni  Ni2  1  0.58272700  0.08000000  0.75454500  1
  Ni  Ni3  1  0.92000000  0.41727300  0.24545500  1
  Ni  Ni4  1  0.41727300  0.41727300  0.24545500  1
  Ni  Ni5  1  0.41727300  0.92000000  0.24545500  1
  Ni  Ni6  1  0.33292700  0.33292700  0.00121800  1
  Ni  Ni7  1  0.66707300  0.66707300  0.99878200  1
  Ni  Ni8  1  0.50000000  0.50000000  0.50000000  1
loop_
_geom_bond_atom_site_label_1
_geom_bond_atom_site_label_2
_geom_bond_distance
_geom_bond_site_symmetry_2
Ni0 Ni7 2.439845 1_455
Ni0 Ni1 2.464862 1_455
Ni0 Ni2 2.464862 1_465
Ni0 Ni6 2.465007 1_556
Ni0 Ni1 2.491896 1_555
Ni0 Ni2 2.491896 1_555
Ni0 Ni8 2.517152 1_555
Ni0 Tb0 2.840569 1_555
Ni0 Tb0 2.840577 1_565
Ni0 Tb1 3.090182 1_455
Ni0 Tb2 3.179521 1_556
Ni0 Tb2 3.179525 1_566
Ni1 Ni7 2.439851 1_555
Ni1 Ni2 2.464862 1_565
Ni1 Ni6 2.465007 1_556
Ni1 Ni2 2.491896 1_555
Ni1 Ni8 2.517150 1_555
Ni1 Tb0 2.840573 1_565
Ni1 Tb0 2.840573 1_655
Ni1 Tb1 3.090181 1_555
Ni1 Tb2 3.179523 1_656
Ni1 Tb2 3.179523 1_566
Ni2 Ni7 2.439845 1_545
Ni2 Ni6 2.465007 1_556
Ni2 Ni8 2.517152 1_555
Ni2 Tb0 2.840569 1_555
Ni2 Tb0 2.840577 1_655
Ni2 Tb1 3.090182 1_545
Ni2 Tb2 3.179521 1_556
Ni2 Tb2 3.179525 1_656
Ni3 Ni6 2.439845 1_655
Ni3 Ni4 2.464862 1_655
Ni3 Ni5 2.464862 1_645
Ni3 Ni7 2.465007 1_554
Ni3 Ni4 2.491896 1_555
Ni3 Ni5 2.491896 1_555
Ni3 Ni8 2.517152 1_555
Ni3 Tb1 2.840569 1_555
Ni3 Tb1 2.840577 1_545
Ni3 Tb0 3.090182 1_655
Ni3 Tb2 3.179521 1_665
Ni3 Tb2 3.179525 1_655
Ni4 Ni6 2.439851 1_555
Ni4 Ni5 2.464862 1_545
Ni4 Ni7 2.465007 1_554
Ni4 Ni5 2.491896 1_555
Ni4 Ni8 2.517150 1_555
Ni4 Tb1 2.840573 1_545
Ni4 Tb1 2.840573 1_455
Ni4 Tb0 3.090181 1_555
Ni4 Tb2 3.179523 1_565
Ni4 Tb2 3.179523 1_655
Ni5 Ni6 2.439845 1_565
Ni5 Ni7 2.465007 1_554
Ni5 Ni8 2.517152 1_555
Ni5 Tb1 2.840569 1_555
Ni5 Tb1 2.840577 1_455
Ni5 Tb0 3.090182 1_565
Ni5 Tb2 3.179521 1_665
Ni5 Tb2 3.179525 1_565
Ni6 Tb2 2.861800 1_555
Ni6 Tb2 2.861804 1_655
Ni6 Tb2 2.861804 1_565
Ni7 Tb2 2.861800 1_666
Ni7 Tb2 2.861804 1_656
Ni7 Tb2 2.861804 1_566
Ni8 Tb1 2.940890 1_555
Ni8 Tb0 2.940890 1_555
Ni8 Tb1 2.940894 1_455
Ni8 Tb0 2.940894 1_565
Ni8 Tb0 2.940894 1_655
Ni8 Tb1 2.940894 1_545
