# generated using pymatgen
data_Pb5W3O9F10
_symmetry_space_group_name_H-M   'P 1'
_cell_length_a   7.58210875
_cell_length_b   11.37257513
_cell_length_c   11.26621330
_cell_angle_alpha   95.97268028
_cell_angle_beta   109.13019576
_cell_angle_gamma   71.15455410
_symmetry_Int_Tables_number   1
_chemical_formula_structural   Pb5W3O9F10
_chemical_formula_sum   'Pb10 W6 O18 F20'
_cell_volume   868.61353714
_cell_formula_units_Z   2
loop_
 _symmetry_equiv_pos_site_id
 _symmetry_equiv_pos_as_xyz
  1  'x, y, z'
loop_
 _atom_site_type_symbol
 _atom_site_label
 _atom_site_symmetry_multiplicity
 _atom_site_fract_x
 _atom_site_fract_y
 _atom_site_fract_z
 _atom_site_occupancy
  Pb  Pb0  1  0.39955700  0.33701200  0.17067600  1
  Pb  Pb1  1  0.55172400  0.68786800  0.85029000  1
  Pb  Pb2  1  0.22515700  0.16048600  0.67236300  1
  Pb  Pb3  1  0.71387300  0.83948400  0.31095300  1
  Pb  Pb4  1  0.26637600  0.49560100  0.50448200  1
  Pb  Pb5  1  0.76426300  0.49879000  0.50765000  1
  Pb  Pb6  1  0.23139700  0.71983200  0.16226500  1
  Pb  Pb7  1  0.76595000  0.28926200  0.83427400  1
  Pb  Pb8  1  0.05834300  0.16732500  0.28279400  1
  Pb  Pb9  1  0.92825700  0.83695700  0.70973700  1
  W  W0  1  0.17769700  0.46105300  0.82357200  1
  W  W1  1  0.81953100  0.53826200  0.18240500  1
  W  W2  1  0.35658500  0.81898100  0.53842200  1
  W  W3  1  0.63609500  0.17626400  0.45793200  1
  W  W4  1  0.74737600  0.00449300  0.99693000  1
  W  W5  1  0.24302700  0.01389700  0.99370100  1
  O  O0  1  0.34160400  0.83557200  0.94380500  1
  O  O1  1  0.19331300  0.15854900  0.08291400  1
  O  O2  1  0.40028200  0.90916100  0.14826800  1
  O  O3  1  0.13167500  0.06909700  0.82916700  1
  O  O4  1  0.06276200  0.35533300  0.85266000  1
  O  O5  1  0.56924900  0.63814000  0.15466200  1
  O  O6  1  0.22022000  0.84155900  0.64866400  1
  O  O7  1  0.42241700  0.13852000  0.35644000  1
  O  O8  1  0.42736600  0.35960200  0.85887600  1
  O  O9  1  0.92300100  0.64626100  0.14481400  1
  O  O10  1  0.57221100  0.85494100  0.64047900  1
  O  O11  1  0.78471900  0.13912500  0.35488500  1
  O  O12  1  0.10486500  0.44649300  0.65005900  1
  O  O13  1  0.90433400  0.55142900  0.35510000  1
  O  O14  1  0.45383300  0.64783000  0.54550400  1
  O  O15  1  0.54058100  0.34774800  0.43168100  1
  O  O16  1  0.49307000  0.03475000  0.99401400  1
  O  O17  1  0.00793000  0.97854000  0.99944100  1
  F  F0  1  0.23610700  0.52260700  0.00804000  1
  F  F1  1  0.75759500  0.47482600  0.00019000  1
  F  F2  1  0.22949800  0.00386100  0.48257700  1
  F  F3  1  0.76299700  0.99779100  0.52951100  1
  F  F4  1  0.93026000  0.61293700  0.80200500  1
  F  F5  1  0.74298100  0.38352300  0.20786100  1
  F  F6  1  0.12745200  0.80067100  0.38485000  1
  F  F7  1  0.53572500  0.20655500  0.61136500  1
  F  F8  1  0.26879900  0.61301300  0.80231600  1
  F  F9  1  0.08277300  0.38956600  0.20544800  1
  F  F10  1  0.46195800  0.80466700  0.38249300  1
  F  F11  1  0.87438500  0.20896800  0.60745600  1
  F  F12  1  0.76670900  0.83271000  0.92380100  1
  F  F13  1  0.73868000  0.17455000  0.06944900  1
  F  F14  1  0.85426300  0.92932300  0.17010500  1
  F  F15  1  0.64964400  0.07373700  0.82260200  1
  F  F16  1  0.61549800  0.45485900  0.70072100  1
  F  F17  1  0.35791500  0.53613300  0.27475100  1
  F  F18  1  0.90009400  0.71210100  0.54116900  1
  F  F19  1  0.08612500  0.28298600  0.46521000  1
loop_
_geom_bond_atom_site_label_1
_geom_bond_atom_site_label_2
_geom_bond_distance
_geom_bond_site_symmetry_2
O0 W5 2.011559 1_565
O0 Pb1 2.339386 1_555
O1 W5 1.833619 1_554
O1 Pb0 2.856840 1_555
O2 W5 2.006518 1_564
O2 Pb3 2.422672 1_555
O3 W5 1.848516 1_555
O3 Pb2 2.526286 1_555
O4 W0 1.805111 1_555
O4 Pb7 2.535071 1_455
O5 W1 1.811527 1_555
O5 Pb6 2.454016 1_555
O6 W2 1.811446 1_555
O6 Pb9 2.541118 1_455
O7 W3 1.802622 1_555
O7 Pb8 2.527250 1_555
O8 W0 1.806623 1_555
O8 Pb7 2.529958 1_555
O9 W1 1.803299 1_555
O9 Pb6 2.671083 1_655
O10 W2 1.806704 1_555
O10 Pb9 2.496857 1_555
O11 W3 1.801112 1_555
O11 Pb8 2.579753 1_655
O12 W0 1.854162 1_555
O12 Pb5 2.467327 1_455
O12 Pb4 2.539750 1_555
O13 W1 1.844697 1_555
O13 Pb5 2.502253 1_555
O13 Pb4 2.615187 1_655
O14 W2 1.845320 1_555
O14 Pb4 2.494699 1_555
O14 Pb5 2.554392 1_555
O15 W3 1.866146 1_555
O15 Pb4 2.528778 1_555
O15 Pb5 2.680337 1_555
O15 Pb0 2.784565 1_555
O16 W4 1.835633 1_555
O16 W5 1.984041 1_555
O17 W4 1.891857 1_465
O17 W5 1.971623 1_565
F0 W0 2.073543 1_554
F0 Pb0 2.640987 1_555
F0 Pb6 2.688685 1_555
F1 W1 2.057687 1_555
F1 Pb7 2.668696 1_554
F2 W2 2.077062 1_545
F2 Pb2 2.638425 1_555
F3 W3 2.065475 1_565
F3 Pb9 2.581306 1_555
F4 W0 2.063348 1_655
F5 W1 2.095219 1_555
F5 Pb0 2.713701 1_555
F6 W2 2.060029 1_555
F7 W3 2.062726 1_555
F8 W0 2.118208 1_555
F8 Pb1 2.437756 1_555
F9 W1 2.117082 1_455
F9 Pb0 2.433176 1_555
F10 W2 2.127747 1_555
F10 Pb3 2.453304 1_555
F11 W3 2.132906 1_555
F11 Pb2 2.402918 1_655
F12 W4 2.018930 1_565
F12 Pb1 2.573360 1_555
F13 W4 2.009044 1_554
F14 W4 2.014270 1_564
F14 Pb3 2.615726 1_555
F15 W4 2.004391 1_555
F16 Pb7 2.277881 1_555
F16 Pb4 2.773928 1_555
F17 Pb6 2.313050 1_555
F17 Pb0 2.414690 1_555
F18 Pb9 2.244409 1_555
F19 Pb8 2.308860 1_555
F19 Pb2 2.571812 1_555
