# generated using pymatgen
data_Li9Mn2Co5O16
_symmetry_space_group_name_H-M   'P 1'
_cell_length_a   4.97348800
_cell_length_b   6.68293772
_cell_length_c   8.82910220
_cell_angle_alpha   98.87343227
_cell_angle_beta   95.30647589
_cell_angle_gamma   98.56042456
_symmetry_Int_Tables_number   1
_chemical_formula_structural   Li9Mn2Co5O16
_chemical_formula_sum   'Li9 Mn2 Co5 O16'
_cell_volume   284.70646043
_cell_formula_units_Z   1
loop_
 _symmetry_equiv_pos_site_id
 _symmetry_equiv_pos_as_xyz
  1  'x, y, z'
loop_
 _atom_site_type_symbol
 _atom_site_label
 _atom_site_symmetry_multiplicity
 _atom_site_fract_x
 _atom_site_fract_y
 _atom_site_fract_z
 _atom_site_occupancy
  Li  Li0  1  0.24531900  0.68232800  0.80650200  1
  Li  Li1  1  0.23948900  0.93071800  0.55216000  1
  Li  Li2  1  0.74803900  0.56631500  0.93974100  1
  Li  Li3  1  0.74449000  0.80711900  0.68009100  1
  Li  Li4  1  0.24506700  0.44510100  0.06814500  1
  Li  Li5  1  0.25198400  0.18868700  0.31937600  1
  Li  Li6  1  0.75606000  0.05738800  0.43648100  1
  Li  Li7  1  0.76217100  0.31882600  0.19748100  1
  Li  Li8  1  0.99798200  0.74947400  0.25376300  1
  Mn  Mn0  1  0.00357500  0.99310200  0.00063200  1
  Mn  Mn1  1  0.50196100  0.87122000  0.12786200  1
  Co  Co0  1  0.00308000  0.24863800  0.75133600  1
  Co  Co1  1  0.99602400  0.50554700  0.49491400  1
  Co  Co2  1  0.50139300  0.12349600  0.87460100  1
  Co  Co3  1  0.50171500  0.38027800  0.62661300  1
  Co  Co4  1  0.49796100  0.63222400  0.37000500  1
  O  O0  1  0.14124200  0.97577600  0.79798900  1
  O  O1  1  0.13205400  0.22795400  0.54735600  1
  O  O2  1  0.64392900  0.85063000  0.92264200  1
  O  O3  1  0.63717100  0.10819200  0.67582400  1
  O  O4  1  0.13677100  0.74688800  0.03215900  1
  O  O5  1  0.14255200  0.47303000  0.28897700  1
  O  O6  1  0.63611500  0.35393600  0.41276900  1
  O  O7  1  0.60564100  0.61699500  0.15166200  1
  O  O8  1  0.35358800  0.39142400  0.83796600  1
  O  O9  1  0.35875300  0.64555700  0.58825300  1
  O  O10  1  0.87601900  0.25187700  0.95739500  1
  O  O11  1  0.85379100  0.52244800  0.71460300  1
  O  O12  1  0.37528300  0.13263200  0.08028800  1
  O  O13  1  0.38882500  0.90643500  0.32880200  1
  O  O14  1  0.85660900  0.76933200  0.46540400  1
  O  O15  1  0.86534500  0.02642800  0.19820700  1
loop_
_geom_bond_atom_site_label_1
_geom_bond_atom_site_label_2
_geom_bond_distance
_geom_bond_site_symmetry_2
Li0 O9 2.046471 1_555
Li0 O11 2.100641 1_455
Li0 O4 2.109539 1_556
Li0 O0 2.111862 1_555
Li0 O8 2.144113 1_555
Li0 O2 2.202528 1_555
Li1 O14 2.059135 1_455
Li1 O1 2.137969 1_565
Li1 O9 2.138701 1_555
Li1 O13 2.162180 1_555
Li1 O3 2.239078 1_565
Li1 O0 2.253580 1_555
Li2 O7 2.058689 1_556
Li2 O2 2.065926 1_555
Li2 O11 2.091242 1_555
Li2 O4 2.137705 1_656
Li2 O8 2.165519 1_555
Li2 O10 2.307830 1_555
Li3 O14 2.014290 1_555
Li3 O9 2.080685 1_555
Li3 O11 2.112749 1_555
Li3 O3 2.161953 1_565
Li3 O0 2.200825 1_655
Li3 O2 2.229359 1_555
Li4 O7 1.990006 1_555
Li4 O5 2.048474 1_555
Li4 O10 2.136679 1_454
Li4 O8 2.141435 1_554
Li4 O4 2.224422 1_555
Li4 O12 2.291370 1_555
Li5 O6 2.085424 1_555
Li5 O5 2.101763 1_555
Li5 O13 2.109092 1_545
Li5 O1 2.140550 1_555
Li5 O15 2.158449 1_455
Li5 O12 2.244166 1_555
Li6 O13 2.022828 1_545
Li6 O14 2.106129 1_545
Li6 O1 2.106444 1_655
Li6 O6 2.187266 1_555
Li6 O15 2.207866 1_555
Li6 O3 2.236065 1_555
Li7 O5 2.042955 1_655
Li7 O6 2.046404 1_555
Li7 O15 2.093689 1_555
Li7 O12 2.200723 1_555
Li7 O10 2.240299 1_554
Li7 O7 2.322198 1_555
Li8 O14 2.048888 1_555
Li8 O13 2.063538 1_655
Li8 O7 2.078020 1_555
Li8 O4 2.132565 1_655
Li8 O5 2.134962 1_655
Li8 O15 2.164529 1_565
Mn0 O2 1.908675 1_454
Mn0 O4 1.911927 1_555
Mn0 O15 1.926850 1_465
Mn0 O12 1.955954 1_565
Mn0 O0 1.967118 1_554
Mn0 O10 2.006097 1_464
Mn1 O7 1.883470 1_555
Mn1 O13 1.901251 1_555
Mn1 O4 1.937386 1_555
Mn1 O15 1.939965 1_565
Mn1 O2 1.997281 1_554
Mn1 O12 2.032359 1_565
Co0 O8 1.888776 1_555
Co0 O3 1.926475 1_455
Co0 O1 1.958902 1_555
Co0 O10 1.978459 1_455
Co0 O0 2.125903 1_545
Co0 O11 2.132571 1_455
Co1 O6 1.936479 1_555
Co1 O9 1.947756 1_655
Co1 O5 2.013614 1_655
Co1 O14 2.031872 1_555
Co1 O11 2.117882 1_555
Co1 O1 2.166638 1_655
Co2 O0 1.919373 1_545
Co2 O3 1.931574 1_555
Co2 O10 1.954650 1_555
Co2 O12 1.970523 1_556
Co2 O8 2.092272 1_555
Co2 O2 2.139071 1_545
Co3 O11 1.896784 1_555
Co3 O1 1.972599 1_555
Co3 O6 2.051453 1_555
Co3 O8 2.063539 1_555
Co3 O9 2.068620 1_555
Co3 O3 2.122087 1_555
Co4 O14 1.930845 1_555
Co4 O5 1.933801 1_555
Co4 O7 2.039641 1_555
Co4 O13 2.061650 1_555
Co4 O9 2.100601 1_555
Co4 O6 2.150008 1_555
