# generated using pymatgen
data_BaDyFe4O7
_symmetry_space_group_name_H-M   'P 1'
_cell_length_a   6.47699185
_cell_length_b   6.47699185
_cell_length_c   6.47699185
_cell_angle_alpha   121.25124151
_cell_angle_beta   121.25124151
_cell_angle_gamma   87.84611305
_symmetry_Int_Tables_number   1
_chemical_formula_structural   BaDyFe4O7
_chemical_formula_sum   'Ba1 Dy1 Fe4 O7'
_cell_volume   188.35607232
_cell_formula_units_Z   1
loop_
 _symmetry_equiv_pos_site_id
 _symmetry_equiv_pos_as_xyz
  1  'x, y, z'
loop_
 _atom_site_type_symbol
 _atom_site_label
 _atom_site_symmetry_multiplicity
 _atom_site_fract_x
 _atom_site_fract_y
 _atom_site_fract_z
 _atom_site_occupancy
  Ba  Ba0  1  0.25000000  0.75000000  0.50000000  1
  Dy  Dy0  1  0.00000000  0.00000000  0.00000000  1
  Fe  Fe0  1  0.62077200  0.40865900  0.26938400  1
  Fe  Fe1  1  0.13927500  0.35138800  0.73061600  1
  Fe  Fe2  1  0.59134100  0.86072500  0.21211300  1
  Fe  Fe3  1  0.64861200  0.37922800  0.78788700  1
  O  O0  1  0.22290500  0.72518900  0.90104000  1
  O  O1  1  0.82414900  0.32186400  0.09896000  1
  O  O2  1  0.27481100  0.17585100  0.49771600  1
  O  O3  1  0.67813600  0.77709500  0.50228400  1
  O  O4  1  0.75466400  0.75466400  0.00000000  1
  O  O5  1  0.24533600  0.24533600  0.00000000  1
  O  O6  1  0.75000000  0.25000000  0.50000000  1
loop_
_geom_bond_atom_site_label_1
_geom_bond_atom_site_label_2
_geom_bond_distance
_geom_bond_site_symmetry_2
Ba0 O2 2.777052 1_565
Ba0 O0 2.777052 1_555
Ba0 O1 2.777055 1_455
Ba0 O3 2.777058 1_555
Ba0 O4 3.177354 1_556
Ba0 O5 3.177354 1_555
Ba0 O5 3.177354 1_566
Ba0 O4 3.177354 1_455
Dy0 O5 2.289081 1_555
Dy0 O4 2.289081 1_445
Dy0 O1 2.290568 1_455
Dy0 O3 2.290571 1_444
Dy0 O2 2.290573 1_555
Dy0 O0 2.290573 1_544
Fe0 O3 1.964258 1_555
Fe0 O5 1.988085 1_555
Fe0 O1 2.019619 1_555
Fe0 O6 2.053906 1_555
Fe1 O2 1.964259 1_555
Fe1 O5 1.988085 1_556
Fe1 O0 2.019619 1_555
Fe1 O6 2.053906 1_455
Fe2 O0 1.964259 1_554
Fe2 O4 1.988085 1_555
Fe2 O3 2.019617 1_555
Fe2 O6 2.053906 1_565
Fe3 O1 1.964263 1_556
Fe3 O4 1.988085 1_556
Fe3 O2 2.019619 1_555
Fe3 O6 2.053906 1_555
