# generated using pymatgen
data_TbMnFe
_symmetry_space_group_name_H-M   'P 1'
_cell_length_a   5.14352739
_cell_length_b   5.14352739
_cell_length_c   5.14352739
_cell_angle_alpha   120.71782471
_cell_angle_beta   119.14077632
_cell_angle_gamma   90.12791308
_symmetry_Int_Tables_number   1
_chemical_formula_structural   TbMnFe
_chemical_formula_sum   'Tb2 Mn2 Fe2'
_cell_volume   96.30044540
_cell_formula_units_Z   2
loop_
 _symmetry_equiv_pos_site_id
 _symmetry_equiv_pos_as_xyz
  1  'x, y, z'
loop_
 _atom_site_type_symbol
 _atom_site_label
 _atom_site_symmetry_multiplicity
 _atom_site_fract_x
 _atom_site_fract_y
 _atom_site_fract_z
 _atom_site_occupancy
  Tb  Tb0  1  0.12652200  0.87652200  0.25000000  1
  Tb  Tb1  1  0.87347800  0.12347800  0.75000000  1
  Mn  Mn0  1  0.50000000  0.50000000  0.00000000  1
  Mn  Mn1  1  0.00000000  0.50000000  0.50000000  1
  Fe  Fe0  1  0.50000000  0.50000000  0.50000000  1
  Fe  Fe1  1  0.50000000  0.00000000  0.00000000  1
loop_
_geom_bond_atom_site_label_1
_geom_bond_atom_site_label_2
_geom_bond_distance
_geom_bond_site_symmetry_2
Mn0 Mn1 2.605091 1_655
Mn0 Mn1 2.605091 1_554
Mn0 Tb0 2.995418 1_555
Mn0 Tb1 2.995418 1_554
Mn0 Tb0 2.995418 1_544
Mn0 Tb1 2.995418 1_565
Mn0 Tb0 3.030035 1_655
Mn0 Tb1 3.030035 1_454
Mn1 Tb0 2.995418 1_545
Mn1 Tb0 2.995418 1_556
Mn1 Tb1 2.995418 1_454
Mn1 Tb1 2.995418 1_465
Mn1 Tb0 3.030035 1_555
Mn1 Tb1 3.030035 1_455
Fe0 Fe1 2.543810 1_566
Fe0 Fe1 2.543810 1_555
Fe0 Mn0 2.571764 1_555
Fe0 Mn0 2.571764 1_556
Fe0 Mn1 2.571764 1_555
Fe0 Mn1 2.571764 1_655
Fe0 Tb0 2.996949 1_545
Fe0 Tb1 2.996949 1_565
Fe0 Tb1 3.041275 1_454
Fe0 Tb0 3.041275 1_656
Fe0 Tb0 3.041275 1_555
Fe0 Tb1 3.041275 1_555
Fe1 Mn0 2.571764 1_555
Fe1 Mn0 2.571764 1_545
Fe1 Mn1 2.571764 1_544
Fe1 Mn1 2.571764 1_655
Fe1 Tb1 2.996949 1_554
Fe1 Tb0 2.996949 1_545
Fe1 Tb1 3.041275 1_454
Fe1 Tb0 3.041275 1_544
Fe1 Tb0 3.041275 1_645
Fe1 Tb1 3.041275 1_555
