# generated using pymatgen
data_LaTiTeO6
_symmetry_space_group_name_H-M   'P 1'
_cell_length_a   5.33480195
_cell_length_b   5.33480195
_cell_length_c   5.20551100
_cell_angle_alpha   90.00000000
_cell_angle_beta   90.00000000
_cell_angle_gamma   119.99999940
_symmetry_Int_Tables_number   1
_chemical_formula_structural   LaTiTeO6
_chemical_formula_sum   'La1 Ti1 Te1 O6'
_cell_volume   128.30116669
_cell_formula_units_Z   1
loop_
 _symmetry_equiv_pos_site_id
 _symmetry_equiv_pos_as_xyz
  1  'x, y, z'
loop_
 _atom_site_type_symbol
 _atom_site_label
 _atom_site_symmetry_multiplicity
 _atom_site_fract_x
 _atom_site_fract_y
 _atom_site_fract_z
 _atom_site_occupancy
  La  La0  1  0.33333300  0.66666700  0.50000000  1
  Ti  Ti0  1  0.66666700  0.33333300  0.00000000  1
  Te  Te0  1  0.00000000  0.00000000  0.00000000  1
  O  O0  1  0.96141200  0.30178500  0.78836000  1
  O  O1  1  0.69821500  0.65962700  0.78836000  1
  O  O2  1  0.34037300  0.03858800  0.78836000  1
  O  O3  1  0.69821500  0.03858800  0.21164000  1
  O  O4  1  0.96141200  0.65962700  0.21164000  1
  O  O5  1  0.34037300  0.30178500  0.21164000  1
loop_
_geom_bond_atom_site_label_1
_geom_bond_atom_site_label_2
_geom_bond_distance
_geom_bond_site_symmetry_2
La0 O2 2.473222 1_565
La0 O4 2.473222 1_455
La0 O3 2.473224 1_565
La0 O0 2.473224 1_455
La0 O1 2.473227 1_555
La0 O5 2.473227 1_555
O0 Ti0 1.994782 1_556
O0 Te0 2.044386 1_656
O1 Ti0 1.994787 1_556
O1 Te0 2.044386 1_666
O2 Ti0 1.994785 1_556
O2 Te0 2.044386 1_556
O3 Ti0 1.994782 1_555
O3 Te0 2.044386 1_655
O4 Ti0 1.994785 1_555
O4 Te0 2.044386 1_665
O5 Ti0 1.994787 1_555
O5 Te0 2.044386 1_555
