# generated using pymatgen
data_Gd2Ge(BO4)2
_symmetry_space_group_name_H-M   'P 1'
_cell_length_a   4.45952000
_cell_length_b   9.43540100
_cell_length_c   13.63324900
_cell_angle_alpha   90.00000000
_cell_angle_beta   90.00000000
_cell_angle_gamma   90.00000000
_symmetry_Int_Tables_number   1
_chemical_formula_structural   Gd2Ge(BO4)2
_chemical_formula_sum   'Gd8 Ge4 B8 O32'
_cell_volume   573.65111888
_cell_formula_units_Z   4
loop_
 _symmetry_equiv_pos_site_id
 _symmetry_equiv_pos_as_xyz
  1  'x, y, z'
loop_
 _atom_site_type_symbol
 _atom_site_label
 _atom_site_symmetry_multiplicity
 _atom_site_fract_x
 _atom_site_fract_y
 _atom_site_fract_z
 _atom_site_occupancy
  Gd  Gd0  1  0.45907600  0.52689800  0.64016200  1
  Gd  Gd1  1  0.04092400  0.02689800  0.85983800  1
  Gd  Gd2  1  0.04092400  0.47310200  0.14016200  1
  Gd  Gd3  1  0.45907600  0.97310200  0.35983800  1
  Gd  Gd4  1  0.54092400  0.47310200  0.35983800  1
  Gd  Gd5  1  0.95907600  0.97310200  0.14016200  1
  Gd  Gd6  1  0.95907600  0.52689800  0.85983800  1
  Gd  Gd7  1  0.54092400  0.02689800  0.64016200  1
  Ge  Ge0  1  0.92278400  0.75000000  0.50000000  1
  Ge  Ge1  1  0.57721600  0.25000000  0.00000000  1
  Ge  Ge2  1  0.07721600  0.25000000  0.50000000  1
  Ge  Ge3  1  0.42278400  0.75000000  0.00000000  1
  B  B0  1  0.52955400  0.70249100  0.20044400  1
  B  B1  1  0.97044600  0.20249100  0.29955600  1
  B  B2  1  0.97044600  0.29750900  0.70044400  1
  B  B3  1  0.52955400  0.79750900  0.79955600  1
  B  B4  1  0.47044600  0.29750900  0.79955600  1
  B  B5  1  0.02955400  0.79750900  0.70044400  1
  B  B6  1  0.02955400  0.70249100  0.29955600  1
  B  B7  1  0.47044600  0.20249100  0.20044400  1
  O  O0  1  0.53607300  0.54945400  0.19235200  1
  O  O1  1  0.96392700  0.04945400  0.30764800  1
  O  O2  1  0.96392700  0.45054600  0.69235200  1
  O  O3  1  0.53607300  0.95054600  0.80764800  1
  O  O4  1  0.46392700  0.45054600  0.80764800  1
  O  O5  1  0.03607300  0.95054600  0.69235200  1
  O  O6  1  0.03607300  0.54945400  0.30764800  1
  O  O7  1  0.46392700  0.04945400  0.19235200  1
  O  O8  1  0.65522800  0.76726000  0.10720600  1
  O  O9  1  0.84477200  0.26726000  0.39279400  1
  O  O10  1  0.84477200  0.23274000  0.60720600  1
  O  O11  1  0.65522800  0.73274000  0.89279400  1
  O  O12  1  0.34477200  0.23274000  0.89279400  1
  O  O13  1  0.15522800  0.73274000  0.60720600  1
  O  O14  1  0.15522800  0.76726000  0.39279400  1
  O  O15  1  0.34477200  0.26726000  0.10720600  1
  O  O16  1  0.21765500  0.75799600  0.21631600  1
  O  O17  1  0.28234500  0.25799600  0.28368400  1
  O  O18  1  0.28234500  0.24200400  0.71631600  1
  O  O19  1  0.21765500  0.74200400  0.78368400  1
  O  O20  1  0.78234500  0.24200400  0.78368400  1
  O  O21  1  0.71765500  0.74200400  0.71631600  1
  O  O22  1  0.71765500  0.75799600  0.28368400  1
  O  O23  1  0.78234500  0.25799600  0.21631600  1
  O  O24  1  0.70171500  0.59753900  0.49512600  1
  O  O25  1  0.79828500  0.09753900  0.00487400  1
  O  O26  1  0.79828500  0.40246100  0.99512600  1
  O  O27  1  0.70171500  0.90246100  0.50487400  1
  O  O28  1  0.29828500  0.40246100  0.50487400  1
  O  O29  1  0.20171500  0.90246100  0.99512600  1
  O  O30  1  0.20171500  0.59753900  0.00487400  1
  O  O31  1  0.29828500  0.09753900  0.49512600  1
loop_
_geom_bond_atom_site_label_1
_geom_bond_atom_site_label_2
_geom_bond_distance
_geom_bond_site_symmetry_2
Gd0 O28 2.300993 1_555
Gd0 O24 2.350502 1_555
Gd0 O4 2.394426 1_555
Gd0 O13 2.410412 1_555
Gd0 O2 2.429213 1_455
Gd0 O2 2.468608 1_555
Gd0 O21 2.554792 1_555
Gd1 O29 2.300993 1_545
Gd1 O25 2.350502 1_456
Gd1 O5 2.394426 1_545
Gd1 O12 2.410412 1_555
Gd1 O3 2.429213 1_545
Gd1 O3 2.468608 1_445
Gd1 O20 2.554792 1_455
Gd2 O30 2.300993 1_555
Gd2 O26 2.350502 1_454
Gd2 O6 2.394426 1_555
Gd2 O15 2.410412 1_555
Gd2 O0 2.429213 1_555
Gd2 O0 2.468608 1_455
Gd2 O23 2.554792 1_455
Gd3 O31 2.300993 1_565
Gd3 O27 2.350502 1_555
Gd3 O7 2.394426 1_565
Gd3 O14 2.410412 1_555
Gd3 O1 2.429213 1_465
Gd3 O1 2.468608 1_565
Gd3 O22 2.554792 1_555
Gd4 O24 2.300993 1_555
Gd4 O28 2.350502 1_555
Gd4 O0 2.394426 1_555
Gd4 O9 2.410412 1_555
Gd4 O6 2.429213 1_655
Gd4 O6 2.468608 1_555
Gd4 O17 2.554792 1_555
Gd5 O25 2.300993 1_565
Gd5 O29 2.350502 1_654
Gd5 O1 2.394426 1_565
Gd5 O8 2.410412 1_555
Gd5 O7 2.429213 1_565
Gd5 O7 2.468608 1_665
Gd5 O16 2.554792 1_655
Gd6 O26 2.300993 1_555
Gd6 O30 2.350502 1_656
Gd6 O2 2.394426 1_555
Gd6 O11 2.410412 1_555
Gd6 O4 2.429213 1_555
Gd6 O4 2.468608 1_655
Gd6 O19 2.554792 1_655
Gd7 O27 2.300993 1_545
Gd7 O31 2.350502 1_555
Gd7 O3 2.394426 1_545
Gd7 O10 2.410412 1_555
Gd7 O5 2.429213 1_645
Gd7 O5 2.468608 1_545
Gd7 O18 2.554792 1_555
Ge0 O24 1.745196 1_555
Ge0 O27 1.745196 1_555
Ge0 O13 1.799226 1_655
Ge0 O14 1.799226 1_655
Ge1 O26 1.745196 1_554
Ge1 O25 1.745196 1_555
Ge1 O15 1.799226 1_555
Ge1 O12 1.799226 1_554
Ge2 O28 1.745196 1_555
Ge2 O31 1.745196 1_555
Ge2 O10 1.799226 1_455
Ge2 O9 1.799226 1_455
Ge3 O29 1.745196 1_554
Ge3 O30 1.745196 1_555
Ge3 O8 1.799226 1_555
Ge3 O11 1.799226 1_554
B0 O0 1.448465 1_555
B0 O16 1.501917 1_555
B0 O22 1.505247 1_555
B0 O8 1.517682 1_555
B1 O1 1.448465 1_555
B1 O17 1.501917 1_655
B1 O23 1.505247 1_555
B1 O9 1.517682 1_555
B2 O2 1.448465 1_555
B2 O18 1.501917 1_655
B2 O20 1.505247 1_555
B2 O10 1.517682 1_555
B3 O3 1.448465 1_555
B3 O19 1.501917 1_555
B3 O21 1.505247 1_555
B3 O11 1.517682 1_555
B4 O4 1.448465 1_555
B4 O20 1.501917 1_555
B4 O18 1.505247 1_555
B4 O12 1.517682 1_555
B5 O5 1.448465 1_555
B5 O21 1.501917 1_455
B5 O19 1.505247 1_555
B5 O13 1.517682 1_555
B6 O6 1.448465 1_555
B6 O22 1.501917 1_455
B6 O16 1.505247 1_555
B6 O14 1.517682 1_555
B7 O7 1.448465 1_555
B7 O23 1.501917 1_555
B7 O17 1.505247 1_555
B7 O15 1.517682 1_555
