# generated using pymatgen
data_Cr3N4
_symmetry_space_group_name_H-M   'P 1'
_cell_length_a   2.82246600
_cell_length_b   9.35038600
_cell_length_c   9.62831800
_cell_angle_alpha   90.00000000
_cell_angle_beta   90.00000000
_cell_angle_gamma   90.00000000
_symmetry_Int_Tables_number   1
_chemical_formula_structural   Cr3N4
_chemical_formula_sum   'Cr12 N16'
_cell_volume   254.10235158
_cell_formula_units_Z   4
loop_
 _symmetry_equiv_pos_site_id
 _symmetry_equiv_pos_as_xyz
  1  'x, y, z'
loop_
 _atom_site_type_symbol
 _atom_site_label
 _atom_site_symmetry_multiplicity
 _atom_site_fract_x
 _atom_site_fract_y
 _atom_site_fract_z
 _atom_site_occupancy
  Cr  Cr0  1  0.25000000  0.91920300  0.11960800  1
  Cr  Cr1  1  0.25000000  0.41920300  0.38039200  1
  Cr  Cr2  1  0.75000000  0.08079700  0.88039200  1
  Cr  Cr3  1  0.75000000  0.58079700  0.61960800  1
  Cr  Cr4  1  0.25000000  0.90148100  0.59959300  1
  Cr  Cr5  1  0.25000000  0.40148100  0.90040700  1
  Cr  Cr6  1  0.75000000  0.09851900  0.40040700  1
  Cr  Cr7  1  0.75000000  0.59851900  0.09959300  1
  Cr  Cr8  1  0.25000000  0.79703100  0.85956200  1
  Cr  Cr9  1  0.25000000  0.29703100  0.64043800  1
  Cr  Cr10  1  0.75000000  0.20296900  0.14043800  1
  Cr  Cr11  1  0.75000000  0.70296900  0.35956200  1
  N  N0  1  0.25000000  0.73690500  0.20660800  1
  N  N1  1  0.25000000  0.23690500  0.29339200  1
  N  N2  1  0.75000000  0.26309500  0.79339200  1
  N  N3  1  0.75000000  0.76309500  0.70660800  1
  N  N4  1  0.25000000  0.63037300  0.47970900  1
  N  N5  1  0.25000000  0.13037300  0.02029100  1
  N  N6  1  0.75000000  0.36962700  0.52029100  1
  N  N7  1  0.75000000  0.86962700  0.97970900  1
  N  N8  1  0.25000000  0.49319800  0.72688900  1
  N  N9  1  0.25000000  0.99319800  0.77311100  1
  N  N10  1  0.75000000  0.50680200  0.27311100  1
  N  N11  1  0.75000000  0.00680200  0.22688900  1
  N  N12  1  0.25000000  0.10584000  0.53435800  1
  N  N13  1  0.25000000  0.60584000  0.96564200  1
  N  N14  1  0.75000000  0.89416000  0.46564200  1
  N  N15  1  0.75000000  0.39416000  0.03435800  1
loop_
_geom_bond_atom_site_label_1
_geom_bond_atom_site_label_2
_geom_bond_distance
_geom_bond_site_symmetry_2
Cr0 N0 1.899261 1_555
Cr0 N11 1.931174 1_465
Cr0 N11 1.931174 1_565
Cr0 N7 2.005206 1_454
Cr0 N7 2.005206 1_554
Cr0 N5 2.193891 1_565
Cr1 N1 1.899261 1_555
Cr1 N10 1.931174 1_555
Cr1 N10 1.931174 1_455
Cr1 N6 2.005206 1_455
Cr1 N6 2.005206 1_555
Cr1 N4 2.193891 1_555
Cr2 N2 1.899261 1_555
Cr2 N9 1.931174 1_645
Cr2 N9 1.931174 1_545
Cr2 N5 2.005206 1_556
Cr2 N5 2.005206 1_656
Cr2 N7 2.193891 1_545
Cr3 N3 1.899261 1_555
Cr3 N8 1.931174 1_655
Cr3 N8 1.931174 1_555
Cr3 N4 2.005206 1_555
Cr3 N4 2.005206 1_655
Cr3 N6 2.193891 1_555
Cr4 N9 1.877938 1_555
Cr4 N14 1.913021 1_555
Cr4 N14 1.913021 1_455
Cr4 N12 2.011419 1_565
Cr4 N3 2.174302 1_555
Cr4 N3 2.174302 1_455
Cr5 N8 1.877938 1_555
Cr5 N15 1.913021 1_456
Cr5 N15 1.913021 1_556
Cr5 N13 2.011419 1_555
Cr5 N2 2.174302 1_555
Cr5 N2 2.174302 1_455
Cr6 N11 1.877938 1_555
Cr6 N12 1.913021 1_655
Cr6 N12 1.913021 1_555
Cr6 N14 2.011419 1_545
Cr6 N1 2.174302 1_555
Cr6 N1 2.174302 1_655
Cr7 N10 1.877938 1_555
Cr7 N13 1.913021 1_654
Cr7 N13 1.913021 1_554
Cr7 N15 2.011419 1_555
Cr7 N0 2.174302 1_655
Cr7 N0 2.174302 1_555
Cr8 N7 1.946938 1_555
Cr8 N7 1.946938 1_455
Cr8 N9 2.014269 1_555
Cr8 N13 2.058909 1_555
Cr8 N3 2.064239 1_555
Cr8 N3 2.064239 1_455
Cr9 N6 1.946938 1_455
Cr9 N6 1.946938 1_555
Cr9 N8 2.014269 1_555
Cr9 N12 2.058909 1_555
Cr9 N2 2.064239 1_455
Cr9 N2 2.064239 1_555
Cr10 N5 1.946938 1_655
Cr10 N5 1.946938 1_555
Cr10 N11 2.014269 1_555
Cr10 N15 2.058909 1_555
Cr10 N1 2.064239 1_555
Cr10 N1 2.064239 1_655
Cr11 N4 1.946938 1_655
Cr11 N4 1.946938 1_555
Cr11 N10 2.014269 1_555
Cr11 N14 2.058909 1_555
Cr11 N0 2.064239 1_655
Cr11 N0 2.064239 1_555
