# generated using pymatgen
data_Yb2GeS4
_symmetry_space_group_name_H-M   'P 1'
_cell_length_a   6.66078000
_cell_length_b   6.49318400
_cell_length_c   7.67838830
_cell_angle_alpha   72.42120925
_cell_angle_beta   90.00000000
_cell_angle_gamma   90.00000000
_symmetry_Int_Tables_number   1
_chemical_formula_structural   Yb2GeS4
_chemical_formula_sum   'Yb4 Ge2 S8'
_cell_volume   316.58010311
_cell_formula_units_Z   2
loop_
 _symmetry_equiv_pos_site_id
 _symmetry_equiv_pos_as_xyz
  1  'x, y, z'
loop_
 _atom_site_type_symbol
 _atom_site_label
 _atom_site_symmetry_multiplicity
 _atom_site_fract_x
 _atom_site_fract_y
 _atom_site_fract_z
 _atom_site_occupancy
  Yb  Yb0  1  0.25000000  0.72008200  0.94696800  1
  Yb  Yb1  1  0.75000000  0.27991800  0.05303200  1
  Yb  Yb2  1  0.25000000  0.74239900  0.43778600  1
  Yb  Yb3  1  0.75000000  0.25760100  0.56221400  1
  Ge  Ge0  1  0.25000000  0.26016500  0.80544300  1
  Ge  Ge1  1  0.75000000  0.73983500  0.19455700  1
  S  S0  1  0.25000000  0.06977400  0.09680800  1
  S  S1  1  0.75000000  0.93022600  0.90319200  1
  S  S2  1  0.25000000  0.06304900  0.61701000  1
  S  S3  1  0.75000000  0.93695100  0.38299000  1
  S  S4  1  0.50217900  0.49793700  0.74395900  1
  S  S5  1  0.00217900  0.50206300  0.25604100  1
  S  S6  1  0.49782100  0.50206300  0.25604100  1
  S  S7  1  0.99782100  0.49793700  0.74395900  1
loop_
_geom_bond_atom_site_label_1
_geom_bond_atom_site_label_2
_geom_bond_distance
_geom_bond_site_symmetry_2
Ge0 S2 2.202308 1_555
Ge0 S0 2.205181 1_556
Ge0 S7 2.233306 1_455
Ge0 S4 2.233306 1_555
Ge1 S3 2.202308 1_555
Ge1 S1 2.205181 1_554
Ge1 S5 2.233306 1_655
Ge1 S6 2.233306 1_555
S0 Yb2 2.830491 1_545
S0 Yb0 2.838555 1_544
S1 Yb3 2.830491 1_565
S1 Yb1 2.838555 1_566
S2 Yb2 2.821234 1_545
S2 Yb0 2.823145 1_545
S3 Yb3 2.821234 1_565
S3 Yb1 2.823145 1_565
S4 Yb1 2.886430 1_556
S4 Yb3 2.902229 1_555
S4 Yb2 2.934926 1_555
S4 Yb0 2.947872 1_555
S5 Yb0 2.886430 1_554
S5 Yb2 2.902229 1_555
S5 Yb3 2.934926 1_455
S5 Yb1 2.947872 1_455
S6 Yb0 2.886430 1_554
S6 Yb2 2.902229 1_555
S6 Yb3 2.934926 1_555
S6 Yb1 2.947872 1_555
S7 Yb1 2.886430 1_556
S7 Yb3 2.902229 1_555
S7 Yb2 2.934926 1_655
S7 Yb0 2.947872 1_655
