# generated using pymatgen
data_Nd6Zn4Pd13
_symmetry_space_group_name_H-M   'P 1'
_cell_length_a   8.40746469
_cell_length_b   8.40746469
_cell_length_c   8.40746469
_cell_angle_alpha   109.47122063
_cell_angle_beta   109.47122063
_cell_angle_gamma   109.47122063
_symmetry_Int_Tables_number   1
_chemical_formula_structural   Nd6Zn4Pd13
_chemical_formula_sum   'Nd6 Zn4 Pd13'
_cell_volume   457.48121387
_cell_formula_units_Z   1
loop_
 _symmetry_equiv_pos_site_id
 _symmetry_equiv_pos_as_xyz
  1  'x, y, z'
loop_
 _atom_site_type_symbol
 _atom_site_label
 _atom_site_symmetry_multiplicity
 _atom_site_fract_x
 _atom_site_fract_y
 _atom_site_fract_z
 _atom_site_occupancy
  Nd  Nd0  1  0.69721600  0.69721600  0.00000000  1
  Nd  Nd1  1  0.30278400  0.00000000  0.30278400  1
  Nd  Nd2  1  0.00000000  0.30278400  0.30278400  1
  Nd  Nd3  1  0.30278400  0.30278400  0.00000000  1
  Nd  Nd4  1  0.69721600  0.00000000  0.69721600  1
  Nd  Nd5  1  0.00000000  0.69721600  0.69721600  1
  Zn  Zn0  1  0.00000000  0.00000000  0.50000000  1
  Zn  Zn1  1  0.00000000  0.50000000  0.00000000  1
  Zn  Zn2  1  0.50000000  0.00000000  0.00000000  1
  Zn  Zn3  1  0.50000000  0.50000000  0.50000000  1
  Pd  Pd0  1  0.33108200  0.33108200  0.66216400  1
  Pd  Pd1  1  0.66891800  0.00000000  0.33108200  1
  Pd  Pd2  1  0.00000000  0.66891800  0.33108200  1
  Pd  Pd3  1  0.66891800  0.33108200  0.00000000  1
  Pd  Pd4  1  0.33108200  0.66216400  0.33108200  1
  Pd  Pd5  1  0.00000000  0.33108200  0.66891800  1
  Pd  Pd6  1  0.33108200  0.66891800  0.00000000  1
  Pd  Pd7  1  0.33108200  0.00000000  0.66891800  1
  Pd  Pd8  1  0.66216400  0.33108200  0.33108200  1
  Pd  Pd9  1  0.66891800  0.66891800  0.33783600  1
  Pd  Pd10  1  0.66891800  0.33783600  0.66891800  1
  Pd  Pd11  1  0.33783600  0.66891800  0.66891800  1
  Pd  Pd12  1  0.00000000  0.00000000  0.00000000  1
loop_
_geom_bond_atom_site_label_1
_geom_bond_atom_site_label_2
_geom_bond_distance
_geom_bond_site_symmetry_2
Nd0 Pd12 2.939459 1_665
Nd0 Pd9 3.007331 1_555
Nd0 Pd3 3.007331 1_555
Nd0 Pd6 3.007331 1_555
Nd0 Pd0 3.007331 1_554
Nd0 Pd2 3.225897 1_655
Nd0 Pd1 3.225897 1_565
Nd0 Pd10 3.225897 1_554
Nd0 Pd11 3.225897 1_554
Nd0 Zn1 3.470374 1_655
Nd0 Zn2 3.470374 1_565
Nd0 Zn0 3.470374 1_665
Nd0 Zn3 3.470374 1_554
Nd1 Pd12 2.939459 1_555
Nd1 Pd10 3.007331 1_555
Nd1 Pd7 3.007331 1_555
Nd1 Pd1 3.007331 1_555
Nd1 Pd4 3.007331 1_545
Nd1 Pd2 3.225897 1_545
Nd1 Pd0 3.225897 1_555
Nd1 Pd6 3.225897 1_545
Nd1 Pd8 3.225897 1_555
Nd1 Zn2 3.470374 1_555
Nd1 Zn3 3.470374 1_555
Nd1 Zn0 3.470374 1_555
Nd1 Zn1 3.470374 1_545
Nd2 Pd12 2.939459 1_555
Nd2 Pd11 3.007331 1_555
Nd2 Pd8 3.007331 1_455
Nd2 Pd2 3.007331 1_555
Nd2 Pd5 3.007331 1_555
Nd2 Pd0 3.225897 1_555
Nd2 Pd1 3.225897 1_455
Nd2 Pd4 3.225897 1_555
Nd2 Pd3 3.225897 1_455
Nd2 Zn3 3.470374 1_555
Nd2 Zn0 3.470374 1_555
Nd2 Zn2 3.470374 1_455
Nd2 Zn1 3.470374 1_555
Nd3 Pd12 2.939459 1_555
Nd3 Pd9 3.007331 1_555
Nd3 Pd3 3.007331 1_555
Nd3 Pd0 3.007331 1_554
Nd3 Pd6 3.007331 1_555
Nd3 Pd5 3.225897 1_554
Nd3 Pd7 3.225897 1_554
Nd3 Pd4 3.225897 1_555
Nd3 Pd8 3.225897 1_555
Nd3 Zn2 3.470374 1_555
Nd3 Zn3 3.470374 1_555
Nd3 Zn0 3.470374 1_554
Nd3 Zn1 3.470374 1_555
Nd4 Pd12 2.939459 1_656
Nd4 Pd10 3.007331 1_555
Nd4 Pd4 3.007331 1_545
Nd4 Pd7 3.007331 1_555
Nd4 Pd1 3.007331 1_555
Nd4 Pd3 3.225897 1_556
Nd4 Pd5 3.225897 1_655
Nd4 Pd9 3.225897 1_545
Nd4 Pd11 3.225897 1_545
Nd4 Zn1 3.470374 1_656
Nd4 Zn3 3.470374 1_545
Nd4 Zn2 3.470374 1_556
Nd4 Zn0 3.470374 1_655
Nd5 Pd12 2.939459 1_566
Nd5 Pd11 3.007331 1_555
Nd5 Pd5 3.007331 1_555
Nd5 Pd8 3.007331 1_455
Nd5 Pd2 3.007331 1_555
Nd5 Pd6 3.225897 1_556
Nd5 Pd7 3.225897 1_565
Nd5 Pd10 3.225897 1_455
Nd5 Pd9 3.225897 1_455
Nd5 Zn2 3.470374 1_566
Nd5 Zn0 3.470374 1_565
Nd5 Zn1 3.470374 1_556
Nd5 Zn3 3.470374 1_455
Pd0 Zn3 2.670145 1_555
Pd0 Zn0 2.670145 1_555
Pd0 Pd7 2.803000 1_555
Pd0 Pd5 2.803000 1_555
Pd0 Pd10 2.803000 1_555
Pd0 Pd11 2.803000 1_555
Pd0 Pd3 3.279747 1_556
Pd0 Pd6 3.279747 1_556
Pd1 Zn2 2.670145 1_555
Pd1 Zn0 2.670145 1_655
Pd1 Pd9 2.803000 1_545
Pd1 Pd5 2.803000 1_655
Pd1 Pd6 2.803000 1_545
Pd1 Pd8 2.803000 1_555
Pd1 Pd10 3.279747 1_555
Pd1 Pd4 3.279747 1_545
Pd2 Zn1 2.670145 1_555
Pd2 Zn0 2.670145 1_565
Pd2 Pd9 2.803000 1_455
Pd2 Pd4 2.803000 1_555
Pd2 Pd7 2.803000 1_565
Pd2 Pd3 2.803000 1_455
Pd2 Pd8 3.279747 1_455
Pd3 Zn2 2.670145 1_555
Pd3 Zn1 2.670145 1_655
Pd3 Pd7 2.803000 1_554
Pd3 Pd8 2.803000 1_555
Pd3 Pd9 3.279747 1_555
Pd4 Zn1 2.670145 1_555
Pd4 Zn3 2.670145 1_555
Pd4 Pd6 2.803000 1_555
Pd4 Pd9 2.803000 1_555
Pd4 Pd7 3.279747 1_565
Pd5 Zn0 2.670145 1_555
Pd5 Zn1 2.670145 1_556
Pd5 Pd6 2.803000 1_556
Pd5 Pd8 3.279747 1_455
Pd6 Zn2 2.670145 1_565
Pd6 Zn1 2.670145 1_555
Pd6 Pd9 3.279747 1_555
Pd7 Zn0 2.670145 1_555
Pd7 Zn2 2.670145 1_556
Pd8 Zn3 2.670145 1_555
Pd8 Zn2 2.670145 1_555
Pd8 Pd9 2.803000 1_555
Pd9 Zn0 2.670145 1_665
Pd9 Zn3 2.670145 1_555
Pd10 Zn1 2.670145 1_656
Pd10 Zn3 2.670145 1_555
Pd10 Pd3 2.803000 1_556
Pd10 Pd5 2.803000 1_655
Pd10 Pd8 2.803000 1_555
Pd10 Pd7 3.279747 1_555
Pd11 Zn2 2.670145 1_566
Pd11 Zn3 2.670145 1_555
Pd11 Pd6 2.803000 1_556
Pd11 Pd7 2.803000 1_565
Pd11 Pd4 2.803000 1_555
Pd11 Pd2 3.279747 1_555
Pd11 Pd5 3.279747 1_555
