# generated using pymatgen
data_Mg14CrFe
_symmetry_space_group_name_H-M   'P 1'
_cell_length_a   6.23261594
_cell_length_b   6.08087850
_cell_length_c   9.83537558
_cell_angle_alpha   90.00000000
_cell_angle_beta   90.00000000
_cell_angle_gamma   119.19787088
_symmetry_Int_Tables_number   1
_chemical_formula_structural   Mg14CrFe
_chemical_formula_sum   'Mg14 Cr1 Fe1'
_cell_volume   325.39594597
_cell_formula_units_Z   1
loop_
 _symmetry_equiv_pos_site_id
 _symmetry_equiv_pos_as_xyz
  1  'x, y, z'
loop_
 _atom_site_type_symbol
 _atom_site_label
 _atom_site_symmetry_multiplicity
 _atom_site_fract_x
 _atom_site_fract_y
 _atom_site_fract_z
 _atom_site_occupancy
  Mg  Mg0  1  0.16890839  0.33445369  0.62500000  1
  Mg  Mg1  1  0.17009072  0.83504486  0.62500000  1
  Mg  Mg2  1  0.67406540  0.33911008  0.12500000  1
  Mg  Mg3  1  0.66350998  0.33119339  0.62500000  1
  Mg  Mg4  1  0.67406540  0.83495432  0.12500000  1
  Mg  Mg5  1  0.66350998  0.83231559  0.62500000  1
  Mg  Mg6  1  0.32254071  0.16239196  0.35153399  1
  Mg  Mg7  1  0.32254071  0.16239196  0.89846601  1
  Mg  Mg8  1  0.32254071  0.66014975  0.35153399  1
  Mg  Mg9  1  0.32254071  0.66014975  0.89846601  1
  Mg  Mg10  1  0.84885548  0.17442824  0.36335829  1
  Mg  Mg11  1  0.84885548  0.17442824  0.88664171  1
  Mg  Mg12  1  0.84593498  0.67296799  0.36960813  1
  Mg  Mg13  1  0.84593498  0.67296799  0.88039187  1
  Cr  Cr0  1  0.15031472  0.82515686  0.12500000  1
  Fe  Fe0  1  0.15579167  0.32789534  0.12500000  1
loop_
_geom_bond_atom_site_label_1
_geom_bond_atom_site_label_2
_geom_bond_distance
_geom_bond_site_symmetry_2
Mg0 Mg1 3.040446 1_545
Mg0 Mg1 3.040446 1_555
Mg0 Mg5 3.092381 1_555
Mg0 Mg3 3.092382 1_555
Mg0 Mg10 3.107132 1_455
Mg0 Mg11 3.107132 1_455
Mg0 Mg5 3.140330 1_445
Mg0 Mg3 3.140330 1_455
Mg0 Mg6 3.197376 1_555
Mg0 Mg7 3.197376 1_555
Mg0 Mg8 3.197381 1_555
Mg0 Mg9 3.197381 1_555
Mg1 Mg13 3.069189 1_455
Mg1 Mg12 3.069189 1_455
Mg1 Mg3 3.083423 1_565
Mg1 Mg5 3.083423 1_555
Mg1 Mg3 3.149260 1_455
Mg1 Mg5 3.149260 1_455
Mg1 Mg8 3.202180 1_555
Mg1 Mg9 3.202180 1_555
Mg1 Mg6 3.202185 1_565
Mg1 Mg7 3.202185 1_565
Mg2 Mg7 2.936331 1_554
Mg2 Mg6 2.936331 1_555
Mg2 Mg4 3.015169 1_555
Mg2 Mg4 3.065710 1_545
Mg3 Mg5 3.033615 1_545
Mg3 Mg5 3.047263 1_555
Mg3 Mg6 3.267371 1_555
Mg3 Mg7 3.267371 1_555
Mg4 Mg9 2.936331 1_554
Mg4 Mg8 2.936331 1_555
Mg5 Mg8 3.267371 1_555
Mg5 Mg9 3.267371 1_555
Mg10 Mg2 2.958029 1_555
Mg10 Mg4 2.958035 1_545
Mg10 Mg12 3.041102 1_545
Mg10 Mg12 3.041102 1_555
Mg10 Mg3 3.152726 1_555
Mg10 Mg5 3.152731 1_545
Mg11 Mg2 2.958029 1_556
Mg11 Mg4 2.958035 1_546
Mg11 Mg13 3.041102 1_545
Mg11 Mg13 3.041102 1_555
Mg11 Mg3 3.152726 1_555
Mg11 Mg5 3.152731 1_545
Mg12 Mg4 2.989168 1_555
Mg12 Mg2 2.989174 1_555
Mg12 Mg6 3.014540 1_665
Mg12 Mg8 3.014540 1_655
Mg12 Mg5 3.100975 1_555
Mg12 Mg3 3.100981 1_555
Mg12 Mg6 3.229705 1_555
Mg12 Mg8 3.229705 1_555
Mg13 Mg4 2.989168 1_556
Mg13 Mg2 2.989174 1_556
Mg13 Mg7 3.014540 1_665
Mg13 Mg9 3.014540 1_655
Mg13 Mg5 3.100975 1_555
Mg13 Mg3 3.100981 1_555
Mg13 Mg7 3.229705 1_555
Mg13 Mg9 3.229705 1_555
Cr0 Mg9 2.859028 1_554
Cr0 Mg8 2.859028 1_555
Cr0 Mg7 2.859035 1_564
Cr0 Mg6 2.859035 1_565
Cr0 Mg12 2.920685 1_455
Cr0 Mg13 2.920685 1_454
Cr0 Mg2 2.997793 1_455
Cr0 Mg4 2.997794 1_455
Cr0 Fe0 3.040585 1_555
Cr0 Fe0 3.040585 1_565
Cr0 Mg2 3.235691 1_565
Cr0 Mg4 3.235691 1_555
Fe0 Mg7 2.842117 1_554
Fe0 Mg6 2.842117 1_555
Fe0 Mg9 2.842124 1_554
Fe0 Mg8 2.842124 1_555
Fe0 Mg10 2.878311 1_455
Fe0 Mg11 2.878311 1_454
Fe0 Mg4 3.036266 1_445
Fe0 Mg2 3.036266 1_455
Fe0 Mg4 3.197487 1_555
Fe0 Mg2 3.197488 1_555
