# generated using pymatgen
data_NbH12N3O8
_symmetry_space_group_name_H-M   'P 1'
_cell_length_a   6.54404974
_cell_length_b   6.54404974
_cell_length_c   6.54404974
_cell_angle_alpha   114.49918481
_cell_angle_beta   114.49918481
_cell_angle_gamma   99.82499767
_symmetry_Int_Tables_number   1
_chemical_formula_structural   NbH12N3O8
_chemical_formula_sum   'Nb1 H12 N3 O8'
_cell_volume   211.26113764
_cell_formula_units_Z   1
loop_
 _symmetry_equiv_pos_site_id
 _symmetry_equiv_pos_as_xyz
  1  'x, y, z'
loop_
 _atom_site_type_symbol
 _atom_site_label
 _atom_site_symmetry_multiplicity
 _atom_site_fract_x
 _atom_site_fract_y
 _atom_site_fract_z
 _atom_site_occupancy
  Nb  Nb0  1  0.00000000  0.00000000  0.00000000  1
  H  H0  1  0.43157900  0.77648300  0.57001900  1
  H  H1  1  0.20646400  0.86156000  0.42998100  1
  H  H2  1  0.79353600  0.22351700  0.65509700  1
  H  H3  1  0.56842100  0.13844000  0.34490300  1
  H  H4  1  0.13844000  0.56842100  0.34490300  1
  H  H5  1  0.22351700  0.79353600  0.65509700  1
  H  H6  1  0.77648300  0.43157900  0.57001900  1
  H  H7  1  0.86156000  0.20646400  0.42998100  1
  H  H8  1  0.48024400  0.48024400  0.82683600  1
  H  H9  1  0.65340900  0.65340900  0.17316400  1
  H  H10  1  0.34659100  0.51975600  0.00000000  1
  H  H11  1  0.51975600  0.34659100  0.00000000  1
  N  N0  1  0.25000000  0.75000000  0.50000000  1
  N  N1  1  0.75000000  0.25000000  0.50000000  1
  N  N2  1  0.50000000  0.50000000  0.00000000  1
  O  O0  1  0.80743200  0.80743200  0.58182000  1
  O  O1  1  0.22561200  0.22561200  0.41818000  1
  O  O2  1  0.77438800  0.19256800  0.00000000  1
  O  O3  1  0.19256800  0.77438800  0.00000000  1
  O  O4  1  0.03585200  0.03585200  0.72130300  1
  O  O5  1  0.31454900  0.31454900  0.27869700  1
  O  O6  1  0.68545100  0.96414800  0.00000000  1
  O  O7  1  0.96414800  0.68545100  0.00000000  1
loop_
_geom_bond_atom_site_label_1
_geom_bond_atom_site_label_2
_geom_bond_distance
_geom_bond_site_symmetry_2
Nb0 O5 2.031585 1_555
Nb0 O4 2.031585 1_554
Nb0 O6 2.031585 1_445
Nb0 O7 2.031585 1_445
Nb0 O0 2.098287 1_444
Nb0 O2 2.098287 1_455
Nb0 O1 2.098287 1_555
Nb0 O3 2.098287 1_545
H0 N0 1.031626 1_555
H1 N0 1.031626 1_555
H2 N1 1.031633 1_555
H3 N1 1.031628 1_555
H4 N0 1.031628 1_555
H5 N0 1.031633 1_555
H6 N1 1.031626 1_555
H7 N1 1.031626 1_555
H8 N2 1.033849 1_556
H9 N2 1.033853 1_555
H10 N2 1.033855 1_555
H11 N2 1.033855 1_555
O0 O4 1.508718 1_665
O1 O5 1.508718 1_555
O2 O6 1.508718 1_545
O3 O7 1.508718 1_455
