# generated using pymatgen
data_YbCu4Ni
_symmetry_space_group_name_H-M   'P 1'
_cell_length_a   4.84687163
_cell_length_b   4.84687163
_cell_length_c   4.84687163
_cell_angle_alpha   60.00000000
_cell_angle_beta   60.00000000
_cell_angle_gamma   60.00000000
_symmetry_Int_Tables_number   1
_chemical_formula_structural   YbCu4Ni
_chemical_formula_sum   'Yb1 Cu4 Ni1'
_cell_volume   80.51365716
_cell_formula_units_Z   1
loop_
 _symmetry_equiv_pos_site_id
 _symmetry_equiv_pos_as_xyz
  1  'x, y, z'
loop_
 _atom_site_type_symbol
 _atom_site_label
 _atom_site_symmetry_multiplicity
 _atom_site_fract_x
 _atom_site_fract_y
 _atom_site_fract_z
 _atom_site_occupancy
  Yb  Yb0  1  0.00000000  0.00000000  0.00000000  1
  Cu  Cu0  1  0.62407534  0.62407534  0.12777297  1
  Cu  Cu1  1  0.62407534  0.12777297  0.62407534  1
  Cu  Cu2  1  0.12777297  0.62407534  0.62407534  1
  Cu  Cu3  1  0.62407534  0.62407534  0.62407534  1
  Ni  Ni0  1  0.25000000  0.25000000  0.25000000  1
loop_
_geom_bond_atom_site_label_1
_geom_bond_atom_site_label_2
_geom_bond_distance
_geom_bond_site_symmetry_2
Cu0 Cu1 2.405514 1_555
Cu0 Cu2 2.405514 1_555
Cu0 Cu3 2.405514 1_555
Cu0 Cu3 2.441358 1_554
Cu0 Cu2 2.441358 1_654
Cu0 Cu1 2.441358 1_564
Cu0 Ni0 2.839838 1_555
Cu0 Ni0 2.839842 1_655
Cu0 Ni0 2.839842 1_565
Cu0 Yb0 2.843660 1_565
Cu0 Yb0 2.843660 1_655
Cu0 Yb0 2.843664 1_665
Cu1 Cu2 2.405514 1_555
Cu1 Cu3 2.405514 1_555
Cu1 Cu3 2.441358 1_545
Cu1 Cu2 2.441358 1_645
Cu1 Ni0 2.839838 1_555
Cu1 Ni0 2.839842 1_655
Cu1 Ni0 2.839842 1_556
Cu1 Yb0 2.843660 1_556
Cu1 Yb0 2.843660 1_655
Cu1 Yb0 2.843664 1_656
Cu2 Cu3 2.405514 1_555
Cu2 Cu3 2.441358 1_455
Cu2 Ni0 2.839838 1_555
Cu2 Ni0 2.839842 1_556
Cu2 Ni0 2.839842 1_565
Cu2 Yb0 2.843660 1_565
Cu2 Yb0 2.843660 1_556
Cu2 Yb0 2.843664 1_566
Cu3 Ni0 2.839840 1_655
Cu3 Ni0 2.839840 1_556
Cu3 Ni0 2.839840 1_565
Cu3 Yb0 2.843662 1_566
Cu3 Yb0 2.843662 1_656
Cu3 Yb0 2.843662 1_665
Ni0 Yb0 2.968091 1_655
Ni0 Yb0 2.968091 1_565
Ni0 Yb0 2.968091 1_555
Ni0 Yb0 2.968091 1_556
