# generated using pymatgen
data_B
_symmetry_space_group_name_H-M   'P 1'
_cell_length_a   7.38810231
_cell_length_b   7.38884547
_cell_length_c   7.38874991
_cell_angle_alpha   89.99997146
_cell_angle_beta   89.99992974
_cell_angle_gamma   89.99993835
_symmetry_Int_Tables_number   1
_chemical_formula_structural   B
_chemical_formula_sum   B48
_cell_volume   403.34850520
_cell_formula_units_Z   48
loop_
 _symmetry_equiv_pos_site_id
 _symmetry_equiv_pos_as_xyz
  1  'x, y, z'
loop_
 _atom_site_type_symbol
 _atom_site_label
 _atom_site_symmetry_multiplicity
 _atom_site_fract_x
 _atom_site_fract_y
 _atom_site_fract_z
 _atom_site_occupancy
  B  B0  1  0.66954538  0.67000133  0.49993503  1
  B  B1  1  0.33046635  0.16999767  0.00006487  1
  B  B2  1  0.83045939  0.32999939  0.99993504  1
  B  B3  1  0.16953630  0.82999450  0.50006516  1
  B  B4  1  0.49993612  0.66947628  0.67001441  1
  B  B5  1  0.00006357  0.33052734  0.17001315  1
  B  B6  1  0.99993714  0.83052215  0.32999040  1
  B  B7  1  0.50006369  0.16947002  0.82999740  1
  B  B8  1  0.66995330  0.49993726  0.66952177  1
  B  B9  1  0.16994177  0.00006145  0.33048639  1
  B  B10  1  0.33006305  0.99993813  0.83049266  1
  B  B11  1  0.83005194  0.50006221  0.16952160  1
  B  B12  1  0.33045462  0.32999867  0.50006497  1
  B  B13  1  0.66953365  0.83000233  0.99993513  1
  B  B14  1  0.16954061  0.67000061  0.00006496  1
  B  B15  1  0.83046370  0.17000550  0.49993484  1
  B  B16  1  0.50006388  0.33052372  0.32998559  1
  B  B17  1  0.99993643  0.66947266  0.82998685  1
  B  B18  1  0.00006286  0.16947785  0.67000960  1
  B  B19  1  0.49993631  0.83052998  0.17000260  1
  B  B20  1  0.33004670  0.50006274  0.33047823  1
  B  B21  1  0.83005823  0.99993855  0.66951361  1
  B  B22  1  0.66993695  0.00006187  0.16950734  1
  B  B23  1  0.16994806  0.49993779  0.83047840  1
  B  B24  1  0.67002689  0.16956117  0.99968271  1
  B  B25  1  0.32996129  0.66956657  0.50031652  1
  B  B26  1  0.82997189  0.83043179  0.49968283  1
  B  B27  1  0.17003333  0.33043496  0.00031660  1
  B  B28  1  0.99968188  0.66996581  0.16957905  1
  B  B29  1  0.50031735  0.33003304  0.66958026  1
  B  B30  1  0.49968258  0.83003598  0.83043045  1
  B  B31  1  0.00031770  0.16996928  0.33042452  1
  B  B32  1  0.16950793  0.99968253  0.67000482  1
  B  B33  1  0.66952104  0.50031809  0.32998476  1
  B  B34  1  0.83048671  0.49968270  0.82998732  1
  B  B35  1  0.33049501  0.00031764  0.17000030  1
  B  B36  1  0.32997311  0.83043883  0.00031729  1
  B  B37  1  0.67003871  0.33043343  0.49968348  1
  B  B38  1  0.17002811  0.16956821  0.50031717  1
  B  B39  1  0.82996667  0.66956504  0.99968340  1
  B  B40  1  0.00031812  0.33003419  0.83042095  1
  B  B41  1  0.49968265  0.66996696  0.33041974  1
  B  B42  1  0.50031742  0.16996402  0.16956955  1
  B  B43  1  0.99968230  0.83003072  0.66957548  1
  B  B44  1  0.83049207  0.00031747  0.32999518  1
  B  B45  1  0.33047896  0.49968191  0.67001524  1
  B  B46  1  0.16951329  0.50031730  0.17001268  1
  B  B47  1  0.66950499  0.99968236  0.82999970  1
loop_
_geom_bond_atom_site_label_1
_geom_bond_atom_site_label_2
_geom_bond_distance
_geom_bond_site_symmetry_2
B0 B26 1.676300 1_555
B0 B41 1.773051 1_555
B0 B33 1.774474 1_555
B0 B8 1.774567 1_555
B0 B4 1.774677 1_555
B1 B27 1.676368 1_555
B1 B42 1.772934 1_555
B1 B35 1.774378 1_555
B1 B10 1.774468 1_544
B1 B7 1.774552 1_554
B2 B24 1.676372 1_555
B2 B40 1.773021 1_655
B2 B34 1.774460 1_555
B2 B5 1.774646 1_656
B3 B43 1.772977 1_455
B3 B32 1.774443 1_555
B3 B9 1.774540 1_565
B3 B6 1.774602 1_455
B4 B45 1.772401 1_555
B4 B8 1.773995 1_555
B6 B9 1.773933 1_665
B10 B32 1.677261 1_555
B10 B36 1.772856 1_556
B10 B30 1.773811 1_555
B10 B7 1.773873 1_565
B11 B33 1.677003 1_555
B11 B39 1.772945 1_554
B11 B28 1.773874 1_555
B11 B5 1.773945 1_655
B11 B2 1.774560 1_554
B12 B38 1.676300 1_555
B12 B29 1.773051 1_555
B12 B45 1.774474 1_555
B12 B20 1.774567 1_555
B12 B16 1.774677 1_555
B13 B39 1.676368 1_555
B13 B30 1.772934 1_555
B13 B47 1.774378 1_555
B13 B22 1.774468 1_566
B13 B19 1.774552 1_556
B14 B36 1.676372 1_555
B14 B28 1.773021 1_455
B14 B46 1.774460 1_555
B14 B23 1.774560 1_554
B14 B17 1.774646 1_454
B15 B37 1.676277 1_555
B15 B31 1.772977 1_655
B15 B44 1.774443 1_555
B15 B21 1.774540 1_545
B15 B18 1.774602 1_655
B16 B42 1.676994 1_555
B16 B33 1.772401 1_555
B16 B20 1.773995 1_555
B16 B37 1.774590 1_555
B17 B43 1.676960 1_555
B17 B34 1.772339 1_555
B17 B23 1.773945 1_655
B17 B39 1.774554 1_555
B18 B40 1.676952 1_555
B18 B32 1.772341 1_545
B18 B21 1.773933 1_445
B18 B38 1.774509 1_555
B19 B41 1.677016 1_555
B19 B35 1.772281 1_565
B19 B22 1.773873 1_565
B19 B36 1.774463 1_555
B20 B46 1.677031 1_555
B20 B25 1.772952 1_555
B20 B41 1.773909 1_555
B21 B47 1.677240 1_555
B21 B26 1.772928 1_555
B21 B43 1.773864 1_555
B22 B44 1.677261 1_555
B22 B24 1.772856 1_554
B22 B42 1.773811 1_555
B23 B45 1.677003 1_555
B23 B27 1.772945 1_556
B23 B40 1.773874 1_555
B24 B47 1.774103 1_545
B24 B42 1.774191 1_556
B24 B7 1.774463 1_555
B25 B3 1.676277 1_555
B25 B45 1.774215 1_555
B25 B41 1.774305 1_555
B25 B4 1.774590 1_555
B26 B44 1.774162 1_565
B26 B43 1.774228 1_555
B26 B6 1.774509 1_555
B27 B46 1.774190 1_555
B27 B40 1.774269 1_554
B27 B5 1.774554 1_555
B28 B6 1.676952 1_555
B28 B46 1.773595 1_655
B28 B39 1.774269 1_554
B29 B7 1.677016 1_555
B29 B45 1.773633 1_555
B29 B8 1.773909 1_555
B29 B37 1.774305 1_555
B30 B4 1.676994 1_555
B30 B47 1.773538 1_555
B30 B36 1.774191 1_556
B31 B5 1.676960 1_555
B31 B44 1.773583 1_455
B31 B9 1.773864 1_555
B31 B38 1.774228 1_555
B32 B43 1.773583 1_455
B32 B38 1.774162 1_565
B33 B41 1.773633 1_555
B33 B37 1.774215 1_555
B34 B8 1.677031 1_555
B34 B40 1.773595 1_655
B34 B39 1.774190 1_555
B35 B9 1.677240 1_555
B35 B42 1.773538 1_555
B35 B36 1.774103 1_545
B37 B8 1.772952 1_555
B38 B9 1.772928 1_555
B44 B6 1.772341 1_545
B46 B5 1.772339 1_555
B47 B7 1.772281 1_565
