# generated using pymatgen
data_HoB4Os
_symmetry_space_group_name_H-M   'P 1'
_cell_length_a   3.56446800
_cell_length_b   5.96245600
_cell_length_c   11.53036800
_cell_angle_alpha   90.00000000
_cell_angle_beta   90.00000000
_cell_angle_gamma   90.00000000
_symmetry_Int_Tables_number   1
_chemical_formula_structural   HoB4Os
_chemical_formula_sum   'Ho4 B16 Os4'
_cell_volume   245.05472216
_cell_formula_units_Z   4
loop_
 _symmetry_equiv_pos_site_id
 _symmetry_equiv_pos_as_xyz
  1  'x, y, z'
loop_
 _atom_site_type_symbol
 _atom_site_label
 _atom_site_symmetry_multiplicity
 _atom_site_fract_x
 _atom_site_fract_y
 _atom_site_fract_z
 _atom_site_occupancy
  Ho  Ho0  1  0.00000000  0.62810900  0.34974400  1
  Ho  Ho1  1  0.00000000  0.37189100  0.65025600  1
  Ho  Ho2  1  0.00000000  0.12810900  0.15025600  1
  Ho  Ho3  1  0.00000000  0.87189100  0.84974400  1
  B  B0  1  0.50000000  0.78905300  0.18594200  1
  B  B1  1  0.50000000  0.21094700  0.81405800  1
  B  B2  1  0.50000000  0.28905300  0.31405800  1
  B  B3  1  0.50000000  0.71094700  0.68594200  1
  B  B4  1  0.50000000  0.86402800  0.02999600  1
  B  B5  1  0.50000000  0.13597200  0.97000400  1
  B  B6  1  0.50000000  0.36402800  0.47000400  1
  B  B7  1  0.50000000  0.63597200  0.52999600  1
  B  B8  1  0.50000000  0.88719500  0.45320600  1
  B  B9  1  0.50000000  0.11280500  0.54679400  1
  B  B10  1  0.50000000  0.38719500  0.04679400  1
  B  B11  1  0.50000000  0.61280500  0.95320600  1
  B  B12  1  0.50000000  0.97469300  0.30854800  1
  B  B13  1  0.50000000  0.02530700  0.69145200  1
  B  B14  1  0.50000000  0.47469300  0.19145200  1
  B  B15  1  0.50000000  0.52530700  0.80854800  1
  Os  Os0  1  0.00000000  0.64134300  0.09350900  1
  Os  Os1  1  0.00000000  0.35865700  0.90649100  1
  Os  Os2  1  0.00000000  0.14134300  0.40649100  1
  Os  Os3  1  0.00000000  0.85865700  0.59350900  1
loop_
_geom_bond_atom_site_label_1
_geom_bond_atom_site_label_2
_geom_bond_distance
_geom_bond_site_symmetry_2
Ho0 Os0 2.955537 1_555
Ho0 Os2 2.975163 1_555
Ho0 Os3 3.128842 1_555
Ho0 Os2 3.129306 1_565
Ho1 Os1 2.955537 1_555
Ho1 Os3 2.975163 1_555
Ho1 Os2 3.128842 1_555
Ho1 Os3 3.129306 1_545
Ho2 Os2 2.955537 1_555
Ho2 Os0 2.975163 1_545
Ho2 Os1 3.128842 1_554
Ho2 Os0 3.129306 1_555
Ho3 Os3 2.955537 1_555
Ho3 Os1 2.975163 1_565
Ho3 Os0 3.128842 1_556
Ho3 Os1 3.129306 1_555
B0 B12 1.795463 1_555
B0 B4 1.852851 1_555
B0 B14 1.875434 1_555
B0 Os0 2.255641 1_555
B0 Os0 2.255641 1_655
B0 Ho2 2.726272 1_565
B0 Ho2 2.726272 1_665
B0 Ho0 2.768467 1_655
B0 Ho0 2.768467 1_555
B1 B13 1.795463 1_555
B1 B5 1.852851 1_555
B1 B15 1.875434 1_555
B1 Os1 2.255641 1_655
B1 Os1 2.255641 1_555
B1 Ho3 2.726272 1_545
B1 Ho3 2.726272 1_645
B1 Ho1 2.768467 1_555
B1 Ho1 2.768467 1_655
B2 B6 1.852851 1_555
B2 Os2 2.255641 1_655
B2 Os2 2.255641 1_555
B2 Ho0 2.726272 1_555
B2 Ho0 2.726272 1_655
B2 Ho2 2.768467 1_555
B2 Ho2 2.768467 1_655
B3 B7 1.852851 1_555
B3 Os3 2.255641 1_555
B3 Os3 2.255641 1_655
B3 Ho1 2.726272 1_655
B3 Ho1 2.726272 1_555
B3 Ho3 2.768467 1_555
B3 Ho3 2.768467 1_655
B4 B5 1.762840 1_564
B4 Os0 2.339996 1_555
B4 Os0 2.339996 1_655
B4 Ho3 2.738282 1_654
B4 Ho3 2.738282 1_554
B4 Ho2 2.752891 1_565
B4 Ho2 2.752891 1_665
B5 Os1 2.339996 1_555
B5 Os1 2.339996 1_655
B5 Ho2 2.738282 1_556
B5 Ho2 2.738282 1_656
B5 Ho3 2.752891 1_645
B5 Ho3 2.752891 1_545
B6 B9 1.740025 1_555
B6 B7 1.762840 1_555
B6 Os2 2.339996 1_555
B6 Os2 2.339996 1_655
B6 Ho1 2.738282 1_655
B6 Ho1 2.738282 1_555
B6 Ho0 2.752891 1_555
B6 Ho0 2.752891 1_655
B7 B8 1.740025 1_555
B7 Os3 2.339996 1_655
B7 Os3 2.339996 1_555
B7 Ho0 2.738282 1_555
B7 Ho0 2.738282 1_655
B7 Ho1 2.752891 1_655
B7 Ho1 2.752891 1_555
B8 B9 1.724529 1_565
B8 Os2 2.400576 1_565
B8 Os2 2.400576 1_665
B8 Os3 2.412967 1_555
B8 Os3 2.412967 1_655
B8 Ho0 2.643080 1_655
B8 Ho0 2.643080 1_555
B9 Os3 2.400576 1_545
B9 Os3 2.400576 1_645
B9 Os2 2.412967 1_555
B9 Os2 2.412967 1_655
B9 Ho1 2.643080 1_555
B9 Ho1 2.643080 1_655
B10 B11 1.724529 1_554
B10 B5 1.740025 1_554
B10 B14 1.747645 1_555
B10 Os0 2.400576 1_555
B10 Os0 2.400576 1_655
B10 Os1 2.412967 1_654
B10 Os1 2.412967 1_554
B10 Ho2 2.643080 1_555
B10 Ho2 2.643080 1_655
B11 B4 1.740025 1_556
B11 B15 1.747645 1_555
B11 Os1 2.400576 1_655
B11 Os1 2.400576 1_555
B11 Os0 2.412967 1_656
B11 Os0 2.412967 1_556
B11 Ho3 2.643080 1_555
B11 Ho3 2.643080 1_655
B12 B8 1.747645 1_555
B12 B2 1.875434 1_565
B12 Os2 2.332176 1_665
B12 Os2 2.332176 1_565
B12 Ho2 2.710042 1_665
B12 Ho2 2.710042 1_565
B12 Ho0 2.769905 1_655
B12 Ho0 2.769905 1_555
B13 B9 1.747645 1_555
B13 B3 1.875434 1_545
B13 Os3 2.332176 1_545
B13 Os3 2.332176 1_645
B13 Ho3 2.710042 1_545
B13 Ho3 2.710042 1_645
B13 Ho1 2.769905 1_655
B13 Ho1 2.769905 1_555
B14 B2 1.795463 1_555
B14 Os0 2.332176 1_555
B14 Os0 2.332176 1_655
B14 Ho0 2.710042 1_655
B14 Ho0 2.710042 1_555
B14 Ho2 2.769905 1_655
B14 Ho2 2.769905 1_555
B15 B3 1.795463 1_555
B15 Os1 2.332176 1_555
B15 Os1 2.332176 1_655
B15 Ho1 2.710042 1_655
B15 Ho1 2.710042 1_555
B15 Ho3 2.769905 1_655
B15 Ho3 2.769905 1_555
Os0 Os1 2.736955 1_554
Os2 Os3 2.736955 1_545
