# generated using pymatgen
data_BaYMg6
_symmetry_space_group_name_H-M   'P 1'
_cell_length_a   5.42546100
_cell_length_b   7.33249300
_cell_length_c   11.59205600
_cell_angle_alpha   90.00000000
_cell_angle_beta   90.00000000
_cell_angle_gamma   90.00000000
_symmetry_Int_Tables_number   1
_chemical_formula_structural   BaYMg6
_chemical_formula_sum   'Ba2 Y2 Mg12'
_cell_volume   461.15696629
_cell_formula_units_Z   2
loop_
 _symmetry_equiv_pos_site_id
 _symmetry_equiv_pos_as_xyz
  1  'x, y, z'
loop_
 _atom_site_type_symbol
 _atom_site_label
 _atom_site_symmetry_multiplicity
 _atom_site_fract_x
 _atom_site_fract_y
 _atom_site_fract_z
 _atom_site_occupancy
  Ba  Ba0  1  0.50000000  0.50000000  0.84111500  1
  Ba  Ba1  1  0.50000000  0.00000000  0.34111500  1
  Y  Y0  1  0.50000000  0.50000000  0.34256200  1
  Y  Y1  1  0.50000000  0.00000000  0.84256200  1
  Mg  Mg0  1  0.50000000  0.24967700  0.08508400  1
  Mg  Mg1  1  0.50000000  0.75032300  0.08508400  1
  Mg  Mg2  1  0.00000000  0.23067700  0.92012600  1
  Mg  Mg3  1  0.00000000  0.76932300  0.92012600  1
  Mg  Mg4  1  0.00000000  0.50000000  0.15932300  1
  Mg  Mg5  1  0.00000000  0.50000000  0.64658400  1
  Mg  Mg6  1  0.50000000  0.74967700  0.58508400  1
  Mg  Mg7  1  0.50000000  0.25032300  0.58508400  1
  Mg  Mg8  1  0.00000000  0.73067700  0.42012600  1
  Mg  Mg9  1  0.00000000  0.26932300  0.42012600  1
  Mg  Mg10  1  0.00000000  0.00000000  0.65932300  1
  Mg  Mg11  1  0.00000000  0.00000000  0.14658400  1
loop_
_geom_bond_atom_site_label_1
_geom_bond_atom_site_label_2
_geom_bond_distance
_geom_bond_site_symmetry_2
Ba0 Mg1 3.371527 1_556
Ba0 Mg0 3.371527 1_556
Ba0 Mg3 3.478168 1_555
Ba0 Mg3 3.478168 1_655
Ba0 Mg2 3.478168 1_555
Ba0 Mg2 3.478168 1_655
Ba0 Mg6 3.487154 1_555
Ba0 Mg7 3.487154 1_555
Ba0 Mg5 3.527605 1_555
Ba0 Mg5 3.527605 1_655
Ba0 Y1 3.666285 1_555
Ba0 Y1 3.666285 1_565
Ba1 Mg7 3.371527 1_555
Ba1 Mg6 3.371527 1_545
Ba1 Mg8 3.478168 1_545
Ba1 Mg9 3.478168 1_555
Ba1 Mg9 3.478168 1_655
Ba1 Mg8 3.478168 1_645
Ba1 Mg0 3.487154 1_555
Ba1 Mg1 3.487154 1_545
Ba1 Mg11 3.527605 1_555
Ba1 Mg11 3.527605 1_655
Ba1 Y0 3.666285 1_545
Ba1 Y0 3.666285 1_555
Mg0 Mg2 3.321872 1_654
Mg0 Mg2 3.321872 1_554
Mg0 Mg11 3.349450 1_555
Mg0 Mg11 3.349450 1_655
Mg0 Y1 3.354882 1_554
Mg0 Mg4 3.386523 1_555
Mg0 Mg4 3.386523 1_655
Mg0 Y0 3.503921 1_555
Mg1 Mg3 3.321872 1_654
Mg1 Mg3 3.321872 1_554
Mg1 Mg11 3.349450 1_565
Mg1 Mg11 3.349450 1_665
Mg1 Y1 3.354882 1_564
Mg1 Mg4 3.386523 1_655
Mg1 Mg4 3.386523 1_555
Mg1 Y0 3.503921 1_555
Mg2 Y1 3.320888 1_455
Mg2 Y1 3.320888 1_555
Mg2 Mg3 3.382875 1_545
Mg2 Mg4 3.404146 1_556
Mg3 Y1 3.320888 1_465
Mg3 Y1 3.320888 1_565
Mg3 Mg4 3.404146 1_556
Mg4 Y0 3.445400 1_455
Mg4 Y0 3.445400 1_555
Mg4 Mg8 3.464240 1_555
Mg4 Mg9 3.464240 1_555
Mg5 Mg9 3.122849 1_555
Mg5 Mg8 3.122849 1_555
Mg5 Mg6 3.349450 1_455
Mg5 Mg6 3.349450 1_555
Mg5 Mg7 3.349450 1_555
Mg5 Mg7 3.349450 1_455
Mg6 Mg8 3.321872 1_655
Mg6 Mg8 3.321872 1_555
Mg6 Y0 3.354882 1_555
Mg6 Y1 3.503921 1_565
Mg7 Mg9 3.321872 1_655
Mg7 Mg9 3.321872 1_555
Mg7 Y0 3.354882 1_555
Mg7 Y1 3.503921 1_555
Mg8 Y0 3.320888 1_455
Mg8 Y0 3.320888 1_555
Mg8 Mg9 3.382875 1_555
Mg9 Y0 3.320888 1_455
Mg9 Y0 3.320888 1_555
Mg10 Mg7 3.386523 1_455
Mg10 Mg7 3.386523 1_555
Mg10 Mg6 3.386523 1_545
Mg10 Mg6 3.386523 1_445
Mg10 Mg8 3.404146 1_545
Mg10 Mg9 3.404146 1_555
Mg10 Y1 3.445400 1_455
Mg10 Y1 3.445400 1_555
Mg10 Mg2 3.464240 1_555
Mg10 Mg3 3.464240 1_545
Mg11 Mg3 3.122849 1_544
Mg11 Mg2 3.122849 1_554
