# generated using pymatgen
data_Sr3FeCo(ClO2)2
_symmetry_space_group_name_H-M   'P 1'
_cell_length_a   11.62818620
_cell_length_b   11.62818620
_cell_length_c   11.62818620
_cell_angle_alpha   159.74403245
_cell_angle_beta   159.74403245
_cell_angle_gamma   28.79953817
_symmetry_Int_Tables_number   1
_chemical_formula_structural   Sr3FeCo(ClO2)2
_chemical_formula_sum   'Sr3 Fe1 Co1 Cl2 O4'
_cell_volume   188.36747151
_cell_formula_units_Z   1
loop_
 _symmetry_equiv_pos_site_id
 _symmetry_equiv_pos_as_xyz
  1  'x, y, z'
loop_
 _atom_site_type_symbol
 _atom_site_label
 _atom_site_symmetry_multiplicity
 _atom_site_fract_x
 _atom_site_fract_y
 _atom_site_fract_z
 _atom_site_occupancy
  Sr  Sr0  1  0.84984800  0.84984800  0.00000000  1
  Sr  Sr1  1  0.15078900  0.15078900  0.00000000  1
  Sr  Sr2  1  0.99719100  0.99719100  0.00000000  1
  Fe  Fe0  1  0.57347900  0.57347900  0.00000000  1
  Co  Co0  1  0.42040600  0.42040600  0.00000000  1
  Cl  Cl0  1  0.70560300  0.70560300  0.00000000  1
  Cl  Cl1  1  0.30220000  0.30220000  0.00000000  1
  O  O0  1  0.07723000  0.57723000  0.50000000  1
  O  O1  1  0.57723000  0.07723000  0.50000000  1
  O  O2  1  0.92301200  0.42301200  0.50000000  1
  O  O3  1  0.42301200  0.92301200  0.50000000  1
loop_
_geom_bond_atom_site_label_1
_geom_bond_atom_site_label_2
_geom_bond_distance
_geom_bond_site_symmetry_2
Fe0 O0 2.046533 1_655
Fe0 O1 2.046533 1_565
Fe0 O0 2.046533 1_554
Fe0 O1 2.046533 1_554
Co0 O2 2.045630 1_555
Co0 O3 2.045630 1_555
Co0 O2 2.045630 1_454
Co0 O3 2.045630 1_544
Cl0 Fe0 2.976193 1_555
Cl0 Sr1 3.144339 1_554
Cl0 Sr1 3.144339 1_565
Cl0 Sr1 3.144339 1_655
Cl0 Sr1 3.144339 1_666
Cl0 Sr0 3.249227 1_555
Cl1 Co0 2.662679 1_555
Cl1 Sr0 3.084527 1_545
Cl1 Sr0 3.084527 1_455
Cl1 Sr0 3.084527 1_556
Cl1 Sr0 3.084527 1_444
Cl1 Sr1 3.410647 1_555
O0 Sr1 2.631865 1_555
O0 Sr1 2.631865 1_566
O0 Sr2 2.726123 1_445
O0 Sr2 2.726123 1_456
O1 Sr1 2.631865 1_555
O1 Sr1 2.631865 1_656
O1 Sr2 2.726123 1_445
O1 Sr2 2.726123 1_546
O2 Sr0 2.626272 1_556
O2 Sr0 2.626272 1_545
O2 Sr2 2.640680 1_556
O2 Sr2 2.640680 1_545
O3 Sr0 2.626272 1_556
O3 Sr0 2.626272 1_455
O3 Sr2 2.640680 1_556
O3 Sr2 2.640680 1_455
