# generated using pymatgen
data_Sr2AlFeCu2O7
_symmetry_space_group_name_H-M   'P 1'
_cell_length_a   5.31518468
_cell_length_b   5.40242765
_cell_length_c   12.20561045
_cell_angle_alpha   102.80009739
_cell_angle_beta   102.57431662
_cell_angle_gamma   89.93888972
_symmetry_Int_Tables_number   1
_chemical_formula_structural   Sr2AlFeCu2O7
_chemical_formula_sum   'Sr4 Al2 Fe2 Cu4 O14'
_cell_volume   333.16555706
_cell_formula_units_Z   2
loop_
 _symmetry_equiv_pos_site_id
 _symmetry_equiv_pos_as_xyz
  1  'x, y, z'
loop_
 _atom_site_type_symbol
 _atom_site_label
 _atom_site_symmetry_multiplicity
 _atom_site_fract_x
 _atom_site_fract_y
 _atom_site_fract_z
 _atom_site_occupancy
  Sr  Sr0  1  0.33813300  0.33597300  0.70247100  1
  Sr  Sr1  1  0.63685100  0.66214300  0.29784700  1
  Sr  Sr2  1  0.83825500  0.86521300  0.70236000  1
  Sr  Sr3  1  0.13622300  0.13351700  0.29788100  1
  Al  Al0  1  0.98173400  0.99793100  0.00017300  1
  Al  Al1  1  0.48321700  0.49667400  0.00019800  1
  Fe  Fe0  1  0.27843900  0.68284800  0.50018100  1
  Fe  Fe1  1  0.77829200  0.31598500  0.50014800  1
  Cu  Cu0  1  0.92217200  0.44150400  0.88318600  1
  Cu  Cu1  1  0.04036900  0.55465600  0.11730700  1
  Cu  Cu2  1  0.42189700  0.93824200  0.88304500  1
  Cu  Cu3  1  0.53982700  0.05684000  0.11735600  1
  O  O0  1  0.14491500  0.34818200  0.50050700  1
  O  O1  1  0.64492700  0.65102500  0.50005200  1
  O  O2  1  0.24904100  0.26665300  0.89321300  1
  O  O3  1  0.35669900  0.72854800  0.10689100  1
  O  O4  1  0.74882600  0.12379000  0.89345800  1
  O  O5  1  0.85672200  0.87269700  0.10721600  1
  O  O6  1  0.60126400  0.61942100  0.89079400  1
  O  O7  1  0.71162300  0.37552500  0.10992400  1
  O  O8  1  0.10047900  0.76753200  0.89030800  1
  O  O9  1  0.21115400  0.22783200  0.10940100  1
  O  O10  1  0.29348300  0.85869400  0.65432500  1
  O  O11  1  0.63937300  0.14092900  0.34602000  1
  O  O12  1  0.79214300  0.29414300  0.65406000  1
  O  O13  1  0.13937100  0.70340100  0.34590300  1
loop_
_geom_bond_atom_site_label_1
_geom_bond_atom_site_label_2
_geom_bond_distance
_geom_bond_site_symmetry_2
Al0 O9 1.835390 1_665
Al0 O8 1.836603 1_654
Al0 O5 1.837633 1_555
Al0 O4 1.838466 1_564
Al1 O3 1.836833 1_555
Al1 O6 1.837017 1_554
Al1 O7 1.837017 1_555
Al1 O2 1.837180 1_554
Fe0 O13 1.895001 1_555
Fe0 O10 1.895077 1_555
Fe0 O0 1.944157 1_555
Fe0 O1 1.955652 1_555
Fe1 O12 1.893787 1_555
Fe1 O11 1.893928 1_555
Fe1 O1 1.943330 1_555
Fe1 O0 1.955570 1_655
Cu0 O6 1.966667 1_555
Cu0 O2 1.969995 1_655
Cu0 O8 1.976849 1_655
Cu0 O4 1.989920 1_555
Cu0 O12 2.665637 1_555
Cu1 O3 1.968506 1_555
Cu1 O7 1.973390 1_455
Cu1 O9 1.977385 1_555
Cu1 O5 1.989475 1_455
Cu1 O13 2.660027 1_555
Cu2 O8 1.970418 1_555
Cu2 O4 1.972724 1_565
Cu2 O6 1.978374 1_555
Cu2 O2 1.988963 1_565
Cu2 O10 2.661454 1_555
Cu3 O5 1.968419 1_545
Cu3 O9 1.969033 1_555
Cu3 O7 1.978587 1_555
Cu3 O3 1.989592 1_545
Cu3 O11 2.659255 1_555
O0 Sr0 2.470900 1_555
O0 Sr3 2.478535 1_555
O1 Sr1 2.473095 1_555
O1 Sr2 2.474659 1_555
O2 Sr0 2.579025 1_555
O3 Sr1 2.576148 1_555
O4 Sr2 2.579797 1_545
O5 Sr3 2.579609 1_665
O6 Sr0 2.574813 1_555
O7 Sr1 2.576544 1_555
O8 Sr2 2.574158 1_455
O9 Sr3 2.574756 1_555
O10 Sr0 2.513825 1_565
O10 Sr2 2.609195 1_455
O10 Sr2 2.825095 1_555
O10 Sr0 3.008254 1_555
O11 Sr1 2.521741 1_545
O11 Sr3 2.608549 1_555
O11 Sr3 2.825931 1_655
O11 Sr1 3.000809 1_555
O12 Sr2 2.513667 1_545
O12 Sr0 2.604614 1_555
O12 Sr0 2.831543 1_655
O12 Sr2 3.009759 1_555
O13 Sr3 2.518418 1_565
O13 Sr1 2.605588 1_455
O13 Sr1 2.828715 1_555
O13 Sr3 3.003134 1_555
