# generated using pymatgen
data_Fe6O5F7
_symmetry_space_group_name_H-M   'P 1'
_cell_length_a   5.69043000
_cell_length_b   5.70234933
_cell_length_c   7.25005236
_cell_angle_alpha   73.49081208
_cell_angle_beta   73.41316609
_cell_angle_gamma   74.91739691
_symmetry_Int_Tables_number   1
_chemical_formula_structural   Fe6O5F7
_chemical_formula_sum   'Fe6 O5 F7'
_cell_volume   212.02567169
_cell_formula_units_Z   1
loop_
 _symmetry_equiv_pos_site_id
 _symmetry_equiv_pos_as_xyz
  1  'x, y, z'
loop_
 _atom_site_type_symbol
 _atom_site_label
 _atom_site_symmetry_multiplicity
 _atom_site_fract_x
 _atom_site_fract_y
 _atom_site_fract_z
 _atom_site_occupancy
  Fe  Fe0  1  0.67081200  0.70025600  0.81853300  1
  Fe  Fe1  1  0.37402800  0.32628800  0.67138000  1
  Fe  Fe2  1  0.64594800  0.65006100  0.33069100  1
  Fe  Fe3  1  0.32714400  0.32833500  0.16538900  1
  Fe  Fe4  1  0.98871400  0.99809800  0.50770400  1
  Fe  Fe5  1  0.99331600  0.00334600  0.99975100  1
  O  O0  1  0.22261700  0.22455600  0.97296300  1
  O  O1  1  0.57587000  0.57372900  0.62455200  1
  O  O2  1  0.77323900  0.77208600  0.03852600  1
  O  O3  1  0.42528800  0.42843200  0.36462200  1
  O  O4  1  0.63354200  0.03233400  0.67091100  1
  F  F0  1  0.03874900  0.62132300  0.67240000  1
  F  F1  1  0.36282600  0.97090400  0.33269300  1
  F  F2  1  0.90003200  0.89490300  0.29624200  1
  F  F3  1  0.10375000  0.10294400  0.70496000  1
  F  F4  1  0.96869000  0.36972400  0.33044900  1
  F  F5  1  0.30298100  0.69601600  0.99898000  1
  F  F6  1  0.69245500  0.30667000  0.99925400  1
loop_
_geom_bond_atom_site_label_1
_geom_bond_atom_site_label_2
_geom_bond_distance
_geom_bond_site_symmetry_2
Fe0 O4 1.882821 1_565
Fe0 O1 2.000921 1_555
Fe0 O2 2.019328 1_556
Fe1 O4 1.924232 1_555
Fe1 O1 1.942652 1_555
Fe1 O0 2.079251 1_555
Fe1 O3 2.086237 1_555
Fe2 O3 1.925405 1_555
Fe2 O1 1.991423 1_555
Fe2 O2 2.011044 1_555
Fe3 O0 1.943315 1_554
Fe3 O3 1.954274 1_555
Fe4 O4 2.020782 1_565
Fe5 O2 1.958105 1_546
Fe5 O0 1.975881 1_655
F0 Fe0 2.054957 1_455
F0 Fe4 2.130871 1_455
F0 Fe1 2.190678 1_555
F1 Fe3 2.046194 1_565
F1 Fe2 2.100202 1_555
F1 Fe4 2.136319 1_455
F2 Fe5 2.012148 1_564
F2 Fe4 2.015033 1_555
F2 Fe2 2.179073 1_555
F3 Fe5 2.003587 1_455
F3 Fe4 2.013776 1_445
F3 Fe1 2.162434 1_555
F4 Fe3 2.040768 1_655
F4 Fe2 2.097668 1_555
F4 Fe4 2.136683 1_545
F5 Fe3 2.092236 1_556
F5 Fe0 2.130304 1_555
F5 Fe5 2.137568 1_465
F6 Fe3 2.075750 1_556
F6 Fe5 2.093243 1_555
F6 Fe0 2.246343 1_555
