# generated using pymatgen
data_Ho2Fe14B
_symmetry_space_group_name_H-M   'P 1'
_cell_length_a   8.72324800
_cell_length_b   8.72324800
_cell_length_c   11.87205900
_cell_angle_alpha   90.00000000
_cell_angle_beta   90.00000000
_cell_angle_gamma   90.00000000
_symmetry_Int_Tables_number   1
_chemical_formula_structural   Ho2Fe14B
_chemical_formula_sum   'Ho8 Fe56 B4'
_cell_volume   903.40499052
_cell_formula_units_Z   4
loop_
 _symmetry_equiv_pos_site_id
 _symmetry_equiv_pos_as_xyz
  1  'x, y, z'
loop_
 _atom_site_type_symbol
 _atom_site_label
 _atom_site_symmetry_multiplicity
 _atom_site_fract_x
 _atom_site_fract_y
 _atom_site_fract_z
 _atom_site_occupancy
  Ho  Ho0  1  0.26691800  0.73308200  0.00000000  1
  Ho  Ho1  1  0.76691800  0.76691800  0.50000000  1
  Ho  Ho2  1  0.23308200  0.23308200  0.50000000  1
  Ho  Ho3  1  0.73308200  0.26691800  0.00000000  1
  Ho  Ho4  1  0.85643300  0.85643300  0.00000000  1
  Ho  Ho5  1  0.64356700  0.35643300  0.50000000  1
  Ho  Ho6  1  0.35643300  0.64356700  0.50000000  1
  Ho  Ho7  1  0.14356700  0.14356700  0.00000000  1
  Fe  Fe0  1  0.00000000  0.00000000  0.61592400  1
  Fe  Fe1  1  0.50000000  0.50000000  0.11592400  1
  Fe  Fe2  1  0.50000000  0.50000000  0.88407600  1
  Fe  Fe3  1  0.00000000  0.00000000  0.38407600  1
  Fe  Fe4  1  0.59723600  0.59723600  0.69995300  1
  Fe  Fe5  1  0.40276400  0.40276400  0.69995300  1
  Fe  Fe6  1  0.59723600  0.59723600  0.30004700  1
  Fe  Fe7  1  0.09723600  0.90276400  0.19995300  1
  Fe  Fe8  1  0.90276400  0.09723600  0.19995300  1
  Fe  Fe9  1  0.90276400  0.09723600  0.80004700  1
  Fe  Fe10  1  0.09723600  0.90276400  0.80004700  1
  Fe  Fe11  1  0.40276400  0.40276400  0.30004700  1
  Fe  Fe12  1  0.81707000  0.81707000  0.74587300  1
  Fe  Fe13  1  0.18293000  0.18293000  0.74587300  1
  Fe  Fe14  1  0.81707000  0.81707000  0.25412700  1
  Fe  Fe15  1  0.31707000  0.68293000  0.24587200  1
  Fe  Fe16  1  0.68293000  0.31707000  0.24587200  1
  Fe  Fe17  1  0.68293000  0.31707000  0.75412700  1
  Fe  Fe18  1  0.31707000  0.68293000  0.75412700  1
  Fe  Fe19  1  0.18293000  0.18293000  0.25412700  1
  Fe  Fe20  1  0.14132400  0.46291600  0.32549200  1
  Fe  Fe21  1  0.85867600  0.53708400  0.32549200  1
  Fe  Fe22  1  0.46291600  0.14132400  0.67450800  1
  Fe  Fe23  1  0.96291600  0.35867600  0.82549200  1
  Fe  Fe24  1  0.03708400  0.64132400  0.82549200  1
  Fe  Fe25  1  0.35867600  0.96291600  0.17450800  1
  Fe  Fe26  1  0.64132400  0.03708400  0.17450800  1
  Fe  Fe27  1  0.53708400  0.85867600  0.67450800  1
  Fe  Fe28  1  0.85867600  0.53708400  0.67450800  1
  Fe  Fe29  1  0.14132400  0.46291600  0.67450800  1
  Fe  Fe30  1  0.53708400  0.85867600  0.32549200  1
  Fe  Fe31  1  0.03708400  0.64132400  0.17450800  1
  Fe  Fe32  1  0.96291600  0.35867600  0.17450800  1
  Fe  Fe33  1  0.64132400  0.03708400  0.82549200  1
  Fe  Fe34  1  0.35867600  0.96291600  0.82549200  1
  Fe  Fe35  1  0.46291600  0.14132400  0.32549200  1
  Fe  Fe36  1  0.06610800  0.72441900  0.37391800  1
  Fe  Fe37  1  0.93389200  0.27558100  0.37391800  1
  Fe  Fe38  1  0.72441900  0.06610800  0.62608200  1
  Fe  Fe39  1  0.22441900  0.43389200  0.87391800  1
  Fe  Fe40  1  0.77558100  0.56610800  0.87391800  1
  Fe  Fe41  1  0.43389200  0.22441900  0.12608200  1
  Fe  Fe42  1  0.56610800  0.77558100  0.12608200  1
  Fe  Fe43  1  0.27558100  0.93389200  0.62608200  1
  Fe  Fe44  1  0.93389200  0.27558100  0.62608200  1
  Fe  Fe45  1  0.06610800  0.72441900  0.62608200  1
  Fe  Fe46  1  0.27558100  0.93389200  0.37391800  1
  Fe  Fe47  1  0.77558100  0.56610800  0.12608200  1
  Fe  Fe48  1  0.22441900  0.43389200  0.12608200  1
  Fe  Fe49  1  0.56610800  0.77558100  0.87391800  1
  Fe  Fe50  1  0.43389200  0.22441900  0.87391800  1
  Fe  Fe51  1  0.72441900  0.06610800  0.37391800  1
  Fe  Fe52  1  0.50000000  0.00000000  0.00000000  1
  Fe  Fe53  1  0.50000000  0.00000000  0.50000000  1
  Fe  Fe54  1  0.00000000  0.50000000  0.50000000  1
  Fe  Fe55  1  0.00000000  0.50000000  0.00000000  1
  B  B0  1  0.62476200  0.62476200  0.00000000  1
  B  B1  1  0.87523800  0.12476200  0.50000000  1
  B  B2  1  0.12476200  0.87523800  0.50000000  1
  B  B3  1  0.37523800  0.37523800  0.00000000  1
loop_
_geom_bond_atom_site_label_1
_geom_bond_atom_site_label_2
_geom_bond_distance
_geom_bond_site_symmetry_2
Fe0 Fe10 2.493426 1_545
Fe0 Fe9 2.493426 1_455
Fe0 Fe12 2.733663 1_445
Fe0 Fe13 2.733663 1_555
Fe0 Ho2 3.187812 1_555
Fe0 Ho1 3.187812 1_445
Fe1 Fe6 2.493426 1_555
Fe1 Fe11 2.493426 1_555
Fe1 Fe15 2.733656 1_555
Fe1 Fe16 2.733656 1_555
Fe1 Ho0 3.187812 1_555
Fe1 Ho3 3.187812 1_555
Fe2 Fe4 2.493426 1_555
Fe2 Fe5 2.493426 1_555
Fe2 Ho3 3.187812 1_556
Fe2 Ho0 3.187812 1_556
Fe3 Fe8 2.493426 1_455
Fe3 Fe7 2.493426 1_545
Fe3 Ho2 3.187812 1_555
Fe3 Ho1 3.187812 1_445
Fe4 Fe5 2.399111 1_555
Fe4 Fe49 2.599931 1_555
Fe4 Fe40 2.599931 1_555
Fe4 Ho1 3.164970 1_555
Fe4 Ho6 3.195462 1_555
Fe4 Ho5 3.195462 1_555
Fe5 Fe50 2.599931 1_555
Fe5 Ho2 3.164970 1_555
Fe5 Ho5 3.195462 1_555
Fe5 Ho6 3.195462 1_555
Fe6 Ho1 3.164970 1_555
Fe6 Ho6 3.195462 1_555
Fe6 Ho5 3.195462 1_555
Fe7 Fe8 2.399111 1_465
Fe7 Ho0 3.164970 1_555
Fe7 Ho4 3.195462 1_455
Fe7 Ho7 3.195462 1_565
Fe8 Ho3 3.164970 1_555
Fe8 Ho4 3.195462 1_545
Fe8 Ho7 3.195462 1_655
Fe9 Ho3 3.164970 1_556
Fe9 Ho4 3.195462 1_546
Fe9 Ho7 3.195462 1_656
Fe10 Fe24 2.359608 1_555
Fe10 Fe34 2.359608 1_555
Fe10 Fe9 2.399111 1_465
Fe10 Fe43 2.599931 1_555
Fe10 Fe45 2.599931 1_555
Fe10 Fe12 2.635409 1_455
Fe10 Fe13 2.635409 1_565
Fe10 Fe18 2.766242 1_555
Fe10 Ho0 3.164970 1_556
Fe10 Ho4 3.195462 1_456
Fe10 Ho7 3.195462 1_566
Fe11 Fe35 2.359608 1_555
Fe11 Fe20 2.359608 1_555
Fe11 Fe6 2.399111 1_555
Fe11 Fe48 2.599931 1_555
Fe11 Fe41 2.599931 1_555
Fe11 Fe15 2.635412 1_555
Fe11 Fe16 2.635412 1_555
Fe11 Fe19 2.766242 1_555
Fe11 Ho2 3.164970 1_555
Fe11 Ho5 3.195462 1_555
Fe11 Ho6 3.195462 1_555
Fe12 Fe27 2.610520 1_555
Fe12 Fe28 2.610520 1_555
Fe12 Fe33 2.631971 1_565
Fe12 Fe24 2.631971 1_655
Fe12 Fe9 2.635409 1_565
Fe12 Fe40 2.689699 1_555
Fe12 Fe49 2.689699 1_555
Fe12 Fe45 2.719408 1_655
Fe12 Fe38 2.719408 1_565
Fe12 Fe4 2.766242 1_555
Fe12 Ho1 2.983867 1_555
Fe12 Ho4 3.055841 1_556
Fe13 Fe22 2.610520 1_555
Fe13 Fe29 2.610520 1_555
Fe13 Fe34 2.631971 1_545
Fe13 Fe23 2.631971 1_455
Fe13 Fe9 2.635409 1_455
Fe13 Fe50 2.689699 1_555
Fe13 Fe39 2.689699 1_555
Fe13 Fe44 2.719408 1_455
Fe13 Fe43 2.719408 1_545
Fe13 Fe5 2.766242 1_555
Fe13 Ho2 2.983867 1_555
Fe13 Ho7 3.055841 1_556
Fe14 Fe30 2.610520 1_555
Fe14 Fe21 2.610520 1_555
Fe14 Fe26 2.631971 1_565
Fe14 Fe31 2.631971 1_655
Fe14 Fe7 2.635409 1_655
Fe14 Fe8 2.635409 1_565
Fe14 Fe47 2.689699 1_555
Fe14 Fe42 2.689699 1_555
Fe14 Fe36 2.719408 1_655
Fe14 Fe51 2.719408 1_565
Fe14 Fe3 2.733663 1_665
Fe14 Fe6 2.766242 1_555
Fe14 Ho1 2.983867 1_555
Fe14 Ho4 3.055841 1_555
Fe15 Fe25 2.610516 1_555
Fe15 Fe31 2.610516 1_555
Fe15 Fe30 2.631976 1_555
Fe15 Fe20 2.631976 1_555
Fe15 Fe6 2.635412 1_555
Fe15 Fe46 2.689705 1_555
Fe15 Fe36 2.689705 1_555
Fe15 Fe42 2.719402 1_555
Fe15 Fe48 2.719402 1_555
Fe15 Fe7 2.766240 1_555
Fe15 Ho0 2.983855 1_555
Fe15 Ho6 3.055853 1_555
Fe16 Fe32 2.610516 1_555
Fe16 Fe26 2.610516 1_555
Fe16 Fe21 2.631976 1_555
Fe16 Fe35 2.631976 1_555
Fe16 Fe6 2.635412 1_555
Fe16 Fe37 2.689705 1_555
Fe16 Fe51 2.689705 1_555
Fe16 Fe47 2.719402 1_555
Fe16 Fe41 2.719402 1_555
Fe16 Fe8 2.766240 1_555
Fe16 Ho3 2.983855 1_555
Fe16 Ho5 3.055853 1_555
Fe17 Fe23 2.610520 1_555
Fe17 Fe33 2.610520 1_555
Fe17 Fe28 2.631971 1_555
Fe17 Fe22 2.631971 1_555
Fe17 Fe4 2.635409 1_555
Fe17 Fe5 2.635409 1_555
Fe17 Fe44 2.689699 1_555
Fe17 Fe38 2.689699 1_555
Fe17 Fe40 2.719408 1_555
Fe17 Fe50 2.719408 1_555
Fe17 Fe2 2.733663 1_555
Fe17 Fe9 2.766242 1_555
Fe17 Ho3 2.983867 1_556
Fe17 Ho5 3.055841 1_555
Fe18 Fe34 2.610520 1_555
Fe18 Fe24 2.610520 1_555
Fe18 Fe27 2.631971 1_555
Fe18 Fe29 2.631971 1_555
Fe18 Fe4 2.635409 1_555
Fe18 Fe5 2.635409 1_555
Fe18 Fe43 2.689699 1_555
Fe18 Fe45 2.689699 1_555
Fe18 Fe49 2.719408 1_555
Fe18 Fe39 2.719408 1_555
Fe18 Fe2 2.733663 1_555
Fe18 Ho0 2.983867 1_556
Fe18 Ho6 3.055841 1_555
Fe19 Fe35 2.610520 1_555
Fe19 Fe20 2.610520 1_555
Fe19 Fe32 2.631971 1_455
Fe19 Fe25 2.631971 1_545
Fe19 Fe7 2.635409 1_545
Fe19 Fe8 2.635409 1_455
Fe19 Fe41 2.689699 1_555
Fe19 Fe48 2.689699 1_555
Fe19 Fe37 2.719408 1_455
Fe19 Fe46 2.719408 1_545
Fe19 Fe3 2.733663 1_555
Fe19 Ho2 2.983867 1_555
Fe19 Ho7 3.055841 1_555
Fe20 Fe54 2.432423 1_555
Fe20 Fe36 2.442274 1_555
Fe20 Fe48 2.488803 1_555
Fe20 Fe37 2.505047 1_455
Fe20 Fe31 2.542033 1_555
Fe20 Fe32 2.542033 1_455
Fe20 Fe21 2.549081 1_455
Fe20 Ho2 2.992078 1_555
Fe20 Ho6 3.208837 1_555
Fe21 Fe6 2.359608 1_555
Fe21 Fe54 2.432423 1_655
Fe21 Fe37 2.442274 1_555
Fe21 Fe47 2.488803 1_555
Fe21 Fe36 2.505047 1_655
Fe21 Fe31 2.542033 1_655
Fe21 Fe32 2.542033 1_555
Fe21 Ho1 2.992078 1_555
Fe21 Ho5 3.208837 1_555
Fe22 Fe5 2.359608 1_555
Fe22 Fe53 2.432423 1_555
Fe22 Fe38 2.442274 1_555
Fe22 Fe50 2.488803 1_555
Fe22 Fe43 2.505047 1_545
Fe22 Fe33 2.542033 1_555
Fe22 Fe34 2.542033 1_545
Fe22 Fe27 2.549081 1_545
Fe22 Ho2 2.992078 1_555
Fe22 Ho5 3.208837 1_555
Fe23 Fe9 2.359608 1_555
Fe23 Fe55 2.432423 1_656
Fe23 Fe39 2.442274 1_655
Fe23 Fe44 2.488803 1_555
Fe23 Fe40 2.505047 1_555
Fe23 Fe29 2.542033 1_655
Fe23 Fe28 2.542033 1_555
Fe23 Fe24 2.549081 1_655
Fe23 Ho3 2.992078 1_556
Fe23 Ho7 3.208837 1_656
Fe24 Fe55 2.432423 1_556
Fe24 Fe40 2.442274 1_455
Fe24 Fe45 2.488803 1_555
Fe24 Fe39 2.505047 1_555
Fe24 Fe29 2.542033 1_555
Fe24 Fe28 2.542033 1_455
Fe24 Ho0 2.992078 1_556
Fe24 Ho4 3.208837 1_456
Fe25 Fe7 2.359608 1_555
Fe25 Fe52 2.432423 1_565
Fe25 Fe41 2.442274 1_565
Fe25 Fe46 2.488803 1_555
Fe25 Fe42 2.505047 1_555
Fe25 Fe30 2.542033 1_555
Fe25 Fe35 2.542033 1_565
Fe25 Fe26 2.549081 1_565
Fe25 Ho0 2.992078 1_555
Fe25 Ho7 3.208837 1_565
Fe26 Fe8 2.359608 1_555
Fe26 Fe52 2.432423 1_555
Fe26 Fe42 2.442274 1_545
Fe26 Fe51 2.488803 1_555
Fe26 Fe41 2.505047 1_555
Fe26 Fe35 2.542033 1_555
Fe26 Fe30 2.542033 1_545
Fe26 Ho3 2.992078 1_555
Fe26 Ho4 3.208837 1_545
Fe27 Fe4 2.359608 1_555
Fe27 Fe53 2.432423 1_565
Fe27 Fe43 2.442274 1_555
Fe27 Fe49 2.488803 1_555
Fe27 Fe38 2.505047 1_565
Fe27 Fe33 2.542033 1_565
Fe27 Fe34 2.542033 1_555
Fe27 Ho1 2.992078 1_555
Fe27 Ho6 3.208837 1_555
Fe28 Fe4 2.359608 1_555
Fe28 Fe54 2.432423 1_655
Fe28 Fe44 2.442274 1_555
Fe28 Fe40 2.488803 1_555
Fe28 Fe45 2.505047 1_655
Fe28 Fe29 2.549081 1_655
Fe28 Ho1 2.992078 1_555
Fe28 Ho5 3.208837 1_555
Fe29 Fe5 2.359608 1_555
Fe29 Fe54 2.432423 1_555
Fe29 Fe45 2.442274 1_555
Fe29 Fe39 2.488803 1_555
Fe29 Fe44 2.505047 1_455
Fe29 Ho2 2.992078 1_555
Fe29 Ho6 3.208837 1_555
Fe30 Fe6 2.359608 1_555
Fe30 Fe53 2.432423 1_565
Fe30 Fe46 2.442274 1_555
Fe30 Fe42 2.488803 1_555
Fe30 Fe51 2.505047 1_565
Fe30 Fe35 2.549081 1_565
Fe30 Ho1 2.992078 1_555
Fe30 Ho6 3.208837 1_555
Fe31 Fe7 2.359608 1_555
Fe31 Fe55 2.432423 1_555
Fe31 Fe47 2.442274 1_455
Fe31 Fe36 2.488803 1_555
Fe31 Fe48 2.505047 1_555
Fe31 Fe32 2.549081 1_455
Fe31 Ho0 2.992078 1_555
Fe31 Ho4 3.208837 1_455
Fe32 Fe8 2.359608 1_555
Fe32 Fe55 2.432423 1_655
Fe32 Fe48 2.442274 1_655
Fe32 Fe37 2.488803 1_555
Fe32 Fe47 2.505047 1_555
Fe32 Ho3 2.992078 1_555
Fe32 Ho7 3.208837 1_655
Fe33 Fe9 2.359608 1_555
Fe33 Fe52 2.432423 1_556
Fe33 Fe49 2.442274 1_545
Fe33 Fe38 2.488803 1_555
Fe33 Fe50 2.505047 1_555
Fe33 Fe34 2.549081 1_545
Fe33 Ho3 2.992078 1_556
Fe33 Ho4 3.208837 1_546
Fe34 Fe52 2.432423 1_566
Fe34 Fe50 2.442274 1_565
Fe34 Fe43 2.488803 1_555
Fe34 Fe49 2.505047 1_555
Fe34 Ho0 2.992078 1_556
Fe34 Ho7 3.208837 1_566
Fe35 Fe53 2.432423 1_555
Fe35 Fe51 2.442274 1_555
Fe35 Fe41 2.488803 1_555
Fe35 Fe46 2.505047 1_545
Fe35 Ho2 2.992078 1_555
Fe35 Ho5 3.208837 1_555
Fe36 Fe54 2.530922 1_555
Fe36 Fe7 2.599931 1_555
Fe36 Ho6 3.025219 1_555
Fe36 Ho1 3.031441 1_455
Fe37 Fe54 2.530922 1_655
Fe37 Fe8 2.599931 1_555
Fe37 Ho5 3.025219 1_555
Fe37 Ho2 3.031441 1_655
Fe38 Fe53 2.530922 1_555
Fe38 Fe9 2.599931 1_555
Fe38 Ho5 3.025219 1_555
Fe38 Ho1 3.031441 1_545
Fe39 Fe55 2.530922 1_556
Fe39 Fe5 2.599931 1_555
Fe39 Ho7 3.025219 1_556
Fe39 Ho0 3.031441 1_556
Fe40 Fe55 2.530922 1_656
Fe40 Ho4 3.025219 1_556
Fe40 Ho3 3.031441 1_556
Fe41 Fe52 2.530922 1_555
Fe41 Ho7 3.025219 1_555
Fe41 Ho3 3.031441 1_555
Fe42 Fe52 2.530922 1_565
Fe42 Fe6 2.599931 1_555
Fe42 Ho4 3.025219 1_555
Fe42 Ho0 3.031441 1_555
Fe43 Fe53 2.530922 1_565
Fe43 Ho6 3.025219 1_555
Fe43 Ho2 3.031441 1_565
Fe44 Fe54 2.530922 1_655
Fe44 Fe9 2.599931 1_555
Fe44 Ho5 3.025219 1_555
Fe44 Ho2 3.031441 1_655
Fe45 Fe54 2.530922 1_555
Fe45 Ho6 3.025219 1_555
Fe45 Ho1 3.031441 1_455
Fe46 Fe53 2.530922 1_565
Fe46 Fe7 2.599931 1_555
Fe46 Ho6 3.025219 1_555
Fe46 Ho2 3.031441 1_565
Fe47 Fe55 2.530922 1_655
Fe47 Fe6 2.599931 1_555
Fe47 Ho4 3.025219 1_555
Fe47 Ho3 3.031441 1_555
Fe48 Fe55 2.530922 1_555
Fe48 Ho7 3.025219 1_555
Fe48 Ho0 3.031441 1_555
Fe49 Fe52 2.530922 1_566
Fe49 Ho4 3.025219 1_556
Fe49 Ho0 3.031441 1_556
Fe50 Fe52 2.530922 1_556
Fe50 Ho7 3.025219 1_556
Fe50 Ho3 3.031441 1_556
Fe51 Fe53 2.530922 1_555
Fe51 Fe8 2.599931 1_555
Fe51 Ho5 3.025219 1_555
Fe51 Ho1 3.031441 1_545
Fe52 Ho0 3.091188 1_545
Fe52 Ho3 3.091188 1_555
Fe52 Ho4 3.351998 1_545
Fe52 Ho7 3.351998 1_555
Fe53 Ho1 3.091188 1_545
Fe53 Ho2 3.091188 1_555
Fe53 Ho6 3.351998 1_545
Fe53 Ho5 3.351998 1_555
Fe54 Ho1 3.091188 1_455
Fe54 Ho2 3.091188 1_555
Fe54 Ho5 3.351998 1_455
Fe54 Ho6 3.351998 1_555
Fe55 Ho0 3.091188 1_555
Fe55 Ho3 3.091188 1_455
Fe55 Ho4 3.351998 1_455
Fe55 Ho7 3.351998 1_555
B0 Fe47 2.057485 1_555
B0 Fe42 2.057485 1_555
B0 Fe49 2.057485 1_554
B0 Fe40 2.057485 1_554
B0 Fe1 2.064705 1_555
B0 Fe2 2.064705 1_554
B0 Ho4 2.858018 1_555
B1 Fe44 2.057485 1_555
B1 Fe37 2.057485 1_555
B1 Fe38 2.057485 1_555
B1 Fe51 2.057485 1_555
B1 Fe0 2.064705 1_655
B1 Fe3 2.064705 1_655
B1 Ho5 2.858018 1_555
B2 Fe43 2.057485 1_555
B2 Fe46 2.057485 1_555
B2 Fe45 2.057485 1_555
B2 Fe36 2.057485 1_555
B2 Fe3 2.064705 1_565
B2 Fe0 2.064705 1_565
B2 Ho6 2.858018 1_555
B3 Fe50 2.057485 1_554
B3 Fe41 2.057485 1_555
B3 Fe48 2.057485 1_555
B3 Fe39 2.057485 1_554
B3 Fe1 2.064705 1_555
B3 Fe2 2.064705 1_554
B3 Ho7 2.858018 1_555
