# generated using pymatgen
data_In4S3N2
_symmetry_space_group_name_H-M   'P 1'
_cell_length_a   6.62916676
_cell_length_b   3.77626378
_cell_length_c   9.96872742
_cell_angle_alpha   89.99999640
_cell_angle_beta   50.83567395
_cell_angle_gamma   73.45179809
_symmetry_Int_Tables_number   1
_chemical_formula_structural   In4S3N2
_chemical_formula_sum   'In4 S3 N2'
_cell_volume   179.95885852
_cell_formula_units_Z   1
loop_
 _symmetry_equiv_pos_site_id
 _symmetry_equiv_pos_as_xyz
  1  'x, y, z'
loop_
 _atom_site_type_symbol
 _atom_site_label
 _atom_site_symmetry_multiplicity
 _atom_site_fract_x
 _atom_site_fract_y
 _atom_site_fract_z
 _atom_site_occupancy
  In  In0  1  0.25231800  0.87384100  0.65406000  1
  In  In1  1  0.74768200  0.12615900  0.34594000  1
  In  In2  1  0.57185200  0.71407400  0.13472100  1
  In  In3  1  0.42814800  0.28592600  0.86527900  1
  S  S0  1  0.00000000  0.00000000  0.00000000  1
  S  S1  1  0.77728400  0.61135800  0.80029200  1
  S  S2  1  0.22271600  0.38864200  0.19970800  1
  N  N0  1  0.54448200  0.72775900  0.36127800  1
  N  N1  1  0.45551800  0.27224100  0.63872200  1
loop_
_geom_bond_atom_site_label_1
_geom_bond_atom_site_label_2
_geom_bond_distance
_geom_bond_site_symmetry_2
In0 N0 2.196675 1_555
In0 N1 2.235084 1_565
In0 N1 2.235084 1_555
In0 S0 2.679111 1_566
In0 S1 3.000664 1_455
In0 S1 3.000664 1_465
In1 N1 2.196675 1_555
In1 N0 2.235084 1_545
In1 N0 2.235084 1_555
In1 S0 2.679111 1_655
In1 S2 3.000664 1_655
In1 S2 3.000664 1_645
In2 N0 2.147886 1_555
In2 S2 2.648226 1_555
In2 S2 2.648226 1_565
In2 S1 2.661570 1_554
In2 S0 2.820688 1_665
In2 S0 2.820689 1_655
In3 N1 2.147886 1_555
In3 S1 2.648226 1_555
In3 S1 2.648226 1_545
In3 S2 2.661570 1_556
In3 S0 2.820688 1_556
In3 S0 2.820689 1_566
