# generated using pymatgen
data_EuAlAu
_symmetry_space_group_name_H-M   'P 1'
_cell_length_a   4.62465214
_cell_length_b   7.53465221
_cell_length_c   7.71137775
_cell_angle_alpha   90.00196137
_cell_angle_beta   89.99997352
_cell_angle_gamma   89.99999955
_symmetry_Int_Tables_number   1
_chemical_formula_structural   EuAlAu
_chemical_formula_sum   'Eu4 Al4 Au4'
_cell_volume   268.70407937
_cell_formula_units_Z   4
loop_
 _symmetry_equiv_pos_site_id
 _symmetry_equiv_pos_as_xyz
  1  'x, y, z'
loop_
 _atom_site_type_symbol
 _atom_site_label
 _atom_site_symmetry_multiplicity
 _atom_site_fract_x
 _atom_site_fract_y
 _atom_site_fract_z
 _atom_site_occupancy
  Eu  Eu0  1  0.25000090  0.01565998  0.31956315  1
  Eu  Eu1  1  0.25000055  0.51566368  0.18039922  1
  Eu  Eu2  1  0.74999925  0.98434370  0.68043756  1
  Eu  Eu3  1  0.74999870  0.48433755  0.81959925  1
  Al  Al0  1  0.24999998  0.15453141  0.92742365  1
  Al  Al1  1  0.24999987  0.65451876  0.57256429  1
  Al  Al2  1  0.75000024  0.84547116  0.07257492  1
  Al  Al3  1  0.75000025  0.34548417  0.42743625  1
  Au  Au0  1  0.25000000  0.29980454  0.60868351  1
  Au  Au1  1  0.25000006  0.79972730  0.89129917  1
  Au  Au2  1  0.75000008  0.70019975  0.39131918  1
  Au  Au3  1  0.75000011  0.20025800  0.10869985  1
loop_
_geom_bond_atom_site_label_1
_geom_bond_atom_site_label_2
_geom_bond_distance
_geom_bond_site_symmetry_2
Al0 Au1 2.687791 1_545
Al0 Au0 2.690668 1_555
Al0 Au3 2.723896 1_456
Al0 Au3 2.723898 1_556
Al0 Eu0 3.199883 1_556
Al0 Eu2 3.258602 1_545
Al0 Eu2 3.258608 1_445
Al0 Eu1 3.347998 1_556
Al1 Au0 2.687132 1_555
Al1 Au1 2.690364 1_555
Al1 Au2 2.723743 1_455
Al1 Au2 2.723743 1_555
Al1 Eu1 3.199961 1_555
Al1 Eu3 3.258854 1_555
Al1 Eu3 3.258860 1_455
Al1 Eu0 3.348277 1_565
Al2 Au3 2.687662 1_565
Al2 Au2 2.690692 1_555
Al2 Au1 2.723911 1_654
Al2 Au1 2.723913 1_554
Al2 Eu2 3.199870 1_554
Al2 Eu0 3.258615 1_565
Al2 Eu0 3.258620 1_665
Al2 Eu3 3.348007 1_554
Al3 Au2 2.687140 1_555
Al3 Au3 2.690429 1_555
Al3 Au0 2.723750 1_655
Al3 Au0 2.723751 1_555
Al3 Eu3 3.199942 1_555
Al3 Eu1 3.258861 1_555
Al3 Eu1 3.258862 1_655
Al3 Eu2 3.348273 1_545
Au0 Eu0 3.090954 1_555
Au0 Eu3 3.150429 1_555
Au0 Eu3 3.150437 1_455
Au0 Eu2 3.361947 1_545
Au0 Eu2 3.361952 1_445
Au1 Eu1 3.090525 1_556
Au1 Eu2 3.150541 1_555
Au1 Eu2 3.150548 1_455
Au1 Eu3 3.361471 1_555
Au1 Eu3 3.361480 1_455
Au2 Eu2 3.090940 1_555
Au2 Eu1 3.150459 1_555
Au2 Eu1 3.150461 1_655
Au2 Eu0 3.361946 1_565
Au2 Eu0 3.361951 1_665
Au3 Eu3 3.090611 1_554
Au3 Eu0 3.150487 1_555
Au3 Eu0 3.150493 1_655
Au3 Eu1 3.361558 1_555
Au3 Eu1 3.361561 1_655
