# generated using pymatgen
data_CrPO4
_symmetry_space_group_name_H-M   'P 1'
_cell_length_a   9.20984745
_cell_length_b   9.20984745
_cell_length_c   15.92034001
_cell_angle_alpha   62.14259164
_cell_angle_beta   62.14259164
_cell_angle_gamma   31.05286882
_symmetry_Int_Tables_number   1
_chemical_formula_structural   CrPO4
_chemical_formula_sum   'Cr8 P8 O32'
_cell_volume   609.16885928
_cell_formula_units_Z   8
loop_
 _symmetry_equiv_pos_site_id
 _symmetry_equiv_pos_as_xyz
  1  'x, y, z'
loop_
 _atom_site_type_symbol
 _atom_site_label
 _atom_site_symmetry_multiplicity
 _atom_site_fract_x
 _atom_site_fract_y
 _atom_site_fract_z
 _atom_site_occupancy
  Cr  Cr0  1  0.38837000  0.81778600  0.02712500  1
  Cr  Cr1  1  0.18221400  0.61163000  0.47287500  1
  Cr  Cr2  1  0.61163000  0.18221400  0.97287500  1
  Cr  Cr3  1  0.00000000  0.50000000  0.00000000  1
  Cr  Cr4  1  0.81778600  0.38837000  0.52712500  1
  Cr  Cr5  1  0.67816800  0.32183200  0.75000000  1
  Cr  Cr6  1  0.32183200  0.67816800  0.25000000  1
  Cr  Cr7  1  0.50000000  0.00000000  0.50000000  1
  P  P0  1  0.48407300  0.94381400  0.14294800  1
  P  P1  1  0.79901000  0.23511100  0.38125800  1
  P  P2  1  0.51592700  0.05618600  0.85705200  1
  P  P3  1  0.23511100  0.79901000  0.88125800  1
  P  P4  1  0.94381400  0.48407300  0.64294800  1
  P  P5  1  0.05618600  0.51592700  0.35705200  1
  P  P6  1  0.20099000  0.76488900  0.61874200  1
  P  P7  1  0.76488900  0.20099000  0.11874200  1
  O  O0  1  0.19563400  0.28493100  0.90450800  1
  O  O1  1  0.69858600  0.15209200  0.07292800  1
  O  O2  1  0.28493100  0.19563400  0.40450800  1
  O  O3  1  0.59711200  0.25041600  0.45090800  1
  O  O4  1  0.64994700  0.79961900  0.94640500  1
  O  O5  1  0.66939400  0.43696300  0.28855000  1
  O  O6  1  0.74958400  0.40288800  0.04909200  1
  O  O7  1  0.91385100  0.09430300  0.86342400  1
  O  O8  1  0.40288800  0.74958400  0.54909200  1
  O  O9  1  0.84790800  0.30141400  0.42707200  1
  O  O10  1  0.61216800  0.13820900  0.86020100  1
  O  O11  1  0.02073100  0.38834000  0.73541400  1
  O  O12  1  0.30141400  0.84790800  0.92707200  1
  O  O13  1  0.09430300  0.91385100  0.36342400  1
  O  O14  1  0.80436600  0.71506900  0.09549200  1
  O  O15  1  0.38783200  0.86179100  0.13979900  1
  O  O16  1  0.38834000  0.02073100  0.23541400  1
  O  O17  1  0.25041600  0.59711200  0.95090800  1
  O  O18  1  0.13820900  0.61216800  0.36020100  1
  O  O19  1  0.97926900  0.61166000  0.26458600  1
  O  O20  1  0.90569700  0.08614900  0.63657600  1
  O  O21  1  0.79961900  0.64994700  0.44640500  1
  O  O22  1  0.08614900  0.90569700  0.13657600  1
  O  O23  1  0.43696300  0.66939400  0.78855000  1
  O  O24  1  0.15209200  0.69858600  0.57292800  1
  O  O25  1  0.71506900  0.80436600  0.59549200  1
  O  O26  1  0.61166000  0.97926900  0.76458600  1
  O  O27  1  0.20038100  0.35005300  0.55359500  1
  O  O28  1  0.35005300  0.20038100  0.05359500  1
  O  O29  1  0.56303700  0.33060600  0.21145000  1
  O  O30  1  0.33060600  0.56303700  0.71145000  1
  O  O31  1  0.86179100  0.38783200  0.63979900  1
loop_
_geom_bond_atom_site_label_1
_geom_bond_atom_site_label_2
_geom_bond_distance
_geom_bond_site_symmetry_2
Cr0 O12 1.911573 1_554
Cr0 O6 1.961788 1_555
Cr0 O15 2.012383 1_555
Cr0 O4 2.024896 1_554
Cr0 O22 2.088968 1_555
Cr1 O24 1.911573 1_555
Cr1 O3 1.961788 1_555
Cr1 O18 2.012383 1_555
Cr1 O27 2.024896 1_555
Cr1 O13 2.088968 1_555
Cr2 O1 1.911573 1_556
Cr2 O17 1.961788 1_555
Cr2 O10 2.012383 1_555
Cr2 O28 2.024896 1_556
Cr2 O7 2.088968 1_555
Cr3 O14 1.902745 1_455
Cr3 O0 1.902745 1_554
Cr3 O28 1.965704 1_555
Cr3 O4 1.965704 1_454
Cr4 O9 1.911573 1_555
Cr4 O8 1.961788 1_555
Cr4 O31 2.012383 1_555
Cr4 O21 2.024896 1_555
Cr4 O20 2.088968 1_555
Cr5 O23 1.983951 1_555
Cr5 O30 1.983951 1_555
Cr5 O31 2.073487 1_555
Cr5 O10 2.073487 1_555
Cr5 O7 2.167205 1_555
Cr5 O20 2.167205 1_555
Cr6 O5 1.983951 1_555
Cr6 O29 1.983951 1_555
Cr6 O15 2.073487 1_555
Cr6 O18 2.073487 1_555
Cr6 O13 2.167205 1_555
Cr6 O22 2.167205 1_555
Cr7 O25 1.902745 1_545
Cr7 O2 1.902745 1_555
Cr7 O27 1.965704 1_555
Cr7 O21 1.965704 1_545
O0 P2 1.570844 1_555
O1 P7 1.517253 1_555
O2 P5 1.570844 1_555
O3 P1 1.573870 1_555
O4 P2 1.622630 1_565
O5 P1 1.529516 1_555
O6 P7 1.573870 1_555
O7 P3 1.583529 1_645
O8 P6 1.573870 1_555
O9 P1 1.517253 1_555
O10 P2 1.607164 1_555
O11 P4 1.462084 1_455
O12 P3 1.517253 1_555
O13 P1 1.583529 1_465
O14 P0 1.570844 1_555
O15 P0 1.607164 1_555
O16 P0 1.462084 1_545
O17 P3 1.573870 1_555
O18 P5 1.607164 1_555
O19 P5 1.462084 1_655
O20 P6 1.583529 1_645
O21 P5 1.622630 1_655
O22 P7 1.583529 1_465
O23 P3 1.529516 1_555
O24 P6 1.517253 1_555
O25 P4 1.570844 1_555
O26 P2 1.462084 1_565
O27 P4 1.622630 1_455
O28 P0 1.622630 1_545
O29 P7 1.529516 1_555
O30 P6 1.529516 1_555
O31 P4 1.607164 1_555
