# generated using pymatgen
data_K2SeS3O7
_symmetry_space_group_name_H-M   'P 1'
_cell_length_a   19.29612100
_cell_length_b   5.68619000
_cell_length_c   9.62615010
_cell_angle_alpha   89.58368881
_cell_angle_beta   90.00000000
_cell_angle_gamma   90.00000000
_symmetry_Int_Tables_number   1
_chemical_formula_structural   K2SeS3O7
_chemical_formula_sum   'K8 Se4 S12 O28'
_cell_volume   1056.16688422
_cell_formula_units_Z   4
loop_
 _symmetry_equiv_pos_site_id
 _symmetry_equiv_pos_as_xyz
  1  'x, y, z'
loop_
 _atom_site_type_symbol
 _atom_site_label
 _atom_site_symmetry_multiplicity
 _atom_site_fract_x
 _atom_site_fract_y
 _atom_site_fract_z
 _atom_site_occupancy
  K  K0  1  0.10694200  0.85699900  0.99948800  1
  K  K1  1  0.60694200  0.14300100  0.50051200  1
  K  K2  1  0.89305800  0.14300100  0.00051200  1
  K  K3  1  0.39305800  0.85699900  0.49948800  1
  K  K4  1  0.25372400  0.29783500  0.15589400  1
  K  K5  1  0.75372400  0.70216500  0.34410600  1
  K  K6  1  0.74627600  0.70216500  0.84410600  1
  K  K7  1  0.24627600  0.29783500  0.65589400  1
  Se  Se0  1  0.10299700  0.72190600  0.46079300  1
  Se  Se1  1  0.60299700  0.27809400  0.03920700  1
  Se  Se2  1  0.89700300  0.27809400  0.53920700  1
  Se  Se3  1  0.39700300  0.72190600  0.96079300  1
  S  S0  1  0.07981500  0.36045400  0.40755600  1
  S  S1  1  0.57981500  0.63954600  0.09244400  1
  S  S2  1  0.92018500  0.63954600  0.59244400  1
  S  S3  1  0.42018500  0.36045400  0.90755600  1
  S  S4  1  0.21553500  0.77653100  0.36781000  1
  S  S5  1  0.71553500  0.22346900  0.13219000  1
  S  S6  1  0.78446500  0.22346900  0.63219000  1
  S  S7  1  0.28446500  0.77653100  0.86781000  1
  S  S8  1  0.05007000  0.36655800  0.18529800  1
  S  S9  1  0.55007000  0.63344200  0.31470200  1
  S  S10  1  0.94993000  0.63344200  0.81470200  1
  S  S11  1  0.44993000  0.36655800  0.68529800  1
  O  O0  1  0.25647800  0.56916600  0.40876000  1
  O  O1  1  0.75647800  0.43083400  0.09124000  1
  O  O2  1  0.74352200  0.43083400  0.59124000  1
  O  O3  1  0.24352200  0.56916600  0.90876000  1
  O  O4  1  0.20637700  0.79671400  0.21633200  1
  O  O5  1  0.70637700  0.20328600  0.28366800  1
  O  O6  1  0.79362300  0.20328600  0.78366800  1
  O  O7  1  0.29362300  0.79671400  0.71633200  1
  O  O8  1  0.23832800  0.99715900  0.43173000  1
  O  O9  1  0.73832800  0.00284100  0.06827000  1
  O  O10  1  0.76167200  0.00284100  0.56827000  1
  O  O11  1  0.26167200  0.99715900  0.93173000  1
  O  O12  1  0.00737300  0.15423700  0.17964200  1
  O  O13  1  0.50737300  0.84576300  0.32035800  1
  O  O14  1  0.99262700  0.84576300  0.82035800  1
  O  O15  1  0.49262700  0.15423700  0.67964200  1
  O  O16  1  0.11549700  0.34443400  0.10719800  1
  O  O17  1  0.61549700  0.65556600  0.39280200  1
  O  O18  1  0.88450300  0.65556600  0.89280200  1
  O  O19  1  0.38450300  0.34443400  0.60719800  1
  O  O20  1  0.01457900  0.58955400  0.16249300  1
  O  O21  1  0.51457900  0.41044600  0.33750700  1
  O  O22  1  0.98542100  0.41044600  0.83750700  1
  O  O23  1  0.48542100  0.58955400  0.66249300  1
  O  O24  1  0.61514700  0.84219800  0.74647000  1
  O  O25  1  0.11514700  0.15780200  0.75353000  1
  O  O26  1  0.38485300  0.15780200  0.25353000  1
  O  O27  1  0.88485300  0.84219800  0.24647000  1
loop_
_geom_bond_atom_site_label_1
_geom_bond_atom_site_label_2
_geom_bond_distance
_geom_bond_site_symmetry_2
K0 O14 2.800842 1_455
K0 O20 2.813627 1_556
K0 O4 2.854064 1_556
K0 O25 2.915035 1_565
K0 O16 2.970870 1_566
K0 O16 3.090779 1_556
K0 O12 3.098063 1_566
K0 O11 3.157116 1_555
K0 O3 3.226128 1_555
K1 O15 2.800842 1_555
K1 O21 2.813627 1_555
K1 O5 2.854064 1_555
K1 O24 2.915035 1_545
K1 O17 2.970870 1_545
K1 O17 3.090779 1_555
K1 O13 3.098063 1_545
K1 O10 3.157116 1_555
K1 O2 3.226128 1_555
K2 O12 2.800842 1_655
K2 O22 2.813627 1_554
K2 O6 2.854064 1_554
K2 O27 2.915035 1_545
K2 O18 2.970870 1_544
K2 O18 3.090779 1_554
K2 O14 3.098063 1_544
K2 O9 3.157116 1_555
K2 O1 3.226128 1_555
K3 O13 2.800842 1_555
K3 O23 2.813627 1_555
K3 O7 2.854064 1_555
K3 O26 2.915035 1_565
K3 O19 2.970870 1_565
K3 O19 3.090779 1_555
K3 O15 3.098063 1_565
K3 O8 3.157116 1_555
K3 O0 3.226128 1_555
K4 O16 2.720723 1_555
K4 O11 2.767032 1_544
K4 O26 2.812259 1_555
K4 O3 2.832873 1_554
K4 O0 2.891837 1_555
K4 O4 3.040416 1_555
K4 O4 3.044429 1_545
K4 O8 3.161591 1_545
K5 O17 2.720723 1_555
K5 O10 2.767032 1_565
K5 O27 2.812259 1_555
K5 O2 2.832873 1_555
K5 O1 2.891837 1_555
K5 O5 3.040416 1_555
K5 O5 3.044429 1_565
K5 O9 3.161591 1_565
K6 O18 2.720723 1_555
K6 O9 2.767032 1_566
K6 O24 2.812259 1_555
K6 O1 2.832873 1_556
K6 O2 2.891837 1_555
K6 O6 3.040416 1_555
K6 O6 3.044429 1_565
K6 O10 3.161591 1_565
K7 O19 2.720723 1_555
K7 O8 2.767032 1_545
K7 O25 2.812259 1_555
K7 O0 2.832873 1_555
K7 O3 2.891837 1_555
K7 O7 3.040416 1_555
K7 O7 3.044429 1_545
K7 O11 3.161591 1_545
S0 Se0 2.168461 1_555
S0 S8 2.215169 1_555
S1 Se1 2.168461 1_555
S1 S9 2.215169 1_555
S2 Se2 2.168461 1_555
S3 Se3 2.168461 1_555
S4 Se0 2.368375 1_555
S5 Se1 2.368375 1_555
S6 Se2 2.368375 1_555
S7 Se3 2.368375 1_555
S10 S2 2.215169 1_555
S11 S3 2.215169 1_555
O0 S4 1.470753 1_555
O1 S5 1.470753 1_555
O2 S6 1.470753 1_555
O3 S7 1.470753 1_555
O4 S4 1.472470 1_555
O5 S5 1.472470 1_555
O6 S6 1.472470 1_555
O7 S7 1.472470 1_555
O8 S4 1.468709 1_555
O9 S5 1.468709 1_555
O10 S6 1.468709 1_555
O11 S7 1.468709 1_555
O12 S8 1.462968 1_555
O13 S9 1.462968 1_555
O14 S10 1.462968 1_555
O15 S11 1.462968 1_555
O16 S8 1.475222 1_555
O17 S9 1.475222 1_555
O18 S10 1.475222 1_555
O19 S11 1.475222 1_555
O20 S8 1.456354 1_555
O21 S9 1.456354 1_555
O22 S10 1.456354 1_555
O23 S11 1.456354 1_555
