# generated using pymatgen
data_TmInCo4
_symmetry_space_group_name_H-M   'P 1'
_cell_length_a   4.95691329
_cell_length_b   4.95691329
_cell_length_c   4.95691329
_cell_angle_alpha   60.00000000
_cell_angle_beta   60.00000000
_cell_angle_gamma   60.00000000
_symmetry_Int_Tables_number   1
_chemical_formula_structural   TmInCo4
_chemical_formula_sum   'Tm1 In1 Co4'
_cell_volume   86.12296392
_cell_formula_units_Z   1
loop_
 _symmetry_equiv_pos_site_id
 _symmetry_equiv_pos_as_xyz
  1  'x, y, z'
loop_
 _atom_site_type_symbol
 _atom_site_label
 _atom_site_symmetry_multiplicity
 _atom_site_fract_x
 _atom_site_fract_y
 _atom_site_fract_z
 _atom_site_occupancy
  Tm  Tm0  1  0.75000000  0.75000000  0.75000000  1
  In  In0  1  0.00000000  0.00000000  0.00000000  1
  Co  Co0  1  0.37463900  0.37463900  0.37463900  1
  Co  Co1  1  0.87608200  0.37463900  0.37463900  1
  Co  Co2  1  0.37463900  0.87608200  0.37463900  1
  Co  Co3  1  0.37463900  0.37463900  0.87608200  1
loop_
_geom_bond_atom_site_label_1
_geom_bond_atom_site_label_2
_geom_bond_distance
_geom_bond_site_symmetry_2
In0 Tm0 3.035477 1_544
In0 Tm0 3.035477 1_444
In0 Tm0 3.035477 1_445
In0 Tm0 3.035477 1_454
Co0 Co2 2.471304 1_545
Co0 Co1 2.471304 1_455
Co0 Co3 2.471304 1_554
Co0 Co3 2.485609 1_555
Co0 Co1 2.485609 1_555
Co0 Co2 2.485609 1_555
Co0 In0 2.905488 1_556
Co0 In0 2.905488 1_565
Co0 In0 2.905488 1_655
Co0 Tm0 2.907014 1_554
Co0 Tm0 2.907014 1_455
Co0 Tm0 2.907014 1_545
Co1 Co2 2.471304 1_645
Co1 Co3 2.471304 1_654
Co1 Co3 2.485609 1_555
Co1 Co2 2.485609 1_555
Co1 In0 2.905486 1_655
Co1 In0 2.905490 1_665
Co1 In0 2.905490 1_656
Co1 Tm0 2.907012 1_545
Co1 Tm0 2.907012 1_554
Co1 Tm0 2.907016 1_555
Co2 Co3 2.471304 1_564
Co2 Co3 2.485609 1_555
Co2 In0 2.905486 1_565
Co2 In0 2.905490 1_665
Co2 In0 2.905490 1_566
Co2 Tm0 2.907012 1_554
Co2 Tm0 2.907012 1_455
Co2 Tm0 2.907016 1_555
Co3 In0 2.905486 1_556
Co3 In0 2.905490 1_566
Co3 In0 2.905490 1_656
Co3 Tm0 2.907012 1_545
Co3 Tm0 2.907012 1_455
Co3 Tm0 2.907016 1_555
