# generated using pymatgen
data_Mg14ZrAl
_symmetry_space_group_name_H-M   'P 1'
_cell_length_a   6.37160413
_cell_length_b   6.37160361
_cell_length_c   10.16352593
_cell_angle_alpha   90.00000000
_cell_angle_beta   90.00000000
_cell_angle_gamma   120.00000266
_symmetry_Int_Tables_number   1
_chemical_formula_structural   Mg14ZrAl
_chemical_formula_sum   'Mg14 Zr1 Al1'
_cell_volume   357.33252995
_cell_formula_units_Z   1
loop_
 _symmetry_equiv_pos_site_id
 _symmetry_equiv_pos_as_xyz
  1  'x, y, z'
loop_
 _atom_site_type_symbol
 _atom_site_label
 _atom_site_symmetry_multiplicity
 _atom_site_fract_x
 _atom_site_fract_y
 _atom_site_fract_z
 _atom_site_occupancy
  Mg  Mg0  1  0.16496043  0.83247972  0.12500000  1
  Mg  Mg1  1  0.17170734  0.83585317  0.62500000  1
  Mg  Mg2  1  0.66752028  0.33503957  0.12500000  1
  Mg  Mg3  1  0.66414683  0.32829266  0.62500000  1
  Mg  Mg4  1  0.66752028  0.83247972  0.12500000  1
  Mg  Mg5  1  0.66414683  0.83585317  0.62500000  1
  Mg  Mg6  1  0.32913754  0.17086246  0.37393680  1
  Mg  Mg7  1  0.32913754  0.17086246  0.87606320  1
  Mg  Mg8  1  0.32913754  0.65827607  0.37393680  1
  Mg  Mg9  1  0.32913754  0.65827607  0.87606320  1
  Mg  Mg10  1  0.84172393  0.17086246  0.37393680  1
  Mg  Mg11  1  0.84172393  0.17086246  0.87606320  1
  Mg  Mg12  1  0.83333300  0.66666700  0.38118594  1
  Mg  Mg13  1  0.83333300  0.66666700  0.86881406  1
  Zr  Zr0  1  0.16666700  0.33333300  0.62500000  1
  Al  Al0  1  0.16666700  0.33333300  0.12500000  1
loop_
_geom_bond_atom_site_label_1
_geom_bond_atom_site_label_2
_geom_bond_distance
_geom_bond_site_symmetry_2
Mg0 Mg9 3.144622 1_554
Mg0 Mg8 3.144622 1_555
Mg0 Mg7 3.144628 1_564
Mg0 Mg6 3.144628 1_565
Mg0 Mg2 3.169491 1_455
Mg0 Mg4 3.169492 1_455
Mg0 Mg12 3.182467 1_455
Mg0 Mg13 3.182467 1_454
Mg0 Mg2 3.202112 1_565
Mg0 Mg4 3.202112 1_555
Mg1 Mg12 3.102700 1_455
Mg1 Mg13 3.102700 1_455
Mg1 Mg3 3.137629 1_565
Mg1 Mg5 3.137629 1_555
Mg1 Mg8 3.151572 1_555
Mg1 Mg9 3.151572 1_555
Mg1 Mg6 3.151578 1_565
Mg1 Mg7 3.151578 1_565
Mg1 Zr0 3.185923 1_555
Mg1 Zr0 3.185923 1_565
Mg1 Mg3 3.233974 1_455
Mg1 Mg5 3.233975 1_455
Mg2 Mg7 3.144628 1_554
Mg2 Mg6 3.144628 1_555
Mg2 Mg4 3.169491 1_555
Mg2 Mg4 3.202112 1_545
Mg3 Mg5 3.137629 1_545
Mg3 Mg7 3.151578 1_555
Mg3 Mg6 3.151578 1_555
Mg3 Zr0 3.185923 1_555
Mg3 Zr0 3.185923 1_655
Mg3 Mg5 3.233974 1_555
Mg4 Mg9 3.144628 1_554
Mg4 Mg8 3.144628 1_555
Mg5 Mg8 3.151578 1_555
Mg5 Mg9 3.151578 1_555
Mg5 Zr0 3.185923 1_555
Mg5 Zr0 3.185923 1_665
Mg6 Mg8 3.105606 1_555
Mg6 Zr0 3.118656 1_555
Mg6 Mg8 3.265997 1_545
Mg7 Mg9 3.105606 1_555
Mg7 Zr0 3.118656 1_555
Mg7 Mg9 3.265997 1_545
Mg8 Zr0 3.118662 1_555
Mg9 Zr0 3.118662 1_555
Mg10 Mg8 3.105606 1_655
Mg10 Mg6 3.105607 1_655
Mg10 Zr0 3.118662 1_655
Mg10 Mg2 3.144622 1_555
Mg10 Mg4 3.144628 1_545
Mg10 Mg3 3.151572 1_555
Mg10 Mg5 3.151578 1_545
Mg10 Mg12 3.186990 1_545
Mg10 Mg12 3.186990 1_555
Mg10 Mg8 3.265997 1_545
Mg10 Mg6 3.265998 1_555
Mg11 Mg9 3.105606 1_655
Mg11 Mg7 3.105607 1_655
Mg11 Zr0 3.118662 1_655
Mg11 Mg2 3.144622 1_556
Mg11 Mg4 3.144628 1_546
Mg11 Mg3 3.151572 1_555
Mg11 Mg5 3.151578 1_545
Mg11 Mg13 3.186990 1_545
Mg11 Mg13 3.186990 1_555
Mg11 Mg9 3.265997 1_545
Mg11 Mg7 3.265998 1_555
Mg12 Mg5 3.102693 1_555
Mg12 Mg3 3.102700 1_555
Mg12 Mg4 3.182461 1_555
Mg12 Mg2 3.182467 1_555
Mg12 Mg6 3.186990 1_665
Mg12 Mg6 3.186990 1_555
Mg12 Mg8 3.186990 1_555
Mg12 Mg8 3.186990 1_655
Mg13 Mg5 3.102693 1_555
Mg13 Mg3 3.102700 1_555
Mg13 Mg4 3.182461 1_556
Mg13 Mg2 3.182467 1_556
Mg13 Mg7 3.186990 1_665
Mg13 Mg7 3.186990 1_555
Mg13 Mg9 3.186990 1_555
Mg13 Mg9 3.186990 1_655
Al0 Mg7 3.100998 1_554
Al0 Mg6 3.100998 1_555
Al0 Mg9 3.101004 1_554
Al0 Mg8 3.101004 1_555
Al0 Mg11 3.101004 1_454
Al0 Mg10 3.101004 1_455
Al0 Mg0 3.185816 1_545
Al0 Mg4 3.185816 1_445
Al0 Mg4 3.185816 1_555
Al0 Mg0 3.185816 1_555
Al0 Mg2 3.185816 1_555
Al0 Mg2 3.185816 1_455
