# generated using pymatgen
data_Ca(MoO2)4
_symmetry_space_group_name_H-M   'P 1'
_cell_length_a   6.64950738
_cell_length_b   6.64950738
_cell_length_c   6.64950708
_cell_angle_alpha   58.00263300
_cell_angle_beta   58.00263300
_cell_angle_gamma   58.00263738
_symmetry_Int_Tables_number   1
_chemical_formula_structural   Ca(MoO2)4
_chemical_formula_sum   'Ca1 Mo4 O8'
_cell_volume   198.37422448
_cell_formula_units_Z   1
loop_
 _symmetry_equiv_pos_site_id
 _symmetry_equiv_pos_as_xyz
  1  'x, y, z'
loop_
 _atom_site_type_symbol
 _atom_site_label
 _atom_site_symmetry_multiplicity
 _atom_site_fract_x
 _atom_site_fract_y
 _atom_site_fract_z
 _atom_site_occupancy
  Ca  Ca0  1  0.50000000  0.50000000  0.50000000  1
  Mo  Mo0  1  0.00000000  0.50000000  0.50000000  1
  Mo  Mo1  1  0.50000000  0.00000000  0.50000000  1
  Mo  Mo2  1  0.50000000  0.50000000  0.00000000  1
  Mo  Mo3  1  0.00000000  0.00000000  0.00000000  1
  O  O0  1  0.27939700  0.76230800  0.76230800  1
  O  O1  1  0.23769200  0.23769200  0.72060300  1
  O  O2  1  0.72060300  0.23769200  0.23769200  1
  O  O3  1  0.23769200  0.72060300  0.23769200  1
  O  O4  1  0.27697500  0.27697500  0.27697500  1
  O  O5  1  0.72302500  0.72302500  0.72302500  1
  O  O6  1  0.76230800  0.27939700  0.76230800  1
  O  O7  1  0.76230800  0.76230800  0.27939700  1
loop_
_geom_bond_atom_site_label_1
_geom_bond_atom_site_label_2
_geom_bond_distance
_geom_bond_site_symmetry_2
Ca0 O1 2.457134 1_555
Ca0 O7 2.457134 1_555
Ca0 O2 2.457134 1_555
Ca0 O3 2.457134 1_555
Ca0 O0 2.457134 1_555
Ca0 O6 2.457134 1_555
Mo0 O4 2.081416 1_555
Mo0 O5 2.081416 1_455
Mo0 O6 2.125132 1_455
Mo0 O3 2.125132 1_555
Mo0 O7 2.125132 1_455
Mo0 O1 2.125132 1_555
Mo1 O4 2.081416 1_555
Mo1 O5 2.081416 1_545
Mo1 O2 2.125132 1_555
Mo1 O0 2.125132 1_545
Mo1 O7 2.125132 1_545
Mo1 O1 2.125132 1_555
Mo2 O4 2.081416 1_555
Mo2 O5 2.081416 1_554
Mo2 O0 2.125132 1_554
Mo2 O3 2.125132 1_555
Mo2 O6 2.125132 1_554
Mo2 O2 2.125132 1_555
Mo3 O1 2.207127 1_554
Mo3 O7 2.207127 1_445
Mo3 O3 2.207127 1_545
Mo3 O2 2.207127 1_455
Mo3 O6 2.207127 1_454
Mo3 O0 2.207127 1_544
