# generated using pymatgen
data_Zn3Sn2(GeO4)3
_symmetry_space_group_name_H-M   'P 1'
_cell_length_a   10.88856685
_cell_length_b   10.88856685
_cell_length_c   10.88856685
_cell_angle_alpha   109.47122063
_cell_angle_beta   109.47122063
_cell_angle_gamma   109.47122063
_symmetry_Int_Tables_number   1
_chemical_formula_structural   Zn3Sn2(GeO4)3
_chemical_formula_sum   'Zn12 Sn8 Ge12 O48'
_cell_volume   993.78005038
_cell_formula_units_Z   4
loop_
 _symmetry_equiv_pos_site_id
 _symmetry_equiv_pos_as_xyz
  1  'x, y, z'
loop_
 _atom_site_type_symbol
 _atom_site_label
 _atom_site_symmetry_multiplicity
 _atom_site_fract_x
 _atom_site_fract_y
 _atom_site_fract_z
 _atom_site_occupancy
  Zn  Zn0  1  0.25000000  0.87500000  0.62500000  1
  Zn  Zn1  1  0.75000000  0.62500000  0.87500000  1
  Zn  Zn2  1  0.62500000  0.87500000  0.75000000  1
  Zn  Zn3  1  0.87500000  0.62500000  0.25000000  1
  Zn  Zn4  1  0.62500000  0.25000000  0.87500000  1
  Zn  Zn5  1  0.87500000  0.75000000  0.62500000  1
  Zn  Zn6  1  0.75000000  0.12500000  0.37500000  1
  Zn  Zn7  1  0.25000000  0.37500000  0.12500000  1
  Zn  Zn8  1  0.37500000  0.12500000  0.25000000  1
  Zn  Zn9  1  0.12500000  0.37500000  0.75000000  1
  Zn  Zn10  1  0.37500000  0.75000000  0.12500000  1
  Zn  Zn11  1  0.12500000  0.25000000  0.37500000  1
  Sn  Sn0  1  0.50000000  0.50000000  0.50000000  1
  Sn  Sn1  1  0.50000000  0.00000000  0.50000000  1
  Sn  Sn2  1  0.00000000  0.50000000  0.50000000  1
  Sn  Sn3  1  0.50000000  0.50000000  0.00000000  1
  Sn  Sn4  1  0.00000000  0.00000000  0.50000000  1
  Sn  Sn5  1  0.00000000  0.50000000  0.00000000  1
  Sn  Sn6  1  0.50000000  0.00000000  0.00000000  1
  Sn  Sn7  1  0.00000000  0.00000000  0.00000000  1
  Ge  Ge0  1  0.12500000  0.75000000  0.87500000  1
  Ge  Ge1  1  0.87500000  0.25000000  0.12500000  1
  Ge  Ge2  1  0.62500000  0.37500000  0.25000000  1
  Ge  Ge3  1  0.75000000  0.87500000  0.12500000  1
  Ge  Ge4  1  0.87500000  0.12500000  0.75000000  1
  Ge  Ge5  1  0.25000000  0.62500000  0.37500000  1
  Ge  Ge6  1  0.75000000  0.37500000  0.62500000  1
  Ge  Ge7  1  0.25000000  0.12500000  0.87500000  1
  Ge  Ge8  1  0.12500000  0.87500000  0.25000000  1
  Ge  Ge9  1  0.37500000  0.62500000  0.75000000  1
  Ge  Ge10  1  0.62500000  0.75000000  0.37500000  1
  Ge  Ge11  1  0.37500000  0.25000000  0.62500000  1
  O  O0  1  0.41792700  0.81438100  0.78797100  1
  O  O1  1  0.87004400  0.39645500  0.08207300  1
  O  O2  1  0.10354500  0.97359000  0.68561900  1
  O  O3  1  0.52641000  0.62995600  0.71202900  1
  O  O4  1  0.68561900  0.08207300  0.71202900  1
  O  O5  1  0.62995600  0.71202900  0.52641000  1
  O  O6  1  0.62995600  0.41792700  0.10354500  1
  O  O7  1  0.71202900  0.52641000  0.62995600  1
  O  O8  1  0.81438100  0.52641000  0.39645500  1
  O  O9  1  0.97359000  0.78797100  0.87004400  1
  O  O10  1  0.78797100  0.87004400  0.97359000  1
  O  O11  1  0.71202900  0.68561900  0.08207300  1
  O  O12  1  0.41792700  0.10354500  0.62995600  1
  O  O13  1  0.39645500  0.81438100  0.52641000  1
  O  O14  1  0.08207300  0.71202900  0.68561900  1
  O  O15  1  0.10354500  0.62995600  0.41792700  1
  O  O16  1  0.52641000  0.39645500  0.81438100  1
  O  O17  1  0.08207300  0.87004400  0.39645500  1
  O  O18  1  0.97359000  0.68561900  0.10354500  1
  O  O19  1  0.18561900  0.47359000  0.60354500  1
  O  O20  1  0.68561900  0.10354500  0.97359000  1
  O  O21  1  0.78797100  0.41792700  0.81438100  1
  O  O22  1  0.39645500  0.08207300  0.87004400  1
  O  O23  1  0.87004400  0.97359000  0.78797100  1
  O  O24  1  0.58207300  0.18561900  0.21202900  1
  O  O25  1  0.12995600  0.60354500  0.91792700  1
  O  O26  1  0.89645500  0.02641000  0.31438100  1
  O  O27  1  0.47359000  0.37004400  0.28797100  1
  O  O28  1  0.31438100  0.91792700  0.28797100  1
  O  O29  1  0.37004400  0.28797100  0.47359000  1
  O  O30  1  0.37004400  0.58207300  0.89645500  1
  O  O31  1  0.28797100  0.47359000  0.37004400  1
  O  O32  1  0.12995600  0.02641000  0.21202900  1
  O  O33  1  0.60354500  0.91792700  0.12995600  1
  O  O34  1  0.21202900  0.58207300  0.18561900  1
  O  O35  1  0.18561900  0.21202900  0.58207300  1
  O  O36  1  0.31438100  0.89645500  0.02641000  1
  O  O37  1  0.02641000  0.31438100  0.89645500  1
  O  O38  1  0.91792700  0.12995600  0.60354500  1
  O  O39  1  0.47359000  0.60354500  0.18561900  1
  O  O40  1  0.89645500  0.37004400  0.58207300  1
  O  O41  1  0.91792700  0.28797100  0.31438100  1
  O  O42  1  0.60354500  0.18561900  0.47359000  1
  O  O43  1  0.58207300  0.89645500  0.37004400  1
  O  O44  1  0.28797100  0.31438100  0.91792700  1
  O  O45  1  0.21202900  0.12995600  0.02641000  1
  O  O46  1  0.02641000  0.21202900  0.12995600  1
  O  O47  1  0.81438100  0.78797100  0.41792700  1
loop_
_geom_bond_atom_site_label_1
_geom_bond_atom_site_label_2
_geom_bond_distance
_geom_bond_site_symmetry_2
Ge0 O14 1.817097 1_555
Ge0 O9 1.817097 1_455
Ge0 O36 1.817099 1_556
Ge0 O25 1.817108 1_555
Ge1 O41 1.817097 1_555
Ge1 O46 1.817097 1_655
Ge1 O20 1.817099 1_554
Ge1 O1 1.817108 1_555
Ge2 O27 1.817097 1_555
Ge2 O24 1.817097 1_555
Ge2 O8 1.817099 1_555
Ge2 O6 1.817108 1_555
Ge3 O11 1.817097 1_555
Ge3 O10 1.817097 1_554
Ge3 O26 1.817099 1_565
Ge3 O33 1.817108 1_555
Ge4 O4 1.817097 1_555
Ge4 O23 1.817097 1_545
Ge4 O37 1.817099 1_655
Ge4 O38 1.817108 1_555
Ge5 O31 1.817097 1_555
Ge5 O34 1.817097 1_555
Ge5 O13 1.817099 1_555
Ge5 O15 1.817108 1_555
Ge6 O21 1.817097 1_555
Ge6 O7 1.817097 1_555
Ge6 O42 1.817099 1_555
Ge6 O40 1.817108 1_555
Ge7 O44 1.817097 1_555
Ge7 O45 1.817097 1_556
Ge7 O2 1.817099 1_545
Ge7 O22 1.817108 1_555
Ge8 O28 1.817097 1_555
Ge8 O32 1.817097 1_565
Ge8 O18 1.817099 1_455
Ge8 O17 1.817108 1_555
Ge9 O0 1.817097 1_555
Ge9 O3 1.817097 1_555
Ge9 O19 1.817099 1_555
Ge9 O30 1.817108 1_555
Ge10 O5 1.817097 1_555
Ge10 O47 1.817097 1_555
Ge10 O39 1.817099 1_555
Ge10 O43 1.817108 1_555
Ge11 O29 1.817097 1_555
Ge11 O35 1.817097 1_555
Ge11 O16 1.817099 1_555
Ge11 O12 1.817108 1_555
O0 Sn6 2.126800 1_566
O0 Zn2 2.345562 1_555
O0 Zn0 2.519976 1_555
O1 Sn5 2.126795 1_655
O1 Zn4 2.345562 1_554
O1 Zn3 2.519968 1_555
O2 Sn4 2.126797 1_565
O2 Zn0 2.345572 1_555
O2 Zn5 2.519970 1_455
O3 Sn0 2.126800 1_555
O3 Zn2 2.345562 1_555
O3 Zn1 2.519976 1_555
O4 Sn1 2.126800 1_555
O4 Zn2 2.345562 1_545
O4 Zn4 2.519976 1_555
O5 Sn0 2.126800 1_555
O5 Zn5 2.345562 1_555
O5 Zn2 2.519976 1_555
O6 Sn3 2.126795 1_555
O6 Zn3 2.345562 1_555
O6 Zn4 2.519968 1_554
O7 Sn0 2.126800 1_555
O7 Zn1 2.345562 1_555
O7 Zn5 2.519976 1_555
O8 Sn2 2.126797 1_655
O8 Zn3 2.345572 1_555
O8 Zn5 2.519970 1_555
O9 Sn7 2.126800 1_666
O9 Zn5 2.345562 1_555
O9 Zn1 2.519976 1_555
O10 Sn7 2.126800 1_666
O10 Zn1 2.345562 1_555
O10 Zn2 2.519976 1_555
O11 Sn3 2.126800 1_555
O11 Zn1 2.345562 1_554
O11 Zn3 2.519976 1_555
O12 Sn1 2.126795 1_555
O12 Zn4 2.345562 1_555
O12 Zn0 2.519968 1_545
O13 Sn1 2.126797 1_565
O13 Zn0 2.345572 1_555
O13 Zn2 2.519970 1_555
O14 Sn2 2.126800 1_555
O14 Zn5 2.345562 1_455
O14 Zn0 2.519976 1_555
O15 Sn2 2.126795 1_555
O15 Zn0 2.345562 1_555
O15 Zn3 2.519968 1_455
O16 Sn3 2.126797 1_556
O16 Zn4 2.345572 1_555
O16 Zn1 2.519970 1_555
O17 Sn4 2.126795 1_565
O17 Zn3 2.345562 1_455
O17 Zn0 2.519968 1_555
O18 Sn5 2.126797 1_655
O18 Zn3 2.345572 1_555
O18 Zn1 2.519970 1_554
O19 Sn2 2.126797 1_555
O19 Zn9 2.345572 1_555
O19 Zn11 2.519970 1_555
O20 Sn6 2.126797 1_556
O20 Zn4 2.345572 1_555
O20 Zn2 2.519970 1_545
O21 Sn5 2.126800 1_656
O21 Zn1 2.345562 1_555
O21 Zn4 2.519976 1_555
O22 Sn6 2.126795 1_556
O22 Zn0 2.345562 1_545
O22 Zn4 2.519968 1_555
O23 Sn7 2.126800 1_666
O23 Zn2 2.345562 1_555
O23 Zn5 2.519976 1_555
O24 Sn6 2.126800 1_555
O24 Zn8 2.345562 1_555
O24 Zn6 2.519976 1_555
O25 Sn5 2.126795 1_556
O25 Zn10 2.345562 1_556
O25 Zn9 2.519968 1_555
O26 Sn4 2.126797 1_655
O26 Zn6 2.345572 1_555
O26 Zn11 2.519970 1_655
O27 Sn0 2.126800 1_555
O27 Zn8 2.345562 1_555
O27 Zn7 2.519976 1_555
O28 Sn1 2.126800 1_565
O28 Zn8 2.345562 1_565
O28 Zn10 2.519976 1_555
O29 Sn0 2.126800 1_555
O29 Zn11 2.345562 1_555
O29 Zn8 2.519976 1_555
O30 Sn3 2.126795 1_556
O30 Zn9 2.345562 1_555
O30 Zn10 2.519968 1_556
O31 Sn0 2.126800 1_555
O31 Zn7 2.345562 1_555
O31 Zn11 2.519976 1_555
O32 Sn7 2.126800 1_555
O32 Zn8 2.345562 1_555
O32 Zn11 2.519976 1_555
O33 Sn6 2.126795 1_565
O33 Zn6 2.345562 1_565
O33 Zn10 2.519968 1_555
O34 Sn5 2.126800 1_555
O34 Zn7 2.345562 1_555
O34 Zn10 2.519976 1_555
O35 Sn4 2.126800 1_555
O35 Zn11 2.345562 1_555
O35 Zn9 2.519976 1_555
O36 Sn6 2.126797 1_565
O36 Zn10 2.345572 1_555
O36 Zn8 2.519970 1_565
O37 Sn5 2.126797 1_556
O37 Zn9 2.345572 1_555
O37 Zn7 2.519970 1_556
O38 Sn4 2.126795 1_655
O38 Zn9 2.345562 1_655
O38 Zn6 2.519968 1_555
O39 Sn3 2.126797 1_555
O39 Zn10 2.345572 1_555
O39 Zn7 2.519970 1_555
O40 Sn2 2.126795 1_655
O40 Zn6 2.345562 1_555
O40 Zn9 2.519968 1_655
O41 Sn2 2.126800 1_655
O41 Zn11 2.345562 1_655
O41 Zn6 2.519976 1_555
O42 Sn1 2.126797 1_555
O42 Zn6 2.345572 1_555
O42 Zn8 2.519970 1_555
O43 Sn1 2.126795 1_565
O43 Zn10 2.345562 1_555
O43 Zn6 2.519968 1_565
O44 Sn3 2.126800 1_556
O44 Zn7 2.345562 1_556
O44 Zn9 2.519976 1_555
O45 Sn7 2.126800 1_555
O45 Zn7 2.345562 1_555
O45 Zn8 2.519976 1_555
O46 Sn7 2.126800 1_555
O46 Zn11 2.345562 1_555
O46 Zn7 2.519976 1_555
O47 Sn4 2.126800 1_665
O47 Zn5 2.345562 1_555
O47 Zn3 2.519976 1_555
