# generated using pymatgen
data_Ba6Ge2N7
_symmetry_space_group_name_H-M   'P 1'
_cell_length_a   7.54080667
_cell_length_b   7.54080667
_cell_length_c   7.54080716
_cell_angle_alpha   64.52698474
_cell_angle_beta   64.52698474
_cell_angle_gamma   64.52699198
_symmetry_Int_Tables_number   1
_chemical_formula_structural   Ba6Ge2N7
_chemical_formula_sum   'Ba6 Ge2 N7'
_cell_volume   333.30311183
_cell_formula_units_Z   1
loop_
 _symmetry_equiv_pos_site_id
 _symmetry_equiv_pos_as_xyz
  1  'x, y, z'
loop_
 _atom_site_type_symbol
 _atom_site_label
 _atom_site_symmetry_multiplicity
 _atom_site_fract_x
 _atom_site_fract_y
 _atom_site_fract_z
 _atom_site_occupancy
  Ba  Ba0  1  0.16994100  0.35259200  0.73308300  1
  Ba  Ba1  1  0.35259200  0.73308300  0.16994100  1
  Ba  Ba2  1  0.73308300  0.16994100  0.35259200  1
  Ba  Ba3  1  0.64740800  0.26691700  0.83005900  1
  Ba  Ba4  1  0.26691700  0.83005900  0.64740800  1
  Ba  Ba5  1  0.83005900  0.64740800  0.26691700  1
  Ge  Ge0  1  0.74849600  0.74849600  0.74849600  1
  Ge  Ge1  1  0.25150400  0.25150400  0.25150400  1
  N  N0  1  0.51561100  0.97198600  0.75435400  1
  N  N1  1  0.97198600  0.75435400  0.51561100  1
  N  N2  1  0.75435400  0.51561100  0.97198600  1
  N  N3  1  0.02801400  0.24564600  0.48438900  1
  N  N4  1  0.24564600  0.48438900  0.02801400  1
  N  N5  1  0.48438900  0.02801400  0.24564600  1
  N  N6  1  0.50000000  0.50000000  0.50000000  1
loop_
_geom_bond_atom_site_label_1
_geom_bond_atom_site_label_2
_geom_bond_distance
_geom_bond_site_symmetry_2
Ba0 N6 2.730542 1_555
Ba0 N1 2.835163 1_455
Ba0 N2 2.883162 1_455
Ba0 N0 2.930205 1_545
Ba0 N3 3.013724 1_555
Ba0 N4 3.121111 1_556
Ba1 N6 2.730542 1_555
Ba1 N2 2.835163 1_554
Ba1 N0 2.883162 1_554
Ba1 N1 2.930205 1_455
Ba1 N4 3.013724 1_555
Ba1 N5 3.121110 1_565
Ba2 N6 2.730542 1_555
Ba2 N0 2.835163 1_545
Ba2 N1 2.883162 1_545
Ba2 N2 2.930205 1_554
Ba2 N5 3.013723 1_555
Ba2 N3 3.121111 1_655
Ba3 N6 2.730542 1_555
Ba3 N4 2.835163 1_556
Ba3 N5 2.883162 1_556
Ba3 N3 2.930205 1_655
Ba3 N2 3.013724 1_555
Ba3 N0 3.121110 1_545
Ba4 N6 2.730542 1_555
Ba4 N5 2.835163 1_565
Ba4 N3 2.883162 1_565
Ba4 N4 2.930205 1_556
Ba4 N0 3.013723 1_555
Ba4 N1 3.121111 1_455
Ba5 N6 2.730542 1_555
Ba5 N3 2.835163 1_655
Ba5 N4 2.883162 1_655
Ba5 N5 2.930205 1_565
Ba5 N1 3.013724 1_555
Ba5 N2 3.121111 1_554
Ge0 N1 1.837860 1_555
Ge0 N2 1.837860 1_555
Ge0 N0 1.837861 1_555
Ge1 N3 1.837860 1_555
Ge1 N4 1.837860 1_555
Ge1 N5 1.837861 1_555
