# generated using pymatgen
data_SmBN2
_symmetry_space_group_name_H-M   'P 1'
_cell_length_a   7.29699824
_cell_length_b   7.29699824
_cell_length_c   7.29699934
_cell_angle_alpha   110.76382083
_cell_angle_beta   110.76382083
_cell_angle_gamma   110.76382811
_symmetry_Int_Tables_number   1
_chemical_formula_structural   SmBN2
_chemical_formula_sum   'Sm6 B6 N12'
_cell_volume   283.88261305
_cell_formula_units_Z   6
loop_
 _symmetry_equiv_pos_site_id
 _symmetry_equiv_pos_as_xyz
  1  'x, y, z'
loop_
 _atom_site_type_symbol
 _atom_site_label
 _atom_site_symmetry_multiplicity
 _atom_site_fract_x
 _atom_site_fract_y
 _atom_site_fract_z
 _atom_site_occupancy
  Sm  Sm0  1  0.20436296  0.75000000  0.29563704  1
  Sm  Sm1  1  0.29563704  0.20436296  0.75000000  1
  Sm  Sm2  1  0.75000000  0.29563704  0.20436296  1
  Sm  Sm3  1  0.79563704  0.25000000  0.70436296  1
  Sm  Sm4  1  0.70436296  0.79563704  0.25000000  1
  Sm  Sm5  1  0.25000000  0.70436296  0.79563704  1
  B  B0  1  0.37027679  0.12972321  0.25000000  1
  B  B1  1  0.25000000  0.37027679  0.12972321  1
  B  B2  1  0.12972321  0.25000000  0.37027679  1
  B  B3  1  0.75000000  0.62972321  0.87027679  1
  B  B4  1  0.87027679  0.75000000  0.62972321  1
  B  B5  1  0.62972321  0.87027679  0.75000000  1
  N  N0  1  0.25000000  0.12651236  0.37348764  1
  N  N1  1  0.37348764  0.25000000  0.12651236  1
  N  N2  1  0.12651236  0.37348764  0.25000000  1
  N  N3  1  0.87348764  0.62651236  0.75000000  1
  N  N4  1  0.75000000  0.87348764  0.62651236  1
  N  N5  1  0.62651236  0.75000000  0.87348764  1
  N  N6  1  0.25000000  0.49277899  0.00722101  1
  N  N7  1  0.00722101  0.25000000  0.49277899  1
  N  N8  1  0.49277899  0.00722101  0.25000000  1
  N  N9  1  0.50722101  0.99277899  0.75000000  1
  N  N10  1  0.75000000  0.50722101  0.99277899  1
  N  N11  1  0.99277899  0.75000000  0.50722101  1
loop_
_geom_bond_atom_site_label_1
_geom_bond_atom_site_label_2
_geom_bond_distance
_geom_bond_site_symmetry_2
B0 N1 1.464215 1_555
B0 N0 1.464215 1_555
B0 N8 1.471280 1_555
B1 N1 1.464215 1_555
B1 N2 1.464215 1_555
B1 N6 1.471280 1_555
B2 N0 1.464215 1_555
B2 N2 1.464215 1_555
B2 N7 1.471280 1_555
B3 N5 1.464215 1_555
B3 N3 1.464215 1_555
B3 N10 1.471280 1_555
B4 N4 1.464215 1_555
B4 N3 1.464215 1_555
B4 N11 1.471280 1_555
B5 N5 1.464215 1_555
B5 N4 1.464215 1_555
B5 N9 1.471280 1_555
N0 Sm0 2.468281 1_545
N0 Sm1 2.468281 1_555
N1 Sm2 2.468281 1_555
N1 Sm1 2.468281 1_554
N2 Sm2 2.468281 1_455
N2 Sm0 2.468281 1_555
N3 Sm3 2.468281 1_555
N3 Sm5 2.468281 1_655
N4 Sm3 2.468281 1_565
N4 Sm4 2.468281 1_555
N5 Sm5 2.468281 1_555
N5 Sm4 2.468281 1_556
N6 Sm1 2.490450 1_554
N6 Sm0 2.490450 1_555
N6 Sm5 2.541173 1_554
N6 Sm4 2.622814 1_555
N6 Sm3 2.622814 1_454
N7 Sm1 2.490450 1_555
N7 Sm2 2.490450 1_455
N7 Sm3 2.541173 1_455
N7 Sm4 2.622814 1_445
N7 Sm5 2.622814 1_555
N8 Sm0 2.490449 1_545
N8 Sm2 2.490449 1_555
N8 Sm4 2.541173 1_545
N8 Sm3 2.622815 1_555
N8 Sm5 2.622815 1_544
N9 Sm3 2.490449 1_565
N9 Sm5 2.490449 1_555
N9 Sm1 2.541173 1_565
N9 Sm0 2.622815 1_555
N9 Sm2 2.622815 1_566
N10 Sm4 2.490450 1_556
N10 Sm3 2.490450 1_555
N10 Sm2 2.541173 1_556
N10 Sm1 2.622814 1_555
N10 Sm0 2.622814 1_656
N11 Sm4 2.490450 1_555
N11 Sm5 2.490450 1_655
N11 Sm0 2.541173 1_655
N11 Sm1 2.622814 1_665
N11 Sm2 2.622814 1_555
