# generated using pymatgen
data_Ho(Mo3Se4)2
_symmetry_space_group_name_H-M   'P 1'
_cell_length_a   6.77941975
_cell_length_b   6.77941975
_cell_length_c   6.77941966
_cell_angle_alpha   89.34137558
_cell_angle_beta   89.34137558
_cell_angle_gamma   89.34137456
_symmetry_Int_Tables_number   1
_chemical_formula_structural   Ho(Mo3Se4)2
_chemical_formula_sum   'Ho1 Mo6 Se8'
_cell_volume   311.52444674
_cell_formula_units_Z   1
loop_
 _symmetry_equiv_pos_site_id
 _symmetry_equiv_pos_as_xyz
  1  'x, y, z'
loop_
 _atom_site_type_symbol
 _atom_site_label
 _atom_site_symmetry_multiplicity
 _atom_site_fract_x
 _atom_site_fract_y
 _atom_site_fract_z
 _atom_site_occupancy
  Ho  Ho0  1  0.00000000  0.00000000  0.00000000  1
  Mo  Mo0  1  0.76672800  0.57676800  0.44162800  1
  Mo  Mo1  1  0.44162800  0.76672800  0.57676800  1
  Mo  Mo2  1  0.57676800  0.44162800  0.76672800  1
  Mo  Mo3  1  0.23327200  0.42323200  0.55837200  1
  Mo  Mo4  1  0.55837200  0.23327200  0.42323200  1
  Mo  Mo5  1  0.42323200  0.55837200  0.23327200  1
  Se  Se0  1  0.76376000  0.76376000  0.76376000  1
  Se  Se1  1  0.23624000  0.23624000  0.23624000  1
  Se  Se2  1  0.24332000  0.63008200  0.87685000  1
  Se  Se3  1  0.87685000  0.24332000  0.63008200  1
  Se  Se4  1  0.63008200  0.87685000  0.24332000  1
  Se  Se5  1  0.75668000  0.36991800  0.12315000  1
  Se  Se6  1  0.12315000  0.75668000  0.36991800  1
  Se  Se7  1  0.36991800  0.12315000  0.75668000  1
loop_
_geom_bond_atom_site_label_1
_geom_bond_atom_site_label_2
_geom_bond_distance
_geom_bond_site_symmetry_2
Ho0 Se1 2.805707 1_555
Ho0 Se0 2.805707 1_444
Ho0 Se3 3.103012 1_454
Ho0 Se6 3.103012 1_545
Ho0 Se2 3.103012 1_544
Ho0 Se5 3.103012 1_455
Ho0 Se4 3.103012 1_445
Ho0 Se7 3.103012 1_554
Mo0 Se0 2.537477 1_555
Mo0 Se5 2.589987 1_555
Mo0 Se4 2.593601 1_555
Mo0 Se3 2.686375 1_555
Mo0 Se6 2.754959 1_655
Mo1 Se0 2.537477 1_555
Mo1 Se6 2.589987 1_555
Mo1 Se2 2.593601 1_555
Mo1 Se4 2.686375 1_555
Mo1 Se7 2.754959 1_565
Mo2 Se0 2.537477 1_555
Mo2 Se7 2.589987 1_555
Mo2 Se3 2.593601 1_555
Mo2 Se2 2.686375 1_555
Mo2 Se5 2.754959 1_556
Mo3 Se1 2.537477 1_555
Mo3 Se2 2.589987 1_555
Mo3 Se7 2.593601 1_555
Mo3 Se6 2.686375 1_555
Mo3 Se3 2.754959 1_455
Mo4 Se1 2.537477 1_555
Mo4 Se3 2.589987 1_555
Mo4 Se5 2.593601 1_555
Mo4 Se7 2.686375 1_555
Mo4 Se4 2.754959 1_545
Mo5 Se1 2.537477 1_555
Mo5 Se4 2.589987 1_555
Mo5 Se6 2.593601 1_555
Mo5 Se5 2.686375 1_555
Mo5 Se2 2.754959 1_554
