# generated using pymatgen
data_SrPr(CoO3)2
_symmetry_space_group_name_H-M   'P 1'
_cell_length_a   5.48940100
_cell_length_b   5.55157900
_cell_length_c   9.30613491
_cell_angle_alpha   54.26156212
_cell_angle_beta   90.00000000
_cell_angle_gamma   90.00000000
_symmetry_Int_Tables_number   1
_chemical_formula_structural   SrPr(CoO3)2
_chemical_formula_sum   'Sr2 Pr2 Co4 O12'
_cell_volume   230.19825059
_cell_formula_units_Z   2
loop_
 _symmetry_equiv_pos_site_id
 _symmetry_equiv_pos_as_xyz
  1  'x, y, z'
loop_
 _atom_site_type_symbol
 _atom_site_label
 _atom_site_symmetry_multiplicity
 _atom_site_fract_x
 _atom_site_fract_y
 _atom_site_fract_z
 _atom_site_occupancy
  Sr  Sr0  1  0.76187400  0.24827000  0.25099900  1
  Sr  Sr1  1  0.23812600  0.24827000  0.75099900  1
  Pr  Pr0  1  0.72889400  0.75917600  0.74925100  1
  Pr  Pr1  1  0.27110600  0.75917600  0.24925100  1
  Co  Co0  1  0.75217700  0.99997800  0.00005600  1
  Co  Co1  1  0.24782300  0.99997800  0.50005600  1
  Co  Co2  1  0.75414900  0.49995900  0.50005300  1
  Co  Co3  1  0.24585100  0.49995900  0.00005300  1
  O  O0  1  0.01557300  0.18525700  0.03380400  1
  O  O1  1  0.98442700  0.18525700  0.53380400  1
  O  O2  1  0.49787900  0.79932500  0.96915700  1
  O  O3  1  0.50212100  0.79932500  0.46915700  1
  O  O4  1  0.74364000  0.69823600  0.25420900  1
  O  O5  1  0.25636000  0.69823600  0.75420900  1
  O  O6  1  0.75162700  0.31945500  0.74597900  1
  O  O7  1  0.24837300  0.31945500  0.24597900  1
  O  O8  1  0.02700300  0.77223300  0.46588200  1
  O  O9  1  0.97299700  0.77223300  0.96588200  1
  O  O10  1  0.48516000  0.21811200  0.53061000  1
  O  O11  1  0.51484000  0.21811200  0.03061000  1
loop_
_geom_bond_atom_site_label_1
_geom_bond_atom_site_label_2
_geom_bond_distance
_geom_bond_site_symmetry_2
Co0 O0 1.903836 1_665
Co0 O9 1.907559 1_554
Co0 O2 1.909552 1_554
Co0 O11 1.909703 1_565
Co0 O4 1.942696 1_555
Co0 O6 1.958960 1_564
Co1 O1 1.903836 1_465
Co1 O8 1.907559 1_555
Co1 O3 1.909552 1_555
Co1 O10 1.909703 1_565
Co1 O5 1.942696 1_555
Co1 O7 1.958960 1_565
Co2 O4 1.872804 1_555
Co2 O6 1.887611 1_555
Co2 O8 2.016884 1_655
Co2 O1 2.026790 1_555
Co2 O10 2.046870 1_555
Co2 O3 2.049530 1_555
Co3 O5 1.872804 1_554
Co3 O7 1.887611 1_555
Co3 O9 2.016884 1_454
Co3 O0 2.026790 1_555
Co3 O11 2.046870 1_555
Co3 O2 2.049530 1_554
O0 Pr1 2.458170 1_545
O0 Sr0 2.640698 1_455
O0 Sr1 2.732374 1_554
O0 Pr0 3.127996 1_454
O1 Pr0 2.458170 1_545
O1 Sr1 2.640698 1_655
O1 Sr0 2.732374 1_555
O1 Pr1 3.127996 1_655
O2 Pr0 2.525619 1_555
O2 Sr1 2.540823 1_565
O2 Pr1 2.777582 1_556
O2 Sr0 2.994168 1_556
O3 Pr1 2.525619 1_555
O3 Sr0 2.540823 1_565
O3 Pr0 2.777582 1_555
O3 Sr1 2.994168 1_555
O4 Sr0 2.517577 1_555
O4 Pr1 2.612818 1_555
O4 Pr1 2.912406 1_655
O4 Sr0 3.037855 1_565
O5 Sr1 2.517577 1_555
O5 Pr0 2.612818 1_555
O5 Pr0 2.912406 1_455
O5 Sr1 3.037855 1_565
O6 Pr0 2.462220 1_555
O6 Sr1 2.696077 1_655
O6 Sr1 2.842973 1_555
O6 Pr0 3.095263 1_545
O7 Pr1 2.462220 1_555
O7 Sr0 2.696077 1_455
O7 Sr0 2.842973 1_555
O7 Pr1 3.095263 1_545
O8 Pr1 2.456777 1_555
O8 Sr0 2.632056 1_465
O8 Sr1 2.797952 1_555
O8 Pr0 3.068229 1_455
O9 Pr0 2.456777 1_555
O9 Sr1 2.632056 1_665
O9 Sr0 2.797952 1_556
O9 Pr1 3.068229 1_656
O10 Pr0 2.523024 1_545
O10 Sr1 2.544516 1_555
O10 Pr1 2.841038 1_555
O10 Sr0 2.932127 1_555
O11 Pr1 2.523024 1_545
O11 Sr0 2.544516 1_555
O11 Pr0 2.841038 1_554
O11 Sr1 2.932127 1_554
