# generated using pymatgen
data_Y2Mo2O7
_symmetry_space_group_name_H-M   'P 1'
_cell_length_a   7.37051339
_cell_length_b   7.37051339
_cell_length_c   7.37051339
_cell_angle_alpha   60.00000000
_cell_angle_beta   60.00000000
_cell_angle_gamma   60.00000000
_symmetry_Int_Tables_number   1
_chemical_formula_structural   Y2Mo2O7
_chemical_formula_sum   'Y4 Mo4 O14'
_cell_volume   283.12500106
_cell_formula_units_Z   2
loop_
 _symmetry_equiv_pos_site_id
 _symmetry_equiv_pos_as_xyz
  1  'x, y, z'
loop_
 _atom_site_type_symbol
 _atom_site_label
 _atom_site_symmetry_multiplicity
 _atom_site_fract_x
 _atom_site_fract_y
 _atom_site_fract_z
 _atom_site_occupancy
  Y  Y0  1  0.12500000  0.12500000  0.12500000  1
  Y  Y1  1  0.62500000  0.12500000  0.12500000  1
  Y  Y2  1  0.12500000  0.62500000  0.12500000  1
  Y  Y3  1  0.12500000  0.12500000  0.62500000  1
  Mo  Mo0  1  0.62500000  0.62500000  0.62500000  1
  Mo  Mo1  1  0.12500000  0.62500000  0.62500000  1
  Mo  Mo2  1  0.62500000  0.12500000  0.62500000  1
  Mo  Mo3  1  0.62500000  0.62500000  0.12500000  1
  O  O0  1  0.25000000  0.25000000  0.25000000  1
  O  O1  1  0.00000000  0.00000000  0.00000000  1
  O  O2  1  0.53693300  0.96306700  0.53693300  1
  O  O3  1  0.28693300  0.71306700  0.28693300  1
  O  O4  1  0.53693300  0.53693300  0.96306700  1
  O  O5  1  0.96306700  0.53693300  0.53693300  1
  O  O6  1  0.53693300  0.96306700  0.96306700  1
  O  O7  1  0.96306700  0.96306700  0.53693300  1
  O  O8  1  0.96306700  0.53693300  0.96306700  1
  O  O9  1  0.71306700  0.28693300  0.28693300  1
  O  O10  1  0.28693300  0.71306700  0.71306700  1
  O  O11  1  0.71306700  0.71306700  0.28693300  1
  O  O12  1  0.28693300  0.28693300  0.71306700  1
  O  O13  1  0.71306700  0.28693300  0.71306700  1
loop_
_geom_bond_atom_site_label_1
_geom_bond_atom_site_label_2
_geom_bond_distance
_geom_bond_site_symmetry_2
Mo0 O10 2.058625 1_555
Mo0 O2 2.058625 1_555
Mo0 O11 2.058625 1_555
Mo0 O5 2.058625 1_555
Mo0 O4 2.058625 1_555
Mo0 O13 2.058625 1_555
Mo1 O10 2.058625 1_555
Mo1 O12 2.058625 1_555
Mo1 O3 2.058625 1_555
Mo1 O5 2.058625 1_455
Mo1 O7 2.058625 1_455
Mo1 O8 2.058625 1_455
Mo2 O7 2.058625 1_545
Mo2 O12 2.058625 1_555
Mo2 O2 2.058625 1_545
Mo2 O9 2.058625 1_555
Mo2 O13 2.058625 1_555
Mo2 O6 2.058625 1_545
Mo3 O8 2.058625 1_554
Mo3 O11 2.058625 1_555
Mo3 O3 2.058625 1_555
Mo3 O9 2.058625 1_555
Mo3 O6 2.058625 1_554
Mo3 O4 2.058625 1_554
O0 Y3 2.256750 1_555
O0 Y0 2.256750 1_555
O0 Y2 2.256750 1_555
O0 Y1 2.256750 1_555
O1 Y0 2.256750 1_555
O1 Y3 2.256750 1_554
O1 Y1 2.256750 1_455
O1 Y2 2.256750 1_545
O2 Y3 2.498861 1_565
O2 Y1 2.498861 1_565
O3 Y2 2.498861 1_555
O3 Y0 2.498861 1_565
O4 Y1 2.498861 1_556
O4 Y2 2.498861 1_556
O5 Y3 2.498861 1_655
O5 Y2 2.498861 1_655
O6 Y0 2.498861 1_566
O6 Y1 2.498861 1_566
O7 Y3 2.498861 1_665
O7 Y0 2.498861 1_665
O8 Y0 2.498861 1_656
O8 Y2 2.498861 1_656
O9 Y0 2.498861 1_655
O9 Y1 2.498861 1_555
O10 Y3 2.498861 1_565
O10 Y2 2.498861 1_556
O11 Y1 2.498861 1_565
O11 Y2 2.498861 1_655
O12 Y3 2.498861 1_555
O12 Y0 2.498861 1_556
O13 Y3 2.498861 1_655
O13 Y1 2.498861 1_556
