# generated using pymatgen
data_Sr3(SbN2)2
_symmetry_space_group_name_H-M   'P 1'
_cell_length_a   7.04786600
_cell_length_b   11.08142000
_cell_length_c   10.25051000
_cell_angle_alpha   90.00000000
_cell_angle_beta   90.00000000
_cell_angle_gamma   90.00000000
_symmetry_Int_Tables_number   1
_chemical_formula_structural   Sr3(SbN2)2
_chemical_formula_sum   'Sr12 Sb8 N16'
_cell_volume   800.56855449
_cell_formula_units_Z   4
loop_
 _symmetry_equiv_pos_site_id
 _symmetry_equiv_pos_as_xyz
  1  'x, y, z'
loop_
 _atom_site_type_symbol
 _atom_site_label
 _atom_site_symmetry_multiplicity
 _atom_site_fract_x
 _atom_site_fract_y
 _atom_site_fract_z
 _atom_site_occupancy
  Sr  Sr0  1  0.48124800  0.19278000  0.41398500  1
  Sr  Sr1  1  0.01875200  0.80722000  0.41398500  1
  Sr  Sr2  1  0.48124800  0.30722000  0.08601500  1
  Sr  Sr3  1  0.01875200  0.69278000  0.08601500  1
  Sr  Sr4  1  0.51875200  0.80722000  0.58601500  1
  Sr  Sr5  1  0.98124800  0.19278000  0.58601500  1
  Sr  Sr6  1  0.51875200  0.69278000  0.91398500  1
  Sr  Sr7  1  0.98124800  0.30722000  0.91398500  1
  Sr  Sr8  1  0.75000000  0.50000000  0.43004800  1
  Sr  Sr9  1  0.75000000  0.00000000  0.06995200  1
  Sr  Sr10  1  0.25000000  0.50000000  0.56995200  1
  Sr  Sr11  1  0.25000000  0.00000000  0.93004800  1
  Sb  Sb0  1  0.75000000  0.50000000  0.74418600  1
  Sb  Sb1  1  0.75000000  0.00000000  0.75581400  1
  Sb  Sb2  1  0.25000000  0.50000000  0.25581400  1
  Sb  Sb3  1  0.25000000  0.00000000  0.24418600  1
  Sb  Sb4  1  0.46089600  0.25000000  0.75000000  1
  Sb  Sb5  1  0.03910400  0.75000000  0.75000000  1
  Sb  Sb6  1  0.53910400  0.75000000  0.25000000  1
  Sb  Sb7  1  0.96089600  0.25000000  0.25000000  1
  N  N0  1  0.94222700  0.40568700  0.64566100  1
  N  N1  1  0.55777300  0.59431300  0.64566100  1
  N  N2  1  0.94222700  0.09431300  0.85433900  1
  N  N3  1  0.55777300  0.90568700  0.85433900  1
  N  N4  1  0.05777300  0.59431300  0.35433900  1
  N  N5  1  0.44222700  0.40568700  0.35433900  1
  N  N6  1  0.05777300  0.90568700  0.14566100  1
  N  N7  1  0.44222700  0.09431300  0.14566100  1
  N  N8  1  0.62686500  0.37266500  0.86752800  1
  N  N9  1  0.87313500  0.62733500  0.86752800  1
  N  N10  1  0.62686500  0.12733500  0.63247200  1
  N  N11  1  0.87313500  0.87266500  0.63247200  1
  N  N12  1  0.37313500  0.62733500  0.13247200  1
  N  N13  1  0.12686500  0.37266500  0.13247200  1
  N  N14  1  0.37313500  0.87266500  0.36752800  1
  N  N15  1  0.12686500  0.12733500  0.36752800  1
loop_
_geom_bond_atom_site_label_1
_geom_bond_atom_site_label_2
_geom_bond_distance
_geom_bond_site_symmetry_2
N0 Sb0 1.986881 1_555
N0 Sr5 2.452712 1_555
N0 Sr10 2.529767 1_655
N0 Sr8 2.795079 1_555
N0 Sr7 2.971745 1_555
N1 Sb0 1.986881 1_555
N1 Sr4 2.452712 1_555
N1 Sr10 2.529767 1_555
N1 Sr8 2.795079 1_555
N1 Sr6 2.971745 1_555
N2 Sb1 1.986881 1_555
N2 Sr7 2.452712 1_555
N2 Sr11 2.529767 1_655
N2 Sr9 2.795079 1_556
N2 Sr5 2.971745 1_555
N3 Sb1 1.986881 1_565
N3 Sr6 2.452712 1_555
N3 Sr11 2.529767 1_565
N3 Sr9 2.795079 1_566
N3 Sr4 2.971745 1_555
N4 Sb2 1.986881 1_555
N4 Sr1 2.452712 1_555
N4 Sr8 2.529767 1_455
N4 Sr10 2.795079 1_555
N4 Sr3 2.971745 1_555
N5 Sb2 1.986881 1_555
N5 Sr0 2.452712 1_555
N5 Sr8 2.529767 1_555
N5 Sr10 2.795079 1_555
N5 Sr2 2.971745 1_555
N6 Sb3 1.986881 1_565
N6 Sr3 2.452712 1_555
N6 Sr9 2.529767 1_465
N6 Sr11 2.795079 1_564
N6 Sr1 2.971745 1_555
N7 Sb3 1.986881 1_555
N7 Sr2 2.452712 1_555
N7 Sr9 2.529767 1_555
N7 Sr11 2.795079 1_554
N7 Sr0 2.971745 1_555
N8 Sb0 2.083918 1_555
N8 Sb4 2.160398 1_555
N8 Sr2 2.568081 1_556
N8 Sr7 2.644040 1_555
N9 Sb0 2.083918 1_555
N9 Sb5 2.160398 1_655
N9 Sr3 2.568081 1_656
N9 Sr6 2.644040 1_555
N10 Sb1 2.083918 1_555
N10 Sb4 2.160398 1_555
N10 Sr0 2.568081 1_555
N10 Sr5 2.644040 1_555
N11 Sb1 2.083918 1_565
N11 Sb5 2.160398 1_655
N11 Sr1 2.568081 1_655
N11 Sr4 2.644040 1_555
N12 Sb2 2.083918 1_555
N12 Sb6 2.160398 1_555
N12 Sr6 2.568081 1_554
N12 Sr3 2.644040 1_555
N13 Sb2 2.083918 1_555
N13 Sb7 2.160398 1_455
N13 Sr7 2.568081 1_454
N13 Sr2 2.644040 1_555
N14 Sb3 2.083918 1_565
N14 Sb6 2.160398 1_555
N14 Sr4 2.568081 1_555
N14 Sr1 2.644040 1_555
N15 Sb3 2.083918 1_555
N15 Sb7 2.160398 1_455
N15 Sr5 2.568081 1_455
N15 Sr0 2.644040 1_555
