# generated using pymatgen
data_LaCoPO
_symmetry_space_group_name_H-M   'P 1'
_cell_length_a   3.99125600
_cell_length_b   3.99125600
_cell_length_c   8.26492600
_cell_angle_alpha   90.00000000
_cell_angle_beta   90.00000000
_cell_angle_gamma   90.00000000
_symmetry_Int_Tables_number   1
_chemical_formula_structural   LaCoPO
_chemical_formula_sum   'La2 Co2 P2 O2'
_cell_volume   131.66129981
_cell_formula_units_Z   2
loop_
 _symmetry_equiv_pos_site_id
 _symmetry_equiv_pos_as_xyz
  1  'x, y, z'
loop_
 _atom_site_type_symbol
 _atom_site_label
 _atom_site_symmetry_multiplicity
 _atom_site_fract_x
 _atom_site_fract_y
 _atom_site_fract_z
 _atom_site_occupancy
  La  La0  1  0.75000100  0.75000100  0.84686800  1
  La  La1  1  0.25000000  0.25000000  0.15313200  1
  Co  Co0  1  0.25000000  0.75000100  0.49999900  1
  Co  Co1  1  0.75000100  0.25000000  0.49999900  1
  P  P0  1  0.25000000  0.25000000  0.61836900  1
  P  P1  1  0.75000100  0.75000100  0.38163100  1
  O  O0  1  0.75000100  0.25000000  0.00000000  1
  O  O1  1  0.25000000  0.75000100  0.00000000  1
loop_
_geom_bond_atom_site_label_1
_geom_bond_atom_site_label_2
_geom_bond_distance
_geom_bond_site_symmetry_2
La0 O1 2.363117 1_656
La0 O0 2.363117 1_566
La0 O1 2.363124 1_556
La0 O0 2.363124 1_556
La1 O1 2.363117 1_545
La1 O0 2.363117 1_455
La1 O1 2.363124 1_555
La1 O0 2.363124 1_555
Co0 P1 2.222519 1_455
Co0 P1 2.222526 1_555
Co0 P0 2.222526 1_565
Co0 P0 2.222534 1_555
Co1 P1 2.222519 1_545
Co1 P1 2.222526 1_555
Co1 P0 2.222526 1_655
Co1 P0 2.222534 1_555
