# generated using pymatgen
data_LuMnSi
_symmetry_space_group_name_H-M   'P 1'
_cell_length_a   4.01226200
_cell_length_b   6.79223700
_cell_length_c   7.53004300
_cell_angle_alpha   90.00000000
_cell_angle_beta   90.00000000
_cell_angle_gamma   90.00000000
_symmetry_Int_Tables_number   1
_chemical_formula_structural   LuMnSi
_chemical_formula_sum   'Lu4 Mn4 Si4'
_cell_volume   205.21049695
_cell_formula_units_Z   4
loop_
 _symmetry_equiv_pos_site_id
 _symmetry_equiv_pos_as_xyz
  1  'x, y, z'
loop_
 _atom_site_type_symbol
 _atom_site_label
 _atom_site_symmetry_multiplicity
 _atom_site_fract_x
 _atom_site_fract_y
 _atom_site_fract_z
 _atom_site_occupancy
  Lu  Lu0  1  0.25000000  0.51428500  0.18537500  1
  Lu  Lu1  1  0.75000000  0.48571500  0.81462500  1
  Lu  Lu2  1  0.25000000  0.01428500  0.31462500  1
  Lu  Lu3  1  0.75000000  0.98571500  0.68537500  1
  Mn  Mn0  1  0.75000000  0.85931900  0.05837300  1
  Mn  Mn1  1  0.25000000  0.14068100  0.94162700  1
  Mn  Mn2  1  0.75000000  0.35931900  0.44162700  1
  Mn  Mn3  1  0.25000000  0.64068100  0.55837300  1
  Si  Si0  1  0.25000000  0.78428200  0.88551100  1
  Si  Si1  1  0.75000000  0.21571800  0.11448900  1
  Si  Si2  1  0.25000000  0.28428200  0.61448900  1
  Si  Si3  1  0.75000000  0.71571800  0.38551100  1
loop_
_geom_bond_atom_site_label_1
_geom_bond_atom_site_label_2
_geom_bond_distance
_geom_bond_site_symmetry_2
Lu0 Si3 2.857906 1_555
Lu0 Si3 2.857906 1_455
Lu0 Si1 2.902070 1_555
Lu0 Si1 2.902070 1_455
Lu0 Si0 2.908890 1_554
Lu0 Mn3 2.936969 1_555
Lu0 Mn2 2.975864 1_455
Lu0 Mn2 2.975864 1_555
Lu0 Mn1 3.131815 1_554
Lu0 Mn0 3.229763 1_455
Lu0 Mn0 3.229763 1_555
Lu1 Si2 2.857906 1_655
Lu1 Si2 2.857906 1_555
Lu1 Si0 2.902070 1_655
Lu1 Si0 2.902070 1_555
Lu1 Si1 2.908890 1_556
Lu1 Mn2 2.936969 1_555
Lu1 Mn3 2.975864 1_655
Lu1 Mn3 2.975864 1_555
Lu1 Mn0 3.131815 1_556
Lu1 Mn1 3.229763 1_555
Lu1 Mn1 3.229763 1_655
Lu2 Si1 2.857906 1_555
Lu2 Si1 2.857906 1_455
Lu2 Si3 2.902070 1_545
Lu2 Si3 2.902070 1_445
Lu2 Si2 2.908890 1_555
Lu2 Mn1 2.936969 1_554
Lu2 Mn0 2.975864 1_445
Lu2 Mn0 2.975864 1_545
Lu2 Mn3 3.131815 1_545
Lu2 Mn2 3.229763 1_555
Lu2 Mn2 3.229763 1_455
Lu3 Si0 2.857906 1_655
Lu3 Si0 2.857906 1_555
Lu3 Si2 2.902070 1_665
Lu3 Si2 2.902070 1_565
Lu3 Si3 2.908890 1_555
Lu3 Mn0 2.936969 1_556
Lu3 Mn1 2.975864 1_565
Lu3 Mn1 2.975864 1_665
Lu3 Mn2 3.131815 1_565
Lu3 Mn3 3.229763 1_555
Lu3 Mn3 3.229763 1_655
Mn0 Si0 2.445125 1_654
Mn0 Si0 2.445125 1_554
Mn0 Si1 2.457350 1_565
Mn0 Si3 2.649436 1_555
Mn1 Si1 2.445125 1_456
Mn1 Si1 2.445125 1_556
Mn1 Si0 2.457350 1_545
Mn1 Si2 2.649436 1_555
Mn2 Si2 2.445125 1_655
Mn2 Si2 2.445125 1_555
Mn2 Si3 2.457350 1_555
Mn2 Si1 2.649436 1_555
Mn3 Si3 2.445125 1_455
Mn3 Si3 2.445125 1_555
Mn3 Si2 2.457350 1_555
Mn3 Si0 2.649436 1_555
