# generated using pymatgen
data_GaPd
_symmetry_space_group_name_H-M   'P 1'
_cell_length_a   4.90327176
_cell_length_b   4.90327176
_cell_length_c   4.90327277
_cell_angle_alpha   90.00000000
_cell_angle_beta   90.00000000
_cell_angle_gamma   90.00000000
_symmetry_Int_Tables_number   1
_chemical_formula_structural   GaPd
_chemical_formula_sum   'Ga4 Pd4'
_cell_volume   117.88484655
_cell_formula_units_Z   4
loop_
 _symmetry_equiv_pos_site_id
 _symmetry_equiv_pos_as_xyz
  1  'x, y, z'
loop_
 _atom_site_type_symbol
 _atom_site_label
 _atom_site_symmetry_multiplicity
 _atom_site_fract_x
 _atom_site_fract_y
 _atom_site_fract_z
 _atom_site_occupancy
  Ga  Ga0  1  0.65715177  0.15715177  0.34284823  1
  Ga  Ga1  1  0.15715177  0.34284823  0.65715177  1
  Ga  Ga2  1  0.34284823  0.65715177  0.15715177  1
  Ga  Ga3  1  0.84284823  0.84284823  0.84284823  1
  Pd  Pd0  1  0.35747159  0.85747159  0.64252841  1
  Pd  Pd1  1  0.85747159  0.64252841  0.35747159  1
  Pd  Pd2  1  0.64252841  0.35747159  0.85747159  1
  Pd  Pd3  1  0.14252841  0.14252841  0.14252841  1
loop_
_geom_bond_atom_site_label_1
_geom_bond_atom_site_label_2
_geom_bond_distance
_geom_bond_site_symmetry_2
Ga0 Pd0 2.545099 1_545
Ga0 Pd1 2.575653 1_555
Ga0 Pd3 2.575653 1_655
Ga0 Pd2 2.575653 1_554
Ga0 Pd1 2.708715 1_545
Ga0 Pd3 2.708715 1_555
Ga0 Pd2 2.708716 1_555
Ga1 Pd1 2.545099 1_455
Ga1 Pd0 2.575653 1_545
Ga1 Pd2 2.575653 1_555
Ga1 Pd3 2.575653 1_556
Ga1 Pd0 2.708715 1_555
Ga1 Pd2 2.708715 1_455
Ga1 Pd3 2.708716 1_555
Ga2 Pd2 2.545099 1_554
Ga2 Pd3 2.575653 1_565
Ga2 Pd1 2.575653 1_455
Ga2 Pd0 2.575653 1_555
Ga2 Pd3 2.708715 1_555
Ga2 Pd1 2.708715 1_555
Ga2 Pd0 2.708716 1_554
Ga3 Pd3 2.545099 1_666
Ga3 Pd2 2.575653 1_555
Ga3 Pd0 2.575653 1_555
Ga3 Pd1 2.575653 1_555
Ga3 Pd2 2.708715 1_565
Ga3 Pd0 2.708715 1_655
Ga3 Pd1 2.708716 1_556
Pd0 Pd2 3.012453 1_565
Pd0 Pd2 3.012453 1_555
Pd0 Pd1 3.012453 1_455
Pd0 Pd1 3.012453 1_555
Pd0 Pd3 3.012453 1_566
Pd0 Pd3 3.012453 1_565
Pd1 Pd3 3.012453 1_665
Pd1 Pd3 3.012453 1_655
Pd1 Pd2 3.012453 1_554
Pd1 Pd2 3.012453 1_555
Pd2 Pd3 3.012453 1_656
Pd2 Pd3 3.012453 1_556
