# generated using pymatgen
data_BaNdEuVO6
_symmetry_space_group_name_H-M   'P 1'
_cell_length_a   5.89497774
_cell_length_b   5.88636315
_cell_length_c   8.34608428
_cell_angle_alpha   90.80898976
_cell_angle_beta   90.61881237
_cell_angle_gamma   90.85973601
_symmetry_Int_Tables_number   1
_chemical_formula_structural   BaNdEuVO6
_chemical_formula_sum   'Ba2 Nd2 Eu2 V2 O12'
_cell_volume   289.52992404
_cell_formula_units_Z   2
loop_
 _symmetry_equiv_pos_site_id
 _symmetry_equiv_pos_as_xyz
  1  'x, y, z'
loop_
 _atom_site_type_symbol
 _atom_site_label
 _atom_site_symmetry_multiplicity
 _atom_site_fract_x
 _atom_site_fract_y
 _atom_site_fract_z
 _atom_site_occupancy
  Ba  Ba0  1  0.50586453  0.52146154  0.24819754  1
  Ba  Ba1  1  0.49413547  0.47853846  0.75180246  1
  Nd  Nd0  1  -0.00000000  0.50000000  -0.00000000  1
  Nd  Nd1  1  0.50000000  0.00000000  0.50000000  1
  Eu  Eu0  1  0.99835568  0.03185584  0.25038267  1
  Eu  Eu1  1  0.00164432  0.96814416  0.74961733  1
  V  V0  1  0.50000000  0.00000000  -0.00000000  1
  V  V1  1  -0.00000000  0.50000000  0.50000000  1
  O  O0  1  0.23255696  0.19128583  0.95431169  1
  O  O1  1  0.25043120  0.69642229  0.53035797  1
  O  O2  1  0.76744304  0.80871417  0.04568831  1
  O  O3  1  0.74956880  0.30357771  0.46964203  1
  O  O4  1  0.30363761  0.74733658  0.96279655  1
  O  O5  1  0.18295656  0.23247152  0.53964268  1
  O  O6  1  0.69636239  0.25266342  0.03720345  1
  O  O7  1  0.81704344  0.76752848  0.46035732  1
  O  O8  1  0.40853327  0.99949896  0.22912003  1
  O  O9  1  0.05689224  0.46934732  0.27648946  1
  O  O10  1  0.59146673  0.00050104  0.77087997  1
  O  O11  1  0.94310776  0.53065268  0.72351054  1
loop_
_geom_bond_atom_site_label_1
_geom_bond_atom_site_label_2
_geom_bond_distance
_geom_bond_site_symmetry_2
Ba0 O6 2.623541 1_555
Ba0 O9 2.673193 1_555
Ba0 O3 2.681329 1_555
Ba0 O2 2.855206 1_555
Ba0 O8 2.886474 1_555
Ba0 O7 2.894140 1_555
Ba0 O1 2.988039 1_555
Ba0 O4 2.989722 1_554
Ba0 O8 3.118635 1_545
Ba1 O4 2.623541 1_555
Ba1 O11 2.673193 1_555
Ba1 O1 2.681329 1_555
Ba1 O0 2.855206 1_555
Ba1 O10 2.886474 1_555
Ba1 O5 2.894140 1_555
Ba1 O3 2.988039 1_555
Ba1 O6 2.989722 1_556
Ba1 O10 3.118635 1_565
Nd0 O4 2.316578 1_554
Nd0 O6 2.316578 1_455
Nd0 O0 2.322398 1_554
Nd0 O2 2.322398 1_455
Nd0 O11 2.338146 1_454
Nd0 O9 2.338146 1_555
Nd1 O3 2.315995 1_555
Nd1 O1 2.315995 1_545
Nd1 O8 2.318476 1_545
Nd1 O10 2.318476 1_555
Nd1 O5 2.356346 1_555
Nd1 O7 2.356346 1_545
Eu0 O8 2.436507 1_645
Eu0 O2 2.515862 1_545
Eu0 O7 2.588822 1_545
Eu0 O9 2.598893 1_655
Eu0 O6 2.844388 1_555
Eu0 O3 2.846683 1_555
Eu0 O5 2.869011 1_655
Eu0 O0 2.998849 1_654
Eu1 O10 2.436507 1_465
Eu1 O0 2.515862 1_565
Eu1 O5 2.588822 1_565
Eu1 O11 2.598893 1_455
Eu1 O4 2.844388 1_555
Eu1 O1 2.846683 1_555
Eu1 O7 2.869011 1_455
Eu1 O2 2.998849 1_456
O0 V0 1.987767 1_556
O1 V1 1.874266 1_555
O2 V0 1.987767 1_565
O3 V1 1.874266 1_655
O4 V0 1.890989 1_566
O5 V1 1.952065 1_555
O6 V0 1.890989 1_555
O7 V1 1.952065 1_655
O8 V0 1.992446 1_565
O9 V1 1.905444 1_555
O10 V0 1.992446 1_556
O11 V1 1.905444 1_655
