# generated using pymatgen
data_MnCu4Sn
_symmetry_space_group_name_H-M   'P 1'
_cell_length_a   4.94511875
_cell_length_b   4.94511875
_cell_length_c   4.94511875
_cell_angle_alpha   60.00000000
_cell_angle_beta   60.00000000
_cell_angle_gamma   60.00000000
_symmetry_Int_Tables_number   1
_chemical_formula_structural   MnCu4Sn
_chemical_formula_sum   'Mn1 Cu4 Sn1'
_cell_volume   85.50965939
_cell_formula_units_Z   1
loop_
 _symmetry_equiv_pos_site_id
 _symmetry_equiv_pos_as_xyz
  1  'x, y, z'
loop_
 _atom_site_type_symbol
 _atom_site_label
 _atom_site_symmetry_multiplicity
 _atom_site_fract_x
 _atom_site_fract_y
 _atom_site_fract_z
 _atom_site_occupancy
  Mn  Mn0  1  0.25000000  0.25000000  0.25000000  1
  Cu  Cu0  1  0.62450400  0.62450400  0.12648800  1
  Cu  Cu1  1  0.62450400  0.12648800  0.62450400  1
  Cu  Cu2  1  0.12648800  0.62450400  0.62450400  1
  Cu  Cu3  1  0.62450400  0.62450400  0.62450400  1
  Sn  Sn0  1  0.00000000  0.00000000  0.00000000  1
loop_
_geom_bond_atom_site_label_1
_geom_bond_atom_site_label_2
_geom_bond_distance
_geom_bond_site_symmetry_2
Mn0 Sn0 3.028254 1_555
Mn0 Sn0 3.028254 1_565
Mn0 Sn0 3.028254 1_655
Mn0 Sn0 3.028254 1_556
Cu0 Cu3 2.462748 1_555
Cu0 Cu1 2.462748 1_555
Cu0 Cu2 2.462748 1_555
Cu0 Cu3 2.482370 1_554
Cu0 Cu1 2.482370 1_564
Cu0 Cu2 2.482370 1_654
Cu0 Mn0 2.898293 1_555
Cu0 Mn0 2.898293 1_655
Cu0 Mn0 2.898293 1_565
Cu0 Sn0 2.900385 1_565
Cu0 Sn0 2.900385 1_655
Cu0 Sn0 2.900385 1_665
Cu1 Cu3 2.462748 1_555
Cu1 Cu2 2.462748 1_555
Cu1 Cu2 2.482370 1_645
Cu1 Cu3 2.482370 1_545
Cu1 Mn0 2.898293 1_555
Cu1 Mn0 2.898293 1_655
Cu1 Mn0 2.898293 1_556
Cu1 Sn0 2.900385 1_556
Cu1 Sn0 2.900385 1_655
Cu1 Sn0 2.900385 1_656
Cu2 Cu3 2.462748 1_555
Cu2 Cu3 2.482370 1_455
Cu2 Mn0 2.898293 1_555
Cu2 Mn0 2.898293 1_565
Cu2 Mn0 2.898293 1_556
Cu2 Sn0 2.900385 1_556
Cu2 Sn0 2.900385 1_565
Cu2 Sn0 2.900385 1_566
Cu3 Mn0 2.898293 1_556
Cu3 Mn0 2.898293 1_655
Cu3 Mn0 2.898293 1_565
Cu3 Sn0 2.900385 1_656
Cu3 Sn0 2.900385 1_665
Cu3 Sn0 2.900385 1_566
