# generated using pymatgen
data_Fe(NiAs)2
_symmetry_space_group_name_H-M   'P 1'
_cell_length_a   6.95940055
_cell_length_b   6.95940055
_cell_length_c   6.95940055
_cell_angle_alpha   128.59136152
_cell_angle_beta   120.16591927
_cell_angle_gamma   82.74604015
_symmetry_Int_Tables_number   1
_chemical_formula_structural   Fe(NiAs)2
_chemical_formula_sum   'Fe3 Ni6 As6'
_cell_volume   218.86522907
_cell_formula_units_Z   3
loop_
 _symmetry_equiv_pos_site_id
 _symmetry_equiv_pos_as_xyz
  1  'x, y, z'
loop_
 _atom_site_type_symbol
 _atom_site_label
 _atom_site_symmetry_multiplicity
 _atom_site_fract_x
 _atom_site_fract_y
 _atom_site_fract_z
 _atom_site_occupancy
  Fe  Fe0  1  0.50000000  0.85336100  0.35336100  1
  Fe  Fe1  1  0.79259600  0.24123700  0.44864100  1
  Fe  Fe2  1  0.20740400  0.65604400  0.44864100  1
  Ni  Ni0  1  0.74750800  0.50459400  0.25210200  1
  Ni  Ni1  1  0.25249200  0.50459400  0.75708600  1
  Ni  Ni2  1  0.37751800  0.24925500  0.37229400  1
  Ni  Ni3  1  0.87696100  0.24925500  0.87173700  1
  Ni  Ni4  1  0.12303900  0.99477600  0.37229400  1
  Ni  Ni5  1  0.62248200  0.99477600  0.87173700  1
  As  As0  1  0.00000000  0.24955200  0.24955200  1
  As  As1  1  0.50000000  0.25457300  0.75457300  1
  As  As2  1  0.41633500  0.91571300  0.99951300  1
  As  As3  1  0.91620000  0.91571300  0.49937800  1
  As  As4  1  0.08380000  0.58317800  0.99951300  1
  As  As5  1  0.58366500  0.58317800  0.49937800  1
loop_
_geom_bond_atom_site_label_1
_geom_bond_atom_site_label_2
_geom_bond_distance
_geom_bond_site_symmetry_2
As0 Ni2 2.318986 1_555
As0 Ni4 2.318986 1_545
As0 Ni3 2.318986 1_454
As0 Ni5 2.318986 1_444
As0 Ni1 2.332994 1_555
As0 Ni0 2.332994 1_455
As0 Fe2 2.477399 1_555
As0 Fe1 2.477405 1_455
As1 Ni1 2.286996 1_555
As1 Ni0 2.286996 1_556
As1 Ni2 2.326343 1_555
As1 Ni3 2.326343 1_555
As1 Ni4 2.326343 1_545
As1 Ni5 2.326343 1_545
As1 Fe0 2.422101 1_545
As2 Ni1 2.280620 1_555
As2 Ni2 2.285833 1_566
As2 Ni5 2.289905 1_555
As2 Fe1 2.489468 1_566
As2 Fe0 2.533736 1_556
As2 Fe2 2.548686 1_555
As3 Ni0 2.280620 1_555
As3 Ni3 2.285833 1_565
As3 Ni4 2.289905 1_655
As3 Fe1 2.489468 1_565
As3 Fe0 2.533736 1_555
As3 Fe2 2.548691 1_655
As4 Ni1 2.280620 1_555
As4 Ni4 2.285833 1_556
As4 Ni3 2.289905 1_455
As4 Fe2 2.489471 1_556
As4 Fe0 2.533736 1_556
As4 Fe1 2.548687 1_455
As5 Ni0 2.280620 1_555
As5 Ni5 2.285833 1_555
As5 Ni2 2.289905 1_555
As5 Fe2 2.489467 1_555
As5 Fe0 2.533736 1_555
As5 Fe1 2.548687 1_555
