# generated using pymatgen
data_Mg2Bi3O8
_symmetry_space_group_name_H-M   'P 1'
_cell_length_a   6.62799053
_cell_length_b   6.62799053
_cell_length_c   5.62291307
_cell_angle_alpha   69.32295390
_cell_angle_beta   69.32295390
_cell_angle_gamma   60.38508862
_symmetry_Int_Tables_number   1
_chemical_formula_structural   Mg2Bi3O8
_chemical_formula_sum   'Mg2 Bi3 O8'
_cell_volume   196.01059662
_cell_formula_units_Z   1
loop_
 _symmetry_equiv_pos_site_id
 _symmetry_equiv_pos_as_xyz
  1  'x, y, z'
loop_
 _atom_site_type_symbol
 _atom_site_label
 _atom_site_symmetry_multiplicity
 _atom_site_fract_x
 _atom_site_fract_y
 _atom_site_fract_z
 _atom_site_occupancy
  Mg  Mg0  1  0.71300500  0.71300500  0.85572000  1
  Mg  Mg1  1  0.28699500  0.28699500  0.14428000  1
  Bi  Bi0  1  0.00000000  0.00000000  0.00000000  1
  Bi  Bi1  1  0.73238000  0.26762000  0.50000000  1
  Bi  Bi2  1  0.26762000  0.73238000  0.50000000  1
  O  O0  1  0.38848700  0.38848700  0.40610900  1
  O  O1  1  0.61151300  0.61151300  0.59389100  1
  O  O2  1  0.88209900  0.88209900  0.47344300  1
  O  O3  1  0.11790100  0.11790100  0.52655700  1
  O  O4  1  0.37238300  0.88100500  0.08881900  1
  O  O5  1  0.88100500  0.37238300  0.08881900  1
  O  O6  1  0.11899500  0.62761700  0.91118100  1
  O  O7  1  0.62761700  0.11899500  0.91118100  1
loop_
_geom_bond_atom_site_label_1
_geom_bond_atom_site_label_2
_geom_bond_distance
_geom_bond_site_symmetry_2
Mg0 O4 2.123947 1_556
Mg0 O5 2.123947 1_556
Mg0 O1 2.217776 1_555
Mg0 O2 2.229672 1_555
Mg0 O6 2.573190 1_655
Mg0 O7 2.573190 1_565
Mg1 O6 2.123947 1_554
Mg1 O7 2.123947 1_554
Mg1 O0 2.217776 1_555
Mg1 O3 2.229672 1_555
Mg1 O4 2.573190 1_545
Mg1 O5 2.573190 1_455
Bi0 O4 2.373109 1_545
Bi0 O5 2.373109 1_455
Bi0 O7 2.373109 1_454
Bi0 O6 2.373109 1_544
Bi0 O2 2.444085 1_445
Bi0 O3 2.444085 1_554
Bi1 O7 2.175301 1_555
Bi1 O5 2.175301 1_555
Bi1 O1 2.205048 1_555
Bi1 O0 2.205048 1_555
Bi1 O3 2.279248 1_655
Bi1 O2 2.279248 1_545
Bi2 O4 2.175301 1_555
Bi2 O6 2.175301 1_555
Bi2 O1 2.205048 1_555
Bi2 O0 2.205048 1_555
Bi2 O3 2.279248 1_565
Bi2 O2 2.279248 1_455
