# generated using pymatgen
data_H9C6N10ClO5
_symmetry_space_group_name_H-M   'P 1'
_cell_length_a   7.41253545
_cell_length_b   7.76665755
_cell_length_c   12.39953952
_cell_angle_alpha   71.06219803
_cell_angle_beta   75.52067141
_cell_angle_gamma   70.52020637
_symmetry_Int_Tables_number   1
_chemical_formula_structural   H9C6N10ClO5
_chemical_formula_sum   'H18 C12 N20 Cl2 O10'
_cell_volume   628.45984773
_cell_formula_units_Z   2
loop_
 _symmetry_equiv_pos_site_id
 _symmetry_equiv_pos_as_xyz
  1  'x, y, z'
loop_
 _atom_site_type_symbol
 _atom_site_label
 _atom_site_symmetry_multiplicity
 _atom_site_fract_x
 _atom_site_fract_y
 _atom_site_fract_z
 _atom_site_occupancy
  H  H0  1  0.61988400  0.57286900  0.09293600  1
  H  H1  1  0.38011600  0.42713100  0.90706400  1
  H  H2  1  0.70394300  0.99216100  0.13018600  1
  H  H3  1  0.29605700  0.00783900  0.86981400  1
  H  H4  1  0.11310000  0.80949100  0.11650800  1
  H  H5  1  0.88690000  0.19050900  0.88349200  1
  H  H6  1  0.61313500  0.08569900  0.41498500  1
  H  H7  1  0.38686500  0.91430100  0.58501500  1
  H  H8  1  0.86162700  0.06287200  0.35069700  1
  H  H9  1  0.13837300  0.93712800  0.64930300  1
  H  H10  1  0.52597500  0.14055400  0.71253400  1
  H  H11  1  0.47402500  0.85944600  0.28746600  1
  H  H12  1  0.58301900  0.31311700  0.58373200  1
  H  H13  1  0.41698100  0.68688300  0.41626800  1
  H  H14  1  0.57503000  0.16874100  0.17225000  1
  H  H15  1  0.42497000  0.83125900  0.82775000  1
  H  H16  1  0.44545100  0.76140600  0.01979300  1
  H  H17  1  0.55454900  0.23859400  0.98020700  1
  C  C0  1  0.01306000  0.61715200  0.25586100  1
  C  C1  1  0.98694000  0.38284800  0.74413900  1
  C  C2  1  0.34773000  0.57932200  0.17299300  1
  C  C3  1  0.65227000  0.42067800  0.82700700  1
  C  C4  1  0.29829300  0.36087600  0.65453000  1
  C  C5  1  0.70170700  0.63912400  0.34547000  1
  C  C6  1  0.27339200  0.35105900  0.33557400  1
  C  C7  1  0.72660800  0.64894100  0.66442700  1
  C  C8  1  0.18495200  0.13744400  0.50179300  1
  C  C9  1  0.81504800  0.86255600  0.49820700  1
  C  C10  1  0.06452000  0.61743800  0.57184000  1
  C  C11  1  0.93548000  0.38256200  0.42816000  1
  N  N0  1  0.16919400  0.28750100  0.74403700  1
  N  N1  1  0.83080600  0.71249900  0.25596300  1
  N  N2  1  0.32684200  0.19445500  0.41693000  1
  N  N3  1  0.67315800  0.80554500  0.58307000  1
  N  N4  1  0.75851200  0.01769400  0.41535400  1
  N  N5  1  0.24148800  0.98230600  0.58464600  1
  N  N6  1  0.25095400  0.52087600  0.56935000  1
  N  N7  1  0.74904600  0.47912400  0.43065000  1
  N  N8  1  0.48432900  0.26354200  0.65082000  1
  N  N9  1  0.51567100  0.73645800  0.34918000  1
  N  N10  1  0.47830800  0.64908100  0.09175600  1
  N  N11  1  0.52169200  0.35091900  0.90824400  1
  N  N12  1  0.07509400  0.45035500  0.33788800  1
  N  N13  1  0.92490600  0.54964500  0.66211200  1
  N  N14  1  0.40525500  0.41612400  0.25140800  1
  N  N15  1  0.59474500  0.58387600  0.74859200  1
  N  N16  1  0.15487000  0.68046600  0.17489200  1
  N  N17  1  0.84513000  0.31953400  0.82510800  1
  N  N18  1  0.00757600  0.77263500  0.48995100  1
  N  N19  1  0.99242400  0.22736500  0.51004900  1
  Cl  Cl0  1  0.05401800  0.21305900  0.13302400  1
  Cl  Cl1  1  0.94598200  0.78694100  0.86697600  1
  O  O0  1  0.12442400  0.08125600  0.23892700  1
  O  O1  1  0.87557600  0.91874400  0.76107300  1
  O  O2  1  0.85007300  0.31195800  0.16398500  1
  O  O3  1  0.14992700  0.68804200  0.83601500  1
  O  O4  1  0.57791000  0.08668600  0.12576500  1
  O  O5  1  0.42209000  0.91331400  0.87423500  1
  O  O6  1  0.07017300  0.10441500  0.05164600  1
  O  O7  1  0.92982700  0.89558500  0.94835400  1
  O  O8  1  0.16683800  0.34911800  0.08098100  1
  O  O9  1  0.83316200  0.65088200  0.91901900  1
loop_
_geom_bond_atom_site_label_1
_geom_bond_atom_site_label_2
_geom_bond_distance
_geom_bond_site_symmetry_2
H0 N10 1.019636 1_555
H1 N11 1.019636 1_555
H2 O4 0.978163 1_565
H3 O5 0.978163 1_545
H4 N16 1.028792 1_555
H5 N17 1.028792 1_555
H6 N4 1.030305 1_555
H7 N5 1.030305 1_555
H8 N4 1.019773 1_555
H9 N5 1.019773 1_555
H10 N8 1.019951 1_555
H11 N9 1.019951 1_555
H12 N8 1.025207 1_555
H13 N9 1.025207 1_555
H14 O4 0.980830 1_555
H15 O5 0.980830 1_555
H16 N10 1.038408 1_555
H17 N11 1.038408 1_555
C0 N1 1.306142 1_455
C0 N16 1.360624 1_555
C0 N12 1.380391 1_555
C1 N0 1.306142 1_655
C1 N17 1.360624 1_555
C1 N13 1.380391 1_555
C2 N10 1.324017 1_555
C2 N14 1.334428 1_555
C2 N16 1.381134 1_555
C3 N11 1.324017 1_555
C3 N15 1.334428 1_555
C3 N17 1.381134 1_555
C4 N8 1.330716 1_555
C4 N6 1.351104 1_555
C4 N0 1.376358 1_555
C5 N9 1.330716 1_555
C5 N7 1.351104 1_555
C5 N1 1.376358 1_555
C6 N2 1.317584 1_555
C6 N14 1.333009 1_555
C6 N12 1.411872 1_555
C7 N3 1.317591 1_555
C7 N15 1.333003 1_555
C7 N13 1.411872 1_555
C8 N5 1.325858 1_545
C8 N19 1.357759 1_455
C8 N2 1.365381 1_555
C9 N4 1.325858 1_565
C9 N18 1.357759 1_655
C9 N3 1.365381 1_555
C10 N18 1.320094 1_555
C10 N6 1.332532 1_555
C10 N13 1.415185 1_455
C11 N19 1.320094 1_555
C11 N7 1.332532 1_555
C11 N12 1.415185 1_655
Cl0 O8 1.452367 1_555
Cl0 O2 1.466115 1_455
Cl0 O0 1.469182 1_555
Cl0 O6 1.472874 1_555
Cl1 O9 1.452367 1_555
Cl1 O3 1.466115 1_655
Cl1 O1 1.469182 1_555
Cl1 O7 1.472874 1_555
