# generated using pymatgen
data_MgV2(PO4)2
_symmetry_space_group_name_H-M   'P 1'
_cell_length_a   4.79542437
_cell_length_b   8.51077215
_cell_length_c   15.90936357
_cell_angle_alpha   86.48153225
_cell_angle_beta   81.33188717
_cell_angle_gamma   73.63670681
_symmetry_Int_Tables_number   1
_chemical_formula_structural   MgV2(PO4)2
_chemical_formula_sum   'Mg4 V8 P8 O32'
_cell_volume   615.76635116
_cell_formula_units_Z   4
loop_
 _symmetry_equiv_pos_site_id
 _symmetry_equiv_pos_as_xyz
  1  'x, y, z'
loop_
 _atom_site_type_symbol
 _atom_site_label
 _atom_site_symmetry_multiplicity
 _atom_site_fract_x
 _atom_site_fract_y
 _atom_site_fract_z
 _atom_site_occupancy
  Mg  Mg0  1  0.50444000  0.82604100  0.83754200  1
  Mg  Mg1  1  0.16802400  0.67395900  0.66245800  1
  Mg  Mg2  1  0.83197600  0.32604100  0.33754200  1
  Mg  Mg3  1  0.49556000  0.17395900  0.16245800  1
  V  V0  1  0.19227800  0.21531300  0.96468800  1
  V  V1  1  0.37227800  0.28468700  0.53531200  1
  V  V2  1  0.80772200  0.78468700  0.03531200  1
  V  V3  1  0.50000000  0.50000000  0.00000000  1
  V  V4  1  0.62772200  0.71531300  0.46468800  1
  V  V5  1  0.66367000  0.75000000  0.25000000  1
  V  V6  1  0.33633000  0.25000000  0.75000000  1
  V  V7  1  0.00000000  0.00000000  0.50000000  1
  P  P0  1  0.06539900  0.57611400  0.86641800  1
  P  P1  1  0.77378600  0.42445800  0.61912900  1
  P  P2  1  0.93460100  0.42388600  0.13358200  1
  P  P3  1  0.18262700  0.92445800  0.11912900  1
  P  P4  1  0.49207000  0.07611400  0.36641800  1
  P  P5  1  0.50793000  0.92388600  0.63358200  1
  P  P6  1  0.22621400  0.57554200  0.38087100  1
  P  P7  1  0.81737300  0.07554200  0.88087100  1
  O  O0  1  0.67811000  0.36132600  0.11285600  1
  O  O1  1  0.72518900  0.92378500  0.92213500  1
  O  O2  1  0.84770800  0.86132600  0.61285600  1
  O  O3  1  0.85499700  0.27754600  0.55576200  1
  O  O4  1  0.17682500  0.38988400  0.05451700  1
  O  O5  1  0.60559400  0.39937000  0.70549500  1
  O  O6  1  0.68830600  0.22245400  0.94423800  1
  O  O7  1  0.83923300  0.95644300  0.12941800  1
  O  O8  1  0.14500300  0.72245400  0.44423800  1
  O  O9  1  0.57110800  0.57621500  0.57786500  1
  O  O10  1  0.83950200  0.61219100  0.14185500  1
  O  O11  1  0.60733200  0.16645200  0.28708600  1
  O  O12  1  0.27481100  0.07621500  0.07786500  1
  O  O13  1  0.07490600  0.45644300  0.62941800  1
  O  O14  1  0.32188900  0.63867400  0.88714400  1
  O  O15  1  0.16049800  0.38780900  0.85814500  1
  O  O16  1  0.93912900  0.66645200  0.78708600  1
  O  O17  1  0.31169400  0.77754600  0.05576200  1
  O  O18  1  0.40645100  0.11219100  0.64185500  1
  O  O19  1  0.39266800  0.83354800  0.71291400  1
  O  O20  1  0.92509400  0.54355700  0.37058200  1
  O  O21  1  0.37877300  0.88988400  0.55451700  1
  O  O22  1  0.16076700  0.04355700  0.87058200  1
  O  O23  1  0.28954100  0.89937000  0.20549500  1
  O  O24  1  0.42889200  0.42378500  0.42213500  1
  O  O25  1  0.15229200  0.13867400  0.38714400  1
  O  O26  1  0.06087100  0.33354800  0.21291400  1
  O  O27  1  0.62122700  0.11011600  0.44548300  1
  O  O28  1  0.82317500  0.61011600  0.94548300  1
  O  O29  1  0.71045900  0.10063000  0.79450500  1
  O  O30  1  0.39440600  0.60063000  0.29450500  1
  O  O31  1  0.59354900  0.88780900  0.35814500  1
loop_
_geom_bond_atom_site_label_1
_geom_bond_atom_site_label_2
_geom_bond_distance
_geom_bond_site_symmetry_2
Mg0 O14 2.087061 1_555
Mg0 O19 2.123245 1_555
Mg0 O22 2.135113 1_565
Mg0 O1 2.164920 1_555
Mg0 O16 2.206476 1_555
Mg1 O2 2.087061 1_455
Mg1 O16 2.123248 1_455
Mg1 O13 2.135115 1_555
Mg1 O9 2.164914 1_555
Mg1 O19 2.206476 1_555
Mg2 O25 2.087061 1_655
Mg2 O26 2.123248 1_655
Mg2 O20 2.135115 1_555
Mg2 O24 2.164914 1_555
Mg2 O11 2.206476 1_555
Mg3 O0 2.087059 1_555
Mg3 O11 2.123245 1_555
Mg3 O7 2.135113 1_545
Mg3 O12 2.164920 1_555
Mg3 O26 2.206476 1_555
O0 P2 1.554949 1_555
O0 V3 2.231658 1_555
O1 P7 1.557145 1_565
O1 V2 2.118806 1_556
O2 P5 1.554953 1_555
O2 V7 2.231658 1_665
O3 P1 1.579030 1_555
O3 V1 2.369251 1_555
O3 V7 2.448669 1_655
O3 V1 2.470240 1_655
O4 P2 1.558878 1_455
O4 V3 2.084645 1_555
O4 V0 2.102842 1_554
O5 P1 1.520214 1_555
O5 V6 2.079315 1_555
O6 P7 1.579029 1_555
O6 V0 2.369251 1_555
O6 V3 2.448669 1_556
O6 V0 2.470240 1_655
O7 P3 1.576143 1_655
O7 V2 2.205086 1_555
O7 V5 2.721936 1_555
O8 P6 1.579030 1_555
O8 V4 2.369251 1_555
O8 V7 2.448669 1_565
O8 V4 2.470240 1_455
O9 P1 1.557147 1_555
O9 V4 2.118808 1_555
O10 P2 1.545860 1_555
O10 V5 2.073628 1_555
O10 V2 2.167479 1_555
O11 P4 1.549082 1_555
O12 P3 1.557145 1_545
O12 V0 2.118806 1_554
O13 P1 1.576143 1_455
O13 V1 2.205084 1_555
O13 V6 2.721936 1_555
O14 P0 1.554944 1_555
O14 V3 2.231660 1_556
O15 P0 1.545860 1_555
O15 V6 2.073628 1_555
O15 V0 2.167479 1_555
O16 P0 1.549085 1_655
O17 P3 1.579029 1_555
O17 V2 2.369251 1_555
O17 V3 2.448669 1_555
O17 V2 2.470240 1_455
O18 P5 1.545860 1_545
O18 V6 2.073628 1_555
O18 V1 2.167479 1_555
O19 P5 1.549082 1_555
O20 P6 1.576143 1_655
O20 V4 2.205084 1_555
O20 V5 2.721936 1_555
O21 P5 1.558877 1_555
O21 V7 2.084641 1_565
O21 V4 2.102845 1_555
O22 P7 1.576143 1_455
O22 V0 2.205086 1_555
O22 V6 2.721936 1_555
O23 P3 1.520214 1_555
O23 V5 2.079315 1_555
O24 P6 1.557147 1_555
O24 V1 2.118808 1_555
O25 P4 1.554953 1_555
O25 V7 2.231658 1_555
O26 P2 1.549085 1_455
O27 P4 1.558877 1_555
O27 V7 2.084641 1_655
O27 V1 2.102845 1_555
O28 P0 1.558878 1_655
O28 V3 2.084645 1_556
O28 V2 2.102842 1_556
O29 P7 1.520214 1_555
O29 V6 2.079315 1_555
O30 P6 1.520214 1_555
O30 V5 2.079315 1_555
O31 P4 1.545860 1_565
O31 V5 2.073628 1_555
O31 V4 2.167479 1_555
