# generated using pymatgen
data_Ba2YInTe5
_symmetry_space_group_name_H-M   'P 1'
_cell_length_a   10.43308639
_cell_length_b   10.43308639
_cell_length_c   14.13284100
_cell_angle_alpha   90.00000000
_cell_angle_beta   90.00000000
_cell_angle_gamma   153.66333451
_symmetry_Int_Tables_number   1
_chemical_formula_structural   Ba2YInTe5
_chemical_formula_sum   'Ba4 Y2 In2 Te10'
_cell_volume   682.48084631
_cell_formula_units_Z   2
loop_
 _symmetry_equiv_pos_site_id
 _symmetry_equiv_pos_as_xyz
  1  'x, y, z'
loop_
 _atom_site_type_symbol
 _atom_site_label
 _atom_site_symmetry_multiplicity
 _atom_site_fract_x
 _atom_site_fract_y
 _atom_site_fract_z
 _atom_site_occupancy
  Ba  Ba0  1  0.12993100  0.87006900  0.81610800  1
  Ba  Ba1  1  0.87006900  0.12993100  0.31610800  1
  Ba  Ba2  1  0.11859300  0.88140700  0.18133800  1
  Ba  Ba3  1  0.88140700  0.11859300  0.68133800  1
  Y  Y0  1  0.20948200  0.79051800  0.51918400  1
  Y  Y1  1  0.79051800  0.20948200  0.01918400  1
  In  In0  1  0.44380800  0.55619200  0.93561900  1
  In  In1  1  0.55619200  0.44380800  0.43561900  1
  Te  Te0  1  0.35621600  0.64378400  0.50172800  1
  Te  Te1  1  0.64378400  0.35621600  0.00172800  1
  Te  Te2  1  0.29357100  0.70642900  0.15918800  1
  Te  Te3  1  0.70642900  0.29357100  0.65918800  1
  Te  Te4  1  0.30936900  0.69063100  0.86659400  1
  Te  Te5  1  0.69063100  0.30936900  0.36659400  1
  Te  Te6  1  0.50568800  0.49431200  0.75995900  1
  Te  Te7  1  0.49431200  0.50568800  0.25995900  1
  Te  Te8  1  0.05193500  0.94806500  0.55280300  1
  Te  Te9  1  0.94806500  0.05193500  0.05280300  1
loop_
_geom_bond_atom_site_label_1
_geom_bond_atom_site_label_2
_geom_bond_distance
_geom_bond_site_symmetry_2
Ba0 Te1 3.551092 1_566
Ba0 Te1 3.551092 1_456
Ba0 Te6 3.556820 1_565
Ba0 Te6 3.556820 1_455
Ba0 Te3 3.603210 1_565
Ba0 Te3 3.603210 1_455
Ba0 Te4 3.714896 1_555
Ba0 Te8 4.044614 1_555
Ba1 Te0 3.551092 1_655
Ba1 Te0 3.551092 1_545
Ba1 Te7 3.556820 1_655
Ba1 Te7 3.556820 1_545
Ba1 Te2 3.603210 1_655
Ba1 Te2 3.603210 1_545
Ba1 Te5 3.714896 1_555
Ba1 Te9 4.044614 1_555
Ba2 Te1 3.514906 1_455
Ba2 Te1 3.514906 1_565
Ba2 Te2 3.568871 1_555
Ba2 Te7 3.641398 1_455
Ba2 Te7 3.641398 1_565
Ba2 Te5 3.827047 1_455
Ba2 Te5 3.827047 1_565
Ba2 Te9 3.912041 1_465
Ba3 Te0 3.514906 1_545
Ba3 Te0 3.514906 1_655
Ba3 Te3 3.568871 1_555
Ba3 Te6 3.641398 1_545
Ba3 Te6 3.641398 1_655
Ba3 Te4 3.827047 1_545
Ba3 Te4 3.827047 1_655
Ba3 Te8 3.912041 1_645
In0 Te6 2.782777 1_555
In0 Te9 2.898175 1_566
In0 Te9 2.898175 1_456
In0 Te4 2.900437 1_555
In1 Te7 2.782777 1_555
In1 Te8 2.898175 1_655
In1 Te8 2.898175 1_545
In1 Te5 2.900437 1_555
Te0 Y0 2.991457 1_555
Te1 Y1 2.991457 1_555
Te2 Y1 3.093227 1_565
Te2 Y1 3.093227 1_455
Te3 Y0 3.093227 1_545
Te3 Y0 3.093227 1_655
Te4 Y1 3.232096 1_566
Te4 Y1 3.232096 1_456
Te5 Y0 3.232096 1_655
Te5 Y0 3.232096 1_545
Te8 Y0 3.236031 1_555
Te9 Y1 3.236031 1_555
