# generated using pymatgen
data_Nd5Co19
_symmetry_space_group_name_H-M   'P 1'
_cell_length_a   5.03170221
_cell_length_b   5.03170200
_cell_length_c   16.46640799
_cell_angle_alpha   81.21153532
_cell_angle_beta   81.21153621
_cell_angle_gamma   60.00000139
_symmetry_Int_Tables_number   1
_chemical_formula_structural   Nd5Co19
_chemical_formula_sum   'Nd5 Co19'
_cell_volume   355.38018118
_cell_formula_units_Z   1
loop_
 _symmetry_equiv_pos_site_id
 _symmetry_equiv_pos_as_xyz
  1  'x, y, z'
loop_
 _atom_site_type_symbol
 _atom_site_label
 _atom_site_symmetry_multiplicity
 _atom_site_fract_x
 _atom_site_fract_y
 _atom_site_fract_z
 _atom_site_occupancy
  Nd  Nd0  1  0.00000000  0.00000000  0.00000000  1
  Nd  Nd1  1  0.92096800  0.92096800  0.23709700  1
  Nd  Nd2  1  0.07903200  0.07903200  0.76290300  1
  Nd  Nd3  1  0.84728600  0.84728600  0.45814100  1
  Nd  Nd4  1  0.15271400  0.15271400  0.54185900  1
  Co  Co0  1  0.50000000  0.50000000  0.50000000  1
  Co  Co1  1  0.74879400  0.74879400  0.75361700  1
  Co  Co2  1  0.25120600  0.25120600  0.24638300  1
  Co  Co3  1  0.66631300  0.66631300  0.00106100  1
  Co  Co4  1  0.33368700  0.33368700  0.99893900  1
  Co  Co5  1  0.58529700  0.58529700  0.24410900  1
  Co  Co6  1  0.41470300  0.41470300  0.75589100  1
  Co  Co7  1  0.38013200  0.38013200  0.36552400  1
  Co  Co8  1  0.87421200  0.38013200  0.36552400  1
  Co  Co9  1  0.38013200  0.87421200  0.36552400  1
  Co  Co10  1  0.61986800  0.61986800  0.63447600  1
  Co  Co11  1  0.12578800  0.61986800  0.63447600  1
  Co  Co12  1  0.61986800  0.12578800  0.63447600  1
  Co  Co13  1  0.45908400  0.45908400  0.12182800  1
  Co  Co14  1  0.96000400  0.45908400  0.12182800  1
  Co  Co15  1  0.45908400  0.96000400  0.12182800  1
  Co  Co16  1  0.54091600  0.54091600  0.87817200  1
  Co  Co17  1  0.03999600  0.54091600  0.87817200  1
  Co  Co18  1  0.54091600  0.03999600  0.87817200  1
loop_
_geom_bond_atom_site_label_1
_geom_bond_atom_site_label_2
_geom_bond_distance
_geom_bond_site_symmetry_2
Co0 Co7 2.609759 1_555
Co0 Co9 2.609759 1_555
Co0 Co12 2.609759 1_555
Co0 Co10 2.609759 1_555
Co0 Co8 2.609759 1_555
Co0 Co11 2.609759 1_555
Co0 Nd4 2.983224 1_555
Co0 Nd3 2.983224 1_555
Co0 Nd3 2.983229 1_545
Co0 Nd4 2.983229 1_565
Co0 Nd4 2.983229 1_655
Co0 Nd3 2.983229 1_455
Co1 Co10 2.426736 1_555
Co1 Co12 2.426738 1_565
Co1 Co11 2.426738 1_655
Co1 Co16 2.485485 1_555
Co1 Co17 2.485487 1_655
Co1 Co18 2.485487 1_565
Co1 Nd2 2.908951 1_655
Co1 Nd2 2.908951 1_665
Co1 Nd2 2.908951 1_565
Co2 Co7 2.426736 1_555
Co2 Co9 2.426738 1_545
Co2 Co8 2.426738 1_455
Co2 Nd1 2.908951 1_455
Co2 Nd1 2.908951 1_445
Co2 Nd1 2.908951 1_545
Co3 Nd0 2.905105 1_655
Co3 Nd0 2.905105 1_665
Co3 Nd0 2.905106 1_565
Co4 Nd0 2.905105 1_566
Co4 Nd0 2.905105 1_556
Co4 Nd0 2.905106 1_656
Co5 Co8 2.435742 1_555
Co5 Co7 2.435742 1_555
Co5 Co9 2.435742 1_555
Co5 Nd1 2.907275 1_545
Co5 Nd1 2.907275 1_455
Co5 Nd1 2.907280 1_555
Co6 Nd2 2.907275 1_565
Co6 Nd2 2.907275 1_655
Co6 Nd2 2.907280 1_555
Co7 Co9 2.486063 1_555
Co7 Co8 2.486063 1_555
Co7 Co9 2.545639 1_545
Co7 Co8 2.545639 1_455
Co7 Nd3 2.929718 1_545
Co7 Nd3 2.929718 1_455
Co7 Nd4 3.213812 1_555
Co7 Nd1 3.265379 1_455
Co7 Nd1 3.265379 1_545
Co8 Co9 2.486063 1_555
Co8 Co9 2.545639 1_645
Co8 Nd3 2.929716 1_555
Co8 Nd3 2.929720 1_545
Co8 Nd4 3.213814 1_655
Co8 Nd1 3.265377 1_545
Co8 Nd1 3.265380 1_555
Co9 Nd3 2.929716 1_555
Co9 Nd3 2.929720 1_455
Co9 Nd4 3.213814 1_565
Co9 Nd1 3.265377 1_455
Co9 Nd1 3.265381 1_555
Co10 Co6 2.435742 1_555
Co10 Co12 2.486063 1_555
Co10 Co11 2.486063 1_555
Co10 Co12 2.545639 1_565
Co10 Co11 2.545639 1_655
Co10 Nd4 2.929718 1_565
Co10 Nd4 2.929718 1_655
Co10 Nd3 3.213812 1_555
Co10 Nd2 3.265379 1_655
Co10 Nd2 3.265379 1_565
Co11 Co6 2.435742 1_555
Co11 Co12 2.486063 1_555
Co11 Co12 2.545639 1_465
Co11 Nd4 2.929716 1_555
Co11 Nd4 2.929720 1_565
Co11 Nd3 3.213814 1_455
Co11 Nd2 3.265377 1_565
Co11 Nd2 3.265380 1_555
Co12 Co6 2.435742 1_555
Co12 Nd4 2.929716 1_555
Co12 Nd4 2.929720 1_655
Co12 Nd3 3.213814 1_545
Co12 Nd2 3.265377 1_655
Co12 Nd2 3.265381 1_555
Co13 Co3 2.439067 1_555
Co13 Co5 2.458804 1_555
Co13 Co4 2.463604 1_554
Co13 Co2 2.485485 1_555
Co13 Co15 2.511222 1_545
Co13 Co14 2.511222 1_455
Co13 Co15 2.520480 1_555
Co13 Co14 2.520480 1_555
Co13 Nd1 3.133694 1_545
Co13 Nd1 3.133694 1_455
Co13 Nd0 3.198214 1_565
Co13 Nd0 3.198214 1_655
Co14 Co3 2.439067 1_555
Co14 Co5 2.458804 1_555
Co14 Co4 2.463604 1_654
Co14 Co2 2.485487 1_655
Co14 Co15 2.511222 1_645
Co14 Co15 2.520480 1_555
Co14 Nd1 3.133692 1_545
Co14 Nd1 3.133696 1_555
Co14 Nd0 3.198214 1_665
Co14 Nd0 3.198214 1_655
Co15 Co3 2.439067 1_555
Co15 Co5 2.458804 1_555
Co15 Co4 2.463604 1_564
Co15 Co2 2.485487 1_565
Co15 Nd1 3.133692 1_455
Co15 Nd1 3.133696 1_555
Co15 Nd0 3.198214 1_565
Co15 Nd0 3.198214 1_665
Co16 Co4 2.439067 1_555
Co16 Co6 2.458804 1_555
Co16 Co3 2.463604 1_556
Co16 Co18 2.511222 1_565
Co16 Co17 2.511222 1_655
Co16 Co18 2.520480 1_555
Co16 Co17 2.520480 1_555
Co16 Nd2 3.133694 1_565
Co16 Nd2 3.133694 1_655
Co16 Nd0 3.198214 1_656
Co16 Nd0 3.198214 1_566
Co17 Co4 2.439067 1_555
Co17 Co6 2.458804 1_555
Co17 Co3 2.463604 1_456
Co17 Co18 2.511222 1_465
Co17 Co18 2.520480 1_555
Co17 Nd2 3.133692 1_565
Co17 Nd2 3.133696 1_555
Co17 Nd0 3.198214 1_556
Co17 Nd0 3.198214 1_566
Co18 Co4 2.439067 1_555
Co18 Co6 2.458804 1_555
Co18 Co3 2.463604 1_546
Co18 Nd2 3.133692 1_655
Co18 Nd2 3.133696 1_555
Co18 Nd0 3.198214 1_656
Co18 Nd0 3.198214 1_556
