# generated using pymatgen
data_Ba13B30(PbO30)2
_symmetry_space_group_name_H-M   'P 1'
_cell_length_a   7.87145594
_cell_length_b   7.87145594
_cell_length_c   30.12935862
_cell_angle_alpha   85.80960899
_cell_angle_beta   85.80960899
_cell_angle_gamma   55.00806080
_symmetry_Int_Tables_number   1
_chemical_formula_structural   Ba13B30(PbO30)2
_chemical_formula_sum   'Ba13 B30 Pb2 O60'
_cell_volume   1524.15300696
_cell_formula_units_Z   1
loop_
 _symmetry_equiv_pos_site_id
 _symmetry_equiv_pos_as_xyz
  1  'x, y, z'
loop_
 _atom_site_type_symbol
 _atom_site_label
 _atom_site_symmetry_multiplicity
 _atom_site_fract_x
 _atom_site_fract_y
 _atom_site_fract_z
 _atom_site_occupancy
  Ba  Ba0  1  0.87747800  0.47813000  0.76007300  1
  Ba  Ba1  1  0.47736000  0.07738900  0.96038600  1
  Ba  Ba2  1  0.07735200  0.67746600  0.16041600  1
  Ba  Ba3  1  0.67646100  0.27593400  0.36079900  1
  Ba  Ba4  1  0.27660800  0.87658400  0.56046900  1
  Ba  Ba5  1  0.92261100  0.52264000  0.03961400  1
  Ba  Ba6  1  0.52187000  0.12252200  0.23992700  1
  Ba  Ba7  1  0.12341600  0.72339200  0.43953100  1
  Ba  Ba8  1  0.72406600  0.32353900  0.63920100  1
  Ba  Ba9  1  0.32253400  0.92264800  0.83958400  1
  Ba  Ba10  1  0.60016500  0.20000700  0.79997400  1
  Ba  Ba11  1  0.19997500  0.80002500  0.00000000  1
  Ba  Ba12  1  0.79999300  0.39983500  0.20002600  1
  B  B0  1  0.10516900  0.55885000  0.92637700  1
  B  B1  1  0.70517200  0.15881500  0.12639000  1
  B  B2  1  0.30524200  0.76221500  0.32659700  1
  B  B3  1  0.90372800  0.36322200  0.52651600  1
  B  B4  1  0.50366500  0.95977200  0.72631200  1
  B  B5  1  0.11466500  0.47138000  0.84841900  1
  B  B6  1  0.71468300  0.07140100  0.04843000  1
  B  B7  1  0.31483700  0.67130900  0.24875400  1
  B  B8  1  0.91888400  0.27020400  0.44866900  1
  B  B9  1  0.51875700  0.87024500  0.64832600  1
  B  B10  1  0.81272900  0.80259400  0.87770500  1
  B  B11  1  0.41274900  0.40261100  0.07771100  1
  B  B12  1  0.01234700  0.00240000  0.27774300  1
  B  B13  1  0.61389900  0.60327500  0.47677900  1
  B  B14  1  0.21426000  0.20346200  0.67674500  1
  B  B15  1  0.59738900  0.58725100  0.92228900  1
  B  B16  1  0.19740600  0.18727100  0.12229500  1
  B  B17  1  0.79653800  0.78574000  0.32325500  1
  B  B18  1  0.39672500  0.38610100  0.52322100  1
  B  B19  1  0.99760000  0.98765300  0.72225700  1
  B  B20  1  0.84118500  0.29482800  0.87361000  1
  B  B21  1  0.44115000  0.89483100  0.07362300  1
  B  B22  1  0.04022800  0.49633500  0.27368800  1
  B  B23  1  0.63677800  0.09627200  0.47348400  1
  B  B24  1  0.23778500  0.69475800  0.67340300  1
  B  B25  1  0.92859900  0.28531700  0.95157000  1
  B  B26  1  0.52862000  0.88533500  0.15158100  1
  B  B27  1  0.12975500  0.48124300  0.35167400  1
  B  B28  1  0.72979600  0.08111600  0.55133100  1
  B  B29  1  0.32869100  0.68516300  0.75124600  1
  Pb  Pb0  1  0.39990700  0.00007300  0.40001200  1
  Pb  Pb1  1  0.99992700  0.60009300  0.59998800  1
  O  O0  1  0.20634600  0.42720900  0.89001600  1
  O  O1  1  0.80634200  0.02719700  0.09002500  1
  O  O2  1  0.40571100  0.62795700  0.29053200  1
  O  O3  1  0.00594500  0.22784200  0.49076400  1
  O  O4  1  0.60661400  0.82705500  0.69024500  1
  O  O5  1  0.92165500  0.66457600  0.84273000  1
  O  O6  1  0.52171300  0.26461300  0.04273600  1
  O  O7  1  0.12214700  0.86451400  0.24278700  1
  O  O8  1  0.72432300  0.46133000  0.44253200  1
  O  O9  1  0.32385100  0.06141200  0.64247100  1
  O  O10  1  0.91276700  0.74929300  0.91857900  1
  O  O11  1  0.51277500  0.34928500  0.11858900  1
  O  O12  1  0.11165700  0.95024700  0.31862200  1
  O  O13  1  0.70996800  0.55119200  0.51815800  1
  O  O14  1  0.31104600  0.15022300  0.71812300  1
  O  O15  1  0.65071500  0.48722500  0.88141100  1
  O  O16  1  0.25070700  0.08723300  0.08142100  1
  O  O17  1  0.84977700  0.68895400  0.28187700  1
  O  O18  1  0.44880800  0.29003200  0.48184200  1
  O  O19  1  0.04975300  0.88834300  0.68137800  1
  O  O20  1  0.97280300  0.19365800  0.90997500  1
  O  O21  1  0.57279100  0.79365400  0.10998400  1
  O  O22  1  0.17294500  0.39338600  0.30975500  1
  O  O23  1  0.77215800  0.99405500  0.50923600  1
  O  O24  1  0.37204300  0.59428900  0.70946800  1
  O  O25  1  0.73538700  0.47828700  0.95726400  1
  O  O26  1  0.33542400  0.07834500  0.15727000  1
  O  O27  1  0.93858800  0.67614900  0.35752900  1
  O  O28  1  0.53867000  0.27567700  0.55746800  1
  O  O29  1  0.13548600  0.87785300  0.75721300  1
  O  O30  1  0.18922900  0.50048000  0.96609200  1
  O  O31  1  0.78918700  0.10043100  0.16610900  1
  O  O32  1  0.39028800  0.70663800  0.36639400  1
  O  O33  1  0.98859800  0.30818600  0.56637300  1
  O  O34  1  0.58748300  0.90191400  0.76608500  1
  O  O35  1  0.20106800  0.33824300  0.81571200  1
  O  O36  1  0.80112300  0.93820200  0.01573300  1
  O  O37  1  0.40148400  0.53799900  0.21606800  1
  O  O38  1  0.00940100  0.13666100  0.41577600  1
  O  O39  1  0.60902600  0.73683200  0.61542700  1
  O  O40  1  0.62255000  0.97450100  0.87349000  1
  O  O41  1  0.22257800  0.57450600  0.07349600  1
  O  O42  1  0.82156000  0.17380400  0.27354100  1
  O  O43  1  0.42443700  0.77764800  0.47183500  1
  O  O44  1  0.02541800  0.37829100  0.67179100  1
  O  O45  1  0.42549400  0.77742200  0.92650400  1
  O  O46  1  0.02549900  0.37745000  0.12651000  1
  O  O47  1  0.62170900  0.97458200  0.32820900  1
  O  O48  1  0.22235200  0.57556300  0.52816500  1
  O  O49  1  0.82619600  0.17844000  0.72645900  1
  O  O50  1  0.89956900  0.21081300  0.83389100  1
  O  O51  1  0.49952000  0.81077100  0.03390800  1
  O  O52  1  0.09808600  0.41251700  0.23391500  1
  O  O53  1  0.69181400  0.01140200  0.43362700  1
  O  O54  1  0.29336200  0.60971200  0.63360600  1
  O  O55  1  0.06179800  0.19887700  0.98426700  1
  O  O56  1  0.66175700  0.79893200  0.18428800  1
  O  O57  1  0.26316800  0.39097400  0.38457300  1
  O  O58  1  0.86333900  0.99059900  0.58422400  1
  O  O59  1  0.46200100  0.59851600  0.78393200  1
loop_
_geom_bond_atom_site_label_1
_geom_bond_atom_site_label_2
_geom_bond_distance
_geom_bond_site_symmetry_2
Ba0 O35 2.765504 1_655
Ba0 O34 2.768674 1_555
Ba0 O44 2.802114 1_655
Ba0 O49 2.873074 1_555
Ba0 O59 2.883032 1_555
Ba0 O50 2.890900 1_555
Ba0 O4 3.100072 1_555
Ba0 O14 3.106482 1_655
Ba0 O5 3.118156 1_555
Ba1 O40 2.761814 1_545
Ba1 O36 2.761816 1_546
Ba1 O30 2.761939 1_555
Ba1 O51 2.880805 1_546
Ba1 O55 2.881157 1_555
Ba1 O45 2.881445 1_545
Ba1 O10 3.113758 1_545
Ba1 O0 3.114317 1_555
Ba1 O6 3.114633 1_556
Ba2 O31 2.761203 1_465
Ba2 O41 2.762614 1_555
Ba2 O37 2.769482 1_555
Ba2 O52 2.875326 1_555
Ba2 O56 2.881398 1_455
Ba2 O46 2.882044 1_555
Ba2 O11 3.114217 1_555
Ba2 O1 3.114422 1_465
Ba2 O7 3.115877 1_555
Ba3 O42 2.771193 1_555
Ba3 O32 2.804570 1_555
Ba3 O38 2.808490 1_655
Ba3 O53 2.871860 1_555
Ba3 O57 2.879587 1_555
Ba3 O47 2.889881 1_545
Ba3 O8 3.102767 1_555
Ba3 O12 3.112806 1_645
Ba3 O2 3.119489 1_555
Ba4 O39 2.804335 1_555
Ba4 O43 2.811133 1_555
Ba4 O33 2.812281 1_465
Ba4 O48 2.881407 1_555
Ba4 O58 2.881857 1_455
Ba4 O54 2.886898 1_555
Ba4 O9 3.104707 1_565
Ba4 O13 3.105231 1_555
Ba4 O3 3.105424 1_565
Ba5 O46 2.761814 1_655
Ba5 O55 2.761816 1_654
Ba5 O51 2.761939 1_555
Ba5 O30 2.880805 1_654
Ba5 O36 2.881157 1_555
Ba5 O41 2.881445 1_655
Ba5 O16 3.113758 1_655
Ba5 O21 3.114317 1_555
Ba5 O25 3.114633 1_554
Ba6 O56 2.765504 1_545
Ba6 O52 2.768674 1_555
Ba6 O47 2.802114 1_545
Ba6 O42 2.873074 1_555
Ba6 O37 2.883032 1_555
Ba6 O31 2.890900 1_555
Ba6 O22 3.100072 1_555
Ba6 O17 3.106482 1_545
Ba6 O26 3.118156 1_555
Ba7 O57 2.804335 1_555
Ba7 O48 2.811133 1_555
Ba7 O53 2.812281 1_465
Ba7 O43 2.881407 1_555
Ba7 O38 2.881857 1_565
Ba7 O32 2.886898 1_555
Ba7 O27 3.104707 1_455
Ba7 O18 3.105231 1_555
Ba7 O23 3.105424 1_455
Ba8 O49 2.771193 1_555
Ba8 O54 2.804570 1_555
Ba8 O58 2.808490 1_545
Ba8 O33 2.871860 1_555
Ba8 O39 2.879587 1_555
Ba8 O44 2.889881 1_655
Ba8 O28 3.102767 1_555
Ba8 O19 3.112806 1_645
Ba8 O24 3.119489 1_555
Ba9 O50 2.761203 1_465
Ba9 O45 2.762614 1_555
Ba9 O59 2.769482 1_555
Ba9 O34 2.875326 1_555
Ba9 O35 2.881398 1_565
Ba9 O40 2.882044 1_555
Ba9 O15 3.114217 1_555
Ba9 O20 3.114422 1_465
Ba9 O29 3.115877 1_555
Ba10 O34 2.681773 1_545
Ba10 O59 2.683044 1_555
Ba10 O50 2.683344 1_555
Ba10 O40 2.685478 1_545
Ba10 O35 2.686056 1_555
Ba10 O49 2.689425 1_555
Ba11 O51 2.683983 1_555
Ba11 O30 2.683983 1_554
Ba11 O55 2.684372 1_564
Ba11 O36 2.684372 1_455
Ba11 O45 2.684630 1_554
Ba11 O41 2.684630 1_555
Ba12 O52 2.681773 1_655
Ba12 O37 2.683044 1_555
Ba12 O31 2.683344 1_555
Ba12 O46 2.685478 1_655
Ba12 O56 2.686056 1_555
Ba12 O42 2.689425 1_555
B0 O30 1.329444 1_555
B0 O10 1.411636 1_455
B0 O0 1.414244 1_555
B1 O31 1.329424 1_555
B1 O11 1.411725 1_555
B1 O1 1.414250 1_555
B2 O32 1.334926 1_555
B2 O12 1.408960 1_555
B2 O2 1.416572 1_555
B3 O33 1.336162 1_555
B3 O13 1.411474 1_555
B3 O3 1.414567 1_655
B4 O34 1.330368 1_555
B4 O4 1.412503 1_555
B4 O14 1.414495 1_565
B5 O35 1.329446 1_555
B5 O0 1.411786 1_555
B5 O5 1.414320 1_455
B6 O36 1.329487 1_545
B6 O1 1.411627 1_555
B6 O6 1.414248 1_555
B7 O37 1.329724 1_555
B7 O7 1.414217 1_555
B7 O2 1.414711 1_555
B8 O38 1.335983 1_655
B8 O3 1.411568 1_655
B8 O8 1.414622 1_555
B9 O39 1.335519 1_555
B9 O4 1.408627 1_555
B9 O9 1.414976 1_565
B10 O40 1.329484 1_555
B10 O5 1.411658 1_555
B10 O10 1.414214 1_555
B11 O41 1.329415 1_555
B11 O6 1.411616 1_555
B11 O11 1.414262 1_555
B12 O42 1.330649 1_455
B12 O7 1.411517 1_545
B12 O12 1.412565 1_545
B13 O43 1.336079 1_555
B13 O8 1.411436 1_555
B13 O13 1.414832 1_555
B14 O44 1.334883 1_555
B14 O9 1.411755 1_555
B14 O14 1.416528 1_555
B15 O45 1.329415 1_555
B15 O25 1.411616 1_555
B15 O15 1.414262 1_555
B16 O46 1.329484 1_555
B16 O26 1.411658 1_555
B16 O16 1.414214 1_555
B17 O47 1.334883 1_555
B17 O27 1.411755 1_555
B17 O17 1.416528 1_555
B18 O48 1.336079 1_555
B18 O28 1.411436 1_555
B18 O18 1.414832 1_555
B19 O49 1.330649 1_565
B19 O29 1.411517 1_655
B19 O19 1.412565 1_655
B20 O50 1.329424 1_555
B20 O15 1.411725 1_555
B20 O20 1.414250 1_555
B21 O51 1.329444 1_555
B21 O16 1.411636 1_565
B21 O21 1.414244 1_555
B22 O52 1.330368 1_555
B22 O22 1.412503 1_555
B22 O17 1.414495 1_455
B23 O53 1.336162 1_555
B23 O18 1.411474 1_555
B23 O23 1.414567 1_545
B24 O54 1.334926 1_555
B24 O19 1.408960 1_555
B24 O24 1.416572 1_555
B25 O55 1.329487 1_655
B25 O20 1.411627 1_555
B25 O25 1.414248 1_555
B26 O56 1.329446 1_555
B26 O21 1.411786 1_555
B26 O26 1.414320 1_565
B27 O57 1.335519 1_555
B27 O22 1.408627 1_555
B27 O27 1.414976 1_455
B28 O58 1.335983 1_545
B28 O23 1.411568 1_545
B28 O28 1.414622 1_555
B29 O59 1.329724 1_555
B29 O29 1.414217 1_555
B29 O24 1.414711 1_555
O32 Pb0 2.630658 1_565
O33 Pb1 2.627087 1_555
O38 Pb0 2.626967 1_555
O39 Pb1 2.628333 1_555
O43 Pb0 2.627751 1_565
O44 Pb1 2.622654 1_455
O47 Pb0 2.622654 1_565
O48 Pb1 2.627751 1_455
O53 Pb0 2.627087 1_555
O54 Pb1 2.630658 1_455
O57 Pb0 2.628333 1_555
O58 Pb1 2.626967 1_555
