# generated using pymatgen
data_CrCo2N3
_symmetry_space_group_name_H-M   'P 1'
_cell_length_a   5.38139042
_cell_length_b   8.98754888
_cell_length_c   9.49507900
_cell_angle_alpha   89.99929846
_cell_angle_beta   89.99946254
_cell_angle_gamma   33.36916680
_symmetry_Int_Tables_number   1
_chemical_formula_structural   CrCo2N3
_chemical_formula_sum   'Cr4 Co8 N12'
_cell_volume   252.59330083
_cell_formula_units_Z   4
loop_
 _symmetry_equiv_pos_site_id
 _symmetry_equiv_pos_as_xyz
  1  'x, y, z'
loop_
 _atom_site_type_symbol
 _atom_site_label
 _atom_site_symmetry_multiplicity
 _atom_site_fract_x
 _atom_site_fract_y
 _atom_site_fract_z
 _atom_site_occupancy
  Cr  Cr0  1  0.00000800  0.30962800  0.85101600  1
  Cr  Cr1  1  0.99999200  0.69037200  0.14898400  1
  Cr  Cr2  1  0.99998100  0.19037800  0.35099800  1
  Cr  Cr3  1  0.00001900  0.80962200  0.64900200  1
  Co  Co0  1  0.99999000  0.49369100  0.62524800  1
  Co  Co1  1  0.00001000  0.50630900  0.37475200  1
  Co  Co2  1  0.99999800  0.00631600  0.12525100  1
  Co  Co3  1  0.00000200  0.99368400  0.87474900  1
  Co  Co4  1  0.00002000  0.19713600  0.63089800  1
  Co  Co5  1  0.99998000  0.80286400  0.36910200  1
  Co  Co6  1  0.99997400  0.30285300  0.13088800  1
  Co  Co7  1  0.00002600  0.69714700  0.86911200  1
  N  N0  1  0.99999300  0.15737700  0.99542700  1
  N  N1  1  0.00000700  0.84262300  0.00457300  1
  N  N2  1  0.00001800  0.34264400  0.49542900  1
  N  N3  1  0.99998200  0.65735600  0.50457100  1
  N  N4  1  0.00000600  0.49979800  0.82844500  1
  N  N5  1  0.99999400  0.50020200  0.17155500  1
  N  N6  1  0.99999100  0.00020600  0.32845000  1
  N  N7  1  0.00000900  0.99979400  0.67155000  1
  N  N8  1  0.49998100  0.50428200  0.74999300  1
  N  N9  1  0.50000100  0.99573000  0.25000400  1
  N  N10  1  0.50001900  0.49571800  0.25000700  1
  N  N11  1  0.49999900  0.00427000  0.74999600  1
loop_
_geom_bond_atom_site_label_1
_geom_bond_atom_site_label_2
_geom_bond_distance
_geom_bond_site_symmetry_2
Cr0 N4 1.722535 1_555
Cr0 N11 1.832386 1_555
Cr0 N8 1.832603 1_455
Cr0 N0 1.937196 1_455
Cr1 N5 1.722535 1_555
Cr1 N9 1.832386 1_555
Cr1 N10 1.832603 1_655
Cr1 N1 1.937196 1_655
Cr2 N6 1.722495 1_555
Cr2 N10 1.832156 1_555
Cr2 N9 1.832444 1_645
Cr2 N2 1.937519 1_655
Cr3 N7 1.722495 1_555
Cr3 N8 1.832156 1_555
Cr3 N11 1.832444 1_465
Cr3 N3 1.937519 1_455
Co0 N2 1.833583 1_655
Co0 N3 1.864533 1_555
Co0 N4 1.930155 1_655
Co1 N3 1.833583 1_455
Co1 N2 1.864533 1_555
Co1 N5 1.930155 1_455
Co2 N0 1.833762 1_554
Co2 N1 1.864756 1_645
Co2 N6 1.930172 1_555
Co3 N1 1.833762 1_556
Co3 N0 1.864756 1_465
Co3 N7 1.930172 1_555
Co4 N7 1.815181 1_545
Co4 N2 1.834315 1_555
Co4 N11 1.932034 1_555
Co4 N8 1.932040 1_455
Co5 N6 1.815181 1_565
Co5 N3 1.834315 1_555
Co5 N9 1.932034 1_555
Co5 N10 1.932040 1_655
Co6 N5 1.815321 1_555
Co6 N0 1.834025 1_554
Co6 N10 1.932065 1_555
Co6 N9 1.932079 1_645
Co7 N4 1.815321 1_555
Co7 N1 1.834025 1_556
Co7 N8 1.932065 1_555
Co7 N11 1.932079 1_465
