# generated using pymatgen
data_Mo3(AsO4)4
_symmetry_space_group_name_H-M   'P 1'
_cell_length_a   4.94292000
_cell_length_b   8.76611800
_cell_length_c   15.86774638
_cell_angle_alpha   81.06444099
_cell_angle_beta   90.00000000
_cell_angle_gamma   90.00000000
_symmetry_Int_Tables_number   1
_chemical_formula_structural   Mo3(AsO4)4
_chemical_formula_sum   'Mo6 As8 O32'
_cell_volume   679.20856440
_cell_formula_units_Z   2
loop_
 _symmetry_equiv_pos_site_id
 _symmetry_equiv_pos_as_xyz
  1  'x, y, z'
loop_
 _atom_site_type_symbol
 _atom_site_label
 _atom_site_symmetry_multiplicity
 _atom_site_fract_x
 _atom_site_fract_y
 _atom_site_fract_z
 _atom_site_occupancy
  Mo  Mo0  1  0.44788700  0.21865500  0.61449200  1
  Mo  Mo1  1  0.55211300  0.78134500  0.38550800  1
  Mo  Mo2  1  0.94788700  0.78134500  0.88550800  1
  Mo  Mo3  1  0.05211300  0.21865500  0.11449200  1
  Mo  Mo4  1  0.00000000  0.50000000  0.50000000  1
  Mo  Mo5  1  0.50000000  0.50000000  0.00000000  1
  As  As0  1  0.01449700  0.18769100  0.33418200  1
  As  As1  1  0.47338400  0.39290600  0.39494200  1
  As  As2  1  0.97338400  0.60709400  0.10505800  1
  As  As3  1  0.02661600  0.39290600  0.89494200  1
  As  As4  1  0.98550300  0.81230900  0.66581800  1
  As  As5  1  0.52661600  0.60709400  0.60505800  1
  As  As6  1  0.48550300  0.18769100  0.83418200  1
  As  As7  1  0.51449700  0.81230900  0.16581800  1
  O  O0  1  0.39938700  0.77473700  0.27366900  1
  O  O1  1  0.78090100  0.69280100  0.01265000  1
  O  O2  1  0.24161200  0.37336900  0.31417100  1
  O  O3  1  0.36155000  0.13527800  0.14477800  1
  O  O4  1  0.75838800  0.62663100  0.68582900  1
  O  O5  1  0.10061300  0.77473700  0.77366900  1
  O  O6  1  0.74161200  0.62663100  0.18582900  1
  O  O7  1  0.74869100  0.52400000  0.89127400  1
  O  O8  1  0.79721800  0.23479900  0.88783000  1
  O  O9  1  0.60061300  0.22526300  0.72633100  1
  O  O10  1  0.13845000  0.13527800  0.64477800  1
  O  O11  1  0.25130900  0.47600000  0.10872600  1
  O  O12  1  0.28821000  0.58556600  0.42179200  1
  O  O13  1  0.20278200  0.76520100  0.11217000  1
  O  O14  1  0.63047100  0.07789400  0.57667400  1
  O  O15  1  0.13047100  0.92210600  0.92332600  1
  O  O16  1  0.78821000  0.41443400  0.07820800  1
  O  O17  1  0.25838800  0.37336900  0.81417100  1
  O  O18  1  0.29721800  0.76520100  0.61217000  1
  O  O19  1  0.24869100  0.47600000  0.60872600  1
  O  O20  1  0.86952900  0.07789400  0.07667400  1
  O  O21  1  0.36952900  0.92210600  0.42332600  1
  O  O22  1  0.21909900  0.30719900  0.98735000  1
  O  O23  1  0.28090100  0.30719900  0.48735000  1
  O  O24  1  0.71179000  0.41443400  0.57820800  1
  O  O25  1  0.89938700  0.22526300  0.22633100  1
  O  O26  1  0.63845000  0.86472200  0.85522200  1
  O  O27  1  0.70278200  0.23479900  0.38783000  1
  O  O28  1  0.71909900  0.69280100  0.51265000  1
  O  O29  1  0.75130900  0.52400000  0.39127400  1
  O  O30  1  0.21179000  0.58556600  0.92179200  1
  O  O31  1  0.86155000  0.86472200  0.35522200  1
loop_
_geom_bond_atom_site_label_1
_geom_bond_atom_site_label_2
_geom_bond_distance
_geom_bond_site_symmetry_2
Mo0 O14 1.710908 1_555
Mo0 O10 1.730745 1_555
Mo0 O9 1.937654 1_555
Mo0 O24 2.161375 1_555
Mo0 O23 2.206226 1_555
Mo0 O19 2.450075 1_555
Mo1 O21 1.710908 1_555
Mo1 O31 1.730745 1_555
Mo1 O0 1.937654 1_555
Mo1 O12 2.161375 1_555
Mo1 O28 2.206226 1_555
Mo1 O29 2.450075 1_555
Mo2 O15 1.710908 1_655
Mo2 O26 1.730745 1_555
Mo2 O5 1.937654 1_655
Mo2 O30 2.161375 1_655
Mo2 O1 2.206226 1_556
Mo2 O7 2.450075 1_555
Mo3 O20 1.710908 1_455
Mo3 O3 1.730745 1_555
Mo3 O25 1.937654 1_455
Mo3 O16 2.161375 1_455
Mo3 O22 2.206226 1_554
Mo3 O11 2.450075 1_555
Mo4 O12 1.960353 1_555
Mo4 O24 1.960353 1_455
Mo4 O19 2.102149 1_555
Mo4 O29 2.102149 1_455
Mo4 O28 2.220366 1_455
Mo4 O23 2.220366 1_555
Mo5 O16 1.960353 1_555
Mo5 O30 1.960353 1_554
Mo5 O7 2.102149 1_554
Mo5 O11 2.102149 1_555
Mo5 O1 2.220366 1_555
Mo5 O22 2.220366 1_554
As0 O25 1.784894 1_455
As0 O27 1.838045 1_455
As0 O2 1.962105 1_555
As1 O2 1.747176 1_555
As1 O29 1.786185 1_555
As1 O27 1.807760 1_555
As1 O23 1.810392 1_555
As1 O12 2.023644 1_555
As2 O6 1.747176 1_555
As2 O11 1.786185 1_655
As2 O13 1.807760 1_655
As2 O1 1.810392 1_555
As2 O16 2.023644 1_555
As3 O17 1.747176 1_555
As3 O7 1.786185 1_455
As3 O8 1.807760 1_455
As3 O22 1.810392 1_555
As3 O30 2.023644 1_555
As4 O5 1.784894 1_655
As4 O18 1.838045 1_655
As4 O4 1.962105 1_555
As5 O4 1.747176 1_555
As5 O19 1.786185 1_555
As5 O18 1.807760 1_555
As5 O28 1.810392 1_555
As5 O24 2.023644 1_555
As6 O9 1.784894 1_555
As6 O8 1.838045 1_555
As6 O17 1.962105 1_555
As7 O0 1.784894 1_555
As7 O13 1.838045 1_555
As7 O6 1.962105 1_555
