# generated using pymatgen
data_Sc2HgOs
_symmetry_space_group_name_H-M   'P 1'
_cell_length_a   12.13151337
_cell_length_b   12.13151337
_cell_length_c   12.13151337
_cell_angle_alpha   127.06514223
_cell_angle_beta   110.10289722
_cell_angle_gamma   93.07081516
_symmetry_Int_Tables_number   1
_chemical_formula_structural   Sc2HgOs
_chemical_formula_sum   'Sc2 Hg1 Os1'
_cell_volume   1254.29555710
_cell_formula_units_Z   1
loop_
 _symmetry_equiv_pos_site_id
 _symmetry_equiv_pos_as_xyz
  1  'x, y, z'
loop_
 _atom_site_type_symbol
 _atom_site_label
 _atom_site_symmetry_multiplicity
 _atom_site_fract_x
 _atom_site_fract_y
 _atom_site_fract_z
 _atom_site_occupancy
  Sc  Sc0  1  0.00000000  0.20759000  0.20759000  1
  Sc  Sc1  1  0.00000000  0.79241000  0.79241000  1
  Hg  Hg0  1  0.00000000  0.50000000  0.50000000  1
  Os  Os0  1  0.00000000  0.00000000  0.00000000  1
loop_
_geom_bond_atom_site_label_1
_geom_bond_atom_site_label_2
_geom_bond_distance
_geom_bond_site_symmetry_2
Hg0 Sc0 3.162053 1_555
Hg0 Sc1 3.162053 1_555
Os0 Sc1 2.244829 1_544
Os0 Sc0 2.244829 1_555
