# generated using pymatgen
data_Mg4Ti3
_symmetry_space_group_name_H-M   'P 1'
_cell_length_a   8.19409797
_cell_length_b   8.19409797
_cell_length_c   4.88414200
_cell_angle_alpha   90.00000000
_cell_angle_beta   90.00000000
_cell_angle_gamma   119.99999980
_symmetry_Int_Tables_number   1
_chemical_formula_structural   Mg4Ti3
_chemical_formula_sum   'Mg8 Ti6'
_cell_volume   284.00188290
_cell_formula_units_Z   2
loop_
 _symmetry_equiv_pos_site_id
 _symmetry_equiv_pos_as_xyz
  1  'x, y, z'
loop_
 _atom_site_type_symbol
 _atom_site_label
 _atom_site_symmetry_multiplicity
 _atom_site_fract_x
 _atom_site_fract_y
 _atom_site_fract_z
 _atom_site_occupancy
  Mg  Mg0  1  0.62583100  0.53668000  0.75000000  1
  Mg  Mg1  1  0.37416900  0.46332000  0.25000000  1
  Mg  Mg2  1  0.33333300  0.66666700  0.75000000  1
  Mg  Mg3  1  0.53668000  0.91084900  0.25000000  1
  Mg  Mg4  1  0.91084900  0.37416900  0.75000000  1
  Mg  Mg5  1  0.08915100  0.62583100  0.25000000  1
  Mg  Mg6  1  0.46332000  0.08915100  0.75000000  1
  Mg  Mg7  1  0.66666700  0.33333300  0.25000000  1
  Ti  Ti0  1  0.82913400  0.78770600  0.25000000  1
  Ti  Ti1  1  0.17086600  0.21229400  0.75000000  1
  Ti  Ti2  1  0.78770600  0.95857200  0.75000000  1
  Ti  Ti3  1  0.95857200  0.17086600  0.25000000  1
  Ti  Ti4  1  0.04142800  0.82913400  0.75000000  1
  Ti  Ti5  1  0.21229400  0.04142800  0.25000000  1
loop_
_geom_bond_atom_site_label_1
_geom_bond_atom_site_label_2
_geom_bond_distance
_geom_bond_site_symmetry_2
Mg0 Ti2 3.020752 1_555
Mg0 Ti4 3.029681 1_655
Mg0 Mg1 3.055797 1_556
Mg0 Mg1 3.055797 1_555
Mg0 Mg7 3.067507 1_556
Mg0 Mg7 3.067507 1_555
Mg0 Mg2 3.071122 1_555
Mg0 Ti0 3.089213 1_556
Mg0 Ti0 3.089213 1_555
Mg0 Mg4 3.215217 1_555
Mg0 Mg6 3.215217 1_555
Mg0 Ti1 3.324776 1_555
Mg1 Ti5 3.020752 1_555
Mg1 Ti3 3.029681 1_455
Mg1 Mg2 3.067507 1_554
Mg1 Mg2 3.067507 1_555
Mg1 Mg7 3.071122 1_555
Mg1 Ti1 3.089213 1_554
Mg1 Ti1 3.089213 1_555
Mg1 Mg5 3.215217 1_555
Mg1 Mg3 3.215217 1_555
Mg1 Ti0 3.324776 1_555
Mg2 Mg5 3.067502 1_555
Mg2 Mg5 3.067502 1_556
Mg2 Mg3 3.067504 1_556
Mg2 Mg3 3.067504 1_555
Mg2 Mg6 3.071114 1_565
Mg2 Mg4 3.071116 1_455
Mg2 Ti4 3.267678 1_555
Mg2 Ti2 3.267685 1_555
Mg2 Ti1 3.267686 1_555
Mg3 Ti3 3.020752 1_565
Mg3 Ti0 3.029681 1_555
Mg3 Mg6 3.055797 1_565
Mg3 Mg6 3.055797 1_564
Mg3 Mg7 3.071114 1_565
Mg3 Ti2 3.089213 1_554
Mg3 Ti2 3.089213 1_555
Mg3 Mg5 3.215217 1_555
Mg3 Ti5 3.324776 1_565
Mg4 Ti1 3.020752 1_655
Mg4 Ti2 3.029681 1_545
Mg4 Mg5 3.055797 1_656
Mg4 Mg5 3.055797 1_655
Mg4 Mg7 3.067502 1_556
Mg4 Mg7 3.067502 1_555
Mg4 Ti3 3.089213 1_555
Mg4 Ti3 3.089213 1_556
Mg4 Mg6 3.215217 1_555
Mg4 Ti4 3.324776 1_655
Mg5 Ti0 3.020752 1_455
Mg5 Ti5 3.029681 1_565
Mg5 Mg7 3.071116 1_455
Mg5 Ti4 3.089213 1_555
Mg5 Ti4 3.089213 1_554
Mg5 Ti3 3.324776 1_455
Mg6 Ti4 3.020752 1_545
Mg6 Ti1 3.029681 1_555
Mg6 Mg7 3.067504 1_556
Mg6 Mg7 3.067504 1_555
Mg6 Ti5 3.089213 1_555
Mg6 Ti5 3.089213 1_556
Mg6 Ti2 3.324776 1_545
Mg7 Ti3 3.267678 1_555
Mg7 Ti5 3.267685 1_555
Mg7 Ti0 3.267686 1_555
Ti0 Ti3 2.766286 1_565
Ti0 Ti5 2.766286 1_665
Ti0 Ti2 2.917960 1_555
Ti0 Ti2 2.917960 1_554
Ti0 Ti4 2.917960 1_655
Ti0 Ti4 2.917960 1_654
Ti1 Ti4 2.766286 1_545
Ti1 Ti2 2.766286 1_445
Ti1 Ti5 2.917960 1_556
Ti1 Ti5 2.917960 1_555
Ti1 Ti3 2.917960 1_455
Ti1 Ti3 2.917960 1_456
Ti2 Ti4 2.766286 1_655
Ti2 Ti3 2.917960 1_566
Ti2 Ti3 2.917960 1_565
Ti3 Ti5 2.766286 1_655
Ti4 Ti5 2.917960 1_565
Ti4 Ti5 2.917960 1_566
