# generated using pymatgen
data_Nd2Mo6PtO38
_symmetry_space_group_name_H-M   'P 1'
_cell_length_a   11.56232117
_cell_length_b   11.56232117
_cell_length_c   15.54073985
_cell_angle_alpha   75.38043831
_cell_angle_beta   75.38043831
_cell_angle_gamma   54.30075970
_symmetry_Int_Tables_number   1
_chemical_formula_structural   Nd2Mo6PtO38
_chemical_formula_sum   'Nd4 Mo12 Pt2 O76'
_cell_volume   1617.90061918
_cell_formula_units_Z   2
loop_
 _symmetry_equiv_pos_site_id
 _symmetry_equiv_pos_as_xyz
  1  'x, y, z'
loop_
 _atom_site_type_symbol
 _atom_site_label
 _atom_site_symmetry_multiplicity
 _atom_site_fract_x
 _atom_site_fract_y
 _atom_site_fract_z
 _atom_site_occupancy
  Nd  Nd0  1  0.10760600  0.68179600  0.14901500  1
  Nd  Nd1  1  0.31820400  0.89239400  0.35098500  1
  Nd  Nd2  1  0.89239400  0.31820400  0.85098500  1
  Nd  Nd3  1  0.68179600  0.10760600  0.64901500  1
  Mo  Mo0  1  0.13492600  0.25273000  0.02982600  1
  Mo  Mo1  1  0.74727000  0.86507400  0.47017400  1
  Mo  Mo2  1  0.86507400  0.74727000  0.97017400  1
  Mo  Mo3  1  0.25273000  0.13492600  0.52982600  1
  Mo  Mo4  1  0.62804500  0.65883600  0.13158900  1
  Mo  Mo5  1  0.34116400  0.37195500  0.36841100  1
  Mo  Mo6  1  0.37195500  0.34116400  0.86841100  1
  Mo  Mo7  1  0.65883600  0.62804500  0.63158900  1
  Mo  Mo8  1  0.27793000  0.91501200  0.13119100  1
  Mo  Mo9  1  0.08498800  0.72207000  0.36880900  1
  Mo  Mo10  1  0.72207000  0.08498800  0.86880900  1
  Mo  Mo11  1  0.91501200  0.27793000  0.63119100  1
  Pt  Pt0  1  0.50000000  0.00000000  0.00000000  1
  Pt  Pt1  1  0.00000000  0.50000000  0.50000000  1
  O  O0  1  0.62940000  0.91253300  0.10933100  1
  O  O1  1  0.08746700  0.37060000  0.39066900  1
  O  O2  1  0.37060000  0.08746700  0.89066900  1
  O  O3  1  0.91253300  0.62940000  0.60933100  1
  O  O4  1  0.47178800  0.83647600  0.04171700  1
  O  O5  1  0.16352400  0.52821200  0.45828300  1
  O  O6  1  0.52821200  0.16352400  0.95828300  1
  O  O7  1  0.83647600  0.47178800  0.54171700  1
  O  O8  1  0.32339700  0.08803200  0.09132300  1
  O  O9  1  0.91196800  0.67660300  0.40867700  1
  O  O10  1  0.67660300  0.91196800  0.90867700  1
  O  O11  1  0.08803200  0.32339700  0.59132300  1
  O  O12  1  0.44491000  0.78885200  0.20637000  1
  O  O13  1  0.21114800  0.55509000  0.29363000  1
  O  O14  1  0.55509000  0.21114800  0.79363000  1
  O  O15  1  0.78885200  0.44491000  0.70637000  1
  O  O16  1  0.75895500  0.66443000  0.02395800  1
  O  O17  1  0.33557000  0.24104500  0.47604200  1
  O  O18  1  0.24104500  0.33557000  0.97604200  1
  O  O19  1  0.66443000  0.75895500  0.52395800  1
  O  O20  1  0.15702800  0.06242000  0.04367200  1
  O  O21  1  0.93758000  0.84297200  0.45632800  1
  O  O22  1  0.84297200  0.93758000  0.95632800  1
  O  O23  1  0.06242000  0.15702800  0.54367200  1
  O  O24  1  0.24840300  0.78227300  0.12818900  1
  O  O25  1  0.21772700  0.75159700  0.37181100  1
  O  O26  1  0.75159700  0.21772700  0.87181100  1
  O  O27  1  0.78227300  0.24840300  0.62818900  1
  O  O28  1  0.17360000  0.99326100  0.23142100  1
  O  O29  1  0.00673900  0.82640000  0.26857900  1
  O  O30  1  0.82640000  0.00673900  0.76857900  1
  O  O31  1  0.99326100  0.17360000  0.73142100  1
  O  O32  1  0.73930000  0.60708100  0.20940000  1
  O  O33  1  0.39291900  0.26070000  0.29060000  1
  O  O34  1  0.26070000  0.39291900  0.79060000  1
  O  O35  1  0.60708100  0.73930000  0.70940000  1
  O  O36  1  0.62170300  0.51534700  0.12828900  1
  O  O37  1  0.48465300  0.37829700  0.37171100  1
  O  O38  1  0.37829700  0.48465300  0.87171100  1
  O  O39  1  0.51534700  0.62170300  0.62828900  1
  O  O40  1  0.02013300  0.34162800  0.11819100  1
  O  O41  1  0.65837200  0.97986700  0.38180900  1
  O  O42  1  0.97986700  0.65837200  0.88180900  1
  O  O43  1  0.34162800  0.02013300  0.61819100  1
  O  O44  1  0.02780600  0.31787700  0.94141400  1
  O  O45  1  0.68212300  0.97219400  0.55858600  1
  O  O46  1  0.97219400  0.68212300  0.05858600  1
  O  O47  1  0.31787700  0.02780600  0.44141400  1
  O  O48  1  0.29486200  0.42290400  0.12505300  1
  O  O49  1  0.57709600  0.70513800  0.37494700  1
  O  O50  1  0.70513800  0.57709600  0.87494700  1
  O  O51  1  0.42290400  0.29486200  0.62505300  1
  O  O52  1  0.88580100  0.71036200  0.25059000  1
  O  O53  1  0.28963800  0.11419900  0.24941000  1
  O  O54  1  0.11419900  0.28963800  0.74941000  1
  O  O55  1  0.71036200  0.88580100  0.75059000  1
  O  O56  1  0.18639500  0.73806700  0.99601200  1
  O  O57  1  0.26193300  0.81360500  0.50398800  1
  O  O58  1  0.81360500  0.26193300  0.00398800  1
  O  O59  1  0.73806700  0.18639500  0.49601200  1
  O  O60  1  0.42640200  0.39576000  0.09370500  1
  O  O61  1  0.60424000  0.57359800  0.40629500  1
  O  O62  1  0.57359800  0.60424000  0.90629500  1
  O  O63  1  0.39576000  0.42640200  0.59370500  1
  O  O64  1  0.98761500  0.92793300  0.04807900  1
  O  O65  1  0.07206700  0.01238500  0.45192100  1
  O  O66  1  0.01238500  0.07206700  0.95192100  1
  O  O67  1  0.92793300  0.98761500  0.54807900  1
  O  O68  1  0.47336800  0.73427200  0.90856600  1
  O  O69  1  0.26572800  0.52663200  0.59143400  1
  O  O70  1  0.52663200  0.26572800  0.09143400  1
  O  O71  1  0.73427200  0.47336800  0.40856600  1
  O  O72  1  0.62924000  0.98942800  0.15291000  1
  O  O73  1  0.01057200  0.37076000  0.34709000  1
  O  O74  1  0.37076000  0.01057200  0.84709000  1
  O  O75  1  0.98942800  0.62924000  0.65291000  1
loop_
_geom_bond_atom_site_label_1
_geom_bond_atom_site_label_2
_geom_bond_distance
_geom_bond_site_symmetry_2
Nd0 O46 2.351051 1_455
Nd0 O56 2.392564 1_554
Nd0 O29 2.409736 1_555
Nd0 O24 2.419923 1_555
Nd0 O13 2.505930 1_555
Nd0 O48 2.525614 1_555
Nd0 O52 2.531605 1_455
Nd0 O64 2.592627 1_455
Nd1 O47 2.351051 1_565
Nd1 O57 2.392564 1_555
Nd1 O28 2.409736 1_555
Nd1 O25 2.419923 1_555
Nd1 O12 2.505930 1_555
Nd1 O49 2.525614 1_555
Nd1 O53 2.531605 1_565
Nd1 O65 2.592627 1_565
Nd2 O44 2.351051 1_655
Nd2 O58 2.392564 1_556
Nd2 O31 2.409736 1_555
Nd2 O26 2.419923 1_555
Nd2 O15 2.505930 1_555
Nd2 O50 2.525614 1_555
Nd2 O54 2.531605 1_655
Nd2 O66 2.592627 1_655
Nd3 O45 2.351051 1_545
Nd3 O59 2.392564 1_555
Nd3 O30 2.409736 1_555
Nd3 O27 2.419923 1_555
Nd3 O14 2.505930 1_555
Nd3 O51 2.525614 1_555
Nd3 O55 2.531605 1_545
Nd3 O67 2.592627 1_545
Mo0 O40 1.704193 1_555
Mo0 O44 1.799181 1_554
Mo0 O18 1.889780 1_554
Mo0 O20 2.021376 1_555
Mo0 O8 2.139635 1_555
Mo1 O41 1.704193 1_555
Mo1 O45 1.799181 1_555
Mo1 O19 1.889780 1_555
Mo1 O21 2.021376 1_555
Mo1 O9 2.139635 1_555
Mo2 O42 1.704193 1_555
Mo2 O46 1.799181 1_556
Mo2 O16 1.889780 1_556
Mo2 O22 2.021376 1_555
Mo2 O10 2.139635 1_555
Mo3 O43 1.704193 1_555
Mo3 O47 1.799181 1_555
Mo3 O17 1.889780 1_555
Mo3 O23 2.021376 1_555
Mo3 O11 2.139635 1_555
Mo4 O36 1.716781 1_555
Mo4 O32 1.731089 1_555
Mo4 O16 1.968413 1_555
Mo4 O12 2.004714 1_555
Mo4 O4 2.220003 1_555
Mo5 O37 1.716781 1_555
Mo5 O33 1.731089 1_555
Mo5 O17 1.968413 1_555
Mo5 O13 2.004714 1_555
Mo5 O5 2.220003 1_555
Mo6 O38 1.716781 1_555
Mo6 O34 1.731089 1_555
Mo6 O18 1.968413 1_555
Mo6 O14 2.004714 1_555
Mo6 O6 2.220003 1_555
Mo7 O39 1.716781 1_555
Mo7 O35 1.731089 1_555
Mo7 O19 1.968413 1_555
Mo7 O15 2.004714 1_555
Mo7 O7 2.220003 1_555
Mo8 O24 1.769165 1_555
Mo8 O28 1.785819 1_555
Mo8 O20 1.928195 1_565
Mo8 O12 2.052297 1_555
Mo8 O4 2.114427 1_555
Mo8 O8 2.258220 1_565
Mo9 O25 1.769165 1_555
Mo9 O29 1.785819 1_555
Mo9 O21 1.928195 1_455
Mo9 O13 2.052297 1_555
Mo9 O5 2.114427 1_555
Mo9 O9 2.258220 1_455
Mo10 O26 1.769165 1_555
Mo10 O30 1.785819 1_555
Mo10 O22 1.928195 1_545
Mo10 O14 2.052297 1_555
Mo10 O6 2.114427 1_555
Mo10 O10 2.258220 1_545
Mo11 O27 1.769165 1_555
Mo11 O31 1.785819 1_555
Mo11 O23 1.928195 1_655
Mo11 O15 2.052297 1_555
Mo11 O7 2.114427 1_555
Mo11 O11 2.258220 1_655
O0 O72 1.245209 1_555
O0 Pt0 2.190464 1_565
O1 O73 1.245209 1_555
O1 Pt1 2.190464 1_555
O2 O74 1.245209 1_555
O2 Pt0 2.190464 1_556
O3 O75 1.245209 1_555
O3 Pt1 2.190464 1_655
O4 Pt0 2.023803 1_565
O5 Pt1 2.023803 1_555
O6 Pt0 2.023803 1_556
O7 Pt1 2.023803 1_655
O8 Pt0 2.015057 1_555
O9 Pt1 2.015057 1_655
O10 Pt0 2.015057 1_566
O11 Pt1 2.015057 1_555
O48 O60 1.339804 1_555
O49 O61 1.339804 1_555
O50 O62 1.339804 1_555
O51 O63 1.339804 1_555
O60 O70 1.255946 1_555
O61 O71 1.255946 1_555
O62 O68 1.255946 1_555
O63 O69 1.255946 1_555
