# generated using pymatgen
data_Sr5As3O12F
_symmetry_space_group_name_H-M   'P 1'
_cell_length_a   10.16641641
_cell_length_b   10.16641641
_cell_length_c   7.49607000
_cell_angle_alpha   90.00000000
_cell_angle_beta   90.00000000
_cell_angle_gamma   120.00000270
_symmetry_Int_Tables_number   1
_chemical_formula_structural   Sr5As3O12F
_chemical_formula_sum   'Sr10 As6 O24 F2'
_cell_volume   670.96527140
_cell_formula_units_Z   2
loop_
 _symmetry_equiv_pos_site_id
 _symmetry_equiv_pos_as_xyz
  1  'x, y, z'
loop_
 _atom_site_type_symbol
 _atom_site_label
 _atom_site_symmetry_multiplicity
 _atom_site_fract_x
 _atom_site_fract_y
 _atom_site_fract_z
 _atom_site_occupancy
  Sr  Sr0  1  0.75202400  0.75860100  0.25000000  1
  Sr  Sr1  1  0.00657700  0.24797600  0.25000000  1
  Sr  Sr2  1  0.75860100  0.00657700  0.75000000  1
  Sr  Sr3  1  0.99342300  0.75202400  0.75000000  1
  Sr  Sr4  1  0.24797600  0.24139900  0.75000000  1
  Sr  Sr5  1  0.24139900  0.99342300  0.25000000  1
  Sr  Sr6  1  0.33333300  0.66666700  0.49941600  1
  Sr  Sr7  1  0.66666700  0.33333300  0.99941600  1
  Sr  Sr8  1  0.66666700  0.33333300  0.50058400  1
  Sr  Sr9  1  0.33333300  0.66666700  0.00058400  1
  As  As0  1  0.63087500  0.02989900  0.25000000  1
  As  As1  1  0.97010100  0.60097600  0.25000000  1
  As  As2  1  0.60097600  0.63087500  0.75000000  1
  As  As3  1  0.36912500  0.97010100  0.75000000  1
  As  As4  1  0.02989900  0.39902400  0.75000000  1
  As  As5  1  0.39902400  0.36912500  0.25000000  1
  O  O0  1  0.67835400  0.51414500  0.75000000  1
  O  O1  1  0.46993000  0.87466400  0.75000000  1
  O  O2  1  0.34249800  0.25155200  0.43357900  1
  O  O3  1  0.09094600  0.34249800  0.93357900  1
  O  O4  1  0.25155200  0.90905400  0.93357900  1
  O  O5  1  0.74844800  0.09094600  0.43357900  1
  O  O6  1  0.90905400  0.65750200  0.43357900  1
  O  O7  1  0.65750200  0.74844800  0.93357900  1
  O  O8  1  0.65750200  0.74844800  0.56642100  1
  O  O9  1  0.90905400  0.65750200  0.06642100  1
  O  O10  1  0.74844800  0.09094600  0.06642100  1
  O  O11  1  0.25155200  0.90905400  0.56642100  1
  O  O12  1  0.12533600  0.59526600  0.75000000  1
  O  O13  1  0.34249800  0.25155200  0.06642100  1
  O  O14  1  0.40473400  0.53007000  0.75000000  1
  O  O15  1  0.87466400  0.40473400  0.25000000  1
  O  O16  1  0.32164600  0.48585500  0.25000000  1
  O  O17  1  0.83579100  0.32164600  0.75000000  1
  O  O18  1  0.48585500  0.16420900  0.75000000  1
  O  O19  1  0.51414500  0.83579100  0.25000000  1
  O  O20  1  0.16420900  0.67835400  0.25000000  1
  O  O21  1  0.09094600  0.34249800  0.56642100  1
  O  O22  1  0.59526600  0.46993000  0.25000000  1
  O  O23  1  0.53007000  0.12533600  0.25000000  1
  F  F0  1  0.00000000  0.00000000  0.25000000  1
  F  F1  1  0.00000000  0.00000000  0.75000000  1
loop_
_geom_bond_atom_site_label_1
_geom_bond_atom_site_label_2
_geom_bond_distance
_geom_bond_site_symmetry_2
As0 O19 1.720667 1_545
As0 O10 1.722146 1_555
As0 O5 1.722146 1_555
As0 O23 1.728004 1_555
As1 O20 1.720667 1_655
As1 O6 1.722146 1_555
As1 O9 1.722146 1_555
As1 O15 1.728004 1_555
As2 O0 1.720667 1_555
As2 O8 1.722146 1_555
As2 O7 1.722146 1_555
As2 O14 1.728004 1_555
As3 O18 1.720667 1_565
As3 O4 1.722146 1_555
As3 O11 1.722146 1_555
As3 O1 1.728004 1_555
As4 O17 1.720667 1_455
As4 O21 1.722146 1_555
As4 O3 1.722146 1_555
As4 O12 1.728004 1_555
As5 O16 1.720667 1_555
As5 O13 1.722146 1_555
As5 O2 1.722146 1_555
As5 O22 1.728004 1_555
O0 Sr8 2.582688 1_555
O0 Sr7 2.582688 1_555
O0 Sr3 2.891744 1_555
O1 Sr2 2.544703 1_565
O1 Sr9 2.644201 1_556
O1 Sr6 2.644201 1_555
O2 Sr4 2.541823 1_555
O2 Sr5 2.671993 1_545
O2 Sr8 3.010765 1_555
O3 Sr1 2.541823 1_556
O3 Sr4 2.671993 1_555
O3 Sr9 3.010762 1_556
O4 Sr5 2.541823 1_556
O4 Sr3 2.671993 1_455
O4 Sr9 3.010755 1_556
O5 Sr2 2.541823 1_555
O5 Sr1 2.671993 1_655
O5 Sr8 3.010755 1_555
O6 Sr3 2.541823 1_555
O6 Sr0 2.671993 1_555
O6 Sr8 3.010762 1_555
O7 Sr0 2.541823 1_556
O7 Sr2 2.671993 1_565
O7 Sr9 3.010765 1_556
O8 Sr0 2.541823 1_555
O8 Sr2 2.671993 1_565
O8 Sr6 3.010765 1_555
O9 Sr3 2.541823 1_554
O9 Sr0 2.671993 1_555
O9 Sr7 3.010762 1_554
O10 Sr2 2.541823 1_554
O10 Sr1 2.671993 1_655
O10 Sr7 3.010755 1_554
O11 Sr5 2.541823 1_555
O11 Sr3 2.671993 1_455
O11 Sr6 3.010755 1_555
O12 Sr3 2.544704 1_455
O12 Sr9 2.644200 1_556
O12 Sr6 2.644200 1_555
O13 Sr4 2.541823 1_554
O13 Sr5 2.671993 1_545
O13 Sr7 3.010765 1_554
O14 Sr4 2.544703 1_555
O14 Sr9 2.644207 1_556
O14 Sr6 2.644207 1_555
O15 Sr1 2.544704 1_655
O15 Sr7 2.644200 1_554
O15 Sr8 2.644200 1_555
O16 Sr9 2.582688 1_555
O16 Sr6 2.582688 1_555
O16 Sr1 2.891744 1_555
O17 Sr8 2.582681 1_555
O17 Sr7 2.582681 1_555
O17 Sr2 2.891744 1_555
O18 Sr8 2.582685 1_555
O18 Sr7 2.582685 1_555
O18 Sr4 2.891744 1_555
O19 Sr6 2.582685 1_555
O19 Sr9 2.582685 1_555
O19 Sr0 2.891744 1_555
O20 Sr6 2.582681 1_555
O20 Sr9 2.582681 1_555
O20 Sr5 2.891744 1_555
O21 Sr1 2.541823 1_555
O21 Sr4 2.671993 1_555
O21 Sr6 3.010762 1_555
O22 Sr0 2.544703 1_555
O22 Sr7 2.644207 1_554
O22 Sr8 2.644207 1_555
O23 Sr5 2.544703 1_545
O23 Sr8 2.644201 1_555
O23 Sr7 2.644201 1_554
F0 Sr0 2.488269 1_445
F0 Sr1 2.488269 1_555
F0 Sr5 2.488269 1_545
F1 Sr4 2.488269 1_555
F1 Sr3 2.488269 1_445
F1 Sr2 2.488269 1_455
