# generated using pymatgen
data_Na2FePO4F
_symmetry_space_group_name_H-M   'P 1'
_cell_length_a   5.28099600
_cell_length_b   11.95417000
_cell_length_c   14.04166800
_cell_angle_alpha   90.00000000
_cell_angle_beta   90.00000000
_cell_angle_gamma   90.00000000
_symmetry_Int_Tables_number   1
_chemical_formula_structural   Na2FePO4F
_chemical_formula_sum   'Na16 Fe8 P8 O32 F8'
_cell_volume   886.44943302
_cell_formula_units_Z   8
loop_
 _symmetry_equiv_pos_site_id
 _symmetry_equiv_pos_as_xyz
  1  'x, y, z'
loop_
 _atom_site_type_symbol
 _atom_site_label
 _atom_site_symmetry_multiplicity
 _atom_site_fract_x
 _atom_site_fract_y
 _atom_site_fract_z
 _atom_site_occupancy
  Na  Na0  1  0.26372000  0.32821000  0.75521200  1
  Na  Na1  1  0.23628000  0.82821000  0.74478800  1
  Na  Na2  1  0.76372000  0.67179000  0.74478800  1
  Na  Na3  1  0.73628000  0.17179000  0.75521200  1
  Na  Na4  1  0.73628000  0.67179000  0.24478800  1
  Na  Na5  1  0.76372000  0.17179000  0.25521200  1
  Na  Na6  1  0.23628000  0.32821000  0.25521200  1
  Na  Na7  1  0.26372000  0.82821000  0.24478800  1
  Na  Na8  1  0.23915600  0.08342600  0.87524100  1
  Na  Na9  1  0.26084400  0.58342600  0.62475900  1
  Na  Na10  1  0.73915600  0.91657400  0.62475900  1
  Na  Na11  1  0.76084400  0.41657400  0.87524100  1
  Na  Na12  1  0.76084400  0.91657400  0.12475900  1
  Na  Na13  1  0.73915600  0.41657400  0.37524100  1
  Na  Na14  1  0.26084400  0.08342600  0.37524100  1
  Na  Na15  1  0.23915600  0.58342600  0.12475900  1
  Fe  Fe0  1  0.22774000  0.32571400  0.99017800  1
  Fe  Fe1  1  0.27226000  0.82571400  0.50982200  1
  Fe  Fe2  1  0.72774000  0.67428600  0.50982200  1
  Fe  Fe3  1  0.77226000  0.17428600  0.99017800  1
  Fe  Fe4  1  0.77226000  0.67428600  0.00982200  1
  Fe  Fe5  1  0.72774000  0.17428600  0.49017800  1
  Fe  Fe6  1  0.27226000  0.32571400  0.49017800  1
  Fe  Fe7  1  0.22774000  0.82571400  0.00982200  1
  P  P0  1  0.20350700  0.08699200  0.61923100  1
  P  P1  1  0.29649300  0.58699200  0.88076900  1
  P  P2  1  0.70350700  0.91300800  0.88076900  1
  P  P3  1  0.79649300  0.41300800  0.61923100  1
  P  P4  1  0.79649300  0.91300800  0.38076900  1
  P  P5  1  0.70350700  0.41300800  0.11923100  1
  P  P6  1  0.29649300  0.08699200  0.11923100  1
  P  P7  1  0.20350700  0.58699200  0.38076900  1
  O  O0  1  0.26693500  0.96028300  0.61236000  1
  O  O1  1  0.23306500  0.46028300  0.88764000  1
  O  O2  1  0.76693500  0.03971700  0.88764000  1
  O  O3  1  0.73306500  0.53971700  0.61236000  1
  O  O4  1  0.73306500  0.03971700  0.38764000  1
  O  O5  1  0.76693500  0.53971700  0.11236000  1
  O  O6  1  0.23306500  0.96028300  0.11236000  1
  O  O7  1  0.26693500  0.46028300  0.38764000  1
  O  O8  1  0.28517300  0.13342700  0.71658500  1
  O  O9  1  0.21482700  0.63342700  0.78341500  1
  O  O10  1  0.78517300  0.86657300  0.78341500  1
  O  O11  1  0.71482700  0.36657300  0.71658500  1
  O  O12  1  0.71482700  0.86657300  0.28341500  1
  O  O13  1  0.78517300  0.36657300  0.21658500  1
  O  O14  1  0.21482700  0.13342700  0.21658500  1
  O  O15  1  0.28517300  0.63342700  0.28341500  1
  O  O16  1  0.90871300  0.10260600  0.60562300  1
  O  O17  1  0.59128700  0.60260600  0.89437700  1
  O  O18  1  0.40871300  0.89739400  0.89437700  1
  O  O19  1  0.09128700  0.39739400  0.60562300  1
  O  O20  1  0.09128700  0.89739400  0.39437700  1
  O  O21  1  0.40871300  0.39739400  0.10562300  1
  O  O22  1  0.59128700  0.10260600  0.10562300  1
  O  O23  1  0.90871300  0.60260600  0.39437700  1
  O  O24  1  0.33904800  0.15113200  0.53638000  1
  O  O25  1  0.16095200  0.65113200  0.96362000  1
  O  O26  1  0.83904800  0.84886800  0.96362000  1
  O  O27  1  0.66095200  0.34886800  0.53638000  1
  O  O28  1  0.66095200  0.84886800  0.46362000  1
  O  O29  1  0.83904800  0.34886800  0.03638000  1
  O  O30  1  0.16095200  0.15113200  0.03638000  1
  O  O31  1  0.33904800  0.65113200  0.46362000  1
  F  F0  1  0.00000000  0.25000000  0.87586900  1
  F  F1  1  0.50000000  0.75000000  0.62413100  1
  F  F2  1  0.00000000  0.75000000  0.12413100  1
  F  F3  1  0.50000000  0.25000000  0.37586900  1
  F  F4  1  0.50000000  0.25000000  0.89876700  1
  F  F5  1  0.00000000  0.75000000  0.60123300  1
  F  F6  1  0.50000000  0.75000000  0.10123300  1
  F  F7  1  0.00000000  0.25000000  0.39876700  1
loop_
_geom_bond_atom_site_label_1
_geom_bond_atom_site_label_2
_geom_bond_distance
_geom_bond_site_symmetry_2
Na0 O8 2.393489 1_555
Na0 O19 2.434179 1_555
Na0 O1 2.444722 1_555
Na0 O11 2.485925 1_555
Na1 O9 2.393489 1_555
Na1 O18 2.434179 1_555
Na1 O0 2.444722 1_555
Na1 O10 2.485925 1_455
Na2 O10 2.393489 1_555
Na2 O17 2.434179 1_555
Na2 O3 2.444722 1_555
Na2 O9 2.485925 1_655
Na3 O11 2.393489 1_555
Na3 O16 2.434179 1_555
Na3 O2 2.444722 1_555
Na3 O8 2.485925 1_555
Na4 O12 2.393489 1_555
Na4 O23 2.434179 1_555
Na4 O5 2.444722 1_555
Na4 O15 2.485925 1_555
Na5 O13 2.393489 1_555
Na5 O22 2.434179 1_555
Na5 O4 2.444722 1_555
Na5 O14 2.485925 1_655
Na6 O14 2.393489 1_555
Na6 O21 2.434179 1_555
Na6 O7 2.444722 1_555
Na6 O13 2.485925 1_455
Na7 O15 2.393489 1_555
Na7 O20 2.434179 1_555
Na7 O6 2.444722 1_555
Na7 O12 2.485925 1_555
Na8 O8 2.319353 1_555
Na8 O18 2.412372 1_545
Na8 O30 2.438293 1_556
Na8 O2 2.553889 1_455
Na8 O2 2.841091 1_555
Na9 O9 2.319353 1_555
Na9 O19 2.412372 1_555
Na9 O31 2.438293 1_555
Na9 O3 2.553889 1_555
Na9 O3 2.841091 1_455
Na10 O10 2.319353 1_555
Na10 O16 2.412372 1_565
Na10 O28 2.438293 1_555
Na10 O0 2.553889 1_555
Na10 O0 2.841091 1_655
Na11 O11 2.319353 1_555
Na11 O17 2.412372 1_555
Na11 O29 2.438293 1_556
Na11 O1 2.553889 1_655
Na11 O1 2.841091 1_555
Na12 O12 2.319353 1_555
Na12 O22 2.412372 1_565
Na12 O26 2.438293 1_554
Na12 O6 2.553889 1_655
Na12 O6 2.841091 1_555
Na13 O13 2.319353 1_555
Na13 O23 2.412372 1_555
Na13 O27 2.438293 1_555
Na13 O7 2.553889 1_555
Na13 O7 2.841091 1_655
Na14 O14 2.319353 1_555
Na14 O20 2.412372 1_545
Na14 O24 2.438293 1_555
Na14 O4 2.553889 1_555
Na14 O4 2.841091 1_455
Na15 O15 2.319353 1_555
Na15 O21 2.412372 1_555
Na15 O25 2.438293 1_554
Na15 O5 2.553889 1_455
Na15 O5 2.841091 1_555
Fe0 O21 2.067705 1_556
Fe0 O1 2.159078 1_555
Fe0 O29 2.170482 1_456
Fe0 O30 2.213771 1_556
Fe1 O20 2.067705 1_555
Fe1 O0 2.159078 1_555
Fe1 O28 2.170482 1_555
Fe1 O31 2.213771 1_555
Fe2 O23 2.067705 1_555
Fe2 O3 2.159078 1_555
Fe2 O31 2.170482 1_555
Fe2 O28 2.213771 1_555
Fe3 O22 2.067705 1_556
Fe3 O2 2.159078 1_555
Fe3 O30 2.170482 1_656
Fe3 O29 2.213771 1_556
Fe4 O17 2.067705 1_554
Fe4 O5 2.159078 1_555
Fe4 O25 2.170482 1_654
Fe4 O26 2.213771 1_554
Fe5 O16 2.067705 1_555
Fe5 O4 2.159078 1_555
Fe5 O24 2.170482 1_555
Fe5 O27 2.213771 1_555
Fe6 O19 2.067705 1_555
Fe6 O7 2.159078 1_555
Fe6 O27 2.170482 1_555
Fe6 O24 2.213771 1_555
Fe7 O18 2.067705 1_554
Fe7 O6 2.159078 1_555
Fe7 O26 2.170482 1_454
Fe7 O25 2.213771 1_554
O0 P0 1.554293 1_565
O1 P1 1.554293 1_555
O2 P2 1.554293 1_545
O3 P3 1.554293 1_555
O4 P4 1.554293 1_545
O5 P5 1.554293 1_555
O6 P6 1.554293 1_565
O7 P7 1.554293 1_555
O8 P0 1.537157 1_555
O9 P1 1.537157 1_555
O10 P2 1.537157 1_555
O11 P3 1.537157 1_555
O12 P4 1.537157 1_555
O13 P5 1.537157 1_555
O14 P6 1.537157 1_555
O15 P7 1.537157 1_555
O16 P0 1.579555 1_655
O17 P1 1.579555 1_555
O18 P2 1.579555 1_555
O19 P3 1.579555 1_455
O20 P4 1.579555 1_455
O21 P5 1.579555 1_555
O22 P6 1.579555 1_555
O23 P7 1.579555 1_655
O24 P0 1.566419 1_555
O25 P1 1.566419 1_555
O26 P2 1.566419 1_555
O27 P3 1.566419 1_555
O28 P4 1.566419 1_555
O29 P5 1.566419 1_555
O30 P6 1.566419 1_555
O31 P7 1.566419 1_555
F0 Fe3 2.200451 1_455
F0 Fe0 2.200451 1_555
F0 Na8 2.358027 1_555
F0 Na11 2.358027 1_455
F0 Na3 2.384141 1_455
F0 Na0 2.384141 1_555
F1 Fe1 2.200451 1_555
F1 Fe2 2.200451 1_555
F1 Na9 2.358027 1_555
F1 Na10 2.358027 1_555
F1 Na2 2.384141 1_555
F1 Na1 2.384141 1_555
F2 Fe7 2.200451 1_555
F2 Fe4 2.200451 1_455
F2 Na12 2.358027 1_455
F2 Na15 2.358027 1_555
F2 Na4 2.384141 1_455
F2 Na7 2.384141 1_555
F3 Fe5 2.200451 1_555
F3 Fe6 2.200451 1_555
F3 Na13 2.358027 1_555
F3 Na14 2.358027 1_555
F3 Na5 2.384141 1_555
F3 Na6 2.384141 1_555
F4 Fe3 2.129323 1_555
F4 Fe0 2.129323 1_555
F4 Na11 2.443721 1_555
F4 Na8 2.443721 1_555
F4 Na0 2.548401 1_555
F4 Na3 2.548401 1_555
F5 Fe2 2.129323 1_455
F5 Fe1 2.129323 1_555
F5 Na10 2.443721 1_455
F5 Na9 2.443721 1_555
F5 Na1 2.548401 1_555
F5 Na2 2.548401 1_455
F6 Fe4 2.129323 1_555
F6 Fe7 2.129323 1_555
F6 Na15 2.443721 1_555
F6 Na12 2.443721 1_555
F6 Na7 2.548401 1_555
F6 Na4 2.548401 1_555
F7 Fe5 2.129323 1_455
F7 Fe6 2.129323 1_555
F7 Na13 2.443721 1_455
F7 Na14 2.443721 1_555
F7 Na6 2.548401 1_555
F7 Na5 2.548401 1_455
