# generated using pymatgen
data_Ba2AlV3O7
_symmetry_space_group_name_H-M   'P 1'
_cell_length_a   3.78605700
_cell_length_b   4.08643600
_cell_length_c   11.48332600
_cell_angle_alpha   90.00000000
_cell_angle_beta   90.00000000
_cell_angle_gamma   90.00000000
_symmetry_Int_Tables_number   1
_chemical_formula_structural   Ba2AlV3O7
_chemical_formula_sum   'Ba2 Al1 V3 O7'
_cell_volume   177.66404421
_cell_formula_units_Z   1
loop_
 _symmetry_equiv_pos_site_id
 _symmetry_equiv_pos_as_xyz
  1  'x, y, z'
loop_
 _atom_site_type_symbol
 _atom_site_label
 _atom_site_symmetry_multiplicity
 _atom_site_fract_x
 _atom_site_fract_y
 _atom_site_fract_z
 _atom_site_occupancy
  Ba  Ba0  1  0.00000000  0.50000000  0.32035200  1
  Ba  Ba1  1  0.00000000  0.50000000  0.67964800  1
  Al  Al0  1  0.00000000  0.50000000  0.00000000  1
  V  V0  1  0.50000000  0.00000000  0.14650200  1
  V  V1  1  0.50000000  0.00000000  0.85349800  1
  V  V2  1  0.50000000  0.00000000  0.50000000  1
  O  O0  1  0.50000000  0.50000000  0.50000000  1
  O  O1  1  0.00000000  0.00000000  0.10709100  1
  O  O2  1  0.00000000  0.00000000  0.89290900  1
  O  O3  1  0.50000000  0.50000000  0.11135900  1
  O  O4  1  0.50000000  0.50000000  0.88864100  1
  O  O5  1  0.50000000  0.00000000  0.32088500  1
  O  O6  1  0.50000000  0.00000000  0.67911500  1
loop_
_geom_bond_atom_site_label_1
_geom_bond_atom_site_label_2
_geom_bond_distance
_geom_bond_site_symmetry_2
Ba0 O5 2.785379 1_465
Ba0 O5 2.785379 1_455
Ba0 O5 2.785379 1_555
Ba0 O5 2.785379 1_565
Ba0 O0 2.799883 1_455
Ba0 O0 2.799883 1_555
Ba0 O3 3.056672 1_455
Ba0 O3 3.056672 1_555
Ba0 O1 3.189369 1_555
Ba0 O1 3.189369 1_565
Ba1 O6 2.785379 1_455
Ba1 O6 2.785379 1_555
Ba1 O6 2.785379 1_565
Ba1 O6 2.785379 1_465
Ba1 O0 2.799883 1_555
Ba1 O0 2.799883 1_455
Ba1 O4 3.056672 1_455
Ba1 O4 3.056672 1_555
Ba1 O2 3.189369 1_555
Ba1 O2 3.189369 1_565
Al0 O4 2.284472 1_554
Al0 O4 2.284472 1_454
Al0 O3 2.284472 1_555
Al0 O3 2.284472 1_455
Al0 O1 2.384754 1_555
Al0 O1 2.384754 1_565
Al0 O2 2.384754 1_564
Al0 O2 2.384754 1_554
O0 V2 2.043218 1_555
O0 V2 2.043218 1_565
O1 V0 1.946375 1_555
O1 V0 1.946375 1_455
O2 V1 1.946375 1_455
O2 V1 1.946375 1_555
O3 V0 2.082690 1_555
O3 V0 2.082690 1_565
O4 V1 2.082690 1_565
O4 V1 2.082690 1_555
O5 V0 2.002497 1_555
O5 V2 2.056836 1_555
O6 V1 2.002497 1_555
O6 V2 2.056836 1_555
