# generated using pymatgen
data_SrCa2N2
_symmetry_space_group_name_H-M   'P 1'
_cell_length_a   3.49331400
_cell_length_b   3.77413000
_cell_length_c   14.45903900
_cell_angle_alpha   90.00000000
_cell_angle_beta   90.00000000
_cell_angle_gamma   90.00000000
_symmetry_Int_Tables_number   1
_chemical_formula_structural   SrCa2N2
_chemical_formula_sum   'Sr2 Ca4 N4'
_cell_volume   190.63116804
_cell_formula_units_Z   2
loop_
 _symmetry_equiv_pos_site_id
 _symmetry_equiv_pos_as_xyz
  1  'x, y, z'
loop_
 _atom_site_type_symbol
 _atom_site_label
 _atom_site_symmetry_multiplicity
 _atom_site_fract_x
 _atom_site_fract_y
 _atom_site_fract_z
 _atom_site_occupancy
  Sr  Sr0  1  0.53635100  0.25000000  0.25000000  1
  Sr  Sr1  1  0.46364900  0.75000000  0.75000000  1
  Ca  Ca0  1  0.23621000  0.25000000  0.93171300  1
  Ca  Ca1  1  0.23621000  0.25000000  0.56828700  1
  Ca  Ca2  1  0.76379000  0.75000000  0.06828700  1
  Ca  Ca3  1  0.76379000  0.75000000  0.43171300  1
  N  N0  1  0.19200100  0.25000000  0.39875700  1
  N  N1  1  0.19200100  0.25000000  0.10124300  1
  N  N2  1  0.80799900  0.75000000  0.60124300  1
  N  N3  1  0.80799900  0.75000000  0.89875700  1
loop_
_geom_bond_atom_site_label_1
_geom_bond_atom_site_label_2
_geom_bond_distance
_geom_bond_site_symmetry_2
Ca0 N3 2.454735 1_445
Ca0 N3 2.454735 1_455
Ca0 N1 2.456101 1_556
Ca0 N3 2.788878 1_545
Ca0 N3 2.788878 1_555
Ca1 N2 2.454735 1_445
Ca1 N2 2.454735 1_455
Ca1 N0 2.456101 1_555
Ca1 N2 2.788878 1_555
Ca1 N2 2.788878 1_545
Ca2 N1 2.454735 1_655
Ca2 N1 2.454735 1_665
Ca2 N3 2.456101 1_554
Ca2 N1 2.788878 1_555
Ca2 N1 2.788878 1_565
Ca3 N0 2.454735 1_655
Ca3 N0 2.454735 1_665
Ca3 N2 2.456101 1_555
Ca3 N0 2.788878 1_555
Ca3 N0 2.788878 1_565
N0 Sr0 2.464411 1_555
N0 Sr0 3.142004 1_455
N1 Sr0 2.464411 1_555
N1 Sr0 3.142004 1_455
N2 Sr1 2.464411 1_555
N2 Sr1 3.142004 1_655
N3 Sr1 2.464411 1_555
N3 Sr1 3.142004 1_655
