# generated using pymatgen
data_CaMg14AlO16
_symmetry_space_group_name_H-M   'P 1'
_cell_length_a   8.63361500
_cell_length_b   8.63361500
_cell_length_c   4.35926200
_cell_angle_alpha   90.00000000
_cell_angle_beta   90.00000000
_cell_angle_gamma   90.00000000
_symmetry_Int_Tables_number   1
_chemical_formula_structural   CaMg14AlO16
_chemical_formula_sum   'Ca1 Mg14 Al1 O16'
_cell_volume   324.93637273
_cell_formula_units_Z   1
loop_
 _symmetry_equiv_pos_site_id
 _symmetry_equiv_pos_as_xyz
  1  'x, y, z'
loop_
 _atom_site_type_symbol
 _atom_site_label
 _atom_site_symmetry_multiplicity
 _atom_site_fract_x
 _atom_site_fract_y
 _atom_site_fract_z
 _atom_site_occupancy
  Ca  Ca0  1  0.50000000  0.50000000  0.00000000  1
  Mg  Mg0  1  0.50000000  0.00000000  0.00000000  1
  Mg  Mg1  1  0.00000000  0.50000000  0.00000000  1
  Mg  Mg2  1  0.24909000  0.00000000  0.50000000  1
  Mg  Mg3  1  0.75091000  0.00000000  0.50000000  1
  Mg  Mg4  1  0.24448000  0.50000000  0.50000000  1
  Mg  Mg5  1  0.75552000  0.50000000  0.50000000  1
  Mg  Mg6  1  0.00000000  0.24909000  0.50000000  1
  Mg  Mg7  1  0.50000000  0.24448000  0.50000000  1
  Mg  Mg8  1  0.00000000  0.75091000  0.50000000  1
  Mg  Mg9  1  0.50000000  0.75552000  0.50000000  1
  Mg  Mg10  1  0.24749500  0.24749500  0.00000000  1
  Mg  Mg11  1  0.75250500  0.24749500  0.00000000  1
  Mg  Mg12  1  0.24749500  0.75250500  0.00000000  1
  Mg  Mg13  1  0.75250500  0.75250500  0.00000000  1
  Al  Al0  1  0.00000000  0.00000000  0.00000000  1
  O  O0  1  0.00000000  0.22887900  0.00000000  1
  O  O1  1  0.50000000  0.23456500  0.00000000  1
  O  O2  1  0.00000000  0.77112100  0.00000000  1
  O  O3  1  0.50000000  0.76543500  0.00000000  1
  O  O4  1  0.24961900  0.24961900  0.50000000  1
  O  O5  1  0.75038100  0.24961900  0.50000000  1
  O  O6  1  0.24961900  0.75038100  0.50000000  1
  O  O7  1  0.75038100  0.75038100  0.50000000  1
  O  O8  1  0.00000000  0.00000000  0.50000000  1
  O  O9  1  0.50000000  0.00000000  0.50000000  1
  O  O10  1  0.00000000  0.50000000  0.50000000  1
  O  O11  1  0.50000000  0.50000000  0.50000000  1
  O  O12  1  0.22887900  0.00000000  0.00000000  1
  O  O13  1  0.77112100  0.00000000  0.00000000  1
  O  O14  1  0.23456500  0.50000000  0.00000000  1
  O  O15  1  0.76543500  0.50000000  0.00000000  1
loop_
_geom_bond_atom_site_label_1
_geom_bond_atom_site_label_2
_geom_bond_distance
_geom_bond_site_symmetry_2
Ca0 O11 2.179631 1_554
Ca0 O11 2.179631 1_555
Ca0 O3 2.291664 1_555
Ca0 O1 2.291664 1_555
Ca0 O14 2.291664 1_555
Ca0 O15 2.291664 1_555
Mg0 O1 2.025144 1_555
Mg0 O3 2.025144 1_545
Mg0 O9 2.179631 1_554
Mg0 O9 2.179631 1_555
Mg0 O13 2.340754 1_555
Mg0 O12 2.340754 1_555
Mg1 O14 2.025144 1_555
Mg1 O15 2.025144 1_455
Mg1 O10 2.179631 1_555
Mg1 O10 2.179631 1_554
Mg1 O2 2.340754 1_555
Mg1 O0 2.340754 1_555
Mg2 O8 2.150547 1_555
Mg2 O4 2.155119 1_555
Mg2 O6 2.155119 1_545
Mg2 O9 2.166260 1_555
Mg2 O12 2.186605 1_556
Mg2 O12 2.186605 1_555
Mg3 O8 2.150547 1_655
Mg3 O5 2.155119 1_555
Mg3 O7 2.155119 1_545
Mg3 O9 2.166260 1_555
Mg3 O13 2.186605 1_555
Mg3 O13 2.186605 1_556
Mg4 O10 2.110746 1_555
Mg4 O6 2.162148 1_555
Mg4 O4 2.162148 1_555
Mg4 O14 2.181311 1_556
Mg4 O14 2.181311 1_555
Mg4 O11 2.206061 1_555
Mg5 O10 2.110746 1_655
Mg5 O7 2.162148 1_555
Mg5 O5 2.162148 1_555
Mg5 O15 2.181311 1_556
Mg5 O15 2.181311 1_555
Mg5 O11 2.206061 1_555
Mg6 O8 2.150547 1_555
Mg6 O4 2.155119 1_555
Mg6 O5 2.155119 1_455
Mg6 O10 2.166260 1_555
Mg6 O0 2.186605 1_555
Mg6 O0 2.186605 1_556
Mg7 O9 2.110746 1_555
Mg7 O5 2.162148 1_555
Mg7 O4 2.162148 1_555
Mg7 O1 2.181311 1_555
Mg7 O1 2.181311 1_556
Mg7 O11 2.206061 1_555
Mg8 O8 2.150547 1_565
Mg8 O6 2.155119 1_555
Mg8 O7 2.155119 1_455
Mg8 O10 2.166260 1_555
Mg8 O2 2.186605 1_556
Mg8 O2 2.186605 1_555
Mg9 O9 2.110746 1_565
Mg9 O7 2.162148 1_555
Mg9 O6 2.162148 1_555
Mg9 O3 2.181311 1_556
Mg9 O3 2.181311 1_555
Mg9 O11 2.206061 1_555
Mg10 O12 2.142813 1_555
Mg10 O0 2.142813 1_555
Mg10 O4 2.179785 1_554
Mg10 O4 2.179785 1_555
Mg10 O1 2.182887 1_555
Mg10 O14 2.182887 1_555
Mg11 O13 2.142813 1_555
Mg11 O0 2.142813 1_655
Mg11 O5 2.179785 1_555
Mg11 O5 2.179785 1_554
Mg11 O1 2.182887 1_555
Mg11 O15 2.182887 1_555
Mg12 O2 2.142813 1_555
Mg12 O12 2.142813 1_565
Mg12 O6 2.179785 1_555
Mg12 O6 2.179785 1_554
Mg12 O3 2.182887 1_555
Mg12 O14 2.182887 1_555
Mg13 O13 2.142813 1_565
Mg13 O2 2.142813 1_655
Mg13 O7 2.179785 1_555
Mg13 O7 2.179785 1_554
Mg13 O3 2.182887 1_555
Mg13 O15 2.182887 1_555
Al0 O0 1.976053 1_555
Al0 O12 1.976053 1_555
Al0 O2 1.976053 1_545
Al0 O13 1.976053 1_455
Al0 O8 2.179631 1_555
Al0 O8 2.179631 1_554
