# generated using pymatgen
data_Bi3C3N7
_symmetry_space_group_name_H-M   'P 1'
_cell_length_a   6.96069805
_cell_length_b   13.44566469
_cell_length_c   17.03785994
_cell_angle_alpha   90.00000000
_cell_angle_beta   90.00000000
_cell_angle_gamma   90.00000000
_symmetry_Int_Tables_number   1
_chemical_formula_structural   Bi3C3N7
_chemical_formula_sum   'Bi24 C24 N56'
_cell_volume   1594.59396148
_cell_formula_units_Z   8
loop_
 _symmetry_equiv_pos_site_id
 _symmetry_equiv_pos_as_xyz
  1  'x, y, z'
loop_
 _atom_site_type_symbol
 _atom_site_label
 _atom_site_symmetry_multiplicity
 _atom_site_fract_x
 _atom_site_fract_y
 _atom_site_fract_z
 _atom_site_occupancy
  Bi  Bi0  1  0.12813075  0.57032060  0.08576266  1
  Bi  Bi1  1  0.37186925  0.42967940  0.58576266  1
  Bi  Bi2  1  0.62813075  0.92967940  0.91423734  1
  Bi  Bi3  1  0.87186925  0.07032060  0.41423734  1
  Bi  Bi4  1  0.36037927  0.65461696  0.33301251  1
  Bi  Bi5  1  0.13962073  0.34538304  0.83301251  1
  Bi  Bi6  1  0.86037927  0.84538304  0.66698749  1
  Bi  Bi7  1  0.63962073  0.15461696  0.16698749  1
  Bi  Bi8  1  0.55742265  0.43150901  0.20502274  1
  Bi  Bi9  1  0.94257735  0.56849099  0.70502274  1
  Bi  Bi10  1  0.05742265  0.06849099  0.79497726  1
  Bi  Bi11  1  0.44257735  0.93150901  0.29497726  1
  Bi  Bi12  1  0.63701724  0.69899238  0.17397598  1
  Bi  Bi13  1  0.86298276  0.30100762  0.67397598  1
  Bi  Bi14  1  0.13701724  0.80100762  0.82602402  1
  Bi  Bi15  1  0.36298276  0.19899238  0.32602402  1
  Bi  Bi16  1  0.54625055  0.57106208  0.94052827  1
  Bi  Bi17  1  0.95374945  0.42893792  0.44052827  1
  Bi  Bi18  1  0.04625055  0.92893792  0.05947173  1
  Bi  Bi19  1  0.45374945  0.07106208  0.55947173  1
  Bi  Bi20  1  0.84269656  0.73550446  0.39408283  1
  Bi  Bi21  1  0.65730344  0.26449554  0.89408283  1
  Bi  Bi22  1  0.34269656  0.76449554  0.60591717  1
  Bi  Bi23  1  0.15730344  0.23550446  0.10591717  1
  C  C0  1  0.09389471  0.90986454  0.49579053  1
  C  C1  1  0.40610529  0.09013546  0.99579053  1
  C  C2  1  0.59389471  0.59013546  0.50420947  1
  C  C3  1  0.90610529  0.40986454  0.00420947  1
  C  C4  1  0.58916460  0.88508493  0.46163645  1
  C  C5  1  0.91083540  0.11491507  0.96163645  1
  C  C6  1  0.08916460  0.61491507  0.53836355  1
  C  C7  1  0.41083540  0.38508493  0.03836355  1
  C  C8  1  0.39442592  0.42019072  0.38962628  1
  C  C9  1  0.10557408  0.57980928  0.88962628  1
  C  C10  1  0.89442592  0.07980928  0.61037372  1
  C  C11  1  0.60557408  0.92019072  0.11037372  1
  C  C12  1  0.88733991  0.72562065  0.99521050  1
  C  C13  1  0.61266009  0.27437935  0.49521050  1
  C  C14  1  0.38733991  0.77437935  0.00478950  1
  C  C15  1  0.11266009  0.22562065  0.50478950  1
  C  C16  1  0.09075684  0.78848455  0.21478813  1
  C  C17  1  0.40924316  0.21151545  0.71478813  1
  C  C18  1  0.59075684  0.71151545  0.78521187  1
  C  C19  1  0.90924316  0.28848455  0.28521187  1
  C  C20  1  0.94518637  0.56286636  0.26678897  1
  C  C21  1  0.55481363  0.43713364  0.76678897  1
  C  C22  1  0.44518637  0.93713364  0.73321103  1
  C  C23  1  0.05481363  0.06286636  0.23321103  1
  N  N0  1  0.67936447  0.59347056  0.44078854  1
  N  N1  1  0.82063553  0.40652944  0.94078854  1
  N  N2  1  0.17936447  0.90652944  0.55921146  1
  N  N3  1  0.32063553  0.09347056  0.05921146  1
  N  N4  1  0.00748970  0.91586239  0.43246664  1
  N  N5  1  0.49251030  0.08413761  0.93246664  1
  N  N6  1  0.50748970  0.58413761  0.56753336  1
  N  N7  1  0.99251030  0.41586239  0.06753336  1
  N  N8  1  0.63118630  0.80402082  0.48985164  1
  N  N9  1  0.86881370  0.19597918  0.98985164  1
  N  N10  1  0.13118630  0.69597918  0.51014836  1
  N  N11  1  0.36881370  0.30402082  0.01014836  1
  N  N12  1  0.54905773  0.96696329  0.43148665  1
  N  N13  1  0.95094227  0.03303671  0.93148665  1
  N  N14  1  0.04905773  0.53303671  0.56851335  1
  N  N15  1  0.45094227  0.46696329  0.06851335  1
  N  N16  1  0.50029076  0.38567107  0.33880333  1
  N  N17  1  0.99970924  0.61432893  0.83880333  1
  N  N18  1  0.00029076  0.11432893  0.66119667  1
  N  N19  1  0.49970924  0.88567107  0.16119667  1
  N  N20  1  0.28907803  0.45086725  0.44300715  1
  N  N21  1  0.21092197  0.54913275  0.94300715  1
  N  N22  1  0.78907803  0.04913275  0.55699285  1
  N  N23  1  0.71092197  0.95086725  0.05699285  1
  N  N24  1  0.41915521  0.69225819  0.03450952  1
  N  N25  1  0.08084479  0.30774181  0.53450952  1
  N  N26  1  0.91915521  0.80774181  0.96549048  1
  N  N27  1  0.58084479  0.19225819  0.46549048  1
  N  N28  1  0.85249644  0.64346169  0.02482646  1
  N  N29  1  0.64750356  0.35653831  0.52482646  1
  N  N30  1  0.35249644  0.85653831  0.97517354  1
  N  N31  1  0.14750356  0.14346169  0.47517354  1
  N  N32  1  0.01485928  0.79809114  0.14975187  1
  N  N33  1  0.48514072  0.20190886  0.64975187  1
  N  N34  1  0.51485928  0.70190886  0.85024813  1
  N  N35  1  0.98514072  0.29809114  0.35024813  1
  N  N36  1  0.15700844  0.77819918  0.28169302  1
  N  N37  1  0.34299156  0.22180082  0.78169302  1
  N  N38  1  0.65700844  0.72180082  0.71830698  1
  N  N39  1  0.84299156  0.27819918  0.21830698  1
  N  N40  1  0.87998884  0.56876964  0.19886357  1
  N  N41  1  0.62001116  0.43123036  0.69886357  1
  N  N42  1  0.37998884  0.93123036  0.80113643  1
  N  N43  1  0.12001116  0.06876964  0.30113643  1
  N  N44  1  0.49019120  0.44038633  0.83384100  1
  N  N45  1  0.00980880  0.55961367  0.33384100  1
  N  N46  1  0.99019120  0.05961367  0.16615900  1
  N  N47  1  0.50980880  0.94038633  0.66615900  1
  N  N48  1  0.61415604  0.76420653  0.30231133  1
  N  N49  1  0.88584396  0.23579347  0.80231133  1
  N  N50  1  0.11415604  0.73579347  0.69768867  1
  N  N51  1  0.38584396  0.26420653  0.19768867  1
  N  N52  1  0.41784328  0.58484913  0.21924662  1
  N  N53  1  0.08215672  0.41515087  0.71924662  1
  N  N54  1  0.91784328  0.91515087  0.78075338  1
  N  N55  1  0.58215672  0.08484913  0.28075338  1
loop_
_geom_bond_atom_site_label_1
_geom_bond_atom_site_label_2
_geom_bond_distance
_geom_bond_site_symmetry_2
Bi0 N7 2.302324 1_455
Bi0 N28 2.392926 1_455
Bi0 N21 2.515769 1_554
Bi0 N40 2.587879 1_455
Bi0 N15 2.658315 1_555
Bi0 N24 2.748493 1_555
Bi1 N6 2.302324 1_555
Bi1 N29 2.392926 1_555
Bi1 N20 2.515769 1_555
Bi1 N41 2.587879 1_555
Bi1 N14 2.658315 1_555
Bi1 N25 2.748493 1_555
Bi2 N5 2.302324 1_565
Bi2 N30 2.392926 1_555
Bi2 N23 2.515769 1_556
Bi2 N42 2.587879 1_555
Bi2 N13 2.658315 1_565
Bi2 N26 2.748493 1_555
Bi3 N4 2.302324 1_645
Bi3 N31 2.392926 1_655
Bi3 N22 2.515769 1_555
Bi3 N43 2.587879 1_655
Bi3 N12 2.658315 1_545
Bi3 N27 2.748493 1_555
Bi4 N52 2.190226 1_555
Bi4 N36 2.351495 1_555
Bi4 N48 2.359073 1_555
Bi4 N45 2.754370 1_555
Bi5 N53 2.190226 1_555
Bi5 N37 2.351495 1_555
Bi5 N49 2.359073 1_455
Bi5 N44 2.754370 1_555
Bi6 N54 2.190226 1_555
Bi6 N38 2.351495 1_555
Bi6 N50 2.359073 1_655
Bi6 N47 2.754370 1_555
Bi7 N55 2.190226 1_555
Bi7 N39 2.351495 1_555
Bi7 N51 2.359073 1_555
Bi7 N46 2.754370 1_555
Bi8 N52 2.292059 1_555
Bi8 N16 2.394445 1_555
Bi8 N15 2.487181 1_555
Bi8 N51 2.549942 1_555
Bi8 N39 2.872558 1_555
Bi8 N40 2.908335 1_555
Bi9 N53 2.292059 1_655
Bi9 N17 2.394445 1_555
Bi9 N14 2.487181 1_655
Bi9 N50 2.549942 1_655
Bi9 N38 2.872558 1_555
Bi9 N41 2.908335 1_555
Bi10 N54 2.292059 1_445
Bi10 N18 2.394445 1_555
Bi10 N13 2.487181 1_455
Bi10 N49 2.549942 1_455
Bi10 N37 2.872558 1_555
Bi10 N42 2.908335 1_545
Bi11 N55 2.292059 1_565
Bi11 N19 2.394445 1_555
Bi11 N12 2.487181 1_555
Bi11 N48 2.549942 1_555
Bi11 N36 2.872558 1_555
Bi11 N43 2.908335 1_565
Bi12 N52 2.297345 1_555
Bi12 N48 2.361192 1_555
Bi12 N40 2.471011 1_555
Bi12 N19 2.694639 1_555
Bi12 N24 2.820330 1_555
Bi13 N53 2.297345 1_655
Bi13 N49 2.361192 1_555
Bi13 N41 2.471011 1_555
Bi13 N18 2.694639 1_655
Bi13 N25 2.820330 1_655
Bi14 N54 2.297345 1_455
Bi14 N50 2.361192 1_555
Bi14 N42 2.471011 1_555
Bi14 N17 2.694639 1_455
Bi14 N26 2.820330 1_455
Bi15 N55 2.297345 1_555
Bi15 N51 2.361192 1_555
Bi15 N43 2.471011 1_555
Bi15 N16 2.694639 1_555
Bi15 N27 2.820330 1_555
Bi16 N34 2.347117 1_555
Bi16 N21 2.353050 1_555
Bi16 N24 2.449915 1_556
Bi16 N44 2.558028 1_555
Bi16 N15 2.674732 1_556
Bi16 N28 2.748555 1_556
Bi17 N35 2.347117 1_555
Bi17 N20 2.353050 1_655
Bi17 N25 2.449915 1_655
Bi17 N45 2.558028 1_655
Bi17 N14 2.674732 1_655
Bi17 N29 2.748555 1_555
Bi18 N32 2.347117 1_555
Bi18 N23 2.353050 1_455
Bi18 N26 2.449915 1_454
Bi18 N46 2.558028 1_465
Bi18 N13 2.674732 1_464
Bi18 N30 2.748555 1_554
Bi19 N33 2.347117 1_555
Bi19 N22 2.353050 1_555
Bi19 N27 2.449915 1_555
Bi19 N47 2.558028 1_545
Bi19 N12 2.674732 1_545
Bi19 N31 2.748555 1_555
Bi20 N48 2.263713 1_555
Bi20 N0 2.360700 1_555
Bi20 N8 2.382997 1_555
Bi20 N4 2.761205 1_655
Bi21 N49 2.263713 1_555
Bi21 N1 2.360700 1_555
Bi21 N9 2.382997 1_555
Bi21 N5 2.761205 1_555
Bi22 N50 2.263713 1_555
Bi22 N2 2.360700 1_555
Bi22 N10 2.382997 1_555
Bi22 N6 2.761205 1_555
Bi23 N51 2.263713 1_555
Bi23 N3 2.360700 1_555
Bi23 N11 2.382997 1_555
Bi23 N7 2.761205 1_455
C0 N2 1.234324 1_555
C0 N4 1.237847 1_555
C1 N3 1.234324 1_556
C1 N5 1.237847 1_555
C2 N0 1.234324 1_555
C2 N6 1.237847 1_555
C3 N1 1.234324 1_554
C3 N7 1.237847 1_555
C4 N8 1.226650 1_555
C4 N12 1.246520 1_555
C5 N9 1.226650 1_555
C5 N13 1.246520 1_555
C6 N10 1.226650 1_555
C6 N14 1.246520 1_555
C7 N11 1.226650 1_555
C7 N15 1.246520 1_555
C8 N16 1.228106 1_555
C8 N20 1.238964 1_555
C9 N17 1.228106 1_455
C9 N21 1.238964 1_555
C10 N18 1.228106 1_655
C10 N22 1.238964 1_555
C11 N19 1.228106 1_555
C11 N23 1.238964 1_555
C12 N26 1.234767 1_555
C12 N28 1.238450 1_556
C13 N27 1.234767 1_555
C13 N29 1.238450 1_555
C14 N24 1.234767 1_555
C14 N30 1.238450 1_554
C15 N25 1.234767 1_555
C15 N31 1.238450 1_555
C16 N32 1.234351 1_555
C16 N36 1.237417 1_555
C17 N33 1.234351 1_555
C17 N37 1.237417 1_555
C18 N34 1.234351 1_555
C18 N38 1.237417 1_555
C19 N35 1.234351 1_555
C19 N39 1.237417 1_555
C20 N45 1.228568 1_655
C20 N40 1.245634 1_555
C21 N44 1.228568 1_555
C21 N41 1.245634 1_555
C22 N47 1.228568 1_555
C22 N42 1.245634 1_555
C23 N46 1.228568 1_455
C23 N43 1.245634 1_555
