# generated using pymatgen
data_PmNd3
_symmetry_space_group_name_H-M   'P 1'
_cell_length_a   5.19951188
_cell_length_b   5.19951188
_cell_length_c   5.19951188
_cell_angle_alpha   90.00000000
_cell_angle_beta   90.00000000
_cell_angle_gamma   90.00000000
_symmetry_Int_Tables_number   1
_chemical_formula_structural   PmNd3
_chemical_formula_sum   'Pm1 Nd3'
_cell_volume   140.56840742
_cell_formula_units_Z   1
loop_
 _symmetry_equiv_pos_site_id
 _symmetry_equiv_pos_as_xyz
  1  'x, y, z'
loop_
 _atom_site_type_symbol
 _atom_site_label
 _atom_site_symmetry_multiplicity
 _atom_site_fract_x
 _atom_site_fract_y
 _atom_site_fract_z
 _atom_site_occupancy
  Pm  Pm0  1  -0.00000000  0.00000000  -0.00000000  1
  Nd  Nd0  1  -0.00000000  0.50000000  0.50000000  1
  Nd  Nd1  1  0.50000000  0.00000000  0.50000000  1
  Nd  Nd2  1  0.50000000  0.50000000  -0.00000000  1
loop_
_geom_bond_atom_site_label_1
_geom_bond_atom_site_label_2
_geom_bond_distance
_geom_bond_site_symmetry_2
Nd0 Pm0 3.676610 1_556
Nd0 Pm0 3.676610 1_565
Nd0 Nd1 3.676610 1_455
Nd0 Nd2 3.676610 1_456
Nd0 Pm0 3.676610 1_566
Nd0 Nd1 3.676610 1_465
Nd0 Nd1 3.676610 1_555
Nd0 Nd2 3.676610 1_556
Nd0 Pm0 3.676610 1_555
Nd0 Nd2 3.676610 1_455
Nd0 Nd1 3.676610 1_565
Nd0 Nd2 3.676610 1_555
Nd1 Pm0 3.676610 1_556
Nd1 Nd2 3.676610 1_546
Nd1 Pm0 3.676610 1_656
Nd1 Pm0 3.676610 1_655
Nd1 Pm0 3.676610 1_555
Nd1 Nd2 3.676610 1_545
Nd1 Nd2 3.676610 1_556
Nd1 Nd2 3.676610 1_555
Nd2 Pm0 3.676610 1_665
Nd2 Pm0 3.676610 1_565
Nd2 Pm0 3.676610 1_655
Nd2 Pm0 3.676610 1_555
