# generated using pymatgen
data_MnZn4O5
_symmetry_space_group_name_H-M   'P 1'
_cell_length_a   3.26308627
_cell_length_b   26.58023862
_cell_length_c   5.65424262
_cell_angle_alpha   83.88624717
_cell_angle_beta   89.97529463
_cell_angle_gamma   86.49669918
_symmetry_Int_Tables_number   1
_chemical_formula_structural   MnZn4O5
_chemical_formula_sum   'Mn4 Zn16 O20'
_cell_volume   486.70325986
_cell_formula_units_Z   4
loop_
 _symmetry_equiv_pos_site_id
 _symmetry_equiv_pos_as_xyz
  1  'x, y, z'
loop_
 _atom_site_type_symbol
 _atom_site_label
 _atom_site_symmetry_multiplicity
 _atom_site_fract_x
 _atom_site_fract_y
 _atom_site_fract_z
 _atom_site_occupancy
  Mn  Mn0  1  0.45339144  0.09640394  0.11884045  1
  Mn  Mn1  1  0.34814051  0.30141691  0.01559460  1
  Mn  Mn2  1  0.95338861  0.09640397  0.61884111  1
  Mn  Mn3  1  0.84815525  0.30141791  0.51559976  1
  Zn  Zn0  1  0.24873638  0.50299971  0.91435911  1
  Zn  Zn1  1  0.74873193  0.50299985  0.41435789  1
  Zn  Zn2  1  0.15015033  0.69941170  0.81820351  1
  Zn  Zn3  1  0.65014456  0.69941166  0.31820234  1
  Zn  Zn4  1  0.05158881  0.89650637  0.71718086  1
  Zn  Zn5  1  0.55158772  0.89650755  0.21718018  1
  Zn  Zn6  1  0.90201980  0.19952912  0.23315011  1
  Zn  Zn7  1  0.40202367  0.19952946  0.73314803  1
  Zn  Zn8  1  0.79640069  0.40468302  0.13110165  1
  Zn  Zn9  1  0.29640960  0.40468425  0.63109758  1
  Zn  Zn10  1  0.69968828  0.60114141  0.03304813  1
  Zn  Zn11  1  0.19968594  0.60114126  0.53304865  1
  Zn  Zn12  1  0.59949249  0.79797066  0.93549624  1
  Zn  Zn13  1  0.09948948  0.79797116  0.43549454  1
  Zn  Zn14  1  0.50243937  0.99480413  0.83546758  1
  Zn  Zn15  1  0.00243861  0.99480432  0.33546731  1
  O  O0  1  0.49064640  0.01880923  0.15680739  1
  O  O1  1  0.99064792  0.01880937  0.65680796  1
  O  O2  1  0.39009111  0.22375918  0.05444575  1
  O  O3  1  0.89009114  0.22375964  0.55444714  1
  O  O4  1  0.28528034  0.42759752  0.95292083  1
  O  O5  1  0.78528550  0.42759769  0.45291935  1
  O  O6  1  0.18830187  0.62424045  0.85474640  1
  O  O7  1  0.68830025  0.62424025  0.35474642  1
  O  O8  1  0.08806158  0.82148854  0.75682932  1
  O  O9  1  0.58805891  0.82148893  0.25682862  1
  O  O10  1  0.93890513  0.12509062  0.27119174  1
  O  O11  1  0.43890386  0.12509093  0.77119207  1
  O  O12  1  0.83423777  0.32935007  0.16845681  1
  O  O13  1  0.33425350  0.32935097  0.66845122  1
  O  O14  1  0.73716185  0.52595643  0.06971399  1
  O  O15  1  0.23715913  0.52595614  0.56971410  1
  O  O16  1  0.63848173  0.72281302  0.97314676  1
  O  O17  1  0.13848119  0.72281324  0.47314663  1
  O  O18  1  0.53977394  0.92002640  0.87230317  1
  O  O19  1  0.03977446  0.92002698  0.37230671  1
loop_
_geom_bond_atom_site_label_1
_geom_bond_atom_site_label_2
_geom_bond_distance
_geom_bond_site_symmetry_2
Mn0 O10 2.030298 1_555
Mn0 O11 2.030762 1_554
Mn0 O10 2.030789 1_455
Mn0 O0 2.046895 1_555
Mn1 O13 2.022769 1_554
Mn1 O12 2.023269 1_455
Mn1 O12 2.023875 1_555
Mn1 O2 2.048576 1_555
Mn2 O11 2.030305 1_655
Mn2 O10 2.030765 1_555
Mn2 O11 2.030786 1_555
Mn2 O1 2.046893 1_555
Mn3 O12 2.022754 1_555
Mn3 O13 2.023237 1_555
Mn3 O13 2.023848 1_655
Mn3 O3 2.048590 1_555
O0 Zn15 1.987587 1_645
O0 Zn15 1.987709 1_545
O0 Zn14 1.988399 1_544
O1 Zn14 1.987586 1_645
O1 Zn14 1.987713 1_545
O1 Zn15 1.988403 1_645
O2 Zn6 1.989361 1_455
O2 Zn6 1.989370 1_555
O2 Zn7 1.990670 1_554
O3 Zn7 1.989343 1_555
O3 Zn7 1.989372 1_655
O3 Zn6 1.990675 1_555
O4 Zn8 1.978442 1_556
O4 Zn9 1.979075 1_555
O4 Zn8 1.979262 1_456
O4 Zn0 1.989056 1_555
O5 Zn9 1.978440 1_655
O5 Zn8 1.979061 1_555
O5 Zn9 1.979236 1_555
O5 Zn1 1.989055 1_555
O6 Zn10 1.980362 1_456
O6 Zn11 1.980404 1_555
O6 Zn10 1.980480 1_556
O6 Zn2 1.982967 1_555
O7 Zn11 1.980365 1_555
O7 Zn10 1.980403 1_555
O7 Zn11 1.980479 1_655
O7 Zn3 1.982971 1_555
O8 Zn4 1.978946 1_555
O8 Zn13 1.983001 1_555
O8 Zn12 1.983886 1_555
O8 Zn12 1.984647 1_455
O9 Zn5 1.978967 1_555
O9 Zn12 1.982998 1_554
O9 Zn13 1.983882 1_655
O9 Zn13 1.984644 1_555
O10 Zn6 1.963632 1_555
O11 Zn7 1.963632 1_555
O12 Zn8 1.987223 1_555
O13 Zn9 1.987232 1_555
O14 Zn1 1.978676 1_555
O14 Zn0 1.979469 1_554
O14 Zn0 1.979640 1_654
O14 Zn10 1.983326 1_555
O15 Zn0 1.978681 1_555
O15 Zn1 1.979473 1_455
O15 Zn1 1.979635 1_555
O15 Zn11 1.983329 1_555
O16 Zn2 1.982410 1_655
O16 Zn12 1.982604 1_555
O16 Zn2 1.982921 1_555
O16 Zn3 1.983314 1_556
O17 Zn3 1.982400 1_555
O17 Zn13 1.982611 1_555
O17 Zn3 1.982941 1_455
O17 Zn2 1.983322 1_555
O18 Zn14 1.972578 1_555
O18 Zn5 1.983006 1_556
O18 Zn4 1.984261 1_655
O18 Zn4 1.984305 1_555
O19 Zn15 1.972568 1_555
O19 Zn4 1.983001 1_555
O19 Zn5 1.984263 1_555
O19 Zn5 1.984315 1_455
