# generated using pymatgen
data_Na2H12SO11
_symmetry_space_group_name_H-M   'P 1'
_cell_length_a   7.18066417
_cell_length_b   7.18066417
_cell_length_c   12.34773103
_cell_angle_alpha   73.08836253
_cell_angle_beta   73.08836253
_cell_angle_gamma   89.97478581
_symmetry_Int_Tables_number   1
_chemical_formula_structural   Na2H12SO11
_chemical_formula_sum   'Na4 H24 S2 O22'
_cell_volume   580.32754483
_cell_formula_units_Z   2
loop_
 _symmetry_equiv_pos_site_id
 _symmetry_equiv_pos_as_xyz
  1  'x, y, z'
loop_
 _atom_site_type_symbol
 _atom_site_label
 _atom_site_symmetry_multiplicity
 _atom_site_fract_x
 _atom_site_fract_y
 _atom_site_fract_z
 _atom_site_occupancy
  Na  Na0  1  0.25986800  0.00802500  0.48219300  1
  Na  Na1  1  0.50802500  0.75986800  0.98219300  1
  Na  Na2  1  0.74206200  0.99021800  0.51780700  1
  Na  Na3  1  0.49021800  0.24206200  0.01780700  1
  H  H0  1  0.99867600  0.65481100  0.56749100  1
  H  H1  1  0.99868100  0.27617900  0.56752900  1
  H  H2  1  0.15481100  0.49867600  0.06749100  1
  H  H3  1  0.16389100  0.93824500  0.06526000  1
  H  H4  1  0.43824500  0.66389100  0.56526000  1
  H  H5  1  0.43700500  0.27023000  0.56497800  1
  H  H6  1  0.77617900  0.49868100  0.06752900  1
  H  H7  1  0.77023000  0.93700500  0.06497800  1
  H  H8  1  0.00198300  0.33520800  0.43502200  1
  H  H9  1  0.00350500  0.72915100  0.43474000  1
  H  H10  1  0.83520800  0.50198300  0.93502200  1
  H  H11  1  0.84370700  0.06621000  0.93247100  1
  H  H12  1  0.56621000  0.34370700  0.43247100  1
  H  H13  1  0.56616700  0.72230200  0.43250900  1
  H  H14  1  0.22915100  0.50350500  0.93474000  1
  H  H15  1  0.22230200  0.06616700  0.93250900  1
  H  H16  1  0.14503800  0.76484900  0.74749400  1
  H  H17  1  0.14513000  0.98694500  0.74755000  1
  H  H18  1  0.26484900  0.64503800  0.24749400  1
  H  H19  1  0.48694500  0.64513000  0.24755000  1
  H  H20  1  0.89268000  0.23449500  0.25245000  1
  H  H21  1  0.89253100  0.01234300  0.25250600  1
  H  H22  1  0.73449500  0.39268000  0.75245000  1
  H  H23  1  0.51234300  0.39253100  0.75250600  1
  S  S0  1  0.12414000  0.37414000  0.75000000  1
  S  S1  1  0.87414000  0.62414000  0.25000000  1
  O  O0  1  0.00130800  0.77547900  0.50265400  1
  O  O1  1  0.00042600  0.22074900  0.50277200  1
  O  O2  1  0.27547900  0.50130800  0.00265400  1
  O  O3  1  0.27813300  0.00396200  0.99734600  1
  O  O4  1  0.50396200  0.77813300  0.49734600  1
  O  O5  1  0.50319700  0.22352100  0.49722800  1
  O  O6  1  0.72074900  0.50042600  0.00277200  1
  O  O7  1  0.72352100  0.00319700  0.99722800  1
  O  O8  1  0.36985600  0.11985600  0.25000000  1
  O  O9  1  0.61985600  0.86985600  0.75000000  1
  O  O10  1  0.99205100  0.41194300  0.67306000  1
  O  O11  1  0.91194300  0.49205100  0.17306000  1
  O  O12  1  0.91194300  0.83299000  0.17307600  1
  O  O13  1  0.33299000  0.41194300  0.67307600  1
  O  O14  1  0.00606600  0.58501900  0.32692400  1
  O  O15  1  0.08501900  0.50606600  0.82692400  1
  O  O16  1  0.08500400  0.16511200  0.82694000  1
  O  O17  1  0.66511200  0.58500400  0.32694000  1
  O  O18  1  0.18882800  0.90135700  0.69629500  1
  O  O19  1  0.40135700  0.68882800  0.19629500  1
  O  O20  1  0.59765200  0.38512300  0.80370500  1
  O  O21  1  0.88512300  0.09765200  0.30370500  1
loop_
_geom_bond_atom_site_label_1
_geom_bond_atom_site_label_2
_geom_bond_distance
_geom_bond_site_symmetry_2
Na0 O0 2.404920 1_545
Na0 O1 2.411715 1_555
Na0 O5 2.416628 1_555
Na0 O4 2.416772 1_545
Na0 O18 2.423546 1_545
Na0 O8 2.613871 1_555
Na1 O2 2.404920 1_556
Na1 O6 2.411715 1_556
Na1 O7 2.416628 1_565
Na1 O3 2.416772 1_565
Na1 O19 2.423546 1_556
Na1 O9 2.613871 1_555
Na2 O4 2.404926 1_555
Na2 O5 2.411725 1_565
Na2 O1 2.416628 1_665
Na2 O0 2.416766 1_655
Na2 O21 2.423545 1_565
Na2 O9 2.613871 1_555
Na3 O3 2.404926 1_554
Na3 O7 2.411725 1_554
Na3 O6 2.416628 1_555
Na3 O2 2.416766 1_555
Na3 O20 2.423545 1_554
Na3 O8 2.613871 1_555
H0 O0 0.989802 1_655
H1 O1 0.988571 1_655
H2 O2 0.989802 1_555
H3 O3 0.984245 1_564
H4 O4 0.984245 1_555
H5 O5 0.984889 1_555
H6 O6 0.988571 1_555
H7 O7 0.984889 1_564
H8 O1 0.984891 1_555
H9 O0 0.984245 1_555
H10 O6 0.984891 1_556
H11 O7 0.988568 1_555
H12 O5 0.988568 1_555
H13 O4 0.989802 1_555
H14 O2 0.984245 1_556
H15 O3 0.989802 1_555
H16 O18 0.991694 1_555
H17 O18 0.993626 1_555
H18 O19 0.991694 1_555
H19 O19 0.993626 1_555
H20 O21 0.993626 1_555
H21 O21 0.991695 1_555
H22 O20 0.993626 1_555
H23 O20 0.991695 1_555
O10 S0 1.499955 1_655
O11 S1 1.499955 1_555
O12 S1 1.498845 1_555
O13 S0 1.498845 1_555
O14 S1 1.498845 1_455
O15 S0 1.498845 1_555
O16 S0 1.499949 1_555
O17 S1 1.499949 1_555
