# generated using pymatgen
data_K3Pd
_symmetry_space_group_name_H-M   'P 1'
_cell_length_a   5.44501300
_cell_length_b   5.44501300
_cell_length_c   5.44501300
_cell_angle_alpha   90.00000000
_cell_angle_beta   90.00000000
_cell_angle_gamma   90.00000000
_symmetry_Int_Tables_number   1
_chemical_formula_structural   K3Pd
_chemical_formula_sum   'K3 Pd1'
_cell_volume   161.43465240
_cell_formula_units_Z   1
loop_
 _symmetry_equiv_pos_site_id
 _symmetry_equiv_pos_as_xyz
  1  'x, y, z'
loop_
 _atom_site_type_symbol
 _atom_site_label
 _atom_site_symmetry_multiplicity
 _atom_site_fract_x
 _atom_site_fract_y
 _atom_site_fract_z
 _atom_site_occupancy
  K  K0  1  0.50000000  0.50000000  0.00000000  1
  K  K1  1  0.50000000  0.00000000  0.50000000  1
  K  K2  1  0.00000000  0.50000000  0.50000000  1
  Pd  Pd0  1  0.00000000  0.00000000  0.00000000  1
loop_
_geom_bond_atom_site_label_1
_geom_bond_atom_site_label_2
_geom_bond_distance
_geom_bond_site_symmetry_2
K0 Pd0 3.850206 1_655
K0 K1 3.850206 1_554
K0 K1 3.850206 1_555
K0 Pd0 3.850206 1_665
K0 Pd0 3.850206 1_565
K0 K2 3.850206 1_654
K0 K2 3.850206 1_554
K0 K2 3.850206 1_555
K0 K1 3.850206 1_565
K0 Pd0 3.850206 1_555
K0 K1 3.850206 1_564
K0 K2 3.850206 1_655
K1 Pd0 3.850206 1_655
K1 K2 3.850206 1_645
K1 K2 3.850206 1_545
K1 K2 3.850206 1_555
K1 Pd0 3.850206 1_555
K1 Pd0 3.850206 1_556
K1 K2 3.850206 1_655
K1 Pd0 3.850206 1_656
K2 Pd0 3.850206 1_555
K2 Pd0 3.850206 1_556
K2 Pd0 3.850206 1_566
K2 Pd0 3.850206 1_565
