# generated using pymatgen
data_Na6Te(PO5)6
_symmetry_space_group_name_H-M   'P 1'
_cell_length_a   11.51235711
_cell_length_b   11.51235711
_cell_length_c   11.50657580
_cell_angle_alpha   90.00000000
_cell_angle_beta   90.00000000
_cell_angle_gamma   120.00000190
_symmetry_Int_Tables_number   1
_chemical_formula_structural   Na6Te(PO5)6
_chemical_formula_sum   'Na12 Te2 P12 O60'
_cell_volume   1320.70320510
_cell_formula_units_Z   2
loop_
 _symmetry_equiv_pos_site_id
 _symmetry_equiv_pos_as_xyz
  1  'x, y, z'
loop_
 _atom_site_type_symbol
 _atom_site_label
 _atom_site_symmetry_multiplicity
 _atom_site_fract_x
 _atom_site_fract_y
 _atom_site_fract_z
 _atom_site_occupancy
  Na  Na0  1  0.56209861  0.44010666  0.75000000  1
  Na  Na1  1  0.55989334  0.12199195  0.75000000  1
  Na  Na2  1  0.87800805  0.43790139  0.75000000  1
  Na  Na3  1  0.43790139  0.55989334  0.25000000  1
  Na  Na4  1  0.44010666  0.87800805  0.25000000  1
  Na  Na5  1  0.12199195  0.56209861  0.25000000  1
  Na  Na6  1  0.27540296  0.14498981  0.75000000  1
  Na  Na7  1  0.85501019  0.13041315  0.75000000  1
  Na  Na8  1  0.86958685  0.72459704  0.75000000  1
  Na  Na9  1  0.72459704  0.85501019  0.25000000  1
  Na  Na10  1  0.14498981  0.86958685  0.25000000  1
  Na  Na11  1  0.13041315  0.27540296  0.25000000  1
  Te  Te0  1  0.00000000  0.00000000  0.50000000  1
  Te  Te1  1  0.00000000  0.00000000  0.00000000  1
  P  P0  1  0.75125277  0.24842174  0.00526554  1
  P  P1  1  0.75157826  0.50283102  0.00526554  1
  P  P2  1  0.49716898  0.24874723  0.00526554  1
  P  P3  1  0.24874723  0.75157826  0.50526554  1
  P  P4  1  0.24842174  0.49716898  0.50526554  1
  P  P5  1  0.50283102  0.75125277  0.50526554  1
  P  P6  1  0.24874723  0.75157826  0.99473446  1
  P  P7  1  0.24842174  0.49716898  0.99473446  1
  P  P8  1  0.50283102  0.75125277  0.99473446  1
  P  P9  1  0.75125277  0.24842174  0.49473446  1
  P  P10  1  0.75157826  0.50283102  0.49473446  1
  P  P11  1  0.49716898  0.24874723  0.49473446  1
  O  O0  1  0.76624043  0.53166086  0.62387181  1
  O  O1  1  0.46833914  0.23457957  0.62387181  1
  O  O2  1  0.76542043  0.23375957  0.62387181  1
  O  O3  1  0.23375957  0.46833914  0.12387181  1
  O  O4  1  0.53166086  0.76542043  0.12387181  1
  O  O5  1  0.23457957  0.76624043  0.12387181  1
  O  O6  1  0.23375957  0.46833914  0.37612819  1
  O  O7  1  0.53166086  0.76542043  0.37612819  1
  O  O8  1  0.23457957  0.76624043  0.37612819  1
  O  O9  1  0.76624043  0.53166086  0.87612819  1
  O  O10  1  0.46833914  0.23457957  0.87612819  1
  O  O11  1  0.76542043  0.23375957  0.87612819  1
  O  O12  1  0.81343514  0.40652363  0.03540813  1
  O  O13  1  0.59347637  0.40691151  0.03540813  1
  O  O14  1  0.59308849  0.18656486  0.03540813  1
  O  O15  1  0.18656486  0.59347637  0.53540813  1
  O  O16  1  0.40652363  0.59308849  0.53540813  1
  O  O17  1  0.40691151  0.81343514  0.53540813  1
  O  O18  1  0.18656486  0.59347637  0.96459187  1
  O  O19  1  0.40652363  0.59308849  0.96459187  1
  O  O20  1  0.40691151  0.81343514  0.96459187  1
  O  O21  1  0.81343514  0.40652363  0.46459187  1
  O  O22  1  0.59347637  0.40691151  0.46459187  1
  O  O23  1  0.59308849  0.18656486  0.46459187  1
  O  O24  1  0.80900943  0.18950709  0.08822864  1
  O  O25  1  0.81049291  0.61950233  0.08822864  1
  O  O26  1  0.38049767  0.19099057  0.08822864  1
  O  O27  1  0.19099057  0.81049291  0.58822864  1
  O  O28  1  0.18950709  0.38049767  0.58822864  1
  O  O29  1  0.61950233  0.80900943  0.58822864  1
  O  O30  1  0.19099057  0.81049291  0.91177136  1
  O  O31  1  0.18950709  0.38049767  0.91177136  1
  O  O32  1  0.61950233  0.80900943  0.91177136  1
  O  O33  1  0.80900943  0.18950709  0.41177136  1
  O  O34  1  0.81049291  0.61950233  0.41177136  1
  O  O35  1  0.38049767  0.19099057  0.41177136  1
  O  O36  1  0.87676133  0.99778406  0.88576071  1
  O  O37  1  0.00221594  0.87897727  0.88576071  1
  O  O38  1  0.12102273  0.12323867  0.88576071  1
  O  O39  1  0.12323867  0.00221594  0.38576071  1
  O  O40  1  0.99778406  0.12102273  0.38576071  1
  O  O41  1  0.87897727  0.87676133  0.38576071  1
  O  O42  1  0.12323867  0.00221594  0.11423929  1
  O  O43  1  0.99778406  0.12102273  0.11423929  1
  O  O44  1  0.87897727  0.87676133  0.11423929  1
  O  O45  1  0.87676133  0.99778406  0.61423929  1
  O  O46  1  0.00221594  0.87897727  0.61423929  1
  O  O47  1  0.12102273  0.12323867  0.61423929  1
  O  O48  1  0.30915457  0.95225543  0.75000000  1
  O  O49  1  0.04774457  0.35689914  0.75000000  1
  O  O50  1  0.64310086  0.69084543  0.75000000  1
  O  O51  1  0.69084543  0.04774457  0.25000000  1
  O  O52  1  0.95225543  0.64310086  0.25000000  1
  O  O53  1  0.35689914  0.30915457  0.25000000  1
  O  O54  1  0.07525001  0.68961027  0.75000000  1
  O  O55  1  0.31038973  0.38563974  0.75000000  1
  O  O56  1  0.61436026  0.92474999  0.75000000  1
  O  O57  1  0.92474999  0.31038973  0.25000000  1
  O  O58  1  0.68961027  0.61436026  0.25000000  1
  O  O59  1  0.38563974  0.07525001  0.25000000  1
loop_
_geom_bond_atom_site_label_1
_geom_bond_atom_site_label_2
_geom_bond_distance
_geom_bond_site_symmetry_2
Na0 O9 2.502670 1_555
Na0 O0 2.502670 1_555
Na0 O10 2.513136 1_555
Na0 O1 2.513136 1_555
Na0 O50 2.551511 1_555
Na0 O55 2.640680 1_555
Na1 O10 2.502670 1_555
Na1 O1 2.502670 1_555
Na1 O2 2.513136 1_555
Na1 O11 2.513136 1_555
Na1 O48 2.551510 1_545
Na1 O56 2.640680 1_545
Na2 O2 2.502670 1_555
Na2 O11 2.502670 1_555
Na2 O9 2.513136 1_555
Na2 O0 2.513136 1_555
Na2 O49 2.551511 1_655
Na2 O54 2.640680 1_655
Na3 O3 2.502670 1_555
Na3 O6 2.502670 1_555
Na3 O4 2.513136 1_555
Na3 O7 2.513136 1_555
Na3 O53 2.551511 1_555
Na3 O58 2.640680 1_555
Na4 O4 2.502670 1_555
Na4 O7 2.502670 1_555
Na4 O8 2.513136 1_555
Na4 O5 2.513136 1_555
Na4 O51 2.551510 1_565
Na4 O59 2.640680 1_565
Na5 O5 2.502670 1_555
Na5 O8 2.502670 1_555
Na5 O6 2.513136 1_555
Na5 O3 2.513136 1_555
Na5 O52 2.551511 1_455
Na5 O57 2.640680 1_455
Na6 O38 2.284003 1_555
Na6 O47 2.284003 1_555
Na6 O10 2.410951 1_555
Na6 O1 2.410951 1_555
Na6 O48 2.436457 1_545
Na6 O55 2.592630 1_555
Na7 O36 2.284003 1_545
Na7 O45 2.284003 1_545
Na7 O11 2.410951 1_555
Na7 O2 2.410951 1_555
Na7 O49 2.436457 1_655
Na7 O56 2.592630 1_545
Na8 O37 2.284003 1_655
Na8 O46 2.284003 1_655
Na8 O0 2.410951 1_555
Na8 O9 2.410951 1_555
Na8 O50 2.436457 1_555
Na8 O54 2.592630 1_655
Na9 O44 2.284003 1_555
Na9 O41 2.284003 1_555
Na9 O4 2.410951 1_555
Na9 O7 2.410951 1_555
Na9 O51 2.436457 1_565
Na9 O58 2.592630 1_555
Na10 O42 2.284003 1_565
Na10 O39 2.284003 1_565
Na10 O8 2.410951 1_555
Na10 O5 2.410951 1_555
Na10 O52 2.436457 1_455
Na10 O59 2.592630 1_565
Na11 O40 2.284003 1_455
Na11 O43 2.284003 1_455
Na11 O6 2.410951 1_555
Na11 O3 2.410951 1_555
Na11 O53 2.436457 1_555
Na11 O57 2.592630 1_455
O0 P10 1.513476 1_555
O1 P11 1.513476 1_555
O2 P9 1.513476 1_555
O3 P7 1.513476 1_554
O4 P8 1.513476 1_554
O5 P6 1.513476 1_554
O6 P4 1.513476 1_555
O7 P5 1.513476 1_555
O8 P3 1.513476 1_555
O9 P1 1.513476 1_556
O10 P2 1.513476 1_556
O11 P0 1.513476 1_556
O12 P0 1.625623 1_555
O12 P1 1.626722 1_555
O13 P1 1.625623 1_555
O13 P2 1.626722 1_555
O14 P2 1.625623 1_555
O14 P0 1.626722 1_555
O15 P3 1.625623 1_555
O15 P4 1.626722 1_555
O16 P4 1.625623 1_555
O16 P5 1.626722 1_555
O17 P5 1.625623 1_555
O17 P3 1.626722 1_555
O18 P6 1.625623 1_555
O18 P7 1.626722 1_555
O19 P7 1.625623 1_555
O19 P8 1.626722 1_555
O20 P8 1.625623 1_555
O20 P6 1.626722 1_555
O21 P9 1.625623 1_555
O21 P10 1.626722 1_555
O22 P10 1.625623 1_555
O22 P11 1.626722 1_555
O23 P11 1.625623 1_555
O23 P9 1.626722 1_555
O24 P0 1.504795 1_555
O25 P1 1.504795 1_555
O26 P2 1.504795 1_555
O27 P3 1.504795 1_555
O28 P4 1.504795 1_555
O29 P5 1.504795 1_555
O30 P6 1.504795 1_555
O31 P7 1.504795 1_555
O32 P8 1.504795 1_555
O33 P9 1.504795 1_555
O34 P10 1.504795 1_555
O35 P11 1.504795 1_555
O36 Te1 1.924910 1_666
O37 Te1 1.924910 1_566
O38 Te1 1.924910 1_556
O39 Te0 1.924910 1_555
O40 Te0 1.924910 1_655
O41 Te0 1.924910 1_665
O42 Te1 1.924910 1_555
O43 Te1 1.924910 1_655
O44 Te1 1.924910 1_665
O45 Te0 1.924910 1_665
O46 Te0 1.924910 1_565
O47 Te0 1.924910 1_555
