# generated using pymatgen
data_CuSbO4
_symmetry_space_group_name_H-M   'P 1'
_cell_length_a   9.04538700
_cell_length_b   6.85649900
_cell_length_c   11.03420730
_cell_angle_alpha   88.65916910
_cell_angle_beta   90.00000000
_cell_angle_gamma   90.00000000
_symmetry_Int_Tables_number   1
_chemical_formula_structural   CuSbO4
_chemical_formula_sum   'Cu8 Sb8 O32'
_cell_volume   684.15070208
_cell_formula_units_Z   8
loop_
 _symmetry_equiv_pos_site_id
 _symmetry_equiv_pos_as_xyz
  1  'x, y, z'
loop_
 _atom_site_type_symbol
 _atom_site_label
 _atom_site_symmetry_multiplicity
 _atom_site_fract_x
 _atom_site_fract_y
 _atom_site_fract_z
 _atom_site_occupancy
  Cu  Cu0  1  0.88481600  0.16145600  0.89099500  1
  Cu  Cu1  1  0.96205200  0.61857000  0.62662100  1
  Cu  Cu2  1  0.03794800  0.38143000  0.37337900  1
  Cu  Cu3  1  0.11518400  0.83854400  0.10900500  1
  Cu  Cu4  1  0.61518400  0.16145600  0.39099500  1
  Cu  Cu5  1  0.53794800  0.61857000  0.12662100  1
  Cu  Cu6  1  0.38481600  0.83854400  0.60900500  1
  Cu  Cu7  1  0.46205200  0.38143000  0.87337900  1
  Sb  Sb0  1  0.57864400  0.89069400  0.88025900  1
  Sb  Sb1  1  0.92135600  0.89069400  0.38025900  1
  Sb  Sb2  1  0.87645500  0.42163800  0.10527800  1
  Sb  Sb3  1  0.07864400  0.10930600  0.61974100  1
  Sb  Sb4  1  0.12354500  0.57836200  0.89472200  1
  Sb  Sb5  1  0.37645500  0.57836200  0.39472200  1
  Sb  Sb6  1  0.62354500  0.42163800  0.60527800  1
  Sb  Sb7  1  0.42135600  0.10930600  0.11974100  1
  O  O0  1  0.70926400  0.92386800  0.36506900  1
  O  O1  1  0.98479400  0.36073100  0.58455000  1
  O  O2  1  0.30951700  0.82816200  0.45507000  1
  O  O3  1  0.80951700  0.17183800  0.04493000  1
  O  O4  1  0.79073600  0.92386800  0.86506900  1
  O  O5  1  0.29073600  0.07613200  0.63493100  1
  O  O6  1  0.94397400  0.88819500  0.57748000  1
  O  O7  1  0.06949800  0.57016700  0.08859200  1
  O  O8  1  0.43050200  0.57016700  0.58859200  1
  O  O9  1  0.12536800  0.66097100  0.72383600  1
  O  O10  1  0.62536800  0.33902900  0.77616400  1
  O  O11  1  0.93050200  0.42983300  0.91140800  1
  O  O12  1  0.05602600  0.11180500  0.42252000  1
  O  O13  1  0.45977600  0.11044100  0.29142000  1
  O  O14  1  0.76032400  0.63085500  0.59713600  1
  O  O15  1  0.73967600  0.63085500  0.09713600  1
  O  O16  1  0.95977600  0.88955900  0.20858000  1
  O  O17  1  0.56949800  0.42983300  0.41140800  1
  O  O18  1  0.54022400  0.88955900  0.70858000  1
  O  O19  1  0.69048300  0.17183800  0.54493000  1
  O  O20  1  0.51520600  0.36073100  0.08455000  1
  O  O21  1  0.87463200  0.33902900  0.27616400  1
  O  O22  1  0.20926400  0.07613200  0.13493100  1
  O  O23  1  0.55602600  0.88819500  0.07748000  1
  O  O24  1  0.19048300  0.82816200  0.95507000  1
  O  O25  1  0.26032400  0.36914500  0.90286400  1
  O  O26  1  0.01520600  0.63926900  0.41545000  1
  O  O27  1  0.48479400  0.63926900  0.91545000  1
  O  O28  1  0.44397400  0.11180500  0.92252000  1
  O  O29  1  0.23967600  0.36914500  0.40286400  1
  O  O30  1  0.37463200  0.66097100  0.22383600  1
  O  O31  1  0.04022400  0.11044100  0.79142000  1
loop_
_geom_bond_atom_site_label_1
_geom_bond_atom_site_label_2
_geom_bond_distance
_geom_bond_site_symmetry_2
Cu0 O31 1.823077 1_655
Cu0 O3 1.832951 1_556
Cu0 O4 1.865889 1_545
Cu0 O11 1.904461 1_555
Cu1 O1 1.849756 1_555
Cu1 O9 1.852583 1_655
Cu1 O14 1.855052 1_555
Cu1 O6 1.921321 1_555
Cu1 O26 2.380172 1_655
Cu2 O26 1.849756 1_555
Cu2 O21 1.852583 1_455
Cu2 O29 1.855052 1_555
Cu2 O12 1.921321 1_555
Cu2 O1 2.380172 1_455
Cu3 O16 1.823077 1_455
Cu3 O24 1.832951 1_554
Cu3 O22 1.865889 1_565
Cu3 O7 1.904461 1_555
Cu4 O13 1.823077 1_555
Cu4 O19 1.832951 1_555
Cu4 O0 1.865889 1_545
Cu4 O17 1.904461 1_555
Cu5 O20 1.849756 1_555
Cu5 O30 1.852583 1_555
Cu5 O15 1.855052 1_555
Cu5 O23 1.921321 1_555
Cu5 O27 2.380172 1_554
Cu6 O18 1.823077 1_555
Cu6 O2 1.832951 1_555
Cu6 O5 1.865889 1_565
Cu6 O8 1.904461 1_555
Cu7 O27 1.849756 1_555
Cu7 O10 1.852583 1_555
Cu7 O25 1.855052 1_555
Cu7 O28 1.921321 1_555
Cu7 O20 2.380172 1_556
O0 Sb1 1.938688 1_555
O1 Sb3 1.952413 1_655
O2 Sb5 1.948568 1_555
O3 Sb2 1.948568 1_555
O4 Sb0 1.938688 1_555
O5 Sb3 1.938688 1_555
O6 Sb3 2.008185 1_665
O6 Sb1 2.185441 1_555
O7 Sb2 2.027628 1_455
O7 Sb4 2.193790 1_554
O8 Sb6 2.027628 1_555
O8 Sb5 2.193790 1_555
O9 Sb4 1.956160 1_555
O10 Sb6 1.956160 1_555
O11 Sb4 2.027628 1_655
O11 Sb2 2.193790 1_556
O12 Sb1 2.008185 1_445
O12 Sb3 2.185441 1_555
O13 Sb7 1.926150 1_555
O14 Sb6 1.894869 1_555
O15 Sb2 1.894869 1_555
O16 Sb1 1.926150 1_555
O17 Sb5 2.027628 1_555
O17 Sb6 2.193790 1_555
O18 Sb0 1.926150 1_555
O19 Sb6 1.948568 1_555
O20 Sb7 1.952413 1_555
O21 Sb2 1.956160 1_555
O22 Sb7 1.938688 1_555
O23 Sb7 2.008185 1_565
O23 Sb0 2.185441 1_554
O24 Sb4 1.948568 1_555
O25 Sb4 1.894869 1_555
O26 Sb1 1.952413 1_455
O27 Sb0 1.952413 1_555
O28 Sb0 2.008185 1_545
O28 Sb7 2.185441 1_556
O29 Sb5 1.894869 1_555
O30 Sb5 1.956160 1_555
O31 Sb3 1.926150 1_555
