# generated using pymatgen
data_Ce2W4S3O14
_symmetry_space_group_name_H-M   'P 1'
_cell_length_a   8.79070653
_cell_length_b   8.79070653
_cell_length_c   13.59361628
_cell_angle_alpha   82.90244577
_cell_angle_beta   82.90244577
_cell_angle_gamma   48.37328937
_symmetry_Int_Tables_number   1
_chemical_formula_structural   Ce2W4S3O14
_chemical_formula_sum   'Ce4 W8 S6 O28'
_cell_volume   777.97596361
_cell_formula_units_Z   2
loop_
 _symmetry_equiv_pos_site_id
 _symmetry_equiv_pos_as_xyz
  1  'x, y, z'
loop_
 _atom_site_type_symbol
 _atom_site_label
 _atom_site_symmetry_multiplicity
 _atom_site_fract_x
 _atom_site_fract_y
 _atom_site_fract_z
 _atom_site_occupancy
  Ce  Ce0  1  0.60701100  0.58344300  0.05153900  1
  Ce  Ce1  1  0.39298900  0.41655700  0.94846100  1
  Ce  Ce2  1  0.41655700  0.39298900  0.44846100  1
  Ce  Ce3  1  0.58344300  0.60701100  0.55153900  1
  W  W0  1  0.73446100  0.14616600  0.16704100  1
  W  W1  1  0.26553900  0.85383400  0.83295900  1
  W  W2  1  0.85383400  0.26553900  0.33295900  1
  W  W3  1  0.14616600  0.73446100  0.66704100  1
  W  W4  1  0.26619000  0.21571800  0.24606000  1
  W  W5  1  0.73381000  0.78428200  0.75394000  1
  W  W6  1  0.78428200  0.73381000  0.25394000  1
  W  W7  1  0.21571800  0.26619000  0.74606000  1
  S  S0  1  0.18836900  0.18534400  0.00194900  1
  S  S1  1  0.81163100  0.81465600  0.99805100  1
  S  S2  1  0.81465600  0.81163100  0.49805100  1
  S  S3  1  0.18534400  0.18836900  0.50194900  1
  S  S4  1  0.21168100  0.78831900  0.25000000  1
  S  S5  1  0.78831900  0.21168100  0.75000000  1
  O  O0  1  0.27477900  0.22480600  0.40866000  1
  O  O1  1  0.72522100  0.77519400  0.59134000  1
  O  O2  1  0.77519400  0.72522100  0.09134000  1
  O  O3  1  0.22480600  0.27477900  0.90866000  1
  O  O4  1  0.27297700  0.21154400  0.08083300  1
  O  O5  1  0.72702300  0.78845600  0.91916700  1
  O  O6  1  0.78845600  0.72702300  0.41916700  1
  O  O7  1  0.21154400  0.27297700  0.58083300  1
  O  O8  1  0.39650900  0.74075000  0.19802800  1
  O  O9  1  0.60349100  0.25925000  0.80197200  1
  O  O10  1  0.25925000  0.60349100  0.30197200  1
  O  O11  1  0.74075000  0.39650900  0.69802800  1
  O  O12  1  0.29825200  0.97008800  0.52030100  1
  O  O13  1  0.70174800  0.02991200  0.47969900  1
  O  O14  1  0.02991200  0.70174800  0.97969900  1
  O  O15  1  0.97008800  0.29825200  0.02030100  1
  O  O16  1  0.13236600  0.94141000  0.32407700  1
  O  O17  1  0.86763400  0.05859000  0.67592300  1
  O  O18  1  0.05859000  0.86763400  0.17592300  1
  O  O19  1  0.94141000  0.13236600  0.82407700  1
  O  O20  1  0.30051200  0.96775000  0.98927700  1
  O  O21  1  0.69948800  0.03225000  0.01072300  1
  O  O22  1  0.03225000  0.69948800  0.51072300  1
  O  O23  1  0.96775000  0.30051200  0.48927700  1
  O  O24  1  0.58943500  0.50344700  0.41307600  1
  O  O25  1  0.41056500  0.49655300  0.58692400  1
  O  O26  1  0.49655300  0.41056500  0.08692400  1
  O  O27  1  0.50344700  0.58943500  0.91307600  1
loop_
_geom_bond_atom_site_label_1
_geom_bond_atom_site_label_2
_geom_bond_distance
_geom_bond_site_symmetry_2
Ce0 O27 2.170155 1_554
Ce0 O26 2.268961 1_555
Ce0 O8 2.381609 1_555
Ce0 O15 2.439260 1_555
Ce0 O2 2.616142 1_555
Ce0 O20 2.674493 1_554
Ce0 O5 2.975624 1_554
Ce1 O26 2.170155 1_556
Ce1 O27 2.268961 1_555
Ce1 O9 2.381609 1_555
Ce1 O14 2.439260 1_555
Ce1 O3 2.616142 1_555
Ce1 O21 2.674493 1_556
Ce1 O4 2.975624 1_556
Ce2 O25 2.170155 1_555
Ce2 O24 2.268961 1_555
Ce2 O10 2.381609 1_555
Ce2 O13 2.439260 1_555
Ce2 O0 2.616142 1_555
Ce2 O22 2.674493 1_555
Ce2 O7 2.975624 1_555
Ce3 O24 2.170155 1_555
Ce3 O25 2.268961 1_555
Ce3 O11 2.381609 1_555
Ce3 O12 2.439260 1_555
Ce3 O1 2.616142 1_555
Ce3 O23 2.674493 1_555
Ce3 O6 2.975624 1_555
O0 S3 1.522062 1_555
O0 W4 2.233942 1_555
O1 S2 1.522062 1_555
O1 W5 2.233942 1_555
O2 S1 1.522062 1_554
O2 W6 2.233942 1_555
O3 S0 1.522062 1_556
O3 W7 2.233942 1_555
O4 S0 1.497265 1_555
O4 W4 2.243638 1_555
O5 S1 1.497265 1_555
O5 W5 2.243638 1_555
O6 S2 1.497265 1_555
O6 W6 2.243638 1_555
O7 S3 1.497265 1_555
O7 W7 2.243638 1_555
O8 S4 1.483428 1_555
O9 S5 1.483428 1_555
O10 S4 1.483428 1_555
O11 S5 1.483428 1_555
O12 S3 1.463546 1_565
O13 S2 1.463546 1_545
O14 S1 1.463546 1_455
O15 S0 1.463546 1_655
O16 S4 1.491988 1_555
O16 W2 2.207172 1_465
O17 S5 1.491988 1_555
O17 W3 2.207172 1_645
O18 S4 1.491988 1_555
O18 W0 2.207172 1_465
O19 S5 1.491988 1_555
O19 W1 2.207172 1_645
O20 S0 1.481411 1_566
O20 W1 2.590162 1_555
O21 S1 1.481411 1_544
O21 W0 2.590162 1_555
O22 S2 1.481411 1_455
O22 W3 2.590162 1_555
O23 S3 1.481411 1_655
O23 W2 2.590162 1_555
O24 W2 2.107487 1_555
O25 W3 2.107487 1_555
O26 W0 2.107487 1_555
O27 W1 2.107487 1_555
