# generated using pymatgen
data_Te2MoWS2
_symmetry_space_group_name_H-M   'P 1'
_cell_length_a   3.36097188
_cell_length_b   3.36097188
_cell_length_c   40.19480500
_cell_angle_alpha   90.00000000
_cell_angle_beta   90.00000000
_cell_angle_gamma   119.99999773
_symmetry_Int_Tables_number   1
_chemical_formula_structural   Te2MoWS2
_chemical_formula_sum   'Te4 Mo2 W2 S4'
_cell_volume   393.21522649
_cell_formula_units_Z   2
loop_
 _symmetry_equiv_pos_site_id
 _symmetry_equiv_pos_as_xyz
  1  'x, y, z'
loop_
 _atom_site_type_symbol
 _atom_site_label
 _atom_site_symmetry_multiplicity
 _atom_site_fract_x
 _atom_site_fract_y
 _atom_site_fract_z
 _atom_site_occupancy
  Te  Te0  1  0.33333300  0.66666700  0.33111000  1
  Te  Te1  1  0.66666700  0.33333300  0.04469800  1
  Te  Te2  1  0.66666700  0.33333300  0.13866900  1
  Te  Te3  1  0.33333300  0.66666700  0.23647700  1
  Mo  Mo0  1  0.33333300  0.66666700  0.09167100  1
  Mo  Mo1  1  0.33333300  0.66666700  0.46990700  1
  W  W0  1  0.66666700  0.33333300  0.28382000  1
  W  W1  1  0.66666700  0.33333300  0.65754600  1
  S  S0  1  0.33333300  0.66666700  0.69528800  1
  S  S1  1  0.66666700  0.33333300  0.43225200  1
  S  S2  1  0.66666700  0.33333300  0.50751100  1
  S  S3  1  0.33333300  0.66666700  0.61979800  1
loop_
_geom_bond_atom_site_label_1
_geom_bond_atom_site_label_2
_geom_bond_distance
_geom_bond_site_symmetry_2
Te0 W0 2.716332 1_455
Te0 W0 2.716332 1_565
Te0 W0 2.716336 1_555
Te3 W0 2.717823 1_455
Te3 W0 2.717823 1_565
Te3 W0 2.717827 1_555
Mo0 Te1 2.707431 1_455
Mo0 Te1 2.707431 1_565
Mo0 Te1 2.707435 1_555
Mo0 Te2 2.708131 1_565
Mo0 Te2 2.708131 1_455
Mo0 Te2 2.708136 1_555
Mo1 S2 2.459666 1_455
Mo1 S2 2.459666 1_565
Mo1 S2 2.459671 1_555
Mo1 S1 2.460927 1_455
Mo1 S1 2.460927 1_565
Mo1 S1 2.460931 1_555
S0 W1 2.463079 1_455
S0 W1 2.463079 1_565
S0 W1 2.463083 1_555
S3 W1 2.463227 1_455
S3 W1 2.463227 1_565
S3 W1 2.463232 1_555
