# generated using pymatgen
data_SrIrN2
_symmetry_space_group_name_H-M   'P 1'
_cell_length_a   6.10114847
_cell_length_b   8.29750900
_cell_length_c   5.29751145
_cell_angle_alpha   90.00000000
_cell_angle_beta   107.76170092
_cell_angle_gamma   90.00000000
_symmetry_Int_Tables_number   1
_chemical_formula_structural   SrIrN2
_chemical_formula_sum   'Sr4 Ir4 N8'
_cell_volume   255.39965191
_cell_formula_units_Z   4
loop_
 _symmetry_equiv_pos_site_id
 _symmetry_equiv_pos_as_xyz
  1  'x, y, z'
loop_
 _atom_site_type_symbol
 _atom_site_label
 _atom_site_symmetry_multiplicity
 _atom_site_fract_x
 _atom_site_fract_y
 _atom_site_fract_z
 _atom_site_occupancy
  Sr  Sr0  1  0.32204400  0.90083800  0.65287200  1
  Sr  Sr1  1  0.67795600  0.40083800  0.84712800  1
  Sr  Sr2  1  0.67795600  0.09916200  0.34712800  1
  Sr  Sr3  1  0.32204400  0.59916200  0.15287200  1
  Ir  Ir0  1  0.11989700  0.35684300  0.53988500  1
  Ir  Ir1  1  0.88010300  0.85684300  0.96011500  1
  Ir  Ir2  1  0.88010300  0.64315700  0.46011500  1
  Ir  Ir3  1  0.11989700  0.14315700  0.03988500  1
  N  N0  1  0.21686800  0.90220400  0.09930200  1
  N  N1  1  0.78313200  0.40220400  0.40069800  1
  N  N2  1  0.78313200  0.09779600  0.90069800  1
  N  N3  1  0.21686800  0.59779600  0.59930200  1
  N  N4  1  0.26711500  0.31831500  0.92888900  1
  N  N5  1  0.73288500  0.81831500  0.57111100  1
  N  N6  1  0.73288500  0.68168500  0.07111100  1
  N  N7  1  0.26711500  0.18168500  0.42888900  1
loop_
_geom_bond_atom_site_label_1
_geom_bond_atom_site_label_2
_geom_bond_distance
_geom_bond_site_symmetry_2
Ir0 N7 1.893947 1_555
Ir0 N1 1.995651 1_455
Ir0 N4 2.006578 1_555
Ir0 N3 2.081520 1_555
Ir1 N6 1.893947 1_556
Ir1 N0 1.995651 1_656
Ir1 N5 2.006578 1_555
Ir1 N2 2.081520 1_565
Ir2 N5 1.893947 1_555
Ir2 N3 1.995651 1_655
Ir2 N6 2.006578 1_555
Ir2 N1 2.081520 1_555
Ir3 N4 1.893947 1_554
Ir3 N2 1.995651 1_454
Ir3 N7 2.006578 1_555
Ir3 N0 2.081520 1_545
N0 Sr3 2.589185 1_555
N0 Sr0 2.632657 1_554
N0 Sr0 2.804210 1_555
N0 Sr2 3.170958 1_565
N1 Sr2 2.589185 1_555
N1 Sr1 2.632657 1_555
N1 Sr1 2.804210 1_554
N1 Sr3 3.170958 1_555
N2 Sr1 2.589185 1_555
N2 Sr2 2.632657 1_556
N2 Sr2 2.804210 1_555
N2 Sr0 3.170958 1_545
N3 Sr0 2.589185 1_555
N3 Sr3 2.632657 1_555
N3 Sr3 2.804210 1_556
N3 Sr1 3.170958 1_555
N4 Sr3 2.589990 1_556
N4 Sr1 2.757157 1_555
N5 Sr2 2.589990 1_565
N5 Sr0 2.757157 1_555
N6 Sr1 2.589990 1_554
N6 Sr3 2.757157 1_555
N7 Sr0 2.589990 1_545
N7 Sr2 2.757157 1_555
