# generated using pymatgen
data_Pr2(InCu3)3
_symmetry_space_group_name_H-M   'P 1'
_cell_length_a   5.18254000
_cell_length_b   10.80582600
_cell_length_c   17.10350200
_cell_angle_alpha   90.00000000
_cell_angle_beta   90.00000000
_cell_angle_gamma   90.00000000
_symmetry_Int_Tables_number   1
_chemical_formula_structural   Pr2(InCu3)3
_chemical_formula_sum   'Pr8 In12 Cu36'
_cell_volume   957.82391337
_cell_formula_units_Z   4
loop_
 _symmetry_equiv_pos_site_id
 _symmetry_equiv_pos_as_xyz
  1  'x, y, z'
loop_
 _atom_site_type_symbol
 _atom_site_label
 _atom_site_symmetry_multiplicity
 _atom_site_fract_x
 _atom_site_fract_y
 _atom_site_fract_z
 _atom_site_occupancy
  Pr  Pr0  1  0.50000000  0.88915300  0.74445600  1
  Pr  Pr1  1  0.50000000  0.11084700  0.25554400  1
  Pr  Pr2  1  0.00000000  0.61084700  0.24445600  1
  Pr  Pr3  1  0.00000000  0.38915300  0.75554400  1
  Pr  Pr4  1  0.50000000  0.50000000  0.50000000  1
  Pr  Pr5  1  0.00000000  0.00000000  0.00000000  1
  Pr  Pr6  1  0.50000000  0.50000000  0.00000000  1
  Pr  Pr7  1  0.00000000  0.00000000  0.50000000  1
  In  In0  1  0.50000000  0.57636700  0.80771200  1
  In  In1  1  0.50000000  0.42363300  0.19228800  1
  In  In2  1  0.00000000  0.92363300  0.30771200  1
  In  In3  1  0.00000000  0.07636700  0.69228800  1
  In  In4  1  0.50000000  0.80562800  0.55352000  1
  In  In5  1  0.50000000  0.19437200  0.44648000  1
  In  In6  1  0.00000000  0.69437200  0.05352000  1
  In  In7  1  0.00000000  0.30562800  0.94648000  1
  In  In8  1  0.50000000  0.79726900  0.28143500  1
  In  In9  1  0.50000000  0.20273100  0.71856500  1
  In  In10  1  0.00000000  0.70273100  0.78143500  1
  In  In11  1  0.00000000  0.29726900  0.21856500  1
  Cu  Cu0  1  0.50000000  0.65905900  0.14775300  1
  Cu  Cu1  1  0.50000000  0.34094100  0.85224700  1
  Cu  Cu2  1  0.00000000  0.84094100  0.64775300  1
  Cu  Cu3  1  0.00000000  0.15905900  0.35224700  1
  Cu  Cu4  1  0.25646400  0.63205600  0.65347700  1
  Cu  Cu5  1  0.25646400  0.36794400  0.34652300  1
  Cu  Cu6  1  0.24353600  0.86794400  0.15347700  1
  Cu  Cu7  1  0.24353600  0.13205600  0.84652300  1
  Cu  Cu8  1  0.74353600  0.36794400  0.34652300  1
  Cu  Cu9  1  0.74353600  0.63205600  0.65347700  1
  Cu  Cu10  1  0.75646400  0.13205600  0.84652300  1
  Cu  Cu11  1  0.75646400  0.86794400  0.15347700  1
  Cu  Cu12  1  0.50000000  0.95332700  0.40892000  1
  Cu  Cu13  1  0.50000000  0.04667300  0.59108000  1
  Cu  Cu14  1  0.00000000  0.54667300  0.90892000  1
  Cu  Cu15  1  0.00000000  0.45332700  0.09108000  1
  Cu  Cu16  1  0.25610000  0.75663500  0.91192200  1
  Cu  Cu17  1  0.25610000  0.24336500  0.08807800  1
  Cu  Cu18  1  0.24390000  0.74336500  0.41192200  1
  Cu  Cu19  1  0.24390000  0.25663500  0.58807800  1
  Cu  Cu20  1  0.74390000  0.24336500  0.08807800  1
  Cu  Cu21  1  0.74390000  0.75663500  0.91192200  1
  Cu  Cu22  1  0.75610000  0.25663500  0.58807800  1
  Cu  Cu23  1  0.75610000  0.74336500  0.41192200  1
  Cu  Cu24  1  0.50000000  0.56670100  0.33351800  1
  Cu  Cu25  1  0.50000000  0.43329900  0.66648200  1
  Cu  Cu26  1  0.00000000  0.93329900  0.83351800  1
  Cu  Cu27  1  0.00000000  0.06670100  0.16648200  1
  Cu  Cu28  1  0.50000000  0.80957200  0.03436800  1
  Cu  Cu29  1  0.50000000  0.19042800  0.96563200  1
  Cu  Cu30  1  0.00000000  0.69042800  0.53436800  1
  Cu  Cu31  1  0.00000000  0.30957200  0.46563200  1
  Cu  Cu32  1  0.50000000  0.95879700  0.91375600  1
  Cu  Cu33  1  0.50000000  0.04120300  0.08624400  1
  Cu  Cu34  1  0.00000000  0.54120300  0.41375600  1
  Cu  Cu35  1  0.00000000  0.45879700  0.58624400  1
loop_
_geom_bond_atom_site_label_1
_geom_bond_atom_site_label_2
_geom_bond_distance
_geom_bond_site_symmetry_2
In0 In10 2.963303 1_555
In0 In10 2.963303 1_655
In0 Pr6 3.390747 1_556
In0 Pr3 3.406367 1_655
In0 Pr3 3.406367 1_555
In0 Pr0 3.548846 1_555
In1 In11 2.963303 1_655
In1 In11 2.963303 1_555
In1 Pr6 3.390747 1_555
In1 Pr2 3.406367 1_655
In1 Pr2 3.406367 1_555
In1 Pr1 3.548846 1_555
In2 In8 2.963303 1_555
In2 In8 2.963303 1_455
In2 Pr7 3.390747 1_565
In2 Pr1 3.406367 1_565
In2 Pr1 3.406367 1_465
In2 Pr2 3.548846 1_555
In3 In9 2.963303 1_455
In3 In9 2.963303 1_555
In3 Pr7 3.390747 1_555
In3 Pr0 3.406367 1_445
In3 Pr0 3.406367 1_545
In3 Pr3 3.548846 1_555
In4 Pr0 3.388102 1_555
In4 Pr4 3.427075 1_555
In4 Pr7 3.458912 1_565
In4 Pr7 3.458912 1_665
In5 Pr1 3.388102 1_555
In5 Pr4 3.427075 1_555
In5 Pr7 3.458912 1_555
In5 Pr7 3.458912 1_655
In6 Pr2 3.388102 1_555
In6 Pr5 3.427075 1_565
In6 Pr6 3.458912 1_455
In6 Pr6 3.458912 1_555
In7 Pr3 3.388102 1_555
In7 Pr5 3.427075 1_556
In7 Pr6 3.458912 1_456
In7 Pr6 3.458912 1_556
In8 Pr2 3.342556 1_655
In8 Pr2 3.342556 1_555
In8 Pr1 3.417283 1_565
In9 Pr3 3.342556 1_555
In9 Pr3 3.342556 1_655
In9 Pr0 3.417283 1_545
In10 Pr0 3.342556 1_455
In10 Pr0 3.342556 1_555
In10 Pr3 3.417283 1_555
In11 Pr1 3.342556 1_555
In11 Pr1 3.342556 1_455
In11 Pr2 3.417283 1_555
Cu0 Cu28 2.531016 1_555
Cu0 Cu11 2.621264 1_555
Cu0 Cu6 2.621264 1_555
Cu0 In1 2.655558 1_555
Cu0 In8 2.730975 1_555
Cu0 Pr6 3.056199 1_555
Cu0 In6 3.075372 1_655
Cu0 In6 3.075372 1_555
Cu0 Pr2 3.117960 1_555
Cu0 Pr2 3.117960 1_655
Cu1 Cu29 2.531016 1_555
Cu1 Cu10 2.621264 1_555
Cu1 Cu7 2.621264 1_555
Cu1 In0 2.655558 1_555
Cu1 In9 2.730975 1_555
Cu1 Pr6 3.056199 1_556
Cu1 In7 3.075372 1_555
Cu1 In7 3.075372 1_655
Cu1 Pr3 3.117960 1_555
Cu1 Pr3 3.117960 1_655
Cu2 Cu30 2.531016 1_555
Cu2 Cu4 2.621264 1_555
Cu2 Cu9 2.621264 1_455
Cu2 In3 2.655558 1_565
Cu2 In10 2.730975 1_555
Cu2 Pr7 3.056199 1_565
Cu2 In4 3.075372 1_455
Cu2 In4 3.075372 1_555
Cu2 Pr0 3.117960 1_455
Cu2 Pr0 3.117960 1_555
Cu3 Cu31 2.531016 1_555
Cu3 Cu5 2.621264 1_555
Cu3 Cu8 2.621264 1_455
Cu3 In2 2.655558 1_545
Cu3 In11 2.730975 1_555
Cu3 Pr7 3.056199 1_555
Cu3 In5 3.075372 1_455
Cu3 In5 3.075372 1_555
Cu3 Pr1 3.117960 1_455
Cu3 Pr1 3.117960 1_555
Cu4 Cu9 2.524270 1_555
Cu4 Cu9 2.658270 1_455
Cu4 In10 2.671985 1_555
Cu4 In4 2.834361 1_555
Cu4 In0 2.985621 1_555
Cu4 Pr4 3.243429 1_555
Cu4 Pr3 3.421035 1_555
Cu4 Pr0 3.425259 1_555
Cu5 Cu8 2.524270 1_555
Cu5 Cu8 2.658270 1_455
Cu5 In11 2.671985 1_555
Cu5 In5 2.834361 1_555
Cu5 In1 2.985621 1_555
Cu5 Pr4 3.243429 1_555
Cu5 Pr2 3.421035 1_555
Cu5 Pr1 3.425259 1_555
Cu6 In8 2.671985 1_555
Cu6 In6 2.834361 1_555
Cu6 In2 2.985621 1_555
Cu6 Pr5 3.243429 1_565
Cu6 Pr1 3.421035 1_565
Cu6 Pr2 3.425259 1_555
Cu7 In9 2.671985 1_555
Cu7 In7 2.834361 1_555
Cu7 In3 2.985621 1_555
Cu7 Pr5 3.243429 1_556
Cu7 Pr0 3.421035 1_545
Cu7 Pr3 3.425259 1_555
Cu8 In11 2.671985 1_655
Cu8 In5 2.834361 1_555
Cu8 In1 2.985621 1_555
Cu8 Pr4 3.243429 1_555
Cu8 Pr2 3.421035 1_655
Cu8 Pr1 3.425259 1_555
Cu9 In10 2.671985 1_655
Cu9 In4 2.834361 1_555
Cu9 In0 2.985621 1_555
Cu9 Pr4 3.243429 1_555
Cu9 Pr3 3.421035 1_655
Cu9 Pr0 3.425259 1_555
Cu10 Cu26 2.501044 1_645
Cu10 Cu29 2.512879 1_555
Cu10 Cu7 2.524270 1_655
Cu10 Cu32 2.567893 1_545
Cu10 Cu7 2.658270 1_555
Cu10 In9 2.671985 1_555
Cu10 In7 2.834361 1_655
Cu10 In3 2.985621 1_655
Cu10 Pr5 3.243429 1_656
Cu10 Pr0 3.421035 1_545
Cu10 Pr3 3.425259 1_655
Cu11 Cu27 2.501044 1_665
Cu11 Cu28 2.512879 1_555
Cu11 Cu6 2.524270 1_655
Cu11 Cu33 2.567893 1_565
Cu11 Cu6 2.658270 1_555
Cu11 In8 2.671985 1_555
Cu11 In6 2.834361 1_655
Cu11 In2 2.985621 1_655
Cu11 Pr5 3.243429 1_665
Cu11 Pr1 3.421035 1_565
Cu11 Pr2 3.425259 1_655
Cu12 Cu18 2.629018 1_555
Cu12 Cu23 2.629018 1_555
Cu12 In5 2.682741 1_565
Cu12 In8 2.756455 1_555
Cu12 In4 2.943433 1_555
Cu12 Pr7 3.065247 1_565
Cu12 Pr7 3.065247 1_665
Cu12 Pr1 3.127105 1_565
Cu12 In2 3.132736 1_655
Cu12 In2 3.132736 1_555
Cu13 Cu22 2.629018 1_555
Cu13 Cu19 2.629018 1_555
Cu13 In4 2.682741 1_545
Cu13 In9 2.756455 1_555
Cu13 In5 2.943433 1_555
Cu13 Pr7 3.065247 1_655
Cu13 Pr7 3.065247 1_555
Cu13 Pr0 3.127105 1_545
Cu13 In3 3.132736 1_555
Cu13 In3 3.132736 1_655
Cu14 Cu16 2.629018 1_555
Cu14 Cu21 2.629018 1_455
Cu14 In7 2.682741 1_555
Cu14 In10 2.756455 1_555
Cu14 In6 2.943433 1_556
Cu14 Pr6 3.065247 1_456
Cu14 Pr6 3.065247 1_556
Cu14 Pr3 3.127105 1_555
Cu14 In0 3.132736 1_455
Cu14 In0 3.132736 1_555
Cu15 Cu20 2.629018 1_455
Cu15 Cu17 2.629018 1_555
Cu15 In6 2.682741 1_555
Cu15 In11 2.756455 1_555
Cu15 In7 2.943433 1_554
Cu15 Pr6 3.065247 1_555
Cu15 Pr6 3.065247 1_455
Cu15 Pr2 3.127105 1_555
Cu15 In1 3.132736 1_555
Cu15 In1 3.132736 1_455
Cu16 Cu28 2.512145 1_556
Cu16 Cu32 2.524063 1_555
Cu16 Cu21 2.528043 1_555
Cu16 Cu21 2.654497 1_455
Cu16 In10 2.661152 1_555
Cu16 Cu26 2.684047 1_555
Cu16 In6 2.842441 1_556
Cu16 In0 2.927291 1_555
Cu16 Pr5 3.308564 1_566
Cu16 Pr6 3.399632 1_556
Cu16 Pr0 3.442708 1_555
Cu17 Cu29 2.512145 1_554
Cu17 Cu33 2.524063 1_555
Cu17 Cu20 2.528043 1_555
Cu17 Cu20 2.654497 1_455
Cu17 In11 2.661152 1_555
Cu17 Cu27 2.684047 1_555
Cu17 In7 2.842441 1_554
Cu17 In1 2.927291 1_555
Cu17 Pr5 3.308564 1_555
Cu17 Pr6 3.399632 1_555
Cu17 Pr1 3.442708 1_555
Cu18 Cu30 2.512145 1_555
Cu18 Cu34 2.524063 1_555
Cu18 Cu23 2.528043 1_455
Cu18 Cu23 2.654497 1_555
Cu18 In8 2.661152 1_555
Cu18 Cu24 2.684047 1_555
Cu18 In4 2.842441 1_555
Cu18 In2 2.927291 1_555
Cu18 Pr4 3.308564 1_555
Cu18 Pr7 3.399632 1_565
Cu18 Pr2 3.442708 1_555
Cu19 Cu31 2.512145 1_555
Cu19 Cu35 2.524063 1_555
Cu19 Cu22 2.528043 1_455
Cu19 Cu22 2.654497 1_555
Cu19 In9 2.661152 1_555
Cu19 Cu25 2.684047 1_555
Cu19 In5 2.842441 1_555
Cu19 In3 2.927291 1_555
Cu19 Pr4 3.308564 1_555
Cu19 Pr7 3.399632 1_555
Cu19 Pr3 3.442708 1_555
Cu20 Cu29 2.512145 1_554
Cu20 Cu33 2.524063 1_555
Cu20 In11 2.661152 1_655
Cu20 Cu27 2.684047 1_655
Cu20 In7 2.842441 1_654
Cu20 In1 2.927291 1_555
Cu20 Pr5 3.308564 1_655
Cu20 Pr6 3.399632 1_555
Cu20 Pr1 3.442708 1_555
Cu21 Cu28 2.512145 1_556
Cu21 Cu32 2.524063 1_555
Cu21 In10 2.661152 1_655
Cu21 Cu26 2.684047 1_655
Cu21 In6 2.842441 1_656
Cu21 In0 2.927291 1_555
Cu21 Pr5 3.308564 1_666
Cu21 Pr6 3.399632 1_556
Cu21 Pr0 3.442708 1_555
Cu22 Cu31 2.512145 1_655
Cu22 Cu35 2.524063 1_655
Cu22 In9 2.661152 1_555
Cu22 Cu25 2.684047 1_555
Cu22 In5 2.842441 1_555
Cu22 In3 2.927291 1_655
Cu22 Pr4 3.308564 1_555
Cu22 Pr7 3.399632 1_655
Cu22 Pr3 3.442708 1_655
Cu23 Cu30 2.512145 1_655
Cu23 Cu34 2.524063 1_655
Cu23 In8 2.661152 1_555
Cu23 Cu24 2.684047 1_555
Cu23 In4 2.842441 1_555
Cu23 In2 2.927291 1_655
Cu23 Pr4 3.308564 1_555
Cu23 Pr7 3.399632 1_665
Cu23 Pr2 3.442708 1_655
Cu24 Cu8 2.501044 1_555
Cu24 Cu5 2.501044 1_555
Cu24 In8 2.645938 1_555
Cu24 In1 2.867890 1_555
Cu24 Pr4 2.937231 1_555
Cu24 Cu34 2.945156 1_655
Cu24 Cu34 2.945156 1_555
Cu24 Pr2 3.043452 1_655
Cu24 Pr2 3.043452 1_555
Cu25 Cu9 2.501044 1_555
Cu25 Cu4 2.501044 1_555
Cu25 In9 2.645938 1_555
Cu25 In0 2.867890 1_555
Cu25 Pr4 2.937231 1_555
Cu25 Cu35 2.945156 1_655
Cu25 Cu35 2.945156 1_555
Cu25 Pr3 3.043452 1_555
Cu25 Pr3 3.043452 1_655
Cu26 Cu7 2.501044 1_565
Cu26 In10 2.645938 1_555
Cu26 In3 2.867890 1_565
Cu26 Pr5 2.937231 1_566
Cu26 Cu32 2.945156 1_455
Cu26 Cu32 2.945156 1_555
Cu26 Pr0 3.043452 1_555
Cu26 Pr0 3.043452 1_455
Cu27 Cu6 2.501044 1_545
Cu27 In11 2.645938 1_555
Cu27 In2 2.867890 1_545
Cu27 Pr5 2.937231 1_555
Cu27 Cu33 2.945156 1_555
Cu27 Cu33 2.945156 1_455
Cu27 Pr1 3.043452 1_555
Cu27 Pr1 3.043452 1_455
Cu28 Cu6 2.512879 1_555
Cu28 Cu32 2.618331 1_554
Cu28 Cu33 2.655572 1_565
Cu28 In6 2.893369 1_555
Cu28 In6 2.893369 1_655
Cu28 Pr5 3.360724 1_665
Cu28 Pr5 3.360724 1_565
Cu28 Pr6 3.396434 1_555
Cu29 Cu7 2.512879 1_555
Cu29 Cu33 2.618331 1_556
Cu29 Cu32 2.655572 1_545
Cu29 In7 2.893369 1_555
Cu29 In7 2.893369 1_655
Cu29 Pr5 3.360724 1_556
Cu29 Pr5 3.360724 1_656
Cu29 Pr6 3.396434 1_556
Cu30 Cu9 2.512879 1_455
Cu30 Cu4 2.512879 1_555
Cu30 Cu34 2.618331 1_555
Cu30 Cu35 2.655572 1_555
Cu30 In4 2.893369 1_455
Cu30 In4 2.893369 1_555
Cu30 Pr4 3.360724 1_555
Cu30 Pr4 3.360724 1_455
Cu30 Pr7 3.396434 1_565
Cu31 Cu8 2.512879 1_455
Cu31 Cu5 2.512879 1_555
Cu31 Cu35 2.618331 1_555
Cu31 Cu34 2.655572 1_555
Cu31 In5 2.893369 1_455
Cu31 In5 2.893369 1_555
Cu31 Pr4 3.360724 1_555
Cu31 Pr4 3.360724 1_455
Cu31 Pr7 3.396434 1_555
Cu32 Cu7 2.567893 1_565
Cu32 Pr0 2.991819 1_555
Cu32 Pr5 3.014756 1_666
Cu32 Pr5 3.014756 1_566
Cu32 Cu33 3.081608 1_566
Cu33 Cu6 2.567893 1_545
Cu33 Pr1 2.991819 1_555
Cu33 Pr5 3.014756 1_555
Cu33 Pr5 3.014756 1_655
Cu34 Cu8 2.567893 1_455
Cu34 Cu5 2.567893 1_555
Cu34 Pr2 2.991819 1_555
Cu34 Pr4 3.014756 1_555
Cu34 Pr4 3.014756 1_455
Cu34 Cu35 3.081608 1_555
Cu35 Cu9 2.567893 1_455
Cu35 Cu4 2.567893 1_555
Cu35 Pr3 2.991819 1_555
Cu35 Pr4 3.014756 1_555
Cu35 Pr4 3.014756 1_455
