# generated using pymatgen
data_Ba2LaC3O9F
_symmetry_space_group_name_H-M   'P 1'
_cell_length_a   5.12640814
_cell_length_b   6.66484830
_cell_length_c   13.16310339
_cell_angle_alpha   77.24525912
_cell_angle_beta   90.00000000
_cell_angle_gamma   90.00000000
_symmetry_Int_Tables_number   1
_chemical_formula_structural   Ba2LaC3O9F
_chemical_formula_sum   'Ba4 La2 C6 O18 F2'
_cell_volume   438.64246839
_cell_formula_units_Z   2
loop_
 _symmetry_equiv_pos_site_id
 _symmetry_equiv_pos_as_xyz
  1  'x, y, z'
loop_
 _atom_site_type_symbol
 _atom_site_label
 _atom_site_symmetry_multiplicity
 _atom_site_fract_x
 _atom_site_fract_y
 _atom_site_fract_z
 _atom_site_occupancy
  Ba  Ba0  1  0.25000000  0.27425996  0.41621116  1
  Ba  Ba1  1  0.75000000  0.78469577  0.92494093  1
  Ba  Ba2  1  0.75000000  0.72574004  0.58378884  1
  Ba  Ba3  1  0.25000000  0.21530423  0.07505907  1
  La  La0  1  0.25000000  0.22641555  0.76172287  1
  La  La1  1  0.75000000  0.77358445  0.23827713  1
  C  C0  1  0.25000000  0.74566541  0.42762905  1
  C  C1  1  0.25000000  0.66792810  0.12827423  1
  C  C2  1  0.75000000  0.33207190  0.87172577  1
  C  C3  1  0.75000000  0.25433459  0.57237095  1
  C  C4  1  0.25000000  0.78578150  0.72684492  1
  C  C5  1  0.75000000  0.21421850  0.27315508  1
  O  O0  1  0.53353542  0.12112955  0.26253791  1
  O  O1  1  0.03353542  0.87887045  0.73746209  1
  O  O2  1  0.96646458  0.12112955  0.26253791  1
  O  O3  1  0.46646458  0.87887045  0.73746209  1
  O  O4  1  0.03026380  0.59821873  0.10415476  1
  O  O5  1  0.46973620  0.59821873  0.10415476  1
  O  O6  1  0.53026380  0.40178127  0.89584524  1
  O  O7  1  0.96973620  0.40178127  0.89584524  1
  O  O8  1  0.75000000  0.19184182  0.81669926  1
  O  O9  1  0.25000000  0.80815818  0.18330074  1
  O  O10  1  0.75000000  0.38973466  0.29822657  1
  O  O11  1  0.25000000  0.61026534  0.70177343  1
  O  O12  1  0.75000000  0.13501257  0.50843733  1
  O  O13  1  0.25000000  0.86498743  0.49156267  1
  O  O14  1  0.96840388  0.32131286  0.60203501  1
  O  O15  1  0.46840388  0.67868714  0.39796499  1
  O  O16  1  0.03159612  0.67868714  0.39796499  1
  O  O17  1  0.53159612  0.32131286  0.60203501  1
  F  F0  1  0.25000000  0.98156659  0.92848166  1
  F  F1  1  0.75000000  0.01843341  0.07151834  1
loop_
_geom_bond_atom_site_label_1
_geom_bond_atom_site_label_2
_geom_bond_distance
_geom_bond_site_symmetry_2
Ba0 O13 2.688810 1_545
Ba0 O0 2.856167 1_555
Ba0 O2 2.856167 1_455
Ba0 O15 2.879379 1_555
Ba0 O16 2.879379 1_555
Ba0 O12 2.899584 1_455
Ba0 O12 2.899584 1_555
Ba0 O17 2.916157 1_555
Ba0 O14 2.916157 1_455
Ba0 O10 3.007741 1_455
Ba0 O10 3.007741 1_555
Ba1 F1 2.734345 1_566
Ba1 O8 2.772419 1_565
Ba1 O4 2.806998 1_656
Ba1 O5 2.806998 1_556
Ba1 O3 2.812967 1_555
Ba1 O1 2.812967 1_655
Ba1 F0 2.884586 1_655
Ba1 F0 2.884586 1_555
Ba1 O7 2.891404 1_555
Ba1 O6 2.891404 1_555
Ba2 O12 2.688810 1_565
Ba2 O1 2.856167 1_655
Ba2 O3 2.856167 1_555
Ba2 O17 2.879379 1_555
Ba2 O14 2.879379 1_555
Ba2 O13 2.899584 1_555
Ba2 O13 2.899584 1_655
Ba2 O16 2.916157 1_655
Ba2 O15 2.916157 1_555
Ba2 O11 3.007741 1_555
Ba2 O11 3.007741 1_655
Ba3 F0 2.734345 1_544
Ba3 O9 2.772419 1_545
Ba3 O6 2.806998 1_554
Ba3 O7 2.806998 1_454
Ba3 O2 2.812967 1_455
Ba3 O0 2.812967 1_555
Ba3 F1 2.884586 1_455
Ba3 F1 2.884586 1_555
Ba3 O5 2.891404 1_555
Ba3 O4 2.891404 1_555
La0 O11 2.505234 1_555
La0 O14 2.513019 1_455
La0 O17 2.513019 1_555
La0 O3 2.650551 1_545
La0 O1 2.650551 1_545
La0 O8 2.659542 1_455
La0 O8 2.659542 1_555
La0 O6 2.730990 1_555
La0 O7 2.730990 1_455
La1 O10 2.505234 1_555
La1 O16 2.513019 1_655
La1 O15 2.513019 1_555
La1 O0 2.650551 1_565
La1 O2 2.650551 1_565
La1 O9 2.659542 1_555
La1 O9 2.659542 1_655
La1 O4 2.730990 1_655
La1 O5 2.730990 1_555
C0 O13 1.279138 1_555
C0 O15 1.297024 1_555
C0 O16 1.297024 1_555
C1 O5 1.284792 1_555
C1 O4 1.284792 1_555
C1 O9 1.302710 1_555
C2 O7 1.284792 1_555
C2 O6 1.284792 1_555
C2 O8 1.302710 1_555
C3 O12 1.279138 1_555
C3 O17 1.297024 1_555
C3 O14 1.297024 1_555
C4 O11 1.283659 1_555
C4 O1 1.293888 1_555
C4 O3 1.293888 1_555
C5 O10 1.283659 1_555
C5 O0 1.293888 1_555
C5 O2 1.293888 1_555
F0 La0 2.428919 1_565
F1 La1 2.428919 1_545
