# generated using pymatgen
data_KSmTi4O12
_symmetry_space_group_name_H-M   'P 1'
_cell_length_a   5.48580316
_cell_length_b   5.48580316
_cell_length_c   7.82422430
_cell_angle_alpha   90.00000000
_cell_angle_beta   90.00000000
_cell_angle_gamma   90.03258891
_symmetry_Int_Tables_number   1
_chemical_formula_structural   KSmTi4O12
_chemical_formula_sum   'K1 Sm1 Ti4 O12'
_cell_volume   235.46245236
_cell_formula_units_Z   1
loop_
 _symmetry_equiv_pos_site_id
 _symmetry_equiv_pos_as_xyz
  1  'x, y, z'
loop_
 _atom_site_type_symbol
 _atom_site_label
 _atom_site_symmetry_multiplicity
 _atom_site_fract_x
 _atom_site_fract_y
 _atom_site_fract_z
 _atom_site_occupancy
  K  K0  1  0.00632977  0.99367023  0.50000000  1
  Sm  Sm0  1  0.48574743  0.51425257  -0.00000000  1
  Ti  Ti0  1  0.50258290  0.00539274  0.25848530  1
  Ti  Ti1  1  0.50258290  0.00539274  0.74151470  1
  Ti  Ti2  1  0.99460726  0.49741710  0.74151470  1
  Ti  Ti3  1  0.99460726  0.49741710  0.25848530  1
  O  O0  1  0.25713637  0.25588041  0.22884813  1
  O  O1  1  0.74411959  0.74286363  0.22884813  1
  O  O2  1  0.74411959  0.74286363  0.77115187  1
  O  O3  1  0.25713637  0.25588041  0.77115187  1
  O  O4  1  0.26082304  0.73917696  0.24097696  1
  O  O5  1  0.73842650  0.26157350  0.21791917  1
  O  O6  1  0.73842650  0.26157350  0.78208083  1
  O  O7  1  0.26082304  0.73917696  0.75902304  1
  O  O8  1  0.48813612  0.97283392  -0.00000000  1
  O  O9  1  0.50906378  0.00643449  0.50000000  1
  O  O10  1  0.02716608  0.51186388  -0.00000000  1
  O  O11  1  0.99356551  0.49093622  0.50000000  1
loop_
_geom_bond_atom_site_label_1
_geom_bond_atom_site_label_2
_geom_bond_distance
_geom_bond_site_symmetry_2
K0 O11 2.728842 1_465
K0 O9 2.728842 1_465
K0 O9 2.758749 1_565
K0 O11 2.758749 1_455
K0 O4 2.829794 1_555
K0 O7 2.829794 1_555
K0 O2 2.908756 1_455
K0 O0 2.908756 1_565
K0 O1 2.908756 1_455
K0 O3 2.908756 1_565
K0 O6 3.032065 1_465
K0 O5 3.032065 1_465
O0 Ti0 1.938320 1_555
O0 Ti3 1.971232 1_455
O0 Sm0 2.604966 1_555
O1 Ti3 1.938320 1_555
O1 Ti0 1.971232 1_565
O1 Sm0 2.604966 1_555
O2 Ti2 1.938320 1_555
O2 Ti1 1.971232 1_565
O2 Sm0 2.604966 1_556
O3 Ti1 1.938320 1_555
O3 Ti2 1.971232 1_455
O3 Sm0 2.604966 1_556
O4 Ti3 1.976938 1_455
O4 Ti0 1.976938 1_565
O4 Sm0 2.569369 1_555
O5 Ti0 1.935872 1_555
O5 Ti3 1.935872 1_555
O5 Sm0 2.598497 1_555
O6 Ti1 1.935872 1_555
O6 Ti2 1.935872 1_555
O6 Sm0 2.598497 1_556
O7 Ti2 1.976938 1_455
O7 Ti1 1.976938 1_565
O7 Sm0 2.569369 1_556
O8 Ti0 2.031861 1_565
O8 Ti1 2.031861 1_564
O8 Sm0 2.515714 1_555
O8 Sm0 2.970153 1_565
O9 Ti1 1.890008 1_555
O9 Ti0 1.890008 1_555
O10 Ti3 2.031861 1_455
O10 Ti2 2.031861 1_454
O10 Sm0 2.515714 1_555
O10 Sm0 2.970153 1_455
O11 Ti2 1.890008 1_555
O11 Ti3 1.890008 1_555
