# generated using pymatgen
data_Os(OF)2
_symmetry_space_group_name_H-M   'P 1'
_cell_length_a   5.74807965
_cell_length_b   5.73971834
_cell_length_c   7.48752475
_cell_angle_alpha   69.74154359
_cell_angle_beta   73.77608379
_cell_angle_gamma   62.28421776
_symmetry_Int_Tables_number   1
_chemical_formula_structural   Os(OF)2
_chemical_formula_sum   'Os2 O4 F4'
_cell_volume   203.06619090
_cell_formula_units_Z   2
loop_
 _symmetry_equiv_pos_site_id
 _symmetry_equiv_pos_as_xyz
  1  'x, y, z'
loop_
 _atom_site_type_symbol
 _atom_site_label
 _atom_site_symmetry_multiplicity
 _atom_site_fract_x
 _atom_site_fract_y
 _atom_site_fract_z
 _atom_site_occupancy
  Os  Os0  1  0.29633400  0.25271100  0.74990000  1
  Os  Os1  1  0.70366600  0.74728900  0.25010000  1
  O  O0  1  0.34224500  0.31099500  0.94278000  1
  O  O1  1  0.55443000  0.19315400  0.56863400  1
  O  O2  1  0.44557000  0.80684600  0.43136600  1
  O  O3  1  0.65775500  0.68900500  0.05722000  1
  F  F0  1  0.05626700  0.50754700  0.30095300  1
  F  F1  1  0.14089900  0.00693700  0.78999000  1
  F  F2  1  0.85910100  0.99306300  0.21001000  1
  F  F3  1  0.94373300  0.49245300  0.69904700  1
loop_
_geom_bond_atom_site_label_1
_geom_bond_atom_site_label_2
_geom_bond_distance
_geom_bond_site_symmetry_2
O0 Os0 1.702031 1_555
O1 Os0 1.698328 1_555
O2 Os1 1.698328 1_555
O3 Os1 1.702031 1_555
F0 Os1 1.902764 1_455
F1 Os0 1.899373 1_555
F2 Os1 1.899373 1_555
F3 Os0 1.902764 1_655
