# generated using pymatgen
data_Li2V(OF)2
_symmetry_space_group_name_H-M   'P 1'
_cell_length_a   5.91283377
_cell_length_b   5.97109159
_cell_length_c   10.12085480
_cell_angle_alpha   87.81114115
_cell_angle_beta   106.93296829
_cell_angle_gamma   119.67665438
_symmetry_Int_Tables_number   1
_chemical_formula_structural   Li2V(OF)2
_chemical_formula_sum   'Li8 V4 O8 F8'
_cell_volume   294.57312766
_cell_formula_units_Z   4
loop_
 _symmetry_equiv_pos_site_id
 _symmetry_equiv_pos_as_xyz
  1  'x, y, z'
loop_
 _atom_site_type_symbol
 _atom_site_label
 _atom_site_symmetry_multiplicity
 _atom_site_fract_x
 _atom_site_fract_y
 _atom_site_fract_z
 _atom_site_occupancy
  Li  Li0  1  0.11026100  0.80592900  0.93583500  1
  Li  Li1  1  0.13158800  0.30656600  0.43561800  1
  Li  Li2  1  0.87735400  0.69163400  0.56365100  1
  Li  Li3  1  0.87760400  0.19154200  0.06359600  1
  Li  Li4  1  0.99464900  0.25164300  0.75199400  1
  Li  Li5  1  0.00686400  0.75499800  0.25079800  1
  Li  Li6  1  0.49860000  0.25496500  0.75045400  1
  Li  Li7  1  0.50980100  0.75288900  0.25171800  1
  V  V0  1  0.47781100  0.74894700  0.75003800  1
  V  V1  1  0.51873000  0.99983100  0.49935400  1
  V  V2  1  0.52029900  0.24917500  0.25011800  1
  V  V3  1  0.48129700  0.49956900  0.99929200  1
  O  O0  1  0.28601700  0.87583000  0.63058500  1
  O  O1  1  0.28905700  0.38515900  0.12284900  1
  O  O2  1  0.71932600  0.88585900  0.62321300  1
  O  O3  1  0.72050900  0.37602000  0.13079900  1
  O  O4  1  0.69582300  0.62201200  0.87352800  1
  O  O5  1  0.72781500  0.11403900  0.37136800  1
  O  O6  1  0.25747600  0.61347100  0.87194500  1
  O  O7  1  0.30022400  0.12231600  0.37373900  1
  F  F0  1  0.73078500  0.34505100  0.61993900  1
  F  F1  1  0.73424200  0.84542400  0.12005800  1
  F  F2  1  0.72375800  0.10230300  0.86250500  1
  F  F3  1  0.74114300  0.60313100  0.36233900  1
  F  F4  1  0.26324500  0.39553700  0.63844200  1
  F  F5  1  0.27057500  0.89581800  0.13891400  1
  F  F6  1  0.26000000  0.15441900  0.87852300  1
  F  F7  1  0.27514500  0.65592300  0.37878800  1
loop_
_geom_bond_atom_site_label_1
_geom_bond_atom_site_label_2
_geom_bond_distance
_geom_bond_site_symmetry_2
Li0 O6 1.967636 1_555
Li0 O4 2.024014 1_455
Li1 O5 1.969608 1_455
Li1 O7 2.024717 1_555
Li2 O0 1.994781 1_655
Li2 O2 2.008984 1_555
Li3 O3 1.994295 1_555
Li3 O1 2.008232 1_655
Li4 O6 2.081681 1_655
Li4 O2 2.140107 1_545
Li5 O7 2.133438 1_565
Li5 O3 2.163495 1_455
Li6 O4 2.132251 1_555
Li6 O0 2.163463 1_545
Li7 O5 2.077501 1_565
Li7 O1 2.148319 1_555
O0 V0 1.817648 1_555
O0 V1 2.046025 1_555
O1 V3 1.821074 1_554
O1 V2 2.044866 1_555
O2 V1 1.819169 1_555
O2 V0 2.046156 1_555
O3 V2 1.818904 1_555
O3 V3 2.043997 1_554
O4 V3 1.927360 1_555
O4 V0 1.937747 1_555
O5 V2 1.920993 1_555
O5 V1 1.924018 1_545
O6 V0 1.921058 1_555
O6 V3 1.925068 1_555
O7 V1 1.930874 1_545
O7 V2 1.931939 1_555
F0 Li2 1.944208 1_555
F0 V1 2.013006 1_545
F0 Li4 2.030173 1_555
F0 Li6 2.046896 1_555
F1 Li3 1.942568 1_565
F1 V3 2.016214 1_554
F1 Li7 2.022321 1_555
F1 Li5 2.050769 1_655
F2 Li3 1.943696 1_556
F2 V0 2.010761 1_545
F2 Li6 2.032905 1_555
F2 Li4 2.040767 1_555
F3 Li2 1.945267 1_555
F3 V2 2.012126 1_555
F3 Li5 2.027174 1_655
F3 Li7 2.041288 1_555
F4 Li1 1.960862 1_555
F4 V0 2.008656 1_555
F4 Li6 2.022695 1_555
F4 Li4 2.053731 1_455
F5 Li0 1.963824 1_554
F5 V2 2.006779 1_565
F5 Li5 2.019436 1_555
F5 Li7 2.052526 1_555
F6 Li0 1.957802 1_545
F6 V3 2.010977 1_555
F6 Li4 2.028142 1_455
F6 Li6 2.048876 1_555
F7 Li1 1.960175 1_555
F7 V1 2.004809 1_555
F7 Li7 2.025176 1_555
F7 Li5 2.053790 1_555
