# generated using pymatgen
data_NbRh
_symmetry_space_group_name_H-M   'P 1'
_cell_length_a   3.88037155
_cell_length_b   4.03994346
_cell_length_c   4.03994346
_cell_angle_alpha   90.00000000
_cell_angle_beta   90.00000000
_cell_angle_gamma   90.00000000
_symmetry_Int_Tables_number   1
_chemical_formula_structural   NbRh
_chemical_formula_sum   'Nb2 Rh2'
_cell_volume   63.33209958
_cell_formula_units_Z   2
loop_
 _symmetry_equiv_pos_site_id
 _symmetry_equiv_pos_as_xyz
  1  'x, y, z'
loop_
 _atom_site_type_symbol
 _atom_site_label
 _atom_site_symmetry_multiplicity
 _atom_site_fract_x
 _atom_site_fract_y
 _atom_site_fract_z
 _atom_site_occupancy
  Nb  Nb0  1  -0.00000000  -0.00000000  0.00000000  1
  Nb  Nb1  1  -0.00000000  0.50000000  0.50000000  1
  Rh  Rh0  1  0.50000000  0.00000000  0.50000000  1
  Rh  Rh1  1  0.50000000  0.50000000  -0.00000000  1
loop_
_geom_bond_atom_site_label_1
_geom_bond_atom_site_label_2
_geom_bond_distance
_geom_bond_site_symmetry_2
Nb0 Rh1 2.800822 1_445
Nb0 Rh1 2.800822 1_545
Nb0 Rh0 2.800822 1_455
Nb0 Rh0 2.800822 1_555
Nb0 Rh0 2.800822 1_554
Nb0 Rh1 2.800822 1_455
Nb0 Rh0 2.800822 1_454
Nb0 Rh1 2.800822 1_555
Nb0 Nb1 2.856671 1_554
Nb0 Nb1 2.856671 1_545
Nb0 Nb1 2.856671 1_555
Nb0 Nb1 2.856671 1_544
Nb1 Rh1 2.800822 1_556
Nb1 Rh0 2.800822 1_465
Nb1 Rh0 2.800822 1_455
Nb1 Rh0 2.800822 1_555
Nb1 Rh1 2.800822 1_456
Nb1 Rh1 2.800822 1_455
Nb1 Rh0 2.800822 1_565
Nb1 Rh1 2.800822 1_555
Rh0 Rh1 2.856671 1_555
Rh0 Rh1 2.856671 1_556
Rh0 Rh1 2.856671 1_546
Rh0 Rh1 2.856671 1_545
