# generated using pymatgen
data_Be3Si3(SnO6)2
_symmetry_space_group_name_H-M   'P 1'
_cell_length_a   8.09155400
_cell_length_b   8.29527900
_cell_length_c   16.30354603
_cell_angle_alpha   60.33392324
_cell_angle_beta   90.00000000
_cell_angle_gamma   90.00000000
_symmetry_Int_Tables_number   1
_chemical_formula_structural   Be3Si3(SnO6)2
_chemical_formula_sum   'Be12 Si12 Sn8 O48'
_cell_volume   950.88315891
_cell_formula_units_Z   4
loop_
 _symmetry_equiv_pos_site_id
 _symmetry_equiv_pos_as_xyz
  1  'x, y, z'
loop_
 _atom_site_type_symbol
 _atom_site_label
 _atom_site_symmetry_multiplicity
 _atom_site_fract_x
 _atom_site_fract_y
 _atom_site_fract_z
 _atom_site_occupancy
  Be  Be0  1  0.84980000  0.81361900  0.75970200  1
  Be  Be1  1  0.65984000  0.16389500  0.40660400  1
  Be  Be2  1  0.15984000  0.83610500  0.09339600  1
  Be  Be3  1  0.34016000  0.83610500  0.59339600  1
  Be  Be4  1  0.84016000  0.16389500  0.90660400  1
  Be  Be5  1  0.15450500  0.47169200  0.40980700  1
  Be  Be6  1  0.65450500  0.52830800  0.09019300  1
  Be  Be7  1  0.84549500  0.52830800  0.59019300  1
  Be  Be8  1  0.34549500  0.47169200  0.90980700  1
  Be  Be9  1  0.65020000  0.81361900  0.25970200  1
  Be  Be10  1  0.15020000  0.18638100  0.24029800  1
  Be  Be11  1  0.34980000  0.18638100  0.74029800  1
  Si  Si0  1  0.22799800  0.81067200  0.75925700  1
  Si  Si1  1  0.72799800  0.18932800  0.74074300  1
  Si  Si2  1  0.77200200  0.18932800  0.24074300  1
  Si  Si3  1  0.27200200  0.81067200  0.25925700  1
  Si  Si4  1  0.73758500  0.47682500  0.91994900  1
  Si  Si5  1  0.23758500  0.52317500  0.58005100  1
  Si  Si6  1  0.26241500  0.52317500  0.08005100  1
  Si  Si7  1  0.76241500  0.47682500  0.41994900  1
  Si  Si8  1  0.20639800  0.17095400  0.89730900  1
  Si  Si9  1  0.70639800  0.82904600  0.60269100  1
  Si  Si10  1  0.79360200  0.82904600  0.10269100  1
  Si  Si11  1  0.29360200  0.17095400  0.39730900  1
  Sn  Sn0  1  0.49226600  0.16213600  0.09417100  1
  Sn  Sn1  1  0.00773400  0.16213600  0.59417100  1
  Sn  Sn2  1  0.50773400  0.83786400  0.90582900  1
  Sn  Sn3  1  0.99226600  0.83786400  0.40582900  1
  Sn  Sn4  1  0.55369700  0.82633700  0.42153000  1
  Sn  Sn5  1  0.05369700  0.17366300  0.07847000  1
  Sn  Sn6  1  0.44630300  0.17366300  0.57847000  1
  Sn  Sn7  1  0.94630300  0.82633700  0.92153000  1
  O  O0  1  0.13829200  0.71752600  0.03278700  1
  O  O1  1  0.04315800  0.79624000  0.80952900  1
  O  O2  1  0.54315800  0.20376000  0.69047100  1
  O  O3  1  0.95684200  0.20376000  0.19047100  1
  O  O4  1  0.45684200  0.79624000  0.30952900  1
  O  O5  1  0.54445600  0.40072400  0.94790400  1
  O  O6  1  0.04445600  0.59927600  0.55209600  1
  O  O7  1  0.45554400  0.59927600  0.05209600  1
  O  O8  1  0.95554400  0.40072400  0.44790400  1
  O  O9  1  0.02219700  0.10566600  0.87754300  1
  O  O10  1  0.52219700  0.89433400  0.62245700  1
  O  O11  1  0.97780300  0.89433400  0.12245700  1
  O  O12  1  0.16157700  0.08305400  0.35408000  1
  O  O13  1  0.66157700  0.91694600  0.14592000  1
  O  O14  1  0.83842300  0.91694600  0.64592000  1
  O  O15  1  0.33842300  0.08305400  0.85408000  1
  O  O16  1  0.63829200  0.28247400  0.46721300  1
  O  O17  1  0.47780300  0.10566600  0.37754300  1
  O  O18  1  0.36170800  0.71752600  0.53278700  1
  O  O19  1  0.86170800  0.28247400  0.96721300  1
  O  O20  1  0.71311000  0.94211100  0.48342900  1
  O  O21  1  0.65229600  0.30600300  0.14789600  1
  O  O22  1  0.84770400  0.30600300  0.64789600  1
  O  O23  1  0.34770400  0.69399700  0.85210400  1
  O  O24  1  0.72056100  0.24602900  0.82096500  1
  O  O25  1  0.22056100  0.75397100  0.67903500  1
  O  O26  1  0.27943900  0.75397100  0.17903500  1
  O  O27  1  0.77943900  0.24602900  0.32096500  1
  O  O28  1  0.76064500  0.62482800  0.81183200  1
  O  O29  1  0.26064500  0.37517200  0.68816800  1
  O  O30  1  0.23935500  0.37517200  0.18816800  1
  O  O31  1  0.73935500  0.62482800  0.31183200  1
  O  O32  1  0.23414200  0.38145500  0.86756300  1
  O  O33  1  0.73414200  0.61854500  0.63243700  1
  O  O34  1  0.76585800  0.61854500  0.13243700  1
  O  O35  1  0.26585800  0.38145500  0.36756300  1
  O  O36  1  0.79034700  0.96608200  0.79412600  1
  O  O37  1  0.29034700  0.03391800  0.70587400  1
  O  O38  1  0.20965300  0.03391800  0.20587400  1
  O  O39  1  0.70965300  0.96608200  0.29412600  1
  O  O40  1  0.78820700  0.58856100  0.98053000  1
  O  O41  1  0.28820700  0.41143900  0.51947000  1
  O  O42  1  0.21179300  0.41143900  0.01947000  1
  O  O43  1  0.71179300  0.58856100  0.48053000  1
  O  O44  1  0.78689000  0.94211100  0.98342900  1
  O  O45  1  0.28689000  0.05788900  0.51657100  1
  O  O46  1  0.21311000  0.05788900  0.01657100  1
  O  O47  1  0.15229600  0.69399700  0.35210400  1
loop_
_geom_bond_atom_site_label_1
_geom_bond_atom_site_label_2
_geom_bond_distance
_geom_bond_site_symmetry_2
Be0 O28 1.542009 1_555
Be0 O14 1.615678 1_555
Be0 O36 1.687768 1_555
Be0 O1 1.735698 1_655
Be1 O27 1.551933 1_555
Be1 O17 1.689366 1_555
Be1 O20 1.690645 1_545
Be1 O16 1.713633 1_555
Be2 O26 1.551933 1_555
Be2 O11 1.689366 1_455
Be2 O46 1.690645 1_565
Be2 O0 1.713633 1_555
Be3 O25 1.551933 1_555
Be3 O10 1.689366 1_555
Be3 O45 1.690645 1_565
Be3 O18 1.713633 1_555
Be4 O24 1.551933 1_555
Be4 O9 1.689366 1_655
Be4 O44 1.690645 1_545
Be4 O19 1.713633 1_555
Be5 O35 1.535194 1_555
Be5 O47 1.602714 1_555
Be5 O8 1.721101 1_455
Be5 O41 1.931895 1_555
Be6 O34 1.535194 1_555
Be6 O21 1.602714 1_555
Be6 O7 1.721101 1_555
Be6 O40 1.931895 1_554
Be7 O33 1.535194 1_555
Be7 O22 1.602714 1_555
Be7 O6 1.721101 1_655
Be7 O43 1.931895 1_555
Be8 O32 1.535194 1_555
Be8 O23 1.602714 1_555
Be8 O5 1.721101 1_555
Be8 O42 1.931895 1_556
Be9 O31 1.542009 1_555
Be9 O13 1.615678 1_555
Be9 O39 1.687768 1_555
Be9 O4 1.735698 1_555
Be10 O30 1.542009 1_555
Be10 O12 1.615678 1_555
Be10 O38 1.687768 1_555
Be10 O3 1.735698 1_455
Be11 O29 1.542009 1_555
Be11 O15 1.615678 1_555
Be11 O37 1.687768 1_555
Be11 O2 1.735698 1_555
O0 Si6 1.723926 1_555
O0 Sn7 2.213037 1_454
O1 Si0 1.681045 1_555
O1 Sn7 2.112376 1_455
O2 Si1 1.681045 1_555
O2 Sn6 2.112376 1_555
O3 Si2 1.681045 1_555
O3 Sn5 2.112376 1_655
O4 Si3 1.681045 1_555
O4 Sn4 2.112376 1_555
O5 Si4 1.662379 1_555
O5 Sn0 2.260560 1_556
O6 Si5 1.662379 1_555
O6 Sn3 2.260560 1_455
O7 Si6 1.662379 1_555
O7 Sn2 2.260560 1_554
O8 Si7 1.662379 1_555
O8 Sn1 2.260560 1_655
O9 Si8 1.670758 1_555
O9 Sn7 2.148377 1_445
O10 Si9 1.670758 1_555
O10 Sn6 2.148377 1_565
O11 Si10 1.670758 1_555
O11 Sn5 2.148377 1_665
O12 Si11 1.636561 1_555
O12 Sn3 2.242067 1_445
O13 Si10 1.636561 1_555
O13 Sn0 2.242067 1_565
O14 Si9 1.636561 1_555
O14 Sn1 2.242067 1_665
O15 Si8 1.636561 1_555
O15 Sn2 2.242067 1_545
O16 Si7 1.723926 1_555
O16 Sn6 2.213037 1_555
O17 Si11 1.670758 1_555
O17 Sn4 2.148377 1_545
O18 Si5 1.723926 1_555
O18 Sn4 2.213037 1_555
O19 Si4 1.723926 1_555
O19 Sn5 2.213037 1_656
O20 Si9 1.690581 1_555
O20 Sn4 2.136348 1_555
O21 Si2 1.648052 1_555
O21 Sn0 2.214262 1_555
O22 Si1 1.648052 1_555
O22 Sn1 2.214262 1_655
O23 Si0 1.648052 1_555
O23 Sn2 2.214262 1_555
O24 Si1 1.595122 1_555
O25 Si0 1.595122 1_555
O26 Si3 1.595122 1_555
O27 Si2 1.595122 1_555
O28 Si4 1.583347 1_555
O29 Si5 1.583347 1_555
O30 Si6 1.583347 1_555
O31 Si7 1.583347 1_555
O32 Si8 1.580004 1_555
O33 Si9 1.580004 1_555
O34 Si10 1.580004 1_555
O35 Si11 1.580004 1_555
O36 Si1 1.687017 1_565
O36 Sn7 2.206181 1_555
O37 Si0 1.687017 1_545
O37 Sn6 2.206181 1_555
O38 Si3 1.687017 1_545
O38 Sn5 2.206181 1_555
O39 Si2 1.687017 1_565
O39 Sn4 2.206181 1_555
O40 Si4 1.705468 1_555
O40 Sn7 2.138705 1_555
O41 Si5 1.705468 1_555
O41 Sn6 2.138705 1_555
O42 Si6 1.705468 1_555
O42 Sn5 2.138705 1_555
O43 Si7 1.705468 1_555
O43 Sn4 2.138705 1_555
O44 Si10 1.690581 1_556
O44 Sn7 2.136348 1_555
O45 Si11 1.690581 1_555
O45 Sn6 2.136348 1_555
O46 Si8 1.690581 1_554
O46 Sn5 2.136348 1_555
O47 Si3 1.648052 1_555
O47 Sn3 2.214262 1_455
