# generated using pymatgen
data_MgNi3(P2O7)2
_symmetry_space_group_name_H-M   'P 1'
_cell_length_a   7.49761600
_cell_length_b   7.26529600
_cell_length_c   9.48614754
_cell_angle_alpha   67.63975215
_cell_angle_beta   90.00000000
_cell_angle_gamma   90.00000000
_symmetry_Int_Tables_number   1
_chemical_formula_structural   MgNi3(P2O7)2
_chemical_formula_sum   'Mg2 Ni6 P8 O28'
_cell_volume   477.88015126
_cell_formula_units_Z   2
loop_
 _symmetry_equiv_pos_site_id
 _symmetry_equiv_pos_as_xyz
  1  'x, y, z'
loop_
 _atom_site_type_symbol
 _atom_site_label
 _atom_site_symmetry_multiplicity
 _atom_site_fract_x
 _atom_site_fract_y
 _atom_site_fract_z
 _atom_site_occupancy
  Mg  Mg0  1  0.00000000  0.50000000  0.00000000  1
  Mg  Mg1  1  0.50000000  0.50000000  0.50000000  1
  Ni  Ni0  1  0.12839600  0.81447100  0.52296400  1
  Ni  Ni1  1  0.62839600  0.18552900  0.97703600  1
  Ni  Ni2  1  0.87160400  0.18552900  0.47703600  1
  Ni  Ni3  1  0.37160400  0.81447100  0.02296400  1
  Ni  Ni4  1  0.00000000  0.00000000  0.00000000  1
  Ni  Ni5  1  0.50000000  0.00000000  0.50000000  1
  P  P0  1  0.92296900  0.41143700  0.70420100  1
  P  P1  1  0.42296900  0.58856300  0.79579900  1
  P  P2  1  0.07703100  0.58856300  0.29579900  1
  P  P3  1  0.57703100  0.41143700  0.20420100  1
  P  P4  1  0.20667600  0.13095500  0.68715900  1
  P  P5  1  0.70667600  0.86904500  0.81284100  1
  P  P6  1  0.79332400  0.86904500  0.31284100  1
  P  P7  1  0.29332400  0.13095500  0.18715900  1
  O  O0  1  0.38274900  0.19362600  0.59942800  1
  O  O1  1  0.88274900  0.80637400  0.90057200  1
  O  O2  1  0.61725100  0.80637400  0.40057200  1
  O  O3  1  0.11725100  0.19362600  0.09942800  1
  O  O4  1  0.37868700  0.71993900  0.62586700  1
  O  O5  1  0.87868700  0.28006100  0.87413300  1
  O  O6  1  0.62131300  0.28006100  0.37413300  1
  O  O7  1  0.12131300  0.71993900  0.12586700  1
  O  O8  1  0.78702700  0.38539700  0.59322300  1
  O  O9  1  0.28702700  0.61460300  0.90677700  1
  O  O10  1  0.21297300  0.61460300  0.40677700  1
  O  O11  1  0.71297300  0.38539700  0.09322300  1
  O  O12  1  0.11296000  0.33503700  0.67048100  1
  O  O13  1  0.61296000  0.66496300  0.82951900  1
  O  O14  1  0.88704000  0.66496300  0.32951900  1
  O  O15  1  0.38704000  0.33503700  0.17048100  1
  O  O16  1  0.53070700  0.61967700  0.19322600  1
  O  O17  1  0.03070700  0.38032300  0.30677400  1
  O  O18  1  0.46929300  0.38032300  0.80677400  1
  O  O19  1  0.96929300  0.61967700  0.69322600  1
  O  O20  1  0.78483300  0.98383300  0.14001100  1
  O  O21  1  0.28483300  0.01616700  0.35998900  1
  O  O22  1  0.21516700  0.01616700  0.85998900  1
  O  O23  1  0.71516700  0.98383300  0.64001100  1
  O  O24  1  0.41762500  0.03176500  0.10911800  1
  O  O25  1  0.91762500  0.96823500  0.39088200  1
  O  O26  1  0.58237500  0.96823500  0.89088200  1
  O  O27  1  0.08237500  0.03176500  0.60911800  1
loop_
_geom_bond_atom_site_label_1
_geom_bond_atom_site_label_2
_geom_bond_distance
_geom_bond_site_symmetry_2
Mg0 O1 2.240462 1_454
Mg0 O3 2.240462 1_555
Mg0 O11 2.355048 1_455
Mg0 O9 2.355048 1_554
Mg0 O7 2.501583 1_555
Mg0 O5 2.501583 1_454
Mg0 O17 2.711553 1_555
Mg0 O19 2.711553 1_454
Mg1 O2 2.240462 1_555
Mg1 O0 2.240462 1_555
Mg1 O8 2.355048 1_555
Mg1 O10 2.355048 1_555
Mg1 O4 2.501583 1_555
Mg1 O6 2.501583 1_555
Mg1 O18 2.711553 1_555
Mg1 O16 2.711553 1_555
Ni0 O21 2.046818 1_565
Ni0 O25 2.061597 1_455
Ni0 O27 2.064213 1_565
Ni0 O19 2.072528 1_455
Ni0 O4 2.106193 1_555
Ni0 O10 2.223331 1_555
Ni1 O20 2.046818 1_546
Ni1 O24 2.061597 1_556
Ni1 O26 2.064213 1_545
Ni1 O18 2.072528 1_555
Ni1 O5 2.106193 1_555
Ni1 O11 2.223331 1_556
Ni2 O23 2.046818 1_545
Ni2 O27 2.061597 1_655
Ni2 O25 2.064213 1_545
Ni2 O17 2.072528 1_655
Ni2 O6 2.106193 1_555
Ni2 O8 2.223331 1_555
Ni3 O22 2.046818 1_564
Ni3 O26 2.061597 1_554
Ni3 O24 2.064213 1_565
Ni3 O16 2.072528 1_555
Ni3 O7 2.106193 1_555
Ni3 O9 2.223331 1_554
Ni4 O20 2.064380 1_445
Ni4 O22 2.064380 1_554
Ni4 O7 2.131798 1_545
Ni4 O5 2.131798 1_454
Ni4 O3 2.156595 1_555
Ni4 O1 2.156595 1_444
Ni5 O23 2.064380 1_545
Ni5 O21 2.064380 1_555
Ni5 O4 2.131798 1_545
Ni5 O6 2.131798 1_555
Ni5 O0 2.156595 1_555
Ni5 O2 2.156595 1_545
O0 P4 1.534388 1_555
O1 P5 1.534388 1_555
O2 P6 1.534388 1_555
O3 P7 1.534388 1_555
O4 P1 1.564972 1_555
O5 P0 1.564972 1_555
O6 P3 1.564972 1_555
O7 P2 1.564972 1_555
O8 P0 1.527898 1_555
O9 P1 1.527898 1_555
O10 P2 1.527898 1_555
O11 P3 1.527898 1_555
O12 P4 1.593332 1_555
O12 P0 1.604573 1_455
O13 P5 1.593332 1_555
O13 P1 1.604573 1_555
O14 P6 1.593332 1_555
O14 P2 1.604573 1_655
O15 P7 1.593332 1_555
O15 P3 1.604573 1_555
O16 P3 1.516763 1_555
O17 P2 1.516763 1_555
O18 P1 1.516763 1_555
O19 P0 1.516763 1_555
O20 P6 1.532050 1_555
O21 P7 1.532050 1_555
O22 P4 1.532050 1_555
O23 P5 1.532050 1_555
O24 P7 1.530312 1_555
O25 P6 1.530312 1_555
O26 P5 1.530312 1_555
O27 P4 1.530312 1_555
