# generated using pymatgen
data_Mn2Al3
_symmetry_space_group_name_H-M   'P 1'
_cell_length_a   6.33347146
_cell_length_b   6.33347146
_cell_length_c   6.33347146
_cell_angle_alpha   90.00000000
_cell_angle_beta   90.00000000
_cell_angle_gamma   90.00000000
_symmetry_Int_Tables_number   1
_chemical_formula_structural   Mn2Al3
_chemical_formula_sum   'Mn8 Al12'
_cell_volume   254.05365864
_cell_formula_units_Z   4
loop_
 _symmetry_equiv_pos_site_id
 _symmetry_equiv_pos_as_xyz
  1  'x, y, z'
loop_
 _atom_site_type_symbol
 _atom_site_label
 _atom_site_symmetry_multiplicity
 _atom_site_fract_x
 _atom_site_fract_y
 _atom_site_fract_z
 _atom_site_occupancy
  Mn  Mn0  1  0.17857080  0.82142920  0.32142920  1
  Mn  Mn1  1  0.32142920  0.17857080  0.82142920  1
  Mn  Mn2  1  0.82142920  0.32142920  0.17857080  1
  Mn  Mn3  1  0.67857080  0.67857080  0.67857080  1
  Mn  Mn4  1  0.57142920  0.42857080  0.92857080  1
  Mn  Mn5  1  0.42857080  0.92857080  0.57142920  1
  Mn  Mn6  1  0.92857080  0.57142920  0.42857080  1
  Mn  Mn7  1  0.07142920  0.07142920  0.07142920  1
  Al  Al0  1  0.79587916  0.95412084  0.37500000  1
  Al  Al1  1  0.70412084  0.04587916  0.87500000  1
  Al  Al2  1  0.20412084  0.45412084  0.12500000  1
  Al  Al3  1  0.29587916  0.54587916  0.62500000  1
  Al  Al4  1  0.95412084  0.37500000  0.79587916  1
  Al  Al5  1  0.04587916  0.87500000  0.70412084  1
  Al  Al6  1  0.45412084  0.12500000  0.20412084  1
  Al  Al7  1  0.54587916  0.62500000  0.29587916  1
  Al  Al8  1  0.37500000  0.79587916  0.95412084  1
  Al  Al9  1  0.87500000  0.70412084  0.04587916  1
  Al  Al10  1  0.12500000  0.20412084  0.45412084  1
  Al  Al11  1  0.62500000  0.29587916  0.54587916  1
loop_
_geom_bond_atom_site_label_1
_geom_bond_atom_site_label_2
_geom_bond_distance
_geom_bond_site_symmetry_2
Mn0 Mn6 2.339781 1_455
Mn0 Mn5 2.339781 1_555
Mn0 Mn7 2.339781 1_565
Mn1 Mn5 2.339781 1_545
Mn1 Mn4 2.339781 1_555
Mn1 Mn7 2.339781 1_556
Mn2 Mn4 2.339781 1_554
Mn2 Mn6 2.339781 1_555
Mn2 Mn7 2.339781 1_655
Mn3 Mn6 2.339781 1_555
Mn3 Mn4 2.339781 1_555
Mn3 Mn5 2.339781 1_555
Al0 Mn0 2.587669 1_655
Al0 Mn6 2.587669 1_555
Al0 Mn5 2.643059 1_555
Al0 Mn2 2.643059 1_565
Al0 Al11 2.650981 1_565
Al0 Al6 2.650981 1_565
Al0 Al5 2.665185 1_655
Al0 Al9 2.665185 1_555
Al0 Al7 2.665185 1_555
Al0 Al10 2.665185 1_665
Al0 Mn3 2.700795 1_555
Al0 Mn7 2.700795 1_665
Al1 Mn4 2.587669 1_555
Al1 Mn1 2.587669 1_555
Al1 Mn3 2.643059 1_545
Al1 Mn7 2.643059 1_656
Al1 Al5 2.650981 1_645
Al1 Al9 2.650981 1_546
Al1 Al11 2.665185 1_555
Al1 Al8 2.665185 1_545
Al1 Al4 2.665185 1_555
Al1 Al6 2.665185 1_556
Al1 Mn2 2.700795 1_556
Al1 Mn5 2.700795 1_545
Al2 Mn7 2.587669 1_555
Al2 Mn2 2.587669 1_455
Al2 Mn0 2.643059 1_555
Al2 Mn4 2.643059 1_554
Al2 Al7 2.650981 1_555
Al2 Al8 2.650981 1_554
Al2 Al9 2.665185 1_455
Al2 Al4 2.665185 1_454
Al2 Al6 2.665185 1_555
Al2 Mn6 2.700795 1_455
Al2 Mn1 2.700795 1_554
Al3 Mn5 2.587669 1_555
Al3 Mn3 2.587669 1_555
Al3 Mn6 2.643059 1_455
Al3 Mn1 2.643059 1_555
Al3 Al4 2.650981 1_455
Al3 Al5 2.665185 1_555
Al3 Al8 2.665185 1_555
Al3 Al7 2.665185 1_555
Al3 Mn0 2.700795 1_555
Al3 Mn4 2.700795 1_555
Al4 Mn2 2.587669 1_556
Al4 Mn4 2.587669 1_555
Al4 Mn6 2.643059 1_555
Al4 Mn1 2.643059 1_655
Al4 Al9 2.665185 1_556
Al4 Mn3 2.700795 1_555
Al4 Mn7 2.700795 1_656
Al5 Mn5 2.587669 1_555
Al5 Mn0 2.587669 1_555
Al5 Mn3 2.643059 1_455
Al5 Mn7 2.643059 1_566
Al5 Al9 2.650981 1_456
Al5 Al8 2.665185 1_555
Al5 Mn1 2.700795 1_565
Al5 Mn6 2.700795 1_455
Al6 Mn7 2.587669 1_555
Al6 Mn1 2.587669 1_554
Al6 Mn2 2.643059 1_555
Al6 Mn5 2.643059 1_545
Al6 Al8 2.665185 1_544
Al6 Mn4 2.700795 1_554
Al6 Mn0 2.700795 1_545
Al7 Mn6 2.587669 1_555
Al7 Mn3 2.587669 1_555
Al7 Mn4 2.643059 1_554
Al7 Mn0 2.643059 1_555
Al7 Al8 2.650981 1_554
Al7 Al9 2.665185 1_555
Al7 Mn2 2.700795 1_555
Al7 Mn5 2.700795 1_555
Al8 Mn1 2.587669 1_565
Al8 Mn5 2.587669 1_555
Al8 Mn4 2.643059 1_555
Al8 Mn0 2.643059 1_556
Al8 Mn3 2.700795 1_555
Al8 Mn7 2.700795 1_566
Al9 Mn2 2.587669 1_555
Al9 Mn6 2.587669 1_555
Al9 Mn3 2.643059 1_554
Al9 Mn7 2.643059 1_665
Al9 Mn0 2.700795 1_655
Al9 Mn4 2.700795 1_554
Al10 Mn0 2.587669 1_545
Al10 Mn7 2.587669 1_555
Al10 Mn1 2.643059 1_555
Al10 Mn6 2.643059 1_455
Al10 Al3 2.650981 1_555
Al10 Al4 2.650981 1_455
Al10 Al5 2.665185 1_545
Al10 Al6 2.665185 1_555
Al10 Al2 2.665185 1_555
Al10 Mn5 2.700795 1_545
Al10 Mn2 2.700795 1_455
Al11 Mn4 2.587669 1_555
Al11 Mn3 2.587669 1_555
Al11 Mn5 2.643059 1_545
Al11 Mn2 2.643059 1_555
Al11 Al6 2.650981 1_555
Al11 Al4 2.665185 1_555
Al11 Al7 2.665185 1_555
Al11 Al3 2.665185 1_555
Al11 Mn1 2.700795 1_555
Al11 Mn6 2.700795 1_555
