# generated using pymatgen
data_LiPH2
_symmetry_space_group_name_H-M   'P 1'
_cell_length_a   3.62238100
_cell_length_b   3.62238100
_cell_length_c   2.93860200
_cell_angle_alpha   90.00000000
_cell_angle_beta   90.00000000
_cell_angle_gamma   90.00000000
_symmetry_Int_Tables_number   1
_chemical_formula_structural   LiPH2
_chemical_formula_sum   'Li1 P1 H2'
_cell_volume   38.55928962
_cell_formula_units_Z   1
loop_
 _symmetry_equiv_pos_site_id
 _symmetry_equiv_pos_as_xyz
  1  'x, y, z'
loop_
 _atom_site_type_symbol
 _atom_site_label
 _atom_site_symmetry_multiplicity
 _atom_site_fract_x
 _atom_site_fract_y
 _atom_site_fract_z
 _atom_site_occupancy
  Li  Li0  1  0.00000000  0.00000000  0.00000000  1
  P  P0  1  0.50000000  0.50000000  0.50000000  1
  H  H0  1  0.00000000  0.50000000  0.50000000  1
  H  H1  1  0.50000000  0.00000000  0.50000000  1
loop_
_geom_bond_atom_site_label_1
_geom_bond_atom_site_label_2
_geom_bond_distance
_geom_bond_site_symmetry_2
H0 P0 1.811190 1_455
H0 P0 1.811190 1_555
H0 Li0 2.332221 1_556
H0 Li0 2.332221 1_565
H0 Li0 2.332221 1_555
H0 Li0 2.332221 1_566
H1 P0 1.811190 1_545
H1 P0 1.811190 1_555
H1 Li0 2.332221 1_655
H1 Li0 2.332221 1_556
H1 Li0 2.332221 1_555
H1 Li0 2.332221 1_656
