# generated using pymatgen
data_FeCu3S8
_symmetry_space_group_name_H-M   'P 1'
_cell_length_a   5.69683303
_cell_length_b   5.69683303
_cell_length_c   5.69683363
_cell_angle_alpha   89.50378707
_cell_angle_beta   89.50378707
_cell_angle_gamma   89.50378588
_symmetry_Int_Tables_number   1
_chemical_formula_structural   FeCu3S8
_chemical_formula_sum   'Fe1 Cu3 S8'
_cell_volume   184.86382490
_cell_formula_units_Z   1
loop_
 _symmetry_equiv_pos_site_id
 _symmetry_equiv_pos_as_xyz
  1  'x, y, z'
loop_
 _atom_site_type_symbol
 _atom_site_label
 _atom_site_symmetry_multiplicity
 _atom_site_fract_x
 _atom_site_fract_y
 _atom_site_fract_z
 _atom_site_occupancy
  Fe  Fe0  1  0.00000000  0.00000000  0.00000000  1
  Cu  Cu0  1  0.50000000  0.50000000  0.00000000  1
  Cu  Cu1  1  0.50000000  0.00000000  0.50000000  1
  Cu  Cu2  1  0.00000000  0.50000000  0.50000000  1
  S  S0  1  0.90198300  0.09758600  0.62123800  1
  S  S1  1  0.09758600  0.62123800  0.90198300  1
  S  S2  1  0.62123800  0.90198300  0.09758600  1
  S  S3  1  0.39832600  0.39832600  0.39832600  1
  S  S4  1  0.09801700  0.90241400  0.37876200  1
  S  S5  1  0.90241400  0.37876200  0.09801700  1
  S  S6  1  0.37876200  0.09801700  0.90241400  1
  S  S7  1  0.60167400  0.60167400  0.60167400  1
loop_
_geom_bond_atom_site_label_1
_geom_bond_atom_site_label_2
_geom_bond_distance
_geom_bond_site_symmetry_2
Fe0 S1 2.295959 1_544
Fe0 S5 2.295959 1_455
Fe0 S6 2.295959 1_554
Fe0 S2 2.295959 1_445
Fe0 S4 2.295959 1_545
Fe0 S0 2.295959 1_454
Cu0 S7 2.404272 1_554
Cu0 S3 2.404272 1_555
Cu0 S1 2.456090 1_554
Cu0 S5 2.456090 1_555
Cu0 S6 2.467068 1_554
Cu0 S2 2.467068 1_555
Cu1 S7 2.404272 1_545
Cu1 S3 2.404272 1_555
Cu1 S2 2.456091 1_545
Cu1 S6 2.456091 1_555
Cu1 S4 2.467068 1_545
Cu1 S0 2.467068 1_555
Cu2 S3 2.404272 1_555
Cu2 S7 2.404272 1_455
Cu2 S4 2.456091 1_555
Cu2 S0 2.456091 1_455
Cu2 S1 2.467068 1_555
Cu2 S5 2.467068 1_455
S0 S4 2.090433 1_645
S1 S5 2.090433 1_456
S2 S6 2.090433 1_564
S3 S7 2.023779 1_555
