# generated using pymatgen
data_NaNiP2HO7
_symmetry_space_group_name_H-M   'P 1'
_cell_length_a   6.53199900
_cell_length_b   6.54364180
_cell_length_c   6.64147144
_cell_angle_alpha   95.82846343
_cell_angle_beta   112.34291492
_cell_angle_gamma   88.49417155
_symmetry_Int_Tables_number   1
_chemical_formula_structural   NaNiP2HO7
_chemical_formula_sum   'Na2 Ni2 P4 H2 O14'
_cell_volume   261.18404446
_cell_formula_units_Z   2
loop_
 _symmetry_equiv_pos_site_id
 _symmetry_equiv_pos_as_xyz
  1  'x, y, z'
loop_
 _atom_site_type_symbol
 _atom_site_label
 _atom_site_symmetry_multiplicity
 _atom_site_fract_x
 _atom_site_fract_y
 _atom_site_fract_z
 _atom_site_occupancy
  Na  Na0  1  0.23074500  0.11761900  0.24450600  1
  Na  Na1  1  0.76925500  0.88238100  0.75549400  1
  Ni  Ni0  1  0.71237700  0.35885400  0.11012100  1
  Ni  Ni1  1  0.28762300  0.64114600  0.88987900  1
  P  P0  1  0.16777300  0.61915100  0.36384200  1
  P  P1  1  0.83222700  0.38084900  0.63615800  1
  P  P2  1  0.74400600  0.85670200  0.21607600  1
  P  P3  1  0.25599400  0.14329800  0.78392400  1
  H  H0  1  0.45260000  0.80152100  0.30794000  1
  H  H1  1  0.54740000  0.19847900  0.69206000  1
  O  O0  1  0.63613500  0.66971400  0.05013800  1
  O  O1  1  0.36386500  0.33028600  0.94986200  1
  O  O2  1  0.98646900  0.79291200  0.37436700  1
  O  O3  1  0.01353100  0.20708800  0.62563300  1
  O  O4  1  0.27847200  0.70828800  0.21883200  1
  O  O5  1  0.72152800  0.29171200  0.78116800  1
  O  O6  1  0.04364300  0.42085500  0.24761100  1
  O  O7  1  0.95635700  0.57914500  0.75238900  1
  O  O8  1  0.61662100  0.90674100  0.36950300  1
  O  O9  1  0.38337900  0.09325900  0.63049700  1
  O  O10  1  0.77556600  0.03953300  0.10565400  1
  O  O11  1  0.22443400  0.96046700  0.89434600  1
  O  O12  1  0.32797900  0.61496100  0.59722000  1
  O  O13  1  0.67202100  0.38503900  0.40278000  1
loop_
_geom_bond_atom_site_label_1
_geom_bond_atom_site_label_2
_geom_bond_distance
_geom_bond_site_symmetry_2
Na0 O6 2.305383 1_555
Na0 O9 2.392201 1_555
Na0 O11 2.431282 1_544
Na0 O10 2.801983 1_455
Na1 O7 2.305383 1_555
Na1 O8 2.392201 1_555
Na1 O10 2.431282 1_566
Na1 O11 2.801983 1_655
Ni0 O6 2.036964 1_655
Ni0 O13 2.048487 1_555
Ni0 O10 2.118664 1_555
Ni0 O1 2.118944 1_554
Ni0 O0 2.122502 1_555
Ni0 O5 2.207400 1_554
Ni1 O7 2.036964 1_455
Ni1 O12 2.048487 1_555
Ni1 O11 2.118664 1_555
Ni1 O0 2.118944 1_556
Ni1 O1 2.122502 1_555
Ni1 O4 2.207400 1_556
H0 O8 1.199018 1_555
H0 O4 1.211400 1_555
H1 O9 1.199018 1_555
H1 O5 1.211400 1_555
O0 P2 1.545715 1_555
O1 P3 1.545715 1_555
O2 P2 1.605070 1_555
O2 P0 1.635928 1_655
O3 P3 1.605070 1_555
O3 P1 1.635928 1_455
O4 P0 1.567263 1_555
O5 P1 1.567263 1_555
O6 P0 1.520860 1_555
O7 P1 1.520860 1_555
O8 P2 1.549337 1_555
O9 P3 1.549337 1_555
O10 P2 1.522416 1_545
O11 P3 1.522416 1_565
O12 P0 1.507376 1_555
O13 P1 1.507376 1_555
