# generated using pymatgen
data_Ca(Cu3O4)2
_symmetry_space_group_name_H-M   'P 1'
_cell_length_a   6.56039247
_cell_length_b   6.56039247
_cell_length_c   6.56039247
_cell_angle_alpha   60.00000000
_cell_angle_beta   60.00000000
_cell_angle_gamma   60.00000000
_symmetry_Int_Tables_number   1
_chemical_formula_structural   Ca(Cu3O4)2
_chemical_formula_sum   'Ca1 Cu6 O8'
_cell_volume   199.65236809
_cell_formula_units_Z   1
loop_
 _symmetry_equiv_pos_site_id
 _symmetry_equiv_pos_as_xyz
  1  'x, y, z'
loop_
 _atom_site_type_symbol
 _atom_site_label
 _atom_site_symmetry_multiplicity
 _atom_site_fract_x
 _atom_site_fract_y
 _atom_site_fract_z
 _atom_site_occupancy
  Ca  Ca0  1  0.00000000  0.00000000  0.00000000  1
  Cu  Cu0  1  0.50000000  0.50000000  0.00000000  1
  Cu  Cu1  1  0.00000000  0.50000000  0.50000000  1
  Cu  Cu2  1  0.50000000  0.00000000  0.50000000  1
  Cu  Cu3  1  0.00000000  0.00000000  0.50000000  1
  Cu  Cu4  1  0.50000000  0.00000000  0.00000000  1
  Cu  Cu5  1  0.00000000  0.50000000  0.00000000  1
  O  O0  1  0.14524900  0.14524900  0.14524900  1
  O  O1  1  0.85475100  0.85475100  0.43574700  1
  O  O2  1  0.14524900  0.14524900  0.56425300  1
  O  O3  1  0.85475100  0.43574700  0.85475100  1
  O  O4  1  0.56425300  0.14524900  0.14524900  1
  O  O5  1  0.14524900  0.56425300  0.14524900  1
  O  O6  1  0.43574700  0.85475100  0.85475100  1
  O  O7  1  0.85475100  0.85475100  0.85475100  1
loop_
_geom_bond_atom_site_label_1
_geom_bond_atom_site_label_2
_geom_bond_distance
_geom_bond_site_symmetry_2
Ca0 O3 2.334095 1_454
Ca0 O0 2.334095 1_555
Ca0 O5 2.334095 1_545
Ca0 O6 2.334095 1_544
Ca0 O1 2.334095 1_445
Ca0 O2 2.334095 1_554
Ca0 O4 2.334095 1_455
Ca0 O7 2.334095 1_444
Cu0 O3 1.924842 1_554
Cu0 O6 1.924842 1_554
Cu0 O5 1.924842 1_555
Cu0 O4 1.924842 1_555
Cu1 O1 1.924842 1_455
Cu1 O3 1.924842 1_455
Cu1 O2 1.924842 1_555
Cu1 O5 1.924842 1_555
Cu2 O1 1.924842 1_545
Cu2 O6 1.924842 1_545
Cu2 O2 1.924842 1_555
Cu2 O4 1.924842 1_555
Cu3 O7 1.924842 1_445
Cu3 O2 1.924842 1_555
Cu3 O0 1.924842 1_555
Cu3 O1 1.924842 1_445
Cu4 O7 1.924842 1_544
Cu4 O0 1.924842 1_555
Cu4 O4 1.924842 1_555
Cu4 O6 1.924842 1_544
Cu5 O7 1.924842 1_454
Cu5 O5 1.924842 1_555
Cu5 O0 1.924842 1_555
Cu5 O3 1.924842 1_454
