# generated using pymatgen
data_Nd5Si3B
_symmetry_space_group_name_H-M   'P 1'
_cell_length_a   8.90375747
_cell_length_b   8.90375747
_cell_length_c   6.67190700
_cell_angle_alpha   90.00000000
_cell_angle_beta   90.00000000
_cell_angle_gamma   119.99999603
_symmetry_Int_Tables_number   1
_chemical_formula_structural   Nd5Si3B
_chemical_formula_sum   'Nd10 Si6 B2'
_cell_volume   458.06517591
_cell_formula_units_Z   2
loop_
 _symmetry_equiv_pos_site_id
 _symmetry_equiv_pos_as_xyz
  1  'x, y, z'
loop_
 _atom_site_type_symbol
 _atom_site_label
 _atom_site_symmetry_multiplicity
 _atom_site_fract_x
 _atom_site_fract_y
 _atom_site_fract_z
 _atom_site_occupancy
  Nd  Nd0  1  0.23925100  0.00000000  0.75000000  1
  Nd  Nd1  1  0.76074900  0.00000000  0.25000000  1
  Nd  Nd2  1  0.00000000  0.23925100  0.75000000  1
  Nd  Nd3  1  0.00000000  0.76074900  0.25000000  1
  Nd  Nd4  1  0.76074900  0.76074900  0.75000000  1
  Nd  Nd5  1  0.23925100  0.23925100  0.25000000  1
  Nd  Nd6  1  0.33333300  0.66666700  0.50000000  1
  Nd  Nd7  1  0.66666700  0.33333300  0.50000000  1
  Nd  Nd8  1  0.66666700  0.33333300  0.00000000  1
  Nd  Nd9  1  0.33333300  0.66666700  0.00000000  1
  Si  Si0  1  0.59833800  0.00000000  0.75000000  1
  Si  Si1  1  0.40166200  0.00000000  0.25000000  1
  Si  Si2  1  0.00000000  0.59833800  0.75000000  1
  Si  Si3  1  0.00000000  0.40166200  0.25000000  1
  Si  Si4  1  0.40166200  0.40166200  0.75000000  1
  Si  Si5  1  0.59833800  0.59833800  0.25000000  1
  B  B0  1  0.00000000  0.00000000  0.50000000  1
  B  B1  1  0.00000000  0.00000000  0.00000000  1
loop_
_geom_bond_atom_site_label_1
_geom_bond_atom_site_label_2
_geom_bond_distance
_geom_bond_site_symmetry_2
Nd0 Si4 3.116002 1_555
Nd0 Si2 3.116002 1_545
Nd0 Si0 3.197224 1_555
Nd0 Si1 3.635890 1_555
Nd0 Si1 3.635890 1_556
Nd1 Si5 3.116002 1_545
Nd1 Si3 3.116002 1_655
Nd1 Si1 3.197224 1_555
Nd1 Si0 3.635890 1_555
Nd1 Si0 3.635890 1_554
Nd2 Si4 3.116002 1_555
Nd2 Si0 3.116002 1_455
Nd2 Si2 3.197224 1_555
Nd2 Si3 3.635890 1_555
Nd2 Si3 3.635890 1_556
Nd3 Si5 3.116002 1_455
Nd3 Si1 3.116002 1_565
Nd3 Si3 3.197224 1_555
Nd3 Si2 3.635890 1_554
Nd3 Si2 3.635890 1_555
Nd4 Si0 3.116002 1_565
Nd4 Si2 3.116002 1_655
Nd4 Si4 3.197224 1_555
Nd4 Si5 3.635890 1_555
Nd4 Si5 3.635890 1_556
Nd5 Si3 3.116002 1_555
Nd5 Si1 3.116002 1_555
Nd5 Si5 3.197224 1_555
Nd5 Si4 3.635890 1_555
Nd5 Si4 3.635890 1_554
Nd6 Si2 3.186718 1_555
Nd6 Si1 3.186718 1_565
Nd6 Si0 3.186720 1_565
Nd6 Si3 3.186720 1_555
Nd6 Si5 3.186725 1_555
Nd6 Si4 3.186725 1_555
Nd7 Si0 3.186718 1_555
Nd7 Si3 3.186718 1_655
Nd7 Si2 3.186720 1_655
Nd7 Si1 3.186720 1_555
Nd7 Si5 3.186725 1_555
Nd7 Si4 3.186725 1_555
Nd8 Si0 3.186718 1_554
Nd8 Si3 3.186718 1_655
Nd8 Si2 3.186720 1_654
Nd8 Si1 3.186720 1_555
Nd8 Si5 3.186725 1_555
Nd8 Si4 3.186725 1_554
Nd9 Si2 3.186718 1_554
Nd9 Si1 3.186718 1_565
Nd9 Si0 3.186720 1_564
Nd9 Si3 3.186720 1_555
Nd9 Si5 3.186725 1_555
Nd9 Si4 3.186725 1_554
B0 Nd3 2.705557 1_545
B0 Nd0 2.705557 1_555
B0 Nd2 2.705557 1_555
B0 Nd1 2.705557 1_455
B0 Nd4 2.705557 1_445
B0 Nd5 2.705557 1_555
B1 Nd3 2.705557 1_545
B1 Nd2 2.705557 1_554
B1 Nd0 2.705557 1_554
B1 Nd1 2.705557 1_455
B1 Nd4 2.705557 1_444
B1 Nd5 2.705557 1_555
