# generated using pymatgen
data_Nd2Au5F21
_symmetry_space_group_name_H-M   'P 1'
_cell_length_a   8.44915200
_cell_length_b   8.44915200
_cell_length_c   26.36171000
_cell_angle_alpha   90.00000000
_cell_angle_beta   90.00000000
_cell_angle_gamma   90.00000000
_symmetry_Int_Tables_number   1
_chemical_formula_structural   Nd2Au5F21
_chemical_formula_sum   'Nd8 Au20 F84'
_cell_volume   1881.91422229
_cell_formula_units_Z   4
loop_
 _symmetry_equiv_pos_site_id
 _symmetry_equiv_pos_as_xyz
  1  'x, y, z'
loop_
 _atom_site_type_symbol
 _atom_site_label
 _atom_site_symmetry_multiplicity
 _atom_site_fract_x
 _atom_site_fract_y
 _atom_site_fract_z
 _atom_site_occupancy
  Nd  Nd0  1  0.55426300  0.92953500  0.99824500  1
  Nd  Nd1  1  0.44573700  0.07046500  0.49824500  1
  Nd  Nd2  1  0.92953500  0.55426300  0.00175500  1
  Nd  Nd3  1  0.42953500  0.94573700  0.74824500  1
  Nd  Nd4  1  0.57046500  0.05426300  0.24824500  1
  Nd  Nd5  1  0.94573700  0.42953500  0.25175500  1
  Nd  Nd6  1  0.05426300  0.57046500  0.75175500  1
  Nd  Nd7  1  0.07046500  0.44573700  0.50175500  1
  Au  Au0  1  0.40584700  0.35585700  0.84277600  1
  Au  Au1  1  0.59415300  0.64414300  0.34277600  1
  Au  Au2  1  0.35585700  0.40584700  0.15722400  1
  Au  Au3  1  0.85585700  0.09415300  0.59277600  1
  Au  Au4  1  0.14414300  0.90584700  0.09277600  1
  Au  Au5  1  0.09415300  0.85585700  0.40722400  1
  Au  Au6  1  0.90584700  0.14414300  0.90722400  1
  Au  Au7  1  0.64414300  0.59415300  0.65722400  1
  Au  Au8  1  0.20887400  0.82126500  0.88925500  1
  Au  Au9  1  0.79112600  0.17873500  0.38925500  1
  Au  Au10  1  0.82126500  0.20887400  0.11074500  1
  Au  Au11  1  0.32126500  0.29112600  0.63925500  1
  Au  Au12  1  0.67873500  0.70887400  0.13925500  1
  Au  Au13  1  0.29112600  0.32126500  0.36074500  1
  Au  Au14  1  0.70887400  0.67873500  0.86074500  1
  Au  Au15  1  0.17873500  0.79112600  0.61074500  1
  Au  Au16  1  0.56231600  0.56231600  0.50000000  1
  Au  Au17  1  0.93768400  0.06231600  0.75000000  1
  Au  Au18  1  0.06231600  0.93768400  0.25000000  1
  Au  Au19  1  0.43768400  0.43768400  0.00000000  1
  F  F0  1  0.59328300  0.78141000  0.80462200  1
  F  F1  1  0.40671700  0.21859000  0.30462200  1
  F  F2  1  0.78141000  0.59328300  0.19537800  1
  F  F3  1  0.28141000  0.90671700  0.55462200  1
  F  F4  1  0.71859000  0.09328300  0.05462200  1
  F  F5  1  0.90671700  0.28141000  0.44537800  1
  F  F6  1  0.09328300  0.71859000  0.94537800  1
  F  F7  1  0.21859000  0.40671700  0.69537800  1
  F  F8  1  0.03993600  0.68680800  0.45596000  1
  F  F9  1  0.96006400  0.31319200  0.95596000  1
  F  F10  1  0.68680800  0.03993600  0.54404000  1
  F  F11  1  0.18680800  0.46006400  0.20596000  1
  F  F12  1  0.81319200  0.53993600  0.70596000  1
  F  F13  1  0.46006400  0.18680800  0.79404000  1
  F  F14  1  0.53993600  0.81319200  0.29404000  1
  F  F15  1  0.31319200  0.96006400  0.04404000  1
  F  F16  1  0.90774900  0.80575800  0.36798000  1
  F  F17  1  0.09225100  0.19424200  0.86798000  1
  F  F18  1  0.80575800  0.90774900  0.63202000  1
  F  F19  1  0.30575800  0.59225100  0.11798000  1
  F  F20  1  0.69424200  0.40774900  0.61798000  1
  F  F21  1  0.59225100  0.30575800  0.88202000  1
  F  F22  1  0.40774900  0.69424200  0.38202000  1
  F  F23  1  0.19424200  0.09225100  0.13202000  1
  F  F24  1  0.93781900  0.29445300  0.75203900  1
  F  F25  1  0.06218100  0.70554700  0.25203900  1
  F  F26  1  0.29445300  0.93781900  0.24796100  1
  F  F27  1  0.20554700  0.43781900  0.00203900  1
  F  F28  1  0.79445300  0.56218100  0.50203900  1
  F  F29  1  0.06747000  0.67731500  0.66486300  1
  F  F30  1  0.93253000  0.32268500  0.16486300  1
  F  F31  1  0.67731500  0.06747000  0.33513700  1
  F  F32  1  0.32268500  0.93253000  0.83513700  1
  F  F33  1  0.82268500  0.56747000  0.91486300  1
  F  F34  1  0.43253000  0.17731500  0.58513700  1
  F  F35  1  0.56747000  0.82268500  0.08513700  1
  F  F36  1  0.91406600  0.30003400  0.33913900  1
  F  F37  1  0.19996600  0.41406600  0.58913900  1
  F  F38  1  0.80003400  0.58593400  0.08913900  1
  F  F39  1  0.41406600  0.19996600  0.41086100  1
  F  F40  1  0.58593400  0.80003400  0.91086100  1
  F  F41  1  0.08593400  0.69996600  0.83913900  1
  F  F42  1  0.30003400  0.91406600  0.66086100  1
  F  F43  1  0.69996600  0.08593400  0.16086100  1
  F  F44  1  0.44928000  0.17467900  0.68961600  1
  F  F45  1  0.32532100  0.94928000  0.93961600  1
  F  F46  1  0.67467900  0.05072000  0.43961600  1
  F  F47  1  0.94928000  0.32532100  0.06038400  1
  F  F48  1  0.05072000  0.67467900  0.56038400  1
  F  F49  1  0.55072000  0.82532100  0.18961600  1
  F  F50  1  0.17467900  0.44928000  0.31038400  1
  F  F51  1  0.82532100  0.55072000  0.81038400  1
  F  F52  1  0.32906100  0.56524300  0.50018900  1
  F  F53  1  0.93475700  0.82906100  0.75018900  1
  F  F54  1  0.06524300  0.17093900  0.25018900  1
  F  F55  1  0.82906100  0.93475700  0.24981100  1
  F  F56  1  0.17093900  0.06524300  0.74981100  1
  F  F57  1  0.67093900  0.43475700  0.00018900  1
  F  F58  1  0.56524300  0.32906100  0.49981100  1
  F  F59  1  0.43475700  0.67093900  0.99981100  1
  F  F60  1  0.91188600  0.28314300  0.55160200  1
  F  F61  1  0.21685700  0.41188600  0.80160200  1
  F  F62  1  0.78314300  0.58811400  0.30160200  1
  F  F63  1  0.41188600  0.21685700  0.19839800  1
  F  F64  1  0.58811400  0.78314300  0.69839800  1
  F  F65  1  0.08811400  0.71685700  0.05160200  1
  F  F66  1  0.28314300  0.91188600  0.44839800  1
  F  F67  1  0.71685700  0.08811400  0.94839800  1
  F  F68  1  0.77845800  0.77845800  0.00000000  1
  F  F69  1  0.72154200  0.27845800  0.25000000  1
  F  F70  1  0.27845800  0.72154200  0.75000000  1
  F  F71  1  0.22154200  0.22154200  0.50000000  1
  F  F72  1  0.52466400  0.36114800  0.10910500  1
  F  F73  1  0.13885200  0.02466400  0.35910500  1
  F  F74  1  0.86114800  0.97533600  0.85910500  1
  F  F75  1  0.02466400  0.13885200  0.64089500  1
  F  F76  1  0.97533600  0.86114800  0.14089500  1
  F  F77  1  0.47533600  0.63885200  0.60910500  1
  F  F78  1  0.36114800  0.52466400  0.89089500  1
  F  F79  1  0.63885200  0.47533600  0.39089500  1
  F  F80  1  0.70554700  0.06218100  0.74796100  1
  F  F81  1  0.43781900  0.20554700  0.99796100  1
  F  F82  1  0.56218100  0.79445300  0.49796100  1
  F  F83  1  0.17731500  0.43253000  0.41486300  1
loop_
_geom_bond_atom_site_label_1
_geom_bond_atom_site_label_2
_geom_bond_distance
_geom_bond_site_symmetry_2
Au0 F21 1.931304 1_555
Au0 F78 1.945761 1_555
Au0 F13 1.974984 1_555
Au0 F61 1.987969 1_555
Au1 F22 1.931304 1_555
Au1 F79 1.945761 1_555
Au1 F14 1.974984 1_555
Au1 F62 1.987969 1_555
Au2 F19 1.931304 1_555
Au2 F72 1.945761 1_555
Au2 F11 1.974984 1_555
Au2 F63 1.987969 1_555
Au3 F18 1.931304 1_545
Au3 F75 1.945761 1_655
Au3 F10 1.974984 1_555
Au3 F60 1.987969 1_555
Au4 F23 1.931304 1_565
Au4 F76 1.945761 1_455
Au4 F15 1.974984 1_555
Au4 F65 1.987969 1_555
Au5 F16 1.931304 1_455
Au5 F73 1.945761 1_565
Au5 F8 1.974984 1_555
Au5 F66 1.987969 1_555
Au6 F17 1.931304 1_655
Au6 F74 1.945761 1_545
Au6 F9 1.974984 1_555
Au6 F67 1.987969 1_555
Au7 F20 1.931304 1_555
Au7 F77 1.945761 1_555
Au7 F12 1.974984 1_555
Au7 F64 1.987969 1_555
Au8 F32 1.960555 1_555
Au8 F41 1.968442 1_555
Au8 F6 1.973661 1_555
Au8 F45 1.974954 1_555
Au9 F31 1.960555 1_555
Au9 F36 1.968442 1_555
Au9 F5 1.973661 1_555
Au9 F46 1.974954 1_555
Au10 F30 1.960555 1_555
Au10 F43 1.968442 1_555
Au10 F4 1.973661 1_555
Au10 F47 1.974954 1_555
Au11 F34 1.960555 1_555
Au11 F37 1.968442 1_555
Au11 F7 1.973661 1_555
Au11 F44 1.974954 1_555
Au12 F35 1.960555 1_555
Au12 F38 1.968442 1_555
Au12 F2 1.973661 1_555
Au12 F49 1.974954 1_555
Au13 F83 1.960555 1_555
Au13 F39 1.968442 1_555
Au13 F1 1.973661 1_555
Au13 F50 1.974954 1_555
Au14 F33 1.960555 1_555
Au14 F40 1.968442 1_555
Au14 F0 1.973661 1_555
Au14 F51 1.974954 1_555
Au15 F29 1.960555 1_555
Au15 F42 1.968442 1_555
Au15 F3 1.973661 1_555
Au15 F48 1.974954 1_555
Au16 F82 1.962098 1_555
Au16 F28 1.962098 1_555
Au16 F52 1.970968 1_555
Au16 F58 1.970968 1_555
Au17 F24 1.962098 1_555
Au17 F80 1.962098 1_555
Au17 F56 1.970968 1_655
Au17 F53 1.970968 1_545
Au18 F26 1.962098 1_555
Au18 F25 1.962098 1_555
Au18 F54 1.970968 1_565
Au18 F55 1.970968 1_455
Au19 F81 1.962098 1_554
Au19 F27 1.962098 1_555
Au19 F57 1.970968 1_555
Au19 F59 1.970968 1_554
F0 Nd3 2.459808 1_555
F1 Nd4 2.459808 1_555
F2 Nd5 2.459808 1_555
F3 Nd1 2.459808 1_565
F4 Nd0 2.459808 1_544
F5 Nd7 2.459808 1_655
F6 Nd2 2.459808 1_456
F7 Nd6 2.459808 1_555
F8 Nd7 2.381741 1_555
F9 Nd2 2.381741 1_556
F10 Nd1 2.381741 1_555
F11 Nd5 2.381741 1_455
F12 Nd6 2.381741 1_655
F13 Nd3 2.381741 1_545
F14 Nd4 2.381741 1_565
F15 Nd0 2.381741 1_554
F24 Nd6 2.531119 1_655
F25 Nd5 2.531119 1_455
F26 Nd4 2.531119 1_565
F27 Nd2 2.531119 1_455
F28 Nd7 2.531119 1_655
F29 Nd6 2.464636 1_555
F30 Nd5 2.464636 1_555
F31 Nd4 2.464636 1_555
F32 Nd3 2.464636 1_555
F33 Nd2 2.464636 1_556
F34 Nd1 2.464636 1_555
F35 Nd0 2.464636 1_554
F36 Nd5 2.564246 1_555
F37 Nd7 2.564246 1_555
F38 Nd2 2.564246 1_555
F39 Nd1 2.564246 1_555
F40 Nd0 2.564246 1_555
F41 Nd6 2.564246 1_555
F42 Nd3 2.564246 1_555
F43 Nd4 2.564246 1_555
F44 Nd3 2.481604 1_545
F45 Nd0 2.481604 1_555
F46 Nd1 2.481604 1_555
F47 Nd2 2.481604 1_555
F48 Nd7 2.481604 1_555
F49 Nd4 2.481604 1_565
F50 Nd5 2.481604 1_455
F51 Nd6 2.481604 1_655
F52 Nd7 2.407303 1_555
F53 Nd6 2.407303 1_655
F54 Nd5 2.407303 1_455
F55 Nd4 2.407303 1_565
F56 Nd3 2.407303 1_545
F57 Nd2 2.407303 1_555
F58 Nd1 2.407303 1_555
F59 Nd0 2.407303 1_555
F60 Nd7 2.325775 1_655
F61 Nd6 2.325775 1_555
F62 Nd5 2.325775 1_555
F63 Nd4 2.325775 1_555
F64 Nd3 2.325775 1_555
F65 Nd2 2.325775 1_455
F66 Nd1 2.325775 1_565
F67 Nd0 2.325775 1_545
F68 Nd2 2.284674 1_555
F68 Nd0 2.284674 1_554
F69 Nd5 2.284674 1_555
F69 Nd4 2.284674 1_555
F70 Nd3 2.284674 1_555
F70 Nd6 2.284674 1_555
F71 Nd7 2.284674 1_555
F71 Nd1 2.284674 1_555
F80 Nd3 2.531119 1_545
F81 Nd0 2.531119 1_545
F82 Nd1 2.531119 1_565
F83 Nd7 2.464636 1_555
