# generated using pymatgen
data_CaCoBi2O7
_symmetry_space_group_name_H-M   'P 1'
_cell_length_a   14.92756000
_cell_length_b   7.45967200
_cell_length_c   11.45139045
_cell_angle_alpha   76.24365881
_cell_angle_beta   90.00000000
_cell_angle_gamma   90.00000000
_symmetry_Int_Tables_number   1
_chemical_formula_structural   CaCoBi2O7
_chemical_formula_sum   'Ca8 Co8 Bi16 O56'
_cell_volume   1238.58898944
_cell_formula_units_Z   8
loop_
 _symmetry_equiv_pos_site_id
 _symmetry_equiv_pos_as_xyz
  1  'x, y, z'
loop_
 _atom_site_type_symbol
 _atom_site_label
 _atom_site_symmetry_multiplicity
 _atom_site_fract_x
 _atom_site_fract_y
 _atom_site_fract_z
 _atom_site_occupancy
  Ca  Ca0  1  0.50930100  0.88027800  0.79279500  1
  Ca  Ca1  1  0.87556500  0.68325900  0.98544000  1
  Ca  Ca2  1  0.37556500  0.31674100  0.51456000  1
  Ca  Ca3  1  0.12443500  0.31674100  0.01456000  1
  Ca  Ca4  1  0.62443500  0.68325900  0.48544000  1
  Ca  Ca5  1  0.99069900  0.88027800  0.29279500  1
  Ca  Ca6  1  0.49069900  0.11972200  0.20720500  1
  Ca  Ca7  1  0.00930100  0.11972200  0.70720500  1
  Co  Co0  1  0.66834000  0.36322800  0.08828100  1
  Co  Co1  1  0.16834000  0.63677200  0.41171900  1
  Co  Co2  1  0.33166000  0.63677200  0.91171900  1
  Co  Co3  1  0.83166000  0.36322800  0.58828100  1
  Co  Co4  1  0.74173300  0.00794400  0.26862700  1
  Co  Co5  1  0.24173300  0.99205600  0.23137300  1
  Co  Co6  1  0.25826700  0.99205600  0.73137300  1
  Co  Co7  1  0.75826700  0.00794400  0.76862700  1
  Bi  Bi0  1  0.90096100  0.13909500  0.01833200  1
  Bi  Bi1  1  0.01594500  0.62118800  0.69444300  1
  Bi  Bi2  1  0.48405500  0.62118800  0.19444300  1
  Bi  Bi3  1  0.98405500  0.37881200  0.30555700  1
  Bi  Bi4  1  0.73525100  0.50076000  0.78907400  1
  Bi  Bi5  1  0.23525100  0.49924000  0.71092600  1
  Bi  Bi6  1  0.26474900  0.49924000  0.21092600  1
  Bi  Bi7  1  0.76474900  0.50076000  0.28907400  1
  Bi  Bi8  1  0.51594500  0.37881200  0.80555700  1
  Bi  Bi9  1  0.18098600  0.10146300  0.46044600  1
  Bi  Bi10  1  0.68098600  0.89853700  0.03955400  1
  Bi  Bi11  1  0.81901400  0.89853700  0.53955400  1
  Bi  Bi12  1  0.40096100  0.86090500  0.48166800  1
  Bi  Bi13  1  0.59903900  0.13909500  0.51833200  1
  Bi  Bi14  1  0.09903900  0.86090500  0.98166800  1
  Bi  Bi15  1  0.31901400  0.10146300  0.96044600  1
  O  O0  1  0.02128600  0.13504300  0.91068500  1
  O  O1  1  0.52128600  0.86495700  0.58931500  1
  O  O2  1  0.97871400  0.86495700  0.08931500  1
  O  O3  1  0.47871400  0.13504300  0.41068500  1
  O  O4  1  0.81400900  0.99099000  0.91739500  1
  O  O5  1  0.31400900  0.00901000  0.58260500  1
  O  O6  1  0.18599100  0.00901000  0.08260500  1
  O  O7  1  0.68599100  0.99099000  0.41739500  1
  O  O8  1  0.80351300  0.96160500  0.14074600  1
  O  O9  1  0.30351300  0.03839500  0.35925400  1
  O  O10  1  0.19648700  0.03839500  0.85925400  1
  O  O11  1  0.69648700  0.96160500  0.64074600  1
  O  O12  1  0.27371600  0.38230300  0.91837100  1
  O  O13  1  0.77371600  0.61769700  0.58162900  1
  O  O14  1  0.72628400  0.61769700  0.08162900  1
  O  O15  1  0.22628400  0.38230300  0.41837100  1
  O  O16  1  0.35074400  0.03242700  0.14566300  1
  O  O17  1  0.85074400  0.96757300  0.35433700  1
  O  O18  1  0.64925600  0.96757300  0.85433700  1
  O  O19  1  0.14925600  0.03242700  0.64566300  1
  O  O20  1  0.35906400  0.92917600  0.84210100  1
  O  O21  1  0.43231000  0.60135100  0.81023300  1
  O  O22  1  0.85906400  0.07082400  0.65789900  1
  O  O23  1  0.14093600  0.92917600  0.34210100  1
  O  O24  1  0.50582000  0.23217600  0.66304200  1
  O  O25  1  0.00582000  0.76782400  0.83695800  1
  O  O26  1  0.49418000  0.76782400  0.33695800  1
  O  O27  1  0.99418000  0.23217600  0.16304200  1
  O  O28  1  0.45982200  0.18468100  0.95344600  1
  O  O29  1  0.95982200  0.81531900  0.54655400  1
  O  O30  1  0.54017800  0.81531900  0.04655400  1
  O  O31  1  0.04017800  0.18468100  0.45344600  1
  O  O32  1  0.89155500  0.57167800  0.19928000  1
  O  O33  1  0.39155500  0.42832200  0.30072000  1
  O  O34  1  0.10844500  0.42832200  0.80072000  1
  O  O35  1  0.60844500  0.57167800  0.69928000  1
  O  O36  1  0.76185400  0.26570400  0.21251400  1
  O  O37  1  0.26185400  0.73429600  0.28748600  1
  O  O38  1  0.23814600  0.73429600  0.78748600  1
  O  O39  1  0.73814600  0.26570400  0.71251400  1
  O  O40  1  0.67001100  0.39934000  0.44075200  1
  O  O41  1  0.17001100  0.60066000  0.05924800  1
  O  O42  1  0.32998900  0.60066000  0.55924800  1
  O  O43  1  0.82998900  0.39934000  0.94075200  1
  O  O44  1  0.70260800  0.75343100  0.29824400  1
  O  O45  1  0.20260800  0.24656900  0.20175600  1
  O  O46  1  0.29739200  0.24656900  0.70175600  1
  O  O47  1  0.79739200  0.75343100  0.79824400  1
  O  O48  1  0.86738200  0.38316900  0.42441800  1
  O  O49  1  0.36738200  0.61683100  0.07558200  1
  O  O50  1  0.13261800  0.61683100  0.57558100  1
  O  O51  1  0.63261800  0.38316900  0.92441900  1
  O  O52  1  0.06769000  0.60135100  0.31023300  1
  O  O53  1  0.56769000  0.39864900  0.18976700  1
  O  O54  1  0.93231000  0.39864900  0.68976700  1
  O  O55  1  0.64093600  0.07082400  0.15789900  1
loop_
_geom_bond_atom_site_label_1
_geom_bond_atom_site_label_2
_geom_bond_distance
_geom_bond_site_symmetry_2
Ca0 O21 2.343601 1_555
Ca0 O18 2.345990 1_555
Ca0 O20 2.362070 1_555
Ca0 O1 2.366690 1_555
Ca0 O24 2.691899 1_565
Ca0 O30 2.867367 1_556
Ca1 O47 2.386908 1_555
Ca1 O43 2.392880 1_555
Ca1 O32 2.403514 1_556
Ca1 O4 2.422904 1_555
Ca1 O14 2.482349 1_556
Ca1 O2 2.527789 1_556
Ca1 O25 2.561168 1_655
Ca2 O46 2.386908 1_555
Ca2 O42 2.392880 1_555
Ca2 O33 2.403514 1_555
Ca2 O5 2.422904 1_555
Ca2 O15 2.482349 1_555
Ca2 O3 2.527789 1_555
Ca2 O24 2.561168 1_555
Ca3 O45 2.386908 1_555
Ca3 O41 2.392880 1_555
Ca3 O34 2.403514 1_554
Ca3 O6 2.422904 1_555
Ca3 O12 2.482349 1_554
Ca3 O0 2.527789 1_554
Ca3 O27 2.561168 1_455
Ca4 O44 2.386908 1_555
Ca4 O40 2.392880 1_555
Ca4 O35 2.403514 1_555
Ca4 O7 2.422904 1_555
Ca4 O13 2.482349 1_555
Ca4 O1 2.527789 1_555
Ca4 O26 2.561168 1_555
Ca5 O52 2.343601 1_655
Ca5 O17 2.345990 1_555
Ca5 O23 2.362070 1_655
Ca5 O2 2.366690 1_555
Ca5 O27 2.691899 1_565
Ca5 O29 2.867367 1_555
Ca6 O53 2.343601 1_555
Ca6 O16 2.345990 1_555
Ca6 O55 2.362070 1_555
Ca6 O3 2.366690 1_555
Ca6 O26 2.691899 1_545
Ca6 O28 2.867367 1_554
Ca7 O54 2.343601 1_455
Ca7 O19 2.345990 1_555
Ca7 O22 2.362070 1_455
Ca7 O0 2.366690 1_555
Ca7 O25 2.691899 1_545
Ca7 O31 2.867367 1_555
Co0 O51 1.922181 1_554
Co0 O53 1.955466 1_555
Co0 O36 2.002393 1_555
Co0 O14 2.070885 1_555
Co0 O55 2.175705 1_555
Co1 O50 1.922181 1_555
Co1 O52 1.955466 1_555
Co1 O37 2.002393 1_555
Co1 O15 2.070885 1_555
Co1 O23 2.175705 1_555
Co2 O49 1.922192 1_556
Co2 O21 1.955466 1_555
Co2 O38 2.002393 1_555
Co2 O12 2.070885 1_555
Co2 O20 2.175705 1_555
Co3 O48 1.922192 1_555
Co3 O54 1.955466 1_555
Co3 O39 2.002393 1_555
Co3 O13 2.070885 1_555
Co3 O22 2.175705 1_555
Co4 O8 1.831733 1_545
Co4 O7 1.873008 1_545
Co4 O17 1.887183 1_545
Co4 O36 1.900707 1_555
Co4 O44 1.937656 1_545
Co4 O55 1.951650 1_555
Co5 O9 1.831733 1_565
Co5 O6 1.873008 1_565
Co5 O16 1.887183 1_565
Co5 O37 1.900707 1_555
Co5 O45 1.937656 1_565
Co5 O23 1.951650 1_555
Co6 O10 1.831733 1_565
Co6 O5 1.873008 1_565
Co6 O19 1.887183 1_565
Co6 O38 1.900707 1_555
Co6 O46 1.937656 1_565
Co6 O20 1.951650 1_555
Co7 O11 1.831733 1_545
Co7 O4 1.873008 1_545
Co7 O18 1.887183 1_545
Co7 O39 1.900707 1_555
Co7 O47 1.937656 1_545
Co7 O22 1.951650 1_555
Bi0 O0 2.182748 1_654
Bi0 O4 2.201985 1_544
Bi0 O43 2.204594 1_554
Bi0 O8 2.225182 1_545
Bi0 O2 2.323630 1_545
Bi0 O27 2.389937 1_555
Bi1 O54 2.087974 1_455
Bi1 O29 2.121487 1_455
Bi1 O34 2.150563 1_555
Bi1 O25 2.175264 1_555
Bi1 O50 2.215425 1_555
Bi2 O53 2.087974 1_555
Bi2 O30 2.121487 1_555
Bi2 O33 2.150563 1_555
Bi2 O26 2.175264 1_555
Bi2 O49 2.215417 1_555
Bi3 O52 2.087974 1_655
Bi3 O31 2.121487 1_655
Bi3 O32 2.150563 1_555
Bi3 O27 2.175264 1_555
Bi3 O48 2.215417 1_555
Bi4 O47 2.125619 1_555
Bi4 O39 2.139197 1_555
Bi4 O35 2.159068 1_555
Bi4 O51 2.207316 1_555
Bi4 O43 2.228073 1_555
Bi4 O13 2.397554 1_555
Bi5 O46 2.125619 1_555
Bi5 O38 2.139197 1_555
Bi5 O34 2.159068 1_555
Bi5 O50 2.207316 1_555
Bi5 O42 2.228073 1_555
Bi5 O12 2.397554 1_555
Bi6 O45 2.125619 1_555
Bi6 O37 2.139197 1_555
Bi6 O33 2.159068 1_555
Bi6 O49 2.207309 1_555
Bi6 O41 2.228073 1_555
Bi6 O15 2.397554 1_555
Bi7 O44 2.125619 1_555
Bi7 O36 2.139197 1_555
Bi7 O32 2.159068 1_555
Bi7 O48 2.207309 1_555
Bi7 O40 2.228073 1_555
Bi7 O14 2.397554 1_555
Bi8 O21 2.087974 1_555
Bi8 O28 2.121487 1_555
Bi8 O35 2.150563 1_555
Bi8 O24 2.175264 1_555
Bi8 O51 2.215425 1_555
Bi9 O19 2.113928 1_555
Bi9 O15 2.144351 1_555
Bi9 O23 2.161972 1_545
Bi9 O31 2.187737 1_555
Bi9 O9 2.273490 1_555
Bi9 O5 2.432436 1_555
Bi10 O18 2.113928 1_554
Bi10 O14 2.144351 1_555
Bi10 O55 2.161972 1_565
Bi10 O30 2.187737 1_555
Bi10 O8 2.273490 1_555
Bi10 O4 2.432436 1_554
Bi11 O17 2.113928 1_555
Bi11 O13 2.144351 1_555
Bi11 O22 2.161972 1_565
Bi11 O29 2.187737 1_555
Bi11 O11 2.273490 1_555
Bi11 O7 2.432436 1_555
Bi12 O1 2.182748 1_555
Bi12 O5 2.201985 1_565
Bi12 O42 2.204594 1_555
Bi12 O9 2.225182 1_565
Bi12 O3 2.323630 1_565
Bi12 O26 2.389937 1_555
Bi13 O3 2.182748 1_555
Bi13 O7 2.201985 1_545
Bi13 O40 2.204594 1_555
Bi13 O11 2.225182 1_545
Bi13 O1 2.323630 1_545
Bi13 O24 2.389937 1_555
Bi14 O2 2.182748 1_456
Bi14 O6 2.201985 1_566
Bi14 O41 2.204594 1_556
Bi14 O10 2.225182 1_565
Bi14 O0 2.323630 1_565
Bi14 O25 2.389937 1_555
Bi15 O16 2.113928 1_556
Bi15 O12 2.144351 1_555
Bi15 O20 2.161972 1_545
Bi15 O28 2.187737 1_555
Bi15 O10 2.273490 1_555
Bi15 O6 2.432436 1_556
