# generated using pymatgen
data_Cr24P11C
_symmetry_space_group_name_H-M   'P 1'
_cell_length_a   3.17737600
_cell_length_b   6.19743376
_cell_length_c   21.46420492
_cell_angle_alpha   89.99999728
_cell_angle_beta   90.00000000
_cell_angle_gamma   90.00000000
_symmetry_Int_Tables_number   1
_chemical_formula_structural   Cr24P11C
_chemical_formula_sum   'Cr24 P11 C1'
_cell_volume   422.66404989
_cell_formula_units_Z   1
loop_
 _symmetry_equiv_pos_site_id
 _symmetry_equiv_pos_as_xyz
  1  'x, y, z'
loop_
 _atom_site_type_symbol
 _atom_site_label
 _atom_site_symmetry_multiplicity
 _atom_site_fract_x
 _atom_site_fract_y
 _atom_site_fract_z
 _atom_site_occupancy
  Cr  Cr0  1  0.50000000  0.09967500  0.25000000  1
  Cr  Cr1  1  0.50000000  0.59831500  0.50010500  1
  Cr  Cr2  1  0.50000000  0.11347800  0.75000000  1
  Cr  Cr3  1  0.50000000  0.59831500  0.99989500  1
  Cr  Cr4  1  0.50000000  0.20027000  0.09976400  1
  Cr  Cr5  1  0.50000000  0.70040600  0.35013100  1
  Cr  Cr6  1  0.50000000  0.20790400  0.60344800  1
  Cr  Cr7  1  0.50000000  0.68361100  0.84304100  1
  Cr  Cr8  1  0.50000000  0.70040600  0.14986900  1
  Cr  Cr9  1  0.50000000  0.20027000  0.40023600  1
  Cr  Cr10  1  0.50000000  0.68361100  0.65695900  1
  Cr  Cr11  1  0.50000000  0.20790400  0.89655200  1
  Cr  Cr12  1  0.00000000  0.25876900  0.99864800  1
  Cr  Cr13  1  0.00000000  0.75835600  0.25000000  1
  Cr  Cr14  1  0.00000000  0.25876900  0.50135200  1
  Cr  Cr15  1  0.00000000  0.73669000  0.75000000  1
  Cr  Cr16  1  0.00000000  0.37064600  0.18530900  1
  Cr  Cr17  1  0.00000000  0.87118800  0.43596700  1
  Cr  Cr18  1  0.00000000  0.38302600  0.69267700  1
  Cr  Cr19  1  0.00000000  0.86992600  0.93267300  1
  Cr  Cr20  1  0.00000000  0.87118800  0.06403300  1
  Cr  Cr21  1  0.00000000  0.37064600  0.31469100  1
  Cr  Cr22  1  0.00000000  0.86992600  0.56732700  1
  Cr  Cr23  1  0.00000000  0.38302600  0.80732300  1
  P  P0  1  0.00000000  0.99970700  0.16663500  1
  P  P1  1  0.00000000  0.49948600  0.41686300  1
  P  P2  1  0.00000000  0.99962800  0.66874400  1
  P  P3  1  0.00000000  0.50202800  0.91451500  1
  P  P4  1  0.00000000  0.49948600  0.08313700  1
  P  P5  1  0.00000000  0.99970700  0.33336500  1
  P  P6  1  0.00000000  0.50202800  0.58548500  1
  P  P7  1  0.00000000  0.99962800  0.83125600  1
  P  P8  1  0.50000000  0.99868700  0.99823600  1
  P  P9  1  0.50000000  0.50006200  0.25000000  1
  P  P10  1  0.50000000  0.99868700  0.50176400  1
  C  C0  1  0.50000000  0.50414500  0.75000000  1
loop_
_geom_bond_atom_site_label_1
_geom_bond_atom_site_label_2
_geom_bond_distance
_geom_bond_site_symmetry_2
Cr0 P5 2.471758 1_545
Cr0 P5 2.471758 1_645
Cr0 P0 2.471758 1_545
Cr0 P0 2.471758 1_645
Cr0 P9 2.481372 1_555
Cr1 P1 2.468086 1_555
Cr1 P1 2.468086 1_655
Cr1 P10 2.481534 1_555
Cr1 P6 2.497697 1_555
Cr1 P6 2.497697 1_655
Cr2 P7 2.462446 1_645
Cr2 P7 2.462446 1_545
Cr2 P2 2.462446 1_545
Cr2 P2 2.462446 1_645
Cr3 P4 2.468086 1_556
Cr3 P4 2.468086 1_656
Cr3 P8 2.481534 1_555
Cr3 P3 2.497697 1_555
Cr3 P3 2.497697 1_655
Cr4 P4 2.467790 1_555
Cr4 P4 2.467790 1_655
Cr4 P0 2.475702 1_645
Cr4 P0 2.475702 1_545
Cr4 P8 2.511918 1_544
Cr5 P5 2.468619 1_655
Cr5 P5 2.468619 1_555
Cr5 P1 2.475085 1_655
Cr5 P1 2.475085 1_555
Cr5 P9 2.482099 1_555
Cr6 P6 2.448518 1_655
Cr6 P6 2.448518 1_555
Cr6 P2 2.480788 1_545
Cr6 P2 2.480788 1_645
Cr6 P10 2.538659 1_545
Cr7 P3 2.478690 1_655
Cr7 P3 2.478690 1_555
Cr7 P7 2.534485 1_655
Cr7 P7 2.534485 1_555
Cr8 P0 2.468620 1_555
Cr8 P0 2.468620 1_655
Cr8 P4 2.475086 1_655
Cr8 P4 2.475086 1_555
Cr8 P9 2.482099 1_555
Cr9 P1 2.467790 1_655
Cr9 P1 2.467790 1_555
Cr9 P5 2.475702 1_645
Cr9 P5 2.475702 1_545
Cr9 P10 2.511918 1_545
Cr10 P6 2.478690 1_655
Cr10 P6 2.478690 1_555
Cr10 P2 2.534485 1_655
Cr10 P2 2.534485 1_555
Cr11 P3 2.448518 1_655
Cr11 P3 2.448518 1_555
Cr11 P7 2.480788 1_645
Cr11 P7 2.480788 1_545
Cr11 P8 2.538659 1_545
Cr12 P8 2.263192 1_445
Cr12 P8 2.263192 1_545
Cr12 P4 2.348253 1_556
Cr12 P3 2.352422 1_555
Cr13 P9 2.255296 1_555
Cr13 P9 2.255296 1_455
Cr13 P0 2.332190 1_555
Cr13 P5 2.332190 1_555
Cr14 P10 2.263192 1_545
Cr14 P10 2.263192 1_445
Cr14 P1 2.348253 1_555
Cr14 P6 2.352422 1_555
Cr15 P2 2.386896 1_555
Cr15 P7 2.386896 1_555
Cr16 P9 2.257267 1_455
Cr16 P9 2.257267 1_555
Cr16 P0 2.333551 1_545
Cr16 P4 2.333880 1_555
Cr17 P10 2.267781 1_555
Cr17 P10 2.267781 1_455
Cr17 P1 2.339810 1_555
Cr17 P5 2.341877 1_555
Cr18 P6 2.416103 1_555
Cr18 P2 2.430980 1_545
Cr19 P8 2.267397 1_555
Cr19 P8 2.267397 1_455
Cr19 P3 2.313095 1_555
Cr19 P7 2.320504 1_555
Cr20 P8 2.267780 1_454
Cr20 P8 2.267780 1_554
Cr20 P4 2.339810 1_555
Cr20 P0 2.341877 1_555
Cr21 P9 2.257267 1_555
Cr21 P9 2.257267 1_455
Cr21 P5 2.333551 1_545
Cr21 P1 2.333880 1_555
Cr22 P10 2.267397 1_455
Cr22 P10 2.267397 1_555
Cr22 P6 2.313095 1_555
Cr22 P2 2.320504 1_555
Cr23 P3 2.416104 1_555
Cr23 P7 2.430980 1_545
C0 Cr15 2.144979 1_655
C0 Cr15 2.144979 1_555
C0 Cr23 2.145049 1_655
C0 Cr23 2.145049 1_555
C0 Cr18 2.145049 1_655
C0 Cr18 2.145049 1_555
C0 Cr10 2.285884 1_555
C0 Cr7 2.285884 1_555
C0 Cr2 2.421133 1_555
