# generated using pymatgen
data_NdAgAs2
_symmetry_space_group_name_H-M   'P 1'
_cell_length_a   4.03100773
_cell_length_b   4.03098946
_cell_length_c   10.70429693
_cell_angle_alpha   90.00000000
_cell_angle_beta   90.00000000
_cell_angle_gamma   90.00000000
_symmetry_Int_Tables_number   1
_chemical_formula_structural   NdAgAs2
_chemical_formula_sum   'Nd2 Ag2 As4'
_cell_volume   173.93358210
_cell_formula_units_Z   2
loop_
 _symmetry_equiv_pos_site_id
 _symmetry_equiv_pos_as_xyz
  1  'x, y, z'
loop_
 _atom_site_type_symbol
 _atom_site_label
 _atom_site_symmetry_multiplicity
 _atom_site_fract_x
 _atom_site_fract_y
 _atom_site_fract_z
 _atom_site_occupancy
  Nd  Nd0  1  0.75000000  0.75000000  0.27239877  1
  Nd  Nd1  1  0.25000000  0.25000000  0.72760123  1
  Ag  Ag0  1  0.25000000  0.75000000  -0.00000000  1
  Ag  Ag1  1  0.75000000  0.25000000  -0.00000000  1
  As  As0  1  0.75000000  0.75000000  0.82442988  1
  As  As1  1  0.25000000  0.25000000  0.17557012  1
  As  As2  1  0.25000000  0.75000000  0.50000000  1
  As  As3  1  0.75000000  0.25000000  0.50000000  1
loop_
_geom_bond_atom_site_label_1
_geom_bond_atom_site_label_2
_geom_bond_distance
_geom_bond_site_symmetry_2
Ag0 As1 2.755756 1_565
Ag0 As1 2.755756 1_555
Ag0 As0 2.755763 1_554
Ag0 As0 2.755763 1_454
Ag0 Ag1 2.850346 1_565
Ag0 Ag1 2.850346 1_455
Ag0 Ag1 2.850346 1_555
Ag0 Ag1 2.850346 1_465
Ag0 Nd1 3.544619 1_564
Ag0 Nd1 3.544619 1_554
Ag0 Nd0 3.544625 1_455
Ag0 Nd0 3.544625 1_555
Ag1 As0 2.755756 1_544
Ag1 As0 2.755756 1_554
Ag1 As1 2.755763 1_655
Ag1 As1 2.755763 1_555
Ag1 Nd0 3.544619 1_555
Ag1 Nd0 3.544619 1_545
Ag1 Nd1 3.544625 1_554
Ag1 Nd1 3.544625 1_654
As0 Nd1 3.032948 1_665
As0 Nd1 3.032948 1_565
As0 Nd1 3.032948 1_655
As0 Nd1 3.032948 1_555
As1 Nd0 3.032948 1_555
As1 Nd0 3.032948 1_545
As1 Nd0 3.032948 1_455
As1 Nd0 3.032948 1_445
As2 As3 2.850346 1_465
As2 As3 2.850346 1_555
As2 As3 2.850346 1_565
As2 As3 2.850346 1_455
As2 Nd1 3.161935 1_565
As2 Nd1 3.161935 1_555
As2 Nd0 3.161941 1_455
As2 Nd0 3.161941 1_555
As3 Nd0 3.161935 1_555
As3 Nd0 3.161935 1_545
As3 Nd1 3.161941 1_655
As3 Nd1 3.161941 1_555
