# generated using pymatgen
data_U(Al3Fe)3
_symmetry_space_group_name_H-M   'P 1'
_cell_length_a   6.74231439
_cell_length_b   6.74233995
_cell_length_c   6.66101860
_cell_angle_alpha   82.25332638
_cell_angle_beta   82.25384149
_cell_angle_gamma   136.35837883
_symmetry_Int_Tables_number   1
_chemical_formula_structural   U(Al3Fe)3
_chemical_formula_sum   'U1 Al9 Fe3'
_cell_volume   194.75422132
_cell_formula_units_Z   1
loop_
 _symmetry_equiv_pos_site_id
 _symmetry_equiv_pos_as_xyz
  1  'x, y, z'
loop_
 _atom_site_type_symbol
 _atom_site_label
 _atom_site_symmetry_multiplicity
 _atom_site_fract_x
 _atom_site_fract_y
 _atom_site_fract_z
 _atom_site_occupancy
  U  U0  1  -0.00000000  -0.00000000  0.00000000  1
  Al  Al0  1  0.48544901  0.71005242  0.78547330  1
  Al  Al1  1  0.51455099  0.28994758  0.21452670  1
  Al  Al2  1  0.28994872  0.51455110  0.21452585  1
  Al  Al3  1  0.71005128  0.48544890  0.78547415  1
  Al  Al4  1  0.00006670  0.64645654  0.33828031  1
  Al  Al5  1  -0.00006670  0.35354346  0.66171969  1
  Al  Al6  1  0.35354615  -0.00006392  0.66171882  1
  Al  Al7  1  0.64645385  0.00006392  0.33828118  1
  Al  Al8  1  -0.00000000  -0.00000000  0.50000000  1
  Fe  Fe0  1  0.50000000  0.50000000  0.50000000  1
  Fe  Fe1  1  0.50000000  -0.00000000  0.00000000  1
  Fe  Fe2  1  -0.00000000  0.50000000  0.00000000  1
loop_
_geom_bond_atom_site_label_1
_geom_bond_atom_site_label_2
_geom_bond_distance
_geom_bond_site_symmetry_2
Al0 Fe2 2.499022 1_556
Al0 Fe1 2.527173 1_566
Al0 Fe0 2.551090 1_555
Al0 Al8 2.622368 1_665
Al0 Al5 2.654476 1_555
Al0 Al2 2.664002 1_556
Al0 Al6 2.751274 1_565
Al0 Al3 2.811689 1_555
Al0 Al5 2.831712 1_665
Al0 Al7 2.891497 1_565
Al0 U0 3.144845 1_556
Al0 U0 3.189492 1_666
Al1 Fe2 2.499022 1_655
Al1 Fe1 2.527173 1_555
Al1 Fe0 2.551090 1_555
Al1 Al8 2.622368 1_555
Al1 Al4 2.654476 1_655
Al1 Al3 2.664002 1_554
Al1 Al7 2.751274 1_555
Al1 Al2 2.811689 1_555
Al1 Al4 2.831712 1_545
Al1 Al6 2.891497 1_555
Al1 U0 3.144845 1_665
Al1 U0 3.189492 1_555
Al2 Fe1 2.499026 1_565
Al2 Fe2 2.527159 1_555
Al2 Fe0 2.551076 1_555
Al2 Al8 2.622370 1_555
Al2 Al7 2.654479 1_565
Al2 Al4 2.751284 1_555
Al2 Al7 2.831721 1_455
Al2 Al5 2.891514 1_555
Al2 U0 3.144830 1_665
Al2 U0 3.189504 1_555
Al3 Fe1 2.499026 1_556
Al3 Fe2 2.527159 1_656
Al3 Fe0 2.551076 1_555
Al3 Al8 2.622370 1_665
Al3 Al6 2.654479 1_555
Al3 Al5 2.751284 1_655
Al3 Al6 2.831721 1_665
Al3 Al4 2.891514 1_655
Al3 U0 3.144830 1_556
Al3 U0 3.189504 1_666
Al4 Fe2 2.579122 1_555
Al4 Fe1 2.645100 1_565
Al4 Al5 2.718779 1_555
Al4 Fe0 2.723731 1_455
Al4 Al8 2.745202 1_565
Al4 U0 3.051757 1_565
Al5 Fe2 2.579122 1_556
Al5 Fe1 2.645100 1_456
Al5 Fe0 2.723731 1_555
Al5 Al8 2.745202 1_555
Al5 U0 3.051757 1_556
Al6 Fe1 2.579112 1_556
Al6 Fe2 2.645110 1_546
Al6 Al7 2.718782 1_555
Al6 Fe0 2.723729 1_555
Al6 Al8 2.745188 1_555
Al6 U0 3.051770 1_556
Al7 Fe1 2.579112 1_555
Al7 Fe2 2.645110 1_655
Al7 Fe0 2.723729 1_545
Al7 Al8 2.745188 1_655
Al7 U0 3.051770 1_655
Al8 Fe0 2.506157 1_445
Al8 Fe0 2.506157 1_555
Al8 U0 3.330509 1_555
Al8 U0 3.330509 1_556
Fe0 U0 3.364467 1_556
Fe0 U0 3.364467 1_665
Fe1 Fe2 2.506157 1_655
Fe1 Fe2 2.506157 1_545
Fe1 U0 3.371157 1_655
Fe1 U0 3.371157 1_555
Fe2 U0 3.371170 1_565
Fe2 U0 3.371170 1_555
