# generated using pymatgen
data_LiV5O7F
_symmetry_space_group_name_H-M   'P 1'
_cell_length_a   6.04668775
_cell_length_b   10.52803933
_cell_length_c   6.04971734
_cell_angle_alpha   89.67937701
_cell_angle_beta   118.95214749
_cell_angle_gamma   73.32932932
_symmetry_Int_Tables_number   1
_chemical_formula_structural   LiV5O7F
_chemical_formula_sum   'Li2 V10 O14 F2'
_cell_volume   317.99819557
_cell_formula_units_Z   2
loop_
 _symmetry_equiv_pos_site_id
 _symmetry_equiv_pos_as_xyz
  1  'x, y, z'
loop_
 _atom_site_type_symbol
 _atom_site_label
 _atom_site_symmetry_multiplicity
 _atom_site_fract_x
 _atom_site_fract_y
 _atom_site_fract_z
 _atom_site_occupancy
  Li  Li0  1  0.76486200  0.38102400  0.86503100  1
  Li  Li1  1  0.76350700  0.87839100  0.36268300  1
  V  V0  1  0.99311200  0.99659300  0.01110000  1
  V  V1  1  0.37339100  0.68970100  0.92903600  1
  V  V2  1  0.38513000  0.18737400  0.43307500  1
  V  V3  1  0.37170800  0.18328600  0.94737100  1
  V  V4  1  0.86967200  0.18460100  0.45206000  1
  V  V5  1  0.99491000  0.49393300  0.50454700  1
  V  V6  1  0.36860900  0.68302700  0.43847200  1
  V  V7  1  0.86750500  0.68409200  0.94090400  1
  V  V8  1  0.36430300  0.93947500  0.69347400  1
  V  V9  1  0.37158700  0.43756500  0.19855500  1
  O  O0  1  0.12492200  0.06596900  0.81358000  1
  O  O1  1  0.12052400  0.56205700  0.29807200  1
  O  O2  1  0.16088000  0.81300300  0.58758300  1
  O  O3  1  0.16281300  0.31350700  0.06902600  1
  O  O4  1  0.62050600  0.58019000  0.81686700  1
  O  O5  1  0.62790100  0.07721300  0.29502400  1
  O  O6  1  0.61533400  0.81132300  0.02566400  1
  O  O7  1  0.62086100  0.31349200  0.53687500  1
  O  O8  1  0.13261900  0.06332000  0.33939700  1
  O  O9  1  0.12423600  0.56674000  0.82889200  1
  O  O10  1  0.59987700  0.06347100  0.80540900  1
  O  O11  1  0.60058800  0.56311000  0.28697100  1
  O  O12  1  0.13326600  0.29643200  0.57381600  1
  O  O13  1  0.12381100  0.79942100  0.05460700  1
  F  F0  1  0.61936700  0.81157200  0.56779100  1
  F  F1  1  0.62420300  0.31011000  0.07411700  1
loop_
_geom_bond_atom_site_label_1
_geom_bond_atom_site_label_2
_geom_bond_distance
_geom_bond_site_symmetry_2
Li0 O7 1.975422 1_555
Li0 O4 1.985025 1_555
Li0 O3 1.988033 1_656
Li1 O5 1.975379 1_565
Li1 O2 1.993461 1_655
Li1 O6 2.017127 1_555
O0 V0 1.960324 1_446
O0 V3 2.075260 1_555
O0 V8 2.078397 1_545
O0 V4 2.078643 1_455
O1 V5 1.967911 1_455
O1 V9 2.033970 1_555
O1 V7 2.073857 1_454
O1 V6 2.113853 1_555
O2 V8 1.970431 1_555
O2 V1 2.011591 1_555
O2 V6 2.094906 1_555
O3 V9 1.978194 1_555
O3 V3 1.983552 1_554
O3 V2 2.120789 1_555
O4 V7 1.962595 1_555
O4 V1 2.006113 1_555
O4 V6 2.093538 1_555
O5 V3 1.974117 1_554
O5 V4 1.983341 1_555
O5 V2 2.102024 1_555
O6 V7 1.993745 1_554
O6 V8 2.001099 1_554
O6 V1 2.092042 1_554
O7 V4 1.987957 1_555
O7 V9 2.005241 1_555
O7 V2 2.101825 1_555
O8 V0 1.970604 1_445
O8 V8 2.065547 1_545
O8 V4 2.125326 1_455
O8 V2 2.161682 1_555
O9 V5 1.981021 1_455
O9 V7 2.079161 1_455
O9 V1 2.134637 1_555
O9 V9 2.156017 1_556
O10 V0 1.965461 1_546
O10 V8 2.081983 1_545
O10 V3 2.095957 1_555
O10 V2 2.150597 1_555
O11 V5 1.975483 1_555
O11 V9 2.071570 1_555
O11 V1 2.095150 1_554
O11 V6 2.154788 1_555
O12 V5 1.962593 1_455
O12 V4 2.102115 1_455
O12 V3 2.105902 1_555
O12 V2 2.150747 1_555
O13 V0 1.963211 1_455
O13 V1 2.075693 1_554
O13 V7 2.099089 1_454
O13 V6 2.164500 1_555
F0 Li1 2.045301 1_555
F0 V7 2.163191 1_555
F0 V8 2.173773 1_555
F0 V6 2.187072 1_555
F1 Li0 2.067874 1_554
F1 V9 2.156189 1_555
F1 V4 2.175361 1_555
F1 V3 2.179303 1_554
