# generated using pymatgen
data_CaCeAl2FeSi3O13
_symmetry_space_group_name_H-M   'P 1'
_cell_length_a   5.77121100
_cell_length_b   8.97181600
_cell_length_c   10.23951008
_cell_angle_alpha   64.86472650
_cell_angle_beta   90.00000000
_cell_angle_gamma   90.00000000
_symmetry_Int_Tables_number   1
_chemical_formula_structural   CaCeAl2FeSi3O13
_chemical_formula_sum   'Ca2 Ce2 Al4 Fe2 Si6 O26'
_cell_volume   479.97939543
_cell_formula_units_Z   2
loop_
 _symmetry_equiv_pos_site_id
 _symmetry_equiv_pos_as_xyz
  1  'x, y, z'
loop_
 _atom_site_type_symbol
 _atom_site_label
 _atom_site_symmetry_multiplicity
 _atom_site_fract_x
 _atom_site_fract_y
 _atom_site_fract_z
 _atom_site_occupancy
  Ca  Ca0  1  0.75000000  0.61761300  0.14854400  1
  Ca  Ca1  1  0.25000000  0.38238700  0.85145600  1
  Ce  Ce0  1  0.75000000  0.19575000  0.43650400  1
  Ce  Ce1  1  0.25000000  0.80425000  0.56349600  1
  Al  Al0  1  0.50000000  0.00000000  0.00000000  1
  Al  Al1  1  0.00000000  0.00000000  0.00000000  1
  Al  Al2  1  0.50000000  0.50000000  0.50000000  1
  Al  Al3  1  0.00000000  0.50000000  0.50000000  1
  Fe  Fe0  1  0.25000000  0.06980700  0.22481600  1
  Fe  Fe1  1  0.75000000  0.93019300  0.77518400  1
  Si  Si0  1  0.75000000  0.29386700  0.04431200  1
  Si  Si1  1  0.25000000  0.70613300  0.95568800  1
  Si  Si2  1  0.25000000  0.41386400  0.26825000  1
  Si  Si3  1  0.75000000  0.58613600  0.73175000  1
  Si  Si4  1  0.75000000  0.86317500  0.32667100  1
  Si  Si5  1  0.25000000  0.13682500  0.67332900  1
  O  O0  1  0.51008500  0.20196300  0.03155900  1
  O  O1  1  0.01008500  0.79803700  0.96844100  1
  O  O2  1  0.48991500  0.79803700  0.96844100  1
  O  O3  1  0.98991500  0.20196300  0.03155900  1
  O  O4  1  0.52556800  0.94476400  0.37331900  1
  O  O5  1  0.02556800  0.05523600  0.62668100  1
  O  O6  1  0.47443200  0.05523600  0.62668100  1
  O  O7  1  0.97443200  0.94476400  0.37331900  1
  O  O8  1  0.48344300  0.46469200  0.33113900  1
  O  O9  1  0.98344300  0.53530800  0.66886100  1
  O  O10  1  0.51655700  0.53530800  0.66886100  1
  O  O11  1  0.01655700  0.46469200  0.33113900  1
  O  O12  1  0.25000000  0.93320300  0.11966800  1
  O  O13  1  0.75000000  0.06679700  0.88033200  1
  O  O14  1  0.75000000  0.89975200  0.15325600  1
  O  O15  1  0.25000000  0.10024800  0.84674400  1
  O  O16  1  0.75000000  0.66026000  0.41172000  1
  O  O17  1  0.25000000  0.33974000  0.58828000  1
  O  O18  1  0.75000000  0.32312100  0.19057400  1
  O  O19  1  0.25000000  0.67687900  0.80942600  1
  O  O20  1  0.25000000  0.21725000  0.32105600  1
  O  O21  1  0.75000000  0.78275000  0.67894400  1
  O  O22  1  0.25000000  0.51629000  0.09017400  1
  O  O23  1  0.75000000  0.48371000  0.90982600  1
  O  O24  1  0.25000000  0.65004700  0.44841500  1
  O  O25  1  0.75000000  0.34995300  0.55158500  1
loop_
_geom_bond_atom_site_label_1
_geom_bond_atom_site_label_2
_geom_bond_distance
_geom_bond_site_symmetry_2
Ca0 O8 2.359118 1_555
Ca0 O11 2.359118 1_655
Ca0 O1 2.395471 1_654
Ca0 O2 2.395471 1_554
Ca0 O18 2.489998 1_555
Ca0 O14 2.552167 1_555
Ca1 O9 2.359118 1_455
Ca1 O10 2.359118 1_555
Ca1 O3 2.395471 1_456
Ca1 O0 2.395471 1_556
Ca1 O19 2.489998 1_555
Ca1 O15 2.552167 1_555
Ce0 O25 2.165065 1_555
Ce0 O18 2.280920 1_555
Ce0 O6 2.413523 1_555
Ce0 O5 2.413523 1_655
Ce0 O11 2.672288 1_655
Ce0 O8 2.672288 1_555
Ce0 O7 2.899049 1_545
Ce0 O4 2.899049 1_545
Ce1 O24 2.165065 1_555
Ce1 O19 2.280920 1_555
Ce1 O7 2.413523 1_455
Ce1 O4 2.413523 1_555
Ce1 O9 2.672288 1_455
Ce1 O10 2.672288 1_555
Ce1 O6 2.899049 1_565
Ce1 O5 2.899049 1_565
Al0 O13 1.821665 1_554
Al0 O12 1.821665 1_545
Al0 O0 1.971925 1_555
Al0 O2 1.971925 1_544
Al0 O15 2.038185 1_554
Al0 O14 2.038185 1_545
Al1 O13 1.821665 1_454
Al1 O12 1.821665 1_545
Al1 O1 1.971925 1_544
Al1 O3 1.971925 1_455
Al1 O15 2.038185 1_554
Al1 O14 2.038185 1_445
Al2 O8 1.887963 1_555
Al2 O10 1.887963 1_555
Al2 O25 1.889142 1_555
Al2 O24 1.889142 1_555
Al2 O16 1.965199 1_555
Al2 O17 1.965199 1_555
Al3 O11 1.887963 1_555
Al3 O9 1.887963 1_455
Al3 O25 1.889142 1_455
Al3 O24 1.889142 1_555
Al3 O16 1.965199 1_455
Al3 O17 1.965199 1_555
Fe0 O12 1.944797 1_545
Fe0 O20 1.956632 1_555
Fe0 O7 2.156584 1_445
Fe0 O4 2.156584 1_545
Fe0 O3 2.362525 1_455
Fe0 O0 2.362525 1_555
Fe1 O13 1.944797 1_565
Fe1 O21 1.956632 1_555
Fe1 O6 2.156584 1_565
Fe1 O5 2.156584 1_665
Fe1 O1 2.362525 1_655
Fe1 O2 2.362525 1_555
O0 Si0 1.644845 1_555
O1 Si1 1.644845 1_555
O2 Si1 1.644845 1_555
O3 Si0 1.644845 1_555
O4 Si4 1.654890 1_555
O5 Si5 1.654890 1_555
O6 Si5 1.654890 1_555
O7 Si4 1.654890 1_555
O8 Si2 1.639260 1_555
O9 Si3 1.639260 1_555
O10 Si3 1.639260 1_555
O11 Si2 1.639260 1_555
O14 Si4 1.663047 1_555
O15 Si5 1.663047 1_555
O16 Si4 1.651013 1_555
O17 Si5 1.651013 1_555
O18 Si0 1.626582 1_555
O19 Si1 1.626582 1_555
O20 Si2 1.610509 1_555
O21 Si3 1.610509 1_555
O22 Si2 1.657055 1_555
O22 Si1 1.674761 1_554
O23 Si3 1.657055 1_555
O23 Si0 1.674761 1_556
