# generated using pymatgen
data_LaMg6Ni
_symmetry_space_group_name_H-M   'P 1'
_cell_length_a   4.83480300
_cell_length_b   6.26603800
_cell_length_c   12.20685600
_cell_angle_alpha   90.00000000
_cell_angle_beta   90.00000000
_cell_angle_gamma   90.00000000
_symmetry_Int_Tables_number   1
_chemical_formula_structural   LaMg6Ni
_chemical_formula_sum   'La2 Mg12 Ni2'
_cell_volume   369.80742664
_cell_formula_units_Z   2
loop_
 _symmetry_equiv_pos_site_id
 _symmetry_equiv_pos_as_xyz
  1  'x, y, z'
loop_
 _atom_site_type_symbol
 _atom_site_label
 _atom_site_symmetry_multiplicity
 _atom_site_fract_x
 _atom_site_fract_y
 _atom_site_fract_z
 _atom_site_occupancy
  La  La0  1  0.50000000  0.50000000  0.20385600  1
  La  La1  1  0.50000000  0.00000000  0.70385600  1
  Mg  Mg0  1  0.00000000  0.75609100  0.05657300  1
  Mg  Mg1  1  0.00000000  0.24390900  0.05657300  1
  Mg  Mg2  1  0.00000000  0.00000000  0.31231700  1
  Mg  Mg3  1  0.50000000  0.25235000  0.42820800  1
  Mg  Mg4  1  0.50000000  0.74765000  0.42820800  1
  Mg  Mg5  1  0.50000000  0.00000000  0.15045500  1
  Mg  Mg6  1  0.00000000  0.25609100  0.55657300  1
  Mg  Mg7  1  0.00000000  0.74390900  0.55657300  1
  Mg  Mg8  1  0.00000000  0.50000000  0.81231700  1
  Mg  Mg9  1  0.50000000  0.75235000  0.92820800  1
  Mg  Mg10  1  0.50000000  0.24765000  0.92820800  1
  Mg  Mg11  1  0.50000000  0.50000000  0.65045500  1
  Ni  Ni0  1  0.00000000  0.50000000  0.36381000  1
  Ni  Ni1  1  0.00000000  0.00000000  0.86381000  1
loop_
_geom_bond_atom_site_label_1
_geom_bond_atom_site_label_2
_geom_bond_distance
_geom_bond_site_symmetry_2
La0 Ni0 3.107447 1_555
La0 Ni0 3.107447 1_655
La0 Mg3 3.147720 1_555
La0 Mg4 3.147720 1_555
La0 Mg5 3.200114 1_555
La0 Mg5 3.200114 1_565
La0 Mg0 3.413374 1_555
La0 Mg0 3.413374 1_655
La0 Mg1 3.413374 1_555
La0 Mg1 3.413374 1_655
La0 Mg10 3.717815 1_554
La0 Mg9 3.717815 1_554
La1 Ni1 3.107447 1_555
La1 Ni1 3.107447 1_655
La1 Mg9 3.147720 1_545
La1 Mg10 3.147720 1_555
La1 Mg11 3.200114 1_555
La1 Mg11 3.200114 1_545
La1 Mg6 3.413374 1_655
La1 Mg6 3.413374 1_555
La1 Mg7 3.413374 1_645
La1 Mg7 3.413374 1_545
La1 Mg4 3.717815 1_545
La1 Mg3 3.717815 1_555
Mg0 Ni1 2.805812 1_564
Mg0 Mg9 2.880913 1_554
Mg0 Mg9 2.880913 1_454
Mg0 Mg5 3.081069 1_565
Mg0 Mg5 3.081069 1_465
Mg1 Ni1 2.805812 1_554
Mg1 Mg10 2.880913 1_454
Mg1 Mg10 2.880913 1_554
Mg1 Mg5 3.081069 1_455
Mg1 Mg5 3.081069 1_555
Mg2 Mg5 3.122134 1_455
Mg2 Mg5 3.122134 1_555
Mg2 Ni0 3.195451 1_555
Mg2 Ni0 3.195451 1_545
Mg2 Mg3 3.216428 1_455
Mg2 Mg4 3.216428 1_445
Mg2 Mg3 3.216428 1_555
Mg2 Mg4 3.216428 1_545
Mg3 Mg6 2.880913 1_655
Mg3 Mg6 2.880913 1_555
Mg3 Ni0 2.978223 1_655
Mg3 Ni0 2.978223 1_555
Mg3 Mg4 3.103569 1_555
Mg3 Mg4 3.162469 1_545
Mg4 Mg7 2.880913 1_555
Mg4 Mg7 2.880913 1_655
Mg4 Ni0 2.978223 1_655
Mg4 Ni0 2.978223 1_555
Mg5 Mg9 3.125390 1_544
Mg6 Ni0 2.805812 1_555
Mg7 Ni0 2.805812 1_555
Mg8 Ni1 3.195451 1_565
Mg8 Ni1 3.195451 1_555
Mg8 Mg9 3.216428 1_455
Mg8 Mg9 3.216428 1_555
Mg9 Ni1 2.978223 1_565
Mg9 Ni1 2.978223 1_665
Mg10 Ni1 2.978223 1_655
Mg10 Ni1 2.978223 1_555
Mg10 Mg9 3.103569 1_545
Mg10 Mg5 3.125390 1_556
Mg10 Mg9 3.162469 1_555
Mg10 Mg8 3.216428 1_555
Mg10 Mg8 3.216428 1_655
Mg11 Mg7 3.081069 1_555
Mg11 Mg7 3.081069 1_655
Mg11 Mg6 3.081069 1_655
Mg11 Mg6 3.081069 1_555
Mg11 Mg8 3.122134 1_555
Mg11 Mg8 3.122134 1_655
Mg11 Mg3 3.125390 1_555
Mg11 Mg4 3.125390 1_555
