# generated using pymatgen
data_Dy4(CoB2)3
_symmetry_space_group_name_H-M   'P 1'
_cell_length_a   5.30711713
_cell_length_b   5.30711700
_cell_length_c   7.95173794
_cell_angle_alpha   70.50600544
_cell_angle_beta   70.50600435
_cell_angle_gamma   59.99999455
_symmetry_Int_Tables_number   1
_chemical_formula_structural   Dy4(CoB2)3
_chemical_formula_sum   'Dy4 Co3 B6'
_cell_volume   178.98105579
_cell_formula_units_Z   1
loop_
 _symmetry_equiv_pos_site_id
 _symmetry_equiv_pos_as_xyz
  1  'x, y, z'
loop_
 _atom_site_type_symbol
 _atom_site_label
 _atom_site_symmetry_multiplicity
 _atom_site_fract_x
 _atom_site_fract_y
 _atom_site_fract_z
 _atom_site_occupancy
  Dy  Dy0  1  0.74463600  0.74463600  0.76609200  1
  Dy  Dy1  1  0.25536400  0.25536400  0.23390800  1
  Dy  Dy2  1  0.58831800  0.58831800  0.23504700  1
  Dy  Dy3  1  0.41168200  0.41168200  0.76495300  1
  Co  Co0  1  0.00000000  0.00000000  0.00000000  1
  Co  Co1  1  0.88644200  0.88644200  0.34067400  1
  Co  Co2  1  0.11355800  0.11355800  0.65932600  1
  B  B0  1  0.50000000  0.16778400  0.50000000  1
  B  B1  1  0.83221600  0.50000000  0.50000000  1
  B  B2  1  0.16778400  0.83221600  0.50000000  1
  B  B3  1  0.16778400  0.50000000  0.50000000  1
  B  B4  1  0.83221600  0.16778400  0.50000000  1
  B  B5  1  0.50000000  0.83221600  0.50000000  1
loop_
_geom_bond_atom_site_label_1
_geom_bond_atom_site_label_2
_geom_bond_distance
_geom_bond_site_symmetry_2
Co0 Co1 2.499759 1_445
Co0 Co2 2.499759 1_554
Co0 Dy0 3.512027 1_454
Co0 Dy1 3.512027 1_545
Co0 Dy0 3.512027 1_544
Co0 Dy1 3.512027 1_455
Co0 Dy1 3.512027 1_555
Co0 Dy0 3.512027 1_444
Co0 Dy2 3.516116 1_445
Co0 Dy3 3.516116 1_554
Co0 Dy2 3.516120 1_455
Co0 Dy3 3.516120 1_544
Co0 Dy3 3.516120 1_454
Co0 Dy2 3.516120 1_545
B0 B3 1.763109 1_555
B0 B4 1.763109 1_555
B0 B5 1.780899 1_545
B0 Co1 2.122918 1_545
B0 Co2 2.122918 1_555
B0 Dy3 2.624544 1_555
B0 Dy2 2.624548 1_555
B0 Dy0 2.636717 1_545
B0 Dy1 2.636718 1_555
B1 B5 1.763109 1_555
B1 B4 1.763109 1_555
B1 B3 1.780899 1_655
B1 Co2 2.122918 1_655
B1 Co1 2.122918 1_555
B1 Dy2 2.624544 1_555
B1 Dy3 2.624548 1_555
B1 Dy1 2.636717 1_655
B1 Dy0 2.636717 1_555
B2 B3 1.763109 1_555
B2 B5 1.763109 1_555
B2 B4 1.780899 1_465
B2 Co2 2.122918 1_565
B2 Co1 2.122918 1_455
B2 Dy2 2.624546 1_555
B2 Dy3 2.624546 1_555
B2 Dy1 2.636717 1_565
B2 Dy0 2.636717 1_455
B3 Co1 2.122918 1_455
B3 Co2 2.122918 1_555
B3 Dy3 2.624544 1_555
B3 Dy2 2.624548 1_555
B3 Dy0 2.636717 1_455
B3 Dy1 2.636717 1_555
B4 Co1 2.122918 1_545
B4 Co2 2.122918 1_655
B4 Dy3 2.624546 1_555
B4 Dy2 2.624546 1_555
B4 Dy0 2.636717 1_545
B4 Dy1 2.636717 1_655
B5 Co2 2.122918 1_565
B5 Co1 2.122918 1_555
B5 Dy2 2.624544 1_555
B5 Dy3 2.624548 1_555
B5 Dy1 2.636717 1_565
B5 Dy0 2.636718 1_555
