# generated using pymatgen
data_Ca(BiO2)2
_symmetry_space_group_name_H-M   'P 1'
_cell_length_a   3.41437200
_cell_length_b   10.25341500
_cell_length_c   12.54953600
_cell_angle_alpha   90.00000000
_cell_angle_beta   90.00000000
_cell_angle_gamma   90.00000000
_symmetry_Int_Tables_number   1
_chemical_formula_structural   Ca(BiO2)2
_chemical_formula_sum   'Ca4 Bi8 O16'
_cell_volume   439.34636800
_cell_formula_units_Z   4
loop_
 _symmetry_equiv_pos_site_id
 _symmetry_equiv_pos_as_xyz
  1  'x, y, z'
loop_
 _atom_site_type_symbol
 _atom_site_label
 _atom_site_symmetry_multiplicity
 _atom_site_fract_x
 _atom_site_fract_y
 _atom_site_fract_z
 _atom_site_occupancy
  Ca  Ca0  1  0.75000000  0.23971000  0.34894200  1
  Ca  Ca1  1  0.25000000  0.76029000  0.65105800  1
  Ca  Ca2  1  0.75000000  0.73971000  0.15105800  1
  Ca  Ca3  1  0.25000000  0.26029000  0.84894200  1
  Bi  Bi0  1  0.25000000  0.41645100  0.10859600  1
  Bi  Bi1  1  0.75000000  0.08354900  0.60859600  1
  Bi  Bi2  1  0.25000000  0.91645100  0.39140400  1
  Bi  Bi3  1  0.75000000  0.58354900  0.89140400  1
  Bi  Bi4  1  0.75000000  0.57096000  0.37877000  1
  Bi  Bi5  1  0.25000000  0.42904000  0.62123000  1
  Bi  Bi6  1  0.75000000  0.07096000  0.12123000  1
  Bi  Bi7  1  0.25000000  0.92904000  0.87877000  1
  O  O0  1  0.25000000  0.91777900  0.09286400  1
  O  O1  1  0.75000000  0.08222100  0.90713600  1
  O  O2  1  0.25000000  0.41777900  0.40713600  1
  O  O3  1  0.75000000  0.58222100  0.59286400  1
  O  O4  1  0.25000000  0.01739100  0.71581000  1
  O  O5  1  0.75000000  0.98260900  0.28419000  1
  O  O6  1  0.25000000  0.51739100  0.78419000  1
  O  O7  1  0.75000000  0.48260900  0.21581000  1
  O  O8  1  0.25000000  0.62833900  0.04097300  1
  O  O9  1  0.75000000  0.37166100  0.95902700  1
  O  O10  1  0.25000000  0.12834000  0.45902700  1
  O  O11  1  0.75000000  0.87166100  0.54097300  1
  O  O12  1  0.75000000  0.79188200  0.79100000  1
  O  O13  1  0.25000000  0.20811800  0.20900000  1
  O  O14  1  0.25000000  0.70811800  0.29100000  1
  O  O15  1  0.75000000  0.29188200  0.70900000  1
loop_
_geom_bond_atom_site_label_1
_geom_bond_atom_site_label_2
_geom_bond_distance
_geom_bond_site_symmetry_2
Ca0 O13 2.470562 1_555
Ca0 O13 2.470562 1_655
Ca0 O10 2.475289 1_655
Ca0 O10 2.475289 1_555
Ca0 O2 2.604119 1_655
Ca0 O2 2.604119 1_555
Ca0 O5 2.758566 1_545
Ca0 O7 2.999033 1_555
Ca1 O12 2.470562 1_455
Ca1 O12 2.470562 1_555
Ca1 O11 2.475294 1_555
Ca1 O11 2.475294 1_455
Ca1 O3 2.604119 1_455
Ca1 O3 2.604119 1_555
Ca1 O4 2.758566 1_565
Ca1 O6 2.999033 1_555
Ca2 O14 2.470562 1_555
Ca2 O14 2.470562 1_655
Ca2 O8 2.475294 1_555
Ca2 O8 2.475294 1_655
Ca2 O0 2.604119 1_555
Ca2 O0 2.604119 1_655
Ca2 O7 2.758566 1_555
Ca2 O5 2.999033 1_555
Ca3 O15 2.470562 1_455
Ca3 O15 2.470562 1_555
Ca3 O9 2.475294 1_555
Ca3 O9 2.475294 1_455
Ca3 O1 2.604119 1_455
Ca3 O1 2.604119 1_555
Ca3 O6 2.758566 1_555
Ca3 O4 2.999033 1_555
Bi0 O7 2.277053 1_555
Bi0 O7 2.277053 1_455
Bi0 O8 2.332439 1_555
Bi0 O13 2.480058 1_555
Bi0 O9 2.578489 1_554
Bi0 O9 2.578489 1_454
Bi1 O4 2.277053 1_555
Bi1 O4 2.277053 1_655
Bi1 O11 2.332439 1_545
Bi1 O15 2.480058 1_555
Bi1 O10 2.578491 1_655
Bi1 O10 2.578491 1_555
Bi2 O5 2.277053 1_555
Bi2 O5 2.277053 1_455
Bi2 O10 2.332448 1_565
Bi2 O14 2.480058 1_555
Bi2 O11 2.578489 1_555
Bi2 O11 2.578489 1_455
Bi3 O6 2.277053 1_555
Bi3 O6 2.277053 1_655
Bi3 O9 2.332439 1_555
Bi3 O12 2.480058 1_555
Bi3 O8 2.578489 1_656
Bi3 O8 2.578489 1_556
Bi4 O7 2.236733 1_555
Bi4 O2 2.346930 1_555
Bi4 O2 2.346930 1_655
Bi4 O14 2.470934 1_655
Bi4 O14 2.470934 1_555
Bi4 O3 2.689260 1_555
Bi5 O6 2.236733 1_555
Bi5 O3 2.346930 1_455
Bi5 O3 2.346930 1_555
Bi5 O15 2.470934 1_555
Bi5 O15 2.470934 1_455
Bi5 O2 2.689260 1_555
Bi6 O5 2.236733 1_545
Bi6 O0 2.346930 1_545
Bi6 O0 2.346930 1_645
Bi6 O13 2.470934 1_655
Bi6 O13 2.470934 1_555
Bi6 O1 2.689260 1_554
Bi7 O4 2.236733 1_565
Bi7 O1 2.346930 1_465
Bi7 O1 2.346930 1_565
Bi7 O12 2.470934 1_455
Bi7 O12 2.470934 1_555
Bi7 O0 2.689260 1_556
