# generated using pymatgen
data_Cr3Fe2O15
_symmetry_space_group_name_H-M   'P 1'
_cell_length_a   5.61035100
_cell_length_b   14.79417900
_cell_length_c   17.73188261
_cell_angle_alpha   73.86727696
_cell_angle_beta   90.00000000
_cell_angle_gamma   90.00000000
_symmetry_Int_Tables_number   1
_chemical_formula_structural   Cr3Fe2O15
_chemical_formula_sum   'Cr12 Fe8 O60'
_cell_volume   1413.79894214
_cell_formula_units_Z   4
loop_
 _symmetry_equiv_pos_site_id
 _symmetry_equiv_pos_as_xyz
  1  'x, y, z'
loop_
 _atom_site_type_symbol
 _atom_site_label
 _atom_site_symmetry_multiplicity
 _atom_site_fract_x
 _atom_site_fract_y
 _atom_site_fract_z
 _atom_site_occupancy
  Cr  Cr0  1  0.87633400  0.39162700  0.11607800  1
  Cr  Cr1  1  0.37633400  0.10837300  0.88392200  1
  Cr  Cr2  1  0.12366600  0.60837300  0.88392200  1
  Cr  Cr3  1  0.62366600  0.89162700  0.11607800  1
  Cr  Cr4  1  0.92316400  0.15828300  0.44585800  1
  Cr  Cr5  1  0.42316400  0.34171700  0.55414200  1
  Cr  Cr6  1  0.07683600  0.84171700  0.55414200  1
  Cr  Cr7  1  0.57683600  0.65828300  0.44585800  1
  Cr  Cr8  1  0.37977000  0.16178300  0.10571200  1
  Cr  Cr9  1  0.87977000  0.33821700  0.89428800  1
  Cr  Cr10  1  0.62023000  0.83821700  0.89428800  1
  Cr  Cr11  1  0.12023000  0.66178300  0.10571200  1
  Fe  Fe0  1  0.88445800  0.09351700  0.01244600  1
  Fe  Fe1  1  0.38445800  0.40648300  0.98755400  1
  Fe  Fe2  1  0.11554200  0.90648300  0.98755400  1
  Fe  Fe3  1  0.61554200  0.59351700  0.01244600  1
  Fe  Fe4  1  0.67312500  0.37265500  0.36950700  1
  Fe  Fe5  1  0.17312500  0.12734500  0.63049300  1
  Fe  Fe6  1  0.32687500  0.62734500  0.63049300  1
  Fe  Fe7  1  0.82687500  0.87265500  0.36950700  1
  O  O0  1  0.52733700  0.33560700  0.45961800  1
  O  O1  1  0.02733700  0.16439300  0.54038200  1
  O  O2  1  0.47266300  0.66439300  0.54038200  1
  O  O3  1  0.97266300  0.83560700  0.45961800  1
  O  O4  1  0.62205500  0.10144900  0.08713700  1
  O  O5  1  0.12205500  0.39855100  0.91286300  1
  O  O6  1  0.37794500  0.89855100  0.91286300  1
  O  O7  1  0.87794500  0.60144900  0.08713700  1
  O  O8  1  0.67071100  0.10676300  0.45261400  1
  O  O9  1  0.17071100  0.39323700  0.54738600  1
  O  O10  1  0.32928900  0.89323700  0.54738600  1
  O  O11  1  0.82928900  0.60676300  0.45261400  1
  O  O12  1  0.63363800  0.44663400  0.05702400  1
  O  O13  1  0.13363800  0.05336600  0.94297600  1
  O  O14  1  0.36636200  0.55336600  0.94297600  1
  O  O15  1  0.86636200  0.94663400  0.05702400  1
  O  O16  1  0.38178400  0.16425400  0.19547600  1
  O  O17  1  0.88178400  0.33574600  0.80452400  1
  O  O18  1  0.61821600  0.83574600  0.80452400  1
  O  O19  1  0.11821600  0.66425400  0.19547600  1
  O  O20  1  0.84270300  0.27936900  0.14075200  1
  O  O21  1  0.34270300  0.22063100  0.85924800  1
  O  O22  1  0.15729700  0.72063100  0.85924800  1
  O  O23  1  0.65729700  0.77936900  0.14075200  1
  O  O24  1  0.90020700  0.42548300  0.19615800  1
  O  O25  1  0.40020700  0.07451700  0.80384200  1
  O  O26  1  0.09979300  0.57451700  0.80384200  1
  O  O27  1  0.59979300  0.92548300  0.19615800  1
  O  O28  1  0.90195600  0.27383800  0.39181100  1
  O  O29  1  0.40195600  0.22616200  0.60818900  1
  O  O30  1  0.09804400  0.72616200  0.60818900  1
  O  O31  1  0.59804400  0.77383800  0.39181100  1
  O  O32  1  0.12904400  0.41987100  0.06398100  1
  O  O33  1  0.62904400  0.08012900  0.93601900  1
  O  O34  1  0.87095600  0.58012900  0.93601900  1
  O  O35  1  0.37095600  0.91987100  0.06398100  1
  O  O36  1  0.13215700  0.10541400  0.08866700  1
  O  O37  1  0.63215700  0.39458600  0.91133300  1
  O  O38  1  0.86784300  0.89458600  0.91133300  1
  O  O39  1  0.36784300  0.60541400  0.08866700  1
  O  O40  1  0.10989900  0.10471100  0.40461100  1
  O  O41  1  0.60989900  0.39528900  0.59538900  1
  O  O42  1  0.89010100  0.89528900  0.59538900  1
  O  O43  1  0.39010100  0.60471100  0.40461100  1
  O  O44  1  0.38938100  0.27035300  0.04337500  1
  O  O45  1  0.88938100  0.22964700  0.95662500  1
  O  O46  1  0.61061900  0.72964700  0.95662500  1
  O  O47  1  0.11061900  0.77035300  0.04337500  1
  O  O48  1  0.49836100  0.47587100  0.32988600  1
  O  O49  1  0.99836100  0.02412900  0.67011400  1
  O  O50  1  0.50163900  0.52412900  0.67011400  1
  O  O51  1  0.00163900  0.97587100  0.32988600  1
  O  O52  1  0.88576800  0.45282400  0.34905300  1
  O  O53  1  0.38576800  0.04717600  0.65094700  1
  O  O54  1  0.11423200  0.54717600  0.65094700  1
  O  O55  1  0.61423200  0.95282400  0.34905300  1
  O  O56  1  0.56997500  0.34221300  0.29282000  1
  O  O57  1  0.06997500  0.15778700  0.70718000  1
  O  O58  1  0.43002500  0.65778700  0.70718000  1
  O  O59  1  0.93002500  0.84221300  0.29282000  1
loop_
_geom_bond_atom_site_label_1
_geom_bond_atom_site_label_2
_geom_bond_distance
_geom_bond_site_symmetry_2
Cr0 O20 1.606662 1_555
Cr0 O24 1.637183 1_555
Cr0 O32 1.680353 1_655
Cr0 O12 1.771769 1_555
Cr1 O21 1.606662 1_555
Cr1 O25 1.637183 1_555
Cr1 O33 1.680353 1_555
Cr1 O13 1.771769 1_555
Cr2 O22 1.606662 1_555
Cr2 O26 1.637183 1_555
Cr2 O34 1.680353 1_455
Cr2 O14 1.771769 1_555
Cr3 O23 1.606662 1_555
Cr3 O27 1.637183 1_555
Cr3 O35 1.680353 1_555
Cr3 O15 1.771769 1_555
Cr4 O8 1.597059 1_555
Cr4 O40 1.607100 1_655
Cr4 O28 1.716001 1_555
Cr4 O1 1.800894 1_655
Cr5 O9 1.597059 1_555
Cr5 O41 1.607100 1_555
Cr5 O29 1.716001 1_555
Cr5 O0 1.800894 1_555
Cr6 O10 1.597059 1_555
Cr6 O42 1.607100 1_455
Cr6 O30 1.716001 1_555
Cr6 O3 1.800894 1_455
Cr7 O11 1.597059 1_555
Cr7 O43 1.607100 1_555
Cr7 O31 1.716001 1_555
Cr7 O2 1.800894 1_555
Cr8 O16 1.602267 1_555
Cr8 O44 1.678676 1_555
Cr8 O36 1.690186 1_555
Cr8 O4 1.707715 1_555
Cr9 O17 1.602267 1_555
Cr9 O45 1.678676 1_555
Cr9 O37 1.690186 1_555
Cr9 O5 1.707715 1_655
Cr10 O18 1.602267 1_555
Cr10 O46 1.678676 1_555
Cr10 O38 1.690186 1_555
Cr10 O6 1.707715 1_555
Cr11 O19 1.602267 1_555
Cr11 O47 1.678676 1_555
Cr11 O39 1.690186 1_555
Cr11 O7 1.707715 1_455
Fe0 O36 1.980163 1_655
Fe0 O45 1.982074 1_554
Fe0 O4 2.005368 1_555
Fe0 O33 2.019487 1_554
Fe0 O13 2.057001 1_654
Fe0 O15 2.098227 1_545
Fe1 O37 1.980163 1_555
Fe1 O44 1.982074 1_556
Fe1 O5 2.005368 1_555
Fe1 O32 2.019487 1_556
Fe1 O12 2.057001 1_556
Fe1 O14 2.098227 1_555
Fe2 O38 1.980163 1_455
Fe2 O47 1.982074 1_556
Fe2 O6 2.005368 1_555
Fe2 O35 2.019487 1_556
Fe2 O15 2.057001 1_456
Fe2 O13 2.098227 1_565
Fe3 O39 1.980163 1_555
Fe3 O46 1.982074 1_554
Fe3 O7 2.005368 1_555
Fe3 O34 2.019487 1_554
Fe3 O14 2.057001 1_554
Fe3 O12 2.098227 1_555
Fe4 O52 1.649976 1_555
Fe4 O56 1.651403 1_555
Fe4 O0 1.742355 1_555
Fe4 O48 1.786189 1_555
Fe4 O28 1.902762 1_555
Fe5 O53 1.649976 1_555
Fe5 O57 1.651403 1_555
Fe5 O1 1.742355 1_555
Fe5 O49 1.786189 1_455
Fe5 O29 1.902762 1_555
Fe6 O54 1.649976 1_555
Fe6 O58 1.651403 1_555
Fe6 O2 1.742355 1_555
Fe6 O50 1.786189 1_555
Fe6 O30 1.902762 1_555
Fe7 O55 1.649976 1_555
Fe7 O59 1.651403 1_555
Fe7 O3 1.742355 1_555
Fe7 O51 1.786189 1_655
Fe7 O31 1.902762 1_555
