# generated using pymatgen
data_BaLaPrMn3O9
_symmetry_space_group_name_H-M   'P 1'
_cell_length_a   5.63537979
_cell_length_b   5.63537979
_cell_length_c   13.56515500
_cell_angle_alpha   90.00000000
_cell_angle_beta   90.00000000
_cell_angle_gamma   119.99999756
_symmetry_Int_Tables_number   1
_chemical_formula_structural   BaLaPrMn3O9
_chemical_formula_sum   'Ba2 La2 Pr2 Mn6 O18'
_cell_volume   373.07984145
_cell_formula_units_Z   2
loop_
 _symmetry_equiv_pos_site_id
 _symmetry_equiv_pos_as_xyz
  1  'x, y, z'
loop_
 _atom_site_type_symbol
 _atom_site_label
 _atom_site_symmetry_multiplicity
 _atom_site_fract_x
 _atom_site_fract_y
 _atom_site_fract_z
 _atom_site_occupancy
  Ba  Ba0  1  0.00000000  0.00000000  0.00000000  1
  Ba  Ba1  1  0.00000000  0.00000000  0.50000000  1
  La  La0  1  0.66666700  0.33333300  0.83189000  1
  La  La1  1  0.33333300  0.66666700  0.16811000  1
  Pr  Pr0  1  0.66666700  0.33333300  0.33217400  1
  Pr  Pr1  1  0.33333300  0.66666700  0.66782600  1
  Mn  Mn0  1  0.66666700  0.33333300  0.58324700  1
  Mn  Mn1  1  0.00000000  0.00000000  0.25030100  1
  Mn  Mn2  1  0.33333300  0.66666700  0.91656700  1
  Mn  Mn3  1  0.66666700  0.33333300  0.08343300  1
  Mn  Mn4  1  0.00000000  0.00000000  0.74969900  1
  Mn  Mn5  1  0.33333300  0.66666700  0.41675300  1
  O  O0  1  0.10821900  0.34227800  0.32686000  1
  O  O1  1  0.76594100  0.65772200  0.67314000  1
  O  O2  1  0.47742200  0.00000000  0.00000000  1
  O  O3  1  0.23405900  0.89178100  0.32686000  1
  O  O4  1  0.89178100  0.23405900  0.67314000  1
  O  O5  1  0.52257800  0.52257800  0.00000000  1
  O  O6  1  0.65772200  0.76594100  0.32686000  1
  O  O7  1  0.34227800  0.10821900  0.67314000  1
  O  O8  1  0.00000000  0.47742200  0.00000000  1
  O  O9  1  0.76961600  0.11264700  0.17410300  1
  O  O10  1  0.47628800  0.47628800  0.50000000  1
  O  O11  1  0.11264700  0.76961600  0.82589700  1
  O  O12  1  0.34303100  0.23038400  0.17410300  1
  O  O13  1  0.00000000  0.52371200  0.50000000  1
  O  O14  1  0.65696900  0.88735300  0.82589700  1
  O  O15  1  0.88735300  0.65696900  0.17410300  1
  O  O16  1  0.52371200  0.00000000  0.50000000  1
  O  O17  1  0.23038400  0.34303100  0.82589700  1
loop_
_geom_bond_atom_site_label_1
_geom_bond_atom_site_label_2
_geom_bond_distance
_geom_bond_site_symmetry_2
Ba0 O2 2.690454 1_555
Ba0 O8 2.690454 1_555
Ba0 O5 2.690454 1_445
Ba0 O9 2.913851 1_455
Ba0 O11 2.913851 1_544
Ba0 O14 2.913851 1_444
Ba0 O15 2.913851 1_445
Ba0 O17 2.913851 1_554
Ba0 O12 2.913851 1_555
Ba0 O2 2.944926 1_455
Ba0 O8 2.944926 1_545
Ba0 O5 2.944926 1_555
Ba1 O16 2.684064 1_455
Ba1 O13 2.684064 1_545
Ba1 O10 2.684064 1_555
Ba1 O4 2.903855 1_455
Ba1 O3 2.903855 1_545
Ba1 O7 2.903855 1_555
Ba1 O0 2.903855 1_555
Ba1 O1 2.903855 1_445
Ba1 O6 2.903855 1_445
Ba1 O16 2.951316 1_555
Ba1 O13 2.951316 1_555
Ba1 O10 2.951316 1_445
La0 O14 2.487720 1_545
La0 O11 2.487723 1_655
La0 O17 2.487726 1_555
La0 O4 2.696196 1_555
La0 O7 2.696199 1_555
La0 O1 2.696200 1_555
La0 O8 2.804111 1_656
La0 O2 2.804112 1_556
La0 O5 2.804114 1_556
La1 O15 2.487720 1_455
La1 O9 2.487723 1_565
La1 O12 2.487726 1_555
La1 O3 2.696196 1_555
La1 O0 2.696199 1_555
La1 O6 2.696200 1_555
La1 O2 2.804111 1_565
La1 O8 2.804112 1_555
La1 O5 2.804114 1_555
Mn0 O16 1.984826 1_555
Mn0 O13 1.984826 1_655
Mn0 O10 1.984830 1_555
Mn0 O4 2.029536 1_555
Mn0 O7 2.029539 1_555
Mn0 O1 2.029540 1_555
Mn1 O9 1.995281 1_455
Mn1 O15 1.995281 1_445
Mn1 O12 1.995282 1_555
Mn1 O3 1.998668 1_545
Mn1 O0 1.998668 1_555
Mn1 O6 1.998668 1_445
Mn2 O2 1.985843 1_566
Mn2 O8 1.985843 1_556
Mn2 O5 1.985847 1_556
Mn2 O11 2.029172 1_555
Mn2 O14 2.029176 1_555
Mn2 O17 2.029177 1_555
Mn3 O8 1.985843 1_655
Mn3 O2 1.985843 1_555
Mn3 O5 1.985847 1_555
Mn3 O9 2.029172 1_555
Mn3 O15 2.029176 1_555
Mn3 O12 2.029177 1_555
Mn4 O11 1.995281 1_545
Mn4 O14 1.995281 1_445
Mn4 O17 1.995282 1_555
Mn4 O4 1.998668 1_455
Mn4 O7 1.998668 1_555
Mn4 O1 1.998668 1_445
Mn5 O13 1.984826 1_555
Mn5 O16 1.984826 1_565
Mn5 O10 1.984830 1_555
Mn5 O3 2.029536 1_555
Mn5 O0 2.029539 1_555
Mn5 O6 2.029540 1_555
O0 Pr0 2.464550 1_455
O1 Pr1 2.464556 1_555
O3 Pr0 2.464553 1_565
O4 Pr1 2.464553 1_655
O6 Pr0 2.464556 1_555
O7 Pr1 2.464550 1_545
O9 Pr0 2.683766 1_555
O10 Pr0 2.801280 1_555
O10 Pr1 2.801280 1_555
O11 Pr1 2.683766 1_555
O12 Pr0 2.683769 1_555
O13 Pr1 2.801277 1_555
O13 Pr0 2.801277 1_455
O14 Pr1 2.683768 1_555
O15 Pr0 2.683768 1_555
O16 Pr0 2.801277 1_555
O16 Pr1 2.801277 1_545
O17 Pr1 2.683769 1_555
