# generated using pymatgen
data_LiOsN2
_symmetry_space_group_name_H-M   'P 1'
_cell_length_a   5.64480500
_cell_length_b   11.48421500
_cell_length_c   14.31290900
_cell_angle_alpha   90.00000000
_cell_angle_beta   90.00000000
_cell_angle_gamma   90.00000000
_symmetry_Int_Tables_number   1
_chemical_formula_structural   LiOsN2
_chemical_formula_sum   'Li16 Os16 N32'
_cell_volume   927.85084664
_cell_formula_units_Z   16
loop_
 _symmetry_equiv_pos_site_id
 _symmetry_equiv_pos_as_xyz
  1  'x, y, z'
loop_
 _atom_site_type_symbol
 _atom_site_label
 _atom_site_symmetry_multiplicity
 _atom_site_fract_x
 _atom_site_fract_y
 _atom_site_fract_z
 _atom_site_occupancy
  Li  Li0  1  0.59701100  0.03136000  0.19277700  1
  Li  Li1  1  0.09701100  0.46864000  0.80722300  1
  Li  Li2  1  0.40298900  0.53136000  0.30722300  1
  Li  Li3  1  0.90298900  0.96864000  0.69277700  1
  Li  Li4  1  0.40298900  0.96864000  0.80722300  1
  Li  Li5  1  0.90298900  0.53136000  0.19277700  1
  Li  Li6  1  0.59701100  0.46864000  0.69277700  1
  Li  Li7  1  0.09701100  0.03136000  0.30722300  1
  Li  Li8  1  0.91826100  0.33946300  0.02163800  1
  Li  Li9  1  0.41826100  0.16053700  0.97836200  1
  Li  Li10  1  0.08173900  0.83946300  0.47836200  1
  Li  Li11  1  0.58173900  0.66053700  0.52163800  1
  Li  Li12  1  0.08173900  0.66053700  0.97836200  1
  Li  Li13  1  0.58173900  0.83946300  0.02163800  1
  Li  Li14  1  0.91826100  0.16053700  0.52163800  1
  Li  Li15  1  0.41826100  0.33946300  0.47836200  1
  Os  Os0  1  0.61606500  0.94573200  0.43355200  1
  Os  Os1  1  0.11606500  0.55426800  0.56644800  1
  Os  Os2  1  0.38393500  0.44573200  0.06644800  1
  Os  Os3  1  0.88393500  0.05426800  0.93355200  1
  Os  Os4  1  0.38393500  0.05426800  0.56644800  1
  Os  Os5  1  0.88393500  0.44573200  0.43355200  1
  Os  Os6  1  0.61606500  0.55426800  0.93355200  1
  Os  Os7  1  0.11606500  0.94573200  0.06644800  1
  Os  Os8  1  0.79282400  0.28533900  0.31324000  1
  Os  Os9  1  0.29282400  0.21466100  0.68676000  1
  Os  Os10  1  0.20717600  0.78533900  0.18676000  1
  Os  Os11  1  0.70717600  0.71466100  0.81324000  1
  Os  Os12  1  0.20717600  0.71466100  0.68676000  1
  Os  Os13  1  0.70717600  0.78533900  0.31324000  1
  Os  Os14  1  0.79282400  0.21466100  0.81324000  1
  Os  Os15  1  0.29282400  0.28533900  0.18676000  1
  N  N0  1  0.75029000  0.45588900  0.30875200  1
  N  N1  1  0.25029000  0.04411100  0.69124800  1
  N  N2  1  0.24971000  0.95588900  0.19124800  1
  N  N3  1  0.74971000  0.54411100  0.80875200  1
  N  N4  1  0.24971000  0.54411100  0.69124800  1
  N  N5  1  0.74971000  0.95588900  0.30875200  1
  N  N6  1  0.75029000  0.04411100  0.80875200  1
  N  N7  1  0.25029000  0.45588900  0.19124800  1
  N  N8  1  0.77864600  0.28707900  0.44970200  1
  N  N9  1  0.27864600  0.21292100  0.55029800  1
  N  N10  1  0.22135400  0.78707900  0.05029800  1
  N  N11  1  0.72135400  0.71292100  0.94970200  1
  N  N12  1  0.22135400  0.71292100  0.55029800  1
  N  N13  1  0.72135400  0.78707900  0.44970200  1
  N  N14  1  0.77864600  0.21292100  0.94970200  1
  N  N15  1  0.27864600  0.28707900  0.05029800  1
  N  N16  1  0.70741800  0.48156700  0.05613800  1
  N  N17  1  0.20741800  0.01843300  0.94386200  1
  N  N18  1  0.29258200  0.98156700  0.44386200  1
  N  N19  1  0.79258200  0.51843300  0.55613800  1
  N  N20  1  0.29258200  0.51843300  0.94386200  1
  N  N21  1  0.79258200  0.98156700  0.05613800  1
  N  N22  1  0.70741800  0.01843300  0.55613800  1
  N  N23  1  0.20741800  0.48156700  0.44386200  1
  N  N24  1  0.55490100  0.21879400  0.23264400  1
  N  N25  1  0.05490100  0.28120600  0.76735600  1
  N  N26  1  0.44509900  0.71879400  0.26735600  1
  N  N27  1  0.94509900  0.78120600  0.73264400  1
  N  N28  1  0.44509900  0.78120600  0.76735600  1
  N  N29  1  0.94509900  0.71879400  0.23264400  1
  N  N30  1  0.55490100  0.28120600  0.73264400  1
  N  N31  1  0.05490100  0.21879400  0.26735600  1
loop_
_geom_bond_atom_site_label_1
_geom_bond_atom_site_label_2
_geom_bond_distance
_geom_bond_site_symmetry_2
Li0 N5 2.061451 1_545
Li0 N2 2.143605 1_545
Li0 N24 2.239531 1_555
Li0 N21 2.317432 1_545
Li1 N4 2.061451 1_555
Li1 N3 2.143605 1_455
Li1 N25 2.239531 1_555
Li1 N20 2.317432 1_555
Li2 N7 2.061451 1_555
Li2 N0 2.143605 1_555
Li2 N26 2.239531 1_555
Li2 N23 2.317432 1_555
Li3 N6 2.061451 1_565
Li3 N1 2.143605 1_665
Li3 N27 2.239531 1_555
Li3 N22 2.317432 1_565
Li4 N1 2.061451 1_565
Li4 N6 2.143605 1_565
Li4 N28 2.239531 1_555
Li4 N17 2.317432 1_565
Li5 N0 2.061451 1_555
Li5 N7 2.143605 1_655
Li5 N29 2.239531 1_555
Li5 N16 2.317432 1_555
Li6 N3 2.061451 1_555
Li6 N4 2.143605 1_555
Li6 N30 2.239531 1_555
Li6 N19 2.317432 1_555
Li7 N2 2.061451 1_545
Li7 N5 2.143605 1_445
Li7 N31 2.239531 1_555
Li7 N18 2.317432 1_545
Li8 N14 1.947588 1_554
Li8 N16 2.079328 1_555
Li8 N15 2.160687 1_655
Li9 N15 1.947588 1_556
Li9 N17 2.079328 1_555
Li9 N14 2.160687 1_555
Li10 N12 1.947588 1_555
Li10 N18 2.079328 1_555
Li10 N13 2.160687 1_455
Li11 N13 1.947588 1_555
Li11 N19 2.079328 1_555
Li11 N12 2.160687 1_555
Li12 N10 1.947588 1_556
Li12 N20 2.079328 1_555
Li12 N11 2.160687 1_455
Li13 N11 1.947588 1_554
Li13 N21 2.079328 1_555
Li13 N10 2.160687 1_555
Li14 N8 1.947588 1_555
Li14 N22 2.079328 1_555
Li14 N9 2.160687 1_655
Li15 N9 1.947588 1_555
Li15 N23 2.079328 1_555
Li15 N8 2.160687 1_555
N0 Os5 1.942529 1_555
N0 Os8 1.974339 1_555
N1 Os4 1.942529 1_555
N1 Os9 1.974339 1_555
N2 Os7 1.942529 1_555
N2 Os10 1.974339 1_555
N3 Os6 1.942529 1_555
N3 Os11 1.974339 1_555
N4 Os1 1.942529 1_555
N4 Os12 1.974339 1_555
N5 Os0 1.942529 1_555
N5 Os13 1.974339 1_555
N6 Os3 1.942529 1_555
N6 Os14 1.974339 1_555
N7 Os2 1.942529 1_555
N7 Os15 1.974339 1_555
N8 Os5 1.930381 1_555
N8 Os8 1.954909 1_555
N9 Os4 1.930381 1_555
N9 Os9 1.954909 1_555
N10 Os7 1.930381 1_555
N10 Os10 1.954909 1_555
N11 Os6 1.930381 1_555
N11 Os11 1.954909 1_555
N12 Os1 1.930381 1_555
N12 Os12 1.954909 1_555
N13 Os0 1.930381 1_555
N13 Os13 1.954909 1_555
N14 Os3 1.930381 1_555
N14 Os14 1.954909 1_555
N15 Os2 1.930381 1_555
N15 Os15 1.954909 1_555
N16 Os2 1.877607 1_555
N16 Os6 2.010345 1_554
N17 Os3 1.877607 1_455
N17 Os7 2.010345 1_546
N18 Os0 1.877607 1_555
N18 Os4 2.010345 1_565
N19 Os1 1.877607 1_655
N19 Os5 2.010345 1_555
N20 Os6 1.877607 1_555
N20 Os2 2.010345 1_556
N21 Os7 1.877607 1_655
N21 Os3 2.010345 1_564
N22 Os4 1.877607 1_555
N22 Os0 2.010345 1_545
N23 Os5 1.877607 1_455
N23 Os1 2.010345 1_555
N24 Os15 1.789937 1_555
N24 Os8 1.928332 1_555
N25 Os14 1.789937 1_455
N25 Os9 1.928332 1_555
N26 Os13 1.789937 1_555
N26 Os10 1.928332 1_555
N27 Os12 1.789937 1_655
N27 Os11 1.928332 1_555
N28 Os11 1.789937 1_555
N28 Os12 1.928332 1_555
N29 Os10 1.789937 1_655
N29 Os13 1.928332 1_555
N30 Os9 1.789937 1_555
N30 Os14 1.928332 1_555
N31 Os8 1.789937 1_455
N31 Os15 1.928332 1_555
