# generated using pymatgen
data_LiMo6(Se3S)2
_symmetry_space_group_name_H-M   'P 1'
_cell_length_a   6.66791000
_cell_length_b   6.72007256
_cell_length_c   6.77037010
_cell_angle_alpha   91.48274208
_cell_angle_beta   91.46505732
_cell_angle_gamma   91.21607025
_symmetry_Int_Tables_number   1
_chemical_formula_structural   LiMo6(Se3S)2
_chemical_formula_sum   'Li1 Mo6 Se6 S2'
_cell_volume   303.09900231
_cell_formula_units_Z   1
loop_
 _symmetry_equiv_pos_site_id
 _symmetry_equiv_pos_as_xyz
  1  'x, y, z'
loop_
 _atom_site_type_symbol
 _atom_site_label
 _atom_site_symmetry_multiplicity
 _atom_site_fract_x
 _atom_site_fract_y
 _atom_site_fract_z
 _atom_site_occupancy
  Li  Li0  1  0.00187700  0.99910200  0.00023400  1
  Mo  Mo0  1  0.77115300  0.45017200  0.58505400  1
  Mo  Mo1  1  0.44671000  0.58913200  0.76665600  1
  Mo  Mo2  1  0.58856000  0.77539400  0.44619200  1
  Mo  Mo3  1  0.22387400  0.55522300  0.41472900  1
  Mo  Mo4  1  0.55108900  0.41935200  0.23159200  1
  Mo  Mo5  1  0.41174000  0.22003200  0.54875800  1
  Se  Se0  1  0.61564200  0.25526200  0.87391200  1
  Se  Se1  1  0.74892900  0.12687600  0.37815400  1
  Se  Se2  1  0.12551300  0.37656400  0.74666000  1
  Se  Se3  1  0.37657000  0.74934900  0.12372900  1
  Se  Se4  1  0.78165300  0.78218300  0.77620200  1
  Se  Se5  1  0.21628800  0.22265800  0.22376000  1
  S  S0  1  0.27457200  0.86660500  0.60732500  1
  S  S1  1  0.86582800  0.61209800  0.27704300  1
loop_
_geom_bond_atom_site_label_1
_geom_bond_atom_site_label_2
_geom_bond_distance
_geom_bond_site_symmetry_2
Li0 Se4 2.502532 1_454
Li0 Se5 2.504334 1_565
Li0 Se3 3.146720 1_555
Li0 Se2 3.204710 1_564
Li0 Se1 3.208924 1_465
Li0 Se0 3.237133 1_464
Mo0 S1 2.467158 1_555
Mo0 Se4 2.548920 1_555
Mo0 Se1 2.553912 1_555
Mo0 Se0 2.606551 1_555
Mo0 Se2 2.640122 1_655
Mo1 S0 2.467713 1_555
Mo1 Se2 2.547764 1_555
Mo1 Se4 2.557430 1_555
Mo1 Se0 2.641928 1_555
Mo1 Se3 2.677092 1_556
Mo2 S1 2.462333 1_555
Mo2 S0 2.466948 1_555
Mo2 Se4 2.548919 1_555
Mo2 Se3 2.570400 1_555
Mo2 Se1 2.628480 1_565
Mo3 S0 2.449363 1_555
Mo3 Se5 2.551696 1_555
Mo3 S1 2.580346 1_455
Mo3 Se3 2.607545 1_555
Mo3 Se2 2.665242 1_555
Mo4 S1 2.451064 1_555
Mo4 Se5 2.568802 1_555
Mo4 Se1 2.594597 1_555
Mo4 Se3 2.637252 1_555
Mo4 Se0 2.683419 1_554
Mo5 Se5 2.529172 1_555
Mo5 Se0 2.560683 1_555
Mo5 S0 2.570940 1_545
Mo5 Se2 2.585982 1_555
Mo5 Se1 2.633670 1_555
