# generated using pymatgen
data_Li9Mn2Co5O16
_symmetry_space_group_name_H-M   'P 1'
_cell_length_a   5.77487200
_cell_length_b   5.84818128
_cell_length_c   9.74080178
_cell_angle_alpha   90.60911714
_cell_angle_beta   98.49859538
_cell_angle_gamma   119.53716189
_symmetry_Int_Tables_number   1
_chemical_formula_structural   Li9Mn2Co5O16
_chemical_formula_sum   'Li9 Mn2 Co5 O16'
_cell_volume   281.73850881
_cell_formula_units_Z   1
loop_
 _symmetry_equiv_pos_site_id
 _symmetry_equiv_pos_as_xyz
  1  'x, y, z'
loop_
 _atom_site_type_symbol
 _atom_site_label
 _atom_site_symmetry_multiplicity
 _atom_site_fract_x
 _atom_site_fract_y
 _atom_site_fract_z
 _atom_site_occupancy
  Li  Li0  1  0.24832200  0.11984500  0.74780200  1
  Li  Li1  1  0.24611900  0.87523300  0.25078400  1
  Li  Li2  1  0.24440800  0.62826100  0.74054600  1
  Li  Li3  1  0.74978500  0.12246200  0.74597800  1
  Li  Li4  1  0.75474100  0.87342700  0.25675000  1
  Li  Li5  1  0.75127100  0.62454700  0.74915800  1
  Li  Li6  1  0.25142200  0.37545500  0.25462800  1
  Li  Li7  1  0.75428400  0.38487300  0.25408000  1
  Li  Li8  1  0.99999100  0.75021300  0.49985800  1
  Mn  Mn0  1  0.99987500  0.99871900  0.99994600  1
  Mn  Mn1  1  0.50095300  0.25116000  0.50044300  1
  Co  Co0  1  0.00023300  0.49863100  0.00029900  1
  Co  Co1  1  0.00011200  0.25061900  0.50037100  1
  Co  Co2  1  0.50033400  0.99903000  0.00040700  1
  Co  Co3  1  0.49971500  0.75007000  0.49887500  1
  Co  Co4  1  0.49894200  0.50056300  0.99978700  1
  O  O0  1  0.11383200  0.29113800  0.88486500  1
  O  O1  1  0.13731600  0.08655700  0.39135100  1
  O  O2  1  0.11925500  0.81864200  0.88145500  1
  O  O3  1  0.63549500  0.30609400  0.88515800  1
  O  O4  1  0.64577200  0.10007900  0.38271100  1
  O  O5  1  0.64381300  0.82332800  0.88260600  1
  O  O6  1  0.14083300  0.54895200  0.39624600  1
  O  O7  1  0.60864100  0.55353500  0.39152700  1
  O  O8  1  0.39104800  0.94575400  0.60696600  1
  O  O9  1  0.36516700  0.69595700  0.11694400  1
  O  O10  1  0.35625600  0.40289000  0.61828000  1
  O  O11  1  0.85753400  0.95019800  0.60160000  1
  O  O12  1  0.88461900  0.70554700  0.11829300  1
  O  O13  1  0.86440200  0.41579300  0.61020700  1
  O  O14  1  0.35461800  0.17411900  0.11611700  1
  O  O15  1  0.88089100  0.17830900  0.11596200  1
loop_
_geom_bond_atom_site_label_1
_geom_bond_atom_site_label_2
_geom_bond_distance
_geom_bond_site_symmetry_2
Li0 O10 1.994951 1_555
Li0 O2 2.096272 1_545
Li0 O0 2.105795 1_555
Li0 O3 2.158535 1_555
Li0 O8 2.174808 1_545
Li0 O11 2.217615 1_445
Li1 O12 2.035268 1_455
Li1 O9 2.053789 1_555
Li1 O14 2.092951 1_565
Li1 O1 2.186524 1_565
Li1 O4 2.191413 1_565
Li1 O6 2.277407 1_555
Li2 O13 2.103816 1_455
Li2 O10 2.146188 1_555
Li2 O8 2.164363 1_555
Li2 O2 2.167957 1_555
Li2 O5 2.228220 1_555
Li2 O0 2.310474 1_555
Li3 O8 2.055122 1_545
Li3 O11 2.055853 1_545
Li3 O0 2.075893 1_655
Li3 O13 2.077831 1_555
Li3 O3 2.087885 1_555
Li3 O5 2.107308 1_545
Li4 O12 2.083814 1_555
Li4 O1 2.132524 1_665
Li4 O15 2.158032 1_565
Li4 O4 2.162044 1_565
Li4 O9 2.180658 1_555
Li4 O7 2.181415 1_555
Li5 O2 2.060624 1_655
Li5 O5 2.084180 1_555
Li5 O10 2.167728 1_555
Li5 O3 2.181042 1_555
Li5 O13 2.182162 1_555
Li5 O11 2.288252 1_555
Li6 O7 2.038997 1_555
Li6 O6 2.051788 1_555
Li6 O1 2.066861 1_555
Li6 O15 2.100600 1_455
Li6 O14 2.111310 1_555
Li6 O9 2.200742 1_555
Li7 O4 1.995991 1_555
Li7 O7 2.143721 1_555
Li7 O6 2.183481 1_655
Li7 O12 2.188198 1_555
Li7 O14 2.212528 1_555
Li7 O15 2.220578 1_555
Li8 O11 2.047390 1_555
Li8 O6 2.055908 1_655
Li8 O8 2.056239 1_655
Li8 O7 2.061644 1_555
Li8 O1 2.090228 1_665
Li8 O13 2.092130 1_555
Mn0 O14 1.935892 1_666
Mn0 O0 1.939939 1_665
Mn0 O15 1.941166 1_566
Mn0 O5 1.946131 1_555
Mn0 O2 1.960027 1_655
Mn0 O12 1.963461 1_556
Mn1 O4 1.945695 1_555
Mn1 O8 1.945735 1_545
Mn1 O7 1.946784 1_555
Mn1 O1 1.947111 1_555
Mn1 O10 1.948341 1_555
Mn1 O13 1.948790 1_555
Co0 O3 1.974538 1_454
Co0 O9 1.982554 1_555
Co0 O0 2.034960 1_554
Co0 O12 2.055459 1_455
Co0 O15 2.062766 1_455
Co0 O2 2.080371 1_554
Co1 O11 1.894067 1_445
Co1 O6 1.901688 1_555
Co1 O1 1.911198 1_555
Co1 O13 1.914219 1_455
Co1 O4 1.945499 1_455
Co1 O10 1.953545 1_555
Co2 O9 1.994983 1_555
Co2 O3 2.003530 1_564
Co2 O14 2.032810 1_565
Co2 O5 2.038251 1_554
Co2 O15 2.041541 1_565
Co2 O2 2.056639 1_554
Co3 O11 1.902717 1_555
Co3 O6 1.907144 1_555
Co3 O8 1.920881 1_555
Co3 O7 1.921418 1_555
Co3 O4 2.193333 1_565
Co3 O10 2.199564 1_555
Co4 O0 2.061202 1_555
Co4 O3 2.068705 1_555
Co4 O9 2.075611 1_556
Co4 O12 2.075646 1_556
Co4 O5 2.082502 1_555
Co4 O14 2.092761 1_556
