# generated using pymatgen
data_Zn61Pd8
_symmetry_space_group_name_H-M   'P 1'
_cell_length_a   7.79930752
_cell_length_b   7.79930752
_cell_length_c   36.05874550
_cell_angle_alpha   90.00000000
_cell_angle_beta   90.00000000
_cell_angle_gamma   108.45948234
_symmetry_Int_Tables_number   1
_chemical_formula_structural   Zn61Pd8
_chemical_formula_sum   'Zn122 Pd16'
_cell_volume   2080.56805679
_cell_formula_units_Z   2
loop_
 _symmetry_equiv_pos_site_id
 _symmetry_equiv_pos_as_xyz
  1  'x, y, z'
loop_
 _atom_site_type_symbol
 _atom_site_label
 _atom_site_symmetry_multiplicity
 _atom_site_fract_x
 _atom_site_fract_y
 _atom_site_fract_z
 _atom_site_occupancy
  Zn  Zn0  1  0.32435905  0.09381602  0.34423510  1
  Zn  Zn1  1  0.67564095  0.90618398  0.65576490  1
  Zn  Zn2  1  0.17564095  0.40618398  0.84423510  1
  Zn  Zn3  1  0.59381602  0.82435905  0.15576490  1
  Zn  Zn4  1  0.82435905  0.59381602  0.15576490  1
  Zn  Zn5  1  0.40618398  0.17564095  0.84423510  1
  Zn  Zn6  1  0.90618398  0.67564095  0.65576490  1
  Zn  Zn7  1  0.09381602  0.32435905  0.34423510  1
  Zn  Zn8  1  0.41962540  0.77912592  0.08767978  1
  Zn  Zn9  1  0.58037460  0.22087408  0.91232022  1
  Zn  Zn10  1  0.08037460  0.72087408  0.58767978  1
  Zn  Zn11  1  0.27912592  0.91962540  0.41232022  1
  Zn  Zn12  1  0.91962540  0.27912592  0.41232022  1
  Zn  Zn13  1  0.72087408  0.08037460  0.58767978  1
  Zn  Zn14  1  0.22087408  0.58037460  0.91232022  1
  Zn  Zn15  1  0.77912592  0.41962540  0.08767978  1
  Zn  Zn16  1  0.04627087  0.04627087  0.46402676  1
  Zn  Zn17  1  0.95372913  0.95372913  0.53597324  1
  Zn  Zn18  1  0.45372913  0.45372913  0.96402676  1
  Zn  Zn19  1  0.54627087  0.54627087  0.03597324  1
  Zn  Zn20  1  0.27395428  0.91491493  0.03424771  1
  Zn  Zn21  1  0.72604572  0.08508507  0.96575229  1
  Zn  Zn22  1  0.22604572  0.58508507  0.53424771  1
  Zn  Zn23  1  0.41491493  0.77395428  0.46575229  1
  Zn  Zn24  1  0.77395428  0.41491493  0.46575229  1
  Zn  Zn25  1  0.58508507  0.22604572  0.53424771  1
  Zn  Zn26  1  0.08508507  0.72604572  0.96575229  1
  Zn  Zn27  1  0.91491493  0.27395428  0.03424771  1
  Zn  Zn28  1  0.40579757  0.15421320  0.22020456  1
  Zn  Zn29  1  0.59420243  0.84578680  0.77979544  1
  Zn  Zn30  1  0.09420243  0.34578680  0.72020456  1
  Zn  Zn31  1  0.65421320  0.90579757  0.27979544  1
  Zn  Zn32  1  0.90579757  0.65421320  0.27979544  1
  Zn  Zn33  1  0.34578680  0.09420243  0.72020456  1
  Zn  Zn34  1  0.84578680  0.59420243  0.77979544  1
  Zn  Zn35  1  0.15421320  0.40579757  0.22020456  1
  Zn  Zn36  1  0.57436194  0.21055907  0.02596561  1
  Zn  Zn37  1  0.42563806  0.78944093  0.97403439  1
  Zn  Zn38  1  0.92563806  0.28944093  0.52596561  1
  Zn  Zn39  1  0.71055907  0.07436194  0.47403439  1
  Zn  Zn40  1  0.07436194  0.71055907  0.47403439  1
  Zn  Zn41  1  0.28944093  0.92563806  0.52596561  1
  Zn  Zn42  1  0.78944093  0.42563806  0.97403439  1
  Zn  Zn43  1  0.21055907  0.57436194  0.02596561  1
  Zn  Zn44  1  0.03490125  0.03490125  0.07973515  1
  Zn  Zn45  1  0.96509875  0.96509875  0.92026485  1
  Zn  Zn46  1  0.46509875  0.46509875  0.57973515  1
  Zn  Zn47  1  0.53490125  0.53490125  0.42026485  1
  Zn  Zn48  1  0.72309921  0.08186071  0.10101138  1
  Zn  Zn49  1  0.27690079  0.91813929  0.89898862  1
  Zn  Zn50  1  0.77690079  0.41813929  0.60101138  1
  Zn  Zn51  1  0.58186071  0.22309921  0.39898862  1
  Zn  Zn52  1  0.22309921  0.58186071  0.39898862  1
  Zn  Zn53  1  0.41813929  0.77690079  0.60101138  1
  Zn  Zn54  1  0.91813929  0.27690079  0.89898862  1
  Zn  Zn55  1  0.08186071  0.72309921  0.10101138  1
  Zn  Zn56  1  0.66903728  0.90840198  0.03257192  1
  Zn  Zn57  1  0.33096272  0.09159802  0.96742808  1
  Zn  Zn58  1  0.83096272  0.59159802  0.53257192  1
  Zn  Zn59  1  0.40840198  0.16903728  0.46742808  1
  Zn  Zn60  1  0.16903728  0.40840198  0.46742808  1
  Zn  Zn61  1  0.59159802  0.83096272  0.53257192  1
  Zn  Zn62  1  0.09159802  0.33096272  0.96742808  1
  Zn  Zn63  1  0.90840198  0.66903728  0.03257192  1
  Zn  Zn64  1  0.39095832  0.13271768  0.09310282  1
  Zn  Zn65  1  0.60904168  0.86728232  0.90689718  1
  Zn  Zn66  1  0.10904168  0.36728232  0.59310282  1
  Zn  Zn67  1  0.63271768  0.89095832  0.40689718  1
  Zn  Zn68  1  0.89095832  0.63271768  0.40689718  1
  Zn  Zn69  1  0.36728232  0.10904168  0.59310282  1
  Zn  Zn70  1  0.86728232  0.60904168  0.90689718  1
  Zn  Zn71  1  0.13271768  0.39095832  0.09310282  1
  Zn  Zn72  1  0.29735189  0.93006698  0.15823863  1
  Zn  Zn73  1  0.70264811  0.06993302  0.84176137  1
  Zn  Zn74  1  0.20264811  0.56993302  0.65823863  1
  Zn  Zn75  1  0.43006698  0.79735189  0.34176137  1
  Zn  Zn76  1  0.79735189  0.43006698  0.34176137  1
  Zn  Zn77  1  0.56993302  0.20264811  0.65823863  1
  Zn  Zn78  1  0.06993302  0.70264811  0.84176137  1
  Zn  Zn79  1  0.93006698  0.29735189  0.15823863  1
  Zn  Zn80  1  0.57953833  0.21983829  0.28833853  1
  Zn  Zn81  1  0.42046167  0.78016171  0.71166147  1
  Zn  Zn82  1  0.92046167  0.28016171  0.78833853  1
  Zn  Zn83  1  0.71983829  0.07953833  0.21166147  1
  Zn  Zn84  1  0.07953833  0.71983829  0.21166147  1
  Zn  Zn85  1  0.28016171  0.92046167  0.78833853  1
  Zn  Zn86  1  0.78016171  0.42046167  0.71166147  1
  Zn  Zn87  1  0.21983829  0.57953833  0.28833853  1
  Zn  Zn88  1  0.48133639  0.48133639  0.11380082  1
  Zn  Zn89  1  0.51866361  0.51866361  0.88619918  1
  Zn  Zn90  1  0.01866361  0.01866361  0.61380082  1
  Zn  Zn91  1  0.98133639  0.98133639  0.38619918  1
  Zn  Zn92  1  0.45672420  0.45672420  0.34544198  1
  Zn  Zn93  1  0.54327580  0.54327580  0.65455802  1
  Zn  Zn94  1  0.04327580  0.04327580  0.84544198  1
  Zn  Zn95  1  0.95672420  0.95672420  0.15455802  1
  Zn  Zn96  1  0.27840699  0.91864289  0.27664588  1
  Zn  Zn97  1  0.72159301  0.08135711  0.72335412  1
  Zn  Zn98  1  0.22159301  0.58135711  0.77664588  1
  Zn  Zn99  1  0.41864289  0.77840699  0.22335412  1
  Zn  Zn100  1  0.77840699  0.41864289  0.22335412  1
  Zn  Zn101  1  0.58135711  0.22159301  0.77664588  1
  Zn  Zn102  1  0.08135711  0.72159301  0.72335412  1
  Zn  Zn103  1  0.91864289  0.27840699  0.27664588  1
  Zn  Zn104  1  0.58870125  0.23057258  0.15520304  1
  Zn  Zn105  1  0.41129875  0.76942742  0.84479696  1
  Zn  Zn106  1  0.91129875  0.26942742  0.65520304  1
  Zn  Zn107  1  0.73057258  0.08870125  0.34479696  1
  Zn  Zn108  1  0.08870125  0.73057258  0.34479696  1
  Zn  Zn109  1  0.26942742  0.91129875  0.65520304  1
  Zn  Zn110  1  0.76942742  0.41129875  0.84479696  1
  Zn  Zn111  1  0.23057258  0.58870125  0.15520304  1
  Zn  Zn112  1  0.00000000  0.00000000  0.00000000  1
  Zn  Zn113  1  0.50000000  0.50000000  0.50000000  1
  Zn  Zn114  1  0.04584314  0.04584314  0.22715317  1
  Zn  Zn115  1  0.95415686  0.95415686  0.77284683  1
  Zn  Zn116  1  0.45415686  0.45415686  0.72715317  1
  Zn  Zn117  1  0.54584314  0.54584314  0.27284683  1
  Zn  Zn118  1  0.49303394  0.49303394  0.19313433  1
  Zn  Zn119  1  0.50696606  0.50696606  0.80686567  1
  Zn  Zn120  1  0.00696606  0.00696606  0.69313433  1
  Zn  Zn121  1  0.99303394  0.99303394  0.30686567  1
  Pd  Pd0  1  0.24592149  0.24592149  0.15618710  1
  Pd  Pd1  1  0.75407851  0.75407851  0.84381290  1
  Pd  Pd2  1  0.25407851  0.25407851  0.65618710  1
  Pd  Pd3  1  0.74592149  0.74592149  0.34381290  1
  Pd  Pd4  1  0.25765524  0.25765524  0.28074150  1
  Pd  Pd5  1  0.74234476  0.74234476  0.71925850  1
  Pd  Pd6  1  0.24234476  0.24234476  0.78074150  1
  Pd  Pd7  1  0.75765524  0.75765524  0.21925850  1
  Pd  Pd8  1  0.25675588  0.25675588  0.03159337  1
  Pd  Pd9  1  0.74324412  0.74324412  0.96840663  1
  Pd  Pd10  1  0.24324412  0.24324412  0.53159337  1
  Pd  Pd11  1  0.75675588  0.75675588  0.46840663  1
  Pd  Pd12  1  0.25380611  0.25380611  0.40643675  1
  Pd  Pd13  1  0.74619389  0.74619389  0.59356325  1
  Pd  Pd14  1  0.24619389  0.24619389  0.90643675  1
  Pd  Pd15  1  0.75380611  0.75380611  0.09356325  1
loop_
_geom_bond_atom_site_label_1
_geom_bond_atom_site_label_2
_geom_bond_distance
_geom_bond_site_symmetry_2
Zn0 Zn92 2.688602 1_555
Zn0 Zn75 2.690950 1_545
Zn0 Zn96 2.761306 1_545
Zn0 Zn51 2.768710 1_555
Zn0 Zn11 2.773803 1_545
Zn0 Zn80 2.784018 1_555
Zn0 Zn121 2.797304 1_445
Zn0 Zn108 2.847321 1_545
Zn0 Zn7 2.917800 1_555
Zn0 Zn91 2.954734 1_445
Zn1 Zn93 2.688602 1_555
Zn1 Zn77 2.690950 1_565
Zn1 Zn97 2.761306 1_565
Zn1 Zn53 2.768710 1_555
Zn1 Zn13 2.773803 1_565
Zn1 Zn81 2.784018 1_555
Zn1 Zn120 2.797304 1_665
Zn1 Zn106 2.847321 1_565
Zn1 Zn6 2.917800 1_555
Zn1 Zn90 2.954734 1_665
Zn2 Zn94 2.688602 1_555
Zn2 Zn78 2.690950 1_555
Zn2 Zn98 2.761306 1_555
Zn2 Zn54 2.768710 1_455
Zn2 Zn82 2.784018 1_455
Zn2 Zn5 2.917800 1_555
Zn2 Zn89 2.954734 1_555
Zn3 Zn95 2.688602 1_555
Zn3 Zn72 2.690950 1_555
Zn3 Zn99 2.761306 1_555
Zn3 Zn48 2.768710 1_565
Zn3 Zn8 2.773803 1_555
Zn3 Zn83 2.784018 1_565
Zn3 Zn4 2.917800 1_555
Zn3 Zn88 2.954734 1_555
Zn4 Zn95 2.688602 1_555
Zn4 Zn79 2.690950 1_555
Zn4 Zn55 2.768710 1_655
Zn4 Zn84 2.784018 1_655
Zn4 Zn88 2.954734 1_555
Zn5 Zn94 2.688602 1_555
Zn5 Zn73 2.690950 1_555
Zn5 Zn9 2.773803 1_555
Zn5 Zn85 2.784018 1_545
Zn5 Zn89 2.954734 1_555
Zn6 Zn93 2.688602 1_555
Zn6 Zn74 2.690950 1_655
Zn6 Zn86 2.784018 1_555
Zn6 Zn90 2.954734 1_665
Zn7 Zn92 2.688602 1_555
Zn7 Zn76 2.690950 1_455
Zn7 Zn87 2.784018 1_555
Zn7 Zn91 2.954734 1_445
Zn8 Zn88 2.687185 1_555
Zn10 Zn53 2.575415 1_555
Zn10 Zn22 2.624219 1_555
Zn10 Zn90 2.687185 1_565
Zn10 Zn58 2.739920 1_455
Zn10 Zn6 2.773803 1_455
Zn10 Zn50 2.805194 1_455
Zn10 Zn66 2.843237 1_555
Zn10 Zn41 2.917582 1_555
Zn10 Zn17 2.980963 1_455
Zn10 Zn109 2.986863 1_555
Zn10 Zn74 3.078889 1_555
Zn10 Zn69 3.149731 1_565
Zn11 Zn52 2.575415 1_555
Zn11 Zn23 2.624219 1_555
Zn11 Zn91 2.687185 1_455
Zn11 Zn59 2.739920 1_565
Zn11 Zn51 2.805194 1_565
Zn11 Zn67 2.843237 1_555
Zn11 Zn40 2.917582 1_555
Zn11 Zn16 2.980963 1_565
Zn11 Zn75 3.078889 1_555
Zn11 Zn68 3.149731 1_455
Zn12 Zn51 2.575415 1_555
Zn12 Zn24 2.624219 1_555
Zn12 Zn91 2.687185 1_545
Zn12 Zn60 2.739920 1_655
Zn12 Zn7 2.773803 1_655
Zn12 Zn52 2.805194 1_655
Zn12 Zn68 2.843237 1_555
Zn12 Zn39 2.917582 1_555
Zn12 Zn16 2.980963 1_655
Zn12 Zn76 3.078889 1_555
Zn12 Zn67 3.149731 1_545
Zn13 Zn50 2.575415 1_555
Zn13 Zn25 2.624219 1_555
Zn13 Zn90 2.687185 1_655
Zn13 Zn61 2.739920 1_545
Zn13 Zn53 2.805194 1_545
Zn13 Zn69 2.843237 1_555
Zn13 Zn38 2.917582 1_555
Zn13 Zn17 2.980963 1_545
Zn13 Zn77 3.078889 1_555
Zn13 Zn66 3.149731 1_655
Zn14 Zn49 2.575415 1_555
Zn14 Zn26 2.624219 1_555
Zn14 Zn89 2.687185 1_555
Zn14 Zn62 2.739920 1_555
Zn14 Zn2 2.773803 1_555
Zn14 Zn54 2.805194 1_455
Zn14 Zn70 2.843237 1_455
Zn14 Zn37 2.917582 1_555
Zn14 Zn18 2.980963 1_555
Zn14 Zn78 3.078889 1_555
Zn14 Zn65 3.149731 1_555
Zn15 Zn48 2.575415 1_555
Zn15 Zn27 2.624219 1_555
Zn15 Zn88 2.687185 1_555
Zn15 Zn63 2.739920 1_555
Zn15 Zn4 2.773803 1_555
Zn15 Zn55 2.805194 1_655
Zn15 Zn71 2.843237 1_655
Zn15 Zn36 2.917582 1_555
Zn15 Zn19 2.980963 1_555
Zn15 Zn79 3.078889 1_555
Zn15 Zn64 3.149731 1_555
Zn16 Zn60 2.682602 1_555
Zn16 Zn59 2.682602 1_555
Zn16 Zn39 2.719760 1_455
Zn16 Zn40 2.719760 1_545
Zn16 Zn17 2.728072 1_445
Zn16 Zn91 2.868141 1_445
Zn17 Zn58 2.682602 1_555
Zn17 Zn61 2.682602 1_555
Zn17 Zn38 2.719760 1_565
Zn17 Zn41 2.719760 1_655
Zn17 Zn90 2.868141 1_665
Zn18 Zn62 2.682602 1_555
Zn18 Zn57 2.682602 1_555
Zn18 Zn37 2.719760 1_555
Zn18 Zn42 2.719760 1_555
Zn18 Zn19 2.728072 1_556
Zn18 Zn89 2.868141 1_555
Zn18 Zn9 2.980963 1_555
Zn19 Zn63 2.682602 1_555
Zn19 Zn56 2.682602 1_555
Zn19 Zn43 2.719760 1_555
Zn19 Zn36 2.719760 1_555
Zn19 Zn88 2.868141 1_555
Zn19 Zn8 2.980963 1_555
Zn20 Zn43 2.560616 1_555
Zn20 Zn8 2.624219 1_555
Zn20 Zn64 2.690838 1_565
Zn20 Zn36 2.733916 1_565
Zn20 Zn57 2.741159 1_564
Zn20 Zn37 2.793665 1_554
Zn20 Zn44 2.854319 1_565
Zn20 Zn63 2.889172 1_455
Zn20 Zn55 2.976402 1_555
Zn20 Zn26 3.010953 1_554
Zn20 Zn56 3.098422 1_555
Zn21 Zn42 2.560616 1_555
Zn21 Zn9 2.624219 1_555
Zn21 Zn65 2.690838 1_545
Zn21 Zn37 2.733916 1_545
Zn21 Zn56 2.741159 1_546
Zn21 Zn36 2.793665 1_556
Zn21 Zn45 2.854319 1_545
Zn21 Zn62 2.889172 1_655
Zn21 Zn54 2.976402 1_555
Zn21 Zn27 3.010953 1_556
Zn21 Zn57 3.098422 1_555
Zn22 Zn41 2.560616 1_555
Zn22 Zn66 2.690838 1_555
Zn22 Zn38 2.733916 1_455
Zn22 Zn60 2.741159 1_555
Zn22 Zn40 2.793665 1_555
Zn22 Zn46 2.854319 1_555
Zn22 Zn61 2.889172 1_555
Zn22 Zn53 2.976402 1_555
Zn22 Zn23 3.010953 1_555
Zn22 Zn58 3.098422 1_455
Zn23 Zn40 2.560616 1_555
Zn23 Zn67 2.690838 1_555
Zn23 Zn39 2.733916 1_565
Zn23 Zn61 2.741159 1_555
Zn23 Zn41 2.793665 1_555
Zn23 Zn47 2.854319 1_555
Zn23 Zn60 2.889172 1_555
Zn23 Zn52 2.976402 1_555
Zn23 Zn59 3.098422 1_565
Zn24 Zn39 2.560616 1_555
Zn24 Zn68 2.690838 1_555
Zn24 Zn40 2.733916 1_655
Zn24 Zn58 2.741159 1_555
Zn24 Zn38 2.793665 1_555
Zn24 Zn47 2.854319 1_555
Zn24 Zn59 2.889172 1_555
Zn24 Zn51 2.976402 1_555
Zn24 Zn25 3.010953 1_555
Zn24 Zn60 3.098422 1_655
Zn25 Zn38 2.560616 1_555
Zn25 Zn69 2.690838 1_555
Zn25 Zn41 2.733916 1_545
Zn25 Zn59 2.741159 1_555
Zn25 Zn39 2.793665 1_555
Zn25 Zn46 2.854319 1_555
Zn25 Zn58 2.889172 1_555
Zn25 Zn50 2.976402 1_555
Zn25 Zn61 3.098422 1_545
Zn26 Zn37 2.560616 1_555
Zn26 Zn70 2.690838 1_455
Zn26 Zn42 2.733916 1_455
Zn26 Zn63 2.741159 1_456
Zn26 Zn43 2.793665 1_556
Zn26 Zn45 2.854319 1_455
Zn26 Zn57 2.889172 1_565
Zn26 Zn49 2.976402 1_555
Zn26 Zn62 3.098422 1_555
Zn27 Zn36 2.560616 1_555
Zn27 Zn71 2.690838 1_655
Zn27 Zn43 2.733916 1_655
Zn27 Zn62 2.741159 1_654
Zn27 Zn42 2.793665 1_554
Zn27 Zn44 2.854319 1_655
Zn27 Zn56 2.889172 1_545
Zn27 Zn48 2.976402 1_555
Zn27 Zn63 3.098422 1_555
Zn28 Zn83 2.708603 1_555
Zn28 Zn96 2.710872 1_545
Zn28 Zn80 2.773974 1_555
Zn28 Zn72 2.797816 1_545
Zn28 Zn99 2.966448 1_545
Zn29 Zn85 2.708603 1_555
Zn29 Zn97 2.710872 1_565
Zn29 Zn81 2.773974 1_555
Zn29 Zn73 2.797816 1_565
Zn29 Zn98 2.986001 1_555
Zn30 Zn86 2.708603 1_455
Zn30 Zn98 2.710872 1_555
Zn30 Zn82 2.773974 1_455
Zn30 Zn74 2.797816 1_555
Zn30 Zn97 2.986001 1_455
Zn31 Zn80 2.708603 1_565
Zn31 Zn99 2.710872 1_555
Zn31 Zn83 2.773974 1_565
Zn31 Zn75 2.797816 1_555
Zn31 Zn96 2.966448 1_555
Zn32 Zn87 2.708603 1_655
Zn32 Zn84 2.773974 1_655
Zn32 Zn76 2.797816 1_555
Zn32 Zn96 2.986001 1_655
Zn33 Zn81 2.708603 1_545
Zn33 Zn85 2.773974 1_545
Zn33 Zn77 2.797816 1_555
Zn33 Zn97 2.966448 1_555
Zn34 Zn82 2.708603 1_555
Zn34 Zn86 2.773974 1_555
Zn34 Zn78 2.797816 1_655
Zn34 Zn98 2.966448 1_655
Zn35 Zn84 2.708603 1_555
Zn35 Zn87 2.773974 1_555
Zn35 Zn79 2.797816 1_455
Zn35 Zn99 2.986001 1_555
Zn36 Zn56 2.693992 1_545
Zn36 Zn42 2.711527 1_554
Zn36 Zn64 2.779464 1_555
Zn36 Zn57 2.793672 1_554
Zn37 Zn57 2.693992 1_565
Zn37 Zn43 2.711527 1_556
Zn37 Zn65 2.779464 1_555
Zn37 Zn56 2.793672 1_556
Zn38 Zn58 2.693992 1_555
Zn38 Zn39 2.711527 1_555
Zn38 Zn66 2.779464 1_655
Zn38 Zn60 2.793672 1_655
Zn39 Zn59 2.693992 1_555
Zn39 Zn67 2.779464 1_545
Zn39 Zn61 2.793672 1_545
Zn40 Zn60 2.693992 1_555
Zn40 Zn41 2.711527 1_555
Zn40 Zn68 2.779464 1_455
Zn40 Zn58 2.793672 1_455
Zn41 Zn61 2.693992 1_555
Zn41 Zn69 2.779464 1_565
Zn41 Zn59 2.793672 1_565
Zn42 Zn62 2.693992 1_655
Zn42 Zn70 2.779464 1_555
Zn42 Zn63 2.793672 1_556
Zn42 Zn9 2.917582 1_555
Zn43 Zn63 2.693992 1_455
Zn43 Zn71 2.779464 1_555
Zn43 Zn62 2.793672 1_554
Zn43 Zn8 2.917582 1_555
Zn44 Zn71 2.680384 1_555
Zn44 Zn64 2.680384 1_555
Zn44 Zn48 2.683394 1_455
Zn44 Zn55 2.683394 1_545
Zn44 Zn95 2.790593 1_445
Zn45 Zn70 2.680384 1_555
Zn45 Zn65 2.680384 1_555
Zn45 Zn54 2.683394 1_565
Zn45 Zn49 2.683394 1_655
Zn45 Zn94 2.790593 1_665
Zn46 Zn66 2.680384 1_555
Zn46 Zn69 2.680384 1_555
Zn46 Zn53 2.683394 1_555
Zn46 Zn50 2.683394 1_555
Zn46 Zn93 2.790593 1_555
Zn47 Zn67 2.680384 1_555
Zn47 Zn68 2.680384 1_555
Zn47 Zn52 2.683394 1_555
Zn47 Zn51 2.683394 1_555
Zn47 Zn92 2.790593 1_555
Zn48 Zn64 2.756786 1_555
Zn48 Zn56 2.781549 1_545
Zn48 Zn8 2.805194 1_545
Zn48 Zn79 2.823212 1_555
Zn48 Zn95 3.021073 1_545
Zn49 Zn65 2.756786 1_555
Zn49 Zn5 2.768710 1_565
Zn49 Zn57 2.781549 1_565
Zn49 Zn9 2.805194 1_565
Zn49 Zn78 2.823212 1_555
Zn49 Zn94 3.021073 1_565
Zn50 Zn66 2.756786 1_655
Zn50 Zn6 2.768710 1_555
Zn50 Zn58 2.781549 1_555
Zn50 Zn77 2.823212 1_555
Zn50 Zn93 3.021073 1_555
Zn51 Zn67 2.756786 1_545
Zn51 Zn59 2.781549 1_555
Zn51 Zn76 2.823212 1_555
Zn51 Zn92 3.021073 1_555
Zn52 Zn68 2.756786 1_455
Zn52 Zn7 2.768710 1_555
Zn52 Zn60 2.781549 1_555
Zn52 Zn75 2.823212 1_555
Zn52 Zn92 3.021073 1_555
Zn53 Zn69 2.756786 1_565
Zn53 Zn61 2.781549 1_555
Zn53 Zn74 2.823212 1_555
Zn53 Zn93 3.021073 1_555
Zn54 Zn9 2.575415 1_555
Zn54 Zn70 2.756786 1_555
Zn54 Zn62 2.781549 1_655
Zn54 Zn73 2.823212 1_555
Zn54 Zn94 3.021073 1_655
Zn55 Zn8 2.575415 1_555
Zn55 Zn71 2.756786 1_555
Zn55 Zn63 2.781549 1_455
Zn55 Zn72 2.823212 1_555
Zn55 Zn95 3.021073 1_455
Zn56 Zn8 2.739920 1_555
Zn57 Zn9 2.739920 1_555
Zn64 Zn88 2.689436 1_555
Zn64 Zn72 2.795859 1_545
Zn64 Zn8 2.843237 1_545
Zn65 Zn89 2.689436 1_555
Zn65 Zn73 2.795859 1_565
Zn65 Zn9 2.843237 1_565
Zn66 Zn90 2.689436 1_555
Zn66 Zn74 2.795859 1_555
Zn67 Zn91 2.689436 1_555
Zn67 Zn75 2.795859 1_555
Zn68 Zn91 2.689436 1_555
Zn68 Zn76 2.795859 1_555
Zn69 Zn90 2.689436 1_555
Zn69 Zn77 2.795859 1_555
Zn70 Zn89 2.689436 1_555
Zn70 Zn78 2.795859 1_655
Zn70 Zn9 3.149731 1_555
Zn71 Zn88 2.689436 1_555
Zn71 Zn79 2.795859 1_455
Zn71 Zn8 3.149731 1_555
Zn72 Zn95 2.732849 1_455
Zn72 Zn84 2.742494 1_555
Zn72 Zn99 2.918155 1_555
Zn72 Zn8 3.078889 1_555
Zn73 Zn94 2.732849 1_655
Zn73 Zn82 2.742494 1_555
Zn73 Zn9 3.078889 1_555
Zn74 Zn93 2.732849 1_555
Zn74 Zn81 2.742494 1_555
Zn75 Zn92 2.732849 1_555
Zn75 Zn87 2.742494 1_555
Zn75 Zn96 2.918155 1_555
Zn76 Zn92 2.732849 1_555
Zn76 Zn80 2.742494 1_555
Zn77 Zn93 2.732849 1_555
Zn77 Zn86 2.742494 1_555
Zn77 Zn97 2.918155 1_555
Zn78 Zn94 2.732849 1_565
Zn78 Zn85 2.742494 1_555
Zn78 Zn98 2.918155 1_555
Zn79 Zn95 2.732849 1_545
Zn79 Zn83 2.742494 1_555
Zn80 Zn96 2.778176 1_545
Zn80 Zn92 3.113106 1_555
Zn81 Zn97 2.778176 1_565
Zn81 Zn98 2.962729 1_555
Zn81 Zn93 3.113106 1_555
Zn82 Zn98 2.778176 1_655
Zn82 Zn97 2.962729 1_555
Zn82 Zn94 3.113106 1_655
Zn83 Zn99 2.778176 1_545
Zn83 Zn95 3.113106 1_545
Zn84 Zn99 2.572203 1_555
Zn84 Zn96 2.962729 1_555
Zn84 Zn95 3.113106 1_455
Zn85 Zn98 2.572203 1_555
Zn85 Zn94 3.113106 1_565
Zn86 Zn97 2.572203 1_555
Zn86 Zn93 3.113106 1_555
Zn87 Zn96 2.572203 1_555
Zn87 Zn99 2.962729 1_555
Zn87 Zn92 3.113106 1_555
Zn89 Zn9 2.687185 1_555
Zn96 Zn99 2.615872 1_555
Zn100 Zn83 2.572203 1_555
Zn100 Zn103 2.615872 1_555
Zn100 Zn118 2.701040 1_555
Zn100 Zn32 2.710872 1_555
Zn100 Zn4 2.761306 1_555
Zn100 Zn84 2.778176 1_655
Zn100 Zn79 2.918155 1_555
Zn100 Zn117 2.932356 1_555
Zn100 Zn80 2.962729 1_555
Zn100 Zn35 2.966448 1_655
Zn100 Zn28 2.986001 1_555
Zn100 Zn104 3.000893 1_555
Zn101 Zn82 2.572203 1_555
Zn101 Zn97 2.615872 1_555
Zn101 Zn119 2.701040 1_555
Zn101 Zn33 2.710872 1_555
Zn101 Zn5 2.761306 1_555
Zn101 Zn85 2.778176 1_545
Zn101 Zn73 2.918155 1_555
Zn101 Zn116 2.932356 1_555
Zn101 Zn86 2.962729 1_555
Zn101 Zn29 2.966448 1_545
Zn101 Zn34 2.986001 1_555
Zn101 Zn110 3.000893 1_555
Zn102 Zn81 2.572203 1_555
Zn102 Zn98 2.615872 1_555
Zn102 Zn120 2.701040 1_565
Zn102 Zn34 2.710872 1_455
Zn102 Zn6 2.761306 1_455
Zn102 Zn86 2.778176 1_455
Zn102 Zn74 2.918155 1_555
Zn102 Zn115 2.932356 1_455
Zn102 Zn85 2.962729 1_555
Zn102 Zn30 2.966448 1_555
Zn102 Zn33 2.986001 1_565
Zn102 Zn109 3.000893 1_555
Zn103 Zn80 2.572203 1_555
Zn103 Zn121 2.701040 1_545
Zn103 Zn35 2.710872 1_655
Zn103 Zn7 2.761306 1_655
Zn103 Zn87 2.778176 1_655
Zn103 Zn76 2.918155 1_555
Zn103 Zn114 2.932356 1_655
Zn103 Zn83 2.962729 1_555
Zn103 Zn32 2.966448 1_555
Zn103 Zn31 2.986001 1_545
Zn103 Zn107 3.000893 1_555
Zn104 Zn79 2.548249 1_555
Zn104 Zn48 2.651857 1_555
Zn104 Zn64 2.688850 1_555
Zn104 Zn72 2.701096 1_545
Zn104 Zn83 2.709463 1_555
Zn104 Zn28 2.710237 1_555
Zn104 Zn118 2.754084 1_555
Zn104 Zn88 2.791448 1_555
Zn104 Zn4 2.847321 1_555
Zn104 Zn15 2.986863 1_555
Zn105 Zn78 2.548249 1_555
Zn105 Zn49 2.651857 1_555
Zn105 Zn65 2.688850 1_555
Zn105 Zn73 2.701096 1_565
Zn105 Zn85 2.709463 1_555
Zn105 Zn29 2.710237 1_555
Zn105 Zn119 2.754084 1_555
Zn105 Zn89 2.791448 1_555
Zn105 Zn2 2.847321 1_555
Zn105 Zn14 2.986863 1_555
Zn105 Zn98 3.000893 1_555
Zn106 Zn77 2.548249 1_555
Zn106 Zn50 2.651857 1_555
Zn106 Zn66 2.688850 1_655
Zn106 Zn74 2.701096 1_655
Zn106 Zn86 2.709463 1_555
Zn106 Zn30 2.710237 1_655
Zn106 Zn120 2.754084 1_655
Zn106 Zn90 2.791448 1_655
Zn106 Zn13 2.986863 1_555
Zn106 Zn97 3.000893 1_555
Zn107 Zn76 2.548249 1_555
Zn107 Zn51 2.651857 1_555
Zn107 Zn67 2.688850 1_545
Zn107 Zn75 2.701096 1_545
Zn107 Zn80 2.709463 1_555
Zn107 Zn31 2.710237 1_545
Zn107 Zn121 2.754084 1_545
Zn107 Zn91 2.791448 1_545
Zn107 Zn7 2.847321 1_655
Zn107 Zn12 2.986863 1_555
Zn108 Zn75 2.548249 1_555
Zn108 Zn52 2.651857 1_555
Zn108 Zn68 2.688850 1_455
Zn108 Zn76 2.701096 1_455
Zn108 Zn87 2.709463 1_555
Zn108 Zn32 2.710237 1_455
Zn108 Zn121 2.754084 1_455
Zn108 Zn91 2.791448 1_455
Zn108 Zn11 2.986863 1_555
Zn108 Zn96 3.000893 1_555
Zn109 Zn74 2.548249 1_555
Zn109 Zn53 2.651857 1_555
Zn109 Zn69 2.688850 1_565
Zn109 Zn77 2.701096 1_565
Zn109 Zn81 2.709463 1_555
Zn109 Zn33 2.710237 1_565
Zn109 Zn120 2.754084 1_565
Zn109 Zn90 2.791448 1_565
Zn109 Zn6 2.847321 1_455
Zn110 Zn73 2.548249 1_555
Zn110 Zn54 2.651857 1_555
Zn110 Zn70 2.688850 1_555
Zn110 Zn78 2.701096 1_655
Zn110 Zn82 2.709463 1_555
Zn110 Zn34 2.710237 1_555
Zn110 Zn119 2.754084 1_555
Zn110 Zn89 2.791448 1_555
Zn110 Zn5 2.847321 1_555
Zn110 Zn9 2.986863 1_555
Zn111 Zn72 2.548249 1_555
Zn111 Zn55 2.651857 1_555
Zn111 Zn71 2.688850 1_555
Zn111 Zn79 2.701096 1_455
Zn111 Zn84 2.709463 1_555
Zn111 Zn35 2.710237 1_555
Zn111 Zn118 2.754084 1_555
Zn111 Zn88 2.791448 1_555
Zn111 Zn3 2.847321 1_555
Zn111 Zn8 2.986863 1_555
Zn111 Zn99 3.000893 1_555
Zn112 Zn62 2.717543 1_554
Zn112 Zn57 2.717543 1_554
Zn112 Zn63 2.717543 1_445
Zn112 Zn56 2.717543 1_445
Zn112 Zn21 2.725549 1_454
Zn112 Zn26 2.725549 1_544
Zn112 Zn20 2.725549 1_545
Zn112 Zn27 2.725549 1_455
Zn112 Zn45 2.892707 1_444
Zn112 Zn44 2.892707 1_555
Zn113 Zn60 2.717543 1_555
Zn113 Zn59 2.717543 1_555
Zn113 Zn58 2.717543 1_555
Zn113 Zn61 2.717543 1_555
Zn113 Zn24 2.725549 1_555
Zn113 Zn23 2.725549 1_555
Zn113 Zn25 2.725549 1_555
Zn113 Zn22 2.725549 1_555
Zn113 Zn46 2.892707 1_555
Zn113 Zn47 2.892707 1_555
Zn114 Zn28 2.675067 1_555
Zn114 Zn35 2.675067 1_555
Zn114 Zn83 2.696133 1_455
Zn114 Zn84 2.696133 1_545
Zn114 Zn95 2.740911 1_445
Zn114 Zn121 2.914385 1_445
Zn114 Zn96 2.932356 1_545
Zn115 Zn34 2.675067 1_555
Zn115 Zn29 2.675067 1_555
Zn115 Zn85 2.696133 1_655
Zn115 Zn82 2.696133 1_565
Zn115 Zn94 2.740911 1_665
Zn115 Zn120 2.914385 1_665
Zn115 Zn97 2.932356 1_565
Zn116 Zn33 2.675067 1_555
Zn116 Zn30 2.675067 1_555
Zn116 Zn86 2.696133 1_555
Zn116 Zn81 2.696133 1_555
Zn116 Zn93 2.740911 1_555
Zn116 Zn119 2.914385 1_555
Zn116 Zn98 2.932356 1_555
Zn117 Zn32 2.675067 1_555
Zn117 Zn31 2.675067 1_555
Zn117 Zn80 2.696133 1_555
Zn117 Zn87 2.696133 1_555
Zn117 Zn92 2.740911 1_555
Zn117 Zn118 2.914385 1_555
Zn117 Zn99 2.932356 1_555
Zn118 Zn35 2.694494 1_555
Zn118 Zn28 2.694494 1_555
Zn118 Zn99 2.701040 1_555
Zn118 Zn4 2.797304 1_555
Zn118 Zn3 2.797304 1_555
Zn118 Zn88 2.862654 1_555
Zn119 Zn29 2.694494 1_555
Zn119 Zn34 2.694494 1_555
Zn119 Zn98 2.701040 1_555
Zn119 Zn2 2.797304 1_555
Zn119 Zn5 2.797304 1_555
Zn119 Zn89 2.862654 1_555
Zn120 Zn33 2.694494 1_555
Zn120 Zn30 2.694494 1_555
Zn120 Zn97 2.701040 1_455
Zn120 Zn6 2.797304 1_445
Zn120 Zn90 2.862654 1_555
Zn121 Zn31 2.694494 1_555
Zn121 Zn32 2.694494 1_555
Zn121 Zn96 2.701040 1_655
Zn121 Zn7 2.797304 1_665
Zn121 Zn91 2.862654 1_555
Pd0 Zn118 2.617572 1_555
Pd0 Zn72 2.619293 1_545
Pd0 Zn79 2.619293 1_455
Pd0 Zn88 2.635047 1_555
Pd0 Zn95 2.637544 1_445
Pd0 Zn104 2.713958 1_555
Pd0 Zn111 2.713958 1_555
Pd0 Zn64 2.804644 1_555
Pd0 Zn71 2.804644 1_555
Pd0 Zn35 2.821325 1_555
Pd0 Zn28 2.821325 1_555
Pd0 Zn114 3.142659 1_555
Pd1 Zn119 2.617572 1_555
Pd1 Zn73 2.619293 1_565
Pd1 Zn78 2.619293 1_655
Pd1 Zn89 2.635047 1_555
Pd1 Zn94 2.637544 1_665
Pd1 Zn110 2.713958 1_555
Pd1 Zn105 2.713958 1_555
Pd1 Zn65 2.804644 1_555
Pd1 Zn70 2.804644 1_555
Pd1 Zn34 2.821325 1_555
Pd1 Zn29 2.821325 1_555
Pd1 Zn115 3.142659 1_555
Pd2 Zn120 2.617572 1_555
Pd2 Zn77 2.619293 1_555
Pd2 Zn74 2.619293 1_555
Pd2 Zn90 2.635047 1_555
Pd2 Zn93 2.637544 1_555
Pd2 Zn109 2.713958 1_545
Pd2 Zn106 2.713958 1_455
Pd2 Zn66 2.804644 1_555
Pd2 Zn69 2.804644 1_555
Pd2 Zn33 2.821325 1_555
Pd2 Zn30 2.821325 1_555
Pd2 Zn116 3.142659 1_555
Pd3 Zn121 2.617572 1_555
Pd3 Zn75 2.619293 1_555
Pd3 Zn76 2.619293 1_555
Pd3 Zn91 2.635047 1_555
Pd3 Zn92 2.637544 1_555
Pd3 Zn108 2.713958 1_655
Pd3 Zn107 2.713958 1_565
Pd3 Zn68 2.804644 1_555
Pd3 Zn67 2.804644 1_555
Pd3 Zn31 2.821325 1_555
Pd3 Zn32 2.821325 1_555
Pd3 Zn117 3.142659 1_555
Pd4 Zn121 2.590176 1_445
Pd4 Zn87 2.633130 1_555
Pd4 Zn80 2.633130 1_555
Pd4 Zn117 2.643061 1_555
Pd4 Zn103 2.703714 1_455
Pd4 Zn96 2.703714 1_545
Pd4 Zn35 2.709456 1_555
Pd4 Zn28 2.709456 1_555
Pd4 Zn114 2.731994 1_555
Pd4 Zn7 2.750692 1_555
Pd4 Zn0 2.750692 1_555
Pd4 Zn92 2.955939 1_555
Pd5 Zn120 2.590176 1_665
Pd5 Zn86 2.633130 1_555
Pd5 Zn81 2.633130 1_555
Pd5 Zn116 2.643061 1_555
Pd5 Zn102 2.703714 1_655
Pd5 Zn97 2.703714 1_565
Pd5 Zn34 2.709456 1_555
Pd5 Zn29 2.709456 1_555
Pd5 Zn115 2.731994 1_555
Pd5 Zn6 2.750692 1_555
Pd5 Zn1 2.750692 1_555
Pd5 Zn93 2.955939 1_555
Pd6 Zn119 2.590176 1_555
Pd6 Zn85 2.633130 1_545
Pd6 Zn82 2.633130 1_455
Pd6 Zn115 2.643061 1_445
Pd6 Zn101 2.703714 1_555
Pd6 Zn98 2.703714 1_555
Pd6 Zn33 2.709456 1_555
Pd6 Zn30 2.709456 1_555
Pd6 Zn116 2.731994 1_555
Pd6 Zn5 2.750692 1_555
Pd6 Zn2 2.750692 1_555
Pd6 Zn94 2.955939 1_555
Pd7 Zn118 2.590176 1_555
Pd7 Zn83 2.633130 1_565
Pd7 Zn84 2.633130 1_655
Pd7 Zn114 2.643061 1_665
Pd7 Zn99 2.703714 1_555
Pd7 Zn100 2.703714 1_555
Pd7 Zn31 2.709456 1_555
Pd7 Zn32 2.709456 1_555
Pd7 Zn117 2.731994 1_555
Pd7 Zn3 2.750692 1_555
Pd7 Zn4 2.750692 1_555
Pd7 Zn95 2.955939 1_555
Pd8 Zn112 2.603559 1_555
Pd8 Zn43 2.621499 1_555
Pd8 Zn36 2.621499 1_555
Pd8 Zn19 2.644507 1_555
Pd8 Zn44 2.665601 1_555
Pd8 Zn20 2.713270 1_545
Pd8 Zn27 2.713270 1_455
Pd8 Zn64 2.755356 1_555
Pd8 Zn71 2.755356 1_555
Pd8 Zn62 2.796358 1_554
Pd8 Zn57 2.796358 1_554
Pd8 Zn18 3.026794 1_554
Pd9 Zn112 2.603559 1_666
Pd9 Zn42 2.621499 1_555
Pd9 Zn37 2.621499 1_555
Pd9 Zn18 2.644507 1_555
Pd9 Zn45 2.665601 1_555
Pd9 Zn26 2.713270 1_655
Pd9 Zn21 2.713270 1_565
Pd9 Zn65 2.755356 1_555
Pd9 Zn70 2.755356 1_555
Pd9 Zn56 2.796358 1_556
Pd9 Zn63 2.796358 1_556
Pd9 Zn19 3.026794 1_556
Pd10 Zn113 2.603559 1_555
Pd10 Zn41 2.621499 1_545
Pd10 Zn38 2.621499 1_455
Pd10 Zn17 2.644507 1_445
Pd10 Zn46 2.665601 1_555
Pd10 Zn25 2.713270 1_555
Pd10 Zn22 2.713270 1_555
Pd10 Zn66 2.755356 1_555
Pd10 Zn69 2.755356 1_555
Pd10 Zn59 2.796358 1_555
Pd10 Zn60 2.796358 1_555
Pd10 Zn16 3.026794 1_555
Pd11 Zn113 2.603559 1_555
Pd11 Zn39 2.621499 1_565
Pd11 Zn40 2.621499 1_655
Pd11 Zn16 2.644507 1_665
Pd11 Zn47 2.665601 1_555
Pd11 Zn23 2.713270 1_555
Pd11 Zn24 2.713270 1_555
Pd11 Zn68 2.755356 1_555
Pd11 Zn67 2.755356 1_555
Pd11 Zn58 2.796358 1_555
Pd11 Zn61 2.796358 1_555
Pd11 Zn17 3.026794 1_555
Pd12 Zn91 2.589326 1_445
Pd12 Zn47 2.611067 1_555
Pd12 Zn51 2.657811 1_555
Pd12 Zn52 2.657811 1_555
Pd12 Zn12 2.683869 1_455
Pd12 Zn11 2.683869 1_545
Pd12 Zn59 2.689335 1_555
Pd12 Zn60 2.689335 1_555
Pd12 Zn7 2.706530 1_555
Pd12 Zn0 2.706530 1_555
Pd12 Zn16 2.809476 1_555
Pd12 Zn92 2.874122 1_555
Pd13 Zn90 2.589326 1_665
Pd13 Zn46 2.611067 1_555
Pd13 Zn53 2.657811 1_555
Pd13 Zn50 2.657811 1_555
Pd13 Zn10 2.683869 1_655
Pd13 Zn13 2.683869 1_565
Pd13 Zn58 2.689335 1_555
Pd13 Zn61 2.689335 1_555
Pd13 Zn6 2.706530 1_555
Pd13 Zn1 2.706530 1_555
Pd13 Zn17 2.809476 1_555
Pd13 Zn93 2.874122 1_555
Pd14 Zn89 2.589326 1_555
Pd14 Zn45 2.611067 1_445
Pd14 Zn49 2.657811 1_545
Pd14 Zn54 2.657811 1_455
Pd14 Zn14 2.683869 1_555
Pd14 Zn9 2.683869 1_555
Pd14 Zn62 2.689335 1_555
Pd14 Zn57 2.689335 1_555
Pd14 Zn5 2.706530 1_555
Pd14 Zn2 2.706530 1_555
Pd14 Zn18 2.809476 1_555
Pd14 Zn94 2.874122 1_555
Pd15 Zn88 2.589326 1_555
Pd15 Zn44 2.611067 1_665
Pd15 Zn55 2.657811 1_655
Pd15 Zn48 2.657811 1_565
Pd15 Zn8 2.683869 1_555
Pd15 Zn15 2.683869 1_555
Pd15 Zn56 2.689335 1_555
Pd15 Zn63 2.689335 1_555
Pd15 Zn3 2.706530 1_555
Pd15 Zn4 2.706530 1_555
Pd15 Zn19 2.809476 1_555
Pd15 Zn95 2.874122 1_555
