# generated using pymatgen
data_Sr2YTaO6
_symmetry_space_group_name_H-M   'P 1'
_cell_length_a   5.80130217
_cell_length_b   5.87637564
_cell_length_c   8.23569302
_cell_angle_alpha   90.00000000
_cell_angle_beta   90.19007487
_cell_angle_gamma   90.00000000
_symmetry_Int_Tables_number   1
_chemical_formula_structural   Sr2YTaO6
_chemical_formula_sum   'Sr4 Y2 Ta2 O12'
_cell_volume   280.75842475
_cell_formula_units_Z   2
loop_
 _symmetry_equiv_pos_site_id
 _symmetry_equiv_pos_as_xyz
  1  'x, y, z'
loop_
 _atom_site_type_symbol
 _atom_site_label
 _atom_site_symmetry_multiplicity
 _atom_site_fract_x
 _atom_site_fract_y
 _atom_site_fract_z
 _atom_site_occupancy
  Sr  Sr0  1  0.99174682  0.46375884  0.24969589  1
  Sr  Sr1  1  0.50825318  0.96375884  0.25030411  1
  Sr  Sr2  1  0.49174682  0.03624116  0.74969589  1
  Sr  Sr3  1  0.00825318  0.53624116  0.75030411  1
  Y  Y0  1  0.00000000  0.00000000  0.00000000  1
  Y  Y1  1  0.50000000  0.50000000  0.50000000  1
  Ta  Ta0  1  0.50000000  0.50000000  0.00000000  1
  Ta  Ta1  1  0.00000000  0.00000000  0.50000000  1
  O  O0  1  0.80497689  0.72630098  0.45564924  1
  O  O1  1  0.69502311  0.22630098  0.04435076  1
  O  O2  1  0.19502311  0.27369902  0.54435076  1
  O  O3  1  0.30497689  0.77369902  0.95564924  1
  O  O4  1  0.72695382  0.19766010  0.45954076  1
  O  O5  1  0.77304618  0.69766010  0.04045924  1
  O  O6  1  0.27304618  0.80233990  0.54045924  1
  O  O7  1  0.22695382  0.30233990  0.95954076  1
  O  O8  1  0.07993604  0.02333832  0.26546832  1
  O  O9  1  0.42006396  0.52333832  0.23453168  1
  O  O10  1  0.92006396  0.97666168  0.73453168  1
  O  O11  1  0.57993604  0.47666168  0.76546832  1
loop_
_geom_bond_atom_site_label_1
_geom_bond_atom_site_label_2
_geom_bond_distance
_geom_bond_site_symmetry_2
O0 Ta1 1.999382 1_665
O0 Y1 2.244202 1_555
O0 Sr0 2.538384 1_555
O0 Sr1 2.784059 1_555
O0 Sr3 2.916827 1_655
O1 Ta0 1.999382 1_555
O1 Y0 2.244202 1_655
O1 Sr1 2.538384 1_545
O1 Sr0 2.784059 1_555
O1 Sr2 2.916827 1_554
O2 Ta1 1.999382 1_555
O2 Y1 2.244202 1_555
O2 Sr3 2.538384 1_555
O2 Sr2 2.784059 1_555
O2 Sr0 2.916827 1_455
O3 Ta0 1.999382 1_556
O3 Y0 2.244202 1_566
O3 Sr2 2.538384 1_565
O3 Sr3 2.784059 1_555
O3 Sr1 2.916827 1_556
O4 Ta1 1.991431 1_655
O4 Y1 2.236958 1_555
O4 Sr1 2.540451 1_545
O4 Sr0 2.794501 1_555
O4 Sr2 2.914378 1_555
O5 Ta0 1.991431 1_555
O5 Y0 2.236958 1_665
O5 Sr0 2.540451 1_555
O5 Sr1 2.794501 1_555
O5 Sr3 2.914378 1_654
O6 Ta1 1.991431 1_565
O6 Y1 2.236958 1_555
O6 Sr2 2.540451 1_565
O6 Sr3 2.794501 1_555
O6 Sr1 2.914378 1_555
O7 Ta0 1.991431 1_556
O7 Y0 2.236958 1_556
O7 Sr3 2.540451 1_555
O7 Sr2 2.794501 1_555
O7 Sr0 2.914378 1_456
O8 Ta1 1.992639 1_555
O8 Y0 2.237656 1_555
O8 Sr1 2.512857 1_545
O8 Sr0 2.641272 1_455
O9 Ta0 1.992639 1_555
O9 Y1 2.237656 1_555
O9 Sr0 2.512857 1_455
O9 Sr1 2.641272 1_555
O10 Ta1 1.992639 1_665
O10 Y0 2.237656 1_666
O10 Sr2 2.512857 1_565
O10 Sr3 2.641272 1_655
O11 Ta0 1.992639 1_556
O11 Y1 2.237656 1_555
O11 Sr3 2.512857 1_655
O11 Sr2 2.641272 1_555
