# generated using pymatgen
data_CeH12N5F4
_symmetry_space_group_name_H-M   'P 1'
_cell_length_a   9.67211500
_cell_length_b   9.67211500
_cell_length_c   10.59737700
_cell_angle_alpha   90.00000000
_cell_angle_beta   90.00000000
_cell_angle_gamma   90.00000000
_symmetry_Int_Tables_number   1
_chemical_formula_structural   CeH12N5F4
_chemical_formula_sum   'Ce4 H48 N20 F16'
_cell_volume   991.38258973
_cell_formula_units_Z   4
loop_
 _symmetry_equiv_pos_site_id
 _symmetry_equiv_pos_as_xyz
  1  'x, y, z'
loop_
 _atom_site_type_symbol
 _atom_site_label
 _atom_site_symmetry_multiplicity
 _atom_site_fract_x
 _atom_site_fract_y
 _atom_site_fract_z
 _atom_site_occupancy
  Ce  Ce0  1  0.00000000  0.00000000  0.25000000  1
  Ce  Ce1  1  0.00000000  0.00000000  0.75000000  1
  Ce  Ce2  1  0.50000000  0.50000000  0.75000000  1
  Ce  Ce3  1  0.50000000  0.50000000  0.25000000  1
  H  H0  1  0.75740900  0.08227500  0.66594400  1
  H  H1  1  0.24259100  0.08227500  0.16594400  1
  H  H2  1  0.75740900  0.91772500  0.16594400  1
  H  H3  1  0.24259100  0.91772500  0.66594400  1
  H  H4  1  0.58227500  0.25740900  0.16594400  1
  H  H5  1  0.41772500  0.25740900  0.66594400  1
  H  H6  1  0.58227500  0.74259100  0.66594400  1
  H  H7  1  0.41772500  0.74259100  0.16594400  1
  H  H8  1  0.74259100  0.41772500  0.33405600  1
  H  H9  1  0.25740900  0.41772500  0.83405600  1
  H  H10  1  0.74259100  0.58227500  0.83405600  1
  H  H11  1  0.25740900  0.58227500  0.33405600  1
  H  H12  1  0.91772500  0.24259100  0.83405600  1
  H  H13  1  0.08227500  0.24259100  0.33405600  1
  H  H14  1  0.91772500  0.75740900  0.33405600  1
  H  H15  1  0.08227500  0.75740900  0.83405600  1
  H  H16  1  0.74950500  0.75631500  0.35729000  1
  H  H17  1  0.25049500  0.75631500  0.85729000  1
  H  H18  1  0.74950500  0.24368500  0.85729000  1
  H  H19  1  0.25049500  0.24368500  0.35729000  1
  H  H20  1  0.25631500  0.24950500  0.85729000  1
  H  H21  1  0.74368500  0.24950500  0.35729000  1
  H  H22  1  0.25631500  0.75049500  0.35729000  1
  H  H23  1  0.74368500  0.75049500  0.85729000  1
  H  H24  1  0.75049500  0.74368500  0.64271000  1
  H  H25  1  0.24950500  0.74368500  0.14271000  1
  H  H26  1  0.75049500  0.25631500  0.14271000  1
  H  H27  1  0.24950500  0.25631500  0.64271000  1
  H  H28  1  0.24368500  0.25049500  0.14271000  1
  H  H29  1  0.75631500  0.25049500  0.64271000  1
  H  H30  1  0.24368500  0.74950500  0.64271000  1
  H  H31  1  0.75631500  0.74950500  0.14271000  1
  H  H32  1  0.60591400  0.98697600  0.30483100  1
  H  H33  1  0.39408600  0.98697600  0.80483100  1
  H  H34  1  0.60591400  0.01302400  0.80483100  1
  H  H35  1  0.39408600  0.01302400  0.30483100  1
  H  H36  1  0.48697600  0.10591400  0.80483100  1
  H  H37  1  0.51302400  0.10591400  0.30483100  1
  H  H38  1  0.48697600  0.89408600  0.30483100  1
  H  H39  1  0.51302400  0.89408600  0.80483100  1
  H  H40  1  0.89408600  0.51302400  0.69516900  1
  H  H41  1  0.10591400  0.51302400  0.19516900  1
  H  H42  1  0.89408600  0.48697600  0.19516900  1
  H  H43  1  0.10591400  0.48697600  0.69516900  1
  H  H44  1  0.01302400  0.39408600  0.19516900  1
  H  H45  1  0.98697600  0.39408600  0.69516900  1
  H  H46  1  0.01302400  0.60591400  0.69516900  1
  H  H47  1  0.98697600  0.60591400  0.19516900  1
  N  N0  1  0.81333800  0.82921000  0.18254500  1
  N  N1  1  0.18666200  0.82921000  0.68254500  1
  N  N2  1  0.81333800  0.17079000  0.68254500  1
  N  N3  1  0.18666200  0.17079000  0.18254500  1
  N  N4  1  0.32921000  0.31333800  0.68254500  1
  N  N5  1  0.67079000  0.31333800  0.18254500  1
  N  N6  1  0.32921000  0.68666200  0.18254500  1
  N  N7  1  0.67079000  0.68666200  0.68254500  1
  N  N8  1  0.68666200  0.67079000  0.81745500  1
  N  N9  1  0.31333800  0.67079000  0.31745500  1
  N  N10  1  0.68666200  0.32921000  0.31745500  1
  N  N11  1  0.31333800  0.32921000  0.81745500  1
  N  N12  1  0.17079000  0.18666200  0.31745500  1
  N  N13  1  0.82921000  0.18666200  0.81745500  1
  N  N14  1  0.17079000  0.81333800  0.81745500  1
  N  N15  1  0.82921000  0.81333800  0.31745500  1
  N  N16  1  0.00000000  0.50000000  0.22923800  1
  N  N17  1  0.00000000  0.50000000  0.72923800  1
  N  N18  1  0.50000000  0.00000000  0.77076200  1
  N  N19  1  0.50000000  0.00000000  0.27076200  1
  F  F0  1  0.87206900  0.13113500  0.37939400  1
  F  F1  1  0.12793100  0.13113500  0.87939400  1
  F  F2  1  0.87206900  0.86886500  0.87939400  1
  F  F3  1  0.12793100  0.86886500  0.37939400  1
  F  F4  1  0.63113500  0.37206900  0.87939400  1
  F  F5  1  0.36886500  0.37206900  0.37939400  1
  F  F6  1  0.63113500  0.62793100  0.37939400  1
  F  F7  1  0.36886500  0.62793100  0.87939400  1
  F  F8  1  0.62793100  0.36886500  0.62060600  1
  F  F9  1  0.37206900  0.36886500  0.12060600  1
  F  F10  1  0.62793100  0.63113500  0.12060600  1
  F  F11  1  0.37206900  0.63113500  0.62060600  1
  F  F12  1  0.86886500  0.12793100  0.12060600  1
  F  F13  1  0.13113500  0.12793100  0.62060600  1
  F  F14  1  0.86886500  0.87206900  0.62060600  1
  F  F15  1  0.13113500  0.87206900  0.12060600  1
loop_
_geom_bond_atom_site_label_1
_geom_bond_atom_site_label_2
_geom_bond_distance
_geom_bond_site_symmetry_2
Ce0 F12 2.240553 1_455
Ce0 F3 2.240553 1_545
Ce0 F0 2.240553 1_455
Ce0 F15 2.240553 1_545
Ce1 F2 2.240553 1_445
Ce1 F13 2.240553 1_555
Ce1 F1 2.240553 1_555
Ce1 F14 2.240553 1_445
Ce2 F4 2.240553 1_555
Ce2 F8 2.240553 1_555
Ce2 F7 2.240553 1_555
Ce2 F11 2.240553 1_555
Ce3 F6 2.240553 1_555
Ce3 F10 2.240553 1_555
Ce3 F5 2.240553 1_555
Ce3 F9 2.240553 1_555
H0 N2 1.027878 1_555
H1 N3 1.027878 1_555
H2 N0 1.027878 1_555
H3 N1 1.027878 1_555
H4 N5 1.027878 1_555
H5 N4 1.027878 1_555
H6 N7 1.027878 1_555
H7 N6 1.027878 1_555
H8 N10 1.027878 1_555
H9 N11 1.027878 1_555
H10 N8 1.027878 1_555
H11 N9 1.027878 1_555
H12 N13 1.027878 1_555
H13 N12 1.027878 1_555
H14 N15 1.027878 1_555
H15 N14 1.027878 1_555
H16 N15 1.037645 1_555
H17 N14 1.037645 1_555
H18 N13 1.037645 1_555
H19 N12 1.037645 1_555
H20 N11 1.037645 1_555
H21 N10 1.037645 1_555
H22 N9 1.037645 1_555
H23 N8 1.037645 1_555
H24 N7 1.037645 1_555
H25 N6 1.037645 1_555
H26 N5 1.037645 1_555
H27 N4 1.037645 1_555
H28 N3 1.037645 1_555
H29 N2 1.037645 1_555
H30 N1 1.037645 1_555
H31 N0 1.037645 1_555
H32 N19 1.093453 1_565
H33 N18 1.093453 1_565
H34 N18 1.093453 1_555
H35 N19 1.093453 1_555
H36 N18 1.093453 1_555
H37 N19 1.093453 1_555
H38 N19 1.093453 1_565
H39 N18 1.093453 1_565
H40 N17 1.093453 1_655
H41 N16 1.093453 1_555
H42 N16 1.093453 1_655
H43 N17 1.093453 1_555
H44 N16 1.093453 1_555
H45 N17 1.093453 1_655
H46 N17 1.093453 1_555
H47 N16 1.093453 1_655
