# generated using pymatgen
data_Li4MnCo2O7
_symmetry_space_group_name_H-M   'P 1'
_cell_length_a   5.11587000
_cell_length_b   7.67440830
_cell_length_c   7.73383317
_cell_angle_alpha   61.00761207
_cell_angle_beta   77.70161103
_cell_angle_gamma   72.03917976
_symmetry_Int_Tables_number   1
_chemical_formula_structural   Li4MnCo2O7
_chemical_formula_sum   'Li8 Mn2 Co4 O14'
_cell_volume   251.90868370
_cell_formula_units_Z   2
loop_
 _symmetry_equiv_pos_site_id
 _symmetry_equiv_pos_as_xyz
  1  'x, y, z'
loop_
 _atom_site_type_symbol
 _atom_site_label
 _atom_site_symmetry_multiplicity
 _atom_site_fract_x
 _atom_site_fract_y
 _atom_site_fract_z
 _atom_site_occupancy
  Li  Li0  1  0.49704100  0.85085300  0.22792900  1
  Li  Li1  1  0.49922700  0.42771100  0.36095000  1
  Li  Li2  1  0.49790900  0.58570500  0.63027600  1
  Li  Li3  1  0.49606100  0.14510200  0.78251500  1
  Li  Li4  1  0.50058500  0.28679500  0.06984000  1
  Li  Li5  1  0.51335600  0.98889100  0.50506100  1
  Li  Li6  1  0.49833100  0.71360400  0.92595600  1
  Li  Li7  1  0.99781000  0.71589000  0.42929100  1
  Mn  Mn0  1  0.00038200  0.99656800  0.00241800  1
  Mn  Mn1  1  0.99851800  0.57352700  0.14398900  1
  Co  Co0  1  0.00445500  0.13240900  0.28890700  1
  Co  Co1  1  0.99271200  0.29270400  0.56872300  1
  Co  Co2  1  0.00241300  0.85131200  0.70614600  1
  Co  Co3  1  0.00348800  0.43028500  0.85106500  1
  O  O0  1  0.23059000  0.13475700  0.03476600  1
  O  O1  1  0.21957500  0.72521100  0.16493900  1
  O  O2  1  0.24411100  0.87268700  0.46538300  1
  O  O3  1  0.22569700  0.41864700  0.62090400  1
  O  O4  1  0.22888200  0.57269600  0.90394000  1
  O  O5  1  0.22190400  0.30574900  0.30894700  1
  O  O6  1  0.21736700  0.99885400  0.76277600  1
  O  O7  1  0.76764600  0.56424700  0.37920500  1
  O  O8  1  0.77029900  0.14070900  0.53646000  1
  O  O9  1  0.77207600  0.26633300  0.83166600  1
  O  O10  1  0.77731000  0.84625700  0.97874100  1
  O  O11  1  0.77455200  0.01351100  0.23343400  1
  O  O12  1  0.76668100  0.71505700  0.68728300  1
  O  O13  1  0.78102100  0.43393200  0.09849000  1
loop_
_geom_bond_atom_site_label_1
_geom_bond_atom_site_label_2
_geom_bond_distance
_geom_bond_site_symmetry_2
Li0 O2 2.056004 1_555
Li0 O7 2.107297 1_555
Li0 O10 2.151430 1_554
Li0 O0 2.171994 1_565
Li0 O11 2.178512 1_565
Li0 O1 2.185414 1_555
Li1 O7 2.029028 1_555
Li1 O5 2.116043 1_555
Li1 O8 2.153329 1_555
Li1 O3 2.175054 1_555
Li1 O13 2.214191 1_555
Li1 O1 2.260936 1_555
Li2 O2 2.093286 1_555
Li2 O12 2.143548 1_555
Li2 O7 2.174869 1_555
Li2 O3 2.196020 1_555
Li2 O4 2.241123 1_555
Li2 O9 2.347418 1_555
Li3 O3 2.069900 1_555
Li3 O9 2.094212 1_555
Li3 O0 2.108155 1_556
Li3 O8 2.118099 1_555
Li3 O6 2.135776 1_545
Li3 O10 2.270314 1_545
Li4 O11 2.081842 1_555
Li4 O9 2.098261 1_554
Li4 O5 2.117329 1_555
Li4 O4 2.131270 1_554
Li4 O13 2.181636 1_555
Li4 O0 2.191637 1_555
Li5 O2 1.997420 1_555
Li5 O12 2.075909 1_555
Li5 O8 2.121115 1_565
Li5 O11 2.193030 1_565
Li5 O6 2.249873 1_555
Li5 O5 2.364054 1_565
Li6 O12 2.049871 1_555
Li6 O4 2.072768 1_555
Li6 O1 2.101449 1_556
Li6 O6 2.145930 1_555
Li6 O13 2.147125 1_556
Li6 O10 2.187959 1_555
Li7 O12 2.089618 1_555
Li7 O7 2.089811 1_555
Li7 O1 2.095762 1_655
Li7 O2 2.127008 1_655
Li7 O3 2.139570 1_655
Li7 O11 2.142465 1_565
Mn0 O0 1.930621 1_565
Mn0 O6 1.942040 1_554
Mn0 O10 1.942224 1_454
Mn0 O1 1.948570 1_555
Mn0 O11 1.948580 1_465
Mn0 O9 1.977293 1_464
Mn1 O7 1.928802 1_555
Mn1 O1 1.932117 1_655
Mn1 O13 1.943448 1_555
Mn1 O5 1.946272 1_655
Mn1 O10 1.963943 1_554
Mn1 O4 1.977448 1_654
Co0 O11 1.912152 1_455
Co0 O2 1.976725 1_545
Co0 O8 2.049055 1_455
Co0 O0 2.052238 1_555
Co0 O5 2.053579 1_555
Co0 O13 2.147636 1_455
Co1 O3 1.952244 1_655
Co1 O8 1.984751 1_555
Co1 O7 2.023608 1_555
Co1 O9 2.052917 1_555
Co1 O5 2.072450 1_655
Co1 O6 2.124693 1_645
Co2 O12 1.889354 1_455
Co2 O2 1.967517 1_555
Co2 O6 2.033970 1_555
Co2 O8 2.068056 1_465
Co2 O4 2.076233 1_555
Co2 O10 2.164768 1_455
Co3 O3 1.923080 1_555
Co3 O13 2.015499 1_456
Co3 O4 2.025499 1_555
Co3 O9 2.045619 1_455
Co3 O12 2.045892 1_455
Co3 O0 2.113439 1_556
