# generated using pymatgen
data_Ta3NbV4O20
_symmetry_space_group_name_H-M   'P 1'
_cell_length_a   5.62817600
_cell_length_b   7.07111000
_cell_length_c   12.06098924
_cell_angle_alpha   89.92179243
_cell_angle_beta   90.00000000
_cell_angle_gamma   90.00000000
_symmetry_Int_Tables_number   1
_chemical_formula_structural   Ta3NbV4O20
_chemical_formula_sum   'Ta3 Nb1 V4 O20'
_cell_volume   479.99618815
_cell_formula_units_Z   1
loop_
 _symmetry_equiv_pos_site_id
 _symmetry_equiv_pos_as_xyz
  1  'x, y, z'
loop_
 _atom_site_type_symbol
 _atom_site_label
 _atom_site_symmetry_multiplicity
 _atom_site_fract_x
 _atom_site_fract_y
 _atom_site_fract_z
 _atom_site_occupancy
  Ta  Ta0  1  0.00000000  0.65782100  0.94281200  1
  Ta  Ta1  1  0.50000000  0.16104700  0.55859200  1
  Ta  Ta2  1  0.50000000  0.34316700  0.05742000  1
  Nb  Nb0  1  0.00000000  0.84588300  0.44307500  1
  V  V0  1  0.00000000  0.03232200  0.15481400  1
  V  V1  1  0.00000000  0.46790500  0.65614400  1
  V  V2  1  0.50000000  0.96772300  0.84453800  1
  V  V3  1  0.50000000  0.53112100  0.34401800  1
  O  O0  1  0.00000000  0.97417700  0.29647400  1
  O  O1  1  0.00000000  0.52663700  0.79754400  1
  O  O2  1  0.50000000  0.02664000  0.70286100  1
  O  O3  1  0.50000000  0.47233000  0.20166100  1
  O  O4  1  0.24929800  0.65837100  0.37434600  1
  O  O5  1  0.75182700  0.83976900  0.87517000  1
  O  O6  1  0.74813900  0.33964800  0.62526100  1
  O  O7  1  0.25181500  0.16001600  0.12437500  1
  O  O8  1  0.25186100  0.33964800  0.62526100  1
  O  O9  1  0.74818500  0.16001600  0.12437500  1
  O  O10  1  0.75070200  0.65837100  0.37434600  1
  O  O11  1  0.24817300  0.83976900  0.87517000  1
  O  O12  1  0.25078100  0.00025800  0.50051700  1
  O  O13  1  0.75011300  0.49992200  0.99964700  1
  O  O14  1  0.74921900  0.00025800  0.50051700  1
  O  O15  1  0.24988700  0.49992200  0.99964700  1
  O  O16  1  0.00000000  0.82435300  0.07593100  1
  O  O17  1  0.00000000  0.67461700  0.57740500  1
  O  O18  1  0.50000000  0.17519000  0.92386500  1
  O  O19  1  0.50000000  0.32309800  0.42421400  1
loop_
_geom_bond_atom_site_label_1
_geom_bond_atom_site_label_2
_geom_bond_distance
_geom_bond_site_symmetry_2
Nb0 O12 1.914629 1_565
Nb0 O14 1.914629 1_465
Nb0 O0 1.986193 1_555
Nb0 O17 2.021425 1_555
Nb0 O4 2.101635 1_555
Nb0 O10 2.101635 1_455
O0 V0 1.756788 1_565
O1 V1 1.755813 1_555
O1 Ta0 1.983602 1_555
O2 V2 1.758265 1_545
O2 Ta1 1.981528 1_555
O3 V3 1.767128 1_555
O3 Ta2 1.965965 1_555
O4 V3 1.713255 1_555
O5 V2 1.721342 1_555
O5 Ta0 2.066138 1_655
O6 V1 1.723811 1_655
O6 Ta1 2.048092 1_555
O7 V0 1.719825 1_555
O7 Ta2 2.068245 1_555
O8 V1 1.723811 1_555
O8 Ta1 2.048092 1_555
O9 V0 1.719825 1_655
O9 Ta2 2.068245 1_555
O10 V3 1.713255 1_555
O11 V2 1.721342 1_555
O11 Ta0 2.066138 1_555
O12 Ta1 1.937237 1_555
O13 Ta0 1.921563 1_655
O13 Ta2 1.921875 1_556
O14 Ta1 1.937237 1_555
O15 Ta0 1.921563 1_555
O15 Ta2 1.921875 1_556
O16 V0 1.752591 1_565
O16 Ta0 1.992386 1_554
O17 V1 1.742011 1_555
O18 V2 1.752535 1_545
O18 Ta2 2.002685 1_556
O19 V3 1.759369 1_555
O19 Ta1 1.983619 1_555
