# generated using pymatgen
data_LaMg6W
_symmetry_space_group_name_H-M   'P 1'
_cell_length_a   5.02047700
_cell_length_b   6.43265800
_cell_length_c   11.36002200
_cell_angle_alpha   90.00000000
_cell_angle_beta   90.00000000
_cell_angle_gamma   90.00000000
_symmetry_Int_Tables_number   1
_chemical_formula_structural   LaMg6W
_chemical_formula_sum   'La2 Mg12 W2'
_cell_volume   366.87204156
_cell_formula_units_Z   2
loop_
 _symmetry_equiv_pos_site_id
 _symmetry_equiv_pos_as_xyz
  1  'x, y, z'
loop_
 _atom_site_type_symbol
 _atom_site_label
 _atom_site_symmetry_multiplicity
 _atom_site_fract_x
 _atom_site_fract_y
 _atom_site_fract_z
 _atom_site_occupancy
  La  La0  1  0.00000000  0.50000000  0.30499300  1
  La  La1  1  0.00000000  0.00000000  0.80499300  1
  Mg  Mg0  1  0.00000000  0.26170300  0.07465300  1
  Mg  Mg1  1  0.00000000  0.73829700  0.07465300  1
  Mg  Mg2  1  0.00000000  0.00000000  0.33453500  1
  Mg  Mg3  1  0.50000000  0.76139100  0.42748000  1
  Mg  Mg4  1  0.50000000  0.23860900  0.42748000  1
  Mg  Mg5  1  0.50000000  0.00000000  0.16907600  1
  Mg  Mg6  1  0.00000000  0.76170300  0.57465300  1
  Mg  Mg7  1  0.00000000  0.23829700  0.57465300  1
  Mg  Mg8  1  0.00000000  0.50000000  0.83453500  1
  Mg  Mg9  1  0.50000000  0.26139100  0.92748000  1
  Mg  Mg10  1  0.50000000  0.73860900  0.92748000  1
  Mg  Mg11  1  0.50000000  0.50000000  0.66907600  1
  W  W0  1  0.50000000  0.50000000  0.18713100  1
  W  W1  1  0.50000000  0.00000000  0.68713100  1
loop_
_geom_bond_atom_site_label_1
_geom_bond_atom_site_label_2
_geom_bond_distance
_geom_bond_site_symmetry_2
La0 W0 2.844994 1_455
La0 W0 2.844994 1_555
La0 Mg1 3.032603 1_555
La0 Mg0 3.032603 1_555
La0 Mg2 3.233790 1_565
La0 Mg2 3.233790 1_555
La0 Mg3 3.326362 1_555
La0 Mg3 3.326362 1_455
La0 Mg4 3.326362 1_555
La0 Mg4 3.326362 1_455
La0 Mg6 3.495435 1_555
La0 Mg7 3.495435 1_555
La1 W1 2.844994 1_455
La1 W1 2.844994 1_555
La1 Mg7 3.032603 1_555
La1 Mg6 3.032603 1_545
La1 Mg8 3.233790 1_545
La1 Mg8 3.233790 1_555
La1 Mg10 3.326362 1_545
La1 Mg9 3.326362 1_455
La1 Mg10 3.326362 1_445
La1 Mg9 3.326362 1_555
La1 Mg0 3.495435 1_556
La1 Mg1 3.495435 1_546
Mg0 Mg9 3.016043 1_454
Mg0 Mg9 3.016043 1_554
Mg0 Mg1 3.065766 1_555
Mg0 Mg8 3.128950 1_554
Mg0 W0 3.206818 1_455
Mg0 W0 3.206818 1_555
Mg0 Mg5 3.207158 1_555
Mg0 Mg5 3.207158 1_455
Mg0 Mg1 3.366892 1_545
Mg0 Mg2 3.398509 1_555
Mg1 Mg10 3.016043 1_454
Mg1 Mg10 3.016043 1_554
Mg1 Mg8 3.128950 1_554
Mg1 W0 3.206818 1_455
Mg1 W0 3.206818 1_555
Mg1 Mg5 3.207158 1_565
Mg1 Mg5 3.207158 1_465
Mg1 Mg2 3.398509 1_565
Mg2 Mg4 3.126023 1_455
Mg2 Mg4 3.126023 1_555
Mg2 Mg3 3.126023 1_545
Mg2 Mg3 3.126023 1_445
Mg2 Mg7 3.128950 1_555
Mg2 Mg6 3.128950 1_545
Mg2 Mg5 3.135962 1_455
Mg2 Mg5 3.135962 1_555
Mg3 Mg6 3.016043 1_555
Mg3 Mg6 3.016043 1_655
Mg3 Mg4 3.069780 1_565
Mg3 W0 3.206580 1_555
Mg3 Mg5 3.312537 1_565
Mg3 W1 3.325097 1_565
Mg3 Mg4 3.362878 1_555
Mg4 Mg7 3.016043 1_555
Mg4 Mg7 3.016043 1_655
Mg4 W0 3.206580 1_555
Mg4 Mg5 3.312537 1_555
Mg4 W1 3.325097 1_555
Mg5 Mg9 3.218651 1_554
Mg5 W0 3.222862 1_555
Mg5 W0 3.222862 1_545
Mg6 Mg7 3.065766 1_565
Mg6 W1 3.206818 1_565
Mg6 W1 3.206818 1_465
Mg6 Mg7 3.366892 1_555
Mg6 Mg8 3.398509 1_555
Mg7 W1 3.206818 1_555
Mg7 W1 3.206818 1_455
Mg7 Mg8 3.398509 1_555
Mg8 Mg9 3.126023 1_455
Mg8 Mg9 3.126023 1_555
Mg9 W1 3.206580 1_555
Mg9 W0 3.325097 1_556
Mg10 Mg9 3.069780 1_555
Mg10 Mg8 3.126023 1_555
Mg10 Mg8 3.126023 1_655
Mg10 W1 3.206580 1_565
Mg10 Mg5 3.218651 1_566
Mg10 Mg11 3.312537 1_555
Mg10 W0 3.325097 1_556
Mg10 Mg9 3.362878 1_565
Mg11 Mg8 3.135962 1_655
Mg11 Mg8 3.135962 1_555
Mg11 Mg6 3.207158 1_555
Mg11 Mg6 3.207158 1_655
Mg11 Mg7 3.207158 1_555
Mg11 Mg7 3.207158 1_655
Mg11 Mg3 3.218651 1_555
Mg11 Mg4 3.218651 1_555
Mg11 W1 3.222862 1_565
Mg11 W1 3.222862 1_555
Mg11 Mg9 3.312537 1_555
