# generated using pymatgen
data_Cu3Bi2S4Br
_symmetry_space_group_name_H-M   'P 1'
_cell_length_a   4.04041800
_cell_length_b   10.46239500
_cell_length_c   21.06216100
_cell_angle_alpha   90.00000000
_cell_angle_beta   90.00000000
_cell_angle_gamma   90.00000000
_symmetry_Int_Tables_number   1
_chemical_formula_structural   Cu3Bi2S4Br
_chemical_formula_sum   'Cu12 Bi8 S16 Br4'
_cell_volume   890.34912841
_cell_formula_units_Z   4
loop_
 _symmetry_equiv_pos_site_id
 _symmetry_equiv_pos_as_xyz
  1  'x, y, z'
loop_
 _atom_site_type_symbol
 _atom_site_label
 _atom_site_symmetry_multiplicity
 _atom_site_fract_x
 _atom_site_fract_y
 _atom_site_fract_z
 _atom_site_occupancy
  Cu  Cu0  1  0.34051000  0.37699200  0.12547100  1
  Cu  Cu1  1  0.84051000  0.62300800  0.37452900  1
  Cu  Cu2  1  0.65949000  0.12300800  0.62547100  1
  Cu  Cu3  1  0.15949000  0.87699200  0.87452900  1
  Cu  Cu4  1  0.27812400  0.77085800  0.03401200  1
  Cu  Cu5  1  0.77812400  0.22914200  0.46598800  1
  Cu  Cu6  1  0.72187600  0.72914200  0.53401200  1
  Cu  Cu7  1  0.22187600  0.27085800  0.96598800  1
  Cu  Cu8  1  0.93966700  0.48226500  0.03935200  1
  Cu  Cu9  1  0.43966700  0.51773500  0.46064800  1
  Cu  Cu10  1  0.06033300  0.01773500  0.53935200  1
  Cu  Cu11  1  0.56033300  0.98226500  0.96064800  1
  Bi  Bi0  1  0.76177800  0.06398700  0.12521500  1
  Bi  Bi1  1  0.26177800  0.93601300  0.37478500  1
  Bi  Bi2  1  0.23822200  0.43601300  0.62521500  1
  Bi  Bi3  1  0.73822200  0.56398700  0.87478500  1
  Bi  Bi4  1  0.83739500  0.63901200  0.19783900  1
  Bi  Bi5  1  0.33739500  0.36098800  0.30216100  1
  Bi  Bi6  1  0.16260500  0.86098800  0.69783900  1
  Bi  Bi7  1  0.66260500  0.13901200  0.80216100  1
  S  S0  1  0.26199100  0.19773500  0.07109800  1
  S  S1  1  0.76199100  0.80226500  0.42890200  1
  S  S2  1  0.73800900  0.30226500  0.57109800  1
  S  S3  1  0.23800900  0.69773500  0.92890200  1
  S  S4  1  0.25342100  0.59198000  0.10283100  1
  S  S5  1  0.75342100  0.40802000  0.39716900  1
  S  S6  1  0.74657900  0.90802000  0.60283100  1
  S  S7  1  0.24657900  0.09198000  0.89716900  1
  S  S8  1  0.75315500  0.38682700  0.20349500  1
  S  S9  1  0.25315500  0.61317300  0.29650500  1
  S  S10  1  0.24684500  0.11317300  0.70349500  1
  S  S11  1  0.74684500  0.88682700  0.79650500  1
  S  S12  1  0.77401800  0.88257800  0.04054800  1
  S  S13  1  0.27401800  0.11742200  0.45945200  1
  S  S14  1  0.22598200  0.61742200  0.54054800  1
  S  S15  1  0.72598200  0.38257800  0.95945200  1
  Br  Br0  1  0.26062300  0.88987800  0.19890300  1
  Br  Br1  1  0.76062300  0.11012200  0.30109700  1
  Br  Br2  1  0.73937700  0.61012200  0.69890300  1
  Br  Br3  1  0.23937700  0.38987800  0.80109700  1
loop_
_geom_bond_atom_site_label_1
_geom_bond_atom_site_label_2
_geom_bond_distance
_geom_bond_site_symmetry_2
Cu0 S0 2.220248 1_555
Cu0 S4 2.326049 1_555
Cu0 S8 2.343278 1_555
Cu0 S8 2.888440 1_455
Cu1 S1 2.220248 1_555
Cu1 S5 2.326049 1_555
Cu1 S9 2.343278 1_655
Cu1 S9 2.888440 1_555
Cu2 S2 2.220248 1_555
Cu2 S6 2.326049 1_545
Cu2 S10 2.343278 1_555
Cu2 S10 2.888440 1_655
Cu3 S3 2.220248 1_555
Cu3 S7 2.326049 1_565
Cu3 S11 2.343278 1_455
Cu3 S11 2.888440 1_555
Cu4 S12 2.323719 1_555
Cu4 S3 2.347906 1_554
Cu4 S12 2.352389 1_455
Cu4 S4 2.369268 1_555
Cu5 S13 2.323719 1_655
Cu5 S2 2.347906 1_555
Cu5 S13 2.352389 1_555
Cu5 S5 2.369268 1_555
Cu6 S14 2.323719 1_555
Cu6 S1 2.347906 1_555
Cu6 S14 2.352389 1_655
Cu6 S6 2.369268 1_555
Cu7 S15 2.323719 1_455
Cu7 S0 2.347906 1_556
Cu7 S15 2.352389 1_555
Cu7 S7 2.369268 1_555
Cu8 S15 2.159916 1_554
Cu8 S4 2.170777 1_655
Cu9 S14 2.159916 1_555
Cu9 S5 2.170777 1_555
Cu10 S13 2.159916 1_555
Cu10 S6 2.170777 1_445
Cu11 S12 2.159916 1_556
Cu11 S7 2.170777 1_565
Bi0 S12 2.604764 1_545
Bi0 S0 2.708333 1_555
Bi0 S0 2.709617 1_655
Bi0 Br0 3.128805 1_645
Bi0 Br0 3.134825 1_545
Bi1 S13 2.604764 1_565
Bi1 S1 2.708333 1_455
Bi1 S1 2.709617 1_555
Bi1 Br1 3.128805 1_565
Bi1 Br1 3.134825 1_465
Bi2 S14 2.604764 1_555
Bi2 S2 2.708333 1_555
Bi2 S2 2.709617 1_455
Bi2 Br2 3.128805 1_455
Bi2 Br2 3.134825 1_555
Bi3 S15 2.604764 1_555
Bi3 S3 2.708333 1_655
Bi3 S3 2.709617 1_555
Bi3 Br3 3.128805 1_555
Bi3 Br3 3.134825 1_655
Bi4 S4 2.659307 1_655
Bi4 S8 2.662988 1_555
Bi4 S9 2.685803 1_655
Bi4 Br0 3.132651 1_655
Bi4 S4 3.132677 1_555
Bi4 S9 3.156576 1_555
Bi5 S5 2.659307 1_555
Bi5 S9 2.662988 1_555
Bi5 S8 2.685803 1_555
Bi5 Br1 3.132651 1_555
Bi5 S5 3.132677 1_455
Bi5 S8 3.156576 1_455
Bi6 S6 2.659307 1_455
Bi6 S10 2.662988 1_565
Bi6 S11 2.685803 1_455
Bi6 Br2 3.132651 1_455
Bi6 S6 3.132677 1_555
Bi6 S11 3.156576 1_555
Bi7 S7 2.659307 1_555
Bi7 S11 2.662988 1_545
Bi7 S10 2.685803 1_555
Bi7 Br3 3.132651 1_555
Bi7 S7 3.132677 1_655
Bi7 S10 3.156576 1_655
