# generated using pymatgen
data_Li3Co4SnO8
_symmetry_space_group_name_H-M   'P 1'
_cell_length_a   6.04811847
_cell_length_b   6.03349812
_cell_length_c   10.55573889
_cell_angle_alpha   73.57559150
_cell_angle_beta   73.82313780
_cell_angle_gamma   60.31772349
_symmetry_Int_Tables_number   1
_chemical_formula_structural   Li3Co4SnO8
_chemical_formula_sum   'Li6 Co8 Sn2 O16'
_cell_volume   316.52364385
_cell_formula_units_Z   2
loop_
 _symmetry_equiv_pos_site_id
 _symmetry_equiv_pos_as_xyz
  1  'x, y, z'
loop_
 _atom_site_type_symbol
 _atom_site_label
 _atom_site_symmetry_multiplicity
 _atom_site_fract_x
 _atom_site_fract_y
 _atom_site_fract_z
 _atom_site_occupancy
  Li  Li0  1  0.75000100  0.74999800  0.25000000  1
  Li  Li1  1  0.24999700  0.25000200  0.75000100  1
  Li  Li2  1  0.00069500  0.50775700  0.99498800  1
  Li  Li3  1  0.49930500  0.99224300  0.50501200  1
  Li  Li4  1  0.00591000  0.50534400  0.49102400  1
  Li  Li5  1  0.49409100  0.99465500  0.00897800  1
  Co  Co0  1  0.74999900  0.75000100  0.75000100  1
  Co  Co1  1  0.25000000  0.24999900  0.25000000  1
  Co  Co2  1  0.00327200  0.00002000  0.99774900  1
  Co  Co3  1  0.49673000  0.49998100  0.50225000  1
  Co  Co4  1  0.75000200  0.24999900  0.24999900  1
  Co  Co5  1  0.24999900  0.75000100  0.75000100  1
  Co  Co6  1  0.25000000  0.74999900  0.24999900  1
  Co  Co7  1  0.74999800  0.25000100  0.74999900  1
  Sn  Sn0  1  0.99733500  0.99638600  0.50071600  1
  Sn  Sn1  1  0.50267400  0.50360800  0.99928500  1
  O  O0  1  0.88512700  0.87741500  0.37230700  1
  O  O1  1  0.37036400  0.40860900  0.86832100  1
  O  O2  1  0.12963300  0.09139500  0.63168000  1
  O  O3  1  0.61487200  0.62258400  0.12769300  1
  O  O4  1  0.90941400  0.87057600  0.86057600  1
  O  O5  1  0.37088700  0.40164600  0.36275200  1
  O  O6  1  0.12911200  0.09835300  0.13724600  1
  O  O7  1  0.59058300  0.62942700  0.63942500  1
  O  O8  1  0.63418400  0.12083400  0.62138200  1
  O  O9  1  0.13864400  0.62305300  0.12401700  1
  O  O10  1  0.11836400  0.62826400  0.61986600  1
  O  O11  1  0.62183900  0.13653800  0.11750700  1
  O  O12  1  0.87816100  0.36345900  0.38249300  1
  O  O13  1  0.38163600  0.87173500  0.88013500  1
  O  O14  1  0.36135500  0.87694600  0.37598100  1
  O  O15  1  0.86581800  0.37917000  0.87861700  1
loop_
_geom_bond_atom_site_label_1
_geom_bond_atom_site_label_2
_geom_bond_distance
_geom_bond_site_symmetry_2
Li0 O0 2.167286 1_555
Li0 O3 2.167286 1_555
Li0 O9 2.220689 1_655
Li0 O14 2.220693 1_555
Li0 O12 2.228246 1_555
Li0 O11 2.228250 1_565
Li1 O10 2.183219 1_555
Li1 O13 2.183236 1_545
Li1 O2 2.208636 1_555
Li1 O1 2.208641 1_555
Li1 O15 2.212839 1_455
Li1 O8 2.212886 1_555
Li2 O15 2.121406 1_455
Li2 O4 2.143133 1_455
Li2 O1 2.146249 1_555
Li2 O9 2.186056 1_556
Li2 O3 2.239145 1_456
Li2 O6 2.368958 1_556
Li3 O8 2.121424 1_565
Li3 O7 2.143126 1_555
Li3 O2 2.146266 1_565
Li3 O14 2.186081 1_555
Li3 O0 2.239141 1_555
Li3 O5 2.368963 1_565
Li4 O12 2.084504 1_455
Li4 O0 2.106810 1_455
Li4 O10 2.108942 1_555
Li4 O5 2.131511 1_555
Li4 O2 2.381873 1_555
Li4 O7 2.435645 1_455
Li5 O11 2.084474 1_565
Li5 O3 2.106802 1_555
Li5 O13 2.108955 1_554
Li5 O6 2.131501 1_565
Li5 O1 2.381898 1_564
Li5 O4 2.435633 1_554
Co0 O15 2.144716 1_555
Co0 O8 2.144739 1_565
Co0 O4 2.150143 1_555
Co0 O7 2.150152 1_555
Co0 O13 2.152819 1_555
Co0 O10 2.152832 1_655
Co1 O5 2.133416 1_555
Co1 O6 2.133432 1_555
Co1 O14 2.143191 1_545
Co1 O9 2.143203 1_555
Co1 O11 2.178623 1_555
Co1 O12 2.178624 1_455
Co2 O4 2.136675 1_445
Co2 O15 2.139597 1_455
Co2 O13 2.140868 1_545
Co2 O6 2.159909 1_556
Co2 O9 2.160871 1_546
Co2 O11 2.163433 1_456
Co3 O7 2.136682 1_555
Co3 O8 2.139584 1_555
Co3 O10 2.140885 1_555
Co3 O5 2.159938 1_555
Co3 O14 2.160868 1_555
Co3 O12 2.163421 1_555
Co4 O3 2.124929 1_555
Co4 O0 2.124933 1_545
Co4 O6 2.128046 1_655
Co4 O5 2.128068 1_555
Co4 O12 2.167121 1_555
Co4 O11 2.167124 1_555
Co5 O7 1.947081 1_555
Co5 O4 1.947081 1_455
Co5 O1 1.974673 1_555
Co5 O2 1.974686 1_565
Co5 O13 2.195301 1_555
Co5 O10 2.195314 1_555
Co6 O5 1.979135 1_555
Co6 O6 1.979140 1_565
Co6 O9 2.096337 1_555
Co6 O14 2.096338 1_555
Co6 O3 2.102678 1_555
Co6 O0 2.102691 1_455
Co7 O7 2.112517 1_555
Co7 O4 2.112525 1_545
Co7 O8 2.147103 1_555
Co7 O15 2.147145 1_555
Co7 O2 2.156265 1_655
Co7 O1 2.156275 1_555
O0 Sn0 2.087651 1_555
O1 Sn1 2.097317 1_555
O2 Sn0 2.097305 1_445
O3 Sn1 2.087622 1_554
O8 Sn0 2.087807 1_545
O9 Sn1 2.109566 1_554
O10 Sn0 2.091388 1_455
O11 Sn1 2.083052 1_554
O12 Sn0 2.083068 1_545
O13 Sn1 2.091409 1_555
O14 Sn0 2.109537 1_455
O15 Sn1 2.087785 1_555
