# generated using pymatgen
data_Tb2CoGe6
_symmetry_space_group_name_H-M   'P 1'
_cell_length_a   4.06980900
_cell_length_b   3.99567100
_cell_length_c   10.94731159
_cell_angle_alpha   100.51514894
_cell_angle_beta   90.00000000
_cell_angle_gamma   90.00000000
_symmetry_Int_Tables_number   1
_chemical_formula_structural   Tb2CoGe6
_chemical_formula_sum   'Tb2 Co1 Ge6'
_cell_volume   175.03143531
_cell_formula_units_Z   1
loop_
 _symmetry_equiv_pos_site_id
 _symmetry_equiv_pos_as_xyz
  1  'x, y, z'
loop_
 _atom_site_type_symbol
 _atom_site_label
 _atom_site_symmetry_multiplicity
 _atom_site_fract_x
 _atom_site_fract_y
 _atom_site_fract_z
 _atom_site_occupancy
  Tb  Tb0  1  0.50000000  0.22235800  0.44471600  1
  Tb  Tb1  1  0.50000000  0.88681900  0.77363800  1
  Co  Co0  1  0.00000000  0.44520800  0.89041600  1
  Ge  Ge0  1  0.50000000  0.49986300  0.99972600  1
  Ge  Ge1  1  0.50000000  0.61605200  0.23210300  1
  Ge  Ge2  1  0.00000000  0.00084200  0.00168500  1
  Ge  Ge3  1  0.00000000  0.11786400  0.23572800  1
  Ge  Ge4  1  0.00000000  0.33885300  0.67770500  1
  Ge  Ge5  1  0.00000000  0.76514200  0.53028300  1
loop_
_geom_bond_atom_site_label_1
_geom_bond_atom_site_label_2
_geom_bond_distance
_geom_bond_site_symmetry_2
Co0 Ge4 2.289508 1_555
Co0 Ge2 2.329309 1_566
Co0 Ge2 2.329313 1_556
Co0 Ge0 2.350557 1_555
Co0 Ge0 2.350557 1_455
Co0 Tb1 3.116420 1_555
Co0 Tb1 3.116420 1_455
Co0 Tb1 3.116420 1_445
Co0 Tb1 3.116420 1_545
Ge0 Ge1 2.501183 1_556
Ge0 Ge2 2.851775 1_566
Ge0 Ge2 2.851775 1_666
Ge0 Ge2 2.851778 1_556
Ge0 Ge2 2.851778 1_656
Ge0 Tb1 3.148528 1_555
Ge0 Tb1 3.148528 1_545
Ge1 Ge3 2.851964 1_565
Ge1 Ge3 2.851964 1_665
Ge1 Ge3 2.851967 1_555
Ge1 Ge3 2.851967 1_655
Ge1 Tb0 3.037821 1_565
Ge1 Tb0 3.037824 1_555
Ge2 Ge3 2.519115 1_555
Ge2 Tb1 3.188383 1_444
Ge2 Tb1 3.188383 1_544
Ge3 Tb0 3.033282 1_555
Ge3 Tb0 3.033282 1_455
Ge4 Ge5 2.551312 1_555
Ge4 Ge5 2.551312 1_545
Ge4 Tb1 3.032883 1_455
Ge4 Tb1 3.032883 1_555
Ge4 Tb1 3.032886 1_545
Ge4 Tb1 3.032886 1_445
Ge4 Tb0 3.229512 1_555
Ge4 Tb0 3.229512 1_455
Ge5 Tb0 2.996734 1_565
Ge5 Tb0 2.996734 1_465
Ge5 Tb0 2.996736 1_555
Ge5 Tb0 2.996736 1_455
Ge5 Tb1 3.316896 1_555
Ge5 Tb1 3.316896 1_455
