# generated using pymatgen
data_Fe3SiN4
_symmetry_space_group_name_H-M   'P 1'
_cell_length_a   6.22828200
_cell_length_b   4.76738500
_cell_length_c   5.97465900
_cell_angle_alpha   90.00000000
_cell_angle_beta   90.00000000
_cell_angle_gamma   90.00000000
_symmetry_Int_Tables_number   1
_chemical_formula_structural   Fe3SiN4
_chemical_formula_sum   'Fe6 Si2 N8'
_cell_volume   177.40326846
_cell_formula_units_Z   2
loop_
 _symmetry_equiv_pos_site_id
 _symmetry_equiv_pos_as_xyz
  1  'x, y, z'
loop_
 _atom_site_type_symbol
 _atom_site_label
 _atom_site_symmetry_multiplicity
 _atom_site_fract_x
 _atom_site_fract_y
 _atom_site_fract_z
 _atom_site_occupancy
  Fe  Fe0  1  0.75976500  0.65892700  0.28780000  1
  Fe  Fe1  1  0.24023500  0.65892700  0.28780000  1
  Fe  Fe2  1  0.74023500  0.34107300  0.78780000  1
  Fe  Fe3  1  0.25976500  0.34107300  0.78780000  1
  Fe  Fe4  1  0.50000000  0.81909200  0.00115300  1
  Fe  Fe5  1  0.00000000  0.18090800  0.50115300  1
  Si  Si0  1  0.00000000  0.85515200  0.98510000  1
  Si  Si1  1  0.50000000  0.14484800  0.48510000  1
  N  N0  1  0.73031600  0.34997500  0.46416300  1
  N  N1  1  0.26968400  0.34997500  0.46416300  1
  N  N2  1  0.76968400  0.65002500  0.96416300  1
  N  N3  1  0.23031600  0.65002500  0.96416300  1
  N  N4  1  0.50000000  0.85267000  0.31696700  1
  N  N5  1  0.00000000  0.14733000  0.81696700  1
  N  N6  1  0.50000000  0.08980800  0.77785200  1
  N  N7  1  0.00000000  0.91019200  0.27785200  1
loop_
_geom_bond_atom_site_label_1
_geom_bond_atom_site_label_2
_geom_bond_distance
_geom_bond_site_symmetry_2
Fe0 N0 1.820263 1_555
Fe0 N4 1.871112 1_555
Fe0 N7 1.917605 1_655
Fe0 N2 1.935073 1_554
Fe1 N1 1.820263 1_555
Fe1 N4 1.871112 1_555
Fe1 N7 1.917605 1_555
Fe1 N3 1.935073 1_554
Fe2 N2 1.820263 1_555
Fe2 N5 1.871112 1_655
Fe2 N6 1.917605 1_555
Fe2 N0 1.935073 1_555
Fe3 N3 1.820263 1_555
Fe3 N5 1.871112 1_555
Fe3 N6 1.917605 1_555
Fe3 N1 1.935073 1_555
Fe4 N6 1.856237 1_564
Fe4 N2 1.876106 1_554
Fe4 N3 1.876106 1_554
Fe4 N4 1.893659 1_555
Fe5 N7 1.856237 1_545
Fe5 N1 1.876106 1_555
Fe5 N0 1.876106 1_455
Fe5 N5 1.893659 1_555
N0 Si1 1.740600 1_555
N1 Si1 1.740600 1_555
N2 Si0 1.740600 1_655
N3 Si0 1.740600 1_555
N4 Si1 1.717363 1_565
N5 Si0 1.717363 1_545
N6 Si1 1.768666 1_555
N7 Si0 1.768666 1_554
