# generated using pymatgen
data_Mg14CrCd
_symmetry_space_group_name_H-M   'P 1'
_cell_length_a   6.32569779
_cell_length_b   6.32756646
_cell_length_c   10.24986737
_cell_angle_alpha   90.00000000
_cell_angle_beta   90.00000000
_cell_angle_gamma   120.00977780
_symmetry_Int_Tables_number   1
_chemical_formula_structural   Mg14CrCd
_chemical_formula_sum   'Mg14 Cr1 Cd1'
_cell_volume   355.26402673
_cell_formula_units_Z   1
loop_
 _symmetry_equiv_pos_site_id
 _symmetry_equiv_pos_as_xyz
  1  'x, y, z'
loop_
 _atom_site_type_symbol
 _atom_site_label
 _atom_site_symmetry_multiplicity
 _atom_site_fract_x
 _atom_site_fract_y
 _atom_site_fract_z
 _atom_site_occupancy
  Mg  Mg0  1  0.16658391  0.33329145  0.62500000  1
  Mg  Mg1  1  0.16710491  0.83355195  0.62500000  1
  Mg  Mg2  1  0.66724677  0.33158817  0.12500000  1
  Mg  Mg3  1  0.66649523  0.33294528  0.62500000  1
  Mg  Mg4  1  0.66724677  0.83565760  0.12500000  1
  Mg  Mg5  1  0.66649523  0.83354895  0.62500000  1
  Mg  Mg6  1  0.33089714  0.16801034  0.37094335  1
  Mg  Mg7  1  0.33089714  0.16801034  0.87905665  1
  Mg  Mg8  1  0.33089714  0.66288780  0.37094335  1
  Mg  Mg9  1  0.33089714  0.66288780  0.87905665  1
  Mg  Mg10  1  0.83724876  0.16862488  0.37322526  1
  Mg  Mg11  1  0.83724876  0.16862488  0.87677474  1
  Mg  Mg12  1  0.83377439  0.66688770  0.37534776  1
  Mg  Mg13  1  0.83377439  0.66688770  0.87465224  1
  Cr  Cr0  1  0.16526548  0.33263224  0.12500000  1
  Cd  Cd0  1  0.16792684  0.83396292  0.12500000  1
loop_
_geom_bond_atom_site_label_1
_geom_bond_atom_site_label_2
_geom_bond_distance
_geom_bond_site_symmetry_2
Mg0 Mg10 3.148679 1_455
Mg0 Mg11 3.148679 1_455
Mg0 Mg5 3.162315 1_445
Mg0 Mg3 3.162315 1_455
Mg0 Mg5 3.163384 1_555
Mg0 Mg3 3.163384 1_555
Mg0 Mg1 3.163785 1_555
Mg0 Mg1 3.163785 1_545
Mg0 Mg7 3.168992 1_555
Mg0 Mg6 3.168992 1_555
Mg0 Mg8 3.168998 1_555
Mg0 Mg9 3.168998 1_555
Mg1 Mg13 3.143534 1_455
Mg1 Mg12 3.143534 1_455
Mg1 Mg3 3.159002 1_565
Mg1 Mg5 3.159002 1_555
Mg1 Mg3 3.166696 1_455
Mg1 Mg5 3.166696 1_455
Mg1 Mg9 3.184325 1_555
Mg1 Mg8 3.184325 1_555
Mg1 Mg7 3.184332 1_565
Mg1 Mg6 3.184332 1_565
Mg2 Mg6 3.122532 1_555
Mg2 Mg7 3.122532 1_554
Mg2 Mg4 3.138034 1_545
Mg2 Mg4 3.189533 1_555
Mg3 Mg5 3.159963 1_545
Mg3 Mg5 3.167603 1_555
Mg3 Mg6 3.187589 1_555
Mg3 Mg7 3.187589 1_555
Mg4 Mg8 3.122532 1_555
Mg4 Mg9 3.122532 1_554
Mg5 Mg8 3.187589 1_555
Mg5 Mg9 3.187589 1_555
Mg6 Mg8 3.131370 1_555
Mg6 Mg8 3.196196 1_545
Mg7 Mg9 3.131370 1_555
Mg7 Mg9 3.196196 1_545
Mg10 Mg8 3.124704 1_655
Mg10 Mg6 3.124705 1_655
Mg10 Mg2 3.130862 1_555
Mg10 Mg4 3.130868 1_545
Mg10 Mg12 3.163915 1_545
Mg10 Mg12 3.163915 1_555
Mg10 Mg3 3.167170 1_555
Mg10 Mg5 3.167176 1_545
Mg10 Mg8 3.201169 1_545
Mg10 Mg6 3.201170 1_555
Mg11 Mg9 3.124704 1_655
Mg11 Mg7 3.124705 1_655
Mg11 Mg2 3.130862 1_556
Mg11 Mg4 3.130868 1_546
Mg11 Mg13 3.163915 1_545
Mg11 Mg13 3.163915 1_555
Mg11 Mg3 3.167170 1_555
Mg11 Mg5 3.167176 1_545
Mg11 Mg9 3.201169 1_545
Mg11 Mg7 3.201170 1_555
Mg12 Mg5 3.145790 1_555
Mg12 Mg3 3.145796 1_555
Mg12 Mg4 3.155924 1_555
Mg12 Mg2 3.155930 1_555
Mg12 Mg6 3.157705 1_665
Mg12 Mg8 3.157706 1_655
Mg12 Mg6 3.168788 1_555
Mg12 Mg8 3.168788 1_555
Mg13 Mg5 3.145790 1_555
Mg13 Mg3 3.145796 1_555
Mg13 Mg4 3.155924 1_556
Mg13 Mg2 3.155930 1_556
Mg13 Mg7 3.157705 1_665
Mg13 Mg9 3.157706 1_655
Mg13 Mg7 3.168788 1_555
Mg13 Mg9 3.168788 1_555
Cr0 Mg6 3.103123 1_555
Cr0 Mg7 3.103123 1_554
Cr0 Mg8 3.103129 1_555
Cr0 Mg9 3.103129 1_554
Cr0 Mg10 3.114758 1_455
Cr0 Mg11 3.114758 1_454
Cr0 Mg4 3.147017 1_445
Cr0 Mg2 3.147017 1_455
Cr0 Mg4 3.178691 1_555
Cr0 Mg2 3.178691 1_555
Cd0 Mg8 3.115394 1_555
Cd0 Mg9 3.115394 1_554
Cd0 Mg6 3.115400 1_565
Cd0 Mg7 3.115400 1_564
Cd0 Mg12 3.151952 1_455
Cd0 Mg13 3.151952 1_454
Cd0 Mg2 3.153197 1_565
Cd0 Mg4 3.153197 1_555
Cd0 Cr0 3.163817 1_555
Cd0 Cr0 3.163817 1_565
Cd0 Mg2 3.172527 1_455
Cd0 Mg4 3.172528 1_455
