# generated using pymatgen
data_HoSi3Ni5
_symmetry_space_group_name_H-M   'P 1'
_cell_length_a   3.76665100
_cell_length_b   6.69234900
_cell_length_c   18.62395700
_cell_angle_alpha   90.00000000
_cell_angle_beta   90.00000000
_cell_angle_gamma   90.00000000
_symmetry_Int_Tables_number   1
_chemical_formula_structural   HoSi3Ni5
_chemical_formula_sum   'Ho4 Si12 Ni20'
_cell_volume   469.46792269
_cell_formula_units_Z   4
loop_
 _symmetry_equiv_pos_site_id
 _symmetry_equiv_pos_as_xyz
  1  'x, y, z'
loop_
 _atom_site_type_symbol
 _atom_site_label
 _atom_site_symmetry_multiplicity
 _atom_site_fract_x
 _atom_site_fract_y
 _atom_site_fract_z
 _atom_site_occupancy
  Ho  Ho0  1  0.25000000  0.62212000  0.64355800  1
  Ho  Ho1  1  0.25000000  0.87788000  0.14355800  1
  Ho  Ho2  1  0.75000000  0.37788000  0.35644200  1
  Ho  Ho3  1  0.75000000  0.12212000  0.85644200  1
  Si  Si0  1  0.25000000  0.41296000  0.91544000  1
  Si  Si1  1  0.25000000  0.08704000  0.41544000  1
  Si  Si2  1  0.75000000  0.58704000  0.08456000  1
  Si  Si3  1  0.75000000  0.91296000  0.58456000  1
  Si  Si4  1  0.25000000  0.12184900  0.73728500  1
  Si  Si5  1  0.25000000  0.37815100  0.23728500  1
  Si  Si6  1  0.75000000  0.87815100  0.26271500  1
  Si  Si7  1  0.75000000  0.62184900  0.76271500  1
  Si  Si8  1  0.25000000  0.84691700  0.92440500  1
  Si  Si9  1  0.25000000  0.65308300  0.42440500  1
  Si  Si10  1  0.75000000  0.15308300  0.07559500  1
  Si  Si11  1  0.75000000  0.34691700  0.57559500  1
  Ni  Ni0  1  0.25000000  0.81453900  0.79874300  1
  Ni  Ni1  1  0.25000000  0.68546100  0.29874300  1
  Ni  Ni2  1  0.75000000  0.18546100  0.20125700  1
  Ni  Ni3  1  0.75000000  0.31453900  0.70125700  1
  Ni  Ni4  1  0.25000000  0.13158400  0.99380600  1
  Ni  Ni5  1  0.25000000  0.36841600  0.49380600  1
  Ni  Ni6  1  0.75000000  0.86841600  0.00619400  1
  Ni  Ni7  1  0.75000000  0.63158400  0.50619400  1
  Ni  Ni8  1  0.25000000  0.88113600  0.51384900  1
  Ni  Ni9  1  0.25000000  0.61886400  0.01384900  1
  Ni  Ni10  1  0.75000000  0.11886400  0.48615100  1
  Ni  Ni11  1  0.75000000  0.38113600  0.98615100  1
  Ni  Ni12  1  0.25000000  0.14417700  0.61390200  1
  Ni  Ni13  1  0.25000000  0.35582300  0.11390200  1
  Ni  Ni14  1  0.75000000  0.85582300  0.38609800  1
  Ni  Ni15  1  0.75000000  0.64417700  0.88609800  1
  Ni  Ni16  1  0.25000000  0.42929700  0.79475100  1
  Ni  Ni17  1  0.25000000  0.07070300  0.29475100  1
  Ni  Ni18  1  0.75000000  0.57070300  0.20524900  1
  Ni  Ni19  1  0.75000000  0.92929700  0.70524900  1
loop_
_geom_bond_atom_site_label_1
_geom_bond_atom_site_label_2
_geom_bond_distance
_geom_bond_site_symmetry_2
Ho0 Si7 2.910611 1_455
Ho0 Si7 2.910611 1_555
Ho0 Si11 2.922511 1_555
Ho0 Si11 2.922511 1_455
Ho0 Si3 2.922791 1_455
Ho0 Si3 2.922791 1_555
Ho0 Ni8 2.973272 1_555
Ho0 Ni3 2.989786 1_455
Ho0 Ni3 2.989786 1_555
Ho0 Ni19 3.015461 1_455
Ho0 Ni19 3.015461 1_555
Ho0 Ni16 3.097423 1_555
Ho0 Ni0 3.164061 1_555
Ho0 Ni7 3.177362 1_455
Ho0 Ni7 3.177362 1_555
Ho0 Ni12 3.245896 1_555
Ho0 Ni5 3.265144 1_555
Ho1 Si6 2.910611 1_455
Ho1 Si6 2.910611 1_555
Ho1 Si10 2.922511 1_465
Ho1 Si10 2.922511 1_565
Ho1 Si2 2.922791 1_455
Ho1 Si2 2.922791 1_555
Ho1 Ni9 2.973272 1_555
Ho1 Ni2 2.989786 1_565
Ho1 Ni2 2.989786 1_465
Ho1 Ni18 3.015461 1_455
Ho1 Ni18 3.015461 1_555
Ho1 Ni17 3.097423 1_565
Ho1 Ni1 3.164061 1_555
Ho1 Ni6 3.177362 1_455
Ho1 Ni6 3.177362 1_555
Ho1 Ni13 3.245896 1_565
Ho1 Ni4 3.265144 1_564
Ho2 Si5 2.910611 1_555
Ho2 Si5 2.910611 1_655
Ho2 Si9 2.922511 1_655
Ho2 Si9 2.922511 1_555
Ho2 Si1 2.922791 1_555
Ho2 Si1 2.922791 1_655
Ho2 Ni10 2.973272 1_555
Ho2 Ni1 2.989786 1_655
Ho2 Ni1 2.989786 1_555
Ho2 Ni17 3.015461 1_655
Ho2 Ni17 3.015461 1_555
Ho2 Ni18 3.097423 1_555
Ho2 Ni2 3.164061 1_555
Ho2 Ni5 3.177362 1_655
Ho2 Ni5 3.177362 1_555
Ho2 Ni14 3.245896 1_555
Ho2 Ni7 3.265144 1_555
Ho3 Si4 2.910611 1_655
Ho3 Si4 2.910611 1_555
Ho3 Si8 2.922511 1_645
Ho3 Si8 2.922511 1_545
Ho3 Si0 2.922791 1_655
Ho3 Si0 2.922791 1_555
Ho3 Ni11 2.973272 1_555
Ho3 Ni0 2.989786 1_545
Ho3 Ni0 2.989786 1_645
Ho3 Ni16 3.015461 1_555
Ho3 Ni16 3.015461 1_655
Ho3 Ni19 3.097423 1_545
Ho3 Ni3 3.164061 1_555
Ho3 Ni4 3.177362 1_555
Ho3 Ni4 3.177362 1_655
Ho3 Ni15 3.245896 1_545
Ho3 Ni6 3.265144 1_546
Ni0 Si8 2.350333 1_555
Ni0 Si4 2.353678 1_565
Ni0 Si7 2.379090 1_555
Ni0 Si7 2.379090 1_455
Ni0 Ni16 2.579246 1_555
Ni0 Ni19 2.677427 1_555
Ni0 Ni19 2.677427 1_455
Ni0 Ni15 2.737441 1_455
Ni0 Ni15 2.737441 1_555
Ni1 Si9 2.350333 1_555
Ni1 Si5 2.353678 1_555
Ni1 Si6 2.379090 1_455
Ni1 Si6 2.379090 1_555
Ni1 Ni17 2.579246 1_565
Ni1 Ni18 2.677427 1_555
Ni1 Ni18 2.677427 1_455
Ni1 Ni14 2.737441 1_555
Ni1 Ni14 2.737441 1_455
Ni2 Si10 2.350333 1_555
Ni2 Si6 2.353678 1_545
Ni2 Si5 2.379090 1_555
Ni2 Si5 2.379090 1_655
Ni3 Si11 2.350333 1_555
Ni3 Si7 2.353678 1_555
Ni3 Si4 2.379090 1_655
Ni3 Si4 2.379090 1_555
Ni4 Si8 2.302169 1_545
Ni4 Si0 2.382443 1_555
Ni4 Si10 2.426491 1_456
Ni4 Si10 2.426491 1_556
Ni4 Ni6 2.588824 1_546
Ni4 Ni6 2.588824 1_446
Ni5 Si9 2.302169 1_555
Ni5 Si1 2.382443 1_555
Ni5 Si11 2.426491 1_455
Ni5 Si11 2.426491 1_555
Ni5 Ni7 2.588824 1_455
Ni5 Ni7 2.588824 1_555
Ni6 Si10 2.302169 1_565
Ni6 Si2 2.382443 1_555
Ni6 Si8 2.426491 1_654
Ni6 Si8 2.426491 1_554
Ni6 Ni9 2.521198 1_555
Ni6 Ni9 2.521198 1_655
Ni7 Si11 2.302169 1_555
Ni7 Si3 2.382443 1_555
Ni7 Si9 2.426491 1_655
Ni7 Si9 2.426491 1_555
Ni7 Ni8 2.521198 1_655
Ni7 Ni8 2.521198 1_555
Ni8 Si9 2.259250 1_555
Ni8 Si1 2.293002 1_565
Ni8 Si3 2.307932 1_455
Ni8 Si3 2.307932 1_555
Ni9 Si8 2.259250 1_554
Ni9 Si0 2.293002 1_554
Ni9 Si2 2.307932 1_455
Ni9 Si2 2.307932 1_555
Ni10 Si11 2.259250 1_555
Ni10 Si3 2.293002 1_545
Ni10 Si1 2.307932 1_655
Ni10 Si1 2.307932 1_555
Ni10 Ni8 2.518762 1_645
Ni10 Ni8 2.518762 1_545
Ni10 Ni5 2.521198 1_555
Ni10 Ni5 2.521198 1_655
Ni10 Ni14 2.563410 1_545
Ni11 Si10 2.259250 1_556
Ni11 Si2 2.293002 1_556
Ni11 Si0 2.307932 1_655
Ni11 Si0 2.307932 1_555
Ni11 Ni9 2.518762 1_656
Ni11 Ni9 2.518762 1_556
Ni11 Ni4 2.521198 1_555
Ni11 Ni4 2.521198 1_655
Ni11 Ni15 2.563410 1_555
Ni12 Si4 2.302733 1_555
Ni12 Si11 2.428337 1_455
Ni12 Si11 2.428337 1_555
Ni12 Si3 2.497987 1_545
Ni12 Si3 2.497987 1_445
Ni12 Ni8 2.563410 1_545
Ni12 Ni5 2.693458 1_555
Ni12 Ni3 2.737441 1_455
Ni12 Ni3 2.737441 1_555
Ni12 Ni19 2.917042 1_445
Ni12 Ni19 2.917042 1_545
Ni13 Si5 2.302733 1_555
Ni13 Si10 2.428337 1_455
Ni13 Si10 2.428337 1_555
Ni13 Si2 2.497987 1_455
Ni13 Si2 2.497987 1_555
Ni13 Ni9 2.563410 1_555
Ni13 Ni4 2.693458 1_554
Ni13 Ni2 2.737441 1_555
Ni13 Ni2 2.737441 1_455
Ni13 Ni18 2.917042 1_555
Ni13 Ni18 2.917042 1_455
Ni14 Si6 2.302733 1_555
Ni14 Si9 2.428337 1_655
Ni14 Si9 2.428337 1_555
Ni14 Si1 2.497987 1_565
Ni14 Si1 2.497987 1_665
Ni14 Ni7 2.693458 1_555
Ni14 Ni17 2.917042 1_665
Ni14 Ni17 2.917042 1_565
Ni15 Si7 2.302733 1_555
Ni15 Si8 2.428337 1_655
Ni15 Si8 2.428337 1_555
Ni15 Si0 2.497987 1_655
Ni15 Si0 2.497987 1_555
Ni15 Ni6 2.693458 1_556
Ni15 Ni16 2.917042 1_555
Ni15 Ni16 2.917042 1_655
Ni16 Si0 2.250364 1_555
Ni16 Si4 2.319252 1_555
Ni16 Si7 2.358696 1_555
Ni16 Si7 2.358696 1_455
Ni16 Ni3 2.677427 1_455
Ni16 Ni3 2.677427 1_555
Ni17 Si1 2.250364 1_555
Ni17 Si5 2.319252 1_555
Ni17 Si6 2.358696 1_445
Ni17 Si6 2.358696 1_545
Ni17 Ni2 2.677427 1_455
Ni17 Ni2 2.677427 1_555
Ni18 Si2 2.250364 1_555
Ni18 Si6 2.319252 1_555
Ni18 Si5 2.358696 1_555
Ni18 Si5 2.358696 1_655
Ni18 Ni2 2.579246 1_555
Ni19 Si3 2.250364 1_555
Ni19 Si7 2.319252 1_555
Ni19 Si4 2.358696 1_565
Ni19 Si4 2.358696 1_665
Ni19 Ni3 2.579246 1_565
