# generated using pymatgen
data_Nd3Tl5
_symmetry_space_group_name_H-M   'P 1'
_cell_length_a   6.62560896
_cell_length_b   6.62560896
_cell_length_c   10.62745088
_cell_angle_alpha   90.00000000
_cell_angle_beta   90.00000000
_cell_angle_gamma   101.77588876
_symmetry_Int_Tables_number   1
_chemical_formula_structural   Nd3Tl5
_chemical_formula_sum   'Nd6 Tl10'
_cell_volume   456.71229950
_cell_formula_units_Z   2
loop_
 _symmetry_equiv_pos_site_id
 _symmetry_equiv_pos_as_xyz
  1  'x, y, z'
loop_
 _atom_site_type_symbol
 _atom_site_label
 _atom_site_symmetry_multiplicity
 _atom_site_fract_x
 _atom_site_fract_y
 _atom_site_fract_z
 _atom_site_occupancy
  Nd  Nd0  1  0.62711579  0.62711579  0.25000000  1
  Nd  Nd1  1  0.37288421  0.37288421  0.75000000  1
  Nd  Nd2  1  0.79696777  0.20303223  0.50000000  1
  Nd  Nd3  1  0.79696777  0.20303223  0.00000000  1
  Nd  Nd4  1  0.20303223  0.79696777  0.50000000  1
  Nd  Nd5  1  0.20303223  0.79696777  0.00000000  1
  Tl  Tl0  1  0.00877612  0.00877612  0.25000000  1
  Tl  Tl1  1  0.99122388  0.99122388  0.75000000  1
  Tl  Tl2  1  0.30693419  0.30693419  0.04404570  1
  Tl  Tl3  1  0.69306581  0.69306581  0.95595430  1
  Tl  Tl4  1  0.30693419  0.30693419  0.45595430  1
  Tl  Tl5  1  0.69306581  0.69306581  0.54404570  1
  Tl  Tl6  1  0.07552886  0.50818983  0.25000000  1
  Tl  Tl7  1  0.49181017  0.92447114  0.75000000  1
  Tl  Tl8  1  0.92447114  0.49181017  0.75000000  1
  Tl  Tl9  1  0.50818983  0.07552886  0.25000000  1
loop_
_geom_bond_atom_site_label_1
_geom_bond_atom_site_label_2
_geom_bond_distance
_geom_bond_site_symmetry_2
Nd0 Tl3 3.173214 1_554
Nd0 Tl5 3.173214 1_555
Nd0 Tl0 3.190446 1_665
Nd0 Tl6 3.225416 1_655
Nd0 Tl9 3.225416 1_565
Nd0 Tl4 3.457525 1_555
Nd0 Tl2 3.457525 1_555
Nd0 Tl6 3.577930 1_555
Nd0 Tl9 3.577930 1_555
Nd1 Tl4 3.173214 1_555
Nd1 Tl2 3.173214 1_556
Nd1 Tl1 3.190446 1_445
Nd1 Tl8 3.225416 1_455
Nd1 Tl7 3.225416 1_545
Nd1 Tl5 3.457525 1_555
Nd1 Tl3 3.457525 1_555
Nd1 Tl7 3.577930 1_555
Nd1 Tl8 3.577930 1_555
Nd2 Tl9 3.282327 1_555
Nd2 Tl8 3.282327 1_555
Nd2 Tl5 3.340682 1_545
Nd2 Tl4 3.340682 1_655
Nd2 Tl1 3.379662 1_545
Nd2 Tl0 3.379662 1_655
Nd2 Tl4 3.485233 1_555
Nd2 Tl5 3.485233 1_555
Nd2 Tl6 3.609719 1_655
Nd2 Tl7 3.609719 1_545
Nd3 Tl9 3.282327 1_555
Nd3 Tl8 3.282327 1_554
Nd3 Tl3 3.340682 1_544
Nd3 Tl2 3.340682 1_655
Nd3 Tl1 3.379662 1_544
Nd3 Tl0 3.379662 1_655
Nd3 Tl2 3.485233 1_555
Nd3 Tl3 3.485233 1_554
Nd3 Tl6 3.609719 1_655
Nd3 Tl7 3.609719 1_544
Nd4 Tl7 3.282327 1_555
Nd4 Tl6 3.282327 1_555
Nd4 Tl5 3.340682 1_455
Nd4 Tl4 3.340682 1_565
Nd4 Tl1 3.379662 1_455
Nd4 Tl0 3.379662 1_565
Nd4 Tl4 3.485233 1_555
Nd4 Tl5 3.485233 1_555
Nd4 Tl9 3.609719 1_565
Nd4 Tl8 3.609719 1_455
Nd5 Tl7 3.282327 1_554
Nd5 Tl6 3.282327 1_555
Nd5 Tl3 3.340682 1_454
Nd5 Tl2 3.340682 1_565
Nd5 Tl1 3.379662 1_454
Nd5 Tl0 3.379662 1_565
Nd5 Tl2 3.485233 1_555
Nd5 Tl3 3.485233 1_554
Nd5 Tl9 3.609719 1_565
Nd5 Tl8 3.609719 1_454
Tl0 Tl9 3.247649 1_555
Tl0 Tl6 3.247649 1_555
Tl0 Tl4 3.317056 1_555
Tl0 Tl2 3.317056 1_555
Tl0 Tl6 3.434352 1_545
Tl0 Tl9 3.434352 1_455
Tl1 Tl7 3.247649 1_555
Tl1 Tl8 3.247649 1_555
Tl1 Tl5 3.317056 1_555
Tl1 Tl3 3.317056 1_555
Tl1 Tl7 3.434352 1_655
Tl1 Tl8 3.434352 1_565
Tl2 Tl9 3.123132 1_555
Tl2 Tl6 3.123132 1_555
Tl2 Tl3 3.360847 1_554
Tl3 Tl8 3.123132 1_555
Tl3 Tl7 3.123132 1_555
Tl4 Tl9 3.123132 1_555
Tl4 Tl6 3.123132 1_555
Tl4 Tl5 3.360847 1_555
Tl5 Tl8 3.123132 1_555
Tl5 Tl7 3.123132 1_555
