# generated using pymatgen
data_SmNbO2
_symmetry_space_group_name_H-M   'P 1'
_cell_length_a   7.43388108
_cell_length_b   7.43388108
_cell_length_c   7.43388108
_cell_angle_alpha   129.97620251
_cell_angle_beta   129.97620251
_cell_angle_gamma   73.44481176
_symmetry_Int_Tables_number   1
_chemical_formula_structural   SmNbO2
_chemical_formula_sum   'Sm4 Nb4 O8'
_cell_volume   235.45953456
_cell_formula_units_Z   4
loop_
 _symmetry_equiv_pos_site_id
 _symmetry_equiv_pos_as_xyz
  1  'x, y, z'
loop_
 _atom_site_type_symbol
 _atom_site_label
 _atom_site_symmetry_multiplicity
 _atom_site_fract_x
 _atom_site_fract_y
 _atom_site_fract_z
 _atom_site_occupancy
  Sm  Sm0  1  0.87500000  0.62500000  0.25000000  1
  Sm  Sm1  1  0.37500000  0.62500000  0.75000000  1
  Sm  Sm2  1  0.37500000  0.62500000  0.25000000  1
  Sm  Sm3  1  0.37500000  0.12500000  0.75000000  1
  Nb  Nb0  1  0.37500000  0.12500000  0.25000000  1
  Nb  Nb1  1  0.87500000  0.12500000  0.75000000  1
  Nb  Nb2  1  0.87500000  0.12500000  0.25000000  1
  Nb  Nb3  1  0.87500000  0.62500000  0.75000000  1
  O  O0  1  0.17592200  0.39843200  0.22251000  1
  O  O1  1  0.17592200  0.95341100  0.77749000  1
  O  O2  1  0.14843200  0.42592200  0.72251000  1
  O  O3  1  0.57407800  0.85156800  0.27749000  1
  O  O4  1  0.70341100  0.42592200  0.27749000  1
  O  O5  1  0.57407800  0.29658900  0.72251000  1
  O  O6  1  0.60156800  0.82407800  0.77749000  1
  O  O7  1  0.04658900  0.82407800  0.22251000  1
loop_
_geom_bond_atom_site_label_1
_geom_bond_atom_site_label_2
_geom_bond_distance
_geom_bond_site_symmetry_2
Nb0 O1 2.189630 1_544
Nb0 O5 2.189630 1_555
Nb0 O3 2.189632 1_545
Nb0 O0 2.189632 1_555
Nb1 O0 2.189632 1_656
Nb1 O3 2.189632 1_545
Nb1 O1 2.189635 1_645
Nb1 O5 2.189635 1_555
Nb2 O6 2.189632 1_544
Nb2 O2 2.189632 1_655
Nb2 O4 2.189635 1_555
Nb2 O7 2.189635 1_645
Nb3 O4 2.189630 1_555
Nb3 O7 2.189630 1_656
Nb3 O6 2.189632 1_555
Nb3 O2 2.189632 1_655
O0 Sm2 2.378724 1_555
O0 Sm1 2.425034 1_555
O0 Sm0 2.425034 1_455
O1 Sm3 2.378730 1_565
O1 Sm1 2.425028 1_555
O1 Sm0 2.425032 1_455
O2 Sm1 2.378724 1_555
O2 Sm2 2.425034 1_556
O2 Sm3 2.425034 1_555
O3 Sm2 2.378724 1_555
O3 Sm0 2.425034 1_555
O3 Sm1 2.425034 1_554
O4 Sm0 2.378730 1_555
O4 Sm2 2.425028 1_555
O4 Sm3 2.425032 1_554
O5 Sm3 2.378730 1_555
O5 Sm1 2.425028 1_555
O5 Sm0 2.425032 1_556
O6 Sm1 2.378724 1_555
O6 Sm2 2.425034 1_555
O6 Sm3 2.425034 1_565
O7 Sm0 2.378730 1_455
O7 Sm2 2.425028 1_555
O7 Sm3 2.425032 1_565
