# generated using pymatgen
data_ZnNi3P3O13
_symmetry_space_group_name_H-M   'P 1'
_cell_length_a   6.22817700
_cell_length_b   7.39979726
_cell_length_c   10.40621593
_cell_angle_alpha   99.93306918
_cell_angle_beta   90.00000000
_cell_angle_gamma   90.00000000
_symmetry_Int_Tables_number   1
_chemical_formula_structural   ZnNi3P3O13
_chemical_formula_sum   'Zn2 Ni6 P6 O26'
_cell_volume   472.40470004
_cell_formula_units_Z   2
loop_
 _symmetry_equiv_pos_site_id
 _symmetry_equiv_pos_as_xyz
  1  'x, y, z'
loop_
 _atom_site_type_symbol
 _atom_site_label
 _atom_site_symmetry_multiplicity
 _atom_site_fract_x
 _atom_site_fract_y
 _atom_site_fract_z
 _atom_site_occupancy
  Zn  Zn0  1  0.75000000  0.62853400  0.14807500  1
  Zn  Zn1  1  0.25000000  0.37146600  0.85192500  1
  Ni  Ni0  1  0.25000000  0.36082800  0.20451800  1
  Ni  Ni1  1  0.75000000  0.63917200  0.79548200  1
  Ni  Ni2  1  0.25000000  0.76387000  0.44282100  1
  Ni  Ni3  1  0.50000000  0.00000000  0.00000000  1
  Ni  Ni4  1  0.75000000  0.23613000  0.55717900  1
  Ni  Ni5  1  0.00000000  0.00000000  0.00000000  1
  P  P0  1  0.25000000  0.20675700  0.48419800  1
  P  P1  1  0.75000000  0.79324300  0.51580200  1
  P  P2  1  0.25000000  0.73610200  0.76527500  1
  P  P3  1  0.75000000  0.26389800  0.23472500  1
  P  P4  1  0.75000000  0.31506500  0.87553300  1
  P  P5  1  0.25000000  0.68493500  0.12446700  1
  O  O0  1  0.75000000  0.37029800  0.73795000  1
  O  O1  1  0.55936200  0.76018600  0.41904500  1
  O  O2  1  0.25000000  0.80031800  0.63487000  1
  O  O3  1  0.53738800  0.21302800  0.89257600  1
  O  O4  1  0.75000000  0.64830500  0.60522700  1
  O  O5  1  0.75000000  0.87380800  0.90406900  1
  O  O6  1  0.25000000  0.35169500  0.39477300  1
  O  O7  1  0.03738800  0.78697200  0.10742400  1
  O  O8  1  0.25000000  0.01513800  0.39928200  1
  O  O9  1  0.75000000  0.98486200  0.60071800  1
  O  O10  1  0.06304200  0.60504400  0.78972000  1
  O  O11  1  0.25000000  0.12619200  0.09593100  1
  O  O12  1  0.56304200  0.39495600  0.21028000  1
  O  O13  1  0.75000000  0.51034300  0.96175100  1
  O  O14  1  0.75000000  0.19968200  0.36513000  1
  O  O15  1  0.46261200  0.78697200  0.10742400  1
  O  O16  1  0.94063800  0.76018600  0.41904500  1
  O  O17  1  0.44063800  0.23981400  0.58095500  1
  O  O18  1  0.43695800  0.60504400  0.78972000  1
  O  O19  1  0.25000000  0.62970200  0.26205000  1
  O  O20  1  0.75000000  0.09166100  0.12396200  1
  O  O21  1  0.25000000  0.90833900  0.87603800  1
  O  O22  1  0.93695800  0.39495600  0.21028000  1
  O  O23  1  0.96261200  0.21302800  0.89257600  1
  O  O24  1  0.05936200  0.23981400  0.58095500  1
  O  O25  1  0.25000000  0.48965700  0.03824900  1
loop_
_geom_bond_atom_site_label_1
_geom_bond_atom_site_label_2
_geom_bond_distance
_geom_bond_site_symmetry_2
Ni0 O11 1.901207 1_555
Ni0 O12 1.965554 1_555
Ni0 O22 1.965554 1_455
Ni0 O19 1.976372 1_555
Ni0 O6 1.992605 1_555
Ni0 O25 2.114603 1_555
Ni1 O5 1.901207 1_555
Ni1 O18 1.965554 1_555
Ni1 O10 1.965554 1_655
Ni1 O0 1.976372 1_555
Ni1 O4 1.992605 1_555
Ni1 O13 2.114603 1_555
Ni2 O16 1.942174 1_455
Ni2 O1 1.942174 1_555
Ni2 O19 1.969786 1_555
Ni2 O2 1.969975 1_555
Ni2 O8 1.988222 1_565
Ni3 O5 1.992817 1_544
Ni3 O11 1.992817 1_555
Ni3 O20 2.060733 1_555
Ni3 O21 2.060733 1_544
Ni3 O15 2.096841 1_545
Ni3 O3 2.096841 1_554
Ni4 O24 1.942174 1_655
Ni4 O17 1.942174 1_555
Ni4 O0 1.969786 1_555
Ni4 O14 1.969975 1_555
Ni4 O9 1.988222 1_545
Ni5 O5 1.992817 1_444
Ni5 O11 1.992817 1_555
Ni5 O20 2.060733 1_455
Ni5 O21 2.060733 1_544
Ni5 O23 2.096841 1_454
Ni5 O7 2.096841 1_545
O0 P4 1.555231 1_555
O1 P1 1.548679 1_555
O2 P2 1.513201 1_555
O3 P4 1.549588 1_555
O3 Zn1 2.219988 1_555
O4 P1 1.536417 1_555
O6 P0 1.536417 1_555
O7 P5 1.549588 1_555
O7 Zn0 2.219988 1_455
O8 P0 1.535948 1_555
O9 P1 1.535948 1_555
O10 P2 1.564027 1_555
O10 Zn1 2.268994 1_555
O12 P3 1.564027 1_555
O12 Zn0 2.268994 1_555
O13 P4 1.563896 1_555
O13 Zn0 1.984771 1_556
O14 P3 1.513201 1_555
O15 P5 1.549588 1_555
O15 Zn0 2.219988 1_555
O16 P1 1.548679 1_555
O17 P0 1.548679 1_555
O18 P2 1.564027 1_555
O18 Zn1 2.268994 1_555
O19 P5 1.555231 1_555
O20 P3 1.564010 1_555
O21 P2 1.564010 1_555
O22 P3 1.564027 1_555
O22 Zn0 2.268994 1_555
O23 P4 1.549588 1_555
O23 Zn1 2.219988 1_655
O24 P0 1.548679 1_555
O25 P5 1.563896 1_555
O25 Zn1 1.984771 1_554
