# generated using pymatgen
data_Sm6Ti4Al43
_symmetry_space_group_name_H-M   'P 1'
_cell_length_a   11.04123888
_cell_length_b   11.04124998
_cell_length_c   17.90977630
_cell_angle_alpha   89.99991961
_cell_angle_beta   90.00010451
_cell_angle_gamma   120.00003810
_symmetry_Int_Tables_number   1
_chemical_formula_structural   Sm6Ti4Al43
_chemical_formula_sum   'Sm12 Ti8 Al86'
_cell_volume   1890.84824557
_cell_formula_units_Z   2
loop_
 _symmetry_equiv_pos_site_id
 _symmetry_equiv_pos_as_xyz
  1  'x, y, z'
loop_
 _atom_site_type_symbol
 _atom_site_label
 _atom_site_symmetry_multiplicity
 _atom_site_fract_x
 _atom_site_fract_y
 _atom_site_fract_z
 _atom_site_occupancy
  Sm  Sm0  1  0.52935471  0.00000004  0.59625075  1
  Sm  Sm1  1  0.47065346  0.00000019  0.40378619  1
  Sm  Sm2  1  -0.00000023  0.52935355  0.59624896  1
  Sm  Sm3  1  0.47065369  -0.00000007  0.09619397  1
  Sm  Sm4  1  0.00000038  0.52935386  0.90377053  1
  Sm  Sm5  1  0.00000085  0.47065250  0.40378606  1
  Sm  Sm6  1  0.52935545  0.00000006  0.90376959  1
  Sm  Sm7  1  -0.00000008  0.47065077  0.09619438  1
  Sm  Sm8  1  0.47064882  0.47064930  0.59624790  1
  Sm  Sm9  1  0.52934961  0.52934959  0.40378455  1
  Sm  Sm10  1  0.52935124  0.52935174  0.09619526  1
  Sm  Sm11  1  0.47064870  0.47064839  0.90377154  1
  Ti  Ti0  1  -0.00000395  -0.00000128  0.49999459  1
  Ti  Ti1  1  -0.00000407  -0.00000169  0.00000489  1
  Ti  Ti2  1  0.72812194  0.00000082  0.75000271  1
  Ti  Ti3  1  0.27188911  -0.00000086  0.24999611  1
  Ti  Ti4  1  -0.00000303  0.72811752  0.75000241  1
  Ti  Ti5  1  -0.00000047  0.27188560  0.24999683  1
  Ti  Ti6  1  0.27188489  0.27188443  0.75000248  1
  Ti  Ti7  1  0.72811681  0.72811710  0.24999726  1
  Al  Al0  1  0.15272348  0.59837125  0.75000610  1
  Al  Al1  1  0.84727718  0.40163171  0.24999386  1
  Al  Al2  1  0.40163149  0.55435627  0.75000621  1
  Al  Al3  1  0.59837061  0.15272250  0.75000683  1
  Al  Al4  1  0.59837166  0.44565094  0.24999360  1
  Al  Al5  1  0.40163305  0.84727763  0.24999335  1
  Al  Al6  1  0.44564729  0.84727762  0.75000652  1
  Al  Al7  1  0.55435466  0.40162981  0.75000637  1
  Al  Al8  1  0.55435506  0.15272310  0.24999340  1
  Al  Al9  1  0.44564915  0.59837036  0.24999357  1
  Al  Al10  1  0.84727628  0.44564545  0.75000625  1
  Al  Al11  1  0.15272120  0.55435200  0.24999344  1
  Al  Al12  1  0.15520543  -0.00000029  0.11686870  1
  Al  Al13  1  0.84479684  -0.00000336  0.88312330  1
  Al  Al14  1  -0.00000168  0.15520681  0.11687032  1
  Al  Al15  1  0.84479231  0.00000023  0.61688195  1
  Al  Al16  1  0.00000209  0.15521135  0.38312428  1
  Al  Al17  1  -0.00000179  0.84479516  0.88312440  1
  Al  Al18  1  0.15520893  -0.00000008  0.38312375  1
  Al  Al19  1  -0.00000394  0.84479070  0.61687905  1
  Al  Al20  1  0.84478941  0.84479101  0.11687186  1
  Al  Al21  1  0.15520962  0.15521028  0.88312618  1
  Al  Al22  1  0.15521094  0.15521251  0.61687966  1
  Al  Al23  1  0.84478880  0.84478686  0.38312316  1
  Al  Al24  1  0.24747549  0.49494948  0.50001214  1
  Al  Al25  1  0.75252659  0.50505159  0.50001244  1
  Al  Al26  1  0.50505115  0.75252703  0.50001249  1
  Al  Al27  1  0.75252709  0.50505168  -0.00001247  1
  Al  Al28  1  0.49494939  0.24747564  -0.00001291  1
  Al  Al29  1  0.49495005  0.24747657  0.50001279  1
  Al  Al30  1  0.24747500  0.49494881  -0.00001292  1
  Al  Al31  1  0.50505245  0.75252766  -0.00001258  1
  Al  Al32  1  0.24747286  0.75252397  0.50001279  1
  Al  Al33  1  0.75252434  0.24747361  0.50001311  1
  Al  Al34  1  0.75252486  0.24747245  -0.00001287  1
  Al  Al35  1  0.24747288  0.75252470  -0.00001281  1
  Al  Al36  1  0.14602328  -0.00000379  0.75000563  1
  Al  Al37  1  0.85397291  -0.00000201  0.24999231  1
  Al  Al38  1  -0.00000049  0.14602273  0.75001212  1
  Al  Al39  1  -0.00000142  0.85397734  0.24998816  1
  Al  Al40  1  0.85397212  0.85397445  0.75000592  1
  Al  Al41  1  0.14602368  0.14602225  0.24998799  1
  Al  Al42  1  0.33333312  0.66666774  0.62601280  1
  Al  Al43  1  0.66666758  0.33333492  0.37399400  1
  Al  Al44  1  0.66666787  0.33333451  0.12599852  1
  Al  Al45  1  0.66666665  0.33333208  0.87399432  1
  Al  Al46  1  0.33333359  0.66666821  0.87399448  1
  Al  Al47  1  0.33333424  0.66666677  0.12599855  1
  Al  Al48  1  0.33333319  0.66666660  0.37399369  1
  Al  Al49  1  0.66666753  0.33333319  0.62601293  1
  Al  Al50  1  0.25052811  -0.00000044  0.52953061  1
  Al  Al51  1  0.74946792  -0.00000028  0.47047804  1
  Al  Al52  1  -0.00000157  0.25052923  0.52953020  1
  Al  Al53  1  0.74946969  -0.00000054  0.02951986  1
  Al  Al54  1  -0.00000146  0.25052704  0.97047187  1
  Al  Al55  1  -0.00000115  0.74946928  0.47047787  1
  Al  Al56  1  0.25052684  -0.00000064  0.97047210  1
  Al  Al57  1  -0.00000142  0.74947019  0.02951998  1
  Al  Al58  1  0.74946927  0.74947052  0.52953042  1
  Al  Al59  1  0.25052910  0.25052960  0.47047699  1
  Al  Al60  1  0.25052749  0.25052779  0.02952030  1
  Al  Al61  1  0.74947128  0.74947109  0.97047176  1
  Al  Al62  1  0.15879782  0.39236422  0.66470784  1
  Al  Al63  1  0.84121005  0.60764392  0.33530220  1
  Al  Al64  1  0.60763509  0.76643198  0.66471004  1
  Al  Al65  1  0.84120821  0.60764567  0.16469179  1
  Al  Al66  1  0.39235760  0.15879019  0.83530502  1
  Al  Al67  1  0.39235961  0.23356870  0.33529857  1
  Al  Al68  1  0.15879689  0.39236584  0.83530281  1
  Al  Al69  1  0.60764604  0.84120905  0.16469140  1
  Al  Al70  1  0.23356799  0.84120479  0.66470949  1
  Al  Al71  1  0.39235801  0.23356718  0.16468972  1
  Al  Al72  1  0.76643280  0.60763514  0.83530145  1
  Al  Al73  1  0.76643305  0.15878908  0.33530084  1
  Al  Al74  1  0.60763518  0.76643069  0.83530159  1
  Al  Al75  1  0.23356442  0.39235623  0.16469069  1
  Al  Al76  1  0.60764331  0.84121024  0.33530235  1
  Al  Al77  1  0.39236477  0.15879424  0.66470863  1
  Al  Al78  1  0.76643482  0.15878954  0.16469047  1
  Al  Al79  1  0.23356560  0.39235792  0.33529772  1
  Al  Al80  1  0.23356659  0.84120171  0.83530156  1
  Al  Al81  1  0.76643544  0.60763626  0.66470880  1
  Al  Al82  1  0.84120530  0.23356841  0.83530159  1
  Al  Al83  1  0.15878948  0.76643343  0.16468940  1
  Al  Al84  1  0.15878909  0.76643181  0.33529881  1
  Al  Al85  1  0.84119985  0.23356337  0.66471053  1
loop_
_geom_bond_atom_site_label_1
_geom_bond_atom_site_label_2
_geom_bond_distance
_geom_bond_site_symmetry_2
Sm0 Sm1 3.507401 1_555
Sm0 Ti2 3.521228 1_555
Sm1 Ti3 3.521742 1_555
Sm2 Sm5 3.507374 1_555
Sm2 Ti4 3.521246 1_555
Sm3 Sm6 3.506697 1_554
Sm3 Ti3 3.521919 1_555
Sm4 Sm7 3.506688 1_556
Sm4 Ti4 3.521447 1_555
Sm5 Ti5 3.521753 1_555
Sm6 Ti2 3.521439 1_555
Sm7 Ti5 3.521925 1_555
Sm8 Sm9 3.507379 1_555
Sm8 Ti6 3.521252 1_555
Sm9 Ti7 3.521731 1_555
Sm10 Sm11 3.506686 1_554
Sm10 Ti7 3.521922 1_555
Sm11 Ti6 3.521450 1_555
Al0 Ti4 2.703982 1_555
Al0 Al68 2.768452 1_555
Al0 Al62 2.768490 1_555
Al0 Al80 2.815269 1_555
Al0 Al70 2.815303 1_555
Al0 Al46 2.823583 1_555
Al0 Al42 2.823654 1_555
Al0 Al10 2.920683 1_455
Al0 Al6 3.020704 1_555
Al0 Al2 3.020707 1_555
Al0 Sm2 3.118066 1_555
Al0 Sm4 3.118182 1_555
Al1 Ti5 2.703940 1_655
Al1 Al65 2.768562 1_555
Al1 Al63 2.768603 1_555
Al1 Al78 2.815450 1_555
Al1 Al73 2.815484 1_555
Al1 Al44 2.823676 1_555
Al1 Al43 2.823750 1_555
Al1 Al11 2.920653 1_655
Al1 Al8 3.020702 1_555
Al1 Al4 3.020708 1_555
Al1 Sm5 3.118620 1_655
Al1 Sm7 3.118735 1_655
Al2 Ti6 2.703973 1_555
Al2 Al74 2.768409 1_555
Al2 Al64 2.768424 1_555
Al2 Al68 2.815313 1_555
Al2 Al62 2.815324 1_555
Al2 Al46 2.823584 1_555
Al2 Al42 2.823652 1_555
Al2 Al7 2.920709 1_555
Al2 Al6 3.020688 1_555
Al2 Sm8 3.118092 1_555
Al2 Sm11 3.118202 1_555
Al3 Ti2 2.703982 1_555
Al3 Al77 2.768460 1_555
Al3 Al66 2.768511 1_555
Al3 Al85 2.815269 1_555
Al3 Al82 2.815289 1_555
Al3 Al45 2.823572 1_555
Al3 Al49 2.823666 1_555
Al3 Al6 2.920664 1_545
Al3 Al7 3.020708 1_555
Al3 Sm0 3.118048 1_555
Al3 Sm6 3.118152 1_555
Al4 Ti7 2.703918 1_555
Al4 Al67 2.768579 1_555
Al4 Al71 2.768582 1_555
Al4 Al65 2.815384 1_555
Al4 Al63 2.815458 1_555
Al4 Al44 2.823700 1_555
Al4 Al43 2.823766 1_555
Al4 Al9 2.920636 1_555
Al4 Al8 3.020755 1_555
Al4 Sm9 3.118591 1_555
Al4 Sm10 3.118706 1_555
Al5 Ti3 2.703912 1_565
Al5 Al69 2.768552 1_555
Al5 Al76 2.768586 1_555
Al5 Al83 2.815459 1_555
Al5 Al84 2.815479 1_555
Al5 Al8 2.920669 1_565
Al5 Al9 3.020709 1_555
Al5 Sm1 3.118628 1_565
Al5 Sm3 3.118729 1_565
Al6 Ti2 2.703995 1_565
Al6 Al80 2.768443 1_555
Al6 Al70 2.768459 1_555
Al6 Al74 2.815293 1_555
Al6 Al64 2.815301 1_555
Al6 Sm0 3.118041 1_565
Al6 Sm6 3.118158 1_565
Al7 Ti6 2.703951 1_555
Al7 Al72 2.768431 1_555
Al7 Al81 2.768474 1_555
Al7 Al77 2.815330 1_555
Al7 Sm8 3.118094 1_555
Al7 Sm11 3.118202 1_555
Al8 Ti3 2.703915 1_555
Al8 Sm1 3.118627 1_555
Al8 Sm3 3.118734 1_555
Al9 Ti7 2.703929 1_555
Al9 Sm9 3.118589 1_555
Al9 Sm10 3.118708 1_555
Al10 Ti4 2.703973 1_655
Al10 Al82 2.768432 1_555
Al10 Al85 2.768462 1_555
Al10 Al72 2.815291 1_555
Al10 Al81 2.815300 1_555
Al10 Al45 2.823580 1_555
Al10 Al49 2.823645 1_555
Al10 Al7 3.020688 1_555
Al10 Al3 3.020696 1_555
Al10 Sm2 3.118072 1_655
Al10 Sm4 3.118182 1_655
Al11 Ti5 2.703920 1_555
Al11 Al83 2.768571 1_555
Al11 Al84 2.768574 1_555
Al11 Al75 2.815416 1_555
Al11 Al79 2.815420 1_555
Al11 Al47 2.823695 1_555
Al11 Al48 2.823762 1_555
Al11 Al5 3.020740 1_555
Al11 Al9 3.020746 1_555
Al11 Sm5 3.118614 1_555
Al11 Sm7 3.118718 1_555
Al12 Ti1 2.705072 1_555
Al12 Ti3 2.710092 1_555
Al12 Al83 2.736361 1_545
Al12 Al71 2.736379 1_555
Al12 Al56 2.825282 1_554
Al12 Al60 2.880150 1_555
Al12 Al57 2.880165 1_545
Al12 Al41 2.908138 1_555
Al12 Al39 2.908146 1_545
Al12 Al14 2.968181 1_555
Al12 Al20 2.968195 1_445
Al12 Sm3 3.502566 1_555
Al13 Ti1 2.705245 1_656
Al13 Ti2 2.709948 1_555
Al13 Al74 2.736423 1_545
Al13 Al82 2.736464 1_555
Al13 Al53 2.825310 1_556
Al13 Al61 2.880124 1_545
Al13 Al54 2.880164 1_655
Al13 Al38 2.908021 1_655
Al13 Al40 2.908085 1_545
Al13 Al17 2.968072 1_645
Al13 Al21 2.968164 1_655
Al13 Sm6 3.502457 1_555
Al14 Ti1 2.705089 1_555
Al14 Ti5 2.710052 1_555
Al14 Al78 2.736322 1_455
Al14 Al75 2.736351 1_555
Al14 Al54 2.825304 1_554
Al14 Al53 2.880173 1_455
Al14 Al60 2.880177 1_555
Al14 Al41 2.908136 1_555
Al14 Al37 2.908199 1_455
Al14 Al20 2.968196 1_445
Al14 Sm7 3.502516 1_555
Al15 Ti0 2.705373 1_655
Al15 Ti2 2.709922 1_555
Al15 Al85 2.736419 1_555
Al15 Al64 2.736448 1_545
Al15 Al51 2.825410 1_555
Al15 Al52 2.880189 1_655
Al15 Al58 2.880195 1_545
Al15 Al40 2.908216 1_545
Al15 Al38 2.908304 1_655
Al15 Al19 2.968172 1_645
Al15 Al22 2.968220 1_655
Al15 Sm0 3.502366 1_555
Al16 Ti0 2.705169 1_555
Al16 Ti5 2.710049 1_555
Al16 Al79 2.736358 1_555
Al16 Al73 2.736368 1_455
Al16 Al52 2.825429 1_555
Al16 Al59 2.880184 1_555
Al16 Al51 2.880254 1_455
Al16 Al37 2.908371 1_455
Al16 Al41 2.908406 1_555
Al16 Al18 2.968219 1_555
Al16 Al23 2.968279 1_445
Al16 Sm5 3.502475 1_555
Al17 Ti1 2.705277 1_566
Al17 Ti4 2.709974 1_555
Al17 Al72 2.736419 1_455
Al17 Al80 2.736445 1_555
Al17 Al57 2.825277 1_556
Al17 Al61 2.880128 1_455
Al17 Al56 2.880142 1_565
Al17 Al36 2.908124 1_565
Al17 Al40 2.908134 1_455
Al17 Al21 2.968189 1_565
Al17 Sm4 3.502451 1_555
Al18 Ti0 2.705199 1_555
Al18 Ti3 2.710082 1_555
Al18 Al84 2.736385 1_545
Al18 Al67 2.736399 1_555
Al18 Al50 2.825440 1_555
Al18 Al59 2.880215 1_555
Al18 Al55 2.880229 1_545
Al18 Al41 2.908386 1_555
Al18 Al39 2.908394 1_545
Al18 Al23 2.968234 1_445
Al18 Sm1 3.502501 1_555
Al19 Ti0 2.705354 1_565
Al19 Ti4 2.709975 1_555
Al19 Al81 2.736403 1_455
Al19 Al70 2.736482 1_555
Al19 Al55 2.825363 1_555
Al19 Al58 2.880140 1_455
Al19 Al50 2.880183 1_565
Al19 Al36 2.908259 1_565
Al19 Al40 2.908264 1_455
Al19 Al22 2.968253 1_565
Al19 Sm2 3.502385 1_555
Al20 Ti1 2.705105 1_665
Al20 Ti7 2.710007 1_555
Al20 Al69 2.736292 1_555
Al20 Al65 2.736319 1_555
Al20 Al61 2.825327 1_554
Al20 Al53 2.880188 1_565
Al20 Al57 2.880205 1_655
Al20 Al39 2.908106 1_655
Al20 Al37 2.908166 1_565
Al20 Sm10 3.502465 1_555
Al21 Ti1 2.705310 1_556
Al21 Ti6 2.709987 1_555
Al21 Al66 2.736360 1_555
Al21 Al68 2.736414 1_555
Al21 Al60 2.825223 1_556
Al21 Al54 2.880131 1_555
Al21 Al56 2.880131 1_555
Al21 Al38 2.908076 1_555
Al21 Al36 2.908205 1_555
Al21 Sm11 3.502405 1_555
Al22 Ti0 2.705407 1_555
Al22 Ti6 2.709963 1_555
Al22 Al62 2.736405 1_555
Al22 Al77 2.736453 1_555
Al22 Al59 2.825365 1_555
Al22 Al52 2.880175 1_555
Al22 Al50 2.880183 1_555
Al22 Al36 2.908291 1_555
Al22 Al38 2.908353 1_555
Al22 Sm8 3.502366 1_555
Al23 Ti0 2.705185 1_665
Al23 Ti7 2.710001 1_555
Al23 Al63 2.736314 1_555
Al23 Al76 2.736346 1_555
Al23 Al58 2.825443 1_555
Al23 Al55 2.880211 1_655
Al23 Al51 2.880267 1_565
Al23 Al37 2.908340 1_565
Al23 Al39 2.908377 1_655
Al23 Sm9 3.502431 1_555
Al24 Al52 2.766713 1_555
Al24 Al59 2.766753 1_555
Al24 Al42 2.790790 1_555
Al24 Al48 2.791040 1_555
Al24 Al32 2.843959 1_555
Al24 Al26 2.843965 1_555
Al24 Sm5 3.126523 1_555
Al24 Sm8 3.126596 1_555
Al24 Al62 3.135778 1_555
Al24 Al79 3.136115 1_555
Al24 Sm9 3.408575 1_555
Al24 Sm2 3.408698 1_555
Al25 Al58 2.766705 1_555
Al25 Al55 2.766729 1_655
Al25 Al49 2.790787 1_555
Al25 Al43 2.791039 1_555
Al25 Al29 2.843956 1_555
Al25 Al33 2.843970 1_555
Al25 Sm9 3.126540 1_555
Al25 Sm2 3.126593 1_655
Al25 Al81 3.135786 1_555
Al25 Al63 3.136047 1_555
Al25 Sm5 3.408561 1_655
Al25 Sm8 3.408672 1_555
Al26 Al58 2.766687 1_555
Al26 Al51 2.766727 1_565
Al26 Al42 2.790784 1_555
Al26 Al48 2.791048 1_555
Al26 Al32 2.843967 1_555
Al26 Sm9 3.126554 1_555
Al26 Sm0 3.126610 1_565
Al26 Al64 3.135806 1_555
Al26 Al76 3.136045 1_555
Al26 Sm1 3.408539 1_565
Al26 Sm8 3.408669 1_555
Al27 Al61 2.766692 1_554
Al27 Al57 2.766722 1_655
Al27 Al45 2.790690 1_554
Al27 Al44 2.790932 1_555
Al27 Al28 2.843968 1_555
Al27 Al34 2.843984 1_555
Al27 Sm10 3.126347 1_555
Al27 Sm4 3.126406 1_654
Al27 Al72 3.135611 1_554
Al27 Al65 3.135946 1_555
Al27 Sm7 3.408375 1_655
Al27 Sm11 3.408493 1_554
Al28 Al56 2.766710 1_554
Al28 Al60 2.766758 1_555
Al28 Al45 2.790670 1_554
Al28 Al44 2.790944 1_555
Al28 Al34 2.843970 1_555
Al28 Sm3 3.126351 1_555
Al28 Sm11 3.126396 1_554
Al28 Al66 3.135573 1_554
Al28 Al71 3.135917 1_555
Al28 Sm10 3.408413 1_555
Al28 Sm6 3.408534 1_554
Al29 Al50 2.766721 1_555
Al29 Al59 2.766760 1_555
Al29 Al49 2.790775 1_555
Al29 Al43 2.791049 1_555
Al29 Al33 2.843956 1_555
Al29 Sm1 3.126552 1_555
Al29 Sm8 3.126597 1_555
Al29 Al77 3.135787 1_555
Al29 Al67 3.136107 1_555
Al29 Sm9 3.408571 1_555
Al29 Sm0 3.408716 1_555
Al30 Al54 2.766708 1_554
Al30 Al60 2.766751 1_555
Al30 Al46 2.790678 1_554
Al30 Al47 2.790945 1_555
Al30 Al35 2.843971 1_555
Al30 Al31 2.843982 1_555
Al30 Sm7 3.126343 1_555
Al30 Sm11 3.126407 1_554
Al30 Al68 3.135580 1_554
Al30 Al75 3.135933 1_555
Al30 Sm10 3.408403 1_555
Al30 Sm4 3.408504 1_554
Al31 Al61 2.766689 1_554
Al31 Al53 2.766717 1_565
Al31 Al46 2.790678 1_554
Al31 Al47 2.790942 1_555
Al31 Al35 2.843981 1_555
Al31 Sm10 3.126339 1_555
Al31 Sm6 3.126401 1_564
Al31 Al74 3.135610 1_554
Al31 Al69 3.135941 1_555
Al31 Sm3 3.408363 1_565
Al31 Sm11 3.408506 1_554
Al32 Al50 2.766708 1_565
Al32 Al55 2.766748 1_555
Al32 Al42 2.790768 1_555
Al32 Al48 2.791056 1_555
Al32 Sm1 3.126551 1_565
Al32 Sm2 3.126590 1_555
Al32 Al70 3.135802 1_555
Al32 Al84 3.136107 1_555
Al32 Sm5 3.408542 1_555
Al32 Sm0 3.408716 1_565
Al33 Al52 2.766683 1_655
Al33 Al51 2.766742 1_555
Al33 Al49 2.790769 1_555
Al33 Al43 2.791053 1_555
Al33 Sm5 3.126550 1_655
Al33 Sm0 3.126604 1_555
Al33 Al85 3.135803 1_555
Al33 Al73 3.136087 1_555
Al33 Sm1 3.408544 1_555
Al33 Sm2 3.408685 1_655
Al34 Al54 2.766679 1_654
Al34 Al53 2.766730 1_555
Al34 Al45 2.790671 1_554
Al34 Al44 2.790952 1_555
Al34 Sm7 3.126343 1_655
Al34 Sm6 3.126397 1_554
Al34 Al82 3.135611 1_554
Al34 Al78 3.135930 1_555
Al34 Sm3 3.408363 1_555
Al34 Sm4 3.408520 1_654
Al35 Al56 2.766694 1_564
Al35 Al57 2.766747 1_555
Al35 Al46 2.790671 1_554
Al35 Al47 2.790948 1_555
Al35 Sm3 3.126350 1_565
Al35 Sm4 3.126394 1_554
Al35 Al80 3.135601 1_554
Al35 Al83 3.135913 1_555
Al35 Sm7 3.408383 1_555
Al35 Sm6 3.408535 1_564
Al36 Ti4 2.602088 1_545
Al36 Ti6 2.602177 1_555
Al36 Al38 2.792585 1_555
Al36 Al40 2.792590 1_445
Al36 Al70 2.834891 1_545
Al36 Al80 2.834902 1_545
Al36 Al66 2.834908 1_555
Al36 Al77 2.834945 1_555
Al37 Ti7 2.602108 1_545
Al37 Ti5 2.602171 1_655
Al37 Al39 2.792547 1_645
Al37 Al41 2.792586 1_655
Al37 Al69 2.834861 1_545
Al37 Al78 2.834895 1_555
Al37 Al76 2.834970 1_545
Al37 Al73 2.834973 1_555
Al38 Ti2 2.602073 1_455
Al38 Ti6 2.602147 1_555
Al38 Al40 2.792565 1_445
Al38 Al82 2.834858 1_455
Al38 Al68 2.834895 1_555
Al38 Al85 2.834981 1_455
Al38 Al62 2.835015 1_555
Al39 Ti7 2.602112 1_455
Al39 Ti3 2.602194 1_565
Al39 Al41 2.792533 1_565
Al39 Al65 2.834857 1_455
Al39 Al83 2.834906 1_555
Al39 Al84 2.835024 1_555
Al39 Al63 2.835037 1_455
Al40 Ti2 2.602069 1_565
Al40 Ti4 2.602117 1_655
Al40 Al74 2.834893 1_555
Al40 Al64 2.834893 1_555
Al40 Al72 2.834918 1_555
Al40 Al81 2.834930 1_555
Al41 Ti5 2.602170 1_555
Al41 Ti3 2.602179 1_555
Al41 Al75 2.834886 1_555
Al41 Al71 2.834893 1_555
Al41 Al67 2.835020 1_555
Al41 Al79 2.835021 1_555
Al42 Al64 2.744119 1_555
Al42 Al62 2.744120 1_555
Al42 Al70 2.744122 1_555
Al42 Al6 2.823661 1_555
Al42 Sm0 3.247800 1_565
Al42 Sm2 3.247808 1_555
Al42 Sm8 3.247823 1_555
Al43 Al63 2.744163 1_555
Al43 Al67 2.744167 1_555
Al43 Al73 2.744196 1_555
Al43 Al8 2.823767 1_555
Al43 Sm9 3.247881 1_555
Al43 Sm5 3.247887 1_655
Al43 Sm1 3.247901 1_555
Al44 Al71 2.744167 1_555
Al44 Al65 2.744184 1_555
Al44 Al78 2.744192 1_555
Al44 Al8 2.823684 1_555
Al44 Sm7 3.247913 1_655
Al44 Sm10 3.247930 1_555
Al44 Sm3 3.247937 1_555
Al45 Al82 2.744107 1_555
Al45 Al72 2.744110 1_555
Al45 Al66 2.744149 1_555
Al45 Al7 2.823574 1_555
Al45 Sm6 3.247836 1_555
Al45 Sm4 3.247851 1_655
Al45 Sm11 3.247859 1_555
Al46 Al80 2.744083 1_555
Al46 Al68 2.744098 1_555
Al46 Al74 2.744100 1_555
Al46 Al6 2.823576 1_555
Al46 Sm6 3.247835 1_565
Al46 Sm4 3.247844 1_555
Al46 Sm11 3.247865 1_555
Al47 Al75 2.744175 1_555
Al47 Al83 2.744184 1_555
Al47 Al69 2.744188 1_555
Al47 Al5 2.823681 1_555
Al47 Al9 2.823685 1_555
Al47 Sm10 3.247915 1_555
Al47 Sm3 3.247924 1_565
Al47 Sm7 3.247932 1_555
Al48 Al76 2.744171 1_555
Al48 Al79 2.744179 1_555
Al48 Al84 2.744181 1_555
Al48 Al5 2.823757 1_555
Al48 Al9 2.823768 1_555
Al48 Sm5 3.247879 1_555
Al48 Sm9 3.247888 1_555
Al48 Sm1 3.247893 1_565
Al49 Al85 2.744115 1_555
Al49 Al81 2.744122 1_555
Al49 Al77 2.744122 1_555
Al49 Al7 2.823656 1_555
Al49 Sm2 3.247801 1_655
Al49 Sm0 3.247807 1_555
Al49 Sm8 3.247827 1_555
Al50 Ti0 2.816304 1_555
Al50 Al77 2.939742 1_555
Al50 Al70 2.939749 1_545
Al50 Al55 2.961452 1_545
Al50 Al59 2.961457 1_555
Al50 Sm0 3.302360 1_555
Al50 Sm1 3.313438 1_555
Al51 Ti0 2.816206 1_655
Al51 Al76 2.939657 1_545
Al51 Al73 2.939677 1_555
Al51 Al52 2.961450 1_655
Al51 Al58 2.961452 1_545
Al51 Sm1 3.302057 1_555
Al51 Sm0 3.313688 1_555
Al52 Ti0 2.816282 1_555
Al52 Al62 2.939748 1_555
Al52 Al85 2.939782 1_455
Al52 Al59 2.961464 1_555
Al52 Sm2 3.302330 1_555
Al52 Sm5 3.313407 1_555
Al53 Ti1 2.816183 1_655
Al53 Al78 2.939588 1_555
Al53 Al69 2.939597 1_545
Al53 Al54 2.961406 1_654
Al53 Al61 2.961420 1_544
Al53 Sm3 3.301962 1_555
Al53 Sm6 3.313418 1_554
Al54 Ti1 2.816251 1_556
Al54 Al82 2.939615 1_455
Al54 Al68 2.939629 1_555
Al54 Al60 2.961410 1_556
Al54 Sm4 3.302237 1_555
Al54 Sm7 3.313156 1_556
Al55 Ti0 2.816235 1_565
Al55 Al63 2.939656 1_455
Al55 Al84 2.939720 1_555
Al55 Al58 2.961457 1_455
Al55 Sm5 3.302095 1_555
Al55 Sm2 3.313688 1_555
Al56 Ti1 2.816281 1_556
Al56 Al66 2.939552 1_555
Al56 Al80 2.939647 1_545
Al56 Al60 2.961410 1_556
Al56 Al57 2.961410 1_546
Al56 Sm6 3.302269 1_555
Al56 Sm3 3.313170 1_556
Al57 Ti1 2.816213 1_565
Al57 Al83 2.939575 1_555
Al57 Al65 2.939604 1_455
Al57 Al61 2.961401 1_454
Al57 Sm7 3.302002 1_555
Al57 Sm4 3.313437 1_554
Al58 Ti0 2.816259 1_665
Al58 Al81 2.939761 1_555
Al58 Al64 2.939765 1_555
Al58 Sm8 3.302288 1_555
Al58 Sm9 3.313413 1_555
Al59 Ti0 2.816247 1_555
Al59 Al67 2.939723 1_555
Al59 Al79 2.939727 1_555
Al59 Sm9 3.302120 1_555
Al59 Sm8 3.313714 1_555
Al60 Ti1 2.816223 1_555
Al60 Al71 2.939584 1_555
Al60 Al75 2.939600 1_555
Al60 Sm10 3.302043 1_555
Al60 Sm11 3.313455 1_554
Al61 Ti1 2.816233 1_666
Al61 Al74 2.939626 1_555
Al61 Al72 2.939640 1_555
Al61 Sm11 3.302194 1_555
Al61 Sm10 3.313138 1_556
Al62 Ti6 2.706135 1_555
Al62 Al85 3.036869 1_455
Al62 Al68 3.055318 1_555
Al62 Sm2 3.084988 1_555
Al62 Sm8 3.336171 1_555
Al63 Ti7 2.706234 1_555
Al63 Al84 3.036688 1_655
Al63 Al65 3.055594 1_555
Al63 Sm5 3.085118 1_655
Al63 Sm9 3.336386 1_555
Al64 Ti2 2.706134 1_565
Al64 Al81 3.036854 1_555
Al64 Al74 3.055256 1_555
Al64 Sm8 3.084973 1_555
Al64 Sm0 3.336154 1_565
Al65 Ti7 2.706216 1_555
Al65 Al83 3.036709 1_655
Al65 Sm7 3.085257 1_655
Al65 Sm10 3.336442 1_555
Al66 Ti6 2.706214 1_555
Al66 Al7 2.815379 1_555
Al66 Al80 3.036781 1_545
Al66 Al77 3.055343 1_555
Al66 Sm6 3.085030 1_555
Al66 Sm11 3.336271 1_555
Al67 Ti3 2.706236 1_555
Al67 Al8 2.815453 1_555
Al67 Al79 3.036731 1_555
Al67 Al71 3.055566 1_555
Al67 Sm9 3.085125 1_555
Al67 Sm1 3.336441 1_555
Al68 Ti6 2.706217 1_555
Al68 Al82 3.036808 1_455
Al68 Sm4 3.085030 1_555
Al68 Sm11 3.336240 1_555
Al69 Ti7 2.706214 1_555
Al69 Al9 2.815407 1_555
Al69 Al78 3.036704 1_565
Al69 Al76 3.055604 1_555
Al69 Sm3 3.085224 1_565
Al69 Sm10 3.336447 1_555
Al70 Ti4 2.706152 1_555
Al70 Al77 3.036790 1_565
Al70 Al80 3.055266 1_555
Al70 Sm0 3.084981 1_565
Al70 Sm2 3.336183 1_555
Al71 Ti3 2.706262 1_555
Al71 Al8 2.815437 1_555
Al71 Al75 3.036725 1_555
Al71 Sm10 3.085216 1_555
Al71 Sm3 3.336499 1_555
Al72 Ti4 2.706160 1_655
Al72 Al74 3.036826 1_555
Al72 Al81 3.055276 1_555
Al72 Sm11 3.085040 1_555
Al72 Sm4 3.336218 1_655
Al73 Ti5 2.706227 1_655
Al73 Al8 2.768580 1_555
Al73 Al76 3.036689 1_545
Al73 Al78 3.055594 1_555
Al73 Sm1 3.085107 1_555
Al73 Sm5 3.336431 1_655
Al74 Ti2 2.706206 1_565
Al74 Sm11 3.085024 1_555
Al74 Sm6 3.336224 1_565
Al75 Ti5 2.706236 1_555
Al75 Al9 2.768578 1_555
Al75 Al79 3.055534 1_555
Al75 Sm10 3.085241 1_555
Al75 Sm7 3.336461 1_555
Al76 Ti7 2.706242 1_555
Al76 Al9 2.815475 1_555
Al76 Sm1 3.085102 1_565
Al76 Sm9 3.336389 1_555
Al77 Ti6 2.706156 1_555
Al77 Sm0 3.084956 1_555
Al77 Sm8 3.336220 1_555
Al78 Ti5 2.706233 1_655
Al78 Al8 2.768554 1_555
Al78 Sm3 3.085197 1_555
Al78 Sm7 3.336479 1_655
Al79 Ti5 2.706189 1_555
Al79 Al9 2.768579 1_555
Al79 Sm9 3.085153 1_555
Al79 Sm5 3.336416 1_555
Al80 Ti4 2.706201 1_555
Al80 Sm6 3.085064 1_565
Al80 Sm4 3.336208 1_555
Al81 Ti4 2.706081 1_655
Al81 Sm8 3.084994 1_555
Al81 Sm2 3.336139 1_655
Al82 Ti2 2.706187 1_555
Al82 Al85 3.055248 1_555
Al82 Sm4 3.085044 1_655
Al82 Sm6 3.336222 1_555
Al83 Ti3 2.706248 1_565
Al83 Al84 3.055576 1_555
Al83 Sm7 3.085204 1_555
Al83 Sm3 3.336499 1_565
Al84 Ti3 2.706219 1_565
Al84 Sm5 3.085118 1_555
Al84 Sm1 3.336451 1_565
Al85 Ti2 2.706078 1_555
Al85 Sm2 3.085033 1_655
Al85 Sm0 3.336118 1_555
