# generated using pymatgen
data_YbSi3Ni5
_symmetry_space_group_name_H-M   'P 1'
_cell_length_a   18.44275732
_cell_length_b   3.73029252
_cell_length_c   6.56846073
_cell_angle_alpha   90.00000000
_cell_angle_beta   90.00000000
_cell_angle_gamma   90.00000000
_symmetry_Int_Tables_number   1
_chemical_formula_structural   YbSi3Ni5
_chemical_formula_sum   'Yb4 Si12 Ni20'
_cell_volume   451.88960301
_cell_formula_units_Z   4
loop_
 _symmetry_equiv_pos_site_id
 _symmetry_equiv_pos_as_xyz
  1  'x, y, z'
loop_
 _atom_site_type_symbol
 _atom_site_label
 _atom_site_symmetry_multiplicity
 _atom_site_fract_x
 _atom_site_fract_y
 _atom_site_fract_z
 _atom_site_occupancy
  Yb  Yb0  1  0.64403300  0.25000000  0.62259948  1
  Yb  Yb1  1  0.14403300  0.25000000  0.87740052  1
  Yb  Yb2  1  0.35596700  0.75000000  0.37740052  1
  Yb  Yb3  1  0.85596700  0.75000000  0.12259948  1
  Si  Si0  1  0.91403092  0.25000000  0.41650523  1
  Si  Si1  1  0.41403092  0.25000000  0.08349477  1
  Si  Si2  1  0.08596908  0.75000000  0.58349477  1
  Si  Si3  1  0.58596908  0.75000000  0.91650523  1
  Si  Si4  1  0.73810820  0.25000000  0.12291232  1
  Si  Si5  1  0.23810820  0.25000000  0.37708768  1
  Si  Si6  1  0.26189180  0.75000000  0.87708768  1
  Si  Si7  1  0.76189180  0.75000000  0.62291232  1
  Si  Si8  1  0.92522986  0.25000000  0.84567250  1
  Si  Si9  1  0.42522986  0.25000000  0.65432750  1
  Si  Si10  1  0.07477014  0.75000000  0.15432750  1
  Si  Si11  1  0.57477014  0.75000000  0.34567250  1
  Ni  Ni0  1  0.80045954  0.25000000  0.81674878  1
  Ni  Ni1  1  0.30045954  0.25000000  0.68325122  1
  Ni  Ni2  1  0.19954046  0.75000000  0.18325122  1
  Ni  Ni3  1  0.69954046  0.75000000  0.31674878  1
  Ni  Ni4  1  0.99427149  0.25000000  0.13302048  1
  Ni  Ni5  1  0.49427149  0.25000000  0.36697952  1
  Ni  Ni6  1  0.00572851  0.75000000  0.86697952  1
  Ni  Ni7  1  0.50572851  0.75000000  0.63302048  1
  Ni  Ni8  1  0.51496128  0.25000000  0.88325669  1
  Ni  Ni9  1  0.01496128  0.25000000  0.61674331  1
  Ni  Ni10  1  0.48503872  0.75000000  0.11674331  1
  Ni  Ni11  1  0.98503872  0.75000000  0.38325669  1
  Ni  Ni12  1  0.61523961  0.25000000  0.14419562  1
  Ni  Ni13  1  0.11523961  0.25000000  0.35580438  1
  Ni  Ni14  1  0.38476039  0.75000000  0.85580438  1
  Ni  Ni15  1  0.88476039  0.75000000  0.64419562  1
  Ni  Ni16  1  0.79359065  0.25000000  0.43121729  1
  Ni  Ni17  1  0.29359065  0.25000000  0.06878271  1
  Ni  Ni18  1  0.20640935  0.75000000  0.56878271  1
  Ni  Ni19  1  0.70640935  0.75000000  0.93121729  1
loop_
_geom_bond_atom_site_label_1
_geom_bond_atom_site_label_2
_geom_bond_distance
_geom_bond_site_symmetry_2
Si0 Yb3 2.890047 1_555
Si0 Yb3 2.890047 1_545
Si1 Yb2 2.890047 1_555
Si1 Yb2 2.890047 1_545
Si2 Yb1 2.890047 1_565
Si2 Yb1 2.890047 1_555
Si3 Yb0 2.890047 1_555
Si3 Yb0 2.890047 1_565
Si4 Yb3 2.864174 1_555
Si4 Yb3 2.864174 1_545
Si5 Yb2 2.864174 1_555
Si5 Yb2 2.864174 1_545
Si6 Yb1 2.864174 1_555
Si6 Yb1 2.864174 1_565
Si7 Yb0 2.864174 1_565
Si7 Yb0 2.864174 1_555
Si8 Yb3 2.901589 1_546
Si8 Yb3 2.901589 1_556
Si9 Yb2 2.901589 1_555
Si9 Yb2 2.901589 1_545
Si10 Yb1 2.901589 1_554
Si10 Yb1 2.901589 1_564
Si11 Yb0 2.901589 1_565
Si11 Yb0 2.901589 1_555
Ni0 Si8 2.308938 1_555
Ni0 Si4 2.316583 1_556
Ni0 Si7 2.367650 1_555
Ni0 Si7 2.367650 1_545
Ni0 Ni16 2.535515 1_555
Ni0 Ni19 2.655700 1_545
Ni0 Ni19 2.655700 1_555
Ni0 Ni15 2.679665 1_545
Ni0 Ni15 2.679665 1_555
Ni0 Yb3 2.926210 1_556
Ni0 Yb3 2.926210 1_546
Ni0 Yb0 3.154228 1_555
Ni1 Si9 2.308938 1_555
Ni1 Si5 2.316583 1_555
Ni1 Si6 2.367650 1_545
Ni1 Si6 2.367650 1_555
Ni1 Ni17 2.535515 1_556
Ni1 Ni18 2.655700 1_555
Ni1 Ni18 2.655700 1_545
Ni1 Ni14 2.679665 1_545
Ni1 Ni14 2.679665 1_555
Ni1 Yb2 2.926210 1_555
Ni1 Yb2 2.926210 1_545
Ni1 Yb1 3.154228 1_555
Ni2 Si10 2.308938 1_555
Ni2 Si6 2.316583 1_554
Ni2 Si5 2.367650 1_565
Ni2 Si5 2.367650 1_555
Ni2 Yb1 2.926210 1_564
Ni2 Yb1 2.926210 1_554
Ni2 Yb2 3.154228 1_555
Ni3 Si11 2.308938 1_555
Ni3 Si7 2.316583 1_555
Ni3 Si4 2.367650 1_555
Ni3 Si4 2.367650 1_565
Ni3 Yb0 2.926210 1_555
Ni3 Yb0 2.926210 1_565
Ni3 Yb3 3.154228 1_555
Ni4 Si8 2.276784 1_554
Ni4 Si0 2.378495 1_555
Ni4 Si10 2.387979 1_655
Ni4 Si10 2.387979 1_645
Ni4 Ni6 2.564586 1_644
Ni4 Ni6 2.564586 1_654
Ni4 Yb3 3.160634 1_555
Ni4 Yb3 3.160634 1_545
Ni4 Yb1 3.232316 1_654
Ni5 Si9 2.276784 1_555
Ni5 Si1 2.378495 1_555
Ni5 Si11 2.387979 1_555
Ni5 Si11 2.387979 1_545
Ni5 Ni7 2.564586 1_545
Ni5 Ni7 2.564586 1_555
Ni5 Yb2 3.160634 1_545
Ni5 Yb2 3.160634 1_555
Ni5 Yb0 3.232316 1_555
Ni6 Si10 2.276784 1_556
Ni6 Si2 2.378495 1_555
Ni6 Si8 2.387979 1_455
Ni6 Si8 2.387979 1_465
Ni6 Ni9 2.491868 1_565
Ni6 Ni9 2.491868 1_555
Ni6 Yb1 3.160634 1_555
Ni6 Yb1 3.160634 1_565
Ni6 Yb3 3.232316 1_456
Ni7 Si11 2.276784 1_555
Ni7 Si3 2.378495 1_555
Ni7 Si9 2.387979 1_565
Ni7 Si9 2.387979 1_555
Ni7 Ni8 2.491868 1_555
Ni7 Ni8 2.491868 1_565
Ni7 Yb0 3.160634 1_565
Ni7 Yb0 3.160634 1_555
Ni7 Yb2 3.232316 1_555
Ni8 Si9 2.236029 1_555
Ni8 Si1 2.279218 1_556
Ni8 Si3 2.289424 1_545
Ni8 Si3 2.289424 1_555
Ni8 Yb0 2.932206 1_555
Ni9 Si8 2.236029 1_455
Ni9 Si0 2.279218 1_455
Ni9 Si2 2.289424 1_555
Ni9 Si2 2.289424 1_545
Ni9 Yb1 2.932206 1_555
Ni10 Si11 2.236029 1_555
Ni10 Si3 2.279218 1_554
Ni10 Si1 2.289424 1_565
Ni10 Si1 2.289424 1_555
Ni10 Ni8 2.476972 1_554
Ni10 Ni8 2.476972 1_564
Ni10 Ni5 2.491868 1_565
Ni10 Ni5 2.491868 1_555
Ni10 Ni14 2.521507 1_554
Ni10 Yb2 2.932206 1_555
Ni11 Si10 2.236029 1_655
Ni11 Si2 2.279218 1_655
Ni11 Si0 2.289424 1_555
Ni11 Si0 2.289424 1_565
Ni11 Ni9 2.476972 1_665
Ni11 Ni9 2.476972 1_655
Ni11 Ni4 2.491868 1_565
Ni11 Ni4 2.491868 1_555
Ni11 Ni15 2.521507 1_555
Ni11 Yb3 2.932206 1_555
Ni12 Si4 2.270344 1_555
Ni12 Si11 2.405661 1_555
Ni12 Si11 2.405661 1_545
Ni12 Si3 2.450904 1_554
Ni12 Si3 2.450904 1_544
Ni12 Ni8 2.521507 1_554
Ni12 Ni5 2.668086 1_555
Ni12 Ni3 2.679665 1_545
Ni12 Ni3 2.679665 1_555
Ni12 Ni19 2.874540 1_554
Ni12 Ni19 2.874540 1_544
Ni12 Yb0 3.186930 1_555
Ni13 Si5 2.270344 1_555
Ni13 Si10 2.405661 1_545
Ni13 Si10 2.405661 1_555
Ni13 Si2 2.450904 1_555
Ni13 Si2 2.450904 1_545
Ni13 Ni9 2.521507 1_555
Ni13 Ni4 2.668086 1_455
Ni13 Ni2 2.679665 1_545
Ni13 Ni2 2.679665 1_555
Ni13 Ni18 2.874540 1_545
Ni13 Ni18 2.874540 1_555
Ni13 Yb1 3.186930 1_554
Ni14 Si6 2.270344 1_555
Ni14 Si9 2.405661 1_555
Ni14 Si9 2.405661 1_565
Ni14 Si1 2.450904 1_566
Ni14 Si1 2.450904 1_556
Ni14 Ni7 2.668086 1_555
Ni14 Ni17 2.874540 1_566
Ni14 Ni17 2.874540 1_556
Ni14 Yb2 3.186930 1_555
Ni15 Si7 2.270344 1_555
Ni15 Si8 2.405661 1_555
Ni15 Si8 2.405661 1_565
Ni15 Si0 2.450904 1_555
Ni15 Si0 2.450904 1_565
Ni15 Ni6 2.668086 1_655
Ni15 Ni16 2.874540 1_565
Ni15 Ni16 2.874540 1_555
Ni15 Yb3 3.186930 1_556
Ni16 Si0 2.223352 1_555
Ni16 Si4 2.268926 1_555
Ni16 Si7 2.325077 1_555
Ni16 Si7 2.325077 1_545
Ni16 Ni3 2.655700 1_545
Ni16 Ni3 2.655700 1_555
Ni16 Yb3 2.985211 1_555
Ni16 Yb3 2.985211 1_545
Ni16 Yb0 3.031211 1_555
Ni17 Si1 2.223352 1_555
Ni17 Si5 2.268926 1_555
Ni17 Si6 2.325077 1_554
Ni17 Si6 2.325077 1_544
Ni17 Ni2 2.655700 1_555
Ni17 Ni2 2.655700 1_545
Ni17 Yb2 2.985211 1_555
Ni17 Yb2 2.985211 1_545
Ni17 Yb1 3.031211 1_554
Ni18 Si2 2.223352 1_555
Ni18 Si6 2.268926 1_555
Ni18 Si5 2.325077 1_565
Ni18 Si5 2.325077 1_555
Ni18 Ni2 2.535515 1_555
Ni18 Yb1 2.985211 1_565
Ni18 Yb1 2.985211 1_555
Ni18 Yb2 3.031211 1_555
Ni19 Si3 2.223352 1_555
Ni19 Si7 2.268926 1_555
Ni19 Si4 2.325077 1_566
Ni19 Si4 2.325077 1_556
Ni19 Ni3 2.535515 1_556
Ni19 Yb0 2.985211 1_565
Ni19 Yb0 2.985211 1_555
Ni19 Yb3 3.031211 1_556
