# generated using pymatgen
data_U(BRu)4
_symmetry_space_group_name_H-M   'P 1'
_cell_length_a   9.18799733
_cell_length_b   9.18799937
_cell_length_c   9.18806089
_cell_angle_alpha   132.01334358
_cell_angle_beta   132.01263488
_cell_angle_gamma   70.20827465
_symmetry_Int_Tables_number   1
_chemical_formula_structural   U(BRu)4
_chemical_formula_sum   'U4 B16 Ru16'
_cell_volume   419.70277824
_cell_formula_units_Z   4
loop_
 _symmetry_equiv_pos_site_id
 _symmetry_equiv_pos_as_xyz
  1  'x, y, z'
loop_
 _atom_site_type_symbol
 _atom_site_label
 _atom_site_symmetry_multiplicity
 _atom_site_fract_x
 _atom_site_fract_y
 _atom_site_fract_z
 _atom_site_occupancy
  U  U0  1  0.24998405  0.25000173  -0.00000061  1
  U  U1  1  0.74997291  0.75001267  0.00000018  1
  U  U2  1  0.50001694  -0.00000231  0.50000048  1
  U  U3  1  0.00002687  0.49998636  0.49999937  1
  B  B0  1  0.22540714  0.91439792  0.97533478  1
  B  B1  1  0.72542508  0.75005187  0.31102360  1
  B  B2  1  0.16439144  0.97540526  0.47533061  1
  B  B3  1  0.66440517  0.18905634  0.18900017  1
  B  B4  1  0.52459518  0.33560215  0.52466912  1
  B  B5  1  0.02457309  0.49995026  0.18897556  1
  B  B6  1  0.58560995  0.27459322  0.02466769  1
  B  B7  1  0.08559399  0.06094222  0.31099899  1
  B  B8  1  0.43906260  0.41441398  0.68900850  1
  B  B9  1  0.93907204  0.25008183  0.02465071  1
  B  B10  1  0.00005291  0.47542702  0.81103330  1
  B  B11  1  0.50008399  0.68906922  0.52465386  1
  B  B12  1  0.31093873  0.83558674  0.81099172  1
  B  B13  1  0.81092486  0.99991694  0.47534659  1
  B  B14  1  0.74994634  0.77457294  0.68896686  1
  B  B15  1  0.24991699  0.56093341  0.97534834  1
  Ru  Ru0  1  0.53890043  0.07496261  0.23654400  1
  Ru  Ru1  1  0.03889693  0.80235097  0.46393407  1
  Ru  Ru2  1  0.32499593  0.28892594  0.73655000  1
  Ru  Ru3  1  0.82499136  0.08845247  0.03606257  1
  Ru  Ru4  1  0.21110233  0.17503616  0.26346253  1
  Ru  Ru5  1  0.71109804  0.44764782  0.03605927  1
  Ru  Ru6  1  0.42500447  0.96107125  0.76344211  1
  Ru  Ru7  1  0.92500572  0.16154176  0.46393005  1
  Ru  Ru8  1  0.33843536  0.57496208  0.53606568  1
  Ru  Ru9  1  0.83837150  0.30234047  0.76340730  1
  Ru  Ru10  1  0.05236986  0.78892893  0.96393733  1
  Ru  Ru11  1  0.55236107  0.58839976  0.26340183  1
  Ru  Ru12  1  0.41156769  0.67504015  0.96394027  1
  Ru  Ru13  1  0.91162156  0.94765647  0.73658726  1
  Ru  Ru14  1  0.69763280  0.46107594  0.53607008  1
  Ru  Ru15  1  0.19764368  0.66160847  0.23660582  1
loop_
_geom_bond_atom_site_label_1
_geom_bond_atom_site_label_2
_geom_bond_distance
_geom_bond_site_symmetry_2
B0 B12 1.778041 1_555
B0 Ru4 2.127607 1_566
B0 Ru10 2.173553 1_555
B0 Ru13 2.247751 1_455
B0 Ru0 2.262205 1_566
B0 Ru12 2.270956 1_555
B0 U3 2.972125 1_555
B0 U0 3.012992 1_566
B0 U2 3.195423 1_566
B1 B13 1.777923 1_555
B1 Ru5 2.127458 1_555
B1 Ru11 2.173479 1_555
B1 Ru12 2.248227 1_554
B1 Ru1 2.262110 1_655
B1 Ru13 2.271183 1_555
B1 U2 2.972043 1_565
B1 U1 3.013084 1_555
B1 U3 3.195295 1_655
B2 B7 1.778043 1_565
B2 Ru6 2.127631 1_555
B2 Ru1 2.173872 1_555
B2 Ru15 2.247719 1_555
B2 Ru2 2.262504 1_565
B2 Ru7 2.271026 1_465
B2 U1 2.972193 1_455
B2 U2 3.013214 1_565
B2 U0 3.195471 1_566
B3 B6 1.778056 1_555
B3 Ru7 2.127594 1_555
B3 Ru0 2.173792 1_555
B3 Ru14 2.248024 1_555
B3 Ru3 2.262526 1_555
B3 Ru6 2.271221 1_544
B3 U0 2.972272 1_555
B3 U3 3.013154 1_655
B3 U1 3.195156 1_545
B4 B8 1.778017 1_555
B4 Ru0 2.127599 1_555
B4 Ru14 2.173563 1_555
B4 Ru9 2.247694 1_555
B4 Ru4 2.262211 1_555
B4 Ru8 2.270964 1_555
B4 U1 2.972111 1_556
B4 U2 3.012978 1_555
B4 U0 3.195448 1_555
B5 B9 1.777948 1_455
B5 Ru1 2.127435 1_555
B5 Ru15 2.173516 1_555
B5 Ru8 2.248269 1_555
B5 Ru5 2.262125 1_455
B5 Ru9 2.271201 1_454
B5 U0 2.972064 1_555
B5 U3 3.013096 1_555
B5 U1 3.195267 1_455
B6 Ru2 2.127657 1_554
B6 Ru5 2.173867 1_555
B6 Ru11 2.247778 1_555
B6 Ru6 2.262503 1_544
B6 Ru3 2.271022 1_555
B6 U3 2.972187 1_655
B6 U0 3.013224 1_555
B6 U2 3.195459 1_554
B7 Ru3 2.127609 1_455
B7 Ru4 2.173761 1_555
B7 Ru10 2.247981 1_544
B7 Ru7 2.262506 1_455
B7 Ru2 2.271192 1_555
B7 U2 2.972283 1_555
B7 U1 3.013148 1_445
B7 U3 3.195158 1_555
B8 Ru12 2.127546 1_555
B8 Ru2 2.173448 1_555
B8 Ru5 2.247955 1_556
B8 Ru8 2.262203 1_555
B8 Ru4 2.271119 1_555
B8 U2 2.972214 1_555
B8 U1 3.012908 1_556
B8 U3 3.195117 1_555
B9 Ru13 2.127496 1_544
B9 Ru3 2.173642 1_555
B9 Ru4 2.248131 1_655
B9 Ru9 2.262132 1_554
B9 Ru5 2.271086 1_555
B9 U3 2.972154 1_655
B9 U0 3.012683 1_655
B9 U2 3.195371 1_554
B10 B15 1.777968 1_555
B10 Ru14 2.127498 1_455
B10 Ru9 2.173836 1_455
B10 Ru7 2.248308 1_455
B10 Ru10 2.262413 1_555
B10 Ru15 2.271271 1_556
B10 U0 2.972124 1_556
B10 U3 3.013337 1_555
B10 U1 3.195311 1_456
B11 B14 1.777952 1_555
B11 Ru15 2.127528 1_555
B11 Ru8 2.173978 1_555
B11 Ru6 2.248098 1_555
B11 Ru11 2.262432 1_555
B11 Ru14 2.271145 1_555
B11 U1 2.972236 1_556
B11 U2 3.012894 1_565
B11 U0 3.195431 1_555
B12 Ru8 2.127524 1_555
B12 Ru6 2.173480 1_555
B12 Ru1 2.247996 1_555
B12 Ru12 2.262228 1_555
B12 Ru0 2.271145 1_566
B12 U0 2.972205 1_566
B12 U3 3.012926 1_555
B12 U1 3.195109 1_556
B13 Ru9 2.127490 1_565
B13 Ru7 2.173642 1_565
B13 Ru0 2.248075 1_565
B13 Ru13 2.262135 1_555
B13 Ru1 2.271078 1_655
B13 U1 2.972151 1_555
B13 U2 3.012660 1_565
B13 U0 3.195395 1_666
B14 Ru10 2.127519 1_655
B14 Ru13 2.173806 1_555
B14 Ru3 2.248265 1_566
B14 Ru14 2.262389 1_555
B14 Ru11 2.271238 1_555
B14 U2 2.972119 1_565
B14 U1 3.013335 1_556
B14 U3 3.195320 1_655
B15 Ru11 2.127547 1_556
B15 Ru12 2.173963 1_555
B15 Ru2 2.248153 1_555
B15 Ru15 2.262432 1_556
B15 Ru10 2.271146 1_555
B15 U3 2.972237 1_555
B15 U0 3.012908 1_556
B15 U2 3.195412 1_566
Ru0 U0 2.902026 1_555
Ru0 U2 3.165080 1_555
Ru0 U1 3.230081 1_545
Ru1 U1 2.902055 1_455
Ru1 U3 3.165117 1_555
Ru1 U0 3.230353 1_566
Ru2 U2 2.901920 1_555
Ru2 U0 3.165606 1_556
Ru2 U3 3.230106 1_555
Ru3 U3 2.901739 1_655
Ru3 U1 3.165587 1_545
Ru3 U2 3.230202 1_554
Ru4 U2 2.901987 1_555
Ru4 U0 3.165133 1_555
Ru4 U3 3.230073 1_555
Ru5 U3 2.902096 1_655
Ru5 U1 3.165096 1_555
Ru5 U2 3.230333 1_554
Ru6 U0 2.901957 1_566
Ru6 U2 3.165554 1_565
Ru6 U1 3.230123 1_556
Ru7 U1 2.901701 1_545
Ru7 U3 3.165598 1_655
Ru7 U0 3.230229 1_656
Ru8 U1 2.901781 1_556
Ru8 U3 3.165092 1_555
Ru8 U0 3.230216 1_555
Ru9 U0 2.902145 1_656
Ru9 U2 3.164831 1_555
Ru9 U1 3.230433 1_556
Ru10 U3 2.902030 1_555
Ru10 U1 3.165593 1_456
Ru10 U2 3.230360 1_566
Ru11 U2 2.902027 1_565
Ru11 U0 3.165375 1_555
Ru11 U3 3.230456 1_655
Ru12 U3 2.901810 1_555
Ru12 U1 3.165089 1_556
Ru12 U2 3.230184 1_566
Ru13 U2 2.902097 1_565
Ru13 U0 3.164880 1_666
Ru13 U3 3.230436 1_655
Ru14 U1 2.901990 1_556
Ru14 U3 3.165597 1_655
Ru14 U0 3.230387 1_555
Ru15 U0 2.902078 1_555
Ru15 U2 3.165323 1_565
Ru15 U1 3.230466 1_455
