# generated using pymatgen
data_Sr(AlS2)2
_symmetry_space_group_name_H-M   'P 1'
_cell_length_a   11.91468655
_cell_length_b   11.91468765
_cell_length_c   12.14715498
_cell_angle_alpha   104.74687909
_cell_angle_beta   104.74687675
_cell_angle_gamma   118.74866336
_symmetry_Int_Tables_number   1
_chemical_formula_structural   Sr(AlS2)2
_chemical_formula_sum   'Sr8 Al16 S32'
_cell_volume   1309.58471328
_cell_formula_units_Z   8
loop_
 _symmetry_equiv_pos_site_id
 _symmetry_equiv_pos_as_xyz
  1  'x, y, z'
loop_
 _atom_site_type_symbol
 _atom_site_label
 _atom_site_symmetry_multiplicity
 _atom_site_fract_x
 _atom_site_fract_y
 _atom_site_fract_z
 _atom_site_occupancy
  Sr  Sr0  1  0.87366959  0.62366959  0.24733719  1
  Sr  Sr1  1  0.37633041  0.12633041  0.25266281  1
  Sr  Sr2  1  0.12633041  0.37633041  0.75266281  1
  Sr  Sr3  1  0.62366959  0.87366959  0.74733719  1
  Sr  Sr4  1  0.62500000  0.37500000  0.75000000  1
  Sr  Sr5  1  0.37500000  0.62500000  0.25000000  1
  Sr  Sr6  1  0.12500000  0.87500000  0.75000000  1
  Sr  Sr7  1  0.87500000  0.12500000  0.25000000  1
  Al  Al0  1  0.89063475  0.86474948  0.99920368  1
  Al  Al1  1  0.86554480  0.39143006  0.50079632  1
  Al  Al2  1  0.13525052  0.10936525  0.50079632  1
  Al  Al3  1  0.60856994  0.13445520  0.99920368  1
  Al  Al4  1  0.10936525  0.13525052  0.00079632  1
  Al  Al5  1  0.13445520  0.60856994  0.49920368  1
  Al  Al6  1  0.86474948  0.89063475  0.49920368  1
  Al  Al7  1  0.39143006  0.86554480  0.00079632  1
  Al  Al8  1  0.03135576  0.63720565  0.00022425  1
  Al  Al9  1  0.63698140  0.53113051  0.49977575  1
  Al  Al10  1  0.36279435  0.96864424  0.49977575  1
  Al  Al11  1  0.46886949  0.36301860  0.00022425  1
  Al  Al12  1  0.96864424  0.36279435  0.99977575  1
  Al  Al13  1  0.36301860  0.46886949  0.50022425  1
  Al  Al14  1  0.63720565  0.03135576  0.50022425  1
  Al  Al15  1  0.53113051  0.63698140  0.99977575  1
  S  S0  1  0.31100582  0.16207139  0.00140389  1
  S  S1  1  0.16066750  0.80960193  0.49859611  1
  S  S2  1  0.83792861  0.68899418  0.49859611  1
  S  S3  1  0.19039807  0.83933250  0.00140389  1
  S  S4  1  0.68899418  0.83792861  0.99859611  1
  S  S5  1  0.83933250  0.19039807  0.50140389  1
  S  S6  1  0.16207139  0.31100582  0.50140389  1
  S  S7  1  0.80960193  0.16066750  0.99859611  1
  S  S8  1  0.91835368  0.41899139  0.33903141  1
  S  S9  1  0.07995998  0.07932228  0.16096859  1
  S  S10  1  0.58100861  0.08164632  0.16096859  1
  S  S11  1  0.92067772  0.92004002  0.33903141  1
  S  S12  1  0.08164632  0.58100861  0.66096859  1
  S  S13  1  0.92004002  0.92067772  0.83903141  1
  S  S14  1  0.41899139  0.91835368  0.83903141  1
  S  S15  1  0.07932228  0.07995998  0.66096859  1
  S  S16  1  0.41848850  0.41850227  0.33833351  1
  S  S17  1  0.08016976  0.58015499  0.16166649  1
  S  S18  1  0.58149773  0.58151150  0.16166649  1
  S  S19  1  0.41984501  0.91983024  0.33833351  1
  S  S20  1  0.58151150  0.58149773  0.66166649  1
  S  S21  1  0.91983024  0.41984501  0.83833351  1
  S  S22  1  0.41850227  0.41848850  0.83833351  1
  S  S23  1  0.58015499  0.08016976  0.66166649  1
  S  S24  1  0.64354473  0.33560101  0.99858084  1
  S  S25  1  0.33702117  0.14496390  0.50141916  1
  S  S26  1  0.66439899  0.35645527  0.50141916  1
  S  S27  1  0.85503610  0.66297883  0.99858084  1
  S  S28  1  0.35645527  0.66439899  0.00141916  1
  S  S29  1  0.66297883  0.85503610  0.49858084  1
  S  S30  1  0.33560101  0.64354473  0.49858084  1
  S  S31  1  0.14496390  0.33702117  0.00141916  1
loop_
_geom_bond_atom_site_label_1
_geom_bond_atom_site_label_2
_geom_bond_distance
_geom_bond_site_symmetry_2
Al0 S27 2.228810 1_555
Al0 S9 2.263635 1_666
Al0 S4 2.263925 1_555
Al0 S13 2.266011 1_555
Al1 S26 2.228790 1_555
Al1 S8 2.263642 1_555
Al1 S5 2.263918 1_555
Al1 S12 2.266019 1_655
Al2 S25 2.228810 1_555
Al2 S11 2.263635 1_445
Al2 S6 2.263925 1_555
Al2 S15 2.266011 1_555
Al3 S24 2.228790 1_555
Al3 S10 2.263642 1_556
Al3 S7 2.263918 1_555
Al3 S14 2.266019 1_545
Al4 S31 2.228810 1_555
Al4 S13 2.263635 1_444
Al4 S0 2.263925 1_555
Al4 S9 2.266011 1_555
Al5 S30 2.228790 1_555
Al5 S12 2.263642 1_555
Al5 S1 2.263918 1_555
Al5 S8 2.266019 1_455
Al6 S29 2.228810 1_555
Al6 S15 2.263635 1_665
Al6 S2 2.263925 1_555
Al6 S11 2.266011 1_555
Al7 S28 2.228790 1_555
Al7 S14 2.263642 1_554
Al7 S3 2.263918 1_555
Al7 S10 2.266019 1_565
Al8 S3 2.229254 1_555
Al8 S21 2.259749 1_454
Al8 S27 2.260609 1_454
Al8 S17 2.263703 1_555
Al9 S2 2.229258 1_555
Al9 S20 2.259753 1_555
Al9 S26 2.260605 1_555
Al9 S16 2.263703 1_555
Al10 S1 2.229254 1_555
Al10 S23 2.259749 1_565
Al10 S25 2.260610 1_565
Al10 S19 2.263703 1_555
Al11 S0 2.229258 1_555
Al11 S22 2.259753 1_554
Al11 S24 2.260605 1_554
Al11 S18 2.263703 1_555
Al12 S7 2.229254 1_555
Al12 S17 2.259749 1_656
Al12 S31 2.260609 1_656
Al12 S21 2.263703 1_555
Al13 S6 2.229258 1_555
Al13 S16 2.259753 1_555
Al13 S30 2.260605 1_555
Al13 S20 2.263703 1_555
Al14 S5 2.229254 1_555
Al14 S19 2.259749 1_545
Al14 S29 2.260610 1_545
Al14 S23 2.263703 1_555
Al15 S4 2.229258 1_555
Al15 S18 2.259753 1_556
Al15 S28 2.260605 1_556
Al15 S22 2.263703 1_555
S0 Sr1 3.142207 1_555
S0 Sr6 3.143486 1_544
S1 Sr0 3.142197 1_455
S1 Sr6 3.143486 1_555
S2 Sr0 3.142207 1_555
S2 Sr6 3.143486 1_655
S3 Sr1 3.142197 1_565
S3 Sr6 3.143486 1_554
S4 Sr3 3.142207 1_555
S4 Sr7 3.143486 1_566
S5 Sr2 3.142197 1_655
S5 Sr7 3.143486 1_555
S6 Sr2 3.142207 1_555
S6 Sr7 3.143486 1_455
S7 Sr3 3.142197 1_545
S7 Sr7 3.143486 1_556
S8 Sr7 3.122925 1_555
S8 Sr0 3.130666 1_555
S9 Sr7 3.122925 1_455
S9 Sr1 3.130654 1_555
S10 Sr7 3.122925 1_555
S10 Sr1 3.130666 1_555
S11 Sr7 3.122925 1_565
S11 Sr0 3.130654 1_555
S12 Sr6 3.122925 1_555
S12 Sr2 3.130666 1_555
S13 Sr6 3.122925 1_655
S13 Sr3 3.130654 1_555
S14 Sr6 3.122925 1_555
S14 Sr3 3.130666 1_555
S15 Sr6 3.122925 1_545
S15 Sr2 3.130654 1_555
S16 Sr1 3.108239 1_555
S16 Sr5 3.124169 1_555
S17 Sr0 3.108239 1_455
S17 Sr5 3.124157 1_555
S18 Sr0 3.108239 1_555
S18 Sr5 3.124169 1_555
S19 Sr1 3.108239 1_565
S19 Sr5 3.124158 1_555
S20 Sr3 3.108239 1_555
S20 Sr4 3.124169 1_555
S21 Sr2 3.108239 1_655
S21 Sr4 3.124157 1_555
S22 Sr2 3.108239 1_555
S22 Sr4 3.124169 1_555
S23 Sr3 3.108239 1_545
S23 Sr4 3.124158 1_555
S24 Sr4 3.141433 1_555
S24 Sr0 3.142978 1_556
S25 Sr4 3.141428 1_555
S25 Sr1 3.142959 1_555
S26 Sr4 3.141433 1_555
S26 Sr1 3.142977 1_555
S27 Sr4 3.141428 1_555
S27 Sr0 3.142959 1_556
S28 Sr5 3.141433 1_555
S28 Sr2 3.142978 1_554
S29 Sr5 3.141428 1_555
S29 Sr3 3.142959 1_555
S30 Sr5 3.141433 1_555
S30 Sr3 3.142977 1_555
S31 Sr5 3.141428 1_555
S31 Sr2 3.142959 1_554
