# generated using pymatgen
data_Mn3(InN2)2
_symmetry_space_group_name_H-M   'P 1'
_cell_length_a   7.33115955
_cell_length_b   7.27765198
_cell_length_c   6.01016071
_cell_angle_alpha   90.00000068
_cell_angle_beta   72.06691421
_cell_angle_gamma   119.75885440
_symmetry_Int_Tables_number   1
_chemical_formula_structural   Mn3(InN2)2
_chemical_formula_sum   'Mn6 In4 N8'
_cell_volume   260.27753247
_cell_formula_units_Z   2
loop_
 _symmetry_equiv_pos_site_id
 _symmetry_equiv_pos_as_xyz
  1  'x, y, z'
loop_
 _atom_site_type_symbol
 _atom_site_label
 _atom_site_symmetry_multiplicity
 _atom_site_fract_x
 _atom_site_fract_y
 _atom_site_fract_z
 _atom_site_occupancy
  Mn  Mn0  1  0.30378251  0.02718841  0.90113307  1
  Mn  Mn1  1  0.69621749  0.72340590  0.59886693  1
  Mn  Mn2  1  0.69621749  0.97281159  0.09886693  1
  Mn  Mn3  1  0.30378251  0.27659410  0.40113307  1
  Mn  Mn4  1  1.00000000  0.81712806  0.75000000  1
  Mn  Mn5  1  0.00000000  0.18287194  0.25000000  1
  In  In0  1  0.74954031  0.25641010  0.69936628  1
  In  In1  1  0.25045969  0.50686979  0.80063372  1
  In  In2  1  0.25045969  0.74358990  0.30063372  1
  In  In3  1  0.74954031  0.49313021  0.19936628  1
  N  N0  1  0.25070655  0.10002704  0.64775827  1
  N  N1  1  0.74929345  0.84932049  0.85224173  1
  N  N2  1  0.74929345  0.89997296  0.35224173  1
  N  N3  1  0.25070655  0.15067951  0.14775827  1
  N  N4  1  0.89619068  0.26666161  0.03740654  1
  N  N5  1  0.10380932  0.37047094  0.46259346  1
  N  N6  1  0.10380932  0.73333839  0.96259346  1
  N  N7  1  0.89619068  0.62952906  0.53740654  1
loop_
_geom_bond_atom_site_label_1
_geom_bond_atom_site_label_2
_geom_bond_distance
_geom_bond_site_symmetry_2
Mn0 N3 1.774309 1_556
Mn0 N0 1.822375 1_555
Mn0 N6 1.847506 1_545
Mn1 N2 1.774309 1_555
Mn1 N1 1.822375 1_555
Mn1 N7 1.847506 1_555
Mn2 N1 1.774309 1_554
Mn2 N2 1.822375 1_555
Mn2 N4 1.847506 1_565
Mn3 N0 1.774309 1_555
Mn3 N3 1.822375 1_555
Mn3 N5 1.847506 1_555
Mn4 N1 1.882174 1_555
Mn4 N0 1.882174 1_665
Mn4 N6 1.908693 1_655
Mn4 N7 1.908693 1_555
Mn5 N3 1.882174 1_555
Mn5 N2 1.882174 1_445
Mn5 N4 1.908693 1_455
Mn5 N5 1.908693 1_555
In0 N5 2.245747 1_655
In0 N7 2.436061 1_555
In0 N4 2.560203 1_556
In0 Mn0 2.660939 1_555
In1 N4 2.245747 1_456
In1 N6 2.436061 1_555
In1 N5 2.560203 1_555
In1 Mn1 2.660939 1_555
In2 N7 2.245747 1_455
In2 N5 2.436061 1_555
In2 N6 2.560203 1_554
In2 Mn2 2.660939 1_555
In3 N6 2.245747 1_654
In3 N4 2.436061 1_555
In3 N7 2.560203 1_555
In3 Mn3 2.660939 1_555
