# generated using pymatgen
data_CaTi8Zn2O19
_symmetry_space_group_name_H-M   'P 1'
_cell_length_a   9.28606400
_cell_length_b   9.30507951
_cell_length_c   9.30870780
_cell_angle_alpha   68.48729822
_cell_angle_beta   68.51845463
_cell_angle_gamma   68.57990364
_symmetry_Int_Tables_number   1
_chemical_formula_structural   CaTi8Zn2O19
_chemical_formula_sum   'Ca2 Ti16 Zn4 O38'
_cell_volume   671.10055785
_cell_formula_units_Z   2
loop_
 _symmetry_equiv_pos_site_id
 _symmetry_equiv_pos_as_xyz
  1  'x, y, z'
loop_
 _atom_site_type_symbol
 _atom_site_label
 _atom_site_symmetry_multiplicity
 _atom_site_fract_x
 _atom_site_fract_y
 _atom_site_fract_z
 _atom_site_occupancy
  Ca  Ca0  1  0.00415100  0.99952000  0.99634400  1
  Ca  Ca1  1  0.49783200  0.50162100  0.50067800  1
  Ti  Ti0  1  0.84830800  0.70344900  0.28241100  1
  Ti  Ti1  1  0.27742100  0.85004400  0.69472900  1
  Ti  Ti2  1  0.69634700  0.28105500  0.85043300  1
  Ti  Ti3  1  0.14985600  0.30803300  0.71593800  1
  Ti  Ti4  1  0.72170800  0.14908200  0.30394400  1
  Ti  Ti5  1  0.29707000  0.72424900  0.15023900  1
  Ti  Ti6  1  0.35284200  0.52778700  0.92366900  1
  Ti  Ti7  1  0.91977500  0.35651800  0.52748500  1
  Ti  Ti8  1  0.52041900  0.92032100  0.36350000  1
  Ti  Ti9  1  0.64055300  0.47157200  0.08075900  1
  Ti  Ti10  1  0.07817100  0.64254400  0.47835600  1
  Ti  Ti11  1  0.47249200  0.07769700  0.64382600  1
  Ti  Ti12  1  0.87388300  0.98220700  0.64904000  1
  Ti  Ti13  1  0.65488400  0.86551600  0.98498900  1
  Ti  Ti14  1  0.01323400  0.35320600  0.13098300  1
  Ti  Ti15  1  0.34596800  0.13233600  0.01722300  1
  Zn  Zn0  1  0.69131500  0.69012400  0.69146100  1
  Zn  Zn1  1  0.31086500  0.30874100  0.30684700  1
  Zn  Zn2  1  0.98866000  0.65271900  0.86629800  1
  Zn  Zn3  1  0.13224200  0.01219400  0.34637000  1
  O  O0  1  0.70178400  0.08005900  0.53996600  1
  O  O1  1  0.54592600  0.69998900  0.07701600  1
  O  O2  1  0.08536600  0.53269200  0.69420500  1
  O  O3  1  0.30730200  0.91471900  0.46331500  1
  O  O4  1  0.46055300  0.29670900  0.92054200  1
  O  O5  1  0.92181700  0.45768700  0.29966800  1
  O  O6  1  0.93190800  0.28419300  0.76091400  1
  O  O7  1  0.76284100  0.93159400  0.28674000  1
  O  O8  1  0.28426800  0.75609300  0.93306300  1
  O  O9  1  0.06781600  0.71668700  0.23787700  1
  O  O10  1  0.24566100  0.06583900  0.71561900  1
  O  O11  1  0.71125800  0.23917900  0.06876100  1
  O  O12  1  0.05830800  0.86502700  0.75899400  1
  O  O13  1  0.76330500  0.05895500  0.84626300  1
  O  O14  1  0.84024800  0.77292800  0.06408900  1
  O  O15  1  0.93763900  0.15955000  0.22740300  1
  O  O16  1  0.24327100  0.93993600  0.13412400  1
  O  O17  1  0.15516000  0.23414700  0.93983900  1
  O  O18  1  0.77558900  0.79696300  0.78726500  1
  O  O19  1  0.21892200  0.21632000  0.20405100  1
  O  O20  1  0.62708400  0.70591300  0.36714800  1
  O  O21  1  0.36435800  0.62606600  0.70783500  1
  O  O22  1  0.70340300  0.36865300  0.62817000  1
  O  O23  1  0.37492300  0.29379200  0.63260200  1
  O  O24  1  0.63059500  0.37193500  0.29620100  1
  O  O25  1  0.29320700  0.63657000  0.37172100  1
  O  O26  1  0.00182100  0.84990100  0.49980100  1
  O  O27  1  0.48634600  0.01399500  0.85963900  1
  O  O28  1  0.85769100  0.47610900  0.01776700  1
  O  O29  1  0.98028200  0.14464500  0.52097700  1
  O  O30  1  0.51356500  0.98795500  0.13977100  1
  O  O31  1  0.14784500  0.50330800  0.99688900  1
  O  O32  1  0.86392300  0.61053000  0.51289200  1
  O  O33  1  0.51787200  0.86452500  0.60859300  1
  O  O34  1  0.61369200  0.51130200  0.86409700  1
  O  O35  1  0.13663800  0.38415900  0.48565100  1
  O  O36  1  0.48662500  0.13509800  0.38967500  1
  O  O37  1  0.39319200  0.48574100  0.13533500  1
loop_
_geom_bond_atom_site_label_1
_geom_bond_atom_site_label_2
_geom_bond_distance
_geom_bond_site_symmetry_2
Ca0 O12 2.730393 1_555
Ca0 O16 2.747354 1_556
Ca0 O10 2.788375 1_565
Ca0 O6 2.791207 1_465
Ca0 O8 2.792257 1_555
Ca0 O14 2.797428 1_456
Ca0 O9 2.797900 1_556
Ca0 O17 2.804143 1_565
Ca0 O15 2.815910 1_466
Ca0 O7 2.841311 1_456
Ca0 O13 2.842172 1_465
Ca0 O11 2.855611 1_466
Ca1 O23 2.322590 1_555
Ca1 O21 2.331220 1_555
Ca1 O20 2.332403 1_555
Ca1 O22 2.332504 1_555
Ca1 O25 2.334677 1_555
Ca1 O24 2.340600 1_555
O0 Ti12 1.965073 1_545
O0 Ti11 1.994915 1_555
O0 Ti4 2.006980 1_555
O1 Ti13 1.914594 1_554
O1 Ti9 1.973526 1_555
O1 Ti5 2.105699 1_555
O2 Ti10 1.904895 1_555
O2 Ti3 1.906251 1_555
O2 Zn2 2.036199 1_455
O3 Ti8 1.864304 1_555
O3 Ti1 1.952688 1_555
O3 Zn3 2.036017 1_565
O4 Ti15 1.938896 1_556
O4 Ti2 2.007896 1_555
O4 Ti6 2.019494 1_555
O5 Ti14 1.916248 1_655
O5 Ti7 1.975669 1_555
O5 Ti0 2.095730 1_555
O6 Ti3 1.989925 1_655
O6 Ti2 2.043013 1_555
O6 Ti7 2.058789 1_555
O7 Ti4 1.973670 1_565
O7 Ti0 1.986690 1_555
O7 Ti8 2.128060 1_555
O8 Ti5 1.974808 1_556
O8 Ti6 2.008387 1_555
O8 Ti1 2.081020 1_555
O9 Ti0 1.966981 1_455
O9 Ti5 1.999471 1_555
O9 Ti10 2.114908 1_555
O10 Ti1 1.992144 1_545
O10 Ti11 1.995060 1_555
O10 Ti3 2.099738 1_555
O11 Ti2 1.971635 1_554
O11 Ti9 2.050874 1_555
O11 Ti4 2.062803 1_555
O12 Ti1 1.865420 1_555
O12 Ti12 2.066601 1_455
O12 Zn2 2.081258 1_455
O13 Ti2 1.939530 1_555
O13 Ti12 1.995033 1_545
O13 Ti13 2.141917 1_545
O14 Ti13 1.904505 1_554
O14 Ti0 1.914741 1_555
O14 Zn2 2.250885 1_554
O15 Ti4 1.892925 1_555
O15 Ti14 1.954940 1_655
O15 Zn3 2.216823 1_655
O16 Ti5 1.844399 1_555
O16 Ti15 2.087326 1_565
O16 Zn3 2.096339 1_565
O17 Ti15 1.940131 1_556
O17 Ti3 1.954131 1_555
O17 Ti14 2.189060 1_556
O18 Ti13 1.969462 1_555
O18 Ti12 2.030339 1_555
O18 Zn0 2.031185 1_555
O18 Zn2 2.158648 1_555
O19 Ti15 1.961573 1_555
O19 Zn1 2.030366 1_555
O19 Ti14 2.066970 1_555
O19 Zn3 2.121536 1_555
O20 Ti8 1.869269 1_555
O20 Ti0 1.906550 1_555
O21 Ti6 1.857659 1_555
O21 Ti1 1.914930 1_555
O22 Ti7 1.860355 1_555
O22 Ti2 1.911083 1_555
O23 Ti11 1.860006 1_555
O23 Ti3 1.916520 1_555
O24 Ti9 1.858284 1_555
O24 Ti4 1.916948 1_555
O25 Ti10 1.866400 1_555
O25 Ti5 1.910791 1_555
O26 Ti10 1.856081 1_555
O26 Ti12 1.958133 1_455
O26 Zn3 2.067442 1_565
O27 Ti11 1.914153 1_555
O27 Ti15 1.949203 1_556
O27 Ti13 2.072573 1_545
O28 Ti14 1.878624 1_655
O28 Ti9 1.894567 1_555
O28 Zn2 2.161552 1_554
O29 Ti7 1.860037 1_555
O29 Ti12 1.894351 1_545
O29 Zn3 2.161273 1_655
O30 Ti13 1.955294 1_554
O30 Ti8 1.960615 1_555
O30 Ti15 2.043888 1_565
O31 Ti6 1.841945 1_555
O31 Ti14 1.981213 1_556
O31 Zn2 2.042358 1_455
O32 Zn0 1.991279 1_555
O32 Ti10 2.011091 1_655
O32 Ti0 2.036530 1_555
O32 Ti7 2.189702 1_555
O33 Zn0 1.976204 1_555
O33 Ti11 1.996276 1_565
O33 Ti1 2.115639 1_555
O33 Ti8 2.139171 1_555
O34 Zn0 1.984270 1_555
O34 Ti9 2.005193 1_556
O34 Ti2 2.030448 1_555
O34 Ti6 2.237327 1_555
O35 Zn1 1.983806 1_555
O35 Ti7 2.000925 1_455
O35 Ti3 2.031674 1_555
O35 Ti10 2.243618 1_555
O36 Zn1 1.987657 1_555
O36 Ti8 1.998742 1_545
O36 Ti4 2.067524 1_555
O36 Ti11 2.190121 1_555
O37 Zn1 1.985760 1_555
O37 Ti6 2.010959 1_554
O37 Ti5 2.104670 1_555
O37 Ti9 2.127199 1_555
