# generated using pymatgen
data_Sr2ScFePO3
_symmetry_space_group_name_H-M   'P 1'
_cell_length_a   4.08175700
_cell_length_b   4.08175700
_cell_length_c   16.06862800
_cell_angle_alpha   90.00000000
_cell_angle_beta   90.00000000
_cell_angle_gamma   90.00000000
_symmetry_Int_Tables_number   1
_chemical_formula_structural   Sr2ScFePO3
_chemical_formula_sum   'Sr4 Sc2 Fe2 P2 O6'
_cell_volume   267.71523659
_cell_formula_units_Z   2
loop_
 _symmetry_equiv_pos_site_id
 _symmetry_equiv_pos_as_xyz
  1  'x, y, z'
loop_
 _atom_site_type_symbol
 _atom_site_label
 _atom_site_symmetry_multiplicity
 _atom_site_fract_x
 _atom_site_fract_y
 _atom_site_fract_z
 _atom_site_occupancy
  Sr  Sr0  1  0.50000000  0.00000000  0.80809700  1
  Sr  Sr1  1  0.00000000  0.50000000  0.19190300  1
  Sr  Sr2  1  0.50000000  0.00000000  0.58511600  1
  Sr  Sr3  1  0.00000000  0.50000000  0.41488400  1
  Sc  Sc0  1  0.00000000  0.50000000  0.69179000  1
  Sc  Sc1  1  0.50000000  0.00000000  0.30821000  1
  Fe  Fe0  1  0.50000000  0.50000000  0.00000000  1
  Fe  Fe1  1  0.00000000  0.00000000  0.00000000  1
  P  P0  1  0.00000000  0.50000000  0.90760200  1
  P  P1  1  0.50000000  0.00000000  0.09239800  1
  O  O0  1  0.50000000  0.50000000  0.71263000  1
  O  O1  1  0.00000000  0.00000000  0.71263000  1
  O  O2  1  0.00000000  0.00000000  0.28737000  1
  O  O3  1  0.50000000  0.50000000  0.28737000  1
  O  O4  1  0.00000000  0.50000000  0.56662400  1
  O  O5  1  0.50000000  0.00000000  0.43337600  1
loop_
_geom_bond_atom_site_label_1
_geom_bond_atom_site_label_2
_geom_bond_distance
_geom_bond_site_symmetry_2
Fe0 P1 2.523796 1_555
Fe0 P1 2.523796 1_565
Fe0 P0 2.523796 1_654
Fe0 P0 2.523796 1_554
Fe1 P1 2.523796 1_555
Fe1 P1 2.523796 1_455
Fe1 P0 2.523796 1_544
Fe1 P0 2.523796 1_554
P0 Sr0 3.299527 1_455
P0 Sr0 3.299527 1_465
P0 Sr0 3.299527 1_555
P0 Sr0 3.299527 1_565
P1 Sr1 3.299527 1_545
P1 Sr1 3.299527 1_645
P1 Sr1 3.299527 1_655
P1 Sr1 3.299527 1_555
O0 Sc0 2.068169 1_655
O0 Sc0 2.068169 1_555
O0 Sr0 2.553118 1_555
O0 Sr0 2.553118 1_565
O0 Sr2 2.891969 1_555
O0 Sr2 2.891969 1_565
O1 Sc0 2.068169 1_545
O1 Sc0 2.068169 1_555
O1 Sr0 2.553118 1_555
O1 Sr0 2.553118 1_455
O1 Sr2 2.891969 1_455
O1 Sr2 2.891969 1_555
O2 Sc1 2.068169 1_455
O2 Sc1 2.068169 1_555
O2 Sr1 2.553118 1_545
O2 Sr1 2.553118 1_555
O2 Sr3 2.891969 1_555
O2 Sr3 2.891969 1_545
O3 Sc1 2.068169 1_555
O3 Sc1 2.068169 1_565
O3 Sr1 2.553118 1_655
O3 Sr1 2.553118 1_555
O3 Sr3 2.891969 1_555
O3 Sr3 2.891969 1_655
O4 Sc0 2.011246 1_555
O4 Sr3 2.438254 1_555
O4 Sr2 2.901493 1_455
O4 Sr2 2.901493 1_555
O4 Sr2 2.901493 1_565
O4 Sr2 2.901493 1_465
O5 Sc1 2.011246 1_555
O5 Sr2 2.438254 1_555
O5 Sr3 2.901493 1_555
O5 Sr3 2.901493 1_655
O5 Sr3 2.901493 1_545
O5 Sr3 2.901493 1_645
