# generated using pymatgen
data_CuH6CI3N
_symmetry_space_group_name_H-M   'P 1'
_cell_length_a   8.35347500
_cell_length_b   10.97821100
_cell_length_c   9.34293000
_cell_angle_alpha   90.00000000
_cell_angle_beta   90.00000000
_cell_angle_gamma   90.00000000
_symmetry_Int_Tables_number   1
_chemical_formula_structural   CuH6CI3N
_chemical_formula_sum   'Cu4 H24 C4 I12 N4'
_cell_volume   856.80471118
_cell_formula_units_Z   4
loop_
 _symmetry_equiv_pos_site_id
 _symmetry_equiv_pos_as_xyz
  1  'x, y, z'
loop_
 _atom_site_type_symbol
 _atom_site_label
 _atom_site_symmetry_multiplicity
 _atom_site_fract_x
 _atom_site_fract_y
 _atom_site_fract_z
 _atom_site_occupancy
  Cu  Cu0  1  0.50000000  0.00000000  0.50000000  1
  Cu  Cu1  1  0.00000000  0.00000000  0.00000000  1
  Cu  Cu2  1  0.50000000  0.50000000  0.50000000  1
  Cu  Cu3  1  0.00000000  0.50000000  0.00000000  1
  H  H0  1  0.49583400  0.32580400  0.14120800  1
  H  H1  1  0.50416600  0.67419600  0.85879200  1
  H  H2  1  0.00416600  0.67419600  0.64120800  1
  H  H3  1  0.99583400  0.32580400  0.35879200  1
  H  H4  1  0.50416600  0.82580400  0.85879200  1
  H  H5  1  0.49583400  0.17419600  0.14120800  1
  H  H6  1  0.99583400  0.17419600  0.35879200  1
  H  H7  1  0.00416600  0.82580400  0.64120800  1
  H  H8  1  0.33688900  0.25000000  0.07691000  1
  H  H9  1  0.66311100  0.75000000  0.92309000  1
  H  H10  1  0.16311100  0.75000000  0.57691000  1
  H  H11  1  0.83688900  0.25000000  0.42309000  1
  H  H12  1  0.49425600  0.33169000  0.88078900  1
  H  H13  1  0.50574400  0.66831000  0.11921100  1
  H  H14  1  0.00574400  0.66831000  0.38078900  1
  H  H15  1  0.99425600  0.33169000  0.61921200  1
  H  H16  1  0.50574400  0.83169000  0.11921100  1
  H  H17  1  0.49425600  0.16831000  0.88078900  1
  H  H18  1  0.99425600  0.16831000  0.61921200  1
  H  H19  1  0.00574400  0.83169000  0.38078900  1
  H  H20  1  0.66493300  0.25000000  0.94792000  1
  H  H21  1  0.33506700  0.75000000  0.05208000  1
  H  H22  1  0.83506700  0.75000000  0.44792000  1
  H  H23  1  0.16493300  0.25000000  0.55208000  1
  C  C0  1  0.53437500  0.25000000  0.93728000  1
  C  C1  1  0.46562500  0.75000000  0.06272000  1
  C  C2  1  0.96562500  0.75000000  0.43728000  1
  C  C3  1  0.03437500  0.25000000  0.56272000  1
  I  I0  1  0.52879700  0.25000000  0.50418700  1
  I  I1  1  0.47120300  0.75000000  0.49581300  1
  I  I2  1  0.97120300  0.75000000  0.00418700  1
  I  I3  1  0.02879700  0.25000000  0.99581300  1
  I  I4  1  0.73072800  0.98687700  0.67490000  1
  I  I5  1  0.26927200  0.01312300  0.32510000  1
  I  I6  1  0.76927200  0.01312300  0.17490000  1
  I  I7  1  0.23072800  0.98687700  0.82510000  1
  I  I8  1  0.26927200  0.48687700  0.32510000  1
  I  I9  1  0.73072800  0.51312300  0.67490000  1
  I  I10  1  0.23072800  0.51312300  0.82510000  1
  I  I11  1  0.76927200  0.48687700  0.17490000  1
  N  N0  1  0.46122400  0.25000000  0.08301100  1
  N  N1  1  0.53877600  0.75000000  0.91698900  1
  N  N2  1  0.03877600  0.75000000  0.58301100  1
  N  N3  1  0.96122400  0.25000000  0.41698900  1
loop_
_geom_bond_atom_site_label_1
_geom_bond_atom_site_label_2
_geom_bond_distance
_geom_bond_site_symmetry_2
Cu0 I5 2.530961 1_555
Cu0 I4 2.530961 1_545
Cu0 I0 2.755352 1_555
Cu0 I1 2.755352 1_545
Cu1 I6 2.530961 1_455
Cu1 I7 2.530961 1_544
Cu1 I3 2.755352 1_554
Cu1 I2 2.755352 1_445
Cu2 I8 2.530961 1_555
Cu2 I9 2.530961 1_555
Cu2 I1 2.755352 1_555
Cu2 I0 2.755352 1_555
Cu3 I11 2.530961 1_455
Cu3 I10 2.530961 1_554
Cu3 I3 2.755352 1_554
Cu3 I2 2.755352 1_455
H0 N0 1.035265 1_555
H1 N1 1.035265 1_555
H2 N2 1.035265 1_555
H3 N3 1.035265 1_555
H4 N1 1.035265 1_555
H5 N0 1.035265 1_555
H6 N3 1.035265 1_555
H7 N2 1.035265 1_555
H8 N0 1.040192 1_555
H9 N1 1.040192 1_555
H10 N2 1.040192 1_555
H11 N3 1.040192 1_555
C0 H12 1.093227 1_555
C0 H17 1.093227 1_555
C0 H20 1.095134 1_555
C0 N0 1.492391 1_556
C1 H16 1.093227 1_555
C1 H13 1.093227 1_555
C1 H21 1.095134 1_555
C1 N1 1.492391 1_554
C2 H19 1.093227 1_655
C2 H14 1.093227 1_655
C2 H22 1.095134 1_555
C2 N2 1.492391 1_655
C3 H15 1.093232 1_455
C3 H18 1.093232 1_455
C3 H23 1.095134 1_555
C3 N3 1.492391 1_455
