# generated using pymatgen
data_KEu(NiO3)4
_symmetry_space_group_name_H-M   'P 1'
_cell_length_a   5.39827565
_cell_length_b   5.39827565
_cell_length_c   7.72574483
_cell_angle_alpha   90.00000000
_cell_angle_beta   90.00000000
_cell_angle_gamma   89.66754325
_symmetry_Int_Tables_number   1
_chemical_formula_structural   KEu(NiO3)4
_chemical_formula_sum   'K1 Eu1 Ni4 O12'
_cell_volume   225.13507589
_cell_formula_units_Z   1
loop_
 _symmetry_equiv_pos_site_id
 _symmetry_equiv_pos_as_xyz
  1  'x, y, z'
loop_
 _atom_site_type_symbol
 _atom_site_label
 _atom_site_symmetry_multiplicity
 _atom_site_fract_x
 _atom_site_fract_y
 _atom_site_fract_z
 _atom_site_occupancy
  K  K0  1  0.01091575  0.01091575  0.00000000  1
  Eu  Eu0  1  0.49115663  0.49115663  0.50000000  1
  Ni  Ni0  1  0.50152608  0.99726979  0.75182020  1
  Ni  Ni1  1  0.50152608  0.99726979  0.24817980  1
  Ni  Ni2  1  0.99726979  0.50152608  0.24817980  1
  Ni  Ni3  1  0.99726979  0.50152608  0.75182020  1
  O  O0  1  0.77622314  0.22400450  0.74681973  1
  O  O1  1  0.22400450  0.77622314  0.74681973  1
  O  O2  1  0.22400450  0.77622314  0.25318027  1
  O  O3  1  0.77622314  0.22400450  0.25318027  1
  O  O4  1  0.71584947  0.71584947  0.71618443  1
  O  O5  1  0.28418358  0.28418358  0.77689669  1
  O  O6  1  0.28418358  0.28418358  0.22310331  1
  O  O7  1  0.71584947  0.71584947  0.28381557  1
  O  O8  1  0.52731591  0.96783270  0.00000000  1
  O  O9  1  0.47214876  0.03501712  0.50000000  1
  O  O10  1  0.96783270  0.52731591  0.00000000  1
  O  O11  1  0.03501712  0.47214876  0.50000000  1
loop_
_geom_bond_atom_site_label_1
_geom_bond_atom_site_label_2
_geom_bond_distance
_geom_bond_site_symmetry_2
K0 O1 2.595648 1_544
K0 O3 2.595648 1_455
K0 O0 2.595648 1_454
K0 O2 2.595648 1_545
K0 O10 2.622288 1_445
K0 O8 2.622288 1_445
K0 O5 2.710806 1_554
K0 O6 2.710806 1_555
K0 O10 2.796010 1_455
K0 O8 2.796010 1_545
Eu0 O7 2.397730 1_555
Eu0 O4 2.397730 1_555
Eu0 O11 2.465099 1_555
Eu0 O9 2.465099 1_555
Eu0 O6 2.662238 1_555
Eu0 O5 2.662238 1_555
Eu0 O2 2.838719 1_555
Eu0 O3 2.838719 1_555
Eu0 O1 2.838719 1_555
Eu0 O0 2.838719 1_555
Eu0 O11 2.937106 1_655
Eu0 O9 2.937106 1_565
Ni0 O1 1.921081 1_555
Ni0 O4 1.924036 1_555
Ni0 O0 1.928636 1_565
Ni0 O8 1.928912 1_556
Ni0 O5 1.947286 1_565
Ni0 O9 1.962463 1_565
Ni1 O2 1.921081 1_555
Ni1 O7 1.924036 1_555
Ni1 O3 1.928636 1_565
Ni1 O8 1.928912 1_555
Ni1 O6 1.947286 1_565
Ni1 O9 1.962463 1_565
Ni2 O3 1.921081 1_555
Ni2 O7 1.924036 1_555
Ni2 O2 1.928636 1_655
Ni2 O10 1.928912 1_555
Ni2 O6 1.947286 1_655
Ni2 O11 1.962463 1_655
Ni3 O0 1.921081 1_555
Ni3 O4 1.924036 1_555
Ni3 O1 1.928636 1_655
Ni3 O10 1.928912 1_556
Ni3 O5 1.947286 1_655
Ni3 O11 1.962463 1_655
