# generated using pymatgen
data_U2B6W
_symmetry_space_group_name_H-M   'P 1'
_cell_length_a   3.68502700
_cell_length_b   9.28123700
_cell_length_c   11.38297300
_cell_angle_alpha   90.00000000
_cell_angle_beta   90.00000000
_cell_angle_gamma   90.00000000
_symmetry_Int_Tables_number   1
_chemical_formula_structural   U2B6W
_chemical_formula_sum   'U8 B24 W4'
_cell_volume   389.31599110
_cell_formula_units_Z   4
loop_
 _symmetry_equiv_pos_site_id
 _symmetry_equiv_pos_as_xyz
  1  'x, y, z'
loop_
 _atom_site_type_symbol
 _atom_site_label
 _atom_site_symmetry_multiplicity
 _atom_site_fract_x
 _atom_site_fract_y
 _atom_site_fract_z
 _atom_site_occupancy
  U  U0  1  0.00000000  0.33431300  0.40764200  1
  U  U1  1  0.00000000  0.66568700  0.59235800  1
  U  U2  1  0.00000000  0.83431300  0.09235800  1
  U  U3  1  0.00000000  0.16568700  0.90764200  1
  U  U4  1  0.00000000  0.95634200  0.39493700  1
  U  U5  1  0.00000000  0.04365800  0.60506300  1
  U  U6  1  0.00000000  0.45634200  0.10506300  1
  U  U7  1  0.00000000  0.54365800  0.89493700  1
  B  B0  1  0.50000000  0.54986400  0.43336800  1
  B  B1  1  0.50000000  0.45013600  0.56663200  1
  B  B2  1  0.50000000  0.04986400  0.06663200  1
  B  B3  1  0.50000000  0.95013600  0.93336800  1
  B  B4  1  0.50000000  0.74365100  0.42433600  1
  B  B5  1  0.50000000  0.25634900  0.57566400  1
  B  B6  1  0.50000000  0.24365100  0.07566400  1
  B  B7  1  0.50000000  0.75634900  0.92433600  1
  B  B8  1  0.50000000  0.80388700  0.27272100  1
  B  B9  1  0.50000000  0.19611300  0.72727900  1
  B  B10  1  0.50000000  0.30388700  0.22727900  1
  B  B11  1  0.50000000  0.69611300  0.77272100  1
  B  B12  1  0.50000000  0.64405600  0.18717000  1
  B  B13  1  0.50000000  0.35594400  0.81283000  1
  B  B14  1  0.50000000  0.14405600  0.31283000  1
  B  B15  1  0.50000000  0.85594400  0.68717000  1
  B  B16  1  0.50000000  0.98494800  0.21853400  1
  B  B17  1  0.50000000  0.01505200  0.78146600  1
  B  B18  1  0.50000000  0.48494800  0.28146600  1
  B  B19  1  0.50000000  0.51505200  0.71853400  1
  B  B20  1  0.50000000  0.64152300  0.03938700  1
  B  B21  1  0.50000000  0.35847700  0.96061300  1
  B  B22  1  0.50000000  0.14152300  0.46061300  1
  B  B23  1  0.50000000  0.85847700  0.53938700  1
  W  W0  1  0.00000000  0.64494800  0.32027600  1
  W  W1  1  0.00000000  0.35505200  0.67972400  1
  W  W2  1  0.00000000  0.14494800  0.17972400  1
  W  W3  1  0.00000000  0.85505200  0.82027600  1
loop_
_geom_bond_atom_site_label_1
_geom_bond_atom_site_label_2
_geom_bond_distance
_geom_bond_site_symmetry_2
U0 W0 3.049776 1_555
U0 W1 3.103078 1_555
U0 W2 3.133653 1_555
U1 W1 3.049776 1_555
U1 W0 3.103078 1_555
U1 W3 3.133653 1_555
U2 W2 3.049776 1_565
U2 W3 3.103078 1_554
U2 W0 3.133653 1_555
U3 W3 3.049776 1_545
U3 W2 3.103078 1_556
U3 W1 3.133653 1_555
U4 U5 2.525418 1_565
U4 W2 3.010911 1_565
U4 W0 3.012486 1_555
U5 W3 3.010911 1_545
U5 W1 3.012486 1_555
U6 U7 2.525418 1_554
U6 W0 3.010911 1_555
U6 W2 3.012486 1_555
U7 W1 3.010911 1_555
U7 W3 3.012486 1_555
B0 B1 1.777032 1_555
B0 B4 1.801519 1_555
B0 B18 1.831060 1_555
B0 W0 2.414717 1_655
B0 W0 2.414717 1_555
B0 U0 2.735495 1_655
B0 U0 2.735495 1_555
B0 U1 2.797452 1_655
B0 U1 2.797452 1_555
B1 B5 1.801519 1_555
B1 B19 1.831060 1_555
B1 W1 2.414717 1_555
B1 W1 2.414717 1_655
B1 U1 2.735495 1_655
B1 U1 2.735495 1_555
B1 U0 2.797452 1_555
B1 U0 2.797452 1_655
B2 B3 1.777032 1_544
B2 B6 1.801519 1_555
B2 W2 2.414717 1_655
B2 W2 2.414717 1_555
B2 U2 2.735495 1_545
B2 U2 2.735495 1_645
B2 U3 2.797452 1_654
B2 U3 2.797452 1_554
B3 B7 1.801519 1_555
B3 W3 2.414717 1_555
B3 W3 2.414717 1_655
B3 U3 2.735495 1_565
B3 U3 2.735495 1_665
B3 U2 2.797452 1_656
B3 U2 2.797452 1_556
B4 B8 1.814123 1_555
B4 W0 2.374266 1_655
B4 W0 2.374266 1_555
B4 U4 2.720967 1_555
B4 U4 2.720967 1_655
B4 U1 2.752536 1_555
B4 U1 2.752536 1_655
B5 B9 1.814123 1_555
B5 W1 2.374266 1_555
B5 W1 2.374266 1_655
B5 U5 2.720967 1_655
B5 U5 2.720967 1_555
B5 U0 2.752536 1_655
B5 U0 2.752536 1_555
B6 W2 2.374266 1_655
B6 W2 2.374266 1_555
B6 U6 2.720967 1_555
B6 U6 2.720967 1_655
B6 U3 2.752536 1_654
B6 U3 2.752536 1_554
B7 W3 2.374266 1_555
B7 W3 2.374266 1_655
B7 U7 2.720967 1_655
B7 U7 2.720967 1_555
B7 U2 2.752536 1_656
B7 U2 2.752536 1_556
B8 W0 2.421559 1_655
B8 W0 2.421559 1_555
B8 U4 2.707838 1_555
B8 U4 2.707838 1_655
B8 U2 2.773028 1_555
B8 U2 2.773028 1_655
B9 W1 2.421559 1_555
B9 W1 2.421559 1_655
B9 U5 2.707838 1_555
B9 U5 2.707838 1_655
B9 U3 2.773028 1_655
B9 U3 2.773028 1_555
B10 B14 1.774513 1_555
B10 B18 1.790093 1_555
B10 B6 1.814123 1_555
B10 W2 2.421559 1_555
B10 W2 2.421559 1_655
B10 U6 2.707838 1_655
B10 U6 2.707838 1_555
B10 U0 2.773028 1_555
B10 U0 2.773028 1_655
B11 B15 1.774513 1_555
B11 B19 1.790093 1_555
B11 B7 1.814123 1_555
B11 W3 2.421559 1_555
B11 W3 2.421559 1_655
B11 U7 2.707838 1_555
B11 U7 2.707838 1_655
B11 U1 2.773028 1_555
B11 U1 2.773028 1_655
B12 B20 1.682374 1_555
B12 B8 1.774513 1_555
B12 B18 1.825601 1_555
B12 W0 2.385494 1_555
B12 W0 2.385494 1_655
B12 U6 2.702535 1_655
B12 U6 2.702535 1_555
B12 U2 2.770874 1_555
B12 U2 2.770874 1_655
B13 B21 1.682374 1_555
B13 B9 1.774513 1_555
B13 B19 1.825601 1_555
B13 W1 2.385494 1_655
B13 W1 2.385494 1_555
B13 U7 2.702535 1_555
B13 U7 2.702535 1_655
B13 U3 2.770874 1_655
B13 U3 2.770874 1_555
B14 B22 1.682374 1_555
B14 B16 1.825601 1_545
B14 W2 2.385494 1_555
B14 W2 2.385494 1_655
B14 U4 2.702535 1_645
B14 U4 2.702535 1_545
B14 U0 2.770874 1_655
B14 U0 2.770874 1_555
B15 B23 1.682374 1_555
B15 B17 1.825601 1_565
B15 W3 2.385494 1_555
B15 W3 2.385494 1_655
B15 U5 2.702535 1_565
B15 U5 2.702535 1_665
B15 U1 2.770874 1_555
B15 U1 2.770874 1_655
B16 B8 1.790093 1_555
B16 B2 1.831060 1_565
B16 W2 2.407330 1_665
B16 W2 2.407330 1_565
B16 U2 2.722557 1_555
B16 U2 2.722557 1_655
B16 U4 2.738133 1_555
B16 U4 2.738133 1_655
B17 B9 1.790093 1_555
B17 B3 1.831060 1_545
B17 W3 2.407330 1_545
B17 W3 2.407330 1_645
B17 U3 2.722557 1_555
B17 U3 2.722557 1_655
B17 U5 2.738133 1_655
B17 U5 2.738133 1_555
B18 W0 2.407330 1_655
B18 W0 2.407330 1_555
B18 U0 2.722557 1_555
B18 U0 2.722557 1_655
B18 U6 2.738133 1_555
B18 U6 2.738133 1_655
B19 W1 2.407330 1_655
B19 W1 2.407330 1_555
B19 U1 2.722557 1_655
B19 U1 2.722557 1_555
B19 U7 2.738133 1_655
B19 U7 2.738133 1_555
B20 B7 1.688457 1_554
B20 U6 2.628251 1_555
B20 U6 2.628251 1_655
B20 U7 2.631255 1_554
B20 U7 2.631255 1_654
B20 U2 2.638205 1_555
B20 U2 2.638205 1_655
B21 B6 1.688457 1_556
B21 U7 2.628251 1_555
B21 U7 2.628251 1_655
B21 U6 2.631255 1_556
B21 U6 2.631255 1_656
B21 U3 2.638205 1_655
B21 U3 2.638205 1_555
B22 B5 1.688457 1_555
B22 U4 2.628251 1_545
B22 U4 2.628251 1_645
B22 U5 2.631255 1_655
B22 U5 2.631255 1_555
B22 U0 2.638205 1_555
B22 U0 2.638205 1_655
B23 B4 1.688457 1_555
B23 U5 2.628251 1_565
B23 U5 2.628251 1_665
B23 U4 2.631255 1_555
B23 U4 2.631255 1_655
B23 U1 2.638205 1_555
B23 U1 2.638205 1_655
