# generated using pymatgen
data_KCaCl3
_symmetry_space_group_name_H-M   'P 1'
_cell_length_a   5.39352300
_cell_length_b   5.39352300
_cell_length_c   5.39352300
_cell_angle_alpha   90.00000000
_cell_angle_beta   90.00000000
_cell_angle_gamma   90.00000000
_symmetry_Int_Tables_number   1
_chemical_formula_structural   KCaCl3
_chemical_formula_sum   'K1 Ca1 Cl3'
_cell_volume   156.89807138
_cell_formula_units_Z   1
loop_
 _symmetry_equiv_pos_site_id
 _symmetry_equiv_pos_as_xyz
  1  'x, y, z'
loop_
 _atom_site_type_symbol
 _atom_site_label
 _atom_site_symmetry_multiplicity
 _atom_site_fract_x
 _atom_site_fract_y
 _atom_site_fract_z
 _atom_site_occupancy
  K  K0  1  0.00000000  0.00000000  0.00000000  1
  Ca  Ca0  1  0.50000000  0.50000000  0.50000000  1
  Cl  Cl0  1  0.00000000  0.50000000  0.50000000  1
  Cl  Cl1  1  0.50000000  0.00000000  0.50000000  1
  Cl  Cl2  1  0.50000000  0.50000000  0.00000000  1
loop_
_geom_bond_atom_site_label_1
_geom_bond_atom_site_label_2
_geom_bond_distance
_geom_bond_site_symmetry_2
Ca0 Cl0 2.696762 1_555
Ca0 Cl1 2.696762 1_555
Ca0 Cl0 2.696762 1_655
Ca0 Cl2 2.696762 1_556
Ca0 Cl2 2.696762 1_555
Ca0 Cl1 2.696762 1_565
Cl0 K0 3.813797 1_555
Cl0 K0 3.813797 1_566
Cl0 K0 3.813797 1_556
Cl0 K0 3.813797 1_565
Cl1 K0 3.813797 1_555
Cl1 K0 3.813797 1_556
Cl1 K0 3.813797 1_655
Cl1 K0 3.813797 1_656
Cl2 K0 3.813797 1_555
Cl2 K0 3.813797 1_565
Cl2 K0 3.813797 1_655
Cl2 K0 3.813797 1_665
