# generated using pymatgen
data_Sr2MnN2
_symmetry_space_group_name_H-M   'P 1'
_cell_length_a   6.34674032
_cell_length_b   11.46712470
_cell_length_c   12.31864600
_cell_angle_alpha   90.00000000
_cell_angle_beta   90.00000000
_cell_angle_gamma   25.39310838
_symmetry_Int_Tables_number   1
_chemical_formula_structural   Sr2MnN2
_chemical_formula_sum   'Sr8 Mn4 N8'
_cell_volume   384.45882162
_cell_formula_units_Z   4
loop_
 _symmetry_equiv_pos_site_id
 _symmetry_equiv_pos_as_xyz
  1  'x, y, z'
loop_
 _atom_site_type_symbol
 _atom_site_label
 _atom_site_symmetry_multiplicity
 _atom_site_fract_x
 _atom_site_fract_y
 _atom_site_fract_z
 _atom_site_occupancy
  Sr  Sr0  1  0.00000000  0.44458200  0.86064900  1
  Sr  Sr1  1  0.00000000  0.55541800  0.13935100  1
  Sr  Sr2  1  0.00000000  0.05541800  0.36064900  1
  Sr  Sr3  1  0.00000000  0.94458200  0.63935100  1
  Sr  Sr4  1  0.00000000  0.14048500  0.92802600  1
  Sr  Sr5  1  0.00000000  0.85951500  0.07197400  1
  Sr  Sr6  1  0.00000000  0.35951500  0.42802600  1
  Sr  Sr7  1  0.00000000  0.64048500  0.57197400  1
  Mn  Mn0  1  0.00000000  0.26461000  0.66602200  1
  Mn  Mn1  1  0.00000000  0.73539000  0.33397800  1
  Mn  Mn2  1  0.00000000  0.23539000  0.16602200  1
  Mn  Mn3  1  0.00000000  0.76461000  0.83397800  1
  N  N0  1  0.00000000  0.41628400  0.63597700  1
  N  N1  1  0.00000000  0.58371600  0.36402300  1
  N  N2  1  0.00000000  0.08371600  0.13597700  1
  N  N3  1  0.00000000  0.91628400  0.86402300  1
  N  N4  1  0.00000000  0.15485100  0.56575900  1
  N  N5  1  0.00000000  0.84514900  0.43424100  1
  N  N6  1  0.00000000  0.34514900  0.06575900  1
  N  N7  1  0.00000000  0.65485100  0.93424100  1
loop_
_geom_bond_atom_site_label_1
_geom_bond_atom_site_label_2
_geom_bond_distance
_geom_bond_site_symmetry_2
Mn0 N4 1.763408 1_555
Mn0 N0 1.778209 1_555
Mn1 N5 1.763408 1_555
Mn1 N1 1.778209 1_555
Mn2 N6 1.763408 1_555
Mn2 N2 1.778209 1_555
Mn3 N7 1.763408 1_555
Mn3 N3 1.778209 1_555
N0 Sr6 2.643095 1_555
N0 Sr7 2.689119 1_555
N0 Sr3 2.741242 1_645
N0 Sr3 2.741242 1_455
N0 Sr0 2.786613 1_555
N1 Sr7 2.643095 1_555
N1 Sr6 2.689119 1_555
N1 Sr2 2.741242 1_465
N1 Sr2 2.741242 1_655
N1 Sr1 2.786613 1_555
N2 Sr4 2.643095 1_554
N2 Sr5 2.689119 1_545
N2 Sr1 2.741242 1_455
N2 Sr1 2.741242 1_645
N2 Sr2 2.786613 1_555
N3 Sr5 2.643095 1_556
N3 Sr4 2.689119 1_565
N3 Sr0 2.741242 1_655
N3 Sr0 2.741242 1_465
N3 Sr3 2.786613 1_555
N4 Sr3 2.575972 1_545
N4 Sr7 2.727706 1_455
N4 Sr7 2.727706 1_645
N4 Sr2 2.772035 1_555
N4 Sr6 2.895982 1_555
N5 Sr2 2.575972 1_565
N5 Sr6 2.727706 1_655
N5 Sr6 2.727706 1_465
N5 Sr3 2.772035 1_555
N5 Sr7 2.895982 1_555
N6 Sr1 2.575972 1_555
N6 Sr5 2.727706 1_645
N6 Sr5 2.727706 1_455
N6 Sr0 2.772035 1_554
N6 Sr4 2.895982 1_554
N7 Sr0 2.575972 1_555
N7 Sr4 2.727706 1_465
N7 Sr4 2.727706 1_655
N7 Sr1 2.772035 1_556
N7 Sr5 2.895982 1_556
