# generated using pymatgen
data_Mg3In
_symmetry_space_group_name_H-M   'P 1'
_cell_length_a   9.34410451
_cell_length_b   9.34410451
_cell_length_c   9.34410562
_cell_angle_alpha   50.07364811
_cell_angle_beta   50.07364811
_cell_angle_gamma   50.07364555
_symmetry_Int_Tables_number   1
_chemical_formula_structural   Mg3In
_chemical_formula_sum   'Mg12 In4'
_cell_volume   441.61746723
_cell_formula_units_Z   4
loop_
 _symmetry_equiv_pos_site_id
 _symmetry_equiv_pos_as_xyz
  1  'x, y, z'
loop_
 _atom_site_type_symbol
 _atom_site_label
 _atom_site_symmetry_multiplicity
 _atom_site_fract_x
 _atom_site_fract_y
 _atom_site_fract_z
 _atom_site_occupancy
  Mg  Mg0  1  0.82468800  0.41517600  0.41517600  1
  Mg  Mg1  1  0.41517600  0.41517600  0.82468800  1
  Mg  Mg2  1  0.41517600  0.82468800  0.41517600  1
  Mg  Mg3  1  0.69463500  0.07582700  0.07582700  1
  Mg  Mg4  1  0.07582700  0.07582700  0.69463500  1
  Mg  Mg5  1  0.07582700  0.69463500  0.07582700  1
  Mg  Mg6  1  0.30536500  0.92417300  0.92417300  1
  Mg  Mg7  1  0.92417300  0.92417300  0.30536500  1
  Mg  Mg8  1  0.92417300  0.30536500  0.92417300  1
  Mg  Mg9  1  0.17531200  0.58482400  0.58482400  1
  Mg  Mg10  1  0.58482400  0.58482400  0.17531200  1
  Mg  Mg11  1  0.58482400  0.17531200  0.58482400  1
  In  In0  1  0.84754300  0.84754300  0.84754300  1
  In  In1  1  0.15245700  0.15245700  0.15245700  1
  In  In2  1  0.28221000  0.28221000  0.28221000  1
  In  In3  1  0.71779000  0.71779000  0.71779000  1
loop_
_geom_bond_atom_site_label_1
_geom_bond_atom_site_label_2
_geom_bond_distance
_geom_bond_site_symmetry_2
Mg0 Mg11 3.144340 1_555
Mg0 Mg10 3.144340 1_555
Mg0 Mg5 3.172733 1_655
Mg0 Mg4 3.172733 1_655
Mg0 Mg2 3.238774 1_555
Mg0 Mg1 3.238774 1_555
Mg1 Mg11 3.144340 1_555
Mg1 Mg9 3.144340 1_555
Mg1 Mg5 3.172733 1_556
Mg1 Mg3 3.172733 1_556
Mg1 Mg2 3.238774 1_555
Mg2 Mg9 3.144340 1_555
Mg2 Mg3 3.172733 1_565
Mg2 Mg4 3.172733 1_565
Mg7 Mg9 3.172733 1_655
Mg8 Mg9 3.172733 1_655
Mg10 Mg2 3.144340 1_555
Mg10 Mg6 3.172733 1_554
Mg10 Mg8 3.172733 1_554
Mg10 Mg11 3.238774 1_555
Mg10 Mg9 3.238774 1_555
Mg11 Mg6 3.172733 1_545
Mg11 Mg7 3.172733 1_545
Mg11 Mg9 3.238774 1_555
In0 Mg4 3.026236 1_665
In0 Mg5 3.026237 1_656
In0 Mg3 3.026237 1_566
In0 Mg10 3.141145 1_556
In0 Mg9 3.141145 1_655
In0 Mg11 3.141145 1_565
In1 Mg7 3.026236 1_445
In1 Mg8 3.026237 1_454
In1 Mg6 3.026237 1_544
In1 Mg1 3.141145 1_554
In1 Mg0 3.141145 1_455
In1 Mg2 3.141145 1_545
In2 Mg5 2.825592 1_555
In2 Mg3 2.825592 1_555
In2 Mg4 2.825593 1_555
In2 Mg0 3.116010 1_455
In2 Mg2 3.116010 1_545
In2 Mg1 3.116011 1_554
In3 Mg8 2.825592 1_555
In3 Mg6 2.825592 1_555
In3 Mg7 2.825593 1_555
In3 Mg11 3.116010 1_565
In3 Mg9 3.116010 1_655
In3 Mg10 3.116011 1_556
