# generated using pymatgen
data_TbUTe6
_symmetry_space_group_name_H-M   'P 1'
_cell_length_a   13.23220545
_cell_length_b   13.23220545
_cell_length_c   4.37187468
_cell_angle_alpha   90.00000000
_cell_angle_beta   90.00000000
_cell_angle_gamma   160.97939439
_symmetry_Int_Tables_number   1
_chemical_formula_structural   TbUTe6
_chemical_formula_sum   'Tb1 U1 Te6'
_cell_volume   249.47522927
_cell_formula_units_Z   1
loop_
 _symmetry_equiv_pos_site_id
 _symmetry_equiv_pos_as_xyz
  1  'x, y, z'
loop_
 _atom_site_type_symbol
 _atom_site_label
 _atom_site_symmetry_multiplicity
 _atom_site_fract_x
 _atom_site_fract_y
 _atom_site_fract_z
 _atom_site_occupancy
  Tb  Tb0  1  0.16956275  0.83043725  0.50000000  1
  U  U0  1  0.83125754  0.16874246  -0.00000000  1
  Te  Te0  1  0.42524207  0.57475793  0.00000000  1
  Te  Te1  1  0.57465808  0.42534192  0.50000000  1
  Te  Te2  1  0.70581367  0.29418633  0.00000000  1
  Te  Te3  1  0.29373455  0.70626545  0.50000000  1
  Te  Te4  1  0.07448501  0.92551499  0.00000000  1
  Te  Te5  1  0.92524634  0.07475366  0.50000000  1
loop_
_geom_bond_atom_site_label_1
_geom_bond_atom_site_label_2
_geom_bond_distance
_geom_bond_site_symmetry_2
Tb0 Te2 3.233177 1_566
Tb0 Te2 3.233177 1_565
Tb0 Te2 3.233177 1_456
Tb0 Te2 3.233177 1_455
Tb0 Te3 3.240969 1_555
Tb0 Te1 3.303903 1_565
Tb0 Te1 3.303903 1_455
Tb0 Te4 3.307058 1_555
Tb0 Te4 3.307058 1_556
Te0 Te5 3.091632 1_455
Te0 Te5 3.091632 1_454
Te0 Te5 3.091632 1_565
Te0 Te5 3.091632 1_564
Te0 U0 3.285935 1_455
Te0 U0 3.285935 1_565
Te1 Te4 3.091635 1_546
Te1 Te4 3.091635 1_656
Te1 Te4 3.091635 1_545
Te1 Te4 3.091635 1_655
Te2 U0 3.274171 1_555
Te3 U0 3.243049 1_456
Te3 U0 3.243049 1_455
Te3 U0 3.243049 1_565
Te3 U0 3.243049 1_566
Te5 U0 3.285784 1_556
Te5 U0 3.285784 1_555
