# generated using pymatgen
data_CeSb2Pd
_symmetry_space_group_name_H-M   'P 1'
_cell_length_a   4.46585823
_cell_length_b   4.46585823
_cell_length_c   9.87394665
_cell_angle_alpha   90.00000000
_cell_angle_beta   90.00000000
_cell_angle_gamma   90.00000000
_symmetry_Int_Tables_number   1
_chemical_formula_structural   CeSb2Pd
_chemical_formula_sum   'Ce2 Sb4 Pd2'
_cell_volume   196.92490319
_cell_formula_units_Z   2
loop_
 _symmetry_equiv_pos_site_id
 _symmetry_equiv_pos_as_xyz
  1  'x, y, z'
loop_
 _atom_site_type_symbol
 _atom_site_label
 _atom_site_symmetry_multiplicity
 _atom_site_fract_x
 _atom_site_fract_y
 _atom_site_fract_z
 _atom_site_occupancy
  Ce  Ce0  1  0.00000000  0.50000000  0.74648700  1
  Ce  Ce1  1  0.50000000  0.00000000  0.25357896  1
  Sb  Sb0  1  0.50000000  0.50000000  0.00000842  1
  Sb  Sb1  1  -0.00000000  0.00000000  0.00000842  1
  Sb  Sb2  1  -0.00000000  0.50000000  0.34420202  1
  Sb  Sb3  1  0.50000000  0.00000000  0.65588576  1
  Pd  Pd0  1  0.50000000  0.50000000  0.49991521  1
  Pd  Pd1  1  -0.00000000  -0.00000000  0.49991521  1
loop_
_geom_bond_atom_site_label_1
_geom_bond_atom_site_label_2
_geom_bond_distance
_geom_bond_site_symmetry_2
Ce0 Sb3 3.282109 1_555
Ce0 Sb3 3.282109 1_465
Ce0 Sb3 3.282109 1_455
Ce0 Sb3 3.282109 1_565
Ce0 Pd0 3.303548 1_555
Ce0 Pd0 3.303548 1_455
Ce0 Pd1 3.303548 1_565
Ce0 Pd1 3.303548 1_555
Ce0 Sb1 3.354440 1_566
Ce0 Sb1 3.354440 1_556
Ce0 Sb0 3.354440 1_556
Ce0 Sb0 3.354440 1_456
Ce1 Sb2 3.282168 1_655
Ce1 Sb2 3.282168 1_545
Ce1 Sb2 3.282168 1_645
Ce1 Sb2 3.282168 1_555
Ce1 Pd0 3.301834 1_545
Ce1 Pd0 3.301834 1_555
Ce1 Pd1 3.301834 1_655
Ce1 Pd1 3.301834 1_555
Ce1 Sb1 3.354802 1_655
Ce1 Sb0 3.354802 1_545
Ce1 Sb0 3.354802 1_555
Ce1 Sb1 3.354802 1_555
Sb0 Sb1 3.157839 1_565
Sb0 Sb1 3.157839 1_655
Sb0 Sb1 3.157839 1_665
Sb0 Sb1 3.157839 1_555
Pd0 Sb2 2.711068 1_655
Pd0 Sb2 2.711068 1_555
Pd0 Sb3 2.712510 1_565
Pd0 Sb3 2.712510 1_555
Pd1 Sb2 2.711068 1_545
Pd1 Sb2 2.711068 1_555
Pd1 Sb3 2.712510 1_555
Pd1 Sb3 2.712510 1_455
