# generated using pymatgen
data_Ti5(FeSb)4
_symmetry_space_group_name_H-M   'P 1'
_cell_length_a   4.27090375
_cell_length_b   4.27090375
_cell_length_c   13.89867370
_cell_angle_alpha   90.00000000
_cell_angle_beta   81.16182488
_cell_angle_gamma   120.00000000
_symmetry_Int_Tables_number   1
_chemical_formula_structural   Ti5(FeSb)4
_chemical_formula_sum   'Ti5 Fe4 Sb4'
_cell_volume   216.07219586
_cell_formula_units_Z   1
loop_
 _symmetry_equiv_pos_site_id
 _symmetry_equiv_pos_as_xyz
  1  'x, y, z'
loop_
 _atom_site_type_symbol
 _atom_site_label
 _atom_site_symmetry_multiplicity
 _atom_site_fract_x
 _atom_site_fract_y
 _atom_site_fract_z
 _atom_site_occupancy
  Ti  Ti0  1  0.87490000  0.43745000  0.68765000  1
  Ti  Ti1  1  0.38530600  0.69265300  0.92204100  1
  Ti  Ti2  1  0.86510400  0.93255200  0.20234500  1
  Ti  Ti3  1  0.36910300  0.18455200  0.44634500  1
  Ti  Ti4  1  0.24934700  0.62467300  0.12598000  1
  Fe  Fe0  1  0.99643600  0.49821800  0.50534700  1
  Fe  Fe1  1  0.49770200  0.74885100  0.75344600  1
  Fe  Fe2  1  0.99775500  0.99887800  0.00336700  1
  Fe  Fe3  1  0.50594000  0.25297000  0.24109100  1
  Sb  Sb0  1  0.63888800  0.31944400  0.04166800  1
  Sb  Sb1  1  0.11657100  0.55828600  0.32514300  1
  Sb  Sb2  1  0.62385000  0.81192500  0.56422400  1
  Sb  Sb3  1  0.12909800  0.06454900  0.80635200  1
loop_
_geom_bond_atom_site_label_1
_geom_bond_atom_site_label_2
_geom_bond_distance
_geom_bond_site_symmetry_2
Ti1 Ti4 2.789517 1_556
Ti2 Ti4 2.677919 1_665
Ti2 Ti4 2.677922 1_555
Ti2 Ti4 2.677922 1_655
Fe0 Sb1 2.464865 1_655
Fe0 Ti0 2.493575 1_555
Fe0 Sb2 2.593981 1_655
Fe0 Sb2 2.593989 1_545
Fe0 Sb2 2.593989 1_555
Fe0 Ti3 2.594514 1_655
Fe0 Ti3 2.594517 1_665
Fe0 Ti3 2.594521 1_555
Fe1 Ti1 2.306075 1_555
Fe1 Sb3 2.569803 1_665
Fe1 Sb3 2.569803 1_565
Fe1 Sb3 2.569803 1_555
Fe1 Sb2 2.588215 1_555
Fe1 Ti0 2.624908 1_455
Fe1 Ti0 2.624911 1_555
Fe1 Ti0 2.624911 1_565
Fe2 Sb0 2.520844 1_565
Fe2 Sb0 2.520847 1_665
Fe2 Sb0 2.520847 1_555
Fe2 Sb3 2.694809 1_664
Fe2 Ti1 2.705109 1_554
Fe2 Ti1 2.705110 1_664
Fe2 Ti1 2.705113 1_654
Fe2 Ti2 2.721659 1_555
Fe2 Ti4 2.982103 1_665
Fe2 Ti4 2.982103 1_555
Fe2 Ti4 2.982109 1_655
Fe3 Ti2 2.522118 1_445
Fe3 Ti2 2.522118 1_545
Fe3 Ti2 2.522118 1_555
Fe3 Sb1 2.720653 1_655
Fe3 Sb1 2.720656 1_545
Fe3 Sb1 2.720659 1_555
Fe3 Sb0 2.727746 1_555
Fe3 Ti3 2.807504 1_555
Fe3 Ti4 2.925625 1_555
Fe3 Ti4 2.925625 1_655
Fe3 Ti4 2.925628 1_545
Sb0 Ti4 2.722158 1_555
Sb0 Ti4 2.722162 1_655
Sb0 Ti4 2.722162 1_545
Sb0 Ti1 2.959328 1_554
Sb0 Ti1 2.959328 1_544
Sb0 Ti1 2.959328 1_654
Sb1 Ti4 2.724190 1_555
Sb1 Ti3 2.971294 1_555
Sb1 Ti3 2.971294 1_565
Sb1 Ti3 2.971294 1_455
Sb1 Ti2 2.983526 1_455
Sb1 Ti2 2.983529 1_445
Sb1 Ti2 2.983532 1_555
Sb2 Ti3 2.946173 1_555
Sb2 Ti3 2.946176 1_565
Sb2 Ti3 2.946176 1_665
Sb2 Ti0 2.988371 1_455
Sb2 Ti0 2.988374 1_555
Sb2 Ti0 2.988374 1_565
Sb3 Ti1 2.929887 1_445
Sb3 Ti1 2.929890 1_555
Sb3 Ti1 2.929890 1_545
Sb3 Ti0 2.952350 1_455
Sb3 Ti0 2.952350 1_445
Sb3 Ti0 2.952353 1_555
