# generated using pymatgen
data_Co2As
_symmetry_space_group_name_H-M   'P 1'
_cell_length_a   5.98709443
_cell_length_b   5.98709443
_cell_length_c   3.53920200
_cell_angle_alpha   90.00000000
_cell_angle_beta   90.00000000
_cell_angle_gamma   120.00000480
_symmetry_Int_Tables_number   1
_chemical_formula_structural   Co2As
_chemical_formula_sum   'Co6 As3'
_cell_volume   109.86723073
_cell_formula_units_Z   3
loop_
 _symmetry_equiv_pos_site_id
 _symmetry_equiv_pos_as_xyz
  1  'x, y, z'
loop_
 _atom_site_type_symbol
 _atom_site_label
 _atom_site_symmetry_multiplicity
 _atom_site_fract_x
 _atom_site_fract_y
 _atom_site_fract_z
 _atom_site_occupancy
  Co  Co0  1  0.74418800  0.74418800  0.00000000  1
  Co  Co1  1  0.25581200  0.00000000  0.00000000  1
  Co  Co2  1  0.00000000  0.25581200  0.00000000  1
  Co  Co3  1  0.40229900  0.40229900  0.50000000  1
  Co  Co4  1  0.59770100  0.00000000  0.50000000  1
  Co  Co5  1  0.00000000  0.59770100  0.50000000  1
  As  As0  1  0.66666700  0.33333300  0.00000000  1
  As  As1  1  0.33333300  0.66666700  0.00000000  1
  As  As2  1  0.00000000  0.00000000  0.50000000  1
loop_
_geom_bond_atom_site_label_1
_geom_bond_atom_site_label_2
_geom_bond_distance
_geom_bond_site_symmetry_2
As0 Co2 2.263729 1_655
As0 Co1 2.263733 1_555
As0 Co0 2.263735 1_555
As0 Co4 2.541800 1_555
As0 Co4 2.541800 1_554
As0 Co5 2.541801 1_654
As0 Co5 2.541801 1_655
As0 Co3 2.541804 1_554
As0 Co3 2.541804 1_555
As1 Co1 2.263729 1_565
As1 Co2 2.263733 1_555
As1 Co0 2.263735 1_555
As1 Co5 2.541800 1_555
As1 Co5 2.541800 1_554
As1 Co4 2.541801 1_565
As1 Co4 2.541801 1_564
As1 Co3 2.541804 1_554
As1 Co3 2.541804 1_555
As2 Co0 2.340341 1_446
As2 Co0 2.340341 1_445
As2 Co1 2.340341 1_556
As2 Co2 2.340341 1_556
As2 Co2 2.340341 1_555
As2 Co1 2.340341 1_555
As2 Co3 2.408602 1_555
As2 Co5 2.408602 1_545
As2 Co4 2.408602 1_455
