# generated using pymatgen
data_Nb4Rh2C
_symmetry_space_group_name_H-M   'P 1'
_cell_length_a   8.47733491
_cell_length_b   8.47733491
_cell_length_c   8.47733491
_cell_angle_alpha   60.00000000
_cell_angle_beta   60.00000000
_cell_angle_gamma   60.00000000
_symmetry_Int_Tables_number   1
_chemical_formula_structural   Nb4Rh2C
_chemical_formula_sum   'Nb16 Rh8 C4'
_cell_volume   430.78743228
_cell_formula_units_Z   4
loop_
 _symmetry_equiv_pos_site_id
 _symmetry_equiv_pos_as_xyz
  1  'x, y, z'
loop_
 _atom_site_type_symbol
 _atom_site_label
 _atom_site_symmetry_multiplicity
 _atom_site_fract_x
 _atom_site_fract_y
 _atom_site_fract_z
 _atom_site_occupancy
  Nb  Nb0  1  0.12500000  0.62500000  0.62500000  1
  Nb  Nb1  1  0.62500000  0.12500000  0.62500000  1
  Nb  Nb2  1  0.62500000  0.62500000  0.12500000  1
  Nb  Nb3  1  0.62500000  0.62500000  0.62500000  1
  Nb  Nb4  1  0.81718100  0.81718100  0.18281900  1
  Nb  Nb5  1  0.18281900  0.18281900  0.81718100  1
  Nb  Nb6  1  0.81718100  0.18281900  0.81718100  1
  Nb  Nb7  1  0.18281900  0.81718100  0.18281900  1
  Nb  Nb8  1  0.18281900  0.81718100  0.81718100  1
  Nb  Nb9  1  0.81718100  0.18281900  0.18281900  1
  Nb  Nb10  1  0.43281900  0.43281900  0.06718100  1
  Nb  Nb11  1  0.06718100  0.06718100  0.43281900  1
  Nb  Nb12  1  0.43281900  0.06718100  0.43281900  1
  Nb  Nb13  1  0.06718100  0.43281900  0.06718100  1
  Nb  Nb14  1  0.06718100  0.43281900  0.43281900  1
  Nb  Nb15  1  0.43281900  0.06718100  0.06718100  1
  Rh  Rh0  1  0.76235200  0.41254900  0.41254900  1
  Rh  Rh1  1  0.41254900  0.76235200  0.41254900  1
  Rh  Rh2  1  0.41254900  0.41254900  0.76235200  1
  Rh  Rh3  1  0.41254900  0.41254900  0.41254900  1
  Rh  Rh4  1  0.48764800  0.83745100  0.83745100  1
  Rh  Rh5  1  0.83745100  0.48764800  0.83745100  1
  Rh  Rh6  1  0.83745100  0.83745100  0.48764800  1
  Rh  Rh7  1  0.83745100  0.83745100  0.83745100  1
  C  C0  1  0.62500000  0.12500000  0.12500000  1
  C  C1  1  0.12500000  0.62500000  0.12500000  1
  C  C2  1  0.12500000  0.12500000  0.62500000  1
  C  C3  1  0.12500000  0.12500000  0.12500000  1
loop_
_geom_bond_atom_site_label_1
_geom_bond_atom_site_label_2
_geom_bond_distance
_geom_bond_site_symmetry_2
Nb0 Rh1 2.625378 1_555
Nb0 Rh2 2.625378 1_555
Nb0 Rh6 2.625378 1_455
Nb0 Rh5 2.625378 1_455
Nb0 Rh7 2.625382 1_455
Nb0 Rh3 2.625382 1_555
Nb1 Rh2 2.625378 1_555
Nb1 Rh0 2.625378 1_555
Nb1 Rh4 2.625378 1_545
Nb1 Rh6 2.625378 1_545
Nb1 Rh7 2.625382 1_545
Nb1 Rh3 2.625382 1_555
Nb2 Rh1 2.625378 1_555
Nb2 Rh0 2.625378 1_555
Nb2 Rh4 2.625378 1_554
Nb2 Rh5 2.625378 1_554
Nb2 Rh7 2.625382 1_554
Nb2 Rh3 2.625382 1_555
Nb3 Rh4 2.625384 1_555
Nb3 Rh5 2.625384 1_555
Nb3 Rh6 2.625384 1_555
Nb3 Rh1 2.625384 1_555
Nb3 Rh0 2.625384 1_555
Nb3 Rh2 2.625384 1_555
Nb4 Rh7 2.766658 1_554
Nb4 Rh6 2.766666 1_555
Nb5 Rh4 2.766662 1_545
Nb5 Rh5 2.766662 1_455
Nb6 Rh7 2.766658 1_545
Nb6 Rh5 2.766666 1_555
Nb7 Rh4 2.766662 1_554
Nb7 Rh6 2.766662 1_455
Nb8 Rh7 2.766658 1_455
Nb8 Rh4 2.766666 1_555
Nb9 Rh6 2.766662 1_545
Nb9 Rh5 2.766662 1_554
Nb10 Rh3 2.766658 1_555
Nb10 Rh2 2.766666 1_554
Nb11 Rh1 2.766662 1_545
Nb11 Rh0 2.766662 1_455
Nb12 Rh3 2.766658 1_555
Nb12 Rh1 2.766666 1_545
Nb13 Rh2 2.766662 1_554
Nb13 Rh0 2.766662 1_455
Nb14 Rh3 2.766658 1_555
Nb14 Rh0 2.766666 1_455
Nb15 Rh1 2.766662 1_545
Nb15 Rh2 2.766662 1_554
C0 Nb9 2.229814 1_555
C0 Nb12 2.229814 1_555
C0 Nb10 2.229814 1_555
C0 Nb4 2.229814 1_545
C0 Nb6 2.229814 1_554
C0 Nb15 2.229814 1_555
C1 Nb7 2.229814 1_555
C1 Nb10 2.229814 1_555
C1 Nb14 2.229814 1_555
C1 Nb8 2.229814 1_554
C1 Nb4 2.229814 1_455
C1 Nb13 2.229814 1_555
C2 Nb5 2.229814 1_555
C2 Nb14 2.229814 1_555
C2 Nb12 2.229814 1_555
C2 Nb6 2.229814 1_455
C2 Nb8 2.229814 1_545
C2 Nb11 2.229814 1_555
C3 Nb11 2.229814 1_555
C3 Nb15 2.229814 1_555
C3 Nb13 2.229814 1_555
C3 Nb7 2.229814 1_545
C3 Nb9 2.229814 1_455
C3 Nb5 2.229814 1_554
