# generated using pymatgen
data_Ca3(WN2)2
_symmetry_space_group_name_H-M   'P 1'
_cell_length_a   6.01115800
_cell_length_b   10.06442400
_cell_length_c   9.32226100
_cell_angle_alpha   90.00000000
_cell_angle_beta   90.00000000
_cell_angle_gamma   90.00000000
_symmetry_Int_Tables_number   1
_chemical_formula_structural   Ca3(WN2)2
_chemical_formula_sum   'Ca12 W8 N16'
_cell_volume   563.98600318
_cell_formula_units_Z   4
loop_
 _symmetry_equiv_pos_site_id
 _symmetry_equiv_pos_as_xyz
  1  'x, y, z'
loop_
 _atom_site_type_symbol
 _atom_site_label
 _atom_site_symmetry_multiplicity
 _atom_site_fract_x
 _atom_site_fract_y
 _atom_site_fract_z
 _atom_site_occupancy
  Ca  Ca0  1  0.61265300  0.15652800  0.42441500  1
  Ca  Ca1  1  0.88734700  0.84347200  0.42441500  1
  Ca  Ca2  1  0.61265300  0.34347200  0.07558500  1
  Ca  Ca3  1  0.88734700  0.65652800  0.07558500  1
  Ca  Ca4  1  0.38734700  0.84347200  0.57558500  1
  Ca  Ca5  1  0.11265300  0.15652800  0.57558500  1
  Ca  Ca6  1  0.38734700  0.65652800  0.92441500  1
  Ca  Ca7  1  0.11265300  0.34347200  0.92441500  1
  Ca  Ca8  1  0.75000000  0.50000000  0.39235800  1
  Ca  Ca9  1  0.75000000  0.00000000  0.10764200  1
  Ca  Ca10  1  0.25000000  0.50000000  0.60764200  1
  Ca  Ca11  1  0.25000000  0.00000000  0.89235800  1
  W  W0  1  0.75000000  0.50000000  0.72706800  1
  W  W1  1  0.75000000  0.00000000  0.77293200  1
  W  W2  1  0.25000000  0.50000000  0.27293200  1
  W  W3  1  0.25000000  0.00000000  0.22706800  1
  W  W4  1  0.57312100  0.25000000  0.75000000  1
  W  W5  1  0.92687900  0.75000000  0.75000000  1
  W  W6  1  0.42687900  0.75000000  0.25000000  1
  W  W7  1  0.07312100  0.25000000  0.25000000  1
  N  N0  1  0.75681600  0.33713800  0.59872700  1
  N  N1  1  0.74318400  0.66286200  0.59872700  1
  N  N2  1  0.75681600  0.16286200  0.90127300  1
  N  N3  1  0.74318400  0.83713800  0.90127300  1
  N  N4  1  0.24318400  0.66286200  0.40127300  1
  N  N5  1  0.25681600  0.33713800  0.40127300  1
  N  N6  1  0.24318400  0.83713800  0.09872700  1
  N  N7  1  0.25681600  0.16286200  0.09872700  1
  N  N8  1  0.49325500  0.43177500  0.84155900  1
  N  N9  1  0.00674500  0.56822500  0.84155900  1
  N  N10  1  0.49325500  0.06822500  0.65844100  1
  N  N11  1  0.00674500  0.93177500  0.65844100  1
  N  N12  1  0.50674500  0.56822500  0.15844100  1
  N  N13  1  0.99325500  0.43177500  0.15844100  1
  N  N14  1  0.50674500  0.93177500  0.34155900  1
  N  N15  1  0.99325500  0.06822500  0.34155900  1
loop_
_geom_bond_atom_site_label_1
_geom_bond_atom_site_label_2
_geom_bond_distance
_geom_bond_site_symmetry_2
Ca0 N10 2.462630 1_555
Ca0 N14 2.473579 1_545
Ca0 N15 2.573078 1_555
Ca0 N0 2.587605 1_555
Ca0 N5 2.815314 1_555
Ca1 N11 2.462630 1_655
Ca1 N15 2.473579 1_565
Ca1 N14 2.573078 1_555
Ca1 N1 2.587605 1_555
Ca1 N4 2.815314 1_655
Ca2 N8 2.462630 1_554
Ca2 N12 2.473579 1_555
Ca2 N13 2.573078 1_555
Ca2 N2 2.587605 1_554
Ca2 N7 2.815314 1_555
Ca3 N9 2.462630 1_654
Ca3 N13 2.473579 1_555
Ca3 N12 2.573078 1_555
Ca3 N3 2.587605 1_554
Ca3 N6 2.815314 1_655
Ca4 N14 2.462630 1_555
Ca4 N10 2.473579 1_565
Ca4 N11 2.573078 1_555
Ca4 N4 2.587605 1_555
Ca4 N1 2.815314 1_555
Ca5 N15 2.462630 1_455
Ca5 N11 2.473579 1_545
Ca5 N10 2.573078 1_555
Ca5 N5 2.587605 1_555
Ca5 N0 2.815314 1_455
Ca6 N12 2.462630 1_556
Ca6 N8 2.473579 1_555
Ca6 N9 2.573078 1_555
Ca6 N6 2.587605 1_556
Ca6 N3 2.815314 1_555
Ca7 N13 2.462630 1_456
Ca7 N9 2.473579 1_555
Ca7 N8 2.573078 1_555
Ca7 N7 2.587605 1_556
Ca7 N2 2.815314 1_455
Ca8 N1 2.527741 1_555
Ca8 N0 2.527741 1_555
Ca8 N12 2.713818 1_555
Ca8 N13 2.713818 1_555
Ca9 N2 2.527741 1_554
Ca9 N3 2.527741 1_544
Ca9 N15 2.713818 1_555
Ca9 N14 2.713818 1_545
Ca10 N4 2.527741 1_555
Ca10 N5 2.527741 1_555
Ca10 N9 2.713818 1_555
Ca10 N8 2.713818 1_555
Ca11 N7 2.527741 1_556
Ca11 N6 2.527741 1_546
Ca11 N10 2.713818 1_555
Ca11 N11 2.713818 1_545
N0 W4 1.994267 1_555
N0 W0 2.029731 1_555
N1 W5 1.994267 1_555
N1 W0 2.029731 1_555
N2 W4 1.994267 1_555
N2 W1 2.029731 1_555
N3 W5 1.994267 1_555
N3 W1 2.029731 1_565
N4 W6 1.994267 1_555
N4 W2 2.029731 1_555
N5 W7 1.994267 1_555
N5 W2 2.029731 1_555
N6 W6 1.994267 1_555
N6 W3 2.029731 1_565
N7 W7 1.994267 1_555
N7 W3 2.029731 1_555
N8 W0 1.998130 1_555
N8 W4 2.075075 1_555
N9 W0 1.998130 1_455
N9 W5 2.075075 1_455
N10 W1 1.998130 1_555
N10 W4 2.075075 1_555
N11 W1 1.998130 1_465
N11 W5 2.075075 1_455
N12 W2 1.998130 1_555
N12 W6 2.075075 1_555
N13 W2 1.998130 1_655
N13 W7 2.075075 1_655
N14 W3 1.998130 1_565
N14 W6 2.075075 1_555
N15 W3 1.998130 1_655
N15 W7 2.075075 1_655
