# generated using pymatgen
data_KMg7
_symmetry_space_group_name_H-M   'P 1'
_cell_length_a   6.76323584
_cell_length_b   6.76323584
_cell_length_c   5.39452200
_cell_angle_alpha   90.00000000
_cell_angle_beta   90.00000000
_cell_angle_gamma   119.99999841
_symmetry_Int_Tables_number   1
_chemical_formula_structural   KMg7
_chemical_formula_sum   'K1 Mg7'
_cell_volume   213.69416844
_cell_formula_units_Z   1
loop_
 _symmetry_equiv_pos_site_id
 _symmetry_equiv_pos_as_xyz
  1  'x, y, z'
loop_
 _atom_site_type_symbol
 _atom_site_label
 _atom_site_symmetry_multiplicity
 _atom_site_fract_x
 _atom_site_fract_y
 _atom_site_fract_z
 _atom_site_occupancy
  K  K0  1  0.00000000  0.00000000  0.00000000  1
  Mg  Mg0  1  0.00419200  0.50209600  0.00000000  1
  Mg  Mg1  1  0.49790400  0.50209600  0.00000000  1
  Mg  Mg2  1  0.49790400  0.99580800  0.00000000  1
  Mg  Mg3  1  0.17408700  0.34817400  0.50000000  1
  Mg  Mg4  1  0.17408700  0.82591300  0.50000000  1
  Mg  Mg5  1  0.65182600  0.82591300  0.50000000  1
  Mg  Mg6  1  0.66666700  0.33333300  0.50000000  1
loop_
_geom_bond_atom_site_label_1
_geom_bond_atom_site_label_2
_geom_bond_distance
_geom_bond_site_symmetry_2
K0 Mg4 3.381415 1_545
K0 Mg4 3.381415 1_544
K0 Mg3 3.381415 1_554
K0 Mg5 3.381415 1_445
K0 Mg5 3.381415 1_444
K0 Mg3 3.381415 1_555
K0 Mg2 3.381707 1_545
K0 Mg0 3.381707 1_545
K0 Mg0 3.381707 1_555
K0 Mg2 3.381707 1_445
K0 Mg1 3.381707 1_555
K0 Mg1 3.381707 1_445
Mg0 Mg3 3.297784 1_554
Mg0 Mg3 3.297784 1_555
Mg0 Mg4 3.297784 1_555
Mg0 Mg4 3.297784 1_554
Mg0 Mg1 3.339091 1_555
Mg0 Mg2 3.339091 1_555
Mg0 Mg6 3.344169 1_455
Mg0 Mg6 3.344169 1_454
Mg0 Mg1 3.424145 1_455
Mg0 Mg2 3.424145 1_445
Mg1 Mg3 3.297784 1_554
Mg1 Mg3 3.297784 1_555
Mg1 Mg5 3.297784 1_555
Mg1 Mg5 3.297784 1_554
Mg1 Mg2 3.339091 1_555
Mg1 Mg6 3.344172 1_555
Mg1 Mg6 3.344172 1_554
Mg1 Mg2 3.424145 1_545
Mg2 Mg5 3.297784 1_554
Mg2 Mg5 3.297784 1_555
Mg2 Mg4 3.297784 1_555
Mg2 Mg4 3.297784 1_554
Mg2 Mg6 3.344169 1_565
Mg2 Mg6 3.344169 1_564
Mg3 Mg4 3.231062 1_555
Mg3 Mg5 3.231062 1_555
Mg3 Mg6 3.382732 1_455
Mg3 Mg6 3.382738 1_555
Mg3 Mg4 3.532174 1_545
Mg3 Mg5 3.532174 1_445
Mg4 Mg5 3.231062 1_555
Mg4 Mg6 3.382735 1_455
Mg4 Mg6 3.382735 1_565
Mg4 Mg5 3.532174 1_455
Mg5 Mg6 3.382732 1_565
Mg5 Mg6 3.382738 1_555
