# generated using pymatgen
data_URuS3
_symmetry_space_group_name_H-M   'P 1'
_cell_length_a   5.96715784
_cell_length_b   6.93488214
_cell_length_c   8.82829566
_cell_angle_alpha   90.00000000
_cell_angle_beta   90.00000000
_cell_angle_gamma   90.00000000
_symmetry_Int_Tables_number   1
_chemical_formula_structural   URuS3
_chemical_formula_sum   'U4 Ru4 S12'
_cell_volume   365.32843760
_cell_formula_units_Z   4
loop_
 _symmetry_equiv_pos_site_id
 _symmetry_equiv_pos_as_xyz
  1  'x, y, z'
loop_
 _atom_site_type_symbol
 _atom_site_label
 _atom_site_symmetry_multiplicity
 _atom_site_fract_x
 _atom_site_fract_y
 _atom_site_fract_z
 _atom_site_occupancy
  U  U0  1  0.43459121  0.88357773  0.25000000  1
  U  U1  1  0.06540879  0.38357773  0.25000000  1
  U  U2  1  0.56540879  0.11642227  0.75000000  1
  U  U3  1  0.93459121  0.61642227  0.75000000  1
  Ru  Ru0  1  0.50000000  0.50000000  0.00000000  1
  Ru  Ru1  1  -0.00000000  0.00000000  0.50000000  1
  Ru  Ru2  1  0.50000000  0.50000000  0.50000000  1
  Ru  Ru3  1  -0.00000000  0.00000000  0.00000000  1
  S  S0  1  0.64792055  0.54600677  0.25000000  1
  S  S1  1  0.85207945  0.04600677  0.25000000  1
  S  S2  1  0.35207945  0.45399323  0.75000000  1
  S  S3  1  0.14792055  0.95399323  0.75000000  1
  S  S4  1  0.65543924  0.81544303  0.55813299  1
  S  S5  1  0.84456076  0.31544303  0.94186701  1
  S  S6  1  0.34456076  0.18455697  0.05813299  1
  S  S7  1  0.15543924  0.68455697  0.44186701  1
  S  S8  1  0.34456076  0.18455697  0.44186701  1
  S  S9  1  0.15543924  0.68455697  0.05813299  1
  S  S10  1  0.65543924  0.81544303  0.94186701  1
  S  S11  1  0.84456076  0.31544303  0.55813299  1
loop_
_geom_bond_atom_site_label_1
_geom_bond_atom_site_label_2
_geom_bond_distance
_geom_bond_site_symmetry_2
Ru0 S2 2.398347 1_554
Ru0 S0 2.398347 1_555
Ru0 S6 2.430869 1_555
Ru0 S10 2.430869 1_554
Ru0 S5 2.475645 1_554
Ru0 S9 2.475645 1_555
Ru1 S3 2.398347 1_545
Ru1 S1 2.398347 1_455
Ru1 S7 2.430869 1_545
Ru1 S11 2.430869 1_455
Ru1 S4 2.475645 1_445
Ru1 S8 2.475645 1_555
Ru2 S2 2.398347 1_555
Ru2 S0 2.398347 1_555
Ru2 S8 2.430869 1_555
Ru2 S4 2.430869 1_555
Ru2 S7 2.475645 1_555
Ru2 S11 2.475645 1_555
Ru3 S3 2.398347 1_544
Ru3 S1 2.398347 1_455
Ru3 S9 2.430869 1_545
Ru3 S5 2.430869 1_454
Ru3 S10 2.475645 1_444
Ru3 S6 2.475645 1_555
S0 U0 2.664733 1_555
S0 U1 2.734045 1_655
S1 U1 2.664733 1_655
S1 U0 2.734045 1_545
S2 U2 2.664733 1_555
S2 U3 2.734045 1_455
S3 U3 2.664733 1_455
S3 U2 2.734045 1_565
S4 U2 2.741241 1_565
S4 U3 2.747503 1_555
S4 U0 3.059399 1_555
S5 U3 2.741241 1_555
S5 U2 2.747503 1_555
S5 U1 3.059399 1_656
S6 U0 2.741241 1_545
S6 U1 2.747503 1_555
S6 U2 3.059399 1_554
S7 U1 2.741241 1_555
S7 U0 2.747503 1_555
S7 U3 3.059399 1_455
S8 U0 2.741241 1_545
S8 U1 2.747503 1_555
S8 U2 3.059399 1_555
S9 U1 2.741241 1_555
S9 U0 2.747503 1_555
S9 U3 3.059399 1_454
S10 U2 2.741241 1_565
S10 U3 2.747503 1_555
S10 U0 3.059399 1_556
S11 U3 2.741241 1_555
S11 U2 2.747503 1_555
S11 U1 3.059399 1_655
