# generated using pymatgen
data_TbCu(MoO4)2
_symmetry_space_group_name_H-M   'P 1'
_cell_length_a   9.90519100
_cell_length_b   10.30958000
_cell_length_c   14.75352000
_cell_angle_alpha   90.00000000
_cell_angle_beta   90.00000000
_cell_angle_gamma   90.00000000
_symmetry_Int_Tables_number   1
_chemical_formula_structural   TbCu(MoO4)2
_chemical_formula_sum   'Tb8 Cu8 Mo16 O64'
_cell_volume   1506.60525231
_cell_formula_units_Z   8
loop_
 _symmetry_equiv_pos_site_id
 _symmetry_equiv_pos_as_xyz
  1  'x, y, z'
loop_
 _atom_site_type_symbol
 _atom_site_label
 _atom_site_symmetry_multiplicity
 _atom_site_fract_x
 _atom_site_fract_y
 _atom_site_fract_z
 _atom_site_occupancy
  Tb  Tb0  1  0.77848000  0.03448700  0.89609500  1
  Tb  Tb1  1  0.77848000  0.53448700  0.60390500  1
  Tb  Tb2  1  0.27848000  0.46551300  0.89609500  1
  Tb  Tb3  1  0.72152000  0.03448700  0.39609500  1
  Tb  Tb4  1  0.22152000  0.96551300  0.10390500  1
  Tb  Tb5  1  0.22152000  0.46551300  0.39609500  1
  Tb  Tb6  1  0.72152000  0.53448700  0.10390500  1
  Tb  Tb7  1  0.27848000  0.96551300  0.60390500  1
  Cu  Cu0  1  0.18883800  0.31688100  0.19718300  1
  Cu  Cu1  1  0.68883800  0.68311900  0.30281700  1
  Cu  Cu2  1  0.31116200  0.81688100  0.80281700  1
  Cu  Cu3  1  0.81116200  0.18311900  0.69718300  1
  Cu  Cu4  1  0.81116200  0.68311900  0.80281700  1
  Cu  Cu5  1  0.31116200  0.31688100  0.69718300  1
  Cu  Cu6  1  0.68883800  0.18311900  0.19718300  1
  Cu  Cu7  1  0.18883800  0.81688100  0.30281700  1
  Mo  Mo0  1  0.66801700  0.89715400  0.65306700  1
  Mo  Mo1  1  0.00092500  0.78079600  0.44302800  1
  Mo  Mo2  1  0.50092500  0.21920400  0.05697200  1
  Mo  Mo3  1  0.49907500  0.28079600  0.55697200  1
  Mo  Mo4  1  0.99907500  0.71920400  0.94302800  1
  Mo  Mo5  1  0.99907500  0.21920400  0.55697200  1
  Mo  Mo6  1  0.49907500  0.78079600  0.94302800  1
  Mo  Mo7  1  0.50092500  0.71920400  0.44302800  1
  Mo  Mo8  1  0.00092500  0.28079600  0.05697200  1
  Mo  Mo9  1  0.16801700  0.10284600  0.84693300  1
  Mo  Mo10  1  0.83198300  0.39715400  0.34693300  1
  Mo  Mo11  1  0.33198300  0.60284600  0.15306700  1
  Mo  Mo12  1  0.66801700  0.39715400  0.84693300  1
  Mo  Mo13  1  0.83198300  0.89715400  0.15306700  1
  Mo  Mo14  1  0.16801700  0.60284600  0.65306700  1
  Mo  Mo15  1  0.33198300  0.10284600  0.34693300  1
  O  O0  1  0.10684300  0.32911000  0.49791200  1
  O  O1  1  0.60684300  0.67089000  0.00208800  1
  O  O2  1  0.39315700  0.82911000  0.50208800  1
  O  O3  1  0.89315700  0.17089000  0.99791200  1
  O  O4  1  0.89315700  0.67089000  0.50208800  1
  O  O5  1  0.39315700  0.32911000  0.99791200  1
  O  O6  1  0.60684300  0.17089000  0.49791200  1
  O  O7  1  0.10684300  0.82911000  0.00208800  1
  O  O8  1  0.24372800  0.98878100  0.27174900  1
  O  O9  1  0.74372700  0.01121900  0.22825100  1
  O  O10  1  0.25627300  0.48878100  0.72825100  1
  O  O11  1  0.75627300  0.51121900  0.77174900  1
  O  O12  1  0.75627300  0.01121900  0.72825100  1
  O  O13  1  0.25627300  0.98878100  0.77174900  1
  O  O14  1  0.74372700  0.51121900  0.27174900  1
  O  O15  1  0.24372800  0.48878100  0.22825100  1
  O  O16  1  0.22446100  0.76595300  0.68000900  1
  O  O17  1  0.72446100  0.23404700  0.81999100  1
  O  O18  1  0.27553900  0.26595300  0.31999100  1
  O  O19  1  0.77553900  0.73404700  0.18000900  1
  O  O20  1  0.77553900  0.23404700  0.31999100  1
  O  O21  1  0.27553900  0.76595300  0.18000900  1
  O  O22  1  0.72446100  0.73404700  0.68000900  1
  O  O23  1  0.89077900  0.32041900  0.63252500  1
  O  O24  1  0.22446100  0.26595300  0.81999100  1
  O  O25  1  0.29318500  0.57309000  0.03732400  1
  O  O26  1  0.70681500  0.92691000  0.53732400  1
  O  O27  1  0.20681500  0.07309000  0.96267600  1
  O  O28  1  0.20681500  0.57309000  0.53732400  1
  O  O29  1  0.70681500  0.42691000  0.96267600  1
  O  O30  1  0.29318500  0.07309000  0.46267600  1
  O  O31  1  0.79318500  0.92691000  0.03732400  1
  O  O32  1  0.90105000  0.62958500  0.02258800  1
  O  O33  1  0.40105000  0.37041500  0.47741200  1
  O  O34  1  0.59895000  0.12958500  0.97741200  1
  O  O35  1  0.09895000  0.87041500  0.52258800  1
  O  O36  1  0.09895000  0.37041500  0.97741200  1
  O  O37  1  0.59895000  0.62958500  0.52258800  1
  O  O38  1  0.40105000  0.87041500  0.02258800  1
  O  O39  1  0.90105000  0.12958500  0.47741200  1
  O  O40  1  0.89690200  0.38786200  0.12324800  1
  O  O41  1  0.39690200  0.61213800  0.37675200  1
  O  O42  1  0.60309800  0.88786200  0.87675200  1
  O  O43  1  0.10309800  0.11213800  0.62324800  1
  O  O44  1  0.10309800  0.61213800  0.87675200  1
  O  O45  1  0.60309800  0.38786200  0.62324800  1
  O  O46  1  0.39690200  0.11213800  0.12324800  1
  O  O47  1  0.89690200  0.88786200  0.37675200  1
  O  O48  1  0.99026600  0.08809900  0.83175900  1
  O  O49  1  0.49026600  0.91190100  0.66824100  1
  O  O50  1  0.50973400  0.58809900  0.16824100  1
  O  O51  1  0.00973400  0.41190100  0.33175900  1
  O  O52  1  0.00973400  0.91190100  0.16824100  1
  O  O53  1  0.50973400  0.08809900  0.33175900  1
  O  O54  1  0.49026600  0.41190100  0.83175900  1
  O  O55  1  0.99026600  0.58809900  0.66824100  1
  O  O56  1  0.89077900  0.82041900  0.86747500  1
  O  O57  1  0.39077900  0.17958100  0.63252500  1
  O  O58  1  0.60922100  0.32041900  0.13252500  1
  O  O59  1  0.10922100  0.67958100  0.36747500  1
  O  O60  1  0.10922100  0.17958100  0.13252500  1
  O  O61  1  0.60922100  0.82041900  0.36747500  1
  O  O62  1  0.39077900  0.67958100  0.86747500  1
  O  O63  1  0.79318500  0.42691000  0.46267600  1
loop_
_geom_bond_atom_site_label_1
_geom_bond_atom_site_label_2
_geom_bond_distance
_geom_bond_site_symmetry_2
Cu0 O60 1.880311 1_555
Cu0 O15 1.909569 1_555
Cu0 O18 2.072678 1_555
Cu1 O61 1.880311 1_555
Cu1 O14 1.909566 1_555
Cu1 O19 2.072678 1_555
Cu2 O62 1.880311 1_555
Cu2 O13 1.909566 1_555
Cu2 O16 2.072678 1_555
Cu3 O23 1.880311 1_555
Cu3 O12 1.909566 1_555
Cu3 O17 2.072678 1_555
Cu4 O56 1.880311 1_555
Cu4 O11 1.909566 1_555
Cu4 O22 2.072678 1_555
Cu5 O57 1.880311 1_555
Cu5 O10 1.909566 1_555
Cu5 O24 2.072678 1_555
Cu6 O58 1.880311 1_555
Cu6 O9 1.909566 1_555
Cu6 O20 2.072678 1_555
Cu7 O59 1.880311 1_555
Cu7 O8 1.909569 1_555
Cu7 O21 2.072678 1_555
Mo0 O26 1.777006 1_555
Mo0 O49 1.781333 1_555
Mo0 O22 1.816105 1_555
Mo0 O12 1.837794 1_565
Mo1 O35 1.781627 1_555
Mo1 O4 1.783983 1_455
Mo1 O47 1.798929 1_455
Mo1 O59 1.866018 1_555
Mo2 O34 1.781627 1_554
Mo2 O5 1.783983 1_554
Mo2 O46 1.798929 1_555
Mo2 O58 1.866018 1_555
Mo3 O33 1.781627 1_555
Mo3 O6 1.783983 1_555
Mo3 O45 1.798929 1_555
Mo3 O57 1.866018 1_555
Mo4 O32 1.781627 1_556
Mo4 O7 1.783983 1_656
Mo4 O44 1.798929 1_655
Mo4 O56 1.866018 1_555
Mo5 O39 1.781627 1_555
Mo5 O0 1.783983 1_655
Mo5 O43 1.798929 1_655
Mo5 O23 1.866018 1_555
Mo6 O38 1.781627 1_556
Mo6 O1 1.783983 1_556
Mo6 O42 1.798929 1_555
Mo6 O62 1.866018 1_555
Mo7 O37 1.781627 1_555
Mo7 O2 1.783983 1_555
Mo7 O41 1.798929 1_555
Mo7 O61 1.866018 1_555
Mo8 O36 1.781627 1_554
Mo8 O3 1.783983 1_454
Mo8 O40 1.798929 1_455
Mo8 O60 1.866018 1_555
Mo9 O27 1.777006 1_555
Mo9 O48 1.781333 1_455
Mo9 O24 1.816105 1_555
Mo9 O13 1.837794 1_545
Mo10 O63 1.777006 1_555
Mo10 O51 1.781333 1_655
Mo10 O20 1.816105 1_555
Mo10 O14 1.837794 1_555
Mo11 O25 1.777006 1_555
Mo11 O50 1.781333 1_555
Mo11 O21 1.816105 1_555
Mo11 O15 1.837790 1_555
Mo12 O29 1.777006 1_555
Mo12 O54 1.781333 1_555
Mo12 O17 1.816105 1_555
Mo12 O11 1.837794 1_555
Mo13 O31 1.777006 1_555
Mo13 O52 1.781333 1_655
Mo13 O19 1.816105 1_555
Mo13 O9 1.837794 1_565
Mo14 O28 1.777006 1_555
Mo14 O55 1.781333 1_455
Mo14 O16 1.816105 1_555
Mo14 O10 1.837794 1_555
Mo15 O30 1.777006 1_555
Mo15 O53 1.781333 1_555
Mo15 O18 1.816105 1_555
Mo15 O8 1.837790 1_545
O0 Tb5 2.350384 1_555
O1 Tb6 2.350384 1_555
O2 Tb7 2.350384 1_555
O3 Tb0 2.350384 1_555
O4 Tb1 2.350384 1_555
O5 Tb2 2.350384 1_555
O6 Tb3 2.350384 1_555
O7 Tb4 2.350384 1_555
O8 Tb4 2.497588 1_555
O9 Tb3 2.497587 1_555
O10 Tb2 2.497587 1_555
O11 Tb1 2.497587 1_555
O12 Tb0 2.497587 1_555
O13 Tb7 2.497587 1_555
O14 Tb6 2.497587 1_555
O15 Tb5 2.497588 1_555
O16 Tb7 2.404120 1_555
O17 Tb0 2.404120 1_555
O18 Tb5 2.404120 1_555
O19 Tb6 2.404120 1_555
O20 Tb3 2.404120 1_555
O21 Tb4 2.404120 1_555
O22 Tb1 2.404120 1_555
O23 Tb1 2.507236 1_555
O24 Tb2 2.404120 1_555
O25 Tb2 2.364900 1_554
O26 Tb3 2.364900 1_565
O27 Tb4 2.364900 1_546
O28 Tb5 2.364900 1_555
O29 Tb6 2.364900 1_556
O30 Tb7 2.364900 1_545
O31 Tb0 2.364900 1_564
O32 Tb6 2.358561 1_555
O33 Tb5 2.358561 1_555
O34 Tb0 2.358561 1_555
O35 Tb7 2.358561 1_555
O36 Tb2 2.358561 1_555
O37 Tb1 2.358561 1_555
O38 Tb4 2.358561 1_555
O39 Tb3 2.358561 1_555
O40 Tb6 2.320418 1_555
O41 Tb5 2.320418 1_555
O42 Tb0 2.320418 1_565
O43 Tb7 2.320418 1_545
O44 Tb2 2.320418 1_555
O45 Tb1 2.320418 1_555
O46 Tb4 2.320418 1_545
O47 Tb3 2.320418 1_565
O48 Tb0 2.367937 1_555
O49 Tb7 2.367937 1_555
O50 Tb6 2.367937 1_555
O51 Tb5 2.367937 1_555
O52 Tb4 2.367937 1_555
O53 Tb3 2.367937 1_555
O54 Tb2 2.367937 1_555
O55 Tb1 2.367937 1_555
O56 Tb0 2.507236 1_565
O57 Tb7 2.507236 1_545
O58 Tb6 2.507236 1_555
O59 Tb5 2.507236 1_555
O60 Tb4 2.507236 1_545
O61 Tb3 2.507236 1_565
O62 Tb2 2.507236 1_555
O63 Tb1 2.364900 1_555
