# generated using pymatgen
data_ZrVCuS4
_symmetry_space_group_name_H-M   'P 1'
_cell_length_a   7.19493599
_cell_length_b   7.19493599
_cell_length_c   7.19493599
_cell_angle_alpha   119.73201539
_cell_angle_beta   119.49833181
_cell_angle_gamma   90.66795909
_symmetry_Int_Tables_number   1
_chemical_formula_structural   ZrVCuS4
_chemical_formula_sum   'Zr2 V2 Cu2 S8'
_cell_volume   264.88078057
_cell_formula_units_Z   2
loop_
 _symmetry_equiv_pos_site_id
 _symmetry_equiv_pos_as_xyz
  1  'x, y, z'
loop_
 _atom_site_type_symbol
 _atom_site_label
 _atom_site_symmetry_multiplicity
 _atom_site_fract_x
 _atom_site_fract_y
 _atom_site_fract_z
 _atom_site_occupancy
  Zr  Zr0  1  0.00000000  0.00000000  0.00000000  1
  Zr  Zr1  1  0.50000000  0.00000000  0.50000000  1
  V  V0  1  0.00000000  0.00000000  0.50000000  1
  V  V1  1  0.00000000  0.50000000  0.00000000  1
  Cu  Cu0  1  0.37990000  0.62990000  0.75000000  1
  Cu  Cu1  1  0.62010000  0.37010000  0.25000000  1
  S  S0  1  0.24169700  0.74047000  0.99877300  1
  S  S1  1  0.24169700  0.24292400  0.50122700  1
  S  S2  1  0.22670300  0.74665500  0.48004800  1
  S  S3  1  0.76660700  0.74665500  0.01995200  1
  S  S4  1  0.75830300  0.25953000  0.00122700  1
  S  S5  1  0.75830300  0.75707600  0.49877300  1
  S  S6  1  0.77329700  0.25334500  0.51995200  1
  S  S7  1  0.23339300  0.25334500  0.98004800  1
loop_
_geom_bond_atom_site_label_1
_geom_bond_atom_site_label_2
_geom_bond_distance
_geom_bond_site_symmetry_2
Cu0 S1 2.276886 1_555
Cu0 S0 2.276886 1_555
Cu0 S2 2.285767 1_555
Cu0 S3 2.285767 1_556
Cu1 S4 2.276886 1_555
Cu1 S5 2.276886 1_555
Cu1 S6 2.285767 1_555
Cu1 S7 2.285767 1_554
S0 V1 2.444948 1_556
S0 Zr1 2.566218 1_566
S0 Zr0 2.566218 1_566
S1 V0 2.444948 1_555
S1 Zr0 2.566218 1_555
S1 Zr1 2.566218 1_555
S2 V1 2.458477 1_555
S2 V0 2.458477 1_565
S2 Zr1 2.566838 1_565
S3 V1 2.458477 1_655
S3 V0 2.458477 1_665
S3 Zr0 2.566838 1_665
S4 V1 2.444948 1_655
S4 Zr0 2.566218 1_655
S4 Zr1 2.566218 1_554
S5 V0 2.444948 1_665
S5 Zr1 2.566218 1_565
S5 Zr0 2.566218 1_666
S6 V0 2.458477 1_655
S6 V1 2.458477 1_656
S6 Zr1 2.566838 1_555
S7 V1 2.458477 1_556
S7 V0 2.458477 1_555
S7 Zr0 2.566838 1_556
