# generated using pymatgen
data_Pr3(Co2Sn)4
_symmetry_space_group_name_H-M   'P 1'
_cell_length_a   7.65575700
_cell_length_b   9.03845246
_cell_length_c   9.03845246
_cell_angle_alpha   119.99998875
_cell_angle_beta   90.00000000
_cell_angle_gamma   90.00000000
_symmetry_Int_Tables_number   1
_chemical_formula_structural   Pr3(Co2Sn)4
_chemical_formula_sum   'Pr6 Co16 Sn8'
_cell_volume   541.63532074
_cell_formula_units_Z   2
loop_
 _symmetry_equiv_pos_site_id
 _symmetry_equiv_pos_as_xyz
  1  'x, y, z'
loop_
 _atom_site_type_symbol
 _atom_site_label
 _atom_site_symmetry_multiplicity
 _atom_site_fract_x
 _atom_site_fract_y
 _atom_site_fract_z
 _atom_site_occupancy
  Pr  Pr0  1  0.78284800  0.47487600  0.94975100  1
  Pr  Pr1  1  0.78284800  0.47487600  0.52512400  1
  Pr  Pr2  1  0.28284800  0.52512400  0.05024900  1
  Pr  Pr3  1  0.78284800  0.05024900  0.52512400  1
  Pr  Pr4  1  0.28284800  0.52512400  0.47487600  1
  Pr  Pr5  1  0.28284800  0.94975100  0.47487600  1
  Co  Co0  1  0.61354000  0.66666700  0.33333300  1
  Co  Co1  1  0.11354000  0.33333300  0.66666700  1
  Co  Co2  1  0.75678700  0.09402300  0.18804500  1
  Co  Co3  1  0.75678700  0.09402300  0.90597700  1
  Co  Co4  1  0.25678700  0.90597700  0.81195500  1
  Co  Co5  1  0.75678700  0.81195500  0.90597700  1
  Co  Co6  1  0.25678700  0.90597700  0.09402300  1
  Co  Co7  1  0.25678700  0.18804500  0.09402300  1
  Co  Co8  1  0.94794300  0.84561900  0.69123900  1
  Co  Co9  1  0.94794300  0.84561900  0.15438100  1
  Co  Co10  1  0.44794300  0.15438100  0.30876100  1
  Co  Co11  1  0.94794300  0.30876100  0.15438100  1
  Co  Co12  1  0.44794300  0.15438100  0.84561900  1
  Co  Co13  1  0.44794300  0.69123900  0.84561900  1
  Co  Co14  1  0.00354100  0.00000000  0.00000000  1
  Co  Co15  1  0.50354100  0.00000000  0.00000000  1
  Sn  Sn0  1  0.96300900  0.66666700  0.33333300  1
  Sn  Sn1  1  0.46300900  0.33333300  0.66666700  1
  Sn  Sn2  1  0.57409200  0.83031500  0.66063000  1
  Sn  Sn3  1  0.57409200  0.83031500  0.16968500  1
  Sn  Sn4  1  0.07409200  0.16968500  0.33937000  1
  Sn  Sn5  1  0.57409200  0.33937000  0.16968500  1
  Sn  Sn6  1  0.07409200  0.16968500  0.83031500  1
  Sn  Sn7  1  0.07409200  0.66063000  0.83031500  1
loop_
_geom_bond_atom_site_label_1
_geom_bond_atom_site_label_2
_geom_bond_distance
_geom_bond_site_symmetry_2
Pr0 Sn3 3.231172 1_556
Pr0 Sn5 3.231177 1_556
Pr0 Sn7 3.281481 1_655
Pr0 Sn6 3.281488 1_655
Pr0 Sn1 3.302374 1_555
Pr0 Sn0 3.304147 1_556
Pr1 Sn2 3.231170 1_555
Pr1 Sn5 3.231170 1_555
Pr1 Sn4 3.281487 1_655
Pr1 Sn7 3.281487 1_655
Pr1 Sn1 3.302384 1_555
Pr1 Sn0 3.304147 1_555
Pr2 Sn6 3.231172 1_554
Pr2 Sn7 3.231177 1_554
Pr2 Sn5 3.281481 1_555
Pr2 Sn3 3.281488 1_555
Pr2 Sn0 3.302374 1_455
Pr2 Sn1 3.304147 1_554
Pr3 Sn3 3.231172 1_545
Pr3 Sn2 3.231177 1_545
Pr3 Sn4 3.281481 1_655
Pr3 Sn6 3.281488 1_655
Pr3 Sn1 3.302374 1_555
Pr3 Sn0 3.304147 1_545
Pr4 Sn7 3.231170 1_555
Pr4 Sn4 3.231170 1_555
Pr4 Sn5 3.281487 1_555
Pr4 Sn2 3.281487 1_555
Pr4 Sn0 3.302384 1_455
Pr4 Sn1 3.304147 1_555
Pr5 Sn6 3.231172 1_565
Pr5 Sn4 3.231177 1_565
Pr5 Sn2 3.281481 1_555
Pr5 Sn3 3.281488 1_555
Pr5 Sn0 3.302374 1_455
Pr5 Sn1 3.304147 1_565
Co0 Sn3 2.579658 1_555
Co0 Sn5 2.579666 1_555
Co0 Sn2 2.579666 1_555
Co0 Sn0 2.675450 1_555
Co0 Pr1 3.270334 1_555
Co0 Pr3 3.270335 1_565
Co0 Pr0 3.270335 1_554
Co0 Pr5 3.364443 1_555
Co0 Pr2 3.364443 1_555
Co0 Pr4 3.364453 1_555
Co1 Sn6 2.579658 1_555
Co1 Sn4 2.579666 1_555
Co1 Sn7 2.579666 1_555
Co1 Sn1 2.675450 1_555
Co1 Pr4 3.270334 1_555
Co1 Pr5 3.270335 1_545
Co1 Pr2 3.270335 1_556
Co1 Pr0 3.364443 1_455
Co1 Pr3 3.364443 1_455
Co1 Pr1 3.364453 1_455
Co2 Co3 2.549458 1_554
Co2 Co5 2.549459 1_544
Co2 Co9 2.567484 1_545
Co2 Sn5 2.696176 1_555
Co2 Sn3 2.696184 1_545
Co2 Sn4 2.702611 1_655
Co2 Pr3 3.268635 1_555
Co2 Pr1 3.268635 1_555
Co3 Co5 2.549458 1_545
Co3 Co8 2.567478 1_545
Co3 Sn2 2.696181 1_545
Co3 Sn5 2.696181 1_556
Co3 Sn6 2.702607 1_655
Co3 Pr3 3.268635 1_555
Co3 Pr0 3.268635 1_555
Co4 Co8 2.546253 1_455
Co4 Co6 2.549458 1_556
Co4 Co7 2.549459 1_566
Co4 Sn7 2.696176 1_555
Co4 Sn6 2.696184 1_565
Co4 Sn2 2.702611 1_555
Co4 Pr5 3.268635 1_555
Co4 Pr4 3.268635 1_555
Co5 Co8 2.567469 1_555
Co5 Co9 2.567484 1_556
Co5 Sn2 2.696176 1_555
Co5 Sn3 2.696184 1_556
Co5 Sn7 2.702611 1_655
Co5 Pr0 3.268635 1_555
Co5 Pr1 3.268635 1_555
Co6 Co9 2.546253 1_455
Co6 Co7 2.549458 1_565
Co6 Sn7 2.696181 1_554
Co6 Sn4 2.696181 1_565
Co6 Sn3 2.702607 1_555
Co6 Pr2 3.268635 1_555
Co6 Pr5 3.268635 1_555
Co7 Sn4 2.696176 1_555
Co7 Sn6 2.696184 1_554
Co7 Sn5 2.702611 1_555
Co7 Pr2 3.268635 1_555
Co7 Pr4 3.268635 1_555
Co8 Sn7 2.722175 1_655
Co8 Sn6 2.722183 1_665
Co8 Sn0 2.803893 1_555
Co8 Sn2 2.872123 1_555
Co8 Pr1 3.170082 1_555
Co8 Pr3 3.170097 1_565
Co8 Pr5 3.622788 1_655
Co8 Pr4 3.622788 1_655
Co9 Sn7 2.722183 1_654
Co9 Sn4 2.722183 1_665
Co9 Sn0 2.803877 1_555
Co9 Sn3 2.872123 1_555
Co9 Pr0 3.170083 1_554
Co9 Pr3 3.170083 1_565
Co9 Pr5 3.622788 1_655
Co9 Pr2 3.622788 1_655
Co10 Co15 2.454031 1_555
Co10 Co2 2.546253 1_555
Co10 Co7 2.567469 1_555
Co10 Co6 2.567478 1_545
Co10 Sn5 2.722175 1_555
Co10 Sn3 2.722183 1_545
Co10 Sn1 2.803893 1_555
Co10 Sn4 2.872123 1_555
Co10 Pr4 3.170082 1_555
Co10 Pr5 3.170097 1_545
Co10 Pr3 3.622788 1_555
Co10 Pr1 3.622788 1_555
Co11 Co14 2.454031 1_655
Co11 Co7 2.546253 1_655
Co11 Co2 2.567469 1_555
Co11 Co3 2.567478 1_554
Co11 Sn4 2.722175 1_655
Co11 Sn6 2.722183 1_654
Co11 Sn0 2.803893 1_555
Co11 Sn5 2.872123 1_555
Co11 Pr1 3.170082 1_555
Co11 Pr0 3.170097 1_554
Co11 Pr2 3.622788 1_655
Co11 Pr4 3.622788 1_655
Co12 Co15 2.454039 1_556
Co12 Co3 2.546253 1_555
Co12 Co7 2.567484 1_556
Co12 Co4 2.567484 1_545
Co12 Sn2 2.722183 1_545
Co12 Sn5 2.722183 1_556
Co12 Sn1 2.803877 1_555
Co12 Sn6 2.872123 1_555
Co12 Pr5 3.170083 1_545
Co12 Pr2 3.170083 1_556
Co12 Pr3 3.622788 1_555
Co12 Pr0 3.622788 1_555
Co13 Co15 2.454031 1_566
Co13 Co5 2.546253 1_555
Co13 Co4 2.567469 1_555
Co13 Co6 2.567478 1_556
Co13 Sn2 2.722175 1_555
Co13 Sn3 2.722183 1_556
Co13 Sn1 2.803893 1_555
Co13 Sn7 2.872123 1_555
Co13 Pr4 3.170082 1_555
Co13 Pr2 3.170097 1_556
Co13 Pr0 3.622788 1_555
Co13 Pr1 3.622788 1_555
Co14 Co2 2.394834 1_455
Co14 Co5 2.394834 1_444
Co14 Co3 2.394838 1_454
Co14 Co7 2.434230 1_555
Co14 Co4 2.434230 1_544
Co14 Co6 2.434235 1_545
Co14 Co8 2.454031 1_444
Co14 Co9 2.454039 1_445
Co14 Sn6 2.710783 1_554
Co14 Sn7 2.710783 1_544
Co14 Sn4 2.710783 1_555
Co15 Co7 2.394834 1_555
Co15 Co4 2.394834 1_544
Co15 Co6 2.394838 1_545
Co15 Co2 2.434230 1_555
Co15 Co5 2.434230 1_544
Co15 Co3 2.434235 1_554
Co15 Sn3 2.710783 1_545
Co15 Sn2 2.710783 1_544
Co15 Sn5 2.710783 1_555
