# generated using pymatgen
data_Ag2HgI4
_symmetry_space_group_name_H-M   'P 1'
_cell_length_a   7.84961008
_cell_length_b   7.84961008
_cell_length_c   7.84961008
_cell_angle_alpha   131.32745369
_cell_angle_beta   131.32745369
_cell_angle_gamma   71.29333755
_symmetry_Int_Tables_number   1
_chemical_formula_structural   Ag2HgI4
_chemical_formula_sum   'Ag2 Hg1 I4'
_cell_volume   266.98199455
_cell_formula_units_Z   1
loop_
 _symmetry_equiv_pos_site_id
 _symmetry_equiv_pos_as_xyz
  1  'x, y, z'
loop_
 _atom_site_type_symbol
 _atom_site_label
 _atom_site_symmetry_multiplicity
 _atom_site_fract_x
 _atom_site_fract_y
 _atom_site_fract_z
 _atom_site_occupancy
  Ag  Ag0  1  0.75000000  0.25000000  0.50000000  1
  Ag  Ag1  1  0.25000000  0.75000000  0.50000000  1
  Hg  Hg0  1  0.50000000  0.50000000  0.00000000  1
  I  I0  1  0.35542473  0.88232562  -0.00000000  1
  I  I1  1  0.11767438  0.11767438  0.47310011  1
  I  I2  1  0.88232562  0.35542473  0.00000000  1
  I  I3  1  0.64457527  0.64457527  0.52689989  1
loop_
_geom_bond_atom_site_label_1
_geom_bond_atom_site_label_2
_geom_bond_distance
_geom_bond_site_symmetry_2
Ag0 I1 2.836429 1_655
Ag0 I2 2.836433 1_556
Ag0 I0 2.836433 1_545
Ag0 I3 2.836437 1_555
Ag1 I1 2.836429 1_565
Ag1 I0 2.836433 1_556
Ag1 I2 2.836433 1_455
Ag1 I3 2.836437 1_555
Hg0 I3 2.847780 1_555
Hg0 I1 2.847786 1_554
Hg0 I2 2.847787 1_555
Hg0 I0 2.847787 1_555
