# generated using pymatgen
data_CaCuBiO5
_symmetry_space_group_name_H-M   'P 1'
_cell_length_a   5.66347000
_cell_length_b   11.18275100
_cell_length_c   15.79529700
_cell_angle_alpha   90.00000000
_cell_angle_beta   90.00000000
_cell_angle_gamma   90.00000000
_symmetry_Int_Tables_number   1
_chemical_formula_structural   CaCuBiO5
_chemical_formula_sum   'Ca8 Cu8 Bi8 O40'
_cell_volume   1000.36630601
_cell_formula_units_Z   8
loop_
 _symmetry_equiv_pos_site_id
 _symmetry_equiv_pos_as_xyz
  1  'x, y, z'
loop_
 _atom_site_type_symbol
 _atom_site_label
 _atom_site_symmetry_multiplicity
 _atom_site_fract_x
 _atom_site_fract_y
 _atom_site_fract_z
 _atom_site_occupancy
  Ca  Ca0  1  0.51035600  0.35858100  0.55402600  1
  Ca  Ca1  1  0.01035600  0.14141900  0.55402600  1
  Ca  Ca2  1  0.01035600  0.64141900  0.94597400  1
  Ca  Ca3  1  0.98964400  0.35858100  0.05402600  1
  Ca  Ca4  1  0.48964400  0.14141900  0.05402600  1
  Ca  Ca5  1  0.98964400  0.85858100  0.44597400  1
  Ca  Ca6  1  0.48964400  0.64141900  0.44597400  1
  Ca  Ca7  1  0.51035600  0.85858100  0.94597400  1
  Cu  Cu0  1  0.98071900  0.40410500  0.40386100  1
  Cu  Cu1  1  0.51928100  0.90410500  0.59613900  1
  Cu  Cu2  1  0.01928100  0.59589500  0.59613900  1
  Cu  Cu3  1  0.48071900  0.09589500  0.40386100  1
  Cu  Cu4  1  0.01928100  0.09589500  0.90386100  1
  Cu  Cu5  1  0.98071900  0.90410500  0.09613900  1
  Cu  Cu6  1  0.51928100  0.40410500  0.90386100  1
  Cu  Cu7  1  0.48071900  0.59589500  0.09613900  1
  Bi  Bi0  1  0.93886700  0.84355000  0.76634000  1
  Bi  Bi1  1  0.06113300  0.15645000  0.23366000  1
  Bi  Bi2  1  0.56113300  0.34355000  0.23366000  1
  Bi  Bi3  1  0.06113300  0.65645000  0.26634000  1
  Bi  Bi4  1  0.43886700  0.15645000  0.73366000  1
  Bi  Bi5  1  0.43886700  0.65645000  0.76634000  1
  Bi  Bi6  1  0.56113300  0.84355000  0.26634000  1
  Bi  Bi7  1  0.93886700  0.34355000  0.73366000  1
  O  O0  1  0.91867300  0.32235800  0.29937300  1
  O  O1  1  0.30776400  0.04407400  0.93574400  1
  O  O2  1  0.19223600  0.54407400  0.06425600  1
  O  O3  1  0.23601900  0.77460300  0.84646900  1
  O  O4  1  0.26398100  0.27460300  0.15353100  1
  O  O5  1  0.91867300  0.82235800  0.20062700  1
  O  O6  1  0.26398100  0.77460300  0.34646900  1
  O  O7  1  0.58132700  0.82235800  0.70062700  1
  O  O8  1  0.30776400  0.54407400  0.56425600  1
  O  O9  1  0.08132700  0.67764200  0.70062700  1
  O  O10  1  0.58132700  0.32235800  0.79937300  1
  O  O11  1  0.64445700  0.18314800  0.47872400  1
  O  O12  1  0.80776400  0.95592600  0.56425600  1
  O  O13  1  0.76398100  0.72539700  0.34646900  1
  O  O14  1  0.18063900  0.02819500  0.13358100  1
  O  O15  1  0.80776400  0.45592600  0.93574400  1
  O  O16  1  0.08132700  0.17764200  0.79937300  1
  O  O17  1  0.73601900  0.22539700  0.65353100  1
  O  O18  1  0.14445700  0.81685200  0.02127600  1
  O  O19  1  0.19223600  0.04407400  0.43574400  1
  O  O20  1  0.35554300  0.81685200  0.52127600  1
  O  O21  1  0.81936100  0.97180500  0.86641900  1
  O  O22  1  0.76398100  0.22539700  0.15353100  1
  O  O23  1  0.68063900  0.97180500  0.36641900  1
  O  O24  1  0.35554300  0.31685200  0.97872400  1
  O  O25  1  0.14445700  0.31685200  0.47872400  1
  O  O26  1  0.69223600  0.45592600  0.43574400  1
  O  O27  1  0.69223600  0.95592600  0.06425600  1
  O  O28  1  0.68063900  0.47180500  0.13358100  1
  O  O29  1  0.85554300  0.68314800  0.52127600  1
  O  O30  1  0.85554300  0.18314800  0.97872400  1
  O  O31  1  0.64445700  0.68314800  0.02127600  1
  O  O32  1  0.81936100  0.47180500  0.63358100  1
  O  O33  1  0.73601900  0.72539700  0.84646900  1
  O  O34  1  0.23601900  0.27460300  0.65353100  1
  O  O35  1  0.18063900  0.52819500  0.36641900  1
  O  O36  1  0.31936100  0.52819500  0.86641900  1
  O  O37  1  0.41867300  0.17764200  0.29937300  1
  O  O38  1  0.31936100  0.02819500  0.63358100  1
  O  O39  1  0.41867300  0.67764200  0.20062700  1
loop_
_geom_bond_atom_site_label_1
_geom_bond_atom_site_label_2
_geom_bond_distance
_geom_bond_site_symmetry_2
Ca0 O8 2.376003 1_555
Ca0 O26 2.395122 1_555
Ca0 O34 2.401286 1_555
Ca0 O11 2.416665 1_555
Ca0 O25 2.434487 1_555
Ca0 O32 2.498964 1_555
Ca0 O17 2.514330 1_555
Ca1 O12 2.376003 1_445
Ca1 O19 2.395122 1_555
Ca1 O17 2.401286 1_455
Ca1 O25 2.416665 1_555
Ca1 O11 2.434487 1_455
Ca1 O38 2.498964 1_555
Ca1 O34 2.514330 1_555
Ca2 O15 2.376003 1_455
Ca2 O2 2.395122 1_556
Ca2 O33 2.401286 1_455
Ca2 O18 2.416665 1_556
Ca2 O31 2.434487 1_456
Ca2 O36 2.498964 1_555
Ca2 O3 2.514330 1_555
Ca3 O2 2.376003 1_655
Ca3 O15 2.395122 1_554
Ca3 O4 2.401286 1_655
Ca3 O30 2.416665 1_554
Ca3 O24 2.434487 1_654
Ca3 O28 2.498964 1_555
Ca3 O22 2.514330 1_555
Ca4 O27 2.376003 1_545
Ca4 O1 2.395122 1_554
Ca4 O22 2.401286 1_555
Ca4 O24 2.416665 1_554
Ca4 O30 2.434487 1_554
Ca4 O14 2.498964 1_555
Ca4 O4 2.514330 1_555
Ca5 O19 2.376003 1_665
Ca5 O12 2.395122 1_555
Ca5 O6 2.401286 1_655
Ca5 O29 2.416665 1_555
Ca5 O20 2.434487 1_655
Ca5 O23 2.498964 1_555
Ca5 O13 2.514330 1_555
Ca6 O26 2.376003 1_555
Ca6 O8 2.395122 1_555
Ca6 O13 2.401286 1_555
Ca6 O20 2.416665 1_555
Ca6 O29 2.434487 1_555
Ca6 O35 2.498964 1_555
Ca6 O6 2.514330 1_555
Ca7 O1 2.376003 1_565
Ca7 O27 2.395122 1_556
Ca7 O3 2.401286 1_555
Ca7 O31 2.416665 1_556
Ca7 O18 2.434487 1_556
Ca7 O21 2.498964 1_555
Ca7 O33 2.514330 1_555
Cu0 O25 1.791716 1_655
Cu0 O26 1.805211 1_555
Cu0 O35 1.886095 1_655
Cu0 O0 1.919126 1_555
Cu1 O20 1.791716 1_555
Cu1 O12 1.805211 1_555
Cu1 O38 1.886095 1_565
Cu1 O7 1.919126 1_555
Cu2 O29 1.791716 1_455
Cu2 O8 1.805211 1_555
Cu2 O32 1.886095 1_455
Cu2 O9 1.919126 1_555
Cu3 O11 1.791716 1_555
Cu3 O19 1.805211 1_555
Cu3 O23 1.886095 1_545
Cu3 O37 1.919126 1_555
Cu4 O30 1.791716 1_455
Cu4 O1 1.805211 1_555
Cu4 O21 1.886095 1_445
Cu4 O16 1.919126 1_555
Cu5 O18 1.791716 1_655
Cu5 O27 1.805211 1_555
Cu5 O14 1.886095 1_665
Cu5 O5 1.919126 1_555
Cu6 O24 1.791716 1_555
Cu6 O15 1.805211 1_555
Cu6 O36 1.886095 1_555
Cu6 O10 1.919126 1_555
Cu7 O31 1.791716 1_555
Cu7 O2 1.805211 1_555
Cu7 O28 1.886095 1_555
Cu7 O39 1.919126 1_555
Bi0 O33 2.160431 1_555
Bi0 O21 2.239195 1_555
Bi0 O3 2.242444 1_655
Bi0 O9 2.273868 1_655
Bi0 O7 2.287751 1_555
Bi1 O4 2.160431 1_555
Bi1 O14 2.239195 1_555
Bi1 O22 2.242444 1_455
Bi1 O0 2.273868 1_455
Bi1 O37 2.287751 1_555
Bi2 O22 2.160431 1_555
Bi2 O28 2.239195 1_555
Bi2 O4 2.242444 1_555
Bi2 O37 2.273868 1_555
Bi2 O0 2.287751 1_555
Bi3 O6 2.160431 1_555
Bi3 O35 2.239195 1_555
Bi3 O13 2.242444 1_455
Bi3 O5 2.273868 1_455
Bi3 O39 2.287751 1_555
Bi4 O34 2.160431 1_555
Bi4 O38 2.239195 1_555
Bi4 O17 2.242444 1_555
Bi4 O10 2.273868 1_555
Bi4 O16 2.287751 1_555
Bi5 O3 2.160431 1_555
Bi5 O36 2.239195 1_555
Bi5 O33 2.242444 1_555
Bi5 O7 2.273868 1_555
Bi5 O9 2.287751 1_555
Bi6 O13 2.160431 1_555
Bi6 O23 2.239195 1_555
Bi6 O6 2.242444 1_555
Bi6 O39 2.273868 1_555
Bi6 O5 2.287751 1_555
Bi7 O17 2.160431 1_555
Bi7 O32 2.239195 1_555
Bi7 O34 2.242444 1_655
Bi7 O16 2.273868 1_655
Bi7 O10 2.287751 1_555
