# generated using pymatgen
data_Cs2HfO3
_symmetry_space_group_name_H-M   'P 1'
_cell_length_a   6.86085997
_cell_length_b   6.86085997
_cell_length_c   5.86992866
_cell_angle_alpha   90.00000000
_cell_angle_beta   90.00000000
_cell_angle_gamma   111.32760901
_symmetry_Int_Tables_number   1
_chemical_formula_structural   Cs2HfO3
_chemical_formula_sum   'Cs4 Hf2 O6'
_cell_volume   257.38325622
_cell_formula_units_Z   2
loop_
 _symmetry_equiv_pos_site_id
 _symmetry_equiv_pos_as_xyz
  1  'x, y, z'
loop_
 _atom_site_type_symbol
 _atom_site_label
 _atom_site_symmetry_multiplicity
 _atom_site_fract_x
 _atom_site_fract_y
 _atom_site_fract_z
 _atom_site_occupancy
  Cs  Cs0  1  0.51664365  0.19131348  0.75000000  1
  Cs  Cs1  1  0.80868652  0.48335635  0.25000000  1
  Cs  Cs2  1  0.48335635  0.80868652  0.25000000  1
  Cs  Cs3  1  0.19131348  0.51664365  0.75000000  1
  Hf  Hf0  1  0.08154591  0.08154591  0.25000000  1
  Hf  Hf1  1  0.91845409  0.91845409  0.75000000  1
  O  O0  1  0.88360307  0.11639693  -0.00000000  1
  O  O1  1  0.88360307  0.11639693  0.50000000  1
  O  O2  1  0.67199943  0.67199943  0.75000000  1
  O  O3  1  0.32800057  0.32800057  0.25000000  1
  O  O4  1  0.11639693  0.88360307  -0.00000000  1
  O  O5  1  0.11639693  0.88360307  0.50000000  1
loop_
_geom_bond_atom_site_label_1
_geom_bond_atom_site_label_2
_geom_bond_distance
_geom_bond_site_symmetry_2
Cs0 O2 3.074967 1_555
Cs0 O0 3.114095 1_556
Cs0 O1 3.114095 1_555
Cs0 O5 3.151863 1_545
Cs0 O4 3.151863 1_546
Cs0 O3 3.471518 1_555
Cs0 O3 3.471518 1_556
Cs1 O3 3.074967 1_555
Cs1 O0 3.114095 1_555
Cs1 O1 3.114095 1_555
Cs1 O4 3.151863 1_655
Cs1 O5 3.151863 1_655
Cs1 O2 3.471518 1_554
Cs1 O2 3.471518 1_555
Cs2 O3 3.074967 1_555
Cs2 O4 3.114095 1_555
Cs2 O5 3.114095 1_555
Cs2 O0 3.151863 1_565
Cs2 O1 3.151863 1_565
Cs2 O2 3.471518 1_554
Cs2 O2 3.471518 1_555
Cs3 O2 3.074967 1_555
Cs3 O4 3.114095 1_556
Cs3 O5 3.114095 1_555
Cs3 O1 3.151863 1_455
Cs3 O0 3.151863 1_456
Cs3 O3 3.471518 1_555
Cs3 O3 3.471518 1_556
Hf0 O3 1.907487 1_555
Hf0 O4 2.071522 1_545
Hf0 O0 2.071522 1_455
Hf0 O1 2.071522 1_455
Hf0 O5 2.071522 1_545
Hf1 O2 1.907487 1_555
Hf1 O0 2.071522 1_566
Hf1 O4 2.071522 1_656
Hf1 O1 2.071522 1_565
Hf1 O5 2.071522 1_655
