# generated using pymatgen
data_Ba4Sm3Cl16
_symmetry_space_group_name_H-M   'P 1'
_cell_length_a   11.37634027
_cell_length_b   11.37634027
_cell_length_c   11.37634031
_cell_angle_alpha   72.21302469
_cell_angle_beta   72.21302472
_cell_angle_gamma   72.21302961
_symmetry_Int_Tables_number   1
_chemical_formula_structural   Ba4Sm3Cl16
_chemical_formula_sum   'Ba8 Sm6 Cl32'
_cell_volume   1297.88219328
_cell_formula_units_Z   2
loop_
 _symmetry_equiv_pos_site_id
 _symmetry_equiv_pos_as_xyz
  1  'x, y, z'
loop_
 _atom_site_type_symbol
 _atom_site_label
 _atom_site_symmetry_multiplicity
 _atom_site_fract_x
 _atom_site_fract_y
 _atom_site_fract_z
 _atom_site_occupancy
  Ba  Ba0  1  0.73392272  0.73392272  0.73392272  1
  Ba  Ba1  1  0.26607728  0.26607728  0.26607728  1
  Ba  Ba2  1  0.12913797  0.92398472  0.67744890  1
  Ba  Ba3  1  0.92398472  0.67744890  0.12913797  1
  Ba  Ba4  1  0.67744890  0.12913797  0.92398472  1
  Ba  Ba5  1  0.87086203  0.07601528  0.32255110  1
  Ba  Ba6  1  0.07601528  0.32255110  0.87086203  1
  Ba  Ba7  1  0.32255110  0.87086203  0.07601528  1
  Sm  Sm0  1  0.84431144  0.38079297  0.53748996  1
  Sm  Sm1  1  0.38079297  0.53748996  0.84431144  1
  Sm  Sm2  1  0.53748996  0.84431144  0.38079297  1
  Sm  Sm3  1  0.15568856  0.61920703  0.46251004  1
  Sm  Sm4  1  0.61920703  0.46251004  0.15568856  1
  Sm  Sm5  1  0.46251004  0.15568856  0.61920703  1
  Cl  Cl0  1  0.93355842  0.19764427  0.75104762  1
  Cl  Cl1  1  0.19764427  0.75104762  0.93355842  1
  Cl  Cl2  1  0.75104762  0.93355842  0.19764427  1
  Cl  Cl3  1  0.06644158  0.80235573  0.24895238  1
  Cl  Cl4  1  0.80235573  0.24895238  0.06644158  1
  Cl  Cl5  1  0.24895238  0.06644158  0.80235573  1
  Cl  Cl6  1  0.87182406  0.87182406  0.87182406  1
  Cl  Cl7  1  0.12817594  0.12817594  0.12817594  1
  Cl  Cl8  1  0.02858526  0.16580428  0.45230053  1
  Cl  Cl9  1  0.16580428  0.45230053  0.02858526  1
  Cl  Cl10  1  0.45230053  0.02858526  0.16580428  1
  Cl  Cl11  1  0.97141474  0.83419572  0.54769947  1
  Cl  Cl12  1  0.83419572  0.54769947  0.97141474  1
  Cl  Cl13  1  0.54769947  0.97141474  0.83419572  1
  Cl  Cl14  1  0.70671425  0.18822537  0.60250660  1
  Cl  Cl15  1  0.18822537  0.60250660  0.70671425  1
  Cl  Cl16  1  0.60250660  0.70671425  0.18822537  1
  Cl  Cl17  1  0.29328575  0.81177463  0.39749340  1
  Cl  Cl18  1  0.81177463  0.39749340  0.29328575  1
  Cl  Cl19  1  0.39749340  0.29328575  0.81177463  1
  Cl  Cl20  1  0.95130584  0.51354000  0.64622780  1
  Cl  Cl21  1  0.51354000  0.64622780  0.95130584  1
  Cl  Cl22  1  0.64622780  0.95130584  0.51354000  1
  Cl  Cl23  1  0.04869416  0.48646000  0.35377220  1
  Cl  Cl24  1  0.48646000  0.35377220  0.04869416  1
  Cl  Cl25  1  0.35377220  0.04869416  0.48646000  1
  Cl  Cl26  1  0.65034219  0.44469848  0.74470988  1
  Cl  Cl27  1  0.44469848  0.74470988  0.65034219  1
  Cl  Cl28  1  0.74470988  0.65034219  0.44469848  1
  Cl  Cl29  1  0.34965781  0.55530152  0.25529012  1
  Cl  Cl30  1  0.55530152  0.25529012  0.34965781  1
  Cl  Cl31  1  0.25529012  0.34965781  0.55530152  1
loop_
_geom_bond_atom_site_label_1
_geom_bond_atom_site_label_2
_geom_bond_distance
_geom_bond_site_symmetry_2
Ba0 Cl21 3.103169 1_555
Ba0 Cl22 3.103169 1_555
Ba0 Cl20 3.103169 1_555
Ba0 Cl11 3.162061 1_555
Ba0 Cl12 3.162061 1_555
Ba0 Cl13 3.162061 1_555
Ba0 Cl6 3.448846 1_555
Ba0 Cl26 3.652226 1_555
Ba0 Cl27 3.652226 1_555
Ba0 Cl28 3.652226 1_555
Ba1 Cl24 3.103169 1_555
Ba1 Cl25 3.103169 1_555
Ba1 Cl23 3.103169 1_555
Ba1 Cl8 3.162061 1_555
Ba1 Cl9 3.162061 1_555
Ba1 Cl10 3.162061 1_555
Ba1 Cl7 3.448846 1_555
Ba1 Cl29 3.652226 1_555
Ba1 Cl30 3.652226 1_555
Ba1 Cl31 3.652226 1_555
Ba2 Cl1 3.148879 1_555
Ba2 Cl11 3.178186 1_455
Ba2 Cl6 3.180522 1_455
Ba2 Cl25 3.194333 1_565
Ba2 Cl5 3.231639 1_565
Ba2 Cl8 3.316577 1_565
Ba2 Cl0 3.400913 1_465
Ba2 Cl15 3.439328 1_555
Ba2 Cl27 3.518077 1_555
Ba2 Cl17 3.557248 1_555
Ba3 Cl2 3.148879 1_555
Ba3 Cl12 3.178186 1_554
Ba3 Cl6 3.180522 1_554
Ba3 Cl23 3.194333 1_655
Ba3 Cl3 3.231639 1_655
Ba3 Cl9 3.316577 1_655
Ba3 Cl1 3.400913 1_654
Ba3 Cl16 3.439328 1_555
Ba3 Cl28 3.518077 1_555
Ba3 Cl18 3.557248 1_555
Ba4 Cl0 3.148879 1_555
Ba4 Cl13 3.178186 1_545
Ba4 Cl6 3.180523 1_545
Ba4 Cl24 3.194333 1_556
Ba4 Cl4 3.231639 1_556
Ba4 Cl10 3.316577 1_556
Ba4 Cl2 3.400913 1_546
Ba4 Cl14 3.439328 1_555
Ba4 Cl26 3.518077 1_555
Ba4 Cl19 3.557248 1_555
Ba5 Cl4 3.148879 1_555
Ba5 Cl8 3.178186 1_655
Ba5 Cl7 3.180522 1_655
Ba5 Cl22 3.194333 1_545
Ba5 Cl2 3.231639 1_545
Ba5 Cl11 3.316577 1_545
Ba5 Cl3 3.400913 1_645
Ba5 Cl18 3.439328 1_555
Ba5 Cl30 3.518077 1_555
Ba5 Cl14 3.557248 1_555
Ba6 Cl5 3.148879 1_555
Ba6 Cl9 3.178186 1_556
Ba6 Cl7 3.180522 1_556
Ba6 Cl20 3.194333 1_455
Ba6 Cl0 3.231639 1_455
Ba6 Cl12 3.316577 1_455
Ba6 Cl4 3.400913 1_456
Ba6 Cl19 3.439328 1_555
Ba6 Cl31 3.518077 1_555
Ba6 Cl15 3.557248 1_555
Ba7 Cl3 3.148879 1_555
Ba7 Cl10 3.178186 1_565
Ba7 Cl7 3.180523 1_565
Ba7 Cl21 3.194333 1_554
Ba7 Cl1 3.231639 1_554
Ba7 Cl13 3.316577 1_554
Ba7 Cl5 3.400913 1_564
Ba7 Cl17 3.439328 1_555
Ba7 Cl29 3.518077 1_555
Ba7 Cl16 3.557248 1_555
Cl0 Sm0 2.897667 1_555
Cl1 Sm1 2.897667 1_555
Cl2 Sm2 2.897667 1_555
Cl3 Sm3 2.897667 1_555
Cl4 Sm4 2.897667 1_555
Cl5 Sm5 2.897667 1_555
Cl8 Sm0 2.896584 1_455
Cl9 Sm1 2.896584 1_554
Cl10 Sm2 2.896584 1_545
Cl11 Sm3 2.896584 1_655
Cl12 Sm4 2.896584 1_556
Cl13 Sm5 2.896584 1_565
Cl14 Sm5 2.855530 1_555
Cl14 Sm0 2.862588 1_555
Cl15 Sm3 2.855530 1_555
Cl15 Sm1 2.862589 1_555
Cl16 Sm4 2.855530 1_555
Cl16 Sm2 2.862589 1_555
Cl17 Sm2 2.855530 1_555
Cl17 Sm3 2.862588 1_555
Cl18 Sm0 2.855530 1_555
Cl18 Sm4 2.862589 1_555
Cl19 Sm1 2.855530 1_555
Cl19 Sm5 2.862589 1_555
Cl20 Sm3 2.902270 1_655
Cl20 Sm0 2.911500 1_555
Cl21 Sm4 2.902270 1_556
Cl21 Sm1 2.911500 1_555
Cl22 Sm5 2.902270 1_565
Cl22 Sm2 2.911500 1_555
Cl23 Sm0 2.902270 1_455
Cl23 Sm3 2.911500 1_555
Cl24 Sm1 2.902270 1_554
Cl24 Sm4 2.911500 1_555
Cl25 Sm2 2.902270 1_545
Cl25 Sm5 2.911500 1_555
Cl26 Sm0 2.800716 1_555
Cl26 Sm1 2.903758 1_555
Cl27 Sm1 2.800716 1_555
Cl27 Sm2 2.903758 1_555
Cl28 Sm2 2.800716 1_555
Cl28 Sm0 2.903758 1_555
Cl29 Sm3 2.800716 1_555
Cl29 Sm4 2.903758 1_555
Cl30 Sm4 2.800716 1_555
Cl30 Sm5 2.903758 1_555
Cl31 Sm5 2.800716 1_555
Cl31 Sm3 2.903758 1_555
