# generated using pymatgen
data_KMg6BO7
_symmetry_space_group_name_H-M   'P 1'
_cell_length_a   8.62808826
_cell_length_b   4.48992628
_cell_length_c   4.48992628
_cell_angle_alpha   90.00000000
_cell_angle_beta   90.00000000
_cell_angle_gamma   90.00000000
_symmetry_Int_Tables_number   1
_chemical_formula_structural   KMg6BO7
_chemical_formula_sum   'K1 Mg6 B1 O7'
_cell_volume   173.93741033
_cell_formula_units_Z   1
loop_
 _symmetry_equiv_pos_site_id
 _symmetry_equiv_pos_as_xyz
  1  'x, y, z'
loop_
 _atom_site_type_symbol
 _atom_site_label
 _atom_site_symmetry_multiplicity
 _atom_site_fract_x
 _atom_site_fract_y
 _atom_site_fract_z
 _atom_site_occupancy
  K  K0  1  0.00114263  0.00000000  -0.00000000  1
  Mg  Mg0  1  0.50147567  0.00000000  -0.00000000  1
  Mg  Mg1  1  0.49223426  0.50000000  0.50000000  1
  Mg  Mg2  1  0.23218604  0.00000000  0.50000000  1
  Mg  Mg3  1  0.75880299  0.00000000  0.50000000  1
  Mg  Mg4  1  0.23218604  0.50000000  -0.00000000  1
  Mg  Mg5  1  0.75880299  0.50000000  0.00000000  1
  B  B0  1  0.96451288  0.50000000  0.50000000  1
  O  O0  1  0.27599969  0.00000000  -0.00000000  1
  O  O1  1  0.72594328  0.00000000  -0.00000000  1
  O  O2  1  0.80270017  0.50000000  0.50000000  1
  O  O3  1  0.99586954  0.00000000  0.50000000  1
  O  O4  1  0.50613715  0.00000000  0.50000000  1
  O  O5  1  0.99586954  0.50000000  0.00000000  1
  O  O6  1  0.50613715  0.50000000  -0.00000000  1
loop_
_geom_bond_atom_site_label_1
_geom_bond_atom_site_label_2
_geom_bond_distance
_geom_bond_site_symmetry_2
K0 O3 2.245424 1_455
K0 O5 2.245424 1_445
K0 O5 2.245424 1_455
K0 O3 2.245424 1_454
K0 O0 2.371491 1_555
K0 O1 2.374444 1_455
Mg0 O1 1.936726 1_555
Mg0 O0 1.945427 1_555
Mg0 O6 2.245323 1_555
Mg0 O4 2.245323 1_555
Mg0 O4 2.245323 1_554
Mg0 O6 2.245323 1_545
Mg1 O4 2.248166 1_565
Mg1 O6 2.248166 1_556
Mg1 O6 2.248166 1_555
Mg1 O4 2.248166 1_555
Mg1 O2 2.678727 1_555
Mg2 O3 2.038960 1_455
Mg2 O0 2.276569 1_556
Mg2 O0 2.276569 1_555
Mg2 O4 2.363674 1_555
Mg3 O3 2.045431 1_555
Mg3 O4 2.180023 1_555
Mg3 O1 2.262795 1_555
Mg3 O1 2.262795 1_556
Mg3 O2 2.276688 1_555
Mg3 O2 2.276688 1_545
Mg4 O5 2.038960 1_455
Mg4 O0 2.276569 1_555
Mg4 O0 2.276569 1_565
Mg4 O6 2.363674 1_555
Mg5 O5 2.045431 1_555
Mg5 O6 2.180023 1_555
Mg5 O1 2.262795 1_555
Mg5 O1 2.262795 1_565
Mg5 O2 2.276688 1_555
Mg5 O2 2.276688 1_554
B0 O2 1.396134 1_555
