# generated using pymatgen
data_NaSeO3
_symmetry_space_group_name_H-M   'P 1'
_cell_length_a   11.71227130
_cell_length_b   11.71227130
_cell_length_c   10.48761755
_cell_angle_alpha   78.60325856
_cell_angle_beta   78.60325856
_cell_angle_gamma   29.19252132
_symmetry_Int_Tables_number   1
_chemical_formula_structural   NaSeO3
_chemical_formula_sum   'Na8 Se8 O24'
_cell_volume   686.91752036
_cell_formula_units_Z   8
loop_
 _symmetry_equiv_pos_site_id
 _symmetry_equiv_pos_as_xyz
  1  'x, y, z'
loop_
 _atom_site_type_symbol
 _atom_site_label
 _atom_site_symmetry_multiplicity
 _atom_site_fract_x
 _atom_site_fract_y
 _atom_site_fract_z
 _atom_site_occupancy
  Na  Na0  1  0.08156800  0.51852700  0.21611700  1
  Na  Na1  1  0.48147300  0.91843200  0.28388300  1
  Na  Na2  1  0.91843200  0.48147300  0.78388300  1
  Na  Na3  1  0.51852700  0.08156800  0.71611700  1
  Na  Na4  1  0.84957300  0.39857100  0.16608500  1
  Na  Na5  1  0.60142900  0.15042700  0.33391500  1
  Na  Na6  1  0.15042700  0.60142900  0.83391500  1
  Na  Na7  1  0.39857100  0.84957300  0.66608500  1
  Se  Se0  1  0.94595500  0.38821800  0.45775400  1
  Se  Se1  1  0.61178200  0.05404500  0.04224600  1
  Se  Se2  1  0.05404500  0.61178200  0.54224600  1
  Se  Se3  1  0.38821800  0.94595500  0.95775400  1
  Se  Se4  1  0.17024800  0.72130600  0.11439400  1
  Se  Se5  1  0.27869400  0.82975200  0.38560600  1
  Se  Se6  1  0.82975200  0.27869400  0.88560600  1
  Se  Se7  1  0.72130600  0.17024800  0.61439400  1
  O  O0  1  0.77599300  0.59535000  0.56503600  1
  O  O1  1  0.40465000  0.22400700  0.93496400  1
  O  O2  1  0.22400700  0.40465000  0.43496400  1
  O  O3  1  0.59535000  0.77599300  0.06503600  1
  O  O4  1  0.23139100  0.16620000  0.47684000  1
  O  O5  1  0.83380000  0.76860900  0.02316000  1
  O  O6  1  0.76860900  0.83380000  0.52316000  1
  O  O7  1  0.16620000  0.23139100  0.97684000  1
  O  O8  1  0.88185500  0.51743300  0.30789500  1
  O  O9  1  0.48256700  0.11814500  0.19210500  1
  O  O10  1  0.11814500  0.48256700  0.69210500  1
  O  O11  1  0.51743300  0.88185500  0.80789500  1
  O  O12  1  0.10537900  0.78919500  0.95856900  1
  O  O13  1  0.21080500  0.89462100  0.54143100  1
  O  O14  1  0.89462100  0.21080500  0.04143100  1
  O  O15  1  0.78919500  0.10537900  0.45856900  1
  O  O16  1  0.95469600  0.83202700  0.21198600  1
  O  O17  1  0.16797300  0.04530400  0.28801400  1
  O  O18  1  0.04530400  0.16797300  0.78801400  1
  O  O19  1  0.83202700  0.95469600  0.71198600  1
  O  O20  1  0.42189600  0.42692800  0.14390300  1
  O  O21  1  0.57307200  0.57810400  0.35609700  1
  O  O22  1  0.57810400  0.57307200  0.85609700  1
  O  O23  1  0.42692800  0.42189600  0.64390300  1
loop_
_geom_bond_atom_site_label_1
_geom_bond_atom_site_label_2
_geom_bond_distance
_geom_bond_site_symmetry_2
Na0 O8 2.357045 1_455
Na0 O9 2.378555 1_555
Na0 O16 2.475551 1_455
Na0 O5 2.496688 1_455
Na0 O2 2.499690 1_555
Na1 O9 2.357045 1_565
Na1 O8 2.378555 1_555
Na1 O17 2.475551 1_565
Na1 O4 2.496688 1_565
Na1 O3 2.499690 1_555
Na2 O10 2.357045 1_655
Na2 O11 2.378555 1_555
Na2 O18 2.475551 1_655
Na2 O7 2.496688 1_655
Na2 O0 2.499690 1_555
Na3 O11 2.357045 1_545
Na3 O10 2.378555 1_555
Na3 O19 2.475551 1_545
Na3 O6 2.496688 1_545
Na3 O1 2.499690 1_555
Na4 O17 2.348440 1_655
Na4 O14 2.379402 1_555
Na4 O3 2.438110 1_555
Na4 O21 2.469089 1_555
Na4 O8 2.500486 1_555
Na4 O7 2.733965 1_654
Na5 O16 2.348440 1_545
Na5 O15 2.379402 1_555
Na5 O2 2.438110 1_555
Na5 O20 2.469089 1_555
Na5 O9 2.500486 1_555
Na5 O6 2.733965 1_545
Na6 O19 2.348440 1_455
Na6 O12 2.379402 1_555
Na6 O1 2.438110 1_555
Na6 O23 2.469089 1_555
Na6 O10 2.500486 1_555
Na6 O5 2.733965 1_456
Na7 O18 2.348440 1_565
Na7 O13 2.379402 1_555
Na7 O0 2.438110 1_555
Na7 O22 2.469089 1_555
Na7 O11 2.500486 1_555
Na7 O4 2.733965 1_565
O0 Se0 1.695818 1_555
O1 Se1 1.695818 1_556
O2 Se2 1.695818 1_555
O3 Se3 1.695818 1_554
O4 Se0 1.690813 1_455
O5 Se1 1.690813 1_565
O6 Se2 1.690813 1_655
O7 Se3 1.690813 1_545
O8 Se0 1.693128 1_555
O9 Se1 1.693128 1_555
O10 Se2 1.693128 1_555
O11 Se3 1.693128 1_555
O12 Se4 1.674093 1_556
O13 Se5 1.674093 1_555
O14 Se6 1.674093 1_554
O15 Se7 1.674093 1_555
O16 Se4 1.700031 1_655
O17 Se5 1.700031 1_545
O18 Se6 1.700031 1_455
O19 Se7 1.700031 1_565
O20 Se4 1.693069 1_555
O21 Se5 1.693069 1_555
O22 Se6 1.693069 1_555
O23 Se7 1.693069 1_555
