# generated using pymatgen
data_La4MnSe6O
_symmetry_space_group_name_H-M   'P 1'
_cell_length_a   7.13657700
_cell_length_b   9.83651000
_cell_length_c   9.83651869
_cell_angle_alpha   119.99998916
_cell_angle_beta   90.00002527
_cell_angle_gamma   90.00011445
_symmetry_Int_Tables_number   1
_chemical_formula_structural   La4MnSe6O
_chemical_formula_sum   'La8 Mn2 Se12 O2'
_cell_volume   598.00263045
_cell_formula_units_Z   2
loop_
 _symmetry_equiv_pos_site_id
 _symmetry_equiv_pos_as_xyz
  1  'x, y, z'
loop_
 _atom_site_type_symbol
 _atom_site_label
 _atom_site_symmetry_multiplicity
 _atom_site_fract_x
 _atom_site_fract_y
 _atom_site_fract_z
 _atom_site_occupancy
  La  La0  1  0.70720500  0.66666400  0.33332900  1
  La  La1  1  0.20719700  0.33333100  0.66666600  1
  La  La2  1  0.66061500  0.20023700  0.79976200  1
  La  La3  1  0.16060800  0.40047600  0.20023500  1
  La  La4  1  0.16060800  0.79976500  0.59952900  1
  La  La5  1  0.66061300  0.20023400  0.40047500  1
  La  La6  1  0.66061500  0.59952700  0.79976600  1
  La  La7  1  0.16060600  0.79976100  0.20023000  1
  Mn  Mn0  1  0.99444900  0.99999800  0.00000000  1
  Mn  Mn1  1  0.49445600  0.00000100  0.00000100  1
  Se  Se0  1  0.44490900  0.53015100  0.06030300  1
  Se  Se1  1  0.94491000  0.46985000  0.93969900  1
  Se  Se2  1  0.94490900  0.06030100  0.53015100  1
  Se  Se3  1  0.44491000  0.53015200  0.46985000  1
  Se  Se4  1  0.44490800  0.93969800  0.46985000  1
  Se  Se5  1  0.94490900  0.46984900  0.53015100  1
  Se  Se6  1  0.26296000  0.12612700  0.87387500  1
  Se  Se7  1  0.76296000  0.25225300  0.12612700  1
  Se  Se8  1  0.76296000  0.87387400  0.74774800  1
  Se  Se9  1  0.26296000  0.12612600  0.25225200  1
  Se  Se10  1  0.26296000  0.74774800  0.87387400  1
  Se  Se11  1  0.76296000  0.87387400  0.12612600  1
  O  O0  1  0.04375900  0.66666700  0.33333400  1
  O  O1  1  0.54375700  0.33333400  0.66666700  1
loop_
_geom_bond_atom_site_label_1
_geom_bond_atom_site_label_2
_geom_bond_distance
_geom_bond_site_symmetry_2
La0 O0 2.401844 1_655
La0 Se0 2.985535 1_555
La0 Se3 2.985577 1_555
La0 Se4 2.985597 1_555
La0 Se7 3.552584 1_555
La0 Se11 3.552601 1_555
La0 Se8 3.552653 1_555
La0 Se1 3.757896 1_554
La0 Se2 3.757937 1_565
La0 Se5 3.757943 1_555
La1 O1 2.401886 1_555
La1 Se2 2.985523 1_455
La1 Se1 2.985546 1_455
La1 Se5 2.985548 1_455
La1 Se6 3.552608 1_555
La1 Se9 3.552619 1_555
La1 Se10 3.552639 1_555
La1 Se4 3.757937 1_545
La1 Se0 3.757967 1_556
La1 Se3 3.757970 1_555
La2 O1 2.416096 1_555
La2 Se2 3.064948 1_555
La2 Se1 3.064957 1_555
La2 Se8 3.075486 1_545
La2 Se7 3.075499 1_556
La2 Se6 3.106117 1_555
La2 Se4 3.339486 1_545
La2 Se0 3.339505 1_556
La3 O0 2.416067 1_555
La3 Se0 3.064950 1_555
La3 Se3 3.065006 1_555
La3 Se6 3.075482 1_554
La3 Se9 3.075525 1_555
La3 Se7 3.106069 1_455
La3 Se1 3.339439 1_454
La3 Se5 3.339499 1_455
La4 O0 2.416098 1_555
La4 Se4 3.064977 1_555
La4 Se3 3.064997 1_555
La4 Se10 3.075479 1_555
La4 Se6 3.075480 1_565
La4 Se8 3.106061 1_455
La4 Se2 3.339466 1_465
La4 Se5 3.339478 1_455
La5 O1 2.416093 1_555
La5 Se2 3.064942 1_555
La5 Se5 3.064975 1_555
La5 Se11 3.075473 1_545
La5 Se7 3.075511 1_555
La5 Se9 3.106103 1_555
La5 Se4 3.339464 1_545
La5 Se3 3.339522 1_555
La6 O1 2.416101 1_555
La6 Se1 3.064943 1_555
La6 Se5 3.064973 1_555
La6 Se11 3.075460 1_556
La6 Se8 3.075489 1_555
La6 Se10 3.106114 1_555
La6 Se0 3.339486 1_556
La6 Se3 3.339510 1_555
La7 O0 2.416116 1_555
La7 Se0 3.064982 1_555
La7 Se4 3.065037 1_555
La7 Se10 3.075441 1_554
La7 Se9 3.075489 1_565
La7 Se11 3.106040 1_455
La7 Se1 3.339420 1_454
La7 Se2 3.339514 1_465
Mn0 Se11 2.710483 1_555
Mn0 Se8 2.710496 1_554
Mn0 Se7 2.710521 1_565
Mn0 Se10 2.879153 1_654
Mn0 Se9 2.879161 1_665
Mn0 Se6 2.879174 1_664
Mn1 Se9 2.710524 1_555
Mn1 Se6 2.710529 1_554
Mn1 Se10 2.710531 1_544
Mn1 Se7 2.879125 1_555
Mn1 Se11 2.879130 1_545
Mn1 Se8 2.879139 1_544
