# generated using pymatgen
data_Mg6MnAl
_symmetry_space_group_name_H-M   'P 1'
_cell_length_a   4.95090100
_cell_length_b   6.09465100
_cell_length_c   10.79110100
_cell_angle_alpha   90.00000000
_cell_angle_beta   90.00000000
_cell_angle_gamma   90.00000000
_symmetry_Int_Tables_number   1
_chemical_formula_structural   Mg6MnAl
_chemical_formula_sum   'Mg12 Mn2 Al2'
_cell_volume   325.61082974
_cell_formula_units_Z   2
loop_
 _symmetry_equiv_pos_site_id
 _symmetry_equiv_pos_as_xyz
  1  'x, y, z'
loop_
 _atom_site_type_symbol
 _atom_site_label
 _atom_site_symmetry_multiplicity
 _atom_site_fract_x
 _atom_site_fract_y
 _atom_site_fract_z
 _atom_site_occupancy
  Mg  Mg0  1  0.50000000  0.25016000  0.41669600  1
  Mg  Mg1  1  0.50000000  0.74984000  0.41669600  1
  Mg  Mg2  1  0.00000000  0.74613600  0.08600100  1
  Mg  Mg3  1  0.00000000  0.25386400  0.08600100  1
  Mg  Mg4  1  0.00000000  0.00000000  0.33083700  1
  Mg  Mg5  1  0.00000000  0.50000000  0.32820500  1
  Mg  Mg6  1  0.50000000  0.75016000  0.91669600  1
  Mg  Mg7  1  0.50000000  0.24984000  0.91669600  1
  Mg  Mg8  1  0.00000000  0.24613600  0.58600100  1
  Mg  Mg9  1  0.00000000  0.75386400  0.58600100  1
  Mg  Mg10  1  0.00000000  0.50000000  0.83083700  1
  Mg  Mg11  1  0.00000000  0.00000000  0.82820500  1
  Mn  Mn0  1  0.50000000  0.50000000  0.16771600  1
  Mn  Mn1  1  0.50000000  0.00000000  0.66771600  1
  Al  Al0  1  0.50000000  0.00000000  0.16784400  1
  Al  Al1  1  0.50000000  0.50000000  0.66784400  1
loop_
_geom_bond_atom_site_label_1
_geom_bond_atom_site_label_2
_geom_bond_distance
_geom_bond_site_symmetry_2
Mg0 Mg1 3.045375 1_555
Mg0 Mg1 3.049276 1_545
Mg0 Mg4 3.051361 1_655
Mg0 Mg4 3.051361 1_555
Mg0 Mg5 3.059133 1_655
Mg0 Mg5 3.059133 1_555
Mg0 Mg8 3.076742 1_555
Mg0 Mg8 3.076742 1_655
Mg0 Mn0 3.088252 1_555
Mg0 Mn1 3.108379 1_555
Mg1 Mg4 3.051361 1_565
Mg1 Mg4 3.051361 1_665
Mg1 Mg5 3.059133 1_655
Mg1 Mg5 3.059133 1_555
Mg1 Mg9 3.076742 1_655
Mg1 Mg9 3.076742 1_555
Mg1 Mn0 3.088252 1_555
Mg1 Mn1 3.108379 1_565
Mg2 Mg3 3.000226 1_555
Mg2 Mg5 3.013552 1_555
Mg2 Mn0 3.025848 1_455
Mg2 Mn0 3.025848 1_555
Mg2 Mg4 3.061747 1_565
Mg2 Mg6 3.076742 1_454
Mg2 Mg6 3.076742 1_554
Mg2 Mg3 3.094425 1_565
Mg3 Mg5 3.013552 1_555
Mg3 Mn0 3.025848 1_455
Mg3 Mn0 3.025848 1_555
Mg3 Mg4 3.061747 1_555
Mg3 Mg7 3.076742 1_554
Mg3 Mg7 3.076742 1_454
Mg4 Mg5 3.047458 1_555
Mg4 Mg5 3.047458 1_545
Mg4 Mg9 3.135619 1_545
Mg4 Mg8 3.135619 1_555
Mg5 Mn0 3.021121 1_455
Mg5 Mn0 3.021121 1_555
Mg5 Mg9 3.183214 1_555
Mg5 Mg8 3.183214 1_555
Mg6 Mg7 3.045375 1_565
Mg6 Mg7 3.049276 1_555
Mg6 Mn1 3.088252 1_565
Mg6 Mn0 3.108379 1_556
Mg7 Mn1 3.088252 1_555
Mg7 Mn0 3.108379 1_556
Mg8 Mg9 3.000226 1_545
Mg8 Mn1 3.025848 1_455
Mg8 Mn1 3.025848 1_555
Mg8 Mg9 3.094425 1_555
Mg9 Mn1 3.025848 1_565
Mg9 Mn1 3.025848 1_465
Mg10 Mg11 3.047458 1_555
Mg10 Mg11 3.047458 1_565
Mg10 Mg7 3.051361 1_455
Mg10 Mg7 3.051361 1_555
Mg10 Mg6 3.051361 1_455
Mg10 Mg6 3.051361 1_555
Mg10 Mg9 3.061747 1_555
Mg10 Mg8 3.061747 1_555
Mg10 Mg2 3.135619 1_556
Mg10 Mg3 3.135619 1_556
Mg11 Mg8 3.013552 1_555
Mg11 Mg9 3.013552 1_545
Mg11 Mn1 3.021121 1_455
Mg11 Mn1 3.021121 1_555
Mg11 Mg6 3.059133 1_445
Mg11 Mg7 3.059133 1_455
Mg11 Mg6 3.059133 1_545
Mg11 Mg7 3.059133 1_555
Mg11 Mg2 3.183214 1_546
Mg11 Mg3 3.183214 1_556
Al0 Mg4 3.036691 1_655
Al0 Mg4 3.036691 1_555
Al0 Mn0 3.047326 1_555
Al0 Mn0 3.047326 1_545
Al0 Mg3 3.049872 1_655
Al0 Mg2 3.049872 1_645
Al0 Mg2 3.049872 1_545
Al0 Mg3 3.049872 1_555
Al0 Mg0 3.088013 1_555
Al0 Mg1 3.088013 1_545
Al0 Mg6 3.108627 1_544
Al0 Mg7 3.108627 1_554
Al1 Mg10 3.036691 1_555
Al1 Mg10 3.036691 1_655
Al1 Mn1 3.047326 1_565
Al1 Mn1 3.047326 1_555
Al1 Mg9 3.049872 1_655
Al1 Mg8 3.049872 1_555
Al1 Mg9 3.049872 1_555
Al1 Mg8 3.049872 1_655
Al1 Mg7 3.088013 1_555
Al1 Mg6 3.088013 1_555
Al1 Mg0 3.108627 1_555
Al1 Mg1 3.108627 1_555
