# generated using pymatgen
data_Li7Mn5O12
_symmetry_space_group_name_H-M   'P 1'
_cell_length_a   2.98511220
_cell_length_b   15.19888445
_cell_length_c   9.80265604
_cell_angle_alpha   93.08422369
_cell_angle_beta   83.81789054
_cell_angle_gamma   92.82388477
_symmetry_Int_Tables_number   1
_chemical_formula_structural   Li7Mn5O12
_chemical_formula_sum   'Li14 Mn10 O24'
_cell_volume   441.09981350
_cell_formula_units_Z   2
loop_
 _symmetry_equiv_pos_site_id
 _symmetry_equiv_pos_as_xyz
  1  'x, y, z'
loop_
 _atom_site_type_symbol
 _atom_site_label
 _atom_site_symmetry_multiplicity
 _atom_site_fract_x
 _atom_site_fract_y
 _atom_site_fract_z
 _atom_site_occupancy
  Li  Li0  1  0.99998900  0.33332900  0.00000500  1
  Li  Li1  1  0.50000800  0.83334300  0.00000000  1
  Li  Li2  1  0.87537500  0.12529600  0.25316500  1
  Li  Li3  1  0.37539900  0.62529300  0.25315900  1
  Li  Li4  1  0.62461900  0.04136500  0.74683700  1
  Li  Li5  1  0.12460200  0.54137400  0.74683900  1
  Li  Li6  1  0.11119600  0.21321300  0.75722700  1
  Li  Li7  1  0.61120400  0.71321700  0.75721400  1
  Li  Li8  1  0.88879700  0.45345000  0.24278000  1
  Li  Li9  1  0.38880500  0.95345000  0.24277000  1
  Li  Li10  1  0.36919600  0.29807500  0.24153800  1
  Li  Li11  1  0.86919200  0.79807500  0.24154000  1
  Li  Li12  1  0.63081100  0.36859700  0.75845500  1
  Li  Li13  1  0.13081200  0.86859300  0.75846500  1
  Mn  Mn0  1  0.75002500  0.58332900  0.49999600  1
  Mn  Mn1  1  0.98906900  0.99569400  0.00364300  1
  Mn  Mn2  1  0.51092200  0.17097400  0.99635500  1
  Mn  Mn3  1  0.74990500  0.24979100  0.49955900  1
  Mn  Mn4  1  0.75009900  0.91687700  0.50043700  1
  Mn  Mn5  1  0.24997100  0.08333600  0.50000800  1
  Mn  Mn6  1  0.48908000  0.49568700  0.00364400  1
  Mn  Mn7  1  0.01092000  0.67098000  0.99635200  1
  Mn  Mn8  1  0.24992300  0.74979200  0.49956100  1
  Mn  Mn9  1  0.25007200  0.41687000  0.50044400  1
  O  O0  1  0.46154700  0.05878600  0.10520200  1
  O  O1  1  0.96155000  0.55877800  0.10518700  1
  O  O2  1  0.03845500  0.10788500  0.89480300  1
  O  O3  1  0.53845600  0.60789100  0.89480900  1
  O  O4  1  0.65444000  0.14905200  0.61675000  1
  O  O5  1  0.15444100  0.64904600  0.61673900  1
  O  O6  1  0.84556400  0.01761900  0.38326400  1
  O  O7  1  0.34555600  0.51761500  0.38325500  1
  O  O8  1  0.98153200  0.21732100  0.10734800  1
  O  O9  1  0.48153000  0.71733100  0.10733700  1
  O  O10  1  0.01847400  0.44933700  0.89266100  1
  O  O11  1  0.51846300  0.94934900  0.89265400  1
  O  O12  1  0.15327800  0.31652200  0.61867300  1
  O  O13  1  0.65328600  0.81652100  0.61866900  1
  O  O14  1  0.84671100  0.35014500  0.38132700  1
  O  O15  1  0.34672300  0.85014600  0.38132300  1
  O  O16  1  0.43212800  0.40450000  0.11762800  1
  O  O17  1  0.93211300  0.90450300  0.11763400  1
  O  O18  1  0.56788700  0.26216300  0.88236700  1
  O  O19  1  0.06787600  0.76216900  0.88237100  1
  O  O20  1  0.65122600  0.48283500  0.61979200  1
  O  O21  1  0.15123300  0.98284000  0.61979100  1
  O  O22  1  0.34876600  0.18382700  0.38021800  1
  O  O23  1  0.84876600  0.68382300  0.38020900  1
loop_
_geom_bond_atom_site_label_1
_geom_bond_atom_site_label_2
_geom_bond_distance
_geom_bond_site_symmetry_2
Li0 O18 2.052361 1_554
Li0 O16 2.052381 1_655
Li0 O10 2.096829 1_654
Li0 O8 2.096829 1_555
Li0 O16 2.235740 1_555
Li0 O18 2.235842 1_654
Li1 O17 2.052301 1_555
Li1 O19 2.052424 1_554
Li1 O11 2.096819 1_554
Li1 O9 2.096846 1_555
Li1 O17 2.235775 1_455
Li1 O19 2.235801 1_654
Li2 O8 2.042986 1_555
Li2 O22 2.100142 1_555
Li2 O22 2.115527 1_655
Li2 O6 2.120969 1_555
Li2 O0 2.180993 1_555
Li2 O0 2.378503 1_655
Li3 O9 2.043159 1_555
Li3 O23 2.100171 1_455
Li3 O23 2.115452 1_555
Li3 O7 2.120957 1_555
Li3 O1 2.181124 1_455
Li3 O1 2.378537 1_555
Li4 O11 2.042888 1_545
Li4 O21 2.100080 1_645
Li4 O21 2.115440 1_545
Li4 O4 2.121014 1_555
Li4 O2 2.181089 1_655
Li4 O2 2.378567 1_555
Li5 O10 2.043147 1_555
Li5 O20 2.100197 1_555
Li5 O20 2.115501 1_455
Li5 O5 2.120910 1_555
Li5 O3 2.181131 1_555
Li5 O3 2.378530 1_455
Li6 O18 2.019622 1_555
Li6 O18 2.069025 1_455
Li6 O12 2.121145 1_555
Li6 O2 2.136276 1_555
Li6 O4 2.198896 1_455
Li6 O4 2.237704 1_555
Li7 O19 2.019700 1_655
Li7 O19 2.069159 1_555
Li7 O13 2.121026 1_555
Li7 O3 2.136375 1_555
Li7 O5 2.198955 1_555
Li7 O5 2.237746 1_655
Li8 O16 2.019652 1_555
Li8 O16 2.069131 1_655
Li8 O14 2.121051 1_555
Li8 O1 2.136386 1_555
Li8 O7 2.198912 1_655
Li8 O7 2.237714 1_555
Li9 O17 2.019584 1_455
Li9 O17 2.068987 1_555
Li9 O15 2.121079 1_555
Li9 O0 2.136319 1_565
Li9 O6 2.199060 1_565
Li9 O6 2.237836 1_465
Li10 O16 2.063839 1_555
Li10 O14 2.116898 1_455
Li10 O8 2.142451 1_455
Li10 O14 2.174572 1_555
Li10 O22 2.256708 1_555
Li10 O8 2.471318 1_555
Li11 O17 2.063852 1_555
Li11 O15 2.116839 1_555
Li11 O9 2.142451 1_555
Li11 O15 2.174570 1_655
Li11 O23 2.256689 1_555
Li11 O9 2.471300 1_655
Li12 O18 2.063963 1_555
Li12 O12 2.116852 1_655
Li12 O10 2.142441 1_655
Li12 O12 2.174586 1_555
Li12 O20 2.256483 1_555
Li12 O10 2.471280 1_555
Li13 O19 2.063803 1_555
Li13 O13 2.116925 1_555
Li13 O11 2.142438 1_555
Li13 O13 2.174651 1_455
Li13 O21 2.256661 1_555
Li13 O11 2.471357 1_455
Mn0 O5 1.954590 1_655
Mn0 O7 1.954661 1_555
Mn0 O23 1.967925 1_555
Mn0 O20 1.967988 1_555
Mn0 O7 2.254164 1_655
Mn0 O5 2.254312 1_555
Mn1 O17 1.816877 1_555
Mn1 O11 1.950025 1_554
Mn1 O11 1.958096 1_654
Mn1 O0 1.991560 1_665
Mn1 O0 2.024546 1_565
Mn1 O2 2.050563 1_664
Mn2 O18 1.816833 1_555
Mn2 O8 1.950068 1_556
Mn2 O8 1.958115 1_456
Mn2 O2 1.991479 1_555
Mn2 O2 2.024523 1_655
Mn2 O0 2.050563 1_556
Mn3 O4 1.954742 1_555
Mn3 O14 1.956493 1_555
Mn3 O22 1.965914 1_555
Mn3 O12 1.974077 1_655
Mn3 O12 2.273029 1_555
Mn3 O22 2.273643 1_655
Mn4 O6 1.954670 1_565
Mn4 O13 1.956519 1_555
Mn4 O21 1.965978 1_655
Mn4 O15 1.974083 1_555
Mn4 O15 2.273022 1_655
Mn4 O21 2.273699 1_555
Mn5 O6 1.954579 1_455
Mn5 O4 1.954681 1_555
Mn5 O22 1.967915 1_555
Mn5 O21 1.967925 1_545
Mn5 O4 2.254182 1_455
Mn5 O6 2.254337 1_555
Mn6 O16 1.816785 1_555
Mn6 O10 1.950012 1_554
Mn6 O10 1.958097 1_654
Mn6 O1 1.991450 1_555
Mn6 O1 2.024497 1_455
Mn6 O3 2.050706 1_554
Mn7 O19 1.816789 1_555
Mn7 O9 1.950037 1_556
Mn7 O9 1.958103 1_456
Mn7 O3 1.991424 1_455
Mn7 O3 2.024496 1_555
Mn7 O1 2.050680 1_456
Mn8 O5 1.954752 1_555
Mn8 O15 1.956529 1_555
Mn8 O23 1.966051 1_455
Mn8 O13 1.974007 1_555
Mn8 O13 2.273013 1_455
Mn8 O23 2.273681 1_555
Mn9 O7 1.954806 1_555
Mn9 O12 1.956400 1_555
Mn9 O20 1.965993 1_555
Mn9 O14 1.974031 1_455
Mn9 O14 2.273026 1_555
Mn9 O20 2.273644 1_455
