# generated using pymatgen
data_LuMn2SiC
_symmetry_space_group_name_H-M   'P 1'
_cell_length_a   5.59333293
_cell_length_b   5.59333348
_cell_length_c   6.95397317
_cell_angle_alpha   90.00000000
_cell_angle_beta   90.00000000
_cell_angle_gamma   142.26586576
_symmetry_Int_Tables_number   1
_chemical_formula_structural   LuMn2SiC
_chemical_formula_sum   'Lu2 Mn4 Si2 C2'
_cell_volume   133.14492446
_cell_formula_units_Z   2
loop_
 _symmetry_equiv_pos_site_id
 _symmetry_equiv_pos_as_xyz
  1  'x, y, z'
loop_
 _atom_site_type_symbol
 _atom_site_label
 _atom_site_symmetry_multiplicity
 _atom_site_fract_x
 _atom_site_fract_y
 _atom_site_fract_z
 _atom_site_occupancy
  Lu  Lu0  1  0.54063845  0.45936155  0.25000000  1
  Lu  Lu1  1  0.45936155  0.54063845  0.75000000  1
  Mn  Mn0  1  0.83229752  0.16770248  0.05939611  1
  Mn  Mn1  1  0.16770248  0.83229752  0.94060389  1
  Mn  Mn2  1  0.16770248  0.83229752  0.55939611  1
  Mn  Mn3  1  0.83229752  0.16770248  0.44060389  1
  Si  Si0  1  0.26315485  0.73684515  0.25000000  1
  Si  Si1  1  0.73684515  0.26315485  0.75000000  1
  C  C0  1  0.00000000  0.00000000  0.00000000  1
  C  C1  1  0.00000000  0.00000000  0.50000000  1
loop_
_geom_bond_atom_site_label_1
_geom_bond_atom_site_label_2
_geom_bond_distance
_geom_bond_site_symmetry_2
Lu0 Si0 2.937337 1_555
Lu0 Si0 2.969812 1_655
Lu0 Si0 2.969813 1_545
Lu1 Si1 2.937337 1_555
Lu1 Si1 2.969812 1_455
Lu1 Si1 2.969813 1_565
Mn0 Si0 2.358826 1_545
Mn0 Si0 2.358826 1_655
Mn0 Si1 2.376982 1_554
Mn1 Si1 2.358826 1_565
Mn1 Si1 2.358826 1_455
Mn1 Si0 2.376982 1_556
Mn2 Si1 2.358826 1_565
Mn2 Si1 2.358826 1_455
Mn2 Si0 2.376982 1_555
Mn3 Si0 2.358826 1_545
Mn3 Si0 2.358826 1_655
Mn3 Si1 2.376982 1_555
C0 Mn0 1.822652 1_455
C0 Mn1 1.822652 1_544
C0 Lu0 2.545377 1_555
C0 Lu1 2.545377 1_444
C0 Lu1 2.545377 1_554
C0 Lu0 2.545377 1_445
C1 Mn2 1.822652 1_545
C1 Mn3 1.822652 1_455
C1 Lu0 2.545377 1_555
C1 Lu1 2.545377 1_445
C1 Lu1 2.545377 1_555
C1 Lu0 2.545377 1_445
