# generated using pymatgen
data_FeSiO4
_symmetry_space_group_name_H-M   'P 1'
_cell_length_a   9.98225741
_cell_length_b   9.98225741
_cell_length_c   9.98225741
_cell_angle_alpha   109.47122063
_cell_angle_beta   109.47122063
_cell_angle_gamma   109.47122063
_symmetry_Int_Tables_number   1
_chemical_formula_structural   FeSiO4
_chemical_formula_sum   'Fe12 Si12 O48'
_cell_volume   765.71014785
_cell_formula_units_Z   12
loop_
 _symmetry_equiv_pos_site_id
 _symmetry_equiv_pos_as_xyz
  1  'x, y, z'
loop_
 _atom_site_type_symbol
 _atom_site_label
 _atom_site_symmetry_multiplicity
 _atom_site_fract_x
 _atom_site_fract_y
 _atom_site_fract_z
 _atom_site_occupancy
  Fe  Fe0  1  0.75000000  0.62500000  0.87500000  1
  Fe  Fe1  1  0.25000000  0.87500000  0.62500000  1
  Fe  Fe2  1  0.62500000  0.25000000  0.87500000  1
  Fe  Fe3  1  0.87500000  0.75000000  0.62500000  1
  Fe  Fe4  1  0.87500000  0.62500000  0.25000000  1
  Fe  Fe5  1  0.62500000  0.87500000  0.75000000  1
  Fe  Fe6  1  0.25000000  0.37500000  0.12500000  1
  Fe  Fe7  1  0.75000000  0.12500000  0.37500000  1
  Fe  Fe8  1  0.37500000  0.75000000  0.12500000  1
  Fe  Fe9  1  0.12500000  0.25000000  0.37500000  1
  Fe  Fe10  1  0.12500000  0.37500000  0.75000000  1
  Fe  Fe11  1  0.37500000  0.12500000  0.25000000  1
  Si  Si0  1  0.12500000  0.75000000  0.87500000  1
  Si  Si1  1  0.75000000  0.87500000  0.12500000  1
  Si  Si2  1  0.25000000  0.62500000  0.37500000  1
  Si  Si3  1  0.62500000  0.75000000  0.37500000  1
  Si  Si4  1  0.87500000  0.12500000  0.75000000  1
  Si  Si5  1  0.37500000  0.25000000  0.62500000  1
  Si  Si6  1  0.37500000  0.62500000  0.75000000  1
  Si  Si7  1  0.25000000  0.12500000  0.87500000  1
  Si  Si8  1  0.62500000  0.37500000  0.25000000  1
  Si  Si9  1  0.12500000  0.87500000  0.25000000  1
  Si  Si10  1  0.75000000  0.37500000  0.62500000  1
  Si  Si11  1  0.87500000  0.25000000  0.12500000  1
  O  O0  1  0.59631300  0.90144200  0.36719900  1
  O  O1  1  0.36719900  0.59631300  0.90144200  1
  O  O2  1  0.27088600  0.30512900  0.90368700  1
  O  O3  1  0.46575700  0.59855800  0.19487100  1
  O  O4  1  0.30512900  0.90144200  0.03424300  1
  O  O5  1  0.13280100  0.03424300  0.22911400  1
  O  O6  1  0.36719900  0.27088600  0.46575700  1
  O  O7  1  0.90144200  0.36719900  0.59631300  1
  O  O8  1  0.19487100  0.22911400  0.59631300  1
  O  O9  1  0.46575700  0.36719900  0.27088600  1
  O  O10  1  0.90144200  0.03424300  0.30512900  1
  O  O11  1  0.59855800  0.90368700  0.13280100  1
  O  O12  1  0.90368700  0.13280100  0.59855800  1
  O  O13  1  0.27088600  0.46575700  0.36719900  1
  O  O14  1  0.59631300  0.19487100  0.22911400  1
  O  O15  1  0.22911400  0.59631300  0.19487100  1
  O  O16  1  0.03424300  0.30512900  0.90144200  1
  O  O17  1  0.90368700  0.27088600  0.30512900  1
  O  O18  1  0.03424300  0.22911400  0.13280100  1
  O  O19  1  0.80512900  0.77088600  0.40368700  1
  O  O20  1  0.19487100  0.46575700  0.59855800  1
  O  O21  1  0.59855800  0.19487100  0.46575700  1
  O  O22  1  0.22911400  0.13280100  0.03424300  1
  O  O23  1  0.13280100  0.59855800  0.90368700  1
  O  O24  1  0.40368700  0.09855800  0.63280100  1
  O  O25  1  0.63280100  0.40368700  0.09855800  1
  O  O26  1  0.72911400  0.69487100  0.09631300  1
  O  O27  1  0.53424300  0.40144200  0.80512900  1
  O  O28  1  0.69487100  0.09855800  0.96575700  1
  O  O29  1  0.86719900  0.96575700  0.77088600  1
  O  O30  1  0.63280100  0.72911400  0.53424300  1
  O  O31  1  0.09855800  0.63280100  0.40368700  1
  O  O32  1  0.86719900  0.40144200  0.09631300  1
  O  O33  1  0.77088600  0.86719900  0.96575700  1
  O  O34  1  0.40144200  0.80512900  0.53424300  1
  O  O35  1  0.69487100  0.09631300  0.72911400  1
  O  O36  1  0.80512900  0.53424300  0.40144200  1
  O  O37  1  0.96575700  0.77088600  0.86719900  1
  O  O38  1  0.09631300  0.72911400  0.69487100  1
  O  O39  1  0.96575700  0.69487100  0.09855800  1
  O  O40  1  0.77088600  0.40368700  0.80512900  1
  O  O41  1  0.40368700  0.80512900  0.77088600  1
  O  O42  1  0.72911400  0.53424300  0.63280100  1
  O  O43  1  0.09631300  0.86719900  0.40144200  1
  O  O44  1  0.40144200  0.09631300  0.86719900  1
  O  O45  1  0.09855800  0.96575700  0.69487100  1
  O  O46  1  0.53424300  0.63280100  0.72911400  1
  O  O47  1  0.30512900  0.90368700  0.27088600  1
loop_
_geom_bond_atom_site_label_1
_geom_bond_atom_site_label_2
_geom_bond_distance
_geom_bond_site_symmetry_2
Fe0 O33 2.187986 1_555
Fe0 O42 2.187986 1_555
Fe0 O26 2.187986 1_556
Fe0 O40 2.187986 1_555
Fe0 O39 2.204961 1_556
Fe0 O46 2.204961 1_555
Fe0 O37 2.204961 1_555
Fe0 O27 2.204961 1_555
Fe1 O34 2.187986 1_555
Fe1 O44 2.187986 1_565
Fe1 O31 2.187986 1_555
Fe1 O45 2.187986 1_555
Fe1 O24 2.204961 1_565
Fe1 O41 2.204961 1_555
Fe1 O43 2.204961 1_555
Fe1 O38 2.204961 1_555
Fe2 O27 2.187986 1_555
Fe2 O32 2.187986 1_556
Fe2 O24 2.187986 1_555
Fe2 O28 2.187986 1_555
Fe2 O25 2.204961 1_556
Fe2 O40 2.204961 1_555
Fe2 O44 2.204961 1_555
Fe2 O35 2.204961 1_555
Fe3 O37 2.187986 1_555
Fe3 O30 2.187986 1_555
Fe3 O38 2.187986 1_655
Fe3 O19 2.187986 1_555
Fe3 O45 2.204961 1_655
Fe3 O42 2.204961 1_555
Fe3 O36 2.204961 1_555
Fe3 O29 2.204961 1_555
Fe4 O36 2.187986 1_555
Fe4 O43 2.187986 1_655
Fe4 O25 2.187986 1_555
Fe4 O39 2.187986 1_555
Fe4 O31 2.204961 1_655
Fe4 O19 2.204961 1_555
Fe4 O32 2.204961 1_555
Fe4 O26 2.204961 1_555
Fe5 O29 2.187986 1_555
Fe5 O46 2.187986 1_555
Fe5 O35 2.187986 1_565
Fe5 O41 2.187986 1_555
Fe5 O28 2.204961 1_565
Fe5 O30 2.204961 1_555
Fe5 O33 2.204961 1_555
Fe5 O34 2.204961 1_555
Fe6 O22 2.187986 1_555
Fe6 O2 2.187986 1_554
Fe6 O13 2.187986 1_555
Fe6 O15 2.187986 1_555
Fe6 O3 2.204961 1_555
Fe6 O9 2.204961 1_555
Fe6 O16 2.204961 1_554
Fe6 O18 2.204961 1_555
Fe7 O7 2.187986 1_555
Fe7 O11 2.187986 1_545
Fe7 O10 2.187986 1_555
Fe7 O21 2.187986 1_555
Fe7 O12 2.204961 1_555
Fe7 O17 2.204961 1_555
Fe7 O0 2.204961 1_545
Fe7 O14 2.204961 1_555
Fe8 O0 2.187986 1_555
Fe8 O23 2.187986 1_554
Fe8 O4 2.187986 1_555
Fe8 O3 2.187986 1_555
Fe8 O11 2.204961 1_555
Fe8 O47 2.204961 1_555
Fe8 O1 2.204961 1_554
Fe8 O15 2.204961 1_555
Fe9 O18 2.187986 1_555
Fe9 O6 2.187986 1_555
Fe9 O17 2.187986 1_455
Fe9 O8 2.187986 1_555
Fe9 O20 2.204961 1_555
Fe9 O13 2.204961 1_555
Fe9 O10 2.204961 1_455
Fe9 O5 2.204961 1_555
Fe10 O1 2.187986 1_555
Fe10 O12 2.187986 1_455
Fe10 O16 2.187986 1_555
Fe10 O20 2.187986 1_555
Fe10 O2 2.204961 1_555
Fe10 O23 2.204961 1_555
Fe10 O7 2.204961 1_455
Fe10 O8 2.204961 1_555
Fe11 O5 2.187986 1_555
Fe11 O47 2.187986 1_545
Fe11 O9 2.187986 1_555
Fe11 O14 2.187986 1_555
Fe11 O21 2.204961 1_555
Fe11 O6 2.204961 1_555
Fe11 O4 2.204961 1_545
Fe11 O22 2.204961 1_555
O0 Si3 1.650945 1_555
O1 Si6 1.650945 1_555
O2 Si7 1.650945 1_555
O3 Si3 1.650945 1_555
O4 Si0 1.650945 1_554
O5 Si9 1.650945 1_545
O6 Si5 1.650945 1_555
O7 Si10 1.650945 1_555
O8 Si5 1.650945 1_555
O9 Si8 1.650945 1_555
O10 Si1 1.650945 1_545
O11 Si1 1.650945 1_555
O12 Si4 1.650945 1_555
O13 Si2 1.650945 1_555
O14 Si8 1.650945 1_555
O15 Si2 1.650945 1_555
O16 Si4 1.650945 1_455
O17 Si11 1.650945 1_555
O18 Si11 1.650945 1_455
O19 Si3 1.650945 1_555
O20 Si6 1.650945 1_555
O21 Si10 1.650945 1_555
O22 Si7 1.650945 1_554
O23 Si0 1.650945 1_555
O24 Si5 1.650945 1_555
O25 Si8 1.650945 1_555
O26 Si1 1.650945 1_555
O27 Si5 1.650945 1_555
O28 Si11 1.650945 1_556
O29 Si4 1.650945 1_565
O30 Si3 1.650945 1_555
O31 Si2 1.650945 1_555
O32 Si11 1.650945 1_555
O33 Si1 1.650945 1_556
O34 Si2 1.650945 1_555
O35 Si4 1.650945 1_555
O36 Si8 1.650945 1_555
O37 Si0 1.650945 1_655
O38 Si0 1.650945 1_555
O39 Si9 1.650945 1_655
O40 Si10 1.650945 1_555
O41 Si6 1.650945 1_555
O42 Si10 1.650945 1_555
O43 Si9 1.650945 1_555
O44 Si7 1.650945 1_555
O45 Si7 1.650945 1_565
O46 Si6 1.650945 1_555
O47 Si9 1.650945 1_555
