# generated using pymatgen
data_Li5Cr(P2O7)2
_symmetry_space_group_name_H-M   'P 1'
_cell_length_a   6.98920600
_cell_length_b   8.77385886
_cell_length_c   9.24022433
_cell_angle_alpha   81.16753153
_cell_angle_beta   79.09585324
_cell_angle_gamma   69.58084545
_symmetry_Int_Tables_number   1
_chemical_formula_structural   Li5Cr(P2O7)2
_chemical_formula_sum   'Li10 Cr2 P8 O28'
_cell_volume   519.07499277
_cell_formula_units_Z   2
loop_
 _symmetry_equiv_pos_site_id
 _symmetry_equiv_pos_as_xyz
  1  'x, y, z'
loop_
 _atom_site_type_symbol
 _atom_site_label
 _atom_site_symmetry_multiplicity
 _atom_site_fract_x
 _atom_site_fract_y
 _atom_site_fract_z
 _atom_site_occupancy
  Li  Li0  1  0.31876300  0.17221200  0.26315800  1
  Li  Li1  1  0.25565800  0.25502200  0.56934500  1
  Li  Li2  1  0.75225800  0.27909600  0.09017600  1
  Li  Li3  1  0.05261300  0.52048900  0.14284700  1
  Li  Li4  1  0.42647700  0.50242400  0.33721900  1
  Li  Li5  1  0.57352300  0.49757600  0.66278100  1
  Li  Li6  1  0.94738700  0.47951100  0.85715300  1
  Li  Li7  1  0.24774200  0.72090400  0.90982400  1
  Li  Li8  1  0.74434200  0.74497800  0.43065500  1
  Li  Li9  1  0.68123700  0.82778800  0.73684200  1
  Cr  Cr0  1  0.86954300  0.14256500  0.74568000  1
  Cr  Cr1  1  0.13045700  0.85743500  0.25432000  1
  P  P0  1  0.18124400  0.09572200  0.96555200  1
  P  P1  1  0.70732700  0.09991500  0.44814200  1
  P  P2  1  0.40198000  0.33860700  0.94851500  1
  P  P3  1  0.86571000  0.37903600  0.43016900  1
  P  P4  1  0.13429000  0.62096400  0.56983100  1
  P  P5  1  0.59802000  0.66139300  0.05148500  1
  P  P6  1  0.29267300  0.90008500  0.55185800  1
  P  P7  1  0.81875600  0.90427800  0.03444800  1
  O  O0  1  0.15623200  0.05444300  0.62702000  1
  O  O1  1  0.13705300  0.07979900  0.13743600  1
  O  O2  1  0.74566500  0.06366500  0.09721400  1
  O  O3  1  0.72489200  0.07508500  0.61458000  1
  O  O4  1  0.99611300  0.22552800  0.89297900  1
  O  O5  1  0.48573700  0.16242800  0.41971500  1
  O  O6  1  0.36252300  0.17449600  0.92128600  1
  O  O7  1  0.07413800  0.37078900  0.34113500  1
  O  O8  1  0.42709600  0.33356000  0.10954900  1
  O  O9  1  0.80238200  0.24161800  0.36908200  1
  O  O10  1  0.60095700  0.32414500  0.83615900  1
  O  O11  1  0.87218300  0.33597300  0.59933600  1
  O  O12  1  0.21527400  0.48826800  0.91256500  1
  O  O13  1  0.31116400  0.46008500  0.58782400  1
  O  O14  1  0.68883600  0.53991500  0.41217600  1
  O  O15  1  0.78472600  0.51173200  0.08743500  1
  O  O16  1  0.12781700  0.66402700  0.40066400  1
  O  O17  1  0.39904300  0.67585500  0.16384100  1
  O  O18  1  0.19761800  0.75838200  0.63091800  1
  O  O19  1  0.57290400  0.66644000  0.89045100  1
  O  O20  1  0.92586200  0.62921100  0.65886500  1
  O  O21  1  0.63747700  0.82550400  0.07871400  1
  O  O22  1  0.51426300  0.83757200  0.58028500  1
  O  O23  1  0.00388700  0.77447200  0.10702100  1
  O  O24  1  0.27510800  0.92491500  0.38542000  1
  O  O25  1  0.25433500  0.93633500  0.90278600  1
  O  O26  1  0.86294700  0.92020100  0.86256400  1
  O  O27  1  0.84376800  0.94555700  0.37298000  1
loop_
_geom_bond_atom_site_label_1
_geom_bond_atom_site_label_2
_geom_bond_distance
_geom_bond_site_symmetry_2
Li0 O5 1.998170 1_555
Li0 O8 2.077562 1_555
Li0 O7 2.078172 1_555
Li0 O1 2.277248 1_555
Li0 O24 2.378228 1_545
Li1 O5 1.936419 1_555
Li1 O13 2.005789 1_555
Li1 O0 2.071037 1_555
Li1 O11 2.493153 1_455
Li1 O7 2.557956 1_555
Li2 O2 1.897618 1_555
Li2 O15 2.126836 1_555
Li2 O8 2.130679 1_555
Li2 O4 2.230479 1_554
Li3 O15 2.061260 1_455
Li3 O7 2.081396 1_555
Li3 O23 2.116118 1_555
Li3 O12 2.223830 1_554
Li3 O8 2.547551 1_555
Li4 O17 2.020592 1_555
Li4 O16 2.106752 1_555
Li4 O14 2.218479 1_555
Li4 O13 2.321299 1_555
Li5 O10 2.020592 1_555
Li5 O11 2.106752 1_555
Li5 O13 2.218479 1_555
Li5 O14 2.321299 1_555
Li6 O12 2.061260 1_655
Li6 O20 2.081396 1_555
Li6 O4 2.116118 1_555
Li6 O15 2.223830 1_556
Li6 O19 2.547551 1_555
Li7 O25 1.897618 1_555
Li7 O12 2.126836 1_555
Li7 O19 2.130679 1_555
Li7 O23 2.230479 1_556
Li8 O22 1.936419 1_555
Li8 O14 2.005789 1_555
Li8 O27 2.071037 1_555
Li8 O16 2.493153 1_655
Li8 O20 2.557956 1_555
Li9 O22 1.998170 1_555
Li9 O19 2.077562 1_555
Li9 O20 2.078172 1_555
Li9 O26 2.277248 1_555
Li9 O3 2.378228 1_565
Cr0 O3 1.985293 1_555
Cr0 O11 2.004056 1_555
Cr0 O0 2.040356 1_655
Cr0 O26 2.090885 1_545
Cr0 O4 2.091415 1_555
Cr0 O10 2.118837 1_555
Cr1 O24 1.985293 1_555
Cr1 O16 2.004056 1_555
Cr1 O27 2.040356 1_455
Cr1 O1 2.090885 1_565
Cr1 O23 2.091415 1_555
Cr1 O17 2.118837 1_555
O0 P6 1.537209 1_545
O1 P0 1.553647 1_554
O2 P7 1.480359 1_545
O3 P1 1.541954 1_555
O4 P0 1.576859 1_655
O5 P1 1.511741 1_555
O6 P0 1.605747 1_555
O6 P2 1.620865 1_555
O7 P3 1.515086 1_455
O8 P2 1.523172 1_554
O9 P1 1.623149 1_555
O9 P3 1.626062 1_555
O10 P2 1.548888 1_555
O11 P3 1.556172 1_555
O12 P2 1.540077 1_555
O13 P4 1.528525 1_555
O14 P3 1.528525 1_555
O15 P5 1.540077 1_555
O16 P4 1.556172 1_555
O17 P5 1.548888 1_555
O18 P6 1.623149 1_555
O18 P4 1.626062 1_555
O19 P5 1.523172 1_556
O20 P4 1.515086 1_655
O21 P7 1.605747 1_555
O21 P5 1.620865 1_555
O22 P6 1.511741 1_555
O23 P7 1.576859 1_455
O24 P6 1.541954 1_555
O25 P0 1.480359 1_565
O26 P7 1.553647 1_556
O27 P1 1.537209 1_565
