# generated using pymatgen
data_BaAl2O4
_symmetry_space_group_name_H-M   'P 1'
_cell_length_a   5.26701406
_cell_length_b   5.26701406
_cell_length_c   8.97048926
_cell_angle_alpha   89.43931848
_cell_angle_beta   89.43931848
_cell_angle_gamma   60.27261175
_symmetry_Int_Tables_number   1
_chemical_formula_structural   BaAl2O4
_chemical_formula_sum   'Ba2 Al4 O8'
_cell_volume   216.08985924
_cell_formula_units_Z   2
loop_
 _symmetry_equiv_pos_site_id
 _symmetry_equiv_pos_as_xyz
  1  'x, y, z'
loop_
 _atom_site_type_symbol
 _atom_site_label
 _atom_site_symmetry_multiplicity
 _atom_site_fract_x
 _atom_site_fract_y
 _atom_site_fract_z
 _atom_site_occupancy
  Ba  Ba0  1  0.99957700  0.00125600  0.75024000  1
  Ba  Ba1  1  0.99874400  0.00042300  0.24976000  1
  Al  Al0  1  0.66106500  0.67426200  0.55434000  1
  Al  Al1  1  0.32573800  0.33893500  0.44566000  1
  Al  Al2  1  0.32376500  0.34132100  0.05426400  1
  Al  Al3  1  0.65867900  0.67623500  0.94573600  1
  O  O0  1  0.64072300  0.70338700  0.74957000  1
  O  O1  1  0.29661300  0.35927700  0.25043000  1
  O  O2  1  0.64054800  0.00163300  0.48729600  1
  O  O3  1  0.35534800  0.64465200  0.50000000  1
  O  O4  1  0.99836700  0.35945200  0.51270400  1
  O  O5  1  0.35320500  0.00220600  0.00899400  1
  O  O6  1  0.63699600  0.36300400  0.00000000  1
  O  O7  1  0.99779400  0.64679500  0.99100600  1
loop_
_geom_bond_atom_site_label_1
_geom_bond_atom_site_label_2
_geom_bond_distance
_geom_bond_site_symmetry_2
Ba0 O4 2.830092 1_555
Ba0 O7 2.844004 1_545
Ba0 O3 2.930497 1_645
Ba0 O0 2.934376 1_645
Ba0 O6 2.947576 1_556
Ba0 O5 2.991820 1_656
Ba0 O0 2.995850 1_545
Ba0 O2 3.036946 1_555
Ba0 O0 3.211905 1_555
Ba1 O2 2.830092 1_555
Ba1 O5 2.844004 1_655
Ba1 O3 2.930497 1_645
Ba1 O1 2.934376 1_645
Ba1 O6 2.947576 1_555
Ba1 O7 2.991820 1_544
Ba1 O1 2.995850 1_655
Ba1 O4 3.036946 1_555
Ba1 O1 3.211905 1_555
Al0 O0 1.757094 1_555
Al0 O3 1.766531 1_555
Al0 O4 1.767125 1_555
Al0 O2 1.772756 1_565
Al1 O1 1.757094 1_555
Al1 O3 1.766531 1_555
Al1 O2 1.767125 1_555
Al1 O4 1.772756 1_455
Al2 O1 1.763768 1_555
Al2 O5 1.765640 1_555
Al2 O7 1.766360 1_454
Al2 O6 1.772529 1_555
Al3 O0 1.763768 1_555
Al3 O7 1.765640 1_555
Al3 O5 1.766360 1_566
Al3 O6 1.772529 1_556
