# generated using pymatgen
data_Na2PHO4
_symmetry_space_group_name_H-M   'P 1'
_cell_length_a   6.98350700
_cell_length_b   5.51356900
_cell_length_c   5.52268948
_cell_angle_alpha   63.60917330
_cell_angle_beta   90.00000000
_cell_angle_gamma   90.00000000
_symmetry_Int_Tables_number   1
_chemical_formula_structural   Na2PHO4
_chemical_formula_sum   'Na4 P2 H2 O8'
_cell_volume   190.48456803
_cell_formula_units_Z   2
loop_
 _symmetry_equiv_pos_site_id
 _symmetry_equiv_pos_as_xyz
  1  'x, y, z'
loop_
 _atom_site_type_symbol
 _atom_site_label
 _atom_site_symmetry_multiplicity
 _atom_site_fract_x
 _atom_site_fract_y
 _atom_site_fract_z
 _atom_site_occupancy
  Na  Na0  1  0.25136900  0.74970400  0.61990200  1
  Na  Na1  1  0.75136900  0.25029600  0.38009800  1
  Na  Na2  1  0.00807300  0.01331300  0.00579800  1
  Na  Na3  1  0.50807300  0.98668700  0.99420200  1
  P  P0  1  0.23770700  0.38803300  0.33354300  1
  P  P1  1  0.73770700  0.61196700  0.66645700  1
  H  H0  1  0.47530100  0.45549100  0.04132200  1
  H  H1  1  0.97530100  0.54450900  0.95867800  1
  O  O0  1  0.42787000  0.29783100  0.21707700  1
  O  O1  1  0.92787000  0.70216900  0.78292300  1
  O  O2  1  0.56255100  0.69777500  0.78324700  1
  O  O3  1  0.06255100  0.30222500  0.21675300  1
  O  O4  1  0.24851300  0.69692100  0.22124100  1
  O  O5  1  0.74851300  0.30307900  0.77875900  1
  O  O6  1  0.24981700  0.23337100  0.64067200  1
  O  O7  1  0.74981700  0.76662900  0.35932800  1
loop_
_geom_bond_atom_site_label_1
_geom_bond_atom_site_label_2
_geom_bond_distance
_geom_bond_site_symmetry_2
Na0 O2 2.321357 1_555
Na0 O4 2.345655 1_555
Na0 O1 2.402766 1_455
Na0 O6 2.719681 1_565
Na0 O6 2.797760 1_555
Na1 O3 2.321357 1_655
Na1 O5 2.345655 1_555
Na1 O0 2.402766 1_555
Na1 O7 2.719681 1_545
Na1 O7 2.797760 1_555
Na2 O4 2.330890 1_545
Na2 O5 2.372650 1_454
Na2 O3 2.385227 1_555
Na2 O6 2.492668 1_554
Na2 O7 2.560062 1_445
Na2 O1 2.578544 1_444
Na3 O5 2.330890 1_565
Na3 O4 2.372650 1_556
Na3 O2 2.385227 1_555
Na3 O7 2.492668 1_556
Na3 O6 2.560062 1_565
Na3 O0 2.578544 1_566
H0 O0 1.028305 1_555
H0 O2 1.579420 1_554
H1 O1 1.028305 1_555
H1 O3 1.579420 1_656
O0 P0 1.645912 1_555
O1 P1 1.645912 1_555
O2 P1 1.551564 1_555
O3 P0 1.551564 1_555
O4 P0 1.533564 1_555
O5 P1 1.533564 1_555
O6 P0 1.524963 1_555
O7 P1 1.524963 1_555
