# generated using pymatgen
data_Hg2P2O7
_symmetry_space_group_name_H-M   'P 1'
_cell_length_a   6.69145200
_cell_length_b   6.78893799
_cell_length_c   6.85044073
_cell_angle_alpha   83.49368462
_cell_angle_beta   68.46237427
_cell_angle_gamma   84.95411446
_symmetry_Int_Tables_number   1
_chemical_formula_structural   Hg2P2O7
_chemical_formula_sum   'Hg4 P4 O14'
_cell_volume   287.24535279
_cell_formula_units_Z   2
loop_
 _symmetry_equiv_pos_site_id
 _symmetry_equiv_pos_as_xyz
  1  'x, y, z'
loop_
 _atom_site_type_symbol
 _atom_site_label
 _atom_site_symmetry_multiplicity
 _atom_site_fract_x
 _atom_site_fract_y
 _atom_site_fract_z
 _atom_site_occupancy
  Hg  Hg0  1  0.90379100  0.86448700  0.73400200  1
  Hg  Hg1  1  0.09620900  0.13551300  0.26599800  1
  Hg  Hg2  1  0.73949000  0.60183900  0.28942500  1
  Hg  Hg3  1  0.26051000  0.39816100  0.71057500  1
  P  P0  1  0.76580700  0.36711700  0.78023800  1
  P  P1  1  0.23419300  0.63288300  0.21976200  1
  P  P2  1  0.62791700  0.11204600  0.19096300  1
  P  P3  1  0.37208300  0.88795400  0.80903700  1
  O  O0  1  0.76026300  0.23467000  0.27270500  1
  O  O1  1  0.23973700  0.76533000  0.72729500  1
  O  O2  1  0.86239100  0.52059300  0.86618000  1
  O  O3  1  0.13760900  0.47940700  0.13382000  1
  O  O4  1  0.75176100  0.91500300  0.11461000  1
  O  O5  1  0.24823900  0.08499700  0.88539000  1
  O  O6  1  0.62136500  0.45902400  0.65989800  1
  O  O7  1  0.37863500  0.54097600  0.34010200  1
  O  O8  1  0.39668400  0.08938000  0.34309300  1
  O  O9  1  0.60331600  0.91062000  0.65690700  1
  O  O10  1  0.95295900  0.22829700  0.65117600  1
  O  O11  1  0.04704100  0.77170300  0.34882400  1
  O  O12  1  0.60639600  0.23750300  0.98042600  1
  O  O13  1  0.39360400  0.76249700  0.01957400  1
loop_
_geom_bond_atom_site_label_1
_geom_bond_atom_site_label_2
_geom_bond_distance
_geom_bond_site_symmetry_2
Hg0 O9 2.247439 1_555
Hg0 O1 2.274556 1_655
Hg0 O2 2.407873 1_555
Hg0 O4 2.478807 1_556
Hg0 O10 2.493751 1_565
Hg0 O11 2.586779 1_655
Hg1 O8 2.247439 1_555
Hg1 O0 2.274556 1_455
Hg1 O3 2.407873 1_555
Hg1 O5 2.478807 1_554
Hg1 O11 2.493751 1_545
Hg1 O10 2.586779 1_455
Hg2 O4 2.311383 1_555
Hg2 O7 2.376821 1_555
Hg2 O6 2.471855 1_555
Hg2 O0 2.497598 1_555
Hg2 O3 2.578818 1_655
Hg2 O11 2.620935 1_655
Hg3 O5 2.311383 1_555
Hg3 O6 2.376821 1_555
Hg3 O7 2.471855 1_555
Hg3 O1 2.497598 1_555
Hg3 O2 2.578818 1_455
Hg3 O10 2.620935 1_455
O0 P2 1.546058 1_555
O1 P3 1.546058 1_555
O2 P0 1.544921 1_555
O3 P1 1.544921 1_555
O4 P2 1.547615 1_565
O5 P3 1.547615 1_545
O6 P0 1.538006 1_555
O7 P1 1.538006 1_555
O8 P2 1.524943 1_555
O9 P3 1.524943 1_555
O10 P0 1.551278 1_555
O11 P1 1.551278 1_555
O12 P0 1.615669 1_555
O12 P2 1.636717 1_556
O13 P1 1.615669 1_555
O13 P3 1.636717 1_554
