# generated using pymatgen
data_Dy5B3O13
_symmetry_space_group_name_H-M   'P 1'
_cell_length_a   8.95489427
_cell_length_b   8.95489427
_cell_length_c   6.74963000
_cell_angle_alpha   90.00000000
_cell_angle_beta   90.00000000
_cell_angle_gamma   120.00000197
_symmetry_Int_Tables_number   1
_chemical_formula_structural   Dy5B3O13
_chemical_formula_sum   'Dy10 B6 O26'
_cell_volume   468.73945873
_cell_formula_units_Z   2
loop_
 _symmetry_equiv_pos_site_id
 _symmetry_equiv_pos_as_xyz
  1  'x, y, z'
loop_
 _atom_site_type_symbol
 _atom_site_label
 _atom_site_symmetry_multiplicity
 _atom_site_fract_x
 _atom_site_fract_y
 _atom_site_fract_z
 _atom_site_occupancy
  Dy  Dy0  1  0.33333300  0.66666700  0.50164800  1
  Dy  Dy1  1  0.66666700  0.33333300  0.49835200  1
  Dy  Dy2  1  0.66666700  0.33333300  0.00164800  1
  Dy  Dy3  1  0.33333300  0.66666700  0.99835200  1
  Dy  Dy4  1  0.25093400  0.23986700  0.75000000  1
  Dy  Dy5  1  0.74906600  0.76013300  0.25000000  1
  Dy  Dy6  1  0.76013300  0.01106800  0.75000000  1
  Dy  Dy7  1  0.23986700  0.98893200  0.25000000  1
  Dy  Dy8  1  0.98893200  0.74906600  0.75000000  1
  Dy  Dy9  1  0.01106800  0.25093400  0.25000000  1
  B  B0  1  0.03039800  0.39960600  0.75000000  1
  B  B1  1  0.96960200  0.60039400  0.25000000  1
  B  B2  1  0.60039400  0.63079200  0.75000000  1
  B  B3  1  0.39960600  0.36920800  0.25000000  1
  B  B4  1  0.36920800  0.96960200  0.75000000  1
  B  B5  1  0.63079200  0.03039800  0.25000000  1
  O  O0  1  0.09014100  0.34632700  0.57117500  1
  O  O1  1  0.90985900  0.65367300  0.42882500  1
  O  O2  1  0.65367300  0.74381400  0.57117500  1
  O  O3  1  0.90985900  0.65367300  0.07117500  1
  O  O4  1  0.34632700  0.25618600  0.42882500  1
  O  O5  1  0.09014100  0.34632700  0.92882500  1
  O  O6  1  0.25618600  0.90985900  0.57117500  1
  O  O7  1  0.34632700  0.25618600  0.07117500  1
  O  O8  1  0.74381400  0.09014100  0.42882500  1
  O  O9  1  0.65367300  0.74381400  0.92882500  1
  O  O10  1  0.74381400  0.09014100  0.07117500  1
  O  O11  1  0.25618600  0.90985900  0.92882500  1
  O  O12  1  0.48218500  0.15714300  0.75000000  1
  O  O13  1  0.51781500  0.84285700  0.25000000  1
  O  O14  1  0.84285700  0.32504200  0.75000000  1
  O  O15  1  0.15714300  0.67495800  0.25000000  1
  O  O16  1  0.67495800  0.51781500  0.75000000  1
  O  O17  1  0.32504200  0.48218500  0.25000000  1
  O  O18  1  0.00000000  0.00000000  0.75000000  1
  O  O19  1  0.00000000  0.00000000  0.25000000  1
  O  O20  1  0.12544100  0.59057600  0.75000000  1
  O  O21  1  0.87455900  0.40942400  0.25000000  1
  O  O22  1  0.40942400  0.53486500  0.75000000  1
  O  O23  1  0.59057600  0.46513500  0.25000000  1
  O  O24  1  0.46513500  0.87455900  0.75000000  1
  O  O25  1  0.53486500  0.12544100  0.25000000  1
loop_
_geom_bond_atom_site_label_1
_geom_bond_atom_site_label_2
_geom_bond_distance
_geom_bond_site_symmetry_2
Dy0 O20 2.339114 1_555
Dy0 O24 2.339115 1_555
Dy0 O22 2.339120 1_555
Dy0 O15 2.344567 1_555
Dy0 O13 2.344571 1_555
Dy0 O17 2.344574 1_555
Dy0 O6 2.635263 1_555
Dy0 O0 2.635269 1_555
Dy0 O2 2.635272 1_555
Dy1 O21 2.339114 1_555
Dy1 O25 2.339115 1_555
Dy1 O23 2.339120 1_555
Dy1 O14 2.344567 1_555
Dy1 O12 2.344571 1_555
Dy1 O16 2.344574 1_555
Dy1 O8 2.635263 1_555
Dy1 O1 2.635269 1_555
Dy1 O4 2.635272 1_555
Dy2 O21 2.339114 1_555
Dy2 O25 2.339115 1_555
Dy2 O23 2.339120 1_555
Dy2 O14 2.344567 1_554
Dy2 O12 2.344571 1_554
Dy2 O16 2.344574 1_554
Dy2 O10 2.635263 1_555
Dy2 O3 2.635269 1_555
Dy2 O7 2.635272 1_555
Dy3 O20 2.339114 1_555
Dy3 O24 2.339115 1_555
Dy3 O22 2.339120 1_555
Dy3 O15 2.344567 1_556
Dy3 O13 2.344571 1_556
Dy3 O17 2.344574 1_556
Dy3 O11 2.635263 1_555
Dy3 O5 2.635269 1_555
Dy3 O9 2.635272 1_555
Dy4 O18 2.199211 1_555
Dy4 O22 2.289875 1_555
Dy4 O7 2.307737 1_556
Dy4 O4 2.307737 1_555
Dy4 O5 2.410741 1_555
Dy4 O0 2.410741 1_555
Dy4 O12 2.524110 1_555
Dy5 O19 2.199211 1_665
Dy5 O23 2.289875 1_555
Dy5 O9 2.307737 1_554
Dy5 O2 2.307737 1_555
Dy5 O1 2.410741 1_555
Dy5 O3 2.410741 1_555
Dy5 O13 2.524110 1_555
Dy6 O18 2.199216 1_655
Dy6 O24 2.289874 1_545
Dy6 O10 2.307734 1_556
Dy6 O8 2.307734 1_555
Dy6 O9 2.410748 1_545
Dy6 O2 2.410748 1_545
Dy6 O14 2.524101 1_555
Dy7 O19 2.199216 1_565
Dy7 O25 2.289874 1_565
Dy7 O11 2.307734 1_554
Dy7 O6 2.307734 1_555
Dy7 O4 2.410748 1_565
Dy7 O7 2.410748 1_565
Dy7 O15 2.524101 1_555
Dy8 O18 2.199207 1_665
Dy8 O20 2.289882 1_655
Dy8 O3 2.307736 1_556
Dy8 O1 2.307736 1_555
Dy8 O11 2.410747 1_655
Dy8 O6 2.410747 1_655
Dy8 O16 2.524103 1_555
Dy9 O19 2.199207 1_555
Dy9 O21 2.289882 1_455
Dy9 O0 2.307736 1_555
Dy9 O5 2.307736 1_554
Dy9 O8 2.410747 1_455
Dy9 O10 2.410747 1_455
Dy9 O17 2.524103 1_555
B0 O14 1.464546 1_455
B0 O20 1.481009 1_555
B0 O5 1.491963 1_555
B0 O0 1.491963 1_555
B1 O15 1.464546 1_655
B1 O21 1.481009 1_555
B1 O1 1.491963 1_555
B1 O3 1.491963 1_555
B2 O16 1.464546 1_555
B2 O22 1.481009 1_555
B2 O2 1.491963 1_555
B2 O9 1.491963 1_555
B3 O17 1.464546 1_555
B3 O23 1.481009 1_555
B3 O4 1.491963 1_555
B3 O7 1.491963 1_555
B4 O12 1.464546 1_565
B4 O24 1.481009 1_555
B4 O6 1.491963 1_555
B4 O11 1.491963 1_555
B5 O13 1.464546 1_545
B5 O25 1.481009 1_555
B5 O8 1.491963 1_555
B5 O10 1.491963 1_555
