# generated using pymatgen
data_SrEuZrFeO6
_symmetry_space_group_name_H-M   'P 1'
_cell_length_a   8.12165172
_cell_length_b   8.04551196
_cell_length_c   8.08207616
_cell_angle_alpha   90.00000000
_cell_angle_beta   90.00000000
_cell_angle_gamma   90.00000000
_symmetry_Int_Tables_number   1
_chemical_formula_structural   SrEuZrFeO6
_chemical_formula_sum   'Sr4 Eu4 Zr4 Fe4 O24'
_cell_volume   528.10585827
_cell_formula_units_Z   4
loop_
 _symmetry_equiv_pos_site_id
 _symmetry_equiv_pos_as_xyz
  1  'x, y, z'
loop_
 _atom_site_type_symbol
 _atom_site_label
 _atom_site_symmetry_multiplicity
 _atom_site_fract_x
 _atom_site_fract_y
 _atom_site_fract_z
 _atom_site_occupancy
  Sr  Sr0  1  -0.00000000  0.50000000  0.50000000  1
  Sr  Sr1  1  0.50000000  -0.00000000  0.50000000  1
  Sr  Sr2  1  0.50000000  0.50000000  0.00000000  1
  Sr  Sr3  1  0.50000000  -0.00000000  -0.00000000  1
  Eu  Eu0  1  0.00000000  0.50000000  0.00000000  1
  Eu  Eu1  1  -0.00000000  -0.00000000  0.50000000  1
  Eu  Eu2  1  -0.00000000  -0.00000000  0.00000000  1
  Eu  Eu3  1  0.50000000  0.50000000  0.50000000  1
  Zr  Zr0  1  0.25180863  0.24957623  0.25005255  1
  Zr  Zr1  1  0.74819137  0.75042377  0.25005255  1
  Zr  Zr2  1  0.74819137  0.24957623  0.74994745  1
  Zr  Zr3  1  0.25180863  0.75042377  0.74994745  1
  Fe  Fe0  1  0.74857293  0.75038366  0.74971700  1
  Fe  Fe1  1  0.25142707  0.24961634  0.74971700  1
  Fe  Fe2  1  0.25142707  0.75038366  0.25028300  1
  Fe  Fe3  1  0.74857293  0.24961634  0.25028300  1
  O  O0  1  0.99632446  0.22885389  0.26697546  1
  O  O1  1  0.00367554  0.77114611  0.26697546  1
  O  O2  1  0.00367554  0.22885389  0.73302454  1
  O  O3  1  0.99632446  0.77114611  0.73302454  1
  O  O4  1  0.26445830  0.99584885  0.23064834  1
  O  O5  1  0.26445830  0.00415115  0.76935166  1
  O  O6  1  0.73554170  0.00415115  0.23064834  1
  O  O7  1  0.73554170  0.99584885  0.76935166  1
  O  O8  1  0.22637188  0.26903705  0.99609366  1
  O  O9  1  0.77362812  0.26903705  0.00390634  1
  O  O10  1  0.22637188  0.73096295  0.00390634  1
  O  O11  1  0.77362812  0.73096295  0.99609366  1
  O  O12  1  0.50349127  0.26980670  0.23427906  1
  O  O13  1  0.49650873  0.73019330  0.23427906  1
  O  O14  1  0.49650873  0.26980670  0.76572094  1
  O  O15  1  0.50349127  0.73019330  0.76572094  1
  O  O16  1  0.23196976  0.50423925  0.26753645  1
  O  O17  1  0.23196976  0.49576075  0.73246355  1
  O  O18  1  0.76803024  0.49576075  0.26753645  1
  O  O19  1  0.76803024  0.50423925  0.73246355  1
  O  O20  1  0.26795056  0.23333127  0.50385651  1
  O  O21  1  0.73204944  0.23333127  0.49614349  1
  O  O22  1  0.26795056  0.76666873  0.49614349  1
  O  O23  1  0.73204944  0.76666873  0.50385651  1
loop_
_geom_bond_atom_site_label_1
_geom_bond_atom_site_label_2
_geom_bond_distance
_geom_bond_site_symmetry_2
Eu0 O10 2.614210 1_555
Eu0 O11 2.614210 1_454
Eu0 O8 2.614210 1_554
Eu0 O9 2.614210 1_455
Eu0 O18 2.868076 1_455
Eu0 O16 2.868076 1_555
Eu0 O17 2.868076 1_554
Eu0 O19 2.868076 1_454
Eu0 O2 3.068487 1_554
Eu0 O3 3.068487 1_454
Eu0 O1 3.068487 1_555
Eu0 O0 3.068487 1_455
Eu1 O1 2.634005 1_545
Eu1 O0 2.634005 1_455
Eu1 O2 2.634005 1_555
Eu1 O3 2.634005 1_445
Eu1 O23 2.874189 1_445
Eu1 O21 2.874189 1_455
Eu1 O22 2.874189 1_545
Eu1 O20 2.874189 1_555
Eu1 O7 3.058318 1_445
Eu1 O6 3.058318 1_455
Eu1 O5 3.058318 1_555
Eu1 O4 3.058318 1_545
Eu2 O1 2.836692 1_545
Eu2 O0 2.836692 1_455
Eu2 O3 2.836692 1_444
Eu2 O2 2.836692 1_554
Eu2 O8 2.840135 1_554
Eu2 O9 2.840135 1_455
Eu2 O11 2.840135 1_444
Eu2 O10 2.840135 1_545
Eu2 O5 2.844162 1_554
Eu2 O4 2.844162 1_545
Eu2 O7 2.844162 1_444
Eu2 O6 2.844162 1_455
Eu3 O15 2.835997 1_555
Eu3 O13 2.835997 1_555
Eu3 O12 2.835997 1_555
Eu3 O14 2.835997 1_555
Eu3 O21 2.855853 1_555
Eu3 O22 2.855853 1_555
Eu3 O20 2.855853 1_555
Eu3 O23 2.855853 1_555
Eu3 O19 2.875705 1_555
Eu3 O17 2.875705 1_555
Eu3 O18 2.875705 1_555
Eu3 O16 2.875705 1_555
Fe0 O7 1.984083 1_555
Fe0 O19 1.991541 1_555
Fe0 O23 1.995895 1_555
Fe0 O15 2.001270 1_555
Fe0 O11 2.007695 1_555
Fe0 O3 2.023576 1_555
Fe1 O5 1.984083 1_555
Fe1 O17 1.991541 1_555
Fe1 O20 1.995895 1_555
Fe1 O14 2.001270 1_555
Fe1 O8 2.007695 1_555
Fe1 O2 2.023576 1_555
Fe2 O4 1.984083 1_555
Fe2 O16 1.991541 1_555
Fe2 O22 1.995895 1_555
Fe2 O13 2.001270 1_555
Fe2 O10 2.007695 1_555
Fe2 O1 2.023576 1_555
Fe3 O6 1.984083 1_555
Fe3 O18 1.991541 1_555
Fe3 O21 1.995895 1_555
Fe3 O12 2.001270 1_555
Fe3 O9 2.007695 1_555
Fe3 O0 2.023576 1_555
O0 Zr0 2.086129 1_655
O0 Sr0 2.882148 1_655
O1 Zr1 2.086129 1_455
O1 Sr0 2.882148 1_555
O2 Zr2 2.086129 1_455
O2 Sr0 2.882148 1_555
O3 Zr3 2.086129 1_655
O3 Sr0 2.882148 1_655
O4 Zr0 2.049958 1_565
O4 Sr3 2.671249 1_565
O4 Sr1 2.898210 1_565
O5 Zr3 2.049958 1_545
O5 Sr3 2.671249 1_556
O5 Sr1 2.898210 1_555
O6 Zr1 2.049958 1_545
O6 Sr3 2.671249 1_555
O6 Sr1 2.898210 1_555
O7 Zr2 2.049958 1_565
O7 Sr3 2.671249 1_566
O7 Sr1 2.898210 1_565
O8 Zr0 2.068819 1_556
O8 Sr2 2.897004 1_556
O8 Sr3 3.102403 1_556
O9 Zr2 2.068819 1_554
O9 Sr2 2.897004 1_555
O9 Sr3 3.102403 1_555
O10 Zr3 2.068819 1_554
O10 Sr2 2.897004 1_555
O10 Sr3 3.102403 1_565
O11 Zr1 2.068819 1_556
O11 Sr2 2.897004 1_556
O11 Sr3 3.102403 1_566
O12 Zr0 2.054508 1_555
O12 Sr2 2.648771 1_555
O12 Sr3 2.880639 1_555
O12 Sr1 3.053682 1_555
O13 Zr1 2.054508 1_555
O13 Sr2 2.648771 1_555
O13 Sr3 2.880639 1_565
O13 Sr1 3.053682 1_565
O14 Zr2 2.054508 1_555
O14 Sr2 2.648771 1_556
O14 Sr3 2.880639 1_556
O14 Sr1 3.053682 1_555
O15 Zr3 2.054508 1_555
O15 Sr2 2.648771 1_556
O15 Sr3 2.880639 1_566
O15 Sr1 3.053682 1_565
O16 Zr0 2.060072 1_555
O16 Sr0 2.660898 1_555
O16 Sr2 3.068413 1_555
O17 Zr3 2.060072 1_555
O17 Sr0 2.660898 1_555
O17 Sr2 3.068413 1_556
O18 Zr1 2.060072 1_555
O18 Sr0 2.660898 1_655
O18 Sr2 3.068413 1_555
O19 Zr2 2.060072 1_555
O19 Sr0 2.660898 1_655
O19 Sr2 3.068413 1_556
O20 Zr0 2.059599 1_555
O20 Sr1 2.660249 1_555
O20 Sr0 3.056131 1_555
O21 Zr2 2.059599 1_555
O21 Sr1 2.660249 1_555
O21 Sr0 3.056131 1_655
O22 Zr3 2.059599 1_555
O22 Sr1 2.660249 1_565
O22 Sr0 3.056131 1_555
O23 Zr1 2.059599 1_555
O23 Sr1 2.660249 1_565
O23 Sr0 3.056131 1_655
