# generated using pymatgen
data_Cu(RhSe2)2
_symmetry_space_group_name_H-M   'P 1'
_cell_length_a   7.28606109
_cell_length_b   7.28606197
_cell_length_c   7.28606254
_cell_angle_alpha   60.00000204
_cell_angle_beta   59.99999803
_cell_angle_gamma   60.00000005
_symmetry_Int_Tables_number   1
_chemical_formula_structural   Cu(RhSe2)2
_chemical_formula_sum   'Cu2 Rh4 Se8'
_cell_volume   273.50392681
_cell_formula_units_Z   2
loop_
 _symmetry_equiv_pos_site_id
 _symmetry_equiv_pos_as_xyz
  1  'x, y, z'
loop_
 _atom_site_type_symbol
 _atom_site_label
 _atom_site_symmetry_multiplicity
 _atom_site_fract_x
 _atom_site_fract_y
 _atom_site_fract_z
 _atom_site_occupancy
  Cu  Cu0  1  0.87500000  0.87500000  0.87500000  1
  Cu  Cu1  1  0.12500000  0.12500000  0.12500000  1
  Rh  Rh0  1  0.50000000  0.50000000  0.50000000  1
  Rh  Rh1  1  0.50000000  0.00000000  0.50000000  1
  Rh  Rh2  1  0.00000000  0.50000000  0.50000000  1
  Rh  Rh3  1  0.50000000  0.50000000  -0.00000000  1
  Se  Se0  1  0.25893537  0.25893537  0.72319488  1
  Se  Se1  1  0.74106463  0.74106463  0.74106463  1
  Se  Se2  1  0.74106463  0.74106463  0.27680512  1
  Se  Se3  1  0.25893537  0.72319488  0.25893537  1
  Se  Se4  1  0.25893537  0.25893537  0.25893537  1
  Se  Se5  1  0.27680512  0.74106463  0.74106463  1
  Se  Se6  1  0.74106463  0.27680512  0.74106463  1
  Se  Se7  1  0.72319488  0.25893537  0.25893537  1
loop_
_geom_bond_atom_site_label_1
_geom_bond_atom_site_label_2
_geom_bond_distance
_geom_bond_site_symmetry_2
Cu0 Se5 2.390356 1_655
Cu0 Se6 2.390357 1_565
Cu0 Se2 2.390357 1_556
Cu0 Se1 2.390362 1_555
Cu1 Se7 2.390356 1_455
Cu1 Se3 2.390357 1_545
Cu1 Se0 2.390357 1_554
Cu1 Se4 2.390362 1_555
Rh0 Se2 2.487351 1_555
Rh0 Se0 2.487351 1_555
Rh0 Se6 2.487351 1_555
Rh0 Se3 2.487351 1_555
Rh0 Se7 2.487351 1_555
Rh0 Se5 2.487351 1_555
Rh1 Se1 2.487352 1_545
Rh1 Se4 2.487352 1_555
Rh1 Se7 2.487357 1_555
Rh1 Se5 2.487357 1_545
Rh1 Se2 2.487357 1_545
Rh1 Se0 2.487357 1_555
Rh2 Se1 2.487352 1_455
Rh2 Se4 2.487352 1_555
Rh2 Se6 2.487357 1_455
Rh2 Se3 2.487357 1_555
Rh2 Se2 2.487357 1_455
Rh2 Se0 2.487357 1_555
Rh3 Se1 2.487352 1_554
Rh3 Se4 2.487352 1_555
Rh3 Se6 2.487357 1_554
Rh3 Se3 2.487357 1_555
Rh3 Se7 2.487357 1_555
Rh3 Se5 2.487357 1_554
