# generated using pymatgen
data_SrMg6Zn
_symmetry_space_group_name_H-M   'P 1'
_cell_length_a   5.08969500
_cell_length_b   6.23193200
_cell_length_c   12.96838200
_cell_angle_alpha   90.00000000
_cell_angle_beta   90.00000000
_cell_angle_gamma   90.00000000
_symmetry_Int_Tables_number   1
_chemical_formula_structural   SrMg6Zn
_chemical_formula_sum   'Sr2 Mg12 Zn2'
_cell_volume   411.33935109
_cell_formula_units_Z   2
loop_
 _symmetry_equiv_pos_site_id
 _symmetry_equiv_pos_as_xyz
  1  'x, y, z'
loop_
 _atom_site_type_symbol
 _atom_site_label
 _atom_site_symmetry_multiplicity
 _atom_site_fract_x
 _atom_site_fract_y
 _atom_site_fract_z
 _atom_site_occupancy
  Sr  Sr0  1  0.50000000  0.50000000  0.19700000  1
  Sr  Sr1  1  0.50000000  0.00000000  0.69700000  1
  Mg  Mg0  1  0.50000000  0.24298300  0.43560200  1
  Mg  Mg1  1  0.50000000  0.75701700  0.43560200  1
  Mg  Mg2  1  0.00000000  0.75387900  0.07336700  1
  Mg  Mg3  1  0.00000000  0.24612100  0.07336700  1
  Mg  Mg4  1  0.00000000  0.00000000  0.30194600  1
  Mg  Mg5  1  0.00000000  0.50000000  0.36346400  1
  Mg  Mg6  1  0.50000000  0.74298300  0.93560200  1
  Mg  Mg7  1  0.50000000  0.25701700  0.93560200  1
  Mg  Mg8  1  0.00000000  0.25387900  0.57336700  1
  Mg  Mg9  1  0.00000000  0.74612100  0.57336700  1
  Mg  Mg10  1  0.00000000  0.50000000  0.80194600  1
  Mg  Mg11  1  0.00000000  0.00000000  0.86346400  1
  Zn  Zn0  1  0.50000000  0.00000000  0.11964700  1
  Zn  Zn1  1  0.50000000  0.50000000  0.61964700  1
loop_
_geom_bond_atom_site_label_1
_geom_bond_atom_site_label_2
_geom_bond_distance
_geom_bond_site_symmetry_2
Sr0 Zn0 3.273460 1_555
Sr0 Zn0 3.273460 1_565
Sr1 Zn1 3.273460 1_555
Sr1 Zn1 3.273460 1_545
Mg0 Zn1 2.874393 1_555
Mg0 Mg8 3.110106 1_555
Mg0 Mg8 3.110106 1_655
Mg0 Mg5 3.149114 1_655
Mg0 Mg5 3.149114 1_555
Mg0 Mg4 3.431260 1_655
Mg0 Mg4 3.431260 1_555
Mg0 Sr0 3.484259 1_555
Mg0 Sr1 3.712741 1_555
Mg1 Zn1 2.874393 1_555
Mg1 Mg9 3.110106 1_555
Mg1 Mg9 3.110106 1_655
Mg1 Mg5 3.149114 1_655
Mg1 Mg5 3.149114 1_555
Mg1 Mg4 3.431260 1_665
Mg1 Mg4 3.431260 1_565
Mg1 Sr0 3.484259 1_555
Mg1 Sr1 3.712741 1_565
Mg2 Zn0 3.031342 1_465
Mg2 Zn0 3.031342 1_565
Mg2 Mg3 3.067619 1_565
Mg2 Mg6 3.110106 1_454
Mg2 Mg6 3.110106 1_554
Mg2 Mg3 3.164313 1_555
Mg2 Mg4 3.337611 1_565
Mg2 Sr0 3.398544 1_555
Mg2 Sr0 3.398544 1_455
Mg3 Zn0 3.031342 1_455
Mg3 Zn0 3.031342 1_555
Mg3 Mg7 3.110106 1_554
Mg3 Mg7 3.110106 1_454
Mg3 Mg4 3.337611 1_555
Mg3 Sr0 3.398544 1_455
Mg3 Sr0 3.398544 1_555
Mg4 Mg5 3.216475 1_545
Mg4 Mg5 3.216475 1_555
Mg5 Mg8 3.124486 1_555
Mg5 Mg9 3.124486 1_555
Mg5 Sr0 3.337144 1_455
Mg5 Sr0 3.337144 1_555
Mg6 Zn0 2.874393 1_566
Mg6 Sr1 3.484259 1_565
Mg6 Sr0 3.712741 1_556
Mg7 Zn0 2.874393 1_556
Mg7 Sr1 3.484259 1_555
Mg7 Sr0 3.712741 1_556
Mg8 Zn1 3.031342 1_455
Mg8 Zn1 3.031342 1_555
Mg8 Mg9 3.067619 1_555
Mg8 Mg9 3.164313 1_545
Mg8 Sr1 3.398544 1_455
Mg8 Sr1 3.398544 1_555
Mg9 Zn1 3.031342 1_455
Mg9 Zn1 3.031342 1_555
Mg9 Sr1 3.398544 1_565
Mg9 Sr1 3.398544 1_465
Mg10 Mg11 3.216475 1_555
Mg10 Mg11 3.216475 1_565
Mg10 Mg8 3.337611 1_555
Mg10 Mg9 3.337611 1_555
Mg10 Mg6 3.431260 1_455
Mg10 Mg7 3.431260 1_555
Mg10 Mg6 3.431260 1_555
Mg10 Mg7 3.431260 1_455
Mg11 Mg3 3.124486 1_556
Mg11 Mg2 3.124486 1_546
Mg11 Mg6 3.149114 1_545
Mg11 Mg7 3.149114 1_455
Mg11 Mg7 3.149114 1_555
Mg11 Mg6 3.149114 1_445
Mg11 Sr1 3.337144 1_455
Mg11 Sr1 3.337144 1_555
