# generated using pymatgen
data_CaU2S5
_symmetry_space_group_name_H-M   'P 1'
_cell_length_a   7.28218400
_cell_length_b   7.80216900
_cell_length_c   11.85082500
_cell_angle_alpha   90.00000000
_cell_angle_beta   90.00000000
_cell_angle_gamma   90.00000000
_symmetry_Int_Tables_number   1
_chemical_formula_structural   CaU2S5
_chemical_formula_sum   'Ca4 U8 S20'
_cell_volume   673.32631243
_cell_formula_units_Z   4
loop_
 _symmetry_equiv_pos_site_id
 _symmetry_equiv_pos_as_xyz
  1  'x, y, z'
loop_
 _atom_site_type_symbol
 _atom_site_label
 _atom_site_symmetry_multiplicity
 _atom_site_fract_x
 _atom_site_fract_y
 _atom_site_fract_z
 _atom_site_occupancy
  Ca  Ca0  1  0.57230900  0.75000000  0.50657600  1
  Ca  Ca1  1  0.42769100  0.25000000  0.49342400  1
  Ca  Ca2  1  0.07230900  0.25000000  0.99342400  1
  Ca  Ca3  1  0.92769100  0.75000000  0.00657600  1
  U  U0  1  0.51168000  0.49854500  0.81878700  1
  U  U1  1  0.48832000  0.50145500  0.18121300  1
  U  U2  1  0.01168000  0.50145500  0.68121300  1
  U  U3  1  0.48832000  0.99854500  0.18121300  1
  U  U4  1  0.98832000  0.49854500  0.31878700  1
  U  U5  1  0.51168000  0.00145500  0.81878700  1
  U  U6  1  0.98832000  0.00145500  0.31878700  1
  U  U7  1  0.01168000  0.99854500  0.68121300  1
  S  S0  1  0.79497800  0.75000000  0.78681400  1
  S  S1  1  0.20502200  0.25000000  0.21318600  1
  S  S2  1  0.29497800  0.25000000  0.71318600  1
  S  S3  1  0.70502200  0.75000000  0.28681400  1
  S  S4  1  0.32297200  0.75000000  0.68705500  1
  S  S5  1  0.67702800  0.25000000  0.31294500  1
  S  S6  1  0.82297200  0.25000000  0.81294500  1
  S  S7  1  0.17702800  0.75000000  0.18705500  1
  S  S8  1  0.97584500  0.75000000  0.50288500  1
  S  S9  1  0.02415500  0.25000000  0.49711500  1
  S  S10  1  0.47584500  0.25000000  0.99711500  1
  S  S11  1  0.52415500  0.75000000  0.00288500  1
  S  S12  1  0.66667500  0.04155400  0.61312600  1
  S  S13  1  0.33332500  0.95844600  0.38687400  1
  S  S14  1  0.16667500  0.95844600  0.88687400  1
  S  S15  1  0.33332500  0.54155400  0.38687400  1
  S  S16  1  0.83332500  0.04155400  0.11312600  1
  S  S17  1  0.66667500  0.45844600  0.61312600  1
  S  S18  1  0.83332500  0.45844600  0.11312600  1
  S  S19  1  0.16667500  0.54155400  0.88687400  1
loop_
_geom_bond_atom_site_label_1
_geom_bond_atom_site_label_2
_geom_bond_distance
_geom_bond_site_symmetry_2
Ca0 S12 2.690940 1_565
Ca0 S17 2.690940 1_555
Ca0 S13 2.772367 1_555
Ca0 S15 2.772367 1_555
Ca0 S3 2.777896 1_555
Ca0 S4 2.805602 1_555
Ca0 S8 2.938949 1_555
Ca1 S15 2.690940 1_555
Ca1 S13 2.690940 1_545
Ca1 S17 2.772367 1_555
Ca1 S12 2.772367 1_555
Ca1 S2 2.777896 1_555
Ca1 S5 2.805602 1_555
Ca1 S9 2.938949 1_555
Ca2 S19 2.690940 1_555
Ca2 S14 2.690940 1_545
Ca2 S18 2.772367 1_456
Ca2 S16 2.772367 1_456
Ca2 S1 2.777896 1_556
Ca2 S6 2.805602 1_455
Ca2 S10 2.938949 1_555
Ca3 S16 2.690940 1_565
Ca3 S18 2.690940 1_555
Ca3 S14 2.772367 1_654
Ca3 S19 2.772367 1_654
Ca3 S0 2.777896 1_554
Ca3 S7 2.805602 1_655
Ca3 S11 2.938949 1_555
S0 U7 2.795871 1_655
S0 U2 2.795871 1_655
S0 U5 2.872052 1_565
S0 U0 2.872052 1_555
S1 U4 2.795871 1_455
S1 U6 2.795871 1_455
S1 U1 2.872052 1_555
S1 U3 2.872052 1_545
S2 U0 2.795871 1_555
S2 U5 2.795871 1_555
S2 U2 2.872052 1_555
S2 U7 2.872052 1_545
S3 U3 2.795871 1_555
S3 U1 2.795871 1_555
S3 U6 2.872052 1_565
S3 U4 2.872052 1_555
S4 U5 2.859127 1_565
S4 U0 2.859127 1_555
S4 U7 2.983961 1_555
S4 U2 2.983961 1_555
S5 U1 2.859127 1_555
S5 U3 2.859127 1_545
S5 U4 2.983961 1_555
S5 U6 2.983961 1_555
S6 U2 2.859127 1_655
S6 U7 2.859127 1_645
S6 U0 2.983961 1_555
S6 U5 2.983961 1_555
S7 U6 2.859127 1_465
S7 U4 2.859127 1_455
S7 U3 2.983961 1_555
S7 U1 2.983961 1_555
S8 U7 2.880059 1_655
S8 U2 2.880059 1_655
S8 U6 2.935499 1_565
S8 U4 2.935499 1_555
S9 U4 2.880059 1_455
S9 U6 2.880059 1_455
S9 U2 2.935499 1_555
S9 U7 2.935499 1_545
S10 U0 2.880059 1_555
S10 U5 2.880059 1_555
S10 U1 2.935499 1_556
S10 U3 2.935499 1_546
S11 U3 2.880059 1_555
S11 U1 2.880059 1_555
S11 U5 2.935499 1_564
S11 U0 2.935499 1_554
S12 U7 2.660032 1_645
S12 U5 2.704080 1_555
S13 U6 2.660032 1_465
S13 U3 2.704080 1_555
S14 U5 2.660032 1_565
S14 U7 2.704080 1_555
S15 U4 2.660032 1_455
S15 U1 2.704080 1_555
S16 U3 2.660032 1_545
S16 U6 2.704080 1_555
S17 U2 2.660032 1_655
S17 U0 2.704080 1_555
S18 U1 2.660032 1_555
S18 U4 2.704080 1_555
S19 U0 2.660032 1_555
S19 U2 2.704080 1_555
