# generated using pymatgen
data_Ba(NiB)2
_symmetry_space_group_name_H-M   'P 1'
_cell_length_a   6.47785800
_cell_length_b   16.65972800
_cell_length_c   22.75867000
_cell_angle_alpha   90.00000000
_cell_angle_beta   90.00000000
_cell_angle_gamma   90.00000000
_symmetry_Int_Tables_number   1
_chemical_formula_structural   Ba(NiB)2
_chemical_formula_sum   'Ba32 Ni64 B64'
_cell_volume   2456.10092567
_cell_formula_units_Z   32
loop_
 _symmetry_equiv_pos_site_id
 _symmetry_equiv_pos_as_xyz
  1  'x, y, z'
loop_
 _atom_site_type_symbol
 _atom_site_label
 _atom_site_symmetry_multiplicity
 _atom_site_fract_x
 _atom_site_fract_y
 _atom_site_fract_z
 _atom_site_occupancy
  Ba  Ba0_0  1  0.25000000  0.34014450  0.21956200  1
  Ba  Ba0_1  1  0.25000000  0.34014450  0.71956200  1
  Ba  Ba0_2  1  0.25000000  0.84014450  0.21956200  1
  Ba  Ba0_3  1  0.25000000  0.84014450  0.71956200  1
  Ba  Ba0_4  1  0.75000000  0.34014450  0.21956200  1
  Ba  Ba0_5  1  0.75000000  0.34014450  0.71956200  1
  Ba  Ba0_6  1  0.75000000  0.84014450  0.21956200  1
  Ba  Ba0_7  1  0.75000000  0.84014450  0.71956200  1
  Ba  Ba1_0  1  0.25000000  0.15985550  0.28043800  1
  Ba  Ba1_1  1  0.25000000  0.15985550  0.78043800  1
  Ba  Ba1_2  1  0.25000000  0.65985550  0.28043800  1
  Ba  Ba1_3  1  0.25000000  0.65985550  0.78043800  1
  Ba  Ba1_4  1  0.75000000  0.15985550  0.28043800  1
  Ba  Ba1_5  1  0.75000000  0.15985550  0.78043800  1
  Ba  Ba1_6  1  0.75000000  0.65985550  0.28043800  1
  Ba  Ba1_7  1  0.75000000  0.65985550  0.78043800  1
  Ba  Ba2_0  1  0.00000000  0.40985550  0.46956200  1
  Ba  Ba2_1  1  0.00000000  0.40985550  0.96956200  1
  Ba  Ba2_2  1  0.00000000  0.90985550  0.46956200  1
  Ba  Ba2_3  1  0.00000000  0.90985550  0.96956200  1
  Ba  Ba2_4  1  0.50000000  0.40985550  0.46956200  1
  Ba  Ba2_5  1  0.50000000  0.40985550  0.96956200  1
  Ba  Ba2_6  1  0.50000000  0.90985550  0.46956200  1
  Ba  Ba2_7  1  0.50000000  0.90985550  0.96956200  1
  Ba  Ba3_0  1  0.00000000  0.09014450  0.03043800  1
  Ba  Ba3_1  1  0.00000000  0.09014450  0.53043800  1
  Ba  Ba3_2  1  0.00000000  0.59014450  0.03043800  1
  Ba  Ba3_3  1  0.00000000  0.59014450  0.53043800  1
  Ba  Ba3_4  1  0.50000000  0.09014450  0.03043800  1
  Ba  Ba3_5  1  0.50000000  0.09014450  0.53043800  1
  Ba  Ba3_6  1  0.50000000  0.59014450  0.03043800  1
  Ba  Ba3_7  1  0.50000000  0.59014450  0.53043800  1
  Ni  Ni0_0  1  0.25000000  0.40946300  0.10270250  1
  Ni  Ni0_1  1  0.25000000  0.40946300  0.60270250  1
  Ni  Ni0_2  1  0.25000000  0.90946300  0.10270250  1
  Ni  Ni0_3  1  0.25000000  0.90946300  0.60270250  1
  Ni  Ni0_4  1  0.75000000  0.40946300  0.10270250  1
  Ni  Ni0_5  1  0.75000000  0.40946300  0.60270250  1
  Ni  Ni0_6  1  0.75000000  0.90946300  0.10270250  1
  Ni  Ni0_7  1  0.75000000  0.90946300  0.60270250  1
  Ni  Ni1_0  1  0.25000000  0.09053700  0.39729750  1
  Ni  Ni1_1  1  0.25000000  0.09053700  0.89729750  1
  Ni  Ni1_2  1  0.25000000  0.59053700  0.39729750  1
  Ni  Ni1_3  1  0.25000000  0.59053700  0.89729750  1
  Ni  Ni1_4  1  0.75000000  0.09053700  0.39729750  1
  Ni  Ni1_5  1  0.75000000  0.09053700  0.89729750  1
  Ni  Ni1_6  1  0.75000000  0.59053700  0.39729750  1
  Ni  Ni1_7  1  0.75000000  0.59053700  0.89729750  1
  Ni  Ni2_0  1  0.00000000  0.34053700  0.35270250  1
  Ni  Ni2_1  1  0.00000000  0.34053700  0.85270250  1
  Ni  Ni2_2  1  0.00000000  0.84053700  0.35270250  1
  Ni  Ni2_3  1  0.00000000  0.84053700  0.85270250  1
  Ni  Ni2_4  1  0.50000000  0.34053700  0.35270250  1
  Ni  Ni2_5  1  0.50000000  0.34053700  0.85270250  1
  Ni  Ni2_6  1  0.50000000  0.84053700  0.35270250  1
  Ni  Ni2_7  1  0.50000000  0.84053700  0.85270250  1
  Ni  Ni3_0  1  0.00000000  0.15946300  0.14729750  1
  Ni  Ni3_1  1  0.00000000  0.15946300  0.64729750  1
  Ni  Ni3_2  1  0.00000000  0.65946300  0.14729750  1
  Ni  Ni3_3  1  0.00000000  0.65946300  0.64729750  1
  Ni  Ni3_4  1  0.50000000  0.15946300  0.14729750  1
  Ni  Ni3_5  1  0.50000000  0.15946300  0.64729750  1
  Ni  Ni3_6  1  0.50000000  0.65946300  0.14729750  1
  Ni  Ni3_7  1  0.50000000  0.65946300  0.64729750  1
  Ni  Ni4_0  1  0.25000000  0.24076150  0.40926450  1
  Ni  Ni4_1  1  0.25000000  0.24076150  0.90926450  1
  Ni  Ni4_2  1  0.25000000  0.74076150  0.40926450  1
  Ni  Ni4_3  1  0.25000000  0.74076150  0.90926450  1
  Ni  Ni4_4  1  0.75000000  0.24076150  0.40926450  1
  Ni  Ni4_5  1  0.75000000  0.24076150  0.90926450  1
  Ni  Ni4_6  1  0.75000000  0.74076150  0.40926450  1
  Ni  Ni4_7  1  0.75000000  0.74076150  0.90926450  1
  Ni  Ni5_0  1  0.25000000  0.25923850  0.09073550  1
  Ni  Ni5_1  1  0.25000000  0.25923850  0.59073550  1
  Ni  Ni5_2  1  0.25000000  0.75923850  0.09073550  1
  Ni  Ni5_3  1  0.25000000  0.75923850  0.59073550  1
  Ni  Ni5_4  1  0.75000000  0.25923850  0.09073550  1
  Ni  Ni5_5  1  0.75000000  0.25923850  0.59073550  1
  Ni  Ni5_6  1  0.75000000  0.75923850  0.09073550  1
  Ni  Ni5_7  1  0.75000000  0.75923850  0.59073550  1
  Ni  Ni6_0  1  0.00000000  0.00923850  0.15926450  1
  Ni  Ni6_1  1  0.00000000  0.00923850  0.65926450  1
  Ni  Ni6_2  1  0.00000000  0.50923850  0.15926450  1
  Ni  Ni6_3  1  0.00000000  0.50923850  0.65926450  1
  Ni  Ni6_4  1  0.50000000  0.00923850  0.15926450  1
  Ni  Ni6_5  1  0.50000000  0.00923850  0.65926450  1
  Ni  Ni6_6  1  0.50000000  0.50923850  0.15926450  1
  Ni  Ni6_7  1  0.50000000  0.50923850  0.65926450  1
  Ni  Ni7_0  1  0.00000000  0.49076150  0.34073550  1
  Ni  Ni7_1  1  0.00000000  0.49076150  0.84073550  1
  Ni  Ni7_2  1  0.00000000  0.99076150  0.34073550  1
  Ni  Ni7_3  1  0.00000000  0.99076150  0.84073550  1
  Ni  Ni7_4  1  0.50000000  0.49076150  0.34073550  1
  Ni  Ni7_5  1  0.50000000  0.49076150  0.84073550  1
  Ni  Ni7_6  1  0.50000000  0.99076150  0.34073550  1
  Ni  Ni7_7  1  0.50000000  0.99076150  0.84073550  1
  B  B0_0  1  0.25000000  0.01083300  0.21470300  1
  B  B0_1  1  0.25000000  0.01083300  0.71470300  1
  B  B0_2  1  0.25000000  0.51083300  0.21470300  1
  B  B0_3  1  0.25000000  0.51083300  0.71470300  1
  B  B0_4  1  0.75000000  0.01083300  0.21470300  1
  B  B0_5  1  0.75000000  0.01083300  0.71470300  1
  B  B0_6  1  0.75000000  0.51083300  0.21470300  1
  B  B0_7  1  0.75000000  0.51083300  0.71470300  1
  B  B1_0  1  0.25000000  0.48916700  0.28529700  1
  B  B1_1  1  0.25000000  0.48916700  0.78529700  1
  B  B1_2  1  0.25000000  0.98916700  0.28529700  1
  B  B1_3  1  0.25000000  0.98916700  0.78529700  1
  B  B1_4  1  0.75000000  0.48916700  0.28529700  1
  B  B1_5  1  0.75000000  0.48916700  0.78529700  1
  B  B1_6  1  0.75000000  0.98916700  0.28529700  1
  B  B1_7  1  0.75000000  0.98916700  0.78529700  1
  B  B2_0  1  0.00000000  0.23916700  0.46470300  1
  B  B2_1  1  0.00000000  0.23916700  0.96470300  1
  B  B2_2  1  0.00000000  0.73916700  0.46470300  1
  B  B2_3  1  0.00000000  0.73916700  0.96470300  1
  B  B2_4  1  0.50000000  0.23916700  0.46470300  1
  B  B2_5  1  0.50000000  0.23916700  0.96470300  1
  B  B2_6  1  0.50000000  0.73916700  0.46470300  1
  B  B2_7  1  0.50000000  0.73916700  0.96470300  1
  B  B3_0  1  0.00000000  0.26083300  0.03529700  1
  B  B3_1  1  0.00000000  0.26083300  0.53529700  1
  B  B3_2  1  0.00000000  0.76083300  0.03529700  1
  B  B3_3  1  0.00000000  0.76083300  0.53529700  1
  B  B3_4  1  0.50000000  0.26083300  0.03529700  1
  B  B3_5  1  0.50000000  0.26083300  0.53529700  1
  B  B3_6  1  0.50000000  0.76083300  0.03529700  1
  B  B3_7  1  0.50000000  0.76083300  0.53529700  1
  B  B4_0  1  0.25000000  0.08433350  0.15840250  1
  B  B4_1  1  0.25000000  0.08433350  0.65840250  1
  B  B4_2  1  0.25000000  0.58433350  0.15840250  1
  B  B4_3  1  0.25000000  0.58433350  0.65840250  1
  B  B4_4  1  0.75000000  0.08433350  0.15840250  1
  B  B4_5  1  0.75000000  0.08433350  0.65840250  1
  B  B4_6  1  0.75000000  0.58433350  0.15840250  1
  B  B4_7  1  0.75000000  0.58433350  0.65840250  1
  B  B5_0  1  0.25000000  0.41566650  0.34159750  1
  B  B5_1  1  0.25000000  0.41566650  0.84159750  1
  B  B5_2  1  0.25000000  0.91566650  0.34159750  1
  B  B5_3  1  0.25000000  0.91566650  0.84159750  1
  B  B5_4  1  0.75000000  0.41566650  0.34159750  1
  B  B5_5  1  0.75000000  0.41566650  0.84159750  1
  B  B5_6  1  0.75000000  0.91566650  0.34159750  1
  B  B5_7  1  0.75000000  0.91566650  0.84159750  1
  B  B6_0  1  0.00000000  0.16566650  0.40840250  1
  B  B6_1  1  0.00000000  0.16566650  0.90840250  1
  B  B6_2  1  0.00000000  0.66566650  0.40840250  1
  B  B6_3  1  0.00000000  0.66566650  0.90840250  1
  B  B6_4  1  0.50000000  0.16566650  0.40840250  1
  B  B6_5  1  0.50000000  0.16566650  0.90840250  1
  B  B6_6  1  0.50000000  0.66566650  0.40840250  1
  B  B6_7  1  0.50000000  0.66566650  0.90840250  1
  B  B7_0  1  0.00000000  0.33433350  0.09159750  1
  B  B7_1  1  0.00000000  0.33433350  0.59159750  1
  B  B7_2  1  0.00000000  0.83433350  0.09159750  1
  B  B7_3  1  0.00000000  0.83433350  0.59159750  1
  B  B7_4  1  0.50000000  0.33433350  0.09159750  1
  B  B7_5  1  0.50000000  0.33433350  0.59159750  1
  B  B7_6  1  0.50000000  0.83433350  0.09159750  1
  B  B7_7  1  0.50000000  0.83433350  0.59159750  1
loop_
_geom_bond_atom_site_label_1
_geom_bond_atom_site_label_2
_geom_bond_distance
_geom_bond_site_symmetry_2
Ba0_0 Ni0_0 2.899469 1_555
Ba0_0 Ni5_0 3.226904 1_555
Ba0_0 Ba0_4 3.238929 1_455
Ba0_0 Ba0_4 3.238929 1_555
Ba0_0 Ba1_0 3.307703 1_555
Ba0_0 Ni2_0 3.435727 1_555
Ba0_0 Ni2_4 3.435727 1_555
Ba0_0 Ni6_2 3.527276 1_555
Ba0_0 Ni6_6 3.527276 1_555
Ba0_0 Ni3_4 3.793185 1_555
Ba0_0 Ni3_0 3.793185 1_555
Ba0_1 Ni0_1 2.899469 1_555
Ba0_1 Ni5_1 3.226904 1_555
Ba0_1 Ba0_5 3.238929 1_455
Ba0_1 Ba0_5 3.238929 1_555
Ba0_1 Ba1_1 3.307703 1_555
Ba0_1 Ni2_1 3.435727 1_555
Ba0_1 Ni2_5 3.435727 1_555
Ba0_1 Ni6_3 3.527276 1_555
Ba0_1 Ni6_7 3.527276 1_555
Ba0_1 Ni3_1 3.793185 1_555
Ba0_1 Ni3_5 3.793185 1_555
Ba0_2 Ni0_2 2.899469 1_555
Ba0_2 Ni5_2 3.226904 1_555
Ba0_2 Ba0_6 3.238929 1_455
Ba0_2 Ba0_6 3.238929 1_555
Ba0_2 Ba1_2 3.307703 1_555
Ba0_2 Ni2_6 3.435727 1_555
Ba0_2 Ni2_2 3.435727 1_555
Ba0_2 Ni6_0 3.527276 1_565
Ba0_2 Ni6_4 3.527276 1_565
Ba0_2 Ni3_6 3.793185 1_555
Ba0_2 Ni3_2 3.793185 1_555
Ba0_3 Ni0_3 2.899469 1_555
Ba0_3 Ni5_3 3.226904 1_555
Ba0_3 Ba0_7 3.238929 1_455
Ba0_3 Ba0_7 3.238929 1_555
Ba0_3 Ba1_3 3.307703 1_555
Ba0_3 Ni2_7 3.435727 1_555
Ba0_3 Ni2_3 3.435727 1_555
Ba0_3 Ni6_5 3.527276 1_565
Ba0_3 Ni6_1 3.527276 1_565
Ba0_3 Ni3_7 3.793185 1_555
Ba0_3 Ni3_3 3.793185 1_555
Ba0_4 Ni0_4 2.899469 1_555
Ba0_4 Ni5_4 3.226904 1_555
Ba0_4 Ba1_4 3.307703 1_555
Ba0_4 Ni2_0 3.435727 1_655
Ba0_4 Ni2_4 3.435727 1_555
Ba0_4 Ni6_6 3.527276 1_555
Ba0_4 Ni6_2 3.527276 1_655
Ba0_4 Ni3_0 3.793185 1_655
Ba0_4 Ni3_4 3.793185 1_555
Ba0_5 Ni0_5 2.899469 1_555
Ba0_5 Ni5_5 3.226904 1_555
Ba0_5 Ba1_5 3.307703 1_555
Ba0_5 Ni2_5 3.435727 1_555
Ba0_5 Ni2_1 3.435727 1_655
Ba0_5 Ni6_7 3.527276 1_555
Ba0_5 Ni6_3 3.527276 1_655
Ba0_5 Ni3_5 3.793185 1_555
Ba0_5 Ni3_1 3.793185 1_655
Ba0_6 Ni0_6 2.899469 1_555
Ba0_6 Ni5_6 3.226904 1_555
Ba0_6 Ba1_6 3.307703 1_555
Ba0_6 Ni2_2 3.435727 1_655
Ba0_6 Ni2_6 3.435727 1_555
Ba0_6 Ni6_0 3.527276 1_665
Ba0_6 Ni6_4 3.527276 1_565
Ba0_6 Ni3_6 3.793185 1_555
Ba0_6 Ni3_2 3.793185 1_655
Ba0_7 Ni0_7 2.899469 1_555
Ba0_7 Ni5_7 3.226904 1_555
Ba0_7 Ba1_7 3.307703 1_555
Ba0_7 Ni2_3 3.435727 1_655
Ba0_7 Ni2_7 3.435727 1_555
Ba0_7 Ni6_1 3.527276 1_665
Ba0_7 Ni6_5 3.527276 1_565
Ba0_7 Ni3_7 3.793185 1_555
Ba0_7 Ni3_3 3.793185 1_655
Ba1_0 Ni1_0 2.899469 1_555
Ba1_0 Ni4_0 3.226904 1_555
Ba1_0 Ba1_4 3.238929 1_555
Ba1_0 Ba1_4 3.238929 1_455
Ba1_0 Ni3_0 3.435727 1_555
Ba1_0 Ni3_4 3.435727 1_555
Ba1_0 Ni7_2 3.527276 1_545
Ba1_0 Ni7_6 3.527276 1_545
Ba1_0 Ni2_4 3.793185 1_555
Ba1_0 Ni2_0 3.793185 1_555
Ba1_1 Ni1_1 2.899469 1_555
Ba1_1 Ni4_1 3.226904 1_555
Ba1_1 Ba1_5 3.238929 1_555
Ba1_1 Ba1_5 3.238929 1_455
Ba1_1 Ni3_5 3.435727 1_555
Ba1_1 Ni3_1 3.435727 1_555
Ba1_1 Ni7_7 3.527276 1_545
Ba1_1 Ni7_3 3.527276 1_545
Ba1_1 Ni2_5 3.793185 1_555
Ba1_1 Ni2_1 3.793185 1_555
Ba1_2 Ni1_2 2.899469 1_555
Ba1_2 Ni4_2 3.226904 1_555
Ba1_2 Ba1_6 3.238929 1_555
Ba1_2 Ba1_6 3.238929 1_455
Ba1_2 Ni3_2 3.435727 1_555
Ba1_2 Ni3_6 3.435727 1_555
Ba1_2 Ni7_0 3.527276 1_555
Ba1_2 Ni7_4 3.527276 1_555
Ba1_2 Ni2_2 3.793185 1_555
Ba1_2 Ni2_6 3.793185 1_555
Ba1_3 Ni1_3 2.899469 1_555
Ba1_3 Ni4_3 3.226904 1_555
Ba1_3 Ba1_7 3.238929 1_555
Ba1_3 Ba1_7 3.238929 1_455
Ba1_3 Ni3_7 3.435727 1_555
Ba1_3 Ni3_3 3.435727 1_555
Ba1_3 Ni7_5 3.527276 1_555
Ba1_3 Ni7_1 3.527276 1_555
Ba1_3 Ni2_3 3.793185 1_555
Ba1_3 Ni2_7 3.793185 1_555
Ba1_4 Ni1_4 2.899469 1_555
Ba1_4 Ni4_4 3.226904 1_555
Ba1_4 Ni3_0 3.435727 1_655
Ba1_4 Ni3_4 3.435727 1_555
Ba1_4 Ni7_6 3.527276 1_545
Ba1_4 Ni7_2 3.527276 1_645
Ba1_4 Ni2_0 3.793185 1_655
Ba1_4 Ni2_4 3.793185 1_555
Ba1_5 Ni1_5 2.899469 1_555
Ba1_5 Ni4_5 3.226904 1_555
Ba1_5 Ni3_1 3.435727 1_655
Ba1_5 Ni3_5 3.435727 1_555
Ba1_5 Ni7_7 3.527276 1_545
Ba1_5 Ni7_3 3.527276 1_645
Ba1_5 Ni2_5 3.793185 1_555
Ba1_5 Ni2_1 3.793185 1_655
Ba1_6 Ni1_6 2.899469 1_555
Ba1_6 Ni4_6 3.226904 1_555
Ba1_6 Ni3_2 3.435727 1_655
Ba1_6 Ni3_6 3.435727 1_555
Ba1_6 Ni7_0 3.527276 1_655
Ba1_6 Ni7_4 3.527276 1_555
Ba1_6 Ni2_2 3.793185 1_655
Ba1_6 Ni2_6 3.793185 1_555
Ba1_7 Ni1_7 2.899469 1_555
Ba1_7 Ni4_7 3.226904 1_555
Ba1_7 Ni3_7 3.435727 1_555
Ba1_7 Ni3_3 3.435727 1_655
Ba1_7 Ni7_5 3.527276 1_555
Ba1_7 Ni7_1 3.527276 1_655
Ba1_7 Ni2_3 3.793185 1_655
Ba1_7 Ni2_7 3.793185 1_555
Ba2_0 Ni2_0 2.899469 1_555
Ba2_0 Ni7_0 3.226904 1_555
Ba2_0 Ba2_4 3.238929 1_555
Ba2_0 Ba2_4 3.238929 1_455
Ba2_0 Ba3_3 3.307703 1_555
Ba2_0 Ni0_1 3.435727 1_555
Ba2_0 Ni0_5 3.435727 1_455
Ba2_0 Ni4_4 3.527276 1_455
Ba2_0 Ni4_0 3.527276 1_555
Ba2_0 Ni1_2 3.793185 1_555
Ba2_0 Ni1_6 3.793185 1_455
Ba2_1 Ni2_1 2.899469 1_555
Ba2_1 Ni7_1 3.226904 1_555
Ba2_1 Ba2_5 3.238929 1_455
Ba2_1 Ba2_5 3.238929 1_555
Ba2_1 Ba3_2 3.307703 1_556
Ba2_1 Ni0_0 3.435727 1_556
Ba2_1 Ni0_4 3.435727 1_456
Ba2_1 Ni4_5 3.527276 1_455
Ba2_1 Ni4_1 3.527276 1_555
Ba2_1 Ni1_3 3.793185 1_555
Ba2_1 Ni1_7 3.793185 1_455
Ba2_2 Ni2_2 2.899469 1_555
Ba2_2 Ni7_2 3.226904 1_555
Ba2_2 Ba2_6 3.238929 1_555
Ba2_2 Ba2_6 3.238929 1_455
Ba2_2 Ba3_1 3.307703 1_565
Ba2_2 Ni0_7 3.435727 1_455
Ba2_2 Ni0_3 3.435727 1_555
Ba2_2 Ni4_6 3.527276 1_455
Ba2_2 Ni4_2 3.527276 1_555
Ba2_2 Ni1_4 3.793185 1_465
Ba2_2 Ni1_0 3.793185 1_565
Ba2_3 Ni2_3 2.899469 1_555
Ba2_3 Ni7_3 3.226904 1_555
Ba2_3 Ba2_7 3.238929 1_555
Ba2_3 Ba2_7 3.238929 1_455
Ba2_3 Ba3_0 3.307703 1_566
Ba2_3 Ni0_2 3.435727 1_556
Ba2_3 Ni0_6 3.435727 1_456
Ba2_3 Ni4_3 3.527276 1_555
Ba2_3 Ni4_7 3.527276 1_455
Ba2_3 Ni1_1 3.793185 1_565
Ba2_3 Ni1_5 3.793185 1_465
Ba2_4 Ni2_4 2.899469 1_555
Ba2_4 Ni7_4 3.226904 1_555
Ba2_4 Ba3_7 3.307703 1_555
Ba2_4 Ni0_5 3.435727 1_555
Ba2_4 Ni0_1 3.435727 1_555
Ba2_4 Ni4_4 3.527276 1_555
Ba2_4 Ni4_0 3.527276 1_555
Ba2_4 Ni1_2 3.793185 1_555
Ba2_4 Ni1_6 3.793185 1_555
Ba2_5 Ni2_5 2.899469 1_555
Ba2_5 Ni7_5 3.226904 1_555
Ba2_5 Ba3_6 3.307703 1_556
Ba2_5 Ni0_4 3.435727 1_556
Ba2_5 Ni0_0 3.435727 1_556
Ba2_5 Ni4_5 3.527276 1_555
Ba2_5 Ni4_1 3.527276 1_555
Ba2_5 Ni1_3 3.793185 1_555
Ba2_5 Ni1_7 3.793185 1_555
Ba2_6 Ni2_6 2.899469 1_555
Ba2_6 Ni7_6 3.226904 1_555
Ba2_6 Ba3_5 3.307703 1_565
Ba2_6 Ni0_3 3.435727 1_555
Ba2_6 Ni0_7 3.435727 1_555
Ba2_6 Ni4_2 3.527276 1_555
Ba2_6 Ni4_6 3.527276 1_555
Ba2_6 Ni1_0 3.793185 1_565
Ba2_6 Ni1_4 3.793185 1_565
Ba2_7 Ni2_7 2.899469 1_555
Ba2_7 Ni7_7 3.226904 1_555
Ba2_7 Ba3_4 3.307703 1_566
Ba2_7 Ni0_2 3.435727 1_556
Ba2_7 Ni0_6 3.435727 1_556
Ba2_7 Ni4_7 3.527276 1_555
Ba2_7 Ni4_3 3.527276 1_555
Ba2_7 Ni1_1 3.793185 1_565
Ba2_7 Ni1_5 3.793185 1_565
Ba3_0 Ni3_0 2.899469 1_555
Ba3_0 Ni6_0 3.226904 1_555
Ba3_0 Ba3_4 3.238929 1_455
Ba3_0 Ba3_4 3.238929 1_555
Ba3_0 Ni1_1 3.435727 1_554
Ba3_0 Ni1_5 3.435727 1_454
Ba3_0 Ni5_0 3.527276 1_555
Ba3_0 Ni5_4 3.527276 1_455
Ba3_0 Ni0_2 3.793185 1_545
Ba3_0 Ni0_6 3.793185 1_445
Ba3_1 Ni3_1 2.899469 1_555
Ba3_1 Ni6_1 3.226904 1_555
Ba3_1 Ba3_5 3.238929 1_455
Ba3_1 Ba3_5 3.238929 1_555
Ba3_1 Ni1_4 3.435727 1_455
Ba3_1 Ni1_0 3.435727 1_555
Ba3_1 Ni5_5 3.527276 1_455
Ba3_1 Ni5_1 3.527276 1_555
Ba3_1 Ni0_3 3.793185 1_545
Ba3_1 Ni0_7 3.793185 1_445
Ba3_2 Ni3_2 2.899469 1_555
Ba3_2 Ni6_2 3.226904 1_555
Ba3_2 Ba3_6 3.238929 1_555
Ba3_2 Ba3_6 3.238929 1_455
Ba3_2 Ni1_3 3.435727 1_554
Ba3_2 Ni1_7 3.435727 1_454
Ba3_2 Ni5_2 3.527276 1_555
Ba3_2 Ni5_6 3.527276 1_455
Ba3_2 Ni0_0 3.793185 1_555
Ba3_2 Ni0_4 3.793185 1_455
Ba3_3 Ni3_3 2.899469 1_555
Ba3_3 Ni6_3 3.226904 1_555
Ba3_3 Ba3_7 3.238929 1_455
Ba3_3 Ba3_7 3.238929 1_555
Ba3_3 Ni1_6 3.435727 1_455
Ba3_3 Ni1_2 3.435727 1_555
Ba3_3 Ni5_3 3.527276 1_555
Ba3_3 Ni5_7 3.527276 1_455
Ba3_3 Ni0_5 3.793185 1_455
Ba3_3 Ni0_1 3.793185 1_555
Ba3_4 Ni3_4 2.899469 1_555
Ba3_4 Ni6_4 3.226904 1_555
Ba3_4 Ni1_1 3.435727 1_554
Ba3_4 Ni1_5 3.435727 1_554
Ba3_4 Ni5_0 3.527276 1_555
Ba3_4 Ni5_4 3.527276 1_555
Ba3_4 Ni0_6 3.793185 1_545
Ba3_4 Ni0_2 3.793185 1_545
Ba3_5 Ni3_5 2.899469 1_555
Ba3_5 Ni6_5 3.226904 1_555
Ba3_5 Ni1_4 3.435727 1_555
Ba3_5 Ni1_0 3.435727 1_555
Ba3_5 Ni5_5 3.527276 1_555
Ba3_5 Ni5_1 3.527276 1_555
Ba3_5 Ni0_3 3.793185 1_545
Ba3_5 Ni0_7 3.793185 1_545
Ba3_6 Ni3_6 2.899469 1_555
Ba3_6 Ni6_6 3.226904 1_555
Ba3_6 Ni1_3 3.435727 1_554
Ba3_6 Ni1_7 3.435727 1_554
Ba3_6 Ni5_2 3.527276 1_555
Ba3_6 Ni5_6 3.527276 1_555
Ba3_6 Ni0_0 3.793185 1_555
Ba3_6 Ni0_4 3.793185 1_555
Ba3_7 Ni3_7 2.899469 1_555
Ba3_7 Ni6_7 3.226904 1_555
Ba3_7 Ni1_2 3.435727 1_555
Ba3_7 Ni1_6 3.435727 1_555
Ba3_7 Ni5_3 3.527276 1_555
Ba3_7 Ni5_7 3.527276 1_555
Ba3_7 Ni0_5 3.793185 1_555
Ba3_7 Ni0_1 3.793185 1_555
B0_0 B1_2 1.646672 1_545
B0_0 B4_0 1.772340 1_555
B0_0 Ni6_4 2.053113 1_555
B0_0 Ni6_0 2.053113 1_555
B0_0 Ba0_2 2.845773 1_545
B0_0 Ba1_0 2.898588 1_555
B0_1 B1_3 1.646672 1_545
B0_1 B4_1 1.772340 1_555
B0_1 Ni6_1 2.053113 1_555
B0_1 Ni6_5 2.053113 1_555
B0_1 Ba0_3 2.845773 1_545
B0_1 Ba1_1 2.898588 1_555
B0_2 B1_0 1.646672 1_555
B0_2 B4_2 1.772340 1_555
B0_2 Ni6_2 2.053113 1_555
B0_2 Ni6_6 2.053113 1_555
B0_2 Ba0_0 2.845773 1_555
B0_2 Ba1_2 2.898588 1_555
B0_3 B1_1 1.646672 1_555
B0_3 B4_3 1.772340 1_555
B0_3 Ni6_3 2.053113 1_555
B0_3 Ni6_7 2.053113 1_555
B0_3 Ba0_1 2.845773 1_555
B0_3 Ba1_3 2.898588 1_555
B0_4 B1_6 1.646672 1_545
B0_4 B4_4 1.772340 1_555
B0_4 Ni6_0 2.053113 1_655
B0_4 Ni6_4 2.053113 1_555
B0_4 Ba0_6 2.845773 1_545
B0_4 Ba1_4 2.898588 1_555
B0_5 B1_7 1.646672 1_545
B0_5 B4_5 1.772340 1_555
B0_5 Ni6_1 2.053113 1_655
B0_5 Ni6_5 2.053113 1_555
B0_5 Ba0_7 2.845773 1_545
B0_5 Ba1_5 2.898588 1_555
B0_6 B1_4 1.646672 1_555
B0_6 B4_6 1.772340 1_555
B0_6 Ni6_6 2.053113 1_555
B0_6 Ni6_2 2.053113 1_655
B0_6 Ba0_4 2.845773 1_555
B0_6 Ba1_6 2.898588 1_555
B0_7 B1_5 1.646672 1_555
B0_7 B4_7 1.772340 1_555
B0_7 Ni6_7 2.053113 1_555
B0_7 Ni6_3 2.053113 1_655
B0_7 Ba0_5 2.845773 1_555
B0_7 Ba1_7 2.898588 1_555
B1_0 B5_0 1.772340 1_555
B1_0 Ni7_0 2.053113 1_555
B1_0 Ni7_4 2.053113 1_555
B1_0 Ba1_2 2.845773 1_555
B1_0 Ba0_0 2.898588 1_555
B1_1 B5_1 1.772340 1_555
B1_1 Ni7_5 2.053113 1_555
B1_1 Ni7_1 2.053113 1_555
B1_1 Ba1_3 2.845773 1_555
B1_1 Ba0_1 2.898588 1_555
B1_2 B5_2 1.772340 1_555
B1_2 Ni7_2 2.053113 1_555
B1_2 Ni7_6 2.053113 1_555
B1_2 Ba1_0 2.845773 1_565
B1_2 Ba0_2 2.898588 1_555
B1_3 B5_3 1.772340 1_555
B1_3 Ni7_3 2.053113 1_555
B1_3 Ni7_7 2.053113 1_555
B1_3 Ba1_1 2.845773 1_565
B1_3 Ba0_3 2.898588 1_555
B1_4 B5_4 1.772340 1_555
B1_4 Ni7_0 2.053113 1_655
B1_4 Ni7_4 2.053113 1_555
B1_4 Ba1_6 2.845773 1_555
B1_4 Ba0_4 2.898588 1_555
B1_5 B5_5 1.772340 1_555
B1_5 Ni7_5 2.053113 1_555
B1_5 Ni7_1 2.053113 1_655
B1_5 Ba1_7 2.845773 1_555
B1_5 Ba0_5 2.898588 1_555
B1_6 B5_6 1.772340 1_555
B1_6 Ni7_6 2.053113 1_555
B1_6 Ni7_2 2.053113 1_655
B1_6 Ba1_4 2.845773 1_565
B1_6 Ba0_6 2.898588 1_555
B1_7 B5_7 1.772340 1_555
B1_7 Ni7_7 2.053113 1_555
B1_7 Ni7_3 2.053113 1_655
B1_7 Ba1_5 2.845773 1_565
B1_7 Ba0_7 2.898588 1_555
B2_0 B3_1 1.646672 1_555
B2_0 B6_0 1.772340 1_555
B2_0 Ni4_4 2.053113 1_455
B2_0 Ni4_0 2.053113 1_555
B2_0 Ba2_0 2.845773 1_555
B2_0 Ba3_1 2.898588 1_555
B2_1 B3_0 1.646672 1_556
B2_1 B6_1 1.772340 1_555
B2_1 Ni4_1 2.053113 1_555
B2_1 Ni4_5 2.053113 1_455
B2_1 Ba2_1 2.845773 1_555
B2_1 Ba3_0 2.898588 1_556
B2_2 B3_3 1.646672 1_555
B2_2 B6_2 1.772340 1_555
B2_2 Ni4_6 2.053113 1_455
B2_2 Ni4_2 2.053113 1_555
B2_2 Ba2_2 2.845773 1_555
B2_2 Ba3_3 2.898588 1_555
B2_3 B3_2 1.646672 1_556
B2_3 B6_3 1.772340 1_555
B2_3 Ni4_3 2.053113 1_555
B2_3 Ni4_7 2.053113 1_455
B2_3 Ba2_3 2.845773 1_555
B2_3 Ba3_2 2.898588 1_556
B2_4 B3_5 1.646672 1_555
B2_4 B6_4 1.772340 1_555
B2_4 Ni4_0 2.053113 1_555
B2_4 Ni4_4 2.053113 1_555
B2_4 Ba2_4 2.845773 1_555
B2_4 Ba3_5 2.898588 1_555
B2_5 B3_4 1.646672 1_556
B2_5 B6_5 1.772340 1_555
B2_5 Ni4_5 2.053113 1_555
B2_5 Ni4_1 2.053113 1_555
B2_5 Ba2_5 2.845773 1_555
B2_5 Ba3_4 2.898588 1_556
B2_6 B3_7 1.646672 1_555
B2_6 B6_6 1.772340 1_555
B2_6 Ni4_6 2.053113 1_555
B2_6 Ni4_2 2.053113 1_555
B2_6 Ba2_6 2.845773 1_555
B2_6 Ba3_7 2.898588 1_555
B2_7 B3_6 1.646672 1_556
B2_7 B6_7 1.772340 1_555
B2_7 Ni4_3 2.053113 1_555
B2_7 Ni4_7 2.053113 1_555
B2_7 Ba2_7 2.845773 1_555
B2_7 Ba3_6 2.898588 1_556
B3_0 B7_0 1.772340 1_555
B3_0 Ni5_4 2.053113 1_455
B3_0 Ni5_0 2.053113 1_555
B3_0 Ba3_0 2.845773 1_555
B3_0 Ba2_1 2.898588 1_554
B3_1 B7_1 1.772340 1_555
B3_1 Ni5_1 2.053113 1_555
B3_1 Ni5_5 2.053113 1_455
B3_1 Ba3_1 2.845773 1_555
B3_1 Ba2_0 2.898588 1_555
B3_2 B7_2 1.772340 1_555
B3_2 Ni5_2 2.053113 1_555
B3_2 Ni5_6 2.053113 1_455
B3_2 Ba3_2 2.845773 1_555
B3_2 Ba2_3 2.898588 1_554
B3_3 B7_3 1.772340 1_555
B3_3 Ni5_7 2.053113 1_455
B3_3 Ni5_3 2.053113 1_555
B3_3 Ba3_3 2.845773 1_555
B3_3 Ba2_2 2.898588 1_555
B3_4 B7_4 1.772340 1_555
B3_4 Ni5_4 2.053113 1_555
B3_4 Ni5_0 2.053113 1_555
B3_4 Ba3_4 2.845773 1_555
B3_4 Ba2_5 2.898588 1_554
B3_5 B7_5 1.772340 1_555
B3_5 Ni5_1 2.053113 1_555
B3_5 Ni5_5 2.053113 1_555
B3_5 Ba3_5 2.845773 1_555
B3_5 Ba2_4 2.898588 1_555
B3_6 B7_6 1.772340 1_555
B3_6 Ni5_2 2.053113 1_555
B3_6 Ni5_6 2.053113 1_555
B3_6 Ba3_6 2.845773 1_555
B3_6 Ba2_7 2.898588 1_554
B3_7 B7_7 1.772340 1_555
B3_7 Ni5_7 2.053113 1_555
B3_7 Ni5_3 2.053113 1_555
B3_7 Ba3_7 2.845773 1_555
B3_7 Ba2_6 2.898588 1_555
B4_0 Ni6_4 2.046511 1_555
B4_0 Ni6_0 2.046511 1_555
B4_0 Ni3_0 2.062313 1_555
B4_0 Ni3_4 2.062313 1_555
B4_0 Ba1_0 3.049060 1_555
B4_0 Ba3_0 3.333698 1_555
B4_0 Ba3_4 3.333698 1_555
B4_1 Ni6_5 2.046511 1_555
B4_1 Ni6_1 2.046511 1_555
B4_1 Ni3_1 2.062313 1_555
B4_1 Ni3_5 2.062313 1_555
B4_1 Ba1_1 3.049060 1_555
B4_1 Ba3_1 3.333698 1_555
B4_1 Ba3_5 3.333698 1_555
B4_2 Ni6_2 2.046511 1_555
B4_2 Ni6_6 2.046511 1_555
B4_2 Ni3_6 2.062313 1_555
B4_2 Ni3_2 2.062313 1_555
B4_2 Ba1_2 3.049060 1_555
B4_2 Ba3_2 3.333698 1_555
B4_2 Ba3_6 3.333698 1_555
B4_3 Ni6_7 2.046511 1_555
B4_3 Ni6_3 2.046511 1_555
B4_3 Ni3_3 2.062313 1_555
B4_3 Ni3_7 2.062313 1_555
B4_3 Ba1_3 3.049060 1_555
B4_3 Ba3_3 3.333698 1_555
B4_3 Ba3_7 3.333698 1_555
B4_4 Ni6_4 2.046511 1_555
B4_4 Ni6_0 2.046511 1_655
B4_4 Ni3_4 2.062313 1_555
B4_4 Ni3_0 2.062313 1_655
B4_4 Ba1_4 3.049060 1_555
B4_4 Ba3_0 3.333698 1_655
B4_4 Ba3_4 3.333698 1_555
B4_5 Ni6_5 2.046511 1_555
B4_5 Ni6_1 2.046511 1_655
B4_5 Ni3_1 2.062313 1_655
B4_5 Ni3_5 2.062313 1_555
B4_5 Ba1_5 3.049060 1_555
B4_5 Ba3_1 3.333698 1_655
B4_5 Ba3_5 3.333698 1_555
B4_6 Ni6_6 2.046511 1_555
B4_6 Ni6_2 2.046511 1_655
B4_6 Ni3_6 2.062313 1_555
B4_6 Ni3_2 2.062313 1_655
B4_6 Ba1_6 3.049060 1_555
B4_6 Ba3_6 3.333698 1_555
B4_6 Ba3_2 3.333698 1_655
B4_7 Ni6_7 2.046511 1_555
B4_7 Ni6_3 2.046511 1_655
B4_7 Ni3_7 2.062313 1_555
B4_7 Ni3_3 2.062313 1_655
B4_7 Ba1_7 3.049060 1_555
B4_7 Ba3_3 3.333698 1_655
B4_7 Ba3_7 3.333698 1_555
B5_0 Ni7_0 2.046511 1_555
B5_0 Ni7_4 2.046511 1_555
B5_0 Ni2_4 2.062313 1_555
B5_0 Ni2_0 2.062313 1_555
B5_0 Ba0_0 3.049060 1_555
B5_0 Ba2_4 3.333698 1_555
B5_0 Ba2_0 3.333698 1_555
B5_1 Ni7_5 2.046511 1_555
B5_1 Ni7_1 2.046511 1_555
B5_1 Ni2_1 2.062313 1_555
B5_1 Ni2_5 2.062313 1_555
B5_1 Ba0_1 3.049060 1_555
B5_1 Ba2_1 3.333698 1_555
B5_1 Ba2_5 3.333698 1_555
B5_2 Ni7_6 2.046511 1_555
B5_2 Ni7_2 2.046511 1_555
B5_2 Ni2_6 2.062313 1_555
B5_2 Ni2_2 2.062313 1_555
B5_2 Ba0_2 3.049060 1_555
B5_2 Ba2_2 3.333698 1_555
B5_2 Ba2_6 3.333698 1_555
B5_3 Ni7_7 2.046511 1_555
B5_3 Ni7_3 2.046511 1_555
B5_3 Ni2_3 2.062313 1_555
B5_3 Ni2_7 2.062313 1_555
B5_3 Ba0_3 3.049060 1_555
B5_3 Ba2_7 3.333698 1_555
B5_3 Ba2_3 3.333698 1_555
B5_4 Ni7_4 2.046511 1_555
B5_4 Ni7_0 2.046511 1_655
B5_4 Ni2_4 2.062313 1_555
B5_4 Ni2_0 2.062313 1_655
B5_4 Ba0_4 3.049060 1_555
B5_4 Ba2_4 3.333698 1_555
B5_4 Ba2_0 3.333698 1_655
B5_5 Ni7_5 2.046511 1_555
B5_5 Ni7_1 2.046511 1_655
B5_5 Ni2_1 2.062313 1_655
B5_5 Ni2_5 2.062313 1_555
B5_5 Ba0_5 3.049060 1_555
B5_5 Ba2_5 3.333698 1_555
B5_5 Ba2_1 3.333698 1_655
B5_6 Ni7_6 2.046511 1_555
B5_6 Ni7_2 2.046511 1_655
B5_6 Ni2_6 2.062313 1_555
B5_6 Ni2_2 2.062313 1_655
B5_6 Ba0_6 3.049060 1_555
B5_6 Ba2_2 3.333698 1_655
B5_6 Ba2_6 3.333698 1_555
B5_7 Ni7_7 2.046511 1_555
B5_7 Ni7_3 2.046511 1_655
B5_7 Ni2_3 2.062313 1_655
B5_7 Ni2_7 2.062313 1_555
B5_7 Ba0_7 3.049060 1_555
B5_7 Ba2_3 3.333698 1_655
B5_7 Ba2_7 3.333698 1_555
B6_0 Ni4_4 2.046511 1_455
B6_0 Ni4_0 2.046511 1_555
B6_0 Ni1_4 2.062313 1_455
B6_0 Ni1_0 2.062313 1_555
B6_0 Ba3_1 3.049060 1_555
B6_0 Ba1_0 3.333698 1_555
B6_0 Ba1_4 3.333698 1_455
B6_1 Ni4_1 2.046511 1_555
B6_1 Ni4_5 2.046511 1_455
B6_1 Ni1_5 2.062313 1_455
B6_1 Ni1_1 2.062313 1_555
B6_1 Ba3_0 3.049060 1_556
B6_1 Ba1_1 3.333698 1_555
B6_1 Ba1_5 3.333698 1_455
B6_2 Ni4_6 2.046511 1_455
B6_2 Ni4_2 2.046511 1_555
B6_2 Ni1_2 2.062313 1_555
B6_2 Ni1_6 2.062313 1_455
B6_2 Ba3_3 3.049060 1_555
B6_2 Ba1_2 3.333698 1_555
B6_2 Ba1_6 3.333698 1_455
B6_3 Ni4_3 2.046511 1_555
B6_3 Ni4_7 2.046511 1_455
B6_3 Ni1_3 2.062313 1_555
B6_3 Ni1_7 2.062313 1_455
B6_3 Ba3_2 3.049060 1_556
B6_3 Ba1_7 3.333698 1_455
B6_3 Ba1_3 3.333698 1_555
B6_4 Ni4_0 2.046511 1_555
B6_4 Ni4_4 2.046511 1_555
B6_4 Ni1_0 2.062313 1_555
B6_4 Ni1_4 2.062313 1_555
B6_4 Ba3_5 3.049060 1_555
B6_4 Ba1_0 3.333698 1_555
B6_4 Ba1_4 3.333698 1_555
B6_5 Ni4_1 2.046511 1_555
B6_5 Ni4_5 2.046511 1_555
B6_5 Ni1_1 2.062313 1_555
B6_5 Ni1_5 2.062313 1_555
B6_5 Ba3_4 3.049060 1_556
B6_5 Ba1_1 3.333698 1_555
B6_5 Ba1_5 3.333698 1_555
B6_6 Ni4_6 2.046511 1_555
B6_6 Ni4_2 2.046511 1_555
B6_6 Ni1_2 2.062313 1_555
B6_6 Ni1_6 2.062313 1_555
B6_6 Ba3_7 3.049060 1_555
B6_6 Ba1_6 3.333698 1_555
B6_6 Ba1_2 3.333698 1_555
B6_7 Ni4_7 2.046511 1_555
B6_7 Ni4_3 2.046511 1_555
B6_7 Ni1_3 2.062313 1_555
B6_7 Ni1_7 2.062313 1_555
B6_7 Ba3_6 3.049060 1_556
B6_7 Ba1_7 3.333698 1_555
B6_7 Ba1_3 3.333698 1_555
B7_0 Ni5_0 2.046511 1_555
B7_0 Ni5_4 2.046511 1_455
B7_0 Ni0_4 2.062313 1_455
B7_0 Ni0_0 2.062313 1_555
B7_0 Ba2_1 3.049060 1_554
B7_0 Ba0_0 3.333698 1_555
B7_0 Ba0_4 3.333698 1_455
B7_1 Ni5_5 2.046511 1_455
B7_1 Ni5_1 2.046511 1_555
B7_1 Ni0_1 2.062313 1_555
B7_1 Ni0_5 2.062313 1_455
B7_1 Ba2_0 3.049060 1_555
B7_1 Ba0_5 3.333698 1_455
B7_1 Ba0_1 3.333698 1_555
B7_2 Ni5_6 2.046511 1_455
B7_2 Ni5_2 2.046511 1_555
B7_2 Ni0_2 2.062313 1_555
B7_2 Ni0_6 2.062313 1_455
B7_2 Ba2_3 3.049060 1_554
B7_2 Ba0_2 3.333698 1_555
B7_2 Ba0_6 3.333698 1_455
B7_3 Ni5_3 2.046511 1_555
B7_3 Ni5_7 2.046511 1_455
B7_3 Ni0_3 2.062313 1_555
B7_3 Ni0_7 2.062313 1_455
B7_3 Ba2_2 3.049060 1_555
B7_3 Ba0_3 3.333698 1_555
B7_3 Ba0_7 3.333698 1_455
B7_4 Ni5_0 2.046511 1_555
B7_4 Ni5_4 2.046511 1_555
B7_4 Ni0_4 2.062313 1_555
B7_4 Ni0_0 2.062313 1_555
B7_4 Ba2_5 3.049060 1_554
B7_4 Ba0_0 3.333698 1_555
B7_4 Ba0_4 3.333698 1_555
B7_5 Ni5_1 2.046511 1_555
B7_5 Ni5_5 2.046511 1_555
B7_5 Ni0_5 2.062313 1_555
B7_5 Ni0_1 2.062313 1_555
B7_5 Ba2_4 3.049060 1_555
B7_5 Ba0_5 3.333698 1_555
B7_5 Ba0_1 3.333698 1_555
B7_6 Ni5_6 2.046511 1_555
B7_6 Ni5_2 2.046511 1_555
B7_6 Ni0_6 2.062313 1_555
B7_6 Ni0_2 2.062313 1_555
B7_6 Ba2_7 3.049060 1_554
B7_6 Ba0_2 3.333698 1_555
B7_6 Ba0_6 3.333698 1_555
B7_7 Ni5_7 2.046511 1_555
B7_7 Ni5_3 2.046511 1_555
B7_7 Ni0_3 2.062313 1_555
B7_7 Ni0_7 2.062313 1_555
B7_7 Ba2_6 3.049060 1_555
B7_7 Ba0_3 3.333698 1_555
B7_7 Ba0_7 3.333698 1_555
