# generated using pymatgen
data_LiV(WO4)2
_symmetry_space_group_name_H-M   'P 1'
_cell_length_a   5.03209271
_cell_length_b   7.46716657
_cell_length_c   7.46728957
_cell_angle_alpha   101.49182684
_cell_angle_beta   90.61559865
_cell_angle_gamma   90.61447129
_symmetry_Int_Tables_number   1
_chemical_formula_structural   LiV(WO4)2
_chemical_formula_sum   'Li2 V2 W4 O16'
_cell_volume   274.92249260
_cell_formula_units_Z   2
loop_
 _symmetry_equiv_pos_site_id
 _symmetry_equiv_pos_as_xyz
  1  'x, y, z'
loop_
 _atom_site_type_symbol
 _atom_site_label
 _atom_site_symmetry_multiplicity
 _atom_site_fract_x
 _atom_site_fract_y
 _atom_site_fract_z
 _atom_site_occupancy
  Li  Li0  1  0.74992700  0.33786900  0.66210100  1
  Li  Li1  1  0.24996500  0.66208200  0.33788200  1
  V  V0  1  0.75035500  0.82589200  0.17392100  1
  V  V1  1  0.25039000  0.17390100  0.82587200  1
  W  W0  1  0.24234800  0.66171700  0.83629200  1
  W  W1  1  0.74235400  0.83626100  0.66173200  1
  W  W2  1  0.75775700  0.33809800  0.16379400  1
  W  W3  1  0.25773900  0.16380900  0.33808000  1
  O  O0  1  0.40925100  0.70067600  0.06113800  1
  O  O1  1  0.59061100  0.29933700  0.93869500  1
  O  O2  1  0.09060900  0.93869400  0.29934700  1
  O  O3  1  0.90916800  0.06113500  0.70068500  1
  O  O4  1  0.91660100  0.80192800  0.92169100  1
  O  O5  1  0.08308200  0.19819400  0.07848400  1
  O  O6  1  0.58308100  0.07848000  0.19820300  1
  O  O7  1  0.41660500  0.92168600  0.80192600  1
  O  O8  1  0.89220100  0.57098500  0.18427200  1
  O  O9  1  0.10799300  0.42882400  0.81580900  1
  O  O10  1  0.60799100  0.81579800  0.42884100  1
  O  O11  1  0.39226100  0.18431500  0.57096600  1
  O  O12  1  0.55472900  0.59650600  0.69458700  1
  O  O13  1  0.44511200  0.40367700  0.30552100  1
  O  O14  1  0.94515300  0.30556000  0.40364900  1
  O  O15  1  0.05471700  0.69457600  0.59651100  1
loop_
_geom_bond_atom_site_label_1
_geom_bond_atom_site_label_2
_geom_bond_distance
_geom_bond_site_symmetry_2
Li0 O14 2.146685 1_555
Li0 O12 2.147712 1_555
Li0 O11 2.153057 1_555
Li0 O9 2.154981 1_655
Li0 O1 2.293214 1_555
Li0 O3 2.294121 1_555
Li1 O13 2.146122 1_555
Li1 O15 2.147817 1_555
Li1 O8 2.153599 1_455
Li1 O10 2.154849 1_555
Li1 O2 2.293371 1_555
Li1 O0 2.294340 1_555
O0 W0 1.838167 1_554
O0 V0 2.037283 1_555
O1 W2 1.840412 1_556
O1 V1 2.034282 1_555
O2 W3 1.840475 1_565
O2 V0 2.034343 1_455
O3 W1 1.838141 1_545
O3 V1 2.037659 1_655
O4 W0 1.995747 1_655
O4 V0 2.045021 1_556
O4 W1 2.183875 1_555
O5 W2 1.992758 1_455
O5 V1 2.049635 1_554
O5 W3 2.182343 1_555
O6 W3 1.992779 1_555
O6 V0 2.049366 1_545
O6 W2 2.182573 1_555
O7 W1 1.995751 1_555
O7 V1 2.044824 1_565
O7 W0 2.184026 1_555
O8 W2 1.836249 1_555
O8 V0 2.055503 1_555
O9 W0 1.836126 1_555
O9 V1 2.056138 1_555
O10 W1 1.836158 1_555
O10 V0 2.056151 1_555
O11 W3 1.836375 1_555
O11 V1 2.055687 1_555
O12 W0 1.916928 1_555
O12 W1 2.073759 1_555
O13 W2 1.918535 1_555
O13 W3 2.073286 1_555
O14 W3 1.918352 1_655
O14 W2 2.073212 1_555
O15 W1 1.916772 1_455
O15 W0 2.073960 1_555
