# generated using pymatgen
data_RbMgPO4
_symmetry_space_group_name_H-M   'P 1'
_cell_length_a   5.51673300
_cell_length_b   8.92022500
_cell_length_c   9.92710000
_cell_angle_alpha   90.00000000
_cell_angle_beta   90.00000000
_cell_angle_gamma   90.00000000
_symmetry_Int_Tables_number   1
_chemical_formula_structural   RbMgPO4
_chemical_formula_sum   'Rb4 Mg4 P4 O16'
_cell_volume   488.51755083
_cell_formula_units_Z   4
loop_
 _symmetry_equiv_pos_site_id
 _symmetry_equiv_pos_as_xyz
  1  'x, y, z'
loop_
 _atom_site_type_symbol
 _atom_site_label
 _atom_site_symmetry_multiplicity
 _atom_site_fract_x
 _atom_site_fract_y
 _atom_site_fract_z
 _atom_site_occupancy
  Rb  Rb0  1  0.25000000  0.00105400  0.68107200  1
  Rb  Rb1  1  0.25000000  0.50105400  0.81892800  1
  Rb  Rb2  1  0.75000000  0.99894600  0.31892800  1
  Rb  Rb3  1  0.75000000  0.49894600  0.18107200  1
  Mg  Mg0  1  0.25000000  0.32530400  0.41846800  1
  Mg  Mg1  1  0.25000000  0.82530400  0.08153200  1
  Mg  Mg2  1  0.75000000  0.67469600  0.58153200  1
  Mg  Mg3  1  0.75000000  0.17469600  0.91846800  1
  P  P0  1  0.75000000  0.28738900  0.58510000  1
  P  P1  1  0.75000000  0.78738900  0.91490000  1
  P  P2  1  0.25000000  0.71261100  0.41490000  1
  P  P3  1  0.25000000  0.21261100  0.08510000  1
  O  O0  1  0.75000000  0.22352900  0.72963900  1
  O  O1  1  0.75000000  0.72352900  0.77036100  1
  O  O2  1  0.25000000  0.77647100  0.27036100  1
  O  O3  1  0.25000000  0.27647100  0.22963900  1
  O  O4  1  0.75000000  0.45987000  0.58848100  1
  O  O5  1  0.75000000  0.95987000  0.91151900  1
  O  O6  1  0.25000000  0.54013000  0.41151900  1
  O  O7  1  0.25000000  0.04013000  0.08848100  1
  O  O8  1  0.97837800  0.22856300  0.50968200  1
  O  O9  1  0.52162200  0.72856300  0.99031800  1
  O  O10  1  0.47837800  0.77143700  0.49031800  1
  O  O11  1  0.02162200  0.27143700  0.00968200  1
  O  O12  1  0.02162200  0.77143700  0.49031800  1
  O  O13  1  0.47837800  0.27143700  0.00968200  1
  O  O14  1  0.52162200  0.22856300  0.50968200  1
  O  O15  1  0.97837800  0.72856300  0.99031800  1
loop_
_geom_bond_atom_site_label_1
_geom_bond_atom_site_label_2
_geom_bond_distance
_geom_bond_site_symmetry_2
Mg0 O6 1.917537 1_555
Mg0 O3 1.924471 1_555
Mg0 O14 1.951922 1_555
Mg0 O8 1.951922 1_455
Mg1 O7 1.917537 1_565
Mg1 O2 1.924471 1_555
Mg1 O15 1.951922 1_454
Mg1 O9 1.951922 1_554
Mg2 O4 1.917537 1_555
Mg2 O1 1.924471 1_555
Mg2 O10 1.951922 1_555
Mg2 O12 1.951922 1_655
Mg3 O5 1.917537 1_545
Mg3 O0 1.924471 1_555
Mg3 O11 1.951922 1_656
Mg3 O13 1.951922 1_556
O0 P0 1.543794 1_555
O1 P1 1.543794 1_555
O2 P2 1.543794 1_555
O3 P3 1.543794 1_555
O4 P0 1.538935 1_555
O5 P1 1.538935 1_555
O6 P2 1.538935 1_555
O7 P3 1.538935 1_555
O8 P0 1.556672 1_555
O8 Rb0 3.042823 1_655
O8 Rb2 3.060795 1_545
O9 P1 1.556672 1_555
O9 Rb1 3.042823 1_555
O9 Rb3 3.060795 1_556
O10 P2 1.556672 1_555
O10 Rb2 3.042823 1_555
O10 Rb0 3.060795 1_565
O11 P3 1.556672 1_555
O11 Rb3 3.042823 1_455
O11 Rb1 3.060795 1_554
O12 P2 1.556672 1_555
O12 Rb2 3.042823 1_455
O12 Rb0 3.060795 1_565
O13 P3 1.556672 1_555
O13 Rb3 3.042823 1_555
O13 Rb1 3.060795 1_554
O14 P0 1.556672 1_555
O14 Rb0 3.042823 1_555
O14 Rb2 3.060795 1_545
O15 P1 1.556672 1_555
O15 Rb1 3.042823 1_655
O15 Rb3 3.060795 1_556
