# generated using pymatgen
data_RbSb
_symmetry_space_group_name_H-M   'P 1'
_cell_length_a   7.22173281
_cell_length_b   7.46034805
_cell_length_c   12.86726682
_cell_angle_alpha   97.84718788
_cell_angle_beta   90.00000000
_cell_angle_gamma   90.00000000
_symmetry_Int_Tables_number   1
_chemical_formula_structural   RbSb
_chemical_formula_sum   'Rb8 Sb8'
_cell_volume   686.75337282
_cell_formula_units_Z   8
loop_
 _symmetry_equiv_pos_site_id
 _symmetry_equiv_pos_as_xyz
  1  'x, y, z'
loop_
 _atom_site_type_symbol
 _atom_site_label
 _atom_site_symmetry_multiplicity
 _atom_site_fract_x
 _atom_site_fract_y
 _atom_site_fract_z
 _atom_site_occupancy
  Rb  Rb0  1  0.16955362  0.78631433  0.53142131  1
  Rb  Rb1  1  0.66955362  0.71368567  0.96857869  1
  Rb  Rb2  1  0.83044638  0.21368567  0.46857869  1
  Rb  Rb3  1  0.33044638  0.28631433  0.03142131  1
  Rb  Rb4  1  0.40248462  0.38221684  0.66780057  1
  Rb  Rb5  1  0.90248462  0.11778316  0.83219943  1
  Rb  Rb6  1  0.59751538  0.61778316  0.33219943  1
  Rb  Rb7  1  0.09751538  0.88221684  0.16780057  1
  Sb  Sb0  1  0.16990407  0.70237515  0.87055630  1
  Sb  Sb1  1  0.66990407  0.79762485  0.62944370  1
  Sb  Sb2  1  0.83009593  0.29762485  0.12944370  1
  Sb  Sb3  1  0.33009593  0.20237515  0.37055630  1
  Sb  Sb4  1  0.90377059  0.54531903  0.71630891  1
  Sb  Sb5  1  0.40377059  0.95468097  0.78369109  1
  Sb  Sb6  1  0.09622941  0.45468097  0.28369109  1
  Sb  Sb7  1  0.59622941  0.04531903  0.21630891  1
loop_
_geom_bond_atom_site_label_1
_geom_bond_atom_site_label_2
_geom_bond_distance
_geom_bond_site_symmetry_2
Rb0 Sb4 3.707318 1_455
Rb0 Sb5 3.723177 1_555
Rb0 Sb6 3.795910 1_555
Rb0 Sb1 3.819551 1_455
Rb0 Sb1 3.824333 1_555
Rb0 Sb3 4.125240 1_565
Rb1 Sb5 3.707318 1_555
Rb1 Sb4 3.723177 1_555
Rb1 Sb7 3.795910 1_566
Rb1 Sb0 3.819551 1_555
Rb1 Sb0 3.824333 1_655
Rb1 Sb2 4.125240 1_556
Rb2 Sb6 3.707318 1_655
Rb2 Sb7 3.723177 1_555
Rb2 Sb4 3.795910 1_555
Rb2 Sb3 3.819551 1_655
Rb2 Sb3 3.824333 1_555
Rb2 Sb1 4.125240 1_545
Rb3 Sb7 3.707318 1_555
Rb3 Sb6 3.723177 1_555
Rb3 Sb5 3.795910 1_544
Rb3 Sb2 3.819551 1_555
Rb3 Sb2 3.824333 1_455
Rb3 Sb0 4.125240 1_554
Rb4 Sb0 3.692010 1_555
Rb4 Sb5 3.700789 1_545
Rb4 Sb1 3.741024 1_555
Rb4 Sb4 3.825464 1_455
Rb4 Sb4 3.842956 1_555
Rb4 Sb3 3.911605 1_555
Rb5 Sb1 3.692010 1_545
Rb5 Sb4 3.700789 1_555
Rb5 Sb0 3.741024 1_645
Rb5 Sb5 3.825464 1_545
Rb5 Sb5 3.842956 1_645
Rb5 Sb2 3.911605 1_556
Rb6 Sb2 3.692010 1_555
Rb6 Sb7 3.700789 1_565
Rb6 Sb3 3.741024 1_555
Rb6 Sb6 3.825464 1_655
Rb6 Sb6 3.842956 1_555
Rb6 Sb1 3.911605 1_555
Rb7 Sb3 3.692010 1_565
Rb7 Sb6 3.700789 1_555
Rb7 Sb2 3.741024 1_465
Rb7 Sb7 3.825464 1_565
Rb7 Sb7 3.842956 1_465
Rb7 Sb0 3.911605 1_554
Sb0 Sb5 2.866923 1_555
Sb0 Sb4 2.893256 1_455
Sb1 Sb4 2.866923 1_555
Sb1 Sb5 2.893256 1_555
Sb2 Sb7 2.866923 1_555
Sb2 Sb6 2.893256 1_655
Sb3 Sb6 2.866923 1_555
Sb3 Sb7 2.893256 1_555
