# generated using pymatgen
data_VNiP
_symmetry_space_group_name_H-M   'P 1'
_cell_length_a   3.49161600
_cell_length_b   5.84785000
_cell_length_c   6.83813900
_cell_angle_alpha   90.00000000
_cell_angle_beta   90.00000000
_cell_angle_gamma   90.00000000
_symmetry_Int_Tables_number   1
_chemical_formula_structural   VNiP
_chemical_formula_sum   'V4 Ni4 P4'
_cell_volume   139.62417619
_cell_formula_units_Z   4
loop_
 _symmetry_equiv_pos_site_id
 _symmetry_equiv_pos_as_xyz
  1  'x, y, z'
loop_
 _atom_site_type_symbol
 _atom_site_label
 _atom_site_symmetry_multiplicity
 _atom_site_fract_x
 _atom_site_fract_y
 _atom_site_fract_z
 _atom_site_occupancy
  V  V0  1  0.75000000  0.47451200  0.66316500  1
  V  V1  1  0.75000000  0.97451200  0.83683500  1
  V  V2  1  0.25000000  0.52548800  0.33683500  1
  V  V3  1  0.25000000  0.02548800  0.16316500  1
  Ni  Ni0  1  0.75000000  0.35413600  0.06655500  1
  Ni  Ni1  1  0.75000000  0.85413600  0.43344500  1
  Ni  Ni2  1  0.25000000  0.64586400  0.93344500  1
  Ni  Ni3  1  0.25000000  0.14586400  0.56655500  1
  P  P0  1  0.75000000  0.73258700  0.12681600  1
  P  P1  1  0.75000000  0.23258700  0.37318400  1
  P  P2  1  0.25000000  0.26741300  0.87318400  1
  P  P3  1  0.25000000  0.76741300  0.62681600  1
loop_
_geom_bond_atom_site_label_1
_geom_bond_atom_site_label_2
_geom_bond_distance
_geom_bond_site_symmetry_2
Ni0 P1 2.213976 1_555
Ni0 P2 2.248002 1_554
Ni0 P2 2.248002 1_654
Ni0 P0 2.251161 1_555
Ni1 P0 2.213976 1_555
Ni1 P3 2.248002 1_555
Ni1 P3 2.248002 1_655
Ni1 P1 2.251161 1_565
Ni2 P3 2.213976 1_555
Ni2 P0 2.248002 1_456
Ni2 P0 2.248002 1_556
Ni2 P2 2.251161 1_555
Ni3 P2 2.213976 1_555
Ni3 P1 2.248002 1_455
Ni3 P1 2.248002 1_555
Ni3 P3 2.251161 1_545
P0 V1 2.435879 1_554
P0 V3 2.458343 1_565
P0 V3 2.458343 1_665
P0 V2 2.564579 1_655
P0 V2 2.564579 1_555
P1 V0 2.435879 1_555
P1 V2 2.458343 1_555
P1 V2 2.458343 1_655
P1 V3 2.564579 1_555
P1 V3 2.564579 1_655
P2 V3 2.435879 1_556
P2 V1 2.458343 1_445
P2 V1 2.458343 1_545
P2 V0 2.564579 1_555
P2 V0 2.564579 1_455
P3 V2 2.435879 1_555
P3 V0 2.458343 1_555
P3 V0 2.458343 1_455
P3 V1 2.564579 1_455
P3 V1 2.564579 1_555
