# generated using pymatgen
data_Ba(As2O7)2
_symmetry_space_group_name_H-M   'P 1'
_cell_length_a   5.79142900
_cell_length_b   8.91087800
_cell_length_c   11.58545300
_cell_angle_alpha   90.00000000
_cell_angle_beta   90.00000000
_cell_angle_gamma   90.00000000
_symmetry_Int_Tables_number   1
_chemical_formula_structural   Ba(As2O7)2
_chemical_formula_sum   'Ba2 As8 O28'
_cell_volume   597.88719735
_cell_formula_units_Z   2
loop_
 _symmetry_equiv_pos_site_id
 _symmetry_equiv_pos_as_xyz
  1  'x, y, z'
loop_
 _atom_site_type_symbol
 _atom_site_label
 _atom_site_symmetry_multiplicity
 _atom_site_fract_x
 _atom_site_fract_y
 _atom_site_fract_z
 _atom_site_occupancy
  Ba  Ba0  1  0.00000000  0.00000000  0.50000000  1
  Ba  Ba1  1  0.00000000  0.50000000  0.00000000  1
  As  As0  1  0.50000000  0.65775200  0.50000000  1
  As  As1  1  0.50000000  0.84224800  0.00000000  1
  As  As2  1  0.50000000  0.34224800  0.50000000  1
  As  As3  1  0.50000000  0.15775200  0.00000000  1
  As  As4  1  0.79006300  0.50000000  0.68813800  1
  As  As5  1  0.20993700  0.50000000  0.31186200  1
  As  As6  1  0.79006300  0.00000000  0.81186200  1
  As  As7  1  0.20993700  0.00000000  0.18813800  1
  O  O0  1  0.75808700  0.66241000  0.60488100  1
  O  O1  1  0.24191300  0.66241000  0.39511900  1
  O  O2  1  0.75808700  0.83759000  0.89511900  1
  O  O3  1  0.24191300  0.83759000  0.10488100  1
  O  O4  1  0.24191300  0.33759000  0.39511900  1
  O  O5  1  0.75808700  0.33759000  0.60488100  1
  O  O6  1  0.24191300  0.16241000  0.10488100  1
  O  O7  1  0.75808700  0.16241000  0.89511900  1
  O  O8  1  0.65212800  0.50000000  0.82094400  1
  O  O9  1  0.34787200  0.50000000  0.17905600  1
  O  O10  1  0.65212800  0.00000000  0.67905600  1
  O  O11  1  0.34787200  0.00000000  0.32094400  1
  O  O12  1  0.05567500  0.50000000  0.75381700  1
  O  O13  1  0.94432500  0.50000000  0.24618300  1
  O  O14  1  0.05567500  0.00000000  0.74618300  1
  O  O15  1  0.94432500  0.00000000  0.25381700  1
  O  O16  1  0.37799500  0.50000000  0.58721200  1
  O  O17  1  0.62200500  0.50000000  0.41278800  1
  O  O18  1  0.37799500  0.00000000  0.91278800  1
  O  O19  1  0.62200500  0.00000000  0.08721200  1
  O  O20  1  0.36643000  0.68702900  0.92693300  1
  O  O21  1  0.63357000  0.68702900  0.07306700  1
  O  O22  1  0.36643000  0.81297100  0.57306700  1
  O  O23  1  0.63357000  0.81297100  0.42693300  1
  O  O24  1  0.63357000  0.31297100  0.07306700  1
  O  O25  1  0.36643000  0.31297100  0.92693300  1
  O  O26  1  0.63357000  0.18702900  0.42693300  1
  O  O27  1  0.36643000  0.18702900  0.57306700  1
loop_
_geom_bond_atom_site_label_1
_geom_bond_atom_site_label_2
_geom_bond_distance
_geom_bond_site_symmetry_2
Ba0 O26 2.828012 1_455
Ba0 O22 2.828012 1_545
Ba0 O27 2.828012 1_555
Ba0 O23 2.828012 1_445
Ba0 O15 2.870310 1_455
Ba0 O14 2.870310 1_555
Ba0 O11 2.891754 1_555
Ba0 O10 2.891754 1_455
Ba1 O25 2.828012 1_554
Ba1 O20 2.828012 1_554
Ba1 O21 2.828012 1_455
Ba1 O24 2.828012 1_455
Ba1 O13 2.870310 1_455
Ba1 O12 2.870310 1_554
Ba1 O8 2.891754 1_454
Ba1 O9 2.891754 1_555
As0 O22 1.796678 1_555
As0 O23 1.796678 1_555
As0 O16 1.869804 1_555
As0 O17 1.869804 1_555
As0 O0 1.926728 1_555
As0 O1 1.926728 1_555
As1 O21 1.796678 1_555
As1 O20 1.796678 1_554
As1 O18 1.869804 1_564
As1 O19 1.869804 1_565
As1 O2 1.926728 1_554
As1 O3 1.926728 1_555
As2 O27 1.796678 1_555
As2 O26 1.796678 1_555
As2 O16 1.869804 1_555
As2 O17 1.869804 1_555
As2 O5 1.926728 1_555
As2 O4 1.926728 1_555
As3 O24 1.796678 1_555
As3 O25 1.796678 1_554
As3 O18 1.869804 1_554
As3 O19 1.869804 1_555
As3 O7 1.926728 1_554
As3 O6 1.926728 1_555
As4 O12 1.716183 1_655
As4 O8 1.733635 1_555
As4 O5 1.749035 1_555
As4 O0 1.749035 1_555
As5 O13 1.716183 1_455
As5 O9 1.733635 1_555
As5 O4 1.749035 1_555
As5 O1 1.749035 1_555
As6 O14 1.716183 1_655
As6 O10 1.733635 1_555
As6 O7 1.749035 1_555
As6 O2 1.749035 1_545
As7 O15 1.716183 1_455
As7 O11 1.733635 1_555
As7 O6 1.749035 1_555
As7 O3 1.749035 1_545
