# generated using pymatgen
data_Ho3Ga8Ir3
_symmetry_space_group_name_H-M   'P 1'
_cell_length_a   8.14139399
_cell_length_b   8.14139399
_cell_length_c   8.14139399
_cell_angle_alpha   150.14538363
_cell_angle_beta   105.07698908
_cell_angle_gamma   82.68016020
_symmetry_Int_Tables_number   1
_chemical_formula_structural   Ho3Ga8Ir3
_chemical_formula_sum   'Ho3 Ga8 Ir3'
_cell_volume   253.91194925
_cell_formula_units_Z   1
loop_
 _symmetry_equiv_pos_site_id
 _symmetry_equiv_pos_as_xyz
  1  'x, y, z'
loop_
 _atom_site_type_symbol
 _atom_site_label
 _atom_site_symmetry_multiplicity
 _atom_site_fract_x
 _atom_site_fract_y
 _atom_site_fract_z
 _atom_site_occupancy
  Ho  Ho0  1  0.50000000  0.50000000  0.00000000  1
  Ho  Ho1  1  0.17222900  0.17222900  0.00000000  1
  Ho  Ho2  1  0.82777100  0.82777100  0.00000000  1
  Ga  Ga0  1  0.08737200  0.37455800  0.71281400  1
  Ga  Ga1  1  0.91262800  0.62544200  0.28718600  1
  Ga  Ga2  1  0.66174400  0.37455800  0.28718600  1
  Ga  Ga3  1  0.33825600  0.62544200  0.71281400  1
  Ga  Ga4  1  0.79316000  0.16500600  0.62815500  1
  Ga  Ga5  1  0.20684000  0.83499400  0.37184500  1
  Ga  Ga6  1  0.53685100  0.16500600  0.37184500  1
  Ga  Ga7  1  0.46314900  0.83499400  0.62815500  1
  Ir  Ir0  1  0.00000000  0.50000000  0.50000000  1
  Ir  Ir1  1  0.78607700  0.00000000  0.78607700  1
  Ir  Ir2  1  0.21392300  0.00000000  0.21392300  1
loop_
_geom_bond_atom_site_label_1
_geom_bond_atom_site_label_2
_geom_bond_distance
_geom_bond_site_symmetry_2
Ho1 Ir0 2.971760 1_544
Ho1 Ir0 2.971760 1_555
Ho1 Ir2 2.986936 1_555
Ho1 Ir1 2.986936 1_454
Ho2 Ir0 2.971760 1_665
Ho2 Ir0 2.971760 1_654
Ho2 Ir1 2.986936 1_564
Ho2 Ir2 2.986936 1_665
Ga0 Ir2 2.598078 1_555
Ga0 Ir2 2.598078 1_566
Ga0 Ir0 2.606511 1_555
Ga0 Ga5 2.666955 1_556
Ga0 Ga5 2.666958 1_545
Ga0 Ga4 2.695525 1_455
Ga0 Ho2 3.027772 1_456
Ga0 Ho2 3.027772 1_445
Ga0 Ho0 3.231283 1_556
Ga1 Ir1 2.598078 1_554
Ga1 Ir1 2.598078 1_565
Ga1 Ir0 2.606511 1_655
Ga1 Ga4 2.666955 1_554
Ga1 Ga4 2.666958 1_565
Ga1 Ga5 2.695525 1_655
Ga1 Ho1 3.027772 1_655
Ga1 Ho1 3.027772 1_666
Ga1 Ho0 3.231283 1_555
Ga2 Ir1 2.598078 1_554
Ga2 Ir1 2.598078 1_565
Ga2 Ir0 2.606511 1_655
Ga2 Ga7 2.666955 1_544
Ga2 Ga7 2.666955 1_555
Ga2 Ga6 2.695518 1_555
Ga2 Ho2 3.027772 1_545
Ga2 Ho2 3.027772 1_556
Ga2 Ho0 3.231283 1_555
Ga3 Ir2 2.598078 1_555
Ga3 Ir2 2.598078 1_566
Ga3 Ir0 2.606511 1_555
Ga3 Ga6 2.666955 1_555
Ga3 Ga6 2.666955 1_566
Ga3 Ga7 2.695518 1_555
Ga3 Ho1 3.027772 1_555
Ga3 Ho1 3.027772 1_566
Ga3 Ho0 3.231283 1_556
Ga4 Ga6 2.538400 1_555
Ga4 Ir1 2.552507 1_555
Ga4 Ho2 3.157279 1_556
Ga4 Ho2 3.157281 1_545
Ga4 Ho0 3.174608 1_556
Ga4 Ho0 3.174611 1_545
Ga5 Ga7 2.538400 1_555
Ga5 Ir2 2.552507 1_565
Ga5 Ho1 3.157279 1_555
Ga5 Ho1 3.157281 1_566
Ga5 Ho0 3.174608 1_555
Ga5 Ho0 3.174611 1_566
Ga6 Ir2 2.552509 1_555
Ga6 Ho2 3.157278 1_556
Ga6 Ho2 3.157278 1_545
Ga6 Ho0 3.174616 1_545
Ga6 Ho0 3.174616 1_556
Ga7 Ir1 2.552509 1_565
Ga7 Ho1 3.157278 1_566
Ga7 Ho1 3.157278 1_555
Ga7 Ho0 3.174616 1_555
Ga7 Ho0 3.174616 1_566
