# generated using pymatgen
data_Hf10(InSb)3
_symmetry_space_group_name_H-M   'P 1'
_cell_length_a   5.74874906
_cell_length_b   8.48061829
_cell_length_c   8.48061872
_cell_angle_alpha   59.97142906
_cell_angle_beta   89.99145289
_cell_angle_gamma   90.00855572
_symmetry_Int_Tables_number   1
_chemical_formula_structural   Hf10(InSb)3
_chemical_formula_sum   'Hf10 In3 Sb3'
_cell_volume   357.95951673
_cell_formula_units_Z   1
loop_
 _symmetry_equiv_pos_site_id
 _symmetry_equiv_pos_as_xyz
  1  'x, y, z'
loop_
 _atom_site_type_symbol
 _atom_site_label
 _atom_site_symmetry_multiplicity
 _atom_site_fract_x
 _atom_site_fract_y
 _atom_site_fract_z
 _atom_site_occupancy
  Hf  Hf0  1  0.50003100  0.33330500  0.33327300  1
  Hf  Hf1  1  0.50003100  0.66672700  0.66669500  1
  Hf  Hf2  1  0.99985000  0.66649600  0.66667000  1
  Hf  Hf3  1  0.99985000  0.33333000  0.33350400  1
  Hf  Hf4  1  0.75028300  0.24748600  0.75251400  1
  Hf  Hf5  1  0.74992600  0.75263100  0.00016100  1
  Hf  Hf6  1  0.74992600  0.99983900  0.24736900  1
  Hf  Hf7  1  0.25045600  0.75162200  0.24837800  1
  Hf  Hf8  1  0.24991900  0.24836900  0.99981700  1
  Hf  Hf9  1  0.24991900  0.00018300  0.75163100  1
  In  In0  1  0.74970300  0.60922700  0.39077300  1
  In  In1  1  0.75012700  0.39061800  0.00011900  1
  In  In2  1  0.75012700  0.99988100  0.60938200  1
  Sb  Sb0  1  0.24981300  0.39019900  0.60980100  1
  Sb  Sb1  1  0.25001900  0.61009500  0.00000700  1
  Sb  Sb2  1  0.25001900  0.99999300  0.38990500  1
loop_
_geom_bond_atom_site_label_1
_geom_bond_atom_site_label_2
_geom_bond_distance
_geom_bond_site_symmetry_2
Hf0 In1 2.984976 1_555
Hf0 In0 2.985746 1_555
Hf0 In2 2.986803 1_545
Hf0 Sb1 2.987626 1_555
Hf0 Sb2 2.987704 1_545
Hf0 Sb0 2.988852 1_555
Hf1 In2 2.984976 1_555
Hf1 In0 2.985747 1_555
Hf1 In1 2.986803 1_556
Hf1 Sb2 2.987626 1_555
Hf1 Sb1 2.987705 1_556
Hf1 Sb0 2.988852 1_555
Hf2 In1 2.984539 1_556
Hf2 In0 2.986056 1_555
Hf2 In2 2.986181 1_555
Hf2 Sb0 2.986601 1_655
Hf2 Sb2 2.988335 1_655
Hf2 Sb1 2.989410 1_656
Hf3 In2 2.984539 1_545
Hf3 In0 2.986056 1_555
Hf3 In1 2.986181 1_555
Hf3 Sb0 2.986601 1_655
Hf3 Sb1 2.988335 1_655
Hf3 Sb2 2.989410 1_645
Hf4 In2 2.904111 1_545
Hf4 In1 2.904111 1_556
Hf4 In0 3.066465 1_555
Hf4 Sb0 3.115763 1_655
Hf4 Sb0 3.121409 1_555
Hf5 In0 2.901794 1_555
Hf5 In2 2.902519 1_554
Hf5 In1 3.070273 1_555
Hf5 Sb1 3.117801 1_555
Hf5 Sb1 3.119119 1_655
Hf6 In0 2.901794 1_555
Hf6 In1 2.902519 1_565
Hf6 In2 3.070273 1_555
Hf6 Sb2 3.117801 1_555
Hf6 Sb2 3.119119 1_655
Hf7 Sb2 2.899574 1_555
Hf7 Sb1 2.899574 1_555
Hf7 Sb0 3.063768 1_555
Hf7 In0 3.113883 1_555
Hf7 In0 3.121200 1_455
Hf8 Sb0 2.899138 1_555
Hf8 Sb2 2.899418 1_546
Hf8 Sb1 3.068467 1_556
Hf8 In1 3.116824 1_456
Hf8 In1 3.118697 1_556
Hf9 Sb0 2.899138 1_555
Hf9 Sb1 2.899418 1_546
Hf9 Sb2 3.068467 1_545
Hf9 In2 3.116824 1_445
Hf9 In2 3.118697 1_545
