# generated using pymatgen
data_Hf5Sb3
_symmetry_space_group_name_H-M   'P 1'
_cell_length_a   7.40184717
_cell_length_b   8.77022079
_cell_length_c   10.76611776
_cell_angle_alpha   90.00000000
_cell_angle_beta   90.00000000
_cell_angle_gamma   90.00000000
_symmetry_Int_Tables_number   1
_chemical_formula_structural   Hf5Sb3
_chemical_formula_sum   'Hf20 Sb12'
_cell_volume   698.89151263
_cell_formula_units_Z   4
loop_
 _symmetry_equiv_pos_site_id
 _symmetry_equiv_pos_as_xyz
  1  'x, y, z'
loop_
 _atom_site_type_symbol
 _atom_site_label
 _atom_site_symmetry_multiplicity
 _atom_site_fract_x
 _atom_site_fract_y
 _atom_site_fract_z
 _atom_site_occupancy
  Hf  Hf0  1  0.80332552  0.44301020  0.56297740  1
  Hf  Hf1  1  0.30332552  0.05698980  0.93702260  1
  Hf  Hf2  1  0.19667448  0.94301020  0.43702260  1
  Hf  Hf3  1  0.69667448  0.55698980  0.06297740  1
  Hf  Hf4  1  0.13513928  0.25000000  0.71628741  1
  Hf  Hf5  1  0.63513928  0.25000000  0.78371259  1
  Hf  Hf6  1  0.86486072  0.75000000  0.28371259  1
  Hf  Hf7  1  0.36486072  0.75000000  0.21628741  1
  Hf  Hf8  1  0.30332552  0.44301020  0.93702260  1
  Hf  Hf9  1  0.80332552  0.05698980  0.56297740  1
  Hf  Hf10  1  0.69667448  0.94301020  0.06297740  1
  Hf  Hf11  1  0.19667448  0.55698980  0.43702260  1
  Hf  Hf12  1  0.19290540  0.75000000  0.72406238  1
  Hf  Hf13  1  0.69290540  0.75000000  0.77593762  1
  Hf  Hf14  1  0.80709460  0.25000000  0.27593762  1
  Hf  Hf15  1  0.30709460  0.25000000  0.22406238  1
  Hf  Hf16  1  0.02707578  0.75000000  0.98951429  1
  Hf  Hf17  1  0.52707578  0.75000000  0.51048571  1
  Hf  Hf18  1  0.97292422  0.25000000  0.01048571  1
  Hf  Hf19  1  0.47292422  0.25000000  0.48951329  1
  Sb  Sb0  1  0.41844402  0.75000000  0.95583298  1
  Sb  Sb1  1  0.91844402  0.75000000  0.54416702  1
  Sb  Sb2  1  0.58155598  0.25000000  0.04416702  1
  Sb  Sb3  1  0.08155598  0.25000000  0.45583298  1
  Sb  Sb4  1  0.57643669  0.99240162  0.32635249  1
  Sb  Sb5  1  0.07643669  0.50759838  0.17364751  1
  Sb  Sb6  1  0.42356331  0.49240162  0.67364751  1
  Sb  Sb7  1  0.92356331  0.00759838  0.82635249  1
  Sb  Sb8  1  0.42356331  0.00759838  0.67364751  1
  Sb  Sb9  1  0.92356331  0.49240162  0.82635249  1
  Sb  Sb10  1  0.57643669  0.50759838  0.32635249  1
  Sb  Sb11  1  0.07643669  0.99240162  0.17364751  1
loop_
_geom_bond_atom_site_label_1
_geom_bond_atom_site_label_2
_geom_bond_distance
_geom_bond_site_symmetry_2
Hf0 Sb1 2.831239 1_555
Hf0 Sb3 2.904688 1_655
Hf0 Sb9 3.003318 1_555
Hf0 Sb6 3.083614 1_555
Hf0 Sb10 3.103411 1_555
Hf1 Sb0 2.831239 1_545
Hf1 Sb2 2.904688 1_556
Hf1 Sb8 3.003318 1_555
Hf1 Sb7 3.083614 1_455
Hf1 Sb11 3.103411 1_546
Hf2 Sb3 2.831239 1_565
Hf2 Sb1 2.904688 1_455
Hf2 Sb11 3.003318 1_555
Hf2 Sb4 3.083614 1_555
Hf2 Sb8 3.103411 1_565
Hf3 Sb2 2.831239 1_555
Hf3 Sb0 2.904688 1_554
Hf3 Sb10 3.003318 1_555
Hf3 Sb5 3.083614 1_655
Hf3 Sb9 3.103411 1_554
Hf4 Sb3 2.831993 1_555
Hf4 Sb9 2.894167 1_455
Hf4 Sb7 2.894167 1_455
Hf4 Sb6 3.047611 1_555
Hf4 Sb8 3.047611 1_555
Hf5 Sb2 2.831993 1_556
Hf5 Sb8 2.894167 1_555
Hf5 Sb6 2.894167 1_555
Hf5 Sb9 3.047611 1_555
Hf5 Sb7 3.047611 1_555
Hf6 Sb1 2.831993 1_555
Hf6 Sb5 2.894167 1_655
Hf6 Sb11 2.894167 1_655
Hf6 Sb10 3.047611 1_555
Hf6 Sb4 3.047611 1_555
Hf7 Sb0 2.831993 1_554
Hf7 Sb10 2.894167 1_555
Hf7 Sb4 2.894167 1_555
Hf7 Sb5 3.047611 1_555
Hf7 Sb11 3.047611 1_555
Hf8 Sb0 2.831239 1_555
Hf8 Sb2 2.904688 1_556
Hf8 Sb6 3.003318 1_555
Hf8 Sb9 3.083614 1_455
Hf8 Sb5 3.103411 1_556
Hf9 Sb1 2.831239 1_545
Hf9 Sb3 2.904688 1_655
Hf9 Sb7 3.003318 1_555
Hf9 Sb8 3.083614 1_555
Hf9 Sb4 3.103411 1_545
Hf10 Sb2 2.831239 1_565
Hf10 Sb0 2.904688 1_554
Hf10 Sb4 3.003318 1_555
Hf10 Sb11 3.083614 1_655
Hf10 Sb7 3.103411 1_564
Hf11 Sb3 2.831239 1_555
Hf11 Sb1 2.904688 1_455
Hf11 Sb5 3.003318 1_555
Hf11 Sb10 3.083614 1_555
Hf11 Sb6 3.103411 1_555
Hf12 Sb1 2.806809 1_455
Hf12 Sb8 2.883300 1_565
Hf12 Sb6 2.883300 1_555
Hf12 Sb0 3.002212 1_555
Hf12 Sb7 3.208007 1_465
Hf12 Sb9 3.208007 1_455
Hf13 Sb0 2.806809 1_555
Hf13 Sb7 2.883300 1_565
Hf13 Sb9 2.883300 1_555
Hf13 Sb1 3.002212 1_555
Hf13 Sb8 3.208007 1_565
Hf13 Sb6 3.208007 1_555
Hf14 Sb3 2.806809 1_655
Hf14 Sb4 2.883300 1_545
Hf14 Sb10 2.883300 1_555
Hf14 Sb2 3.002212 1_555
Hf14 Sb5 3.208007 1_655
Hf14 Sb11 3.208007 1_645
Hf15 Sb2 2.806809 1_555
Hf15 Sb11 2.883300 1_545
Hf15 Sb5 2.883300 1_555
Hf15 Sb3 3.002212 1_555
Hf15 Sb10 3.208007 1_555
Hf15 Sb4 3.208007 1_545
Hf16 Sb0 2.919455 1_555
Hf16 Sb11 2.929661 1_556
Hf16 Sb5 2.929661 1_556
Hf16 Sb7 2.962551 1_465
Hf16 Sb9 2.962551 1_455
Hf17 Sb1 2.919455 1_555
Hf17 Sb10 2.929661 1_555
Hf17 Sb4 2.929661 1_555
Hf17 Sb8 2.962551 1_565
Hf17 Sb6 2.962551 1_555
Hf18 Sb2 2.919455 1_555
Hf18 Sb9 2.929661 1_554
Hf18 Sb7 2.929661 1_554
Hf18 Sb11 2.962551 1_645
Hf18 Sb5 2.962551 1_655
Hf19 Sb3 2.919454 1_555
Hf19 Sb8 2.929669 1_555
Hf19 Sb6 2.929669 1_555
Hf19 Sb10 2.962545 1_555
Hf19 Sb4 2.962545 1_545
