# generated using pymatgen
data_SmCdGa
_symmetry_space_group_name_H-M   'P 1'
_cell_length_a   7.32683190
_cell_length_b   7.32683190
_cell_length_c   4.44271315
_cell_angle_alpha   90.00000000
_cell_angle_beta   90.00000000
_cell_angle_gamma   120.00001026
_symmetry_Int_Tables_number   1
_chemical_formula_structural   SmCdGa
_chemical_formula_sum   'Sm3 Cd3 Ga3'
_cell_volume   206.54339670
_cell_formula_units_Z   3
loop_
 _symmetry_equiv_pos_site_id
 _symmetry_equiv_pos_as_xyz
  1  'x, y, z'
loop_
 _atom_site_type_symbol
 _atom_site_label
 _atom_site_symmetry_multiplicity
 _atom_site_fract_x
 _atom_site_fract_y
 _atom_site_fract_z
 _atom_site_occupancy
  Sm  Sm0  1  0.42164244  0.42164244  0.50000000  1
  Sm  Sm1  1  0.57835756  -0.00000000  0.50000000  1
  Sm  Sm2  1  -0.00000000  0.57835756  0.50000000  1
  Cd  Cd0  1  0.75193717  0.75193717  0.00000000  1
  Cd  Cd1  1  0.24806283  0.00000000  0.00000000  1
  Cd  Cd2  1  0.00000000  0.24806283  -0.00000000  1
  Ga  Ga0  1  0.66666700  0.33333300  -0.00000000  1
  Ga  Ga1  1  0.33333300  0.66666700  -0.00000000  1
  Ga  Ga2  1  -0.00000000  -0.00000000  0.50000000  1
loop_
_geom_bond_atom_site_label_1
_geom_bond_atom_site_label_2
_geom_bond_distance
_geom_bond_site_symmetry_2
Sm0 Sm1 3.795976 1_565
Sm0 Sm2 3.795976 1_655
Sm0 Sm2 3.795976 1_555
Sm0 Sm1 3.795976 1_555
Sm1 Sm2 3.795975 1_655
Sm1 Sm2 3.795975 1_545
Cd0 Ga0 2.807295 1_555
Cd0 Ga1 2.807295 1_555
Cd0 Ga2 2.870154 1_664
Cd0 Ga2 2.870154 1_665
Cd0 Cd1 3.148027 1_665
Cd0 Cd2 3.148027 1_665
Cd0 Sm0 3.284949 1_554
Cd0 Sm0 3.284949 1_555
Cd0 Sm2 3.488083 1_654
Cd0 Sm1 3.488083 1_565
Cd0 Sm1 3.488083 1_564
Cd0 Sm2 3.488083 1_655
Cd1 Ga1 2.807288 1_545
Cd1 Ga0 2.807293 1_555
Cd1 Ga2 2.870154 1_554
Cd1 Ga2 2.870154 1_555
Cd1 Cd2 3.148028 1_555
Cd1 Sm1 3.284949 1_555
Cd1 Sm1 3.284949 1_554
Cd1 Sm2 3.488083 1_545
Cd1 Sm2 3.488083 1_544
Cd1 Sm0 3.488083 1_554
Cd1 Sm0 3.488083 1_555
Cd2 Ga0 2.807288 1_455
Cd2 Ga1 2.807293 1_555
Cd2 Ga2 2.870154 1_554
Cd2 Ga2 2.870154 1_555
Cd2 Sm2 3.284949 1_555
Cd2 Sm2 3.284949 1_554
Cd2 Sm1 3.488083 1_455
Cd2 Sm1 3.488083 1_454
Cd2 Sm0 3.488083 1_554
Cd2 Sm0 3.488083 1_555
Ga0 Sm1 3.120506 1_554
Ga0 Sm1 3.120506 1_555
Ga0 Sm2 3.120507 1_654
Ga0 Sm2 3.120507 1_655
Ga0 Sm0 3.120511 1_554
Ga0 Sm0 3.120511 1_555
Ga1 Sm2 3.120506 1_555
Ga1 Sm2 3.120506 1_554
Ga1 Sm1 3.120507 1_565
Ga1 Sm1 3.120507 1_564
Ga1 Sm0 3.120511 1_554
Ga1 Sm0 3.120511 1_555
Ga2 Sm0 3.089303 1_555
Ga2 Sm2 3.089303 1_545
Ga2 Sm1 3.089303 1_455
