# generated using pymatgen
data_Ti3Bi6WO18
_symmetry_space_group_name_H-M   'P 1'
_cell_length_a   5.40779000
_cell_length_b   5.45382886
_cell_length_c   13.06682664
_cell_angle_alpha   90.40964054
_cell_angle_beta   101.78953406
_cell_angle_gamma   89.93185012
_symmetry_Int_Tables_number   1
_chemical_formula_structural   Ti3Bi6WO18
_chemical_formula_sum   'Ti3 Bi6 W1 O18'
_cell_volume   377.24262850
_cell_formula_units_Z   1
loop_
 _symmetry_equiv_pos_site_id
 _symmetry_equiv_pos_as_xyz
  1  'x, y, z'
loop_
 _atom_site_type_symbol
 _atom_site_label
 _atom_site_symmetry_multiplicity
 _atom_site_fract_x
 _atom_site_fract_y
 _atom_site_fract_z
 _atom_site_occupancy
  Ti  Ti0  1  0.33556800  0.95760000  0.17594600  1
  Ti  Ti1  1  0.15761000  0.95393800  0.82219600  1
  Ti  Ti2  1  0.66216200  0.44884000  0.81920700  1
  Bi  Bi0  1  0.57680100  0.99877000  0.60180600  1
  Bi  Bi1  1  0.98003600  0.98797900  0.39800200  1
  Bi  Bi2  1  0.43434600  0.49312500  0.39966800  1
  Bi  Bi3  1  0.03011400  0.49633600  0.60219400  1
  Bi  Bi4  1  0.24390300  0.50859500  0.98346300  1
  Bi  Bi5  1  0.72867800  0.99611000  0.98401700  1
  W  W0  1  0.83184300  0.44720400  0.17093300  1
  O  O0  1  0.74562700  0.72863800  0.49855900  1
  O  O1  1  0.24778100  0.72879300  0.50256300  1
  O  O2  1  0.25696700  0.23051800  0.50152900  1
  O  O3  1  0.75687100  0.23021400  0.49853900  1
  O  O4  1  0.36746000  0.63180000  0.83302900  1
  O  O5  1  0.54644500  0.63895200  0.17862100  1
  O  O6  1  0.63652900  0.14226700  0.17908600  1
  O  O7  1  0.46887300  0.13472200  0.83331700  1
  O  O8  1  0.32633300  0.91262200  0.00400100  1
  O  O9  1  0.68341000  0.41217800  0.01008400  1
  O  O10  1  0.90242200  0.71370200  0.86771500  1
  O  O11  1  0.02891300  0.71200700  0.13599300  1
  O  O12  1  0.10036200  0.21865600  0.13894400  1
  O  O13  1  0.96270300  0.21697400  0.86443300  1
  O  O14  1  0.33780000  0.93598900  0.31459200  1
  O  O15  1  0.03206300  0.94109400  0.68455900  1
  O  O16  1  0.64917900  0.44428100  0.68205500  1
  O  O17  1  0.96919900  0.44509900  0.31494600  1
loop_
_geom_bond_atom_site_label_1
_geom_bond_atom_site_label_2
_geom_bond_distance
_geom_bond_site_symmetry_2
Bi0 O3 2.219587 1_565
Bi0 O0 2.301260 1_555
Bi0 O2 2.323417 1_565
Bi0 O1 2.459986 1_555
Bi0 O15 2.498923 1_655
Bi0 O16 2.637142 1_565
Bi1 O2 2.230187 1_665
Bi1 O1 2.275010 1_655
Bi1 O3 2.355168 1_565
Bi1 O14 2.422260 1_655
Bi1 O0 2.458738 1_555
Bi1 O17 2.721936 1_565
Bi2 O1 2.236982 1_555
Bi2 O0 2.290361 1_555
Bi2 O2 2.301121 1_555
Bi2 O3 2.422164 1_555
Bi2 O17 2.545778 1_455
Bi2 O14 2.672138 1_555
Bi3 O0 2.230318 1_455
Bi3 O3 2.298611 1_455
Bi3 O1 2.311064 1_555
Bi3 O2 2.442290 1_555
Bi3 O16 2.509439 1_455
Bi3 O15 2.645793 1_555
Bi4 O8 2.251912 1_556
Bi4 O4 2.306203 1_555
Bi4 O9 2.389206 1_556
Bi4 O10 2.413907 1_455
Bi4 O13 2.502991 1_455
Bi4 O11 2.732578 1_556
Bi4 O12 2.814934 1_556
Bi4 O5 2.820842 1_556
Bi5 O8 2.290378 1_556
Bi5 O7 2.304622 1_565
Bi5 O9 2.312303 1_566
Bi5 O10 2.472058 1_555
Bi5 O13 2.516523 1_565
Bi5 O11 2.775059 1_656
Bi5 O6 2.805320 1_566
Bi5 O12 2.814130 1_666
O4 Ti2 1.918173 1_555
O4 Ti1 2.080308 1_555
O5 W0 1.882477 1_555
O5 Ti0 2.074049 1_555
O6 Ti0 1.908116 1_545
O6 W0 1.986316 1_555
O7 Ti1 1.930933 1_545
O7 Ti2 2.036902 1_555
O8 Ti0 2.248770 1_555
O8 Ti1 2.376605 1_554
O9 W0 2.098460 1_555
O9 Ti2 2.482733 1_554
O10 Ti2 1.957380 1_555
O10 Ti1 2.079826 1_655
O11 W0 1.908346 1_455
O11 Ti0 2.111434 1_555
O12 Ti0 1.906023 1_545
O12 W0 2.018226 1_455
O13 Ti1 1.922572 1_645
O13 Ti2 2.050155 1_555
O14 Ti0 1.813912 1_555
O15 Ti1 1.788780 1_555
O16 Ti2 1.779120 1_555
O17 W0 1.876732 1_555
