# generated using pymatgen
data_Li5Mn(CoO4)2
_symmetry_space_group_name_H-M   'P 1'
_cell_length_a   2.89275700
_cell_length_b   5.91123200
_cell_length_c   8.27191429
_cell_angle_alpha   89.41763385
_cell_angle_beta   90.00000000
_cell_angle_gamma   90.00000000
_symmetry_Int_Tables_number   1
_chemical_formula_structural   Li5Mn(CoO4)2
_chemical_formula_sum   'Li5 Mn1 Co2 O8'
_cell_volume   141.44042390
_cell_formula_units_Z   1
loop_
 _symmetry_equiv_pos_site_id
 _symmetry_equiv_pos_as_xyz
  1  'x, y, z'
loop_
 _atom_site_type_symbol
 _atom_site_label
 _atom_site_symmetry_multiplicity
 _atom_site_fract_x
 _atom_site_fract_y
 _atom_site_fract_z
 _atom_site_occupancy
  Li  Li0  1  0.00000000  0.00000000  0.50000000  1
  Li  Li1  1  0.50000000  0.25582700  0.26289900  1
  Li  Li2  1  0.00000000  0.50000000  0.00000000  1
  Li  Li3  1  0.50000000  0.74417300  0.73710100  1
  Li  Li4  1  0.00000000  0.50000000  0.50000000  1
  Mn  Mn0  1  0.00000000  0.00000000  0.00000000  1
  Co  Co0  1  0.50000000  0.26116000  0.72808900  1
  Co  Co1  1  0.50000000  0.73884000  0.27191100  1
  O  O0  1  0.00000000  0.52082200  0.24358000  1
  O  O1  1  0.50000000  0.78016000  0.00040200  1
  O  O2  1  0.00000000  0.01749500  0.76575600  1
  O  O3  1  0.50000000  0.24640900  0.51331200  1
  O  O4  1  0.00000000  0.47917800  0.75642000  1
  O  O5  1  0.50000000  0.75359100  0.48668800  1
  O  O6  1  0.00000000  0.98250500  0.23424400  1
  O  O7  1  0.50000000  0.21984000  0.99959800  1
loop_
_geom_bond_atom_site_label_1
_geom_bond_atom_site_label_2
_geom_bond_distance
_geom_bond_site_symmetry_2
Li0 O3 2.056459 1_455
Li0 O3 2.056459 1_555
Li0 O5 2.056459 1_445
Li0 O5 2.056459 1_545
Li0 O2 2.201792 1_555
Li0 O6 2.201792 1_545
Li1 O3 2.071577 1_555
Li1 O0 2.136871 1_655
Li1 O0 2.136871 1_555
Li1 O6 2.183201 1_545
Li1 O6 2.183201 1_645
Li1 O7 2.190518 1_554
Li2 O0 2.019877 1_555
Li2 O4 2.019877 1_554
Li2 O1 2.198811 1_455
Li2 O1 2.198811 1_555
Li2 O7 2.198811 1_454
Li2 O7 2.198811 1_554
Li3 O5 2.071577 1_555
Li3 O4 2.136871 1_555
Li3 O4 2.136871 1_655
Li3 O2 2.183201 1_565
Li3 O2 2.183201 1_665
Li3 O1 2.190518 1_556
Li4 O3 2.085159 1_555
Li4 O3 2.085159 1_455
Li4 O5 2.085159 1_455
Li4 O5 2.085159 1_555
Li4 O4 2.123403 1_555
Li4 O0 2.123403 1_555
Mn0 O6 1.939354 1_545
Mn0 O2 1.939354 1_554
Mn0 O1 1.944402 1_545
Mn0 O7 1.944402 1_554
Mn0 O1 1.944402 1_445
Mn0 O7 1.944402 1_454
Co0 O3 1.779640 1_555
Co0 O4 1.952936 1_555
Co0 O4 1.952936 1_655
Co0 O2 2.062670 1_555
Co0 O2 2.062670 1_655
Co0 O7 2.256673 1_555
Co1 O5 1.779640 1_555
Co1 O0 1.952936 1_555
Co1 O0 1.952936 1_655
Co1 O6 2.062670 1_655
Co1 O6 2.062670 1_555
Co1 O1 2.256673 1_555
