# generated using pymatgen
data_Li2VF6
_symmetry_space_group_name_H-M   'P 1'
_cell_length_a   8.69137807
_cell_length_b   8.72065671
_cell_length_c   10.25374791
_cell_angle_alpha   83.86202962
_cell_angle_beta   96.26484769
_cell_angle_gamma   119.58333451
_symmetry_Int_Tables_number   1
_chemical_formula_structural   Li2VF6
_chemical_formula_sum   'Li12 V6 F36'
_cell_volume   670.56145330
_cell_formula_units_Z   6
loop_
 _symmetry_equiv_pos_site_id
 _symmetry_equiv_pos_as_xyz
  1  'x, y, z'
loop_
 _atom_site_type_symbol
 _atom_site_label
 _atom_site_symmetry_multiplicity
 _atom_site_fract_x
 _atom_site_fract_y
 _atom_site_fract_z
 _atom_site_occupancy
  Li  Li0  1  0.06372100  0.66707300  0.93007800  1
  Li  Li1  1  0.34092900  0.94089000  0.43171400  1
  Li  Li2  1  0.11743700  0.44844500  0.45571600  1
  Li  Li3  1  0.55302000  0.86855900  0.95822700  1
  Li  Li4  1  0.33544600  0.37127000  0.97516100  1
  Li  Li5  1  0.37480800  0.33645900  0.52458800  1
  Li  Li6  1  0.80695000  0.80534300  0.74841600  1
  Li  Li7  1  0.45448300  0.11603000  0.04560100  1
  Li  Li8  1  0.86537400  0.54895300  0.54665300  1
  Li  Li9  1  0.67013300  0.06211400  0.57371600  1
  Li  Li10  1  0.99090300  0.71638700  0.27411200  1
  Li  Li11  1  0.93908700  0.33243500  0.07681800  1
  V  V0  1  0.00381700  0.00149700  0.49648600  1
  V  V1  1  0.33337600  0.66016600  0.70437200  1
  V  V2  1  0.99918700  0.00343000  0.99898000  1
  V  V3  1  0.33986700  0.66494600  0.20707100  1
  V  V4  1  0.66108900  0.33320100  0.79652300  1
  V  V5  1  0.65863900  0.33313300  0.29270100  1
  F  F0  1  0.05377300  0.91801900  0.65757800  1
  F  F1  1  0.06023300  0.91712100  0.15606900  1
  F  F2  1  0.11322500  0.58642100  0.60433300  1
  F  F3  1  0.10981200  0.58225800  0.11032700  1
  F  F4  1  0.26735600  0.75225200  0.83431800  1
  F  F5  1  0.23170200  0.74148300  0.32805000  1
  F  F6  1  0.09760600  0.23645800  0.54890600  1
  F  F7  1  0.42138200  0.87878100  0.60245700  1
  F  F8  1  0.26067800  0.45638700  0.80568300  1
  F  F9  1  0.08329900  0.23765600  0.04941500  1
  F  F10  1  0.41370600  0.88062500  0.09933900  1
  F  F11  1  0.24150800  0.44848700  0.30685800  1
  F  F12  1  0.39233400  0.56105400  0.57610300  1
  F  F13  1  0.23918400  0.09751400  0.95398800  1
  F  F14  1  0.56317300  0.76146400  0.79612600  1
  F  F15  1  0.40870000  0.58602900  0.07259500  1
  F  F16  1  0.24116200  0.08403500  0.44992600  1
  F  F17  1  0.54110800  0.75251500  0.30415200  1
  F  F18  1  0.45651900  0.26055000  0.69408700  1
  F  F19  1  0.77896700  0.92487400  0.57037500  1
  F  F20  1  0.56184400  0.39288100  0.92376700  1
  F  F21  1  0.44352300  0.24426800  0.19333200  1
  F  F22  1  0.77352500  0.92959200  0.05547100  1
  F  F23  1  0.58782500  0.41141500  0.42845200  1
  F  F24  1  0.76023600  0.56242100  0.70452400  1
  F  F25  1  0.58735500  0.11334100  0.89399500  1
  F  F26  1  0.92719100  0.77925300  0.92736200  1
  F  F27  1  0.75324400  0.54825100  0.20461000  1
  F  F28  1  0.58514300  0.11799900  0.39573800  1
  F  F29  1  0.93833700  0.77090000  0.43532400  1
  F  F30  1  0.75350800  0.26977000  0.66366900  1
  F  F31  1  0.73115000  0.24514800  0.16397600  1
  F  F32  1  0.87959800  0.41962700  0.89816000  1
  F  F33  1  0.88852100  0.42658100  0.39264800  1
  F  F34  1  0.92755800  0.05719900  0.83593700  1
  F  F35  1  0.92269500  0.06067000  0.34345600  1
loop_
_geom_bond_atom_site_label_1
_geom_bond_atom_site_label_2
_geom_bond_distance
_geom_bond_site_symmetry_2
F0 V0 1.829024 1_565
F0 Li6 2.143398 1_455
F1 V2 1.841485 1_464
F1 Li10 1.886015 1_455
F2 V1 1.903856 1_555
F2 Li8 2.040901 1_455
F2 Li2 2.054049 1_555
F3 V3 1.948961 1_555
F3 Li11 1.980683 1_455
F3 Li0 1.990509 1_554
F4 Li0 1.890384 1_555
F4 V1 1.897414 1_555
F4 Li3 2.430640 1_555
F5 Li1 1.897392 1_555
F5 V3 1.979704 1_555
F5 Li10 2.013682 1_455
F5 Li2 2.508566 1_555
F6 V0 1.908548 1_555
F6 Li2 1.924557 1_555
F6 Li5 2.153446 1_555
F7 V1 1.902708 1_555
F7 Li1 1.936865 1_555
F7 Li9 1.985581 1_565
F8 V1 1.810032 1_555
F8 Li4 1.986736 1_555
F9 Li11 1.866161 1_455
F9 V2 1.908689 1_454
F9 Li4 2.096002 1_554
F10 V3 1.920508 1_555
F10 Li7 1.930262 1_565
F10 Li3 2.027685 1_554
F11 V3 1.877640 1_555
F11 Li2 1.962473 1_555
F12 V1 1.888646 1_555
F12 Li5 2.011839 1_555
F12 Li2 2.344242 1_555
F13 V2 1.917357 1_455
F13 Li7 1.939206 1_556
F13 Li4 2.132021 1_555
F14 V1 1.918355 1_555
F14 Li3 2.021904 1_555
F14 Li6 2.064110 1_555
F15 V3 1.876793 1_555
F15 Li4 1.998742 1_554
F15 Li3 2.381345 1_554
F16 Li1 1.870566 1_545
F16 V0 1.917490 1_555
F16 Li5 2.103017 1_555
F17 V3 1.759842 1_555
F18 V4 1.813389 1_555
F18 Li5 1.977874 1_555
F19 Li9 1.860636 1_565
F19 V0 1.940401 1_665
F19 Li6 2.055473 1_555
F20 V4 1.884493 1_555
F20 Li4 2.005998 1_555
F20 Li7 2.375988 1_556
F21 V5 1.859250 1_555
F21 Li7 2.013270 1_555
F22 V2 1.875663 1_564
F22 Li3 1.907805 1_554
F23 V5 1.894051 1_555
F23 Li5 1.972893 1_555
F23 Li8 2.354278 1_555
F24 V4 1.923958 1_555
F24 Li8 1.984615 1_555
F24 Li6 2.042042 1_555
F25 V4 1.898030 1_555
F25 Li7 2.043798 1_556
F25 Li3 2.047649 1_545
F26 Li0 1.870585 1_655
F26 V2 1.936901 1_565
F26 Li6 2.058555 1_555
F27 V5 1.813265 1_555
F27 Li10 1.958611 1_555
F28 V5 1.893192 1_555
F28 Li1 1.959324 1_545
F28 Li9 1.996153 1_555
F29 Li10 1.927316 1_555
F29 V0 1.955230 1_665
F29 Li8 1.981185 1_555
F30 Li9 1.889660 1_555
F30 V4 1.909344 1_555
F30 Li8 2.367523 1_555
F31 Li11 1.868959 1_555
F31 V5 1.898330 1_555
F31 Li7 2.346313 1_555
F32 V4 1.893041 1_555
F32 Li0 1.987859 1_655
F32 Li11 2.021137 1_556
F33 Li2 1.945261 1_655
F33 V5 1.957140 1_555
F33 Li8 2.077173 1_555
F33 Li10 2.452549 1_555
F34 V2 1.815436 1_555
F34 Li6 2.161265 1_545
F35 V0 1.780505 1_655
