# generated using pymatgen
data_Ba2ZnFe2CuF14
_symmetry_space_group_name_H-M   'P 1'
_cell_length_a   7.49689708
_cell_length_b   7.49689708
_cell_length_c   14.70375178
_cell_angle_alpha   88.51327993
_cell_angle_beta   88.51327993
_cell_angle_gamma   41.34888406
_symmetry_Int_Tables_number   1
_chemical_formula_structural   Ba2ZnFe2CuF14
_chemical_formula_sum   'Ba4 Zn2 Fe4 Cu2 F28'
_cell_volume   545.74610941
_cell_formula_units_Z   2
loop_
 _symmetry_equiv_pos_site_id
 _symmetry_equiv_pos_as_xyz
  1  'x, y, z'
loop_
 _atom_site_type_symbol
 _atom_site_label
 _atom_site_symmetry_multiplicity
 _atom_site_fract_x
 _atom_site_fract_y
 _atom_site_fract_z
 _atom_site_occupancy
  Ba  Ba0  1  0.73650500  0.88908900  0.62417300  1
  Ba  Ba1  1  0.88908900  0.73650500  0.12417300  1
  Ba  Ba2  1  0.26349500  0.11091100  0.37582700  1
  Ba  Ba3  1  0.11091100  0.26349500  0.87582700  1
  Zn  Zn0  1  0.42874500  0.57125500  0.75000000  1
  Zn  Zn1  1  0.57125500  0.42874500  0.25000000  1
  Fe  Fe0  1  0.85749200  0.90642600  0.87351100  1
  Fe  Fe1  1  0.14250800  0.09357400  0.12648900  1
  Fe  Fe2  1  0.90642600  0.85749200  0.37351100  1
  Fe  Fe3  1  0.09357400  0.14250800  0.62648900  1
  Cu  Cu0  1  0.50000000  0.50000000  0.00000000  1
  Cu  Cu1  1  0.50000000  0.50000000  0.50000000  1
  F  F0  1  0.90662000  0.10953200  0.33905100  1
  F  F1  1  0.59048900  0.13272500  0.45643800  1
  F  F2  1  0.40951100  0.86727500  0.54356200  1
  F  F3  1  0.15175900  0.35199600  0.59802100  1
  F  F4  1  0.51682900  0.39003700  0.62250000  1
  F  F5  1  0.60996300  0.48317100  0.87750000  1
  F  F6  1  0.13272500  0.59048900  0.95643800  1
  F  F7  1  0.89046800  0.09338000  0.16094900  1
  F  F8  1  0.03590700  0.63804400  0.77619600  1
  F  F9  1  0.84824100  0.64800400  0.40197900  1
  F  F10  1  0.57677600  0.19741000  0.78833400  1
  F  F11  1  0.64800400  0.84824100  0.90197900  1
  F  F12  1  0.19741000  0.57677600  0.28833400  1
  F  F13  1  0.42322400  0.80259000  0.21166600  1
  F  F14  1  0.39003700  0.51682900  0.12250000  1
  F  F15  1  0.96409300  0.36195600  0.22380400  1
  F  F16  1  0.28206900  0.88015100  0.01483500  1
  F  F17  1  0.09338000  0.89046800  0.66094900  1
  F  F18  1  0.71793100  0.11984900  0.98516500  1
  F  F19  1  0.88015100  0.28206900  0.51483500  1
  F  F20  1  0.86727500  0.40951100  0.04356200  1
  F  F21  1  0.80259000  0.42322400  0.71166600  1
  F  F22  1  0.63804400  0.03590700  0.27619600  1
  F  F23  1  0.11984900  0.71793100  0.48516500  1
  F  F24  1  0.48317100  0.60996300  0.37750000  1
  F  F25  1  0.10953200  0.90662000  0.83905100  1
  F  F26  1  0.36195600  0.96409300  0.72380400  1
  F  F27  1  0.35199600  0.15175900  0.09802100  1
loop_
_geom_bond_atom_site_label_1
_geom_bond_atom_site_label_2
_geom_bond_distance
_geom_bond_site_symmetry_2
Ba0 F3 2.692653 1_655
Ba0 F8 2.697477 1_655
Ba0 F1 2.742563 1_565
Ba0 F4 2.743759 1_565
Ba0 F17 2.750902 1_655
Ba0 F26 2.793848 1_555
Ba0 F2 2.864254 1_555
Ba0 F23 2.894489 1_655
Ba0 F3 2.930146 1_565
Ba0 F10 2.930340 1_565
Ba1 F27 2.692653 1_565
Ba1 F22 2.697477 1_565
Ba1 F6 2.742563 1_654
Ba1 F14 2.743759 1_655
Ba1 F7 2.750902 1_565
Ba1 F15 2.793848 1_555
Ba1 F20 2.864254 1_555
Ba1 F18 2.894489 1_564
Ba1 F27 2.930146 1_655
Ba1 F12 2.930340 1_655
Ba2 F9 2.692653 1_455
Ba2 F15 2.697477 1_455
Ba2 F2 2.742563 1_545
Ba2 F24 2.743759 1_545
Ba2 F0 2.750902 1_455
Ba2 F22 2.793848 1_555
Ba2 F1 2.864254 1_555
Ba2 F19 2.894489 1_455
Ba2 F9 2.930146 1_545
Ba2 F13 2.930340 1_545
Ba3 F11 2.692653 1_545
Ba3 F26 2.697477 1_545
Ba3 F20 2.742563 1_456
Ba3 F5 2.743759 1_455
Ba3 F25 2.750902 1_545
Ba3 F8 2.793848 1_555
Ba3 F6 2.864254 1_555
Ba3 F16 2.894489 1_546
Ba3 F11 2.930146 1_455
Ba3 F21 2.930340 1_455
Cu0 F5 1.928331 1_554
Cu0 F14 1.928331 1_555
Cu0 F16 1.965189 1_555
Cu0 F18 1.965189 1_554
Cu0 F20 2.390887 1_555
Cu0 F6 2.390887 1_554
Cu1 F24 1.928331 1_555
Cu1 F4 1.928331 1_555
Cu1 F19 1.965189 1_555
Cu1 F23 1.965189 1_555
Cu1 F2 2.390887 1_555
Cu1 F1 2.390887 1_555
F0 Fe2 1.944588 1_545
F0 Zn1 2.176537 1_555
F1 Fe2 1.999342 1_545
F2 Fe3 1.999342 1_565
F3 Fe3 1.953706 1_555
F4 Zn0 2.125406 1_555
F5 Zn0 2.125406 1_555
F6 Fe0 1.999342 1_455
F7 Fe1 1.944588 1_655
F7 Zn1 2.176537 1_555
F8 Fe0 1.973396 1_455
F9 Fe2 1.953706 1_555
F10 Fe0 1.964308 1_545
F10 Zn0 2.164469 1_555
F11 Fe0 1.953706 1_555
F12 Fe2 1.964308 1_455
F12 Zn1 2.164469 1_555
F13 Fe1 1.964308 1_565
F13 Zn1 2.164469 1_555
F14 Zn1 2.125406 1_555
F15 Fe1 1.973396 1_655
F16 Fe1 1.970726 1_565
F17 Fe3 1.944588 1_565
F17 Zn0 2.176537 1_555
F18 Fe0 1.970726 1_545
F19 Fe3 1.970726 1_655
F20 Fe1 1.999342 1_655
F21 Fe3 1.964308 1_655
F21 Zn0 2.164469 1_555
F22 Fe2 1.973396 1_545
F23 Fe2 1.970726 1_455
F24 Zn1 2.125406 1_555
F25 Fe0 1.944588 1_455
F25 Zn0 2.176537 1_555
F26 Fe3 1.973396 1_565
F27 Fe1 1.953706 1_555
