# generated using pymatgen
data_HgSN3
_symmetry_space_group_name_H-M   'P 1'
_cell_length_a   5.61210000
_cell_length_b   10.30385900
_cell_length_c   15.41939000
_cell_angle_alpha   90.00000000
_cell_angle_beta   90.00000000
_cell_angle_gamma   90.00000000
_symmetry_Int_Tables_number   1
_chemical_formula_structural   HgSN3
_chemical_formula_sum   'Hg8 S8 N24'
_cell_volume   891.64607295
_cell_formula_units_Z   8
loop_
 _symmetry_equiv_pos_site_id
 _symmetry_equiv_pos_as_xyz
  1  'x, y, z'
loop_
 _atom_site_type_symbol
 _atom_site_label
 _atom_site_symmetry_multiplicity
 _atom_site_fract_x
 _atom_site_fract_y
 _atom_site_fract_z
 _atom_site_occupancy
  Hg  Hg0  1  0.54997800  0.12363400  0.44993800  1
  Hg  Hg1  1  0.04997800  0.37636600  0.55006200  1
  Hg  Hg2  1  0.45002200  0.62363400  0.05006200  1
  Hg  Hg3  1  0.95002200  0.87636600  0.94993800  1
  Hg  Hg4  1  0.45002200  0.87636600  0.55006200  1
  Hg  Hg5  1  0.95002200  0.62363400  0.44993800  1
  Hg  Hg6  1  0.54997800  0.37636600  0.94993800  1
  Hg  Hg7  1  0.04997800  0.12363400  0.05006200  1
  S  S0  1  0.15665200  0.92796200  0.37555400  1
  S  S1  1  0.65665200  0.57203800  0.62444600  1
  S  S2  1  0.84334800  0.42796200  0.12444600  1
  S  S3  1  0.34334800  0.07203800  0.87555400  1
  S  S4  1  0.84334800  0.07203800  0.62444600  1
  S  S5  1  0.34334800  0.42796200  0.37555400  1
  S  S6  1  0.15665200  0.57203800  0.87555400  1
  S  S7  1  0.65665200  0.92796200  0.12444600  1
  N  N0  1  0.30272400  0.05049800  0.35854900  1
  N  N1  1  0.80272400  0.44950200  0.64145100  1
  N  N2  1  0.69727600  0.55049800  0.14145100  1
  N  N3  1  0.19727600  0.94950200  0.85854900  1
  N  N4  1  0.69727600  0.94950200  0.64145100  1
  N  N5  1  0.19727600  0.55049800  0.35854900  1
  N  N6  1  0.30272400  0.44950200  0.85854900  1
  N  N7  1  0.80272400  0.05049800  0.14145100  1
  N  N8  1  0.18054500  0.83916400  0.45641100  1
  N  N9  1  0.68054500  0.66083600  0.54358900  1
  N  N10  1  0.81945500  0.33916400  0.04358900  1
  N  N11  1  0.31945500  0.16083600  0.95641100  1
  N  N12  1  0.81945500  0.16083600  0.54358900  1
  N  N13  1  0.31945500  0.33916400  0.45641100  1
  N  N14  1  0.18054500  0.66083600  0.95641100  1
  N  N15  1  0.68054500  0.83916400  0.04358900  1
  N  N16  1  0.82406600  0.21955200  0.32551500  1
  N  N17  1  0.32406600  0.28044800  0.67448500  1
  N  N18  1  0.17593400  0.71955200  0.17448500  1
  N  N19  1  0.67593400  0.78044800  0.82551500  1
  N  N20  1  0.17593400  0.78044800  0.67448500  1
  N  N21  1  0.67593400  0.71955200  0.32551500  1
  N  N22  1  0.82406600  0.28044800  0.82551500  1
  N  N23  1  0.32406600  0.21955200  0.17448500  1
loop_
_geom_bond_atom_site_label_1
_geom_bond_atom_site_label_2
_geom_bond_distance
_geom_bond_site_symmetry_2
Hg0 N0 2.116388 1_555
Hg0 N12 2.125874 1_555
Hg0 N13 2.572077 1_555
Hg0 N16 2.650211 1_555
Hg1 N1 2.116388 1_455
Hg1 N13 2.125874 1_555
Hg1 N12 2.572077 1_455
Hg1 N17 2.650211 1_555
Hg2 N2 2.116388 1_555
Hg2 N14 2.125874 1_554
Hg2 N15 2.572077 1_555
Hg2 N18 2.650211 1_555
Hg3 N3 2.116388 1_655
Hg3 N15 2.125874 1_556
Hg3 N14 2.572077 1_655
Hg3 N19 2.650211 1_555
Hg4 N4 2.116388 1_555
Hg4 N8 2.125874 1_555
Hg4 N9 2.572077 1_555
Hg4 N20 2.650211 1_555
Hg5 N5 2.116388 1_655
Hg5 N9 2.125874 1_555
Hg5 N8 2.572077 1_655
Hg5 N21 2.650211 1_555
Hg6 N6 2.116388 1_555
Hg6 N10 2.125874 1_556
Hg6 N11 2.572077 1_555
Hg6 N22 2.650211 1_555
Hg7 N7 2.116388 1_455
Hg7 N11 2.125874 1_554
Hg7 N10 2.572077 1_455
Hg7 N23 2.650211 1_555
N0 S0 1.528044 1_545
N1 S1 1.528044 1_555
N2 S2 1.528044 1_555
N3 S3 1.528044 1_565
N4 S4 1.528044 1_565
N5 S5 1.528044 1_555
N6 S6 1.528044 1_555
N7 S7 1.528044 1_545
N8 S0 1.552276 1_555
N9 S1 1.552276 1_555
N10 S2 1.552276 1_555
N11 S3 1.552276 1_555
N12 S4 1.552276 1_555
N13 S5 1.552276 1_555
N14 S6 1.552276 1_555
N15 S7 1.552276 1_555
