# generated using pymatgen
data_MgFeBiO5
_symmetry_space_group_name_H-M   'P 1'
_cell_length_a   10.46518900
_cell_length_b   5.38991700
_cell_length_c   8.47729615
_cell_angle_alpha   69.53177954
_cell_angle_beta   90.00000000
_cell_angle_gamma   90.00000000
_symmetry_Int_Tables_number   1
_chemical_formula_structural   MgFeBiO5
_chemical_formula_sum   'Mg4 Fe4 Bi4 O20'
_cell_volume   447.98566959
_cell_formula_units_Z   4
loop_
 _symmetry_equiv_pos_site_id
 _symmetry_equiv_pos_as_xyz
  1  'x, y, z'
loop_
 _atom_site_type_symbol
 _atom_site_label
 _atom_site_symmetry_multiplicity
 _atom_site_fract_x
 _atom_site_fract_y
 _atom_site_fract_z
 _atom_site_occupancy
  Mg  Mg0  1  0.08954300  0.53737900  0.83226800  1
  Mg  Mg1  1  0.91045700  0.46262100  0.16773200  1
  Mg  Mg2  1  0.58954300  0.46262100  0.66773200  1
  Mg  Mg3  1  0.41045700  0.53737900  0.33226800  1
  Fe  Fe0  1  0.38548900  0.13891500  0.05355100  1
  Fe  Fe1  1  0.61451100  0.86108500  0.94644900  1
  Fe  Fe2  1  0.88548900  0.86108500  0.44644900  1
  Fe  Fe3  1  0.11451100  0.13891500  0.55355100  1
  Bi  Bi0  1  0.89678800  0.03346300  0.84331300  1
  Bi  Bi1  1  0.10321200  0.96653700  0.15668700  1
  Bi  Bi2  1  0.60321200  0.03346300  0.34331300  1
  Bi  Bi3  1  0.39678800  0.96653700  0.65668700  1
  O  O0  1  0.95630400  0.85078400  0.66223000  1
  O  O1  1  0.02890100  0.31815300  0.68543600  1
  O  O2  1  0.78958500  0.18288300  0.30634600  1
  O  O3  1  0.45706600  0.75590600  0.49144100  1
  O  O4  1  0.71710800  0.71029900  0.50390400  1
  O  O5  1  0.78289200  0.71029900  0.00390400  1
  O  O6  1  0.47109900  0.31815300  0.18543600  1
  O  O7  1  0.52890100  0.68184700  0.81456400  1
  O  O8  1  0.54293400  0.24409400  0.50855900  1
  O  O9  1  0.45630400  0.14921600  0.83777000  1
  O  O10  1  0.28289200  0.28970100  0.49609600  1
  O  O11  1  0.04369600  0.14921600  0.33777000  1
  O  O12  1  0.54369600  0.85078400  0.16223000  1
  O  O13  1  0.21710800  0.28970100  0.99609600  1
  O  O14  1  0.95706600  0.24409400  0.00855900  1
  O  O15  1  0.04293400  0.75590600  0.99144100  1
  O  O16  1  0.21041500  0.81711700  0.69365400  1
  O  O17  1  0.97109900  0.68184700  0.31456400  1
  O  O18  1  0.28958500  0.81711700  0.19365400  1
  O  O19  1  0.71041500  0.18288300  0.80634600  1
loop_
_geom_bond_atom_site_label_1
_geom_bond_atom_site_label_2
_geom_bond_distance
_geom_bond_site_symmetry_2
Mg0 O16 2.003781 1_555
Mg0 O13 2.048534 1_555
Mg0 O1 2.092121 1_555
Mg0 O15 2.134839 1_555
Mg0 O14 2.236556 1_456
Mg0 O0 2.274340 1_455
Mg1 O2 2.003781 1_555
Mg1 O5 2.048534 1_555
Mg1 O17 2.092121 1_555
Mg1 O14 2.134839 1_555
Mg1 O15 2.236556 1_654
Mg1 O11 2.274340 1_655
Mg2 O19 2.003781 1_555
Mg2 O4 2.048534 1_555
Mg2 O7 2.092121 1_555
Mg2 O8 2.134839 1_555
Mg2 O3 2.236556 1_555
Mg2 O9 2.274340 1_555
Mg3 O18 2.003781 1_555
Mg3 O10 2.048534 1_555
Mg3 O6 2.092121 1_555
Mg3 O3 2.134839 1_555
Mg3 O8 2.236556 1_555
Mg3 O12 2.274340 1_555
Fe0 O13 1.930295 1_554
Fe0 O6 1.934263 1_555
Fe0 O9 1.956371 1_554
Fe0 O18 1.996392 1_545
Fe0 O12 2.236334 1_545
Fe1 O5 1.930295 1_556
Fe1 O7 1.934263 1_555
Fe1 O12 1.956371 1_556
Fe1 O19 1.996392 1_565
Fe1 O9 2.236334 1_565
Fe2 O4 1.930295 1_555
Fe2 O17 1.934263 1_555
Fe2 O0 1.956371 1_555
Fe2 O2 1.996392 1_565
Fe2 O11 2.236334 1_665
Fe3 O10 1.930295 1_555
Fe3 O1 1.934263 1_555
Fe3 O11 1.956371 1_555
Fe3 O16 1.996392 1_545
Fe3 O0 2.236334 1_445
Bi0 O19 2.091524 1_555
Bi0 O1 2.149663 1_655
Bi0 O5 2.156298 1_546
Bi0 O14 2.182065 1_556
Bi0 O0 2.184271 1_545
Bi0 O15 2.200060 1_645
Bi1 O18 2.091524 1_555
Bi1 O17 2.149663 1_455
Bi1 O13 2.156298 1_564
Bi1 O15 2.182065 1_554
Bi1 O11 2.184271 1_565
Bi1 O14 2.200060 1_465
Bi2 O2 2.091524 1_555
Bi2 O6 2.149663 1_555
Bi2 O4 2.156298 1_545
Bi2 O8 2.182065 1_555
Bi2 O12 2.184271 1_545
Bi2 O3 2.200060 1_545
Bi3 O16 2.091524 1_555
Bi3 O7 2.149663 1_555
Bi3 O10 2.156298 1_565
Bi3 O3 2.182065 1_555
Bi3 O9 2.184271 1_565
Bi3 O8 2.200060 1_565
