# generated using pymatgen
data_CsLa
_symmetry_space_group_name_H-M   'P 1'
_cell_length_a   7.75535660
_cell_length_b   7.75535660
_cell_length_c   30.32117400
_cell_angle_alpha   90.00000000
_cell_angle_beta   90.00000000
_cell_angle_gamma   120.00000509
_symmetry_Int_Tables_number   1
_chemical_formula_structural   CsLa
_chemical_formula_sum   'Cs16 La16'
_cell_volume   1579.35647623
_cell_formula_units_Z   16
loop_
 _symmetry_equiv_pos_site_id
 _symmetry_equiv_pos_as_xyz
  1  'x, y, z'
loop_
 _atom_site_type_symbol
 _atom_site_label
 _atom_site_symmetry_multiplicity
 _atom_site_fract_x
 _atom_site_fract_y
 _atom_site_fract_z
 _atom_site_occupancy
  Cs  Cs0_0  1  0.33333350  0.16666650  0.28477950  1
  Cs  Cs0_1  1  0.33333350  0.16666650  0.78477950  1
  Cs  Cs0_2  1  0.33333350  0.66666650  0.28477950  1
  Cs  Cs0_3  1  0.33333350  0.66666650  0.78477950  1
  Cs  Cs0_4  1  0.83333350  0.16666650  0.28477950  1
  Cs  Cs0_5  1  0.83333350  0.16666650  0.78477950  1
  Cs  Cs0_6  1  0.83333350  0.66666650  0.28477950  1
  Cs  Cs0_7  1  0.83333350  0.66666650  0.78477950  1
  Cs  Cs1_0  1  0.16666650  0.33333350  0.03477950  1
  Cs  Cs1_1  1  0.16666650  0.33333350  0.53477950  1
  Cs  Cs1_2  1  0.16666650  0.83333350  0.03477950  1
  Cs  Cs1_3  1  0.16666650  0.83333350  0.53477950  1
  Cs  Cs1_4  1  0.66666650  0.33333350  0.03477950  1
  Cs  Cs1_5  1  0.66666650  0.33333350  0.53477950  1
  Cs  Cs1_6  1  0.66666650  0.83333350  0.03477950  1
  Cs  Cs1_7  1  0.66666650  0.83333350  0.53477950  1
  La  La0_0  1  0.33333350  0.16666650  0.40272050  1
  La  La0_1  1  0.33333350  0.16666650  0.90272050  1
  La  La0_2  1  0.33333350  0.66666650  0.40272050  1
  La  La0_3  1  0.33333350  0.66666650  0.90272050  1
  La  La0_4  1  0.83333350  0.16666650  0.40272050  1
  La  La0_5  1  0.83333350  0.16666650  0.90272050  1
  La  La0_6  1  0.83333350  0.66666650  0.40272050  1
  La  La0_7  1  0.83333350  0.66666650  0.90272050  1
  La  La1_0  1  0.16666650  0.33333350  0.15272050  1
  La  La1_1  1  0.16666650  0.33333350  0.65272050  1
  La  La1_2  1  0.16666650  0.83333350  0.15272050  1
  La  La1_3  1  0.16666650  0.83333350  0.65272050  1
  La  La1_4  1  0.66666650  0.33333350  0.15272050  1
  La  La1_5  1  0.66666650  0.33333350  0.65272050  1
  La  La1_6  1  0.66666650  0.83333350  0.15272050  1
  La  La1_7  1  0.66666650  0.83333350  0.65272050  1
loop_
_geom_bond_atom_site_label_1
_geom_bond_atom_site_label_2
_geom_bond_distance
_geom_bond_site_symmetry_2
Cs0_0 La0_0 3.576110 1_555
Cs0_0 Cs0_6 3.877678 1_445
Cs0_0 Cs0_6 3.877678 1_555
Cs0_0 Cs0_2 3.877678 1_555
Cs0_0 Cs0_4 3.877678 1_555
Cs0_0 Cs0_4 3.877678 1_455
Cs0_0 Cs0_2 3.877678 1_545
Cs0_0 La1_2 4.587549 1_545
Cs0_0 La1_4 4.587549 1_555
Cs0_0 La1_0 4.587553 1_555
Cs0_1 La0_1 3.576110 1_555
Cs0_1 Cs0_7 3.877678 1_445
Cs0_1 Cs0_7 3.877678 1_555
Cs0_1 Cs0_3 3.877678 1_555
Cs0_1 Cs0_5 3.877678 1_555
Cs0_1 Cs0_3 3.877678 1_545
Cs0_1 Cs0_5 3.877678 1_455
Cs0_1 La1_3 4.587549 1_545
Cs0_1 La1_5 4.587549 1_555
Cs0_1 La1_1 4.587553 1_555
Cs0_2 La0_2 3.576110 1_555
Cs0_2 Cs0_4 3.877678 1_455
Cs0_2 Cs0_4 3.877678 1_565
Cs0_2 Cs0_6 3.877678 1_555
Cs0_2 Cs0_6 3.877678 1_455
Cs0_2 La1_6 4.587549 1_555
Cs0_2 La1_0 4.587549 1_555
Cs0_2 La1_2 4.587553 1_555
Cs0_3 La0_3 3.576110 1_555
Cs0_3 Cs0_5 3.877678 1_565
Cs0_3 Cs0_5 3.877678 1_455
Cs0_3 Cs0_7 3.877678 1_555
Cs0_3 Cs0_7 3.877678 1_455
Cs0_3 La1_7 4.587549 1_555
Cs0_3 La1_1 4.587549 1_555
Cs0_3 La1_3 4.587553 1_555
Cs0_4 La0_4 3.576110 1_555
Cs0_4 Cs0_6 3.877678 1_545
Cs0_4 Cs0_6 3.877678 1_555
Cs0_4 La1_6 4.587549 1_545
Cs0_4 La1_0 4.587549 1_655
Cs0_4 La1_4 4.587553 1_555
Cs0_5 La0_5 3.576110 1_555
Cs0_5 Cs0_7 3.877678 1_545
Cs0_5 Cs0_7 3.877678 1_555
Cs0_5 La1_1 4.587549 1_655
Cs0_5 La1_7 4.587549 1_545
Cs0_5 La1_5 4.587553 1_555
Cs0_6 La0_6 3.576110 1_555
Cs0_6 La1_2 4.587549 1_655
Cs0_6 La1_4 4.587549 1_555
Cs0_6 La1_6 4.587553 1_555
Cs0_7 La0_7 3.576110 1_555
Cs0_7 La1_3 4.587549 1_655
Cs0_7 La1_5 4.587549 1_555
Cs0_7 La1_7 4.587553 1_555
Cs1_0 La1_0 3.576110 1_555
Cs1_0 Cs1_6 3.877678 1_445
Cs1_0 Cs1_6 3.877678 1_555
Cs1_0 Cs1_2 3.877678 1_555
Cs1_0 Cs1_4 3.877678 1_455
Cs1_0 Cs1_4 3.877678 1_555
Cs1_0 Cs1_2 3.877678 1_545
Cs1_0 La0_3 4.587549 1_554
Cs1_0 La0_5 4.587549 1_454
Cs1_0 La0_1 4.587553 1_554
Cs1_1 La1_1 3.576110 1_555
Cs1_1 Cs1_7 3.877678 1_445
Cs1_1 Cs1_7 3.877678 1_555
Cs1_1 Cs1_3 3.877678 1_555
Cs1_1 Cs1_5 3.877678 1_455
Cs1_1 Cs1_5 3.877678 1_555
Cs1_1 Cs1_3 3.877678 1_545
Cs1_1 La0_4 4.587549 1_455
Cs1_1 La0_2 4.587549 1_555
Cs1_1 La0_0 4.587553 1_555
Cs1_2 La1_2 3.576110 1_555
Cs1_2 Cs1_4 3.877678 1_565
Cs1_2 Cs1_4 3.877678 1_455
Cs1_2 Cs1_6 3.877678 1_555
Cs1_2 Cs1_6 3.877678 1_455
Cs1_2 La0_7 4.587549 1_454
Cs1_2 La0_1 4.587549 1_564
Cs1_2 La0_3 4.587553 1_554
Cs1_3 La1_3 3.576110 1_555
Cs1_3 Cs1_5 3.877678 1_565
Cs1_3 Cs1_5 3.877678 1_455
Cs1_3 Cs1_7 3.877678 1_555
Cs1_3 Cs1_7 3.877678 1_455
Cs1_3 La0_0 4.587549 1_565
Cs1_3 La0_6 4.587549 1_455
Cs1_3 La0_2 4.587553 1_555
Cs1_4 La1_4 3.576110 1_555
Cs1_4 Cs1_6 3.877678 1_545
Cs1_4 Cs1_6 3.877678 1_555
Cs1_4 La0_1 4.587549 1_554
Cs1_4 La0_7 4.587549 1_554
Cs1_4 La0_5 4.587553 1_554
Cs1_5 La1_5 3.576110 1_555
Cs1_5 Cs1_7 3.877678 1_545
Cs1_5 Cs1_7 3.877678 1_555
Cs1_5 La0_0 4.587549 1_555
Cs1_5 La0_6 4.587549 1_555
Cs1_5 La0_4 4.587553 1_555
Cs1_6 La1_6 3.576110 1_555
Cs1_6 La0_3 4.587549 1_554
Cs1_6 La0_5 4.587549 1_564
Cs1_6 La0_7 4.587553 1_554
Cs1_7 La1_7 3.576110 1_555
Cs1_7 La0_4 4.587549 1_565
Cs1_7 La0_2 4.587549 1_555
Cs1_7 La0_6 4.587553 1_555
La0_0 La0_6 3.877678 1_445
La0_0 La0_6 3.877678 1_555
La0_0 La0_2 3.877678 1_555
La0_0 La0_4 3.877678 1_555
La0_0 La0_2 3.877678 1_545
La0_0 La0_4 3.877678 1_455
La0_1 La0_7 3.877678 1_445
La0_1 La0_7 3.877678 1_555
La0_1 La0_3 3.877678 1_555
La0_1 La0_5 3.877678 1_555
La0_1 La0_3 3.877678 1_545
La0_1 La0_5 3.877678 1_455
La0_2 La0_4 3.877678 1_565
La0_2 La0_4 3.877678 1_455
La0_2 La0_6 3.877678 1_555
La0_2 La0_6 3.877678 1_455
La0_3 La0_5 3.877678 1_565
La0_3 La0_5 3.877678 1_455
La0_3 La0_7 3.877678 1_555
La0_3 La0_7 3.877678 1_455
La0_4 La0_6 3.877678 1_545
La0_4 La0_6 3.877678 1_555
La0_5 La0_7 3.877678 1_545
La0_5 La0_7 3.877678 1_555
La1_0 La1_6 3.877678 1_445
La1_0 La1_6 3.877678 1_555
La1_0 La1_2 3.877678 1_555
La1_0 La1_4 3.877678 1_455
La1_0 La1_4 3.877678 1_555
La1_0 La1_2 3.877678 1_545
La1_1 La1_7 3.877678 1_445
La1_1 La1_7 3.877678 1_555
La1_1 La1_3 3.877678 1_555
La1_1 La1_5 3.877678 1_455
La1_1 La1_5 3.877678 1_555
La1_1 La1_3 3.877678 1_545
La1_2 La1_4 3.877678 1_565
La1_2 La1_4 3.877678 1_455
La1_2 La1_6 3.877678 1_555
La1_2 La1_6 3.877678 1_455
La1_3 La1_5 3.877678 1_565
La1_3 La1_5 3.877678 1_455
La1_3 La1_7 3.877678 1_555
La1_3 La1_7 3.877678 1_455
La1_4 La1_6 3.877678 1_545
La1_4 La1_6 3.877678 1_555
La1_5 La1_7 3.877678 1_545
La1_5 La1_7 3.877678 1_555
