# generated using pymatgen
data_NdMn3V4O12
_symmetry_space_group_name_H-M   'P 1'
_cell_length_a   6.55915516
_cell_length_b   6.55915516
_cell_length_c   6.55915516
_cell_angle_alpha   109.47122063
_cell_angle_beta   109.47122063
_cell_angle_gamma   109.47122063
_symmetry_Int_Tables_number   1
_chemical_formula_structural   NdMn3V4O12
_chemical_formula_sum   'Nd1 Mn3 V4 O12'
_cell_volume   217.23101108
_cell_formula_units_Z   1
loop_
 _symmetry_equiv_pos_site_id
 _symmetry_equiv_pos_as_xyz
  1  'x, y, z'
loop_
 _atom_site_type_symbol
 _atom_site_label
 _atom_site_symmetry_multiplicity
 _atom_site_fract_x
 _atom_site_fract_y
 _atom_site_fract_z
 _atom_site_occupancy
  Nd  Nd0  1  0.00000000  0.00000000  0.00000000  1
  Mn  Mn0  1  0.50000000  0.00000000  0.50000000  1
  Mn  Mn1  1  0.00000000  0.50000000  0.50000000  1
  Mn  Mn2  1  0.50000000  0.50000000  0.00000000  1
  V  V0  1  0.00000000  0.00000000  0.50000000  1
  V  V1  1  0.50000000  0.00000000  0.00000000  1
  V  V2  1  0.00000000  0.50000000  0.00000000  1
  V  V3  1  0.50000000  0.50000000  0.50000000  1
  O  O0  1  0.29637600  0.10798500  0.81161000  1
  O  O1  1  0.70362400  0.89201400  0.18839000  1
  O  O2  1  0.70362400  0.51523400  0.81161000  1
  O  O3  1  0.29637600  0.48476600  0.18839000  1
  O  O4  1  0.10798500  0.81161000  0.29637600  1
  O  O5  1  0.89201400  0.18839000  0.70362400  1
  O  O6  1  0.51523400  0.81161000  0.70362400  1
  O  O7  1  0.48476600  0.18839000  0.29637600  1
  O  O8  1  0.81161000  0.29637600  0.10798500  1
  O  O9  1  0.18839000  0.70362400  0.89201400  1
  O  O10  1  0.81161000  0.70362400  0.51523400  1
  O  O11  1  0.18839000  0.29637600  0.48476600  1
loop_
_geom_bond_atom_site_label_1
_geom_bond_atom_site_label_2
_geom_bond_distance
_geom_bond_site_symmetry_2
Nd0 O8 2.659810 1_455
Nd0 O4 2.659810 1_545
Nd0 O0 2.659810 1_554
Nd0 O5 2.659811 1_454
Nd0 O9 2.659811 1_544
Nd0 O3 2.659811 1_555
Nd0 O11 2.659811 1_555
Nd0 O2 2.659811 1_444
Nd0 O7 2.659811 1_555
Nd0 O10 2.659811 1_444
Nd0 O1 2.659811 1_445
Nd0 O6 2.659811 1_444
Mn0 O5 2.101027 1_555
Mn0 O6 2.101027 1_545
Mn0 O7 2.101027 1_555
Mn0 O4 2.101032 1_545
Mn1 O11 2.101027 1_555
Mn1 O9 2.101027 1_555
Mn1 O10 2.101027 1_455
Mn1 O8 2.101032 1_455
Mn2 O2 2.101027 1_554
Mn2 O1 2.101027 1_555
Mn2 O3 2.101027 1_555
Mn2 O0 2.101032 1_554
O0 V1 1.981490 1_556
O0 V0 1.981497 1_555
O1 V0 1.981495 1_665
O1 V1 1.981495 1_565
O2 V2 1.981495 1_656
O2 V3 1.981495 1_555
O3 V3 1.981495 1_555
O3 V2 1.981495 1_555
O4 V0 1.981490 1_565
O4 V2 1.981497 1_555
O5 V2 1.981495 1_656
O5 V0 1.981495 1_655
O6 V1 1.981495 1_566
O6 V3 1.981495 1_555
O7 V3 1.981495 1_555
O7 V1 1.981495 1_555
O8 V2 1.981490 1_655
O8 V1 1.981497 1_555
O9 V1 1.981495 1_566
O9 V2 1.981495 1_556
O10 V0 1.981495 1_665
O10 V3 1.981495 1_555
O11 V3 1.981495 1_555
O11 V0 1.981495 1_555
