# generated using pymatgen
data_SrPrCoRuO6
_symmetry_space_group_name_H-M   'P 1'
_cell_length_a   5.66262900
_cell_length_b   5.61239600
_cell_length_c   9.70411899
_cell_angle_alpha   54.77886112
_cell_angle_beta   90.00000000
_cell_angle_gamma   90.00000000
_symmetry_Int_Tables_number   1
_chemical_formula_structural   SrPrCoRuO6
_chemical_formula_sum   'Sr2 Pr2 Co2 Ru2 O12'
_cell_volume   251.94661492
_cell_formula_units_Z   2
loop_
 _symmetry_equiv_pos_site_id
 _symmetry_equiv_pos_as_xyz
  1  'x, y, z'
loop_
 _atom_site_type_symbol
 _atom_site_label
 _atom_site_symmetry_multiplicity
 _atom_site_fract_x
 _atom_site_fract_y
 _atom_site_fract_z
 _atom_site_occupancy
  Sr  Sr0  1  0.21539200  0.24553700  0.24935400  1
  Sr  Sr1  1  0.78460800  0.24553700  0.74935400  1
  Pr  Pr0  1  0.29767300  0.75859300  0.75181900  1
  Pr  Pr1  1  0.70232700  0.75859300  0.25181900  1
  Co  Co0  1  0.75409500  0.50016600  0.00016700  1
  Co  Co1  1  0.24590500  0.50016600  0.50016700  1
  Ru  Ru0  1  0.75192800  0.00061700  0.49977000  1
  Ru  Ru1  1  0.24807200  0.00061700  0.99977000  1
  O  O0  1  0.76230600  0.32808400  0.25703600  1
  O  O1  1  0.23769400  0.32808400  0.75703600  1
  O  O2  1  0.72933600  0.69258700  0.74313900  1
  O  O3  1  0.27066400  0.69258700  0.24313900  1
  O  O4  1  0.03876200  0.15462100  0.54318800  1
  O  O5  1  0.96123800  0.15462100  0.04318800  1
  O  O6  1  0.47461900  0.82508900  0.46197700  1
  O  O7  1  0.52538100  0.82508900  0.96197700  1
  O  O8  1  0.95045600  0.75548000  0.45760700  1
  O  O9  1  0.04954400  0.75548000  0.95760700  1
  O  O10  1  0.53695200  0.23922500  0.53594200  1
  O  O11  1  0.46304800  0.23922500  0.03594200  1
loop_
_geom_bond_atom_site_label_1
_geom_bond_atom_site_label_2
_geom_bond_distance
_geom_bond_site_symmetry_2
Co0 O2 2.073670 1_554
Co0 O9 2.083315 1_654
Co0 O7 2.088217 1_554
Co0 O0 2.090820 1_555
Co0 O5 2.092198 1_555
Co0 O11 2.096437 1_555
Co1 O3 2.073670 1_555
Co1 O8 2.083315 1_455
Co1 O6 2.088217 1_555
Co1 O1 2.090820 1_555
Co1 O4 2.092198 1_555
Co1 O10 2.096437 1_555
O0 Ru0 1.983980 1_555
O0 Pr1 2.411386 1_555
O0 Sr0 2.615842 1_655
O1 Ru1 1.983980 1_555
O1 Pr0 2.411386 1_555
O1 Sr1 2.615842 1_455
O2 Ru0 1.968040 1_565
O2 Pr0 2.480959 1_555
O2 Sr1 2.494442 1_555
O3 Ru1 1.968040 1_564
O3 Pr1 2.480959 1_555
O3 Sr0 2.494442 1_555
O4 Ru0 1.995693 1_455
O4 Pr0 2.449103 1_545
O4 Sr1 2.740758 1_455
O4 Sr0 2.777227 1_555
O5 Ru1 1.995693 1_654
O5 Pr1 2.449103 1_545
O5 Sr0 2.740758 1_655
O5 Sr1 2.777227 1_554
O6 Ru0 1.996890 1_565
O6 Sr0 2.522746 1_565
O6 Pr1 2.615140 1_555
O6 Pr0 2.800629 1_555
O7 Ru1 1.996890 1_565
O7 Sr1 2.522746 1_565
O7 Pr0 2.615140 1_555
O7 Pr1 2.800629 1_556
O8 Ru0 1.993329 1_565
O8 Pr1 2.433564 1_555
O8 Sr0 2.736445 1_665
O8 Sr1 2.782475 1_555
O9 Ru1 1.993329 1_565
O9 Pr0 2.433564 1_555
O9 Sr1 2.736445 1_465
O9 Sr0 2.782475 1_556
O10 Ru0 1.985112 1_555
O10 Sr1 2.518233 1_555
O10 Pr0 2.642489 1_545
O10 Pr1 2.775840 1_555
O11 Ru1 1.985112 1_554
O11 Sr0 2.518233 1_555
O11 Pr1 2.642489 1_545
O11 Pr0 2.775840 1_554
