# generated using pymatgen
data_BaNd2Cu(MoO4)4
_symmetry_space_group_name_H-M   'P 1'
_cell_length_a   5.38931413
_cell_length_b   7.01593557
_cell_length_c   19.62201933
_cell_angle_alpha   89.29294682
_cell_angle_beta   88.15881294
_cell_angle_gamma   67.41357459
_symmetry_Int_Tables_number   1
_chemical_formula_structural   BaNd2Cu(MoO4)4
_chemical_formula_sum   'Ba2 Nd4 Cu2 Mo8 O32'
_cell_volume   684.67099972
_cell_formula_units_Z   2
loop_
 _symmetry_equiv_pos_site_id
 _symmetry_equiv_pos_as_xyz
  1  'x, y, z'
loop_
 _atom_site_type_symbol
 _atom_site_label
 _atom_site_symmetry_multiplicity
 _atom_site_fract_x
 _atom_site_fract_y
 _atom_site_fract_z
 _atom_site_occupancy
  Ba  Ba0  1  0.47532800  0.04934500  0.75000000  1
  Ba  Ba1  1  0.52467200  0.95065500  0.25000000  1
  Nd  Nd0  1  0.35316900  0.28722500  0.53263300  1
  Nd  Nd1  1  0.64683100  0.71277500  0.46736700  1
  Nd  Nd2  1  0.35960600  0.28722500  0.96736700  1
  Nd  Nd3  1  0.64039400  0.71277500  0.03263300  1
  Cu  Cu0  1  0.18758000  0.62484000  0.75000000  1
  Cu  Cu1  1  0.81242000  0.37516000  0.25000000  1
  Mo  Mo0  1  0.07211400  0.87746200  0.90478600  1
  Mo  Mo1  1  0.92788600  0.12253800  0.09521400  1
  Mo  Mo2  1  0.05042400  0.87746200  0.59521400  1
  Mo  Mo3  1  0.94957600  0.12253800  0.40478600  1
  Mo  Mo4  1  0.77172200  0.47087100  0.84915900  1
  Mo  Mo5  1  0.22827800  0.52912900  0.15084100  1
  Mo  Mo6  1  0.75740700  0.47087100  0.65084100  1
  Mo  Mo7  1  0.24259300  0.52912900  0.34915900  1
  O  O0  1  0.61523100  0.28548200  0.86215100  1
  O  O1  1  0.38476900  0.71451800  0.13784900  1
  O  O2  1  0.09928700  0.28548200  0.63784900  1
  O  O3  1  0.90071300  0.71451800  0.36215100  1
  O  O4  1  0.32339600  0.66010400  0.95495600  1
  O  O5  1  0.67660400  0.33989600  0.04504400  1
  O  O6  1  0.01650000  0.66010400  0.54504400  1
  O  O7  1  0.98350000  0.33989600  0.45495600  1
  O  O8  1  0.28178100  0.95554400  0.53765400  1
  O  O9  1  0.71821900  0.04445600  0.46234600  1
  O  O10  1  0.76267500  0.95554400  0.96234600  1
  O  O11  1  0.23732500  0.04445600  0.03765400  1
  O  O12  1  0.20517700  0.83327900  0.67909800  1
  O  O13  1  0.79482300  0.16672100  0.32090200  1
  O  O14  1  0.96154400  0.83327900  0.82090200  1
  O  O15  1  0.03845600  0.16672100  0.17909800  1
  O  O16  1  0.57687300  0.51727900  0.57028400  1
  O  O17  1  0.42312700  0.48272100  0.42971600  1
  O  O18  1  0.90584800  0.51727900  0.92971600  1
  O  O19  1  0.09415200  0.48272100  0.07028400  1
  O  O20  1  0.55636000  0.40345600  0.71498500  1
  O  O21  1  0.44364000  0.59654400  0.28501500  1
  O  O22  1  0.04018400  0.40345600  0.78501500  1
  O  O23  1  0.95981600  0.59654400  0.21498500  1
  O  O24  1  0.51203500  0.70225400  0.82221300  1
  O  O25  1  0.48796500  0.29774600  0.17778700  1
  O  O26  1  0.78571100  0.70225400  0.67778700  1
  O  O27  1  0.21428900  0.29774600  0.32221300  1
  O  O28  1  0.28233900  0.91465200  0.39066600  1
  O  O29  1  0.71766100  0.08534800  0.60933400  1
  O  O30  1  0.80300900  0.91465200  0.10933400  1
  O  O31  1  0.19699100  0.08534800  0.89066600  1
loop_
_geom_bond_atom_site_label_1
_geom_bond_atom_site_label_2
_geom_bond_distance
_geom_bond_site_symmetry_2
Ba0 O26 2.745863 1_545
Ba0 O24 2.745864 1_545
Ba0 O20 2.758101 1_555
Ba0 O22 2.758104 1_555
Ba0 O14 2.868935 1_545
Ba0 O12 2.868938 1_545
Ba0 O0 3.051575 1_555
Ba0 O2 3.051578 1_555
Ba0 O29 3.064712 1_555
Ba0 O31 3.064714 1_555
Ba1 O27 2.745863 1_565
Ba1 O25 2.745864 1_565
Ba1 O21 2.758101 1_555
Ba1 O23 2.758104 1_555
Ba1 O15 2.868935 1_565
Ba1 O13 2.868938 1_565
Ba1 O1 3.051575 1_555
Ba1 O3 3.051578 1_555
Ba1 O28 3.064712 1_555
Ba1 O30 3.064714 1_555
Nd0 O2 2.442404 1_555
Nd0 O9 2.446083 1_555
Nd0 O7 2.458554 1_455
Nd0 O29 2.475899 1_555
Nd0 O16 2.487140 1_555
Nd0 O8 2.500505 1_545
Nd0 O17 2.526159 1_555
Nd0 O6 2.556660 1_555
Nd1 O3 2.442404 1_555
Nd1 O8 2.446083 1_555
Nd1 O6 2.458554 1_655
Nd1 O28 2.475899 1_555
Nd1 O17 2.487140 1_555
Nd1 O9 2.500505 1_565
Nd1 O16 2.526159 1_555
Nd1 O7 2.556660 1_555
Nd2 O0 2.442404 1_555
Nd2 O11 2.446083 1_556
Nd2 O5 2.458554 1_556
Nd2 O31 2.475899 1_555
Nd2 O18 2.487140 1_455
Nd2 O10 2.500505 1_545
Nd2 O19 2.526159 1_556
Nd2 O4 2.556660 1_555
Nd3 O1 2.442404 1_555
Nd3 O10 2.446083 1_554
Nd3 O4 2.458554 1_554
Nd3 O30 2.475899 1_555
Nd3 O19 2.487140 1_655
Nd3 O11 2.500505 1_565
Nd3 O18 2.526159 1_554
Nd3 O5 2.556660 1_555
Cu0 O12 2.032482 1_555
Cu0 O14 2.032482 1_455
Cu0 O22 2.098071 1_555
Cu0 O20 2.098071 1_555
Cu0 O24 2.503614 1_555
Cu0 O26 2.503614 1_455
Cu1 O13 2.032482 1_555
Cu1 O15 2.032482 1_655
Cu1 O23 2.098071 1_555
Cu1 O21 2.098071 1_555
Cu1 O25 2.503614 1_555
Cu1 O27 2.503614 1_655
Mo0 O14 1.837913 1_455
Mo0 O31 1.840927 1_565
Mo0 O10 1.883964 1_455
Mo0 O4 1.894955 1_555
Mo1 O15 1.837913 1_655
Mo1 O30 1.840927 1_545
Mo1 O11 1.883964 1_655
Mo1 O5 1.894955 1_555
Mo2 O12 1.837913 1_555
Mo2 O29 1.840927 1_465
Mo2 O8 1.883964 1_555
Mo2 O6 1.894955 1_555
Mo3 O13 1.837913 1_555
Mo3 O28 1.840927 1_645
Mo3 O9 1.883964 1_555
Mo3 O7 1.894955 1_555
Mo4 O24 1.776158 1_555
Mo4 O22 1.809196 1_655
Mo4 O0 1.813471 1_555
Mo4 O18 1.842286 1_555
Mo5 O25 1.776158 1_555
Mo5 O23 1.809196 1_455
Mo5 O1 1.813471 1_555
Mo5 O19 1.842286 1_555
Mo6 O26 1.776157 1_555
Mo6 O20 1.809196 1_555
Mo6 O2 1.813471 1_655
Mo6 O16 1.842286 1_555
Mo7 O27 1.776157 1_555
Mo7 O21 1.809196 1_555
Mo7 O3 1.813471 1_455
Mo7 O17 1.842286 1_555
