# generated using pymatgen
data_RbFeCu(PO4)2
_symmetry_space_group_name_H-M   'P 1'
_cell_length_a   10.05073500
_cell_length_b   8.26816500
_cell_length_c   9.33415208
_cell_angle_alpha   63.22169847
_cell_angle_beta   90.00000000
_cell_angle_gamma   90.00000000
_symmetry_Int_Tables_number   1
_chemical_formula_structural   RbFeCu(PO4)2
_chemical_formula_sum   'Rb4 Fe4 Cu4 P8 O32'
_cell_volume   692.49214852
_cell_formula_units_Z   4
loop_
 _symmetry_equiv_pos_site_id
 _symmetry_equiv_pos_as_xyz
  1  'x, y, z'
loop_
 _atom_site_type_symbol
 _atom_site_label
 _atom_site_symmetry_multiplicity
 _atom_site_fract_x
 _atom_site_fract_y
 _atom_site_fract_z
 _atom_site_occupancy
  Rb  Rb0  1  0.13365300  0.84156200  0.57587400  1
  Rb  Rb1  1  0.36634700  0.84156200  0.07587400  1
  Rb  Rb2  1  0.86634700  0.15843800  0.42412600  1
  Rb  Rb3  1  0.63365300  0.15843800  0.92412600  1
  Fe  Fe0  1  0.62379700  0.77297300  0.74540100  1
  Fe  Fe1  1  0.87620300  0.77297300  0.24540100  1
  Fe  Fe2  1  0.37620300  0.22702700  0.25459900  1
  Fe  Fe3  1  0.12379700  0.22702700  0.75459900  1
  Cu  Cu0  1  0.38155200  0.57448600  0.55859300  1
  Cu  Cu1  1  0.11844800  0.57448600  0.05859300  1
  Cu  Cu2  1  0.61844800  0.42551400  0.44140700  1
  Cu  Cu3  1  0.88155200  0.42551400  0.94140700  1
  P  P0  1  0.58869800  0.87774500  0.35933300  1
  P  P1  1  0.91130200  0.87774500  0.85933300  1
  P  P2  1  0.41130200  0.12225500  0.64066700  1
  P  P3  1  0.08869800  0.12225500  0.14066700  1
  P  P4  1  0.34072400  0.50579200  0.86183900  1
  P  P5  1  0.15927600  0.50579200  0.36183900  1
  P  P6  1  0.65927600  0.49420800  0.13816100  1
  P  P7  1  0.84072400  0.49420800  0.63816100  1
  O  O0  1  0.52245100  0.68952700  0.40421200  1
  O  O1  1  0.97754900  0.68952700  0.90421200  1
  O  O2  1  0.47754900  0.31047300  0.59578800  1
  O  O3  1  0.02245100  0.31047300  0.09578800  1
  O  O4  1  0.49089300  0.03042100  0.25538700  1
  O  O5  1  0.00910700  0.03042100  0.75538700  1
  O  O6  1  0.50910700  0.96957900  0.74461300  1
  O  O7  1  0.99089300  0.96957900  0.24461300  1
  O  O8  1  0.79015100  0.89682700  0.75125300  1
  O  O9  1  0.70984900  0.89682700  0.25125300  1
  O  O10  1  0.20984900  0.10317300  0.24874700  1
  O  O11  1  0.29015100  0.10317300  0.74874700  1
  O  O12  1  0.63167600  0.89263600  0.51123900  1
  O  O13  1  0.86832400  0.89263600  0.01123900  1
  O  O14  1  0.36832400  0.10736400  0.48876100  1
  O  O15  1  0.13167600  0.10736400  0.98876100  1
  O  O16  1  0.23907700  0.64096100  0.39860500  1
  O  O17  1  0.26092300  0.64096100  0.89860500  1
  O  O18  1  0.76092300  0.35903900  0.60139500  1
  O  O19  1  0.73907700  0.35903900  0.10139500  1
  O  O20  1  0.38892800  0.34194700  0.01344300  1
  O  O21  1  0.11107200  0.34194700  0.51344300  1
  O  O22  1  0.61107200  0.65805300  0.98655700  1
  O  O23  1  0.88892800  0.65805300  0.48655700  1
  O  O24  1  0.25771300  0.44966000  0.74669900  1
  O  O25  1  0.24228700  0.44966000  0.24669900  1
  O  O26  1  0.74228700  0.55034000  0.25330100  1
  O  O27  1  0.75771300  0.55034000  0.75330100  1
  O  O28  1  0.46152400  0.60629900  0.74674600  1
  O  O29  1  0.03847600  0.60629900  0.24674600  1
  O  O30  1  0.53847600  0.39370100  0.25325400  1
  O  O31  1  0.96152400  0.39370100  0.75325400  1
loop_
_geom_bond_atom_site_label_1
_geom_bond_atom_site_label_2
_geom_bond_distance
_geom_bond_site_symmetry_2
Fe0 O12 1.952913 1_555
Fe0 O8 1.974227 1_555
Fe0 O6 1.990106 1_555
Fe0 O22 2.014665 1_555
Fe0 O28 2.131604 1_555
Fe0 O27 2.254582 1_555
Fe1 O13 1.952913 1_555
Fe1 O9 1.974227 1_555
Fe1 O7 1.990106 1_555
Fe1 O23 2.014665 1_555
Fe1 O29 2.131604 1_655
Fe1 O26 2.254582 1_555
Fe2 O14 1.952913 1_555
Fe2 O10 1.974227 1_555
Fe2 O4 1.990106 1_555
Fe2 O20 2.014665 1_555
Fe2 O30 2.131604 1_555
Fe2 O25 2.254582 1_555
Fe3 O15 1.952913 1_555
Fe3 O11 1.974227 1_555
Fe3 O5 1.990106 1_555
Fe3 O21 2.014665 1_555
Fe3 O31 2.131604 1_455
Fe3 O24 2.254582 1_555
Cu0 O0 1.936915 1_555
Cu0 O16 1.960398 1_555
Cu0 O24 2.016034 1_555
Cu0 O28 2.053269 1_555
Cu0 O2 2.265749 1_555
Cu1 O1 1.936915 1_454
Cu1 O17 1.960398 1_554
Cu1 O25 2.016034 1_555
Cu1 O29 2.053269 1_555
Cu1 O3 2.265749 1_555
Cu2 O2 1.936915 1_555
Cu2 O18 1.960398 1_555
Cu2 O26 2.016034 1_555
Cu2 O30 2.053269 1_555
Cu2 O0 2.265749 1_555
Cu3 O3 1.936915 1_656
Cu3 O19 1.960398 1_556
Cu3 O27 2.016034 1_555
Cu3 O31 2.053269 1_555
Cu3 O1 2.265749 1_555
O0 P0 1.566271 1_555
O0 Rb1 3.156436 1_555
O1 P1 1.566271 1_555
O1 Rb0 3.156436 1_655
O2 P2 1.566271 1_555
O2 Rb3 3.156436 1_555
O3 P3 1.566271 1_555
O3 Rb2 3.156436 1_455
O4 P0 1.548414 1_545
O4 Rb1 3.028297 1_545
O4 Rb3 3.129021 1_554
O5 P1 1.548414 1_445
O5 Rb0 3.028297 1_545
O5 Rb2 3.129021 1_455
O6 P2 1.548414 1_565
O6 Rb3 3.028297 1_565
O6 Rb1 3.129021 1_556
O7 P3 1.548414 1_665
O7 Rb2 3.028297 1_565
O7 Rb0 3.129021 1_655
O8 P1 1.543343 1_555
O8 Rb2 2.938949 1_565
O9 P0 1.543343 1_555
O9 Rb3 2.938949 1_564
O10 P3 1.543343 1_555
O10 Rb0 2.938949 1_545
O11 P2 1.543343 1_555
O11 Rb1 2.938949 1_546
O12 P0 1.539329 1_555
O12 Rb2 3.073089 1_565
O13 P1 1.539329 1_554
O13 Rb3 3.073089 1_564
O14 P2 1.539329 1_555
O14 Rb0 3.073089 1_545
O15 P3 1.539329 1_556
O15 Rb1 3.073089 1_546
O16 P5 1.534828 1_555
O16 Rb1 2.993280 1_555
O16 Rb0 3.014052 1_555
O17 P4 1.534828 1_555
O17 Rb0 2.993280 1_555
O17 Rb1 3.014052 1_556
O18 P7 1.534828 1_555
O18 Rb3 2.993280 1_555
O18 Rb2 3.014052 1_555
O19 P6 1.534828 1_555
O19 Rb2 2.993280 1_555
O19 Rb3 3.014052 1_554
O20 P4 1.531350 1_554
O20 Rb3 3.191705 1_554
O21 P5 1.531350 1_555
O21 Rb2 3.191705 1_455
O22 P6 1.531350 1_556
O22 Rb1 3.191705 1_556
O23 P7 1.531350 1_555
O23 Rb0 3.191705 1_655
O24 P4 1.586189 1_555
O24 Rb0 3.152968 1_555
O25 P5 1.586189 1_555
O25 Rb1 3.152968 1_555
O26 P6 1.586189 1_555
O26 Rb2 3.152968 1_555
O27 P7 1.586189 1_555
O27 Rb3 3.152968 1_555
O28 P4 1.585673 1_555
O29 P5 1.585673 1_555
O30 P6 1.585673 1_555
O31 P7 1.585673 1_555
