# generated using pymatgen
data_Y4UPd15
_symmetry_space_group_name_H-M   'P 1'
_cell_length_a   4.10970168
_cell_length_b   4.10970168
_cell_length_c   20.47677333
_cell_angle_alpha   90.00000000
_cell_angle_beta   90.00000000
_cell_angle_gamma   90.00000000
_symmetry_Int_Tables_number   1
_chemical_formula_structural   Y4UPd15
_chemical_formula_sum   'Y4 U1 Pd15'
_cell_volume   345.84549164
_cell_formula_units_Z   1
loop_
 _symmetry_equiv_pos_site_id
 _symmetry_equiv_pos_as_xyz
  1  'x, y, z'
loop_
 _atom_site_type_symbol
 _atom_site_label
 _atom_site_symmetry_multiplicity
 _atom_site_fract_x
 _atom_site_fract_y
 _atom_site_fract_z
 _atom_site_occupancy
  Y  Y0  1  0.00000000  -0.00000000  0.20241078  1
  Y  Y1  1  0.00000000  -0.00000000  0.40053858  1
  Y  Y2  1  -0.00000000  0.00000000  0.59946142  1
  Y  Y3  1  -0.00000000  0.00000000  0.79758922  1
  U  U0  1  0.00000000  -0.00000000  0.00000000  1
  Pd  Pd0  1  0.50000000  0.50000000  0.00000000  1
  Pd  Pd1  1  0.50000000  0.50000000  0.19987407  1
  Pd  Pd2  1  0.50000000  0.50000000  0.39977821  1
  Pd  Pd3  1  0.50000000  0.50000000  0.60022179  1
  Pd  Pd4  1  0.50000000  0.50000000  0.80012593  1
  Pd  Pd5  1  0.50000000  -0.00000000  0.09874685  1
  Pd  Pd6  1  0.50000000  -0.00000000  0.30009793  1
  Pd  Pd7  1  0.50000000  -0.00000000  0.50000000  1
  Pd  Pd8  1  0.50000000  0.00000000  0.69990207  1
  Pd  Pd9  1  0.50000000  0.00000000  0.90125315  1
  Pd  Pd10  1  0.00000000  0.50000000  0.09874685  1
  Pd  Pd11  1  0.00000000  0.50000000  0.30009793  1
  Pd  Pd12  1  -0.00000000  0.50000000  0.50000000  1
  Pd  Pd13  1  -0.00000000  0.50000000  0.69990207  1
  Pd  Pd14  1  -0.00000000  0.50000000  0.90125315  1
loop_
_geom_bond_atom_site_label_1
_geom_bond_atom_site_label_2
_geom_bond_distance
_geom_bond_site_symmetry_2
Pd0 Pd9 2.882874 1_564
Pd0 Pd9 2.882874 1_554
Pd0 Pd14 2.882874 1_654
Pd0 Pd14 2.882874 1_554
Pd0 Pd10 2.882874 1_655
Pd0 Pd5 2.882874 1_565
Pd0 Pd5 2.882874 1_555
Pd0 Pd10 2.882874 1_555
Pd0 U0 2.905998 1_555
Pd0 U0 2.905998 1_655
Pd0 U0 2.905998 1_665
Pd0 U0 2.905998 1_565
Pd1 Pd11 2.904167 1_655
Pd1 Pd6 2.904167 1_565
Pd1 Pd6 2.904167 1_555
Pd1 Pd11 2.904167 1_555
Pd1 Y0 2.906462 1_565
Pd1 Y0 2.906462 1_665
Pd1 Y0 2.906462 1_655
Pd1 Y0 2.906462 1_555
Pd1 Pd5 2.917268 1_565
Pd1 Pd5 2.917268 1_555
Pd1 Pd10 2.917268 1_555
Pd1 Pd10 2.917268 1_655
Pd2 Pd6 2.896312 1_555
Pd2 Pd6 2.896312 1_565
Pd2 Pd7 2.904137 1_565
Pd2 Pd7 2.904137 1_555
Pd2 Y1 2.906040 1_565
Pd2 Y1 2.906040 1_665
Pd2 Y1 2.906040 1_555
Pd2 Y1 2.906040 1_655
Pd3 Pd8 2.896312 1_555
Pd3 Pd8 2.896312 1_565
Pd3 Pd7 2.904137 1_565
Pd3 Pd7 2.904137 1_555
Pd3 Y2 2.906040 1_665
Pd3 Y2 2.906040 1_655
Pd3 Y2 2.906040 1_555
Pd3 Y2 2.906040 1_565
Pd4 Pd8 2.904167 1_555
Pd4 Pd8 2.904167 1_565
Pd4 Y3 2.906462 1_655
Pd4 Y3 2.906462 1_665
Pd4 Y3 2.906462 1_565
Pd4 Y3 2.906462 1_555
Pd4 Pd9 2.917268 1_555
Pd4 Pd9 2.917268 1_565
Pd5 U0 2.882874 1_555
Pd5 U0 2.882874 1_655
Pd5 Y0 2.954366 1_555
Pd5 Y0 2.954366 1_655
Pd6 Y0 2.867696 1_655
Pd6 Y0 2.867696 1_555
Pd6 Y1 2.907306 1_655
Pd6 Y1 2.907306 1_555
Pd7 Y1 2.893156 1_555
Pd7 Y1 2.893156 1_655
Pd7 Y2 2.893156 1_655
Pd7 Y2 2.893156 1_555
Pd8 Y3 2.867696 1_555
Pd8 Y3 2.867696 1_655
Pd8 Y2 2.907306 1_655
Pd8 Y2 2.907306 1_555
Pd9 U0 2.882874 1_656
Pd9 U0 2.882874 1_556
Pd9 Y3 2.954366 1_655
Pd9 Y3 2.954366 1_555
Pd10 U0 2.882874 1_555
Pd10 U0 2.882874 1_565
Pd10 Pd5 2.905998 1_565
Pd10 Pd5 2.905998 1_555
Pd10 Pd5 2.905998 1_455
Pd10 Pd5 2.905998 1_465
Pd10 Y0 2.954366 1_555
Pd10 Y0 2.954366 1_565
Pd11 Y0 2.867696 1_555
Pd11 Y0 2.867696 1_565
Pd11 Pd2 2.896312 1_555
Pd11 Pd2 2.896312 1_455
Pd11 Pd6 2.905998 1_455
Pd11 Pd6 2.905998 1_465
Pd11 Pd6 2.905998 1_555
Pd11 Pd6 2.905998 1_565
Pd11 Y1 2.907306 1_565
Pd11 Y1 2.907306 1_555
Pd12 Y1 2.893156 1_565
Pd12 Y1 2.893156 1_555
Pd12 Y2 2.893156 1_555
Pd12 Y2 2.893156 1_565
Pd12 Pd3 2.904137 1_455
Pd12 Pd2 2.904137 1_555
Pd12 Pd3 2.904137 1_555
Pd12 Pd2 2.904137 1_455
Pd12 Pd7 2.905998 1_565
Pd12 Pd7 2.905998 1_465
Pd12 Pd7 2.905998 1_455
Pd12 Pd7 2.905998 1_555
Pd13 Y3 2.867696 1_565
Pd13 Y3 2.867696 1_555
Pd13 Pd3 2.896312 1_555
Pd13 Pd3 2.896312 1_455
Pd13 Pd4 2.904167 1_455
Pd13 Pd4 2.904167 1_555
Pd13 Pd8 2.905998 1_565
Pd13 Pd8 2.905998 1_555
Pd13 Pd8 2.905998 1_455
Pd13 Pd8 2.905998 1_465
Pd13 Y2 2.907306 1_565
Pd13 Y2 2.907306 1_555
Pd14 U0 2.882874 1_566
Pd14 U0 2.882874 1_556
Pd14 Pd9 2.905998 1_465
Pd14 Pd9 2.905998 1_455
Pd14 Pd9 2.905998 1_555
Pd14 Pd9 2.905998 1_565
Pd14 Pd4 2.917268 1_455
Pd14 Pd4 2.917268 1_555
Pd14 Y3 2.954366 1_565
Pd14 Y3 2.954366 1_555
