# generated using pymatgen
data_Fe3Pb(SO7)2
_symmetry_space_group_name_H-M   'P 1'
_cell_length_a   7.22306176
_cell_length_b   7.22306176
_cell_length_c   7.22306144
_cell_angle_alpha   57.58999448
_cell_angle_beta   57.58999448
_cell_angle_gamma   57.58999703
_symmetry_Int_Tables_number   1
_chemical_formula_structural   Fe3Pb(SO7)2
_chemical_formula_sum   'Fe3 Pb1 S2 O14'
_cell_volume   251.70714732
_cell_formula_units_Z   1
loop_
 _symmetry_equiv_pos_site_id
 _symmetry_equiv_pos_as_xyz
  1  'x, y, z'
loop_
 _atom_site_type_symbol
 _atom_site_label
 _atom_site_symmetry_multiplicity
 _atom_site_fract_x
 _atom_site_fract_y
 _atom_site_fract_z
 _atom_site_occupancy
  Fe  Fe0  1  0.00000000  0.00000000  0.50000000  1
  Fe  Fe1  1  0.50000000  0.00000000  0.00000000  1
  Fe  Fe2  1  0.00000000  0.50000000  0.00000000  1
  Pb  Pb0  1  0.00000000  0.00000000  0.00000000  1
  S  S0  1  0.68936900  0.68936900  0.68936900  1
  S  S1  1  0.31063100  0.31063100  0.31063100  1
  O  O0  1  0.60953500  0.60953500  0.60953500  1
  O  O1  1  0.39046500  0.39046500  0.39046500  1
  O  O2  1  0.83713300  0.48644100  0.83713300  1
  O  O3  1  0.83713300  0.83713300  0.48644100  1
  O  O4  1  0.48644100  0.83713300  0.83713300  1
  O  O5  1  0.16286700  0.51355900  0.16286700  1
  O  O6  1  0.16286700  0.16286700  0.51355900  1
  O  O7  1  0.51355900  0.16286700  0.16286700  1
  O  O8  1  0.74244400  0.10524900  0.74244400  1
  O  O9  1  0.74244400  0.74244400  0.10524900  1
  O  O10  1  0.10524900  0.74244400  0.74244400  1
  O  O11  1  0.25755600  0.89475100  0.25755600  1
  O  O12  1  0.25755600  0.25755600  0.89475100  1
  O  O13  1  0.89475100  0.25755600  0.25755600  1
loop_
_geom_bond_atom_site_label_1
_geom_bond_atom_site_label_2
_geom_bond_distance
_geom_bond_site_symmetry_2
Fe0 O8 1.877315 1_455
Fe0 O10 1.877315 1_545
Fe0 O13 1.877315 1_455
Fe0 O11 1.877315 1_545
Fe0 O6 2.123183 1_555
Fe0 O3 2.123183 1_445
Fe1 O11 1.877315 1_545
Fe1 O8 1.877315 1_554
Fe1 O9 1.877315 1_545
Fe1 O12 1.877315 1_554
Fe1 O7 2.123183 1_555
Fe1 O4 2.123183 1_544
Fe2 O13 1.877315 1_455
Fe2 O10 1.877315 1_554
Fe2 O9 1.877315 1_455
Fe2 O12 1.877315 1_554
Fe2 O5 2.123183 1_555
Fe2 O2 2.123183 1_454
O0 S0 1.437670 1_555
O1 S1 1.437670 1_555
O2 S0 1.514564 1_555
O2 Pb0 2.781204 1_656
O3 S0 1.514564 1_555
O3 Pb0 2.781204 1_665
O4 S0 1.514564 1_555
O4 Pb0 2.781204 1_566
O5 S1 1.514564 1_555
O5 Pb0 2.781204 1_565
O6 S1 1.514564 1_555
O6 Pb0 2.781204 1_556
O7 S1 1.514564 1_555
O7 Pb0 2.781204 1_655
O8 Pb0 2.859636 1_656
O9 Pb0 2.859636 1_665
O10 Pb0 2.859636 1_566
O11 Pb0 2.859636 1_565
O12 Pb0 2.859636 1_556
O13 Pb0 2.859636 1_655
