# generated using pymatgen
data_YbZrF7
_symmetry_space_group_name_H-M   'P 1'
_cell_length_a   6.07150600
_cell_length_b   6.05469829
_cell_length_c   8.16004840
_cell_angle_alpha   99.60963076
_cell_angle_beta   90.00000000
_cell_angle_gamma   90.00000000
_symmetry_Int_Tables_number   1
_chemical_formula_structural   YbZrF7
_chemical_formula_sum   'Yb2 Zr2 F14'
_cell_volume   295.76343781
_cell_formula_units_Z   2
loop_
 _symmetry_equiv_pos_site_id
 _symmetry_equiv_pos_as_xyz
  1  'x, y, z'
loop_
 _atom_site_type_symbol
 _atom_site_label
 _atom_site_symmetry_multiplicity
 _atom_site_fract_x
 _atom_site_fract_y
 _atom_site_fract_z
 _atom_site_occupancy
  Yb  Yb0  1  0.70294600  0.68174000  0.70172500  1
  Yb  Yb1  1  0.20294600  0.31826000  0.29827500  1
  Zr  Zr0  1  0.70461800  0.82694100  0.23549100  1
  Zr  Zr1  1  0.20461800  0.17305900  0.76450900  1
  F  F0  1  0.94733600  0.49602700  0.49915300  1
  F  F1  1  0.44733600  0.50397300  0.50084700  1
  F  F2  1  0.42828800  0.93165900  0.77405000  1
  F  F3  1  0.92828800  0.06834100  0.22595000  1
  F  F4  1  0.95310600  0.96016200  0.77473500  1
  F  F5  1  0.45310600  0.03983800  0.22526500  1
  F  F6  1  0.97544100  0.43495300  0.75107900  1
  F  F7  1  0.47544100  0.56504700  0.24892100  1
  F  F8  1  0.70482600  0.72266800  0.98724700  1
  F  F9  1  0.20482600  0.27733200  0.01275300  1
  F  F10  1  0.70220900  0.87740600  0.48540900  1
  F  F11  1  0.20220900  0.12259400  0.51459100  1
  F  F12  1  0.45759100  0.40857500  0.74987700  1
  F  F13  1  0.95759100  0.59142500  0.25012300  1
loop_
_geom_bond_atom_site_label_1
_geom_bond_atom_site_label_2
_geom_bond_distance
_geom_bond_site_symmetry_2
F0 Yb0 2.361759 1_555
F0 Yb1 2.380092 1_655
F1 Yb1 2.361759 1_555
F1 Yb0 2.380092 1_555
F2 Zr1 2.006126 1_565
F2 Yb0 2.262901 1_555
F3 Zr0 2.006126 1_545
F3 Yb1 2.262901 1_655
F4 Zr1 2.009071 1_665
F4 Yb0 2.273393 1_555
F5 Zr0 2.009071 1_545
F5 Yb1 2.273393 1_555
F6 Zr1 2.126163 1_655
F6 Yb0 2.309334 1_555
F7 Zr0 2.126163 1_555
F7 Yb1 2.309334 1_555
F8 Zr0 2.018663 1_556
F8 Yb0 2.301540 1_555
F9 Zr1 2.018663 1_554
F9 Yb1 2.301540 1_555
F10 Zr0 2.011083 1_555
F10 Yb0 2.284176 1_555
F11 Zr1 2.011083 1_555
F11 Yb1 2.284176 1_555
F12 Zr1 2.112720 1_555
F12 Yb0 2.307808 1_555
F13 Zr0 2.112720 1_555
F13 Yb1 2.307808 1_655
