# generated using pymatgen
data_Ca11(MnN5)2
_symmetry_space_group_name_H-M   'P 1'
_cell_length_a   6.21526986
_cell_length_b   6.21526986
_cell_length_c   12.29481510
_cell_angle_alpha   89.73472820
_cell_angle_beta   89.73472820
_cell_angle_gamma   117.60346290
_symmetry_Int_Tables_number   1
_chemical_formula_structural   Ca11(MnN5)2
_chemical_formula_sum   'Ca11 Mn2 N10'
_cell_volume   420.86655062
_cell_formula_units_Z   1
loop_
 _symmetry_equiv_pos_site_id
 _symmetry_equiv_pos_as_xyz
  1  'x, y, z'
loop_
 _atom_site_type_symbol
 _atom_site_label
 _atom_site_symmetry_multiplicity
 _atom_site_fract_x
 _atom_site_fract_y
 _atom_site_fract_z
 _atom_site_occupancy
  Ca  Ca0  1  0.44416100  0.00275300  0.88327400  1
  Ca  Ca1  1  0.97832400  0.59121100  0.12413200  1
  Ca  Ca2  1  0.99749400  0.38547100  0.61552800  1
  Ca  Ca3  1  0.41520200  0.41520200  0.37740300  1
  Ca  Ca4  1  0.00097500  0.61102100  0.38608100  1
  Ca  Ca5  1  0.39046500  0.39046500  0.08296200  1
  Ca  Ca6  1  0.59121100  0.97832400  0.12413200  1
  Ca  Ca7  1  0.38547100  0.99749400  0.61552800  1
  Ca  Ca8  1  0.58626400  0.58626400  0.63464400  1
  Ca  Ca9  1  0.00275300  0.44416100  0.88327400  1
  Ca  Ca10  1  0.61102100  0.00097500  0.38608100  1
  Mn  Mn0  1  0.98220500  0.98220500  0.75262300  1
  Mn  Mn1  1  0.01925000  0.01925000  0.25543000  1
  N  N0  1  0.00944200  0.72335700  0.73466100  1
  N  N1  1  0.24512500  0.24512500  0.72628200  1
  N  N2  1  0.00157300  0.28793100  0.26270000  1
  N  N3  1  0.33377600  0.66632200  0.50183800  1
  N  N4  1  0.67998300  0.30249800  0.00836100  1
  N  N5  1  0.66632200  0.33377600  0.50183800  1
  N  N6  1  0.30249800  0.67998200  0.00836100  1
  N  N7  1  0.73964500  0.73964500  0.25582100  1
  N  N8  1  0.28793100  0.00157300  0.26270000  1
  N  N9  1  0.72335700  0.00944200  0.73466100  1
loop_
_geom_bond_atom_site_label_1
_geom_bond_atom_site_label_2
_geom_bond_distance
_geom_bond_site_symmetry_2
Ca0 N6 2.342424 1_546
Ca0 N4 2.345463 1_556
Ca0 N9 2.500910 1_555
Ca0 N1 3.040941 1_555
Ca0 N0 3.062909 1_545
Ca1 N6 2.307807 1_655
Ca1 N4 2.376751 1_555
Ca1 N2 2.588710 1_655
Ca1 N7 2.633069 1_555
Ca1 N8 2.938181 1_665
Ca2 N5 2.389918 1_555
Ca2 N3 2.436943 1_655
Ca2 N1 2.497289 1_655
Ca2 N0 2.538918 1_655
Ca2 N9 2.601077 1_555
Ca3 N3 2.404098 1_555
Ca3 N5 2.404098 1_555
Ca3 N7 2.557934 1_555
Ca3 N8 2.717170 1_555
Ca3 N2 2.717170 1_555
Ca4 N3 2.407301 1_555
Ca4 N5 2.439164 1_455
Ca4 N2 2.523617 1_555
Ca4 N7 2.656621 1_455
Ca4 N8 2.702436 1_565
Ca5 N6 2.297648 1_555
Ca5 N4 2.297654 1_555
Ca6 N4 2.307806 1_565
Ca6 N6 2.376753 1_555
Ca6 N8 2.588710 1_565
Ca6 N7 2.633069 1_555
Ca6 N2 2.938181 1_665
Ca7 N3 2.389918 1_555
Ca7 N5 2.436943 1_565
Ca7 N1 2.497289 1_565
Ca7 N9 2.538918 1_565
Ca7 N0 2.601077 1_555
Ca8 N1 2.459721 1_555
Ca8 N3 2.473088 1_555
Ca8 N5 2.473088 1_555
Ca8 N0 2.668103 1_655
Ca8 N9 2.668103 1_565
Ca9 N4 2.342420 1_456
Ca9 N6 2.345461 1_556
Ca9 N0 2.500910 1_555
Ca9 N1 3.040941 1_555
Ca9 N9 3.062909 1_455
Ca10 N5 2.407301 1_555
Ca10 N3 2.439164 1_545
Ca10 N8 2.523617 1_555
Ca10 N7 2.656621 1_545
Ca10 N2 2.702436 1_655
Mn0 N9 1.709101 1_565
Mn0 N0 1.709101 1_655
Mn0 N1 1.720804 1_665
Mn1 N8 1.726274 1_555
Mn1 N2 1.726274 1_555
Mn1 N7 1.800350 1_445
