# generated using pymatgen
data_SmMg2Cu9
_symmetry_space_group_name_H-M   'P 1'
_cell_length_a   4.98268138
_cell_length_b   4.98268039
_cell_length_c   16.05414356
_cell_angle_alpha   89.99995419
_cell_angle_beta   90.00005422
_cell_angle_gamma   119.99352088
_symmetry_Int_Tables_number   1
_chemical_formula_structural   SmMg2Cu9
_chemical_formula_sum   'Sm2 Mg4 Cu18'
_cell_volume   345.20118016
_cell_formula_units_Z   2
loop_
 _symmetry_equiv_pos_site_id
 _symmetry_equiv_pos_as_xyz
  1  'x, y, z'
loop_
 _atom_site_type_symbol
 _atom_site_label
 _atom_site_symmetry_multiplicity
 _atom_site_fract_x
 _atom_site_fract_y
 _atom_site_fract_z
 _atom_site_occupancy
  Sm  Sm0  1  0.66666885  0.33333079  0.24999980  1
  Sm  Sm1  1  0.33333079  0.66666888  0.75000288  1
  Mg  Mg0  1  0.66667057  0.33332945  0.46796828  1
  Mg  Mg1  1  0.33332894  0.66667121  0.96805997  1
  Mg  Mg2  1  0.66667069  0.33332980  0.03199464  1
  Mg  Mg3  1  0.33332974  0.66667063  0.53197929  1
  Cu  Cu0  1  0.33332633  0.66667345  0.24984366  1
  Cu  Cu1  1  0.66667336  0.33332672  0.75015246  1
  Cu  Cu2  1  0.16766953  0.83233146  0.37680543  1
  Cu  Cu3  1  0.16766871  0.33533516  0.37680377  1
  Cu  Cu4  1  -0.00000989  0.00000921  0.75016965  1
  Cu  Cu5  1  0.00000966  0.99998972  0.24982779  1
  Cu  Cu6  1  0.00000033  -0.00000010  0.00004295  1
  Cu  Cu7  1  -0.00000001  0.00000005  0.49995721  1
  Cu  Cu8  1  0.16768553  0.33536481  0.12303433  1
  Cu  Cu9  1  0.83231983  0.16768103  0.62311759  1
  Cu  Cu10  1  0.33535809  0.16768083  0.62311932  1
  Cu  Cu11  1  0.66463492  0.83231512  0.12303404  1
  Cu  Cu12  1  0.16768422  0.83231507  0.12303260  1
  Cu  Cu13  1  0.83229965  0.66460360  0.87704330  1
  Cu  Cu14  1  0.83229927  0.16769983  0.87704510  1
  Cu  Cu15  1  0.83231820  0.66464139  0.62311899  1
  Cu  Cu16  1  0.33539662  0.16770116  0.87704346  1
  Cu  Cu17  1  0.66466508  0.83233074  0.37680346  1
loop_
_geom_bond_atom_site_label_1
_geom_bond_atom_site_label_2
_geom_bond_distance
_geom_bond_site_symmetry_2
Mg0 Mg3 3.054766 1_555
Mg0 Mg3 3.054936 1_545
Mg0 Mg3 3.054938 1_655
Mg0 Sm0 3.499297 1_555
Mg1 Mg2 3.054357 1_556
Mg1 Mg2 3.054523 1_456
Mg1 Mg2 3.054524 1_566
Mg1 Sm1 3.500720 1_555
Mg2 Sm0 3.499886 1_555
Mg3 Sm1 3.500182 1_555
Cu0 Cu12 2.487585 1_555
Cu0 Cu8 2.487706 1_555
Cu0 Cu11 2.487710 1_555
Cu0 Cu2 2.489645 1_555
Cu0 Cu17 2.489757 1_555
Cu0 Cu3 2.489760 1_555
Cu0 Cu5 2.876513 1_555
Cu0 Sm0 2.876739 1_555
Cu0 Sm0 2.876901 1_565
Cu0 Sm0 2.876902 1_455
Cu0 Cu5 2.877012 1_655
Cu0 Cu5 2.877013 1_545
Cu1 Cu14 2.488580 1_555
Cu1 Cu13 2.488698 1_555
Cu1 Cu16 2.488700 1_555
Cu1 Cu9 2.490550 1_555
Cu1 Cu10 2.490663 1_555
Cu1 Cu15 2.490666 1_555
Cu1 Cu4 2.876518 1_655
Cu1 Sm1 2.876737 1_555
Cu1 Sm1 2.876901 1_655
Cu1 Sm1 2.876903 1_545
Cu1 Cu4 2.877008 1_665
Cu1 Cu4 2.877012 1_555
Cu2 Cu7 2.450034 1_565
Cu2 Cu3 2.476372 1_555
Cu2 Cu5 2.499809 1_555
Cu2 Cu3 2.506309 1_565
Cu2 Mg3 2.872260 1_555
Cu2 Mg0 2.889638 1_565
Cu2 Mg0 2.889643 1_455
Cu2 Sm0 3.217507 1_565
Cu2 Sm0 3.217512 1_455
Cu3 Cu7 2.450130 1_555
Cu3 Cu5 2.499940 1_545
Cu3 Mg3 2.872385 1_555
Cu3 Mg0 2.889426 1_455
Cu3 Mg0 2.889462 1_555
Cu3 Sm0 3.217295 1_455
Cu3 Sm0 3.217314 1_555
Cu4 Cu9 2.500844 1_455
Cu4 Sm1 2.876721 1_545
Cu4 Sm1 2.876910 1_445
Cu4 Sm1 2.876911 1_555
Cu5 Cu8 2.497624 1_565
Cu5 Sm0 2.876725 1_465
Cu5 Sm0 2.876908 1_455
Cu5 Sm0 2.876909 1_565
Cu6 Cu8 2.448108 1_555
Cu6 Mg2 2.922005 1_455
Cu6 Mg1 2.922084 1_544
Cu6 Mg2 2.922326 1_445
Cu6 Mg2 2.922328 1_555
Cu6 Mg1 2.922420 1_554
Cu6 Mg1 2.922420 1_444
Cu7 Cu9 2.450204 1_455
Cu7 Mg0 2.922106 1_455
Cu7 Mg3 2.922201 1_545
Cu7 Mg0 2.922434 1_445
Cu7 Mg0 2.922434 1_555
Cu7 Mg3 2.922527 1_445
Cu7 Mg3 2.922527 1_555
Cu8 Mg1 2.869521 1_554
Cu8 Mg2 2.888418 1_455
Cu8 Mg2 2.888441 1_555
Cu8 Sm0 3.218945 1_555
Cu8 Sm0 3.218947 1_455
Cu9 Mg0 2.871868 1_555
Cu9 Mg3 2.889440 1_655
Cu9 Mg3 2.889442 1_545
Cu9 Sm1 3.218317 1_655
Cu9 Sm1 3.218322 1_545
Cu10 Cu7 2.450301 1_555
Cu10 Cu9 2.476202 1_555
Cu10 Cu15 2.476437 1_555
Cu10 Cu4 2.500970 1_555
Cu10 Cu9 2.506480 1_455
Cu10 Cu15 2.506732 1_445
Cu10 Mg0 2.871995 1_555
Cu10 Mg3 2.889229 1_545
Cu10 Mg3 2.889260 1_555
Cu10 Sm1 3.218106 1_545
Cu10 Sm1 3.218120 1_555
Cu11 Cu6 2.448106 1_665
Cu11 Cu12 2.476147 1_555
Cu11 Cu8 2.476385 1_555
Cu11 Cu5 2.497627 1_655
Cu11 Cu12 2.506535 1_655
Cu11 Cu8 2.506784 1_665
Cu11 Mg1 2.869516 1_554
Cu11 Mg2 2.888413 1_565
Cu11 Mg2 2.888441 1_555
Cu11 Sm0 3.218945 1_565
Cu11 Sm0 3.218951 1_555
Cu12 Cu6 2.448010 1_565
Cu12 Cu8 2.476148 1_555
Cu12 Cu5 2.497502 1_555
Cu12 Cu8 2.506533 1_565
Cu12 Mg1 2.869391 1_554
Cu12 Mg2 2.888623 1_455
Cu12 Mg2 2.888628 1_565
Cu12 Sm0 3.219151 1_455
Cu12 Sm0 3.219152 1_565
Cu13 Cu6 2.448295 1_666
Cu13 Cu14 2.475912 1_555
Cu13 Cu16 2.476150 1_555
Cu13 Cu4 2.498750 1_665
Cu13 Cu14 2.506769 1_565
Cu13 Cu16 2.507019 1_665
Cu13 Mg2 2.869131 1_556
Cu13 Mg1 2.888223 1_655
Cu13 Mg1 2.888263 1_555
Cu13 Sm1 3.219705 1_655
Cu13 Sm1 3.219712 1_555
Cu14 Cu6 2.448198 1_656
Cu14 Cu16 2.475911 1_555
Cu14 Cu4 2.498632 1_655
Cu14 Cu16 2.506770 1_655
Cu14 Mg2 2.869005 1_556
Cu14 Mg1 2.888436 1_545
Cu14 Mg1 2.888441 1_655
Cu14 Sm1 3.219914 1_545
Cu14 Sm1 3.219916 1_655
Cu15 Cu7 2.450298 1_665
Cu15 Cu9 2.476199 1_555
Cu15 Cu4 2.500973 1_665
Cu15 Cu9 2.506482 1_565
Cu15 Mg0 2.871989 1_555
Cu15 Mg3 2.889231 1_655
Cu15 Mg3 2.889253 1_555
Cu15 Sm1 3.218111 1_655
Cu15 Sm1 3.218122 1_555
Cu16 Cu6 2.448293 1_556
Cu16 Cu4 2.498754 1_555
Cu16 Mg2 2.869129 1_556
Cu16 Mg1 2.888224 1_545
Cu16 Mg1 2.888258 1_555
Cu16 Sm1 3.219709 1_545
Cu16 Sm1 3.219710 1_555
Cu17 Cu7 2.450133 1_665
Cu17 Cu2 2.476372 1_555
Cu17 Cu3 2.476615 1_555
Cu17 Cu5 2.499934 1_655
Cu17 Cu2 2.506309 1_655
Cu17 Cu3 2.506554 1_665
Cu17 Mg3 2.872390 1_555
Cu17 Mg0 2.889430 1_565
Cu17 Mg0 2.889461 1_555
Cu17 Sm0 3.217293 1_565
Cu17 Sm0 3.217308 1_555
