# generated using pymatgen
data_Mg6AlBO8
_symmetry_space_group_name_H-M   'P 1'
_cell_length_a   8.77805052
_cell_length_b   4.18109596
_cell_length_c   4.18109596
_cell_angle_alpha   90.00000000
_cell_angle_beta   90.00000000
_cell_angle_gamma   90.00000000
_symmetry_Int_Tables_number   1
_chemical_formula_structural   Mg6AlBO8
_chemical_formula_sum   'Mg6 Al1 B1 O8'
_cell_volume   153.45404693
_cell_formula_units_Z   1
loop_
 _symmetry_equiv_pos_site_id
 _symmetry_equiv_pos_as_xyz
  1  'x, y, z'
loop_
 _atom_site_type_symbol
 _atom_site_label
 _atom_site_symmetry_multiplicity
 _atom_site_fract_x
 _atom_site_fract_y
 _atom_site_fract_z
 _atom_site_occupancy
  Mg  Mg0  1  0.00000000  0.50000000  0.50000000  1
  Mg  Mg1  1  0.50000000  0.50000000  0.50000000  1
  Mg  Mg2  1  0.25843150  0.00000000  0.50000000  1
  Mg  Mg3  1  0.74156850  -0.00000000  0.50000000  1
  Mg  Mg4  1  0.25843150  0.50000000  0.00000000  1
  Mg  Mg5  1  0.74156850  0.50000000  -0.00000000  1
  Al  Al0  1  0.00000000  0.00000000  0.00000000  1
  B  B0  1  0.50000000  0.00000000  0.00000000  1
  O  O0  1  0.20684820  0.00000000  0.00000000  1
  O  O1  1  0.79315180  -0.00000000  -0.00000000  1
  O  O2  1  0.25053998  0.50000000  0.50000000  1
  O  O3  1  0.74946002  0.50000000  0.50000000  1
  O  O4  1  0.00000000  0.00000000  0.50000000  1
  O  O5  1  0.50000000  0.00000000  0.50000000  1
  O  O6  1  0.00000000  0.50000000  0.00000000  1
  O  O7  1  0.50000000  0.50000000  0.00000000  1
loop_
_geom_bond_atom_site_label_1
_geom_bond_atom_site_label_2
_geom_bond_distance
_geom_bond_site_symmetry_2
Mg0 O4 2.090548 1_565
Mg0 O6 2.090548 1_556
Mg0 O6 2.090548 1_555
Mg0 O4 2.090548 1_555
Mg0 O3 2.199253 1_455
Mg0 O2 2.199253 1_555
Mg1 O5 2.090548 1_555
Mg1 O5 2.090548 1_565
Mg1 O7 2.090548 1_555
Mg1 O7 2.090548 1_556
Mg1 O2 2.189773 1_555
Mg1 O3 2.189773 1_555
Mg2 O2 2.091695 1_555
Mg2 O2 2.091695 1_545
Mg2 O5 2.120500 1_555
Mg2 O0 2.139023 1_556
Mg2 O0 2.139023 1_555
Mg2 O4 2.268525 1_555
Mg3 O3 2.091695 1_555
Mg3 O3 2.091695 1_545
Mg3 O5 2.120500 1_555
Mg3 O1 2.139023 1_555
Mg3 O1 2.139023 1_556
Mg3 O4 2.268525 1_655
Mg4 O2 2.091695 1_555
Mg4 O2 2.091695 1_554
Mg4 O7 2.120500 1_555
Mg4 O0 2.139023 1_565
Mg4 O0 2.139023 1_555
Mg4 O6 2.268525 1_555
Mg5 O3 2.091695 1_555
Mg5 O3 2.091695 1_554
Mg5 O7 2.120500 1_555
Mg5 O1 2.139023 1_555
Mg5 O1 2.139023 1_565
Mg5 O6 2.268525 1_655
Al0 O0 1.815724 1_555
Al0 O1 1.815724 1_455
Al0 O6 2.090548 1_545
Al0 O6 2.090548 1_555
Al0 O4 2.090548 1_555
Al0 O4 2.090548 1_554
B0 O7 2.090548 1_555
B0 O5 2.090548 1_554
B0 O5 2.090548 1_555
B0 O7 2.090548 1_545
