# generated using pymatgen
data_In2GaN3
_symmetry_space_group_name_H-M   'P 1'
_cell_length_a   6.26356793
_cell_length_b   11.21946778
_cell_length_c   11.07518918
_cell_angle_alpha   89.99999849
_cell_angle_beta   89.99803581
_cell_angle_gamma   153.58730040
_symmetry_Int_Tables_number   1
_chemical_formula_structural   In2GaN3
_chemical_formula_sum   'In8 Ga4 N12'
_cell_volume   346.21261139
_cell_formula_units_Z   4
loop_
 _symmetry_equiv_pos_site_id
 _symmetry_equiv_pos_as_xyz
  1  'x, y, z'
loop_
 _atom_site_type_symbol
 _atom_site_label
 _atom_site_symmetry_multiplicity
 _atom_site_fract_x
 _atom_site_fract_y
 _atom_site_fract_z
 _atom_site_occupancy
  In  In0  1  0.49041100  0.07576700  0.88800700  1
  In  In1  1  0.50958900  0.58535600  0.61199300  1
  In  In2  1  0.50958900  0.92423300  0.11199300  1
  In  In3  1  0.49041100  0.41464400  0.38800700  1
  In  In4  1  0.49048000  0.91450900  0.61192100  1
  In  In5  1  0.50952000  0.42403000  0.88807900  1
  In  In6  1  0.50952000  0.08549100  0.38807900  1
  In  In7  1  0.49048000  0.57597000  0.11192100  1
  Ga  Ga0  1  0.50002000  0.24994500  0.65180600  1
  Ga  Ga1  1  0.49998000  0.74992400  0.84819400  1
  Ga  Ga2  1  0.49998000  0.75005500  0.34819400  1
  Ga  Ga3  1  0.50002000  0.25007600  0.15180600  1
  N  N0  1  0.00000000  0.58196900  0.75000000  1
  N  N1  1  0.00000000  0.41803100  0.25000000  1
  N  N2  1  0.75271100  0.23666700  0.57556200  1
  N  N3  1  0.24728900  0.48395600  0.92443800  1
  N  N4  1  0.24728900  0.76333300  0.42443800  1
  N  N5  1  0.75271100  0.51604400  0.07556200  1
  N  N6  1  0.24741600  0.98418400  0.07548900  1
  N  N7  1  0.75258400  0.73676700  0.42451100  1
  N  N8  1  0.75258400  0.01581600  0.92451100  1
  N  N9  1  0.24741600  0.26323300  0.57548900  1
  N  N10  1  0.00000000  0.91789000  0.75000000  1
  N  N11  1  0.00000000  0.08211000  0.25000000  1
loop_
_geom_bond_atom_site_label_1
_geom_bond_atom_site_label_2
_geom_bond_distance
_geom_bond_site_symmetry_2
In0 N3 2.172919 1_655
In0 N6 2.209581 1_546
In0 N10 2.272339 1_545
In0 N8 2.300217 1_555
In1 N2 2.172919 1_455
In1 N7 2.209579 1_555
In1 N10 2.272339 1_655
In1 N9 2.300206 1_555
In2 N5 2.172919 1_455
In2 N8 2.209581 1_564
In2 N11 2.272339 1_665
In2 N6 2.300217 1_555
In3 N4 2.172919 1_655
In3 N9 2.209579 1_555
In3 N11 2.272339 1_555
In3 N7 2.300206 1_555
In4 N9 2.173007 1_665
In4 N4 2.209291 1_555
In4 N0 2.272711 1_555
In4 N2 2.300019 1_565
In5 N8 2.173011 1_455
In5 N5 2.209292 1_556
In5 N0 2.272716 1_655
In5 N3 2.300008 1_555
In6 N7 2.173007 1_445
In6 N2 2.209291 1_555
In6 N1 2.272711 1_655
In6 N4 2.300019 1_545
In7 N6 2.173011 1_655
In7 N3 2.209292 1_554
In7 N1 2.272716 1_555
In7 N5 2.300008 1_555
Ga0 N2 1.913785 1_555
Ga0 N9 1.913793 1_555
Ga0 N0 1.992651 1_655
Ga0 N10 1.992669 1_545
Ga1 N3 1.913776 1_555
Ga1 N8 1.913793 1_565
Ga1 N0 1.992656 1_555
Ga1 N10 1.992664 1_655
Ga2 N4 1.913785 1_555
Ga2 N7 1.913793 1_555
Ga2 N1 1.992651 1_555
Ga2 N11 1.992669 1_665
Ga3 N5 1.913776 1_555
Ga3 N6 1.913793 1_545
Ga3 N1 1.992656 1_655
Ga3 N11 1.992664 1_555
