# generated using pymatgen
data_MgBiSbO5
_symmetry_space_group_name_H-M   'P 1'
_cell_length_a   5.46289459
_cell_length_b   8.01594800
_cell_length_c   12.05445900
_cell_angle_alpha   90.00000000
_cell_angle_beta   90.00000000
_cell_angle_gamma   107.05774551
_symmetry_Int_Tables_number   1
_chemical_formula_structural   MgBiSbO5
_chemical_formula_sum   'Mg4 Bi4 Sb4 O20'
_cell_volume   504.64699456
_cell_formula_units_Z   4
loop_
 _symmetry_equiv_pos_site_id
 _symmetry_equiv_pos_as_xyz
  1  'x, y, z'
loop_
 _atom_site_type_symbol
 _atom_site_label
 _atom_site_symmetry_multiplicity
 _atom_site_fract_x
 _atom_site_fract_y
 _atom_site_fract_z
 _atom_site_occupancy
  Mg  Mg0  1  0.62170700  0.17351200  0.92077000  1
  Mg  Mg1  1  0.37829300  0.82648800  0.07923000  1
  Mg  Mg2  1  0.87829300  0.32648800  0.42077000  1
  Mg  Mg3  1  0.12170700  0.67351200  0.57923000  1
  Bi  Bi0  1  0.10714600  0.16317100  0.09691300  1
  Bi  Bi1  1  0.89285400  0.83682900  0.90308700  1
  Bi  Bi2  1  0.60714600  0.66317100  0.40308700  1
  Bi  Bi3  1  0.39285400  0.33682900  0.59691300  1
  Sb  Sb0  1  0.78737000  0.96764700  0.64368900  1
  Sb  Sb1  1  0.21263000  0.03235300  0.35631100  1
  Sb  Sb2  1  0.71263000  0.53235300  0.14368900  1
  Sb  Sb3  1  0.28737000  0.46764700  0.85631100  1
  O  O0  1  0.55466800  0.32159900  0.06457200  1
  O  O1  1  0.01294900  0.31952200  0.94010200  1
  O  O2  1  0.47354300  0.65295400  0.18262100  1
  O  O3  1  0.75754500  0.51462200  0.52374100  1
  O  O4  1  0.79640200  0.48224600  0.29254000  1
  O  O5  1  0.29640200  0.98224600  0.20746000  1
  O  O6  1  0.51294900  0.81952200  0.55989800  1
  O  O7  1  0.48705100  0.18047800  0.44010200  1
  O  O8  1  0.24245500  0.48537800  0.47625900  1
  O  O9  1  0.94533200  0.17840100  0.56457200  1
  O  O10  1  0.20359800  0.51775400  0.70746000  1
  O  O11  1  0.44533200  0.67840100  0.93542800  1
  O  O12  1  0.05466800  0.82159900  0.43542800  1
  O  O13  1  0.70359800  0.01775400  0.79254000  1
  O  O14  1  0.74245500  0.98537800  0.02374100  1
  O  O15  1  0.25754500  0.01462200  0.97625900  1
  O  O16  1  0.52645700  0.34704600  0.81737900  1
  O  O17  1  0.98705100  0.68047800  0.05989800  1
  O  O18  1  0.02645700  0.84704600  0.68262100  1
  O  O19  1  0.97354300  0.15295400  0.31737900  1
loop_
_geom_bond_atom_site_label_1
_geom_bond_atom_site_label_2
_geom_bond_distance
_geom_bond_site_symmetry_2
Mg0 O16 2.045411 1_555
Mg0 O13 2.115659 1_555
Mg0 O1 2.127134 1_655
Mg0 O15 2.130901 1_555
Mg0 O0 2.191607 1_556
Mg0 O14 2.198575 1_546
Mg1 O2 2.045411 1_555
Mg1 O5 2.115659 1_555
Mg1 O17 2.127134 1_455
Mg1 O14 2.130901 1_555
Mg1 O11 2.191607 1_554
Mg1 O15 2.198575 1_564
Mg2 O19 2.045411 1_555
Mg2 O4 2.115659 1_555
Mg2 O7 2.127134 1_555
Mg2 O8 2.130901 1_655
Mg2 O9 2.191607 1_555
Mg2 O3 2.198575 1_555
Mg3 O18 2.045411 1_555
Mg3 O10 2.115659 1_555
Mg3 O6 2.127134 1_555
Mg3 O3 2.130901 1_455
Mg3 O12 2.191607 1_555
Mg3 O8 2.198575 1_555
Bi0 O15 2.186838 1_554
Bi0 O14 2.261089 1_445
Bi0 O1 2.405630 1_554
Bi0 O5 2.414063 1_545
Bi0 O0 2.433143 1_555
Bi0 O19 2.750848 1_455
Bi1 O14 2.186838 1_556
Bi1 O15 2.261089 1_665
Bi1 O17 2.405630 1_556
Bi1 O13 2.414063 1_565
Bi1 O11 2.433143 1_555
Bi1 O18 2.750848 1_655
Bi2 O3 2.186838 1_555
Bi2 O8 2.261089 1_555
Bi2 O6 2.405630 1_555
Bi2 O4 2.414063 1_555
Bi2 O12 2.433143 1_655
Bi2 O2 2.750848 1_555
Bi3 O8 2.186838 1_555
Bi3 O3 2.261089 1_555
Bi3 O7 2.405630 1_555
Bi3 O10 2.414063 1_555
Bi3 O9 2.433143 1_455
Bi3 O16 2.750848 1_555
O0 Sb2 1.911282 1_555
O1 Sb3 1.906085 1_555
O2 Sb2 1.897760 1_555
O4 Sb2 1.923064 1_555
O5 Sb1 1.923064 1_565
O6 Sb0 1.906085 1_555
O7 Sb1 1.906085 1_555
O9 Sb0 1.911282 1_545
O10 Sb3 1.923064 1_555
O11 Sb3 1.911282 1_555
O12 Sb1 1.911282 1_565
O13 Sb0 1.923064 1_545
O16 Sb3 1.897760 1_555
O17 Sb2 1.906085 1_555
O18 Sb0 1.897760 1_455
O19 Sb1 1.897760 1_655
