# generated using pymatgen
data_Hf4CN3
_symmetry_space_group_name_H-M   'P 1'
_cell_length_a   10.65551296
_cell_length_b   10.65551296
_cell_length_c   10.65551315
_cell_angle_alpha   17.34788717
_cell_angle_beta   17.34788717
_cell_angle_gamma   17.34787705
_symmetry_Int_Tables_number   1
_chemical_formula_structural   Hf4CN3
_chemical_formula_sum   'Hf4 C1 N3'
_cell_volume   93.86293741
_cell_formula_units_Z   1
loop_
 _symmetry_equiv_pos_site_id
 _symmetry_equiv_pos_as_xyz
  1  'x, y, z'
loop_
 _atom_site_type_symbol
 _atom_site_label
 _atom_site_symmetry_multiplicity
 _atom_site_fract_x
 _atom_site_fract_y
 _atom_site_fract_z
 _atom_site_occupancy
  Hf  Hf0  1  0.87421423  0.87421423  0.87421423  1
  Hf  Hf1  1  0.12578577  0.12578577  0.12578577  1
  Hf  Hf2  1  0.37432068  0.37432068  0.37432068  1
  Hf  Hf3  1  0.62567932  0.62567932  0.62567932  1
  C  C0  1  -0.00000000  -0.00000000  0.00000000  1
  N  N0  1  0.24844388  0.24844388  0.24844388  1
  N  N1  1  0.50000000  0.50000000  0.50000000  1
  N  N2  1  0.75155612  0.75155612  0.75155612  1
loop_
_geom_bond_atom_site_label_1
_geom_bond_atom_site_label_2
_geom_bond_distance
_geom_bond_site_symmetry_2
Hf0 N1 2.258126 1_565
Hf0 N1 2.258126 1_655
Hf0 N1 2.258127 1_556
Hf0 N0 2.258402 1_656
Hf0 N0 2.258402 1_566
Hf0 N0 2.258403 1_665
Hf1 N1 2.258126 1_545
Hf1 N1 2.258126 1_455
Hf1 N1 2.258127 1_554
Hf1 N2 2.258402 1_454
Hf1 N2 2.258402 1_544
Hf1 N2 2.258403 1_445
Hf2 N2 2.313642 1_455
Hf2 N2 2.313642 1_545
Hf2 N2 2.313643 1_554
Hf3 N0 2.313642 1_565
Hf3 N0 2.313642 1_655
Hf3 N0 2.313643 1_556
C0 Hf3 2.260037 1_544
C0 Hf3 2.260037 1_454
C0 Hf2 2.260037 1_545
C0 Hf2 2.260037 1_455
C0 Hf3 2.260038 1_445
C0 Hf2 2.260038 1_554
