# generated using pymatgen
data_Ti4Pb2O9F2
_symmetry_space_group_name_H-M   'P 1'
_cell_length_a   7.75378275
_cell_length_b   7.75378275
_cell_length_c   10.49604003
_cell_angle_alpha   48.14317467
_cell_angle_beta   48.14317467
_cell_angle_gamma   28.69995801
_symmetry_Int_Tables_number   1
_chemical_formula_structural   Ti4Pb2O9F2
_chemical_formula_sum   'Ti4 Pb2 O9 F2'
_cell_volume   219.69831051
_cell_formula_units_Z   1
loop_
 _symmetry_equiv_pos_site_id
 _symmetry_equiv_pos_as_xyz
  1  'x, y, z'
loop_
 _atom_site_type_symbol
 _atom_site_label
 _atom_site_symmetry_multiplicity
 _atom_site_fract_x
 _atom_site_fract_y
 _atom_site_fract_z
 _atom_site_occupancy
  Ti  Ti0  1  0.65803900  0.65803900  0.77319000  1
  Ti  Ti1  1  0.34196100  0.34196100  0.22681000  1
  Ti  Ti2  1  0.62141500  0.62141500  0.45304500  1
  Ti  Ti3  1  0.37858500  0.37858500  0.54695500  1
  Pb  Pb0  1  0.08469800  0.08469800  0.16371600  1
  Pb  Pb1  1  0.91530200  0.91530200  0.83628400  1
  O  O0  1  0.19813000  0.19813000  0.75485000  1
  O  O1  1  0.80187000  0.80187000  0.24515000  1
  O  O2  1  0.85170300  0.85170300  0.56797800  1
  O  O3  1  0.14829700  0.14829700  0.43202200  1
  O  O4  1  0.50000000  0.50000000  0.00000000  1
  O  O5  1  0.43724400  0.43724400  0.66162300  1
  O  O6  1  0.56275600  0.56275600  0.33837700  1
  O  O7  1  0.61546500  0.61546500  0.65207900  1
  O  O8  1  0.38453500  0.38453500  0.34792100  1
  F  F0  1  0.71231700  0.71231700  0.93818600  1
  F  F1  1  0.28768300  0.28768300  0.06181400  1
loop_
_geom_bond_atom_site_label_1
_geom_bond_atom_site_label_2
_geom_bond_distance
_geom_bond_site_symmetry_2
O0 Ti0 1.983222 1_455
O0 Ti0 1.983222 1_545
O0 Ti3 1.990566 1_555
O1 Ti1 1.983222 1_565
O1 Ti1 1.983222 1_655
O1 Ti2 1.990566 1_555
O2 Ti3 1.944758 1_655
O2 Ti3 1.944758 1_565
O2 Ti0 2.114716 1_555
O3 Ti2 1.944758 1_545
O3 Ti2 1.944758 1_455
O3 Ti1 2.114716 1_555
O4 Ti0 1.875769 1_554
O4 Ti1 1.875769 1_555
O5 Ti3 1.919974 1_555
O5 Ti2 2.025928 1_555
O5 Pb1 2.515956 1_545
O5 Pb1 2.515956 1_455
O6 Ti2 1.919974 1_555
O6 Ti3 2.025928 1_555
O6 Pb0 2.515956 1_565
O6 Pb0 2.515956 1_655
O7 Ti0 1.773431 1_555
O7 Ti2 2.028535 1_555
O8 Ti1 1.773431 1_555
O8 Ti3 2.028535 1_555
F0 Ti0 2.368433 1_555
F0 Pb1 2.439438 1_555
F0 Pb0 2.592413 1_566
F0 Pb0 2.592413 1_656
F1 Ti1 2.368433 1_555
F1 Pb0 2.439438 1_555
F1 Pb1 2.592413 1_454
F1 Pb1 2.592413 1_544
