# generated using pymatgen
data_BaCaLaBiO6
_symmetry_space_group_name_H-M   'P 1'
_cell_length_a   8.70588016
_cell_length_b   8.68178037
_cell_length_c   8.75466022
_cell_angle_alpha   90.00000000
_cell_angle_beta   90.00000000
_cell_angle_gamma   90.00000000
_symmetry_Int_Tables_number   1
_chemical_formula_structural   BaCaLaBiO6
_chemical_formula_sum   'Ba4 Ca4 La4 Bi4 O24'
_cell_volume   661.69945168
_cell_formula_units_Z   4
loop_
 _symmetry_equiv_pos_site_id
 _symmetry_equiv_pos_as_xyz
  1  'x, y, z'
loop_
 _atom_site_type_symbol
 _atom_site_label
 _atom_site_symmetry_multiplicity
 _atom_site_fract_x
 _atom_site_fract_y
 _atom_site_fract_z
 _atom_site_occupancy
  Ba  Ba0  1  0.00000000  0.00000000  0.00000000  1
  Ba  Ba1  1  0.50000000  0.50000000  0.50000000  1
  Ba  Ba2  1  0.00000000  0.50000000  0.50000000  1
  Ba  Ba3  1  0.00000000  -0.00000000  0.50000000  1
  Ca  Ca0  1  0.50000000  0.00000000  0.50000000  1
  Ca  Ca1  1  0.50000000  0.50000000  -0.00000000  1
  Ca  Ca2  1  0.50000000  -0.00000000  -0.00000000  1
  Ca  Ca3  1  0.00000000  0.50000000  -0.00000000  1
  La  La0  1  0.25426718  0.24959338  0.24600905  1
  La  La1  1  0.74573282  0.75040662  0.24600905  1
  La  La2  1  0.74573282  0.24959338  0.75399095  1
  La  La3  1  0.25426718  0.75040662  0.75399095  1
  Bi  Bi0  1  0.74476349  0.74758417  0.75745712  1
  Bi  Bi1  1  0.25523651  0.25241583  0.75745712  1
  Bi  Bi2  1  0.25523651  0.74758417  0.24254288  1
  Bi  Bi3  1  0.74476349  0.25241583  0.24254288  1
  O  O0  1  0.98502931  0.21117394  0.28136023  1
  O  O1  1  0.01497069  0.78882606  0.28136023  1
  O  O2  1  0.01497069  0.21117394  0.71863977  1
  O  O3  1  0.98502931  0.78882606  0.71863977  1
  O  O4  1  0.29985297  0.98524165  0.18710325  1
  O  O5  1  0.29985297  0.01475835  0.81289675  1
  O  O6  1  0.70014703  0.01475835  0.18710325  1
  O  O7  1  0.70014703  0.98524165  0.81289675  1
  O  O8  1  0.19205810  0.30167047  0.98894765  1
  O  O9  1  0.80794190  0.30167047  0.01105235  1
  O  O10  1  0.19205810  0.69832953  0.01105235  1
  O  O11  1  0.80794190  0.69832953  0.98894765  1
  O  O12  1  0.51112556  0.30460282  0.19075553  1
  O  O13  1  0.48887444  0.69539718  0.19075553  1
  O  O14  1  0.48887444  0.30460282  0.80924447  1
  O  O15  1  0.51112556  0.69539718  0.80924447  1
  O  O16  1  0.22619013  0.51154541  0.29740931  1
  O  O17  1  0.22619013  0.48845459  0.70259069  1
  O  O18  1  0.77380987  0.48845459  0.29740931  1
  O  O19  1  0.77380987  0.51154541  0.70259069  1
  O  O20  1  0.30741770  0.19997885  0.51857177  1
  O  O21  1  0.69258230  0.19997885  0.48142823  1
  O  O22  1  0.30741770  0.80002115  0.48142823  1
  O  O23  1  0.69258230  0.80002115  0.51857177  1
loop_
_geom_bond_atom_site_label_1
_geom_bond_atom_site_label_2
_geom_bond_distance
_geom_bond_site_symmetry_2
Ba0 O1 3.073375 1_545
Ba0 O0 3.073375 1_455
Ba0 O2 3.073375 1_554
Ba0 O3 3.073375 1_444
Ba0 O4 3.084505 1_545
Ba0 O5 3.084505 1_554
Ba0 O7 3.084505 1_444
Ba0 O6 3.084505 1_455
Ba0 O9 3.108764 1_455
Ba0 O11 3.108764 1_444
Ba0 O10 3.108764 1_545
Ba0 O8 3.108764 1_554
Ba1 O19 2.972884 1_555
Ba1 O17 2.972884 1_555
Ba1 O18 2.972884 1_555
Ba1 O16 2.972884 1_555
Ba1 O22 3.101930 1_555
Ba1 O20 3.101930 1_555
Ba1 O23 3.101930 1_555
Ba1 O21 3.101930 1_555
Ba1 O15 3.196369 1_555
Ba1 O14 3.196369 1_555
Ba1 O13 3.196369 1_555
Ba1 O12 3.196369 1_555
Ba2 O19 2.652062 1_455
Ba2 O17 2.652062 1_555
Ba2 O18 2.652062 1_455
Ba2 O16 2.652062 1_555
Ba2 O3 3.157295 1_455
Ba2 O0 3.157295 1_455
Ba2 O2 3.157295 1_555
Ba2 O1 3.157295 1_555
Ba3 O1 2.653688 1_545
Ba3 O0 2.653688 1_455
Ba3 O2 2.653688 1_555
Ba3 O3 2.653688 1_445
Ba3 O20 3.194297 1_555
Ba3 O21 3.194297 1_455
Ba3 O22 3.194297 1_545
Ba3 O23 3.194297 1_445
Ca0 O23 2.419031 1_545
Ca0 O22 2.419031 1_545
Ca0 O21 2.419031 1_555
Ca0 O20 2.419031 1_555
Ca1 O12 2.382444 1_555
Ca1 O14 2.382444 1_554
Ca1 O13 2.382444 1_555
Ca1 O15 2.382444 1_554
Ca2 O4 2.394932 1_545
Ca2 O7 2.394932 1_544
Ca2 O6 2.394932 1_555
Ca2 O5 2.394932 1_554
Ca3 O8 2.402050 1_554
Ca3 O9 2.402050 1_455
Ca3 O11 2.402050 1_454
Ca3 O10 2.402050 1_555
La0 O16 2.331153 1_555
La0 O12 2.337213 1_555
La0 O8 2.358477 1_554
La0 O4 2.385513 1_545
La0 O0 2.387708 1_455
La0 O20 2.468516 1_555
La1 O18 2.331153 1_555
La1 O13 2.337213 1_555
La1 O11 2.358477 1_554
La1 O6 2.385513 1_565
La1 O1 2.387708 1_655
La1 O23 2.468516 1_555
La2 O19 2.331153 1_555
La2 O14 2.337213 1_555
La2 O9 2.358477 1_556
La2 O7 2.385513 1_545
La2 O2 2.387708 1_655
La2 O21 2.468516 1_555
La3 O17 2.331153 1_555
La3 O15 2.337213 1_555
La3 O10 2.358477 1_556
La3 O5 2.385513 1_565
La3 O3 2.387708 1_455
La3 O22 2.468516 1_555
Bi0 O19 2.119915 1_555
Bi0 O15 2.132624 1_555
Bi0 O11 2.143030 1_555
Bi0 O3 2.149187 1_555
Bi0 O7 2.154904 1_555
Bi0 O23 2.188015 1_555
Bi1 O17 2.119915 1_555
Bi1 O14 2.132624 1_555
Bi1 O8 2.143030 1_555
Bi1 O2 2.149187 1_555
Bi1 O5 2.154904 1_555
Bi1 O20 2.188015 1_555
Bi2 O16 2.119915 1_555
Bi2 O13 2.132624 1_555
Bi2 O10 2.143030 1_555
Bi2 O1 2.149187 1_555
Bi2 O4 2.154904 1_555
Bi2 O22 2.188015 1_555
Bi3 O18 2.119915 1_555
Bi3 O12 2.132624 1_555
Bi3 O9 2.143030 1_555
Bi3 O0 2.149187 1_555
Bi3 O6 2.154904 1_555
Bi3 O21 2.188015 1_555
