# generated using pymatgen
data_MoW2(SeS2)2
_symmetry_space_group_name_H-M   'P 1'
_cell_length_a   3.23290314
_cell_length_b   3.23290314
_cell_length_c   29.68302000
_cell_angle_alpha   90.00000000
_cell_angle_beta   90.00000000
_cell_angle_gamma   119.99998242
_symmetry_Int_Tables_number   1
_chemical_formula_structural   MoW2(SeS2)2
_chemical_formula_sum   'Mo1 W2 Se2 S4'
_cell_volume   268.67309588
_cell_formula_units_Z   1
loop_
 _symmetry_equiv_pos_site_id
 _symmetry_equiv_pos_as_xyz
  1  'x, y, z'
loop_
 _atom_site_type_symbol
 _atom_site_label
 _atom_site_symmetry_multiplicity
 _atom_site_fract_x
 _atom_site_fract_y
 _atom_site_fract_z
 _atom_site_occupancy
  Mo  Mo0  1  0.00000000  0.00000000  0.11563800  1
  W  W0  1  0.00000000  0.00000000  0.57834600  1
  W  W1  1  0.33333300  0.66666700  0.34699000  1
  Se  Se0  1  0.00000000  0.00000000  0.40478200  1
  Se  Se1  1  0.00000000  0.00000000  0.28914400  1
  S  S0  1  0.33333300  0.66666700  0.06334000  1
  S  S1  1  0.33333300  0.66666700  0.52587400  1
  S  S2  1  0.33333300  0.66666700  0.16793100  1
  S  S3  1  0.33333300  0.66666700  0.63079600  1
loop_
_geom_bond_atom_site_label_1
_geom_bond_atom_site_label_2
_geom_bond_distance
_geom_bond_site_symmetry_2
Mo0 S2 2.427601 1_545
Mo0 S2 2.427604 1_445
Mo0 S2 2.427604 1_555
Mo0 S0 2.427696 1_545
Mo0 S0 2.427699 1_445
Mo0 S0 2.427699 1_555
Se0 W1 2.535078 1_545
Se0 W1 2.535080 1_555
Se0 W1 2.535080 1_445
Se1 W1 2.536162 1_545
Se1 W1 2.536165 1_445
Se1 W1 2.536165 1_555
S1 W0 2.431002 1_565
S1 W0 2.431005 1_665
S1 W0 2.431005 1_555
S3 W0 2.430584 1_565
S3 W0 2.430586 1_555
S3 W0 2.430586 1_665
