# generated using pymatgen
data_Sr7ReN6
_symmetry_space_group_name_H-M   'P 1'
_cell_length_a   12.19924988
_cell_length_b   6.80926691
_cell_length_c   13.94951098
_cell_angle_alpha   90.00000000
_cell_angle_beta   90.00000000
_cell_angle_gamma   90.00000000
_symmetry_Int_Tables_number   1
_chemical_formula_structural   Sr7ReN6
_chemical_formula_sum   'Sr28 Re4 N24'
_cell_volume   1158.75726017
_cell_formula_units_Z   4
loop_
 _symmetry_equiv_pos_site_id
 _symmetry_equiv_pos_as_xyz
  1  'x, y, z'
loop_
 _atom_site_type_symbol
 _atom_site_label
 _atom_site_symmetry_multiplicity
 _atom_site_fract_x
 _atom_site_fract_y
 _atom_site_fract_z
 _atom_site_occupancy
  Sr  Sr0  1  0.03215020  0.73032131  0.98309411  1
  Sr  Sr1  1  0.46784980  0.76967869  0.48309411  1
  Sr  Sr2  1  0.53215020  0.76967869  0.01690589  1
  Sr  Sr3  1  0.96784980  0.73032131  0.51690589  1
  Sr  Sr4  1  0.96784980  0.26967869  0.01690589  1
  Sr  Sr5  1  0.53215020  0.23032131  0.51690589  1
  Sr  Sr6  1  0.46784980  0.23032131  0.98309411  1
  Sr  Sr7  1  0.03215020  0.26967869  0.48309411  1
  Sr  Sr8  1  0.22549652  0.85448482  0.62339812  1
  Sr  Sr9  1  0.27450348  0.64551518  0.12339812  1
  Sr  Sr10  1  0.72549652  0.64551518  0.37660188  1
  Sr  Sr11  1  0.77450348  0.85448482  0.87660188  1
  Sr  Sr12  1  0.77450348  0.14551518  0.37660188  1
  Sr  Sr13  1  0.72549652  0.35448482  0.87660188  1
  Sr  Sr14  1  0.27450348  0.35448482  0.62339812  1
  Sr  Sr15  1  0.22549652  0.14551518  0.12339812  1
  Sr  Sr16  1  0.28184862  0.62354935  0.87614330  1
  Sr  Sr17  1  0.21815138  0.87645065  0.37614330  1
  Sr  Sr18  1  0.78184862  0.87645065  0.12385670  1
  Sr  Sr19  1  0.71815138  0.62354935  0.62385670  1
  Sr  Sr20  1  0.71815138  0.37645065  0.12385670  1
  Sr  Sr21  1  0.78184862  0.12354935  0.62385670  1
  Sr  Sr22  1  0.21815138  0.12354935  0.87614330  1
  Sr  Sr23  1  0.28184862  0.37645065  0.37614330  1
  Sr  Sr24  1  0.00000000  0.44250182  0.75000000  1
  Sr  Sr25  1  0.50000000  0.05749818  0.25000000  1
  Sr  Sr26  1  0.00000000  0.55749818  0.25000000  1
  Sr  Sr27  1  0.50000000  0.94250182  0.75000000  1
  Re  Re0  1  0.00000000  0.94512692  0.75000000  1
  Re  Re1  1  0.50000000  0.55487308  0.25000000  1
  Re  Re2  1  0.00000000  0.05487308  0.25000000  1
  Re  Re3  1  0.50000000  0.44512692  0.75000000  1
  N  N0  1  0.11485486  0.78775803  0.79554469  1
  N  N1  1  0.38514514  0.71224197  0.29554469  1
  N  N2  1  0.61485486  0.71224197  0.20445531  1
  N  N3  1  0.88514514  0.78775803  0.70445531  1
  N  N4  1  0.88514514  0.21224197  0.20445531  1
  N  N5  1  0.61485486  0.28775803  0.70445531  1
  N  N6  1  0.38514514  0.28775803  0.79554469  1
  N  N7  1  0.11485486  0.21224197  0.29554469  1
  N  N8  1  0.16462371  0.58226775  0.50055881  1
  N  N9  1  0.33537629  0.91773225  0.00055881  1
  N  N10  1  0.66462371  0.91773225  0.49944119  1
  N  N11  1  0.83537629  0.58226775  0.99944119  1
  N  N12  1  0.83537629  0.41773225  0.49944119  1
  N  N13  1  0.66462371  0.08226775  0.99944119  1
  N  N14  1  0.33537629  0.08226775  0.50055881  1
  N  N15  1  0.16462371  0.41773225  0.00055881  1
  N  N16  1  0.44704393  0.60286367  0.64865690  1
  N  N17  1  0.05295607  0.89713633  0.14865690  1
  N  N18  1  0.94704393  0.89713633  0.35134310  1
  N  N19  1  0.55295607  0.60286367  0.85134310  1
  N  N20  1  0.55295607  0.39713633  0.35134310  1
  N  N21  1  0.94704393  0.10286367  0.85134310  1
  N  N22  1  0.05295607  0.10286367  0.64865690  1
  N  N23  1  0.44704393  0.39713633  0.14865690  1
loop_
_geom_bond_atom_site_label_1
_geom_bond_atom_site_label_2
_geom_bond_distance
_geom_bond_site_symmetry_2
N0 Re0 1.874859 1_555
N0 Sr16 2.581568 1_555
N0 Sr8 2.791915 1_555
N0 Sr24 2.809585 1_555
N0 Sr0 2.831171 1_555
N0 Sr22 2.842548 1_565
N1 Re1 1.874859 1_555
N1 Sr17 2.581568 1_555
N1 Sr9 2.791915 1_555
N1 Sr25 2.809585 1_565
N1 Sr1 2.831171 1_555
N1 Sr23 2.842548 1_555
N2 Re1 1.874859 1_555
N2 Sr18 2.581568 1_555
N2 Sr10 2.791915 1_555
N2 Sr25 2.809585 1_565
N2 Sr2 2.831171 1_555
N2 Sr20 2.842548 1_555
N3 Re0 1.874859 1_655
N3 Sr19 2.581568 1_555
N3 Sr11 2.791915 1_555
N3 Sr24 2.809585 1_655
N3 Sr3 2.831171 1_555
N3 Sr21 2.842548 1_565
N4 Re2 1.874859 1_655
N4 Sr20 2.581568 1_555
N4 Sr12 2.791915 1_555
N4 Sr26 2.809585 1_655
N4 Sr4 2.831171 1_555
N4 Sr18 2.842548 1_545
N5 Re3 1.874859 1_555
N5 Sr21 2.581568 1_555
N5 Sr13 2.791915 1_555
N5 Sr27 2.809585 1_545
N5 Sr5 2.831171 1_555
N5 Sr19 2.842548 1_555
N6 Re3 1.874859 1_555
N6 Sr22 2.581568 1_555
N6 Sr14 2.791915 1_555
N6 Sr27 2.809585 1_545
N6 Sr6 2.831171 1_555
N6 Sr16 2.842548 1_555
N7 Re2 1.874859 1_555
N7 Sr23 2.581568 1_555
N7 Sr15 2.791915 1_555
N7 Sr26 2.809585 1_555
N7 Sr7 2.831171 1_555
N7 Sr17 2.842548 1_545
N8 Sr3 2.613563 1_455
N8 Sr8 2.631261 1_555
N8 Sr23 2.649763 1_555
N8 Sr14 2.671847 1_555
N8 Sr7 2.683576 1_555
N8 Sr17 2.729685 1_555
N9 Sr2 2.613563 1_555
N9 Sr9 2.631261 1_555
N9 Sr22 2.649763 1_564
N9 Sr15 2.671847 1_565
N9 Sr6 2.683576 1_564
N9 Sr16 2.729685 1_554
N10 Sr1 2.613563 1_555
N10 Sr10 2.631261 1_555
N10 Sr21 2.649763 1_565
N10 Sr12 2.671847 1_565
N10 Sr5 2.683576 1_565
N10 Sr19 2.729685 1_555
N11 Sr0 2.613563 1_655
N11 Sr11 2.631261 1_555
N11 Sr20 2.649763 1_556
N11 Sr13 2.671847 1_555
N11 Sr4 2.683576 1_556
N11 Sr18 2.729685 1_556
N12 Sr7 2.613563 1_655
N12 Sr12 2.631261 1_555
N12 Sr19 2.649763 1_555
N12 Sr10 2.671847 1_555
N12 Sr3 2.683576 1_555
N12 Sr21 2.729685 1_555
N13 Sr6 2.613563 1_555
N13 Sr13 2.631261 1_555
N13 Sr18 2.649763 1_546
N13 Sr11 2.671847 1_545
N13 Sr2 2.683576 1_546
N13 Sr20 2.729685 1_556
N14 Sr5 2.613563 1_555
N14 Sr14 2.631261 1_555
N14 Sr17 2.649763 1_545
N14 Sr8 2.671847 1_545
N14 Sr1 2.683576 1_545
N14 Sr23 2.729685 1_555
N15 Sr4 2.613563 1_455
N15 Sr15 2.631261 1_555
N15 Sr16 2.649763 1_554
N15 Sr9 2.671847 1_555
N15 Sr0 2.683576 1_554
N15 Sr22 2.729685 1_554
N16 Re3 1.889309 1_555
N16 Sr1 2.586222 1_555
N16 Sr14 2.723054 1_555
N16 Sr27 2.786463 1_555
N16 Sr8 3.219377 1_555
N17 Re2 1.889309 1_565
N17 Sr0 2.586222 1_554
N17 Sr15 2.723054 1_565
N17 Sr26 2.786463 1_555
N17 Sr9 3.219377 1_555
N18 Re2 1.889309 1_665
N18 Sr3 2.586222 1_555
N18 Sr12 2.723054 1_565
N18 Sr26 2.786463 1_655
N18 Sr10 3.219377 1_555
N19 Re3 1.889309 1_555
N19 Sr2 2.586222 1_556
N19 Sr13 2.723054 1_555
N19 Sr27 2.786463 1_555
N19 Sr11 3.219377 1_555
N20 Re1 1.889309 1_555
N20 Sr5 2.586222 1_555
N20 Sr10 2.723054 1_555
N20 Sr25 2.786463 1_555
N20 Sr12 3.219377 1_555
N21 Re0 1.889309 1_645
N21 Sr4 2.586222 1_556
N21 Sr11 2.723054 1_545
N21 Sr24 2.786463 1_655
N21 Sr13 3.219377 1_555
N22 Re0 1.889309 1_545
N22 Sr7 2.586222 1_555
N22 Sr8 2.723054 1_545
N22 Sr24 2.786463 1_555
N22 Sr14 3.219377 1_555
N23 Re1 1.889309 1_555
N23 Sr6 2.586222 1_554
N23 Sr9 2.723054 1_555
N23 Sr25 2.786463 1_555
N23 Sr15 3.219377 1_555
