# generated using pymatgen
data_CuAsHO4
_symmetry_space_group_name_H-M   'P 1'
_cell_length_a   6.38817564
_cell_length_b   7.26728880
_cell_length_c   17.02410850
_cell_angle_alpha   92.42518894
_cell_angle_beta   83.12762337
_cell_angle_gamma   82.90169122
_symmetry_Int_Tables_number   1
_chemical_formula_structural   CuAsHO4
_chemical_formula_sum   'Cu8 As8 H8 O32'
_cell_volume   777.33806093
_cell_formula_units_Z   8
loop_
 _symmetry_equiv_pos_site_id
 _symmetry_equiv_pos_as_xyz
  1  'x, y, z'
loop_
 _atom_site_type_symbol
 _atom_site_label
 _atom_site_symmetry_multiplicity
 _atom_site_fract_x
 _atom_site_fract_y
 _atom_site_fract_z
 _atom_site_occupancy
  Cu  Cu0  1  0.41486100  0.40119100  0.93270600  1
  Cu  Cu1  1  0.58513900  0.59880900  0.06729400  1
  Cu  Cu2  1  0.35519400  0.35562700  0.53560200  1
  Cu  Cu3  1  0.64480600  0.64437300  0.46439800  1
  Cu  Cu4  1  0.87935700  0.84666900  0.96350100  1
  Cu  Cu5  1  0.12064300  0.15333100  0.03649900  1
  Cu  Cu6  1  0.87525000  0.91541300  0.56842700  1
  Cu  Cu7  1  0.12475000  0.08458700  0.43157300  1
  As  As0  1  0.14499600  0.65694600  0.41852100  1
  As  As1  1  0.85500400  0.34305400  0.58147900  1
  As  As2  1  0.08150900  0.55355000  0.11484100  1
  As  As3  1  0.91849100  0.44645000  0.88515900  1
  As  As4  1  0.34573200  0.97721300  0.61687900  1
  As  As5  1  0.65426800  0.02278700  0.38312100  1
  As  As6  1  0.41057100  0.82242000  0.91827300  1
  As  As7  1  0.58942900  0.17758000  0.08172700  1
  H  H0  1  0.77423200  0.60464400  0.66213100  1
  H  H1  1  0.22576800  0.39535600  0.33786900  1
  H  H2  1  0.39302900  0.06037900  0.83594200  1
  H  H3  1  0.60697100  0.93962100  0.16405800  1
  H  H4  1  0.23974200  0.78426500  0.71391300  1
  H  H5  1  0.76025800  0.21573500  0.28608700  1
  H  H6  1  0.89291300  0.21614800  0.79113400  1
  H  H7  1  0.10708700  0.78385200  0.20886600  1
  O  O0  1  0.58891300  0.84454500  0.59131200  1
  O  O1  1  0.41108700  0.15545500  0.40868800  1
  O  O2  1  0.40702800  0.61705000  0.86722700  1
  O  O3  1  0.59297200  0.38295000  0.13277300  1
  O  O4  1  0.07744700  0.30952800  0.50985200  1
  O  O5  1  0.92255300  0.69047200  0.49014800  1
  O  O6  1  0.18327600  0.90924400  0.54986300  1
  O  O7  1  0.81672400  0.09075600  0.45013700  1
  O  O8  1  0.17766300  0.85001700  0.36794200  1
  O  O9  1  0.82233700  0.14998300  0.63205800  1
  O  O10  1  0.11249100  0.64854400  0.20918200  1
  O  O11  1  0.88750900  0.35145600  0.79081800  1
  O  O12  1  0.15830200  0.93317800  0.95909300  1
  O  O13  1  0.84169800  0.06682200  0.04090700  1
  O  O14  1  0.36898200  0.55844500  0.46017200  1
  O  O15  1  0.63101800  0.44155500  0.53982800  1
  O  O16  1  0.92629800  0.67702400  0.87127700  1
  O  O17  1  0.07370200  0.32297600  0.12872300  1
  O  O18  1  0.09070500  0.47474200  0.35505600  1
  O  O19  1  0.90929500  0.52525800  0.64494400  1
  O  O20  1  0.14078300  0.32786900  0.91652900  1
  O  O21  1  0.85921700  0.67213100  0.08347100  1
  O  O22  1  0.58381300  0.80848900  0.99012500  1
  O  O23  1  0.41618700  0.19151100  0.00987500  1
  O  O24  1  0.70847000  0.39826400  0.95146600  1
  O  O25  1  0.29153000  0.60173600  0.04853400  1
  O  O26  1  0.23978800  0.91907000  0.71285000  1
  O  O27  1  0.76021200  0.08093000  0.28715000  1
  O  O28  1  0.51408900  0.98028500  0.85201600  1
  O  O29  1  0.48591100  0.01971500  0.14798400  1
  O  O30  1  0.65127500  0.78889800  0.37250300  1
  O  O31  1  0.34872500  0.21110200  0.62749700  1
loop_
_geom_bond_atom_site_label_1
_geom_bond_atom_site_label_2
_geom_bond_distance
_geom_bond_site_symmetry_2
Cu0 O24 1.937652 1_555
Cu0 O20 1.938770 1_555
Cu0 O2 1.961606 1_555
Cu0 O23 2.053495 1_556
Cu0 O25 2.394634 1_556
Cu1 O25 1.937652 1_555
Cu1 O21 1.938770 1_555
Cu1 O3 1.961606 1_555
Cu1 O22 2.053495 1_554
Cu1 O24 2.394634 1_554
Cu2 O31 1.920053 1_555
Cu2 O4 1.942460 1_555
Cu2 O15 1.948920 1_555
Cu2 O14 1.998608 1_555
Cu2 O1 2.516517 1_555
Cu3 O30 1.920053 1_555
Cu3 O5 1.942460 1_555
Cu3 O14 1.948920 1_555
Cu3 O15 1.998608 1_555
Cu3 O0 2.516517 1_555
Cu4 O16 1.925360 1_555
Cu4 O22 1.944797 1_555
Cu4 O12 1.955783 1_655
Cu4 O13 2.001174 1_566
Cu4 O21 2.448153 1_556
Cu5 O17 1.925360 1_555
Cu5 O23 1.944797 1_555
Cu5 O13 1.955783 1_455
Cu5 O12 2.001174 1_544
Cu5 O20 2.448153 1_554
Cu6 O6 1.949872 1_655
Cu6 O9 1.951245 1_565
Cu6 O0 1.960142 1_555
Cu6 O5 2.033883 1_555
Cu6 O7 2.469507 1_565
Cu7 O7 1.949872 1_455
Cu7 O8 1.951245 1_545
Cu7 O1 1.960142 1_555
Cu7 O4 2.033883 1_555
Cu7 O6 2.469507 1_545
As0 O8 1.698612 1_555
As0 O5 1.743598 1_455
As0 O14 1.759315 1_555
As0 O18 1.767213 1_555
As1 O9 1.698612 1_555
As1 O4 1.743598 1_655
As1 O15 1.759315 1_555
As1 O19 1.767213 1_555
As2 O17 1.708063 1_555
As2 O21 1.721149 1_455
As2 O25 1.727429 1_555
As2 O10 1.763867 1_555
As3 O16 1.708063 1_555
As3 O20 1.721149 1_655
As3 O24 1.727429 1_555
As3 O11 1.763867 1_555
As4 O31 1.704409 1_565
As4 O0 1.721865 1_555
As4 O6 1.727712 1_555
As4 O26 1.780571 1_555
As5 O30 1.704409 1_545
As5 O1 1.721865 1_555
As5 O7 1.727712 1_555
As5 O27 1.780571 1_555
As6 O2 1.698968 1_555
As6 O22 1.743001 1_555
As6 O12 1.758388 1_555
As6 O28 1.773219 1_555
As7 O3 1.698968 1_555
As7 O23 1.743001 1_555
As7 O13 1.758388 1_555
As7 O29 1.773219 1_555
H0 O19 0.982426 1_555
H1 O18 0.982426 1_555
H2 O28 0.982157 1_545
H3 O29 0.982157 1_565
H4 O26 0.980635 1_555
H5 O27 0.980635 1_555
H6 O11 0.979921 1_555
H7 O10 0.979921 1_555
