# generated using pymatgen
data_HgSeO4
_symmetry_space_group_name_H-M   'P 1'
_cell_length_a   4.93541574
_cell_length_b   5.01290296
_cell_length_c   6.81411956
_cell_angle_alpha   90.00000000
_cell_angle_beta   90.00000000
_cell_angle_gamma   90.00000000
_symmetry_Int_Tables_number   1
_chemical_formula_structural   HgSeO4
_chemical_formula_sum   'Hg2 Se2 O8'
_cell_volume   168.58649782
_cell_formula_units_Z   2
loop_
 _symmetry_equiv_pos_site_id
 _symmetry_equiv_pos_as_xyz
  1  'x, y, z'
loop_
 _atom_site_type_symbol
 _atom_site_label
 _atom_site_symmetry_multiplicity
 _atom_site_fract_x
 _atom_site_fract_y
 _atom_site_fract_z
 _atom_site_occupancy
  Hg  Hg0  1  0.15018944  0.49755021  0.50000000  1
  Hg  Hg1  1  0.84981056  0.99755021  -0.00000000  1
  Se  Se0  1  0.66126801  0.98002369  0.50000000  1
  Se  Se1  1  0.33873199  0.48002369  -0.00000000  1
  O  O0  1  0.70033932  0.30708727  0.50000000  1
  O  O1  1  0.29966068  0.80708727  -0.00000000  1
  O  O2  1  0.33186061  0.92144802  0.50000000  1
  O  O3  1  0.66813939  0.42144802  -0.00000000  1
  O  O4  1  0.81089046  0.83284490  0.69101886  1
  O  O5  1  0.18910954  0.33284490  0.80898114  1
  O  O6  1  0.18910954  0.33284490  0.19101886  1
  O  O7  1  0.81089046  0.83284490  0.30898114  1
loop_
_geom_bond_atom_site_label_1
_geom_bond_atom_site_label_2
_geom_bond_distance
_geom_bond_site_symmetry_2
Hg0 O5 2.269681 1_555
Hg0 O6 2.269681 1_555
Hg0 O2 2.306378 1_555
Hg0 O0 2.416788 1_455
Hg1 O7 2.269681 1_555
Hg1 O4 2.269681 1_554
Hg1 O3 2.306378 1_565
Hg1 O1 2.416788 1_655
O0 Se0 1.650839 1_545
O1 Se1 1.650839 1_555
O2 Se0 1.652067 1_555
O3 Se1 1.652067 1_555
O4 Se0 1.668495 1_555
O5 Se1 1.668495 1_556
O6 Se1 1.668495 1_555
O7 Se0 1.668495 1_555
