# generated using pymatgen
data_ScTlF6
_symmetry_space_group_name_H-M   'P 1'
_cell_length_a   5.79719832
_cell_length_b   5.79719833
_cell_length_c   5.79719802
_cell_angle_alpha   54.79689901
_cell_angle_beta   54.79689903
_cell_angle_gamma   54.79689978
_symmetry_Int_Tables_number   1
_chemical_formula_structural   ScTlF6
_chemical_formula_sum   'Sc1 Tl1 F6'
_cell_volume   121.07353093
_cell_formula_units_Z   1
loop_
 _symmetry_equiv_pos_site_id
 _symmetry_equiv_pos_as_xyz
  1  'x, y, z'
loop_
 _atom_site_type_symbol
 _atom_site_label
 _atom_site_symmetry_multiplicity
 _atom_site_fract_x
 _atom_site_fract_y
 _atom_site_fract_z
 _atom_site_occupancy
  Sc  Sc0  1  0.50000000  0.50000000  0.50000000  1
  Tl  Tl0  1  -0.00000000  0.00000000  -0.00000000  1
  F  F0  1  0.60610823  0.87448198  0.25999758  1
  F  F1  1  0.25999758  0.60610823  0.87448198  1
  F  F2  1  0.87448198  0.25999758  0.60610823  1
  F  F3  1  0.74000242  0.39389177  0.12551802  1
  F  F4  1  0.12551802  0.74000242  0.39389177  1
  F  F5  1  0.39389177  0.12551802  0.74000242  1
loop_
_geom_bond_atom_site_label_1
_geom_bond_atom_site_label_2
_geom_bond_distance
_geom_bond_site_symmetry_2
F0 Sc0 2.024255 1_555
F0 Tl0 2.167609 1_665
F1 Sc0 2.024254 1_555
F1 Tl0 2.167609 1_566
F2 Sc0 2.024255 1_555
F2 Tl0 2.167609 1_656
F3 Sc0 2.024254 1_555
F3 Tl0 2.167609 1_655
F4 Sc0 2.024255 1_555
F4 Tl0 2.167609 1_565
F5 Sc0 2.024255 1_555
F5 Tl0 2.167609 1_556
