# generated using pymatgen
data_NbBi2O5F
_symmetry_space_group_name_H-M   'P 1'
_cell_length_a   5.45937000
_cell_length_b   5.47074000
_cell_length_c   17.02851000
_cell_angle_alpha   90.00000000
_cell_angle_beta   90.00000000
_cell_angle_gamma   90.00000000
_symmetry_Int_Tables_number   1
_chemical_formula_structural   NbBi2O5F
_chemical_formula_sum   'Nb4 Bi8 O20 F4'
_cell_volume   508.58699747
_cell_formula_units_Z   4
loop_
 _symmetry_equiv_pos_site_id
 _symmetry_equiv_pos_as_xyz
  1  'x, y, z'
loop_
 _atom_site_type_symbol
 _atom_site_label
 _atom_site_symmetry_multiplicity
 _atom_site_fract_x
 _atom_site_fract_y
 _atom_site_fract_z
 _atom_site_occupancy
  Nb  Nb0  1  0.24930900  0.24686800  0.73649400  1
  Nb  Nb1  1  0.75069100  0.74686800  0.76350600  1
  Nb  Nb2  1  0.74930900  0.25313200  0.26350600  1
  Nb  Nb3  1  0.25069100  0.75313200  0.23649400  1
  Bi  Bi0  1  0.76094500  0.26160600  0.57415600  1
  Bi  Bi1  1  0.23905500  0.76160600  0.92584400  1
  Bi  Bi2  1  0.26094500  0.23839400  0.42584400  1
  Bi  Bi3  1  0.73905500  0.73839400  0.07415600  1
  Bi  Bi4  1  0.74479100  0.22845700  0.92320100  1
  Bi  Bi5  1  0.25520900  0.72845700  0.57679900  1
  Bi  Bi6  1  0.24479100  0.27154300  0.07679900  1
  Bi  Bi7  1  0.75520900  0.77154300  0.42320100  1
  O  O0  1  0.00205000  0.50358900  0.49738800  1
  O  O1  1  0.99795000  0.00358900  0.00261200  1
  O  O2  1  0.50205000  0.99641100  0.50261200  1
  O  O3  1  0.49795000  0.49641100  0.99738800  1
  O  O4  1  0.49773900  0.00088700  0.00238000  1
  O  O5  1  0.50226100  0.50088700  0.49762000  1
  O  O6  1  0.99773900  0.49911300  0.99762000  1
  O  O7  1  0.00226100  0.99911300  0.50238000  1
  O  O8  1  0.04965600  0.45019700  0.26163700  1
  O  O9  1  0.95034400  0.95019700  0.23836300  1
  O  O10  1  0.54965600  0.04980300  0.73836300  1
  O  O11  1  0.45034400  0.54980300  0.76163700  1
  O  O12  1  0.45109000  0.05133900  0.23554600  1
  O  O13  1  0.54891000  0.55133900  0.26445400  1
  O  O14  1  0.95109000  0.44866100  0.76445400  1
  O  O15  1  0.04891000  0.94866100  0.73554600  1
  O  O16  1  0.23214300  0.30476700  0.62709800  1
  O  O17  1  0.76785700  0.80476700  0.87290200  1
  O  O18  1  0.73214300  0.19523300  0.37290200  1
  O  O19  1  0.26785700  0.69523300  0.12709800  1
  F  F0  1  0.26387200  0.20420100  0.87023000  1
  F  F1  1  0.73612800  0.70420100  0.62977000  1
  F  F2  1  0.76387200  0.29579900  0.12977000  1
  F  F3  1  0.23612800  0.79579900  0.37023000  1
loop_
_geom_bond_atom_site_label_1
_geom_bond_atom_site_label_2
_geom_bond_distance
_geom_bond_site_symmetry_2
Nb0 O16 1.891911 1_555
Nb0 O10 1.962633 1_555
Nb0 O15 1.964362 1_545
Nb0 O14 2.023877 1_455
Nb0 O11 2.033333 1_555
Nb1 O17 1.891911 1_555
Nb1 O11 1.962633 1_555
Nb1 O14 1.964362 1_555
Nb1 O15 2.023877 1_655
Nb1 O10 2.033333 1_565
Nb2 O18 1.891911 1_555
Nb2 O8 1.962633 1_655
Nb2 O13 1.964362 1_555
Nb2 O12 2.023877 1_555
Nb2 O9 2.033333 1_545
Nb3 O19 1.891911 1_555
Nb3 O9 1.962633 1_455
Nb3 O12 1.964362 1_565
Nb3 O13 2.023877 1_555
Nb3 O8 2.033333 1_555
Bi0 O0 2.279035 1_655
Bi0 O7 2.300366 1_645
Bi0 O5 2.325215 1_555
Bi0 O2 2.363640 1_545
Bi0 F1 2.603461 1_555
Bi0 O16 2.736050 1_655
Bi1 O1 2.279035 1_466
Bi1 O6 2.300366 1_455
Bi1 O4 2.325215 1_566
Bi1 O3 2.363640 1_555
Bi1 F0 2.603461 1_565
Bi1 O17 2.736050 1_455
Bi2 O2 2.279035 1_545
Bi2 O5 2.300366 1_555
Bi2 O7 2.325215 1_545
Bi2 O0 2.363640 1_555
Bi2 F3 2.603461 1_545
Bi2 O18 2.736050 1_555
Bi3 O3 2.279035 1_554
Bi3 O4 2.300366 1_565
Bi3 O6 2.325215 1_554
Bi3 O1 2.363640 1_565
Bi3 F2 2.603461 1_555
Bi3 O19 2.736050 1_555
Bi4 O4 2.277499 1_556
Bi4 O1 2.291753 1_556
Bi4 O3 2.358137 1_555
Bi4 O6 2.388584 1_555
Bi4 O17 2.474294 1_545
Bi5 O5 2.277499 1_555
Bi5 O0 2.291753 1_555
Bi5 O2 2.358137 1_555
Bi5 O7 2.388584 1_555
Bi5 O16 2.474294 1_555
Bi6 O6 2.277499 1_454
Bi6 O3 2.291753 1_554
Bi6 O1 2.358137 1_455
Bi6 O4 2.388584 1_555
Bi6 O19 2.474294 1_555
Bi7 O7 2.277499 1_655
Bi7 O2 2.291753 1_555
Bi7 O0 2.358137 1_655
Bi7 O5 2.388584 1_555
Bi7 O18 2.474294 1_565
F0 Nb0 2.290636 1_555
F1 Nb1 2.290636 1_555
F2 Nb2 2.290636 1_555
F3 Nb3 2.290636 1_555
