# generated using pymatgen
data_K3Co(C3O7)2
_symmetry_space_group_name_H-M   'P 1'
_cell_length_a   11.42449038
_cell_length_b   11.42449038
_cell_length_c   20.24409200
_cell_angle_alpha   90.00000000
_cell_angle_beta   90.00000000
_cell_angle_gamma   120.00000218
_symmetry_Int_Tables_number   1
_chemical_formula_structural   K3Co(C3O7)2
_chemical_formula_sum   'K18 Co6 C36 O84'
_cell_volume   2288.24539379
_cell_formula_units_Z   6
loop_
 _symmetry_equiv_pos_site_id
 _symmetry_equiv_pos_as_xyz
  1  'x, y, z'
loop_
 _atom_site_type_symbol
 _atom_site_label
 _atom_site_symmetry_multiplicity
 _atom_site_fract_x
 _atom_site_fract_y
 _atom_site_fract_z
 _atom_site_occupancy
  K  K0  1  0.83874000  0.42546300  0.73938100  1
  K  K1  1  0.58672300  0.16126000  0.40604800  1
  K  K2  1  0.57453700  0.41327700  0.07271400  1
  K  K3  1  0.16126000  0.58672300  0.59395200  1
  K  K4  1  0.42546300  0.83874000  0.26061900  1
  K  K5  1  0.41327700  0.57453700  0.92728600  1
  K  K6  1  0.07420500  0.49140300  0.07193100  1
  K  K7  1  0.41719800  0.92579500  0.73859800  1
  K  K8  1  0.50859700  0.58280200  0.40526500  1
  K  K9  1  0.92579500  0.41719800  0.26140200  1
  K  K10  1  0.49140300  0.07420500  0.92806900  1
  K  K11  1  0.58280200  0.50859700  0.59473500  1
  K  K12  1  0.00000000  0.07932000  0.16666700  1
  K  K13  1  0.07932000  0.00000000  0.83333300  1
  K  K14  1  0.92068000  0.92068000  0.50000000  1
  K  K15  1  0.00000000  0.12791600  0.66666700  1
  K  K16  1  0.12791600  0.00000000  0.33333300  1
  K  K17  1  0.87208400  0.87208400  0.00000000  1
  Co  Co0  1  0.00703000  0.48746100  0.89139600  1
  Co  Co1  1  0.48043100  0.99297000  0.55806300  1
  Co  Co2  1  0.51253900  0.51956900  0.22472900  1
  Co  Co3  1  0.99297000  0.48043100  0.44193700  1
  Co  Co4  1  0.48746100  0.00703000  0.10860400  1
  Co  Co5  1  0.51956900  0.51253900  0.77527100  1
  C  C0  1  0.23932500  0.72067300  0.86700700  1
  C  C1  1  0.48134800  0.76067500  0.53367400  1
  C  C2  1  0.27932700  0.51865200  0.20034000  1
  C  C3  1  0.76067500  0.48134800  0.46632600  1
  C  C4  1  0.72067300  0.23932500  0.13299300  1
  C  C5  1  0.51865200  0.27932700  0.79966000  1
  C  C6  1  0.12715100  0.72312800  0.82435800  1
  C  C7  1  0.59597700  0.87284900  0.49102400  1
  C  C8  1  0.27687200  0.40402300  0.15769100  1
  C  C9  1  0.87284900  0.59597700  0.50897600  1
  C  C10  1  0.72312800  0.12715100  0.17564200  1
  C  C11  1  0.40402300  0.27687200  0.84230900  1
  C  C12  1  0.85513900  0.54134200  0.97385600  1
  C  C13  1  0.68620300  0.14486100  0.64052200  1
  C  C14  1  0.45865800  0.31379700  0.30718900  1
  C  C15  1  0.14486100  0.68620300  0.35947800  1
  C  C16  1  0.54134200  0.85513900  0.02614400  1
  C  C17  1  0.31379700  0.45865800  0.69281100  1
  C  C18  1  0.75606300  0.41515000  0.93302200  1
  C  C19  1  0.65908700  0.24393700  0.59968900  1
  C  C20  1  0.58485000  0.34091300  0.26635500  1
  C  C21  1  0.24393700  0.65908700  0.40031100  1
  C  C22  1  0.41515000  0.75606300  0.06697800  1
  C  C23  1  0.34091300  0.58485000  0.73364500  1
  C  C24  1  0.01060800  0.25561300  0.91300800  1
  C  C25  1  0.24500500  0.98939200  0.57967400  1
  C  C26  1  0.74438700  0.75499500  0.24634100  1
  C  C27  1  0.98939200  0.24500500  0.42032600  1
  C  C28  1  0.25561300  0.01060800  0.08699200  1
  C  C29  1  0.75499500  0.74438700  0.75365900  1
  C  C30  1  0.01794500  0.27760300  0.83625300  1
  C  C31  1  0.25965800  0.98205500  0.50291900  1
  C  C32  1  0.72239700  0.74034200  0.16958600  1
  C  C33  1  0.98205500  0.25965800  0.49708100  1
  C  C34  1  0.27760300  0.01794500  0.16374700  1
  C  C35  1  0.74034200  0.72239700  0.83041400  1
  O  O0  1  0.19907100  0.60636200  0.89716800  1
  O  O1  1  0.40729100  0.80092900  0.56383500  1
  O  O2  1  0.39363800  0.59270900  0.23050100  1
  O  O3  1  0.80092900  0.40729100  0.43616500  1
  O  O4  1  0.60636200  0.19907100  0.10283200  1
  O  O5  1  0.59270900  0.39363800  0.76949900  1
  O  O6  1  0.00816500  0.61734900  0.83156000  1
  O  O7  1  0.60918400  0.99183500  0.49822700  1
  O  O8  1  0.38265100  0.39081600  0.16489400  1
  O  O9  1  0.99183500  0.60918400  0.50177300  1
  O  O10  1  0.61734900  0.00816500  0.16844000  1
  O  O11  1  0.39081600  0.38265100  0.83510600  1
  O  O12  1  0.98162600  0.57689800  0.96496600  1
  O  O13  1  0.59527200  0.01837400  0.63163300  1
  O  O14  1  0.42310200  0.40472800  0.29829900  1
  O  O15  1  0.01837400  0.59527200  0.36836700  1
  O  O16  1  0.57689800  0.98162600  0.03503400  1
  O  O17  1  0.40472800  0.42310200  0.70170100  1
  O  O18  1  0.81406200  0.38134600  0.88753800  1
  O  O19  1  0.56728500  0.18593800  0.55420500  1
  O  O20  1  0.61865400  0.43271500  0.22087200  1
  O  O21  1  0.18593800  0.56728500  0.44579500  1
  O  O22  1  0.38134600  0.81406200  0.11246200  1
  O  O23  1  0.43271500  0.61865400  0.77912800  1
  O  O24  1  0.01213900  0.35301800  0.94659900  1
  O  O25  1  0.34087900  0.98786100  0.61326600  1
  O  O26  1  0.64698200  0.65912100  0.27993300  1
  O  O27  1  0.98786100  0.34087900  0.38673400  1
  O  O28  1  0.35301800  0.01213900  0.05340100  1
  O  O29  1  0.65912100  0.64698200  0.72006700  1
  O  O30  1  0.02197000  0.38906700  0.81891300  1
  O  O31  1  0.36709600  0.97803000  0.48558000  1
  O  O32  1  0.61093300  0.63290400  0.15224700  1
  O  O33  1  0.97803000  0.36709600  0.51442000  1
  O  O34  1  0.38906700  0.02197000  0.18108700  1
  O  O35  1  0.63290400  0.61093300  0.84775300  1
  O  O36  1  0.35539200  0.81957000  0.86962400  1
  O  O37  1  0.46417800  0.64460800  0.53629100  1
  O  O38  1  0.18043000  0.53582200  0.20295800  1
  O  O39  1  0.64460800  0.46417800  0.46370900  1
  O  O40  1  0.81957000  0.35539200  0.13037600  1
  O  O41  1  0.53582200  0.18043000  0.79704200  1
  O  O42  1  0.15449500  0.81926900  0.78694500  1
  O  O43  1  0.66477400  0.84550500  0.45361100  1
  O  O44  1  0.18073100  0.33522600  0.12027800  1
  O  O45  1  0.84550500  0.66477400  0.54638900  1
  O  O46  1  0.81926900  0.15449500  0.21305500  1
  O  O47  1  0.33522600  0.18073100  0.87972200  1
  O  O48  1  0.81342100  0.59658800  0.01228000  1
  O  O49  1  0.78316700  0.18657900  0.67894700  1
  O  O50  1  0.40341200  0.21683300  0.34561400  1
  O  O51  1  0.18657900  0.78316700  0.32105300  1
  O  O52  1  0.59658800  0.81342100  0.98772000  1
  O  O53  1  0.21683300  0.40341200  0.65438600  1
  O  O54  1  0.63333400  0.35251600  0.94578600  1
  O  O55  1  0.71918200  0.36666600  0.61245200  1
  O  O56  1  0.64748400  0.28081800  0.27911900  1
  O  O57  1  0.36666600  0.71918200  0.38754700  1
  O  O58  1  0.35251600  0.63333400  0.05421400  1
  O  O59  1  0.28081800  0.64748400  0.72088100  1
  O  O60  1  0.00447500  0.15205400  0.93620400  1
  O  O61  1  0.14757900  0.99552500  0.60287100  1
  O  O62  1  0.84794600  0.85242100  0.26953800  1
  O  O63  1  0.99552500  0.14757900  0.39712900  1
  O  O64  1  0.15205400  0.00447500  0.06379600  1
  O  O65  1  0.85242100  0.84794600  0.73046200  1
  O  O66  1  0.02028400  0.19495500  0.79778100  1
  O  O67  1  0.17467100  0.97971600  0.46444800  1
  O  O68  1  0.80504500  0.82532900  0.13111400  1
  O  O69  1  0.97971600  0.17467100  0.53555200  1
  O  O70  1  0.19495500  0.02028400  0.20221900  1
  O  O71  1  0.82532900  0.80504500  0.86888600  1
  O  O72  1  0.11909200  0.88282800  0.95549900  1
  O  O73  1  0.76373600  0.88090800  0.62216500  1
  O  O74  1  0.11717200  0.23626400  0.28883200  1
  O  O75  1  0.88090800  0.76373600  0.37783500  1
  O  O76  1  0.88282800  0.11909200  0.04450100  1
  O  O77  1  0.23626400  0.11717200  0.71116800  1
  O  O78  1  0.00000000  0.67908700  0.66666700  1
  O  O79  1  0.67908700  0.00000000  0.33333300  1
  O  O80  1  0.32091300  0.32091300  0.00000000  1
  O  O81  1  0.00000000  0.67345200  0.16666700  1
  O  O82  1  0.67345200  0.00000000  0.83333300  1
  O  O83  1  0.32654800  0.32654800  0.50000000  1
loop_
_geom_bond_atom_site_label_1
_geom_bond_atom_site_label_2
_geom_bond_distance
_geom_bond_site_symmetry_2
K0 O5 2.717069 1_555
K0 O49 2.759585 1_555
K0 O6 2.791292 1_655
K0 O55 2.828784 1_555
K0 O30 2.831523 1_655
K0 O78 2.935726 1_655
K0 O18 3.031046 1_555
K1 O3 2.717064 1_555
K1 O50 2.759585 1_555
K1 O7 2.791292 1_545
K1 O56 2.828784 1_555
K1 O31 2.831528 1_545
K1 O79 2.935737 1_555
K1 O19 3.031045 1_555
K2 O4 2.717069 1_555
K2 O48 2.759585 1_555
K2 O8 2.791305 1_555
K2 O54 2.828765 1_554
K2 O32 2.831543 1_555
K2 O80 2.935726 1_555
K2 O20 3.031067 1_555
K3 O1 2.717064 1_555
K3 O53 2.759585 1_555
K3 O9 2.791292 1_455
K3 O59 2.828784 1_555
K3 O33 2.831528 1_455
K3 O78 2.935737 1_555
K3 O21 3.031045 1_555
K4 O2 2.717069 1_555
K4 O51 2.759585 1_555
K4 O10 2.791292 1_565
K4 O57 2.828765 1_555
K4 O34 2.831523 1_565
K4 O79 2.935726 1_565
K4 O22 3.031046 1_555
K5 O0 2.717069 1_555
K5 O52 2.759585 1_555
K5 O11 2.791305 1_555
K5 O58 2.828765 1_556
K5 O35 2.831543 1_555
K5 O80 2.935726 1_556
K5 O23 3.031067 1_555
K6 O58 2.777022 1_555
K6 O40 2.785100 1_455
K6 O44 2.791772 1_555
K6 O12 2.791906 1_454
K6 O38 2.854873 1_555
K6 O24 2.884232 1_554
K6 O81 3.238152 1_555
K7 O59 2.777022 1_555
K7 O41 2.785092 1_565
K7 O42 2.791772 1_555
K7 O13 2.791906 1_565
K7 O36 2.854854 1_555
K7 O25 2.884232 1_555
K7 O82 3.238140 1_565
K8 O57 2.777025 1_555
K8 O39 2.785092 1_555
K8 O43 2.791765 1_555
K8 O14 2.791921 1_555
K8 O37 2.854854 1_555
K8 O26 2.884232 1_555
K8 O83 3.238140 1_555
K9 O56 2.777022 1_555
K9 O38 2.785092 1_655
K9 O46 2.791772 1_555
K9 O15 2.791906 1_655
K9 O40 2.854854 1_555
K9 O27 2.884232 1_555
K9 O81 3.238140 1_655
K10 O54 2.777022 1_555
K10 O36 2.785100 1_545
K10 O47 2.791772 1_555
K10 O16 2.791906 1_546
K10 O41 2.854873 1_555
K10 O28 2.884232 1_556
K10 O82 3.238152 1_555
K11 O55 2.777022 1_555
K11 O37 2.785092 1_555
K11 O45 2.791765 1_555
K11 O17 2.791921 1_555
K11 O39 2.854854 1_555
K11 O29 2.884232 1_555
K11 O83 3.238140 1_555
K12 O70 2.726861 1_555
K12 O68 2.726866 1_445
K12 O46 2.766947 1_455
K12 O44 2.766954 1_555
K12 O74 2.953464 1_555
K12 O76 2.953481 1_455
K12 O62 3.093718 1_445
K12 O64 3.093718 1_555
K13 O66 2.726861 1_555
K13 O71 2.726866 1_445
K13 O42 2.766947 1_545
K13 O47 2.766954 1_555
K13 O77 2.953464 1_555
K13 O72 2.953481 1_545
K13 O65 3.093718 1_445
K13 O60 3.093718 1_555
K14 O69 2.726861 1_565
K14 O67 2.726861 1_655
K14 O45 2.766954 1_555
K14 O43 2.766954 1_555
K14 O73 2.953464 1_555
K14 O75 2.953464 1_555
K14 O61 3.093718 1_655
K14 O63 3.093718 1_565
K15 O66 2.740077 1_555
K15 O69 2.740097 1_455
K15 O49 2.882312 1_455
K15 O53 2.882314 1_555
K15 O77 2.905792 1_555
K15 O73 2.905798 1_445
K15 O65 3.057499 1_445
K15 O61 3.057507 1_545
K16 O70 2.740077 1_555
K16 O67 2.740097 1_545
K16 O51 2.882312 1_545
K16 O50 2.882314 1_555
K16 O74 2.905792 1_555
K16 O75 2.905798 1_445
K16 O62 3.057499 1_445
K16 O63 3.057507 1_455
K17 O68 2.740077 1_555
K17 O71 2.740077 1_554
K17 O52 2.882312 1_554
K17 O48 2.882312 1_555
K17 O72 2.905792 1_654
K17 O76 2.905792 1_565
K17 O64 3.057507 1_665
K17 O60 3.057507 1_664
Co0 O30 1.907282 1_555
Co0 O12 1.908660 1_455
Co0 O6 1.910552 1_555
Co0 O18 1.913968 1_455
Co0 O0 1.921487 1_555
Co0 O24 1.923814 1_555
Co1 O31 1.907289 1_555
Co1 O13 1.908660 1_565
Co1 O7 1.910552 1_555
Co1 O19 1.913967 1_565
Co1 O1 1.921487 1_555
Co1 O25 1.923814 1_555
Co2 O32 1.907270 1_555
Co2 O14 1.908660 1_555
Co2 O8 1.910539 1_555
Co2 O20 1.913977 1_555
Co2 O2 1.921487 1_555
Co2 O26 1.923826 1_555
Co3 O33 1.907289 1_555
Co3 O15 1.908660 1_655
Co3 O9 1.910552 1_555
Co3 O21 1.913967 1_655
Co3 O3 1.921487 1_555
Co3 O27 1.923814 1_555
Co4 O34 1.907282 1_555
Co4 O16 1.908660 1_545
Co4 O10 1.910552 1_555
Co4 O22 1.913968 1_545
Co4 O4 1.921487 1_555
Co4 O28 1.923814 1_555
Co5 O35 1.907270 1_555
Co5 O17 1.908660 1_555
Co5 O11 1.910539 1_555
Co5 O23 1.913977 1_555
Co5 O5 1.921487 1_555
Co5 O29 1.923826 1_555
C0 O36 1.240754 1_555
C0 O0 1.299698 1_555
C1 O37 1.240754 1_555
C1 O1 1.299698 1_555
C2 O38 1.240755 1_555
C2 O2 1.299698 1_555
C3 O39 1.240754 1_555
C3 O3 1.299698 1_555
C4 O40 1.240754 1_555
C4 O4 1.299698 1_555
C5 O41 1.240755 1_555
C5 O5 1.299698 1_555
C6 O42 1.238754 1_555
C6 O6 1.298755 1_555
C7 O43 1.238754 1_555
C7 O7 1.298757 1_555
C8 O44 1.238754 1_555
C8 O8 1.298757 1_555
C9 O45 1.238754 1_555
C9 O9 1.298757 1_555
C10 O46 1.238754 1_555
C10 O10 1.298755 1_555
C11 O47 1.238754 1_555
C11 O11 1.298757 1_555
C12 O48 1.237494 1_556
C12 O12 1.303292 1_555
C13 O49 1.237507 1_555
C13 O13 1.303289 1_555
C14 O50 1.237507 1_555
C14 O14 1.303292 1_555
C15 O51 1.237507 1_555
C15 O15 1.303289 1_555
C16 O52 1.237494 1_554
C16 O16 1.303292 1_555
C17 O53 1.237507 1_555
C17 O17 1.303292 1_555
C18 O54 1.241542 1_555
C18 O18 1.300743 1_555
C19 O55 1.241538 1_555
C19 O19 1.300736 1_555
C20 O56 1.241542 1_555
C20 O20 1.300721 1_555
C21 O57 1.241542 1_555
C21 O21 1.300736 1_555
C22 O58 1.241542 1_555
C22 O22 1.300743 1_555
C23 O59 1.241542 1_555
C23 O23 1.300721 1_555
C24 O60 1.241880 1_555
C24 O24 1.296764 1_555
C25 O61 1.241888 1_555
C25 O25 1.296775 1_555
C26 O62 1.241888 1_555
C26 O26 1.296775 1_555
C27 O63 1.241888 1_555
C27 O27 1.296775 1_555
C28 O64 1.241880 1_555
C28 O28 1.296764 1_555
C29 O65 1.241888 1_555
C29 O29 1.296775 1_555
C30 O66 1.234527 1_555
C30 O30 1.299376 1_555
C31 O67 1.234514 1_555
C31 O31 1.299360 1_555
C32 O68 1.234527 1_555
C32 O32 1.299366 1_555
C33 O69 1.234514 1_555
C33 O33 1.299360 1_555
C34 O70 1.234527 1_555
C34 O34 1.299376 1_555
C35 O71 1.234527 1_555
C35 O35 1.299366 1_555
