# generated using pymatgen
data_Y2(Ga3Rh)3
_symmetry_space_group_name_H-M   'P 1'
_cell_length_a   7.47854453
_cell_length_b   7.47854430
_cell_length_c   9.49573524
_cell_angle_alpha   90.00028375
_cell_angle_beta   90.00016847
_cell_angle_gamma   119.73823447
_symmetry_Int_Tables_number   1
_chemical_formula_structural   Y2(Ga3Rh)3
_chemical_formula_sum   'Y4 Ga18 Rh6'
_cell_volume   461.14011038
_cell_formula_units_Z   2
loop_
 _symmetry_equiv_pos_site_id
 _symmetry_equiv_pos_as_xyz
  1  'x, y, z'
loop_
 _atom_site_type_symbol
 _atom_site_label
 _atom_site_symmetry_multiplicity
 _atom_site_fract_x
 _atom_site_fract_y
 _atom_site_fract_z
 _atom_site_occupancy
  Y  Y0  1  0.99790940  0.66916605  0.25000953  1
  Y  Y1  1  0.00208931  0.33083356  0.74999006  1
  Y  Y2  1  0.66916655  0.99791181  0.25001096  1
  Y  Y3  1  0.33083358  0.00208854  0.74998959  1
  Ga  Ga0  1  0.33474654  0.33474647  0.56523607  1
  Ga  Ga1  1  0.66525319  0.66525343  0.43476421  1
  Ga  Ga2  1  0.66525112  0.66525764  0.06528743  1
  Ga  Ga3  1  0.33475021  0.33474071  0.93471178  1
  Ga  Ga4  1  0.33726789  0.54503874  0.25000144  1
  Ga  Ga5  1  0.66273272  0.45496148  0.74999959  1
  Ga  Ga6  1  0.54503911  0.33726907  0.25000048  1
  Ga  Ga7  1  0.45496169  0.66273154  0.74999876  1
  Ga  Ga8  1  0.00233352  0.33447901  0.07740506  1
  Ga  Ga9  1  0.99766491  0.66552044  0.92259515  1
  Ga  Ga10  1  0.99766066  0.66551492  0.57739145  1
  Ga  Ga11  1  0.33448444  0.00233880  0.42260855  1
  Ga  Ga12  1  0.00234031  0.33448542  0.42260867  1
  Ga  Ga13  1  0.66551511  0.99765990  0.57739164  1
  Ga  Ga14  1  0.66552085  0.99766779  0.92259473  1
  Ga  Ga15  1  0.33447963  0.00233453  0.07740544  1
  Ga  Ga16  1  0.12835848  0.12835846  0.25000793  1
  Ga  Ga17  1  0.87164178  0.87164157  0.74999242  1
  Rh  Rh0  1  -0.00000092  -0.00000001  -0.00000004  1
  Rh  Rh1  1  0.00000009  0.00000003  0.49999977  1
  Rh  Rh2  1  0.67150331  0.32849813  0.00000038  1
  Rh  Rh3  1  0.32849475  0.67150212  -0.00000003  1
  Rh  Rh4  1  0.32847040  0.67152970  0.50000034  1
  Rh  Rh5  1  0.67152938  0.32847016  0.49999964  1
loop_
_geom_bond_atom_site_label_1
_geom_bond_atom_site_label_2
_geom_bond_distance
_geom_bond_site_symmetry_2
Ga0 Rh1 2.588526 1_555
Ga0 Rh5 2.616641 1_555
Ga0 Rh4 2.616643 1_555
Ga0 Ga1 2.773580 1_555
Ga0 Ga7 2.777604 1_555
Ga0 Ga5 2.777617 1_555
Ga0 Ga12 2.830055 1_555
Ga0 Ga11 2.830059 1_555
Ga0 Y1 3.032425 1_555
Ga0 Y3 3.032429 1_555
Ga1 Rh1 2.588526 1_665
Ga1 Rh4 2.616640 1_555
Ga1 Rh5 2.616643 1_555
Ga1 Ga6 2.777608 1_555
Ga1 Ga4 2.777608 1_555
Ga1 Ga13 2.830051 1_555
Ga1 Ga10 2.830061 1_555
Ga1 Y0 3.032423 1_555
Ga1 Y2 3.032429 1_555
Ga2 Rh0 2.588642 1_665
Ga2 Rh3 2.616442 1_555
Ga2 Rh2 2.616491 1_555
Ga2 Ga3 2.774017 1_554
Ga2 Ga4 2.777316 1_555
Ga2 Ga6 2.777347 1_555
Ga2 Ga9 2.830401 1_554
Ga2 Y2 3.032220 1_555
Ga2 Y0 3.032261 1_555
Ga3 Rh0 2.588649 1_556
Ga3 Rh2 2.616414 1_556
Ga3 Rh3 2.616520 1_556
Ga3 Ga5 2.777300 1_555
Ga3 Ga7 2.777359 1_555
Ga3 Ga8 2.830428 1_556
Ga3 Y3 3.032197 1_555
Ga3 Y1 3.032278 1_555
Ga4 Rh3 2.568264 1_555
Ga4 Rh4 2.568350 1_555
Ga4 Ga6 2.687740 1_555
Ga4 Ga8 2.743492 1_555
Ga4 Y2 3.048218 1_555
Ga4 Y0 3.104827 1_455
Ga5 Rh2 2.568254 1_556
Ga5 Rh5 2.568359 1_555
Ga5 Ga7 2.687741 1_555
Ga5 Ga9 2.743477 1_555
Ga5 Y3 3.048218 1_555
Ga5 Y1 3.104817 1_655
Ga6 Rh2 2.568249 1_555
Ga6 Rh5 2.568354 1_555
Ga6 Y0 3.048200 1_555
Ga6 Y2 3.104819 1_545
Ga7 Rh3 2.568266 1_556
Ga7 Rh4 2.568349 1_555
Ga7 Y1 3.048213 1_555
Ga7 Y3 3.104820 1_565
Ga8 Rh2 2.560031 1_455
Ga8 Rh3 2.596822 1_555
Ga8 Rh0 2.598903 1_555
Ga8 Ga9 2.894329 1_454
Ga8 Y2 3.001373 1_445
Ga8 Y0 3.005731 1_455
Ga8 Y1 3.109158 1_554
Ga9 Rh3 2.560026 1_656
Ga9 Rh2 2.596820 1_556
Ga9 Rh0 2.598907 1_666
Ga9 Y3 3.001379 1_665
Ga9 Y1 3.005735 1_655
Ga9 Y0 3.109152 1_556
Ga10 Rh4 2.559735 1_655
Ga10 Rh5 2.596754 1_555
Ga10 Rh1 2.598900 1_665
Ga10 Ga17 2.718822 1_555
Ga10 Ga5 2.743541 1_555
Ga10 Ga12 2.894145 1_655
Ga10 Ga11 2.925013 1_665
Ga10 Y3 3.001350 1_665
Ga10 Y1 3.005693 1_655
Ga10 Y0 3.108845 1_555
Ga11 Rh4 2.559736 1_545
Ga11 Rh5 2.596753 1_555
Ga11 Rh1 2.598894 1_555
Ga11 Ga16 2.718823 1_555
Ga11 Ga6 2.743554 1_555
Ga11 Ga13 2.894154 1_545
Ga11 Y0 3.001359 1_445
Ga11 Y2 3.005685 1_545
Ga11 Y3 3.108836 1_555
Ga12 Rh5 2.559741 1_455
Ga12 Rh4 2.596748 1_555
Ga12 Rh1 2.598898 1_555
Ga12 Ga16 2.718819 1_555
Ga12 Ga4 2.743534 1_555
Ga12 Ga13 2.925023 1_445
Ga12 Y2 3.001350 1_445
Ga12 Y0 3.005699 1_455
Ga12 Y1 3.108839 1_555
Ga13 Rh5 2.559744 1_565
Ga13 Rh4 2.596749 1_555
Ga13 Rh1 2.598896 1_665
Ga13 Ga17 2.718822 1_555
Ga13 Ga7 2.743538 1_555
Ga13 Y1 3.001356 1_665
Ga13 Y3 3.005688 1_565
Ga13 Y2 3.108833 1_555
Ga14 Rh2 2.560028 1_566
Ga14 Rh3 2.596849 1_556
Ga14 Rh0 2.598907 1_666
Ga14 Ga17 2.718836 1_555
Ga14 Ga7 2.743497 1_555
Ga14 Ga2 2.830359 1_556
Ga14 Ga15 2.894322 1_566
Ga14 Ga8 2.925046 1_666
Ga14 Y1 3.001367 1_665
Ga14 Y3 3.005728 1_565
Ga14 Y2 3.109170 1_556
Ga15 Rh3 2.560034 1_545
Ga15 Rh2 2.596832 1_555
Ga15 Rh0 2.598916 1_555
Ga15 Ga16 2.718827 1_555
Ga15 Ga6 2.743484 1_555
Ga15 Ga3 2.830334 1_554
Ga15 Ga9 2.925062 1_444
Ga15 Y0 3.001378 1_445
Ga15 Y2 3.005735 1_545
Ga15 Y3 3.109166 1_554
Ga16 Rh1 2.562031 1_555
Ga16 Rh0 2.562161 1_555
Ga16 Ga4 2.705817 1_555
Ga16 Ga6 2.705819 1_555
Ga16 Ga8 2.718834 1_555
Ga16 Y0 3.069376 1_445
Ga16 Y2 3.069377 1_445
Ga17 Rh1 2.562038 1_665
Ga17 Rh0 2.562154 1_666
Ga17 Ga5 2.705815 1_555
Ga17 Ga7 2.705815 1_555
Ga17 Ga9 2.718828 1_555
Ga17 Y3 3.069375 1_665
Ga17 Y1 3.069375 1_665
