# generated using pymatgen
data_Pr(Al2Cr)4
_symmetry_space_group_name_H-M   'P 1'
_cell_length_a   5.06387900
_cell_length_b   6.86132554
_cell_length_c   6.86132554
_cell_angle_alpha   82.17355001
_cell_angle_beta   68.34504590
_cell_angle_gamma   68.34504590
_symmetry_Int_Tables_number   1
_chemical_formula_structural   Pr(Al2Cr)4
_chemical_formula_sum   'Pr1 Al8 Cr4'
_cell_volume   205.93311133
_cell_formula_units_Z   1
loop_
 _symmetry_equiv_pos_site_id
 _symmetry_equiv_pos_as_xyz
  1  'x, y, z'
loop_
 _atom_site_type_symbol
 _atom_site_label
 _atom_site_symmetry_multiplicity
 _atom_site_fract_x
 _atom_site_fract_y
 _atom_site_fract_z
 _atom_site_occupancy
  Pr  Pr0  1  0.00000000  0.00000000  0.00000000  1
  Al  Al0  1  0.00000000  0.34136900  0.65863100  1
  Al  Al1  1  0.00000000  0.65863100  0.34136900  1
  Al  Al2  1  0.65863100  0.34136900  0.34136900  1
  Al  Al3  1  0.34136900  0.65863100  0.65863100  1
  Al  Al4  1  0.50000000  0.77339300  0.22660700  1
  Al  Al5  1  0.50000000  0.22660700  0.77339300  1
  Al  Al6  1  0.72660700  0.77339300  0.77339300  1
  Al  Al7  1  0.27339300  0.22660700  0.22660700  1
  Cr  Cr0  1  0.00000000  0.00000000  0.50000000  1
  Cr  Cr1  1  0.50000000  0.00000000  0.50000000  1
  Cr  Cr2  1  0.50000000  0.50000000  0.00000000  1
  Cr  Cr3  1  0.00000000  0.50000000  0.00000000  1
loop_
_geom_bond_atom_site_label_1
_geom_bond_atom_site_label_2
_geom_bond_distance
_geom_bond_site_symmetry_2
Al0 Cr1 2.713865 1_555
Al0 Cr2 2.713865 1_456
Al0 Cr0 2.713865 1_555
Al0 Cr3 2.713865 1_556
Al0 Al5 2.735309 1_455
Al0 Al5 2.735309 1_555
Al0 Al7 2.850595 1_555
Al0 Al6 2.850595 1_455
Al0 Al1 2.861241 1_555
Al0 Pr0 3.078651 1_556
Al1 Cr2 2.713865 1_555
Al1 Cr1 2.713865 1_465
Al1 Cr3 2.713865 1_555
Al1 Cr0 2.713865 1_565
Al1 Al4 2.735309 1_455
Al1 Al4 2.735309 1_555
Al1 Al7 2.850595 1_555
Al1 Al6 2.850595 1_455
Al1 Pr0 3.078651 1_565
Al2 Cr0 2.713865 1_655
Al2 Cr3 2.713865 1_655
Al2 Cr2 2.713865 1_555
Al2 Cr1 2.713865 1_555
Al2 Al7 2.735309 1_655
Al2 Al7 2.735309 1_555
Al2 Al4 2.850595 1_555
Al2 Al5 2.850595 1_555
Al2 Al3 2.861241 1_555
Al2 Pr0 3.078651 1_655
Al3 Cr3 2.713865 1_556
Al3 Cr0 2.713865 1_565
Al3 Cr2 2.713865 1_556
Al3 Cr1 2.713865 1_565
Al3 Al6 2.735309 1_455
Al3 Al6 2.735309 1_555
Al3 Al4 2.850595 1_555
Al3 Al5 2.850595 1_555
Al3 Pr0 3.078651 1_566
Al4 Cr0 2.594334 1_565
Al4 Cr3 2.594334 1_655
Al4 Cr1 2.594335 1_565
Al4 Cr2 2.594335 1_555
Al4 Al7 2.890179 1_565
Al4 Al6 2.890179 1_554
Al4 Pr0 3.253811 1_565
Al4 Pr0 3.253811 1_665
Al5 Cr0 2.594334 1_655
Al5 Cr3 2.594334 1_556
Al5 Cr2 2.594335 1_556
Al5 Cr1 2.594335 1_555
Al5 Al6 2.890179 1_545
Al5 Al7 2.890179 1_556
Al5 Pr0 3.253811 1_556
Al5 Pr0 3.253811 1_656
Al6 Cr0 2.594335 1_665
Al6 Cr3 2.594335 1_656
Al6 Cr2 2.594335 1_556
Al6 Cr1 2.594335 1_565
Al6 Pr0 3.253811 1_566
Al6 Pr0 3.253811 1_666
Al7 Cr3 2.594335 1_555
Al7 Cr0 2.594335 1_555
Al7 Cr2 2.594335 1_555
Al7 Cr1 2.594335 1_555
Al7 Pr0 3.253811 1_655
Al7 Pr0 3.253811 1_555
Cr0 Cr1 2.531940 1_555
Cr0 Cr1 2.531940 1_455
Cr0 Pr0 3.430663 1_556
Cr0 Pr0 3.430663 1_555
Cr1 Pr0 3.430663 1_556
Cr1 Pr0 3.430663 1_655
Cr2 Cr3 2.531940 1_555
Cr2 Cr3 2.531940 1_655
Cr2 Pr0 3.430663 1_565
Cr2 Pr0 3.430663 1_655
Cr3 Pr0 3.430663 1_565
Cr3 Pr0 3.430663 1_555
