# generated using pymatgen
data_K2UC2S2NO8
_symmetry_space_group_name_H-M   'P 1'
_cell_length_a   7.23502600
_cell_length_b   11.69559208
_cell_length_c   14.14458128
_cell_angle_alpha   93.37512670
_cell_angle_beta   90.00000000
_cell_angle_gamma   90.00000000
_symmetry_Int_Tables_number   1
_chemical_formula_structural   K2UC2S2NO8
_chemical_formula_sum   'K8 U4 C8 S8 N4 O32'
_cell_volume   1194.80892391
_cell_formula_units_Z   4
loop_
 _symmetry_equiv_pos_site_id
 _symmetry_equiv_pos_as_xyz
  1  'x, y, z'
loop_
 _atom_site_type_symbol
 _atom_site_label
 _atom_site_symmetry_multiplicity
 _atom_site_fract_x
 _atom_site_fract_y
 _atom_site_fract_z
 _atom_site_occupancy
  K  K0  1  0.57161900  0.82773000  0.86090400  1
  K  K1  1  0.42838100  0.17227000  0.13909600  1
  K  K2  1  0.07161900  0.17227000  0.63909600  1
  K  K3  1  0.92838100  0.82773000  0.36090400  1
  K  K4  1  0.84458300  0.54112000  0.64821700  1
  K  K5  1  0.15541700  0.45888000  0.35178300  1
  K  K6  1  0.34458300  0.45888000  0.85178300  1
  K  K7  1  0.65541700  0.54112000  0.14821700  1
  U  U0  1  0.86093600  0.25646000  0.96230900  1
  U  U1  1  0.13906400  0.74354000  0.03769100  1
  U  U2  1  0.36093600  0.74354000  0.53769100  1
  U  U3  1  0.63906400  0.25646000  0.46230900  1
  C  C0  1  0.91020600  0.97575900  0.97884700  1
  C  C1  1  0.08979400  0.02424100  0.02115300  1
  C  C2  1  0.41020600  0.02424100  0.52115300  1
  C  C3  1  0.58979400  0.97575900  0.47884700  1
  C  C4  1  0.96205000  0.84727300  0.64502700  1
  C  C5  1  0.03795000  0.15272700  0.35497300  1
  C  C6  1  0.46205000  0.15272700  0.85497300  1
  C  C7  1  0.53795000  0.84727300  0.14502700  1
  S  S0  1  0.84023300  0.94363000  0.70143500  1
  S  S1  1  0.15976700  0.05637000  0.29856500  1
  S  S2  1  0.34023300  0.05637000  0.79856500  1
  S  S3  1  0.65976700  0.94363000  0.20143500  1
  S  S4  1  0.82322500  0.55174900  0.90205900  1
  S  S5  1  0.17677500  0.44825100  0.09794100  1
  S  S6  1  0.32322500  0.44825100  0.59794100  1
  S  S7  1  0.67677500  0.55174900  0.40205900  1
  N  N0  1  0.55331100  0.22365500  0.89780100  1
  N  N1  1  0.44668900  0.77634500  0.10219900  1
  N  N2  1  0.05331100  0.77634500  0.60219900  1
  N  N3  1  0.94668900  0.22365500  0.39780100  1
  O  O0  1  0.45939500  0.75463800  0.65551400  1
  O  O1  1  0.54060500  0.24536200  0.34448600  1
  O  O2  1  0.95939500  0.24536200  0.84448600  1
  O  O3  1  0.04060500  0.75463800  0.15551400  1
  O  O4  1  0.29358200  0.95250300  0.54846300  1
  O  O5  1  0.70641800  0.04749700  0.45153700  1
  O  O6  1  0.79358200  0.04749700  0.95153700  1
  O  O7  1  0.20641800  0.95250300  0.04846300  1
  O  O8  1  0.97831200  0.52393800  0.83857500  1
  O  O9  1  0.02168800  0.47606200  0.16142500  1
  O  O10  1  0.47831200  0.47606200  0.66142500  1
  O  O11  1  0.52168800  0.52393800  0.33857500  1
  O  O12  1  0.74889200  0.44429300  0.94515600  1
  O  O13  1  0.25110800  0.55570700  0.05484400  1
  O  O14  1  0.24889200  0.55570700  0.55484400  1
  O  O15  1  0.75110800  0.44429300  0.44515600  1
  O  O16  1  0.89319100  0.86777100  0.97421000  1
  O  O17  1  0.10680900  0.13222900  0.02579000  1
  O  O18  1  0.39319100  0.13222900  0.52579000  1
  O  O19  1  0.60680900  0.86777100  0.47421000  1
  O  O20  1  0.23890300  0.73466600  0.91970600  1
  O  O21  1  0.76109700  0.26533400  0.08029400  1
  O  O22  1  0.73890300  0.26533400  0.58029400  1
  O  O23  1  0.26109700  0.73466600  0.41970600  1
  O  O24  1  0.66857400  0.60560200  0.85388200  1
  O  O25  1  0.33142600  0.39439800  0.14611800  1
  O  O26  1  0.16857400  0.39439800  0.64611800  1
  O  O27  1  0.83142600  0.60560200  0.35388200  1
  O  O28  1  0.88404200  0.62847700  0.98657600  1
  O  O29  1  0.11595800  0.37152300  0.01342400  1
  O  O30  1  0.38404200  0.37152300  0.51342400  1
  O  O31  1  0.61595800  0.62847700  0.48657600  1
loop_
_geom_bond_atom_site_label_1
_geom_bond_atom_site_label_2
_geom_bond_distance
_geom_bond_site_symmetry_2
K0 O24 2.687141 1_555
K0 O20 2.788857 1_555
K0 O16 2.848237 1_555
K0 O0 3.088290 1_555
K0 O6 3.231233 1_565
K0 S2 3.317890 1_565
K0 S0 3.325988 1_555
K1 O25 2.687141 1_555
K1 O21 2.788857 1_555
K1 O17 2.848237 1_555
K1 O1 3.088290 1_555
K1 O7 3.231233 1_545
K1 S3 3.317890 1_545
K1 S1 3.325988 1_555
K2 O26 2.687141 1_555
K2 O22 2.788857 1_455
K2 O18 2.848237 1_555
K2 O2 3.088290 1_455
K2 O4 3.231233 1_545
K2 S0 3.317890 1_445
K2 S2 3.325988 1_555
K3 O27 2.687141 1_555
K3 O23 2.788857 1_655
K3 O19 2.848237 1_555
K3 O3 3.088290 1_655
K3 O5 3.231233 1_565
K3 S1 3.317890 1_665
K3 S3 3.325988 1_555
K4 O10 2.766404 1_555
K4 O8 2.879228 1_555
K4 O26 2.904181 1_655
K4 O31 3.046694 1_555
K4 O15 3.099425 1_555
K4 O14 3.218176 1_655
K4 O24 3.224065 1_555
K4 N2 3.237841 1_655
K4 O22 3.398012 1_555
K5 O11 2.766404 1_555
K5 O9 2.879228 1_555
K5 O27 2.904181 1_455
K5 O30 3.046694 1_555
K5 O14 3.099425 1_555
K5 O15 3.218176 1_455
K5 O25 3.224065 1_555
K5 N3 3.237841 1_455
K5 O23 3.398012 1_555
K6 O8 2.766404 1_455
K6 O10 2.879228 1_555
K6 O24 2.904181 1_555
K6 O29 3.046694 1_556
K6 O13 3.099425 1_556
K6 O12 3.218176 1_555
K6 O26 3.224065 1_555
K6 N0 3.237841 1_555
K6 O20 3.398012 1_555
K7 O9 2.766404 1_655
K7 O11 2.879228 1_555
K7 O25 2.904181 1_555
K7 O28 3.046694 1_554
K7 O12 3.099425 1_554
K7 O13 3.218176 1_555
K7 O27 3.224065 1_555
K7 N1 3.237841 1_555
K7 O21 3.398012 1_555
C0 O6 1.266212 1_565
C0 O16 1.266819 1_555
C1 O7 1.266212 1_545
C1 O17 1.266819 1_555
C2 O4 1.266212 1_545
C2 O18 1.266819 1_555
C3 O5 1.266212 1_565
C3 O19 1.266819 1_555
C4 N2 1.196626 1_655
C4 S0 1.605465 1_555
C5 N3 1.196626 1_455
C5 S1 1.605465 1_555
C6 N0 1.196626 1_555
C6 S2 1.605465 1_555
C7 N1 1.196626 1_555
C7 S3 1.605465 1_555
N0 U0 2.427377 1_555
N1 U1 2.427377 1_555
N2 U2 2.427377 1_555
N3 U3 2.427377 1_555
O0 U2 1.810038 1_555
O1 U3 1.810038 1_555
O2 U0 1.810038 1_555
O3 U1 1.810038 1_555
O4 U2 2.487913 1_555
O5 U3 2.487913 1_555
O6 U0 2.487913 1_555
O7 U1 2.487913 1_555
O8 S4 1.461761 1_555
O9 S5 1.461761 1_555
O10 S6 1.461761 1_555
O11 S7 1.461761 1_555
O12 S4 1.526592 1_555
O12 U0 2.367440 1_555
O13 S5 1.526592 1_555
O13 U1 2.367440 1_555
O14 S6 1.526592 1_555
O14 U2 2.367440 1_555
O15 S7 1.526592 1_555
O15 U3 2.367440 1_555
O16 U1 2.497081 1_656
O17 U0 2.497081 1_454
O18 U3 2.497081 1_555
O19 U2 2.497081 1_555
O20 U1 1.815821 1_556
O21 U0 1.815821 1_554
O22 U3 1.815821 1_555
O23 U2 1.815821 1_555
O24 S4 1.470901 1_555
O25 S5 1.470901 1_555
O26 S6 1.470901 1_555
O27 S7 1.470901 1_555
O28 S4 1.517137 1_555
O28 U1 2.371395 1_656
O29 S5 1.517137 1_555
O29 U0 2.371395 1_454
O30 S6 1.517137 1_555
O30 U3 2.371395 1_555
O31 S7 1.517137 1_555
O31 U2 2.371395 1_555
