# generated using pymatgen
data_Ho(BRh)4
_symmetry_space_group_name_H-M   'P 1'
_cell_length_a   5.33443700
_cell_length_b   5.33443700
_cell_length_c   7.44251500
_cell_angle_alpha   90.00000000
_cell_angle_beta   90.00000000
_cell_angle_gamma   90.00000000
_symmetry_Int_Tables_number   1
_chemical_formula_structural   Ho(BRh)4
_chemical_formula_sum   'Ho2 B8 Rh8'
_cell_volume   211.78583010
_cell_formula_units_Z   2
loop_
 _symmetry_equiv_pos_site_id
 _symmetry_equiv_pos_as_xyz
  1  'x, y, z'
loop_
 _atom_site_type_symbol
 _atom_site_label
 _atom_site_symmetry_multiplicity
 _atom_site_fract_x
 _atom_site_fract_y
 _atom_site_fract_z
 _atom_site_occupancy
  Ho  Ho0  1  0.00000000  0.00000000  0.00000000  1
  Ho  Ho1  1  0.50000000  0.50000000  0.50000000  1
  B  B0  1  0.83058800  0.50000000  0.15086700  1
  B  B1  1  0.16941200  0.50000000  0.15086700  1
  B  B2  1  0.00000000  0.33058800  0.65086700  1
  B  B3  1  0.00000000  0.66941200  0.65086700  1
  B  B4  1  0.66941200  0.00000000  0.34913300  1
  B  B5  1  0.33058800  0.00000000  0.34913300  1
  B  B6  1  0.50000000  0.16941200  0.84913300  1
  B  B7  1  0.50000000  0.83058800  0.84913300  1
  Rh  Rh0  1  0.25111600  0.50000000  0.85538400  1
  Rh  Rh1  1  0.74888400  0.50000000  0.85538400  1
  Rh  Rh2  1  0.00000000  0.75111600  0.35538400  1
  Rh  Rh3  1  0.00000000  0.24888400  0.35538400  1
  Rh  Rh4  1  0.24888400  0.00000000  0.64461600  1
  Rh  Rh5  1  0.75111600  0.00000000  0.64461600  1
  Rh  Rh6  1  0.50000000  0.74888400  0.14461600  1
  Rh  Rh7  1  0.50000000  0.25111600  0.14461600  1
loop_
_geom_bond_atom_site_label_1
_geom_bond_atom_site_label_2
_geom_bond_distance
_geom_bond_site_symmetry_2
Ho0 Rh2 2.959465 1_545
Ho0 Rh3 2.959465 1_555
Ho0 Rh5 2.959465 1_454
Ho0 Rh4 2.959465 1_554
Ho0 Rh1 3.172841 1_444
Ho0 Rh0 3.172841 1_544
Ho0 Rh1 3.172841 1_454
Ho0 Rh6 3.172841 1_445
Ho0 Rh7 3.172841 1_555
Ho0 Rh6 3.172841 1_545
Ho0 Rh7 3.172841 1_455
Ho0 Rh0 3.172841 1_554
Ho1 Rh6 2.959465 1_555
Ho1 Rh1 2.959465 1_555
Ho1 Rh0 2.959465 1_555
Ho1 Rh7 2.959465 1_555
Ho1 Rh4 3.172841 1_565
Ho1 Rh5 3.172841 1_565
Ho1 Rh4 3.172841 1_555
Ho1 Rh5 3.172841 1_555
Ho1 Rh3 3.172841 1_555
Ho1 Rh2 3.172841 1_555
Ho1 Rh3 3.172841 1_655
Ho1 Rh2 3.172841 1_655
B0 B1 1.807435 1_655
B0 Rh7 2.207888 1_555
B0 Rh6 2.207888 1_555
B0 Rh3 2.219907 1_655
B0 Rh2 2.219907 1_655
B0 Rh1 2.241911 1_554
B0 Ho0 3.031750 1_655
B0 Ho0 3.031750 1_665
B0 Ho1 3.140344 1_555
B1 Rh7 2.207888 1_555
B1 Rh6 2.207888 1_555
B1 Rh3 2.219907 1_555
B1 Rh2 2.219907 1_555
B1 Rh0 2.241911 1_554
B1 Ho0 3.031750 1_565
B1 Ho0 3.031750 1_555
B1 Ho1 3.140344 1_555
B2 B3 1.807435 1_555
B2 Rh4 2.207888 1_555
B2 Rh5 2.207888 1_455
B2 Rh0 2.219907 1_555
B2 Rh1 2.219907 1_455
B2 Rh3 2.241911 1_555
B2 Ho1 3.031750 1_455
B2 Ho1 3.031750 1_555
B2 Ho0 3.140344 1_556
B3 Rh5 2.207888 1_465
B3 Rh4 2.207888 1_565
B3 Rh0 2.219907 1_555
B3 Rh1 2.219907 1_455
B3 Rh2 2.241911 1_555
B3 Ho1 3.031750 1_455
B3 Ho1 3.031750 1_555
B3 Ho0 3.140344 1_566
B4 B5 1.807435 1_555
B4 Rh3 2.207888 1_655
B4 Rh2 2.207888 1_645
B4 Rh7 2.219907 1_555
B4 Rh6 2.219907 1_545
B4 Rh5 2.241911 1_555
B4 Ho1 3.031750 1_545
B4 Ho1 3.031750 1_555
B4 Ho0 3.140344 1_655
B5 Rh2 2.207888 1_545
B5 Rh3 2.207888 1_555
B5 Rh7 2.219907 1_555
B5 Rh6 2.219907 1_545
B5 Rh4 2.241911 1_555
B5 Ho1 3.031750 1_545
B5 Ho1 3.031750 1_555
B5 Ho0 3.140344 1_555
B6 B7 1.807435 1_545
B6 Rh1 2.207888 1_555
B6 Rh0 2.207888 1_555
B6 Rh5 2.219907 1_555
B6 Rh4 2.219907 1_555
B6 Rh7 2.241911 1_556
B6 Ho0 3.031750 1_556
B6 Ho0 3.031750 1_656
B6 Ho1 3.140344 1_555
B7 Rh1 2.207888 1_555
B7 Rh0 2.207888 1_555
B7 Rh5 2.219907 1_565
B7 Rh4 2.219907 1_565
B7 Rh6 2.241911 1_556
B7 Ho0 3.031750 1_566
B7 Ho0 3.031750 1_666
B7 Ho1 3.140344 1_555
