# generated using pymatgen
data_Cs2BeCl4
_symmetry_space_group_name_H-M   'P 1'
_cell_length_a   7.20360426
_cell_length_b   9.70882094
_cell_length_c   12.52650730
_cell_angle_alpha   90.00000000
_cell_angle_beta   90.00000000
_cell_angle_gamma   90.00000000
_symmetry_Int_Tables_number   1
_chemical_formula_structural   Cs2BeCl4
_chemical_formula_sum   'Cs8 Be4 Cl16'
_cell_volume   876.08517944
_cell_formula_units_Z   4
loop_
 _symmetry_equiv_pos_site_id
 _symmetry_equiv_pos_as_xyz
  1  'x, y, z'
loop_
 _atom_site_type_symbol
 _atom_site_label
 _atom_site_symmetry_multiplicity
 _atom_site_fract_x
 _atom_site_fract_y
 _atom_site_fract_z
 _atom_site_occupancy
  Cs  Cs0  1  0.25000000  0.14853985  0.60210697  1
  Cs  Cs1  1  0.25000000  0.64853985  0.89789303  1
  Cs  Cs2  1  0.75000000  0.85146015  0.39789303  1
  Cs  Cs3  1  0.75000000  0.35146015  0.10210697  1
  Cs  Cs4  1  0.25000000  0.47597521  0.32395989  1
  Cs  Cs5  1  0.25000000  0.97597521  0.17604011  1
  Cs  Cs6  1  0.75000000  0.52402479  0.67604011  1
  Cs  Cs7  1  0.75000000  0.02402479  0.82395989  1
  Be  Be0  1  0.25000000  0.24229823  0.91859517  1
  Be  Be1  1  0.25000000  0.74229823  0.58140483  1
  Be  Be2  1  0.75000000  0.75770177  0.08140483  1
  Be  Be3  1  0.75000000  0.25770177  0.41859517  1
  Cl  Cl0  1  0.25000000  0.53437091  0.59971426  1
  Cl  Cl1  1  0.25000000  0.03437091  0.90028574  1
  Cl  Cl2  1  0.75000000  0.46562909  0.40028574  1
  Cl  Cl3  1  0.75000000  0.96562909  0.09971426  1
  Cl  Cl4  1  0.25000000  0.30387452  0.07421164  1
  Cl  Cl5  1  0.25000000  0.80387452  0.42578836  1
  Cl  Cl6  1  0.75000000  0.69612548  0.92578836  1
  Cl  Cl7  1  0.75000000  0.19612548  0.57421164  1
  Cl  Cl8  1  0.98096932  0.67807858  0.15159172  1
  Cl  Cl9  1  0.51903068  0.17807858  0.34840828  1
  Cl  Cl10  1  0.48096932  0.32192142  0.84840828  1
  Cl  Cl11  1  0.01903068  0.82192142  0.65159172  1
  Cl  Cl12  1  0.01903068  0.32192142  0.84840828  1
  Cl  Cl13  1  0.48096932  0.82192142  0.65159172  1
  Cl  Cl14  1  0.51903068  0.67807858  0.15159172  1
  Cl  Cl15  1  0.98096932  0.17807858  0.34840828  1
loop_
_geom_bond_atom_site_label_1
_geom_bond_atom_site_label_2
_geom_bond_distance
_geom_bond_site_symmetry_2
Be0 Cl1 2.031716 1_555
Be0 Cl12 2.034418 1_555
Be0 Cl10 2.034418 1_555
Be0 Cl4 2.038945 1_556
Be1 Cl0 2.031716 1_555
Be1 Cl13 2.034418 1_555
Be1 Cl11 2.034418 1_555
Be1 Cl5 2.038945 1_555
Be2 Cl3 2.031716 1_555
Be2 Cl8 2.034418 1_555
Be2 Cl14 2.034418 1_555
Be2 Cl6 2.038945 1_554
Be3 Cl2 2.031716 1_555
Be3 Cl15 2.034418 1_555
Be3 Cl9 2.034418 1_555
Be3 Cl7 2.038945 1_555
Cl0 Cs4 3.500458 1_555
Cl0 Cs6 3.727893 1_555
Cl0 Cs6 3.727893 1_455
Cl0 Cs0 3.746085 1_555
Cl0 Cs1 3.896141 1_555
Cl1 Cs5 3.500458 1_546
Cl1 Cs7 3.727893 1_455
Cl1 Cs7 3.727893 1_555
Cl1 Cs1 3.746085 1_545
Cl1 Cs0 3.896141 1_555
Cl2 Cs6 3.500458 1_555
Cl2 Cs4 3.727893 1_655
Cl2 Cs4 3.727893 1_555
Cl2 Cs2 3.746085 1_555
Cl2 Cs3 3.896141 1_555
Cl3 Cs7 3.500458 1_564
Cl3 Cs5 3.727893 1_555
Cl3 Cs5 3.727893 1_655
Cl3 Cs3 3.746085 1_565
Cl3 Cs2 3.896141 1_555
Cl4 Cs5 3.429550 1_545
Cl4 Cs4 3.546722 1_555
Cl4 Cs3 3.648085 1_555
Cl4 Cs3 3.648085 1_455
Cl4 Cs1 4.009470 1_554
Cl5 Cs4 3.429550 1_555
Cl5 Cs5 3.546722 1_555
Cl5 Cs2 3.648085 1_555
Cl5 Cs2 3.648085 1_455
Cl5 Cs0 4.009470 1_565
Cl6 Cs7 3.429550 1_565
Cl6 Cs6 3.546722 1_555
Cl6 Cs1 3.648085 1_655
Cl6 Cs1 3.648085 1_555
Cl6 Cs3 4.009470 1_556
Cl7 Cs6 3.429550 1_555
Cl7 Cs7 3.546722 1_555
Cl7 Cs0 3.648085 1_555
Cl7 Cs0 3.648085 1_655
Cl7 Cs2 4.009470 1_545
Cl8 Cs5 3.494934 1_655
Cl8 Cs4 3.502570 1_655
Cl8 Cs3 3.634317 1_555
Cl8 Cs1 3.733293 1_654
Cl8 Cs2 3.888562 1_555
Cl9 Cs4 3.494934 1_555
Cl9 Cs5 3.502570 1_545
Cl9 Cs2 3.634317 1_545
Cl9 Cs0 3.733293 1_555
Cl9 Cs3 3.888562 1_555
Cl10 Cs7 3.494934 1_555
Cl10 Cs6 3.502570 1_555
Cl10 Cs1 3.634317 1_555
Cl10 Cs3 3.733293 1_556
Cl10 Cs0 3.888562 1_555
Cl11 Cs6 3.494934 1_455
Cl11 Cs7 3.502570 1_465
Cl11 Cs0 3.634317 1_565
Cl11 Cs2 3.733293 1_455
Cl11 Cs1 3.888562 1_555
Cl12 Cs7 3.494934 1_455
Cl12 Cs6 3.502570 1_455
Cl12 Cs1 3.634317 1_555
Cl12 Cs3 3.733293 1_456
Cl12 Cs0 3.888562 1_555
Cl13 Cs6 3.494934 1_555
Cl13 Cs7 3.502570 1_565
Cl13 Cs0 3.634317 1_565
Cl13 Cs2 3.733293 1_555
Cl13 Cs1 3.888562 1_555
Cl14 Cs5 3.494934 1_555
Cl14 Cs4 3.502570 1_555
Cl14 Cs3 3.634317 1_555
Cl14 Cs1 3.733293 1_554
Cl14 Cs2 3.888562 1_555
Cl15 Cs4 3.494934 1_655
Cl15 Cs5 3.502570 1_645
Cl15 Cs2 3.634317 1_545
Cl15 Cs0 3.733293 1_655
Cl15 Cs3 3.888562 1_555
