# generated using pymatgen
data_Na(Ti3Se4)2
_symmetry_space_group_name_H-M   'P 1'
_cell_length_a   9.82603261
_cell_length_b   9.77220311
_cell_length_c   3.67508727
_cell_angle_alpha   90.00074893
_cell_angle_beta   90.00686240
_cell_angle_gamma   120.28009655
_symmetry_Int_Tables_number   1
_chemical_formula_structural   Na(Ti3Se4)2
_chemical_formula_sum   'Na1 Ti6 Se8'
_cell_volume   304.74477463
_cell_formula_units_Z   1
loop_
 _symmetry_equiv_pos_site_id
 _symmetry_equiv_pos_as_xyz
  1  'x, y, z'
loop_
 _atom_site_type_symbol
 _atom_site_label
 _atom_site_symmetry_multiplicity
 _atom_site_fract_x
 _atom_site_fract_y
 _atom_site_fract_z
 _atom_site_occupancy
  Na  Na0  1  0.00000088  0.00000216  0.50000111  1
  Ti  Ti0  1  0.12659827  0.49145142  0.74931936  1
  Ti  Ti1  1  0.51080382  0.63765534  0.74934926  1
  Ti  Ti2  1  0.36400259  0.87328403  0.74933521  1
  Ti  Ti3  1  0.87337145  0.50851637  0.25066936  1
  Ti  Ti4  1  0.48920687  0.36233823  0.25066381  1
  Ti  Ti5  1  0.63601064  0.12674397  0.25067651  1
  Se  Se0  1  0.66684146  0.33306496  0.75048332  1
  Se  Se1  1  0.33316424  0.66694011  0.24952098  1
  Se  Se2  1  0.29650334  0.34379577  0.75096527  1
  Se  Se3  1  0.65665283  0.95376505  0.75107829  1
  Se  Se4  1  0.04628426  0.70286748  0.75107919  1
  Se  Se5  1  0.70350805  0.65619834  0.24901499  1
  Se  Se6  1  0.34337295  0.04626998  0.24894350  1
  Se  Se7  1  0.95367836  0.29710676  0.24889984  1
loop_
_geom_bond_atom_site_label_1
_geom_bond_atom_site_label_2
_geom_bond_distance
_geom_bond_site_symmetry_2
Na0 Se2 3.279378 1_555
Na0 Se5 3.279423 1_445
Na0 Se7 3.289524 1_455
Na0 Se4 3.289556 1_545
Na0 Se3 3.301704 1_445
Na0 Se6 3.301795 1_555
Se0 Ti5 2.629571 1_555
Se0 Ti5 2.630651 1_556
Se0 Ti3 2.631383 1_555
Se0 Ti3 2.631967 1_556
Se0 Ti4 2.646755 1_555
Se0 Ti4 2.647961 1_556
Se1 Ti2 2.629729 1_555
Se1 Ti2 2.630770 1_554
Se1 Ti0 2.631595 1_555
Se1 Ti0 2.632259 1_554
Se1 Ti1 2.646862 1_555
Se1 Ti1 2.648023 1_554
Se2 Ti1 2.565633 1_555
Se2 Ti4 2.577570 1_556
Se2 Ti4 2.579475 1_555
Se2 Ti0 2.701588 1_555
Se3 Ti2 2.570388 1_555
Se3 Ti5 2.572052 1_566
Se3 Ti5 2.574158 1_565
Se3 Ti1 2.670556 1_555
Se4 Ti0 2.556442 1_555
Se4 Ti3 2.571295 1_456
Se4 Ti3 2.573121 1_455
Se4 Ti2 2.697541 1_555
Se5 Ti4 2.565639 1_555
Se5 Ti1 2.577487 1_554
Se5 Ti1 2.579565 1_555
Se5 Ti3 2.701442 1_555
Se6 Ti5 2.570287 1_555
Se6 Ti2 2.572076 1_544
Se6 Ti2 2.574129 1_545
Se6 Ti4 2.670204 1_555
Se7 Ti3 2.556331 1_555
Se7 Ti0 2.571264 1_654
Se7 Ti0 2.573141 1_655
Se7 Ti5 2.697103 1_555
