# generated using pymatgen
data_U2CoSi3
_symmetry_space_group_name_H-M   'P 1'
_cell_length_a   3.72555900
_cell_length_b   4.02462400
_cell_length_c   6.89314300
_cell_angle_alpha   90.00000000
_cell_angle_beta   90.00000000
_cell_angle_gamma   90.00000000
_symmetry_Int_Tables_number   1
_chemical_formula_structural   U2CoSi3
_chemical_formula_sum   'U2 Co1 Si3'
_cell_volume   103.35560806
_cell_formula_units_Z   1
loop_
 _symmetry_equiv_pos_site_id
 _symmetry_equiv_pos_as_xyz
  1  'x, y, z'
loop_
 _atom_site_type_symbol
 _atom_site_label
 _atom_site_symmetry_multiplicity
 _atom_site_fract_x
 _atom_site_fract_y
 _atom_site_fract_z
 _atom_site_occupancy
  U  U0  1  0.00000000  0.50000000  0.00968700  1
  U  U1  1  0.00000000  0.00000000  0.49339400  1
  Co  Co0  1  0.50000000  0.50000000  0.32939100  1
  Si  Si0  1  0.50000000  0.00000000  0.83402300  1
  Si  Si1  1  0.50000000  0.00000000  0.17233500  1
  Si  Si2  1  0.50000000  0.50000000  0.66117000  1
loop_
_geom_bond_atom_site_label_1
_geom_bond_atom_site_label_2
_geom_bond_distance
_geom_bond_site_symmetry_2
Co0 Si1 2.285048 1_565
Co0 Si1 2.285048 1_555
Co0 Si2 2.287000 1_555
Co0 U0 2.885573 1_555
Co0 U0 2.885573 1_655
Co0 U1 2.966036 1_555
Co0 U1 2.966036 1_565
Co0 U1 2.966036 1_655
Co0 U1 2.966036 1_665
Si0 Si1 2.332033 1_556
Si0 Si2 2.338605 1_555
Si0 Si2 2.338605 1_545
Si0 U1 2.997177 1_655
Si0 U1 2.997177 1_555
Si0 U0 2.997594 1_646
Si0 U0 2.997594 1_556
Si0 U0 2.997594 1_656
Si0 U0 2.997594 1_546
Si1 U1 2.892712 1_555
Si1 U1 2.892712 1_655
Si1 U0 2.962488 1_545
Si1 U0 2.962488 1_655
Si1 U0 2.962488 1_555
Si1 U0 2.962488 1_645
Si2 U1 2.976046 1_565
Si2 U1 2.976046 1_655
Si2 U1 2.976046 1_665
Si2 U1 2.976046 1_555
Si2 U0 3.039961 1_556
Si2 U0 3.039961 1_656
