# generated using pymatgen
data_CuNi3
_symmetry_space_group_name_H-M   'P 1'
_cell_length_a   4.85608795
_cell_length_b   4.85608795
_cell_length_c   15.86977200
_cell_angle_alpha   90.00000000
_cell_angle_beta   90.00000000
_cell_angle_gamma   109.85340980
_symmetry_Int_Tables_number   1
_chemical_formula_structural   CuNi3
_chemical_formula_sum   'Cu8 Ni24'
_cell_volume   351.99168346
_cell_formula_units_Z   8
loop_
 _symmetry_equiv_pos_site_id
 _symmetry_equiv_pos_as_xyz
  1  'x, y, z'
loop_
 _atom_site_type_symbol
 _atom_site_label
 _atom_site_symmetry_multiplicity
 _atom_site_fract_x
 _atom_site_fract_y
 _atom_site_fract_z
 _atom_site_occupancy
  Cu  Cu0_0  1  0.00000000  0.00000000  0.00000000  1
  Cu  Cu0_1  1  0.00000000  0.00000000  0.50000000  1
  Cu  Cu0_2  1  0.00000000  0.50000000  0.00000000  1
  Cu  Cu0_3  1  0.00000000  0.50000000  0.50000000  1
  Cu  Cu0_4  1  0.50000000  0.00000000  0.00000000  1
  Cu  Cu0_5  1  0.50000000  0.00000000  0.50000000  1
  Cu  Cu0_6  1  0.50000000  0.50000000  0.00000000  1
  Cu  Cu0_7  1  0.50000000  0.50000000  0.50000000  1
  Ni  Ni0_0  1  0.25000000  0.25000000  0.37265700  1
  Ni  Ni0_1  1  0.25000000  0.25000000  0.87265700  1
  Ni  Ni0_2  1  0.25000000  0.75000000  0.37265700  1
  Ni  Ni0_3  1  0.25000000  0.75000000  0.87265700  1
  Ni  Ni0_4  1  0.75000000  0.25000000  0.37265700  1
  Ni  Ni0_5  1  0.75000000  0.25000000  0.87265700  1
  Ni  Ni0_6  1  0.75000000  0.75000000  0.37265700  1
  Ni  Ni0_7  1  0.75000000  0.75000000  0.87265700  1
  Ni  Ni1_0  1  0.00000000  0.00000000  0.25000000  1
  Ni  Ni1_1  1  0.00000000  0.00000000  0.75000000  1
  Ni  Ni1_2  1  0.00000000  0.50000000  0.25000000  1
  Ni  Ni1_3  1  0.00000000  0.50000000  0.75000000  1
  Ni  Ni1_4  1  0.50000000  0.00000000  0.25000000  1
  Ni  Ni1_5  1  0.50000000  0.00000000  0.75000000  1
  Ni  Ni1_6  1  0.50000000  0.50000000  0.25000000  1
  Ni  Ni1_7  1  0.50000000  0.50000000  0.75000000  1
  Ni  Ni2_0  1  0.25000000  0.25000000  0.12734300  1
  Ni  Ni2_1  1  0.25000000  0.25000000  0.62734300  1
  Ni  Ni2_2  1  0.25000000  0.75000000  0.12734300  1
  Ni  Ni2_3  1  0.25000000  0.75000000  0.62734300  1
  Ni  Ni2_4  1  0.75000000  0.25000000  0.12734300  1
  Ni  Ni2_5  1  0.75000000  0.25000000  0.62734300  1
  Ni  Ni2_6  1  0.75000000  0.75000000  0.12734300  1
  Ni  Ni2_7  1  0.75000000  0.75000000  0.62734300  1
loop_
_geom_bond_atom_site_label_1
_geom_bond_atom_site_label_2
_geom_bond_distance
_geom_bond_site_symmetry_2
Cu0_0 Cu0_4 2.428044 1_555
Cu0_0 Cu0_2 2.428044 1_545
Cu0_0 Cu0_2 2.428044 1_555
Cu0_0 Cu0_4 2.428044 1_455
Cu0_0 Ni2_0 2.455742 1_555
Cu0_0 Ni2_6 2.455742 1_445
Cu0_0 Ni0_1 2.455742 1_554
Cu0_0 Ni0_7 2.455742 1_444
Cu0_1 Cu0_5 2.428044 1_555
Cu0_1 Cu0_5 2.428044 1_455
Cu0_1 Cu0_3 2.428044 1_555
Cu0_1 Cu0_3 2.428044 1_545
Cu0_1 Ni2_1 2.455742 1_555
Cu0_1 Ni2_7 2.455742 1_445
Cu0_1 Ni0_6 2.455742 1_445
Cu0_1 Ni0_0 2.455742 1_555
Cu0_2 Cu0_6 2.428044 1_555
Cu0_2 Cu0_6 2.428044 1_455
Cu0_2 Ni2_2 2.455742 1_555
Cu0_2 Ni2_4 2.455742 1_455
Cu0_2 Ni0_5 2.455742 1_454
Cu0_2 Ni0_3 2.455742 1_554
Cu0_3 Cu0_7 2.428044 1_555
Cu0_3 Cu0_7 2.428044 1_455
Cu0_3 Ni2_3 2.455742 1_555
Cu0_3 Ni2_5 2.455742 1_455
Cu0_3 Ni0_2 2.455742 1_555
Cu0_3 Ni0_4 2.455742 1_455
Cu0_4 Cu0_6 2.428044 1_545
Cu0_4 Cu0_6 2.428044 1_555
Cu0_4 Ni2_4 2.455742 1_555
Cu0_4 Ni2_2 2.455742 1_545
Cu0_4 Ni0_3 2.455742 1_544
Cu0_4 Ni0_5 2.455742 1_554
Cu0_5 Cu0_7 2.428044 1_545
Cu0_5 Cu0_7 2.428044 1_555
Cu0_5 Ni2_3 2.455742 1_545
Cu0_5 Ni2_5 2.455742 1_555
Cu0_5 Ni0_2 2.455742 1_545
Cu0_5 Ni0_4 2.455742 1_555
Cu0_6 Ni2_0 2.455742 1_555
Cu0_6 Ni2_6 2.455742 1_555
Cu0_6 Ni0_7 2.455742 1_554
Cu0_6 Ni0_1 2.455742 1_554
Cu0_7 Ni2_7 2.455742 1_555
Cu0_7 Ni2_1 2.455742 1_555
Cu0_7 Ni0_6 2.455742 1_555
Cu0_7 Ni0_0 2.455742 1_555
Ni0_0 Ni1_0 2.394917 1_555
Ni0_0 Ni1_6 2.394917 1_555
Ni0_0 Ni0_2 2.428044 1_545
Ni0_0 Ni0_2 2.428044 1_555
Ni0_0 Ni0_4 2.428044 1_455
Ni0_0 Ni0_4 2.428044 1_555
Ni0_1 Ni1_1 2.394917 1_555
Ni0_1 Ni1_7 2.394917 1_555
Ni0_1 Ni0_5 2.428044 1_555
Ni0_1 Ni0_3 2.428044 1_555
Ni0_1 Ni0_3 2.428044 1_545
Ni0_1 Ni0_5 2.428044 1_455
Ni0_2 Ni1_2 2.394917 1_555
Ni0_2 Ni1_4 2.394917 1_565
Ni0_2 Ni0_6 2.428044 1_555
Ni0_2 Ni0_6 2.428044 1_455
Ni0_3 Ni1_5 2.394917 1_565
Ni0_3 Ni1_3 2.394917 1_555
Ni0_3 Ni0_7 2.428044 1_555
Ni0_3 Ni0_7 2.428044 1_455
Ni0_4 Ni1_4 2.394917 1_555
Ni0_4 Ni1_2 2.394917 1_655
Ni0_4 Ni0_6 2.428044 1_555
Ni0_4 Ni0_6 2.428044 1_545
Ni0_5 Ni1_3 2.394917 1_655
Ni0_5 Ni1_5 2.394917 1_555
Ni0_5 Ni0_7 2.428044 1_545
Ni0_5 Ni0_7 2.428044 1_555
Ni0_6 Ni1_0 2.394917 1_665
Ni0_6 Ni1_6 2.394917 1_555
Ni0_7 Ni1_1 2.394917 1_665
Ni0_7 Ni1_7 2.394917 1_555
Ni1_0 Ni2_6 2.394917 1_445
Ni1_0 Ni2_0 2.394917 1_555
Ni1_0 Ni1_4 2.428044 1_555
Ni1_0 Ni1_4 2.428044 1_455
Ni1_0 Ni1_2 2.428044 1_545
Ni1_0 Ni1_2 2.428044 1_555
Ni1_1 Ni2_7 2.394917 1_445
Ni1_1 Ni2_1 2.394917 1_555
Ni1_1 Ni1_3 2.428044 1_545
Ni1_1 Ni1_5 2.428044 1_455
Ni1_1 Ni1_5 2.428044 1_555
Ni1_1 Ni1_3 2.428044 1_555
Ni1_2 Ni2_4 2.394917 1_455
Ni1_2 Ni2_2 2.394917 1_555
Ni1_2 Ni1_6 2.428044 1_555
Ni1_2 Ni1_6 2.428044 1_455
Ni1_3 Ni2_5 2.394917 1_455
Ni1_3 Ni2_3 2.394917 1_555
Ni1_3 Ni1_7 2.428044 1_455
Ni1_3 Ni1_7 2.428044 1_555
Ni1_4 Ni2_2 2.394917 1_545
Ni1_4 Ni2_4 2.394917 1_555
Ni1_4 Ni1_6 2.428044 1_545
Ni1_4 Ni1_6 2.428044 1_555
Ni1_5 Ni2_3 2.394917 1_545
Ni1_5 Ni2_5 2.394917 1_555
Ni1_5 Ni1_7 2.428044 1_555
Ni1_5 Ni1_7 2.428044 1_545
Ni1_6 Ni2_6 2.394917 1_555
Ni1_6 Ni2_0 2.394917 1_555
Ni1_7 Ni2_7 2.394917 1_555
Ni1_7 Ni2_1 2.394917 1_555
Ni2_0 Ni2_2 2.428044 1_545
Ni2_0 Ni2_4 2.428044 1_455
Ni2_0 Ni2_2 2.428044 1_555
Ni2_0 Ni2_4 2.428044 1_555
Ni2_1 Ni2_5 2.428044 1_455
Ni2_1 Ni2_3 2.428044 1_555
Ni2_1 Ni2_3 2.428044 1_545
Ni2_1 Ni2_5 2.428044 1_555
Ni2_2 Ni2_6 2.428044 1_455
Ni2_2 Ni2_6 2.428044 1_555
Ni2_3 Ni2_7 2.428044 1_455
Ni2_3 Ni2_7 2.428044 1_555
Ni2_4 Ni2_6 2.428044 1_545
Ni2_4 Ni2_6 2.428044 1_555
Ni2_5 Ni2_7 2.428044 1_555
Ni2_5 Ni2_7 2.428044 1_545
