# generated using pymatgen
data_U8NiS17
_symmetry_space_group_name_H-M   'P 1'
_cell_length_a   7.90012257
_cell_length_b   7.90012257
_cell_length_c   10.44111833
_cell_angle_alpha   80.33312813
_cell_angle_beta   80.33312813
_cell_angle_gamma   64.29893484
_symmetry_Int_Tables_number   1
_chemical_formula_structural   U8NiS17
_chemical_formula_sum   'U8 Ni1 S17'
_cell_volume   575.51765900
_cell_formula_units_Z   1
loop_
 _symmetry_equiv_pos_site_id
 _symmetry_equiv_pos_as_xyz
  1  'x, y, z'
loop_
 _atom_site_type_symbol
 _atom_site_label
 _atom_site_symmetry_multiplicity
 _atom_site_fract_x
 _atom_site_fract_y
 _atom_site_fract_z
 _atom_site_occupancy
  U  U0  1  0.18591096  0.69851860  0.70568164  1
  U  U1  1  0.69851860  0.18591096  0.70568164  1
  U  U2  1  0.81408904  0.30148140  0.29431836  1
  U  U3  1  0.30148140  0.81408904  0.29431836  1
  U  U4  1  0.79503027  0.79503027  0.45421855  1
  U  U5  1  0.20496973  0.20496973  0.54578145  1
  U  U6  1  0.31511595  0.31511595  0.02024110  1
  U  U7  1  0.68488405  0.68488405  0.97975890  1
  Ni  Ni0  1  -0.00000000  -0.00000000  -0.00000000  1
  S  S0  1  0.17569107  0.56879849  0.46631889  1
  S  S1  1  0.56879849  0.17569107  0.46631889  1
  S  S2  1  0.82430893  0.43120151  0.53368111  1
  S  S3  1  0.43120151  0.82430893  0.53368111  1
  S  S4  1  0.05839085  0.67589816  0.97045620  1
  S  S5  1  0.67589816  0.05839085  0.97045620  1
  S  S6  1  0.94160915  0.32410184  0.02954380  1
  S  S7  1  0.32410184  0.94160915  0.02954380  1
  S  S8  1  0.79140283  0.79140283  0.72016166  1
  S  S9  1  0.20859717  0.20859717  0.27983834  1
  S  S10  1  0.94455487  0.94455487  0.22478671  1
  S  S11  1  0.05544513  0.05544513  0.77521329  1
  S  S12  1  0.69739698  0.69739698  0.24574973  1
  S  S13  1  0.30260302  0.30260302  0.75425027  1
  S  S14  1  0.47956912  0.47956912  0.16995133  1
  S  S15  1  0.52043088  0.52043088  0.83004867  1
  S  S16  1  -0.00000000  -0.00000000  0.50000000  1
loop_
_geom_bond_atom_site_label_1
_geom_bond_atom_site_label_2
_geom_bond_distance
_geom_bond_site_symmetry_2
Ni0 S11 2.316926 1_554
Ni0 S10 2.316926 1_445
Ni0 S4 2.461065 1_544
Ni0 S6 2.461065 1_455
Ni0 S5 2.461065 1_454
Ni0 S7 2.461065 1_545
S0 U4 2.764754 1_455
S0 U5 2.773145 1_555
S0 U3 2.805365 1_555
S0 U0 2.881406 1_555
S1 U4 2.764754 1_545
S1 U5 2.773145 1_555
S1 U2 2.805365 1_555
S1 U1 2.881406 1_555
S2 U5 2.764754 1_655
S2 U4 2.773145 1_555
S2 U1 2.805365 1_555
S2 U2 2.881406 1_555
S3 U5 2.764754 1_565
S3 U4 2.773145 1_555
S3 U0 2.805365 1_555
S3 U3 2.881406 1_555
S4 U6 2.711087 1_556
S4 U0 2.782882 1_555
S4 U7 2.906161 1_455
S5 U6 2.711087 1_556
S5 U1 2.782882 1_555
S5 U7 2.906161 1_545
S6 U7 2.711087 1_554
S6 U2 2.782882 1_555
S6 U6 2.906161 1_655
S7 U7 2.711087 1_554
S7 U3 2.782882 1_555
S7 U6 2.906161 1_565
S8 U4 2.767528 1_555
S8 U7 2.800927 1_555
S8 U1 2.858370 1_565
S8 U0 2.858370 1_655
S9 U5 2.767528 1_555
S9 U6 2.800927 1_555
S9 U3 2.858370 1_545
S9 U2 2.858370 1_455
S10 U2 2.730542 1_565
S10 U3 2.730542 1_655
S10 U4 2.799806 1_555
S11 U0 2.730542 1_545
S11 U1 2.730542 1_455
S11 U5 2.799806 1_555
S12 U4 2.751604 1_555
S12 U7 2.815225 1_554
S12 U3 2.830796 1_555
S12 U2 2.830796 1_555
S13 U5 2.751604 1_555
S13 U6 2.815225 1_556
S13 U0 2.830796 1_555
S13 U1 2.830796 1_555
S14 U2 2.822009 1_555
S14 U3 2.822009 1_555
S14 U6 2.940637 1_555
S14 U7 3.053488 1_554
S15 U0 2.822009 1_555
S15 U1 2.822009 1_555
S15 U7 2.940637 1_555
S15 U6 3.053488 1_556
S16 U4 2.875211 1_445
S16 U5 2.875211 1_555
S16 U2 2.957903 1_455
S16 U3 2.957903 1_545
S16 U0 2.957903 1_545
S16 U1 2.957903 1_455
