# generated using pymatgen
data_DyMgVS4
_symmetry_space_group_name_H-M   'P 1'
_cell_length_a   7.67164325
_cell_length_b   7.57441058
_cell_length_c   7.57477506
_cell_angle_alpha   59.71988202
_cell_angle_beta   59.56144940
_cell_angle_gamma   59.61557759
_symmetry_Int_Tables_number   1
_chemical_formula_structural   DyMgVS4
_chemical_formula_sum   'Dy2 Mg2 V2 S8'
_cell_volume   308.63571437
_cell_formula_units_Z   2
loop_
 _symmetry_equiv_pos_site_id
 _symmetry_equiv_pos_as_xyz
  1  'x, y, z'
loop_
 _atom_site_type_symbol
 _atom_site_label
 _atom_site_symmetry_multiplicity
 _atom_site_fract_x
 _atom_site_fract_y
 _atom_site_fract_z
 _atom_site_occupancy
  Dy  Dy0  1  0.50000200  0.50001300  0.49998400  1
  Dy  Dy1  1  0.00000200  0.49998800  0.50001000  1
  Mg  Mg0  1  0.87709200  0.87263900  0.87308500  1
  Mg  Mg1  1  0.12291000  0.12735700  0.12690900  1
  V  V0  1  0.49997600  0.50000900  0.00000900  1
  V  V1  1  0.50000800  0.99999300  0.50002900  1
  S  S0  1  0.71210300  0.75384100  0.75431500  1
  S  S1  1  0.26867800  0.23154900  0.73132300  1
  S  S2  1  0.26826600  0.73154800  0.23174200  1
  S  S3  1  0.72029600  0.24590000  0.24584100  1
  S  S4  1  0.73171600  0.26845700  0.76825300  1
  S  S5  1  0.27970700  0.75410000  0.75414200  1
  S  S6  1  0.28790300  0.24615000  0.24568700  1
  S  S7  1  0.73134400  0.76845200  0.26867200  1
loop_
_geom_bond_atom_site_label_1
_geom_bond_atom_site_label_2
_geom_bond_distance
_geom_bond_site_symmetry_2
Dy0 S7 2.694616 1_555
Dy0 S1 2.694649 1_555
Dy0 S2 2.697637 1_555
Dy0 S4 2.697662 1_555
Dy0 S5 2.723234 1_555
Dy0 S3 2.723298 1_555
Dy1 S4 2.694580 1_455
Dy1 S2 2.694611 1_555
Dy1 S1 2.698090 1_555
Dy1 S7 2.698123 1_455
Dy1 S0 2.722913 1_455
Dy1 S6 2.722929 1_555
Mg0 S7 2.442343 1_556
Mg0 S4 2.444778 1_565
Mg0 S0 2.518626 1_555
Mg0 S5 2.519685 1_655
Mg1 S1 2.442334 1_554
Mg1 S2 2.444721 1_545
Mg1 S6 2.518670 1_555
Mg1 S3 2.519683 1_455
S0 V0 2.509261 1_556
S0 V1 2.513734 1_555
S1 V1 2.468784 1_545
S2 V0 2.471034 1_555
S3 V1 2.510620 1_545
S3 V0 2.512490 1_555
S4 V0 2.471226 1_556
S5 V1 2.510583 1_555
S5 V0 2.512409 1_556
S6 V0 2.509132 1_555
S6 V1 2.514091 1_545
S7 V1 2.469040 1_555
