# generated using pymatgen
data_MgSn
_symmetry_space_group_name_H-M   'P 1'
_cell_length_a   11.73645366
_cell_length_b   11.73645366
_cell_length_c   15.95623807
_cell_angle_alpha   70.45398886
_cell_angle_beta   70.45398886
_cell_angle_gamma   33.94292081
_symmetry_Int_Tables_number   1
_chemical_formula_structural   MgSn
_chemical_formula_sum   'Mg24 Sn24'
_cell_volume   1149.69454581
_cell_formula_units_Z   24
loop_
 _symmetry_equiv_pos_site_id
 _symmetry_equiv_pos_as_xyz
  1  'x, y, z'
loop_
 _atom_site_type_symbol
 _atom_site_label
 _atom_site_symmetry_multiplicity
 _atom_site_fract_x
 _atom_site_fract_y
 _atom_site_fract_z
 _atom_site_occupancy
  Mg  Mg0_0  1  0.48832850  0.48832850  0.00301123  1
  Mg  Mg0_1  1  0.48832850  0.48832850  0.50301124  1
  Mg  Mg0_2  1  0.48832850  0.98832850  0.00301123  1
  Mg  Mg0_3  1  0.48832850  0.98832850  0.50301124  1
  Mg  Mg0_4  1  0.98832850  0.48832850  0.00301123  1
  Mg  Mg0_5  1  0.98832850  0.48832850  0.50301124  1
  Mg  Mg0_6  1  0.98832850  0.98832850  0.00301123  1
  Mg  Mg0_7  1  0.98832850  0.98832850  0.50301124  1
  Mg  Mg1_0  1  0.30554241  0.30554241  0.13655270  1
  Mg  Mg1_1  1  0.30554241  0.30554242  0.63655269  1
  Mg  Mg1_2  1  0.30554241  0.80554241  0.13655269  1
  Mg  Mg1_3  1  0.30554241  0.80554241  0.63655270  1
  Mg  Mg1_4  1  0.80554242  0.30554242  0.13655269  1
  Mg  Mg1_5  1  0.80554241  0.30554241  0.63655270  1
  Mg  Mg1_6  1  0.80554241  0.80554242  0.13655270  1
  Mg  Mg1_7  1  0.80554241  0.80554241  0.63655269  1
  Mg  Mg2_0  1  0.34330040  0.34330040  0.33222177  1
  Mg  Mg2_1  1  0.34330040  0.34330040  0.83222177  1
  Mg  Mg2_2  1  0.34330040  0.84330040  0.33222177  1
  Mg  Mg2_3  1  0.34330040  0.84330040  0.83222177  1
  Mg  Mg2_4  1  0.84330040  0.34330040  0.33222177  1
  Mg  Mg2_5  1  0.84330040  0.34330040  0.83222177  1
  Mg  Mg2_6  1  0.84330040  0.84330040  0.33222176  1
  Mg  Mg2_7  1  0.84330040  0.84330040  0.83222177  1
  Sn  Sn0_0  1  0.16373190  0.16373191  0.16471519  1
  Sn  Sn0_1  1  0.16373190  0.16373191  0.66471519  1
  Sn  Sn0_2  1  0.16373190  0.66373190  0.16471519  1
  Sn  Sn0_3  1  0.16373190  0.66373191  0.66471519  1
  Sn  Sn0_4  1  0.66373190  0.16373191  0.16471519  1
  Sn  Sn0_5  1  0.66373191  0.16373191  0.66471519  1
  Sn  Sn0_6  1  0.66373190  0.66373190  0.16471519  1
  Sn  Sn0_7  1  0.66373190  0.66373191  0.66471519  1
  Sn  Sn1_0  1  0.48634831  0.48634831  0.30839646  1
  Sn  Sn1_1  1  0.48634831  0.48634832  0.80839646  1
  Sn  Sn1_2  1  0.48634831  0.98634831  0.30839646  1
  Sn  Sn1_3  1  0.48634831  0.98634831  0.80839646  1
  Sn  Sn1_4  1  0.98634831  0.48634831  0.30839646  1
  Sn  Sn1_5  1  0.98634831  0.48634831  0.80839646  1
  Sn  Sn1_6  1  0.98634831  0.98634831  0.30839646  1
  Sn  Sn1_7  1  0.98634831  0.98634831  0.80839646  1
  Sn  Sn2_0  1  0.12941396  0.12941396  0.47176865  1
  Sn  Sn2_1  1  0.12941396  0.12941396  0.97176865  1
  Sn  Sn2_2  1  0.12941396  0.62941396  0.47176865  1
  Sn  Sn2_3  1  0.12941396  0.62941396  0.97176865  1
  Sn  Sn2_4  1  0.62941396  0.12941396  0.47176865  1
  Sn  Sn2_5  1  0.62941397  0.12941396  0.97176865  1
  Sn  Sn2_6  1  0.62941396  0.62941396  0.47176865  1
  Sn  Sn2_7  1  0.62941396  0.62941396  0.97176865  1
loop_
_geom_bond_atom_site_label_1
_geom_bond_atom_site_label_2
_geom_bond_distance
_geom_bond_site_symmetry_2
Mg0_0 Sn2_7 3.029300 1_554
Mg0_0 Sn0_4 3.061557 1_555
Mg0_0 Sn0_2 3.061557 1_555
Mg0_0 Sn1_1 3.121148 1_554
Mg0_0 Sn2_5 3.164550 1_554
Mg0_0 Sn2_3 3.164550 1_554
Mg0_0 Mg2_3 3.379568 1_554
Mg0_0 Mg2_5 3.379568 1_554
Mg0_0 Mg0_6 3.425816 1_545
Mg0_0 Mg0_6 3.425816 1_455
Mg0_0 Mg1_2 3.464245 1_555
Mg0_0 Mg1_4 3.464245 1_555
Mg0_1 Sn2_6 3.029300 1_555
Mg0_1 Sn0_5 3.061557 1_555
Mg0_1 Sn0_3 3.061557 1_555
Mg0_1 Sn1_0 3.121148 1_555
Mg0_1 Sn2_4 3.164550 1_555
Mg0_1 Sn2_2 3.164550 1_555
Mg0_1 Mg2_2 3.379568 1_555
Mg0_1 Mg2_4 3.379568 1_555
Mg0_1 Mg0_7 3.425816 1_545
Mg0_1 Mg0_7 3.425816 1_455
Mg0_1 Mg1_3 3.464245 1_555
Mg0_1 Mg1_5 3.464245 1_555
Mg0_2 Sn2_5 3.029300 1_564
Mg0_2 Sn0_0 3.061557 1_565
Mg0_2 Sn0_6 3.061557 1_555
Mg0_2 Sn1_3 3.121148 1_554
Mg0_2 Sn2_1 3.164550 1_564
Mg0_2 Sn2_7 3.164550 1_554
Mg0_2 Mg2_1 3.379568 1_564
Mg0_2 Mg2_7 3.379568 1_554
Mg0_2 Mg0_4 3.425816 1_465
Mg0_2 Mg0_4 3.425816 1_555
Mg0_2 Mg1_0 3.464245 1_565
Mg0_2 Mg1_6 3.464245 1_555
Mg0_3 Sn2_4 3.029300 1_565
Mg0_3 Sn0_7 3.061557 1_555
Mg0_3 Sn0_1 3.061557 1_565
Mg0_3 Sn1_2 3.121148 1_555
Mg0_3 Sn2_0 3.164550 1_565
Mg0_3 Sn2_6 3.164550 1_555
Mg0_3 Mg2_6 3.379568 1_555
Mg0_3 Mg2_0 3.379568 1_565
Mg0_3 Mg0_5 3.425816 1_555
Mg0_3 Mg0_5 3.425816 1_465
Mg0_3 Mg1_7 3.464245 1_555
Mg0_3 Mg1_1 3.464245 1_565
Mg0_4 Sn2_3 3.029300 1_654
Mg0_4 Sn0_0 3.061557 1_655
Mg0_4 Sn0_6 3.061557 1_555
Mg0_4 Sn1_5 3.121148 1_554
Mg0_4 Sn2_1 3.164550 1_654
Mg0_4 Sn2_7 3.164550 1_554
Mg0_4 Mg2_1 3.379568 1_654
Mg0_4 Mg2_7 3.379568 1_554
Mg0_4 Mg1_6 3.464245 1_555
Mg0_4 Mg1_0 3.464245 1_655
Mg0_5 Sn2_2 3.029300 1_655
Mg0_5 Sn0_7 3.061557 1_555
Mg0_5 Sn0_1 3.061557 1_655
Mg0_5 Sn1_4 3.121148 1_555
Mg0_5 Sn2_0 3.164550 1_655
Mg0_5 Sn2_6 3.164550 1_555
Mg0_5 Mg2_6 3.379568 1_555
Mg0_5 Mg2_0 3.379568 1_655
Mg0_5 Mg1_7 3.464245 1_555
Mg0_5 Mg1_1 3.464245 1_655
Mg0_6 Sn2_1 3.029300 1_664
Mg0_6 Sn0_4 3.061557 1_565
Mg0_6 Sn0_2 3.061557 1_655
Mg0_6 Sn1_7 3.121148 1_554
Mg0_6 Sn2_5 3.164550 1_564
Mg0_6 Sn2_3 3.164550 1_654
Mg0_6 Mg2_3 3.379568 1_654
Mg0_6 Mg2_5 3.379568 1_564
Mg0_6 Mg1_2 3.464245 1_655
Mg0_6 Mg1_4 3.464245 1_565
Mg0_7 Sn2_0 3.029300 1_665
Mg0_7 Sn0_5 3.061557 1_565
Mg0_7 Sn0_3 3.061557 1_655
Mg0_7 Sn1_6 3.121148 1_555
Mg0_7 Sn2_4 3.164550 1_565
Mg0_7 Sn2_2 3.164550 1_655
Mg0_7 Mg2_4 3.379568 1_565
Mg0_7 Mg2_2 3.379568 1_655
Mg0_7 Mg1_3 3.464245 1_655
Mg0_7 Mg1_5 3.464245 1_565
Mg1_0 Sn0_0 3.055691 1_555
Mg1_0 Sn2_3 3.089865 1_554
Mg1_0 Sn2_5 3.089865 1_554
Mg1_0 Sn0_2 3.130377 1_555
Mg1_0 Sn0_4 3.130377 1_555
Mg1_0 Sn1_2 3.144165 1_545
Mg1_0 Sn1_4 3.144165 1_455
Mg1_0 Mg2_0 3.509688 1_555
Mg1_1 Sn0_1 3.055691 1_555
Mg1_1 Sn2_2 3.089865 1_555
Mg1_1 Sn2_4 3.089865 1_555
Mg1_1 Sn0_3 3.130377 1_555
Mg1_1 Sn0_5 3.130377 1_555
Mg1_1 Sn1_5 3.144165 1_455
Mg1_1 Sn1_3 3.144165 1_545
Mg1_1 Mg2_1 3.509688 1_555
Mg1_2 Sn0_2 3.055691 1_555
Mg1_2 Sn2_1 3.089865 1_564
Mg1_2 Sn2_7 3.089865 1_554
Mg1_2 Sn0_6 3.130377 1_555
Mg1_2 Sn0_0 3.130377 1_565
Mg1_2 Sn1_6 3.144165 1_455
Mg1_2 Sn1_0 3.144165 1_555
Mg1_2 Mg2_2 3.509688 1_555
Mg1_3 Sn0_3 3.055691 1_555
Mg1_3 Sn2_0 3.089865 1_565
Mg1_3 Sn2_6 3.089865 1_555
Mg1_3 Sn0_7 3.130377 1_555
Mg1_3 Sn0_1 3.130377 1_565
Mg1_3 Sn1_1 3.144165 1_555
Mg1_3 Sn1_7 3.144165 1_455
Mg1_3 Mg2_3 3.509688 1_555
Mg1_4 Sn0_4 3.055691 1_555
Mg1_4 Sn2_1 3.089865 1_654
Mg1_4 Sn2_7 3.089865 1_554
Mg1_4 Sn0_6 3.130377 1_555
Mg1_4 Sn0_0 3.130377 1_655
Mg1_4 Sn1_6 3.144165 1_545
Mg1_4 Sn1_0 3.144165 1_555
Mg1_4 Mg2_4 3.509688 1_555
Mg1_5 Sn0_5 3.055691 1_555
Mg1_5 Sn2_6 3.089865 1_555
Mg1_5 Sn2_0 3.089865 1_655
Mg1_5 Sn0_1 3.130377 1_655
Mg1_5 Sn0_7 3.130377 1_555
Mg1_5 Sn1_1 3.144165 1_555
Mg1_5 Sn1_7 3.144165 1_545
Mg1_5 Mg2_5 3.509688 1_555
Mg1_6 Sn0_6 3.055691 1_555
Mg1_6 Sn2_5 3.089865 1_564
Mg1_6 Sn2_3 3.089865 1_654
Mg1_6 Sn0_2 3.130377 1_655
Mg1_6 Sn0_4 3.130377 1_565
Mg1_6 Sn1_4 3.144165 1_555
Mg1_6 Sn1_2 3.144165 1_555
Mg1_6 Mg2_6 3.509688 1_555
Mg1_7 Sn0_7 3.055691 1_555
Mg1_7 Sn2_4 3.089865 1_565
Mg1_7 Sn2_2 3.089865 1_655
Mg1_7 Sn0_3 3.130377 1_655
Mg1_7 Sn0_5 3.130377 1_565
Mg1_7 Sn1_5 3.144165 1_555
Mg1_7 Sn1_3 3.144165 1_555
Mg1_7 Mg2_7 3.509688 1_555
Mg2_0 Sn1_4 3.079397 1_455
Mg2_0 Sn1_2 3.079397 1_545
Mg2_0 Sn1_0 3.099074 1_555
Mg2_0 Sn0_2 3.101837 1_555
Mg2_0 Sn0_4 3.101837 1_555
Mg2_0 Sn2_2 3.132464 1_555
Mg2_0 Sn2_4 3.132464 1_555
Mg2_0 Mg2_6 3.425816 1_545
Mg2_0 Mg2_6 3.425816 1_455
Mg2_1 Sn1_5 3.079397 1_455
Mg2_1 Sn1_3 3.079397 1_545
Mg2_1 Sn1_1 3.099074 1_555
Mg2_1 Sn0_5 3.101837 1_555
Mg2_1 Sn0_3 3.101837 1_555
Mg2_1 Sn2_3 3.132464 1_555
Mg2_1 Sn2_5 3.132464 1_555
Mg2_1 Mg2_7 3.425816 1_545
Mg2_1 Mg2_7 3.425816 1_455
Mg2_2 Sn1_0 3.079397 1_555
Mg2_2 Sn1_6 3.079397 1_455
Mg2_2 Sn1_2 3.099074 1_555
Mg2_2 Sn0_6 3.101837 1_555
Mg2_2 Sn0_0 3.101837 1_565
Mg2_2 Sn2_6 3.132464 1_555
Mg2_2 Sn2_0 3.132464 1_565
Mg2_2 Mg2_4 3.425816 1_465
Mg2_2 Mg2_4 3.425816 1_555
Mg2_3 Sn1_1 3.079397 1_555
Mg2_3 Sn1_7 3.079397 1_455
Mg2_3 Sn1_3 3.099074 1_555
Mg2_3 Sn0_1 3.101837 1_565
Mg2_3 Sn0_7 3.101837 1_555
Mg2_3 Sn2_1 3.132464 1_565
Mg2_3 Sn2_7 3.132464 1_555
Mg2_3 Mg2_5 3.425816 1_465
Mg2_3 Mg2_5 3.425816 1_555
Mg2_4 Sn1_0 3.079397 1_555
Mg2_4 Sn1_6 3.079397 1_545
Mg2_4 Sn1_4 3.099074 1_555
Mg2_4 Sn0_6 3.101837 1_555
Mg2_4 Sn0_0 3.101837 1_655
Mg2_4 Sn2_6 3.132464 1_555
Mg2_4 Sn2_0 3.132464 1_655
Mg2_5 Sn1_1 3.079397 1_555
Mg2_5 Sn1_7 3.079397 1_545
Mg2_5 Sn1_5 3.099074 1_555
Mg2_5 Sn0_1 3.101837 1_655
Mg2_5 Sn0_7 3.101837 1_555
Mg2_5 Sn2_7 3.132464 1_555
Mg2_5 Sn2_1 3.132464 1_655
Mg2_6 Sn1_4 3.079397 1_555
Mg2_6 Sn1_2 3.079397 1_555
Mg2_6 Sn1_6 3.099074 1_555
Mg2_6 Sn0_2 3.101837 1_655
Mg2_6 Sn0_4 3.101837 1_565
Mg2_6 Sn2_4 3.132464 1_565
Mg2_6 Sn2_2 3.132464 1_655
Mg2_7 Sn1_5 3.079397 1_555
Mg2_7 Sn1_3 3.079397 1_555
Mg2_7 Sn1_7 3.099074 1_555
Mg2_7 Sn0_3 3.101837 1_655
Mg2_7 Sn0_5 3.101837 1_565
Mg2_7 Sn2_5 3.132464 1_565
Mg2_7 Sn2_3 3.132464 1_655
Sn0_0 Sn2_1 3.425122 1_554
Sn0_1 Sn2_0 3.425122 1_555
Sn0_2 Sn2_3 3.425122 1_554
Sn0_3 Sn2_2 3.425122 1_555
Sn0_4 Sn2_5 3.425122 1_554
Sn0_5 Sn2_4 3.425122 1_555
Sn0_6 Sn2_7 3.425122 1_554
Sn0_7 Sn2_6 3.425122 1_555
Sn1_0 Sn2_4 3.333889 1_555
Sn1_0 Sn2_2 3.333889 1_555
Sn1_0 Sn1_6 3.425816 1_455
Sn1_0 Sn1_6 3.425816 1_545
Sn1_1 Sn2_5 3.333889 1_555
Sn1_1 Sn2_3 3.333889 1_555
Sn1_1 Sn1_7 3.425816 1_545
Sn1_1 Sn1_7 3.425816 1_455
Sn1_2 Sn2_0 3.333889 1_565
Sn1_2 Sn2_6 3.333889 1_555
Sn1_2 Sn1_4 3.425816 1_465
Sn1_2 Sn1_4 3.425816 1_555
Sn1_3 Sn2_1 3.333889 1_565
Sn1_3 Sn2_7 3.333889 1_555
Sn1_3 Sn1_5 3.425816 1_555
Sn1_3 Sn1_5 3.425816 1_465
Sn1_4 Sn2_6 3.333889 1_555
Sn1_4 Sn2_0 3.333889 1_655
Sn1_5 Sn2_7 3.333889 1_555
Sn1_5 Sn2_1 3.333889 1_655
Sn1_6 Sn2_2 3.333889 1_655
Sn1_6 Sn2_4 3.333889 1_565
Sn1_7 Sn2_5 3.333889 1_565
Sn1_7 Sn2_3 3.333889 1_655
Sn2_0 Sn2_6 3.425816 1_545
Sn2_0 Sn2_6 3.425816 1_455
Sn2_1 Sn2_7 3.425816 1_545
Sn2_1 Sn2_7 3.425816 1_455
Sn2_2 Sn2_4 3.425816 1_555
Sn2_2 Sn2_4 3.425816 1_465
Sn2_3 Sn2_5 3.425816 1_465
Sn2_3 Sn2_5 3.425816 1_555
