# generated using pymatgen
data_YU2O6
_symmetry_space_group_name_H-M   'P 1'
_cell_length_a   6.55259316
_cell_length_b   6.55260190
_cell_length_c   6.55260190
_cell_angle_alpha   146.18853680
_cell_angle_beta   131.36640130
_cell_angle_gamma   60.54467253
_symmetry_Int_Tables_number   1
_chemical_formula_structural   YU2O6
_chemical_formula_sum   'Y1 U2 O6'
_cell_volume   116.38344595
_cell_formula_units_Z   1
loop_
 _symmetry_equiv_pos_site_id
 _symmetry_equiv_pos_as_xyz
  1  'x, y, z'
loop_
 _atom_site_type_symbol
 _atom_site_label
 _atom_site_symmetry_multiplicity
 _atom_site_fract_x
 _atom_site_fract_y
 _atom_site_fract_z
 _atom_site_occupancy
  Y  Y0  1  0.00000000  -0.00000000  0.00000000  1
  U  U0  1  0.66506133  0.66506133  -0.00000000  1
  U  U1  1  0.33493867  0.33493867  0.00000000  1
  O  O0  1  0.25627115  0.50000000  0.75627115  1
  O  O1  1  0.91656401  0.16993484  0.74662917  1
  O  O2  1  0.57669634  0.83006616  0.74663117  1
  O  O3  1  0.74372885  0.50000000  0.24372885  1
  O  O4  1  0.42330366  0.16993384  0.25336883  1
  O  O5  1  0.08343599  0.83006516  0.25337083  1
loop_
_geom_bond_atom_site_label_1
_geom_bond_atom_site_label_2
_geom_bond_distance
_geom_bond_site_symmetry_2
O0 U0 2.284749 1_556
O0 U1 2.284753 1_556
O0 Y0 2.354453 1_555
O0 Y0 2.354453 1_566
O1 U1 2.314569 1_656
O1 U0 2.324926 1_556
O1 U0 2.324926 1_545
O1 Y0 2.359835 1_656
O2 U0 2.314573 1_556
O2 U1 2.324929 1_566
O2 U1 2.324932 1_555
O2 Y0 2.359821 1_666
O3 U1 2.284749 1_555
O3 U0 2.284753 1_555
O3 Y0 2.354453 1_655
O3 Y0 2.354453 1_666
O4 U1 2.314573 1_555
O4 U0 2.324929 1_545
O4 U0 2.324932 1_556
O4 Y0 2.359821 1_555
O5 U0 2.314569 1_455
O5 U1 2.324926 1_555
O5 U1 2.324926 1_566
O5 Y0 2.359835 1_565
