# generated using pymatgen
data_V4O7F5
_symmetry_space_group_name_H-M   'P 1'
_cell_length_a   5.28055800
_cell_length_b   5.28777476
_cell_length_c   9.03957084
_cell_angle_alpha   106.33478305
_cell_angle_beta   89.15866426
_cell_angle_gamma   119.20607018
_symmetry_Int_Tables_number   1
_chemical_formula_structural   V4O7F5
_chemical_formula_sum   'V4 O7 F5'
_cell_volume   209.14986242
_cell_formula_units_Z   1
loop_
 _symmetry_equiv_pos_site_id
 _symmetry_equiv_pos_as_xyz
  1  'x, y, z'
loop_
 _atom_site_type_symbol
 _atom_site_label
 _atom_site_symmetry_multiplicity
 _atom_site_fract_x
 _atom_site_fract_y
 _atom_site_fract_z
 _atom_site_occupancy
  V  V0  1  0.31522300  0.76137100  0.75667100  1
  V  V1  1  0.54180900  0.49331000  0.52212500  1
  V  V2  1  0.72632300  0.26552000  0.25876600  1
  V  V3  1  0.03582100  0.98400700  0.01701500  1
  O  O0  1  0.43240500  0.12424900  0.62167900  1
  O  O1  1  0.59100000  0.85038900  0.90219800  1
  O  O2  1  0.57824800  0.40985000  0.33549500  1
  O  O3  1  0.40924300  0.59486300  0.65789200  1
  O  O4  1  0.39728700  0.15940900  0.08252800  1
  O  O5  1  0.94226200  0.63478900  0.11899100  1
  O  O6  1  0.89426900  0.64962600  0.58844700  1
  F  F0  1  0.06627600  0.31452700  0.40815200  1
  F  F1  1  0.08535700  0.92295900  0.83261800  1
  F  F2  1  0.05491700  0.39177600  0.87324600  1
  F  F3  1  0.52834900  0.85382100  0.37091400  1
  F  F4  1  0.90121100  0.08953300  0.15326300  1
loop_
_geom_bond_atom_site_label_1
_geom_bond_atom_site_label_2
_geom_bond_distance
_geom_bond_site_symmetry_2
O0 V1 2.196444 1_555
O0 V0 2.385369 1_545
O1 V0 1.764027 1_555
O1 V3 2.265672 1_656
O2 V2 1.394135 1_555
O2 V1 1.653023 1_555
O3 V0 1.338041 1_555
O3 V1 1.501834 1_555
O4 V3 1.688431 1_545
O4 V2 2.121039 1_555
O5 V3 2.134835 1_655
O5 V2 2.425274 1_555
O6 V1 1.661130 1_555
O6 V0 2.432032 1_655
F0 V2 2.129225 1_455
F0 V1 2.339255 1_555
F1 V3 1.648640 1_556
F1 V0 1.825504 1_555
F2 V0 2.305123 1_555
F3 V2 2.418493 1_565
F3 V1 2.666117 1_555
F4 V3 1.519313 1_645
F4 V2 1.715225 1_555
