# generated using pymatgen
data_Na2NiSn
_symmetry_space_group_name_H-M   'P 1'
_cell_length_a   3.68438700
_cell_length_b   4.26386900
_cell_length_c   5.13315300
_cell_angle_alpha   90.00000000
_cell_angle_beta   90.00000000
_cell_angle_gamma   90.00000000
_symmetry_Int_Tables_number   1
_chemical_formula_structural   Na2NiSn
_chemical_formula_sum   'Na2 Ni1 Sn1'
_cell_volume   80.64051704
_cell_formula_units_Z   1
loop_
 _symmetry_equiv_pos_site_id
 _symmetry_equiv_pos_as_xyz
  1  'x, y, z'
loop_
 _atom_site_type_symbol
 _atom_site_label
 _atom_site_symmetry_multiplicity
 _atom_site_fract_x
 _atom_site_fract_y
 _atom_site_fract_z
 _atom_site_occupancy
  Na  Na0  1  0.00000000  0.00000000  0.00000000  1
  Na  Na1  1  0.50000000  0.50000000  0.00000000  1
  Ni  Ni0  1  0.00000000  0.50000000  0.50000000  1
  Sn  Sn0  1  0.50000000  0.00000000  0.50000000  1
loop_
_geom_bond_atom_site_label_1
_geom_bond_atom_site_label_2
_geom_bond_distance
_geom_bond_site_symmetry_2
Na0 Na1 2.817591 1_545
Na0 Na1 2.817591 1_555
Na0 Na1 2.817591 1_445
Na0 Na1 2.817591 1_455
Na0 Sn0 3.159271 1_455
Na0 Sn0 3.159271 1_554
Na0 Sn0 3.159271 1_454
Na0 Sn0 3.159271 1_555
Na0 Ni0 3.336534 1_554
Na0 Ni0 3.336534 1_544
Na0 Ni0 3.336534 1_555
Na0 Ni0 3.336534 1_545
Na1 Ni0 3.159271 1_554
Na1 Ni0 3.159271 1_555
Na1 Ni0 3.159271 1_654
Na1 Ni0 3.159271 1_655
Na1 Sn0 3.336534 1_564
Na1 Sn0 3.336534 1_554
Na1 Sn0 3.336534 1_565
Na1 Sn0 3.336534 1_555
Ni0 Sn0 2.817591 1_465
Ni0 Sn0 2.817591 1_455
Ni0 Sn0 2.817591 1_565
Ni0 Sn0 2.817591 1_555
