# generated using pymatgen
data_MgGa4P6(HO3)6
_symmetry_space_group_name_H-M   'P 1'
_cell_length_a   8.66963615
_cell_length_b   8.66963578
_cell_length_c   7.48362243
_cell_angle_alpha   90.00000000
_cell_angle_beta   90.00000000
_cell_angle_gamma   119.99999670
_symmetry_Int_Tables_number   1
_chemical_formula_structural   MgGa4P6(HO3)6
_chemical_formula_sum   'Mg1 Ga4 P6 H6 O18'
_cell_volume   487.12928381
_cell_formula_units_Z   1
loop_
 _symmetry_equiv_pos_site_id
 _symmetry_equiv_pos_as_xyz
  1  'x, y, z'
loop_
 _atom_site_type_symbol
 _atom_site_label
 _atom_site_symmetry_multiplicity
 _atom_site_fract_x
 _atom_site_fract_y
 _atom_site_fract_z
 _atom_site_occupancy
  Mg  Mg0  1  0.66666700  0.33333300  0.75000000  1
  Ga  Ga0  1  0.33333300  0.66666700  0.53885454  1
  Ga  Ga1  1  0.66666700  0.33333300  0.09708381  1
  Ga  Ga2  1  0.66666700  0.33333300  0.40291619  1
  Ga  Ga3  1  0.33333300  0.66666700  0.96114546  1
  P  P0  1  0.97297150  0.35893292  0.75000000  1
  P  P1  1  0.64007026  0.89970999  0.25000000  1
  P  P2  1  0.25963873  0.35992974  0.25000000  1
  P  P3  1  0.64106708  0.61403759  0.75000000  1
  P  P4  1  0.38596241  0.02702850  0.75000000  1
  P  P5  1  0.10029001  0.74036127  0.25000000  1
  H  H0  1  0.77290672  0.79443943  0.75000000  1
  H  H1  1  0.07734185  0.89012607  0.25000000  1
  H  H2  1  0.81278422  0.92265815  0.25000000  1
  H  H3  1  0.20556057  0.97846730  0.75000000  1
  H  H4  1  0.02153270  0.22709328  0.75000000  1
  H  H5  1  0.10987393  0.18721578  0.25000000  1
  O  O0  1  0.14195572  0.54426258  0.75000000  1
  O  O1  1  0.65239471  0.08148368  0.25000000  1
  O  O2  1  0.42908897  0.34760529  0.25000000  1
  O  O3  1  0.45573742  0.59769314  0.75000000  1
  O  O4  1  0.20784620  0.76586838  0.07603001  1
  O  O5  1  0.47763493  0.14770560  0.58549698  1
  O  O6  1  0.67007066  0.52236507  0.58549698  1
  O  O7  1  0.23413162  0.44197782  0.07603001  1
  O  O8  1  0.55802218  0.79215380  0.07603001  1
  O  O9  1  0.85229440  0.32992934  0.58549698  1
  O  O10  1  0.85229440  0.32992934  0.91450302  1
  O  O11  1  0.55802218  0.79215380  0.42396999  1
  O  O12  1  0.23413162  0.44197782  0.42396999  1
  O  O13  1  0.67007066  0.52236507  0.91450302  1
  O  O14  1  0.47763493  0.14770560  0.91450302  1
  O  O15  1  0.20784620  0.76586838  0.42396999  1
  O  O16  1  0.91851632  0.57091103  0.25000000  1
  O  O17  1  0.40230686  0.85804428  0.75000000  1
loop_
_geom_bond_atom_site_label_1
_geom_bond_atom_site_label_2
_geom_bond_distance
_geom_bond_site_symmetry_2
Mg0 O9 2.038095 1_555
Mg0 O10 2.038095 1_555
Mg0 O5 2.038099 1_555
Mg0 O14 2.038099 1_555
Mg0 O6 2.038102 1_555
Mg0 O13 2.038102 1_555
Ga0 O15 1.896861 1_555
Ga0 O11 1.896868 1_555
Ga0 O12 1.896868 1_555
Ga0 O17 2.148278 1_555
Ga0 O0 2.148279 1_555
Ga0 O3 2.148284 1_555
Ga1 O10 2.122553 1_554
Ga1 O14 2.122557 1_554
Ga1 O13 2.122560 1_554
Ga1 O1 2.412910 1_555
Ga1 O16 2.412914 1_555
Ga1 O2 2.412918 1_555
Ga2 O9 2.122553 1_555
Ga2 O5 2.122557 1_555
Ga2 O6 2.122560 1_555
Ga2 O1 2.412910 1_555
Ga2 O16 2.412914 1_555
Ga2 O2 2.412918 1_555
Ga3 O4 1.896861 1_556
Ga3 O8 1.896868 1_556
Ga3 O7 1.896868 1_556
Ga3 O17 2.148278 1_555
Ga3 O0 2.148279 1_555
Ga3 O3 2.148284 1_555
H0 P3 1.401760 1_555
H1 P5 1.408461 1_555
H2 P1 1.408469 1_555
H3 P4 1.401762 1_565
H4 P0 1.401754 1_455
H5 P2 1.408466 1_555
O0 P0 1.540782 1_455
O1 P1 1.525297 1_545
O2 P2 1.525306 1_555
O3 P3 1.540785 1_555
O4 P5 1.551520 1_555
O5 P4 1.552512 1_555
O6 P3 1.552508 1_555
O7 P2 1.551515 1_555
O8 P1 1.551518 1_555
O9 P0 1.552513 1_555
O10 P0 1.552513 1_555
O11 P1 1.551518 1_555
O12 P2 1.551515 1_555
O13 P3 1.552508 1_555
O14 P4 1.552512 1_555
O15 P5 1.551520 1_555
O16 P5 1.525301 1_655
O17 P4 1.540777 1_565
