# generated using pymatgen
data_Ce2(CN2)3
_symmetry_space_group_name_H-M   'P 1'
_cell_length_a   7.77063909
_cell_length_b   7.77063909
_cell_length_c   5.36071126
_cell_angle_alpha   83.65333302
_cell_angle_beta   83.65333302
_cell_angle_gamma   29.74142294
_symmetry_Int_Tables_number   1
_chemical_formula_structural   Ce2(CN2)3
_chemical_formula_sum   'Ce2 C3 N6'
_cell_volume   159.52691442
_cell_formula_units_Z   1
loop_
 _symmetry_equiv_pos_site_id
 _symmetry_equiv_pos_as_xyz
  1  'x, y, z'
loop_
 _atom_site_type_symbol
 _atom_site_label
 _atom_site_symmetry_multiplicity
 _atom_site_fract_x
 _atom_site_fract_y
 _atom_site_fract_z
 _atom_site_occupancy
  Ce  Ce0  1  0.86511177  0.86511177  0.57350657  1
  Ce  Ce1  1  0.13488823  0.13488823  0.42649343  1
  C  C0  1  0.32694605  0.32694605  0.09514732  1
  C  C1  1  0.67305395  0.67305395  0.90485268  1
  C  C2  1  0.00000000  0.00000000  -0.00000000  1
  N  N0  1  0.69066558  0.69066558  0.67278602  1
  N  N1  1  0.30933442  0.30933442  0.32721398  1
  N  N2  1  0.65804813  0.65804813  0.13241264  1
  N  N3  1  0.34195187  0.34195187  0.86758736  1
  N  N4  1  0.98946736  0.98946736  0.23046641  1
  N  N5  1  0.01053264  0.01053264  0.76953359  1
loop_
_geom_bond_atom_site_label_1
_geom_bond_atom_site_label_2
_geom_bond_distance
_geom_bond_site_symmetry_2
Ce0 N4 2.466791 1_555
Ce0 N5 2.529950 1_665
Ce0 N3 2.541237 1_655
Ce0 N3 2.541237 1_565
Ce0 N1 2.583641 1_565
Ce0 N1 2.583641 1_655
Ce0 N0 2.613482 1_555
Ce1 N5 2.466791 1_555
Ce1 N4 2.529950 1_445
Ce1 N2 2.541237 1_455
Ce1 N2 2.541237 1_545
Ce1 N0 2.583641 1_455
Ce1 N0 2.583641 1_545
Ce1 N1 2.613482 1_555
C0 N3 1.214917 1_554
C0 N1 1.241911 1_555
C1 N2 1.214917 1_556
C1 N0 1.241911 1_555
C2 N4 1.227473 1_445
C2 N5 1.227473 1_554
