# generated using pymatgen
data_Si2Ag9NO11
_symmetry_space_group_name_H-M   'P 1'
_cell_length_a   5.82541500
_cell_length_b   6.94296049
_cell_length_c   9.00961891
_cell_angle_alpha   107.97226095
_cell_angle_beta   98.64012023
_cell_angle_gamma   95.39116963
_symmetry_Int_Tables_number   1
_chemical_formula_structural   Si2Ag9NO11
_chemical_formula_sum   'Si2 Ag9 N1 O11'
_cell_volume   338.84990797
_cell_formula_units_Z   1
loop_
 _symmetry_equiv_pos_site_id
 _symmetry_equiv_pos_as_xyz
  1  'x, y, z'
loop_
 _atom_site_type_symbol
 _atom_site_label
 _atom_site_symmetry_multiplicity
 _atom_site_fract_x
 _atom_site_fract_y
 _atom_site_fract_z
 _atom_site_occupancy
  Si  Si0  1  0.27611600  0.67330400  0.82038000  1
  Si  Si1  1  0.73304700  0.32435700  0.18236700  1
  Ag  Ag0  1  0.25749800  0.53190700  0.14297200  1
  Ag  Ag1  1  0.76328100  0.47451300  0.86548300  1
  Ag  Ag2  1  0.01874900  0.69180500  0.48765700  1
  Ag  Ag3  1  0.01442700  0.28595000  0.51415500  1
  Ag  Ag4  1  0.50102600  0.50014900  0.50173600  1
  Ag  Ag5  1  0.27184400  0.18768200  0.85937900  1
  Ag  Ag6  1  0.73089000  0.80943500  0.14993000  1
  Ag  Ag7  1  0.18023500  0.03548400  0.14261600  1
  Ag  Ag8  1  0.82926600  0.96489300  0.86153900  1
  N  N0  1  0.52549000  0.00519600  0.50252400  1
  O  O0  1  0.88935400  0.17448000  0.25554400  1
  O  O1  1  0.11766800  0.82171800  0.74682100  1
  O  O2  1  0.48725200  0.34018400  0.25549200  1
  O  O3  1  0.52316400  0.66157500  0.74914800  1
  O  O4  1  0.34360600  0.77299500  0.01675600  1
  O  O5  1  0.66206700  0.22432100  0.98627800  1
  O  O6  1  0.12173900  0.44087700  0.77136500  1
  O  O7  1  0.88993000  0.55502900  0.22964700  1
  O  O8  1  0.72740800  0.95874300  0.48030900  1
  O  O9  1  0.34243800  0.90691200  0.40168000  1
  O  O10  1  0.50840400  0.15159000  0.62392100  1
loop_
_geom_bond_atom_site_label_1
_geom_bond_atom_site_label_2
_geom_bond_distance
_geom_bond_site_symmetry_2
Ag0 O2 2.313186 1_555
Ag0 O4 2.352620 1_555
Ag0 O7 2.389583 1_455
Ag1 O3 2.341559 1_555
Ag1 O6 2.373915 1_655
Ag1 O5 2.390917 1_555
Ag1 O10 2.712979 1_555
Ag2 O1 2.189994 1_555
Ag2 O7 2.201879 1_455
Ag2 O8 2.636797 1_455
Ag2 O9 2.647582 1_555
Ag3 O6 2.195021 1_555
Ag3 O0 2.197689 1_455
Ag3 O8 2.599064 1_445
Ag4 O2 2.138029 1_555
Ag4 O3 2.141572 1_555
Ag5 O6 2.329051 1_555
Ag5 O5 2.338875 1_555
Ag5 O1 2.449184 1_545
Ag5 O10 2.660322 1_555
Ag6 O7 2.320469 1_555
Ag6 O4 2.342151 1_555
Ag6 O0 2.447325 1_565
Ag7 O4 2.210830 1_545
Ag7 O0 2.248819 1_455
Ag7 O2 2.474522 1_555
Ag8 O5 2.205761 1_565
Ag8 O1 2.254003 1_655
Ag8 O3 2.464924 1_555
N0 O10 1.266863 1_555
N0 O9 1.271933 1_545
N0 O8 1.276653 1_545
O0 Si1 1.663628 1_555
O1 Si0 1.664136 1_555
O2 Si1 1.662730 1_555
O3 Si0 1.660407 1_555
O4 Si0 1.657746 1_554
O5 Si1 1.656465 1_556
O6 Si0 1.666164 1_555
O7 Si1 1.663918 1_555
