# generated using pymatgen
data_Li9Mn2Co5O16
_symmetry_space_group_name_H-M   'P 1'
_cell_length_a   5.84748200
_cell_length_b   5.15437700
_cell_length_c   9.71034539
_cell_angle_alpha   79.55958932
_cell_angle_beta   90.00000000
_cell_angle_gamma   90.00000000
_symmetry_Int_Tables_number   1
_chemical_formula_structural   Li9Mn2Co5O16
_chemical_formula_sum   'Li9 Mn2 Co5 O16'
_cell_volume   287.82555141
_cell_formula_units_Z   1
loop_
 _symmetry_equiv_pos_site_id
 _symmetry_equiv_pos_as_xyz
  1  'x, y, z'
loop_
 _atom_site_type_symbol
 _atom_site_label
 _atom_site_symmetry_multiplicity
 _atom_site_fract_x
 _atom_site_fract_y
 _atom_site_fract_z
 _atom_site_occupancy
  Li  Li0  1  0.74359600  0.50000000  0.00000000  1
  Li  Li1  1  0.50000000  0.25637600  0.25797000  1
  Li  Li2  1  0.25595600  0.00000000  0.50000000  1
  Li  Li3  1  0.50000000  0.74362400  0.74203000  1
  Li  Li4  1  0.25640400  0.50000000  0.00000000  1
  Li  Li5  1  0.00000000  0.24154500  0.25512400  1
  Li  Li6  1  0.00000000  0.75845500  0.74487600  1
  Li  Li7  1  0.74404400  0.00000000  0.50000000  1
  Li  Li8  1  0.50000000  0.50000000  0.50000000  1
  Mn  Mn0  1  0.00000000  0.00000000  0.00000000  1
  Mn  Mn1  1  0.00000000  0.50000000  0.50000000  1
  Co  Co0  1  0.74236500  0.74091000  0.25709800  1
  Co  Co1  1  0.25763500  0.25909000  0.74290200  1
  Co  Co2  1  0.50000000  0.00000000  0.00000000  1
  Co  Co3  1  0.25763500  0.74091000  0.25709800  1
  Co  Co4  1  0.74236500  0.25909000  0.74290200  1
  O  O0  1  0.75943900  0.89131600  0.88512100  1
  O  O1  1  0.50000000  0.63641200  0.12769100  1
  O  O2  1  0.23332700  0.39275100  0.37741200  1
  O  O3  1  0.50000000  0.12329100  0.64202100  1
  O  O4  1  0.24056100  0.89131600  0.88512100  1
  O  O5  1  0.00000000  0.66125700  0.12740300  1
  O  O6  1  0.00000000  0.15428500  0.61843500  1
  O  O7  1  0.76667300  0.39275100  0.37741200  1
  O  O8  1  0.75943900  0.10868400  0.11487900  1
  O  O9  1  0.50000000  0.87670900  0.35797900  1
  O  O10  1  0.23332700  0.60724900  0.62258800  1
  O  O11  1  0.50000000  0.36358800  0.87230900  1
  O  O12  1  0.24056100  0.10868400  0.11487900  1
  O  O13  1  0.00000000  0.84571500  0.38156500  1
  O  O14  1  0.00000000  0.33874300  0.87259700  1
  O  O15  1  0.76667300  0.60724900  0.62258800  1
loop_
_geom_bond_atom_site_label_1
_geom_bond_atom_site_label_2
_geom_bond_distance
_geom_bond_site_symmetry_2
Li0 O1 2.092065 1_555
Li0 O11 2.092065 1_554
Li0 O0 2.122676 1_554
Li0 O8 2.122676 1_555
Li0 O5 2.200448 1_655
Li0 O14 2.200448 1_654
Li1 O9 2.020879 1_545
Li1 O1 2.130573 1_555
Li1 O7 2.136912 1_555
Li1 O2 2.136912 1_555
Li1 O12 2.279246 1_555
Li1 O8 2.279246 1_555
Li2 O6 2.127576 1_555
Li2 O13 2.127576 1_545
Li2 O2 2.158535 1_555
Li2 O10 2.158535 1_545
Li2 O3 2.158648 1_555
Li2 O9 2.158648 1_545
Li3 O3 2.020879 1_565
Li3 O11 2.130573 1_555
Li3 O15 2.136912 1_555
Li3 O10 2.136912 1_555
Li3 O4 2.279246 1_555
Li3 O0 2.279246 1_555
Li4 O1 2.092065 1_555
Li4 O11 2.092065 1_554
Li4 O4 2.122676 1_554
Li4 O12 2.122676 1_555
Li4 O5 2.200448 1_555
Li4 O14 2.200448 1_554
Li5 O2 2.052904 1_555
Li5 O7 2.052904 1_455
Li5 O12 2.154131 1_555
Li5 O8 2.154131 1_455
Li5 O13 2.182254 1_545
Li5 O5 2.290379 1_555
Li6 O10 2.052904 1_555
Li6 O15 2.052904 1_455
Li6 O4 2.154131 1_555
Li6 O0 2.154131 1_455
Li6 O6 2.182254 1_565
Li6 O14 2.290379 1_555
Li7 O13 2.127576 1_645
Li7 O6 2.127576 1_655
Li7 O7 2.158535 1_555
Li7 O15 2.158535 1_545
Li7 O3 2.158648 1_555
Li7 O9 2.158648 1_545
Li8 O15 2.095874 1_555
Li8 O10 2.095874 1_555
Li8 O7 2.095874 1_555
Li8 O2 2.095874 1_555
Li8 O3 2.168308 1_555
Li8 O9 2.168308 1_555
Mn0 O12 1.939953 1_555
Mn0 O8 1.939953 1_455
Mn0 O4 1.939953 1_544
Mn0 O0 1.939953 1_444
Mn0 O14 1.948379 1_554
Mn0 O5 1.948379 1_545
Mn1 O6 1.937836 1_555
Mn1 O13 1.937836 1_555
Mn1 O10 1.955143 1_555
Mn1 O15 1.955143 1_455
Mn1 O2 1.955143 1_555
Mn1 O7 1.955143 1_455
Co0 O9 1.925245 1_555
Co0 O7 1.961032 1_555
Co0 O1 2.030505 1_555
Co0 O5 2.052216 1_655
Co0 O13 2.063685 1_655
Co0 O8 2.135838 1_565
Co1 O3 1.925245 1_555
Co1 O10 1.961032 1_555
Co1 O11 2.030505 1_555
Co1 O14 2.052216 1_555
Co1 O6 2.063685 1_555
Co1 O4 2.135838 1_545
Co2 O8 2.021426 1_555
Co2 O12 2.021426 1_555
Co2 O0 2.021426 1_544
Co2 O4 2.021426 1_544
Co2 O11 2.051189 1_554
Co2 O1 2.051189 1_545
Co3 O9 1.925245 1_555
Co3 O2 1.961032 1_555
Co3 O1 2.030505 1_555
Co3 O5 2.052216 1_555
Co3 O13 2.063685 1_555
Co3 O12 2.135838 1_565
Co4 O3 1.925245 1_555
Co4 O15 1.961032 1_555
Co4 O11 2.030505 1_555
Co4 O14 2.052216 1_655
Co4 O6 2.063685 1_655
Co4 O0 2.135838 1_545
