# generated using pymatgen
data_U2MoO8
_symmetry_space_group_name_H-M   'P 1'
_cell_length_a   4.14214800
_cell_length_b   6.66527497
_cell_length_c   23.73933884
_cell_angle_alpha   89.87318707
_cell_angle_beta   89.95049593
_cell_angle_gamma   89.79426763
_symmetry_Int_Tables_number   1
_chemical_formula_structural   U2MoO8
_chemical_formula_sum   'U8 Mo4 O32'
_cell_volume   655.40278054
_cell_formula_units_Z   4
loop_
 _symmetry_equiv_pos_site_id
 _symmetry_equiv_pos_as_xyz
  1  'x, y, z'
loop_
 _atom_site_type_symbol
 _atom_site_label
 _atom_site_symmetry_multiplicity
 _atom_site_fract_x
 _atom_site_fract_y
 _atom_site_fract_z
 _atom_site_occupancy
  U  U0  1  0.00508300  0.80753300  0.12041100  1
  U  U1  1  0.00455800  0.16540800  0.71366900  1
  U  U2  1  0.00434300  0.33487200  0.21343900  1
  U  U3  1  0.01174700  0.30633600  0.37937100  1
  U  U4  1  0.00538900  0.83404800  0.28614400  1
  U  U5  1  0.01127200  0.69360800  0.62062600  1
  U  U6  1  0.99609900  0.66571700  0.78658600  1
  U  U7  1  0.99490300  0.19241400  0.87959200  1
  Mo  Mo0  1  0.92356600  0.16535900  0.54809500  1
  Mo  Mo1  1  0.91085400  0.33720500  0.04796200  1
  Mo  Mo2  1  0.08983800  0.66342500  0.95207900  1
  Mo  Mo3  1  0.92358800  0.83408100  0.45182400  1
  O  O0  1  0.00453700  0.16157200  0.29216800  1
  O  O1  1  0.01162500  0.45188900  0.56858400  1
  O  O2  1  0.99715200  0.94973100  0.93155700  1
  O  O3  1  0.50410900  0.17890100  0.54560100  1
  O  O4  1  0.99680100  0.96508200  0.81201400  1
  O  O5  1  0.00159900  0.83846300  0.70781400  1
  O  O6  1  0.99861600  0.33890800  0.79226000  1
  O  O7  1  0.49617900  0.66406000  0.78464400  1
  O  O8  1  0.01569100  0.08260100  0.62640600  1
  O  O9  1  0.49415900  0.20616100  0.87802900  1
  O  O10  1  0.49138200  0.32328700  0.04571000  1
  O  O11  1  0.99070300  0.63980500  0.03635700  1
  O  O12  1  0.00492300  0.86211100  0.53669500  1
  O  O13  1  0.00606700  0.53505300  0.31211700  1
  O  O14  1  0.50440500  0.16445000  0.71552400  1
  O  O15  1  0.50581400  0.79398500  0.12201100  1
  O  O16  1  0.51135700  0.70754700  0.62207000  1
  O  O17  1  0.00248100  0.46521600  0.68784600  1
  O  O18  1  0.99417400  0.58075400  0.87380700  1
  O  O19  1  0.00993400  0.54765300  0.43164700  1
  O  O20  1  0.50407000  0.33588900  0.21540100  1
  O  O21  1  0.50866600  0.67708700  0.95423700  1
  O  O22  1  0.00252100  0.66127200  0.20769700  1
  O  O23  1  0.51205200  0.29258000  0.37791800  1
  O  O24  1  0.00432400  0.03474800  0.18810100  1
  O  O25  1  0.00540400  0.13711500  0.46322100  1
  O  O26  1  0.00287000  0.05041100  0.06862800  1
  O  O27  1  0.00589500  0.41929700  0.12624500  1
  O  O28  1  0.50365400  0.82106500  0.45438300  1
  O  O29  1  0.00989600  0.36063400  0.96373800  1
  O  O30  1  0.01268400  0.91664600  0.37339400  1
  O  O31  1  0.50501400  0.83602300  0.28437900  1
loop_
_geom_bond_atom_site_label_1
_geom_bond_atom_site_label_2
_geom_bond_distance
_geom_bond_site_symmetry_2
Mo0 O3 1.740524 1_555
Mo0 O8 1.975128 1_655
Mo0 O1 2.006586 1_655
Mo0 O25 2.051834 1_655
Mo0 O12 2.066289 1_645
Mo0 O3 2.407384 1_655
Mo1 O10 1.741196 1_555
Mo1 O27 1.978707 1_655
Mo1 O26 2.007725 1_655
Mo1 O29 2.046470 1_654
Mo1 O11 2.062862 1_555
Mo1 O10 2.406641 1_655
Mo2 O21 1.738367 1_555
Mo2 O18 1.980063 1_455
Mo2 O2 2.004326 1_455
Mo2 O11 2.047894 1_456
Mo2 O29 2.064339 1_555
Mo2 O21 2.409200 1_455
Mo3 O28 1.742902 1_555
Mo3 O30 1.975188 1_655
Mo3 O19 2.000235 1_655
Mo3 O12 2.052083 1_655
Mo3 O25 2.067645 1_665
Mo3 O28 2.404789 1_655
O0 U4 2.188022 1_545
O0 U2 2.194936 1_555
O0 U3 2.286165 1_555
O1 U5 2.032445 1_555
O2 U7 2.032101 1_565
O4 U6 2.085951 1_555
O4 U7 2.209135 1_565
O4 U1 2.687157 1_665
O5 U1 2.183992 1_565
O5 U6 2.194016 1_455
O5 U5 2.286095 1_555
O6 U6 2.182123 1_555
O6 U1 2.197276 1_655
O6 U7 2.289739 1_555
O7 U6 2.071365 1_555
O7 U6 2.071869 1_455
O8 U1 2.145426 1_555
O8 U5 2.596808 1_545
O9 U7 2.070647 1_455
O9 U7 2.076210 1_555
O11 U0 2.290304 1_655
O12 U5 2.285166 1_555
O13 U4 2.084776 1_555
O13 U3 2.205129 1_555
O14 U1 2.070933 1_555
O14 U1 2.072170 1_655
O15 U0 2.070653 1_655
O15 U0 2.076119 1_555
O16 U5 2.072729 1_655
O16 U5 2.074158 1_555
O17 U1 2.088910 1_555
O17 U5 2.203338 1_555
O18 U6 2.145421 1_555
O18 U7 2.591721 1_555
O19 U3 2.033705 1_555
O20 U2 2.070543 1_555
O20 U2 2.072675 1_655
O22 U2 2.179497 1_555
O22 U4 2.191812 1_555
O22 U0 2.288062 1_555
O23 U3 2.072489 1_655
O23 U3 2.074296 1_555
O24 U2 2.090161 1_555
O24 U0 2.210538 1_545
O24 U4 2.681950 1_545
O25 U3 2.285893 1_555
O26 U0 2.030523 1_545
O27 U2 2.143861 1_555
O27 U0 2.591087 1_555
O29 U7 2.293891 1_455
O30 U4 2.144618 1_555
O30 U3 2.601566 1_565
O31 U4 2.069997 1_555
O31 U4 2.073081 1_655
