# generated using pymatgen
data_NdAl3Cu
_symmetry_space_group_name_H-M   'P 1'
_cell_length_a   6.08348091
_cell_length_b   6.08348091
_cell_length_c   6.08348091
_cell_angle_alpha   139.46645839
_cell_angle_beta   139.46645839
_cell_angle_gamma   58.66430855
_symmetry_Int_Tables_number   1
_chemical_formula_structural   NdAl3Cu
_chemical_formula_sum   'Nd1 Al3 Cu1'
_cell_volume   94.20314628
_cell_formula_units_Z   1
loop_
 _symmetry_equiv_pos_site_id
 _symmetry_equiv_pos_as_xyz
  1  'x, y, z'
loop_
 _atom_site_type_symbol
 _atom_site_label
 _atom_site_symmetry_multiplicity
 _atom_site_fract_x
 _atom_site_fract_y
 _atom_site_fract_z
 _atom_site_occupancy
  Nd  Nd0  1  0.00032020  0.00032020  -0.00000000  1
  Al  Al0  1  0.40847808  0.40847808  0.00000000  1
  Al  Al1  1  0.24976764  0.74976764  0.50000000  1
  Al  Al2  1  0.74976764  0.24976764  0.50000000  1
  Cu  Cu0  1  0.63306543  0.63306543  -0.00000000  1
loop_
_geom_bond_atom_site_label_1
_geom_bond_atom_site_label_2
_geom_bond_distance
_geom_bond_site_symmetry_2
Al0 Cu0 2.382218 1_555
Al0 Nd0 3.135310 1_666
Al0 Nd0 3.135310 1_565
Al0 Nd0 3.135310 1_655
Al0 Nd0 3.135310 1_554
Al1 Cu0 2.443951 1_455
Al1 Cu0 2.443951 1_556
Al1 Nd0 3.382517 1_555
Al1 Nd0 3.382517 1_566
Al1 Nd0 3.391694 1_565
Al1 Nd0 3.391694 1_666
Al2 Cu0 2.443951 1_545
Al2 Cu0 2.443951 1_556
Al2 Nd0 3.382517 1_656
Al2 Nd0 3.382517 1_555
Al2 Nd0 3.391694 1_655
Al2 Nd0 3.391694 1_666
Cu0 Nd0 3.296017 1_565
Cu0 Nd0 3.296017 1_554
Cu0 Nd0 3.296017 1_655
Cu0 Nd0 3.296017 1_666
