# generated using pymatgen
data_Mg149Te
_symmetry_space_group_name_H-M   'P 1'
_cell_length_a   15.90476310
_cell_length_b   15.90476947
_cell_length_c   15.57324679
_cell_angle_alpha   90.00000000
_cell_angle_beta   90.00000000
_cell_angle_gamma   120.00001088
_symmetry_Int_Tables_number   1
_chemical_formula_structural   Mg149Te
_chemical_formula_sum   'Mg149 Te1'
_cell_volume   3411.64892149
_cell_formula_units_Z   1
loop_
 _symmetry_equiv_pos_site_id
 _symmetry_equiv_pos_as_xyz
  1  'x, y, z'
loop_
 _atom_site_type_symbol
 _atom_site_label
 _atom_site_symmetry_multiplicity
 _atom_site_fract_x
 _atom_site_fract_y
 _atom_site_fract_z
 _atom_site_occupancy
  Mg  Mg0  1  0.79728393  0.00148184  -0.00000000  1
  Mg  Mg1  1  0.20419792  0.00148184  -0.00000000  1
  Mg  Mg2  1  0.40046111  0.20023056  -0.00000000  1
  Mg  Mg3  1  0.79976944  0.20023056  -0.00000000  1
  Mg  Mg4  1  0.60031222  0.20062543  -0.00000000  1
  Mg  Mg5  1  0.20419792  0.20271607  -0.00000000  1
  Mg  Mg6  1  0.99851816  0.20271507  -0.00000000  1
  Mg  Mg7  1  0.19964411  0.39928822  -0.00000000  1
  Mg  Mg8  1  0.79937457  0.39968678  -0.00000000  1
  Mg  Mg9  1  0.60031222  0.39968778  -0.00000000  1
  Mg  Mg10  1  0.00033616  0.40136237  -0.00000000  1
  Mg  Mg11  1  0.40102622  0.40136237  -0.00000000  1
  Mg  Mg12  1  0.59863763  0.59897278  -0.00000000  1
  Mg  Mg13  1  0.00033616  0.59897378  -0.00000000  1
  Mg  Mg14  1  0.79976944  0.59953889  -0.00000000  1
  Mg  Mg15  1  0.39970391  0.60029609  -0.00000000  1
  Mg  Mg16  1  0.20059218  0.60029609  -0.00000000  1
  Mg  Mg17  1  0.79728393  0.79580208  -0.00000000  1
  Mg  Mg18  1  0.99851816  0.79580308  -0.00000000  1
  Mg  Mg19  1  0.39970391  0.79940782  -0.00000000  1
  Mg  Mg20  1  0.19964411  0.80035589  -0.00000000  1
  Mg  Mg21  1  0.60071278  0.80035589  -0.00000000  1
  Mg  Mg22  1  0.59863763  0.99966384  -0.00000000  1
  Mg  Mg23  1  0.40102622  0.99966484  -0.00000000  1
  Mg  Mg24  1  0.66666600  0.33333300  0.16623808  1
  Mg  Mg25  1  0.66667800  0.13337367  0.16620518  1
  Mg  Mg26  1  0.46669667  0.13337367  0.16620518  1
  Mg  Mg27  1  0.46669667  0.33332200  0.16620518  1
  Mg  Mg28  1  0.86662633  0.33332200  0.16620518  1
  Mg  Mg29  1  0.66667800  0.53330333  0.16620518  1
  Mg  Mg30  1  0.86662633  0.53330433  0.16620518  1
  Mg  Mg31  1  0.26659285  0.53318570  0.16634115  1
  Mg  Mg32  1  0.46681330  0.73340715  0.16634115  1
  Mg  Mg33  1  0.26659285  0.73340715  0.16634115  1
  Mg  Mg34  1  0.26667203  0.33296329  0.16628537  1
  Mg  Mg35  1  0.06629127  0.33296429  0.16628537  1
  Mg  Mg36  1  0.06629127  0.73332697  0.16628537  1
  Mg  Mg37  1  0.66703571  0.73332697  0.16628537  1
  Mg  Mg38  1  0.66703571  0.93370773  0.16628537  1
  Mg  Mg39  1  0.26667203  0.93370873  0.16628537  1
  Mg  Mg40  1  0.46653430  0.53346670  0.16655210  1
  Mg  Mg41  1  0.06693239  0.53346670  0.16655210  1
  Mg  Mg42  1  0.46653430  0.93306761  0.16655210  1
  Mg  Mg43  1  0.26687199  0.13343599  0.16725202  1
  Mg  Mg44  1  0.86656401  0.13343699  0.16725202  1
  Mg  Mg45  1  0.86656401  0.73312801  0.16725202  1
  Mg  Mg46  1  0.06718514  0.13436927  0.16965995  1
  Mg  Mg47  1  0.06718514  0.93281586  0.16965995  1
  Mg  Mg48  1  0.86563073  0.93281586  0.16965995  1
  Mg  Mg49  1  -0.00000000  0.00000000  0.33267615  1
  Mg  Mg50  1  0.19981263  0.39962425  0.33267949  1
  Mg  Mg51  1  0.19981263  0.80018837  0.33267949  1
  Mg  Mg52  1  0.60037575  0.80018837  0.33267949  1
  Mg  Mg53  1  0.80001139  0.19998861  0.33289526  1
  Mg  Mg54  1  0.39997722  0.19998861  0.33289526  1
  Mg  Mg55  1  0.80001139  0.60002278  0.33289526  1
  Mg  Mg56  1  0.60022245  0.20044590  0.33290743  1
  Mg  Mg57  1  0.60022245  0.39977655  0.33290743  1
  Mg  Mg58  1  0.79955410  0.39977655  0.33290743  1
  Mg  Mg59  1  0.20032207  0.60016153  0.33300504  1
  Mg  Mg60  1  0.39983847  0.60016153  0.33300504  1
  Mg  Mg61  1  0.39983847  0.79967793  0.33300504  1
  Mg  Mg62  1  0.39999515  -0.00001413  0.33330336  1
  Mg  Mg63  1  0.59999072  -0.00001413  0.33330336  1
  Mg  Mg64  1  0.39999515  0.40000928  0.33330336  1
  Mg  Mg65  1  0.00001413  0.40000928  0.33330336  1
  Mg  Mg66  1  0.59999072  0.60000485  0.33330336  1
  Mg  Mg67  1  0.00001413  0.60000485  0.33330336  1
  Mg  Mg68  1  0.79985367  0.00010496  0.33438573  1
  Mg  Mg69  1  0.20025229  0.00010596  0.33438573  1
  Mg  Mg70  1  0.20025229  0.20014633  0.33438573  1
  Mg  Mg71  1  0.99989404  0.20014633  0.33438573  1
  Mg  Mg72  1  0.99989404  0.79974771  0.33438573  1
  Mg  Mg73  1  0.79985367  0.79974771  0.33438573  1
  Mg  Mg74  1  0.06649525  0.13298950  0.50000000  1
  Mg  Mg75  1  0.66653154  0.13320724  0.50000000  1
  Mg  Mg76  1  0.46667670  0.13320824  0.50000000  1
  Mg  Mg77  1  0.26689461  0.13344731  0.50000000  1
  Mg  Mg78  1  0.86655169  0.13344731  0.50000000  1
  Mg  Mg79  1  0.66666600  0.33333300  0.50000000  1
  Mg  Mg80  1  0.86679176  0.33346846  0.50000000  1
  Mg  Mg81  1  0.46667670  0.33346846  0.50000000  1
  Mg  Mg82  1  0.06684469  0.33344136  0.50000000  1
  Mg  Mg83  1  0.26659667  0.33344136  0.50000000  1
  Mg  Mg84  1  0.86679176  0.53332330  0.50000000  1
  Mg  Mg85  1  0.66653154  0.53332330  0.50000000  1
  Mg  Mg86  1  0.46662142  0.53337858  0.50000000  1
  Mg  Mg87  1  0.06675616  0.53337858  0.50000000  1
  Mg  Mg88  1  0.26664252  0.53328604  0.50000000  1
  Mg  Mg89  1  0.86655169  0.73310439  0.50000000  1
  Mg  Mg90  1  0.46671396  0.73335748  0.50000000  1
  Mg  Mg91  1  0.26664252  0.73335748  0.50000000  1
  Mg  Mg92  1  0.66655964  0.73340333  0.50000000  1
  Mg  Mg93  1  0.06684469  0.73340333  0.50000000  1
  Mg  Mg94  1  0.46662142  0.93324284  0.50000000  1
  Mg  Mg95  1  0.66655964  0.93315631  0.50000000  1
  Mg  Mg96  1  0.26659667  0.93315631  0.50000000  1
  Mg  Mg97  1  0.86701050  0.93350575  0.50000000  1
  Mg  Mg98  1  0.06649525  0.93350575  0.50000000  1
  Mg  Mg99  1  0.79985367  0.00010496  0.66561427  1
  Mg  Mg100  1  0.20025229  0.00010596  0.66561427  1
  Mg  Mg101  1  0.20025229  0.20014633  0.66561427  1
  Mg  Mg102  1  0.99989404  0.20014633  0.66561427  1
  Mg  Mg103  1  0.99989404  0.79974771  0.66561427  1
  Mg  Mg104  1  0.79985367  0.79974771  0.66561427  1
  Mg  Mg105  1  0.39999515  -0.00001413  0.66669564  1
  Mg  Mg106  1  0.59999072  -0.00001413  0.66669564  1
  Mg  Mg107  1  0.39999515  0.40000928  0.66669564  1
  Mg  Mg108  1  0.00001413  0.40000928  0.66669564  1
  Mg  Mg109  1  0.59999072  0.60000485  0.66669564  1
  Mg  Mg110  1  0.00001413  0.60000485  0.66669564  1
  Mg  Mg111  1  0.20032207  0.60016153  0.66699396  1
  Mg  Mg112  1  0.39983847  0.60016153  0.66699396  1
  Mg  Mg113  1  0.39983847  0.79967793  0.66699396  1
  Mg  Mg114  1  0.60022245  0.20044590  0.66709257  1
  Mg  Mg115  1  0.60022245  0.39977655  0.66709257  1
  Mg  Mg116  1  0.79955410  0.39977655  0.66709257  1
  Mg  Mg117  1  0.80001139  0.19998861  0.66710474  1
  Mg  Mg118  1  0.39997722  0.19998861  0.66710474  1
  Mg  Mg119  1  0.80001139  0.60002278  0.66710474  1
  Mg  Mg120  1  0.19981263  0.39962425  0.66732051  1
  Mg  Mg121  1  0.19981263  0.80018837  0.66732051  1
  Mg  Mg122  1  0.60037575  0.80018837  0.66732051  1
  Mg  Mg123  1  -0.00000000  0.00000000  0.66732385  1
  Mg  Mg124  1  0.06718514  0.13436927  0.83034005  1
  Mg  Mg125  1  0.06718514  0.93281586  0.83034005  1
  Mg  Mg126  1  0.86563073  0.93281586  0.83034005  1
  Mg  Mg127  1  0.26687199  0.13343599  0.83274798  1
  Mg  Mg128  1  0.86656401  0.13343699  0.83274798  1
  Mg  Mg129  1  0.86656401  0.73312801  0.83274798  1
  Mg  Mg130  1  0.46653430  0.53346670  0.83344790  1
  Mg  Mg131  1  0.06693239  0.53346670  0.83344790  1
  Mg  Mg132  1  0.46653430  0.93306761  0.83344790  1
  Mg  Mg133  1  0.26667203  0.33296329  0.83371363  1
  Mg  Mg134  1  0.06629127  0.33296429  0.83371363  1
  Mg  Mg135  1  0.06629127  0.73332697  0.83371363  1
  Mg  Mg136  1  0.66703571  0.73332697  0.83371363  1
  Mg  Mg137  1  0.66703571  0.93370773  0.83371363  1
  Mg  Mg138  1  0.26667203  0.93370873  0.83371363  1
  Mg  Mg139  1  0.26659285  0.53318570  0.83365885  1
  Mg  Mg140  1  0.46681330  0.73340715  0.83365885  1
  Mg  Mg141  1  0.26659285  0.73340715  0.83365885  1
  Mg  Mg142  1  0.66667800  0.13337367  0.83379582  1
  Mg  Mg143  1  0.46669667  0.13337367  0.83379582  1
  Mg  Mg144  1  0.46669667  0.33332200  0.83379582  1
  Mg  Mg145  1  0.86662633  0.33332200  0.83379582  1
  Mg  Mg146  1  0.66667800  0.53330333  0.83379582  1
  Mg  Mg147  1  0.86662633  0.53330433  0.83379582  1
  Mg  Mg148  1  0.66666600  0.33333300  0.83376192  1
  Te  Te0  1  -0.00000000  0.00000000  -0.00000000  1
loop_
_geom_bond_atom_site_label_1
_geom_bond_atom_site_label_2
_geom_bond_distance
_geom_bond_site_symmetry_2
Mg0 Mg3 3.141473 1_555
Mg0 Mg22 3.145065 1_545
Mg0 Mg38 3.150613 1_545
Mg0 Mg137 3.150626 1_544
Mg0 Mg21 3.163261 1_545
Mg0 Mg128 3.176547 1_554
Mg0 Mg44 3.176547 1_555
Mg0 Mg6 3.200575 1_555
Mg0 Te0 3.236000 1_655
Mg0 Mg126 3.246927 1_544
Mg0 Mg48 3.246927 1_545
Mg0 Mg17 3.271289 1_545
Mg1 Mg2 3.141472 1_555
Mg1 Mg23 3.145057 1_545
Mg1 Mg39 3.150605 1_545
Mg1 Mg138 3.150618 1_544
Mg1 Mg20 3.163270 1_545
Mg1 Mg127 3.176540 1_554
Mg1 Mg43 3.176540 1_555
Mg1 Mg5 3.200584 1_555
Mg1 Te0 3.236000 1_555
Mg1 Mg47 3.246927 1_545
Mg1 Mg125 3.246927 1_544
Mg1 Mg18 3.271280 1_445
Mg2 Mg5 3.141472 1_555
Mg2 Mg27 3.171781 1_555
Mg2 Mg26 3.171789 1_555
Mg2 Mg4 3.175449 1_555
Mg2 Mg9 3.175457 1_555
Mg2 Mg43 3.189045 1_555
Mg2 Mg23 3.194455 1_545
Mg3 Mg6 3.141480 1_555
Mg3 Mg8 3.175450 1_555
Mg3 Mg4 3.175465 1_555
Mg3 Mg44 3.189038 1_555
Mg4 Mg8 3.166032 1_555
Mg4 Mg9 3.166041 1_555
Mg5 Mg7 3.163270 1_555
Mg5 Te0 3.236000 1_555
Mg5 Mg6 3.271280 1_455
Mg6 Mg7 3.163277 1_655
Mg6 Te0 3.235985 1_655
Mg8 Mg9 3.166047 1_555
Mg10 Mg13 3.142964 1_555
Mg10 Mg6 3.145082 1_455
Mg10 Mg131 3.168372 1_554
Mg10 Mg41 3.168372 1_555
Mg10 Mg16 3.174561 1_555
Mg10 Mg145 3.176751 1_454
Mg10 Mg28 3.176764 1_455
Mg10 Mg35 3.182929 1_555
Mg10 Mg134 3.182942 1_554
Mg10 Mg8 3.183005 1_455
Mg10 Mg7 3.186568 1_555
Mg10 Mg3 3.194470 1_455
Mg11 Mg12 3.142955 1_555
Mg11 Mg5 3.145065 1_555
Mg11 Mg130 3.168372 1_554
Mg11 Mg40 3.168372 1_555
Mg11 Mg15 3.174563 1_555
Mg11 Mg144 3.176759 1_554
Mg11 Mg27 3.176772 1_555
Mg11 Mg34 3.182937 1_555
Mg11 Mg133 3.182949 1_554
Mg11 Mg9 3.182997 1_555
Mg11 Mg7 3.186568 1_555
Mg11 Mg2 3.194471 1_555
Mg12 Mg17 3.145073 1_555
Mg12 Mg40 3.168364 1_555
Mg12 Mg130 3.168364 1_554
Mg12 Mg15 3.174569 1_555
Mg12 Mg146 3.176751 1_554
Mg12 Mg29 3.176764 1_555
Mg12 Mg37 3.182937 1_555
Mg12 Mg136 3.182950 1_554
Mg12 Mg9 3.182983 1_555
Mg12 Mg21 3.186578 1_555
Mg12 Mg14 3.194461 1_555
Mg13 Mg18 3.145082 1_455
Mg13 Mg41 3.168364 1_555
Mg13 Mg131 3.168364 1_554
Mg13 Mg16 3.174561 1_555
Mg13 Mg147 3.176751 1_454
Mg13 Mg30 3.176764 1_455
Mg13 Mg36 3.182929 1_555
Mg13 Mg135 3.182942 1_554
Mg13 Mg8 3.183013 1_455
Mg13 Mg20 3.186568 1_555
Mg13 Mg14 3.194470 1_455
Mg14 Mg17 3.141473 1_555
Mg14 Mg18 3.141480 1_555
Mg14 Mg146 3.171768 1_554
Mg14 Mg147 3.171769 1_554
Mg14 Mg29 3.171781 1_555
Mg14 Mg30 3.171781 1_555
Mg14 Mg9 3.175457 1_555
Mg14 Mg8 3.175466 1_555
Mg14 Mg45 3.189046 1_555
Mg15 Mg16 3.166825 1_555
Mg15 Mg19 3.166826 1_555
Mg15 Mg31 3.173674 1_555
Mg15 Mg32 3.173674 1_555
Mg15 Mg40 3.180713 1_555
Mg15 Mg7 3.189470 1_555
Mg15 Mg21 3.189478 1_555
Mg16 Mg19 3.166825 1_555
Mg16 Mg31 3.173674 1_555
Mg16 Mg33 3.173674 1_555
Mg16 Mg41 3.180712 1_555
Mg16 Mg20 3.189471 1_555
Mg16 Mg7 3.189471 1_555
Mg17 Mg37 3.150613 1_555
Mg17 Mg21 3.163253 1_555
Mg17 Mg45 3.176540 1_555
Mg17 Mg18 3.200575 1_555
Mg17 Te0 3.236000 1_665
Mg17 Mg48 3.246936 1_555
Mg18 Mg36 3.150621 1_655
Mg18 Mg20 3.163277 1_655
Mg18 Mg45 3.176539 1_555
Mg18 Te0 3.235985 1_665
Mg18 Mg47 3.246928 1_655
Mg19 Mg32 3.173666 1_555
Mg19 Mg33 3.173674 1_555
Mg19 Mg22 3.174561 1_555
Mg19 Mg23 3.174578 1_555
Mg19 Mg42 3.180713 1_555
Mg19 Mg20 3.189470 1_555
Mg19 Mg21 3.189486 1_555
Mg20 Mg36 3.174883 1_555
Mg20 Mg39 3.174883 1_555
Mg20 Mg33 3.179932 1_555
Mg20 Mg23 3.186576 1_555
Mg21 Mg38 3.174875 1_555
Mg21 Mg37 3.174875 1_555
Mg21 Mg32 3.179948 1_555
Mg21 Mg22 3.186578 1_555
Mg22 Mg23 3.142971 1_555
Mg22 Mg42 3.168364 1_555
Mg22 Mg25 3.176764 1_565
Mg22 Mg38 3.182937 1_555
Mg22 Mg4 3.183014 1_565
Mg22 Mg3 3.194470 1_565
Mg23 Mg42 3.168380 1_555
Mg23 Mg26 3.176756 1_565
Mg23 Mg39 3.182937 1_555
Mg23 Mg4 3.182997 1_565
Mg24 Mg4 3.169143 1_555
Mg24 Mg8 3.169151 1_555
Mg24 Mg9 3.169151 1_555
Mg24 Mg57 3.176056 1_555
Mg24 Mg56 3.176056 1_555
Mg24 Mg58 3.176064 1_555
Mg24 Mg27 3.180377 1_555
Mg24 Mg26 3.180385 1_555
Mg24 Mg29 3.180387 1_555
Mg24 Mg25 3.180403 1_555
Mg24 Mg28 3.180409 1_555
Mg24 Mg30 3.180409 1_555
Mg25 Mg3 3.171781 1_555
Mg25 Mg4 3.175979 1_555
Mg25 Mg38 3.178489 1_545
Mg25 Mg44 3.178678 1_555
Mg25 Mg53 3.179866 1_555
Mg25 Mg28 3.180131 1_555
Mg25 Mg26 3.180656 1_555
Mg25 Mg56 3.181572 1_555
Mg25 Mg42 3.184535 1_545
Mg25 Mg63 3.185489 1_555
Mg26 Mg4 3.175963 1_555
Mg26 Mg39 3.178488 1_545
Mg26 Mg43 3.178702 1_555
Mg26 Mg54 3.179875 1_555
Mg26 Mg27 3.180132 1_555
Mg26 Mg56 3.181556 1_555
Mg26 Mg42 3.184536 1_545
Mg26 Mg62 3.185489 1_555
Mg27 Mg9 3.175963 1_555
Mg27 Mg34 3.178496 1_555
Mg27 Mg43 3.178694 1_555
Mg27 Mg54 3.179867 1_555
Mg27 Mg29 3.180656 1_555
Mg27 Mg57 3.181556 1_555
Mg27 Mg40 3.184552 1_555
Mg27 Mg64 3.185497 1_555
Mg28 Mg3 3.171781 1_555
Mg28 Mg8 3.175971 1_555
Mg28 Mg35 3.178472 1_655
Mg28 Mg44 3.178671 1_555
Mg28 Mg53 3.179867 1_555
Mg28 Mg30 3.180673 1_555
Mg28 Mg58 3.181564 1_555
Mg28 Mg41 3.184543 1_655
Mg28 Mg65 3.185489 1_655
Mg29 Mg9 3.175963 1_555
Mg29 Mg37 3.178489 1_555
Mg29 Mg45 3.178694 1_555
Mg29 Mg55 3.179866 1_555
Mg29 Mg30 3.180123 1_555
Mg29 Mg57 3.181564 1_555
Mg29 Mg40 3.184543 1_555
Mg29 Mg66 3.185497 1_555
Mg30 Mg8 3.175979 1_555
Mg30 Mg36 3.178472 1_655
Mg30 Mg45 3.178687 1_555
Mg30 Mg55 3.179867 1_555
Mg30 Mg58 3.181572 1_555
Mg30 Mg41 3.184535 1_655
Mg30 Mg67 3.185489 1_655
Mg31 Mg50 3.177214 1_555
Mg31 Mg40 3.177791 1_555
Mg31 Mg41 3.177791 1_555
Mg31 Mg60 3.178840 1_555
Mg31 Mg59 3.178848 1_555
Mg31 Mg7 3.179932 1_555
Mg31 Mg32 3.184467 1_555
Mg31 Mg33 3.184476 1_555
Mg31 Mg35 3.185112 1_555
Mg31 Mg34 3.185121 1_555
Mg32 Mg52 3.177222 1_555
Mg32 Mg42 3.177776 1_555
Mg32 Mg40 3.177792 1_555
Mg32 Mg61 3.178840 1_555
Mg32 Mg60 3.178840 1_555
Mg32 Mg33 3.184459 1_555
Mg32 Mg38 3.185112 1_555
Mg32 Mg37 3.185128 1_555
Mg33 Mg51 3.177214 1_555
Mg33 Mg41 3.177783 1_555
Mg33 Mg42 3.177791 1_555
Mg33 Mg61 3.178840 1_555
Mg33 Mg59 3.178840 1_555
Mg33 Mg36 3.185112 1_555
Mg33 Mg39 3.185121 1_555
Mg34 Mg5 3.150606 1_555
Mg34 Mg46 3.166151 1_555
Mg34 Mg7 3.174883 1_555
Mg34 Mg43 3.175063 1_555
Mg34 Mg50 3.177595 1_555
Mg34 Mg40 3.183876 1_555
Mg34 Mg64 3.183961 1_555
Mg34 Mg35 3.187016 1_555
Mg34 Mg70 3.193741 1_555
Mg35 Mg6 3.150621 1_455
Mg35 Mg46 3.166177 1_555
Mg35 Mg7 3.174883 1_555
Mg35 Mg44 3.175062 1_455
Mg35 Mg50 3.177603 1_555
Mg35 Mg41 3.183861 1_555
Mg35 Mg65 3.183953 1_555
Mg35 Mg71 3.193749 1_455
Mg36 Mg47 3.166177 1_555
Mg36 Mg45 3.175069 1_455
Mg36 Mg51 3.177603 1_555
Mg36 Mg41 3.183845 1_555
Mg36 Mg67 3.183953 1_555
Mg36 Mg39 3.187017 1_555
Mg36 Mg72 3.193749 1_455
Mg37 Mg48 3.166175 1_555
Mg37 Mg45 3.175069 1_555
Mg37 Mg52 3.177603 1_555
Mg37 Mg40 3.183844 1_555
Mg37 Mg66 3.183953 1_555
Mg37 Mg38 3.187010 1_555
Mg37 Mg73 3.193749 1_555
Mg38 Mg48 3.166159 1_555
Mg38 Mg44 3.175085 1_565
Mg38 Mg52 3.177587 1_555
Mg38 Mg42 3.183852 1_555
Mg38 Mg63 3.183961 1_565
Mg38 Mg68 3.193749 1_565
Mg39 Mg47 3.166151 1_555
Mg39 Mg43 3.175063 1_565
Mg39 Mg51 3.177595 1_555
Mg39 Mg42 3.183875 1_555
Mg39 Mg62 3.183961 1_565
Mg39 Mg69 3.193741 1_565
Mg40 Mg60 3.177308 1_555
Mg40 Mg66 3.181624 1_555
Mg40 Mg64 3.181633 1_555
Mg41 Mg59 3.177300 1_555
Mg41 Mg67 3.181625 1_555
Mg41 Mg65 3.181633 1_555
Mg42 Mg61 3.177301 1_555
Mg42 Mg63 3.181624 1_565
Mg42 Mg62 3.181632 1_565
Mg43 Mg54 3.164750 1_555
Mg43 Mg5 3.176540 1_555
Mg43 Mg46 3.183641 1_555
Mg43 Mg47 3.183641 1_545
Mg43 Mg69 3.185482 1_555
Mg43 Mg70 3.185483 1_555
Mg44 Mg53 3.164742 1_555
Mg44 Mg6 3.176539 1_555
Mg44 Mg48 3.183658 1_545
Mg44 Mg46 3.183664 1_655
Mg44 Mg71 3.185482 1_555
Mg44 Mg68 3.185498 1_555
Mg45 Mg55 3.164750 1_555
Mg45 Mg47 3.183657 1_655
Mg45 Mg48 3.183658 1_555
Mg45 Mg72 3.185482 1_555
Mg45 Mg73 3.185483 1_555
Mg46 Mg49 3.141718 1_555
Mg46 Mg70 3.152832 1_555
Mg46 Mg71 3.152841 1_455
Mg46 Mg47 3.205661 1_545
Mg46 Mg48 3.205667 1_445
Mg46 Te0 3.225899 1_555
Mg46 Mg5 3.246927 1_555
Mg46 Mg6 3.246927 1_455
Mg47 Mg49 3.141718 1_565
Mg47 Mg69 3.152832 1_565
Mg47 Mg72 3.152841 1_455
Mg47 Mg48 3.205675 1_455
Mg47 Te0 3.225899 1_565
Mg48 Mg49 3.141717 1_665
Mg48 Mg68 3.152825 1_565
Mg48 Mg73 3.152841 1_555
Mg48 Te0 3.225899 1_665
Mg49 Mg68 3.184226 1_455
Mg49 Mg69 3.184234 1_555
Mg49 Mg70 3.184234 1_555
Mg49 Mg73 3.184234 1_445
Mg49 Mg71 3.184236 1_455
Mg49 Mg72 3.184236 1_445
Mg49 Mg97 3.185202 1_445
Mg49 Mg98 3.185203 1_545
Mg49 Mg74 3.185203 1_555
Mg50 Mg70 3.176264 1_555
Mg50 Mg71 3.176270 1_455
Mg50 Mg64 3.180813 1_555
Mg50 Mg65 3.180829 1_555
Mg50 Mg83 3.184985 1_555
Mg50 Mg82 3.184992 1_555
Mg50 Mg60 3.185443 1_555
Mg50 Mg59 3.185460 1_555
Mg50 Mg88 3.190494 1_555
Mg51 Mg69 3.176264 1_565
Mg51 Mg72 3.176270 1_455
Mg51 Mg62 3.180813 1_565
Mg51 Mg67 3.180829 1_555
Mg51 Mg93 3.184992 1_555
Mg51 Mg96 3.184993 1_555
Mg51 Mg61 3.185435 1_555
Mg51 Mg59 3.185444 1_555
Mg51 Mg91 3.190486 1_555
Mg52 Mg68 3.176255 1_565
Mg52 Mg73 3.176270 1_555
Mg52 Mg63 3.180814 1_565
Mg52 Mg66 3.180830 1_555
Mg52 Mg95 3.184993 1_555
Mg52 Mg92 3.185001 1_555
Mg52 Mg61 3.185451 1_555
Mg52 Mg60 3.185451 1_555
Mg52 Mg90 3.190494 1_555
Mg53 Mg71 3.177917 1_555
Mg53 Mg68 3.177935 1_555
Mg53 Mg63 3.181145 1_555
Mg53 Mg65 3.181145 1_655
Mg53 Mg58 3.181224 1_555
Mg53 Mg56 3.181239 1_555
Mg53 Mg78 3.183142 1_555
Mg53 Mg75 3.186304 1_555
Mg53 Mg80 3.186304 1_555
Mg54 Mg70 3.177917 1_555
Mg54 Mg69 3.177918 1_555
Mg54 Mg62 3.181146 1_555
Mg54 Mg64 3.181146 1_555
Mg54 Mg56 3.181223 1_555
Mg54 Mg57 3.181223 1_555
Mg54 Mg77 3.183150 1_555
Mg54 Mg76 3.186304 1_555
Mg54 Mg81 3.186304 1_555
Mg55 Mg72 3.177918 1_555
Mg55 Mg73 3.177919 1_555
Mg55 Mg66 3.181145 1_555
Mg55 Mg67 3.181145 1_655
Mg55 Mg57 3.181239 1_555
Mg55 Mg58 3.181240 1_555
Mg55 Mg89 3.183142 1_555
Mg55 Mg85 3.186304 1_555
Mg55 Mg84 3.186304 1_555
Mg56 Mg57 3.170308 1_555
Mg56 Mg58 3.170315 1_555
Mg56 Mg79 3.181445 1_555
Mg56 Mg62 3.186426 1_555
Mg56 Mg63 3.186435 1_555
Mg56 Mg76 3.186681 1_555
Mg56 Mg75 3.186698 1_555
Mg57 Mg58 3.170323 1_555
Mg57 Mg79 3.181445 1_555
Mg57 Mg64 3.186426 1_555
Mg57 Mg66 3.186435 1_555
Mg57 Mg81 3.186681 1_555
Mg57 Mg85 3.186690 1_555
Mg58 Mg79 3.181452 1_555
Mg58 Mg65 3.186426 1_655
Mg58 Mg67 3.186434 1_655
Mg58 Mg80 3.186682 1_555
Mg58 Mg84 3.186690 1_555
Mg59 Mg60 3.173261 1_555
Mg59 Mg61 3.173261 1_555
Mg59 Mg88 3.182655 1_555
Mg59 Mg91 3.182655 1_555
Mg59 Mg67 3.184608 1_555
Mg59 Mg65 3.184616 1_555
Mg59 Mg87 3.185592 1_555
Mg60 Mg61 3.173262 1_555
Mg60 Mg88 3.182655 1_555
Mg60 Mg90 3.182655 1_555
Mg60 Mg66 3.184624 1_555
Mg60 Mg64 3.184625 1_555
Mg60 Mg86 3.185592 1_555
Mg61 Mg91 3.182655 1_555
Mg61 Mg90 3.182655 1_555
Mg61 Mg62 3.184610 1_565
Mg61 Mg63 3.184616 1_565
Mg61 Mg94 3.185584 1_555
Mg62 Mg69 3.177863 1_555
Mg62 Mg76 3.179067 1_555
Mg62 Mg94 3.180236 1_545
Mg62 Mg96 3.180468 1_545
Mg62 Mg63 3.180882 1_555
Mg63 Mg68 3.177871 1_555
Mg63 Mg75 3.179059 1_555
Mg63 Mg94 3.180235 1_545
Mg63 Mg95 3.180468 1_545
Mg64 Mg70 3.177863 1_555
Mg64 Mg81 3.179067 1_555
Mg64 Mg86 3.180236 1_555
Mg64 Mg83 3.180468 1_555
Mg64 Mg66 3.180882 1_555
Mg65 Mg71 3.177864 1_455
Mg65 Mg80 3.179067 1_455
Mg65 Mg87 3.180236 1_555
Mg65 Mg82 3.180468 1_555
Mg65 Mg67 3.180883 1_555
Mg66 Mg73 3.177863 1_555
Mg66 Mg85 3.179067 1_555
Mg66 Mg86 3.180235 1_555
Mg66 Mg92 3.180469 1_555
Mg67 Mg72 3.177864 1_455
Mg67 Mg84 3.179067 1_455
Mg67 Mg87 3.180228 1_555
Mg67 Mg93 3.180469 1_555
Mg68 Mg95 3.165893 1_545
Mg68 Mg78 3.166276 1_555
Mg68 Mg97 3.169588 1_545
Mg68 Mg71 3.181603 1_555
Mg68 Mg73 3.186636 1_545
Mg69 Mg96 3.165893 1_545
Mg69 Mg77 3.166268 1_555
Mg69 Mg98 3.169595 1_545
Mg69 Mg70 3.181596 1_555
Mg69 Mg72 3.186651 1_445
Mg70 Mg83 3.165901 1_555
Mg70 Mg77 3.166268 1_555
Mg70 Mg74 3.169595 1_555
Mg70 Mg71 3.186651 1_455
Mg71 Mg82 3.165901 1_655
Mg71 Mg78 3.166275 1_555
Mg71 Mg74 3.169604 1_655
Mg72 Mg93 3.165901 1_655
Mg72 Mg89 3.166275 1_555
Mg72 Mg98 3.169604 1_655
Mg72 Mg73 3.181595 1_555
Mg73 Mg92 3.165893 1_555
Mg73 Mg89 3.166268 1_555
Mg73 Mg97 3.169604 1_555
Mg74 Mg98 3.172743 1_545
Mg74 Mg97 3.172750 1_445
Mg74 Mg77 3.183670 1_555
Mg74 Mg78 3.183702 1_455
Mg74 Mg83 3.185356 1_555
Mg74 Mg82 3.185365 1_555
Mg75 Mg76 3.178652 1_555
Mg75 Mg78 3.179366 1_555
Mg75 Mg94 3.179955 1_545
Mg75 Mg79 3.181885 1_555
Mg75 Mg95 3.181987 1_545
Mg75 Mg80 3.185099 1_555
Mg76 Mg77 3.179390 1_555
Mg76 Mg94 3.179964 1_545
Mg76 Mg79 3.181860 1_555
Mg76 Mg96 3.182002 1_545
Mg76 Mg81 3.185093 1_555
Mg77 Mg81 3.179390 1_555
Mg77 Mg96 3.183215 1_545
Mg77 Mg83 3.183231 1_555
Mg77 Mg98 3.183670 1_545
Mg78 Mg99 3.166276 1_555
Mg78 Mg80 3.179383 1_555
Mg78 Mg95 3.183206 1_545
Mg78 Mg82 3.183238 1_655
Mg78 Mg97 3.183679 1_545
Mg79 Mg81 3.181860 1_555
Mg79 Mg85 3.181869 1_555
Mg79 Mg80 3.181876 1_555
Mg79 Mg84 3.181876 1_555
Mg80 Mg84 3.178645 1_555
Mg80 Mg87 3.179955 1_655
Mg80 Mg82 3.182010 1_655
Mg81 Mg85 3.178644 1_555
Mg81 Mg86 3.179964 1_555
Mg81 Mg83 3.182010 1_555
Mg82 Mg83 3.177008 1_555
Mg82 Mg88 3.178110 1_555
Mg82 Mg87 3.180660 1_555
Mg83 Mg88 3.178119 1_555
Mg83 Mg86 3.180651 1_555
Mg84 Mg89 3.179383 1_555
Mg84 Mg87 3.179947 1_655
Mg84 Mg93 3.182010 1_655
Mg84 Mg85 3.185091 1_555
Mg85 Mg89 3.179374 1_555
Mg85 Mg86 3.179963 1_555
Mg85 Mg92 3.182003 1_555
Mg86 Mg88 3.179881 1_555
Mg86 Mg90 3.179883 1_555
Mg86 Mg92 3.180658 1_555
Mg87 Mg88 3.179881 1_555
Mg87 Mg91 3.179881 1_555
Mg87 Mg93 3.180644 1_555
Mg88 Mg90 3.182089 1_555
Mg88 Mg91 3.182090 1_555
Mg89 Mg92 3.183206 1_555
Mg89 Mg93 3.183238 1_655
Mg89 Mg97 3.183695 1_555
Mg89 Mg98 3.183702 1_655
Mg90 Mg95 3.178126 1_555
Mg90 Mg92 3.178134 1_555
Mg90 Mg94 3.179867 1_555
Mg90 Mg91 3.182089 1_555
Mg91 Mg93 3.178102 1_555
Mg91 Mg96 3.178119 1_555
Mg91 Mg94 3.179874 1_555
Mg92 Mg95 3.177025 1_555
Mg92 Mg97 3.185356 1_555
Mg93 Mg96 3.177016 1_555
Mg93 Mg98 3.185365 1_555
Mg94 Mg96 3.180658 1_555
Mg94 Mg95 3.180658 1_555
Mg95 Mg99 3.165893 1_565
Mg95 Mg97 3.185348 1_555
Mg96 Mg98 3.185348 1_555
Mg97 Mg99 3.169588 1_565
Mg97 Mg98 3.172758 1_655
Mg100 Mg125 3.152832 1_545
Mg100 Mg96 3.165893 1_545
Mg100 Mg77 3.166268 1_555
Mg100 Mg98 3.169595 1_545
Mg100 Mg121 3.176264 1_545
Mg100 Mg105 3.177863 1_555
Mg100 Mg118 3.177918 1_555
Mg100 Mg101 3.181596 1_555
Mg100 Mg123 3.184234 1_555
Mg100 Mg127 3.185482 1_555
Mg100 Mg103 3.186651 1_445
Mg100 Mg138 3.193728 1_545
Mg101 Mg124 3.152832 1_555
Mg101 Mg83 3.165901 1_555
Mg101 Mg77 3.166268 1_555
Mg101 Mg74 3.169595 1_555
Mg101 Mg120 3.176264 1_555
Mg101 Mg107 3.177863 1_555
Mg101 Mg118 3.177917 1_555
Mg101 Mg123 3.184234 1_555
Mg101 Mg127 3.185483 1_555
Mg101 Mg102 3.186651 1_455
Mg101 Mg133 3.193728 1_555
Mg102 Mg124 3.152841 1_655
Mg102 Mg82 3.165901 1_655
Mg102 Mg78 3.166275 1_555
Mg102 Mg74 3.169604 1_655
Mg102 Mg120 3.176270 1_655
Mg102 Mg108 3.177864 1_655
Mg102 Mg117 3.177917 1_555
Mg102 Mg99 3.181603 1_555
Mg102 Mg123 3.184236 1_655
Mg102 Mg128 3.185482 1_555
Mg102 Mg134 3.193736 1_655
Mg103 Mg125 3.152841 1_655
Mg103 Mg93 3.165901 1_655
Mg103 Mg89 3.166275 1_555
Mg103 Mg98 3.169604 1_655
Mg103 Mg121 3.176270 1_655
Mg103 Mg110 3.177864 1_655
Mg103 Mg119 3.177918 1_555
Mg103 Mg104 3.181595 1_555
Mg103 Mg123 3.184236 1_665
Mg103 Mg129 3.185482 1_555
Mg103 Mg135 3.193736 1_655
Mg104 Mg126 3.152841 1_555
Mg104 Mg92 3.165893 1_555
Mg104 Mg89 3.166268 1_555
Mg104 Mg97 3.169604 1_555
Mg104 Mg122 3.176270 1_555
Mg104 Mg109 3.177863 1_555
Mg104 Mg119 3.177919 1_555
Mg104 Mg123 3.184234 1_665
Mg104 Mg129 3.185483 1_555
Mg104 Mg99 3.186636 1_565
Mg104 Mg136 3.193736 1_555
Mg105 Mg76 3.179055 1_555
Mg105 Mg94 3.180223 1_545
Mg105 Mg96 3.180455 1_545
Mg105 Mg121 3.180813 1_545
Mg105 Mg106 3.180882 1_555
Mg105 Mg118 3.181146 1_555
Mg105 Mg132 3.181645 1_545
Mg105 Mg138 3.183961 1_545
Mg105 Mg113 3.184610 1_545
Mg105 Mg143 3.185515 1_555
Mg105 Mg114 3.186426 1_555
Mg106 Mg99 3.177871 1_555
Mg106 Mg75 3.179047 1_555
Mg106 Mg94 3.180223 1_545
Mg106 Mg95 3.180456 1_545
Mg106 Mg122 3.180814 1_545
Mg106 Mg117 3.181145 1_555
Mg106 Mg132 3.181637 1_545
Mg106 Mg137 3.183961 1_545
Mg106 Mg113 3.184616 1_545
Mg106 Mg142 3.185515 1_555
Mg106 Mg114 3.186435 1_555
Mg107 Mg81 3.179054 1_555
Mg107 Mg86 3.180223 1_555
Mg107 Mg83 3.180455 1_555
Mg107 Mg120 3.180813 1_555
Mg107 Mg109 3.180882 1_555
Mg107 Mg118 3.181146 1_555
Mg107 Mg130 3.181645 1_555
Mg107 Mg133 3.183961 1_555
Mg107 Mg112 3.184625 1_555
Mg107 Mg144 3.185523 1_555
Mg107 Mg115 3.186426 1_555
Mg108 Mg80 3.179054 1_455
Mg108 Mg87 3.180223 1_555
Mg108 Mg82 3.180456 1_555
Mg108 Mg120 3.180829 1_555
Mg108 Mg110 3.180883 1_555
Mg108 Mg117 3.181145 1_455
Mg108 Mg131 3.181645 1_555
Mg108 Mg134 3.183953 1_555
Mg108 Mg111 3.184616 1_555
Mg108 Mg145 3.185514 1_455
Mg108 Mg116 3.186426 1_455
Mg109 Mg85 3.179054 1_555
Mg109 Mg86 3.180223 1_555
Mg109 Mg92 3.180456 1_555
Mg109 Mg122 3.180830 1_555
Mg109 Mg119 3.181145 1_555
Mg109 Mg130 3.181637 1_555
Mg109 Mg136 3.183953 1_555
Mg109 Mg112 3.184624 1_555
Mg109 Mg146 3.185523 1_555
Mg109 Mg115 3.186435 1_555
Mg110 Mg84 3.179054 1_455
Mg110 Mg87 3.180215 1_555
Mg110 Mg93 3.180456 1_555
Mg110 Mg121 3.180829 1_555
Mg110 Mg119 3.181145 1_455
Mg110 Mg131 3.181637 1_555
Mg110 Mg135 3.183953 1_555
Mg110 Mg111 3.184608 1_555
Mg110 Mg147 3.185514 1_455
Mg110 Mg116 3.186434 1_455
Mg111 Mg112 3.173261 1_555
Mg111 Mg113 3.173261 1_555
Mg111 Mg131 3.177313 1_555
Mg111 Mg141 3.178853 1_555
Mg111 Mg139 3.178861 1_555
Mg111 Mg88 3.182642 1_555
Mg111 Mg91 3.182642 1_555
Mg111 Mg121 3.185444 1_555
Mg111 Mg120 3.185460 1_555
Mg111 Mg87 3.185579 1_555
Mg112 Mg113 3.173262 1_555
Mg112 Mg130 3.177321 1_555
Mg112 Mg139 3.178853 1_555
Mg112 Mg140 3.178853 1_555
Mg112 Mg88 3.182642 1_555
Mg112 Mg90 3.182642 1_555
Mg112 Mg120 3.185443 1_555
Mg112 Mg122 3.185451 1_555
Mg112 Mg86 3.185579 1_555
Mg113 Mg132 3.177313 1_555
Mg113 Mg141 3.178853 1_555
Mg113 Mg140 3.178853 1_555
Mg113 Mg91 3.182642 1_555
Mg113 Mg90 3.182642 1_555
Mg113 Mg121 3.185435 1_555
Mg113 Mg122 3.185451 1_555
Mg113 Mg94 3.185572 1_555
Mg114 Mg115 3.170308 1_555
Mg114 Mg116 3.170315 1_555
Mg114 Mg148 3.176056 1_555
Mg114 Mg118 3.181223 1_555
Mg114 Mg117 3.181239 1_555
Mg114 Mg79 3.181445 1_555
Mg114 Mg143 3.181569 1_555
Mg114 Mg142 3.181585 1_555
Mg114 Mg76 3.186681 1_555
Mg114 Mg75 3.186698 1_555
Mg115 Mg116 3.170323 1_555
Mg115 Mg148 3.176056 1_555
Mg115 Mg118 3.181223 1_555
Mg115 Mg119 3.181239 1_555
Mg115 Mg79 3.181445 1_555
Mg115 Mg144 3.181568 1_555
Mg115 Mg146 3.181577 1_555
Mg115 Mg81 3.186681 1_555
Mg115 Mg85 3.186690 1_555
Mg116 Mg148 3.176064 1_555
Mg116 Mg117 3.181224 1_555
Mg116 Mg119 3.181240 1_555
Mg116 Mg79 3.181452 1_555
Mg116 Mg145 3.181577 1_555
Mg116 Mg147 3.181585 1_555
Mg116 Mg80 3.186682 1_555
Mg116 Mg84 3.186690 1_555
Mg117 Mg128 3.164742 1_555
Mg117 Mg99 3.177935 1_555
Mg117 Mg142 3.179879 1_555
Mg117 Mg145 3.179879 1_555
Mg117 Mg78 3.183142 1_555
Mg117 Mg75 3.186304 1_555
Mg117 Mg80 3.186304 1_555
Mg118 Mg127 3.164750 1_555
Mg118 Mg144 3.179879 1_555
Mg118 Mg143 3.179887 1_555
Mg118 Mg77 3.183150 1_555
Mg118 Mg76 3.186304 1_555
Mg118 Mg81 3.186304 1_555
Mg119 Mg129 3.164750 1_555
Mg119 Mg146 3.179879 1_555
Mg119 Mg147 3.179879 1_555
Mg119 Mg89 3.183142 1_555
Mg119 Mg85 3.186304 1_555
Mg119 Mg84 3.186304 1_555
Mg120 Mg139 3.177214 1_555
Mg120 Mg133 3.177583 1_555
Mg120 Mg134 3.177590 1_555
Mg120 Mg83 3.184985 1_555
Mg120 Mg82 3.184992 1_555
Mg120 Mg88 3.190494 1_555
Mg121 Mg141 3.177214 1_555
Mg121 Mg138 3.177583 1_555
Mg121 Mg135 3.177590 1_555
Mg121 Mg93 3.184992 1_555
Mg121 Mg96 3.184993 1_555
Mg121 Mg91 3.190486 1_555
Mg122 Mg99 3.176255 1_565
Mg122 Mg140 3.177222 1_555
Mg122 Mg137 3.177575 1_555
Mg122 Mg136 3.177591 1_555
Mg122 Mg95 3.184993 1_555
Mg122 Mg92 3.185001 1_555
Mg122 Mg90 3.190494 1_555
Mg123 Mg126 3.141717 1_445
Mg123 Mg124 3.141718 1_555
Mg123 Mg125 3.141718 1_545
Mg123 Mg99 3.184226 1_455
Mg123 Mg97 3.185202 1_445
Mg123 Mg98 3.185203 1_545
Mg123 Mg74 3.185203 1_555
Mg124 Mg133 3.166151 1_555
Mg124 Mg134 3.166176 1_555
Mg124 Mg127 3.183641 1_555
Mg124 Mg128 3.183664 1_455
Mg124 Mg125 3.205661 1_545
Mg124 Mg126 3.205667 1_445
Mg124 Te0 3.225899 1_556
Mg124 Mg5 3.246927 1_556
Mg124 Mg6 3.246927 1_456
Mg125 Mg138 3.166151 1_555
Mg125 Mg135 3.166176 1_555
Mg125 Mg127 3.183641 1_565
Mg125 Mg129 3.183657 1_455
Mg125 Mg126 3.205675 1_455
Mg125 Te0 3.225899 1_566
Mg125 Mg18 3.246928 1_456
Mg126 Mg99 3.152825 1_565
Mg126 Mg137 3.166159 1_555
Mg126 Mg136 3.166175 1_555
Mg126 Mg129 3.183658 1_555
Mg126 Mg128 3.183658 1_565
Mg126 Te0 3.225899 1_666
Mg126 Mg17 3.246936 1_556
Mg127 Mg133 3.175063 1_555
Mg127 Mg138 3.175063 1_545
Mg127 Mg5 3.176540 1_556
Mg127 Mg144 3.178694 1_555
Mg127 Mg143 3.178702 1_555
Mg127 Mg2 3.189045 1_556
Mg128 Mg134 3.175062 1_655
Mg128 Mg137 3.175085 1_545
Mg128 Mg6 3.176539 1_556
Mg128 Mg145 3.178671 1_555
Mg128 Mg142 3.178678 1_555
Mg128 Mg99 3.185498 1_555
Mg128 Mg3 3.189038 1_556
Mg129 Mg135 3.175069 1_655
Mg129 Mg136 3.175069 1_555
Mg129 Mg18 3.176539 1_556
Mg129 Mg17 3.176540 1_556
Mg129 Mg147 3.178687 1_555
Mg129 Mg146 3.178694 1_555
Mg129 Mg14 3.189046 1_556
Mg130 Mg139 3.177791 1_555
Mg130 Mg140 3.177792 1_555
Mg130 Mg15 3.180713 1_556
Mg130 Mg136 3.183844 1_555
Mg130 Mg133 3.183876 1_555
Mg130 Mg146 3.184543 1_555
Mg130 Mg144 3.184552 1_555
Mg131 Mg141 3.177783 1_555
Mg131 Mg139 3.177791 1_555
Mg131 Mg16 3.180712 1_556
Mg131 Mg135 3.183845 1_555
Mg131 Mg134 3.183861 1_555
Mg131 Mg147 3.184535 1_455
Mg131 Mg145 3.184543 1_455
Mg132 Mg22 3.168364 1_556
Mg132 Mg23 3.168380 1_556
Mg132 Mg140 3.177776 1_555
Mg132 Mg141 3.177791 1_555
Mg132 Mg19 3.180713 1_556
Mg132 Mg137 3.183852 1_555
Mg132 Mg138 3.183875 1_555
Mg132 Mg142 3.184535 1_565
Mg132 Mg143 3.184536 1_565
Mg133 Mg5 3.150618 1_556
Mg133 Mg7 3.174896 1_556
Mg133 Mg144 3.178496 1_555
Mg133 Mg139 3.185121 1_555
Mg133 Mg134 3.187016 1_555
Mg134 Mg6 3.150634 1_456
Mg134 Mg7 3.174896 1_556
Mg134 Mg145 3.178472 1_455
Mg134 Mg139 3.185112 1_555
Mg135 Mg18 3.150634 1_456
Mg135 Mg20 3.174896 1_556
Mg135 Mg147 3.178472 1_455
Mg135 Mg141 3.185112 1_555
Mg135 Mg138 3.187017 1_555
Mg136 Mg17 3.150626 1_556
Mg136 Mg21 3.174888 1_556
Mg136 Mg146 3.178489 1_555
Mg136 Mg140 3.185128 1_555
Mg136 Mg137 3.187010 1_555
Mg137 Mg21 3.174888 1_556
Mg137 Mg142 3.178489 1_565
Mg137 Mg22 3.182950 1_556
Mg137 Mg140 3.185112 1_555
Mg137 Mg99 3.193736 1_565
Mg138 Mg20 3.174896 1_556
Mg138 Mg143 3.178488 1_565
Mg138 Mg23 3.182949 1_556
Mg138 Mg141 3.185121 1_555
Mg139 Mg15 3.173674 1_556
Mg139 Mg16 3.173674 1_556
Mg139 Mg7 3.179932 1_556
Mg139 Mg140 3.184467 1_555
Mg139 Mg141 3.184476 1_555
Mg140 Mg19 3.173666 1_556
Mg140 Mg15 3.173674 1_556
Mg140 Mg21 3.179948 1_556
Mg140 Mg141 3.184459 1_555
Mg141 Mg19 3.173674 1_556
Mg141 Mg16 3.173674 1_556
Mg141 Mg20 3.179932 1_556
Mg142 Mg3 3.171768 1_556
Mg142 Mg4 3.175966 1_556
Mg142 Mg22 3.176751 1_546
Mg142 Mg145 3.180131 1_555
Mg142 Mg148 3.180403 1_555
Mg142 Mg143 3.180656 1_555
Mg143 Mg2 3.171777 1_556
Mg143 Mg4 3.175950 1_556
Mg143 Mg23 3.176743 1_546
Mg143 Mg144 3.180132 1_555
Mg143 Mg148 3.180385 1_555
Mg144 Mg2 3.171769 1_556
Mg144 Mg9 3.175950 1_556
Mg144 Mg148 3.180377 1_555
Mg144 Mg146 3.180656 1_555
Mg145 Mg3 3.171769 1_556
Mg145 Mg8 3.175958 1_556
Mg145 Mg148 3.180409 1_555
Mg145 Mg147 3.180673 1_555
Mg146 Mg9 3.175951 1_556
Mg146 Mg147 3.180123 1_555
Mg146 Mg148 3.180387 1_555
Mg147 Mg8 3.175967 1_556
Mg147 Mg148 3.180409 1_555
Mg148 Mg4 3.169143 1_556
Mg148 Mg8 3.169151 1_556
Mg148 Mg9 3.169151 1_556
