# generated using pymatgen
data_DyTiFe11C
_symmetry_space_group_name_H-M   'P 1'
_cell_length_a   4.85396900
_cell_length_b   6.50514850
_cell_length_c   6.50514850
_cell_angle_alpha   97.58547795
_cell_angle_beta   111.90611432
_cell_angle_gamma   68.09388568
_symmetry_Int_Tables_number   1
_chemical_formula_structural   DyTiFe11C
_chemical_formula_sum   'Dy1 Ti1 Fe11 C1'
_cell_volume   176.80791077
_cell_formula_units_Z   1
loop_
 _symmetry_equiv_pos_site_id
 _symmetry_equiv_pos_as_xyz
  1  'x, y, z'
loop_
 _atom_site_type_symbol
 _atom_site_label
 _atom_site_symmetry_multiplicity
 _atom_site_fract_x
 _atom_site_fract_y
 _atom_site_fract_z
 _atom_site_occupancy
  Dy  Dy0  1  0.00743300  0.99256700  0.00743300  1
  Ti  Ti0  1  0.63356500  0.36643500  0.63356500  1
  Fe  Fe0  1  0.72473400  0.77526600  0.22473400  1
  Fe  Fe1  1  0.27740400  0.22259600  0.77740400  1
  Fe  Fe2  1  0.49780000  0.78220600  0.77780700  1
  Fe  Fe3  1  0.49780000  0.22219300  0.21779400  1
  Fe  Fe4  1  0.50018300  0.99773800  0.49915700  1
  Fe  Fe5  1  0.00123600  0.99773800  0.49915700  1
  Fe  Fe6  1  0.50018300  0.50084300  0.00226200  1
  Fe  Fe7  1  0.00123600  0.50084300  0.00226200  1
  Fe  Fe8  1  0.35673200  0.64326800  0.35673200  1
  Fe  Fe9  1  0.00002700  0.35863900  0.35869300  1
  Fe  Fe10  1  0.00002700  0.64130700  0.64136100  1
  C  C0  1  0.50164000  0.99836000  0.00164000  1
loop_
_geom_bond_atom_site_label_1
_geom_bond_atom_site_label_2
_geom_bond_distance
_geom_bond_site_symmetry_2
Dy0 Fe9 3.074766 1_565
Dy0 Fe10 3.074766 1_554
Dy0 Ti0 3.177768 1_464
Dy0 Fe6 3.205712 1_555
Dy0 Fe4 3.205712 1_555
Dy0 Fe7 3.205712 1_555
Dy0 Fe5 3.205712 1_555
Dy0 Fe4 3.299816 1_454
Dy0 Fe6 3.299816 1_465
Dy0 Fe5 3.299816 1_554
Dy0 Fe7 3.299816 1_565
Fe0 Fe7 2.462120 1_655
Fe0 Fe5 2.462120 1_655
Fe0 Fe6 2.462120 1_555
Fe0 Fe4 2.462120 1_555
Fe0 Fe10 2.634881 1_655
Fe0 Fe9 2.634881 1_655
Fe1 Fe5 2.483226 1_545
Fe1 Fe7 2.483226 1_556
Fe1 Fe4 2.483226 1_545
Fe1 Fe6 2.483226 1_556
Fe1 Fe10 2.650624 1_555
Fe1 Fe9 2.650624 1_555
Fe1 Ti0 2.717531 1_455
Fe1 Ti0 2.717532 1_555
Fe2 Fe5 2.439338 1_555
Fe2 Fe4 2.439341 1_555
Fe2 Fe6 2.481783 1_556
Fe2 Fe7 2.481785 1_656
Fe2 Ti0 2.662948 1_555
Fe3 Fe7 2.439338 1_555
Fe3 Fe6 2.439341 1_555
Fe3 Fe4 2.481783 1_545
Fe3 Fe5 2.481785 1_645
Fe3 Ti0 2.662948 1_555
Fe3 Fe9 2.702457 1_555
Fe3 Fe9 2.702462 1_655
Fe4 Fe5 2.421873 1_555
Fe4 Fe5 2.432096 1_655
Fe4 Fe8 2.610167 1_555
Fe4 Fe9 2.626555 1_565
Fe4 Ti0 2.668097 1_565
Fe5 Fe8 2.610167 1_555
Fe5 Fe9 2.626555 1_565
Fe5 Ti0 2.668097 1_465
Fe6 Fe7 2.421873 1_555
Fe6 Fe7 2.432096 1_655
Fe6 Fe9 2.610041 1_655
Fe6 Fe8 2.610167 1_555
Fe6 Ti0 2.668097 1_554
Fe7 Fe9 2.610041 1_555
Fe7 Fe8 2.610167 1_555
Fe7 Ti0 2.668097 1_454
Fe8 Ti0 2.352999 1_555
Fe8 Fe9 2.973401 1_655
Fe8 Fe9 2.973401 1_555
Fe9 Ti0 2.940404 1_555
Fe9 Ti0 2.940404 1_455
Fe10 Fe9 2.422743 1_555
Fe10 Fe4 2.610041 1_455
Fe10 Fe5 2.610041 1_555
Fe10 Fe6 2.626555 1_556
Fe10 Fe7 2.626555 1_556
Fe10 Fe2 2.702457 1_555
Fe10 Fe2 2.702462 1_455
Fe10 Ti0 2.940404 1_555
Fe10 Ti0 2.940404 1_455
Fe10 Fe8 2.973401 1_455
Fe10 Fe8 2.973401 1_555
C0 Fe3 1.885844 1_565
C0 Fe2 1.885844 1_554
C0 Fe0 1.896233 1_555
C0 Fe1 1.905940 1_564
C0 Dy0 2.427484 1_655
C0 Dy0 2.427484 1_555
