# generated using pymatgen
data_CaLa4Ga2(FeO6)2
_symmetry_space_group_name_H-M   'P 1'
_cell_length_a   6.50821387
_cell_length_b   6.33821605
_cell_length_c   7.32056554
_cell_angle_alpha   86.29312669
_cell_angle_beta   90.87027890
_cell_angle_gamma   90.19741124
_symmetry_Int_Tables_number   1
_chemical_formula_structural   CaLa4Ga2(FeO6)2
_chemical_formula_sum   'Ca1 La4 Ga2 Fe2 O12'
_cell_volume   301.30928294
_cell_formula_units_Z   1
loop_
 _symmetry_equiv_pos_site_id
 _symmetry_equiv_pos_as_xyz
  1  'x, y, z'
loop_
 _atom_site_type_symbol
 _atom_site_label
 _atom_site_symmetry_multiplicity
 _atom_site_fract_x
 _atom_site_fract_y
 _atom_site_fract_z
 _atom_site_occupancy
  Ca  Ca0  1  0.20706700  0.85575600  0.70310700  1
  La  La0  1  0.38196600  0.36778200  0.72670700  1
  La  La1  1  0.86442500  0.15822600  0.78093000  1
  La  La2  1  0.56743500  0.44771500  0.23513400  1
  La  La3  1  0.08495700  0.04663200  0.25025800  1
  Ga  Ga0  1  0.02923100  0.61133100  0.01914400  1
  Ga  Ga1  1  0.58055300  0.88869200  0.47884300  1
  Fe  Fe0  1  0.96560200  0.51297600  0.48348000  1
  Fe  Fe1  1  0.50061500  0.96224400  0.01716400  1
  O  O0  1  0.53210300  0.97832900  0.71572600  1
  O  O1  1  0.03257600  0.53158600  0.77471200  1
  O  O2  1  0.47579600  0.06547600  0.28077300  1
  O  O3  1  0.96206200  0.41762100  0.21235100  1
  O  O4  1  0.68714900  0.35769700  0.53438700  1
  O  O5  1  0.19769800  0.11316400  0.93975200  1
  O  O6  1  0.32190900  0.67187600  0.02134900  1
  O  O7  1  0.86350900  0.82771300  0.46870200  1
  O  O8  1  0.36522200  0.67814200  0.47649500  1
  O  O9  1  0.84943200  0.84204200  0.04041800  1
  O  O10  1  0.62374200  0.28697200  0.96682400  1
  O  O11  1  0.13314000  0.19945600  0.54041200  1
loop_
_geom_bond_atom_site_label_1
_geom_bond_atom_site_label_2
_geom_bond_distance
_geom_bond_site_symmetry_2
Ca0 O0 2.253675 1_555
Ca0 O8 2.319521 1_555
Ca0 O1 2.376717 1_555
Ca0 O5 2.456830 1_565
Ca0 O11 2.459668 1_565
Ca0 O6 2.635627 1_556
Ca0 O7 2.809944 1_455
La0 O10 2.373454 1_555
La0 O11 2.393699 1_555
La0 O4 2.455336 1_555
La0 O5 2.488585 1_555
La0 O1 2.541608 1_555
La0 O8 2.601169 1_555
La0 O0 2.664410 1_545
La0 O6 3.014710 1_556
La1 O10 2.277852 1_555
La1 O4 2.416349 1_555
La1 O5 2.454120 1_655
La1 O0 2.495552 1_545
La1 O11 2.501568 1_655
La1 O1 2.601819 1_655
La1 O9 2.673242 1_546
La2 O10 2.305102 1_554
La2 O4 2.349752 1_555
La2 O2 2.495656 1_555
La2 O6 2.583309 1_555
La2 O3 2.584754 1_555
La2 O8 2.721124 1_555
La3 O11 2.406670 1_555
La3 O5 2.409914 1_554
La3 O3 2.483485 1_455
La3 O7 2.515752 1_445
La3 O2 2.553133 1_555
La3 O9 2.561882 1_445
Ga0 O3 1.868036 1_455
Ga0 O1 1.891040 1_554
Ga0 O9 1.891729 1_455
Ga0 O6 1.941818 1_555
Ga1 O7 1.886511 1_555
Ga1 O0 1.890664 1_555
Ga1 O2 1.894187 1_565
Ga1 O8 1.932496 1_555
Fe0 O4 2.086264 1_555
Fe0 O7 2.100415 1_555
Fe0 O3 2.111619 1_555
Fe0 O1 2.180181 1_655
Fe0 O11 2.281545 1_655
Fe1 O2 2.086066 1_565
Fe1 O6 2.172512 1_555
Fe1 O0 2.215040 1_554
Fe1 O10 2.216675 1_564
Fe1 O5 2.243153 1_564
Fe1 O9 2.397191 1_555
