# generated using pymatgen
data_Ho(MnGe)6
_symmetry_space_group_name_H-M   'P 1'
_cell_length_a   5.17765900
_cell_length_b   5.17765855
_cell_length_c   8.17001600
_cell_angle_alpha   90.00000000
_cell_angle_beta   90.00000000
_cell_angle_gamma   119.99999646
_symmetry_Int_Tables_number   1
_chemical_formula_structural   Ho(MnGe)6
_chemical_formula_sum   'Ho1 Mn6 Ge6'
_cell_volume   189.67950419
_cell_formula_units_Z   1
loop_
 _symmetry_equiv_pos_site_id
 _symmetry_equiv_pos_as_xyz
  1  'x, y, z'
loop_
 _atom_site_type_symbol
 _atom_site_label
 _atom_site_symmetry_multiplicity
 _atom_site_fract_x
 _atom_site_fract_y
 _atom_site_fract_z
 _atom_site_occupancy
  Ho  Ho0  1  0.00000000  0.00000000  0.00000000  1
  Mn  Mn0  1  0.50000000  0.50000000  0.74997600  1
  Mn  Mn1  1  0.50000000  0.00000000  0.74997600  1
  Mn  Mn2  1  0.00000000  0.50000000  0.74997600  1
  Mn  Mn3  1  0.50000000  0.50000000  0.25002400  1
  Mn  Mn4  1  0.50000000  0.00000000  0.25002400  1
  Mn  Mn5  1  0.00000000  0.50000000  0.25002400  1
  Ge  Ge0  1  0.66666700  0.33333300  0.00000000  1
  Ge  Ge1  1  0.33333300  0.66666700  0.00000000  1
  Ge  Ge2  1  0.66666700  0.33333300  0.50000000  1
  Ge  Ge3  1  0.33333300  0.66666700  0.50000000  1
  Ge  Ge4  1  0.00000000  0.00000000  0.65676200  1
  Ge  Ge5  1  0.00000000  0.00000000  0.34323800  1
loop_
_geom_bond_atom_site_label_1
_geom_bond_atom_site_label_2
_geom_bond_distance
_geom_bond_site_symmetry_2
Ge0 Mn4 2.531132 1_555
Ge0 Mn1 2.531132 1_554
Ge0 Mn5 2.531133 1_655
Ge0 Mn2 2.531133 1_654
Ge0 Mn3 2.531135 1_555
Ge0 Mn0 2.531135 1_554
Ge0 Ho0 2.989320 1_655
Ge0 Ho0 2.989324 1_665
Ge0 Ho0 2.989324 1_555
Ge1 Mn4 2.531132 1_565
Ge1 Mn1 2.531132 1_564
Ge1 Mn5 2.531133 1_555
Ge1 Mn2 2.531133 1_554
Ge1 Mn3 2.531135 1_555
Ge1 Mn0 2.531135 1_554
Ge1 Ho0 2.989320 1_565
Ge1 Ho0 2.989324 1_555
Ge1 Ho0 2.989324 1_665
Ge2 Mn1 2.530816 1_555
Ge2 Mn4 2.530816 1_555
Ge2 Mn2 2.530816 1_655
Ge2 Mn5 2.530816 1_655
Ge2 Mn0 2.530819 1_555
Ge2 Mn3 2.530819 1_555
Ge3 Mn1 2.530816 1_565
Ge3 Mn4 2.530816 1_565
Ge3 Mn2 2.530816 1_555
Ge3 Mn5 2.530816 1_555
Ge3 Mn0 2.530819 1_555
Ge3 Mn3 2.530819 1_555
Ge4 Ge5 2.561496 1_555
Ge4 Mn2 2.698520 1_555
Ge4 Mn2 2.698520 1_545
Ge4 Mn1 2.698520 1_455
Ge4 Mn1 2.698520 1_555
Ge4 Mn0 2.698520 1_445
Ge4 Mn0 2.698520 1_555
Ge4 Ho0 2.804260 1_556
Ge5 Mn5 2.698520 1_545
Ge5 Mn5 2.698520 1_555
Ge5 Mn4 2.698520 1_455
Ge5 Mn4 2.698520 1_555
Ge5 Mn3 2.698520 1_555
Ge5 Mn3 2.698520 1_445
Ge5 Ho0 2.804260 1_555
