# generated using pymatgen
data_Er2Si2PbO8
_symmetry_space_group_name_H-M   'P 1'
_cell_length_a   9.76821582
_cell_length_b   9.76821582
_cell_length_c   6.90955500
_cell_angle_alpha   90.00000000
_cell_angle_beta   90.00000000
_cell_angle_gamma   119.99999879
_symmetry_Int_Tables_number   1
_chemical_formula_structural   Er2Si2PbO8
_chemical_formula_sum   'Er6 Si6 Pb3 O24'
_cell_volume   570.96726280
_cell_formula_units_Z   3
loop_
 _symmetry_equiv_pos_site_id
 _symmetry_equiv_pos_as_xyz
  1  'x, y, z'
loop_
 _atom_site_type_symbol
 _atom_site_label
 _atom_site_symmetry_multiplicity
 _atom_site_fract_x
 _atom_site_fract_y
 _atom_site_fract_z
 _atom_site_occupancy
  Er  Er0  1  0.72358900  0.00271100  0.24870100  1
  Er  Er1  1  0.99728900  0.72087700  0.24870100  1
  Er  Er2  1  0.27912300  0.27641100  0.24870100  1
  Er  Er3  1  0.27227000  0.99122800  0.75400400  1
  Er  Er4  1  0.00877200  0.28104200  0.75400400  1
  Er  Er5  1  0.71895800  0.72773000  0.75400400  1
  Si  Si0  1  0.63464200  0.98989200  0.75112900  1
  Si  Si1  1  0.01010800  0.64475000  0.75112900  1
  Si  Si2  1  0.35525000  0.36535800  0.75112900  1
  Si  Si3  1  0.36019100  0.00754000  0.25251900  1
  Si  Si4  1  0.99246000  0.35265100  0.25251900  1
  Si  Si5  1  0.64734900  0.63980900  0.25251900  1
  Pb  Pb0  1  0.33333300  0.66666700  0.45569200  1
  Pb  Pb1  1  0.66666700  0.33333300  0.99655400  1
  Pb  Pb2  1  0.66666700  0.33333300  0.50806000  1
  O  O0  1  0.69029000  0.92069600  0.56802300  1
  O  O1  1  0.07930400  0.76959400  0.56802300  1
  O  O2  1  0.23040600  0.30971000  0.56802300  1
  O  O3  1  0.31575600  0.08538300  0.06806100  1
  O  O4  1  0.91461700  0.23037300  0.06806100  1
  O  O5  1  0.76962700  0.68424400  0.06806100  1
  O  O6  1  0.31060900  0.08393900  0.43500200  1
  O  O7  1  0.91606100  0.22667000  0.43500200  1
  O  O8  1  0.77333000  0.68939100  0.43500200  1
  O  O9  1  0.70273600  0.92813900  0.92920800  1
  O  O10  1  0.07186100  0.77459600  0.92920800  1
  O  O11  1  0.22540400  0.29726400  0.92920800  1
  O  O12  1  0.44516100  0.92715000  0.74648200  1
  O  O13  1  0.07285000  0.51801200  0.74648200  1
  O  O14  1  0.48198800  0.55483900  0.74648200  1
  O  O15  1  0.55283500  0.07346800  0.25740900  1
  O  O16  1  0.92653200  0.47936700  0.25740900  1
  O  O17  1  0.52063300  0.44716500  0.25740900  1
  O  O18  1  0.72753800  0.18713700  0.75238700  1
  O  O19  1  0.81286300  0.54040200  0.75238700  1
  O  O20  1  0.45959800  0.27246200  0.75238700  1
  O  O21  1  0.26005600  0.81602200  0.24878100  1
  O  O22  1  0.18397800  0.44403400  0.24878100  1
  O  O23  1  0.55596600  0.73994400  0.24878100  1
loop_
_geom_bond_atom_site_label_1
_geom_bond_atom_site_label_2
_geom_bond_distance
_geom_bond_site_symmetry_2
Er0 O15 2.101494 1_555
Er0 O23 2.250894 1_545
Er0 O9 2.301527 1_544
Er0 O0 2.314113 1_545
Er0 O4 2.415704 1_555
Er0 O7 2.421715 1_555
Er1 O16 2.101485 1_555
Er1 O21 2.250893 1_655
Er1 O10 2.301527 1_654
Er1 O1 2.314114 1_655
Er1 O5 2.415707 1_555
Er1 O8 2.421719 1_555
Er2 O17 2.101487 1_555
Er2 O22 2.250902 1_555
Er2 O11 2.301527 1_554
Er2 O2 2.314116 1_555
Er2 O3 2.415699 1_555
Er2 O6 2.421710 1_555
Er3 O12 2.074547 1_555
Er3 O3 2.311823 1_566
Er3 O6 2.340849 1_565
Er3 O10 2.373435 1_555
Er3 O1 2.410516 1_555
Er3 O20 2.422491 1_565
Er4 O13 2.074557 1_555
Er4 O4 2.311823 1_456
Er4 O7 2.340849 1_455
Er4 O11 2.373439 1_555
Er4 O2 2.410516 1_555
Er4 O18 2.422493 1_455
Er5 O14 2.074554 1_555
Er5 O5 2.311823 1_556
Er5 O8 2.340849 1_555
Er5 O9 2.373431 1_555
Er5 O0 2.410516 1_555
Er5 O19 2.422483 1_555
O0 Si0 1.649379 1_555
O1 Si1 1.649379 1_555
O2 Si2 1.649379 1_555
O3 Si3 1.649559 1_555
O4 Si4 1.649559 1_555
O5 Si5 1.649559 1_555
O6 Si3 1.656129 1_555
O7 Si4 1.656129 1_555
O8 Si5 1.656129 1_555
O9 Si0 1.649708 1_555
O10 Si1 1.649702 1_555
O11 Si2 1.649703 1_555
O12 Si0 1.633426 1_555
O13 Si1 1.633416 1_555
O14 Si2 1.633424 1_555
O15 Si3 1.656844 1_555
O15 Pb2 2.803005 1_555
O16 Si4 1.656844 1_555
O16 Pb2 2.803006 1_555
O17 Si5 1.656844 1_555
O17 Pb2 2.803012 1_555
O18 Si0 1.669559 1_545
O18 Pb1 2.467456 1_555
O18 Pb2 2.468212 1_555
O19 Si1 1.669558 1_655
O19 Pb1 2.467466 1_555
O19 Pb2 2.468222 1_555
O20 Si2 1.669550 1_555
O20 Pb1 2.467469 1_555
O20 Pb2 2.468225 1_555
O21 Si3 1.620921 1_565
O21 Pb0 2.393543 1_555
O22 Si4 1.620921 1_455
O22 Pb0 2.393549 1_555
O23 Si5 1.620921 1_555
O23 Pb0 2.393551 1_555
