# generated using pymatgen
data_Na2MnPCO7
_symmetry_space_group_name_H-M   'P 1'
_cell_length_a   8.50536800
_cell_length_b   8.53052181
_cell_length_c   8.96577623
_cell_angle_alpha   91.09072082
_cell_angle_beta   90.19317235
_cell_angle_gamma   104.38948416
_symmetry_Int_Tables_number   1
_chemical_formula_structural   Na2MnPCO7
_chemical_formula_sum   'Na8 Mn4 P4 C4 O28'
_cell_volume   629.97030400
_cell_formula_units_Z   4
loop_
 _symmetry_equiv_pos_site_id
 _symmetry_equiv_pos_as_xyz
  1  'x, y, z'
loop_
 _atom_site_type_symbol
 _atom_site_label
 _atom_site_symmetry_multiplicity
 _atom_site_fract_x
 _atom_site_fract_y
 _atom_site_fract_z
 _atom_site_occupancy
  Na  Na0  1  0.37383300  0.38035100  0.23760600  1
  Na  Na1  1  0.63260600  0.12539200  0.23657200  1
  Na  Na2  1  0.13895900  0.61827700  0.25702500  1
  Na  Na3  1  0.87068400  0.88652500  0.25650800  1
  Na  Na4  1  0.14673900  0.12483200  0.74419700  1
  Na  Na5  1  0.86154800  0.36950400  0.75419000  1
  Na  Na6  1  0.61218500  0.61396100  0.76160500  1
  Na  Na7  1  0.02914700  0.76250700  0.91346800  1
  Mn  Mn0  1  0.73492900  0.48829400  0.35310400  1
  Mn  Mn1  1  0.23772500  0.98469900  0.35748900  1
  Mn  Mn2  1  0.26547100  0.52160400  0.64896600  1
  Mn  Mn3  1  0.75759900  0.01543900  0.64991900  1
  P  P0  1  0.02055300  0.27140500  0.42466500  1
  P  P1  1  0.52047500  0.76736400  0.42279700  1
  P  P2  1  0.48074000  0.23297100  0.57342600  1
  P  P3  1  0.97163500  0.72498700  0.58154800  1
  C  C0  1  0.25509500  0.01016600  0.07804800  1
  C  C1  1  0.77261300  0.52042400  0.07410000  1
  C  C2  1  0.23589000  0.48563900  0.92377600  1
  C  C3  1  0.73949000  0.98603800  0.92483600  1
  O  O0  1  0.22742300  0.48083800  0.06321300  1
  O  O1  1  0.74372900  0.98172000  0.06464900  1
  O  O2  1  0.66330400  0.41089400  0.14592200  1
  O  O3  1  0.15174300  0.89825500  0.15779900  1
  O  O4  1  0.36134900  0.11034800  0.16134300  1
  O  O5  1  0.87513600  0.62077300  0.16074600  1
  O  O6  1  0.07896800  0.14265200  0.33131000  1
  O  O7  1  0.58278500  0.64427600  0.32392300  1
  O  O8  1  0.89168400  0.33164300  0.33480200  1
  O  O9  1  0.39099200  0.82594500  0.33345600  1
  O  O10  1  0.17029600  0.42217100  0.45493500  1
  O  O11  1  0.54282300  0.29934900  0.41766700  1
  O  O12  1  0.04651100  0.79236000  0.43187800  1
  O  O13  1  0.67028900  0.91683100  0.45578200  1
  O  O14  1  0.33010200  0.08391700  0.54209900  1
  O  O15  1  0.95363700  0.20143100  0.57662700  1
  O  O16  1  0.45388400  0.69312900  0.57228200  1
  O  O17  1  0.81516900  0.58240000  0.54535900  1
  O  O18  1  0.61496700  0.18111700  0.65950100  1
  O  O19  1  0.42006200  0.35769600  0.66838000  1
  O  O20  1  0.08429500  0.65169900  0.67799900  1
  O  O21  1  0.92028300  0.85501000  0.67849700  1
  O  O22  1  0.13731400  0.38734600  0.83121000  1
  O  O23  1  0.64248600  0.88361500  0.83701000  1
  O  O24  1  0.84236500  0.10104100  0.84975000  1
  O  O25  1  0.34496000  0.59679800  0.85357400  1
  O  O26  1  0.24079200  0.00930900  0.93976900  1
  O  O27  1  0.77721000  0.52743500  0.93339900  1
loop_
_geom_bond_atom_site_label_1
_geom_bond_atom_site_label_2
_geom_bond_distance
_geom_bond_site_symmetry_2
Na0 O0 2.301890 1_555
Na0 O4 2.366819 1_555
Na0 O11 2.381189 1_555
Na0 O2 2.551136 1_555
Na0 O7 2.600378 1_555
Na0 O10 2.687778 1_555
Na0 O6 2.942557 1_555
Na1 O1 2.298913 1_545
Na1 O4 2.373468 1_555
Na1 O11 2.429270 1_555
Na1 O2 2.533975 1_555
Na1 O8 2.593809 1_555
Na1 O13 2.746468 1_545
Na2 O0 2.308666 1_555
Na2 O12 2.404425 1_555
Na2 O5 2.406682 1_455
Na2 O9 2.501891 1_555
Na2 O10 2.519837 1_555
Na2 O3 2.541654 1_555
Na2 O8 2.899502 1_455
Na3 O1 2.293656 1_555
Na3 O5 2.417991 1_555
Na3 O12 2.446059 1_655
Na3 O6 2.524737 1_665
Na3 O13 2.527052 1_555
Na3 O3 2.531112 1_655
Na3 O7 2.859080 1_555
Na4 O26 2.265797 1_555
Na4 O22 2.377605 1_555
Na4 O15 2.436348 1_455
Na4 O14 2.470389 1_555
Na4 O21 2.663080 1_445
Na4 O24 2.720559 1_455
Na4 O19 2.753033 1_555
Na5 O27 2.305845 1_555
Na5 O15 2.383950 1_555
Na5 O22 2.410185 1_655
Na5 O24 2.428023 1_555
Na5 O18 2.441866 1_555
Na5 O17 2.727645 1_555
Na5 O20 2.766850 1_655
Na6 O27 2.330439 1_555
Na6 O23 2.336617 1_555
Na6 O16 2.372833 1_555
Na6 O25 2.391450 1_555
Na6 O19 2.508684 1_555
Na6 O17 2.654402 1_555
Na7 O20 2.391984 1_555
Na7 O26 2.413111 1_565
Na7 O21 2.516243 1_455
Na7 O3 2.552434 1_556
Na7 O27 2.554467 1_455
Na7 O5 2.725335 1_456
Mn0 O17 1.936101 1_555
Mn0 O2 2.000827 1_555
Mn0 O11 2.082224 1_555
Mn0 O7 2.092913 1_555
Mn0 O8 2.113976 1_555
Mn0 O5 2.256516 1_555
Mn1 O14 1.918503 1_565
Mn1 O3 1.989198 1_555
Mn1 O9 2.109032 1_555
Mn1 O12 2.122404 1_555
Mn1 O6 2.146649 1_565
Mn1 O4 2.207080 1_565
Mn2 O25 1.991259 1_555
Mn2 O10 1.998538 1_555
Mn2 O16 2.015447 1_555
Mn2 O20 2.125002 1_555
Mn2 O22 2.152309 1_555
Mn2 O19 2.153053 1_555
Mn3 O13 1.978323 1_545
Mn3 O24 1.985652 1_555
Mn3 O18 2.079618 1_555
Mn3 O15 2.112224 1_555
Mn3 O23 2.138351 1_545
Mn3 O21 2.192098 1_545
C0 O26 1.245030 1_554
C0 O4 1.300798 1_555
C0 O3 1.344802 1_545
C1 O27 1.264324 1_554
C1 O5 1.302216 1_555
C1 O2 1.321825 1_555
C2 O0 1.253338 1_556
C2 O22 1.309275 1_555
C2 O25 1.321123 1_555
C3 O1 1.255433 1_556
C3 O23 1.294328 1_555
C3 O24 1.335557 1_565
O6 P0 1.546861 1_555
O7 P1 1.553557 1_555
O8 P0 1.550589 1_655
O9 P1 1.545004 1_555
O10 P0 1.587480 1_555
O11 P2 1.560812 1_555
O12 P3 1.545901 1_455
O13 P1 1.585059 1_555
O14 P2 1.584756 1_555
O15 P0 1.550438 1_655
O16 P1 1.541830 1_555
O17 P3 1.591641 1_555
O18 P2 1.533835 1_555
O19 P2 1.537708 1_555
O20 P3 1.539344 1_455
O21 P3 1.543761 1_555
