# generated using pymatgen
data_CoH12CN5O6
_symmetry_space_group_name_H-M   'P 1'
_cell_length_a   7.97970400
_cell_length_b   6.98273900
_cell_length_c   17.94836133
_cell_angle_alpha   90.00000000
_cell_angle_beta   95.59918161
_cell_angle_gamma   90.00000000
_symmetry_Int_Tables_number   1
_chemical_formula_structural   CoH12CN5O6
_chemical_formula_sum   'Co4 H48 C4 N20 O24'
_cell_volume   995.31449252
_cell_formula_units_Z   4
loop_
 _symmetry_equiv_pos_site_id
 _symmetry_equiv_pos_as_xyz
  1  'x, y, z'
loop_
 _atom_site_type_symbol
 _atom_site_label
 _atom_site_symmetry_multiplicity
 _atom_site_fract_x
 _atom_site_fract_y
 _atom_site_fract_z
 _atom_site_occupancy
  Co  Co0  1  0.73768100  0.60818100  0.41477600  1
  Co  Co1  1  0.26231900  0.10818100  0.08522400  1
  Co  Co2  1  0.26231900  0.39181900  0.58522400  1
  Co  Co3  1  0.73768100  0.89181900  0.91477600  1
  H  H0  1  0.71157400  0.38128800  0.30433200  1
  H  H1  1  0.28842600  0.88128800  0.19566800  1
  H  H2  1  0.28842600  0.61871200  0.69566800  1
  H  H3  1  0.71157400  0.11871200  0.80433200  1
  H  H4  1  0.64939800  0.59442900  0.27430700  1
  H  H5  1  0.35060200  0.09442900  0.22569300  1
  H  H6  1  0.35060200  0.40557100  0.72569300  1
  H  H7  1  0.64939800  0.90557100  0.77430700  1
  H  H8  1  0.85242600  0.54593600  0.28957200  1
  H  H9  1  0.14757400  0.04593600  0.21042800  1
  H  H10  1  0.14757400  0.45406400  0.71042800  1
  H  H11  1  0.85242600  0.95406400  0.78957200  1
  H  H12  1  0.46159400  0.77152900  0.42244200  1
  H  H13  1  0.53840600  0.27152900  0.07755800  1
  H  H14  1  0.53840600  0.22847100  0.57755800  1
  H  H15  1  0.46159400  0.72847100  0.92244200  1
  H  H16  1  0.60023400  0.93431700  0.40203600  1
  H  H17  1  0.39976600  0.43431700  0.09796400  1
  H  H18  1  0.39976600  0.06568300  0.59796400  1
  H  H19  1  0.60023400  0.56568300  0.90203600  1
  H  H20  1  0.50675300  0.79038700  0.33611800  1
  H  H21  1  0.49324700  0.29038700  0.16388200  1
  H  H22  1  0.49324700  0.20961300  0.66388200  1
  H  H23  1  0.50675300  0.70961300  0.83611800  1
  H  H24  1  0.90719800  0.91416300  0.43060100  1
  H  H25  1  0.09280200  0.41416300  0.06939900  1
  H  H26  1  0.09280200  0.08583700  0.56939900  1
  H  H27  1  0.90719800  0.58583700  0.93060100  1
  H  H28  1  0.03201900  0.72811300  0.41800700  1
  H  H29  1  0.96798100  0.22811300  0.08199300  1
  H  H30  1  0.96798100  0.27188700  0.58199300  1
  H  H31  1  0.03201900  0.77188700  0.91800700  1
  H  H32  1  0.92114300  0.82833300  0.34533000  1
  H  H33  1  0.07885700  0.32833300  0.15467000  1
  H  H34  1  0.07885700  0.17166700  0.65467000  1
  H  H35  1  0.92114300  0.67166700  0.84533000  1
  H  H36  1  0.74746000  0.83548700  0.52451700  1
  H  H37  1  0.25254000  0.33548700  0.97548300  1
  H  H38  1  0.25254000  0.16451300  0.47548300  1
  H  H39  1  0.74746000  0.66451300  0.02451700  1
  H  H40  1  0.63878800  0.64176600  0.54285700  1
  H  H41  1  0.36121200  0.14176600  0.95714300  1
  H  H42  1  0.36121200  0.35823400  0.45714300  1
  H  H43  1  0.63878800  0.85823400  0.04285700  1
  H  H44  1  0.85055600  0.63531500  0.54928000  1
  H  H45  1  0.14944400  0.13531500  0.95072000  1
  H  H46  1  0.14944400  0.36468500  0.45072000  1
  H  H47  1  0.85055600  0.86468500  0.04928000  1
  C  C0  1  0.73094300  0.28672700  0.45319200  1
  C  C1  1  0.26905700  0.78672700  0.04680800  1
  C  C2  1  0.26905700  0.71327300  0.54680800  1
  C  C3  1  0.73094300  0.21327300  0.95319200  1
  N  N0  1  0.73757100  0.52439500  0.30927500  1
  N  N1  1  0.26242900  0.02439500  0.19072500  1
  N  N2  1  0.26242900  0.47560500  0.69072500  1
  N  N3  1  0.73757100  0.97560500  0.80927500  1
  N  N4  1  0.55817900  0.79722100  0.39029700  1
  N  N5  1  0.44182100  0.29722100  0.10970300  1
  N  N6  1  0.44182100  0.20277900  0.60970300  1
  N  N7  1  0.55817900  0.70277900  0.89029700  1
  N  N8  1  0.91911800  0.79065000  0.40064200  1
  N  N9  1  0.08088200  0.29065000  0.09935800  1
  N  N10  1  0.08088200  0.20935000  0.59935800  1
  N  N11  1  0.91911800  0.70935000  0.90064200  1
  N  N12  1  0.74423600  0.68921200  0.51988100  1
  N  N13  1  0.25576400  0.18921200  0.98011900  1
  N  N14  1  0.25576400  0.31078800  0.48011900  1
  N  N15  1  0.74423600  0.81078800  0.01988100  1
  N  N16  1  0.76875900  0.02268600  0.21650300  1
  N  N17  1  0.23124100  0.52268600  0.28349700  1
  N  N18  1  0.23124100  0.97731400  0.78349700  1
  N  N19  1  0.76875900  0.47731400  0.71650300  1
  O  O0  1  0.59595400  0.39290600  0.43436100  1
  O  O1  1  0.40404600  0.89290600  0.06563900  1
  O  O2  1  0.40404600  0.60709400  0.56563900  1
  O  O3  1  0.59595400  0.10709400  0.93436100  1
  O  O4  1  0.87013000  0.38377600  0.44555500  1
  O  O5  1  0.12987000  0.88377600  0.05444500  1
  O  O6  1  0.12987000  0.61622400  0.55444500  1
  O  O7  1  0.87013000  0.11622400  0.94555500  1
  O  O8  1  0.72653500  0.11684700  0.47569200  1
  O  O9  1  0.27346500  0.61684700  0.02430800  1
  O  O10  1  0.27346500  0.88315300  0.52430800  1
  O  O11  1  0.72653500  0.38315300  0.97569200  1
  O  O12  1  0.65195000  0.06113800  0.25819500  1
  O  O13  1  0.34805000  0.56113800  0.24180500  1
  O  O14  1  0.34805000  0.93886200  0.74180500  1
  O  O15  1  0.65195000  0.43886200  0.75819500  1
  O  O16  1  0.87231700  0.88817100  0.23457100  1
  O  O17  1  0.12768300  0.38817100  0.26542900  1
  O  O18  1  0.12768300  0.11182900  0.76542900  1
  O  O19  1  0.87231700  0.61182900  0.73457100  1
  O  O20  1  0.78092700  0.11813500  0.15754600  1
  O  O21  1  0.21907300  0.61813500  0.34245400  1
  O  O22  1  0.21907300  0.88186500  0.84245400  1
  O  O23  1  0.78092700  0.38186500  0.65754600  1
loop_
_geom_bond_atom_site_label_1
_geom_bond_atom_site_label_2
_geom_bond_distance
_geom_bond_site_symmetry_2
Co0 O0 1.933857 1_555
Co0 O4 1.940016 1_555
Co0 N8 1.963570 1_555
Co0 N12 1.965292 1_555
Co0 N4 1.965799 1_555
Co0 N0 1.981811 1_555
Co1 O1 1.933857 1_545
Co1 O5 1.940016 1_545
Co1 N9 1.963570 1_555
Co1 N13 1.965292 1_554
Co1 N5 1.965799 1_555
Co1 N1 1.981811 1_555
Co2 O2 1.933857 1_555
Co2 O6 1.940016 1_555
Co2 N10 1.963570 1_555
Co2 N14 1.965292 1_555
Co2 N6 1.965799 1_555
Co2 N2 1.981811 1_555
Co3 O3 1.933857 1_565
Co3 O7 1.940016 1_565
Co3 N11 1.963570 1_555
Co3 N15 1.965292 1_556
Co3 N7 1.965799 1_555
Co3 N3 1.981811 1_555
H0 N0 1.022679 1_555
H1 N1 1.022679 1_565
H2 N2 1.022679 1_555
H3 N3 1.022679 1_545
H4 N0 1.020749 1_555
H5 N1 1.020749 1_555
H6 N2 1.020749 1_555
H7 N3 1.020749 1_555
H8 N0 1.025143 1_555
H9 N1 1.025143 1_555
H10 N2 1.025143 1_555
H11 N3 1.025143 1_555
H12 N4 1.022661 1_555
H13 N5 1.022661 1_555
H14 N6 1.022661 1_555
H15 N7 1.022661 1_555
H16 N4 1.029392 1_555
H17 N5 1.029392 1_555
H18 N6 1.029392 1_555
H19 N7 1.029392 1_555
H20 N4 1.019027 1_555
H21 N5 1.019027 1_555
H22 N6 1.019027 1_555
H23 N7 1.019027 1_555
H24 N8 1.025671 1_555
H25 N9 1.025671 1_555
H26 N10 1.025671 1_555
H27 N11 1.025671 1_555
H28 N8 1.022099 1_455
H29 N9 1.022099 1_655
H30 N10 1.022099 1_655
H31 N11 1.022099 1_455
H32 N8 1.028689 1_555
H33 N9 1.028689 1_555
H34 N10 1.028689 1_555
H35 N11 1.028689 1_555
H36 N12 1.024903 1_555
H37 N13 1.024903 1_555
H38 N14 1.024903 1_555
H39 N15 1.024903 1_555
H40 N12 1.027404 1_555
H41 N13 1.027404 1_555
H42 N14 1.027404 1_555
H43 N15 1.027404 1_555
H44 N12 1.025912 1_555
H45 N13 1.025912 1_555
H46 N14 1.025912 1_555
H47 N15 1.025912 1_555
C0 O8 1.254683 1_555
C0 O4 1.319591 1_555
C0 O0 1.324083 1_555
C1 O9 1.254683 1_555
C1 O5 1.319591 1_555
C1 O1 1.324083 1_555
C2 O10 1.254683 1_555
C2 O6 1.319591 1_555
C2 O2 1.324083 1_555
C3 O11 1.254683 1_555
C3 O7 1.319591 1_555
C3 O3 1.324083 1_555
N16 O20 1.262316 1_555
N16 O16 1.272006 1_545
N16 O12 1.279441 1_555
N17 O21 1.262316 1_555
N17 O17 1.272006 1_555
N17 O13 1.279441 1_555
N18 O22 1.262316 1_555
N18 O18 1.272006 1_565
N18 O14 1.279441 1_555
N19 O23 1.262316 1_555
N19 O19 1.272006 1_555
N19 O15 1.279441 1_555
