# generated using pymatgen
data_K2HfO6
_symmetry_space_group_name_H-M   'P 1'
_cell_length_a   10.61343643
_cell_length_b   10.61343643
_cell_length_c   5.87013000
_cell_angle_alpha   90.00000000
_cell_angle_beta   90.00000000
_cell_angle_gamma   112.74623605
_symmetry_Int_Tables_number   1
_chemical_formula_structural   K2HfO6
_chemical_formula_sum   'K8 Hf4 O24'
_cell_volume   609.81387792
_cell_formula_units_Z   4
loop_
 _symmetry_equiv_pos_site_id
 _symmetry_equiv_pos_as_xyz
  1  'x, y, z'
loop_
 _atom_site_type_symbol
 _atom_site_label
 _atom_site_symmetry_multiplicity
 _atom_site_fract_x
 _atom_site_fract_y
 _atom_site_fract_z
 _atom_site_occupancy
  K  K0  1  0.62976000  0.87024000  0.50000000  1
  K  K1  1  0.37024000  0.12976000  0.50000000  1
  K  K2  1  0.87024000  0.62976000  0.50000000  1
  K  K3  1  0.12976000  0.37024000  0.50000000  1
  K  K4  1  0.88105700  0.11894300  0.00988100  1
  K  K5  1  0.11894300  0.88105700  0.99011900  1
  K  K6  1  0.61894300  0.38105700  0.00988100  1
  K  K7  1  0.38105700  0.61894300  0.99011900  1
  Hf  Hf0  1  0.50000000  0.00000000  0.00000000  1
  Hf  Hf1  1  0.00000000  0.50000000  0.00000000  1
  Hf  Hf2  1  0.25000000  0.75000000  0.50294900  1
  Hf  Hf3  1  0.75000000  0.25000000  0.49705100  1
  O  O0  1  0.64434400  0.70029400  0.15596500  1
  O  O1  1  0.35565600  0.29970600  0.84403500  1
  O  O2  1  0.85565600  0.79970600  0.15596500  1
  O  O3  1  0.79970600  0.85565600  0.84403500  1
  O  O4  1  0.14434400  0.20029400  0.84403500  1
  O  O5  1  0.20029400  0.14434400  0.15596500  1
  O  O6  1  0.70029400  0.64434400  0.84403500  1
  O  O7  1  0.29970600  0.35565600  0.15596500  1
  O  O8  1  0.37496700  0.87496700  0.25015400  1
  O  O9  1  0.62503300  0.12503300  0.74984600  1
  O  O10  1  0.12503300  0.62503300  0.25015400  1
  O  O11  1  0.87496700  0.37496700  0.74984600  1
  O  O12  1  0.62394300  0.12394300  0.24891500  1
  O  O13  1  0.37605700  0.87605700  0.75108500  1
  O  O14  1  0.87605700  0.37605700  0.24891500  1
  O  O15  1  0.12394300  0.62394300  0.75108500  1
  O  O16  1  0.61768600  0.88231400  0.00000000  1
  O  O17  1  0.38231400  0.11768600  0.00000000  1
  O  O18  1  0.88231400  0.61768600  0.00000000  1
  O  O19  1  0.11768600  0.38231400  0.00000000  1
  O  O20  1  0.36366700  0.63633300  0.50357600  1
  O  O21  1  0.63633300  0.36366700  0.49642400  1
  O  O22  1  0.13633300  0.86366700  0.50357600  1
  O  O23  1  0.86366700  0.13633300  0.49642400  1
loop_
_geom_bond_atom_site_label_1
_geom_bond_atom_site_label_2
_geom_bond_distance
_geom_bond_site_symmetry_2
K0 O3 2.751678 1_555
K0 O0 2.751678 1_555
K0 O16 2.942813 1_556
K0 O16 2.942813 1_555
K0 O23 2.952574 1_565
K0 O20 2.952574 1_555
K0 O12 3.091144 1_565
K0 O13 3.091144 1_555
K0 O8 3.093750 1_555
K0 O9 3.093750 1_565
K1 O5 2.751678 1_555
K1 O1 2.751678 1_555
K1 O17 2.942813 1_555
K1 O17 2.942813 1_556
K1 O21 2.952574 1_555
K1 O22 2.952574 1_545
K1 O13 3.091144 1_545
K1 O12 3.091144 1_555
K1 O9 3.093750 1_555
K1 O8 3.093750 1_545
K2 O2 2.751678 1_555
K2 O6 2.751678 1_555
K2 O18 2.942813 1_556
K2 O18 2.942813 1_555
K2 O22 2.952574 1_655
K2 O21 2.952574 1_555
K2 O15 3.091144 1_655
K2 O14 3.091144 1_555
K2 O11 3.093750 1_555
K2 O10 3.093750 1_655
K3 O4 2.751678 1_555
K3 O7 2.751678 1_555
K3 O19 2.942813 1_556
K3 O19 2.942813 1_555
K3 O20 2.952574 1_555
K3 O23 2.952574 1_455
K3 O15 3.091144 1_555
K3 O14 3.091144 1_455
K3 O10 3.093750 1_555
K3 O11 3.093750 1_455
K4 O3 2.763344 1_544
K4 O4 2.763344 1_654
K4 O23 2.872562 1_555
K4 O19 2.948824 1_655
K4 O16 2.948824 1_545
K4 O23 3.029691 1_554
K4 O12 3.087127 1_555
K4 O14 3.087127 1_555
K4 O9 3.139061 1_554
K4 O11 3.139061 1_554
K5 O2 2.763344 1_456
K5 O5 2.763344 1_566
K5 O22 2.872562 1_555
K5 O17 2.948824 1_566
K5 O18 2.948824 1_456
K5 O22 3.029691 1_556
K5 O13 3.087127 1_555
K5 O15 3.087127 1_555
K5 O10 3.139061 1_556
K5 O8 3.139061 1_556
K6 O6 2.763344 1_554
K6 O1 2.763344 1_554
K6 O21 2.872562 1_555
K6 O18 2.948824 1_555
K6 O17 2.948824 1_555
K6 O21 3.029691 1_554
K6 O12 3.087127 1_555
K6 O14 3.087127 1_555
K6 O11 3.139061 1_554
K6 O9 3.139061 1_554
K7 O0 2.763344 1_556
K7 O7 2.763344 1_556
K7 O20 2.872562 1_555
K7 O16 2.948824 1_556
K7 O19 2.948824 1_556
K7 O20 3.029691 1_556
K7 O13 3.087127 1_555
K7 O15 3.087127 1_555
K7 O8 3.139061 1_556
K7 O10 3.139061 1_556
Hf0 O12 2.063426 1_555
Hf0 O13 2.063426 1_544
Hf0 O9 2.077627 1_554
Hf0 O8 2.077627 1_545
Hf0 O17 2.080077 1_555
Hf0 O16 2.080077 1_545
Hf1 O14 2.063426 1_455
Hf1 O15 2.063426 1_554
Hf1 O10 2.077627 1_555
Hf1 O11 2.077627 1_454
Hf1 O19 2.080077 1_555
Hf1 O18 2.080077 1_455
Hf2 O20 2.009045 1_555
Hf2 O22 2.009045 1_555
Hf2 O13 2.077838 1_555
Hf2 O15 2.077838 1_555
Hf2 O8 2.088067 1_555
Hf2 O10 2.088067 1_555
Hf3 O21 2.009045 1_555
Hf3 O23 2.009045 1_555
Hf3 O12 2.077838 1_555
Hf3 O14 2.077838 1_555
Hf3 O11 2.088067 1_555
Hf3 O9 2.088067 1_555
