# generated using pymatgen
data_CsMoP2HO9
_symmetry_space_group_name_H-M   'P 1'
_cell_length_a   14.14023455
_cell_length_b   6.26619587
_cell_length_c   9.76558137
_cell_angle_alpha   79.95515525
_cell_angle_beta   90.00000000
_cell_angle_gamma   90.00000000
_symmetry_Int_Tables_number   1
_chemical_formula_structural   CsMoP2HO9
_chemical_formula_sum   'Cs4 Mo4 P8 H4 O36'
_cell_volume   852.02054565
_cell_formula_units_Z   4
loop_
 _symmetry_equiv_pos_site_id
 _symmetry_equiv_pos_as_xyz
  1  'x, y, z'
loop_
 _atom_site_type_symbol
 _atom_site_label
 _atom_site_symmetry_multiplicity
 _atom_site_fract_x
 _atom_site_fract_y
 _atom_site_fract_z
 _atom_site_occupancy
  Cs  Cs0  1  0.32945818  0.81643865  0.33986438  1
  Cs  Cs1  1  0.82945818  0.18356135  0.16013562  1
  Cs  Cs2  1  0.67054182  0.18356135  0.66013562  1
  Cs  Cs3  1  0.17054182  0.81643865  0.83986438  1
  Mo  Mo0  1  0.03666557  0.70474508  0.21657755  1
  Mo  Mo1  1  0.53666557  0.29525492  0.28342245  1
  Mo  Mo2  1  0.96333443  0.29525492  0.78342245  1
  Mo  Mo3  1  0.46333443  0.70474508  0.71657755  1
  P  P0  1  0.37107752  0.39557002  0.01942318  1
  P  P1  1  0.87107752  0.60442998  0.48057682  1
  P  P2  1  0.62892248  0.60442998  0.98057682  1
  P  P3  1  0.12892248  0.39557002  0.51942318  1
  P  P4  1  0.41028631  0.18733003  0.78716175  1
  P  P5  1  0.91028631  0.81266997  0.71283825  1
  P  P6  1  0.58971369  0.81266997  0.21283825  1
  P  P7  1  0.08971369  0.18733003  0.28716175  1
  H  H0  1  0.27172906  0.30853156  0.60290834  1
  H  H1  1  0.77172906  0.69146844  0.89709166  1
  H  H2  1  0.72827094  0.69146844  0.39709166  1
  H  H3  1  0.22827094  0.30853156  0.10290834  1
  O  O0  1  0.09460557  0.59867080  0.42884477  1
  O  O1  1  0.59460557  0.40132920  0.07115523  1
  O  O2  1  0.90539443  0.40132920  0.57115523  1
  O  O3  1  0.40539443  0.59867080  0.92884477  1
  O  O4  1  0.09348821  0.34859561  0.66639831  1
  O  O5  1  0.59348821  0.65140439  0.83360169  1
  O  O6  1  0.90651179  0.65140439  0.33360169  1
  O  O7  1  0.40651179  0.34859561  0.16639831  1
  O  O8  1  0.26168298  0.39520074  0.01737652  1
  O  O9  1  0.76168298  0.60479926  0.48262348  1
  O  O10  1  0.73831702  0.60479926  0.98262348  1
  O  O11  1  0.23831702  0.39520074  0.51737652  1
  O  O12  1  0.09631493  0.19248928  0.44982800  1
  O  O13  1  0.59631493  0.80751072  0.05017200  1
  O  O14  1  0.90368507  0.80751072  0.55017200  1
  O  O15  1  0.40368507  0.19248928  0.94982800  1
  O  O16  1  0.03021603  0.38506512  0.22379135  1
  O  O17  1  0.53021603  0.61493488  0.27620865  1
  O  O18  1  0.96978397  0.61493488  0.77620865  1
  O  O19  1  0.46978397  0.38506512  0.72379135  1
  O  O20  1  0.18630289  0.18050176  0.22880573  1
  O  O21  1  0.68630289  0.81949824  0.27119427  1
  O  O22  1  0.81369711  0.81949824  0.77119427  1
  O  O23  1  0.31369711  0.18050176  0.72880573  1
  O  O24  1  0.47182025  0.98912313  0.78033571  1
  O  O25  1  0.97182025  0.01087687  0.71966429  1
  O  O26  1  0.52817975  0.01087687  0.21966429  1
  O  O27  1  0.02817975  0.98912313  0.28033571  1
  O  O28  1  0.34994230  0.73824381  0.65867919  1
  O  O29  1  0.84994230  0.26175619  0.84132081  1
  O  O30  1  0.65005770  0.26175619  0.34132081  1
  O  O31  1  0.15005770  0.73824381  0.15867919  1
  O  O32  1  0.02735276  0.23119060  0.93093759  1
  O  O33  1  0.52735276  0.76880940  0.56906241  1
  O  O34  1  0.97264724  0.76880940  0.06906241  1
  O  O35  1  0.47264724  0.23119060  0.43093759  1
loop_
_geom_bond_atom_site_label_1
_geom_bond_atom_site_label_2
_geom_bond_distance
_geom_bond_site_symmetry_2
Cs0 O28 3.079798 1_555
Cs0 O20 3.100813 1_565
Cs0 O11 3.168130 1_555
Cs0 O31 3.179370 1_555
Cs0 O26 3.203024 1_565
Cs0 O17 3.211406 1_555
Cs0 O35 3.528627 1_565
Cs0 O33 3.563168 1_555
Cs0 O7 3.633978 1_565
Cs0 O0 3.637538 1_555
Cs0 O7 3.792543 1_555
Cs1 O29 3.079798 1_554
Cs1 O21 3.100813 1_545
Cs1 O10 3.168130 1_554
Cs1 O30 3.179370 1_555
Cs1 O27 3.203024 1_645
Cs1 O16 3.211406 1_655
Cs1 O34 3.528627 1_545
Cs1 O32 3.563168 1_654
Cs1 O6 3.633978 1_545
Cs1 O1 3.637538 1_555
Cs1 O6 3.792543 1_555
Cs2 O30 3.079798 1_555
Cs2 O22 3.100813 1_545
Cs2 O9 3.168130 1_555
Cs2 O29 3.179370 1_555
Cs2 O24 3.203024 1_545
Cs2 O19 3.211406 1_555
Cs2 O33 3.528627 1_545
Cs2 O35 3.563168 1_555
Cs2 O5 3.633978 1_545
Cs2 O2 3.637538 1_555
Cs2 O5 3.792543 1_555
Cs3 O31 3.079798 1_556
Cs3 O23 3.100813 1_565
Cs3 O8 3.168130 1_556
Cs3 O28 3.179370 1_555
Cs3 O25 3.203024 1_465
Cs3 O18 3.211406 1_455
Cs3 O32 3.528627 1_565
Cs3 O34 3.563168 1_456
Cs3 O4 3.633978 1_565
Cs3 O3 3.637538 1_555
Cs3 O4 3.792543 1_555
Mo0 O34 1.689412 1_455
Mo0 O31 1.700945 1_555
Mo0 O27 1.991112 1_555
Mo0 O16 1.994184 1_555
Mo0 O6 2.161382 1_455
Mo0 O0 2.220216 1_555
Mo1 O35 1.689412 1_555
Mo1 O30 1.700945 1_555
Mo1 O26 1.991112 1_555
Mo1 O17 1.994184 1_555
Mo1 O7 2.161382 1_555
Mo1 O1 2.220216 1_555
Mo2 O32 1.689412 1_655
Mo2 O29 1.700945 1_555
Mo2 O25 1.991112 1_555
Mo2 O18 1.994184 1_555
Mo2 O4 2.161382 1_655
Mo2 O2 2.220216 1_555
Mo3 O33 1.689412 1_555
Mo3 O28 1.700945 1_555
Mo3 O24 1.991112 1_555
Mo3 O19 1.994184 1_555
Mo3 O5 2.161382 1_555
Mo3 O3 2.220216 1_555
H0 O11 1.028391 1_555
H0 O23 1.470812 1_555
H1 O10 1.028391 1_555
H1 O22 1.470812 1_555
H2 O9 1.028391 1_555
H2 O21 1.470812 1_555
H3 O8 1.028391 1_555
H3 O20 1.470812 1_555
O0 P3 1.498293 1_555
O1 P2 1.498293 1_554
O2 P1 1.498293 1_555
O3 P0 1.498293 1_556
O4 P3 1.500131 1_555
O5 P2 1.500131 1_555
O6 P1 1.500131 1_555
O7 P0 1.500131 1_555
O8 P0 1.547001 1_555
O9 P1 1.547001 1_555
O10 P2 1.547001 1_555
O11 P3 1.547001 1_555
O12 P7 1.597217 1_555
O12 P3 1.611076 1_555
O13 P6 1.597217 1_555
O13 P2 1.611076 1_554
O14 P5 1.597217 1_555
O14 P1 1.611076 1_555
O15 P4 1.597217 1_555
O15 P0 1.611076 1_556
O16 P7 1.535751 1_555
O17 P6 1.535751 1_555
O18 P5 1.535751 1_555
O19 P4 1.535751 1_555
O20 P7 1.483406 1_555
O21 P6 1.483406 1_555
O22 P5 1.483406 1_555
O23 P4 1.483406 1_555
O24 P4 1.527409 1_565
O25 P5 1.527409 1_545
O26 P6 1.527409 1_545
O27 P7 1.527409 1_565
