# generated using pymatgen
data_TaCr3(CuS4)2
_symmetry_space_group_name_H-M   'P 1'
_cell_length_a   6.27154524
_cell_length_b   7.24999792
_cell_length_c   12.37976595
_cell_angle_alpha   81.84565438
_cell_angle_beta   85.03941007
_cell_angle_gamma   90.00209034
_symmetry_Int_Tables_number   1
_chemical_formula_structural   TaCr3(CuS4)2
_chemical_formula_sum   'Ta2 Cr6 Cu4 S16'
_cell_volume   555.07042737
_cell_formula_units_Z   2
loop_
 _symmetry_equiv_pos_site_id
 _symmetry_equiv_pos_as_xyz
  1  'x, y, z'
loop_
 _atom_site_type_symbol
 _atom_site_label
 _atom_site_symmetry_multiplicity
 _atom_site_fract_x
 _atom_site_fract_y
 _atom_site_fract_z
 _atom_site_occupancy
  Ta  Ta0  1  0.85963800  0.29900500  0.29634700  1
  Ta  Ta1  1  0.21698500  0.88705200  0.99820500  1
  Cr  Cr0  1  0.14789800  0.69887900  0.70418500  1
  Cr  Cr1  1  0.75651600  0.11802100  0.99534400  1
  Cr  Cr2  1  0.36272100  0.55835200  0.28960100  1
  Cr  Cr3  1  0.62924000  0.44823500  0.71076200  1
  Cr  Cr4  1  0.36600700  0.04347600  0.29382000  1
  Cr  Cr5  1  0.62437300  0.94762400  0.70517200  1
  Cu  Cu0  1  0.12927600  0.20101900  0.69953300  1
  Cu  Cu1  1  0.87791900  0.80166600  0.29656800  1
  Cu  Cu2  1  0.25991800  0.37638600  0.99527000  1
  Cu  Cu3  1  0.74963000  0.62687800  0.99914300  1
  S  S0  1  0.11233800  0.65257400  0.88879200  1
  S  S1  1  0.89779800  0.34385600  0.10673800  1
  S  S2  1  0.09628100  0.15411400  0.88886800  1
  S  S3  1  0.89191500  0.85165100  0.10948900  1
  S  S4  1  0.19585000  0.78100000  0.36900700  1
  S  S5  1  0.79822600  0.21667900  0.63839200  1
  S  S6  1  0.18846300  0.28505900  0.37172100  1
  S  S7  1  0.81807600  0.71379500  0.63826600  1
  S  S8  1  0.31191400  0.96534000  0.62973300  1
  S  S9  1  0.69028100  0.02700400  0.37419600  1
  S  S10  1  0.31761800  0.46561400  0.63498300  1
  S  S11  1  0.68467700  0.53952200  0.36838700  1
  S  S12  1  0.41371700  0.09438500  0.10487300  1
  S  S13  1  0.59756000  0.90277100  0.89329100  1
  S  S14  1  0.39492900  0.60722800  0.10517800  1
  S  S15  1  0.61023600  0.39281700  0.89413500  1
loop_
_geom_bond_atom_site_label_1
_geom_bond_atom_site_label_2
_geom_bond_distance
_geom_bond_site_symmetry_2
Cr0 S8 2.229440 1_555
Cr0 S10 2.231681 1_555
Cr0 S0 2.253809 1_555
Cr0 S7 2.285438 1_455
Cr1 S2 2.400599 1_655
Cr1 S13 2.408802 1_545
Cr1 S15 2.423104 1_555
Cr1 S3 2.425047 1_546
Cr1 S12 2.433073 1_556
Cr1 S1 2.493856 1_556
Cr2 S4 2.222515 1_555
Cr2 S14 2.251601 1_555
Cr2 S11 2.312963 1_555
Cr2 S6 2.321638 1_555
Cr3 S10 2.235846 1_555
Cr3 S5 2.237579 1_555
Cr3 S15 2.241320 1_555
Cr3 S7 2.289253 1_555
Cr4 S4 2.225310 1_545
Cr4 S12 2.308955 1_555
Cr4 S9 2.335929 1_555
Cr4 S6 2.351841 1_555
Cr5 S8 2.238576 1_555
Cr5 S5 2.250287 1_565
Cr5 S7 2.293513 1_555
Cr5 S13 2.296756 1_555
Cu0 S10 2.261738 1_555
Cu0 S5 2.267996 1_455
Cu0 S8 2.286057 1_545
Cu0 S2 2.311371 1_555
Cu1 S4 2.252446 1_655
Cu1 S11 2.281548 1_555
Cu1 S9 2.286325 1_565
Cu1 S3 2.286834 1_555
Cu2 S15 2.427073 1_555
Cu2 S0 2.462936 1_555
Cu2 S14 2.492860 1_556
Cu2 S2 2.494187 1_555
Cu2 S12 2.528037 1_556
Cu2 S1 2.546214 1_456
Cu3 S13 2.469895 1_555
Cu3 S14 2.476665 1_556
Cu3 S15 2.481134 1_555
Cu3 S3 2.481980 1_556
Cu3 S1 2.507370 1_556
Cu3 S0 2.542789 1_655
S0 Ta1 2.441754 1_555
S1 Ta0 2.314998 1_555
S2 Ta1 2.363875 1_545
S3 Ta1 2.352453 1_654
S6 Ta0 2.332338 1_455
S9 Ta0 2.286794 1_555
S11 Ta0 2.304802 1_555
S12 Ta1 2.523948 1_544
S13 Ta1 2.611236 1_555
S14 Ta1 2.570704 1_554
