# generated using pymatgen
data_Sr2VO4
_symmetry_space_group_name_H-M   'P 1'
_cell_length_a   6.65408700
_cell_length_b   11.34842400
_cell_length_c   12.98875700
_cell_angle_alpha   90.00000000
_cell_angle_beta   90.00000000
_cell_angle_gamma   90.00000000
_symmetry_Int_Tables_number   1
_chemical_formula_structural   Sr2VO4
_chemical_formula_sum   'Sr16 V8 O32'
_cell_volume   980.82521075
_cell_formula_units_Z   8
loop_
 _symmetry_equiv_pos_site_id
 _symmetry_equiv_pos_as_xyz
  1  'x, y, z'
loop_
 _atom_site_type_symbol
 _atom_site_label
 _atom_site_symmetry_multiplicity
 _atom_site_fract_x
 _atom_site_fract_y
 _atom_site_fract_z
 _atom_site_occupancy
  Sr  Sr0  1  0.38901100  0.08924600  0.61147200  1
  Sr  Sr1  1  0.61098900  0.58924600  0.38852800  1
  Sr  Sr2  1  0.88901100  0.58924600  0.88852800  1
  Sr  Sr3  1  0.11098900  0.08924600  0.11147200  1
  Sr  Sr4  1  0.34993300  0.55212400  0.74092300  1
  Sr  Sr5  1  0.65006700  0.05212400  0.25907700  1
  Sr  Sr6  1  0.84993300  0.05212400  0.75907700  1
  Sr  Sr7  1  0.15006700  0.55212400  0.24092300  1
  Sr  Sr8  1  0.38535500  0.87380900  0.86533700  1
  Sr  Sr9  1  0.61464500  0.37380900  0.13466300  1
  Sr  Sr10  1  0.88535500  0.37380900  0.63466300  1
  Sr  Sr11  1  0.11464500  0.87380900  0.36533700  1
  Sr  Sr12  1  0.27761100  0.29257200  0.89376600  1
  Sr  Sr13  1  0.72238900  0.79257200  0.10623400  1
  Sr  Sr14  1  0.77761100  0.79257200  0.60623400  1
  Sr  Sr15  1  0.22238900  0.29257200  0.39376600  1
  V  V0  1  0.81169500  0.11829200  0.49372600  1
  V  V1  1  0.18830500  0.61829200  0.50627400  1
  V  V2  1  0.31169500  0.61829200  0.00627400  1
  V  V3  1  0.68830500  0.11829200  0.99372600  1
  V  V4  1  0.77864900  0.30646700  0.85253700  1
  V  V5  1  0.22135100  0.80646700  0.14746300  1
  V  V6  1  0.27864900  0.80646700  0.64746300  1
  V  V7  1  0.72135100  0.30646700  0.35253700  1
  O  O0  1  0.07446700  0.18410600  0.55151300  1
  O  O1  1  0.92553300  0.68410600  0.44848700  1
  O  O2  1  0.57446700  0.68410600  0.94848700  1
  O  O3  1  0.42553300  0.18410600  0.05151300  1
  O  O4  1  0.59482600  0.40802000  0.78270000  1
  O  O5  1  0.40517400  0.90802000  0.21730000  1
  O  O6  1  0.09482600  0.90802000  0.71730000  1
  O  O7  1  0.90517400  0.40802000  0.28270000  1
  O  O8  1  0.70911600  0.17662900  0.61809400  1
  O  O9  1  0.29088400  0.67662900  0.38190600  1
  O  O10  1  0.20911600  0.67662900  0.88190600  1
  O  O11  1  0.79088400  0.17662900  0.11809400  1
  O  O12  1  0.60407300  0.70449100  0.83392400  1
  O  O13  1  0.39592700  0.20449100  0.16607600  1
  O  O14  1  0.10407300  0.20449100  0.66607600  1
  O  O15  1  0.89592700  0.70449100  0.33392400  1
  O  O16  1  0.57665100  0.16945100  0.86299100  1
  O  O17  1  0.42334900  0.66945100  0.13700900  1
  O  O18  1  0.07665100  0.66945100  0.63700900  1
  O  O19  1  0.92334900  0.16945100  0.36299100  1
  O  O20  1  0.01971200  0.40827900  0.80987000  1
  O  O21  1  0.98028800  0.90827900  0.19013000  1
  O  O22  1  0.51971200  0.90827900  0.69013000  1
  O  O23  1  0.48028800  0.40827900  0.30987000  1
  O  O24  1  0.54996300  0.16540700  0.42520700  1
  O  O25  1  0.45003700  0.66540700  0.57479300  1
  O  O26  1  0.04996300  0.66540700  0.07479300  1
  O  O27  1  0.95003700  0.16540700  0.92520700  1
  O  O28  1  0.83288200  0.96410700  0.48326800  1
  O  O29  1  0.16711800  0.46410700  0.51673200  1
  O  O30  1  0.33288200  0.46410700  0.01673200  1
  O  O31  1  0.66711800  0.96410700  0.98326800  1
loop_
_geom_bond_atom_site_label_1
_geom_bond_atom_site_label_2
_geom_bond_distance
_geom_bond_site_symmetry_2
O0 O14 1.518737 1_555
O0 V0 2.044135 1_455
O0 Sr0 2.479124 1_555
O0 Sr15 2.584980 1_555
O0 Sr10 2.717462 1_455
O1 O15 1.518737 1_555
O1 V1 2.044135 1_655
O1 Sr1 2.479124 1_555
O1 Sr14 2.584980 1_555
O1 Sr11 2.717462 1_655
O2 V2 2.044135 1_556
O2 Sr2 2.479124 1_555
O2 Sr13 2.584980 1_556
O2 Sr8 2.717462 1_555
O3 V3 2.044135 1_554
O3 Sr3 2.479124 1_555
O3 Sr12 2.584980 1_554
O3 Sr9 2.717462 1_555
O4 V4 1.909753 1_555
O4 Sr4 2.371545 1_555
O4 Sr10 2.754131 1_555
O4 Sr12 2.872803 1_555
O4 Sr2 3.154538 1_555
O5 V5 1.909753 1_555
O5 Sr5 2.371545 1_565
O5 Sr11 2.754131 1_555
O5 Sr13 2.872803 1_555
O5 Sr3 3.154538 1_565
O6 V6 1.909753 1_555
O6 Sr6 2.371545 1_465
O6 Sr8 2.754131 1_555
O6 Sr14 2.872803 1_455
O6 Sr0 3.154538 1_565
O7 V7 1.909753 1_555
O7 Sr7 2.371545 1_655
O7 Sr9 2.754131 1_555
O7 Sr15 2.872803 1_655
O7 Sr1 3.154538 1_555
O8 V0 1.874476 1_555
O8 Sr0 2.351109 1_555
O8 Sr6 2.495525 1_555
O8 Sr10 2.535505 1_555
O9 V1 1.874476 1_555
O9 Sr1 2.351109 1_555
O9 Sr7 2.495525 1_555
O9 Sr11 2.535505 1_555
O10 V2 1.874476 1_556
O10 Sr2 2.351109 1_455
O10 Sr4 2.495525 1_555
O10 Sr8 2.535505 1_555
O11 V3 1.874476 1_554
O11 Sr3 2.351109 1_655
O11 Sr5 2.495525 1_555
O11 Sr9 2.535505 1_555
O12 O2 1.518737 1_555
O12 Sr2 2.410044 1_555
O12 Sr8 2.444731 1_555
O12 Sr4 2.703475 1_555
O13 O3 1.518737 1_555
O13 Sr3 2.410044 1_555
O13 Sr9 2.444731 1_555
O13 Sr5 2.703475 1_555
O14 Sr0 2.410044 1_555
O14 Sr10 2.444731 1_455
O14 Sr6 2.703475 1_455
O15 Sr1 2.410044 1_555
O15 Sr11 2.444731 1_655
O15 Sr7 2.703475 1_655
O16 V3 1.942303 1_555
O16 V4 2.059815 1_555
O16 Sr12 2.464039 1_555
O16 Sr6 2.627030 1_555
O17 V2 1.942303 1_555
O17 V5 2.059815 1_555
O17 Sr13 2.464039 1_555
O17 Sr7 2.627030 1_555
O18 V1 1.942303 1_555
O18 V6 2.059815 1_555
O18 Sr14 2.464039 1_455
O18 Sr4 2.627030 1_555
O19 V0 1.942303 1_555
O19 V7 2.059815 1_555
O19 Sr15 2.464039 1_655
O19 Sr5 2.627030 1_555
O20 V4 2.053066 1_455
O20 Sr12 2.420043 1_555
O20 Sr2 2.453125 1_455
O20 Sr10 2.476127 1_455
O20 Sr4 2.880099 1_555
O21 V5 2.053066 1_655
O21 Sr13 2.420043 1_555
O21 Sr3 2.453125 1_665
O21 Sr11 2.476127 1_655
O21 Sr5 2.880099 1_565
O22 V6 2.053066 1_555
O22 Sr14 2.420043 1_555
O22 Sr0 2.453125 1_565
O22 Sr8 2.476127 1_555
O22 Sr6 2.880099 1_565
O23 V7 2.053066 1_555
O23 Sr15 2.420043 1_555
O23 Sr1 2.453125 1_555
O23 Sr9 2.476127 1_555
O23 Sr7 2.880099 1_555
O24 V0 2.027577 1_555
O24 V7 2.180391 1_555
O24 Sr5 2.598579 1_555
O24 Sr15 2.645845 1_555
O24 Sr0 2.783398 1_555
O25 V1 2.027577 1_555
O25 V6 2.180391 1_555
O25 Sr4 2.598579 1_555
O25 Sr14 2.645845 1_555
O25 Sr1 2.783398 1_555
O26 V2 2.027577 1_555
O26 V5 2.180391 1_555
O26 Sr7 2.598579 1_555
O26 Sr13 2.645845 1_455
O26 Sr2 2.783398 1_454
O27 V3 2.027577 1_555
O27 V4 2.180391 1_555
O27 Sr6 2.598579 1_555
O27 Sr12 2.645845 1_655
O27 Sr3 2.783398 1_656
O28 V0 1.760675 1_565
O28 Sr14 2.544737 1_555
O28 Sr11 2.628991 1_655
O29 V1 1.760675 1_555
O29 Sr15 2.544737 1_555
O29 Sr10 2.628991 1_455
O30 V2 1.760675 1_555
O30 Sr12 2.544737 1_554
O30 Sr9 2.628991 1_555
O31 V3 1.760675 1_565
O31 Sr13 2.544737 1_556
O31 Sr8 2.628991 1_555
