# generated using pymatgen
data_Mg2CoSbO6
_symmetry_space_group_name_H-M   'P 1'
_cell_length_a   7.54723200
_cell_length_b   5.20525400
_cell_length_c   5.37977891
_cell_angle_alpha   89.24512317
_cell_angle_beta   90.00000000
_cell_angle_gamma   90.00000000
_symmetry_Int_Tables_number   1
_chemical_formula_structural   Mg2CoSbO6
_chemical_formula_sum   'Mg4 Co2 Sb2 O12'
_cell_volume   211.32766816
_cell_formula_units_Z   2
loop_
 _symmetry_equiv_pos_site_id
 _symmetry_equiv_pos_as_xyz
  1  'x, y, z'
loop_
 _atom_site_type_symbol
 _atom_site_label
 _atom_site_symmetry_multiplicity
 _atom_site_fract_x
 _atom_site_fract_y
 _atom_site_fract_z
 _atom_site_occupancy
  Mg  Mg0  1  0.75000000  0.47858000  0.56998700  1
  Mg  Mg1  1  0.25000000  0.52142000  0.43001300  1
  Mg  Mg2  1  0.75000000  0.98576500  0.03628100  1
  Mg  Mg3  1  0.25000000  0.01423500  0.96371900  1
  Co  Co0  1  0.50000000  0.50000000  0.00000000  1
  Co  Co1  1  0.00000000  0.50000000  0.00000000  1
  Sb  Sb0  1  0.50000000  0.00000000  0.50000000  1
  Sb  Sb1  1  0.00000000  0.00000000  0.50000000  1
  O  O0  1  0.43278000  0.67983000  0.67636100  1
  O  O1  1  0.06866100  0.82897600  0.18529800  1
  O  O2  1  0.93278000  0.32017000  0.32363900  1
  O  O3  1  0.56866100  0.17102400  0.81470200  1
  O  O4  1  0.43133900  0.82897600  0.18529800  1
  O  O5  1  0.93133900  0.17102400  0.81470200  1
  O  O6  1  0.25000000  0.14062700  0.57323500  1
  O  O7  1  0.06722000  0.67983000  0.67636100  1
  O  O8  1  0.75000000  0.61413900  0.93056900  1
  O  O9  1  0.56722000  0.32017000  0.32363900  1
  O  O10  1  0.75000000  0.85937300  0.42676500  1
  O  O11  1  0.25000000  0.38586100  0.06943100  1
loop_
_geom_bond_atom_site_label_1
_geom_bond_atom_site_label_2
_geom_bond_distance
_geom_bond_site_symmetry_2
Mg0 O8 2.072918 1_555
Mg0 O2 2.089997 1_555
Mg0 O9 2.089997 1_555
Mg0 O10 2.117132 1_555
Mg0 O5 2.472582 1_555
Mg0 O3 2.472582 1_555
Mg0 O7 2.678159 1_655
Mg0 O0 2.678159 1_555
Mg1 O11 2.072918 1_555
Mg1 O0 2.089997 1_555
Mg1 O7 2.089997 1_555
Mg1 O6 2.117132 1_555
Mg1 O1 2.472582 1_555
Mg1 O4 2.472582 1_555
Mg1 O2 2.678159 1_455
Mg1 O9 2.678159 1_555
Mg2 O8 2.023450 1_554
Mg2 O5 2.047849 1_564
Mg2 O3 2.047849 1_564
Mg2 O10 2.193042 1_555
Mg2 O4 2.659996 1_555
Mg2 O1 2.659996 1_655
Mg3 O11 2.023450 1_556
Mg3 O4 2.047849 1_546
Mg3 O1 2.047849 1_546
Mg3 O6 2.193042 1_555
Mg3 O3 2.659996 1_555
Mg3 O5 2.659996 1_455
Co0 O8 2.011641 1_554
Co0 O11 2.011641 1_555
Co0 O0 2.030294 1_554
Co0 O9 2.030294 1_555
Co0 O3 2.059022 1_554
Co0 O4 2.059022 1_555
Co1 O8 2.011641 1_454
Co1 O11 2.011641 1_555
Co1 O7 2.030294 1_554
Co1 O2 2.030294 1_455
Co1 O5 2.059022 1_454
Co1 O1 2.059022 1_555
O0 Sb0 1.973157 1_565
O1 Sb1 1.991754 1_565
O2 Sb1 1.973157 1_655
O3 Sb0 1.991754 1_555
O4 Sb0 1.991754 1_565
O5 Sb1 1.991754 1_655
O6 Sb1 2.063660 1_555
O6 Sb0 2.063660 1_555
O7 Sb1 1.973157 1_565
O9 Sb0 1.973157 1_555
O10 Sb0 2.063660 1_565
O10 Sb1 2.063660 1_665
