# generated using pymatgen
data_CaMn2O4
_symmetry_space_group_name_H-M   'P 1'
_cell_length_a   6.24854740
_cell_length_b   6.19964830
_cell_length_c   11.10226002
_cell_angle_alpha   73.74562372
_cell_angle_beta   89.42574443
_cell_angle_gamma   60.26687161
_symmetry_Int_Tables_number   1
_chemical_formula_structural   CaMn2O4
_chemical_formula_sum   'Ca4 Mn8 O16'
_cell_volume   354.23180228
_cell_formula_units_Z   4
loop_
 _symmetry_equiv_pos_site_id
 _symmetry_equiv_pos_as_xyz
  1  'x, y, z'
loop_
 _atom_site_type_symbol
 _atom_site_label
 _atom_site_symmetry_multiplicity
 _atom_site_fract_x
 _atom_site_fract_y
 _atom_site_fract_z
 _atom_site_occupancy
  Ca  Ca0  1  0.48921700  0.02202100  0.48495200  1
  Ca  Ca1  1  0.98793400  0.00406400  0.98496900  1
  Ca  Ca2  1  0.68973000  0.61443900  0.06340200  1
  Ca  Ca3  1  0.19045800  0.63202900  0.56365100  1
  Mn  Mn0  1  0.43373700  0.63289500  0.31032200  1
  Mn  Mn1  1  0.93124100  0.62455300  0.80943200  1
  Mn  Mn2  1  0.94019100  0.12469100  0.31426100  1
  Mn  Mn3  1  0.43703500  0.11947300  0.81063300  1
  Mn  Mn4  1  0.93836200  0.63114000  0.31116900  1
  Mn  Mn5  1  0.43897100  0.62148900  0.81410500  1
  Mn  Mn6  1  0.88747100  0.23433300  0.64066400  1
  Mn  Mn7  1  0.38709600  0.23787500  0.14057100  1
  O  O0  1  0.83749900  0.32927900  0.43735800  1
  O  O1  1  0.33776100  0.39573900  0.93915700  1
  O  O2  1  0.03938400  0.92656500  0.19578300  1
  O  O3  1  0.53885300  0.83944900  0.69563400  1
  O  O4  1  0.58994200  0.36666500  0.22030300  1
  O  O5  1  0.09089700  0.36691700  0.71652100  1
  O  O6  1  0.59115500  0.82691700  0.21570200  1
  O  O7  1  0.09035800  0.82102700  0.72139500  1
  O  O8  1  0.04500700  0.37425100  0.21421000  1
  O  O9  1  0.54323000  0.36684100  0.71567300  1
  O  O10  1  0.84541800  0.87794200  0.40887000  1
  O  O11  1  0.34423300  0.86866800  0.90827400  1
  O  O12  1  0.27540100  0.44938400  0.40323300  1
  O  O13  1  0.77703400  0.43348600  0.90327800  1
  O  O14  1  0.27855300  0.88518300  0.40394700  1
  O  O15  1  0.77382900  0.87267800  0.90253800  1
loop_
_geom_bond_atom_site_label_1
_geom_bond_atom_site_label_2
_geom_bond_distance
_geom_bond_site_symmetry_2
Ca0 O12 2.189836 1_555
Ca0 O14 2.195403 1_545
Ca0 O10 2.208599 1_545
Ca0 O3 2.243371 1_545
Ca1 O15 2.194000 1_545
Ca1 O13 2.199797 1_555
Ca1 O11 2.212391 1_645
Ca1 O2 2.246006 1_646
Ca2 O13 2.281763 1_554
Ca2 O4 2.283242 1_555
Ca2 O15 2.289980 1_554
Ca2 O11 2.300182 1_554
Ca2 O8 2.312731 1_655
Ca2 O6 2.322689 1_555
Ca3 O14 2.278072 1_555
Ca3 O7 2.287156 1_555
Ca3 O12 2.291226 1_555
Ca3 O10 2.296269 1_455
Ca3 O9 2.310201 1_555
Ca3 O5 2.323883 1_555
Mn0 O12 1.943284 1_555
Mn0 O14 1.962813 1_555
Mn0 O6 1.990856 1_555
Mn0 O4 1.995408 1_555
Mn0 O2 2.306611 1_555
Mn0 O0 2.402507 1_555
Mn1 O15 1.941968 1_555
Mn1 O13 1.959166 1_555
Mn1 O5 1.982833 1_655
Mn1 O7 1.985669 1_655
Mn1 O3 2.293999 1_555
Mn1 O1 2.427832 1_655
Mn2 O2 1.938061 1_645
Mn2 O14 1.940850 1_645
Mn2 O10 1.944417 1_545
Mn2 O0 2.008422 1_555
Mn2 O4 2.010337 1_555
Mn2 O8 2.021156 1_655
Mn3 O15 1.945796 1_545
Mn3 O11 1.966544 1_545
Mn3 O5 1.994963 1_555
Mn3 O9 1.998501 1_555
Mn3 O3 2.275450 1_545
Mn3 O1 2.377161 1_555
Mn4 O12 1.947866 1_655
Mn4 O10 1.972323 1_555
Mn4 O6 2.004346 1_555
Mn4 O8 2.007963 1_655
Mn4 O2 2.282801 1_655
Mn4 O0 2.355152 1_555
Mn5 O13 1.937685 1_555
Mn5 O3 1.941804 1_555
Mn5 O11 1.943308 1_555
Mn5 O7 1.998512 1_555
Mn5 O9 2.010572 1_555
Mn5 O1 2.014669 1_555
Mn6 O5 2.108560 1_655
Mn6 O7 2.119226 1_645
Mn6 O9 2.142308 1_555
Mn6 O0 2.150995 1_555
Mn7 O6 2.102876 1_545
Mn7 O4 2.109424 1_555
Mn7 O8 2.124067 1_555
Mn7 O1 2.131352 1_554
