# generated using pymatgen
data_Sr4Fe4Bi5PbO18
_symmetry_space_group_name_H-M   'P 1'
_cell_length_a   15.87848511
_cell_length_b   15.87848511
_cell_length_c   5.47218300
_cell_angle_alpha   90.00000000
_cell_angle_beta   90.00000000
_cell_angle_gamma   160.15409933
_symmetry_Int_Tables_number   1
_chemical_formula_structural   Sr4Fe4Bi5PbO18
_chemical_formula_sum   'Sr4 Fe4 Bi5 Pb1 O18'
_cell_volume   468.39013202
_cell_formula_units_Z   1
loop_
 _symmetry_equiv_pos_site_id
 _symmetry_equiv_pos_as_xyz
  1  'x, y, z'
loop_
 _atom_site_type_symbol
 _atom_site_label
 _atom_site_symmetry_multiplicity
 _atom_site_fract_x
 _atom_site_fract_y
 _atom_site_fract_z
 _atom_site_occupancy
  Sr  Sr0  1  0.37961800  0.62038200  0.50000000  1
  Sr  Sr1  1  0.87924300  0.12075700  0.00000000  1
  Sr  Sr2  1  0.12200100  0.87799900  0.00000000  1
  Sr  Sr3  1  0.62210800  0.37789200  0.50000000  1
  Fe  Fe0  1  0.56343600  0.43656400  0.00000000  1
  Fe  Fe1  1  0.06647700  0.93352300  0.50000000  1
  Fe  Fe2  1  0.93761600  0.06238400  0.50000000  1
  Fe  Fe3  1  0.43652600  0.56347400  0.00000000  1
  Bi  Bi0  1  0.70662100  0.29337900  0.00000000  1
  Bi  Bi1  1  0.29402400  0.70597600  0.00000000  1
  Bi  Bi2  1  0.79394300  0.20605700  0.50000000  1
  Bi  Bi3  1  0.00104600  0.99895400  0.00000000  1
  Bi  Bi4  1  0.50287700  0.49712300  0.50000000  1
  Pb  Pb0  1  0.20658100  0.79341900  0.50000000  1
  O  O0  1  0.63719400  0.36280600  0.00000000  1
  O  O1  1  0.13245600  0.86754400  0.50000000  1
  O  O2  1  0.86233800  0.13766200  0.50000000  1
  O  O3  1  0.36267800  0.63732200  0.00000000  1
  O  O4  1  0.49993400  0.50006600  0.00000000  1
  O  O5  1  0.00080900  0.99919100  0.50000000  1
  O  O6  1  0.81112900  0.68538300  0.75052100  1
  O  O7  1  0.31461700  0.18887100  0.24947900  1
  O  O8  1  0.31461700  0.18887100  0.75052100  1
  O  O9  1  0.81112900  0.68538300  0.24947900  1
  O  O10  1  0.68615300  0.81544800  0.75075500  1
  O  O11  1  0.18455200  0.31384700  0.24924500  1
  O  O12  1  0.18455200  0.31384700  0.75075500  1
  O  O13  1  0.68615300  0.81544800  0.24924500  1
  O  O14  1  0.79452500  0.20547500  0.00000000  1
  O  O15  1  0.29682000  0.70318000  0.50000000  1
  O  O16  1  0.70402400  0.29597600  0.50000000  1
  O  O17  1  0.20420100  0.79579900  0.00000000  1
loop_
_geom_bond_atom_site_label_1
_geom_bond_atom_site_label_2
_geom_bond_distance
_geom_bond_site_symmetry_2
Fe0 O9 1.926083 1_555
Fe0 O6 1.926083 1_554
Fe0 O8 1.926083 1_554
Fe0 O7 1.926083 1_555
Fe0 O4 1.986463 1_555
Fe0 O0 2.307290 1_555
Fe1 O7 1.946799 1_565
Fe1 O6 1.946799 1_455
Fe1 O9 1.946799 1_455
Fe1 O8 1.946799 1_565
Fe1 O5 2.054220 1_555
Fe1 O1 2.063948 1_555
Fe2 O10 1.935889 1_545
Fe2 O12 1.935889 1_655
Fe2 O13 1.935889 1_545
Fe2 O11 1.935889 1_655
Fe2 O5 1.976797 1_645
Fe2 O2 2.354839 1_555
Fe3 O13 1.935295 1_555
Fe3 O10 1.935295 1_554
Fe3 O11 1.935295 1_555
Fe3 O12 1.935295 1_554
Fe3 O4 1.983523 1_555
Fe3 O3 2.310106 1_555
Bi0 O0 2.171808 1_555
Bi0 O17 2.737286 1_655
Bi0 O17 2.737286 1_545
Bi0 O16 2.737297 1_554
Bi0 O16 2.737297 1_555
Bi0 O14 2.749804 1_555
Bi1 O3 2.147627 1_555
Bi1 O14 2.736284 1_565
Bi1 O14 2.736284 1_455
Bi1 O15 2.737489 1_555
Bi1 O15 2.737489 1_554
Bi1 O17 2.809834 1_555
Bi2 O2 2.139525 1_555
Bi2 O14 2.736152 1_556
Bi2 O14 2.736152 1_555
Bi2 O15 2.737719 1_545
Bi2 O15 2.737719 1_655
Bi2 O16 2.812837 1_555
Bi3 O5 2.736102 1_555
Bi3 O5 2.736102 1_554
Bi3 O4 2.736460 1_565
Bi3 O4 2.736460 1_455
Bi3 O7 2.739037 1_565
Bi3 O8 2.739037 1_564
Bi3 O9 2.739037 1_455
Bi3 O6 2.739037 1_454
Bi3 O13 2.818358 1_455
Bi3 O10 2.818358 1_454
Bi3 O12 2.818358 1_564
Bi3 O11 2.818358 1_565
Bi4 O6 2.692104 1_555
Bi4 O7 2.692104 1_555
Bi4 O8 2.692104 1_555
Bi4 O9 2.692104 1_555
Bi4 O5 2.737004 1_545
Bi4 O5 2.737004 1_655
Bi4 O4 2.737640 1_555
Bi4 O4 2.737640 1_556
Bi4 O13 2.868521 1_555
Bi4 O10 2.868521 1_555
Bi4 O11 2.868521 1_555
Bi4 O12 2.868521 1_555
O0 Sr3 2.776491 1_554
O0 Sr3 2.776491 1_555
O0 Sr2 2.777208 1_545
O0 Sr2 2.777208 1_655
O1 Pb0 2.318771 1_555
O1 Sr3 2.755320 1_455
O1 Sr3 2.755320 1_565
O1 Sr2 2.755569 1_556
O1 Sr2 2.755569 1_555
O2 Sr1 2.786727 1_555
O2 Sr1 2.786727 1_556
O2 Sr0 2.789122 1_655
O2 Sr0 2.789122 1_545
O3 Sr1 2.784873 1_565
O3 Sr1 2.784873 1_455
O3 Sr0 2.786935 1_555
O3 Sr0 2.786935 1_554
O6 Sr3 2.675562 1_555
O6 Sr2 2.680087 1_656
O7 Sr3 2.675562 1_555
O7 Sr2 2.680087 1_545
O8 Sr3 2.675562 1_555
O8 Sr2 2.680087 1_546
O9 Sr3 2.675562 1_555
O9 Sr2 2.680087 1_655
O10 Sr1 2.607837 1_566
O10 Sr0 2.608899 1_555
O11 Sr1 2.607837 1_455
O11 Sr0 2.608899 1_555
O12 Sr1 2.607837 1_456
O12 Sr0 2.608899 1_555
O13 Sr1 2.607837 1_565
O13 Sr0 2.608899 1_555
O14 Sr1 2.650140 1_555
O15 Sr0 2.590079 1_555
O15 Pb0 2.822847 1_555
O16 Sr3 2.562488 1_555
O16 Pb0 2.737408 1_655
O16 Pb0 2.737408 1_545
O17 Sr2 2.571372 1_555
O17 Pb0 2.737104 1_555
O17 Pb0 2.737104 1_554
