# generated using pymatgen
data_CdHg2
_symmetry_space_group_name_H-M   'P 1'
_cell_length_a   6.77781800
_cell_length_b   6.58589818
_cell_length_c   17.52977913
_cell_angle_alpha   84.29086710
_cell_angle_beta   101.14677624
_cell_angle_gamma   120.96876190
_symmetry_Int_Tables_number   1
_chemical_formula_structural   CdHg2
_chemical_formula_sum   'Cd8 Hg16'
_cell_volume   658.29109295
_cell_formula_units_Z   8
loop_
 _symmetry_equiv_pos_site_id
 _symmetry_equiv_pos_as_xyz
  1  'x, y, z'
loop_
 _atom_site_type_symbol
 _atom_site_label
 _atom_site_symmetry_multiplicity
 _atom_site_fract_x
 _atom_site_fract_y
 _atom_site_fract_z
 _atom_site_occupancy
  Cd  Cd0_0  1  0.00000000  0.00000000  0.00000000  1
  Cd  Cd0_1  1  0.00000000  0.00000000  0.50000000  1
  Cd  Cd0_2  1  0.00000000  0.50000000  0.00000000  1
  Cd  Cd0_3  1  0.00000000  0.50000000  0.50000000  1
  Cd  Cd0_4  1  0.50000000  0.00000000  0.00000000  1
  Cd  Cd0_5  1  0.50000000  0.00000000  0.50000000  1
  Cd  Cd0_6  1  0.50000000  0.50000000  0.00000000  1
  Cd  Cd0_7  1  0.50000000  0.50000000  0.50000000  1
  Hg  Hg0_0  1  0.33247150  0.00000000  0.16494250  1
  Hg  Hg0_1  1  0.33247150  0.00000000  0.66494250  1
  Hg  Hg0_2  1  0.33247150  0.50000000  0.16494250  1
  Hg  Hg0_3  1  0.33247150  0.50000000  0.66494250  1
  Hg  Hg0_4  1  0.83247150  0.00000000  0.16494250  1
  Hg  Hg0_5  1  0.83247150  0.00000000  0.66494250  1
  Hg  Hg0_6  1  0.83247150  0.50000000  0.16494250  1
  Hg  Hg0_7  1  0.83247150  0.50000000  0.66494250  1
  Hg  Hg1_0  1  0.16752850  0.00000000  0.33505750  1
  Hg  Hg1_1  1  0.16752850  1.00000000  0.83505750  1
  Hg  Hg1_2  1  0.16752850  0.50000000  0.33505750  1
  Hg  Hg1_3  1  0.16752850  0.50000000  0.83505750  1
  Hg  Hg1_4  1  0.66752850  0.00000000  0.33505750  1
  Hg  Hg1_5  1  0.66752850  1.00000000  0.83505750  1
  Hg  Hg1_6  1  0.66752850  0.50000000  0.33505750  1
  Hg  Hg1_7  1  0.66752850  0.50000000  0.83505750  1
loop_
_geom_bond_atom_site_label_1
_geom_bond_atom_site_label_2
_geom_bond_distance
_geom_bond_site_symmetry_2
Cd0_0 Cd0_6 3.292949 1_445
Cd0_0 Cd0_6 3.292949 1_555
Cd0_0 Cd0_2 3.292949 1_555
Cd0_0 Cd0_2 3.292949 1_545
Cd0_0 Hg0_4 3.304383 1_455
Cd0_0 Hg1_1 3.304383 1_544
Cd0_0 Hg1_5 3.304384 1_444
Cd0_0 Hg0_0 3.304384 1_555
Cd0_0 Cd0_4 3.388909 1_555
Cd0_0 Cd0_4 3.388909 1_455
Cd0_1 Cd0_7 3.292949 1_445
Cd0_1 Cd0_7 3.292949 1_555
Cd0_1 Cd0_3 3.292949 1_555
Cd0_1 Cd0_3 3.292949 1_545
Cd0_1 Hg1_0 3.304383 1_555
Cd0_1 Hg0_5 3.304383 1_455
Cd0_1 Hg1_4 3.304384 1_455
Cd0_1 Hg0_1 3.304384 1_555
Cd0_1 Cd0_5 3.388909 1_455
Cd0_1 Cd0_5 3.388909 1_555
Cd0_2 Cd0_4 3.292949 1_565
Cd0_2 Cd0_4 3.292949 1_455
Cd0_2 Hg0_6 3.304383 1_455
Cd0_2 Hg1_3 3.304383 1_554
Cd0_2 Hg0_2 3.304384 1_555
Cd0_2 Hg1_7 3.304384 1_454
Cd0_2 Cd0_6 3.388909 1_455
Cd0_2 Cd0_6 3.388909 1_555
Cd0_3 Cd0_5 3.292949 1_455
Cd0_3 Cd0_5 3.292949 1_565
Cd0_3 Hg0_7 3.304383 1_455
Cd0_3 Hg1_2 3.304383 1_555
Cd0_3 Hg0_3 3.304384 1_555
Cd0_3 Hg1_6 3.304384 1_455
Cd0_3 Cd0_7 3.388909 1_455
Cd0_3 Cd0_7 3.388909 1_555
Cd0_4 Cd0_6 3.292949 1_555
Cd0_4 Cd0_6 3.292949 1_545
Cd0_4 Hg0_0 3.304383 1_555
Cd0_4 Hg1_5 3.304383 1_544
Cd0_4 Hg1_1 3.304384 1_544
Cd0_4 Hg0_4 3.304384 1_555
Cd0_5 Cd0_7 3.292949 1_555
Cd0_5 Cd0_7 3.292949 1_545
Cd0_5 Hg1_4 3.304383 1_555
Cd0_5 Hg0_1 3.304383 1_555
Cd0_5 Hg0_5 3.304384 1_555
Cd0_5 Hg1_0 3.304384 1_555
Cd0_6 Hg0_2 3.304383 1_555
Cd0_6 Hg1_7 3.304383 1_554
Cd0_6 Hg0_6 3.304384 1_555
Cd0_6 Hg1_3 3.304384 1_554
Cd0_7 Hg0_3 3.304383 1_555
Cd0_7 Hg1_6 3.304383 1_555
Cd0_7 Hg0_7 3.304384 1_555
Cd0_7 Hg1_2 3.304384 1_555
