# generated using pymatgen
data_SrMg5
_symmetry_space_group_name_H-M   'P 1'
_cell_length_a   6.65568822
_cell_length_b   6.65568822
_cell_length_c   6.65568828
_cell_angle_alpha   51.57167505
_cell_angle_beta   51.57167505
_cell_angle_gamma   51.57167048
_symmetry_Int_Tables_number   1
_chemical_formula_structural   SrMg5
_chemical_formula_sum   'Sr1 Mg5'
_cell_volume   167.11902803
_cell_formula_units_Z   1
loop_
 _symmetry_equiv_pos_site_id
 _symmetry_equiv_pos_as_xyz
  1  'x, y, z'
loop_
 _atom_site_type_symbol
 _atom_site_label
 _atom_site_symmetry_multiplicity
 _atom_site_fract_x
 _atom_site_fract_y
 _atom_site_fract_z
 _atom_site_occupancy
  Sr  Sr0  1  0.50000000  0.50000000  0.50000000  1
  Mg  Mg0  1  0.00000000  0.67280200  0.32719800  1
  Mg  Mg1  1  0.83369500  0.83369500  0.83369500  1
  Mg  Mg2  1  0.67280200  0.32719800  0.00000000  1
  Mg  Mg3  1  0.32719800  0.00000000  0.67280200  1
  Mg  Mg4  1  0.16630500  0.16630500  0.16630500  1
loop_
_geom_bond_atom_site_label_1
_geom_bond_atom_site_label_2
_geom_bond_distance
_geom_bond_site_symmetry_2
Mg0 Mg2 3.281648 1_465
Mg0 Mg3 3.281648 1_564
Mg0 Mg2 3.374371 1_555
Mg0 Mg3 3.374371 1_465
Mg0 Mg3 3.374371 1_555
Mg0 Mg2 3.374371 1_456
Mg0 Mg1 3.440083 1_454
Mg0 Mg4 3.440083 1_565
Mg0 Sr0 3.475023 1_555
Mg0 Sr0 3.475024 1_455
Mg0 Mg4 3.480196 1_555
Mg0 Mg1 3.480196 1_455
Mg1 Sr0 3.343188 1_565
Mg1 Sr0 3.343188 1_655
Mg1 Sr0 3.343189 1_556
Mg1 Mg4 3.343206 1_656
Mg1 Mg4 3.343206 1_566
Mg1 Mg4 3.343206 1_665
Mg1 Mg2 3.440083 1_566
Mg1 Mg3 3.440083 1_665
Mg1 Mg3 3.480196 1_565
Mg1 Mg2 3.480196 1_556
Mg2 Mg3 3.281648 1_654
Mg2 Mg3 3.374371 1_564
Mg2 Mg3 3.374371 1_555
Mg2 Mg4 3.440083 1_655
Mg2 Sr0 3.475024 1_555
Mg2 Sr0 3.475024 1_554
Mg2 Mg4 3.480196 1_555
Mg3 Mg4 3.440083 1_556
Mg3 Sr0 3.475023 1_545
Mg3 Sr0 3.475024 1_555
Mg3 Mg4 3.480196 1_555
Mg4 Sr0 3.343188 1_545
Mg4 Sr0 3.343188 1_455
Mg4 Sr0 3.343189 1_554
