# generated using pymatgen
data_MgP2W2O9
_symmetry_space_group_name_H-M   'P 1'
_cell_length_a   6.70668300
_cell_length_b   7.17398400
_cell_length_c   15.03611500
_cell_angle_alpha   90.00000000
_cell_angle_beta   90.00000000
_cell_angle_gamma   90.00000000
_symmetry_Int_Tables_number   1
_chemical_formula_structural   MgP2W2O9
_chemical_formula_sum   'Mg4 P8 W8 O36'
_cell_volume   723.44217201
_cell_formula_units_Z   4
loop_
 _symmetry_equiv_pos_site_id
 _symmetry_equiv_pos_as_xyz
  1  'x, y, z'
loop_
 _atom_site_type_symbol
 _atom_site_label
 _atom_site_symmetry_multiplicity
 _atom_site_fract_x
 _atom_site_fract_y
 _atom_site_fract_z
 _atom_site_occupancy
  Mg  Mg0  1  0.25000000  0.42011100  0.76799900  1
  Mg  Mg1  1  0.25000000  0.07988900  0.26799900  1
  Mg  Mg2  1  0.75000000  0.92011100  0.73200100  1
  Mg  Mg3  1  0.75000000  0.57988900  0.23200100  1
  P  P0  1  0.75000000  0.87801300  0.92111700  1
  P  P1  1  0.25000000  0.12198700  0.07888300  1
  P  P2  1  0.25000000  0.37801300  0.57888300  1
  P  P3  1  0.75000000  0.62198700  0.42111700  1
  P  P4  1  0.25000000  0.89979000  0.69136900  1
  P  P5  1  0.25000000  0.60021000  0.19136900  1
  P  P6  1  0.75000000  0.39979000  0.80863100  1
  P  P7  1  0.75000000  0.10021000  0.30863100  1
  W  W0  1  0.25000000  0.87408700  0.87512700  1
  W  W1  1  0.75000000  0.12591300  0.12487300  1
  W  W2  1  0.75000000  0.37408700  0.62487300  1
  W  W3  1  0.25000000  0.62591300  0.37512700  1
  W  W4  1  0.00000000  0.50000000  0.00000000  1
  W  W5  1  0.00000000  0.00000000  0.50000000  1
  W  W6  1  0.50000000  0.00000000  0.50000000  1
  W  W7  1  0.50000000  0.50000000  0.00000000  1
  O  O0  1  0.55172300  0.10016500  0.36250400  1
  O  O1  1  0.05172300  0.89983500  0.63749600  1
  O  O2  1  0.44827700  0.60016500  0.13749600  1
  O  O3  1  0.94827700  0.39983500  0.86250400  1
  O  O4  1  0.44827700  0.89983500  0.63749600  1
  O  O5  1  0.94827700  0.10016500  0.36250400  1
  O  O6  1  0.55172300  0.39983500  0.86250400  1
  O  O7  1  0.05172300  0.60016500  0.13749600  1
  O  O8  1  0.75000000  0.81528500  0.47029500  1
  O  O9  1  0.25000000  0.18471500  0.52970500  1
  O  O10  1  0.25000000  0.31528500  0.02970500  1
  O  O11  1  0.75000000  0.68471500  0.97029500  1
  O  O12  1  0.25000000  0.61502200  0.93537400  1
  O  O13  1  0.75000000  0.38497800  0.06462600  1
  O  O14  1  0.75000000  0.11502200  0.56462600  1
  O  O15  1  0.25000000  0.88497800  0.43537400  1
  O  O16  1  0.25000000  0.71910800  0.75092600  1
  O  O17  1  0.75000000  0.28089200  0.24907400  1
  O  O18  1  0.75000000  0.21910800  0.74907400  1
  O  O19  1  0.25000000  0.78089200  0.25092600  1
  O  O20  1  0.92838100  0.61360200  0.35525800  1
  O  O21  1  0.42838100  0.38639800  0.64474200  1
  O  O22  1  0.07161900  0.11360200  0.14474200  1
  O  O23  1  0.57161900  0.88639800  0.85525800  1
  O  O24  1  0.07161900  0.38639800  0.64474200  1
  O  O25  1  0.57161900  0.61360200  0.35525800  1
  O  O26  1  0.92838100  0.88639800  0.85525800  1
  O  O27  1  0.42838100  0.11360200  0.14474200  1
  O  O28  1  0.25000000  0.97096000  0.00962100  1
  O  O29  1  0.75000000  0.56780600  0.74116200  1
  O  O30  1  0.75000000  0.93219400  0.24116200  1
  O  O31  1  0.25000000  0.06780600  0.75883800  1
  O  O32  1  0.25000000  0.52904000  0.50962100  1
  O  O33  1  0.75000000  0.47096000  0.49037900  1
  O  O34  1  0.75000000  0.02904000  0.99037900  1
  O  O35  1  0.25000000  0.43219400  0.25883800  1
loop_
_geom_bond_atom_site_label_1
_geom_bond_atom_site_label_2
_geom_bond_distance
_geom_bond_site_symmetry_2
Mg0 O16 2.160307 1_555
Mg0 O21 2.219117 1_555
Mg0 O24 2.219117 1_555
Mg0 O6 2.476926 1_555
Mg0 O3 2.476926 1_455
Mg0 O31 2.531181 1_555
Mg1 O19 2.160307 1_545
Mg1 O22 2.219117 1_555
Mg1 O27 2.219117 1_555
Mg1 O0 2.476926 1_555
Mg1 O5 2.476926 1_455
Mg1 O35 2.531181 1_555
Mg2 O18 2.160307 1_565
Mg2 O26 2.219117 1_555
Mg2 O23 2.219117 1_555
Mg2 O1 2.476926 1_655
Mg2 O4 2.476926 1_555
Mg2 O29 2.531181 1_555
Mg3 O17 2.160307 1_555
Mg3 O20 2.219117 1_555
Mg3 O25 2.219117 1_555
Mg3 O2 2.476926 1_555
Mg3 O7 2.476926 1_655
Mg3 O30 2.531181 1_555
O0 P7 1.557075 1_555
O0 W6 2.216046 1_555
O1 P4 1.557075 1_555
O1 W5 2.216046 1_565
O2 P5 1.557075 1_555
O2 W7 2.216046 1_555
O3 P6 1.557075 1_555
O3 W4 2.216046 1_656
O4 P4 1.557075 1_555
O4 W6 2.216046 1_565
O5 P7 1.557075 1_555
O5 W5 2.216046 1_655
O6 P6 1.557075 1_555
O6 W7 2.216046 1_556
O7 P5 1.557075 1_555
O7 W4 2.216046 1_555
O8 P3 1.571548 1_555
O8 W5 2.183282 1_665
O8 W6 2.183282 1_565
O9 P2 1.571548 1_555
O9 W5 2.183282 1_555
O9 W6 2.183282 1_555
O10 P1 1.571548 1_555
O10 W7 2.183282 1_555
O10 W4 2.183282 1_555
O11 P0 1.571548 1_555
O11 W4 2.183282 1_656
O11 W7 2.183282 1_556
O12 W0 2.067546 1_555
O12 W4 2.106269 1_556
O12 W7 2.106269 1_556
O13 W1 2.067546 1_555
O13 W7 2.106269 1_555
O13 W4 2.106269 1_655
O14 W2 2.067546 1_555
O14 W6 2.106269 1_555
O14 W5 2.106269 1_655
O15 W3 2.067546 1_555
O15 W6 2.106269 1_565
O15 W5 2.106269 1_565
O16 P4 1.575465 1_555
O16 W0 2.173406 1_555
O17 P7 1.575465 1_555
O17 W1 2.173406 1_555
O18 P6 1.575465 1_555
O18 W2 2.173406 1_555
O19 P5 1.575465 1_555
O19 W3 2.173406 1_555
O20 P3 1.554182 1_555
O20 W3 2.179378 1_655
O21 P2 1.554182 1_555
O21 W2 2.179378 1_555
O22 P1 1.554182 1_555
O22 W1 2.179378 1_455
O23 P0 1.554182 1_555
O23 W0 2.179378 1_555
O24 P2 1.554182 1_555
O24 W2 2.179378 1_455
O25 P3 1.554182 1_555
O25 W3 2.179378 1_555
O26 P0 1.554182 1_555
O26 W0 2.179378 1_655
O27 P1 1.554182 1_555
O27 W1 2.179378 1_555
O28 P1 1.502823 1_565
O28 W0 2.138350 1_554
O29 P6 1.575439 1_555
O29 W2 2.233549 1_555
O30 P7 1.575439 1_565
O30 W1 2.233549 1_565
O31 P4 1.575439 1_545
O31 W0 2.233549 1_545
O32 P2 1.502823 1_555
O32 W3 2.138350 1_555
O33 P3 1.502823 1_555
O33 W2 2.138350 1_555
O34 P0 1.502823 1_545
O34 W1 2.138350 1_556
O35 P5 1.575439 1_555
O35 W3 2.233549 1_555
