# generated using pymatgen
data_Sm3Ga2
_symmetry_space_group_name_H-M   'P 1'
_cell_length_a   11.31379610
_cell_length_b   11.31379610
_cell_length_c   11.31379610
_cell_angle_alpha   95.60200202
_cell_angle_beta   116.82013342
_cell_angle_gamma   116.82013342
_symmetry_Int_Tables_number   1
_chemical_formula_structural   Sm3Ga2
_chemical_formula_sum   'Sm24 Ga16'
_cell_volume   1067.71766021
_cell_formula_units_Z   8
loop_
 _symmetry_equiv_pos_site_id
 _symmetry_equiv_pos_as_xyz
  1  'x, y, z'
loop_
 _atom_site_type_symbol
 _atom_site_label
 _atom_site_symmetry_multiplicity
 _atom_site_fract_x
 _atom_site_fract_y
 _atom_site_fract_z
 _atom_site_occupancy
  Sm  Sm0  1  0.50000000  0.85054197  0.35054197  1
  Sm  Sm1  1  0.50000000  0.35054197  0.85054197  1
  Sm  Sm2  1  0.50000000  0.14945803  0.64945803  1
  Sm  Sm3  1  0.50000000  0.64945803  0.14945803  1
  Sm  Sm4  1  0.16918016  0.33458958  0.83458958  1
  Sm  Sm5  1  0.83081984  0.66541042  0.16541042  1
  Sm  Sm6  1  0.50000000  0.16541042  0.33458958  1
  Sm  Sm7  1  0.50000000  0.83458958  0.66541042  1
  Sm  Sm8  1  0.73132341  0.56606871  0.43444969  1
  Sm  Sm9  1  0.26867659  0.70312628  0.83474530  1
  Sm  Sm10  1  0.86837998  0.20312628  0.93444969  1
  Sm  Sm11  1  0.13162002  0.06606871  0.33474530  1
  Sm  Sm12  1  0.86837998  0.43444969  0.70312628  1
  Sm  Sm13  1  0.13162002  0.83474530  0.56606871  1
  Sm  Sm14  1  0.73132341  0.93444969  0.06606871  1
  Sm  Sm15  1  0.26867659  0.33474530  0.20312628  1
  Sm  Sm16  1  0.26867659  0.43393129  0.56555031  1
  Sm  Sm17  1  0.73132341  0.29687372  0.16525470  1
  Sm  Sm18  1  0.13162002  0.79687372  0.06555031  1
  Sm  Sm19  1  0.86837998  0.93393129  0.66525470  1
  Sm  Sm20  1  0.13162002  0.56555031  0.29687372  1
  Sm  Sm21  1  0.86837998  0.16525470  0.43393129  1
  Sm  Sm22  1  0.26867659  0.06555031  0.93393129  1
  Sm  Sm23  1  0.73132341  0.66525470  0.79687372  1
  Ga  Ga0  1  0.00000000  0.75000000  0.75000000  1
  Ga  Ga1  1  0.00000000  0.25000000  0.25000000  1
  Ga  Ga2  1  0.00000000  0.50000000  0.50000000  1
  Ga  Ga3  1  0.00000000  0.00000000  -0.00000000  1
  Ga  Ga4  1  0.26957568  0.88478784  0.38478784  1
  Ga  Ga5  1  0.73042432  0.11521216  0.61521216  1
  Ga  Ga6  1  0.50000000  0.61521216  0.88478784  1
  Ga  Ga7  1  0.50000000  0.38478784  0.11521216  1
  Ga  Ga8  1  0.14110356  0.11871424  0.61871424  1
  Ga  Ga9  1  0.85889644  0.47760968  0.97760968  1
  Ga  Ga10  1  0.50000000  0.97760968  0.11871424  1
  Ga  Ga11  1  0.50000000  0.61871424  0.47760968  1
  Ga  Ga12  1  0.85889644  0.88128576  0.38128576  1
  Ga  Ga13  1  0.14110356  0.52239032  0.02239032  1
  Ga  Ga14  1  0.50000000  0.02239032  0.88128576  1
  Ga  Ga15  1  0.50000000  0.38128576  0.52239032  1
loop_
_geom_bond_atom_site_label_1
_geom_bond_atom_site_label_2
_geom_bond_distance
_geom_bond_site_symmetry_2
Sm0 Sm3 3.056300 1_555
Sm0 Sm6 3.584479 1_565
Sm0 Sm7 3.584479 1_555
Sm1 Sm2 3.056300 1_555
Sm1 Sm4 3.584468 1_555
Sm1 Sm5 3.584477 1_556
Sm2 Sm7 3.584479 1_545
Sm2 Sm6 3.584479 1_555
Sm3 Sm5 3.584468 1_555
Sm3 Sm4 3.584477 1_554
Sm4 Sm9 3.796534 1_555
Sm5 Sm8 3.796526 1_555
Sm6 Sm8 3.781568 1_555
Sm7 Sm9 3.781568 1_555
Sm10 Sm4 3.781587 1_655
Sm10 Sm7 3.796529 1_545
Sm11 Sm5 3.781571 1_445
Sm11 Sm6 3.796521 1_555
Sm12 Sm4 3.781587 1_655
Sm12 Sm6 3.796529 1_555
Sm13 Sm5 3.781571 1_455
Sm13 Sm7 3.796521 1_555
Sm14 Sm7 3.781568 1_554
Sm14 Sm5 3.796526 1_555
Sm15 Sm6 3.781568 1_555
Sm15 Sm4 3.796534 1_554
Sm16 Sm7 3.781568 1_555
Sm16 Sm4 3.796526 1_555
Sm17 Sm6 3.781568 1_555
Sm17 Sm5 3.796534 1_555
Sm18 Sm5 3.781587 1_455
Sm18 Sm6 3.796529 1_565
Sm19 Sm4 3.781571 1_665
Sm19 Sm7 3.796521 1_555
Sm20 Sm5 3.781587 1_455
Sm20 Sm7 3.796529 1_555
Sm21 Sm4 3.781571 1_655
Sm21 Sm6 3.796521 1_555
Sm22 Sm6 3.781568 1_556
Sm22 Sm4 3.796526 1_555
Sm23 Sm7 3.781568 1_555
Sm23 Sm5 3.796534 1_556
Ga0 Sm18 3.060158 1_556
Ga0 Sm12 3.060158 1_455
Ga0 Sm22 3.060160 1_565
Ga0 Sm23 3.060160 1_455
Ga0 Sm8 3.060160 1_455
Ga0 Sm9 3.060160 1_555
Ga0 Sm13 3.060167 1_555
Ga0 Sm19 3.060167 1_455
Ga1 Sm10 3.060158 1_454
Ga1 Sm20 3.060158 1_555
Ga1 Sm14 3.060160 1_445
Ga1 Sm16 3.060160 1_555
Ga1 Sm17 3.060160 1_455
Ga1 Sm15 3.060160 1_555
Ga1 Sm11 3.060167 1_555
Ga1 Sm21 3.060167 1_455
Ga2 Sm13 3.236223 1_555
Ga2 Sm21 3.236223 1_455
Ga2 Sm9 3.236225 1_555
Ga2 Sm16 3.236225 1_555
Ga2 Sm17 3.236225 1_455
Ga2 Sm8 3.236225 1_455
Ga2 Sm12 3.236233 1_455
Ga2 Sm20 3.236233 1_555
Ga3 Sm11 3.236223 1_555
Ga3 Sm19 3.236223 1_444
Ga3 Sm15 3.236225 1_555
Ga3 Sm23 3.236225 1_444
Ga3 Sm14 3.236225 1_445
Ga3 Sm22 3.236225 1_554
Ga3 Sm10 3.236233 1_454
Ga3 Sm18 3.236233 1_545
Ga4 Sm2 2.981642 1_565
Ga4 Sm0 2.981642 1_555
Ga4 Sm11 3.046492 1_565
Ga4 Sm13 3.046492 1_555
Ga4 Sm18 3.046503 1_555
Ga4 Sm20 3.046503 1_555
Ga4 Sm6 3.379061 1_565
Ga4 Sm7 3.379061 1_555
Ga4 Sm5 3.677408 1_455
Ga5 Sm2 2.981642 1_555
Ga5 Sm0 2.981642 1_545
Ga5 Sm21 3.046492 1_555
Ga5 Sm19 3.046492 1_545
Ga5 Sm10 3.046503 1_555
Ga5 Sm12 3.046503 1_555
Ga5 Sm7 3.379061 1_545
Ga5 Sm6 3.379061 1_555
Ga5 Sm4 3.677408 1_655
Ga6 Sm3 2.981642 1_556
Ga6 Sm1 2.981642 1_555
Ga6 Sm9 3.046501 1_555
Ga6 Sm23 3.046501 1_555
Ga6 Sm14 3.046501 1_556
Ga6 Sm16 3.046501 1_555
Ga6 Sm5 3.379054 1_556
Ga6 Sm4 3.379054 1_555
Ga6 Sm7 3.677400 1_555
Ga7 Sm3 2.981642 1_555
Ga7 Sm1 2.981642 1_554
Ga7 Sm15 3.046501 1_555
Ga7 Sm22 3.046501 1_554
Ga7 Sm17 3.046501 1_555
Ga7 Sm8 3.046501 1_555
Ga7 Sm4 3.379054 1_554
Ga7 Sm5 3.379054 1_555
Ga7 Sm6 3.677400 1_555
Ga8 Sm4 3.076759 1_555
Ga8 Sm1 3.111640 1_555
Ga8 Sm11 3.153698 1_555
Ga8 Sm13 3.153698 1_545
Ga8 Sm19 3.166778 1_445
Ga8 Sm21 3.166778 1_455
Ga8 Sm16 3.423567 1_555
Ga8 Sm22 3.423567 1_555
Ga8 Sm2 3.762565 1_555
Ga9 Sm5 3.076789 1_556
Ga9 Sm1 3.111644 1_555
Ga9 Sm12 3.153674 1_555
Ga9 Sm10 3.153674 1_555
Ga9 Sm20 3.166778 1_656
Ga9 Sm18 3.166778 1_656
Ga9 Sm17 3.423571 1_556
Ga9 Sm23 3.423571 1_555
Ga9 Sm2 3.762555 1_555
Ga10 Ga14 2.781753 1_564
Ga10 Sm6 3.076773 1_565
Ga10 Sm0 3.111633 1_555
Ga10 Sm14 3.153687 1_555
Ga10 Sm9 3.153687 1_554
Ga10 Sm22 3.166778 1_564
Ga10 Sm17 3.166778 1_565
Ga10 Sm18 3.423556 1_555
Ga10 Sm21 3.423561 1_565
Ga10 Sm3 3.762553 1_555
Ga11 Ga15 2.781753 1_555
Ga11 Sm7 3.076773 1_555
Ga11 Sm0 3.111633 1_555
Ga11 Sm8 3.153687 1_555
Ga11 Sm15 3.153687 1_555
Ga11 Sm16 3.166778 1_555
Ga11 Sm23 3.166778 1_555
Ga11 Sm20 3.423556 1_555
Ga11 Sm19 3.423561 1_555
Ga11 Sm3 3.762553 1_555
Ga12 Ga8 2.781747 1_665
Ga12 Sm5 3.076759 1_555
Ga12 Sm3 3.111640 1_555
Ga12 Sm19 3.153698 1_555
Ga12 Sm21 3.153698 1_565
Ga12 Sm11 3.166778 1_665
Ga12 Sm13 3.166778 1_655
Ga12 Sm8 3.423567 1_555
Ga12 Sm14 3.423567 1_555
Ga12 Sm0 3.762565 1_555
Ga13 Ga9 2.781731 1_454
Ga13 Sm4 3.076789 1_554
Ga13 Sm3 3.111644 1_555
Ga13 Sm20 3.153674 1_555
Ga13 Sm18 3.153674 1_555
Ga13 Sm10 3.166778 1_454
Ga13 Sm12 3.166778 1_454
Ga13 Sm15 3.423571 1_555
Ga13 Sm9 3.423571 1_554
Ga13 Sm0 3.762555 1_555
Ga14 Sm7 3.076773 1_545
Ga14 Sm2 3.111633 1_555
Ga14 Sm22 3.153687 1_555
Ga14 Sm17 3.153687 1_556
Ga14 Sm9 3.166778 1_545
Ga14 Sm14 3.166778 1_546
Ga14 Sm10 3.423556 1_555
Ga14 Sm13 3.423561 1_545
Ga14 Sm1 3.762553 1_555
Ga15 Sm6 3.076773 1_555
Ga15 Sm2 3.111633 1_555
Ga15 Sm23 3.153687 1_555
Ga15 Sm16 3.153687 1_555
Ga15 Sm15 3.166778 1_555
Ga15 Sm8 3.166778 1_555
Ga15 Sm12 3.423556 1_555
Ga15 Sm11 3.423561 1_555
Ga15 Sm1 3.762553 1_555
