# generated using pymatgen
data_KMg6Co
_symmetry_space_group_name_H-M   'P 1'
_cell_length_a   4.74869943
_cell_length_b   6.25842296
_cell_length_c   13.79925513
_cell_angle_alpha   90.00000000
_cell_angle_beta   90.00000000
_cell_angle_gamma   90.00000000
_symmetry_Int_Tables_number   1
_chemical_formula_structural   KMg6Co
_chemical_formula_sum   'K2 Mg12 Co2'
_cell_volume   410.10516262
_cell_formula_units_Z   2
loop_
 _symmetry_equiv_pos_site_id
 _symmetry_equiv_pos_as_xyz
  1  'x, y, z'
loop_
 _atom_site_type_symbol
 _atom_site_label
 _atom_site_symmetry_multiplicity
 _atom_site_fract_x
 _atom_site_fract_y
 _atom_site_fract_z
 _atom_site_occupancy
  K  K0  1  0.50000000  0.50000000  0.21176812  1
  K  K1  1  0.50000000  0.00000000  0.71176812  1
  Mg  Mg0  1  -0.00000000  0.74817471  0.05033708  1
  Mg  Mg1  1  0.00000000  0.25182529  0.05033708  1
  Mg  Mg2  1  -0.00000000  0.00000000  0.31398586  1
  Mg  Mg3  1  0.50000000  0.25285777  0.42452758  1
  Mg  Mg4  1  0.50000000  0.74714223  0.42452758  1
  Mg  Mg5  1  0.50000000  0.00000000  0.13055740  1
  Mg  Mg6  1  -0.00000000  0.24817471  0.55033708  1
  Mg  Mg7  1  -0.00000000  0.75182529  0.55033708  1
  Mg  Mg8  1  -0.00000000  0.50000000  0.81398586  1
  Mg  Mg9  1  0.50000000  0.75285777  0.92452758  1
  Mg  Mg10  1  0.50000000  0.24714223  0.92452758  1
  Mg  Mg11  1  0.50000000  0.50000000  0.63055740  1
  Co  Co0  1  -0.00000000  0.50000000  0.39395931  1
  Co  Co1  1  0.00000000  0.00000000  0.89395931  1
loop_
_geom_bond_atom_site_label_1
_geom_bond_atom_site_label_2
_geom_bond_distance
_geom_bond_site_symmetry_2
K0 Mg3 3.318431 1_555
K0 Mg4 3.318431 1_555
K0 Mg5 3.323825 1_555
K0 Mg5 3.323825 1_565
K0 Mg0 3.607248 1_655
K0 Mg1 3.607248 1_555
K0 Mg1 3.607248 1_655
K0 Mg0 3.607248 1_555
K1 Mg9 3.318431 1_545
K1 Mg10 3.318431 1_555
K1 Mg11 3.323825 1_555
K1 Mg11 3.323825 1_545
K1 Mg7 3.607248 1_645
K1 Mg7 3.607248 1_545
K1 Mg6 3.607248 1_655
K1 Mg6 3.607248 1_555
Mg0 Mg9 2.941489 1_554
Mg0 Mg9 2.941489 1_454
Mg0 Mg5 3.057255 1_565
Mg0 Mg5 3.057255 1_465
Mg1 Mg10 2.941489 1_554
Mg1 Mg10 2.941489 1_454
Mg1 Mg5 3.057255 1_455
Mg1 Mg5 3.057255 1_555
Mg2 Mg3 3.235528 1_455
Mg2 Mg4 3.235528 1_445
Mg2 Mg3 3.235528 1_555
Mg2 Mg4 3.235528 1_545
Mg2 Mg5 3.470503 1_455
Mg2 Mg5 3.470503 1_555
Mg3 Mg6 2.941489 1_655
Mg3 Mg6 2.941489 1_555
Mg3 Mg4 3.093441 1_555
Mg3 Mg4 3.164982 1_545
Mg4 Mg7 2.941489 1_655
Mg4 Mg7 2.941489 1_555
Mg5 Mg9 3.236560 1_544
Mg8 Mg9 3.235528 1_455
Mg8 Mg9 3.235528 1_555
Mg10 Mg9 3.093441 1_545
Mg10 Mg9 3.164982 1_555
Mg10 Mg8 3.235528 1_555
Mg10 Mg8 3.235528 1_655
Mg10 Mg5 3.236560 1_556
Mg11 Mg7 3.057255 1_555
Mg11 Mg6 3.057255 1_655
Mg11 Mg7 3.057255 1_655
Mg11 Mg6 3.057255 1_555
Mg11 Mg3 3.236560 1_555
Mg11 Mg4 3.236560 1_555
Mg11 Mg8 3.470503 1_555
Mg11 Mg8 3.470503 1_655
Co0 Mg6 2.672150 1_555
Co0 Mg7 2.672150 1_555
Co0 Mg3 2.864928 1_455
Co0 Mg4 2.864928 1_455
Co0 Mg3 2.864928 1_555
Co0 Mg4 2.864928 1_555
Co0 Mg2 3.318108 1_555
Co0 Mg2 3.318108 1_565
Co0 K0 3.458070 1_455
Co0 K0 3.458070 1_555
Co1 Mg0 2.672150 1_546
Co1 Mg1 2.672150 1_556
Co1 Mg9 2.864928 1_545
Co1 Mg10 2.864928 1_555
Co1 Mg10 2.864928 1_455
Co1 Mg9 2.864928 1_445
Co1 Mg8 3.318108 1_555
Co1 Mg8 3.318108 1_545
Co1 K1 3.458070 1_555
Co1 K1 3.458070 1_455
