# generated using pymatgen
data_Ba3La3Pr3Cu9O22
_symmetry_space_group_name_H-M   'P 1'
_cell_length_a   5.55012700
_cell_length_b   8.71505683
_cell_length_c   12.17523211
_cell_angle_alpha   74.16790833
_cell_angle_beta   77.21659258
_cell_angle_gamma   72.80039545
_symmetry_Int_Tables_number   1
_chemical_formula_structural   Ba3La3Pr3Cu9O22
_chemical_formula_sum   'Ba3 La3 Pr3 Cu9 O22'
_cell_volume   534.86440549
_cell_formula_units_Z   1
loop_
 _symmetry_equiv_pos_site_id
 _symmetry_equiv_pos_as_xyz
  1  'x, y, z'
loop_
 _atom_site_type_symbol
 _atom_site_label
 _atom_site_symmetry_multiplicity
 _atom_site_fract_x
 _atom_site_fract_y
 _atom_site_fract_z
 _atom_site_occupancy
  Ba  Ba0  1  0.45648300  0.93330300  0.17383700  1
  Ba  Ba1  1  0.77493800  0.26762800  0.18175600  1
  Ba  Ba2  1  0.89547400  0.39571100  0.81954800  1
  La  La0  1  0.11342600  0.60481400  0.17365000  1
  La  La1  1  0.20211500  0.74835100  0.83004800  1
  La  La2  1  0.57050900  0.07170500  0.82055100  1
  Pr  Pr0  1  0.00228800  0.50010400  0.49998800  1
  Pr  Pr1  1  0.66405100  0.16687200  0.50201000  1
  Pr  Pr2  1  0.34004100  0.83000500  0.50013400  1
  Cu  Cu0  1  0.88739700  0.88201400  0.34838300  1
  Cu  Cu1  1  0.55283400  0.54673800  0.34939200  1
  Cu  Cu2  1  0.21914000  0.21381200  0.35258900  1
  Cu  Cu3  1  0.77918100  0.78150600  0.65604600  1
  Cu  Cu4  1  0.44713600  0.45295300  0.65334800  1
  Cu  Cu5  1  0.11977100  0.11806100  0.65223700  1
  Cu  Cu6  1  0.65687300  0.66569300  0.99713800  1
  Cu  Cu7  1  0.33628500  0.34623800  0.99573200  1
  Cu  Cu8  1  0.00601400  0.98798800  0.00177800  1
  O  O0  1  0.95325700  0.92680000  0.16305900  1
  O  O1  1  0.60267900  0.59970200  0.16054700  1
  O  O2  1  0.27502600  0.32007600  0.15699300  1
  O  O3  1  0.65156800  0.71308300  0.83613400  1
  O  O4  1  0.38901000  0.36829200  0.83676800  1
  O  O5  1  0.13690900  0.05651700  0.84396700  1
  O  O6  1  0.71273500  0.70969400  0.36336000  1
  O  O7  1  0.38320800  0.37166200  0.37112400  1
  O  O8  1  0.04371900  0.04077800  0.37791200  1
  O  O9  1  0.21129800  0.70434400  0.36556900  1
  O  O10  1  0.88264400  0.37963000  0.36682600  1
  O  O11  1  0.54703100  0.04249100  0.36617600  1
  O  O12  1  0.62900000  0.62263000  0.62453800  1
  O  O13  1  0.28801700  0.29499300  0.62869800  1
  O  O14  1  0.94522900  0.94869600  0.66258300  1
  O  O15  1  0.12151900  0.62952700  0.63919600  1
  O  O16  1  0.78629800  0.27784600  0.64296900  1
  O  O17  1  0.45389000  0.95695100  0.63531300  1
  O  O18  1  0.30498200  0.78279300  0.00986100  1
  O  O19  1  0.64603200  0.17782000  0.99485500  1
  O  O20  1  0.03526800  0.53039800  0.98829000  1
  O  O21  1  0.81005800  0.86511400  0.95709400  1
loop_
_geom_bond_atom_site_label_1
_geom_bond_atom_site_label_2
_geom_bond_distance
_geom_bond_site_symmetry_2
Ba0 O0 2.715491 1_555
Ba0 O1 2.817924 1_555
Ba0 O0 2.842704 1_455
Ba0 O19 2.859027 1_564
Ba0 O6 2.916245 1_555
Ba0 O11 2.943038 1_565
Ba0 O9 2.990189 1_555
Ba0 O21 3.007028 1_554
Ba0 O18 3.039317 1_555
Ba0 O8 3.127449 1_565
Ba0 O2 3.181956 1_565
Ba1 O1 2.724219 1_555
Ba1 O2 2.746463 1_555
Ba1 O11 2.880704 1_555
Ba1 O2 2.882412 1_655
Ba1 O19 2.885493 1_554
Ba1 O0 2.895667 1_545
Ba1 O10 2.920376 1_555
Ba1 O7 2.936202 1_555
Ba1 O8 3.015593 1_655
Ba1 O20 3.223010 1_654
Ba2 O4 2.728353 1_655
Ba2 O3 2.737339 1_555
Ba2 O5 2.824287 1_655
Ba2 O4 2.848078 1_555
Ba2 O19 2.848486 1_555
Ba2 O16 2.862498 1_555
Ba2 O15 2.898152 1_655
Ba2 O13 2.942446 1_655
Ba2 O20 2.959814 1_655
Ba2 O12 2.999624 1_555
La0 O18 2.421202 1_555
La0 O2 2.425135 1_555
La0 O0 2.656923 1_455
La0 O20 2.664609 1_554
La0 O1 2.672368 1_555
La0 O1 2.888202 1_455
La0 O9 2.907527 1_555
La0 O10 2.942563 1_455
La0 O6 2.965267 1_455
La0 O7 3.046228 1_555
La1 O3 2.436909 1_555
La1 O18 2.494387 1_556
La1 O21 2.494558 1_455
La1 O20 2.536010 1_555
La1 O5 2.649335 1_565
La1 O14 2.666514 1_455
La1 O17 2.926331 1_555
La1 O15 2.952761 1_555
La1 O3 3.143167 1_455
La1 O4 3.148229 1_555
La1 O12 3.226728 1_555
La2 O21 2.387939 1_545
La2 O5 2.398830 1_555
La2 O4 2.526926 1_555
La2 O14 2.685143 1_545
La2 O19 2.688572 1_555
La2 O16 2.709933 1_555
La2 O17 2.960584 1_545
Cu0 O6 1.965108 1_555
Cu0 O8 1.978855 1_665
Cu0 O11 1.998312 1_565
Cu0 O9 2.004123 1_655
Cu0 O0 2.148484 1_555
Cu1 O6 1.943544 1_555
Cu1 O7 1.950229 1_555
Cu1 O10 1.985799 1_555
Cu1 O9 1.990273 1_555
Cu1 O1 2.188839 1_555
Cu2 O7 1.942616 1_555
Cu2 O8 1.949054 1_555
Cu2 O11 1.989965 1_555
Cu2 O10 2.000900 1_455
Cu2 O2 2.294491 1_555
Cu3 O14 1.966874 1_555
Cu3 O12 1.967980 1_555
Cu3 O15 1.973304 1_655
Cu3 O17 2.004897 1_555
Cu3 O3 2.124598 1_555
Cu4 O12 1.942054 1_555
Cu4 O13 1.956226 1_555
Cu4 O15 2.003046 1_555
Cu4 O16 2.046780 1_555
Cu4 O4 2.135056 1_555
Cu5 O14 1.955284 1_445
Cu5 O13 1.955444 1_555
Cu5 O16 1.964652 1_455
Cu5 O17 1.975254 1_545
Cu5 O5 2.265143 1_555
Cu6 O3 1.894905 1_555
Cu6 O1 1.895432 1_556
Cu6 O18 1.911406 1_556
Cu6 O21 2.051621 1_555
Cu6 O20 2.077784 1_655
Cu7 O4 1.856904 1_555
Cu7 O2 1.878473 1_556
Cu7 O19 1.902114 1_555
Cu7 O20 1.943493 1_555
Cu8 O0 1.868825 1_455
Cu8 O5 1.894452 1_564
Cu8 O21 1.973330 1_454
Cu8 O18 2.045072 1_555
Cu8 O19 2.186215 1_464
O6 Pr2 2.509354 1_555
O6 Pr0 2.544660 1_655
O7 Pr1 2.460998 1_555
O7 Pr0 2.505011 1_555
O8 Pr1 2.461374 1_455
O8 Pr2 2.469471 1_545
O9 Pr0 2.446194 1_555
O9 Pr2 2.520710 1_555
O10 Pr0 2.447330 1_655
O10 Pr1 2.529914 1_555
O11 Pr2 2.487997 1_545
O11 Pr1 2.490341 1_555
O12 Pr0 2.432485 1_655
O12 Pr2 2.449422 1_555
O13 Pr0 2.461856 1_555
O13 Pr1 2.473587 1_555
O14 Pr1 2.727604 1_565
O14 Pr2 2.764306 1_655
O15 Pr2 2.473982 1_555
O15 Pr0 2.561963 1_555
O16 Pr1 2.479943 1_555
O16 Pr0 2.613300 1_655
O17 Pr1 2.479064 1_565
O17 Pr2 2.489822 1_555
