# generated using pymatgen
data_CaMg14Cd
_symmetry_space_group_name_H-M   'P 1'
_cell_length_a   6.45372173
_cell_length_b   6.44224162
_cell_length_c   10.52225363
_cell_angle_alpha   90.00000000
_cell_angle_beta   90.00000000
_cell_angle_gamma   119.94117948
_symmetry_Int_Tables_number   1
_chemical_formula_structural   CaMg14Cd
_chemical_formula_sum   'Ca1 Mg14 Cd1'
_cell_volume   379.09124093
_cell_formula_units_Z   1
loop_
 _symmetry_equiv_pos_site_id
 _symmetry_equiv_pos_as_xyz
  1  'x, y, z'
loop_
 _atom_site_type_symbol
 _atom_site_label
 _atom_site_symmetry_multiplicity
 _atom_site_fract_x
 _atom_site_fract_y
 _atom_site_fract_z
 _atom_site_occupancy
  Ca  Ca0  1  0.16509460  0.33254680  0.12500000  1
  Mg  Mg0  1  0.16694877  0.33347388  0.62500000  1
  Mg  Mg1  1  0.16692471  0.83346185  0.62500000  1
  Mg  Mg2  1  0.66328409  0.32475751  0.12500000  1
  Mg  Mg3  1  0.66623812  0.33319575  0.62500000  1
  Mg  Mg4  1  0.66328409  0.83852558  0.12500000  1
  Mg  Mg5  1  0.66623812  0.83304136  0.62500000  1
  Mg  Mg6  1  0.33512664  0.16396493  0.37993768  1
  Mg  Mg7  1  0.33512664  0.16396493  0.87006232  1
  Mg  Mg8  1  0.33512664  0.67116271  0.37993768  1
  Mg  Mg9  1  0.33512664  0.67116271  0.87006232  1
  Mg  Mg10  1  0.82877678  0.16438889  0.38191554  1
  Mg  Mg11  1  0.82877678  0.16438889  0.86808446  1
  Mg  Mg12  1  0.83373206  0.66686653  0.37082261  1
  Mg  Mg13  1  0.83373206  0.66686653  0.87917739  1
  Cd  Cd0  1  0.17646327  0.83823114  0.12500000  1
loop_
_geom_bond_atom_site_label_1
_geom_bond_atom_site_label_2
_geom_bond_distance
_geom_bond_site_symmetry_2
Ca0 Mg4 3.213794 1_445
Ca0 Mg2 3.213794 1_455
Ca0 Cd0 3.221748 1_545
Ca0 Cd0 3.221748 1_555
Ca0 Mg4 3.240513 1_555
Ca0 Mg2 3.240514 1_555
Ca0 Mg7 3.281645 1_554
Ca0 Mg6 3.281645 1_555
Ca0 Mg9 3.281652 1_554
Ca0 Mg8 3.281652 1_555
Ca0 Mg11 3.293249 1_454
Ca0 Mg10 3.293249 1_455
Mg0 Mg10 3.181026 1_455
Mg0 Mg11 3.181026 1_455
Mg0 Mg6 3.194197 1_555
Mg0 Mg7 3.194197 1_555
Mg0 Mg8 3.194204 1_555
Mg0 Mg9 3.194204 1_555
Mg0 Mg1 3.221121 1_545
Mg0 Mg1 3.221121 1_555
Mg0 Mg5 3.223169 1_555
Mg0 Mg3 3.223169 1_555
Mg0 Mg5 3.230553 1_445
Mg0 Mg3 3.230553 1_455
Mg1 Mg8 3.170770 1_555
Mg1 Mg9 3.170770 1_555
Mg1 Mg6 3.170777 1_565
Mg1 Mg7 3.170777 1_565
Mg1 Mg3 3.223782 1_565
Mg1 Mg5 3.223783 1_555
Mg1 Mg3 3.229940 1_455
Mg1 Mg5 3.229941 1_455
Mg1 Mg12 3.259618 1_455
Mg1 Mg13 3.259618 1_455
Mg2 Mg4 3.132424 1_545
Mg2 Mg7 3.250272 1_554
Mg2 Mg6 3.250272 1_555
Mg2 Mg4 3.309818 1_555
Mg3 Mg6 3.174681 1_555
Mg3 Mg7 3.174681 1_555
Mg3 Mg5 3.220126 1_555
Mg3 Mg5 3.222115 1_545
Mg4 Mg9 3.250272 1_554
Mg4 Mg8 3.250272 1_555
Mg5 Mg8 3.174681 1_555
Mg5 Mg9 3.174681 1_555
Mg6 Mg8 3.174751 1_545
Mg6 Mg8 3.267491 1_555
Mg7 Mg9 3.174751 1_545
Mg7 Mg9 3.267491 1_555
Mg10 Mg3 3.156589 1_555
Mg10 Mg5 3.156596 1_545
Mg10 Mg8 3.184586 1_545
Mg10 Mg6 3.184586 1_555
Mg10 Mg12 3.223354 1_555
Mg10 Mg12 3.223354 1_545
Mg10 Mg2 3.258458 1_555
Mg10 Mg4 3.258464 1_545
Mg10 Mg8 3.269271 1_655
Mg10 Mg6 3.269271 1_655
Mg11 Mg3 3.156589 1_555
Mg11 Mg5 3.156596 1_545
Mg11 Mg9 3.184586 1_545
Mg11 Mg7 3.184586 1_555
Mg11 Mg13 3.223354 1_555
Mg11 Mg13 3.223354 1_545
Mg11 Mg2 3.258458 1_556
Mg11 Mg4 3.258464 1_546
Mg11 Mg9 3.269271 1_655
Mg11 Mg7 3.269271 1_655
Mg12 Mg4 3.215254 1_555
Mg12 Mg2 3.215260 1_555
Mg12 Mg6 3.223563 1_665
Mg12 Mg8 3.223564 1_655
Mg12 Mg6 3.233186 1_555
Mg12 Mg8 3.233186 1_555
Mg12 Mg5 3.259253 1_555
Mg12 Mg3 3.259259 1_555
Mg13 Mg4 3.215254 1_556
Mg13 Mg2 3.215260 1_556
Mg13 Mg7 3.223563 1_665
Mg13 Mg9 3.223564 1_655
Mg13 Mg7 3.233186 1_555
Mg13 Mg9 3.233186 1_555
Mg13 Mg5 3.259253 1_555
Mg13 Mg3 3.259259 1_555
Cd0 Mg2 3.140860 1_565
Cd0 Mg4 3.140860 1_555
Cd0 Mg13 3.219353 1_454
Cd0 Mg12 3.219353 1_455
Cd0 Mg9 3.240828 1_554
Cd0 Mg8 3.240828 1_555
Cd0 Mg7 3.240834 1_564
Cd0 Mg6 3.240834 1_565
Cd0 Mg2 3.312863 1_455
Cd0 Mg4 3.312863 1_455
