# generated using pymatgen
data_Y12Al7Si
_symmetry_space_group_name_H-M   'P 1'
_cell_length_a   11.25393387
_cell_length_b   11.25394659
_cell_length_c   11.25394762
_cell_angle_alpha   117.14555496
_cell_angle_beta   117.14548776
_cell_angle_gamma   95.01966634
_symmetry_Int_Tables_number   1
_chemical_formula_structural   Y12Al7Si
_chemical_formula_sum   'Y24 Al14 Si2'
_cell_volume   1046.99288419
_cell_formula_units_Z   2
loop_
 _symmetry_equiv_pos_site_id
 _symmetry_equiv_pos_as_xyz
  1  'x, y, z'
loop_
 _atom_site_type_symbol
 _atom_site_label
 _atom_site_symmetry_multiplicity
 _atom_site_fract_x
 _atom_site_fract_y
 _atom_site_fract_z
 _atom_site_occupancy
  Y  Y0  1  0.14743949  0.64746158  0.50000423  1
  Y  Y1  1  0.85254089  0.35256275  0.50000209  1
  Y  Y2  1  0.64745577  0.14743576  0.49999574  1
  Y  Y3  1  0.35255856  0.85254004  0.49999594  1
  Y  Y4  1  0.83729442  0.70131487  0.26494831  1
  Y  Y5  1  0.16268819  0.29869333  0.73507155  1
  Y  Y6  1  0.43637827  0.57238320  0.73507216  1
  Y  Y7  1  0.70132401  0.43638031  0.86401490  1
  Y  Y8  1  0.06361671  0.79866635  0.13599027  1
  Y  Y9  1  0.56363369  0.42765493  0.26494746  1
  Y  Y10  1  0.29870352  0.56363693  0.13600064  1
  Y  Y11  1  0.93636714  0.20130384  0.86398282  1
  Y  Y12  1  0.57236391  0.83729572  0.13599940  1
  Y  Y13  1  0.66267819  0.92761431  0.86398275  1
  Y  Y14  1  0.42763507  0.16269236  0.86401626  1
  Y  Y15  1  0.33732421  0.07237281  0.13599078  1
  Y  Y16  1  0.92760128  0.06361459  0.26493339  1
  Y  Y17  1  0.07235904  0.93636671  0.73504666  1
  Y  Y18  1  0.79868034  0.66268648  0.73504683  1
  Y  Y19  1  0.20131788  0.33733297  0.26493514  1
  Y  Y20  1  0.17054277  0.67053380  0.84107449  1
  Y  Y21  1  0.82944416  0.32948255  0.15892775  1
  Y  Y22  1  0.67053257  0.82944454  0.49997459  1
  Y  Y23  1  0.32948146  0.17054055  0.50002251  1
  Al  Al0  1  0.61863299  0.11863860  0.73727314  1
  Al  Al1  1  0.38136564  0.88136268  0.26272792  1
  Al  Al2  1  0.11863507  0.38137250  0.50000957  1
  Al  Al3  1  0.88135988  0.61864268  0.50000179  1
  Al  Al4  1  0.50000868  0.50000637  0.00001365  1
  Al  Al5  1  -0.00000471  0.99998730  0.99998264  1
  Al  Al6  1  0.38192810  0.88192641  0.85772945  1
  Al  Al7  1  0.61808069  0.11807082  0.14227717  1
  Al  Al8  1  0.02420498  0.52419813  0.14227745  1
  Al  Al9  1  0.88192393  0.02418893  0.50000052  1
  Al  Al10  1  0.47581689  0.61808312  0.50000841  1
  Al  Al11  1  0.97580377  0.47580226  0.85772767  1
  Al  Al12  1  0.11807536  0.97579109  0.49999771  1
  Al  Al13  1  0.52420799  0.38192476  0.49999527  1
  Si  Si0  1  0.74999835  0.74999767  0.99999949  1
  Si  Si1  1  0.25000085  0.25000039  -0.00000052  1
loop_
_geom_bond_atom_site_label_1
_geom_bond_atom_site_label_2
_geom_bond_distance
_geom_bond_site_symmetry_2
Al0 Y3 2.983680 1_545
Al0 Y2 2.983697 1_555
Al0 Y14 3.039643 1_555
Al0 Y11 3.039648 1_555
Al0 Y13 3.039652 1_545
Al0 Y7 3.039652 1_555
Al0 Y23 3.447711 1_555
Al0 Y22 3.448210 1_545
Al0 Y21 3.499131 1_556
Al1 Y2 2.983627 1_565
Al1 Y3 2.983648 1_555
Al1 Y10 3.039522 1_555
Al1 Y12 3.039530 1_555
Al1 Y15 3.039725 1_565
Al1 Y8 3.039735 1_555
Al1 Y22 3.447907 1_555
Al1 Y23 3.447976 1_565
Al1 Y20 3.499121 1_554
Al2 Y1 2.983727 1_455
Al2 Y0 2.983745 1_555
Al2 Y5 3.039674 1_555
Al2 Y6 3.039687 1_555
Al2 Y16 3.039862 1_455
Al2 Y19 3.039864 1_555
Al2 Y20 3.447800 1_555
Al2 Y21 3.448141 1_455
Al2 Y23 3.499331 1_555
Al3 Y0 2.983595 1_655
Al3 Y1 2.983617 1_555
Al3 Y9 3.039495 1_555
Al3 Y4 3.039499 1_555
Al3 Y17 3.039504 1_655
Al3 Y18 3.039518 1_555
Al3 Y21 3.447819 1_555
Al3 Y20 3.448036 1_655
Al3 Y22 3.498923 1_555
Al4 Y4 3.230252 1_555
Al4 Y9 3.230256 1_555
Al4 Y12 3.230274 1_555
Al4 Y10 3.230301 1_555
Al4 Y7 3.230496 1_554
Al4 Y14 3.230497 1_554
Al4 Y6 3.230525 1_554
Al4 Y5 3.230537 1_554
Al5 Y17 3.230382 1_555
Al5 Y18 3.230384 1_455
Al5 Y11 3.230523 1_465
Al5 Y13 3.230523 1_455
Al5 Y15 3.230622 1_566
Al5 Y8 3.230625 1_556
Al5 Y16 3.230760 1_466
Al5 Y19 3.230762 1_566
Al6 Al7 2.759132 1_566
Al6 Y0 3.086668 1_555
Al6 Y20 3.090288 1_555
Al6 Y14 3.119588 1_565
Al6 Y13 3.119589 1_555
Al6 Y15 3.185953 1_566
Al6 Y12 3.186200 1_556
Al6 Y6 3.342720 1_555
Al6 Y17 3.342926 1_555
Al7 Y1 3.086664 1_555
Al7 Y21 3.090299 1_555
Al7 Y15 3.119476 1_555
Al7 Y12 3.119750 1_545
Al7 Y14 3.186082 1_554
Al7 Y13 3.186210 1_544
Al7 Y16 3.342528 1_555
Al7 Y9 3.343106 1_555
Al8 Y0 3.086686 1_555
Al8 Y21 3.090315 1_455
Al8 Y8 3.119463 1_555
Al8 Y10 3.119754 1_555
Al8 Y7 3.186065 1_454
Al8 Y11 3.186227 1_454
Al8 Y19 3.342549 1_555
Al8 Y4 3.343074 1_455
Al9 Y2 3.086566 1_555
Al9 Y22 3.090185 1_545
Al9 Y16 3.119532 1_555
Al9 Y5 3.119709 1_655
Al9 Y4 3.185938 1_545
Al9 Y17 3.185945 1_645
Al9 Y11 3.342646 1_555
Al9 Y12 3.342835 1_545
Al10 Al13 2.759170 1_555
Al10 Y3 3.086559 1_555
Al10 Y22 3.090193 1_555
Al10 Y19 3.119591 1_555
Al10 Y6 3.119707 1_555
Al10 Y18 3.185906 1_555
Al10 Y9 3.185982 1_555
Al10 Y13 3.342564 1_555
Al10 Y10 3.342882 1_555
Al11 Al8 2.759166 1_656
Al11 Y1 3.086664 1_555
Al11 Y20 3.090293 1_655
Al11 Y7 3.119596 1_555
Al11 Y11 3.119623 1_555
Al11 Y8 3.185952 1_656
Al11 Y10 3.186198 1_656
Al11 Y5 3.342706 1_655
Al11 Y18 3.342902 1_555
Al12 Al9 2.759174 1_465
Al12 Y3 3.086756 1_555
Al12 Y23 3.090348 1_565
Al12 Y17 3.119559 1_555
Al12 Y4 3.119663 1_455
Al12 Y16 3.186233 1_465
Al12 Y5 3.186294 1_565
Al12 Y8 3.342820 1_555
Al12 Y14 3.342922 1_565
Al13 Y2 3.086794 1_555
Al13 Y23 3.090403 1_555
Al13 Y18 3.119523 1_555
Al13 Y9 3.119638 1_555
Al13 Y19 3.186230 1_555
Al13 Y6 3.186320 1_555
Al13 Y15 3.342816 1_555
Al13 Y7 3.342953 1_555
Si0 Y16 3.011081 1_566
Si0 Y6 3.011107 1_555
Si0 Y7 3.011140 1_555
Si0 Y8 3.011151 1_656
Si0 Y13 3.011233 1_555
Si0 Y12 3.011251 1_556
Si0 Y4 3.011284 1_556
Si0 Y18 3.011298 1_555
Si1 Y19 3.011102 1_555
Si1 Y5 3.011122 1_554
Si1 Y14 3.011141 1_554
Si1 Y15 3.011162 1_555
Si1 Y11 3.011230 1_454
Si1 Y10 3.011271 1_555
Si1 Y17 3.011287 1_544
Si1 Y9 3.011287 1_555
