# generated using pymatgen
data_Mg(AgO2)2
_symmetry_space_group_name_H-M   'P 1'
_cell_length_a   6.41357399
_cell_length_b   6.41357399
_cell_length_c   15.46190500
_cell_angle_alpha   90.00000000
_cell_angle_beta   90.00000000
_cell_angle_gamma   119.99999988
_symmetry_Int_Tables_number   1
_chemical_formula_structural   Mg(AgO2)2
_chemical_formula_sum   'Mg6 Ag12 O24'
_cell_volume   550.79989813
_cell_formula_units_Z   6
loop_
 _symmetry_equiv_pos_site_id
 _symmetry_equiv_pos_as_xyz
  1  'x, y, z'
loop_
 _atom_site_type_symbol
 _atom_site_label
 _atom_site_symmetry_multiplicity
 _atom_site_fract_x
 _atom_site_fract_y
 _atom_site_fract_z
 _atom_site_occupancy
  Mg  Mg0  1  0.33333300  0.66666700  0.95219500  1
  Mg  Mg1  1  0.00000000  0.00000000  0.62454700  1
  Mg  Mg2  1  0.00000000  0.00000000  0.99757300  1
  Mg  Mg3  1  0.66666700  0.33333300  0.28585100  1
  Mg  Mg4  1  0.33333300  0.66666700  0.71083200  1
  Mg  Mg5  1  0.00000000  0.00000000  0.37778400  1
  Ag  Ag0  1  0.83606200  0.67212300  0.83449700  1
  Ag  Ag1  1  0.32787700  0.16393800  0.83449700  1
  Ag  Ag2  1  0.50041200  0.00082400  0.50010400  1
  Ag  Ag3  1  0.83606200  0.16393800  0.83449700  1
  Ag  Ag4  1  0.66666700  0.33333300  0.66742200  1
  Ag  Ag5  1  0.99917600  0.49958800  0.50010400  1
  Ag  Ag6  1  0.16528900  0.33057700  0.16542000  1
  Ag  Ag7  1  0.50041200  0.49958800  0.50010400  1
  Ag  Ag8  1  0.16528900  0.83471100  0.16542000  1
  Ag  Ag9  1  0.33333300  0.66666700  0.33386500  1
  Ag  Ag10  1  0.66942300  0.83471100  0.16542000  1
  Ag  Ag11  1  0.66666700  0.33333300  0.04349700  1
  O  O0  1  0.69042100  0.84521100  0.91920900  1
  O  O1  1  0.00000000  0.00000000  0.75551200  1
  O  O2  1  0.15478900  0.84521100  0.91920900  1
  O  O3  1  0.15478900  0.30957900  0.91920900  1
  O  O4  1  0.50573100  0.01146300  0.75534800  1
  O  O5  1  0.34344300  0.17172100  0.58196900  1
  O  O6  1  0.50573100  0.49426900  0.75534800  1
  O  O7  1  0.66666700  0.33333300  0.90460300  1
  O  O8  1  0.82827900  0.17172100  0.58196900  1
  O  O9  1  0.66666700  0.33333300  0.41733400  1
  O  O10  1  0.98853700  0.49426900  0.75534800  1
  O  O11  1  0.82827900  0.65655700  0.58196900  1
  O  O12  1  0.17247100  0.34494300  0.41836000  1
  O  O13  1  0.01897500  0.50948800  0.24110800  1
  O  O14  1  0.17247100  0.82752900  0.41836000  1
  O  O15  1  0.33333300  0.66666700  0.58041100  1
  O  O16  1  0.33333300  0.66666700  0.08325700  1
  O  O17  1  0.49051200  0.50948800  0.24110800  1
  O  O18  1  0.65505700  0.82752900  0.41836000  1
  O  O19  1  0.49051200  0.98102500  0.24110800  1
  O  O20  1  0.85470800  0.70941700  0.08886400  1
  O  O21  1  0.00000000  0.00000000  0.24990600  1
  O  O22  1  0.85470800  0.14529200  0.08886400  1
  O  O23  1  0.29058300  0.14529200  0.08886400  1
loop_
_geom_bond_atom_site_label_1
_geom_bond_atom_site_label_2
_geom_bond_distance
_geom_bond_site_symmetry_2
Mg0 O16 2.026468 1_556
Mg0 O2 2.047907 1_555
Mg0 O0 2.047907 1_555
Mg0 O3 2.047907 1_555
Mg1 O8 2.017992 1_455
Mg1 O5 2.017997 1_555
Mg1 O11 2.017997 1_445
Mg1 O1 2.024968 1_555
Mg2 O2 2.103515 1_545
Mg2 O3 2.103519 1_555
Mg2 O0 2.103519 1_445
Mg2 O23 2.144152 1_556
Mg2 O20 2.144152 1_446
Mg2 O22 2.144157 1_456
Mg3 O9 2.032978 1_555
Mg3 O19 2.075522 1_545
Mg3 O13 2.075522 1_655
Mg3 O17 2.075532 1_555
Mg4 O15 2.016557 1_555
Mg4 O6 2.035041 1_555
Mg4 O10 2.035041 1_455
Mg4 O4 2.035041 1_565
Mg5 O21 1.977237 1_555
Mg5 O14 2.016023 1_545
Mg5 O18 2.016028 1_445
Mg5 O12 2.016028 1_555
Ag0 O7 2.171628 1_555
Ag0 O1 2.192715 1_665
Ag0 O2 2.203939 1_655
Ag0 O0 2.203948 1_555
Ag0 O10 2.206946 1_555
Ag0 O6 2.206955 1_555
Ag1 O7 2.171628 1_555
Ag1 O1 2.192715 1_555
Ag1 O2 2.203939 1_545
Ag1 O3 2.203948 1_555
Ag1 O4 2.206946 1_555
Ag1 O6 2.206955 1_555
Ag2 O18 2.217852 1_545
Ag2 O14 2.217856 1_545
Ag2 O5 2.218224 1_555
Ag2 O8 2.218229 1_555
Ag2 O15 2.233071 1_545
Ag2 O9 2.246939 1_555
Ag3 O7 2.171628 1_555
Ag3 O1 2.192710 1_655
Ag3 O0 2.203939 1_545
Ag3 O3 2.203939 1_655
Ag3 O4 2.206956 1_555
Ag3 O10 2.206956 1_555
Ag4 O8 2.229082 1_555
Ag4 O11 2.229082 1_555
Ag4 O5 2.229082 1_555
Ag4 O4 2.245966 1_555
Ag4 O10 2.245966 1_555
Ag4 O6 2.245975 1_555
Ag5 O12 2.217852 1_655
Ag5 O14 2.217856 1_655
Ag5 O11 2.218224 1_555
Ag5 O8 2.218229 1_555
Ag5 O15 2.233071 1_655
Ag5 O9 2.246939 1_555
Ag6 O23 2.100946 1_555
Ag6 O22 2.100954 1_455
Ag6 O17 2.154887 1_555
Ag6 O13 2.154896 1_555
Ag6 O21 2.253404 1_555
Ag6 O16 2.258022 1_555
Ag7 O12 2.217856 1_555
Ag7 O18 2.217856 1_555
Ag7 O11 2.218229 1_555
Ag7 O5 2.218229 1_555
Ag7 O15 2.233076 1_555
Ag7 O9 2.246944 1_555
Ag8 O20 2.100955 1_455
Ag8 O23 2.100955 1_565
Ag8 O13 2.154886 1_555
Ag8 O19 2.154886 1_555
Ag8 O21 2.253409 1_565
Ag8 O16 2.258013 1_555
Ag9 O14 2.213603 1_555
Ag9 O18 2.213603 1_555
Ag9 O12 2.213603 1_555
Ag9 O17 2.259558 1_555
Ag9 O13 2.259558 1_555
Ag9 O19 2.259558 1_555
Ag10 O20 2.100946 1_555
Ag10 O22 2.100954 1_565
Ag10 O17 2.154887 1_555
Ag10 O19 2.154896 1_555
Ag10 O21 2.253404 1_665
Ag10 O16 2.258022 1_555
Ag11 O7 2.147566 1_554
Ag11 O22 2.203511 1_555
Ag11 O20 2.203522 1_555
Ag11 O23 2.203522 1_555
