# generated using pymatgen
data_K2Pd
_symmetry_space_group_name_H-M   'P 1'
_cell_length_a   11.33417400
_cell_length_b   11.33417400
_cell_length_c   7.33063200
_cell_angle_alpha   90.00000000
_cell_angle_beta   90.00000000
_cell_angle_gamma   90.00000000
_symmetry_Int_Tables_number   1
_chemical_formula_structural   K2Pd
_chemical_formula_sum   'K16 Pd8'
_cell_volume   941.71864585
_cell_formula_units_Z   8
loop_
 _symmetry_equiv_pos_site_id
 _symmetry_equiv_pos_as_xyz
  1  'x, y, z'
loop_
 _atom_site_type_symbol
 _atom_site_label
 _atom_site_symmetry_multiplicity
 _atom_site_fract_x
 _atom_site_fract_y
 _atom_site_fract_z
 _atom_site_occupancy
  K  K0_0  1  0.00000000  0.25000000  0.25000000  1
  K  K0_1  1  0.00000000  0.25000000  0.75000000  1
  K  K0_2  1  0.00000000  0.75000000  0.25000000  1
  K  K0_3  1  0.00000000  0.75000000  0.75000000  1
  K  K0_4  1  0.50000000  0.25000000  0.25000000  1
  K  K0_5  1  0.50000000  0.25000000  0.75000000  1
  K  K0_6  1  0.50000000  0.75000000  0.25000000  1
  K  K0_7  1  0.50000000  0.75000000  0.75000000  1
  K  K1_0  1  0.25000000  0.00000000  0.25000000  1
  K  K1_1  1  0.25000000  0.00000000  0.75000000  1
  K  K1_2  1  0.25000000  0.50000000  0.25000000  1
  K  K1_3  1  0.25000000  0.50000000  0.75000000  1
  K  K1_4  1  0.75000000  0.00000000  0.25000000  1
  K  K1_5  1  0.75000000  0.00000000  0.75000000  1
  K  K1_6  1  0.75000000  0.50000000  0.25000000  1
  K  K1_7  1  0.75000000  0.50000000  0.75000000  1
  Pd  Pd0_0  1  0.00000000  0.00000000  0.00000000  1
  Pd  Pd0_1  1  0.00000000  0.00000000  0.50000000  1
  Pd  Pd0_2  1  0.00000000  0.50000000  0.00000000  1
  Pd  Pd0_3  1  0.00000000  0.50000000  0.50000000  1
  Pd  Pd0_4  1  0.50000000  0.00000000  0.00000000  1
  Pd  Pd0_5  1  0.50000000  0.00000000  0.50000000  1
  Pd  Pd0_6  1  0.50000000  0.50000000  0.00000000  1
  Pd  Pd0_7  1  0.50000000  0.50000000  0.50000000  1
loop_
_geom_bond_atom_site_label_1
_geom_bond_atom_site_label_2
_geom_bond_distance
_geom_bond_site_symmetry_2
K0_0 Pd0_1 3.374552 1_555
K0_0 Pd0_2 3.374552 1_555
K0_0 Pd0_3 3.374552 1_555
K0_0 Pd0_0 3.374552 1_555
K0_0 K0_1 3.665316 1_555
K0_0 K0_1 3.665316 1_554
K0_0 K1_0 4.007236 1_555
K0_0 K1_2 4.007236 1_555
K0_0 K1_4 4.007236 1_455
K0_0 K1_6 4.007236 1_455
K0_1 Pd0_1 3.374552 1_555
K0_1 Pd0_2 3.374552 1_556
K0_1 Pd0_3 3.374552 1_555
K0_1 Pd0_0 3.374552 1_556
K0_1 K1_1 4.007236 1_555
K0_1 K1_3 4.007236 1_555
K0_1 K1_7 4.007236 1_455
K0_1 K1_5 4.007236 1_455
K0_2 Pd0_2 3.374552 1_555
K0_2 Pd0_3 3.374552 1_555
K0_2 Pd0_1 3.374552 1_565
K0_2 Pd0_0 3.374552 1_565
K0_2 K0_3 3.665316 1_555
K0_2 K0_3 3.665316 1_554
K0_2 K1_2 4.007236 1_555
K0_2 K1_6 4.007236 1_455
K0_2 K1_0 4.007236 1_565
K0_2 K1_4 4.007236 1_465
K0_3 Pd0_2 3.374552 1_556
K0_3 Pd0_3 3.374552 1_555
K0_3 Pd0_0 3.374552 1_566
K0_3 Pd0_1 3.374552 1_565
K0_3 K1_3 4.007236 1_555
K0_3 K1_7 4.007236 1_455
K0_3 K1_1 4.007236 1_565
K0_3 K1_5 4.007236 1_465
K0_4 Pd0_7 3.374552 1_555
K0_4 Pd0_4 3.374552 1_555
K0_4 Pd0_5 3.374552 1_555
K0_4 Pd0_6 3.374552 1_555
K0_4 K0_5 3.665316 1_555
K0_4 K0_5 3.665316 1_554
K0_4 K1_6 4.007236 1_555
K0_4 K1_4 4.007236 1_555
K0_4 K1_0 4.007236 1_555
K0_4 K1_2 4.007236 1_555
K0_5 Pd0_7 3.374552 1_555
K0_5 Pd0_4 3.374552 1_556
K0_5 Pd0_5 3.374552 1_555
K0_5 Pd0_6 3.374552 1_556
K0_5 K1_7 4.007236 1_555
K0_5 K1_5 4.007236 1_555
K0_5 K1_1 4.007236 1_555
K0_5 K1_3 4.007236 1_555
K0_6 Pd0_6 3.374552 1_555
K0_6 Pd0_7 3.374552 1_555
K0_6 Pd0_4 3.374552 1_565
K0_6 Pd0_5 3.374552 1_565
K0_6 K0_7 3.665316 1_554
K0_6 K0_7 3.665316 1_555
K0_6 K1_6 4.007236 1_555
K0_6 K1_2 4.007236 1_555
K0_6 K1_4 4.007236 1_565
K0_6 K1_0 4.007236 1_565
K0_7 Pd0_6 3.374552 1_556
K0_7 Pd0_7 3.374552 1_555
K0_7 Pd0_4 3.374552 1_566
K0_7 Pd0_5 3.374552 1_565
K0_7 K1_7 4.007236 1_555
K0_7 K1_3 4.007236 1_555
K0_7 K1_5 4.007236 1_565
K0_7 K1_1 4.007236 1_565
K1_0 Pd0_4 3.374552 1_555
K1_0 Pd0_1 3.374552 1_555
K1_0 Pd0_5 3.374552 1_555
K1_0 Pd0_0 3.374552 1_555
K1_0 K1_1 3.665316 1_554
K1_0 K1_1 3.665316 1_555
K1_1 Pd0_4 3.374552 1_556
K1_1 Pd0_1 3.374552 1_555
K1_1 Pd0_5 3.374552 1_555
K1_1 Pd0_0 3.374552 1_556
K1_2 Pd0_7 3.374552 1_555
K1_2 Pd0_2 3.374552 1_555
K1_2 Pd0_3 3.374552 1_555
K1_2 Pd0_6 3.374552 1_555
K1_2 K1_3 3.665316 1_554
K1_2 K1_3 3.665316 1_555
K1_3 Pd0_7 3.374552 1_555
K1_3 Pd0_2 3.374552 1_556
K1_3 Pd0_3 3.374552 1_555
K1_3 Pd0_6 3.374552 1_556
K1_4 Pd0_5 3.374552 1_555
K1_4 Pd0_4 3.374552 1_555
K1_4 Pd0_0 3.374552 1_655
K1_4 Pd0_1 3.374552 1_655
K1_4 K1_5 3.665316 1_554
K1_4 K1_5 3.665316 1_555
K1_5 Pd0_5 3.374552 1_555
K1_5 Pd0_4 3.374552 1_556
K1_5 Pd0_0 3.374552 1_656
K1_5 Pd0_1 3.374552 1_655
K1_6 Pd0_6 3.374552 1_555
K1_6 Pd0_7 3.374552 1_555
K1_6 Pd0_2 3.374552 1_655
K1_6 Pd0_3 3.374552 1_655
K1_6 K1_7 3.665316 1_555
K1_6 K1_7 3.665316 1_554
K1_7 Pd0_6 3.374552 1_556
K1_7 Pd0_7 3.374552 1_555
K1_7 Pd0_2 3.374552 1_656
K1_7 Pd0_3 3.374552 1_655
