# generated using pymatgen
data_Li2MgIn
_symmetry_space_group_name_H-M   'P 1'
_cell_length_a   4.69410460
_cell_length_b   4.69410408
_cell_length_c   4.69410400
_cell_angle_alpha   60.00000056
_cell_angle_beta   60.00000420
_cell_angle_gamma   60.00000323
_symmetry_Int_Tables_number   1
_chemical_formula_structural   Li2MgIn
_chemical_formula_sum   'Li2 Mg1 In1'
_cell_volume   73.13802235
_cell_formula_units_Z   1
loop_
 _symmetry_equiv_pos_site_id
 _symmetry_equiv_pos_as_xyz
  1  'x, y, z'
loop_
 _atom_site_type_symbol
 _atom_site_label
 _atom_site_symmetry_multiplicity
 _atom_site_fract_x
 _atom_site_fract_y
 _atom_site_fract_z
 _atom_site_occupancy
  Li  Li0  1  0.75000000  0.75000000  0.75000000  1
  Li  Li1  1  0.25000000  0.25000000  0.25000000  1
  Mg  Mg0  1  0.50000000  0.50000000  0.50000000  1
  In  In0  1  0.00000000  0.00000000  0.00000000  1
loop_
_geom_bond_atom_site_label_1
_geom_bond_atom_site_label_2
_geom_bond_distance
_geom_bond_site_symmetry_2
Li0 Mg0 2.874540 1_555
Li0 Mg0 2.874540 1_556
Li0 Mg0 2.874540 1_565
Li0 Mg0 2.874540 1_655
Li1 Mg0 2.874540 1_555
Li1 Mg0 2.874540 1_554
Li1 Mg0 2.874540 1_545
Li1 Mg0 2.874540 1_455
In0 Li1 2.874540 1_554
In0 Li1 2.874540 1_555
In0 Li0 2.874540 1_444
In0 Li0 2.874540 1_445
In0 Li1 2.874540 1_545
In0 Li0 2.874540 1_454
In0 Li1 2.874540 1_455
In0 Li0 2.874540 1_544
