# generated using pymatgen
data_CsMgFeF6
_symmetry_space_group_name_H-M   'P 1'
_cell_length_a   7.44035156
_cell_length_b   7.44035156
_cell_length_c   7.44035156
_cell_angle_alpha   120.45494093
_cell_angle_beta   119.60935960
_cell_angle_gamma   89.94588454
_symmetry_Int_Tables_number   1
_chemical_formula_structural   CsMgFeF6
_chemical_formula_sum   'Cs2 Mg2 Fe2 F12'
_cell_volume   291.08811175
_cell_formula_units_Z   2
loop_
 _symmetry_equiv_pos_site_id
 _symmetry_equiv_pos_as_xyz
  1  'x, y, z'
loop_
 _atom_site_type_symbol
 _atom_site_label
 _atom_site_symmetry_multiplicity
 _atom_site_fract_x
 _atom_site_fract_y
 _atom_site_fract_z
 _atom_site_occupancy
  Cs  Cs0  1  0.37082900  0.62082900  0.75000000  1
  Cs  Cs1  1  0.62917100  0.37917100  0.25000000  1
  Mg  Mg0  1  0.00000000  0.00000000  0.50000000  1
  Mg  Mg1  1  0.00000000  0.50000000  0.00000000  1
  Fe  Fe0  1  0.00000000  0.00000000  0.00000000  1
  Fe  Fe1  1  0.50000000  0.00000000  0.50000000  1
  F  F0  1  0.31727300  0.06727300  0.25000000  1
  F  F1  1  0.93363200  0.68363200  0.25000000  1
  F  F2  1  0.32191200  0.68906900  0.25570300  1
  F  F3  1  0.93336600  0.06620900  0.24429700  1
  F  F4  1  0.32191200  0.06620900  0.63284300  1
  F  F5  1  0.93336600  0.68906900  0.86715700  1
  F  F6  1  0.68272700  0.93272700  0.75000000  1
  F  F7  1  0.06636800  0.31636800  0.75000000  1
  F  F8  1  0.67808800  0.31093100  0.74429700  1
  F  F9  1  0.06663400  0.93379100  0.75570300  1
  F  F10  1  0.67808800  0.93379100  0.36715700  1
  F  F11  1  0.06663400  0.31093100  0.13284300  1
loop_
_geom_bond_atom_site_label_1
_geom_bond_atom_site_label_2
_geom_bond_distance
_geom_bond_site_symmetry_2
Cs0 F7 3.205126 1_555
Cs0 F11 3.245200 1_555
Cs0 F10 3.245200 1_556
Cs0 F8 3.245200 1_555
Cs0 F9 3.245200 1_555
Cs0 F6 3.283417 1_555
Cs1 F1 3.205126 1_555
Cs1 F5 3.245200 1_555
Cs1 F4 3.245200 1_554
Cs1 F3 3.245200 1_555
Cs1 F2 3.245200 1_555
Cs1 F0 3.283417 1_555
F0 Fe1 2.000602 1_555
F0 Fe0 2.000602 1_555
F1 Mg0 1.974992 1_665
F1 Mg1 1.974992 1_655
F2 Fe1 1.942854 1_565
F2 Mg1 2.031157 1_555
F3 Fe0 1.942854 1_655
F3 Mg0 2.031157 1_655
F4 Fe1 1.942854 1_555
F4 Mg0 2.031157 1_555
F5 Fe0 1.942854 1_666
F5 Mg1 2.031157 1_656
F6 Fe1 2.000602 1_565
F6 Fe0 2.000602 1_666
F7 Mg0 1.974992 1_555
F7 Mg1 1.974992 1_556
F8 Fe1 1.942854 1_555
F8 Mg1 2.031157 1_656
F9 Fe0 1.942854 1_566
F9 Mg0 2.031157 1_565
F10 Fe1 1.942854 1_565
F10 Mg0 2.031157 1_665
F11 Fe0 1.942854 1_555
F11 Mg1 2.031157 1_555
