# generated using pymatgen
data_BaPr2In2O7
_symmetry_space_group_name_H-M   'P 1'
_cell_length_a   5.99061800
_cell_length_b   5.99061800
_cell_length_c   20.84855500
_cell_angle_alpha   90.00000000
_cell_angle_beta   90.00000000
_cell_angle_gamma   90.00000000
_symmetry_Int_Tables_number   1
_chemical_formula_structural   BaPr2In2O7
_chemical_formula_sum   'Ba4 Pr8 In8 O28'
_cell_volume   748.20260141
_cell_formula_units_Z   4
loop_
 _symmetry_equiv_pos_site_id
 _symmetry_equiv_pos_as_xyz
  1  'x, y, z'
loop_
 _atom_site_type_symbol
 _atom_site_label
 _atom_site_symmetry_multiplicity
 _atom_site_fract_x
 _atom_site_fract_y
 _atom_site_fract_z
 _atom_site_occupancy
  Ba  Ba0  1  0.23838400  0.76161600  0.50000000  1
  Ba  Ba1  1  0.76161600  0.23838400  0.50000000  1
  Ba  Ba2  1  0.26161600  0.26161600  0.00000000  1
  Ba  Ba3  1  0.73838400  0.73838400  0.00000000  1
  Pr  Pr0  1  0.22131200  0.77868800  0.31440000  1
  Pr  Pr1  1  0.77868800  0.22131200  0.31440000  1
  Pr  Pr2  1  0.27868800  0.27868800  0.81440000  1
  Pr  Pr3  1  0.72131200  0.72131200  0.81440000  1
  Pr  Pr4  1  0.77868800  0.22131200  0.68560000  1
  Pr  Pr5  1  0.22131200  0.77868800  0.68560000  1
  Pr  Pr6  1  0.72131200  0.72131200  0.18560000  1
  Pr  Pr7  1  0.27868800  0.27868800  0.18560000  1
  In  In0  1  0.24024200  0.75975800  0.10285200  1
  In  In1  1  0.75975800  0.24024200  0.10285200  1
  In  In2  1  0.25975800  0.25975800  0.60285200  1
  In  In3  1  0.74024200  0.74024200  0.60285200  1
  In  In4  1  0.75975800  0.24024200  0.89714800  1
  In  In5  1  0.24024200  0.75975800  0.89714800  1
  In  In6  1  0.74024200  0.74024200  0.39714800  1
  In  In7  1  0.25975800  0.25975800  0.39714800  1
  O  O0  1  0.29761400  0.29761400  0.50000000  1
  O  O1  1  0.70238600  0.70238600  0.50000000  1
  O  O2  1  0.20238600  0.79761400  0.00000000  1
  O  O3  1  0.79761400  0.20238600  0.00000000  1
  O  O4  1  0.31904700  0.68095300  0.21107300  1
  O  O5  1  0.68095300  0.31904700  0.21107300  1
  O  O6  1  0.18095300  0.18095300  0.71107300  1
  O  O7  1  0.81904700  0.81904700  0.71107300  1
  O  O8  1  0.68095300  0.31904700  0.78892700  1
  O  O9  1  0.31904700  0.68095300  0.78892700  1
  O  O10  1  0.81904700  0.81904700  0.28892700  1
  O  O11  1  0.18095300  0.18095300  0.28892700  1
  O  O12  1  0.00000000  0.50000000  0.38237000  1
  O  O13  1  0.50000000  0.00000000  0.88237000  1
  O  O14  1  0.00000000  0.50000000  0.61763000  1
  O  O15  1  0.50000000  0.00000000  0.11763000  1
  O  O16  1  0.50000000  0.00000000  0.38237000  1
  O  O17  1  0.00000000  0.50000000  0.88237000  1
  O  O18  1  0.50000000  0.00000000  0.61763000  1
  O  O19  1  0.00000000  0.50000000  0.11763000  1
  O  O20  1  0.50000000  0.50000000  0.36322300  1
  O  O21  1  0.00000000  0.00000000  0.86322300  1
  O  O22  1  0.50000000  0.50000000  0.63677700  1
  O  O23  1  0.00000000  0.00000000  0.13677700  1
  O  O24  1  0.50000000  0.50000000  0.09115000  1
  O  O25  1  0.00000000  0.00000000  0.59115000  1
  O  O26  1  0.50000000  0.50000000  0.90885000  1
  O  O27  1  0.00000000  0.00000000  0.40885000  1
loop_
_geom_bond_atom_site_label_1
_geom_bond_atom_site_label_2
_geom_bond_distance
_geom_bond_site_symmetry_2
Ba0 O25 2.773097 1_565
Ba0 O27 2.773097 1_565
Ba0 O1 2.802214 1_555
Ba0 O0 2.802214 1_555
Ba0 O1 3.230505 1_455
Ba0 O0 3.230505 1_565
Ba0 O14 3.241908 1_555
Ba0 O12 3.241908 1_555
Ba0 O18 3.241908 1_565
Ba0 O16 3.241908 1_565
Ba1 O25 2.773097 1_655
Ba1 O27 2.773097 1_655
Ba1 O1 2.802214 1_555
Ba1 O0 2.802214 1_555
Ba1 O0 3.230505 1_655
Ba1 O1 3.230505 1_545
Ba1 O16 3.241908 1_555
Ba1 O12 3.241908 1_655
Ba1 O14 3.241908 1_655
Ba1 O18 3.241908 1_555
Ba2 O26 2.773097 1_554
Ba2 O24 2.773097 1_555
Ba2 O3 2.802214 1_455
Ba2 O2 2.802214 1_545
Ba2 O3 3.230505 1_555
Ba2 O2 3.230505 1_555
Ba2 O15 3.241908 1_555
Ba2 O19 3.241908 1_555
Ba2 O13 3.241908 1_554
Ba2 O17 3.241908 1_554
Ba3 O26 2.773097 1_554
Ba3 O24 2.773097 1_555
Ba3 O2 2.802214 1_655
Ba3 O3 2.802214 1_565
Ba3 O3 3.230505 1_555
Ba3 O2 3.230505 1_555
Ba3 O15 3.241908 1_565
Ba3 O19 3.241908 1_655
Ba3 O13 3.241908 1_564
Ba3 O17 3.241908 1_654
In0 O15 2.141891 1_565
In0 O19 2.141891 1_555
In0 O23 2.154724 1_565
In0 O2 2.168167 1_555
In0 O24 2.214155 1_555
In0 O4 2.352958 1_555
In1 O19 2.141891 1_655
In1 O15 2.141891 1_555
In1 O23 2.154724 1_655
In1 O3 2.168167 1_555
In1 O24 2.214155 1_555
In1 O5 2.352958 1_555
In2 O14 2.141891 1_555
In2 O18 2.141891 1_555
In2 O22 2.154724 1_555
In2 O0 2.168167 1_555
In2 O25 2.214155 1_555
In2 O6 2.352958 1_555
In3 O18 2.141891 1_565
In3 O14 2.141891 1_655
In3 O22 2.154724 1_555
In3 O1 2.168167 1_555
In3 O25 2.214155 1_665
In3 O7 2.352958 1_555
In4 O17 2.141891 1_655
In4 O13 2.141891 1_555
In4 O21 2.154724 1_655
In4 O3 2.168167 1_556
In4 O26 2.214155 1_555
In4 O8 2.352958 1_555
In5 O13 2.141891 1_565
In5 O17 2.141891 1_555
In5 O21 2.154724 1_565
In5 O2 2.168167 1_556
In5 O26 2.214155 1_555
In5 O9 2.352958 1_555
In6 O12 2.141891 1_655
In6 O16 2.141891 1_565
In6 O20 2.154724 1_555
In6 O1 2.168167 1_555
In6 O27 2.214155 1_665
In6 O10 2.352958 1_555
In7 O12 2.141891 1_555
In7 O16 2.141891 1_555
In7 O20 2.154724 1_555
In7 O0 2.168167 1_555
In7 O27 2.214155 1_555
In7 O11 2.352958 1_555
O4 Pr0 2.307870 1_555
O4 Pr6 2.479457 1_555
O4 Pr7 2.479457 1_555
O5 Pr1 2.307870 1_555
O5 Pr6 2.479457 1_555
O5 Pr7 2.479457 1_555
O6 Pr2 2.307870 1_555
O6 Pr4 2.479457 1_455
O6 Pr5 2.479457 1_545
O7 Pr3 2.307870 1_555
O7 Pr4 2.479457 1_565
O7 Pr5 2.479457 1_655
O8 Pr4 2.307870 1_555
O8 Pr3 2.479457 1_555
O8 Pr2 2.479457 1_555
O9 Pr5 2.307870 1_555
O9 Pr3 2.479457 1_555
O9 Pr2 2.479457 1_555
O10 Pr6 2.307870 1_555
O10 Pr0 2.479457 1_655
O10 Pr1 2.479457 1_565
O11 Pr7 2.307870 1_555
O11 Pr0 2.479457 1_545
O11 Pr1 2.479457 1_455
O12 Pr1 2.559905 1_455
O12 Pr0 2.559905 1_555
O13 Pr2 2.559905 1_555
O13 Pr3 2.559905 1_545
O14 Pr4 2.559905 1_455
O14 Pr5 2.559905 1_555
O15 Pr7 2.559905 1_555
O15 Pr6 2.559905 1_545
O16 Pr0 2.559905 1_545
O16 Pr1 2.559905 1_555
O17 Pr3 2.559905 1_455
O17 Pr2 2.559905 1_555
O18 Pr5 2.559905 1_545
O18 Pr4 2.559905 1_555
O19 Pr6 2.559905 1_455
O19 Pr7 2.559905 1_555
O20 Pr0 2.571118 1_555
O20 Pr1 2.571118 1_555
O21 Pr2 2.571118 1_555
O21 Pr3 2.571118 1_445
O22 Pr5 2.571118 1_555
O22 Pr4 2.571118 1_555
O23 Pr7 2.571118 1_555
O23 Pr6 2.571118 1_445
O24 Pr6 2.719008 1_555
O24 Pr7 2.719008 1_555
O25 Pr4 2.719008 1_455
O25 Pr5 2.719008 1_545
O26 Pr3 2.719008 1_555
O26 Pr2 2.719008 1_555
O27 Pr1 2.719008 1_455
O27 Pr0 2.719008 1_545
