# generated using pymatgen
data_Er8Ni18P11
_symmetry_space_group_name_H-M   'P 1'
_cell_length_a   17.88673757
_cell_length_b   17.88673757
_cell_length_c   3.77966400
_cell_angle_alpha   90.00000000
_cell_angle_beta   90.00000000
_cell_angle_gamma   119.99999840
_symmetry_Int_Tables_number   1
_chemical_formula_structural   Er8Ni18P11
_chemical_formula_sum   'Er16 Ni36 P22'
_cell_volume   1047.23971325
_cell_formula_units_Z   2
loop_
 _symmetry_equiv_pos_site_id
 _symmetry_equiv_pos_as_xyz
  1  'x, y, z'
loop_
 _atom_site_type_symbol
 _atom_site_label
 _atom_site_symmetry_multiplicity
 _atom_site_fract_x
 _atom_site_fract_y
 _atom_site_fract_z
 _atom_site_occupancy
  Er  Er0  1  0.95038100  0.47519000  0.50000000  1
  Er  Er1  1  0.52481000  0.47519000  0.50000000  1
  Er  Er2  1  0.52481000  0.04961900  0.50000000  1
  Er  Er3  1  0.52220000  0.26110000  0.50000000  1
  Er  Er4  1  0.73890000  0.26110000  0.50000000  1
  Er  Er5  1  0.73890000  0.47780000  0.50000000  1
  Er  Er6  1  0.56018900  0.78009500  0.00000000  1
  Er  Er7  1  0.21990500  0.78009500  0.00000000  1
  Er  Er8  1  0.21990500  0.43981100  0.00000000  1
  Er  Er9  1  0.78475100  0.00166500  0.00000000  1
  Er  Er10  1  0.99833500  0.78308600  0.00000000  1
  Er  Er11  1  0.78475100  0.78308600  0.00000000  1
  Er  Er12  1  0.21691400  0.21524900  0.00000000  1
  Er  Er13  1  0.99833500  0.21524900  0.00000000  1
  Er  Er14  1  0.21691400  0.00166500  0.00000000  1
  Er  Er15  1  0.00000000  0.00000000  0.00000000  1
  Ni  Ni0  1  0.42297900  0.71149000  0.50000000  1
  Ni  Ni1  1  0.28851000  0.71149000  0.50000000  1
  Ni  Ni2  1  0.28851000  0.57702100  0.50000000  1
  Ni  Ni3  1  0.70690700  0.07672400  0.50000000  1
  Ni  Ni4  1  0.92327600  0.63018400  0.50000000  1
  Ni  Ni5  1  0.70690700  0.63018400  0.50000000  1
  Ni  Ni6  1  0.36981600  0.29309300  0.50000000  1
  Ni  Ni7  1  0.92327600  0.29309300  0.50000000  1
  Ni  Ni8  1  0.36981600  0.07672400  0.50000000  1
  Ni  Ni9  1  0.37200200  0.39782600  0.00000000  1
  Ni  Ni10  1  0.60217400  0.97417600  0.00000000  1
  Ni  Ni11  1  0.37200200  0.97417600  0.00000000  1
  Ni  Ni12  1  0.02582400  0.62799800  0.00000000  1
  Ni  Ni13  1  0.60217400  0.62799800  0.00000000  1
  Ni  Ni14  1  0.02582400  0.39782600  0.00000000  1
  Ni  Ni15  1  0.36987800  0.18493900  0.00000000  1
  Ni  Ni16  1  0.81506100  0.18493900  0.00000000  1
  Ni  Ni17  1  0.81506100  0.63012200  0.00000000  1
  Ni  Ni18  1  0.80900900  0.40450500  0.00000000  1
  Ni  Ni19  1  0.59549500  0.40450500  0.00000000  1
  Ni  Ni20  1  0.59549500  0.19099100  0.00000000  1
  Ni  Ni21  1  0.14478700  0.07239400  0.50000000  1
  Ni  Ni22  1  0.92760600  0.07239400  0.50000000  1
  Ni  Ni23  1  0.92760600  0.85521300  0.50000000  1
  Ni  Ni24  1  0.36828000  0.49606300  0.50000000  1
  Ni  Ni25  1  0.50393700  0.87221700  0.50000000  1
  Ni  Ni26  1  0.36828000  0.87221700  0.50000000  1
  Ni  Ni27  1  0.12778300  0.63172000  0.50000000  1
  Ni  Ni28  1  0.50393700  0.63172000  0.50000000  1
  Ni  Ni29  1  0.12778300  0.49606300  0.50000000  1
  Ni  Ni30  1  0.22741000  0.61370500  0.00000000  1
  Ni  Ni31  1  0.38629500  0.61370500  0.00000000  1
  Ni  Ni32  1  0.38629500  0.77259000  0.00000000  1
  Ni  Ni33  1  0.71265900  0.85632900  0.50000000  1
  Ni  Ni34  1  0.14367100  0.85632900  0.50000000  1
  Ni  Ni35  1  0.14367100  0.28734100  0.50000000  1
  P  P0  1  0.66666700  0.33333300  0.00000000  1
  P  P1  1  0.28753500  0.14376800  0.50000000  1
  P  P2  1  0.85623200  0.14376800  0.50000000  1
  P  P3  1  0.85623200  0.71246500  0.50000000  1
  P  P4  1  0.66774100  0.12163200  0.00000000  1
  P  P5  1  0.87836800  0.54610900  0.00000000  1
  P  P6  1  0.66774100  0.54610900  0.00000000  1
  P  P7  1  0.45389100  0.33225900  0.00000000  1
  P  P8  1  0.87836800  0.33225900  0.00000000  1
  P  P9  1  0.45389100  0.12163200  0.00000000  1
  P  P10  1  0.08746500  0.54373200  0.00000000  1
  P  P11  1  0.45626800  0.54373200  0.00000000  1
  P  P12  1  0.45626800  0.91253500  0.00000000  1
  P  P13  1  0.28391700  0.35517700  0.50000000  1
  P  P14  1  0.64482300  0.92874000  0.50000000  1
  P  P15  1  0.28391700  0.92874000  0.50000000  1
  P  P16  1  0.07126000  0.71608300  0.50000000  1
  P  P17  1  0.64482300  0.71608300  0.50000000  1
  P  P18  1  0.07126000  0.35517700  0.50000000  1
  P  P19  1  0.85724000  0.92862000  0.50000000  1
  P  P20  1  0.07138000  0.92862000  0.50000000  1
  P  P21  1  0.07138000  0.14276000  0.50000000  1
loop_
_geom_bond_atom_site_label_1
_geom_bond_atom_site_label_2
_geom_bond_distance
_geom_bond_site_symmetry_2
Er0 P10 2.842647 1_656
Er0 P10 2.842647 1_655
Er0 Ni18 2.892602 1_555
Er0 Ni18 2.892602 1_556
Er0 P8 2.910944 1_555
Er0 P8 2.910944 1_556
Er0 P5 2.910956 1_555
Er0 P5 2.910956 1_556
Er0 Ni29 3.003920 1_655
Er0 Ni27 3.003927 1_655
Er0 Ni14 3.028964 1_655
Er0 Ni14 3.028964 1_656
Er0 Ni12 3.028976 1_655
Er0 Ni12 3.028976 1_656
Er0 Ni7 3.043809 1_555
Er0 Ni4 3.043844 1_555
Er1 P11 2.842647 1_555
Er1 P11 2.842647 1_556
Er1 Ni19 2.892579 1_555
Er1 Ni19 2.892579 1_556
Er1 P6 2.910944 1_555
Er1 P6 2.910944 1_556
Er1 P7 2.910944 1_556
Er1 P7 2.910944 1_555
Er1 Ni24 3.003938 1_555
Er1 Ni28 3.003938 1_555
Er1 Ni13 3.028976 1_555
Er1 Ni13 3.028976 1_556
Er1 Ni9 3.028976 1_555
Er1 Ni9 3.028976 1_556
Er1 Ni5 3.043822 1_555
Er1 Ni6 3.043822 1_555
Er2 P12 2.842647 1_546
Er2 P12 2.842647 1_545
Er2 Ni20 2.892602 1_555
Er2 Ni20 2.892602 1_556
Er2 P4 2.910944 1_555
Er2 P4 2.910944 1_556
Er2 P9 2.910956 1_555
Er2 P9 2.910956 1_556
Er2 Ni25 3.003920 1_545
Er2 Ni26 3.003927 1_545
Er2 Ni10 3.028964 1_545
Er2 Ni10 3.028964 1_546
Er2 Ni11 3.028976 1_546
Er2 Ni11 3.028976 1_545
Er2 Ni3 3.043809 1_555
Er2 Ni8 3.043844 1_555
Er3 P7 2.870451 1_556
Er3 P7 2.870451 1_555
Er3 P9 2.870451 1_555
Er3 P9 2.870451 1_556
Er3 Ni20 2.916644 1_555
Er3 Ni20 2.916644 1_556
Er3 Ni19 2.916655 1_556
Er3 Ni19 2.916655 1_555
Er3 P0 2.929066 1_555
Er3 P0 2.929066 1_556
Er3 Ni15 3.023048 1_556
Er3 Ni15 3.023048 1_555
Er3 Ni8 3.052268 1_555
Er3 Ni6 3.052279 1_555
Er4 P8 2.870451 1_555
Er4 P8 2.870451 1_556
Er4 P4 2.870451 1_555
Er4 P4 2.870451 1_556
Er4 Ni20 2.916656 1_556
Er4 Ni18 2.916656 1_556
Er4 Ni18 2.916656 1_555
Er4 Ni20 2.916656 1_555
Er4 P0 2.929054 1_555
Er4 P0 2.929054 1_556
Er4 Ni16 3.023048 1_555
Er4 Ni16 3.023048 1_556
Er4 Ni3 3.052262 1_555
Er4 Ni7 3.052262 1_555
Er5 P6 2.870451 1_555
Er5 P6 2.870451 1_556
Er5 P5 2.870451 1_555
Er5 P5 2.870451 1_556
Er5 Ni18 2.916644 1_555
Er5 Ni18 2.916644 1_556
Er5 Ni19 2.916655 1_556
Er5 Ni19 2.916655 1_555
Er5 P0 2.929066 1_555
Er5 P0 2.929066 1_556
Er5 Ni17 3.023048 1_556
Er5 Ni17 3.023048 1_555
Er5 Ni4 3.052268 1_555
Er5 Ni5 3.052279 1_555
Er6 Ni0 2.844105 1_554
Er6 Ni0 2.844105 1_555
Er6 P14 2.984509 1_555
Er6 P14 2.984509 1_554
Er6 P17 2.984520 1_554
Er6 P17 2.984520 1_555
Er6 Ni25 2.992803 1_555
Er6 Ni25 2.992803 1_554
Er6 Ni28 2.992816 1_555
Er6 Ni28 2.992816 1_554
Er6 Ni33 3.024838 1_554
Er6 Ni33 3.024838 1_555
Er6 Ni32 3.045496 1_555
Er6 Ni31 3.045504 1_555
Er6 Ni10 3.163561 1_555
Er6 Ni13 3.163578 1_555
Er7 Ni1 2.844105 1_554
Er7 Ni1 2.844105 1_555
Er7 P16 2.984508 1_555
Er7 P16 2.984508 1_554
Er7 P15 2.984508 1_554
Er7 P15 2.984508 1_555
Er7 Ni26 2.992814 1_554
Er7 Ni26 2.992814 1_555
Er7 Ni27 2.992814 1_554
Er7 Ni27 2.992814 1_555
Er7 Ni34 3.024813 1_555
Er7 Ni34 3.024813 1_554
Er7 Ni32 3.045514 1_555
Er7 Ni30 3.045514 1_555
Er7 Ni11 3.163567 1_555
Er7 Ni12 3.163567 1_555
Er8 Ni2 2.844105 1_554
Er8 Ni2 2.844105 1_555
Er8 P18 2.984509 1_554
Er8 P18 2.984509 1_555
Er8 P13 2.984520 1_554
Er8 P13 2.984520 1_555
Er8 Ni29 2.992803 1_555
Er8 Ni29 2.992803 1_554
Er8 Ni24 2.992816 1_554
Er8 Ni24 2.992816 1_555
Er8 Ni35 3.024838 1_555
Er8 Ni35 3.024838 1_554
Er8 Ni30 3.045496 1_555
Er8 Ni31 3.045504 1_555
Er8 Ni14 3.163561 1_555
Er8 Ni9 3.163578 1_555
Er9 P14 2.876193 1_545
Er9 P14 2.876193 1_544
Er9 P2 2.901194 1_555
Er9 P2 2.901194 1_554
Er9 Ni22 2.910059 1_554
Er9 Ni22 2.910059 1_555
Er9 Ni33 2.939381 1_544
Er9 Ni33 2.939381 1_545
Er9 P19 2.941717 1_545
Er9 P19 2.941717 1_544
Er9 Ni3 3.030180 1_555
Er9 Ni3 3.030180 1_554
Er9 Ni16 3.043533 1_555
Er9 Ni10 3.049736 1_545
Er10 P16 2.876193 1_654
Er10 P16 2.876193 1_655
Er10 P3 2.901194 1_555
Er10 P3 2.901194 1_554
Er10 Ni23 2.910071 1_554
Er10 Ni23 2.910071 1_555
Er10 Ni34 2.939381 1_655
Er10 Ni34 2.939381 1_654
Er10 P20 2.941717 1_655
Er10 P20 2.941717 1_654
Er10 Ni4 3.030168 1_554
Er10 Ni4 3.030168 1_555
Er10 Ni17 3.043533 1_555
Er10 Ni12 3.049736 1_655
Er11 P17 2.876193 1_555
Er11 P17 2.876193 1_554
Er11 P3 2.901183 1_554
Er11 P3 2.901183 1_555
Er11 Ni23 2.910059 1_555
Er11 Ni23 2.910059 1_554
Er11 Ni33 2.939369 1_554
Er11 Ni33 2.939369 1_555
Er11 P19 2.941717 1_555
Er11 P19 2.941717 1_554
Er11 Ni5 3.030168 1_554
Er11 Ni5 3.030168 1_555
Er11 Ni17 3.043533 1_555
Er11 Ni13 3.049736 1_555
Er12 P13 2.876193 1_555
Er12 P13 2.876193 1_554
Er12 P1 2.901183 1_554
Er12 P1 2.901183 1_555
Er12 Ni21 2.910059 1_555
Er12 Ni21 2.910059 1_554
Er12 Ni35 2.939369 1_554
Er12 Ni35 2.939369 1_555
Er12 P21 2.941717 1_554
Er12 P21 2.941717 1_555
Er12 Ni6 3.030168 1_554
Er12 Ni6 3.030168 1_555
Er12 Ni15 3.043533 1_555
Er12 Ni9 3.049736 1_555
Er13 P18 2.876193 1_655
Er13 P18 2.876193 1_654
Er13 P2 2.901194 1_555
Er13 P2 2.901194 1_554
Er13 Ni22 2.910059 1_555
Er13 Ni22 2.910059 1_554
Er13 Ni35 2.939381 1_654
Er13 Ni35 2.939381 1_655
Er13 P21 2.941717 1_655
Er13 P21 2.941717 1_654
Er13 Ni7 3.030180 1_554
Er13 Ni7 3.030180 1_555
Er13 Ni16 3.043533 1_555
Er13 Ni14 3.049736 1_655
Er14 P15 2.876193 1_544
Er14 P15 2.876193 1_545
Er14 P1 2.901194 1_554
Er14 P1 2.901194 1_555
Er14 Ni21 2.910071 1_554
Er14 Ni21 2.910071 1_555
Er14 Ni34 2.939381 1_544
Er14 Ni34 2.939381 1_545
Er14 P20 2.941717 1_544
Er14 P20 2.941717 1_545
Er14 Ni8 3.030168 1_555
Er14 Ni8 3.030168 1_554
Er14 Ni15 3.043533 1_555
Er14 Ni11 3.049736 1_545
Er15 P20 2.908913 1_545
Er15 P20 2.908913 1_544
Er15 P19 2.908913 1_445
Er15 P19 2.908913 1_444
Er15 P21 2.908913 1_555
Er15 P21 2.908913 1_554
Er15 Ni23 2.932854 1_444
Er15 Ni23 2.932854 1_445
Er15 Ni21 2.932854 1_554
Er15 Ni21 2.932854 1_555
Er15 Ni22 2.932866 1_455
Er15 Ni22 2.932866 1_454
Ni0 Ni1 2.405212 1_555
Ni0 Ni2 2.405212 1_555
Ni0 Ni32 2.431768 1_556
Ni0 Ni32 2.431768 1_555
Ni0 Ni31 2.431778 1_556
Ni0 Ni31 2.431778 1_555
Ni0 Ni25 2.489743 1_555
Ni0 Ni28 2.489759 1_555
Ni1 Ni2 2.405212 1_555
Ni1 Ni32 2.431776 1_556
Ni1 Ni32 2.431776 1_555
Ni1 Ni30 2.431776 1_555
Ni1 Ni30 2.431776 1_556
Ni1 Ni26 2.489743 1_555
Ni1 Ni27 2.489743 1_555
Ni2 Ni30 2.431768 1_555
Ni2 Ni30 2.431768 1_556
Ni2 Ni31 2.431778 1_555
Ni2 Ni31 2.431778 1_556
Ni2 Ni29 2.489743 1_555
Ni2 Ni24 2.489759 1_555
Ni3 P4 2.295688 1_555
Ni3 P4 2.295688 1_556
Ni3 P14 2.302201 1_545
Ni3 P2 2.317110 1_555
Ni4 P5 2.295697 1_555
Ni4 P5 2.295697 1_556
Ni4 P16 2.302199 1_655
Ni4 P3 2.317110 1_555
Ni5 P6 2.295697 1_556
Ni5 P6 2.295697 1_555
Ni5 P17 2.302185 1_555
Ni5 P3 2.317110 1_555
Ni6 P7 2.295697 1_555
Ni6 P7 2.295697 1_556
Ni6 P13 2.302185 1_555
Ni6 P1 2.317110 1_555
Ni7 P8 2.295688 1_555
Ni7 P8 2.295688 1_556
Ni7 P18 2.302201 1_655
Ni7 P2 2.317110 1_555
Ni8 P9 2.295697 1_556
Ni8 P9 2.295697 1_555
Ni8 P15 2.302199 1_545
Ni8 P1 2.317110 1_555
Ni9 P11 2.269178 1_555
Ni9 P7 2.288807 1_555
Ni9 P13 2.331065 1_555
Ni9 P13 2.331065 1_554
Ni10 P12 2.269177 1_555
Ni10 P4 2.288808 1_565
Ni10 P14 2.331065 1_554
Ni10 P14 2.331065 1_555
Ni11 P12 2.269193 1_555
Ni11 P9 2.288808 1_565
Ni11 P15 2.331065 1_554
Ni11 P15 2.331065 1_555
Ni12 P10 2.269193 1_555
Ni12 P5 2.288808 1_455
Ni12 P16 2.331065 1_555
Ni12 P16 2.331065 1_554
Ni13 P11 2.269178 1_555
Ni13 P6 2.288807 1_555
Ni13 P17 2.331065 1_554
Ni13 P17 2.331065 1_555
Ni14 P10 2.269177 1_555
Ni14 P8 2.288808 1_455
Ni14 P18 2.331065 1_555
Ni14 P18 2.331065 1_554
Ni15 P1 2.280006 1_555
Ni15 P1 2.280006 1_554
Ni15 P9 2.289542 1_555
Ni15 P7 2.289542 1_555
Ni16 P2 2.279997 1_555
Ni16 P2 2.279997 1_554
Ni16 P8 2.289542 1_555
Ni16 P4 2.289542 1_555
Ni17 P3 2.280006 1_554
Ni17 P3 2.280006 1_555
Ni17 P5 2.289542 1_555
Ni17 P6 2.289542 1_555
Ni18 P5 2.193650 1_555
Ni18 P8 2.193666 1_555
Ni18 P0 2.204930 1_555
Ni19 P6 2.193650 1_555
Ni19 P7 2.193650 1_555
Ni19 P0 2.204961 1_555
Ni20 P9 2.193650 1_555
Ni20 P4 2.193666 1_555
Ni20 P0 2.204930 1_555
Ni21 P1 2.211219 1_555
Ni21 P21 2.227263 1_555
Ni21 P20 2.227278 1_545
Ni22 P2 2.211219 1_555
Ni22 P19 2.227279 1_545
Ni22 P21 2.227279 1_655
Ni23 P3 2.211219 1_555
Ni23 P19 2.227263 1_555
Ni23 P20 2.227278 1_655
Ni24 P13 2.196533 1_555
Ni24 P11 2.330979 1_556
Ni24 P11 2.330979 1_555
Ni25 P14 2.196533 1_555
Ni25 P12 2.330970 1_555
Ni25 P12 2.330970 1_556
Ni26 P15 2.196533 1_555
Ni26 P12 2.330980 1_555
Ni26 P12 2.330980 1_556
Ni27 P16 2.196533 1_555
Ni27 P10 2.330980 1_556
Ni27 P10 2.330980 1_555
Ni28 P17 2.196533 1_555
Ni28 P11 2.330979 1_556
Ni28 P11 2.330979 1_555
Ni29 P18 2.196533 1_555
Ni29 P10 2.330970 1_555
Ni29 P10 2.330970 1_556
Ni30 P10 2.167800 1_555
Ni31 P11 2.167815 1_555
Ni32 P12 2.167800 1_555
Ni33 P17 2.172847 1_555
Ni33 P14 2.172863 1_555
Ni33 P19 2.239613 1_555
Ni34 P15 2.172848 1_555
Ni34 P16 2.172848 1_555
Ni34 P20 2.239629 1_555
Ni35 P13 2.172847 1_555
Ni35 P18 2.172863 1_555
Ni35 P21 2.239613 1_555
