# generated using pymatgen
data_Ba10MgMn6(O12F)2
_symmetry_space_group_name_H-M   'P 1'
_cell_length_a   8.18448380
_cell_length_b   10.49335718
_cell_length_c   10.62457574
_cell_angle_alpha   120.69574771
_cell_angle_beta   92.11077913
_cell_angle_gamma   89.74287865
_symmetry_Int_Tables_number   1
_chemical_formula_structural   Ba10MgMn6(O12F)2
_chemical_formula_sum   'Ba10 Mg1 Mn6 O24 F2'
_cell_volume   783.98054546
_cell_formula_units_Z   1
loop_
 _symmetry_equiv_pos_site_id
 _symmetry_equiv_pos_as_xyz
  1  'x, y, z'
loop_
 _atom_site_type_symbol
 _atom_site_label
 _atom_site_symmetry_multiplicity
 _atom_site_fract_x
 _atom_site_fract_y
 _atom_site_fract_z
 _atom_site_occupancy
  Ba  Ba0  1  0.49117520  0.66767537  0.32782481  1
  Ba  Ba1  1  0.01698238  0.33717728  0.67486679  1
  Ba  Ba2  1  0.51141987  0.34680760  0.68208804  1
  Ba  Ba3  1  0.97331792  0.67853868  0.34903959  1
  Ba  Ba4  1  0.83061721  0.23763158  0.97886899  1
  Ba  Ba5  1  0.74015866  0.01876935  0.25280186  1
  Ba  Ba6  1  0.76199489  0.73625675  0.74223018  1
  Ba  Ba7  1  0.25156518  0.77304659  0.01151958  1
  Ba  Ba8  1  0.26074149  0.98371252  0.73015556  1
  Ba  Ba9  1  0.17006241  0.23852861  0.25989814  1
  Mg  Mg0  1  0.46341981  0.23009796  0.07547002  1
  Mn  Mn0  1  0.74824423  0.97689865  0.60682402  1
  Mn  Mn1  1  0.74932560  0.39280046  0.36071853  1
  Mn  Mn2  1  0.75197854  0.63576056  0.03133142  1
  Mn  Mn3  1  0.23917437  0.01657341  0.39733806  1
  Mn  Mn4  1  0.25651759  0.60562106  0.63230301  1
  Mn  Mn5  1  0.28273692  0.36914252  0.96607335  1
  O  O0  1  0.76131568  0.16522868  0.68362242  1
  O  O1  1  0.75805057  0.32049103  0.47875379  1
  O  O2  1  0.76361541  0.52936174  0.84283674  1
  O  O3  1  0.23209463  0.82847137  0.32912705  1
  O  O4  1  0.25163799  0.67641771  0.51766133  1
  O  O5  1  0.31751899  0.40433886  0.15573204  1
  O  O6  1  0.72638765  0.88438779  0.41874646  1
  O  O7  1  0.71300190  0.58967589  0.46166783  1
  O  O8  1  0.74404092  0.53049475  0.11399262  1
  O  O9  1  0.29123181  0.11791229  0.58097870  1
  O  O10  1  0.25978247  0.41425140  0.54187251  1
  O  O11  1  0.26549594  0.48479714  0.88811617  1
  O  O12  1  0.59324892  0.92471260  0.67664257  1
  O  O13  1  0.64350570  0.23250030  0.19208308  1
  O  O14  1  0.58232465  0.74695032  0.08070300  1
  O  O15  1  0.05423021  0.08602958  0.37881443  1
  O  O16  1  0.08781895  0.66307123  0.74021487  1
  O  O17  1  0.10457972  0.25545178  0.87975851  1
  O  O18  1  0.37443993  0.04880528  0.29776850  1
  O  O19  1  0.42280523  0.67394809  0.75281196  1
  O  O20  1  0.45781569  0.24845221  0.89945895  1
  O  O21  1  0.92424212  0.91167702  0.64941071  1
  O  O22  1  0.93045644  0.39707625  0.27526498  1
  O  O23  1  0.92002694  0.75034708  0.10379694  1
  F  F0  1  0.33512045  0.05050301  0.00861076  1
  F  F1  1  0.94411181  0.03210864  0.04095112  1
loop_
_geom_bond_atom_site_label_1
_geom_bond_atom_site_label_2
_geom_bond_distance
_geom_bond_site_symmetry_2
Ba0 O7 2.640645 1_555
Ba0 O3 2.699930 1_555
Ba0 O6 2.733119 1_555
Ba0 O5 2.772074 1_555
Ba0 O4 2.832085 1_555
Ba0 O8 2.915034 1_555
Ba0 O14 3.243739 1_555
Ba0 O12 3.360692 1_555
Ba1 O17 2.788147 1_555
Ba1 O11 2.788447 1_555
Ba1 O0 2.803991 1_455
Ba1 O10 2.826242 1_555
Ba1 O2 2.848260 1_455
Ba1 O1 2.858113 1_455
Ba1 O15 2.920992 1_555
Ba1 O9 3.017017 1_555
Ba1 O16 3.174390 1_555
Ba2 O2 2.698609 1_555
Ba2 O9 2.726288 1_555
Ba2 O10 2.792685 1_555
Ba2 O0 2.794300 1_555
Ba2 O11 2.828744 1_555
Ba2 O1 2.919760 1_555
Ba2 O20 3.017208 1_555
Ba2 O19 3.202975 1_555
Ba3 O22 2.661960 1_555
Ba3 O3 2.721854 1_655
Ba3 O6 2.781463 1_555
Ba3 O8 2.809123 1_555
Ba3 O4 2.852820 1_655
Ba3 O7 2.861032 1_555
Ba3 O21 2.906106 1_555
Ba3 O23 3.076523 1_555
Ba4 O17 2.559328 1_655
Ba4 F1 2.708902 1_556
Ba4 O8 2.749226 1_556
Ba4 O22 2.797723 1_556
Ba4 O13 2.803670 1_556
Ba4 O0 2.859808 1_555
Ba4 O20 3.152702 1_555
Ba5 O13 2.737795 1_555
Ba5 O6 2.768383 1_545
Ba5 O14 2.771651 1_545
Ba5 O15 2.774199 1_655
Ba5 O1 2.833180 1_555
Ba5 O23 2.861619 1_545
Ba5 F1 2.910795 1_555
Ba5 O18 3.038105 1_555
Ba6 O7 2.578485 1_555
Ba6 O12 2.759559 1_555
Ba6 O16 2.769577 1_655
Ba6 O21 2.845339 1_555
Ba6 O2 2.867754 1_555
Ba6 O19 2.874221 1_555
Ba6 F1 3.400881 1_566
Ba7 O11 2.615326 1_554
Ba7 O16 2.787432 1_554
Ba7 O19 2.820146 1_554
Ba7 O14 2.827705 1_555
Ba7 O23 2.970024 1_455
Ba7 F0 3.009392 1_565
Ba7 O18 3.074065 1_565
Ba7 O3 3.128197 1_555
Ba8 O9 2.620753 1_565
Ba8 F0 2.714509 1_566
Ba8 O17 2.789339 1_565
Ba8 O12 2.802152 1_555
Ba8 O4 2.838587 1_555
Ba8 O21 2.841626 1_455
Ba8 O20 2.877375 1_565
Ba9 O22 2.521359 1_455
Ba9 O10 2.669199 1_555
Ba9 O15 2.687332 1_555
Ba9 O18 2.767972 1_555
Ba9 F0 2.776594 1_555
Ba9 O5 2.791377 1_555
Ba9 F1 2.845640 1_455
Mg0 O13 1.882022 1_555
Mg0 O20 1.974228 1_554
Mg0 O5 1.989887 1_555
Mn0 O0 1.712257 1_565
Mn0 O12 1.717452 1_555
Mn0 O6 1.721079 1_555
Mn0 O21 1.734162 1_555
Mn1 O1 1.765770 1_555
Mn1 O22 1.779139 1_555
Mn1 O7 1.806210 1_555
Mn1 O13 1.900388 1_555
Mn2 O23 1.709362 1_555
Mn2 O14 1.725904 1_555
Mn2 O8 1.729429 1_555
Mn2 O2 1.731068 1_554
Mn3 O18 1.707063 1_555
Mn3 O9 1.715720 1_555
Mn3 O3 1.721057 1_545
Mn3 O15 1.725029 1_555
Mn4 O19 1.717208 1_555
Mn4 O4 1.719602 1_555
Mn4 O16 1.728517 1_555
Mn4 O10 1.728566 1_555
Mn5 O17 1.786197 1_555
Mn5 O11 1.787420 1_555
Mn5 O20 1.816972 1_555
Mn5 O5 1.864596 1_556
F0 Mg0 1.937741 1_555
