# generated using pymatgen
data_LiOsO3
_symmetry_space_group_name_H-M   'P 1'
_cell_length_a   5.31932987
_cell_length_b   5.31932987
_cell_length_c   5.31932971
_cell_angle_alpha   56.77908426
_cell_angle_beta   56.77908419
_cell_angle_gamma   56.77908807
_symmetry_Int_Tables_number   1
_chemical_formula_structural   LiOsO3
_chemical_formula_sum   'Li2 Os2 O6'
_cell_volume   98.51533001
_cell_formula_units_Z   2
loop_
 _symmetry_equiv_pos_site_id
 _symmetry_equiv_pos_as_xyz
  1  'x, y, z'
loop_
 _atom_site_type_symbol
 _atom_site_label
 _atom_site_symmetry_multiplicity
 _atom_site_fract_x
 _atom_site_fract_y
 _atom_site_fract_z
 _atom_site_occupancy
  Li  Li0  1  0.71484208  0.71484208  0.71484208  1
  Li  Li1  1  0.21484134  0.21484134  0.21484134  1
  Os  Os0  1  0.49940233  0.49940233  0.49940233  1
  Os  Os1  1  0.99940677  0.99940677  0.99940677  1
  O  O0  1  0.38209249  0.11837091  0.75749014  1
  O  O1  1  0.75749014  0.38209249  0.11837091  1
  O  O2  1  0.11837091  0.75749014  0.38209249  1
  O  O3  1  0.25748982  0.61836661  0.88209951  1
  O  O4  1  0.88209951  0.25748982  0.61836661  1
  O  O5  1  0.61836661  0.88209951  0.25748982  1
loop_
_geom_bond_atom_site_label_1
_geom_bond_atom_site_label_2
_geom_bond_distance
_geom_bond_site_symmetry_2
Li0 O1 1.929349 1_556
Li0 O2 1.929349 1_655
Li0 O0 1.929349 1_565
Li0 O5 2.338697 1_555
Li0 O3 2.338697 1_555
Li0 O4 2.338697 1_555
Li1 O4 1.929327 1_455
Li1 O3 1.929327 1_554
Li1 O5 1.929327 1_545
Li1 O0 2.338687 1_554
Li1 O2 2.338687 1_545
Li1 O1 2.338687 1_455
O0 Os0 1.944321 1_555
O0 Os1 1.961910 1_445
O1 Os0 1.944321 1_555
O1 Os1 1.961910 1_544
O2 Os0 1.944321 1_555
O2 Os1 1.961910 1_454
O3 Os1 1.944354 1_455
O3 Os0 1.961964 1_555
O4 Os1 1.944354 1_545
O4 Os0 1.961965 1_555
O5 Os1 1.944354 1_554
O5 Os0 1.961964 1_555
