# generated using pymatgen
data_CsFe5(MoO4)7
_symmetry_space_group_name_H-M   'P 1'
_cell_length_a   21.83487600
_cell_length_b   7.06069200
_cell_length_c   8.82019680
_cell_angle_alpha   78.06672172
_cell_angle_beta   90.00000000
_cell_angle_gamma   90.00000000
_symmetry_Int_Tables_number   1
_chemical_formula_structural   CsFe5(MoO4)7
_chemical_formula_sum   'Cs2 Fe10 Mo14 O56'
_cell_volume   1330.41722052
_cell_formula_units_Z   2
loop_
 _symmetry_equiv_pos_site_id
 _symmetry_equiv_pos_as_xyz
  1  'x, y, z'
loop_
 _atom_site_type_symbol
 _atom_site_label
 _atom_site_symmetry_multiplicity
 _atom_site_fract_x
 _atom_site_fract_y
 _atom_site_fract_z
 _atom_site_occupancy
  Cs  Cs0  1  0.25000000  0.49481900  0.03125000  1
  Cs  Cs1  1  0.75000000  0.50518100  0.96875000  1
  Fe  Fe0  1  0.09861700  0.64804100  0.34135100  1
  Fe  Fe1  1  0.59861700  0.35195900  0.65864900  1
  Fe  Fe2  1  0.90138300  0.35195900  0.65864900  1
  Fe  Fe3  1  0.40138300  0.64804100  0.34135100  1
  Fe  Fe4  1  0.25000000  0.04535100  0.68875900  1
  Fe  Fe5  1  0.75000000  0.95464900  0.31124100  1
  Fe  Fe6  1  0.50241500  0.97487900  0.18870000  1
  Fe  Fe7  1  0.00241500  0.02512100  0.81130000  1
  Fe  Fe8  1  0.49758500  0.02512100  0.81130000  1
  Fe  Fe9  1  0.99758500  0.97487900  0.18870000  1
  Mo  Mo0  1  0.14235400  0.98725200  0.03030400  1
  Mo  Mo1  1  0.64235400  0.01274800  0.96969600  1
  Mo  Mo2  1  0.85764600  0.01274800  0.96969600  1
  Mo  Mo3  1  0.35764600  0.98725200  0.03030400  1
  Mo  Mo4  1  0.10836400  0.11864500  0.44984700  1
  Mo  Mo5  1  0.60836400  0.88135500  0.55015300  1
  Mo  Mo6  1  0.89163600  0.88135500  0.55015300  1
  Mo  Mo7  1  0.39163600  0.11864500  0.44984700  1
  Mo  Mo8  1  0.25000000  0.58555100  0.56330300  1
  Mo  Mo9  1  0.75000000  0.41444900  0.43669700  1
  Mo  Mo10  1  0.54234000  0.47104000  0.24853400  1
  Mo  Mo11  1  0.04234000  0.52896000  0.75146600  1
  Mo  Mo12  1  0.45766000  0.52896000  0.75146600  1
  Mo  Mo13  1  0.95766000  0.47104000  0.24853400  1
  O  O0  1  0.14511500  0.73907400  0.14261000  1
  O  O1  1  0.64511500  0.26092600  0.85739000  1
  O  O2  1  0.85488500  0.26092600  0.85739000  1
  O  O3  1  0.35488500  0.73907400  0.14261000  1
  O  O4  1  0.18528900  0.00185500  0.85254800  1
  O  O5  1  0.68528900  0.99814500  0.14745200  1
  O  O6  1  0.81471100  0.99814500  0.14745200  1
  O  O7  1  0.31471100  0.00185500  0.85254800  1
  O  O8  1  0.06148800  0.04343000  0.99422600  1
  O  O9  1  0.56148800  0.95657000  0.00577400  1
  O  O10  1  0.93851200  0.95657000  0.00577400  1
  O  O11  1  0.43851200  0.04343000  0.99422600  1
  O  O12  1  0.17476500  0.13947400  0.14087400  1
  O  O13  1  0.67476500  0.86052600  0.85912600  1
  O  O14  1  0.82523500  0.86052600  0.85912600  1
  O  O15  1  0.32523500  0.13947400  0.14087400  1
  O  O16  1  0.09907400  0.36490300  0.34508100  1
  O  O17  1  0.59907400  0.63509700  0.65491900  1
  O  O18  1  0.90092600  0.63509700  0.65491900  1
  O  O19  1  0.40092600  0.36490300  0.34508100  1
  O  O20  1  0.18530600  0.07349800  0.51741900  1
  O  O21  1  0.68530600  0.92650200  0.48258100  1
  O  O22  1  0.81469400  0.92650200  0.48258100  1
  O  O23  1  0.31469400  0.07349800  0.51741900  1
  O  O24  1  0.06220300  0.09170000  0.61627800  1
  O  O25  1  0.56220300  0.90830000  0.38372200  1
  O  O26  1  0.93779700  0.90830000  0.38372200  1
  O  O27  1  0.43779700  0.09170000  0.61627800  1
  O  O28  1  0.08014800  0.94375800  0.33567600  1
  O  O29  1  0.58014800  0.05624200  0.66432400  1
  O  O30  1  0.91985200  0.05624200  0.66432400  1
  O  O31  1  0.41985200  0.94375800  0.33567600  1
  O  O32  1  0.25000000  0.33962700  0.67316800  1
  O  O33  1  0.75000000  0.66037300  0.32683200  1
  O  O34  1  0.25000000  0.75078700  0.69394200  1
  O  O35  1  0.75000000  0.24921300  0.30605800  1
  O  O36  1  0.31708800  0.62783500  0.44446700  1
  O  O37  1  0.81708800  0.37216500  0.55553300  1
  O  O38  1  0.68291200  0.37216500  0.55553300  1
  O  O39  1  0.18291200  0.62783500  0.44446700  1
  O  O40  1  0.48323600  0.66859000  0.22528300  1
  O  O41  1  0.98323600  0.33141000  0.77471700  1
  O  O42  1  0.51676400  0.33141000  0.77471700  1
  O  O43  1  0.01676400  0.66859000  0.22528300  1
  O  O44  1  0.51682000  0.26431000  0.17829600  1
  O  O45  1  0.01682000  0.73569000  0.82170400  1
  O  O46  1  0.48318000  0.73569000  0.82170400  1
  O  O47  1  0.98318000  0.26431000  0.17829600  1
  O  O48  1  0.60932900  0.55645900  0.15269700  1
  O  O49  1  0.10932900  0.44354100  0.84730300  1
  O  O50  1  0.39067100  0.44354100  0.84730300  1
  O  O51  1  0.89067100  0.55645900  0.15269700  1
  O  O52  1  0.55994500  0.39468000  0.45202800  1
  O  O53  1  0.05994500  0.60532000  0.54797200  1
  O  O54  1  0.44005500  0.60532000  0.54797200  1
  O  O55  1  0.94005500  0.39468000  0.45202800  1
loop_
_geom_bond_atom_site_label_1
_geom_bond_atom_site_label_2
_geom_bond_distance
_geom_bond_site_symmetry_2
Cs0 O15 2.987520 1_555
Cs0 O12 2.987520 1_555
Cs0 O0 3.143937 1_555
Cs0 O3 3.143937 1_555
Cs0 O34 3.145490 1_554
Cs0 O50 3.527134 1_554
Cs0 O49 3.527134 1_554
Cs0 O32 3.550647 1_554
Cs1 O13 2.987520 1_555
Cs1 O14 2.987520 1_555
Cs1 O2 3.143937 1_555
Cs1 O1 3.143937 1_555
Cs1 O35 3.145490 1_556
Cs1 O51 3.527134 1_556
Cs1 O48 3.527134 1_556
Cs1 O33 3.550647 1_556
Fe0 O53 1.974320 1_555
Fe0 O16 1.992633 1_555
Fe0 O0 2.012650 1_555
Fe0 O39 2.044894 1_555
Fe0 O43 2.049863 1_555
Fe0 O28 2.116959 1_555
Fe1 O52 1.974320 1_555
Fe1 O17 1.992633 1_555
Fe1 O1 2.012650 1_555
Fe1 O38 2.044894 1_555
Fe1 O42 2.049863 1_555
Fe1 O29 2.116959 1_555
Fe2 O55 1.974320 1_555
Fe2 O18 1.992633 1_555
Fe2 O2 2.012650 1_555
Fe2 O37 2.044894 1_555
Fe2 O41 2.049863 1_555
Fe2 O30 2.116959 1_555
Fe3 O54 1.974320 1_555
Fe3 O19 1.992633 1_555
Fe3 O3 2.012650 1_555
Fe3 O36 2.044894 1_555
Fe3 O40 2.049863 1_555
Fe3 O31 2.116959 1_555
Fe4 O4 1.998576 1_555
Fe4 O7 1.998576 1_555
Fe4 O23 2.048066 1_555
Fe4 O20 2.048066 1_555
Fe4 O32 2.053770 1_555
Fe4 O34 2.070856 1_545
Fe5 O6 1.998576 1_555
Fe5 O5 1.998576 1_555
Fe5 O21 2.048066 1_555
Fe5 O22 2.048066 1_555
Fe5 O33 2.053770 1_555
Fe5 O35 2.070856 1_565
Fe6 O44 2.050861 1_565
Fe6 O9 2.090427 1_555
Fe6 O25 2.132997 1_555
Fe6 O40 2.160510 1_555
Fe6 O11 2.186341 1_564
Fe6 O31 2.204755 1_555
Fe7 O45 2.050861 1_545
Fe7 O8 2.090427 1_555
Fe7 O24 2.132997 1_555
Fe7 O41 2.160510 1_455
Fe7 O10 2.186341 1_446
Fe7 O30 2.204755 1_455
Fe8 O46 2.050861 1_545
Fe8 O11 2.090427 1_555
Fe8 O27 2.132997 1_555
Fe8 O42 2.160510 1_555
Fe8 O9 2.186341 1_546
Fe8 O29 2.204755 1_555
Fe9 O47 2.050861 1_565
Fe9 O10 2.090427 1_555
Fe9 O26 2.132997 1_555
Fe9 O43 2.160510 1_655
Fe9 O8 2.186341 1_664
Fe9 O28 2.204755 1_655
Mo0 O12 1.743729 1_565
Mo0 O4 1.811292 1_564
Mo0 O8 1.823209 1_564
Mo0 O0 1.826913 1_555
Mo1 O13 1.743729 1_545
Mo1 O5 1.811292 1_546
Mo1 O9 1.823209 1_546
Mo1 O1 1.826913 1_555
Mo2 O14 1.743729 1_545
Mo2 O6 1.811292 1_546
Mo2 O10 1.823209 1_546
Mo2 O2 1.826913 1_555
Mo3 O15 1.743729 1_565
Mo3 O7 1.811292 1_564
Mo3 O11 1.823209 1_564
Mo3 O3 1.826913 1_555
Mo4 O24 1.758264 1_555
Mo4 O20 1.789057 1_555
Mo4 O16 1.803841 1_555
Mo4 O28 1.852745 1_545
Mo5 O25 1.758264 1_555
Mo5 O21 1.789057 1_555
Mo5 O17 1.803841 1_555
Mo5 O29 1.852745 1_565
Mo6 O26 1.758264 1_555
Mo6 O22 1.789057 1_555
Mo6 O18 1.803841 1_555
Mo6 O30 1.852745 1_565
Mo7 O27 1.758264 1_555
Mo7 O23 1.789057 1_555
Mo7 O19 1.803841 1_555
Mo7 O31 1.852745 1_545
Mo8 O36 1.790018 1_555
Mo8 O39 1.790018 1_555
Mo8 O34 1.801329 1_555
Mo8 O32 1.805061 1_555
Mo9 O38 1.790018 1_555
Mo9 O37 1.790018 1_555
Mo9 O35 1.801329 1_555
Mo9 O33 1.805061 1_555
Mo10 O48 1.734051 1_555
Mo10 O44 1.788534 1_555
Mo10 O52 1.805485 1_555
Mo10 O40 1.880107 1_555
Mo11 O49 1.734051 1_555
Mo11 O45 1.788534 1_555
Mo11 O53 1.805485 1_555
Mo11 O41 1.880107 1_455
Mo12 O50 1.734051 1_555
Mo12 O46 1.788534 1_555
Mo12 O54 1.805485 1_555
Mo12 O42 1.880107 1_555
Mo13 O51 1.734051 1_555
Mo13 O47 1.788534 1_555
Mo13 O55 1.805485 1_555
Mo13 O43 1.880107 1_655
