# generated using pymatgen
data_GdBO3
_symmetry_space_group_name_H-M   'P 1'
_cell_length_a   3.93088094
_cell_length_b   3.93088094
_cell_length_c   8.64031518
_cell_angle_alpha   90.00000000
_cell_angle_beta   90.00000000
_cell_angle_gamma   113.14492820
_symmetry_Int_Tables_number   1
_chemical_formula_structural   GdBO3
_chemical_formula_sum   'Gd2 B2 O6'
_cell_volume   122.76300329
_cell_formula_units_Z   2
loop_
 _symmetry_equiv_pos_site_id
 _symmetry_equiv_pos_as_xyz
  1  'x, y, z'
loop_
 _atom_site_type_symbol
 _atom_site_label
 _atom_site_symmetry_multiplicity
 _atom_site_fract_x
 _atom_site_fract_y
 _atom_site_fract_z
 _atom_site_occupancy
  Gd  Gd0  1  0.94057010  0.94057010  0.50000000  1
  Gd  Gd1  1  0.94057010  0.94057010  -0.00000000  1
  B  B0  1  0.50817566  0.23548626  0.25000000  1
  B  B1  1  0.23548626  0.50817566  0.75000000  1
  O  O0  1  0.67273783  0.33373355  0.39410368  1
  O  O1  1  0.33373355  0.67273783  0.60589632  1
  O  O2  1  0.33373355  0.67273783  0.89410368  1
  O  O3  1  0.67273783  0.33373355  0.10589632  1
  O  O4  1  0.14174004  0.00346307  0.25000000  1
  O  O5  1  0.00346307  0.14174004  0.75000000  1
loop_
_geom_bond_atom_site_label_1
_geom_bond_atom_site_label_2
_geom_bond_distance
_geom_bond_site_symmetry_2
Gd0 O4 2.280066 1_665
Gd0 O5 2.280066 1_665
Gd0 O0 2.369221 1_565
Gd0 O1 2.369221 1_655
Gd0 O0 2.379392 1_555
Gd0 O1 2.379392 1_555
Gd1 O5 2.280066 1_664
Gd1 O4 2.280066 1_665
Gd1 O2 2.369221 1_654
Gd1 O3 2.369221 1_565
Gd1 O2 2.379392 1_554
Gd1 O3 2.379392 1_555
B0 O4 1.368901 1_555
B0 O0 1.386176 1_555
B0 O3 1.386176 1_555
B1 O5 1.368901 1_555
B1 O1 1.386176 1_555
B1 O2 1.386176 1_555
