# generated using pymatgen
data_MgSi
_symmetry_space_group_name_H-M   'P 1'
_cell_length_a   6.06477914
_cell_length_b   6.06477914
_cell_length_c   10.02805983
_cell_angle_alpha   88.03780332
_cell_angle_beta   88.03780332
_cell_angle_gamma   38.08466104
_symmetry_Int_Tables_number   1
_chemical_formula_structural   MgSi
_chemical_formula_sum   'Mg6 Si6'
_cell_volume   227.36514811
_cell_formula_units_Z   6
loop_
 _symmetry_equiv_pos_site_id
 _symmetry_equiv_pos_as_xyz
  1  'x, y, z'
loop_
 _atom_site_type_symbol
 _atom_site_label
 _atom_site_symmetry_multiplicity
 _atom_site_fract_x
 _atom_site_fract_y
 _atom_site_fract_z
 _atom_site_occupancy
  Mg  Mg0  1  0.44606900  0.44606900  0.16536200  1
  Mg  Mg1  1  0.57553200  0.57553200  0.83275000  1
  Mg  Mg2  1  0.89975100  0.89975100  0.66889300  1
  Mg  Mg3  1  0.11656600  0.11656600  0.33988300  1
  Mg  Mg4  1  0.28116400  0.28116400  0.87780700  1
  Mg  Mg5  1  0.73590500  0.73590500  0.11510800  1
  Si  Si0  1  0.83851100  0.83851100  0.34604900  1
  Si  Si1  1  0.17219100  0.17219100  0.63436700  1
  Si  Si2  1  0.09769700  0.09769700  0.05488500  1
  Si  Si3  1  0.92321400  0.92321400  0.94173600  1
  Si  Si4  1  0.56481600  0.56481600  0.54207300  1
  Si  Si5  1  0.34936000  0.34936000  0.48117700  1
loop_
_geom_bond_atom_site_label_1
_geom_bond_atom_site_label_2
_geom_bond_distance
_geom_bond_site_symmetry_2
Mg0 Si2 2.832974 1_655
Mg0 Si2 2.832974 1_565
Mg0 Si0 2.925323 1_545
Mg0 Si0 2.925323 1_455
Mg0 Si3 3.009252 1_454
Mg0 Si3 3.009252 1_544
Mg0 Mg3 3.323807 1_565
Mg0 Mg3 3.323807 1_655
Mg1 Si3 2.832255 1_545
Mg1 Si3 2.832255 1_455
Mg1 Si4 2.921958 1_555
Mg1 Si1 2.990257 1_565
Mg1 Si1 2.990257 1_655
Mg1 Si2 2.997185 1_656
Mg1 Si2 2.997185 1_566
Mg2 Si3 2.758961 1_555
Mg2 Si5 2.805626 1_655
Mg2 Si5 2.805626 1_565
Mg2 Si4 2.990040 1_565
Mg2 Si4 2.990040 1_655
Mg2 Si1 3.130382 1_665
Mg3 Si2 2.873958 1_555
Mg3 Si4 2.879472 1_455
Mg3 Si4 2.879472 1_545
Mg3 Si1 3.043688 1_555
Mg3 Si5 3.066932 1_555
Mg3 Si0 3.186483 1_445
Mg3 Si0 3.225912 1_545
Mg3 Si0 3.225912 1_455
Mg3 Mg5 3.262671 1_455
Mg3 Mg5 3.262671 1_545
Mg4 Si3 2.656077 1_455
Mg4 Si3 2.656077 1_545
Mg4 Si2 2.703292 1_556
Mg4 Si1 2.782398 1_555
Mg5 Si2 2.619276 1_655
Mg5 Si2 2.619276 1_565
Mg5 Si0 2.635296 1_555
Mg5 Si3 2.713774 1_554
Si0 Si5 2.404017 1_655
Si0 Si5 2.404017 1_565
Si1 Si5 2.502071 1_555
Si1 Si4 2.523936 1_455
Si1 Si4 2.523936 1_545
Si2 Si3 2.335437 1_444
Si4 Si5 2.566118 1_555
