# generated using pymatgen
data_Yb3SnH2
_symmetry_space_group_name_H-M   'P 1'
_cell_length_a   6.68750079
_cell_length_b   6.68750079
_cell_length_c   5.09805013
_cell_angle_alpha   90.00000000
_cell_angle_beta   90.00000000
_cell_angle_gamma   104.68692040
_symmetry_Int_Tables_number   1
_chemical_formula_structural   Yb3SnH2
_chemical_formula_sum   'Yb6 Sn2 H4'
_cell_volume   220.54869907
_cell_formula_units_Z   2
loop_
 _symmetry_equiv_pos_site_id
 _symmetry_equiv_pos_as_xyz
  1  'x, y, z'
loop_
 _atom_site_type_symbol
 _atom_site_label
 _atom_site_symmetry_multiplicity
 _atom_site_fract_x
 _atom_site_fract_y
 _atom_site_fract_z
 _atom_site_occupancy
  Yb  Yb0  1  0.88550267  0.11449733  0.75000000  1
  Yb  Yb1  1  0.11449733  0.88550267  0.25000000  1
  Yb  Yb2  1  0.81405270  0.59588558  0.75000000  1
  Yb  Yb3  1  0.18594730  0.40411442  0.25000000  1
  Yb  Yb4  1  0.40411442  0.18594730  0.75000000  1
  Yb  Yb5  1  0.59588558  0.81405270  0.25000000  1
  Sn  Sn0  1  0.31851170  0.68148830  0.75000000  1
  Sn  Sn1  1  0.68148830  0.31851170  0.25000000  1
  H  H0  1  0.14633318  0.14633318  0.50000000  1
  H  H1  1  0.85366682  0.85366682  0.50000000  1
  H  H2  1  0.85366682  0.85366682  0.00000000  1
  H  H3  1  0.14633318  0.14633318  0.00000000  1
loop_
_geom_bond_atom_site_label_1
_geom_bond_atom_site_label_2
_geom_bond_distance
_geom_bond_site_symmetry_2
Sn0 Yb3 3.144899 1_556
Sn0 Yb5 3.144899 1_556
Sn0 Yb5 3.144899 1_555
Sn0 Yb3 3.144899 1_555
Sn0 Yb4 3.275576 1_565
Sn0 Yb2 3.275576 1_455
Sn0 Yb1 3.341302 1_556
Sn0 Yb1 3.341302 1_555
Sn0 Yb2 3.503118 1_555
Sn0 Yb4 3.503118 1_555
Sn1 Yb2 3.144899 1_554
Sn1 Yb4 3.144899 1_555
Sn1 Yb4 3.144899 1_554
Sn1 Yb2 3.144899 1_555
Sn1 Yb3 3.275576 1_655
Sn1 Yb5 3.275576 1_545
Sn1 Yb0 3.341302 1_555
Sn1 Yb0 3.341302 1_554
Sn1 Yb5 3.503118 1_555
Sn1 Yb3 3.503118 1_555
H0 Yb4 2.105910 1_555
H0 Yb3 2.105910 1_555
H0 Yb1 2.126969 1_545
H0 Yb0 2.126969 1_455
H1 Yb2 2.105910 1_555
H1 Yb5 2.105910 1_555
H1 Yb1 2.126969 1_655
H1 Yb0 2.126969 1_565
H2 Yb2 2.105910 1_554
H2 Yb5 2.105910 1_555
H2 Yb1 2.126969 1_655
H2 Yb0 2.126969 1_564
H3 Yb4 2.105910 1_554
H3 Yb3 2.105910 1_555
H3 Yb1 2.126969 1_545
H3 Yb0 2.126969 1_454
