# generated using pymatgen
data_PrSe2
_symmetry_space_group_name_H-M   'P 1'
_cell_length_a   8.40863493
_cell_length_b   8.40863493
_cell_length_c   8.62088808
_cell_angle_alpha   90.00000000
_cell_angle_beta   90.00000000
_cell_angle_gamma   90.00000000
_symmetry_Int_Tables_number   1
_chemical_formula_structural   PrSe2
_chemical_formula_sum   'Pr8 Se16'
_cell_volume   609.54111057
_cell_formula_units_Z   8
loop_
 _symmetry_equiv_pos_site_id
 _symmetry_equiv_pos_as_xyz
  1  'x, y, z'
loop_
 _atom_site_type_symbol
 _atom_site_label
 _atom_site_symmetry_multiplicity
 _atom_site_fract_x
 _atom_site_fract_y
 _atom_site_fract_z
 _atom_site_occupancy
  Pr  Pr0  1  0.25124953  0.49167991  0.72548572  1
  Pr  Pr1  1  0.24875047  0.99167991  0.72548572  1
  Pr  Pr2  1  0.74875047  0.50832009  0.72548572  1
  Pr  Pr3  1  0.75124953  0.00832009  0.72548572  1
  Pr  Pr4  1  0.50832009  0.25124953  0.27451428  1
  Pr  Pr5  1  0.99167991  0.75124953  0.27451428  1
  Pr  Pr6  1  0.49167991  0.74875047  0.27451428  1
  Pr  Pr7  1  0.00832009  0.24875047  0.27451428  1
  Se  Se0  1  0.50204850  0.24987650  0.63200089  1
  Se  Se1  1  0.99795150  0.74987650  0.63200089  1
  Se  Se2  1  0.49795150  0.75012350  0.63200089  1
  Se  Se3  1  0.00204850  0.25012350  0.63200089  1
  Se  Se4  1  0.75012350  0.50204850  0.36799911  1
  Se  Se5  1  0.74987650  0.00204850  0.36799911  1
  Se  Se6  1  0.24987650  0.49795150  0.36799911  1
  Se  Se7  1  0.25012350  0.99795150  0.36799911  1
  Se  Se8  1  0.22628037  0.72628037  -0.00000000  1
  Se  Se9  1  0.27371963  0.22628037  -0.00000000  1
  Se  Se10  1  0.77371963  0.27371963  -0.00000000  1
  Se  Se11  1  0.72628037  0.77371963  -0.00000000  1
  Se  Se12  1  -0.00000000  0.50000000  -0.00000000  1
  Se  Se13  1  0.50000000  -0.00000000  -0.00000000  1
  Se  Se14  1  0.50000000  0.50000000  -0.00000000  1
  Se  Se15  1  -0.00000000  -0.00000000  -0.00000000  1
loop_
_geom_bond_atom_site_label_1
_geom_bond_atom_site_label_2
_geom_bond_distance
_geom_bond_site_symmetry_2
Pr0 Se3 3.027539 1_555
Pr0 Se0 3.038244 1_555
Pr0 Se6 3.082325 1_555
Pr0 Se8 3.088057 1_556
Pr0 Se2 3.110526 1_555
Pr0 Se1 3.146353 1_455
Pr0 Se14 3.159192 1_556
Pr0 Se12 3.173144 1_556
Pr0 Se9 3.258304 1_556
Pr1 Se2 3.027539 1_555
Pr1 Se1 3.038244 1_455
Pr1 Se7 3.082325 1_555
Pr1 Se9 3.088057 1_566
Pr1 Se3 3.110526 1_565
Pr1 Se0 3.146353 1_565
Pr1 Se15 3.159192 1_566
Pr1 Se13 3.173144 1_566
Pr1 Se8 3.258304 1_556
Pr2 Se1 3.027539 1_555
Pr2 Se2 3.038244 1_555
Pr2 Se4 3.082325 1_555
Pr2 Se10 3.088057 1_556
Pr2 Se0 3.110526 1_555
Pr2 Se3 3.146353 1_655
Pr2 Se14 3.159192 1_556
Pr2 Se12 3.173144 1_656
Pr2 Se11 3.258304 1_556
Pr3 Se0 3.027539 1_555
Pr3 Se3 3.038244 1_655
Pr3 Se5 3.082325 1_555
Pr3 Se11 3.088057 1_546
Pr3 Se1 3.110526 1_545
Pr3 Se2 3.146353 1_545
Pr3 Se15 3.159192 1_656
Pr3 Se13 3.173144 1_556
Pr3 Se10 3.258304 1_556
Pr4 Se5 3.027539 1_555
Pr4 Se4 3.038244 1_555
Pr4 Se0 3.082325 1_555
Pr4 Se9 3.088057 1_555
Pr4 Se6 3.110526 1_555
Pr4 Se7 3.146353 1_545
Pr4 Se14 3.159192 1_555
Pr4 Se13 3.173144 1_555
Pr4 Se10 3.258304 1_555
Pr5 Se4 3.027539 1_555
Pr5 Se5 3.038244 1_565
Pr5 Se1 3.082325 1_555
Pr5 Se8 3.088057 1_655
Pr5 Se7 3.110526 1_655
Pr5 Se6 3.146353 1_655
Pr5 Se15 3.159192 1_665
Pr5 Se12 3.173144 1_655
Pr5 Se11 3.258304 1_555
Pr6 Se7 3.027539 1_555
Pr6 Se6 3.038244 1_555
Pr6 Se2 3.082325 1_555
Pr6 Se11 3.088057 1_555
Pr6 Se4 3.110526 1_555
Pr6 Se5 3.146353 1_565
Pr6 Se14 3.159192 1_555
Pr6 Se13 3.173144 1_565
Pr6 Se8 3.258304 1_555
Pr7 Se6 3.027539 1_555
Pr7 Se7 3.038244 1_545
Pr7 Se3 3.082325 1_555
Pr7 Se10 3.088057 1_455
Pr7 Se5 3.110526 1_455
Pr7 Se4 3.146353 1_455
Pr7 Se15 3.159192 1_555
Pr7 Se12 3.173144 1_555
Pr7 Se9 3.258304 1_555
Se10 Se12 2.690837 1_655
Se10 Se15 2.986252 1_655
Se10 Se14 2.986252 1_555
Se11 Se13 2.690837 1_565
Se11 Se15 2.986252 1_665
Se11 Se14 2.986252 1_555
Se12 Se8 2.690837 1_555
Se13 Se9 2.690837 1_555
Se14 Se9 2.986252 1_555
Se14 Se8 2.986252 1_555
Se15 Se9 2.986252 1_555
Se15 Se8 2.986252 1_545
