# generated using pymatgen
data_K5H3(S2O9)2
_symmetry_space_group_name_H-M   'P 1'
_cell_length_a   8.84430912
_cell_length_b   9.99813145
_cell_length_c   10.80960100
_cell_angle_alpha   90.00000000
_cell_angle_beta   90.00000000
_cell_angle_gamma   104.89753823
_symmetry_Int_Tables_number   1
_chemical_formula_structural   K5H3(S2O9)2
_chemical_formula_sum   'K10 H6 S8 O36'
_cell_volume   923.72682399
_cell_formula_units_Z   2
loop_
 _symmetry_equiv_pos_site_id
 _symmetry_equiv_pos_as_xyz
  1  'x, y, z'
loop_
 _atom_site_type_symbol
 _atom_site_label
 _atom_site_symmetry_multiplicity
 _atom_site_fract_x
 _atom_site_fract_y
 _atom_site_fract_z
 _atom_site_occupancy
  K  K0  1  0.73775800  0.26227200  0.87421600  1
  K  K1  1  0.76224200  0.73772800  0.37421600  1
  K  K2  1  0.25471200  0.73706500  0.12481100  1
  K  K3  1  0.24528800  0.26293500  0.62481100  1
  K  K4  1  0.49516200  0.99778300  0.50141200  1
  K  K5  1  0.00483800  0.00221700  0.00141200  1
  K  K6  1  0.04525300  0.68792500  0.72941000  1
  K  K7  1  0.45474700  0.31207500  0.22941000  1
  K  K8  1  0.96497200  0.31412900  0.27224100  1
  K  K9  1  0.53502800  0.68587100  0.77224100  1
  H  H0  1  0.87455900  0.21352300  0.59191500  1
  H  H1  1  0.62544100  0.78647700  0.09191500  1
  H  H2  1  0.12546700  0.78869800  0.40518600  1
  H  H3  1  0.37453300  0.21130200  0.90518600  1
  H  H4  1  0.49743100  0.00502300  0.01671000  1
  H  H5  1  0.00256900  0.99497700  0.51671000  1
  S  S0  1  0.34414200  0.95686500  0.83005300  1
  S  S1  1  0.15585800  0.04313500  0.33005300  1
  S  S2  1  0.66135700  0.04462400  0.17603600  1
  S  S3  1  0.83864300  0.95537600  0.67603600  1
  S  S4  1  0.70194700  0.42233600  0.54743000  1
  S  S5  1  0.79805300  0.57766400  0.04743000  1
  S  S6  1  0.29821500  0.57869100  0.45269900  1
  S  S7  1  0.20178500  0.42130900  0.95269900  1
  O  O0  1  0.50087800  0.97594900  0.89538400  1
  O  O1  1  0.99912200  0.02405100  0.39538400  1
  O  O2  1  0.49615900  0.02894500  0.11649000  1
  O  O3  1  0.00384100  0.97105500  0.61649000  1
  O  O4  1  0.87529400  0.40695300  0.60145500  1
  O  O5  1  0.62470600  0.59304700  0.10145500  1
  O  O6  1  0.12545100  0.59472200  0.39873900  1
  O  O7  1  0.37454900  0.40527800  0.89873900  1
  O  O8  1  0.32039700  0.09755500  0.80498300  1
  O  O9  1  0.17960300  0.90244500  0.30498300  1
  O  O10  1  0.67956300  0.90247800  0.19642200  1
  O  O11  1  0.82043700  0.09752200  0.69642200  1
  O  O12  1  0.92200600  0.29529400  0.53606100  1
  O  O13  1  0.57799400  0.70470600  0.03606100  1
  O  O14  1  0.07967800  0.70724100  0.46337900  1
  O  O15  1  0.42032200  0.29275900  0.96337900  1
  O  O16  1  0.70017000  0.54924000  0.61391200  1
  O  O17  1  0.79983000  0.45076000  0.11391200  1
  O  O18  1  0.29894300  0.45150500  0.38624000  1
  O  O19  1  0.20105700  0.54849500  0.88624000  1
  O  O20  1  0.34984500  0.88208200  0.71339400  1
  O  O21  1  0.15015500  0.11791800  0.21339400  1
  O  O22  1  0.65817500  0.11873700  0.29221700  1
  O  O23  1  0.84182500  0.88126300  0.79221700  1
  O  O24  1  0.71661200  0.43769300  0.41345100  1
  O  O25  1  0.78338800  0.56230700  0.91345100  1
  O  O26  1  0.28335800  0.56293700  0.58671400  1
  O  O27  1  0.21664200  0.43706300  0.08671400  1
  O  O28  1  0.21892100  0.87782300  0.91280000  1
  O  O29  1  0.28107900  0.12217700  0.41280000  1
  O  O30  1  0.77860500  0.12181300  0.08765500  1
  O  O31  1  0.72139500  0.87818700  0.58765500  1
  O  O32  1  0.58633000  0.29788100  0.58886900  1
  O  O33  1  0.91367000  0.70211900  0.08886900  1
  O  O34  1  0.41486600  0.70256900  0.41171600  1
  O  O35  1  0.08513400  0.29743100  0.91171600  1
loop_
_geom_bond_atom_site_label_1
_geom_bond_atom_site_label_2
_geom_bond_distance
_geom_bond_site_symmetry_2
K0 O11 2.749711 1_555
K0 O30 2.772478 1_556
K0 O25 2.952795 1_555
K0 O35 3.028466 1_655
K0 O15 3.056786 1_555
K0 O0 3.090758 1_545
K0 O17 3.167687 1_556
K1 O10 2.749711 1_555
K1 O31 2.772478 1_555
K1 O24 2.952795 1_555
K1 O34 3.028466 1_555
K1 O14 3.056786 1_655
K1 O1 3.090758 1_565
K1 O16 3.167687 1_555
K2 O9 2.744664 1_555
K2 O28 2.749898 1_554
K2 O27 2.959802 1_555
K2 O33 2.971379 1_455
K3 O8 2.744664 1_555
K3 O29 2.749898 1_555
K3 O26 2.959802 1_555
K3 O32 2.971379 1_555
K4 O29 2.694468 1_565
K4 O20 2.734269 1_555
K4 O31 2.744553 1_555
K4 O22 2.785338 1_565
K4 O34 3.013056 1_555
K4 O32 3.049990 1_565
K5 O28 2.694468 1_544
K5 O21 2.734269 1_555
K5 O30 2.744553 1_455
K5 O23 2.785338 1_444
K5 O35 3.013056 1_554
K5 O33 3.049990 1_445
K6 O19 2.775578 1_555
K6 O20 2.892491 1_555
K6 O14 2.892983 1_555
K6 O28 2.897294 1_555
K6 O23 3.036905 1_455
K6 O25 3.066501 1_455
K6 O26 3.119088 1_555
K6 O4 3.145305 1_455
K6 O3 3.189111 1_555
K6 O16 3.258867 1_455
K7 O18 2.775578 1_555
K7 O21 2.892491 1_555
K7 O15 2.892983 1_554
K7 O29 2.897294 1_555
K7 O22 3.036905 1_555
K7 O24 3.066501 1_555
K7 O27 3.119088 1_555
K7 O5 3.145305 1_555
K7 O2 3.189111 1_555
K7 O17 3.258867 1_555
K8 O17 2.820356 1_555
K8 O12 2.876764 1_555
K8 O22 2.915478 1_555
K8 O21 2.930456 1_655
K8 O30 2.960680 1_555
K8 O27 3.013357 1_655
K8 O6 3.115636 1_655
K8 O18 3.169165 1_655
K8 O24 3.174343 1_555
K8 O1 3.274891 1_555
K9 O16 2.820356 1_555
K9 O13 2.876764 1_556
K9 O23 2.915478 1_555
K9 O20 2.930456 1_555
K9 O31 2.960680 1_555
K9 O26 3.013357 1_555
K9 O7 3.115636 1_555
K9 O19 3.169165 1_555
K9 O25 3.174343 1_555
K9 O0 3.274891 1_555
H0 O12 1.016177 1_555
H0 O11 1.601552 1_555
H1 O13 1.016177 1_555
H1 O10 1.601552 1_555
H2 O14 1.026347 1_555
H2 O9 1.554298 1_555
H3 O15 1.026347 1_555
H3 O8 1.554298 1_555
H4 O2 1.105466 1_555
H4 O0 1.345355 1_544
H5 O3 1.105466 1_555
H5 O1 1.345355 1_465
O0 S0 1.523397 1_555
O1 S1 1.523397 1_655
O2 S2 1.567105 1_555
O3 S3 1.567105 1_455
O4 S4 1.684174 1_555
O5 S5 1.684174 1_555
O6 S6 1.681236 1_555
O7 S7 1.681236 1_555
O8 S0 1.499354 1_545
O9 S1 1.499354 1_565
O10 S2 1.487262 1_565
O11 S3 1.487262 1_545
O16 S4 1.461783 1_555
O17 S5 1.461783 1_555
O18 S6 1.461973 1_555
O19 S7 1.461973 1_555
O20 S0 1.473496 1_555
O21 S1 1.473496 1_555
O22 S2 1.462119 1_555
O23 S3 1.462119 1_555
O24 S4 1.458634 1_555
O25 S5 1.458634 1_556
O26 S6 1.459458 1_555
O27 S7 1.459458 1_554
O28 S0 1.483614 1_555
O29 S1 1.483614 1_555
O30 S2 1.473819 1_555
O31 S3 1.473819 1_555
O32 S4 1.462995 1_555
O33 S5 1.462995 1_555
O34 S6 1.462065 1_555
O35 S7 1.462065 1_555
