# generated using pymatgen
data_Ba2YTlV2O7
_symmetry_space_group_name_H-M   'P 1'
_cell_length_a   3.96837000
_cell_length_b   3.96837000
_cell_length_c   13.39340000
_cell_angle_alpha   90.00000000
_cell_angle_beta   90.00000000
_cell_angle_gamma   90.00000000
_symmetry_Int_Tables_number   1
_chemical_formula_structural   Ba2YTlV2O7
_chemical_formula_sum   'Ba2 Y1 Tl1 V2 O7'
_cell_volume   210.91873358
_cell_formula_units_Z   1
loop_
 _symmetry_equiv_pos_site_id
 _symmetry_equiv_pos_as_xyz
  1  'x, y, z'
loop_
 _atom_site_type_symbol
 _atom_site_label
 _atom_site_symmetry_multiplicity
 _atom_site_fract_x
 _atom_site_fract_y
 _atom_site_fract_z
 _atom_site_occupancy
  Ba  Ba0  1  0.50000000  0.50000000  0.18965400  1
  Ba  Ba1  1  0.50000000  0.50000000  0.81034600  1
  Y  Y0  1  0.50000000  0.50000000  0.50000000  1
  Tl  Tl0  1  0.00000000  0.00000000  0.00000000  1
  V  V0  1  0.00000000  0.00000000  0.35840500  1
  V  V1  1  0.00000000  0.00000000  0.64159500  1
  O  O0  1  0.00000000  0.00000000  0.21645200  1
  O  O1  1  0.00000000  0.50000000  0.39605800  1
  O  O2  1  0.50000000  0.00000000  0.39605800  1
  O  O3  1  0.50000000  0.00000000  0.60394200  1
  O  O4  1  0.50000000  0.50000000  0.00000000  1
  O  O5  1  0.00000000  0.50000000  0.60394200  1
  O  O6  1  0.00000000  0.00000000  0.78354800  1
loop_
_geom_bond_atom_site_label_1
_geom_bond_atom_site_label_2
_geom_bond_distance
_geom_bond_site_symmetry_2
Ba0 O4 2.540112 1_555
Ba0 O0 2.828922 1_555
Ba0 O0 2.828922 1_565
Ba0 O0 2.828922 1_665
Ba0 O0 2.828922 1_655
Ba1 O4 2.540112 1_556
Ba1 O6 2.828922 1_665
Ba1 O6 2.828922 1_555
Ba1 O6 2.828922 1_655
Ba1 O6 2.828922 1_565
O0 V0 1.901233 1_555
O0 Tl0 2.899028 1_555
O1 V0 2.047269 1_565
O1 V0 2.047269 1_555
O1 Y0 2.423847 1_455
O1 Y0 2.423847 1_555
O2 V0 2.047269 1_655
O2 V0 2.047269 1_555
O2 Y0 2.423847 1_545
O2 Y0 2.423847 1_555
O3 V1 2.047269 1_655
O3 V1 2.047269 1_555
O3 Y0 2.423847 1_545
O3 Y0 2.423847 1_555
O4 Tl0 2.806061 1_555
O4 Tl0 2.806061 1_565
O4 Tl0 2.806061 1_655
O4 Tl0 2.806061 1_665
O5 V1 2.047269 1_555
O5 V1 2.047269 1_565
O5 Y0 2.423847 1_455
O5 Y0 2.423847 1_555
O6 V1 1.901233 1_555
O6 Tl0 2.899028 1_556
