# generated using pymatgen
data_DyTe3
_symmetry_space_group_name_H-M   'P 1'
_cell_length_a   4.33323876
_cell_length_b   4.33584911
_cell_length_c   13.36070336
_cell_angle_alpha   90.00000000
_cell_angle_beta   99.33250225
_cell_angle_gamma   90.00000000
_symmetry_Int_Tables_number   1
_chemical_formula_structural   DyTe3
_chemical_formula_sum   'Dy2 Te6'
_cell_volume   247.70190523
_cell_formula_units_Z   2
loop_
 _symmetry_equiv_pos_site_id
 _symmetry_equiv_pos_as_xyz
  1  'x, y, z'
loop_
 _atom_site_type_symbol
 _atom_site_label
 _atom_site_symmetry_multiplicity
 _atom_site_fract_x
 _atom_site_fract_y
 _atom_site_fract_z
 _atom_site_occupancy
  Dy  Dy0  1  0.17216363  0.75000000  0.34432725  1
  Dy  Dy1  1  0.82783637  0.25000000  0.65567275  1
  Te  Te0  1  0.92340344  0.75000000  0.84680488  1
  Te  Te1  1  0.07659656  0.25000000  0.15319512  1
  Te  Te2  1  0.57655416  0.75000000  0.15310933  1
  Te  Te3  1  0.42344584  0.25000000  0.84689067  1
  Te  Te4  1  0.29296867  0.75000000  0.58593734  1
  Te  Te5  1  0.70703133  0.25000000  0.41406266  1
loop_
_geom_bond_atom_site_label_1
_geom_bond_atom_site_label_2
_geom_bond_distance
_geom_bond_site_symmetry_2
Dy0 Te4 3.185353 1_555
Dy0 Te5 3.199906 1_565
Dy0 Te5 3.199906 1_555
Dy0 Te5 3.199906 1_455
Dy0 Te5 3.199906 1_465
Dy0 Te1 3.324092 1_555
Dy0 Te1 3.324092 1_565
Dy0 Te2 3.324097 1_555
Dy0 Te2 3.324100 1_455
Dy1 Te5 3.185353 1_555
Dy1 Te4 3.199906 1_555
Dy1 Te4 3.199906 1_545
Dy1 Te4 3.199906 1_655
Dy1 Te4 3.199906 1_645
Dy1 Te0 3.324092 1_555
Dy1 Te0 3.324092 1_545
Dy1 Te3 3.324097 1_555
Dy1 Te3 3.324100 1_655
Te0 Te3 3.064984 1_655
Te0 Te3 3.064984 1_665
Te0 Te3 3.064987 1_565
Te0 Te3 3.064987 1_555
Te1 Te2 3.064984 1_445
Te1 Te2 3.064984 1_455
Te1 Te2 3.064987 1_545
Te1 Te2 3.064987 1_555
