# generated using pymatgen
data_KMg3Al(SiO4)3
_symmetry_space_group_name_H-M   'P 1'
_cell_length_a   5.37922500
_cell_length_b   5.40859936
_cell_length_c   10.26439964
_cell_angle_alpha   84.68114592
_cell_angle_beta   80.55033619
_cell_angle_gamma   60.61309153
_symmetry_Int_Tables_number   1
_chemical_formula_structural   KMg3Al(SiO4)3
_chemical_formula_sum   'K1 Mg3 Al1 Si3 O12'
_cell_volume   256.65032232
_cell_formula_units_Z   1
loop_
 _symmetry_equiv_pos_site_id
 _symmetry_equiv_pos_as_xyz
  1  'x, y, z'
loop_
 _atom_site_type_symbol
 _atom_site_label
 _atom_site_symmetry_multiplicity
 _atom_site_fract_x
 _atom_site_fract_y
 _atom_site_fract_z
 _atom_site_occupancy
  K  K0  1  0.49284100  0.99943200  0.02077400  1
  Mg  Mg0  1  0.32308800  0.35172900  0.49623700  1
  Mg  Mg1  1  0.67931000  0.65242900  0.49396900  1
  Mg  Mg2  1  0.01013900  0.99686300  0.49650300  1
  Al  Al0  1  0.75501500  0.32776900  0.22535200  1
  Si  Si0  1  0.09295700  0.66521400  0.22002700  1
  Si  Si1  1  0.24179100  0.66735700  0.77546000  1
  Si  Si2  1  0.90974700  0.33345900  0.77534600  1
  O  O0  1  0.43154700  0.50472600  0.15930900  1
  O  O1  1  0.94464100  0.50702400  0.16264200  1
  O  O2  1  0.55869900  0.50038700  0.83272200  1
  O  O3  1  0.05878800  0.49735400  0.83602900  1
  O  O4  1  0.37761800  0.00040500  0.41151100  1
  O  O5  1  0.62042700  0.00597800  0.58380500  1
  O  O6  1  0.95068000  0.98852000  0.16111500  1
  O  O7  1  0.05868000  0.99875100  0.83290700  1
  O  O8  1  0.70478200  0.32881000  0.40047900  1
  O  O9  1  0.04676600  0.66417500  0.38411000  1
  O  O10  1  0.28527500  0.66928100  0.61593800  1
  O  O11  1  0.95720800  0.34033600  0.61576700  1
loop_
_geom_bond_atom_site_label_1
_geom_bond_atom_site_label_2
_geom_bond_distance
_geom_bond_site_symmetry_2
K0 O6 3.024992 1_555
K0 O1 3.034914 1_555
K0 O0 3.046613 1_565
K0 O0 3.048999 1_555
K0 O6 3.059030 1_455
K0 O1 3.120790 1_465
K0 O3 3.261311 1_564
K0 O7 3.265179 1_554
K0 O2 3.307507 1_554
K0 O2 3.307629 1_564
K0 O7 3.323567 1_654
K0 O3 3.344230 1_654
Mg0 O5 2.021926 1_555
Mg0 O9 2.031188 1_555
Mg0 O4 2.031894 1_555
Mg0 O8 2.075402 1_555
Mg0 O10 2.113560 1_555
Mg0 O11 2.166751 1_455
Mg1 O8 2.009014 1_555
Mg1 O4 2.012553 1_565
Mg1 O5 2.060030 1_565
Mg1 O11 2.095928 1_555
Mg1 O9 2.135586 1_655
Mg1 O10 2.242450 1_555
Mg2 O4 2.033910 1_565
Mg2 O8 2.049930 1_465
Mg2 O10 2.109997 1_555
Mg2 O5 2.118969 1_465
Mg2 O9 2.137700 1_555
Mg2 O11 2.195179 1_465
Al0 O6 1.735038 1_545
Al0 O1 1.741850 1_555
Al0 O0 1.742363 1_555
Al0 O8 1.773473 1_555
O0 Si0 1.623325 1_555
O1 Si0 1.622702 1_655
O2 Si1 1.669373 1_555
O2 Si2 1.669757 1_555
O3 Si2 1.667431 1_455
O3 Si1 1.668054 1_555
O6 Si0 1.628382 1_655
O7 Si2 1.673883 1_465
O7 Si1 1.674245 1_555
O9 Si0 1.661490 1_555
O10 Si1 1.615351 1_555
O11 Si2 1.615630 1_555
