# generated using pymatgen
data_Ba2Li3Ho3(WO4)8
_symmetry_space_group_name_H-M   'P 1'
_cell_length_a   5.27256600
_cell_length_b   6.94000530
_cell_length_c   19.10555710
_cell_angle_alpha   88.69224956
_cell_angle_beta   88.87215838
_cell_angle_gamma   67.96967552
_symmetry_Int_Tables_number   1
_chemical_formula_structural   Ba2Li3Ho3(WO4)8
_chemical_formula_sum   'Ba2 Li3 Ho3 W8 O32'
_cell_volume   647.84340036
_cell_formula_units_Z   1
loop_
 _symmetry_equiv_pos_site_id
 _symmetry_equiv_pos_as_xyz
  1  'x, y, z'
loop_
 _atom_site_type_symbol
 _atom_site_label
 _atom_site_symmetry_multiplicity
 _atom_site_fract_x
 _atom_site_fract_y
 _atom_site_fract_z
 _atom_site_occupancy
  Ba  Ba0  1  0.96579700  0.06138700  0.26154900  1
  Ba  Ba1  1  0.03278700  0.93928400  0.74145600  1
  Li  Li0  1  0.69275700  0.63131200  0.25633900  1
  Li  Li1  1  0.31074300  0.36595000  0.74451300  1
  Li  Li2  1  0.85281400  0.28647700  0.46170200  1
  Ho  Ho0  1  0.85935700  0.29396500  0.03371800  1
  Ho  Ho1  1  0.14975000  0.70736600  0.52906500  1
  Ho  Ho2  1  0.14093900  0.70649800  0.96778600  1
  W  W0  1  0.56827800  0.88067000  0.40698000  1
  W  W1  1  0.54545900  0.87509200  0.09442600  1
  W  W2  1  0.42926300  0.12038300  0.59185300  1
  W  W3  1  0.45476400  0.12371500  0.90607900  1
  W  W4  1  0.26179500  0.47561800  0.34914500  1
  W  W5  1  0.27335000  0.48031900  0.15376100  1
  W  W6  1  0.74152800  0.52257400  0.65200500  1
  W  W7  1  0.72845900  0.51987200  0.84713500  1
  O  O0  1  0.83760400  0.67068200  0.45437700  1
  O  O1  1  0.51888400  0.65566100  0.04235800  1
  O  O2  1  0.17881600  0.35145500  0.54958900  1
  O  O3  1  0.48313900  0.34340000  0.95715100  1
  O  O4  1  0.50936700  0.41145800  0.27394500  1
  O  O5  1  0.05597400  0.40206900  0.21175000  1
  O  O6  1  0.48793900  0.59168700  0.72493400  1
  O  O7  1  0.94091100  0.59734200  0.78676900  1
  O  O8  1  0.44419800  0.82445600  0.32397600  1
  O  O9  1  0.72737900  0.82676100  0.17525200  1
  O  O10  1  0.55352300  0.16879300  0.67585000  1
  O  O11  1  0.27345700  0.17350900  0.82490400  1
  O  O12  1  0.67525800  0.09798200  0.39024500  1
  O  O13  1  0.22237500  0.09525300  0.10327000  1
  O  O14  1  0.30461700  0.90710000  0.60842700  1
  O  O15  1  0.77872600  0.90439100  0.89604900  1
  O  O16  1  0.39998100  0.52905900  0.43046800  1
  O  O17  1  0.08133100  0.51921300  0.06896000  1
  O  O18  1  0.58378400  0.48947700  0.57230900  1
  O  O19  1  0.92155400  0.48028800  0.93118800  1
  O  O20  1  0.26953200  0.95532700  0.46618300  1
  O  O21  1  0.77586600  0.96033400  0.03611600  1
  O  O22  1  0.73654400  0.02481300  0.53731200  1
  O  O23  1  0.22368600  0.03858700  0.96355600  1
  O  O24  1  0.10340900  0.28745300  0.36225800  1
  O  O25  1  0.61620000  0.28956300  0.13175200  1
  O  O26  1  0.90925700  0.70792300  0.63635200  1
  O  O27  1  0.38429400  0.70947800  0.86809300  1
  O  O28  1  0.98017200  0.70518100  0.31854700  1
  O  O29  1  0.29721600  0.72920500  0.17187500  1
  O  O30  1  0.01521300  0.28815800  0.68151000  1
  O  O31  1  0.70195800  0.27346300  0.82716300  1
loop_
_geom_bond_atom_site_label_1
_geom_bond_atom_site_label_2
_geom_bond_distance
_geom_bond_site_symmetry_2
Ba0 O28 2.653783 1_545
Ba0 O4 2.714351 1_555
Ba0 O8 2.721432 1_645
Ba0 O5 2.728411 1_655
Ba0 O24 2.781508 1_655
Ba0 O12 2.836420 1_555
Ba0 O29 2.888554 1_645
Ba0 O9 2.947831 1_545
Ba0 O25 3.140994 1_555
Ba0 O13 3.327918 1_655
Ba1 O30 2.625214 1_565
Ba1 O6 2.709251 1_555
Ba1 O7 2.714365 1_455
Ba1 O10 2.740014 1_465
Ba1 O26 2.831584 1_455
Ba1 O31 2.851094 1_465
Ba1 O14 2.864633 1_555
Ba1 O11 2.922290 1_565
Ba1 O27 3.100845 1_555
Ba1 O15 3.260623 1_455
Li0 O8 1.969438 1_555
Li0 O9 2.086134 1_555
Li0 O4 2.108720 1_555
Li0 O5 2.153217 1_655
Li0 O28 2.157173 1_555
Li0 O29 2.536649 1_555
Li1 O10 1.983320 1_555
Li1 O11 2.067077 1_555
Li1 O6 2.127112 1_555
Li1 O7 2.163559 1_455
Li1 O30 2.214263 1_555
Li1 O31 2.499789 1_555
Li2 O24 2.294095 1_655
Li2 O12 2.345657 1_555
Li2 O16 2.426050 1_555
Li2 O20 2.515324 1_645
Li2 O22 2.537879 1_555
Li2 O2 2.589789 1_655
Li2 O0 2.637919 1_555
Li2 O18 2.642200 1_555
Ho0 O25 2.254986 1_555
Ho0 O13 2.316770 1_655
Ho0 O17 2.391313 1_655
Ho0 O3 2.402756 1_554
Ho0 O19 2.407089 1_554
Ho0 O23 2.465984 1_654
Ho0 O1 2.485473 1_555
Ho0 O21 2.513161 1_545
Ho1 O0 2.287592 1_455
Ho1 O20 2.344063 1_555
Ho1 O16 2.367335 1_555
Ho1 O18 2.372269 1_555
Ho1 O26 2.388270 1_455
Ho1 O14 2.425076 1_555
Ho1 O2 2.439763 1_555
Ho1 O22 2.454898 1_465
Ho2 O27 2.279590 1_555
Ho2 O15 2.336967 1_455
Ho2 O1 2.384694 1_556
Ho2 O17 2.385884 1_556
Ho2 O19 2.394943 1_455
Ho2 O21 2.444371 1_456
Ho2 O3 2.498940 1_555
Ho2 O23 2.500592 1_565
O0 W0 1.843420 1_555
O1 W1 1.887598 1_555
O2 W2 1.833481 1_555
O3 W3 1.882474 1_555
O4 W4 1.867011 1_555
O4 W5 2.581795 1_555
O5 W5 1.795959 1_555
O6 W6 1.853450 1_555
O6 W7 2.626179 1_555
O7 W7 1.801843 1_555
O8 W0 1.831839 1_555
O9 W1 1.791782 1_555
O10 W2 1.829935 1_555
O11 W3 1.795720 1_555
O12 W0 1.817681 1_545
O13 W1 1.820109 1_545
O14 W2 1.850223 1_565
O15 W3 1.822404 1_565
O16 W4 1.831949 1_555
O17 W5 1.887440 1_555
O18 W6 1.808885 1_555
O19 W7 1.877568 1_555
O20 W0 1.836664 1_555
O21 W1 1.876879 1_555
O22 W2 1.819232 1_555
O23 W3 1.870044 1_555
O24 W4 1.805654 1_555
O25 W5 1.843189 1_555
O26 W6 1.830735 1_555
O27 W7 1.840883 1_555
O28 W4 1.817071 1_655
O29 W5 1.819649 1_555
O29 W1 2.403597 1_555
O30 W6 1.809900 1_455
O31 W7 1.816766 1_555
O31 W3 2.432957 1_555
