# generated using pymatgen
data_Li2Ti2Mn3O10
_symmetry_space_group_name_H-M   'P 1'
_cell_length_a   6.64750649
_cell_length_b   7.75870490
_cell_length_c   8.26056282
_cell_angle_alpha   100.25626442
_cell_angle_beta   114.24715611
_cell_angle_gamma   90.74561316
_symmetry_Int_Tables_number   1
_chemical_formula_structural   Li2Ti2Mn3O10
_chemical_formula_sum   'Li4 Ti4 Mn6 O20'
_cell_volume   380.48956957
_cell_formula_units_Z   2
loop_
 _symmetry_equiv_pos_site_id
 _symmetry_equiv_pos_as_xyz
  1  'x, y, z'
loop_
 _atom_site_type_symbol
 _atom_site_label
 _atom_site_symmetry_multiplicity
 _atom_site_fract_x
 _atom_site_fract_y
 _atom_site_fract_z
 _atom_site_occupancy
  Li  Li0  1  0.57060300  0.35504000  0.39006700  1
  Li  Li1  1  0.08463400  0.83283400  0.41656600  1
  Li  Li2  1  0.42933200  0.64511100  0.60985700  1
  Li  Li3  1  0.91532600  0.16729400  0.58346800  1
  Ti  Ti0  1  0.41446600  0.27239500  0.68779600  1
  Ti  Ti1  1  0.91076000  0.78272200  0.67330900  1
  Ti  Ti2  1  0.58550700  0.72763900  0.31213400  1
  Ti  Ti3  1  0.08922600  0.21732500  0.32664000  1
  Mn  Mn0  1  0.74456100  0.74986600  0.99368000  1
  Mn  Mn1  1  0.79324400  0.09294000  0.90500000  1
  Mn  Mn2  1  0.71799700  0.40708600  0.11465500  1
  Mn  Mn3  1  0.25573000  0.24998600  0.00644300  1
  Mn  Mn4  1  0.28180600  0.59285300  0.88522500  1
  Mn  Mn5  1  0.20675700  0.90706000  0.09504600  1
  O  O0  1  0.06228000  0.02242200  0.87369100  1
  O  O1  1  0.54335600  0.53442800  0.84850300  1
  O  O2  1  0.93771800  0.97753500  0.12632400  1
  O  O3  1  0.45664800  0.46552700  0.15146500  1
  O  O4  1  0.54885300  0.18806300  0.93988100  1
  O  O5  1  0.03445400  0.69307700  0.92359700  1
  O  O6  1  0.45118100  0.81191600  0.06012400  1
  O  O7  1  0.96557600  0.30688900  0.07640800  1
  O  O8  1  0.19870000  0.09401800  0.52062200  1
  O  O9  1  0.67531800  0.61182600  0.51079400  1
  O  O10  1  0.80126300  0.90603800  0.47933100  1
  O  O11  1  0.32463400  0.38824300  0.48916900  1
  O  O12  1  0.33271200  0.14036900  0.21405000  1
  O  O13  1  0.82086400  0.65634200  0.21064700  1
  O  O14  1  0.66737300  0.85954200  0.78605000  1
  O  O15  1  0.17922600  0.34356500  0.78944500  1
  O  O16  1  0.68475000  0.19465300  0.69882300  1
  O  O17  1  0.15124800  0.71284200  0.64663800  1
  O  O18  1  0.31520800  0.80531200  0.30117600  1
  O  O19  1  0.84869000  0.28723900  0.35337400  1
loop_
_geom_bond_atom_site_label_1
_geom_bond_atom_site_label_2
_geom_bond_distance
_geom_bond_site_symmetry_2
Li0 O9 2.033386 1_555
Li0 O19 2.052951 1_555
Li0 O11 2.108386 1_555
Li0 O12 2.137644 1_555
Li0 O3 2.141431 1_555
Li1 O8 2.055407 1_565
Li1 O18 2.107007 1_555
Li1 O13 2.121633 1_455
Li1 O17 2.150436 1_555
Li1 O10 2.205657 1_455
Li2 O11 2.033880 1_555
Li2 O17 2.053144 1_555
Li2 O9 2.108311 1_555
Li2 O14 2.137232 1_555
Li2 O1 2.142596 1_555
Li3 O10 2.055971 1_545
Li3 O16 2.106769 1_555
Li3 O15 2.121379 1_655
Li3 O19 2.150357 1_555
Li3 O8 2.206164 1_655
Mn0 O13 1.929264 1_556
Mn0 O14 1.933224 1_555
Mn0 O1 1.982837 1_555
Mn0 O2 2.016354 1_556
Mn0 O5 2.256203 1_655
Mn0 O6 2.268482 1_556
Mn1 O16 1.878338 1_555
Mn1 O14 1.896443 1_545
Mn1 O4 1.899201 1_555
Mn1 O7 1.963147 1_556
Mn1 O0 1.979813 1_655
Mn1 O2 2.056644 1_546
Mn2 O3 1.929153 1_555
Mn2 O7 1.945683 1_555
Mn2 O13 1.952049 1_555
Mn2 O4 1.994908 1_554
Mn2 O19 2.185148 1_555
Mn2 O1 2.421693 1_554
Mn3 O15 1.929573 1_554
Mn3 O12 1.932914 1_555
Mn3 O3 1.982399 1_555
Mn3 O0 2.016622 1_554
Mn3 O7 2.257457 1_455
Mn3 O4 2.267205 1_554
Mn4 O1 1.930066 1_555
Mn4 O5 1.944831 1_555
Mn4 O15 1.951801 1_555
Mn4 O6 1.995874 1_556
Mn4 O17 2.184883 1_555
Mn4 O3 2.422341 1_556
Mn5 O18 1.878173 1_555
Mn5 O12 1.896046 1_565
Mn5 O6 1.899611 1_555
Mn5 O5 1.963393 1_554
Mn5 O2 1.979628 1_455
Mn5 O0 2.056644 1_564
O0 Ti1 2.167667 1_445
O1 Ti0 2.165417 1_555
O2 Ti3 2.167927 1_665
O3 Ti2 2.165806 1_555
O4 Ti0 2.129530 1_555
O5 Ti1 2.136622 1_455
O6 Ti2 2.128781 1_555
O7 Ti3 2.135907 1_655
O8 Ti0 1.876313 1_555
O8 Ti3 1.902316 1_555
O9 Ti2 1.895052 1_555
O9 Ti1 1.896377 1_555
O10 Ti2 1.876440 1_555
O10 Ti1 1.902343 1_555
O11 Ti0 1.894995 1_555
O11 Ti3 1.896383 1_555
O12 Ti3 2.214751 1_555
O13 Ti2 2.095534 1_555
O14 Ti1 2.214778 1_555
O15 Ti0 2.095507 1_555
O16 Ti0 1.874474 1_555
O17 Ti1 1.779739 1_455
O18 Ti2 1.874548 1_555
O19 Ti3 1.780349 1_655
