# generated using pymatgen
data_Zr5In3Ag
_symmetry_space_group_name_H-M   'P 1'
_cell_length_a   8.75741285
_cell_length_b   8.75741285
_cell_length_c   5.97355859
_cell_angle_alpha   90.00000000
_cell_angle_beta   90.00000000
_cell_angle_gamma   119.99999537
_symmetry_Int_Tables_number   1
_chemical_formula_structural   Zr5In3Ag
_chemical_formula_sum   'Zr10 In6 Ag2'
_cell_volume   396.74862250
_cell_formula_units_Z   2
loop_
 _symmetry_equiv_pos_site_id
 _symmetry_equiv_pos_as_xyz
  1  'x, y, z'
loop_
 _atom_site_type_symbol
 _atom_site_label
 _atom_site_symmetry_multiplicity
 _atom_site_fract_x
 _atom_site_fract_y
 _atom_site_fract_z
 _atom_site_occupancy
  Zr  Zr0  1  0.70655426  0.70655804  0.75000000  1
  Zr  Zr1  1  0.29344196  -0.00000378  0.75000000  1
  Zr  Zr2  1  0.00000378  0.29344574  0.75000000  1
  Zr  Zr3  1  0.29344196  0.29344574  0.25000000  1
  Zr  Zr4  1  0.70655426  -0.00000378  0.25000000  1
  Zr  Zr5  1  0.00000378  0.70655804  0.25000000  1
  Zr  Zr6  1  0.66666700  0.33333300  0.00000000  1
  Zr  Zr7  1  0.33333300  0.66666700  0.00000000  1
  Zr  Zr8  1  0.33333300  0.66666700  0.50000000  1
  Zr  Zr9  1  0.66666700  0.33333300  0.50000000  1
  In  In0  1  0.36837480  0.36836963  0.75000000  1
  In  In1  1  0.63163037  0.00000518  0.75000000  1
  In  In2  1  0.99999482  0.63162520  0.75000000  1
  In  In3  1  0.63163037  0.63162520  0.25000000  1
  In  In4  1  0.36837480  0.00000518  0.25000000  1
  In  In5  1  0.99999482  0.36836963  0.25000000  1
  Ag  Ag0  1  0.00000000  0.00000000  0.00000000  1
  Ag  Ag1  1  0.00000000  0.00000000  0.50000000  1
loop_
_geom_bond_atom_site_label_1
_geom_bond_atom_site_label_2
_geom_bond_distance
_geom_bond_site_symmetry_2
Zr6 Zr9 2.986779 1_554
Zr6 Zr9 2.986779 1_555
Zr7 Zr8 2.986779 1_554
Zr7 Zr8 2.986779 1_555
In0 Zr1 2.953088 1_555
In0 Zr2 2.953093 1_555
In0 Zr0 2.961617 1_555
In0 Zr3 3.058009 1_555
In0 Zr3 3.058009 1_556
In0 Zr6 3.154334 1_556
In0 Zr9 3.154334 1_555
In0 Zr8 3.154397 1_555
In0 Zr7 3.154397 1_556
In1 Zr2 2.953088 1_655
In1 Zr0 2.953093 1_545
In1 Zr1 2.961616 1_555
In1 Zr4 3.058009 1_555
In1 Zr4 3.058009 1_556
In1 Zr9 3.154326 1_555
In1 Zr6 3.154326 1_556
In1 Zr7 3.154393 1_546
In1 Zr8 3.154393 1_545
In2 Zr0 2.953088 1_555
In2 Zr1 2.953093 1_665
In2 Zr2 2.961616 1_655
In2 Zr5 3.058009 1_656
In2 Zr5 3.058009 1_655
In2 Zr9 3.154330 1_555
In2 Zr6 3.154330 1_556
In2 Zr7 3.154389 1_656
In2 Zr8 3.154389 1_655
In3 Zr5 2.953088 1_655
In3 Zr4 2.953093 1_565
In3 Zr3 2.961617 1_555
In3 Zr0 3.058009 1_555
In3 Zr0 3.058009 1_554
In3 Zr6 3.154334 1_555
In3 Zr9 3.154334 1_555
In3 Zr8 3.154397 1_555
In3 Zr7 3.154397 1_555
In4 Zr3 2.953088 1_555
In4 Zr5 2.953093 1_545
In4 Zr4 2.961616 1_555
In4 Zr1 3.058009 1_555
In4 Zr1 3.058009 1_554
In4 Zr9 3.154330 1_555
In4 Zr6 3.154330 1_555
In4 Zr7 3.154389 1_545
In4 Zr8 3.154389 1_545
In5 Zr4 2.953088 1_555
In5 Zr3 2.953093 1_655
In5 Zr5 2.961616 1_655
In5 Zr2 3.058009 1_654
In5 Zr2 3.058009 1_655
In5 Zr9 3.154326 1_555
In5 Zr6 3.154326 1_555
In5 Zr7 3.154393 1_655
In5 Zr8 3.154393 1_655
Ag0 Zr1 2.972227 1_554
Ag0 Zr5 2.972227 1_545
Ag0 Zr2 2.972227 1_554
Ag0 Zr4 2.972227 1_455
Ag0 Zr3 2.972227 1_555
Ag0 Zr0 2.972227 1_444
Ag1 Zr5 2.972227 1_545
Ag1 Zr1 2.972227 1_555
Ag1 Zr2 2.972227 1_555
Ag1 Zr4 2.972227 1_455
Ag1 Zr3 2.972227 1_555
Ag1 Zr0 2.972227 1_445
