# generated using pymatgen
data_Ti2Mn4Si5
_symmetry_space_group_name_H-M   'P 1'
_cell_length_a   9.32053053
_cell_length_b   9.32053053
_cell_length_c   9.32053053
_cell_angle_alpha   149.93342374
_cell_angle_beta   134.20612137
_cell_angle_gamma   55.75827616
_symmetry_Int_Tables_number   1
_chemical_formula_structural   Ti2Mn4Si5
_chemical_formula_sum   'Ti4 Mn8 Si10'
_cell_volume   288.91662473
_cell_formula_units_Z   2
loop_
 _symmetry_equiv_pos_site_id
 _symmetry_equiv_pos_as_xyz
  1  'x, y, z'
loop_
 _atom_site_type_symbol
 _atom_site_label
 _atom_site_symmetry_multiplicity
 _atom_site_fract_x
 _atom_site_fract_y
 _atom_site_fract_z
 _atom_site_occupancy
  Ti  Ti0  1  0.68800500  0.43800500  0.75000000  1
  Ti  Ti1  1  0.31199500  0.06199500  0.75000000  1
  Ti  Ti2  1  0.31199500  0.56199500  0.25000000  1
  Ti  Ti3  1  0.68800500  0.93800500  0.25000000  1
  Mn  Mn0  1  0.28579700  0.65537100  0.63042600  1
  Mn  Mn1  1  0.71420300  0.34462900  0.36957400  1
  Mn  Mn2  1  0.97505500  0.84462900  0.13042600  1
  Mn  Mn3  1  0.02494500  0.15537100  0.86957400  1
  Mn  Mn4  1  0.68252800  0.93673300  0.74579400  1
  Mn  Mn5  1  0.31747200  0.06326700  0.25420600  1
  Mn  Mn6  1  0.80906100  0.56326700  0.24579400  1
  Mn  Mn7  1  0.19093900  0.43673300  0.75420600  1
  Si  Si0  1  0.45841800  0.55963800  0.89878000  1
  Si  Si1  1  0.54158200  0.44036200  0.10122000  1
  Si  Si2  1  0.33914200  0.94036200  0.39878000  1
  Si  Si3  1  0.66085800  0.05963800  0.60122000  1
  Si  Si4  1  0.60663900  0.79613000  0.81050900  1
  Si  Si5  1  0.39336100  0.20387000  0.18949100  1
  Si  Si6  1  0.01437900  0.70387000  0.31050900  1
  Si  Si7  1  0.98562100  0.29613000  0.68949100  1
  Si  Si8  1  0.00000000  0.25000000  0.25000000  1
  Si  Si9  1  0.00000000  0.75000000  0.75000000  1
loop_
_geom_bond_atom_site_label_1
_geom_bond_atom_site_label_2
_geom_bond_distance
_geom_bond_site_symmetry_2
Ti0 Ti3 2.417561 1_545
Ti0 Ti3 2.417561 1_556
Ti1 Ti2 2.417561 1_556
Ti1 Ti2 2.417561 1_545
Mn0 Si6 2.454046 1_555
Mn0 Si0 2.505282 1_555
Mn0 Si5 2.582004 1_555
Mn0 Si5 2.582004 1_566
Mn0 Si4 2.661825 1_555
Mn0 Si9 2.984999 1_555
Mn0 Si8 2.984999 1_555
Mn1 Si7 2.454046 1_555
Mn1 Si1 2.505282 1_555
Mn1 Si4 2.582004 1_544
Mn1 Si4 2.582004 1_555
Mn1 Si5 2.661825 1_555
Mn1 Si8 2.984999 1_655
Mn1 Si9 2.984999 1_655
Mn2 Si4 2.454046 1_554
Mn2 Si2 2.505282 1_655
Mn2 Si7 2.582004 1_554
Mn2 Si7 2.582004 1_565
Mn2 Si6 2.661825 1_655
Mn2 Si9 2.984999 1_654
Mn2 Si8 2.984999 1_665
Mn3 Si5 2.454046 1_556
Mn3 Si3 2.505282 1_455
Mn3 Si6 2.582004 1_556
Mn3 Si6 2.582004 1_545
Mn3 Si7 2.661825 1_455
Mn3 Si8 2.984999 1_556
Mn3 Si9 2.984999 1_545
Mn4 Si3 2.280517 1_565
Mn4 Si4 2.363860 1_555
Mn4 Si9 2.438668 1_655
Mn4 Si8 2.438670 1_666
Mn4 Si2 2.517525 1_555
Mn4 Si1 2.635840 1_555
Mn4 Si1 2.635844 1_566
Mn5 Si2 2.280517 1_545
Mn5 Si5 2.363860 1_555
Mn5 Si8 2.438668 1_555
Mn5 Si9 2.438670 1_544
Mn5 Si3 2.517525 1_555
Mn5 Si0 2.635840 1_555
Mn5 Si0 2.635844 1_544
Mn6 Si1 2.280523 1_555
Mn6 Si6 2.363853 1_655
Mn6 Si9 2.438675 1_655
Mn6 Si8 2.438675 1_655
Mn6 Si0 2.517522 1_554
Mn6 Si3 2.635841 1_554
Mn6 Si3 2.635841 1_565
Mn7 Si0 2.280523 1_555
Mn7 Si7 2.363853 1_455
Mn7 Si8 2.438675 1_555
Mn7 Si9 2.438675 1_555
Mn7 Si1 2.517522 1_556
Mn7 Si2 2.635841 1_545
Mn7 Si2 2.635841 1_556
Si0 Ti3 2.544410 1_556
Si0 Ti0 2.544410 1_555
Si1 Ti2 2.544410 1_555
Si1 Ti1 2.544410 1_554
Si2 Ti2 2.544410 1_555
Si2 Ti1 2.544410 1_565
Si3 Ti3 2.544410 1_545
Si3 Ti0 2.544410 1_555
Si4 Ti0 2.554242 1_555
Si4 Ti3 2.554242 1_556
Si4 Ti2 2.569283 1_555
Si4 Ti1 2.569283 1_565
Si5 Ti1 2.554242 1_554
Si5 Ti2 2.554242 1_555
Si5 Ti0 2.569283 1_555
Si5 Ti3 2.569283 1_545
Si6 Ti2 2.554242 1_555
Si6 Ti1 2.554242 1_565
Si6 Ti0 2.569283 1_454
Si6 Ti3 2.569283 1_455
Si7 Ti0 2.554242 1_555
Si7 Ti3 2.554242 1_545
Si7 Ti2 2.569283 1_656
Si7 Ti1 2.569283 1_655
Si8 Si9 2.417561 1_555
Si8 Si9 2.417561 1_544
