# generated using pymatgen
data_CaYNb2O7
_symmetry_space_group_name_H-M   'P 1'
_cell_length_a   7.42782623
_cell_length_b   7.42782623
_cell_length_c   7.42782623
_cell_angle_alpha   121.00465525
_cell_angle_beta   119.44136980
_cell_angle_gamma   89.61953068
_symmetry_Int_Tables_number   1
_chemical_formula_structural   CaYNb2O7
_chemical_formula_sum   'Ca2 Y2 Nb4 O14'
_cell_volume   288.72975348
_cell_formula_units_Z   2
loop_
 _symmetry_equiv_pos_site_id
 _symmetry_equiv_pos_as_xyz
  1  'x, y, z'
loop_
 _atom_site_type_symbol
 _atom_site_label
 _atom_site_symmetry_multiplicity
 _atom_site_fract_x
 _atom_site_fract_y
 _atom_site_fract_z
 _atom_site_occupancy
  Ca  Ca0  1  0.50000000  0.50000000  0.50000000  1
  Ca  Ca1  1  0.50000000  0.00000000  0.00000000  1
  Y  Y0  1  0.50000000  0.50000000  0.00000000  1
  Y  Y1  1  0.00000000  0.50000000  0.50000000  1
  Nb  Nb0  1  0.00000000  0.00000000  0.50000000  1
  Nb  Nb1  1  0.00000000  0.50000000  0.00000000  1
  Nb  Nb2  1  0.00000000  0.00000000  0.00000000  1
  Nb  Nb3  1  0.50000000  0.00000000  0.50000000  1
  O  O0  1  0.36720300  0.61720300  0.75000000  1
  O  O1  1  0.63279700  0.38279700  0.25000000  1
  O  O2  1  0.31933900  0.06933900  0.25000000  1
  O  O3  1  0.91122000  0.66122000  0.25000000  1
  O  O4  1  0.32994800  0.66990000  0.24654500  1
  O  O5  1  0.92335500  0.08340300  0.25345500  1
  O  O6  1  0.32994800  0.08340300  0.66004900  1
  O  O7  1  0.92335500  0.66990000  0.83995100  1
  O  O8  1  0.68066100  0.93066100  0.75000000  1
  O  O9  1  0.08878000  0.33878000  0.75000000  1
  O  O10  1  0.67005200  0.33010000  0.75345500  1
  O  O11  1  0.07664500  0.91659700  0.74654500  1
  O  O12  1  0.67005200  0.91659700  0.33995100  1
  O  O13  1  0.07664500  0.33010000  0.16004900  1
loop_
_geom_bond_atom_site_label_1
_geom_bond_atom_site_label_2
_geom_bond_distance
_geom_bond_site_symmetry_2
Ca0 O1 2.302816 1_555
Ca0 O0 2.302816 1_555
Ca0 O7 2.611722 1_555
Ca0 O13 2.611722 1_555
Ca0 O10 2.611723 1_555
Ca0 O4 2.611723 1_555
Ca0 O8 2.639981 1_555
Ca0 O2 2.639981 1_555
Ca1 O1 2.302816 1_555
Ca1 O0 2.302816 1_544
Ca1 O6 2.611716 1_554
Ca1 O12 2.611716 1_545
Ca1 O5 2.611723 1_555
Ca1 O11 2.611723 1_544
Ca1 O8 2.639981 1_544
Ca1 O2 2.639981 1_555
Nb0 O6 2.049561 1_555
Nb0 O12 2.049561 1_445
Nb0 O5 2.049562 1_455
Nb0 O11 2.049562 1_545
Nb0 O3 2.054167 1_445
Nb0 O9 2.054167 1_555
Nb1 O4 2.049562 1_555
Nb1 O10 2.049562 1_454
Nb1 O13 2.049568 1_555
Nb1 O7 2.049568 1_454
Nb1 O3 2.054167 1_455
Nb1 O9 2.054167 1_554
Nb2 O8 2.010158 1_444
Nb2 O2 2.010158 1_555
Nb2 O7 2.024739 1_444
Nb2 O13 2.024739 1_555
Nb2 O11 2.024740 1_544
Nb2 O5 2.024740 1_455
Nb3 O2 2.010158 1_555
Nb3 O8 2.010158 1_545
Nb3 O10 2.024740 1_555
Nb3 O4 2.024740 1_545
Nb3 O12 2.024746 1_545
Nb3 O6 2.024746 1_555
O0 Y0 2.243326 1_556
O0 Y1 2.243326 1_555
O1 Y0 2.243326 1_555
O1 Y1 2.243326 1_655
O3 Y1 2.528598 1_655
O3 Y0 2.528598 1_555
O4 Y0 2.532510 1_555
O5 Y1 2.532510 1_655
O6 Y0 2.532509 1_556
O7 Y1 2.532504 1_655
O9 Y0 2.528598 1_556
O9 Y1 2.528598 1_555
O10 Y0 2.532510 1_556
O11 Y1 2.532510 1_555
O12 Y0 2.532509 1_555
O13 Y1 2.532504 1_555
