# generated using pymatgen
data_Sr2VAs2O9
_symmetry_space_group_name_H-M   'P 1'
_cell_length_a   9.10983086
_cell_length_b   9.10983086
_cell_length_c   7.01112922
_cell_angle_alpha   77.75906716
_cell_angle_beta   77.75906716
_cell_angle_gamma   130.55023880
_symmetry_Int_Tables_number   1
_chemical_formula_structural   Sr2VAs2O9
_chemical_formula_sum   'Sr4 V2 As4 O18'
_cell_volume   381.09555751
_cell_formula_units_Z   2
loop_
 _symmetry_equiv_pos_site_id
 _symmetry_equiv_pos_as_xyz
  1  'x, y, z'
loop_
 _atom_site_type_symbol
 _atom_site_label
 _atom_site_symmetry_multiplicity
 _atom_site_fract_x
 _atom_site_fract_y
 _atom_site_fract_z
 _atom_site_occupancy
  Sr  Sr0  1  0.04318300  0.95457600  0.25125400  1
  Sr  Sr1  1  0.95457600  0.04318300  0.75125400  1
  Sr  Sr2  1  0.62497800  0.37704700  0.25002100  1
  Sr  Sr3  1  0.37704700  0.62497800  0.75002100  1
  V  V0  1  0.46922200  0.97783400  0.02501500  1
  V  V1  1  0.97783400  0.46922200  0.52501500  1
  As  As0  1  0.42178000  0.57653400  0.25082400  1
  As  As1  1  0.57653400  0.42178000  0.75082400  1
  As  As2  1  0.83738600  0.16148000  0.24999200  1
  As  As3  1  0.16148000  0.83738600  0.74999200  1
  O  O0  1  0.22748700  0.50452100  0.48492100  1
  O  O1  1  0.49442400  0.77343500  0.01872500  1
  O  O2  1  0.77343500  0.49442400  0.51872500  1
  O  O3  1  0.50452100  0.22748700  0.98492100  1
  O  O4  1  0.21161100  0.78583800  0.24572900  1
  O  O5  1  0.78583800  0.21161100  0.74572900  1
  O  O6  1  0.65245100  0.69195100  0.27121800  1
  O  O7  1  0.30738300  0.34686800  0.22864100  1
  O  O8  1  0.34686800  0.30738300  0.72864100  1
  O  O9  1  0.69195100  0.65245100  0.77121800  1
  O  O10  1  0.39383000  0.93800600  0.77312600  1
  O  O11  1  0.06321300  0.60442100  0.73162600  1
  O  O12  1  0.60442100  0.06321300  0.23162600  1
  O  O13  1  0.93800600  0.39383000  0.27312600  1
  O  O14  1  0.98568400  0.78413000  0.97792400  1
  O  O15  1  0.21606200  0.01324500  0.52109500  1
  O  O16  1  0.01324500  0.21606200  0.02109500  1
  O  O17  1  0.78413000  0.98568400  0.47792400  1
loop_
_geom_bond_atom_site_label_1
_geom_bond_atom_site_label_2
_geom_bond_distance
_geom_bond_site_symmetry_2
As0 O7 1.690958 1_555
As0 O6 1.691182 1_555
As0 O0 1.748939 1_555
As0 O1 1.750892 1_555
As1 O8 1.690958 1_555
As1 O9 1.691182 1_555
As1 O3 1.748939 1_555
As1 O2 1.750892 1_555
As2 O16 1.710236 1_655
As2 O17 1.711623 1_545
As2 O12 1.736812 1_555
As2 O13 1.741472 1_555
As3 O15 1.710236 1_565
As3 O14 1.711623 1_455
As3 O11 1.736812 1_555
As3 O10 1.741472 1_555
O0 V1 2.023490 1_455
O0 Sr3 2.551431 1_555
O0 Sr1 2.906644 1_455
O1 V0 2.026875 1_555
O1 Sr3 2.564349 1_554
O1 Sr1 2.906226 1_564
O2 V1 2.026875 1_555
O2 Sr2 2.564349 1_555
O2 Sr0 2.906226 1_655
O3 V0 2.023490 1_546
O3 Sr2 2.551431 1_556
O3 Sr0 2.906644 1_546
O4 V0 1.713643 1_555
O4 V1 2.130464 1_455
O4 Sr0 2.790226 1_555
O5 V1 1.713643 1_555
O5 V0 2.130464 1_546
O5 Sr1 2.790226 1_555
O6 Sr0 2.643395 1_655
O6 Sr2 2.752694 1_555
O7 Sr0 2.646439 1_545
O7 Sr2 2.763335 1_555
O8 Sr1 2.646439 1_455
O8 Sr3 2.763335 1_555
O9 Sr1 2.643395 1_565
O9 Sr3 2.752694 1_555
O10 V0 2.045541 1_556
O10 Sr3 2.796592 1_555
O11 V1 2.051590 1_455
O11 Sr3 2.774147 1_555
O12 V0 2.051590 1_545
O12 Sr2 2.774147 1_555
O13 V1 2.045541 1_555
O13 Sr2 2.796592 1_555
O14 Sr2 2.585921 1_556
O14 Sr0 2.643423 1_656
O14 Sr1 2.765024 1_565
O15 Sr2 2.597515 1_555
O15 Sr0 2.634957 1_545
O15 Sr1 2.784607 1_455
O16 Sr3 2.597515 1_554
O16 Sr1 2.634957 1_454
O16 Sr0 2.784607 1_545
O17 Sr3 2.585921 1_555
O17 Sr1 2.643423 1_565
O17 Sr0 2.765024 1_655
