# generated using pymatgen
data_RbCeMg14O16
_symmetry_space_group_name_H-M   'P 1'
_cell_length_a   8.79997263
_cell_length_b   8.96455197
_cell_length_c   4.55092106
_cell_angle_alpha   90.00000000
_cell_angle_beta   90.00000000
_cell_angle_gamma   90.00000000
_symmetry_Int_Tables_number   1
_chemical_formula_structural   RbCeMg14O16
_chemical_formula_sum   'Rb1 Ce1 Mg14 O16'
_cell_volume   359.01220490
_cell_formula_units_Z   1
loop_
 _symmetry_equiv_pos_site_id
 _symmetry_equiv_pos_as_xyz
  1  'x, y, z'
loop_
 _atom_site_type_symbol
 _atom_site_label
 _atom_site_symmetry_multiplicity
 _atom_site_fract_x
 _atom_site_fract_y
 _atom_site_fract_z
 _atom_site_occupancy
  Rb  Rb0  1  -0.00000000  0.50000000  0.00000000  1
  Ce  Ce0  1  -0.00000000  0.00000000  0.00000000  1
  Mg  Mg0  1  0.50000000  0.00000000  0.00000000  1
  Mg  Mg1  1  0.50000000  0.50000000  0.00000000  1
  Mg  Mg2  1  -0.00000000  0.26626798  0.50000000  1
  Mg  Mg3  1  -0.00000000  0.73373202  0.50000000  1
  Mg  Mg4  1  0.50000000  0.25345655  0.50000000  1
  Mg  Mg5  1  0.50000000  0.74654345  0.50000000  1
  Mg  Mg6  1  0.26690229  -0.00000000  0.50000000  1
  Mg  Mg7  1  0.25734166  0.50000000  0.50000000  1
  Mg  Mg8  1  0.73309771  0.00000000  0.50000000  1
  Mg  Mg9  1  0.74265834  0.50000000  0.50000000  1
  Mg  Mg10  1  0.26454401  0.25896479  0.00000000  1
  Mg  Mg11  1  0.26454401  0.74103521  -0.00000000  1
  Mg  Mg12  1  0.73545599  0.25896479  0.00000000  1
  Mg  Mg13  1  0.73545599  0.74103521  -0.00000000  1
  O  O0  1  0.26834893  0.00000000  -0.00000000  1
  O  O1  1  0.28219273  0.50000000  0.00000000  1
  O  O2  1  0.73165107  0.00000000  0.00000000  1
  O  O3  1  0.71780727  0.50000000  -0.00000000  1
  O  O4  1  0.25034222  0.24977103  0.50000000  1
  O  O5  1  0.25034222  0.75022897  0.50000000  1
  O  O6  1  0.74965778  0.24977103  0.50000000  1
  O  O7  1  0.74965778  0.75022897  0.50000000  1
  O  O8  1  -0.00000000  0.00000000  0.50000000  1
  O  O9  1  -0.00000000  0.50000000  0.50000000  1
  O  O10  1  0.50000000  0.00000000  0.50000000  1
  O  O11  1  0.50000000  0.50000000  0.50000000  1
  O  O12  1  -0.00000000  0.23644016  0.00000000  1
  O  O13  1  -0.00000000  0.76355984  0.00000000  1
  O  O14  1  0.50000000  0.24498835  0.00000000  1
  O  O15  1  0.50000000  0.75501165  -0.00000000  1
loop_
_geom_bond_atom_site_label_1
_geom_bond_atom_site_label_2
_geom_bond_distance
_geom_bond_site_symmetry_2
Ce0 O13 2.119580 1_545
Ce0 O12 2.119580 1_555
Ce0 O8 2.275461 1_554
Ce0 O8 2.275461 1_555
Ce0 O2 2.361463 1_455
Ce0 O0 2.361463 1_555
Mg0 O0 2.038523 1_555
Mg0 O2 2.038523 1_555
Mg0 O15 2.196211 1_545
Mg0 O14 2.196211 1_555
Mg0 O10 2.275461 1_555
Mg0 O10 2.275461 1_554
Mg1 O3 1.916698 1_555
Mg1 O1 1.916698 1_555
Mg1 O11 2.275461 1_554
Mg1 O11 2.275461 1_555
Mg1 O15 2.286065 1_555
Mg1 O14 2.286065 1_555
Mg2 O9 2.095303 1_555
Mg2 O6 2.207963 1_455
Mg2 O4 2.207963 1_555
Mg2 O12 2.291118 1_556
Mg2 O12 2.291118 1_555
Mg2 O8 2.386973 1_555
Mg3 O9 2.095303 1_555
Mg3 O7 2.207963 1_455
Mg3 O5 2.207963 1_555
Mg3 O13 2.291118 1_555
Mg3 O13 2.291118 1_556
Mg3 O8 2.386973 1_565
Mg4 O4 2.197230 1_555
Mg4 O6 2.197230 1_555
Mg4 O11 2.210152 1_555
Mg4 O10 2.272124 1_555
Mg4 O14 2.276726 1_556
Mg4 O14 2.276726 1_555
Mg5 O5 2.197230 1_555
Mg5 O7 2.197230 1_555
Mg5 O11 2.210152 1_555
Mg5 O10 2.272124 1_565
Mg5 O15 2.276726 1_556
Mg5 O15 2.276726 1_555
Mg6 O10 2.051253 1_555
Mg6 O5 2.243823 1_545
Mg6 O4 2.243823 1_555
Mg6 O0 2.275496 1_555
Mg6 O0 2.275496 1_556
Mg6 O8 2.348733 1_555
Mg7 O11 2.135387 1_555
Mg7 O4 2.244036 1_555
Mg7 O5 2.244036 1_555
Mg7 O9 2.264600 1_555
Mg7 O1 2.285945 1_556
Mg7 O1 2.285945 1_555
Mg8 O10 2.051253 1_555
Mg8 O6 2.243823 1_555
Mg8 O7 2.243823 1_545
Mg8 O2 2.275496 1_555
Mg8 O2 2.275496 1_556
Mg8 O8 2.348733 1_655
Mg9 O11 2.135387 1_555
Mg9 O6 2.244036 1_555
Mg9 O7 2.244036 1_555
Mg9 O9 2.264600 1_655
Mg9 O3 2.285945 1_555
Mg9 O3 2.285945 1_556
Mg10 O14 2.075791 1_555
Mg10 O1 2.166347 1_555
Mg10 O4 2.280380 1_554
Mg10 O4 2.280380 1_555
Mg10 O0 2.321745 1_555
Mg10 O12 2.336721 1_555
Mg11 O15 2.075791 1_555
Mg11 O1 2.166347 1_555
Mg11 O5 2.280380 1_555
Mg11 O5 2.280380 1_554
Mg11 O0 2.321745 1_565
Mg11 O13 2.336721 1_555
Mg12 O14 2.075791 1_555
Mg12 O3 2.166347 1_555
Mg12 O6 2.280380 1_555
Mg12 O6 2.280380 1_554
Mg12 O2 2.321745 1_555
Mg12 O12 2.336721 1_655
Mg13 O15 2.075791 1_555
Mg13 O3 2.166347 1_555
Mg13 O7 2.280380 1_555
Mg13 O7 2.280380 1_554
Mg13 O2 2.321745 1_565
Mg13 O13 2.336721 1_655
O1 Rb0 2.483288 1_555
O3 Rb0 2.483288 1_655
O9 Rb0 2.275461 1_555
O9 Rb0 2.275461 1_556
O12 Rb0 2.362696 1_555
O13 Rb0 2.362696 1_555
