# generated using pymatgen
data_Lu2MgS4
_symmetry_space_group_name_H-M   'P 1'
_cell_length_a   7.72917160
_cell_length_b   7.72917185
_cell_length_c   7.72917084
_cell_angle_alpha   59.99999566
_cell_angle_beta   59.99999453
_cell_angle_gamma   59.99999237
_symmetry_Int_Tables_number   1
_chemical_formula_structural   Lu2MgS4
_chemical_formula_sum   'Lu4 Mg2 S8'
_cell_volume   326.50043527
_cell_formula_units_Z   2
loop_
 _symmetry_equiv_pos_site_id
 _symmetry_equiv_pos_as_xyz
  1  'x, y, z'
loop_
 _atom_site_type_symbol
 _atom_site_label
 _atom_site_symmetry_multiplicity
 _atom_site_fract_x
 _atom_site_fract_y
 _atom_site_fract_z
 _atom_site_occupancy
  Lu  Lu0  1  0.50000000  0.50000000  0.50000000  1
  Lu  Lu1  1  0.50000000  -0.00000000  0.50000000  1
  Lu  Lu2  1  -0.00000000  0.50000000  0.50000000  1
  Lu  Lu3  1  0.50000000  0.50000000  -0.00000000  1
  Mg  Mg0  1  0.87500000  0.87500000  0.87500000  1
  Mg  Mg1  1  0.12500000  0.12500000  0.12500000  1
  S  S0  1  0.25599284  0.25599284  0.73202248  1
  S  S1  1  0.74400716  0.74400716  0.74400716  1
  S  S2  1  0.74400716  0.74400716  0.26797752  1
  S  S3  1  0.25599284  0.73202248  0.25599284  1
  S  S4  1  0.25599284  0.25599284  0.25599284  1
  S  S5  1  0.26797752  0.74400716  0.74400716  1
  S  S6  1  0.74400716  0.26797752  0.74400716  1
  S  S7  1  0.73202248  0.25599284  0.25599284  1
loop_
_geom_bond_atom_site_label_1
_geom_bond_atom_site_label_2
_geom_bond_distance
_geom_bond_site_symmetry_2
Lu0 S3 2.668777 1_555
Lu0 S6 2.668777 1_555
Lu0 S7 2.668777 1_555
Lu0 S5 2.668777 1_555
Lu0 S0 2.668777 1_555
Lu0 S2 2.668777 1_555
Lu1 S4 2.668777 1_555
Lu1 S1 2.668777 1_545
Lu1 S0 2.668782 1_555
Lu1 S2 2.668782 1_545
Lu1 S5 2.668783 1_545
Lu1 S7 2.668783 1_555
Lu2 S1 2.668777 1_455
Lu2 S4 2.668777 1_555
Lu2 S2 2.668782 1_455
Lu2 S0 2.668782 1_555
Lu2 S6 2.668783 1_455
Lu2 S3 2.668783 1_555
Lu3 S4 2.668777 1_555
Lu3 S1 2.668777 1_554
Lu3 S6 2.668782 1_554
Lu3 S3 2.668782 1_555
Lu3 S5 2.668782 1_554
Lu3 S7 2.668782 1_555
Mg0 S2 2.480019 1_556
Mg0 S5 2.480019 1_655
Mg0 S6 2.480019 1_565
Mg0 S1 2.480025 1_555
Mg1 S0 2.480019 1_554
Mg1 S7 2.480019 1_455
Mg1 S3 2.480019 1_545
Mg1 S4 2.480025 1_555
