# generated using pymatgen
data_Li2CePr(MoO4)4
_symmetry_space_group_name_H-M   'P 1'
_cell_length_a   5.32237300
_cell_length_b   5.32237300
_cell_length_c   11.53725500
_cell_angle_alpha   90.00000000
_cell_angle_beta   90.00000000
_cell_angle_gamma   90.00000000
_symmetry_Int_Tables_number   1
_chemical_formula_structural   Li2CePr(MoO4)4
_chemical_formula_sum   'Li2 Ce1 Pr1 Mo4 O16'
_cell_volume   326.82337180
_cell_formula_units_Z   1
loop_
 _symmetry_equiv_pos_site_id
 _symmetry_equiv_pos_as_xyz
  1  'x, y, z'
loop_
 _atom_site_type_symbol
 _atom_site_label
 _atom_site_symmetry_multiplicity
 _atom_site_fract_x
 _atom_site_fract_y
 _atom_site_fract_z
 _atom_site_occupancy
  Li  Li0  1  0.00000000  0.50000000  0.75005400  1
  Li  Li1  1  0.50000000  0.00000000  0.24994600  1
  Ce  Ce0  1  0.50000000  0.50000000  0.00000000  1
  Pr  Pr0  1  0.00000000  0.00000000  0.50000000  1
  Mo  Mo0  1  0.50000000  0.00000000  0.75030400  1
  Mo  Mo1  1  0.00000000  0.50000000  0.24969600  1
  Mo  Mo2  1  0.00000000  0.00000000  0.00000000  1
  Mo  Mo3  1  0.50000000  0.50000000  0.50000000  1
  O  O0  1  0.35419600  0.24297500  0.83660400  1
  O  O1  1  0.85346300  0.74230900  0.33615500  1
  O  O2  1  0.64580400  0.75702500  0.83660400  1
  O  O3  1  0.14653700  0.25769100  0.33615500  1
  O  O4  1  0.24601200  0.14945400  0.08364900  1
  O  O5  1  0.74560200  0.64845200  0.58389000  1
  O  O6  1  0.75398800  0.85054600  0.08364900  1
  O  O7  1  0.25439800  0.35154800  0.58389000  1
  O  O8  1  0.14945400  0.75398800  0.91635100  1
  O  O9  1  0.64845200  0.25439800  0.41611000  1
  O  O10  1  0.85054600  0.24601200  0.91635100  1
  O  O11  1  0.35154800  0.74560200  0.41611000  1
  O  O12  1  0.25769100  0.85346300  0.66384500  1
  O  O13  1  0.75702500  0.35419600  0.16339600  1
  O  O14  1  0.74230900  0.14653700  0.66384500  1
  O  O15  1  0.24297500  0.64580400  0.16339600  1
loop_
_geom_bond_atom_site_label_1
_geom_bond_atom_site_label_2
_geom_bond_distance
_geom_bond_site_symmetry_2
Li0 O7 2.476446 1_555
Li0 O5 2.476446 1_455
Li0 O10 2.478149 1_455
Li0 O8 2.478149 1_555
Li0 O12 2.531698 1_555
Li0 O14 2.531698 1_455
Li0 O2 2.534229 1_455
Li0 O0 2.534229 1_555
Li1 O9 2.476446 1_555
Li1 O11 2.476446 1_545
Li1 O4 2.478149 1_555
Li1 O6 2.478149 1_545
Li1 O1 2.531698 1_545
Li1 O3 2.531698 1_555
Li1 O13 2.534229 1_555
Li1 O15 2.534229 1_545
Ce0 O2 2.455066 1_554
Ce0 O13 2.455066 1_555
Ce0 O15 2.455066 1_555
Ce0 O0 2.455066 1_554
Ce0 O8 2.497952 1_554
Ce0 O6 2.497952 1_555
Ce0 O10 2.497952 1_554
Ce0 O4 2.497952 1_555
Mo0 O0 1.807190 1_555
Mo0 O2 1.807190 1_545
Mo0 O14 1.807348 1_555
Mo0 O12 1.807348 1_545
Mo1 O15 1.807190 1_555
Mo1 O13 1.807190 1_455
Mo1 O1 1.807348 1_455
Mo1 O3 1.807348 1_555
Mo2 O6 1.810680 1_445
Mo2 O10 1.810680 1_454
Mo2 O4 1.810680 1_555
Mo2 O8 1.810680 1_544
Mo3 O7 1.808251 1_555
Mo3 O11 1.808251 1_555
Mo3 O5 1.808251 1_555
Mo3 O9 1.808251 1_555
O1 Pr0 2.462252 1_665
O3 Pr0 2.462252 1_555
O5 Pr0 2.504191 1_665
O7 Pr0 2.504191 1_555
O9 Pr0 2.504191 1_655
O11 Pr0 2.504191 1_565
O12 Pr0 2.462252 1_565
O14 Pr0 2.462252 1_655
