# generated using pymatgen
data_Tb6(Ga3Co)7
_symmetry_space_group_name_H-M   'P 1'
_cell_length_a   16.69229200
_cell_length_b   16.69229200
_cell_length_c   4.14431200
_cell_angle_alpha   90.00000000
_cell_angle_beta   90.00000000
_cell_angle_gamma   90.00000000
_symmetry_Int_Tables_number   1
_chemical_formula_structural   Tb6(Ga3Co)7
_chemical_formula_sum   'Tb12 Ga42 Co14'
_cell_volume   1154.74047839
_cell_formula_units_Z   2
loop_
 _symmetry_equiv_pos_site_id
 _symmetry_equiv_pos_as_xyz
  1  'x, y, z'
loop_
 _atom_site_type_symbol
 _atom_site_label
 _atom_site_symmetry_multiplicity
 _atom_site_fract_x
 _atom_site_fract_y
 _atom_site_fract_z
 _atom_site_occupancy
  Tb  Tb0  1  0.10729400  0.60729400  0.50000000  1
  Tb  Tb1  1  0.89270600  0.39270600  0.50000000  1
  Tb  Tb2  1  0.39270600  0.10729400  0.50000000  1
  Tb  Tb3  1  0.60729400  0.89270600  0.50000000  1
  Tb  Tb4  1  0.65777600  0.58684100  0.00000000  1
  Tb  Tb5  1  0.34222400  0.41315900  0.00000000  1
  Tb  Tb6  1  0.84222400  0.08684100  0.00000000  1
  Tb  Tb7  1  0.15777600  0.91315900  0.00000000  1
  Tb  Tb8  1  0.58684100  0.34222400  0.00000000  1
  Tb  Tb9  1  0.41315900  0.65777600  0.00000000  1
  Tb  Tb10  1  0.08684100  0.15777600  0.00000000  1
  Tb  Tb11  1  0.91315900  0.84222400  0.00000000  1
  Ga  Ga0  1  0.00000000  0.50000000  0.00000000  1
  Ga  Ga1  1  0.50000000  0.00000000  0.00000000  1
  Ga  Ga2  1  0.32045500  0.82045500  0.00000000  1
  Ga  Ga3  1  0.67954500  0.17954500  0.00000000  1
  Ga  Ga4  1  0.17954500  0.32045500  0.00000000  1
  Ga  Ga5  1  0.82045500  0.67954500  0.00000000  1
  Ga  Ga6  1  0.42549500  0.92549500  0.50000000  1
  Ga  Ga7  1  0.57450500  0.07450500  0.50000000  1
  Ga  Ga8  1  0.07450500  0.42549500  0.50000000  1
  Ga  Ga9  1  0.92549500  0.57450500  0.50000000  1
  Ga  Ga10  1  0.57537800  0.75839600  0.00000000  1
  Ga  Ga11  1  0.42462200  0.24160400  0.00000000  1
  Ga  Ga12  1  0.92462200  0.25839600  0.00000000  1
  Ga  Ga13  1  0.07537800  0.74160400  0.00000000  1
  Ga  Ga14  1  0.75839600  0.42462200  0.00000000  1
  Ga  Ga15  1  0.24160400  0.57537800  0.00000000  1
  Ga  Ga16  1  0.25839600  0.07537800  0.00000000  1
  Ga  Ga17  1  0.74160400  0.92462200  0.00000000  1
  Ga  Ga18  1  0.53167000  0.60840300  0.50000000  1
  Ga  Ga19  1  0.46833000  0.39159700  0.50000000  1
  Ga  Ga20  1  0.96833000  0.10840300  0.50000000  1
  Ga  Ga21  1  0.03167000  0.89159700  0.50000000  1
  Ga  Ga22  1  0.60840300  0.46833000  0.50000000  1
  Ga  Ga23  1  0.39159700  0.53167000  0.50000000  1
  Ga  Ga24  1  0.10840300  0.03167000  0.50000000  1
  Ga  Ga25  1  0.89159700  0.96833000  0.50000000  1
  Ga  Ga26  1  0.67842000  0.71059700  0.50000000  1
  Ga  Ga27  1  0.32158000  0.28940300  0.50000000  1
  Ga  Ga28  1  0.82158000  0.21059700  0.50000000  1
  Ga  Ga29  1  0.17842000  0.78940300  0.50000000  1
  Ga  Ga30  1  0.71059700  0.32158000  0.50000000  1
  Ga  Ga31  1  0.28940300  0.67842000  0.50000000  1
  Ga  Ga32  1  0.21059700  0.17842000  0.50000000  1
  Ga  Ga33  1  0.78940300  0.82158000  0.50000000  1
  Ga  Ga34  1  0.77262000  0.54276400  0.50000000  1
  Ga  Ga35  1  0.22738000  0.45723600  0.50000000  1
  Ga  Ga36  1  0.72738000  0.04276400  0.50000000  1
  Ga  Ga37  1  0.27262000  0.95723600  0.50000000  1
  Ga  Ga38  1  0.54276400  0.22738000  0.50000000  1
  Ga  Ga39  1  0.45723600  0.77262000  0.50000000  1
  Ga  Ga40  1  0.04276400  0.27262000  0.50000000  1
  Ga  Ga41  1  0.95723600  0.72738000  0.50000000  1
  Co  Co0  1  0.21885100  0.71885100  0.00000000  1
  Co  Co1  1  0.78114900  0.28114900  0.00000000  1
  Co  Co2  1  0.28114900  0.21885100  0.00000000  1
  Co  Co3  1  0.71885100  0.78114900  0.00000000  1
  Co  Co4  1  0.96397500  0.64764000  0.00000000  1
  Co  Co5  1  0.03602500  0.35236000  0.00000000  1
  Co  Co6  1  0.53602500  0.14764000  0.00000000  1
  Co  Co7  1  0.46397500  0.85236000  0.00000000  1
  Co  Co8  1  0.64764000  0.03602500  0.00000000  1
  Co  Co9  1  0.35236000  0.96397500  0.00000000  1
  Co  Co10  1  0.14764000  0.46397500  0.00000000  1
  Co  Co11  1  0.85236000  0.53602500  0.00000000  1
  Co  Co12  1  0.50000000  0.50000000  0.00000000  1
  Co  Co13  1  0.00000000  0.00000000  0.00000000  1
loop_
_geom_bond_atom_site_label_1
_geom_bond_atom_site_label_2
_geom_bond_distance
_geom_bond_site_symmetry_2
Ga0 Ga8 2.717942 1_554
Ga0 Ga8 2.717942 1_555
Ga0 Ga9 2.717942 1_454
Ga0 Ga9 2.717942 1_455
Ga0 Tb0 3.272471 1_555
Ga0 Tb0 3.272471 1_554
Ga0 Tb1 3.272471 1_455
Ga0 Tb1 3.272471 1_454
Ga1 Ga6 2.717942 1_544
Ga1 Ga6 2.717942 1_545
Ga1 Ga7 2.717942 1_554
Ga1 Ga7 2.717942 1_555
Ga1 Tb2 3.272471 1_555
Ga1 Tb2 3.272471 1_554
Ga1 Tb3 3.272471 1_544
Ga1 Tb3 3.272471 1_545
Ga2 Tb9 3.125450 1_555
Ga2 Tb7 3.125450 1_555
Ga3 Tb8 3.125450 1_555
Ga3 Tb6 3.125450 1_555
Ga4 Tb5 3.125450 1_555
Ga4 Tb10 3.125450 1_555
Ga5 Tb4 3.125450 1_555
Ga5 Tb11 3.125450 1_555
Ga6 Tb3 3.083604 1_555
Ga6 Tb2 3.083604 1_565
Ga7 Tb3 3.083604 1_545
Ga7 Tb2 3.083604 1_555
Ga8 Tb0 3.083604 1_555
Ga8 Tb1 3.083604 1_455
Ga9 Tb1 3.083604 1_555
Ga9 Tb0 3.083604 1_655
Ga10 Ga26 2.808711 1_554
Ga10 Ga26 2.808711 1_555
Ga10 Ga39 2.870405 1_555
Ga10 Ga39 2.870405 1_554
Ga10 Tb3 3.099025 1_554
Ga10 Tb3 3.099025 1_555
Ga10 Tb4 3.176826 1_555
Ga10 Tb9 3.186409 1_555
Ga11 Ga27 2.808711 1_555
Ga11 Ga27 2.808711 1_554
Ga11 Ga38 2.870405 1_555
Ga11 Ga38 2.870405 1_554
Ga11 Tb2 3.099025 1_555
Ga11 Tb2 3.099025 1_554
Ga11 Tb5 3.176826 1_555
Ga11 Tb8 3.186409 1_555
Ga12 Ga28 2.808711 1_554
Ga12 Ga28 2.808711 1_555
Ga12 Ga40 2.870405 1_655
Ga12 Ga40 2.870405 1_654
Ga12 Tb1 3.099025 1_554
Ga12 Tb1 3.099025 1_555
Ga12 Tb6 3.176826 1_555
Ga12 Tb10 3.186409 1_655
Ga13 Ga29 2.808711 1_554
Ga13 Ga29 2.808711 1_555
Ga13 Ga41 2.870405 1_454
Ga13 Ga41 2.870405 1_455
Ga13 Tb0 3.099025 1_555
Ga13 Tb0 3.099025 1_554
Ga13 Tb7 3.176826 1_555
Ga13 Tb11 3.186409 1_455
Ga14 Ga30 2.808711 1_555
Ga14 Ga30 2.808711 1_554
Ga14 Ga34 2.870405 1_555
Ga14 Ga34 2.870405 1_554
Ga14 Tb1 3.099025 1_554
Ga14 Tb1 3.099025 1_555
Ga14 Tb8 3.176826 1_555
Ga14 Tb4 3.186409 1_555
Ga15 Ga31 2.808711 1_554
Ga15 Ga31 2.808711 1_555
Ga15 Ga35 2.870405 1_554
Ga15 Ga35 2.870405 1_555
Ga15 Tb0 3.099025 1_555
Ga15 Tb0 3.099025 1_554
Ga15 Tb9 3.176826 1_555
Ga15 Tb5 3.186409 1_555
Ga16 Ga32 2.808711 1_554
Ga16 Ga32 2.808711 1_555
Ga16 Ga37 2.870405 1_544
Ga16 Ga37 2.870405 1_545
Ga16 Tb2 3.099025 1_555
Ga16 Tb2 3.099025 1_554
Ga16 Tb10 3.176826 1_555
Ga16 Tb7 3.186409 1_545
Ga17 Ga33 2.808711 1_554
Ga17 Ga33 2.808711 1_555
Ga17 Ga36 2.870405 1_564
Ga17 Ga36 2.870405 1_565
Ga17 Tb3 3.099025 1_554
Ga17 Tb3 3.099025 1_555
Ga17 Tb11 3.176826 1_555
Ga17 Tb6 3.186409 1_565
Ga18 Ga22 2.665984 1_555
Ga18 Ga23 2.665984 1_555
Ga18 Tb4 2.975633 1_555
Ga18 Tb4 2.975633 1_556
Ga18 Tb9 2.981008 1_555
Ga18 Tb9 2.981008 1_556
Ga18 Ga26 2.985036 1_555
Ga18 Ga39 3.009600 1_555
Ga19 Ga22 2.665984 1_555
Ga19 Ga23 2.665984 1_555
Ga19 Tb5 2.975633 1_555
Ga19 Tb5 2.975633 1_556
Ga19 Tb8 2.981008 1_556
Ga19 Tb8 2.981008 1_555
Ga19 Ga27 2.985036 1_555
Ga19 Ga38 3.009600 1_555
Ga20 Ga25 2.665984 1_545
Ga20 Ga24 2.665984 1_655
Ga20 Tb6 2.975633 1_555
Ga20 Tb6 2.975633 1_556
Ga20 Tb10 2.981008 1_655
Ga20 Tb10 2.981008 1_656
Ga20 Ga28 2.985036 1_555
Ga20 Ga40 3.009600 1_655
Ga21 Ga25 2.665984 1_455
Ga21 Ga24 2.665984 1_565
Ga21 Tb7 2.975633 1_556
Ga21 Tb7 2.975633 1_555
Ga21 Tb11 2.981008 1_455
Ga21 Tb11 2.981008 1_456
Ga21 Ga29 2.985036 1_555
Ga21 Ga41 3.009600 1_455
Ga22 Tb8 2.975633 1_556
Ga22 Tb8 2.975633 1_555
Ga22 Tb4 2.981008 1_555
Ga22 Tb4 2.981008 1_556
Ga22 Ga30 2.985036 1_555
Ga22 Ga34 3.009600 1_555
Ga23 Tb9 2.975633 1_556
Ga23 Tb9 2.975633 1_555
Ga23 Tb5 2.981008 1_555
Ga23 Tb5 2.981008 1_556
Ga23 Ga31 2.985036 1_555
Ga23 Ga35 3.009600 1_555
Ga24 Tb10 2.975633 1_556
Ga24 Tb10 2.975633 1_555
Ga24 Tb7 2.981008 1_546
Ga24 Tb7 2.981008 1_545
Ga24 Ga32 2.985036 1_555
Ga24 Ga37 3.009600 1_545
Ga25 Tb11 2.975633 1_556
Ga25 Tb11 2.975633 1_555
Ga25 Tb6 2.981008 1_565
Ga25 Tb6 2.981008 1_566
Ga25 Ga33 2.985036 1_555
Ga25 Ga36 3.009600 1_565
Ga26 Tb4 2.946182 1_556
Ga26 Tb4 2.946182 1_555
Ga26 Tb3 3.263443 1_555
Ga27 Tb5 2.946182 1_556
Ga27 Tb5 2.946182 1_555
Ga27 Tb2 3.263443 1_555
Ga28 Tb6 2.946182 1_556
Ga28 Tb6 2.946182 1_555
Ga28 Tb1 3.263443 1_555
Ga29 Tb7 2.946182 1_555
Ga29 Tb7 2.946182 1_556
Ga29 Tb0 3.263443 1_555
Ga30 Tb8 2.946182 1_555
Ga30 Tb8 2.946182 1_556
Ga30 Tb1 3.263443 1_555
Ga31 Tb9 2.946182 1_555
Ga31 Tb9 2.946182 1_556
Ga31 Tb0 3.263443 1_555
Ga32 Tb10 2.946182 1_555
Ga32 Tb10 2.946182 1_556
Ga32 Tb2 3.263443 1_555
Ga33 Tb11 2.946182 1_556
Ga33 Tb11 2.946182 1_555
Ga33 Tb3 3.263443 1_555
Ga34 Ga9 2.606257 1_555
Ga34 Tb4 2.917204 1_556
Ga34 Tb4 2.917204 1_555
Ga34 Tb1 3.208137 1_555
Ga35 Ga8 2.606257 1_555
Ga35 Tb5 2.917204 1_555
Ga35 Tb5 2.917204 1_556
Ga35 Tb0 3.208137 1_555
Ga36 Ga7 2.606257 1_555
Ga36 Tb6 2.917204 1_555
Ga36 Tb6 2.917204 1_556
Ga36 Tb3 3.208137 1_545
Ga37 Ga6 2.606257 1_555
Ga37 Tb7 2.917204 1_556
Ga37 Tb7 2.917204 1_555
Ga37 Tb2 3.208137 1_565
Ga38 Ga7 2.606257 1_555
Ga38 Tb8 2.917204 1_556
Ga38 Tb8 2.917204 1_555
Ga38 Tb2 3.208137 1_555
Ga39 Ga6 2.606257 1_555
Ga39 Tb9 2.917204 1_555
Ga39 Tb9 2.917204 1_556
Ga39 Tb3 3.208137 1_555
Ga40 Ga8 2.606257 1_555
Ga40 Tb10 2.917204 1_556
Ga40 Tb10 2.917204 1_555
Ga40 Tb1 3.208137 1_455
Ga41 Ga9 2.606257 1_555
Ga41 Tb11 2.917204 1_556
Ga41 Tb11 2.917204 1_555
Ga41 Tb0 3.208137 1_655
Co0 Ga2 2.398511 1_555
Co0 Ga13 2.424822 1_555
Co0 Ga15 2.424822 1_555
Co0 Ga29 2.477139 1_554
Co0 Ga29 2.477139 1_555
Co0 Ga31 2.477139 1_555
Co0 Ga31 2.477139 1_554
Co0 Tb0 3.350966 1_555
Co0 Tb0 3.350966 1_554
Co1 Ga3 2.398511 1_555
Co1 Ga14 2.424822 1_555
Co1 Ga12 2.424822 1_555
Co1 Ga30 2.477139 1_555
Co1 Ga30 2.477139 1_554
Co1 Ga28 2.477139 1_555
Co1 Ga28 2.477139 1_554
Co1 Tb1 3.350966 1_554
Co1 Tb1 3.350966 1_555
Co2 Ga4 2.398511 1_555
Co2 Ga16 2.424822 1_555
Co2 Ga11 2.424822 1_555
Co2 Ga32 2.477139 1_555
Co2 Ga32 2.477139 1_554
Co2 Ga27 2.477139 1_554
Co2 Ga27 2.477139 1_555
Co2 Tb2 3.350966 1_555
Co2 Tb2 3.350966 1_554
Co3 Ga5 2.398511 1_555
Co3 Ga10 2.424822 1_555
Co3 Ga17 2.424822 1_555
Co3 Ga33 2.477139 1_555
Co3 Ga26 2.477139 1_554
Co3 Ga33 2.477139 1_554
Co3 Ga26 2.477139 1_555
Co3 Tb3 3.350966 1_554
Co3 Tb3 3.350966 1_555
Co4 Ga13 2.432718 1_655
Co4 Ga5 2.454160 1_555
Co4 Ga41 2.465393 1_554
Co4 Ga41 2.465393 1_555
Co4 Ga9 2.489324 1_554
Co4 Ga9 2.489324 1_555
Co4 Ga0 2.536754 1_655
Co4 Tb0 3.235830 1_655
Co4 Tb0 3.235830 1_654
Co5 Ga12 2.432718 1_455
Co5 Ga4 2.454160 1_555
Co5 Ga40 2.465393 1_554
Co5 Ga40 2.465393 1_555
Co5 Ga8 2.489324 1_555
Co5 Ga8 2.489324 1_554
Co5 Ga0 2.536754 1_555
Co5 Tb1 3.235830 1_455
Co5 Tb1 3.235830 1_454
Co6 Ga11 2.432718 1_555
Co6 Ga3 2.454160 1_555
Co6 Ga38 2.465393 1_554
Co6 Ga38 2.465393 1_555
Co6 Ga7 2.489324 1_555
Co6 Ga7 2.489324 1_554
Co6 Ga1 2.536754 1_555
Co6 Tb2 3.235830 1_555
Co6 Tb2 3.235830 1_554
Co7 Ga10 2.432718 1_555
Co7 Ga2 2.454160 1_555
Co7 Ga39 2.465393 1_554
Co7 Ga39 2.465393 1_555
Co7 Ga6 2.489324 1_555
Co7 Ga6 2.489324 1_554
Co7 Ga1 2.536754 1_565
Co7 Tb3 3.235830 1_555
Co7 Tb3 3.235830 1_554
Co8 Ga17 2.432718 1_545
Co8 Ga3 2.454160 1_555
Co8 Ga36 2.465393 1_554
Co8 Ga36 2.465393 1_555
Co8 Ga7 2.489324 1_554
Co8 Ga7 2.489324 1_555
Co8 Ga1 2.536754 1_555
Co8 Tb3 3.235830 1_544
Co8 Tb3 3.235830 1_545
Co9 Ga16 2.432718 1_565
Co9 Ga2 2.454160 1_555
Co9 Ga37 2.465393 1_554
Co9 Ga37 2.465393 1_555
Co9 Ga6 2.489324 1_554
Co9 Ga6 2.489324 1_555
Co9 Ga1 2.536754 1_565
Co9 Tb2 3.235830 1_565
Co9 Tb2 3.235830 1_564
Co10 Ga15 2.432718 1_555
Co10 Ga4 2.454160 1_555
Co10 Ga35 2.465393 1_554
Co10 Ga35 2.465393 1_555
Co10 Ga8 2.489324 1_555
Co10 Ga8 2.489324 1_554
Co10 Ga0 2.536754 1_555
Co10 Tb0 3.235830 1_554
Co10 Tb0 3.235830 1_555
Co11 Ga14 2.432718 1_555
Co11 Ga5 2.454160 1_555
Co11 Ga34 2.465393 1_554
Co11 Ga34 2.465393 1_555
Co11 Ga9 2.489324 1_554
Co11 Ga9 2.489324 1_555
Co11 Ga0 2.536754 1_655
Co11 Tb1 3.235830 1_554
Co11 Tb1 3.235830 1_555
Co12 Ga18 2.801351 1_555
Co12 Ga23 2.801351 1_555
Co12 Ga22 2.801351 1_554
Co12 Ga23 2.801351 1_554
Co12 Ga22 2.801351 1_555
Co12 Ga18 2.801351 1_554
Co12 Ga19 2.801351 1_554
Co12 Ga19 2.801351 1_555
Co12 Tb8 3.006218 1_555
Co12 Tb4 3.006218 1_555
Co12 Tb5 3.006218 1_555
Co12 Tb9 3.006218 1_555
Co13 Ga24 2.801351 1_554
Co13 Ga24 2.801351 1_555
Co13 Ga20 2.801351 1_454
Co13 Ga20 2.801351 1_455
Co13 Ga21 2.801351 1_545
Co13 Ga25 2.801351 1_444
Co13 Ga21 2.801351 1_544
Co13 Ga25 2.801351 1_445
Co13 Tb7 3.006218 1_545
Co13 Tb11 3.006218 1_445
Co13 Tb10 3.006218 1_555
Co13 Tb6 3.006218 1_455
