# generated using pymatgen
data_Mo6NO18
_symmetry_space_group_name_H-M   'P 1'
_cell_length_a   10.91061186
_cell_length_b   10.91061186
_cell_length_c   3.78931000
_cell_angle_alpha   90.00000000
_cell_angle_beta   90.00000000
_cell_angle_gamma   119.99999914
_symmetry_Int_Tables_number   1
_chemical_formula_structural   Mo6NO18
_chemical_formula_sum   'Mo6 N1 O18'
_cell_volume   390.65103904
_cell_formula_units_Z   1
loop_
 _symmetry_equiv_pos_site_id
 _symmetry_equiv_pos_as_xyz
  1  'x, y, z'
loop_
 _atom_site_type_symbol
 _atom_site_label
 _atom_site_symmetry_multiplicity
 _atom_site_fract_x
 _atom_site_fract_y
 _atom_site_fract_z
 _atom_site_occupancy
  Mo  Mo0  1  0.10456500  0.45905800  0.25003600  1
  Mo  Mo1  1  0.35449300  0.89543500  0.25003600  1
  Mo  Mo2  1  0.54094200  0.64550700  0.25003600  1
  Mo  Mo3  1  0.89546900  0.54103000  0.74997400  1
  Mo  Mo4  1  0.64556100  0.10453100  0.74997400  1
  Mo  Mo5  1  0.45897000  0.35443900  0.74997400  1
  N  N0  1  0.00000000  0.00000000  0.39516500  1
  O  O0  1  0.21777800  0.71928800  0.24998600  1
  O  O1  1  0.50151000  0.78222200  0.24998600  1
  O  O2  1  0.28071200  0.49849000  0.24998600  1
  O  O3  1  0.78220200  0.28069600  0.75001000  1
  O  O4  1  0.49849400  0.21779800  0.75001000  1
  O  O5  1  0.71930400  0.50150600  0.75001000  1
  O  O6  1  0.92240200  0.50160800  0.25000500  1
  O  O7  1  0.57920700  0.07759800  0.25000500  1
  O  O8  1  0.49839200  0.42079300  0.25000500  1
  O  O9  1  0.07760100  0.49840400  0.74999400  1
  O  O10  1  0.42080300  0.92239900  0.74999400  1
  O  O11  1  0.50159600  0.57919700  0.74999400  1
  O  O12  1  0.01157000  0.27907700  0.24980300  1
  O  O13  1  0.26750700  0.98843000  0.24980300  1
  O  O14  1  0.72092300  0.73249300  0.24980300  1
  O  O15  1  0.98838300  0.72102300  0.75013700  1
  O  O16  1  0.73264000  0.01161700  0.75013700  1
  O  O17  1  0.27897700  0.26736000  0.75013700  1
loop_
_geom_bond_atom_site_label_1
_geom_bond_atom_site_label_2
_geom_bond_distance
_geom_bond_site_symmetry_2
Mo0 O12 1.700933 1_555
Mo0 O2 1.746953 1_555
Mo0 O9 1.996559 1_555
Mo0 O9 1.996861 1_554
Mo0 O6 2.255751 1_455
Mo0 O0 2.465784 1_555
Mo1 O13 1.700933 1_555
Mo1 O0 1.746953 1_555
Mo1 O10 1.996559 1_555
Mo1 O10 1.996861 1_554
Mo1 O7 2.255759 1_565
Mo1 O1 2.465784 1_555
Mo2 O14 1.700933 1_555
Mo2 O1 1.746953 1_555
Mo2 O11 1.996559 1_555
Mo2 O11 1.996861 1_554
Mo2 O8 2.255762 1_555
Mo2 O2 2.465784 1_555
Mo3 O15 1.701028 1_555
Mo3 O5 1.746840 1_555
Mo3 O6 1.996752 1_555
Mo3 O6 1.996975 1_556
Mo3 O9 2.255955 1_655
Mo3 O3 2.466763 1_555
Mo4 O16 1.701028 1_555
Mo4 O3 1.746840 1_555
Mo4 O7 1.996749 1_555
Mo4 O7 1.996972 1_556
Mo4 O10 2.255955 1_545
Mo4 O4 2.466763 1_555
Mo5 O17 1.701028 1_555
Mo5 O4 1.746840 1_555
Mo5 O8 1.996749 1_555
Mo5 O8 1.996972 1_556
Mo5 O11 2.255955 1_555
Mo5 O5 2.466763 1_555
