# generated using pymatgen
data_BaYMnCuO5
_symmetry_space_group_name_H-M   'P 1'
_cell_length_a   3.83927901
_cell_length_b   8.89314567
_cell_length_c   7.86964103
_cell_angle_alpha   63.73676273
_cell_angle_beta   89.99014986
_cell_angle_gamma   89.99510018
_symmetry_Int_Tables_number   1
_chemical_formula_structural   BaYMnCuO5
_chemical_formula_sum   'Ba2 Y2 Mn2 Cu2 O10'
_cell_volume   240.95798756
_cell_formula_units_Z   2
loop_
 _symmetry_equiv_pos_site_id
 _symmetry_equiv_pos_as_xyz
  1  'x, y, z'
loop_
 _atom_site_type_symbol
 _atom_site_label
 _atom_site_symmetry_multiplicity
 _atom_site_fract_x
 _atom_site_fract_y
 _atom_site_fract_z
 _atom_site_occupancy
  Ba  Ba0  1  0.99999700  0.99304600  0.50339900  1
  Ba  Ba1  1  0.99999100  0.99305800  0.00356300  1
  Y  Y0  1  0.99998400  0.45968900  0.27011800  1
  Y  Y1  1  0.99999200  0.45971300  0.77014100  1
  Mn  Mn0  1  0.49999900  0.70382500  0.89812200  1
  Mn  Mn1  1  0.50002500  0.70502100  0.39754100  1
  Cu  Cu0  1  0.50000800  0.24694100  0.62647100  1
  Cu  Cu1  1  0.50001700  0.24712800  0.12628400  1
  O  O0  1  0.49999100  0.94626100  0.77691300  1
  O  O1  1  0.49999700  0.94727700  0.27638300  1
  O  O2  1  0.99998800  0.65869200  0.92069100  1
  O  O3  1  0.99999800  0.66081900  0.41966300  1
  O  O4  1  0.49999600  0.61942900  0.19059000  1
  O  O5  1  0.49999400  0.61944200  0.69012200  1
  O  O6  1  0.00000900  0.29521400  0.10238300  1
  O  O7  1  0.00000100  0.29728900  0.60135300  1
  O  O8  1  0.50001800  0.26147500  0.36871400  1
  O  O9  1  0.49998400  0.26151600  0.86963800  1
loop_
_geom_bond_atom_site_label_1
_geom_bond_atom_site_label_2
_geom_bond_distance
_geom_bond_site_symmetry_2
Ba0 O1 2.772116 1_655
Ba0 O1 2.772589 1_555
Ba0 O0 2.774425 1_555
Ba0 O0 2.774856 1_655
Ba0 O8 2.875317 1_565
Ba0 O8 2.875454 1_665
Ba0 O6 3.110533 1_665
Ba0 O7 3.124220 1_665
Ba0 O3 3.299487 1_555
Ba0 O2 3.314222 1_555
Ba1 O1 2.772256 1_555
Ba1 O1 2.772751 1_655
Ba1 O0 2.774033 1_654
Ba1 O0 2.774507 1_554
Ba1 O9 2.875554 1_664
Ba1 O9 2.875559 1_564
Ba1 O6 3.110428 1_665
Ba1 O7 3.124102 1_664
Ba1 O3 3.300036 1_555
Ba1 O2 3.314162 1_554
Mn0 O0 1.933454 1_555
Mn0 O2 1.953048 1_555
Mn0 O2 1.953138 1_455
Mn0 O5 2.080778 1_555
Mn0 O4 2.081338 1_556
Mn1 O1 1.932018 1_555
Mn1 O3 1.951633 1_555
Mn1 O3 1.951844 1_455
Mn1 O4 2.080612 1_555
Mn1 O5 2.080850 1_555
Cu0 O7 1.961162 1_655
Cu0 O7 1.961206 1_555
Cu0 O9 1.974417 1_555
Cu0 O8 1.974666 1_555
Cu0 O0 2.397956 1_545
Cu1 O6 1.957545 1_655
Cu1 O6 1.957597 1_555
Cu1 O9 1.966443 1_554
Cu1 O8 1.967625 1_555
Cu1 O1 2.391345 1_545
O2 Y0 2.527234 1_556
O2 Y1 2.527923 1_555
O3 Y1 2.537796 1_555
O3 Y0 2.539157 1_555
O4 Y0 2.303850 1_555
O4 Y0 2.303950 1_455
O5 Y1 2.303833 1_555
O5 Y1 2.303868 1_455
O6 Y0 2.364457 1_455
O6 Y1 2.364596 1_454
O7 Y1 2.355603 1_455
O7 Y0 2.355630 1_455
O8 Y0 2.486656 1_555
O8 Y0 2.486831 1_455
O9 Y1 2.486620 1_455
O9 Y1 2.486692 1_555
