# generated using pymatgen
data_K3B12H12Br
_symmetry_space_group_name_H-M   'P 1'
_cell_length_a   9.01126272
_cell_length_b   10.48695250
_cell_length_c   8.74208464
_cell_angle_alpha   93.62745744
_cell_angle_beta   121.02389526
_cell_angle_gamma   82.94873909
_symmetry_Int_Tables_number   1
_chemical_formula_structural   K3B12H12Br
_chemical_formula_sum   'K3 B12 H12 Br1'
_cell_volume   702.60218929
_cell_formula_units_Z   1
loop_
 _symmetry_equiv_pos_site_id
 _symmetry_equiv_pos_as_xyz
  1  'x, y, z'
loop_
 _atom_site_type_symbol
 _atom_site_label
 _atom_site_symmetry_multiplicity
 _atom_site_fract_x
 _atom_site_fract_y
 _atom_site_fract_z
 _atom_site_occupancy
  K  K0  1  0.50000000  0.50000000  0.50000000  1
  K  K1  1  0.00000000  0.50000000  0.50000000  1
  K  K2  1  0.50000000  0.50000000  0.00000000  1
  B  B0  1  0.84088800  0.59136200  0.00000000  1
  B  B1  1  0.08048900  0.55704800  0.88805900  1
  B  B2  1  0.19243000  0.55704800  0.11194100  1
  B  B3  1  0.15911200  0.40863800  0.00000000  1
  B  B4  1  0.91951100  0.44295200  0.11194100  1
  B  B5  1  0.80757000  0.44295200  0.88805900  1
  B  B6  1  0.04494000  0.57717200  0.18950000  1
  B  B7  1  0.85543900  0.57717200  0.81050000  1
  B  B8  1  0.00506800  0.33275000  0.00000000  1
  B  B9  1  0.95506000  0.42282800  0.81050000  1
  B  B10  1  0.14456100  0.42282800  0.18950000  1
  B  B11  1  0.99493200  0.66725000  0.00000000  1
  H  H0  1  0.75049700  0.38502700  0.00000000  1
  H  H1  1  0.16060100  0.89849900  0.65743300  1
  H  H2  1  0.50316800  0.89850000  0.34256700  1
  H  H3  1  0.24950300  0.61497300  0.00000000  1
  H  H4  1  0.83939900  0.10150100  0.34256700  1
  H  H5  1  0.49683200  0.10150000  0.65743300  1
  H  H6  1  0.16359800  0.89125300  0.57245000  1
  H  H7  1  0.59114800  0.89125300  0.42755000  1
  H  H8  1  0.01037400  0.78138100  0.00000000  1
  H  H9  1  0.83640200  0.10874700  0.42755000  1
  H  H10  1  0.40885200  0.10874700  0.57245000  1
  H  H11  1  0.98962600  0.21861900  0.00000000  1
  Br  Br0  1  0.00000000  0.00000000  0.00000000  1
loop_
_geom_bond_atom_site_label_1
_geom_bond_atom_site_label_2
_geom_bond_distance
_geom_bond_site_symmetry_2
B0 B11 1.682702 1_555
B0 B7 1.723853 1_554
B0 B6 1.723858 1_655
B0 B5 1.757618 1_554
B0 B4 1.757618 1_555
B0 K2 3.328169 1_555
B1 H3 1.503953 1_556
B1 B2 1.677223 1_556
B1 B3 1.757618 1_556
B1 B7 1.764268 1_455
B1 B9 1.788391 1_455
B1 B11 1.817555 1_456
B1 K1 3.115454 1_555
B2 H3 1.503953 1_555
B2 B3 1.757618 1_555
B2 B6 1.764260 1_555
B2 K0 3.115455 1_555
B3 B8 1.682702 1_555
B3 B9 1.723858 1_454
B3 K2 3.328169 1_555
B4 H0 1.503953 1_555
B4 B5 1.677223 1_554
B4 B6 1.788391 1_655
B4 B8 1.817555 1_655
B4 K1 3.115454 1_655
B5 H0 1.503953 1_556
B5 B9 1.764260 1_555
B5 B7 1.788386 1_555
B5 B8 1.817555 1_656
B5 K0 3.115455 1_555
B6 K1 3.111038 1_555
B7 B9 1.751857 1_555
B7 K0 3.111032 1_555
B8 H11 1.221798 1_455
B8 B9 1.778713 1_454
B9 K1 3.111038 1_655
B10 B3 1.723853 1_555
B10 B6 1.751857 1_555
B10 B4 1.764268 1_455
B10 B8 1.778715 1_555
B10 B2 1.788386 1_555
B10 K0 3.111032 1_555
B11 H8 1.221798 1_655
B11 B6 1.778713 1_655
B11 B7 1.778715 1_554
B11 B2 1.817555 1_655
H0 K2 2.425061 1_555
H1 H6 0.755964 1_555
H2 H7 0.755964 1_555
H3 K2 2.425061 1_555
H4 H9 0.755964 1_555
H10 H5 0.755964 1_555
Br0 H8 2.283057 1_545
Br0 H11 2.283057 1_455
