# generated using pymatgen
data_Na(V3S4)2
_symmetry_space_group_name_H-M   'P 1'
_cell_length_a   9.10877316
_cell_length_b   9.10877315
_cell_length_c   3.24701294
_cell_angle_alpha   90.00000000
_cell_angle_beta   90.00000000
_cell_angle_gamma   120.00001006
_symmetry_Int_Tables_number   1
_chemical_formula_structural   Na(V3S4)2
_chemical_formula_sum   'Na1 V6 S8'
_cell_volume   233.31055144
_cell_formula_units_Z   1
loop_
 _symmetry_equiv_pos_site_id
 _symmetry_equiv_pos_as_xyz
  1  'x, y, z'
loop_
 _atom_site_type_symbol
 _atom_site_label
 _atom_site_symmetry_multiplicity
 _atom_site_fract_x
 _atom_site_fract_y
 _atom_site_fract_z
 _atom_site_occupancy
  Na  Na0  1  -0.00000000  -0.00000000  0.50000000  1
  V  V0  1  0.11123831  0.48987487  0.74918386  1
  V  V1  1  0.51012513  0.62136344  0.74918386  1
  V  V2  1  0.37863656  0.88876169  0.74918386  1
  V  V3  1  0.88876169  0.51012513  0.25081614  1
  V  V4  1  0.48987487  0.37863656  0.25081614  1
  V  V5  1  0.62136344  0.11123831  0.25081614  1
  S  S0  1  0.66666700  0.33333300  0.75045273  1
  S  S1  1  0.33333300  0.66666700  0.24954727  1
  S  S2  1  0.29057287  0.34165517  0.75153062  1
  S  S3  1  0.65834483  0.94891770  0.75153062  1
  S  S4  1  0.05108230  0.70942713  0.75153062  1
  S  S5  1  0.70942713  0.65834483  0.24846938  1
  S  S6  1  0.34165517  0.05108230  0.24846938  1
  S  S7  1  0.94891770  0.29057287  0.24846938  1
loop_
_geom_bond_atom_site_label_1
_geom_bond_atom_site_label_2
_geom_bond_distance
_geom_bond_site_symmetry_2
Na0 S5 3.020003 1_445
Na0 S2 3.020003 1_555
Na0 S6 3.020003 1_555
Na0 S3 3.020003 1_445
Na0 S7 3.020003 1_455
Na0 S4 3.020003 1_545
S0 V5 2.461704 1_555
S0 V3 2.461706 1_555
S0 V4 2.461711 1_555
S0 V5 2.463260 1_556
S0 V3 2.463262 1_556
S0 V4 2.463267 1_556
S1 V2 2.461704 1_555
S1 V0 2.461706 1_555
S1 V1 2.461711 1_555
S1 V2 2.463260 1_554
S1 V0 2.463262 1_554
S1 V1 2.463267 1_554
S2 V1 2.322827 1_555
S2 V4 2.329347 1_556
S2 V4 2.332578 1_555
S2 V0 2.587783 1_555
S3 V2 2.322827 1_555
S3 V5 2.329347 1_566
S3 V5 2.332579 1_565
S3 V1 2.587782 1_555
S4 V0 2.322827 1_555
S4 V3 2.329347 1_456
S4 V3 2.332578 1_455
S4 V2 2.587782 1_555
S5 V4 2.322827 1_555
S5 V1 2.329347 1_554
S5 V1 2.332578 1_555
S5 V3 2.587783 1_555
S6 V5 2.322827 1_555
S6 V2 2.329347 1_544
S6 V2 2.332579 1_545
S6 V4 2.587782 1_555
S7 V3 2.322827 1_555
S7 V0 2.329347 1_654
S7 V0 2.332578 1_655
S7 V5 2.587782 1_555
