# generated using pymatgen
data_Na4Cd3H2(C2O7)2
_symmetry_space_group_name_H-M   'P 1'
_cell_length_a   3.49912600
_cell_length_b   9.45290600
_cell_length_c   19.41301017
_cell_angle_alpha   80.85507552
_cell_angle_beta   90.00000000
_cell_angle_gamma   90.00000000
_symmetry_Int_Tables_number   1
_chemical_formula_structural   Na4Cd3H2(C2O7)2
_chemical_formula_sum   'Na8 Cd6 H4 C8 O28'
_cell_volume   633.96067404
_cell_formula_units_Z   2
loop_
 _symmetry_equiv_pos_site_id
 _symmetry_equiv_pos_as_xyz
  1  'x, y, z'
loop_
 _atom_site_type_symbol
 _atom_site_label
 _atom_site_symmetry_multiplicity
 _atom_site_fract_x
 _atom_site_fract_y
 _atom_site_fract_z
 _atom_site_occupancy
  Na  Na0  1  0.95188600  0.54227700  0.17377600  1
  Na  Na1  1  0.45188600  0.45772300  0.32622400  1
  Na  Na2  1  0.04811400  0.45772300  0.82622400  1
  Na  Na3  1  0.54811400  0.54227700  0.67377600  1
  Na  Na4  1  0.74377400  0.64303400  0.44994200  1
  Na  Na5  1  0.24377400  0.35696600  0.05005800  1
  Na  Na6  1  0.25622600  0.35696600  0.55005800  1
  Na  Na7  1  0.75622600  0.64303400  0.94994200  1
  Cd  Cd0  1  0.00000000  0.00000000  0.00000000  1
  Cd  Cd1  1  0.50000000  0.00000000  0.50000000  1
  Cd  Cd2  1  0.55763400  0.91814300  0.17991900  1
  Cd  Cd3  1  0.05763400  0.08185700  0.32008100  1
  Cd  Cd4  1  0.44236600  0.08185700  0.82008100  1
  Cd  Cd5  1  0.94236600  0.91814300  0.67991900  1
  H  H0  1  0.97766800  0.11558500  0.12056300  1
  H  H1  1  0.47766800  0.88441500  0.37943700  1
  H  H2  1  0.02233200  0.88441500  0.87943700  1
  H  H3  1  0.52233200  0.11558500  0.62056300  1
  C  C0  1  0.39639800  0.71367100  0.06634400  1
  C  C1  1  0.89639800  0.28632900  0.43365600  1
  C  C2  1  0.60360200  0.28632900  0.93365600  1
  C  C3  1  0.10360200  0.71367100  0.56634400  1
  C  C4  1  0.08045200  0.73183100  0.30425300  1
  C  C5  1  0.58045200  0.26816900  0.19574700  1
  C  C6  1  0.91954800  0.26816900  0.69574700  1
  C  C7  1  0.41954800  0.73183100  0.80425300  1
  O  O0  1  0.94346000  0.62375800  0.28069700  1
  O  O1  1  0.44346000  0.37624200  0.21930300  1
  O  O2  1  0.05654000  0.37624200  0.71930300  1
  O  O3  1  0.55654000  0.62375800  0.78069700  1
  O  O4  1  0.49428100  0.82348400  0.01889400  1
  O  O5  1  0.99428100  0.17651600  0.48110600  1
  O  O6  1  0.50571900  0.17651600  0.98110600  1
  O  O7  1  0.00571900  0.82348400  0.51889400  1
  O  O8  1  0.05466200  0.86236000  0.26512000  1
  O  O9  1  0.55466200  0.13764000  0.23488000  1
  O  O10  1  0.94533800  0.13764000  0.73488000  1
  O  O11  1  0.44533800  0.86236000  0.76512000  1
  O  O12  1  0.05098800  0.01732200  0.11318300  1
  O  O13  1  0.55098800  0.98267800  0.38681700  1
  O  O14  1  0.94901200  0.98267800  0.88681700  1
  O  O15  1  0.44901200  0.01732200  0.61318300  1
  O  O16  1  0.45859100  0.71343300  0.13227800  1
  O  O17  1  0.95859100  0.28656700  0.36772200  1
  O  O18  1  0.54140900  0.28656700  0.86772200  1
  O  O19  1  0.04140900  0.71343300  0.63227800  1
  O  O20  1  0.23735200  0.60406800  0.04604400  1
  O  O21  1  0.73735200  0.39593200  0.45395600  1
  O  O22  1  0.76264800  0.39593200  0.95395600  1
  O  O23  1  0.26264800  0.60406800  0.54604400  1
  O  O24  1  0.24501400  0.72031500  0.36447200  1
  O  O25  1  0.74501400  0.27968500  0.13552800  1
  O  O26  1  0.75498600  0.27968500  0.63552800  1
  O  O27  1  0.25498600  0.72031500  0.86447200  1
loop_
_geom_bond_atom_site_label_1
_geom_bond_atom_site_label_2
_geom_bond_distance
_geom_bond_site_symmetry_2
Na0 O0 2.326084 1_555
Na0 O1 2.400468 1_655
Na0 O16 2.414909 1_555
Na0 O1 2.443068 1_555
Na0 O16 2.448668 1_655
Na0 O20 2.650902 1_655
Na0 O25 2.796921 1_555
Na1 O1 2.326084 1_555
Na1 O0 2.400468 1_555
Na1 O17 2.414909 1_455
Na1 O0 2.443068 1_455
Na1 O17 2.448668 1_555
Na1 O21 2.650902 1_555
Na1 O24 2.796921 1_555
Na2 O2 2.326084 1_555
Na2 O3 2.400468 1_455
Na2 O18 2.414909 1_555
Na2 O3 2.443068 1_555
Na2 O18 2.448668 1_455
Na2 O22 2.650902 1_455
Na2 O27 2.796921 1_555
Na3 O3 2.326084 1_555
Na3 O2 2.400468 1_555
Na3 O19 2.414909 1_655
Na3 O2 2.443068 1_655
Na3 O19 2.448668 1_555
Na3 O23 2.650902 1_555
Na3 O26 2.796921 1_555
Na4 O21 2.324829 1_555
Na4 O24 2.438696 1_555
Na4 O24 2.444913 1_655
Na4 O23 2.496409 1_555
Na4 O7 2.503463 1_655
Na4 O23 2.587323 1_655
Na5 O20 2.324829 1_555
Na5 O25 2.438696 1_455
Na5 O25 2.444913 1_555
Na5 O22 2.496409 1_454
Na5 O6 2.503463 1_554
Na5 O22 2.587323 1_554
Na6 O23 2.324829 1_555
Na6 O26 2.438696 1_555
Na6 O26 2.444913 1_455
Na6 O21 2.496409 1_555
Na6 O5 2.503463 1_455
Na6 O21 2.587323 1_455
Na7 O22 2.324829 1_555
Na7 O27 2.438696 1_655
Na7 O27 2.444913 1_555
Na7 O20 2.496409 1_656
Na7 O4 2.503463 1_556
Na7 O20 2.587323 1_556
Cd0 O12 2.236245 1_555
Cd0 O14 2.236245 1_444
Cd0 O6 2.390718 1_454
Cd0 O4 2.390718 1_545
Cd0 O6 2.419830 1_554
Cd0 O4 2.419830 1_445
Cd1 O15 2.236245 1_555
Cd1 O13 2.236245 1_545
Cd1 O5 2.390718 1_555
Cd1 O7 2.390718 1_545
Cd1 O5 2.419830 1_455
Cd1 O7 2.419830 1_645
Cd2 O12 2.269683 1_665
Cd2 O16 2.299777 1_555
Cd2 O12 2.305256 1_565
Cd2 O8 2.400262 1_655
Cd2 O8 2.415374 1_555
Cd2 O9 2.479384 1_565
Cd3 O13 2.269683 1_545
Cd3 O17 2.299777 1_455
Cd3 O13 2.305256 1_445
Cd3 O9 2.400262 1_555
Cd3 O9 2.415374 1_455
Cd3 O8 2.479384 1_545
Cd4 O14 2.269683 1_445
Cd4 O18 2.299777 1_555
Cd4 O14 2.305256 1_545
Cd4 O10 2.400262 1_455
Cd4 O10 2.415374 1_555
Cd4 O11 2.479384 1_545
Cd5 O15 2.269683 1_565
Cd5 O19 2.299777 1_655
Cd5 O15 2.305256 1_665
Cd5 O11 2.400262 1_555
Cd5 O11 2.415374 1_655
Cd5 O10 2.479384 1_565
H0 O12 0.995715 1_655
H1 O13 0.995715 1_555
H2 O14 0.995715 1_455
H3 O15 0.995715 1_555
C0 O20 1.291602 1_555
C0 O16 1.297995 1_555
C0 O4 1.318875 1_555
C1 O21 1.291602 1_555
C1 O17 1.297995 1_555
C1 O5 1.318875 1_555
C2 O22 1.291602 1_555
C2 O18 1.297995 1_555
C2 O6 1.318875 1_555
C3 O23 1.291602 1_555
C3 O19 1.297995 1_555
C3 O7 1.318875 1_555
C4 O0 1.277132 1_455
C4 O24 1.292133 1_555
C4 O8 1.345278 1_555
C5 O1 1.277132 1_555
C5 O25 1.292133 1_555
C5 O9 1.345278 1_555
C6 O2 1.277132 1_655
C6 O26 1.292133 1_555
C6 O10 1.345278 1_555
C7 O3 1.277132 1_555
C7 O27 1.292133 1_555
C7 O11 1.345278 1_555
