# generated using pymatgen
data_Li7Mn2(CoO4)3
_symmetry_space_group_name_H-M   'P 1'
_cell_length_a   5.90632374
_cell_length_b   11.79492804
_cell_length_c   6.49773922
_cell_angle_alpha   103.02510671
_cell_angle_beta   103.74089532
_cell_angle_gamma   89.79037443
_symmetry_Int_Tables_number   1
_chemical_formula_structural   Li7Mn2(CoO4)3
_chemical_formula_sum   'Li14 Mn4 Co6 O24'
_cell_volume   427.79914119
_cell_formula_units_Z   2
loop_
 _symmetry_equiv_pos_site_id
 _symmetry_equiv_pos_as_xyz
  1  'x, y, z'
loop_
 _atom_site_type_symbol
 _atom_site_label
 _atom_site_symmetry_multiplicity
 _atom_site_fract_x
 _atom_site_fract_y
 _atom_site_fract_z
 _atom_site_occupancy
  Li  Li0  1  0.16661200  0.08331600  0.66670100  1
  Li  Li1  1  0.16666100  0.58334100  0.66662100  1
  Li  Li2  1  0.16663000  0.33334000  0.66664700  1
  Li  Li3  1  0.16664500  0.83332700  0.66661800  1
  Li  Li4  1  0.66664200  0.08331600  0.66664600  1
  Li  Li5  1  0.66669900  0.58334100  0.66666700  1
  Li  Li6  1  0.82867200  0.16584700  0.33506300  1
  Li  Li7  1  0.82885000  0.66584600  0.33508200  1
  Li  Li8  1  0.50448400  0.00084400  0.99821400  1
  Li  Li9  1  0.50459400  0.50081600  0.99819400  1
  Li  Li10  1  0.50268000  0.24536700  0.99065300  1
  Li  Li11  1  0.50273200  0.74535900  0.99061800  1
  Li  Li12  1  0.83061300  0.42132800  0.34266500  1
  Li  Li13  1  0.83057500  0.92134000  0.34267800  1
  Mn  Mn0  1  0.99465600  0.50152900  0.99619100  1
  Mn  Mn1  1  0.33869500  0.16525600  0.33741300  1
  Mn  Mn2  1  0.99449700  0.00150600  0.99607600  1
  Mn  Mn3  1  0.33903400  0.66520700  0.33728900  1
  Co  Co0  1  0.66670200  0.83334800  0.66669100  1
  Co  Co1  1  0.99193300  0.24773800  0.99368800  1
  Co  Co2  1  0.34135000  0.41890500  0.33959500  1
  Co  Co3  1  0.66667500  0.33334600  0.66667900  1
  Co  Co4  1  0.99199800  0.74774600  0.99373600  1
  Co  Co5  1  0.34133900  0.91891000  0.33959500  1
  O  O0  1  0.91876800  0.45832500  0.68855300  1
  O  O1  1  0.91873400  0.95833400  0.68863100  1
  O  O2  1  0.41453300  0.20834200  0.64483000  1
  O  O3  1  0.41463300  0.70831800  0.64472500  1
  O  O4  1  0.55889700  0.04744800  0.33264500  1
  O  O5  1  0.55907900  0.54741300  0.33262900  1
  O  O6  1  0.77433200  0.11920800  0.00069600  1
  O  O7  1  0.77438500  0.61922700  0.00068600  1
  O  O8  1  0.23515700  0.12010400  0.01005500  1
  O  O9  1  0.23530300  0.62009800  0.00997300  1
  O  O10  1  0.09804000  0.04654800  0.32338600  1
  O  O11  1  0.09819100  0.54655000  0.32329500  1
  O  O12  1  0.90586800  0.22127300  0.68873200  1
  O  O13  1  0.90594900  0.72129000  0.68877300  1
  O  O14  1  0.42743100  0.44538200  0.64456400  1
  O  O15  1  0.42738100  0.94536100  0.64453200  1
  O  O16  1  0.56447100  0.28192200  0.32841200  1
  O  O17  1  0.56459100  0.78193800  0.32837500  1
  O  O18  1  0.76883100  0.38473000  0.00490800  1
  O  O19  1  0.76876800  0.88469800  0.00493900  1
  O  O20  1  0.23381200  0.38283300  0.01642300  1
  O  O21  1  0.23380600  0.88284500  0.01644600  1
  O  O22  1  0.09947700  0.28382300  0.31690900  1
  O  O23  1  0.09959400  0.78377800  0.31686400  1
loop_
_geom_bond_atom_site_label_1
_geom_bond_atom_site_label_2
_geom_bond_distance
_geom_bond_site_symmetry_2
Li0 O10 2.112924 1_555
Li0 O8 2.113170 1_556
Li0 O1 2.132242 1_445
Li0 O2 2.132641 1_555
Li0 O12 2.240840 1_455
Li0 O15 2.240984 1_545
Li1 O11 2.113019 1_555
Li1 O9 2.113135 1_556
Li1 O3 2.132506 1_555
Li1 O0 2.132594 1_455
Li1 O13 2.240691 1_455
Li1 O14 2.240975 1_555
Li2 O0 2.079728 1_455
Li2 O2 2.079964 1_555
Li2 O14 2.084503 1_555
Li2 O12 2.084526 1_455
Li2 O22 2.153589 1_555
Li2 O20 2.153803 1_556
Li3 O1 2.080168 1_455
Li3 O3 2.080451 1_555
Li3 O15 2.084158 1_555
Li3 O13 2.084176 1_455
Li3 O23 2.153740 1_555
Li3 O21 2.154142 1_556
Li4 O4 2.055711 1_555
Li4 O6 2.055981 1_556
Li4 O1 2.094824 1_545
Li4 O2 2.095202 1_555
Li4 O12 2.116602 1_555
Li4 O15 2.116671 1_545
Li5 O7 2.055793 1_556
Li5 O5 2.055870 1_555
Li5 O3 2.094659 1_555
Li5 O0 2.094980 1_555
Li5 O13 2.116589 1_555
Li5 O14 2.116753 1_555
Li6 O6 2.063308 1_555
Li6 O16 2.071308 1_555
Li6 O4 2.117507 1_555
Li6 O10 2.123627 1_655
Li6 O22 2.165277 1_655
Li6 O12 2.177964 1_555
Li7 O7 2.063412 1_555
Li7 O17 2.071693 1_555
Li7 O5 2.117681 1_555
Li7 O11 2.123530 1_655
Li7 O23 2.164820 1_655
Li7 O13 2.178135 1_555
Li8 O4 2.063653 1_556
Li8 O19 2.072225 1_546
Li8 O6 2.117426 1_556
Li8 O8 2.123214 1_556
Li8 O21 2.165080 1_546
Li8 O15 2.178108 1_545
Li9 O5 2.063636 1_556
Li9 O18 2.071549 1_556
Li9 O7 2.117518 1_556
Li9 O9 2.123196 1_556
Li9 O20 2.165411 1_556
Li9 O14 2.177740 1_555
Li10 O16 2.080813 1_556
Li10 O2 2.124769 1_555
Li10 O6 2.183890 1_556
Li10 O8 2.211589 1_556
Li10 O18 2.250064 1_556
Li10 O20 2.272421 1_556
Li11 O17 2.080762 1_556
Li11 O3 2.125198 1_555
Li11 O7 2.183678 1_556
Li11 O9 2.211052 1_556
Li11 O19 2.249266 1_556
Li11 O21 2.272859 1_556
Li12 O18 2.080789 1_555
Li12 O0 2.125182 1_555
Li12 O5 2.182786 1_555
Li12 O11 2.211417 1_655
Li12 O16 2.250398 1_555
Li12 O22 2.272716 1_655
Li13 O19 2.080650 1_555
Li13 O1 2.125585 1_555
Li13 O4 2.183589 1_565
Li13 O10 2.210625 1_665
Li13 O17 2.249625 1_555
Li13 O23 2.273866 1_655
Mn0 O0 1.890306 1_555
Mn0 O7 1.899263 1_556
Mn0 O18 1.940260 1_556
Mn0 O9 1.970200 1_656
Mn0 O20 1.988174 1_656
Mn0 O11 2.012358 1_656
Mn1 O2 1.888915 1_555
Mn1 O4 1.899949 1_555
Mn1 O16 1.939581 1_555
Mn1 O10 1.970931 1_555
Mn1 O22 1.987437 1_555
Mn1 O8 2.013927 1_555
Mn2 O1 1.889125 1_545
Mn2 O6 1.898879 1_556
Mn2 O19 1.940275 1_546
Mn2 O8 1.970129 1_656
Mn2 O21 1.988554 1_646
Mn2 O10 2.013605 1_656
Mn3 O3 1.889060 1_555
Mn3 O5 1.899184 1_555
Mn3 O17 1.939031 1_555
Mn3 O11 1.971361 1_555
Mn3 O23 1.988350 1_555
Mn3 O9 2.013723 1_555
Co0 O15 1.933820 1_555
Co0 O13 1.933852 1_555
Co0 O1 2.056692 1_555
Co0 O3 2.057168 1_555
Co0 O19 2.081823 1_556
Co0 O17 2.082279 1_555
Co1 O12 1.877795 1_555
Co1 O22 1.990173 1_656
Co1 O6 2.006317 1_556
Co1 O8 2.079689 1_656
Co1 O18 2.080742 1_556
Co1 O20 2.100499 1_656
Co2 O14 1.877867 1_555
Co2 O20 1.989877 1_555
Co2 O5 2.006515 1_555
Co2 O11 2.079503 1_555
Co2 O16 2.080729 1_555
Co2 O22 2.100445 1_555
Co3 O14 1.933671 1_555
Co3 O12 1.933739 1_555
Co3 O0 2.057003 1_555
Co3 O2 2.057459 1_555
Co3 O18 2.081752 1_556
Co3 O16 2.082017 1_555
Co4 O13 1.877844 1_555
Co4 O23 1.989645 1_656
Co4 O7 2.006134 1_556
Co4 O9 2.080092 1_656
Co4 O19 2.080862 1_556
Co4 O21 2.100298 1_656
Co5 O15 1.877686 1_555
Co5 O21 1.989738 1_555
Co5 O4 2.006094 1_565
Co5 O10 2.079972 1_565
Co5 O17 2.081127 1_555
Co5 O23 2.100304 1_555
