# generated using pymatgen
data_TcW2C
_symmetry_space_group_name_H-M   'P 1'
_cell_length_a   2.98818018
_cell_length_b   2.98818018
_cell_length_c   13.85004300
_cell_angle_alpha   90.00000000
_cell_angle_beta   90.00000000
_cell_angle_gamma   120.00000401
_symmetry_Int_Tables_number   1
_chemical_formula_structural   TcW2C
_chemical_formula_sum   'Tc2 W4 C2'
_cell_volume   107.10143699
_cell_formula_units_Z   2
loop_
 _symmetry_equiv_pos_site_id
 _symmetry_equiv_pos_as_xyz
  1  'x, y, z'
loop_
 _atom_site_type_symbol
 _atom_site_label
 _atom_site_symmetry_multiplicity
 _atom_site_fract_x
 _atom_site_fract_y
 _atom_site_fract_z
 _atom_site_occupancy
  Tc  Tc0  1  0.66666700  0.33333300  0.41155000  1
  Tc  Tc1  1  0.66666700  0.33333300  0.09182900  1
  W  W0  1  0.33333300  0.66666700  0.91698900  1
  W  W1  1  0.33333300  0.66666700  0.57096900  1
  W  W2  1  0.33333300  0.66666700  0.25859400  1
  W  W3  1  0.66666700  0.33333300  0.74885700  1
  C  C0  1  0.00000000  0.00000000  0.00756600  1
  C  C1  1  0.00000000  0.00000000  0.66031200  1
loop_
_geom_bond_atom_site_label_1
_geom_bond_atom_site_label_2
_geom_bond_distance
_geom_bond_site_symmetry_2
Tc0 W2 2.732072 1_545
Tc0 W2 2.732072 1_655
Tc0 W2 2.732076 1_555
Tc0 W1 2.802051 1_655
Tc0 W1 2.802051 1_545
Tc0 W1 2.802054 1_555
Tc1 W2 2.882902 1_545
Tc1 W2 2.882902 1_655
Tc1 W2 2.882906 1_555
C0 Tc1 2.082882 1_455
C0 Tc1 2.082884 1_555
C0 Tc1 2.082884 1_445
C0 W0 2.133110 1_544
C0 W0 2.133112 1_554
C0 W0 2.133112 1_444
C1 W3 2.116681 1_455
C1 W3 2.116683 1_445
C1 W3 2.116683 1_555
C1 W1 2.123104 1_545
C1 W1 2.123106 1_445
C1 W1 2.123106 1_555
