# generated using pymatgen
data_HoZnRh
_symmetry_space_group_name_H-M   'P 1'
_cell_length_a   3.98348305
_cell_length_b   6.87568886
_cell_length_c   8.04237643
_cell_angle_alpha   90.00000000
_cell_angle_beta   90.00000000
_cell_angle_gamma   90.00000000
_symmetry_Int_Tables_number   1
_chemical_formula_structural   HoZnRh
_chemical_formula_sum   'Ho4 Zn4 Rh4'
_cell_volume   220.27417634
_cell_formula_units_Z   4
loop_
 _symmetry_equiv_pos_site_id
 _symmetry_equiv_pos_as_xyz
  1  'x, y, z'
loop_
 _atom_site_type_symbol
 _atom_site_label
 _atom_site_symmetry_multiplicity
 _atom_site_fract_x
 _atom_site_fract_y
 _atom_site_fract_z
 _atom_site_occupancy
  Ho  Ho0  1  0.25000000  0.53920331  0.81637798  1
  Ho  Ho1  1  0.75000000  0.46079669  0.18362202  1
  Ho  Ho2  1  0.25000000  0.03920331  0.68362202  1
  Ho  Ho3  1  0.75000000  0.96079669  0.31637798  1
  Zn  Zn0  1  0.25000000  0.13610179  0.06311104  1
  Zn  Zn1  1  0.75000000  0.86389821  0.93688896  1
  Zn  Zn2  1  0.25000000  0.63610179  0.43688896  1
  Zn  Zn3  1  0.75000000  0.36389821  0.56311104  1
  Rh  Rh0  1  0.75000000  0.74512656  0.62418788  1
  Rh  Rh1  1  0.25000000  0.25487344  0.37581212  1
  Rh  Rh2  1  0.75000000  0.24512656  0.87581212  1
  Rh  Rh3  1  0.25000000  0.75487344  0.12418788  1
loop_
_geom_bond_atom_site_label_1
_geom_bond_atom_site_label_2
_geom_bond_distance
_geom_bond_site_symmetry_2
Ho0 Rh2 2.878179 1_555
Ho0 Rh2 2.878179 1_455
Ho0 Rh3 2.885680 1_556
Ho0 Rh0 2.891502 1_455
Ho0 Rh0 2.891502 1_555
Ho1 Rh3 2.878179 1_655
Ho1 Rh3 2.878179 1_555
Ho1 Rh2 2.885680 1_554
Ho1 Rh1 2.891502 1_655
Ho1 Rh1 2.891502 1_555
Ho2 Rh0 2.878179 1_445
Ho2 Rh0 2.878179 1_545
Ho2 Rh1 2.885680 1_555
Ho2 Rh2 2.891502 1_455
Ho2 Rh2 2.891502 1_555
Ho3 Rh1 2.878179 1_565
Ho3 Rh1 2.878179 1_665
Ho3 Rh0 2.885680 1_555
Ho3 Rh3 2.891502 1_655
Ho3 Rh3 2.891502 1_555
Rh0 Zn2 2.607296 1_655
Rh0 Zn2 2.607296 1_555
Rh0 Zn1 2.644129 1_555
Rh0 Zn3 2.666835 1_555
Rh1 Zn3 2.607296 1_455
Rh1 Zn3 2.607296 1_555
Rh1 Zn0 2.644129 1_555
Rh1 Zn2 2.666835 1_555
Rh2 Zn0 2.607296 1_556
Rh2 Zn0 2.607296 1_656
Rh2 Zn3 2.644129 1_555
Rh2 Zn1 2.666835 1_545
Rh3 Zn1 2.607296 1_454
Rh3 Zn1 2.607296 1_554
Rh3 Zn2 2.644129 1_555
Rh3 Zn0 2.666835 1_565
