# generated using pymatgen
data_BaSm5Al3Si9N20O
_symmetry_space_group_name_H-M   'P 1'
_cell_length_a   6.18512200
_cell_length_b   9.57446658
_cell_length_c   9.57533419
_cell_angle_alpha   60.05529172
_cell_angle_beta   89.84921097
_cell_angle_gamma   89.69847736
_symmetry_Int_Tables_number   1
_chemical_formula_structural   BaSm5Al3Si9N20O
_chemical_formula_sum   'Ba1 Sm5 Al3 Si9 N20 O1'
_cell_volume   491.34112538
_cell_formula_units_Z   1
loop_
 _symmetry_equiv_pos_site_id
 _symmetry_equiv_pos_as_xyz
  1  'x, y, z'
loop_
 _atom_site_type_symbol
 _atom_site_label
 _atom_site_symmetry_multiplicity
 _atom_site_fract_x
 _atom_site_fract_y
 _atom_site_fract_z
 _atom_site_occupancy
  Ba  Ba0  1  0.00068100  0.99880500  0.00281900  1
  Sm  Sm0  1  0.49605200  0.33504300  0.33490100  1
  Sm  Sm1  1  0.50333300  0.66407000  0.66801100  1
  Sm  Sm2  1  0.50147300  0.24929700  0.75055400  1
  Sm  Sm3  1  0.49513900  0.75001900  0.00119800  1
  Sm  Sm4  1  0.50133300  0.00015400  0.24894300  1
  Al  Al0  1  0.25537100  0.00775800  0.60679100  1
  Al  Al1  1  0.25465700  0.60650400  0.38753800  1
  Al  Al2  1  0.74407300  0.39260900  0.99365300  1
  Si  Si0  1  0.99266200  0.28522600  0.53093200  1
  Si  Si1  1  0.99712300  0.53137600  0.18370700  1
  Si  Si2  1  0.98753600  0.18099200  0.28481500  1
  Si  Si3  1  0.00746600  0.81878300  0.46625300  1
  Si  Si4  1  0.00225500  0.46904500  0.71493500  1
  Si  Si5  1  0.01187100  0.71496900  0.81845000  1
  Si  Si6  1  0.24951200  0.39148900  0.00837000  1
  Si  Si7  1  0.74981900  0.60790900  0.39961000  1
  Si  Si8  1  0.74918000  0.99121200  0.60936700  1
  N  N0  1  0.51381100  0.00215400  0.50977300  1
  N  N1  1  0.51381400  0.50948200  0.48718400  1
  N  N2  1  0.48549600  0.49101900  0.99538100  1
  N  N3  1  0.24979600  0.21324900  0.57704200  1
  N  N4  1  0.25093500  0.57714200  0.21296000  1
  N  N5  1  0.24355200  0.22172600  0.19987600  1
  N  N6  1  0.75438000  0.77704700  0.42083200  1
  N  N7  1  0.74781000  0.42222000  0.78960000  1
  N  N8  1  0.75534700  0.79944300  0.77941300  1
  N  N9  1  0.99090300  0.47979500  0.52020900  1
  N  N10  1  0.00321900  0.51959500  0.00021400  1
  N  N11  1  0.99095100  0.99962900  0.48113200  1
  N  N12  1  0.79190300  0.15059900  0.64640100  1
  N  N13  1  0.79223000  0.64538900  0.20244900  1
  N  N14  1  0.79092900  0.18536300  0.16026800  1
  N  N15  1  0.20944400  0.81488700  0.34842300  1
  N  N16  1  0.20772400  0.35540400  0.84725600  1
  N  N17  1  0.20921700  0.83931600  0.81373900  1
  N  N18  1  0.92162000  0.33325500  0.33237200  1
  N  N19  1  0.07663600  0.66746500  0.66568100  1
  O  O0  1  0.50074800  0.00056100  0.99894700  1
loop_
_geom_bond_atom_site_label_1
_geom_bond_atom_site_label_2
_geom_bond_distance
_geom_bond_site_symmetry_2
Ba0 O0 3.092323 1_464
Ba0 O0 3.093134 1_564
Ba0 N14 3.130535 1_465
Ba0 N15 3.146479 1_555
Ba0 N17 3.162340 1_554
Ba0 N13 3.215852 1_455
Ba0 N16 3.236436 1_564
Ba0 N12 3.237096 1_464
Al0 N3 1.842033 1_555
Al0 N17 1.849476 1_545
Al0 N0 1.860665 1_555
Al0 N11 2.057611 1_445
Al1 N4 1.828490 1_555
Al1 N15 1.856824 1_555
Al1 N1 1.857465 1_555
Al1 N9 2.053838 1_455
Al2 N7 1.829032 1_555
Al2 N14 1.844609 1_556
Al2 N2 1.856200 1_555
Al2 N10 2.036810 1_656
N0 Si8 1.716301 1_545
N0 Sm4 2.508541 1_555
N0 Sm0 2.764716 1_555
N0 Sm1 2.807715 1_545
N1 Si7 1.714981 1_555
N1 Sm2 2.510087 1_555
N1 Sm0 2.713264 1_555
N1 Sm1 2.783843 1_555
N2 Si6 1.717364 1_556
N2 Sm3 2.509077 1_556
N2 Sm1 2.720041 1_555
N2 Sm0 2.820774 1_556
N3 Si0 1.699307 1_455
N3 Sm2 2.427838 1_555
N3 Sm0 2.521198 1_555
N4 Si1 1.693224 1_455
N4 Sm3 2.406699 1_555
N4 Sm0 2.511007 1_555
N5 Si2 1.733230 1_455
N5 Si6 1.740850 1_555
N5 Sm4 2.497328 1_555
N5 Sm0 2.591647 1_555
N6 Si3 1.727103 1_655
N6 Si7 1.730203 1_555
N6 Sm4 2.487980 1_565
N6 Sm1 2.573984 1_555
N7 Si4 1.694229 1_655
N7 Sm2 2.418657 1_555
N7 Sm1 2.506974 1_555
N8 Si5 1.731782 1_655
N8 Si8 1.743227 1_555
N8 Sm3 2.512146 1_556
N8 Sm1 2.580265 1_555
N9 Si0 1.813801 1_555
N9 Si4 1.816908 1_655
N9 Si7 1.907170 1_555
N10 Si5 1.811491 1_554
N10 Si1 1.816226 1_455
N10 Si6 1.927809 1_555
N11 Si3 1.809192 1_655
N11 Si2 1.813963 1_565
N11 Si8 1.908717 1_555
N12 Si0 1.735697 1_555
N12 Si8 1.751965 1_545
N12 Sm2 2.455200 1_555
N13 Si1 1.734838 1_555
N13 Si7 1.756056 1_555
N13 Sm3 2.483073 1_555
N14 Si2 1.691159 1_555
N14 Sm4 2.365605 1_555
N15 Si3 1.693848 1_555
N15 Sm4 2.377185 1_565
N16 Si4 1.738361 1_555
N16 Si6 1.761052 1_556
N16 Sm2 2.470091 1_555
N17 Si5 1.694324 1_555
N17 Sm3 2.355653 1_556
N18 Si0 1.774493 1_555
N18 Si1 1.775610 1_555
N18 Si2 1.776061 1_555
N18 Sm0 2.632282 1_555
N19 Si4 1.776730 1_555
N19 Si3 1.778867 1_555
N19 Si5 1.779429 1_555
N19 Sm1 2.639218 1_555
O0 Sm2 2.381987 1_555
O0 Sm3 2.388555 1_546
O0 Sm4 2.391865 1_556
