# generated using pymatgen
data_VAgHgO4
_symmetry_space_group_name_H-M   'P 1'
_cell_length_a   5.98797245
_cell_length_b   5.98797245
_cell_length_c   7.25409092
_cell_angle_alpha   81.98051738
_cell_angle_beta   81.98051738
_cell_angle_gamma   55.58221005
_symmetry_Int_Tables_number   1
_chemical_formula_structural   VAgHgO4
_chemical_formula_sum   'V2 Ag2 Hg2 O8'
_cell_volume   211.88261777
_cell_formula_units_Z   2
loop_
 _symmetry_equiv_pos_site_id
 _symmetry_equiv_pos_as_xyz
  1  'x, y, z'
loop_
 _atom_site_type_symbol
 _atom_site_label
 _atom_site_symmetry_multiplicity
 _atom_site_fract_x
 _atom_site_fract_y
 _atom_site_fract_z
 _atom_site_occupancy
  V  V0  1  0.69022100  0.68336000  0.76994800  1
  V  V1  1  0.31664000  0.30977900  0.23005200  1
  Ag  Ag0  1  0.62796100  0.64811600  0.27854200  1
  Ag  Ag1  1  0.35188400  0.37203900  0.72145800  1
  Hg  Hg0  1  0.00889200  0.99110800  0.00000000  1
  Hg  Hg1  1  0.97287100  0.02712900  0.50000000  1
  O  O0  1  0.48744800  0.78002700  0.97499100  1
  O  O1  1  0.21997300  0.51255200  0.02500900  1
  O  O2  1  0.26377100  0.49881300  0.40776000  1
  O  O3  1  0.50118700  0.73622900  0.59224000  1
  O  O4  1  0.80743600  0.91434100  0.73240800  1
  O  O5  1  0.08565900  0.19256400  0.26759200  1
  O  O6  1  0.66493800  0.04928200  0.21189100  1
  O  O7  1  0.95071800  0.33506200  0.78810900  1
loop_
_geom_bond_atom_site_label_1
_geom_bond_atom_site_label_2
_geom_bond_distance
_geom_bond_site_symmetry_2
Ag0 O3 2.330925 1_555
Ag0 O0 2.336867 1_554
Ag0 O6 2.510089 1_565
Ag0 O5 2.550898 1_655
Ag0 O2 2.798825 1_555
Ag1 O2 2.330925 1_555
Ag1 O1 2.336867 1_556
Ag1 O7 2.510089 1_455
Ag1 O4 2.550898 1_545
Ag1 O3 2.798825 1_555
Hg0 O6 2.276160 1_465
Hg0 O7 2.276160 1_464
Hg0 O1 2.380450 1_555
Hg0 O0 2.380450 1_554
Hg0 O5 2.638879 1_565
Hg0 O4 2.638879 1_454
Hg1 O5 2.062127 1_655
Hg1 O4 2.062127 1_545
O0 V0 1.721483 1_555
O1 V1 1.721483 1_555
O2 V1 1.712155 1_555
O3 V0 1.712155 1_555
O4 V0 1.848991 1_555
O5 V1 1.848991 1_555
O6 V1 1.761616 1_555
O7 V0 1.761616 1_555
