# generated using pymatgen
data_Na5Ti3F14
_symmetry_space_group_name_H-M   'P 1'
_cell_length_a   7.60057600
_cell_length_b   7.60057600
_cell_length_c   10.53940300
_cell_angle_alpha   90.00000000
_cell_angle_beta   90.00000000
_cell_angle_gamma   90.00000000
_symmetry_Int_Tables_number   1
_chemical_formula_structural   Na5Ti3F14
_chemical_formula_sum   'Na10 Ti6 F28'
_cell_volume   608.84819536
_cell_formula_units_Z   2
loop_
 _symmetry_equiv_pos_site_id
 _symmetry_equiv_pos_as_xyz
  1  'x, y, z'
loop_
 _atom_site_type_symbol
 _atom_site_label
 _atom_site_symmetry_multiplicity
 _atom_site_fract_x
 _atom_site_fract_y
 _atom_site_fract_z
 _atom_site_occupancy
  Na  Na0  1  0.00000000  0.00000000  0.50000000  1
  Na  Na1  1  0.50000000  0.50000000  0.00000000  1
  Na  Na2  1  0.27344500  0.77344500  0.25000000  1
  Na  Na3  1  0.72655500  0.22655500  0.75000000  1
  Na  Na4  1  0.72655500  0.22655500  0.25000000  1
  Na  Na5  1  0.27344500  0.77344500  0.75000000  1
  Na  Na6  1  0.22655500  0.27344500  0.25000000  1
  Na  Na7  1  0.77344500  0.72655500  0.75000000  1
  Na  Na8  1  0.77344500  0.72655500  0.25000000  1
  Na  Na9  1  0.22655500  0.27344500  0.75000000  1
  Ti  Ti0  1  0.00000000  0.00000000  0.00000000  1
  Ti  Ti1  1  0.50000000  0.50000000  0.50000000  1
  Ti  Ti2  1  0.00000000  0.50000000  0.00000000  1
  Ti  Ti3  1  0.50000000  0.00000000  0.00000000  1
  Ti  Ti4  1  0.50000000  0.00000000  0.50000000  1
  Ti  Ti5  1  0.00000000  0.50000000  0.50000000  1
  F  F0  1  0.00000000  0.00000000  0.18456700  1
  F  F1  1  0.00000000  0.00000000  0.81543300  1
  F  F2  1  0.50000000  0.50000000  0.31543300  1
  F  F3  1  0.50000000  0.50000000  0.68456700  1
  F  F4  1  0.07322900  0.24834800  0.00000000  1
  F  F5  1  0.92677100  0.75165200  0.00000000  1
  F  F6  1  0.75165200  0.07322900  0.00000000  1
  F  F7  1  0.24834800  0.92677100  0.00000000  1
  F  F8  1  0.42677100  0.74834800  0.50000000  1
  F  F9  1  0.57322900  0.25165200  0.50000000  1
  F  F10  1  0.74834800  0.57322900  0.50000000  1
  F  F11  1  0.25165200  0.42677100  0.50000000  1
  F  F12  1  0.18923500  0.53444500  0.12687200  1
  F  F13  1  0.81076500  0.46555500  0.87312800  1
  F  F14  1  0.81076500  0.46555500  0.12687200  1
  F  F15  1  0.18923500  0.53444500  0.87312800  1
  F  F16  1  0.46555500  0.18923500  0.12687200  1
  F  F17  1  0.53444500  0.81076500  0.87312800  1
  F  F18  1  0.53444500  0.81076500  0.12687200  1
  F  F19  1  0.46555500  0.18923500  0.87312800  1
  F  F20  1  0.31076500  0.03444500  0.37312800  1
  F  F21  1  0.68923500  0.96555500  0.62687200  1
  F  F22  1  0.68923500  0.96555500  0.37312800  1
  F  F23  1  0.31076500  0.03444500  0.62687200  1
  F  F24  1  0.03444500  0.68923500  0.37312800  1
  F  F25  1  0.96555500  0.31076500  0.62687200  1
  F  F26  1  0.96555500  0.31076500  0.37312800  1
  F  F27  1  0.03444500  0.68923500  0.62687200  1
loop_
_geom_bond_atom_site_label_1
_geom_bond_atom_site_label_2
_geom_bond_distance
_geom_bond_site_symmetry_2
F0 Ti0 1.945226 1_555
F0 Na2 2.785711 1_545
F0 Na8 2.785711 1_445
F0 Na6 2.785711 1_555
F0 Na4 2.785711 1_455
F1 Ti0 1.945226 1_556
F1 Na7 2.785711 1_445
F1 Na5 2.785711 1_545
F1 Na9 2.785711 1_555
F1 Na3 2.785711 1_455
F2 Ti1 1.945226 1_555
F2 Na4 2.785711 1_555
F2 Na8 2.785711 1_555
F2 Na2 2.785711 1_555
F2 Na6 2.785711 1_555
F3 Ti1 1.945226 1_555
F3 Na3 2.785711 1_555
F3 Na9 2.785711 1_555
F3 Na5 2.785711 1_555
F3 Na7 2.785711 1_555
F4 Ti0 1.967936 1_555
F4 Ti2 1.992036 1_555
F4 Na9 2.887369 1_554
F4 Na6 2.887369 1_555
F5 Ti0 1.967936 1_665
F5 Ti2 1.992036 1_655
F5 Na8 2.887369 1_555
F5 Na7 2.887369 1_554
F6 Ti0 1.967936 1_655
F6 Ti3 1.992036 1_555
F6 Na3 2.887369 1_554
F6 Na4 2.887369 1_555
F7 Ti0 1.967936 1_565
F7 Ti3 1.992036 1_565
F7 Na2 2.887369 1_555
F7 Na5 2.887369 1_554
F8 Ti1 1.967936 1_555
F8 Ti4 1.992036 1_565
F8 Na2 2.887369 1_555
F8 Na5 2.887369 1_555
F9 Ti1 1.967936 1_555
F9 Ti4 1.992036 1_555
F9 Na3 2.887369 1_555
F9 Na4 2.887369 1_555
F10 Ti1 1.967936 1_555
F10 Ti5 1.992036 1_655
F10 Na8 2.887369 1_555
F10 Na7 2.887369 1_555
F11 Ti1 1.967936 1_555
F11 Ti5 1.992036 1_555
F11 Na6 2.887369 1_555
F11 Na9 2.887369 1_555
F12 Ti2 1.981216 1_555
F12 Na2 2.322387 1_555
F12 Na6 2.387413 1_555
F12 Na1 2.726818 1_555
F13 Ti2 1.981216 1_656
F13 Na3 2.322387 1_555
F13 Na7 2.387413 1_555
F13 Na1 2.726818 1_556
F14 Ti2 1.981216 1_655
F14 Na4 2.322387 1_555
F14 Na8 2.387413 1_555
F14 Na1 2.726818 1_555
F15 Ti2 1.981216 1_556
F15 Na5 2.322387 1_555
F15 Na9 2.387413 1_555
F15 Na1 2.726818 1_556
F16 Ti3 1.981216 1_555
F16 Na6 2.322387 1_555
F16 Na4 2.387413 1_555
F16 Na1 2.726818 1_555
F17 Ti3 1.981216 1_566
F17 Na7 2.322387 1_555
F17 Na5 2.387413 1_555
F17 Na1 2.726818 1_556
F18 Ti3 1.981216 1_565
F18 Na8 2.322387 1_555
F18 Na2 2.387413 1_555
F18 Na1 2.726818 1_555
F19 Ti3 1.981216 1_556
F19 Na9 2.322387 1_555
F19 Na3 2.387413 1_555
F19 Na1 2.726818 1_556
F20 Ti4 1.981216 1_555
F20 Na6 2.322387 1_555
F20 Na2 2.387413 1_545
F20 Na0 2.726818 1_555
F21 Ti4 1.981216 1_565
F21 Na7 2.322387 1_555
F21 Na3 2.387413 1_565
F21 Na0 2.726818 1_665
F22 Ti4 1.981216 1_565
F22 Na8 2.322387 1_555
F22 Na4 2.387413 1_565
F22 Na0 2.726818 1_665
F23 Ti4 1.981216 1_555
F23 Na9 2.322387 1_555
F23 Na5 2.387413 1_545
F23 Na0 2.726818 1_555
F24 Ti5 1.981216 1_555
F24 Na2 2.322387 1_555
F24 Na8 2.387413 1_455
F24 Na0 2.726818 1_565
F25 Ti5 1.981216 1_655
F25 Na3 2.322387 1_555
F25 Na9 2.387413 1_655
F25 Na0 2.726818 1_655
F26 Ti5 1.981216 1_655
F26 Na4 2.322387 1_555
F26 Na6 2.387413 1_655
F26 Na0 2.726818 1_655
F27 Ti5 1.981216 1_555
F27 Na5 2.322387 1_555
F27 Na7 2.387413 1_455
F27 Na0 2.726818 1_565
