# generated using pymatgen
data_Li2Fe3TeO8
_symmetry_space_group_name_H-M   'P 1'
_cell_length_a   6.08184792
_cell_length_b   6.13526915
_cell_length_c   8.69467153
_cell_angle_alpha   88.17243798
_cell_angle_beta   89.92847298
_cell_angle_gamma   90.01561219
_symmetry_Int_Tables_number   1
_chemical_formula_structural   Li2Fe3TeO8
_chemical_formula_sum   'Li4 Fe6 Te2 O16'
_cell_volume   324.26571247
_cell_formula_units_Z   2
loop_
 _symmetry_equiv_pos_site_id
 _symmetry_equiv_pos_as_xyz
  1  'x, y, z'
loop_
 _atom_site_type_symbol
 _atom_site_label
 _atom_site_symmetry_multiplicity
 _atom_site_fract_x
 _atom_site_fract_y
 _atom_site_fract_z
 _atom_site_occupancy
  Li  Li0  1  0.99955000  0.27675100  0.14181300  1
  Li  Li1  1  0.49987500  0.77615100  0.64167300  1
  Li  Li2  1  0.00010800  0.72382700  0.85838400  1
  Li  Li3  1  0.50040300  0.22323000  0.35821600  1
  Fe  Fe0  1  0.75000200  0.25000600  0.75000400  1
  Fe  Fe1  1  0.75010300  0.75006000  0.24992600  1
  Fe  Fe2  1  0.25002600  0.24998300  0.74992900  1
  Fe  Fe3  1  0.00277800  0.50104800  0.50038800  1
  Fe  Fe4  1  0.49715000  0.99914100  0.99954400  1
  Fe  Fe5  1  0.24994000  0.75001300  0.25001200  1
  Te  Te0  1  0.99452700  0.00077500  0.49966500  1
  Te  Te1  1  0.50546300  0.49915300  0.00028700  1
  O  O0  1  0.99023000  0.53727100  0.27363400  1
  O  O1  1  0.50857100  0.03569300  0.77421100  1
  O  O2  1  0.99155500  0.46429300  0.72581200  1
  O  O3  1  0.50980700  0.96276000  0.22638100  1
  O  O4  1  0.21548600  0.76725700  0.50281400  1
  O  O5  1  0.72979600  0.26424300  0.99302700  1
  O  O6  1  0.77037100  0.76518500  0.49362700  1
  O  O7  1  0.28428000  0.26641800  0.00361500  1
  O  O8  1  0.98787300  0.99503100  0.27463000  1
  O  O9  1  0.51233400  0.49361200  0.77470900  1
  O  O10  1  0.98768700  0.00638000  0.72532200  1
  O  O11  1  0.51213700  0.50496600  0.22539100  1
  O  O12  1  0.21566700  0.23352500  0.49638800  1
  O  O13  1  0.72959000  0.73477800  0.00637800  1
  O  O14  1  0.77019900  0.23574900  0.50700500  1
  O  O15  1  0.28449400  0.73270300  0.99721400  1
loop_
_geom_bond_atom_site_label_1
_geom_bond_atom_site_label_2
_geom_bond_distance
_geom_bond_site_symmetry_2
Li0 O0 1.997083 1_555
Li0 O8 2.049021 1_545
Li0 O5 2.093453 1_554
Li0 O7 2.108621 1_655
Li1 O1 1.995876 1_565
Li1 O9 2.054499 1_555
Li1 O6 2.090010 1_555
Li1 O4 2.112238 1_555
Li2 O2 1.995991 1_455
Li2 O10 2.054682 1_465
Li2 O13 2.089832 1_456
Li2 O15 2.112074 1_555
Li3 O3 1.996919 1_545
Li3 O11 2.049151 1_555
Li3 O14 2.093674 1_555
Li3 O12 2.108511 1_555
Fe0 O1 1.977307 1_555
Fe0 O2 1.977741 1_555
Fe0 O9 2.095273 1_555
Fe0 O10 2.095408 1_555
Fe0 O14 2.120800 1_555
Fe0 O5 2.121003 1_555
Fe1 O0 1.965784 1_555
Fe1 O3 1.966068 1_555
Fe1 O8 2.101515 1_555
Fe1 O11 2.102693 1_555
Fe1 O13 2.126446 1_555
Fe1 O6 2.127612 1_555
Fe2 O2 2.056280 1_455
Fe2 O1 2.056665 1_555
Fe2 O10 2.201159 1_455
Fe2 O9 2.201312 1_555
Fe2 O12 2.220095 1_555
Fe2 O7 2.221278 1_556
Fe3 O2 1.966857 1_455
Fe3 O0 1.978552 1_455
Fe3 O4 2.083905 1_555
Fe3 O12 2.091948 1_555
Fe3 O6 2.150094 1_455
Fe3 O14 2.155473 1_455
Fe4 O1 1.966010 1_565
Fe4 O3 1.979373 1_556
Fe4 O15 2.084781 1_555
Fe4 O7 2.090717 1_566
Fe4 O13 2.151273 1_556
Fe4 O5 2.154827 1_565
Fe5 O0 2.054665 1_455
Fe5 O3 2.055424 1_555
Fe5 O8 2.206110 1_455
Fe5 O11 2.206806 1_555
Fe5 O4 2.213625 1_555
Fe5 O15 2.213679 1_554
O4 Te0 1.964156 1_465
O5 Te1 1.987280 1_556
O6 Te0 1.988579 1_565
O7 Te1 1.960995 1_555
O8 Te0 1.958515 1_565
O9 Te1 1.963098 1_556
O10 Te0 1.963800 1_555
O11 Te1 1.959138 1_555
O12 Te0 1.960886 1_455
O13 Te1 1.988637 1_555
O14 Te0 1.987582 1_555
O15 Te1 1.964347 1_556
