# generated using pymatgen
data_YbIn4Ni
_symmetry_space_group_name_H-M   'P 1'
_cell_length_a   8.53720837
_cell_length_b   8.53720837
_cell_length_c   7.40475500
_cell_angle_alpha   90.00000000
_cell_angle_beta   90.00000000
_cell_angle_gamma   149.75808530
_symmetry_Int_Tables_number   1
_chemical_formula_structural   YbIn4Ni
_chemical_formula_sum   'Yb2 In8 Ni2'
_cell_volume   271.81478857
_cell_formula_units_Z   2
loop_
 _symmetry_equiv_pos_site_id
 _symmetry_equiv_pos_as_xyz
  1  'x, y, z'
loop_
 _atom_site_type_symbol
 _atom_site_label
 _atom_site_symmetry_multiplicity
 _atom_site_fract_x
 _atom_site_fract_y
 _atom_site_fract_z
 _atom_site_occupancy
  Yb  Yb0  1  0.13015600  0.86984400  0.25000000  1
  Yb  Yb1  1  0.86984400  0.13015600  0.75000000  1
  In  In0  1  0.93267400  0.06732600  0.25000000  1
  In  In1  1  0.31714200  0.68285800  0.04823700  1
  In  In2  1  0.07363700  0.92636300  0.75000000  1
  In  In3  1  0.31714200  0.68285800  0.45176300  1
  In  In4  1  0.68995100  0.31004900  0.95254900  1
  In  In5  1  0.50362300  0.49637700  0.50092700  1
  In  In6  1  0.50362300  0.49637700  0.99907300  1
  In  In7  1  0.68995100  0.31004900  0.54745100  1
  Ni  Ni0  1  0.77502700  0.22497300  0.25000000  1
  Ni  Ni1  1  0.23139800  0.76860200  0.75000000  1
loop_
_geom_bond_atom_site_label_1
_geom_bond_atom_site_label_2
_geom_bond_distance
_geom_bond_site_symmetry_2
In0 Ni0 2.598536 1_555
In0 In6 3.127224 1_544
In0 In5 3.127224 1_545
In0 In6 3.127224 1_654
In0 In5 3.127224 1_655
In0 Yb0 3.255146 1_645
In0 In1 3.289086 1_655
In0 In3 3.289086 1_545
In0 In3 3.289086 1_655
In0 In1 3.289086 1_545
In0 Yb1 3.844497 1_555
In0 Yb1 3.844497 1_554
In1 Ni1 2.621915 1_554
In1 Ni0 2.770102 1_455
In1 Ni0 2.770102 1_565
In1 In3 2.988011 1_555
In1 In6 3.095297 1_554
In1 In4 3.139578 1_454
In1 In4 3.139578 1_564
In1 Yb1 3.254391 1_564
In1 Yb1 3.254391 1_454
In1 Yb0 3.425146 1_555
In2 Ni1 2.600415 1_555
In2 In5 3.113342 1_455
In2 In6 3.113342 1_455
In2 In5 3.113342 1_565
In2 In6 3.113342 1_565
In2 In4 3.299208 1_565
In2 In4 3.299208 1_455
In2 In7 3.299208 1_565
In2 In7 3.299208 1_455
In2 Yb1 3.359172 1_465
In2 Yb0 3.817789 1_555
In2 Yb0 3.817789 1_556
In3 Ni1 2.621915 1_555
In3 Ni0 2.770102 1_455
In3 Ni0 2.770102 1_565
In3 In5 3.095297 1_555
In3 In7 3.139578 1_455
In3 In7 3.139578 1_565
In3 Yb1 3.254391 1_565
In3 Yb1 3.254391 1_455
In3 Yb0 3.425146 1_555
In4 Ni0 2.611084 1_556
In4 Ni1 2.770510 1_545
In4 Ni1 2.770510 1_655
In4 In7 2.999651 1_555
In4 In6 3.090552 1_555
In4 Yb0 3.283624 1_656
In4 Yb0 3.283624 1_546
In4 Yb1 3.322953 1_555
In5 In7 3.090552 1_555
In5 Yb0 3.572382 1_545
In5 Yb0 3.572382 1_655
In5 Yb1 3.636422 1_565
In5 Yb1 3.636422 1_455
In6 Yb0 3.572382 1_546
In6 Yb0 3.572382 1_656
In6 Yb1 3.636422 1_565
In6 Yb1 3.636422 1_455
In7 Ni0 2.611084 1_555
In7 Ni1 2.770510 1_545
In7 Ni1 2.770510 1_655
In7 Yb0 3.283624 1_655
In7 Yb0 3.283624 1_545
In7 Yb1 3.322953 1_555
Ni0 Yb0 3.265240 1_655
Ni0 Yb0 3.265240 1_545
Ni1 Yb1 3.188608 1_565
Ni1 Yb1 3.188608 1_455
