# generated using pymatgen
data_Cs3H(SeO4)2
_symmetry_space_group_name_H-M   'P 1'
_cell_length_a   6.45328747
_cell_length_b   6.45328747
_cell_length_c   8.67163349
_cell_angle_alpha   71.17166524
_cell_angle_beta   71.17166524
_cell_angle_gamma   60.76503820
_symmetry_Int_Tables_number   1
_chemical_formula_structural   Cs3H(SeO4)2
_chemical_formula_sum   'Cs3 H1 Se2 O8'
_cell_volume   292.24677225
_cell_formula_units_Z   1
loop_
 _symmetry_equiv_pos_site_id
 _symmetry_equiv_pos_as_xyz
  1  'x, y, z'
loop_
 _atom_site_type_symbol
 _atom_site_label
 _atom_site_symmetry_multiplicity
 _atom_site_fract_x
 _atom_site_fract_y
 _atom_site_fract_z
 _atom_site_occupancy
  Cs  Cs0  1  0.99920600  0.99920600  0.00450300  1
  Cs  Cs1  1  0.80260700  0.80260700  0.60762600  1
  Cs  Cs2  1  0.19825900  0.19825900  0.38863400  1
  H  H0  1  0.48050800  0.48050800  0.99749800  1
  Se  Se0  1  0.57269400  0.57269400  0.23167000  1
  Se  Se1  1  0.42894800  0.42894800  0.76197100  1
  O  O0  1  0.60292000  0.60292000  0.02262600  1
  O  O1  1  0.39002800  0.39002800  0.97955800  1
  O  O2  1  0.72672000  0.30242800  0.69275800  1
  O  O3  1  0.30242800  0.72672000  0.69275800  1
  O  O4  1  0.27457800  0.69743100  0.31064700  1
  O  O5  1  0.69743100  0.27457800  0.31064700  1
  O  O6  1  0.71180100  0.71180100  0.26192000  1
  O  O7  1  0.28687200  0.28687200  0.74218400  1
loop_
_geom_bond_atom_site_label_1
_geom_bond_atom_site_label_2
_geom_bond_distance
_geom_bond_site_symmetry_2
Cs0 O6 3.142953 1_555
Cs0 O7 3.159370 1_664
Cs0 O4 3.213395 1_655
Cs0 O5 3.213395 1_565
Cs0 O2 3.243766 1_564
Cs0 O3 3.243766 1_654
Cs1 O4 3.227318 1_655
Cs1 O5 3.227318 1_565
Cs1 O3 3.308970 1_655
Cs1 O2 3.308970 1_565
Cs1 O3 3.313020 1_555
Cs1 O2 3.313020 1_555
Cs1 O7 3.448504 1_565
Cs1 O7 3.448504 1_655
Cs1 O0 3.450710 1_556
Cs1 O6 3.503861 1_555
Cs2 O3 3.260825 1_545
Cs2 O2 3.260825 1_455
Cs2 O5 3.284303 1_455
Cs2 O4 3.284303 1_545
Cs2 O4 3.317416 1_555
Cs2 O5 3.317416 1_555
Cs2 O1 3.387551 1_554
Cs2 O6 3.429155 1_455
Cs2 O6 3.429155 1_545
Cs2 O7 3.554738 1_555
H0 O1 1.075335 1_555
H0 O0 1.458532 1_556
O0 Se0 1.715479 1_555
O1 Se1 1.770918 1_555
O2 Se1 1.660959 1_555
O3 Se1 1.660959 1_555
O4 Se0 1.676560 1_555
O5 Se0 1.676560 1_555
O6 Se0 1.664835 1_555
O7 Se1 1.653752 1_555
