# generated using pymatgen
data_Ba2Fe2O5
_symmetry_space_group_name_H-M   'P 1'
_cell_length_a   5.62368073
_cell_length_b   5.62368079
_cell_length_c   9.07462235
_cell_angle_alpha   71.94637768
_cell_angle_beta   71.94637005
_cell_angle_gamma   89.99484725
_symmetry_Int_Tables_number   1
_chemical_formula_structural   Ba2Fe2O5
_chemical_formula_sum   'Ba4 Fe4 O10'
_cell_volume   257.96300962
_cell_formula_units_Z   2
loop_
 _symmetry_equiv_pos_site_id
 _symmetry_equiv_pos_as_xyz
  1  'x, y, z'
loop_
 _atom_site_type_symbol
 _atom_site_label
 _atom_site_symmetry_multiplicity
 _atom_site_fract_x
 _atom_site_fract_y
 _atom_site_fract_z
 _atom_site_occupancy
  Ba  Ba0  1  0.99999891  0.99999913  0.00000080  1
  Ba  Ba1  1  0.49999926  0.49999941  0.00000084  1
  Ba  Ba2  1  0.74999937  0.75000052  0.49999897  1
  Ba  Ba3  1  0.25000077  0.25000017  0.49999900  1
  Fe  Fe0  1  0.86551519  0.36551530  0.26917499  1
  Fe  Fe1  1  0.13448315  0.63448365  0.73082582  1
  Fe  Fe2  1  0.36551788  0.86551818  0.26916899  1
  Fe  Fe3  1  0.63448088  0.13448114  0.73083146  1
  O  O0  1  0.24999138  0.74999201  0.50001472  1
  O  O1  1  0.75000855  0.25000831  0.49998355  1
  O  O2  1  0.13455639  0.63455657  0.23089576  1
  O  O3  1  0.63459045  0.13459038  0.23089777  1
  O  O4  1  0.86544220  0.36544270  0.76910508  1
  O  O5  1  0.36540856  0.86540876  0.76910299  1
  O  O6  1  0.13452865  0.13456202  0.23089294  1
  O  O7  1  0.63456183  0.63452850  0.23089321  1
  O  O8  1  0.86547011  0.86543593  0.76910910  1
  O  O9  1  0.36543547  0.36547033  0.76910900  1
loop_
_geom_bond_atom_site_label_1
_geom_bond_atom_site_label_2
_geom_bond_distance
_geom_bond_site_symmetry_2
Ba0 O2 2.738589 1_655
Ba0 O4 2.738594 1_564
Ba0 O3 2.738599 1_565
Ba0 O5 2.738604 1_654
Ba0 O8 2.738699 1_554
Ba0 O9 2.738700 1_664
Ba0 O7 2.738702 1_555
Ba0 O6 2.738705 1_665
Ba1 O2 2.738588 1_555
Ba1 O4 2.738592 1_554
Ba1 O3 2.738600 1_555
Ba1 O5 2.738605 1_554
Ba1 O8 2.738699 1_554
Ba1 O6 2.738702 1_555
Ba1 O9 2.738703 1_554
Ba1 O7 2.738704 1_555
Ba2 O0 2.811840 1_655
Ba2 O1 2.811840 1_555
Ba2 O1 2.811841 1_565
Ba2 O0 2.811841 1_555
Ba2 O3 2.961556 1_565
Ba2 O5 2.961573 1_555
Ba2 O2 2.961573 1_655
Ba2 O4 2.961590 1_555
Ba2 O6 2.961617 1_665
Ba2 O9 2.961640 1_555
Ba2 O7 2.961797 1_555
Ba2 O8 2.961826 1_555
Ba3 O0 2.811839 1_555
Ba3 O1 2.811840 1_455
Ba3 O1 2.811841 1_555
Ba3 O0 2.811842 1_545
Ba3 O3 2.961558 1_555
Ba3 O2 2.961573 1_555
Ba3 O5 2.961574 1_545
Ba3 O4 2.961591 1_455
Ba3 O7 2.961613 1_555
Ba3 O8 2.961642 1_445
Ba3 O6 2.961802 1_555
Ba3 O9 2.961822 1_555
Fe0 O1 1.882643 1_555
Fe0 O2 2.011943 1_655
Fe0 O7 2.012422 1_555
Fe0 O6 2.012423 1_655
Fe0 O3 2.013233 1_555
Fe1 O0 1.882664 1_555
Fe1 O4 2.011941 1_455
Fe1 O8 2.012419 1_455
Fe1 O9 2.012420 1_555
Fe1 O5 2.013236 1_555
Fe2 O0 1.882947 1_555
Fe2 O3 2.012209 1_565
Fe2 O6 2.012676 1_565
Fe2 O7 2.012678 1_555
Fe2 O2 2.013501 1_555
Fe3 O1 1.882964 1_555
Fe3 O5 2.012208 1_545
Fe3 O8 2.012683 1_545
Fe3 O9 2.012684 1_555
Fe3 O4 2.013502 1_555
