# generated using pymatgen
data_HfPt4
_symmetry_space_group_name_H-M   'P 1'
_cell_length_a   3.98505130
_cell_length_b   3.98505130
_cell_length_c   20.04132183
_cell_angle_alpha   90.00000000
_cell_angle_beta   90.00000000
_cell_angle_gamma   90.00000000
_symmetry_Int_Tables_number   1
_chemical_formula_structural   HfPt4
_chemical_formula_sum   'Hf4 Pt16'
_cell_volume   318.26889413
_cell_formula_units_Z   4
loop_
 _symmetry_equiv_pos_site_id
 _symmetry_equiv_pos_as_xyz
  1  'x, y, z'
loop_
 _atom_site_type_symbol
 _atom_site_label
 _atom_site_symmetry_multiplicity
 _atom_site_fract_x
 _atom_site_fract_y
 _atom_site_fract_z
 _atom_site_occupancy
  Hf  Hf0  1  0.00000000  0.00000000  0.19593168  1
  Hf  Hf1  1  0.00000000  0.00000000  0.39912248  1
  Hf  Hf2  1  -0.00000000  -0.00000000  0.60087752  1
  Hf  Hf3  1  -0.00000000  -0.00000000  0.80406832  1
  Pt  Pt0  1  0.50000000  0.50000000  -0.00000000  1
  Pt  Pt1  1  0.50000000  0.50000000  0.20040292  1
  Pt  Pt2  1  0.50000000  0.50000000  0.40006260  1
  Pt  Pt3  1  0.50000000  0.50000000  0.59993740  1
  Pt  Pt4  1  0.50000000  0.50000000  0.79959708  1
  Pt  Pt5  1  0.50000000  -0.00000000  0.10124612  1
  Pt  Pt6  1  0.50000000  0.00000000  0.30007442  1
  Pt  Pt7  1  0.50000000  0.00000000  0.50000000  1
  Pt  Pt8  1  0.50000000  -0.00000000  0.69992558  1
  Pt  Pt9  1  0.50000000  0.00000000  0.89875388  1
  Pt  Pt10  1  -0.00000000  0.50000000  0.10124612  1
  Pt  Pt11  1  0.00000000  0.50000000  0.30007442  1
  Pt  Pt12  1  -0.00000000  0.50000000  0.50000000  1
  Pt  Pt13  1  -0.00000000  0.50000000  0.69992558  1
  Pt  Pt14  1  0.00000000  0.50000000  0.89875388  1
  Pt  Pt15  1  -0.00000000  0.00000000  -0.00000000  1
loop_
_geom_bond_atom_site_label_1
_geom_bond_atom_site_label_2
_geom_bond_distance
_geom_bond_site_symmetry_2
Hf0 Pt5 2.751569 1_555
Hf0 Pt10 2.751569 1_545
Hf0 Pt5 2.751569 1_455
Hf0 Pt10 2.751569 1_555
Hf0 Pt1 2.819281 1_445
Hf0 Pt1 2.819281 1_455
Hf0 Pt1 2.819281 1_545
Hf0 Pt1 2.819281 1_555
Hf0 Pt6 2.885548 1_555
Hf0 Pt11 2.885548 1_545
Hf0 Pt11 2.885548 1_555
Hf0 Pt6 2.885548 1_455
Hf1 Pt11 2.812579 1_555
Hf1 Pt6 2.812579 1_455
Hf1 Pt6 2.812579 1_555
Hf1 Pt11 2.812579 1_545
Hf1 Pt2 2.817920 1_545
Hf1 Pt2 2.817920 1_445
Hf1 Pt2 2.817920 1_455
Hf1 Pt2 2.817920 1_555
Hf1 Pt7 2.838575 1_455
Hf1 Pt12 2.838575 1_555
Hf1 Pt7 2.838575 1_555
Hf1 Pt12 2.838575 1_545
Hf2 Pt8 2.812579 1_455
Hf2 Pt13 2.812579 1_545
Hf2 Pt8 2.812579 1_555
Hf2 Pt13 2.812579 1_555
Hf2 Pt3 2.817920 1_455
Hf2 Pt3 2.817920 1_555
Hf2 Pt3 2.817920 1_545
Hf2 Pt3 2.817920 1_445
Hf2 Pt12 2.838575 1_545
Hf2 Pt7 2.838575 1_455
Hf2 Pt7 2.838575 1_555
Hf2 Pt12 2.838575 1_555
Hf3 Pt9 2.751569 1_455
Hf3 Pt14 2.751569 1_555
Hf3 Pt9 2.751569 1_555
Hf3 Pt14 2.751569 1_545
Hf3 Pt4 2.819281 1_545
Hf3 Pt4 2.819281 1_455
Hf3 Pt4 2.819281 1_555
Hf3 Pt4 2.819281 1_445
Hf3 Pt13 2.885548 1_555
Hf3 Pt8 2.885548 1_555
Hf3 Pt8 2.885548 1_455
Hf3 Pt13 2.885548 1_545
Pt0 Pt15 2.817857 1_655
Pt0 Pt15 2.817857 1_665
Pt0 Pt15 2.817857 1_565
Pt0 Pt15 2.817857 1_555
Pt0 Pt5 2.843841 1_565
Pt0 Pt9 2.843841 1_564
Pt0 Pt14 2.843841 1_554
Pt0 Pt10 2.843841 1_555
Pt0 Pt5 2.843841 1_555
Pt0 Pt14 2.843841 1_654
Pt0 Pt10 2.843841 1_655
Pt0 Pt9 2.843841 1_554
Pt10 Pt15 2.843841 1_565
Pt10 Pt15 2.843841 1_555
Pt14 Pt15 2.843841 1_566
Pt14 Pt15 2.843841 1_556
Pt15 Pt5 2.843841 1_455
Pt15 Pt5 2.843841 1_555
Pt15 Pt9 2.843841 1_454
Pt15 Pt9 2.843841 1_554
