# generated using pymatgen
data_Ho2Al3Fe
_symmetry_space_group_name_H-M   'P 1'
_cell_length_a   5.38562654
_cell_length_b   5.38562654
_cell_length_c   5.38562563
_cell_angle_alpha   61.47665513
_cell_angle_beta   61.47665513
_cell_angle_gamma   61.47665042
_symmetry_Int_Tables_number   1
_chemical_formula_structural   Ho2Al3Fe
_chemical_formula_sum   'Ho2 Al3 Fe1'
_cell_volume   114.11902829
_cell_formula_units_Z   1
loop_
 _symmetry_equiv_pos_site_id
 _symmetry_equiv_pos_as_xyz
  1  'x, y, z'
loop_
 _atom_site_type_symbol
 _atom_site_label
 _atom_site_symmetry_multiplicity
 _atom_site_fract_x
 _atom_site_fract_y
 _atom_site_fract_z
 _atom_site_occupancy
  Ho  Ho0  1  0.62586874  0.62586874  0.62586874  1
  Ho  Ho1  1  0.37413126  0.37413126  0.37413126  1
  Al  Al0  1  -0.00000000  0.50000000  0.00000000  1
  Al  Al1  1  0.50000000  -0.00000000  0.00000000  1
  Al  Al2  1  -0.00000000  -0.00000000  0.50000000  1
  Fe  Fe0  1  -0.00000000  -0.00000000  0.00000000  1
loop_
_geom_bond_atom_site_label_1
_geom_bond_atom_site_label_2
_geom_bond_distance
_geom_bond_site_symmetry_2
Ho0 Ho1 3.283385 1_555
Ho0 Ho1 3.351968 1_556
Ho0 Ho1 3.351969 1_655
Ho0 Ho1 3.351969 1_565
Al0 Fe0 2.692813 1_555
Al0 Fe0 2.692813 1_565
Al0 Al2 2.752690 1_555
Al0 Al2 2.752690 1_564
Al0 Al1 2.752690 1_555
Al0 Al1 2.752690 1_465
Al0 Ho1 3.138132 1_555
Al0 Ho0 3.138132 1_454
Al0 Ho0 3.205067 1_455
Al0 Ho1 3.205067 1_554
Al0 Ho0 3.205068 1_554
Al0 Ho1 3.205068 1_455
Al1 Fe0 2.692813 1_555
Al1 Fe0 2.692813 1_655
Al1 Al2 2.752690 1_654
Al1 Al2 2.752690 1_555
Al1 Ho1 3.138132 1_555
Al1 Ho0 3.138132 1_544
Al1 Ho0 3.205067 1_545
Al1 Ho1 3.205067 1_554
Al1 Ho0 3.205068 1_554
Al1 Ho1 3.205068 1_545
Al2 Fe0 2.692813 1_556
Al2 Fe0 2.692813 1_555
Al2 Ho0 3.138132 1_445
Al2 Ho1 3.138132 1_555
Al2 Ho1 3.205068 1_545
Al2 Ho0 3.205068 1_455
Al2 Ho1 3.205068 1_455
Al2 Ho0 3.205068 1_545
Fe0 Ho1 3.222767 1_545
Fe0 Ho1 3.222767 1_455
Fe0 Ho0 3.222767 1_454
Fe0 Ho0 3.222767 1_544
Fe0 Ho0 3.222767 1_445
Fe0 Ho1 3.222767 1_554
