# generated using pymatgen
data_Li9Mn2Co5O16
_symmetry_space_group_name_H-M   'P 1'
_cell_length_a   2.91951200
_cell_length_b   8.37166565
_cell_length_c   11.91581748
_cell_angle_alpha   89.70516656
_cell_angle_beta   90.00000000
_cell_angle_gamma   90.00000000
_symmetry_Int_Tables_number   1
_chemical_formula_structural   Li9Mn2Co5O16
_chemical_formula_sum   'Li9 Mn2 Co5 O16'
_cell_volume   291.23276410
_cell_formula_units_Z   1
loop_
 _symmetry_equiv_pos_site_id
 _symmetry_equiv_pos_as_xyz
  1  'x, y, z'
loop_
 _atom_site_type_symbol
 _atom_site_label
 _atom_site_symmetry_multiplicity
 _atom_site_fract_x
 _atom_site_fract_y
 _atom_site_fract_z
 _atom_site_occupancy
  Li  Li0  1  0.50000000  0.25295800  0.13254400  1
  Li  Li1  1  0.50000000  0.75000000  0.37500000  1
  Li  Li2  1  0.50000000  0.24704200  0.61745600  1
  Li  Li3  1  0.00000000  0.50275900  0.00919800  1
  Li  Li4  1  0.00000000  0.01144300  0.26300100  1
  Li  Li5  1  0.00000000  0.48855700  0.48699900  1
  Li  Li6  1  0.50000000  0.75000000  0.87500000  1
  Li  Li7  1  0.00000000  0.99724100  0.74080200  1
  Li  Li8  1  0.50000000  0.25000000  0.37500000  1
  Mn  Mn0  1  0.00000000  0.99820900  0.99955200  1
  Mn  Mn1  1  0.00000000  0.50179100  0.75044800  1
  Co  Co0  1  0.00000000  0.47377200  0.25489700  1
  Co  Co1  1  0.00000000  0.02622800  0.49510300  1
  Co  Co2  1  0.50000000  0.25000000  0.87500000  1
  Co  Co3  1  0.50000000  0.74278400  0.13229600  1
  Co  Co4  1  0.50000000  0.75721600  0.61770400  1
  O  O0  1  0.50000000  0.00116000  0.10741600  1
  O  O1  1  0.50000000  0.50302900  0.36384800  1
  O  O2  1  0.50000000  0.99291100  0.62070400  1
  O  O3  1  0.00000000  0.23056600  0.98990000  1
  O  O4  1  0.00000000  0.75225900  0.23825000  1
  O  O5  1  0.00000000  0.23976200  0.50367100  1
  O  O6  1  0.50000000  0.50727000  0.86159300  1
  O  O7  1  0.00000000  0.73473500  0.74108200  1
  O  O8  1  0.50000000  0.50708900  0.12929600  1
  O  O9  1  0.50000000  0.99697100  0.38615200  1
  O  O10  1  0.50000000  0.49884000  0.64258400  1
  O  O11  1  0.00000000  0.76526500  0.00891800  1
  O  O12  1  0.00000000  0.26023800  0.24632900  1
  O  O13  1  0.00000000  0.74774100  0.51175000  1
  O  O14  1  0.50000000  0.99273000  0.88840700  1
  O  O15  1  0.00000000  0.26943400  0.76010000  1
loop_
_geom_bond_atom_site_label_1
_geom_bond_atom_site_label_2
_geom_bond_distance
_geom_bond_site_symmetry_2
Li0 O12 1.993429 1_655
Li0 O12 1.993429 1_555
Li0 O8 2.127653 1_555
Li0 O0 2.130653 1_555
Li0 O3 2.249079 1_654
Li0 O3 2.249079 1_554
Li1 O9 2.072507 1_555
Li1 O1 2.072507 1_555
Li1 O4 2.187729 1_555
Li1 O4 2.187729 1_655
Li1 O13 2.187729 1_655
Li1 O13 2.187729 1_555
Li2 O5 1.993429 1_555
Li2 O5 1.993429 1_655
Li2 O2 2.127653 1_545
Li2 O10 2.130653 1_555
Li2 O15 2.249079 1_655
Li2 O15 2.249079 1_555
Li3 O8 2.044672 1_455
Li3 O8 2.044672 1_555
Li3 O11 2.197598 1_555
Li3 O6 2.285854 1_554
Li3 O6 2.285854 1_454
Li3 O3 2.291459 1_554
Li4 O9 2.072952 1_545
Li4 O9 2.072952 1_445
Li4 O12 2.091263 1_555
Li4 O4 2.191257 1_545
Li4 O0 2.361561 1_455
Li4 O0 2.361561 1_555
Li5 O1 2.072952 1_555
Li5 O1 2.072952 1_455
Li5 O5 2.091263 1_555
Li5 O13 2.191257 1_555
Li5 O10 2.361561 1_455
Li5 O10 2.361561 1_555
Li6 O6 2.039144 1_555
Li6 O14 2.039144 1_555
Li6 O11 2.166959 1_556
Li6 O11 2.166959 1_656
Li6 O7 2.166959 1_655
Li6 O7 2.166959 1_555
Li7 O2 2.044672 1_555
Li7 O2 2.044672 1_455
Li7 O7 2.197598 1_555
Li7 O14 2.285854 1_555
Li7 O14 2.285854 1_455
Li7 O15 2.291459 1_565
Li8 O5 2.118406 1_555
Li8 O12 2.118406 1_655
Li8 O5 2.118406 1_655
Li8 O12 2.118406 1_555
Li8 O1 2.121756 1_555
Li8 O9 2.121756 1_545
Mn0 O0 1.945196 1_566
Mn0 O0 1.945196 1_466
Mn0 O3 1.948021 1_565
Mn0 O11 1.952747 1_556
Mn0 O14 1.971702 1_455
Mn0 O14 1.971702 1_555
Mn1 O10 1.945196 1_555
Mn1 O10 1.945196 1_455
Mn1 O15 1.948021 1_555
Mn1 O7 1.952747 1_555
Mn1 O6 1.971702 1_455
Mn1 O6 1.971702 1_555
Co0 O12 1.791073 1_555
Co0 O1 1.969665 1_455
Co0 O1 1.969665 1_555
Co0 O8 2.108154 1_555
Co0 O8 2.108154 1_455
Co0 O4 2.338806 1_555
Co1 O5 1.791073 1_555
Co1 O9 1.969665 1_445
Co1 O9 1.969665 1_545
Co1 O2 2.108154 1_445
Co1 O2 2.108154 1_545
Co1 O13 2.338806 1_545
Co2 O15 2.007380 1_555
Co2 O3 2.007380 1_655
Co2 O15 2.007380 1_655
Co2 O3 2.007380 1_555
Co2 O14 2.158875 1_545
Co2 O6 2.158875 1_555
Co3 O4 1.931887 1_555
Co3 O4 1.931887 1_655
Co3 O8 1.973667 1_555
Co3 O11 2.079616 1_655
Co3 O11 2.079616 1_555
Co3 O0 2.181748 1_565
Co4 O13 1.931887 1_655
Co4 O13 1.931887 1_555
Co4 O2 1.973667 1_555
Co4 O7 2.079616 1_555
Co4 O7 2.079616 1_655
Co4 O10 2.181748 1_555
