# generated using pymatgen
data_Y2SnAu2
_symmetry_space_group_name_H-M   'P 1'
_cell_length_a   8.36921700
_cell_length_b   8.36921700
_cell_length_c   3.60086000
_cell_angle_alpha   90.00000000
_cell_angle_beta   90.00000000
_cell_angle_gamma   90.00000000
_symmetry_Int_Tables_number   1
_chemical_formula_structural   Y2SnAu2
_chemical_formula_sum   'Y4 Sn2 Au4'
_cell_volume   252.21789316
_cell_formula_units_Z   2
loop_
 _symmetry_equiv_pos_site_id
 _symmetry_equiv_pos_as_xyz
  1  'x, y, z'
loop_
 _atom_site_type_symbol
 _atom_site_label
 _atom_site_symmetry_multiplicity
 _atom_site_fract_x
 _atom_site_fract_y
 _atom_site_fract_z
 _atom_site_occupancy
  Y  Y0  1  0.83698700  0.33698700  0.50000000  1
  Y  Y1  1  0.16301300  0.66301300  0.50000000  1
  Y  Y2  1  0.33698700  0.16301300  0.50000000  1
  Y  Y3  1  0.66301300  0.83698700  0.50000000  1
  Sn  Sn0  1  0.00000000  0.00000000  0.50000000  1
  Sn  Sn1  1  0.50000000  0.50000000  0.50000000  1
  Au  Au0  1  0.62919800  0.12919800  0.00000000  1
  Au  Au1  1  0.37080200  0.87080200  0.00000000  1
  Au  Au2  1  0.12919800  0.37080200  0.00000000  1
  Au  Au3  1  0.87080200  0.62919800  0.00000000  1
loop_
_geom_bond_atom_site_label_1
_geom_bond_atom_site_label_2
_geom_bond_distance
_geom_bond_site_symmetry_2
Sn0 Y2 3.132967 1_555
Sn0 Y1 3.132967 1_545
Sn0 Y0 3.132967 1_455
Sn0 Y3 3.132967 1_445
Sn1 Y3 3.132967 1_555
Sn1 Y0 3.132967 1_555
Sn1 Y2 3.132967 1_555
Sn1 Y1 3.132967 1_555
Au0 Y0 3.047951 1_554
Au0 Y0 3.047951 1_555
Au0 Y2 3.049998 1_554
Au0 Y2 3.049998 1_555
Au0 Y3 3.049998 1_545
Au0 Y3 3.049998 1_544
Au0 Au1 3.058339 1_545
Au1 Y1 3.047951 1_555
Au1 Y1 3.047951 1_554
Au1 Y2 3.049998 1_565
Au1 Y2 3.049998 1_564
Au1 Y3 3.049998 1_554
Au1 Y3 3.049998 1_555
Au2 Y2 3.047951 1_555
Au2 Y2 3.047951 1_554
Au2 Y0 3.049998 1_454
Au2 Y0 3.049998 1_455
Au2 Y1 3.049998 1_555
Au2 Y1 3.049998 1_554
Au2 Au3 3.058339 1_455
Au3 Y3 3.047951 1_554
Au3 Y3 3.047951 1_555
Au3 Y0 3.049998 1_555
Au3 Y0 3.049998 1_554
Au3 Y1 3.049998 1_655
Au3 Y1 3.049998 1_654
