# generated using pymatgen
data_YbCdAg
_symmetry_space_group_name_H-M   'P 1'
_cell_length_a   5.90848898
_cell_length_b   5.90848898
_cell_length_c   9.34380600
_cell_angle_alpha   90.00000000
_cell_angle_beta   90.00000000
_cell_angle_gamma   119.59779668
_symmetry_Int_Tables_number   1
_chemical_formula_structural   YbCdAg
_chemical_formula_sum   'Yb4 Cd4 Ag4'
_cell_volume   283.63068510
_cell_formula_units_Z   4
loop_
 _symmetry_equiv_pos_site_id
 _symmetry_equiv_pos_as_xyz
  1  'x, y, z'
loop_
 _atom_site_type_symbol
 _atom_site_label
 _atom_site_symmetry_multiplicity
 _atom_site_fract_x
 _atom_site_fract_y
 _atom_site_fract_z
 _atom_site_occupancy
  Yb  Yb0  1  0.33536000  0.66464000  0.30038100  1
  Yb  Yb1  1  0.66777700  0.33222300  0.18377300  1
  Yb  Yb2  1  0.66777700  0.33222300  0.81622700  1
  Yb  Yb3  1  0.33536000  0.66464000  0.69961900  1
  Cd  Cd0  1  0.83141600  0.16858400  0.50000000  1
  Cd  Cd1  1  0.33678500  0.16842500  0.50000000  1
  Cd  Cd2  1  0.83157500  0.66321500  0.50000000  1
  Cd  Cd3  1  0.16723700  0.83276300  0.00000000  1
  Ag  Ag0  1  0.65781800  0.83046800  0.00000000  1
  Ag  Ag1  1  0.16953200  0.34218200  0.00000000  1
  Ag  Ag2  1  0.99967700  0.00032300  0.24671800  1
  Ag  Ag3  1  0.99967700  0.00032300  0.75328200  1
loop_
_geom_bond_atom_site_label_1
_geom_bond_atom_site_label_2
_geom_bond_distance
_geom_bond_site_symmetry_2
Cd0 Cd1 2.922058 1_555
Cd0 Cd2 2.922058 1_555
Cd0 Cd1 2.986431 1_655
Cd0 Cd2 2.986431 1_545
Cd0 Yb1 3.394656 1_555
Cd0 Yb2 3.394656 1_555
Cd0 Yb3 3.509200 1_655
Cd0 Yb0 3.509200 1_655
Cd0 Yb0 3.509200 1_545
Cd0 Yb3 3.509200 1_545
Cd1 Cd2 2.941216 1_555
Cd1 Cd2 3.003156 1_445
Cd1 Yb1 3.409142 1_555
Cd1 Yb2 3.409142 1_555
Cd1 Yb3 3.478413 1_555
Cd1 Yb0 3.478413 1_555
Cd1 Yb0 3.509200 1_545
Cd1 Yb3 3.509200 1_545
Cd2 Yb1 3.409142 1_555
Cd2 Yb2 3.409142 1_555
Cd2 Yb3 3.478413 1_555
Cd2 Yb0 3.478413 1_555
Cd2 Yb3 3.509200 1_655
Cd2 Yb0 3.509200 1_655
Cd3 Yb3 3.290259 1_554
Cd3 Yb0 3.290259 1_555
Cd3 Yb2 3.432563 1_564
Cd3 Yb1 3.432563 1_565
Cd3 Yb2 3.432563 1_454
Cd3 Yb1 3.432563 1_455
Ag0 Ag2 2.898100 1_565
Ag0 Ag3 2.898100 1_564
Ag0 Ag1 2.902554 1_555
Ag0 Cd3 2.905314 1_555
Ag0 Cd3 3.003222 1_655
Ag0 Ag1 3.041818 1_665
Ag0 Yb3 3.259373 1_554
Ag0 Yb0 3.259373 1_555
Ag0 Yb2 3.401271 1_564
Ag0 Yb1 3.401271 1_565
Ag0 Yb2 3.433591 1_554
Ag0 Yb1 3.433591 1_555
Ag1 Ag3 2.898100 1_454
Ag1 Ag2 2.898100 1_455
Ag1 Cd3 2.905314 1_555
Ag1 Cd3 3.003222 1_545
Ag1 Yb3 3.259373 1_554
Ag1 Yb0 3.259373 1_555
Ag1 Yb1 3.401271 1_455
Ag1 Yb2 3.401271 1_454
Ag1 Yb2 3.433591 1_554
Ag1 Yb1 3.433591 1_555
Ag2 Cd3 2.871037 1_645
Ag2 Cd0 2.924714 1_555
Ag2 Cd1 2.932650 1_655
Ag2 Cd2 2.932650 1_545
Ag2 Yb1 3.440342 1_555
Ag2 Yb0 3.449864 1_545
Ag2 Yb0 3.449864 1_655
Ag2 Yb0 3.464805 1_645
Ag2 Yb1 3.482417 1_655
Ag2 Yb1 3.482417 1_545
Ag3 Cd3 2.871037 1_646
Ag3 Cd0 2.924714 1_555
Ag3 Cd1 2.932650 1_655
Ag3 Cd2 2.932650 1_545
Ag3 Yb2 3.440342 1_555
Ag3 Yb3 3.449864 1_545
Ag3 Yb3 3.449864 1_655
Ag3 Yb3 3.464805 1_645
Ag3 Yb2 3.482417 1_655
Ag3 Yb2 3.482417 1_545
