# generated using pymatgen
data_SrV2(CoO4)2
_symmetry_space_group_name_H-M   'P 1'
_cell_length_a   9.77896511
_cell_length_b   9.77896511
_cell_length_c   9.77896511
_cell_angle_alpha   100.91237326
_cell_angle_beta   100.91237326
_cell_angle_gamma   128.41734569
_symmetry_Int_Tables_number   1
_chemical_formula_structural   SrV2(CoO4)2
_chemical_formula_sum   'Sr4 V8 Co8 O32'
_cell_volume   659.70344040
_cell_formula_units_Z   4
loop_
 _symmetry_equiv_pos_site_id
 _symmetry_equiv_pos_as_xyz
  1  'x, y, z'
loop_
 _atom_site_type_symbol
 _atom_site_label
 _atom_site_symmetry_multiplicity
 _atom_site_fract_x
 _atom_site_fract_y
 _atom_site_fract_z
 _atom_site_occupancy
  Sr  Sr0  1  0.50603700  0.00603700  0.50000000  1
  Sr  Sr1  1  0.00603700  0.50603700  0.50000000  1
  Sr  Sr2  1  0.25603700  0.25603700  0.00000000  1
  Sr  Sr3  1  0.75603700  0.75603700  0.00000000  1
  V  V0  1  0.51166400  0.82955900  0.15882200  1
  V  V1  1  0.01166400  0.85284200  0.68210500  1
  V  V2  1  0.60284200  0.26166400  0.18210500  1
  V  V3  1  0.57955900  0.76166400  0.65882200  1
  V  V4  1  0.67073700  0.35284200  0.84117800  1
  V  V5  1  0.17073700  0.32955900  0.31789500  1
  V  V6  1  0.07955900  0.42073700  0.81789500  1
  V  V7  1  0.10284200  0.92073700  0.34117800  1
  Co  Co0  1  0.38945400  0.89196800  0.83589300  1
  Co  Co1  1  0.88945400  0.05356100  0.49748600  1
  Co  Co2  1  0.80356100  0.13945400  0.99748600  1
  Co  Co3  1  0.64196800  0.63945400  0.33589300  1
  Co  Co4  1  0.05607400  0.55356100  0.16410700  1
  Co  Co5  1  0.55607400  0.39196800  0.50251400  1
  Co  Co6  1  0.14196800  0.80607400  0.00251400  1
  Co  Co7  1  0.30356100  0.30607400  0.66410700  1
  O  O0  1  0.00455600  0.85688500  0.86016600  1
  O  O1  1  0.50455600  0.64439000  0.14767100  1
  O  O2  1  0.39439000  0.75455600  0.64767100  1
  O  O3  1  0.60688500  0.25455600  0.36016600  1
  O  O4  1  0.99671900  0.14439000  0.13983400  1
  O  O5  1  0.49671900  0.35688500  0.85232900  1
  O  O6  1  0.10688500  0.74671900  0.35232900  1
  O  O7  1  0.89439000  0.24671900  0.63983400  1
  O  O8  1  0.31180100  0.13797800  0.49026800  1
  O  O9  1  0.81180100  0.32153300  0.17382300  1
  O  O10  1  0.07153300  0.06180100  0.67382300  1
  O  O11  1  0.88797800  0.56180100  0.99026800  1
  O  O12  1  0.64771000  0.82153300  0.50973200  1
  O  O13  1  0.14771000  0.63797800  0.82617700  1
  O  O14  1  0.38797800  0.39771000  0.32617700  1
  O  O15  1  0.57153300  0.89771000  0.00973200  1
  O  O16  1  0.52892800  0.55364100  0.65954200  1
  O  O17  1  0.02892800  0.36938600  0.97528700  1
  O  O18  1  0.11938600  0.27892800  0.47528700  1
  O  O19  1  0.30364100  0.77892800  0.15954200  1
  O  O20  1  0.89410000  0.86938600  0.34045800  1
  O  O21  1  0.39410000  0.05364100  0.02471300  1
  O  O22  1  0.80364100  0.64410000  0.52471300  1
  O  O23  1  0.61938600  0.14410000  0.84045800  1
  O  O24  1  0.19051200  0.86105000  0.67414200  1
  O  O25  1  0.69051200  0.01637100  0.32946200  1
  O  O26  1  0.76637100  0.94051200  0.82946200  1
  O  O27  1  0.61105000  0.44051200  0.17414200  1
  O  O28  1  0.18690800  0.51637100  0.32585800  1
  O  O29  1  0.68690800  0.36105000  0.67053800  1
  O  O30  1  0.11105000  0.93690800  0.17053800  1
  O  O31  1  0.26637100  0.43690800  0.82585800  1
loop_
_geom_bond_atom_site_label_1
_geom_bond_atom_site_label_2
_geom_bond_distance
_geom_bond_site_symmetry_2
Co0 O23 2.041429 1_565
Co0 O13 2.072474 1_555
Co0 O24 2.073882 1_555
Co0 O2 2.091331 1_555
Co0 O21 2.164425 1_566
Co0 O15 2.181047 1_556
Co1 O18 2.041424 1_655
Co1 O12 2.072474 1_545
Co1 O25 2.073887 1_555
Co1 O7 2.091331 1_555
Co1 O20 2.164438 1_545
Co1 O10 2.181047 1_655
Co2 O17 2.041424 1_655
Co2 O15 2.072474 1_546
Co2 O26 2.073887 1_545
Co2 O4 2.091331 1_556
Co2 O23 2.164438 1_555
Co2 O9 2.181047 1_556
Co3 O20 2.041429 1_555
Co3 O14 2.072474 1_555
Co3 O27 2.073882 1_555
Co3 O1 2.091331 1_555
Co3 O22 2.164425 1_555
Co3 O12 2.181047 1_555
Co4 O19 2.041429 1_555
Co4 O9 2.072469 1_455
Co4 O28 2.073881 1_555
Co4 O6 2.091326 1_555
Co4 O17 2.164437 1_554
Co4 O11 2.181041 1_454
Co5 O22 2.041432 1_555
Co5 O8 2.072470 1_555
Co5 O29 2.073887 1_555
Co5 O3 2.091338 1_555
Co5 O16 2.164424 1_555
Co5 O14 2.181041 1_555
Co6 O21 2.041432 1_565
Co6 O11 2.072470 1_454
Co6 O30 2.073887 1_555
Co6 O0 2.091338 1_554
Co6 O19 2.164424 1_555
Co6 O13 2.181041 1_554
Co7 O16 2.041429 1_555
Co7 O10 2.072469 1_555
Co7 O31 2.073881 1_555
Co7 O5 2.091326 1_555
Co7 O18 2.164437 1_555
Co7 O8 2.181041 1_555
O0 V1 1.749723 1_555
O0 Sr3 2.745697 1_456
O0 Sr2 2.815998 1_566
O1 V0 1.749723 1_555
O1 Sr2 2.745697 1_555
O1 Sr3 2.815998 1_555
O2 V3 1.749723 1_555
O2 Sr1 2.745697 1_555
O2 Sr0 2.815998 1_565
O3 V2 1.749723 1_555
O3 Sr0 2.745697 1_555
O3 Sr1 2.815998 1_655
O4 V5 1.749723 1_655
O4 Sr3 2.745697 1_545
O4 Sr2 2.815998 1_655
O5 V4 1.749723 1_555
O5 Sr2 2.745697 1_556
O5 Sr3 2.815998 1_556
O6 V7 1.749723 1_555
O6 Sr1 2.745697 1_555
O6 Sr0 2.815998 1_565
O7 V6 1.749723 1_655
O7 Sr0 2.745697 1_555
O7 Sr1 2.815998 1_655
O8 V7 1.765975 1_545
O8 Sr0 2.881902 1_555
O9 V2 1.765975 1_555
O9 Sr1 2.881902 1_655
O10 V1 1.765975 1_545
O10 Sr2 2.881902 1_556
O11 V4 1.765975 1_555
O11 Sr3 2.881902 1_556
O12 V3 1.765975 1_555
O12 Sr0 2.881902 1_565
O13 V6 1.765975 1_555
O13 Sr1 2.881902 1_555
O14 V5 1.765975 1_555
O14 Sr2 2.881902 1_555
O15 V0 1.765975 1_555
O15 Sr3 2.881902 1_555
O16 V3 1.771551 1_555
O16 Sr3 3.029348 1_556
O17 V6 1.771551 1_555
O17 Sr2 3.029348 1_556
O18 V5 1.771551 1_555
O18 Sr1 3.029348 1_555
O19 V0 1.771551 1_555
O19 Sr0 3.029348 1_565
O20 V7 1.771542 1_655
O20 Sr3 3.029348 1_555
O21 V2 1.771549 1_555
O21 Sr2 3.029356 1_555
O22 V1 1.771549 1_655
O22 Sr1 3.029356 1_655
O23 V4 1.771542 1_555
O23 Sr0 3.029348 1_555
O24 V1 1.717788 1_555
O24 Sr1 2.649910 1_555
O25 V0 1.717791 1_545
O25 Sr0 2.649907 1_555
O26 V3 1.717791 1_555
O26 Sr3 2.649907 1_556
O27 V2 1.717788 1_555
O27 Sr2 2.649910 1_555
O28 V5 1.717798 1_555
O28 Sr1 2.649907 1_555
O29 V4 1.717788 1_555
O29 Sr0 2.649910 1_555
O30 V7 1.717788 1_555
O30 Sr3 2.649910 1_455
O31 V6 1.717798 1_555
O31 Sr2 2.649907 1_556
