# generated using pymatgen
data_P3Pb5O12F
_symmetry_space_group_name_H-M   'P 1'
_cell_length_a   9.90560426
_cell_length_b   9.90560426
_cell_length_c   7.36210500
_cell_angle_alpha   90.00000000
_cell_angle_beta   90.00000000
_cell_angle_gamma   120.00000171
_symmetry_Int_Tables_number   1
_chemical_formula_structural   P3Pb5O12F
_chemical_formula_sum   'P6 Pb10 O24 F2'
_cell_volume   625.59688548
_cell_formula_units_Z   2
loop_
 _symmetry_equiv_pos_site_id
 _symmetry_equiv_pos_as_xyz
  1  'x, y, z'
loop_
 _atom_site_type_symbol
 _atom_site_label
 _atom_site_symmetry_multiplicity
 _atom_site_fract_x
 _atom_site_fract_y
 _atom_site_fract_z
 _atom_site_occupancy
  P  P0  1  0.02380600  0.61898000  0.75019400  1
  P  P1  1  0.59517400  0.97619400  0.75019400  1
  P  P2  1  0.38102000  0.40482600  0.75019400  1
  P  P3  1  0.97619400  0.38102000  0.25019400  1
  P  P4  1  0.40482600  0.02380600  0.25019400  1
  P  P5  1  0.61898000  0.59517400  0.25019400  1
  Pb  Pb0  1  0.23049000  0.99425800  0.74811200  1
  Pb  Pb1  1  0.76376800  0.76951000  0.74811200  1
  Pb  Pb2  1  0.00574200  0.23623200  0.74811200  1
  Pb  Pb3  1  0.76951000  0.00574200  0.24811200  1
  Pb  Pb4  1  0.23623200  0.23049000  0.24811200  1
  Pb  Pb5  1  0.99425800  0.76376800  0.24811200  1
  Pb  Pb6  1  0.66666700  0.33333300  0.99811600  1
  Pb  Pb7  1  0.33333300  0.66666700  0.49811600  1
  Pb  Pb8  1  0.33333300  0.66666700  0.00220900  1
  Pb  Pb9  1  0.66666700  0.33333300  0.50220900  1
  O  O0  1  0.08266700  0.72756800  0.92069400  1
  O  O1  1  0.64490100  0.91733300  0.92069400  1
  O  O2  1  0.27243200  0.35509900  0.92069400  1
  O  O3  1  0.91733300  0.27243200  0.42069400  1
  O  O4  1  0.35509900  0.08266700  0.42069400  1
  O  O5  1  0.72756800  0.64490100  0.42069400  1
  O  O6  1  0.91629600  0.27212600  0.08042300  1
  O  O7  1  0.35582900  0.08370400  0.08042300  1
  O  O8  1  0.72787400  0.64417100  0.08042300  1
  O  O9  1  0.08370400  0.72787400  0.58042300  1
  O  O10  1  0.64417100  0.91629600  0.58042300  1
  O  O11  1  0.27212600  0.35582900  0.58042300  1
  O  O12  1  0.10115000  0.51406100  0.75015600  1
  O  O13  1  0.41291100  0.89885000  0.75015600  1
  O  O14  1  0.48593900  0.58708900  0.75015600  1
  O  O15  1  0.89885000  0.48593900  0.25015600  1
  O  O16  1  0.58708900  0.10115000  0.25015600  1
  O  O17  1  0.51406100  0.41291100  0.25015600  1
  O  O18  1  0.84322600  0.51687600  0.74991400  1
  O  O19  1  0.67365000  0.15677400  0.74991400  1
  O  O20  1  0.48312400  0.32635000  0.74991400  1
  O  O21  1  0.15677400  0.48312400  0.24991400  1
  O  O22  1  0.32635000  0.84322600  0.24991400  1
  O  O23  1  0.51687600  0.67365000  0.24991400  1
  F  F0  1  0.00000000  0.00000000  0.54019700  1
  F  F1  1  0.00000000  0.00000000  0.04019700  1
loop_
_geom_bond_atom_site_label_1
_geom_bond_atom_site_label_2
_geom_bond_distance
_geom_bond_site_symmetry_2
O0 P0 1.563779 1_555
O0 Pb0 2.620867 1_555
O0 Pb5 2.649524 1_456
O1 P1 1.563779 1_555
O1 Pb1 2.620867 1_555
O1 Pb3 2.649524 1_566
O2 P2 1.563779 1_555
O2 Pb2 2.620867 1_555
O2 Pb4 2.649524 1_556
O3 P3 1.563779 1_555
O3 Pb3 2.620867 1_555
O3 Pb2 2.649524 1_655
O4 P4 1.563779 1_555
O4 Pb4 2.620867 1_555
O4 Pb0 2.649524 1_545
O5 P5 1.563779 1_555
O5 Pb5 2.620867 1_555
O5 Pb1 2.649524 1_555
O6 P3 1.561322 1_555
O6 Pb3 2.600820 1_555
O6 Pb2 2.685493 1_654
O7 P4 1.561327 1_555
O7 Pb4 2.600812 1_555
O7 Pb0 2.685490 1_544
O8 P5 1.561322 1_555
O8 Pb5 2.600820 1_555
O8 Pb1 2.685489 1_554
O9 P0 1.561322 1_555
O9 Pb0 2.600820 1_555
O9 Pb5 2.685493 1_455
O10 P1 1.561327 1_555
O10 Pb1 2.600812 1_555
O10 Pb3 2.685490 1_565
O11 P2 1.561322 1_555
O11 Pb2 2.600820 1_555
O11 Pb4 2.685489 1_555
O12 P0 1.569498 1_555
O12 Pb2 2.422054 1_555
O12 Pb7 2.746101 1_555
O12 Pb8 2.746166 1_556
O13 P1 1.569497 1_555
O13 Pb0 2.422054 1_555
O13 Pb7 2.746100 1_555
O13 Pb8 2.746165 1_556
O14 P2 1.569497 1_555
O14 Pb1 2.422054 1_555
O14 Pb7 2.746107 1_555
O14 Pb8 2.746172 1_556
O15 P3 1.569498 1_555
O15 Pb5 2.422054 1_555
O15 Pb6 2.746101 1_554
O15 Pb9 2.746166 1_555
O16 P4 1.569497 1_555
O16 Pb3 2.422054 1_555
O16 Pb6 2.746100 1_554
O16 Pb9 2.746165 1_555
O17 P5 1.569497 1_555
O17 Pb4 2.422054 1_555
O17 Pb6 2.746107 1_554
O17 Pb9 2.746172 1_555
O18 P0 1.553522 1_655
O18 Pb9 2.551497 1_555
O18 Pb6 2.554114 1_555
O19 P1 1.553522 1_545
O19 Pb9 2.551494 1_555
O19 Pb6 2.554110 1_555
O20 P2 1.553522 1_555
O20 Pb9 2.551501 1_555
O20 Pb6 2.554117 1_555
O21 P3 1.553522 1_455
O21 Pb8 2.551497 1_555
O21 Pb7 2.554114 1_555
O22 P4 1.553522 1_565
O22 Pb8 2.551494 1_555
O22 Pb7 2.554110 1_555
O23 P5 1.553522 1_555
O23 Pb8 2.551501 1_555
O23 Pb7 2.554117 1_555
F0 Pb1 2.772878 1_445
F0 Pb2 2.772878 1_555
F0 Pb0 2.772878 1_545
F1 Pb4 2.772878 1_555
F1 Pb5 2.772878 1_445
F1 Pb3 2.772878 1_455
