# generated using pymatgen
data_CsNaICl
_symmetry_space_group_name_H-M   'P 1'
_cell_length_a   4.76782700
_cell_length_b   4.76782700
_cell_length_c   7.57756800
_cell_angle_alpha   90.00000000
_cell_angle_beta   90.00000000
_cell_angle_gamma   90.00000000
_symmetry_Int_Tables_number   1
_chemical_formula_structural   CsNaICl
_chemical_formula_sum   'Cs1 Na1 I1 Cl1'
_cell_volume   172.25459656
_cell_formula_units_Z   1
loop_
 _symmetry_equiv_pos_site_id
 _symmetry_equiv_pos_as_xyz
  1  'x, y, z'
loop_
 _atom_site_type_symbol
 _atom_site_label
 _atom_site_symmetry_multiplicity
 _atom_site_fract_x
 _atom_site_fract_y
 _atom_site_fract_z
 _atom_site_occupancy
  Cs  Cs0  1  0.50000000  0.50000000  0.50000000  1
  Na  Na0  1  0.00000000  0.00000000  0.00000000  1
  I  I0  1  0.50000000  0.50000000  0.00000000  1
  Cl  Cl0  1  0.00000000  0.00000000  0.50000000  1
loop_
_geom_bond_atom_site_label_1
_geom_bond_atom_site_label_2
_geom_bond_distance
_geom_bond_site_symmetry_2
Cs0 I0 3.788784 1_556
Cs0 I0 3.788784 1_555
I0 Na0 3.371363 1_565
I0 Na0 3.371363 1_655
I0 Na0 3.371363 1_665
I0 Na0 3.371363 1_555
Cl0 Cs0 3.371363 1_555
Cl0 Cs0 3.371363 1_445
Cl0 Cs0 3.371363 1_545
Cl0 Cs0 3.371363 1_455
