# generated using pymatgen
data_Na2(CoO2)3
_symmetry_space_group_name_H-M   'P 1'
_cell_length_a   10.17754287
_cell_length_b   10.17754287
_cell_length_c   12.62181082
_cell_angle_alpha   66.22332020
_cell_angle_beta   66.22332020
_cell_angle_gamma   60.00000329
_symmetry_Int_Tables_number   1
_chemical_formula_structural   Na2(CoO2)3
_chemical_formula_sum   'Na16 Co24 O48'
_cell_volume   1002.05975848
_cell_formula_units_Z   8
loop_
 _symmetry_equiv_pos_site_id
 _symmetry_equiv_pos_as_xyz
  1  'x, y, z'
loop_
 _atom_site_type_symbol
 _atom_site_label
 _atom_site_symmetry_multiplicity
 _atom_site_fract_x
 _atom_site_fract_y
 _atom_site_fract_z
 _atom_site_occupancy
  Na  Na0  1  0.58403154  0.58403154  0.24790538  1
  Na  Na1  1  0.08403154  0.08403154  0.74790538  1
  Na  Na2  1  0.41596846  0.41596846  0.75209462  1
  Na  Na3  1  0.91596846  0.91596846  0.25209462  1
  Na  Na4  1  0.11409765  0.38590235  0.75000000  1
  Na  Na5  1  0.38590235  0.75000000  0.75000000  1
  Na  Na6  1  0.75000000  0.11409765  0.75000000  1
  Na  Na7  1  0.61409765  0.25000000  0.25000000  1
  Na  Na8  1  0.25000000  0.88590235  0.25000000  1
  Na  Na9  1  0.88590235  0.61409765  0.25000000  1
  Na  Na10  1  0.55955124  0.94044876  0.75000000  1
  Na  Na11  1  0.94044876  0.75000000  0.75000000  1
  Na  Na12  1  0.75000000  0.55955124  0.75000000  1
  Na  Na13  1  0.05955124  0.25000000  0.25000000  1
  Na  Na14  1  0.25000000  0.44044876  0.25000000  1
  Na  Na15  1  0.44044876  0.05955124  0.25000000  1
  Co  Co0  1  0.50000000  0.50000000  0.50000000  1
  Co  Co1  1  0.00000000  -0.00000000  0.00000000  1
  Co  Co2  1  0.83023099  0.83023099  0.50930704  1
  Co  Co3  1  0.33023099  0.33023099  0.00930704  1
  Co  Co4  1  0.16976901  0.16976901  0.49069296  1
  Co  Co5  1  0.66976901  0.66976901  0.99069296  1
  Co  Co6  1  0.00000000  -0.00000000  0.50000000  1
  Co  Co7  1  0.00000000  0.50000000  0.50000000  1
  Co  Co8  1  0.50000000  -0.00000000  0.50000000  1
  Co  Co9  1  0.50000000  -0.00000000  0.00000000  1
  Co  Co10  1  0.00000000  0.50000000  0.00000000  1
  Co  Co11  1  0.50000000  0.50000000  0.00000000  1
  Co  Co12  1  0.33107929  0.83138508  0.49832293  1
  Co  Co13  1  0.83138508  0.33921270  0.49832293  1
  Co  Co14  1  0.33921270  0.33107929  0.49832293  1
  Co  Co15  1  0.83107929  0.83921270  0.99832293  1
  Co  Co16  1  0.83921270  0.33138508  0.99832293  1
  Co  Co17  1  0.33138508  0.83107929  0.99832293  1
  Co  Co18  1  0.66892071  0.16861492  0.50167707  1
  Co  Co19  1  0.16861492  0.66078730  0.50167707  1
  Co  Co20  1  0.66078730  0.66892071  0.50167707  1
  Co  Co21  1  0.16892071  0.16078730  0.00167707  1
  Co  Co22  1  0.16078730  0.66861492  0.00167707  1
  Co  Co23  1  0.66861492  0.16892071  0.00167707  1
  O  O0  1  0.37094191  0.69240586  0.40685225  1
  O  O1  1  0.69240586  0.52979998  0.40685225  1
  O  O2  1  0.52979998  0.37094191  0.40685225  1
  O  O3  1  0.87094191  0.02979998  0.90685225  1
  O  O4  1  0.02979998  0.19240586  0.90685225  1
  O  O5  1  0.19240586  0.87094191  0.90685225  1
  O  O6  1  0.62905809  0.30759414  0.59314775  1
  O  O7  1  0.30759414  0.47020002  0.59314775  1
  O  O8  1  0.47020002  0.62905809  0.59314775  1
  O  O9  1  0.12905809  0.97020002  0.09314775  1
  O  O10  1  0.97020002  0.80759414  0.09314775  1
  O  O11  1  0.80759414  0.12905809  0.09314775  1
  O  O12  1  0.87107767  0.18636394  0.41227471  1
  O  O13  1  0.18636394  0.53028368  0.41227471  1
  O  O14  1  0.53028368  0.87107767  0.41227471  1
  O  O15  1  0.37107767  0.03028368  0.91227471  1
  O  O16  1  0.03028368  0.68636394  0.91227471  1
  O  O17  1  0.68636394  0.37107767  0.91227471  1
  O  O18  1  0.12892233  0.81363606  0.58772529  1
  O  O19  1  0.81363606  0.46971632  0.58772529  1
  O  O20  1  0.46971632  0.12892233  0.58772529  1
  O  O21  1  0.62892233  0.96971632  0.08772529  1
  O  O22  1  0.96971632  0.31363606  0.08772529  1
  O  O23  1  0.31363606  0.62892233  0.08772529  1
  O  O24  1  0.19103005  0.03242874  0.40061629  1
  O  O25  1  0.03242874  0.37592492  0.40061629  1
  O  O26  1  0.37592492  0.19103005  0.40061629  1
  O  O27  1  0.69103005  0.87592492  0.90061629  1
  O  O28  1  0.87592492  0.53242874  0.90061629  1
  O  O29  1  0.53242874  0.69103005  0.90061629  1
  O  O30  1  0.80896995  0.96757126  0.59938371  1
  O  O31  1  0.96757126  0.62407508  0.59938371  1
  O  O32  1  0.62407508  0.80896995  0.59938371  1
  O  O33  1  0.30896995  0.12407508  0.09938371  1
  O  O34  1  0.12407508  0.46757126  0.09938371  1
  O  O35  1  0.46757126  0.30896995  0.09938371  1
  O  O36  1  0.87052197  0.69062377  0.41294257  1
  O  O37  1  0.69062377  0.02591169  0.41294257  1
  O  O38  1  0.02591169  0.87052197  0.41294257  1
  O  O39  1  0.37052197  0.52591169  0.91294257  1
  O  O40  1  0.52591169  0.19062377  0.91294257  1
  O  O41  1  0.19062377  0.37052197  0.91294257  1
  O  O42  1  0.12947803  0.30937623  0.58705743  1
  O  O43  1  0.30937623  0.97408831  0.58705743  1
  O  O44  1  0.97408831  0.12947803  0.58705743  1
  O  O45  1  0.62947803  0.47408831  0.08705743  1
  O  O46  1  0.47408831  0.80937623  0.08705743  1
  O  O47  1  0.80937623  0.62947803  0.08705743  1
loop_
_geom_bond_atom_site_label_1
_geom_bond_atom_site_label_2
_geom_bond_distance
_geom_bond_site_symmetry_2
Na0 O2 2.414264 1_555
Na0 O1 2.414264 1_555
Na0 O0 2.414264 1_555
Na0 O47 2.478851 1_555
Na0 O45 2.478851 1_555
Na0 O46 2.478851 1_555
Na1 O3 2.414264 1_455
Na1 O4 2.414264 1_555
Na1 O5 2.414264 1_545
Na1 O42 2.478851 1_555
Na1 O44 2.478851 1_455
Na1 O43 2.478851 1_545
Na2 O8 2.414264 1_555
Na2 O7 2.414264 1_555
Na2 O6 2.414264 1_555
Na2 O41 2.478851 1_555
Na2 O39 2.478851 1_555
Na2 O40 2.478851 1_555
Na3 O9 2.414264 1_655
Na3 O10 2.414264 1_555
Na3 O11 2.414264 1_565
Na3 O36 2.478851 1_555
Na3 O38 2.478851 1_655
Na3 O37 2.478851 1_565
Na4 O7 2.389547 1_555
Na4 O4 2.389547 1_555
Na4 O42 2.402277 1_555
Na4 O41 2.402277 1_555
Na4 O28 2.582455 1_455
Na4 O31 2.582455 1_455
Na5 O8 2.389547 1_555
Na5 O5 2.389547 1_555
Na5 O39 2.402277 1_555
Na5 O43 2.402277 1_555
Na5 O32 2.582455 1_555
Na5 O29 2.582455 1_555
Na6 O3 2.389547 1_555
Na6 O6 2.389547 1_555
Na6 O44 2.402277 1_555
Na6 O40 2.402277 1_555
Na6 O27 2.582455 1_545
Na6 O30 2.582455 1_545
Na7 O2 2.389547 1_555
Na7 O11 2.389547 1_555
Na7 O45 2.402277 1_555
Na7 O37 2.402277 1_555
Na7 O26 2.582455 1_555
Na7 O35 2.582455 1_555
Na8 O9 2.389547 1_555
Na8 O0 2.389547 1_555
Na8 O38 2.402277 1_555
Na8 O46 2.402277 1_555
Na8 O33 2.582455 1_565
Na8 O24 2.582455 1_565
Na9 O10 2.389547 1_555
Na9 O1 2.389547 1_555
Na9 O36 2.402277 1_555
Na9 O47 2.402277 1_555
Na9 O34 2.582455 1_655
Na9 O25 2.582455 1_655
Na10 O20 2.301901 1_565
Na10 O15 2.301901 1_565
Na10 O32 2.449830 1_555
Na10 O27 2.449830 1_555
Na10 O29 2.553501 1_555
Na10 O30 2.553501 1_555
Na11 O18 2.301901 1_655
Na11 O16 2.301901 1_655
Na11 O28 2.449830 1_555
Na11 O30 2.449830 1_555
Na11 O31 2.553501 1_555
Na11 O27 2.553501 1_555
Na12 O17 2.301901 1_555
Na12 O19 2.301901 1_555
Na12 O31 2.449830 1_555
Na12 O29 2.449830 1_555
Na12 O28 2.553501 1_555
Na12 O32 2.553501 1_555
Na13 O12 2.301901 1_455
Na13 O22 2.301901 1_455
Na13 O34 2.449830 1_555
Na13 O24 2.449830 1_555
Na13 O25 2.553501 1_555
Na13 O33 2.553501 1_555
Na14 O23 2.301901 1_555
Na14 O13 2.301901 1_555
Na14 O25 2.449830 1_555
Na14 O35 2.449830 1_555
Na14 O34 2.553501 1_555
Na14 O26 2.553501 1_555
Na15 O21 2.301901 1_545
Na15 O14 2.301901 1_545
Na15 O33 2.449830 1_555
Na15 O26 2.449830 1_555
Na15 O35 2.553501 1_555
Na15 O24 2.553501 1_555
Co0 O7 1.938769 1_555
Co0 O1 1.938769 1_555
Co0 O2 1.938769 1_555
Co0 O8 1.938769 1_555
Co0 O6 1.938769 1_555
Co0 O0 1.938769 1_555
Co1 O10 1.938769 1_445
Co1 O4 1.938769 1_554
Co1 O3 1.938769 1_454
Co1 O9 1.938769 1_545
Co1 O11 1.938769 1_455
Co1 O5 1.938769 1_544
Co2 O30 2.018376 1_555
Co2 O32 2.018376 1_555
Co2 O31 2.018376 1_555
Co2 O38 2.018678 1_655
Co2 O36 2.018678 1_555
Co2 O37 2.018678 1_565
Co3 O35 2.018376 1_555
Co3 O33 2.018376 1_555
Co3 O34 2.018376 1_555
Co3 O39 2.018678 1_554
Co3 O41 2.018678 1_554
Co3 O40 2.018678 1_554
Co4 O24 2.018376 1_555
Co4 O26 2.018376 1_555
Co4 O25 2.018376 1_555
Co4 O44 2.018678 1_455
Co4 O42 2.018678 1_555
Co4 O43 2.018678 1_545
Co5 O29 2.018376 1_555
Co5 O27 2.018376 1_555
Co5 O28 2.018376 1_555
Co5 O45 2.018678 1_556
Co5 O47 2.018678 1_556
Co5 O46 2.018678 1_556
Co6 O12 1.880037 1_455
Co6 O18 1.880037 1_545
Co6 O44 1.897333 1_455
Co6 O38 1.897333 1_545
Co6 O30 1.950317 1_445
Co6 O24 1.950317 1_555
Co7 O19 1.880037 1_455
Co7 O13 1.880037 1_555
Co7 O42 1.897333 1_555
Co7 O36 1.897333 1_455
Co7 O25 1.950317 1_555
Co7 O31 1.950317 1_455
Co8 O14 1.880037 1_545
Co8 O20 1.880037 1_555
Co8 O43 1.897333 1_545
Co8 O37 1.897333 1_555
Co8 O32 1.950317 1_545
Co8 O26 1.950317 1_555
Co9 O15 1.880037 1_554
Co9 O21 1.880037 1_545
Co9 O46 1.897333 1_545
Co9 O40 1.897333 1_554
Co9 O33 1.950317 1_555
Co9 O27 1.950317 1_544
Co10 O16 1.880037 1_554
Co10 O22 1.880037 1_455
Co10 O41 1.897333 1_554
Co10 O47 1.897333 1_455
Co10 O34 1.950317 1_555
Co10 O28 1.950317 1_454
Co11 O17 1.880037 1_554
Co11 O23 1.880037 1_555
Co11 O39 1.897333 1_554
Co11 O45 1.897333 1_555
Co11 O35 1.950317 1_555
Co11 O29 1.950317 1_554
Co12 O0 1.965577 1_555
Co12 O18 1.968332 1_555
Co12 O8 2.034967 1_555
Co12 O14 2.035407 1_555
Co12 O43 2.050339 1_555
Co12 O24 2.050705 1_565
Co13 O1 1.965577 1_555
Co13 O19 1.968332 1_555
Co13 O6 2.034967 1_555
Co13 O12 2.035407 1_555
Co13 O44 2.050339 1_555
Co13 O25 2.050704 1_655
Co14 O2 1.965577 1_555
Co14 O20 1.968332 1_555
Co14 O7 2.034967 1_555
Co14 O13 2.035407 1_555
Co14 O42 2.050339 1_555
Co14 O26 2.050704 1_555
Co15 O3 1.965577 1_565
Co15 O21 1.968332 1_556
Co15 O10 2.034967 1_556
Co15 O16 2.035407 1_655
Co15 O47 2.050339 1_556
Co15 O27 2.050704 1_555
Co16 O4 1.965577 1_655
Co16 O22 1.968332 1_556
Co16 O11 2.034967 1_556
Co16 O17 2.035407 1_555
Co16 O45 2.050339 1_556
Co16 O28 2.050704 1_555
Co17 O5 1.965577 1_555
Co17 O23 1.968332 1_556
Co17 O9 2.034967 1_556
Co17 O15 2.035407 1_565
Co17 O46 2.050339 1_556
Co17 O29 2.050705 1_555
Co18 O6 1.965577 1_555
Co18 O12 1.968332 1_555
Co18 O2 2.034967 1_555
Co18 O20 2.035407 1_555
Co18 O37 2.050339 1_555
Co18 O30 2.050705 1_545
Co19 O7 1.965577 1_555
Co19 O13 1.968332 1_555
Co19 O0 2.034967 1_555
Co19 O18 2.035407 1_555
Co19 O38 2.050339 1_555
Co19 O31 2.050704 1_455
Co20 O8 1.965577 1_555
Co20 O14 1.968332 1_555
Co20 O1 2.034967 1_555
Co20 O19 2.035407 1_555
Co20 O36 2.050339 1_555
Co20 O32 2.050704 1_555
Co21 O9 1.965577 1_545
Co21 O15 1.968332 1_554
Co21 O4 2.034967 1_554
Co21 O22 2.035407 1_455
Co21 O41 2.050339 1_554
Co21 O33 2.050704 1_555
Co22 O10 1.965577 1_455
Co22 O16 1.968332 1_554
Co22 O5 2.034967 1_554
Co22 O23 2.035407 1_555
Co22 O39 2.050339 1_554
Co22 O34 2.050704 1_555
Co23 O11 1.965577 1_555
Co23 O17 1.968332 1_554
Co23 O3 2.034967 1_554
Co23 O21 2.035407 1_545
Co23 O40 2.050339 1_554
Co23 O35 2.050705 1_555
