# generated using pymatgen
data_Hf2Al3Co
_symmetry_space_group_name_H-M   'P 1'
_cell_length_a   5.22943013
_cell_length_b   5.22921800
_cell_length_c   8.23240000
_cell_angle_alpha   90.00000000
_cell_angle_beta   90.00000000
_cell_angle_gamma   60.00132922
_symmetry_Int_Tables_number   1
_chemical_formula_structural   Hf2Al3Co
_chemical_formula_sum   'Hf4 Al6 Co2'
_cell_volume   194.96381972
_cell_formula_units_Z   2
loop_
 _symmetry_equiv_pos_site_id
 _symmetry_equiv_pos_as_xyz
  1  'x, y, z'
loop_
 _atom_site_type_symbol
 _atom_site_label
 _atom_site_symmetry_multiplicity
 _atom_site_fract_x
 _atom_site_fract_y
 _atom_site_fract_z
 _atom_site_occupancy
  Hf  Hf0  1  0.33335800  0.33332100  0.56069100  1
  Hf  Hf1  1  0.66664200  0.66667900  0.43930900  1
  Hf  Hf2  1  0.66664200  0.66667900  0.06069100  1
  Hf  Hf3  1  0.33335800  0.33332100  0.93930900  1
  Al  Al0  1  0.83419300  0.33166500  0.75000000  1
  Al  Al1  1  0.33168700  0.83415700  0.75000000  1
  Al  Al2  1  0.83419300  0.83414300  0.75000000  1
  Al  Al3  1  0.16580700  0.66833500  0.25000000  1
  Al  Al4  1  0.66831300  0.16584300  0.25000000  1
  Al  Al5  1  0.16580700  0.16585700  0.25000000  1
  Co  Co0  1  0.00000000  0.00000000  0.50000000  1
  Co  Co1  1  0.00000000  0.00000000  0.00000000  1
loop_
_geom_bond_atom_site_label_1
_geom_bond_atom_site_label_2
_geom_bond_distance
_geom_bond_site_symmetry_2
Hf0 Hf3 3.116935 1_555
Hf0 Hf1 3.180096 1_545
Hf0 Hf1 3.180096 1_555
Hf0 Hf1 3.180530 1_455
Hf1 Hf2 3.116935 1_555
Hf2 Hf3 3.180096 1_564
Hf2 Hf3 3.180096 1_554
Hf2 Hf3 3.180530 1_654
Al0 Co0 2.547903 1_655
Al0 Co1 2.547903 1_656
Al0 Al1 2.601646 1_645
Al0 Al2 2.601651 1_545
Al0 Al2 2.627567 1_555
Al0 Al1 2.627783 1_555
Al0 Hf1 2.973856 1_555
Al0 Hf2 2.973856 1_556
Al0 Hf0 3.043915 1_655
Al0 Hf3 3.043915 1_655
Al0 Hf0 3.043978 1_555
Al0 Hf3 3.043978 1_555
Al1 Co1 2.547998 1_566
Al1 Co0 2.547998 1_565
Al1 Al2 2.601647 1_455
Al1 Al2 2.627783 1_555
Al1 Hf1 2.973751 1_555
Al1 Hf2 2.973751 1_556
Al1 Hf3 3.043854 1_565
Al1 Hf0 3.043854 1_565
Al1 Hf3 3.043858 1_555
Al1 Hf0 3.043858 1_555
Al2 Co1 2.547901 1_666
Al2 Co0 2.547901 1_665
Al2 Hf1 2.973859 1_555
Al2 Hf2 2.973859 1_556
Al2 Hf3 3.043917 1_655
Al2 Hf0 3.043917 1_655
Al2 Hf3 3.043976 1_565
Al2 Hf0 3.043976 1_565
Al3 Co1 2.547903 1_565
Al3 Co0 2.547903 1_565
Al3 Al4 2.601646 1_465
Al3 Al5 2.601651 1_565
Al3 Al5 2.627567 1_555
Al3 Al4 2.627783 1_555
Al3 Hf3 2.973856 1_554
Al3 Hf0 2.973856 1_555
Al3 Hf1 3.043915 1_455
Al3 Hf2 3.043915 1_455
Al3 Hf2 3.043978 1_555
Al3 Hf1 3.043978 1_555
Al4 Co1 2.547998 1_655
Al4 Co0 2.547998 1_655
Al4 Al5 2.601647 1_655
Al4 Al5 2.627783 1_555
Al4 Hf3 2.973751 1_554
Al4 Hf0 2.973751 1_555
Al4 Hf2 3.043854 1_545
Al4 Hf1 3.043854 1_545
Al4 Hf1 3.043858 1_555
Al4 Hf2 3.043858 1_555
Al5 Co0 2.547901 1_555
Al5 Co1 2.547901 1_555
Al5 Hf0 2.973859 1_555
Al5 Hf3 2.973859 1_554
Al5 Hf1 3.043917 1_455
Al5 Hf2 3.043917 1_455
Al5 Hf2 3.043976 1_545
Al5 Hf1 3.043976 1_545
Co0 Hf1 3.060204 1_545
Co0 Hf0 3.060204 1_455
Co0 Hf1 3.060249 1_455
Co0 Hf0 3.060249 1_545
Co0 Hf1 3.060249 1_445
Co0 Hf0 3.060249 1_555
Co1 Hf2 3.060204 1_545
Co1 Hf3 3.060204 1_454
Co1 Hf2 3.060249 1_455
Co1 Hf3 3.060249 1_544
Co1 Hf3 3.060249 1_554
Co1 Hf2 3.060249 1_445
