# generated using pymatgen
data_Na5H7(Se2O9)2
_symmetry_space_group_name_H-M   'P 1'
_cell_length_a   6.20014257
_cell_length_b   7.25376882
_cell_length_c   10.27658173
_cell_angle_alpha   99.13795993
_cell_angle_beta   96.70685664
_cell_angle_gamma   99.91788766
_symmetry_Int_Tables_number   1
_chemical_formula_structural   Na5H7(Se2O9)2
_chemical_formula_sum   'Na5 H7 Se4 O18'
_cell_volume   444.53372117
_cell_formula_units_Z   1
loop_
 _symmetry_equiv_pos_site_id
 _symmetry_equiv_pos_as_xyz
  1  'x, y, z'
loop_
 _atom_site_type_symbol
 _atom_site_label
 _atom_site_symmetry_multiplicity
 _atom_site_fract_x
 _atom_site_fract_y
 _atom_site_fract_z
 _atom_site_occupancy
  Na  Na0  1  0.87214600  0.28711200  0.33179600  1
  Na  Na1  1  0.11144500  0.72284300  0.66678500  1
  Na  Na2  1  0.52888100  0.98838200  0.48923800  1
  Na  Na3  1  0.40946200  0.82517600  0.12885600  1
  Na  Na4  1  0.60394800  0.15305400  0.88841100  1
  H  H0  1  0.35339800  0.61614000  0.45233900  1
  H  H1  1  0.64784600  0.39041400  0.56268200  1
  H  H2  1  0.00748900  0.05789700  0.12530200  1
  H  H3  1  0.98983100  0.92454600  0.89272900  1
  H  H4  1  0.52319200  0.66237000  0.58663500  1
  H  H5  1  0.47418200  0.33841900  0.43054500  1
  H  H6  1  0.20807000  0.43413300  0.89114500  1
  Se  Se0  1  0.27147300  0.32357500  0.13932000  1
  Se  Se1  1  0.71835300  0.66028700  0.86037900  1
  Se  Se2  1  0.08762900  0.20913600  0.68914500  1
  Se  Se3  1  0.91171200  0.79272100  0.32357500  1
  O  O0  1  0.25726900  0.49374100  0.05169800  1
  O  O1  1  0.70414300  0.48208200  0.93882700  1
  O  O2  1  0.26810400  0.07524800  0.73135400  1
  O  O3  1  0.73697600  0.93565400  0.27716400  1
  O  O4  1  0.44051800  0.17957300  0.09604200  1
  O  O5  1  0.55738800  0.81403600  0.90082700  1
  O  O6  1  0.99901500  0.17470600  0.08771500  1
  O  O7  1  0.99681400  0.79834000  0.91543000  1
  O  O8  1  0.27816100  0.39572800  0.30062400  1
  O  O9  1  0.72178300  0.60278200  0.69714600  1
  O  O10  1  0.83980600  0.11999200  0.72300800  1
  O  O11  1  0.16083000  0.88228700  0.28439200  1
  O  O12  1  0.09329200  0.27199100  0.54341700  1
  O  O13  1  0.91950000  0.80832600  0.48783700  1
  O  O14  1  0.39461300  0.70104400  0.53910300  1
  O  O15  1  0.60318500  0.30134800  0.47730100  1
  O  O16  1  0.18350700  0.43775400  0.79204400  1
  O  O17  1  0.81604200  0.56916000  0.24619000  1
loop_
_geom_bond_atom_site_label_1
_geom_bond_atom_site_label_2
_geom_bond_distance
_geom_bond_site_symmetry_2
Na0 O15 2.370688 1_555
Na0 O17 2.413720 1_555
Na0 O12 2.460206 1_655
Na0 O3 2.493285 1_545
Na0 O8 2.577932 1_655
Na0 O6 2.758157 1_555
Na1 O13 2.299525 1_455
Na1 O14 2.323132 1_555
Na1 O9 2.496049 1_455
Na1 O2 2.524604 1_565
Na1 O16 2.676292 1_555
Na1 O7 2.729103 1_455
Na2 O15 2.263273 1_565
Na2 O14 2.267387 1_555
Na2 O3 2.668848 1_555
Na2 O10 2.820437 1_565
Na2 O11 2.826581 1_555
Na2 O13 2.943372 1_555
Na3 O3 2.327478 1_555
Na3 O11 2.384958 1_555
Na3 O0 2.395279 1_555
Na3 O5 2.608917 1_554
Na3 O4 2.622853 1_565
Na4 O1 2.317752 1_555
Na4 O10 2.378480 1_555
Na4 O2 2.404220 1_555
Na4 O5 2.451693 1_545
Na4 O4 2.461379 1_556
H0 O14 0.978655 1_555
H1 O15 0.982609 1_555
H2 O6 0.992188 1_455
H3 O7 0.986666 1_555
H4 O14 0.991183 1_555
H4 O9 1.733578 1_555
H5 O15 0.984013 1_555
H6 O16 1.017206 1_555
H6 O0 1.616386 1_556
O0 Se0 1.647463 1_555
O1 Se1 1.623887 1_555
O2 Se2 1.666807 1_555
O3 Se3 1.702783 1_555
O4 Se0 1.651023 1_555
O5 Se1 1.657005 1_555
O6 Se0 1.811483 1_655
O7 Se1 1.816592 1_555
O8 Se0 1.650565 1_555
O9 Se1 1.666589 1_555
O10 Se2 1.659606 1_655
O11 Se3 1.688970 1_455
O12 Se2 1.635700 1_555
O13 Se3 1.668248 1_555
O16 Se2 1.782771 1_555
O17 Se3 1.662197 1_555
