# generated using pymatgen
data_Al4Fe5Rh
_symmetry_space_group_name_H-M   'P 1'
_cell_length_a   2.85370300
_cell_length_b   2.85370300
_cell_length_c   15.04831900
_cell_angle_alpha   90.00000000
_cell_angle_beta   90.00000000
_cell_angle_gamma   90.00000000
_symmetry_Int_Tables_number   1
_chemical_formula_structural   Al4Fe5Rh
_chemical_formula_sum   'Al4 Fe5 Rh1'
_cell_volume   122.54780380
_cell_formula_units_Z   1
loop_
 _symmetry_equiv_pos_site_id
 _symmetry_equiv_pos_as_xyz
  1  'x, y, z'
loop_
 _atom_site_type_symbol
 _atom_site_label
 _atom_site_symmetry_multiplicity
 _atom_site_fract_x
 _atom_site_fract_y
 _atom_site_fract_z
 _atom_site_occupancy
  Al  Al0  1  0.00000000  0.00000000  0.21285000  1
  Al  Al1  1  0.00000000  0.00000000  0.39972300  1
  Al  Al2  1  0.00000000  0.00000000  0.60027700  1
  Al  Al3  1  0.00000000  0.00000000  0.78715000  1
  Fe  Fe0  1  0.50000000  0.50000000  0.10813200  1
  Fe  Fe1  1  0.50000000  0.50000000  0.30595400  1
  Fe  Fe2  1  0.50000000  0.50000000  0.50000000  1
  Fe  Fe3  1  0.50000000  0.50000000  0.69404600  1
  Fe  Fe4  1  0.50000000  0.50000000  0.89186800  1
  Rh  Rh0  1  0.00000000  0.00000000  0.00000000  1
loop_
_geom_bond_atom_site_label_1
_geom_bond_atom_site_label_2
_geom_bond_distance
_geom_bond_site_symmetry_2
Al0 Fe1 2.456578 1_445
Al0 Fe1 2.456578 1_545
Al0 Fe1 2.456578 1_455
Al0 Fe1 2.456578 1_555
Al0 Fe0 2.560283 1_445
Al0 Fe0 2.560283 1_545
Al0 Fe0 2.560283 1_555
Al0 Fe0 2.560283 1_455
Al1 Fe1 2.462299 1_555
Al1 Fe1 2.462299 1_445
Al1 Fe1 2.462299 1_545
Al1 Fe1 2.462299 1_455
Al1 Fe2 2.519701 1_555
Al1 Fe2 2.519701 1_445
Al1 Fe2 2.519701 1_455
Al1 Fe2 2.519701 1_545
Al2 Fe3 2.462299 1_555
Al2 Fe3 2.462299 1_545
Al2 Fe3 2.462299 1_445
Al2 Fe3 2.462299 1_455
Al2 Fe2 2.519701 1_445
Al2 Fe2 2.519701 1_545
Al2 Fe2 2.519701 1_555
Al2 Fe2 2.519701 1_455
Al3 Fe3 2.456578 1_555
Al3 Fe3 2.456578 1_545
Al3 Fe3 2.456578 1_445
Al3 Fe3 2.456578 1_455
Al3 Fe4 2.560283 1_445
Al3 Fe4 2.560283 1_455
Al3 Fe4 2.560283 1_545
Al3 Fe4 2.560283 1_555
Fe0 Rh0 2.592220 1_665
Fe0 Rh0 2.592220 1_655
Fe0 Rh0 2.592220 1_565
Fe0 Rh0 2.592220 1_555
Fe4 Rh0 2.592220 1_556
Fe4 Rh0 2.592220 1_656
Fe4 Rh0 2.592220 1_566
Fe4 Rh0 2.592220 1_666
