# generated using pymatgen
data_Li2Mn2V3O12
_symmetry_space_group_name_H-M   'P 1'
_cell_length_a   8.98220700
_cell_length_b   9.12921700
_cell_length_c   12.77367800
_cell_angle_alpha   90.00000000
_cell_angle_beta   90.00000000
_cell_angle_gamma   90.00000000
_symmetry_Int_Tables_number   1
_chemical_formula_structural   Li2Mn2V3O12
_chemical_formula_sum   'Li8 Mn8 V12 O48'
_cell_volume   1047.44819797
_cell_formula_units_Z   4
loop_
 _symmetry_equiv_pos_site_id
 _symmetry_equiv_pos_as_xyz
  1  'x, y, z'
loop_
 _atom_site_type_symbol
 _atom_site_label
 _atom_site_symmetry_multiplicity
 _atom_site_fract_x
 _atom_site_fract_y
 _atom_site_fract_z
 _atom_site_occupancy
  Li  Li0  1  0.27395200  0.22478500  0.19028700  1
  Li  Li1  1  0.77395200  0.77521500  0.19028700  1
  Li  Li2  1  0.77395200  0.27521500  0.30971300  1
  Li  Li3  1  0.27395200  0.72478500  0.30971300  1
  Li  Li4  1  0.72604800  0.27521500  0.69028700  1
  Li  Li5  1  0.22604800  0.72478500  0.69028700  1
  Li  Li6  1  0.22604800  0.22478500  0.80971300  1
  Li  Li7  1  0.72604800  0.77521500  0.80971300  1
  Mn  Mn0  1  0.97105800  0.25124300  0.11937100  1
  Mn  Mn1  1  0.47105800  0.74875700  0.11937100  1
  Mn  Mn2  1  0.97105800  0.75124300  0.38062900  1
  Mn  Mn3  1  0.47105800  0.24875700  0.38062900  1
  Mn  Mn4  1  0.02894200  0.24875700  0.61937100  1
  Mn  Mn5  1  0.52894200  0.75124300  0.61937100  1
  Mn  Mn6  1  0.52894200  0.25124300  0.88062900  1
  Mn  Mn7  1  0.02894200  0.74875700  0.88062900  1
  V  V0  1  0.25000000  0.46852800  0.00000000  1
  V  V1  1  0.75000000  0.53147200  0.00000000  1
  V  V2  1  0.75000000  0.03147200  0.50000000  1
  V  V3  1  0.25000000  0.96852800  0.50000000  1
  V  V4  1  0.60589500  0.09927900  0.14150200  1
  V  V5  1  0.10589500  0.90072100  0.14150200  1
  V  V6  1  0.10589500  0.40072100  0.35849800  1
  V  V7  1  0.60589500  0.59927900  0.35849800  1
  V  V8  1  0.39410500  0.40072100  0.64150200  1
  V  V9  1  0.89410500  0.59927900  0.64150200  1
  V  V10  1  0.89410500  0.09927900  0.85849800  1
  V  V11  1  0.39410500  0.90072100  0.85849800  1
  O  O0  1  0.55609700  0.15000600  0.01759800  1
  O  O1  1  0.05609700  0.84999400  0.01759800  1
  O  O2  1  0.36850800  0.57547700  0.07309700  1
  O  O3  1  0.86850800  0.42452300  0.07309700  1
  O  O4  1  0.15878300  0.35257300  0.09030400  1
  O  O5  1  0.65878300  0.64742700  0.09030400  1
  O  O6  1  0.10224000  0.09369700  0.16111800  1
  O  O7  1  0.60224000  0.90630300  0.16111800  1
  O  O8  1  0.78497200  0.16111400  0.17395400  1
  O  O9  1  0.28497200  0.83888600  0.17395400  1
  O  O10  1  0.97810500  0.82169000  0.22659800  1
  O  O11  1  0.47810500  0.17831000  0.22659800  1
  O  O12  1  0.97810500  0.32169000  0.27340200  1
  O  O13  1  0.47810500  0.67831000  0.27340200  1
  O  O14  1  0.78497200  0.66111400  0.32604600  1
  O  O15  1  0.28497200  0.33888600  0.32604600  1
  O  O16  1  0.60224000  0.40630300  0.33888200  1
  O  O17  1  0.10224000  0.59369700  0.33888200  1
  O  O18  1  0.65878300  0.14742700  0.40969600  1
  O  O19  1  0.15878300  0.85257300  0.40969600  1
  O  O20  1  0.36850800  0.07547700  0.42690300  1
  O  O21  1  0.86850800  0.92452300  0.42690300  1
  O  O22  1  0.55609700  0.65000600  0.48240200  1
  O  O23  1  0.05609700  0.34999400  0.48240200  1
  O  O24  1  0.44390300  0.34999400  0.51759800  1
  O  O25  1  0.94390300  0.65000600  0.51759800  1
  O  O26  1  0.13149200  0.07547700  0.57309700  1
  O  O27  1  0.63149200  0.92452300  0.57309700  1
  O  O28  1  0.84121700  0.14742700  0.59030400  1
  O  O29  1  0.34121700  0.85257300  0.59030400  1
  O  O30  1  0.89776000  0.40630300  0.66111800  1
  O  O31  1  0.39776000  0.59369700  0.66111800  1
  O  O32  1  0.21502800  0.33888600  0.67395400  1
  O  O33  1  0.71502800  0.66111400  0.67395400  1
  O  O34  1  0.52189500  0.32169000  0.72659800  1
  O  O35  1  0.02189500  0.67831000  0.72659800  1
  O  O36  1  0.02189500  0.17831000  0.77340200  1
  O  O37  1  0.52189500  0.82169000  0.77340200  1
  O  O38  1  0.71502800  0.16111400  0.82604600  1
  O  O39  1  0.21502800  0.83888600  0.82604600  1
  O  O40  1  0.39776000  0.09369700  0.83888200  1
  O  O41  1  0.89776000  0.90630300  0.83888200  1
  O  O42  1  0.34121700  0.35257300  0.90969600  1
  O  O43  1  0.84121700  0.64742700  0.90969600  1
  O  O44  1  0.63149200  0.42452300  0.92690300  1
  O  O45  1  0.13149200  0.57547700  0.92690300  1
  O  O46  1  0.94390300  0.15000600  0.98240200  1
  O  O47  1  0.44390300  0.84999400  0.98240200  1
loop_
_geom_bond_atom_site_label_1
_geom_bond_atom_site_label_2
_geom_bond_distance
_geom_bond_site_symmetry_2
Li0 O11 1.938496 1_555
Li0 O6 1.987421 1_555
Li0 O4 2.015493 1_555
Li0 O15 2.025361 1_555
Li1 O10 1.938496 1_555
Li1 O7 1.987421 1_555
Li1 O5 2.015493 1_555
Li1 O14 2.025361 1_555
Li2 O12 1.938496 1_555
Li2 O16 1.987421 1_555
Li2 O18 2.015493 1_555
Li2 O8 2.025361 1_555
Li3 O13 1.938496 1_555
Li3 O17 1.987421 1_555
Li3 O19 2.015493 1_555
Li3 O9 2.025361 1_555
Li4 O34 1.938496 1_555
Li4 O30 1.987421 1_555
Li4 O28 2.015493 1_555
Li4 O38 2.025361 1_555
Li5 O35 1.938496 1_555
Li5 O31 1.987421 1_555
Li5 O29 2.015493 1_555
Li5 O39 2.025361 1_555
Li6 O36 1.938496 1_555
Li6 O40 1.987421 1_555
Li6 O42 2.015493 1_555
Li6 O32 2.025361 1_555
Li7 O37 1.938496 1_555
Li7 O41 1.987421 1_555
Li7 O43 2.015493 1_555
Li7 O33 2.025361 1_555
Mn0 O3 1.923616 1_555
Mn0 O6 1.934268 1_655
Mn0 O4 1.958780 1_655
Mn0 O8 1.989202 1_555
Mn0 O46 1.993680 1_554
Mn0 O12 2.070952 1_555
Mn1 O2 1.923616 1_555
Mn1 O7 1.934268 1_555
Mn1 O5 1.958780 1_555
Mn1 O9 1.989202 1_555
Mn1 O47 1.993680 1_554
Mn1 O13 2.070952 1_555
Mn2 O21 1.923616 1_555
Mn2 O17 1.934268 1_655
Mn2 O19 1.958780 1_655
Mn2 O14 1.989202 1_555
Mn2 O25 1.993680 1_555
Mn2 O10 2.070952 1_555
Mn3 O20 1.923616 1_555
Mn3 O16 1.934268 1_555
Mn3 O18 1.958780 1_555
Mn3 O15 1.989202 1_555
Mn3 O24 1.993680 1_555
Mn3 O11 2.070952 1_555
Mn4 O26 1.923616 1_555
Mn4 O30 1.934268 1_455
Mn4 O28 1.958780 1_455
Mn4 O32 1.989202 1_555
Mn4 O23 1.993680 1_555
Mn4 O36 2.070952 1_555
Mn5 O27 1.923616 1_555
Mn5 O31 1.934268 1_555
Mn5 O29 1.958780 1_555
Mn5 O33 1.989202 1_555
Mn5 O22 1.993680 1_555
Mn5 O37 2.070952 1_555
Mn6 O44 1.923616 1_555
Mn6 O40 1.934268 1_555
Mn6 O42 1.958780 1_555
Mn6 O38 1.989202 1_555
Mn6 O0 1.993680 1_556
Mn6 O34 2.070952 1_555
Mn7 O45 1.923616 1_555
Mn7 O41 1.934268 1_455
Mn7 O43 1.958780 1_455
Mn7 O39 1.989202 1_555
Mn7 O1 1.993680 1_556
Mn7 O35 2.070952 1_555
O0 V4 1.708655 1_555
O1 V5 1.708655 1_555
O2 V0 1.719939 1_555
O3 V1 1.719939 1_555
O4 V0 1.767055 1_555
O5 V1 1.767055 1_555
O6 V5 1.779752 1_545
O7 V4 1.779752 1_565
O8 V4 1.754365 1_555
O9 V5 1.754365 1_555
O10 V5 1.737706 1_655
O11 V4 1.737706 1_555
O12 V6 1.737706 1_655
O13 V7 1.737706 1_555
O14 V7 1.754365 1_555
O15 V6 1.754365 1_555
O16 V7 1.779752 1_555
O17 V6 1.779752 1_555
O18 V2 1.767055 1_555
O19 V3 1.767055 1_555
O20 V3 1.719939 1_545
O21 V2 1.719939 1_565
O22 V7 1.708655 1_555
O23 V6 1.708655 1_555
O24 V8 1.708655 1_555
O25 V9 1.708655 1_555
O26 V3 1.719939 1_545
O27 V2 1.719939 1_565
O28 V2 1.767055 1_555
O29 V3 1.767055 1_555
O30 V9 1.779752 1_555
O31 V8 1.779752 1_555
O32 V8 1.754365 1_555
O33 V9 1.754365 1_555
O34 V8 1.737706 1_555
O35 V9 1.737706 1_455
O36 V10 1.737706 1_455
O37 V11 1.737706 1_555
O38 V10 1.754365 1_555
O39 V11 1.754365 1_555
O40 V11 1.779752 1_545
O41 V10 1.779752 1_565
O42 V0 1.767055 1_556
O43 V1 1.767055 1_556
O44 V1 1.719939 1_556
O45 V0 1.719939 1_556
O46 V10 1.708655 1_555
O47 V11 1.708655 1_555
