# generated using pymatgen
data_CrAgSnSe4
_symmetry_space_group_name_H-M   'P 1'
_cell_length_a   7.86267279
_cell_length_b   7.86267279
_cell_length_c   7.86267279
_cell_angle_alpha   120.58676807
_cell_angle_beta   119.16292232
_cell_angle_gamma   90.22131771
_symmetry_Int_Tables_number   1
_chemical_formula_structural   CrAgSnSe4
_chemical_formula_sum   'Cr2 Ag2 Sn2 Se8'
_cell_volume   344.29400320
_cell_formula_units_Z   2
loop_
 _symmetry_equiv_pos_site_id
 _symmetry_equiv_pos_as_xyz
  1  'x, y, z'
loop_
 _atom_site_type_symbol
 _atom_site_label
 _atom_site_symmetry_multiplicity
 _atom_site_fract_x
 _atom_site_fract_y
 _atom_site_fract_z
 _atom_site_occupancy
  Cr  Cr0  1  0.50000000  0.00000000  0.00000000  1
  Cr  Cr1  1  0.50000000  0.50000000  0.50000000  1
  Ag  Ag0  1  0.88254700  0.63254700  0.25000000  1
  Ag  Ag1  1  0.11745300  0.36745300  0.75000000  1
  Sn  Sn0  1  0.50000000  0.00000000  0.50000000  1
  Sn  Sn1  1  0.00000000  0.00000000  0.00000000  1
  Se  Se0  1  0.72994100  0.73812400  0.50818300  1
  Se  Se1  1  0.72994100  0.22175800  0.99181700  1
  Se  Se2  1  0.71718500  0.75311200  0.96407300  1
  Se  Se3  1  0.28903900  0.75311200  0.53592700  1
  Se  Se4  1  0.27005900  0.26187600  0.49181700  1
  Se  Se5  1  0.27005900  0.77824200  0.00818300  1
  Se  Se6  1  0.28281500  0.24688800  0.03592700  1
  Se  Se7  1  0.71096100  0.24688800  0.46407300  1
loop_
_geom_bond_atom_site_label_1
_geom_bond_atom_site_label_2
_geom_bond_distance
_geom_bond_site_symmetry_2
Cr0 Se5 2.552682 1_545
Cr0 Se1 2.552682 1_554
Cr0 Se3 2.588787 1_544
Cr0 Se2 2.588787 1_544
Cr0 Se6 2.588787 1_555
Cr0 Se7 2.588787 1_555
Cr1 Se0 2.552682 1_555
Cr1 Se4 2.552682 1_555
Cr1 Se7 2.588787 1_555
Cr1 Se2 2.588787 1_555
Cr1 Se6 2.588787 1_555
Cr1 Se3 2.588787 1_555
Ag0 Se1 2.629907 1_554
Ag0 Se0 2.629907 1_555
Ag0 Se2 2.640632 1_554
Ag0 Se3 2.640632 1_655
Ag1 Se4 2.629907 1_555
Ag1 Se5 2.629907 1_556
Ag1 Se6 2.640632 1_556
Ag1 Se7 2.640632 1_455
Se0 Sn0 2.750038 1_565
Se0 Sn1 2.750038 1_666
Se1 Sn0 2.750038 1_555
Se1 Sn1 2.750038 1_656
Se2 Sn1 2.754855 1_666
Se3 Sn0 2.754855 1_565
Se4 Sn1 2.750038 1_555
Se4 Sn0 2.750038 1_555
Se5 Sn1 2.750038 1_565
Se5 Sn0 2.750038 1_565
Se6 Sn1 2.754855 1_555
Se7 Sn0 2.754855 1_555
