# generated using pymatgen
data_MgTiO2
_symmetry_space_group_name_H-M   'P 1'
_cell_length_a   8.05033707
_cell_length_b   8.05033707
_cell_length_c   10.18063932
_cell_angle_alpha   51.17926786
_cell_angle_beta   51.17926786
_cell_angle_gamma   20.63159641
_symmetry_Int_Tables_number   1
_chemical_formula_structural   MgTiO2
_chemical_formula_sum   'Mg4 Ti4 O8'
_cell_volume   179.17539150
_cell_formula_units_Z   4
loop_
 _symmetry_equiv_pos_site_id
 _symmetry_equiv_pos_as_xyz
  1  'x, y, z'
loop_
 _atom_site_type_symbol
 _atom_site_label
 _atom_site_symmetry_multiplicity
 _atom_site_fract_x
 _atom_site_fract_y
 _atom_site_fract_z
 _atom_site_occupancy
  Mg  Mg0  1  0.67862300  0.67862300  0.28023500  1
  Mg  Mg1  1  0.32137700  0.32137700  0.71976500  1
  Mg  Mg2  1  0.97578200  0.97578200  0.38710300  1
  Mg  Mg3  1  0.02421800  0.02421800  0.61289700  1
  Ti  Ti0  1  0.38920300  0.38920300  0.94485900  1
  Ti  Ti1  1  0.81713500  0.81713500  0.35772400  1
  Ti  Ti2  1  0.18286500  0.18286500  0.64227600  1
  Ti  Ti3  1  0.61079700  0.61079700  0.05514100  1
  O  O0  1  0.15485100  0.15485100  0.88550800  1
  O  O1  1  0.54703300  0.54703300  0.74095400  1
  O  O2  1  0.45296700  0.45296700  0.25904600  1
  O  O3  1  0.84514900  0.84514900  0.11449200  1
  O  O4  1  0.85244300  0.85244300  0.83453500  1
  O  O5  1  0.19333000  0.19333000  0.41666200  1
  O  O6  1  0.14755700  0.14755700  0.16546500  1
  O  O7  1  0.80667000  0.80667000  0.58333800  1
loop_
_geom_bond_atom_site_label_1
_geom_bond_atom_site_label_2
_geom_bond_distance
_geom_bond_site_symmetry_2
Mg0 O3 2.033023 1_555
Mg0 O6 2.101988 1_565
Mg0 O6 2.101988 1_655
Mg0 O5 2.115164 1_565
Mg0 O5 2.115164 1_655
Mg1 O0 2.033023 1_555
Mg1 O4 2.101988 1_545
Mg1 O4 2.101988 1_455
Mg1 O7 2.115164 1_545
Mg1 O7 2.115164 1_455
Mg2 O7 2.084977 1_555
Mg2 O2 2.123416 1_655
Mg2 O2 2.123416 1_565
Mg2 O6 2.161240 1_665
Mg3 O5 2.084977 1_555
Mg3 O1 2.123416 1_455
Mg3 O1 2.123416 1_545
Mg3 O4 2.161240 1_445
O0 Ti3 2.002955 1_456
O0 Ti3 2.002955 1_546
O0 Ti2 2.220006 1_555
O1 Ti0 1.986428 1_555
O1 Ti2 2.227639 1_565
O1 Ti2 2.227639 1_655
O2 Ti3 1.986428 1_555
O2 Ti1 2.227639 1_455
O2 Ti1 2.227639 1_545
O3 Ti0 2.002955 1_654
O3 Ti0 2.002955 1_564
O3 Ti1 2.220006 1_555
O4 Ti0 2.124205 1_565
O4 Ti0 2.124205 1_655
O5 Ti1 2.187388 1_545
O5 Ti1 2.187388 1_455
O5 Ti2 2.194990 1_555
O6 Ti3 2.124205 1_455
O6 Ti3 2.124205 1_545
O7 Ti2 2.187388 1_565
O7 Ti2 2.187388 1_655
O7 Ti1 2.194990 1_555
