# generated using pymatgen
data_GdZr
_symmetry_space_group_name_H-M   'P 1'
_cell_length_a   6.78781505
_cell_length_b   6.78781505
_cell_length_c   10.89234800
_cell_angle_alpha   90.00000000
_cell_angle_beta   90.00000000
_cell_angle_gamma   119.99999078
_symmetry_Int_Tables_number   1
_chemical_formula_structural   GdZr
_chemical_formula_sum   'Gd8 Zr8'
_cell_volume   434.62247601
_cell_formula_units_Z   8
loop_
 _symmetry_equiv_pos_site_id
 _symmetry_equiv_pos_as_xyz
  1  'x, y, z'
loop_
 _atom_site_type_symbol
 _atom_site_label
 _atom_site_symmetry_multiplicity
 _atom_site_fract_x
 _atom_site_fract_y
 _atom_site_fract_z
 _atom_site_occupancy
  Gd  Gd0_0  1  0.33333350  0.16666650  0.25000000  1
  Gd  Gd0_1  1  0.33333350  0.16666650  0.75000000  1
  Gd  Gd0_2  1  0.33333350  0.66666650  0.25000000  1
  Gd  Gd0_3  1  0.33333350  0.66666650  0.75000000  1
  Gd  Gd0_4  1  0.83333350  0.16666650  0.25000000  1
  Gd  Gd0_5  1  0.83333350  0.16666650  0.75000000  1
  Gd  Gd0_6  1  0.83333350  0.66666650  0.25000000  1
  Gd  Gd0_7  1  0.83333350  0.66666650  0.75000000  1
  Zr  Zr0_0  1  0.16666650  0.33333350  0.00000000  1
  Zr  Zr0_1  1  0.16666650  0.33333350  0.50000000  1
  Zr  Zr0_2  1  0.16666650  0.83333350  0.00000000  1
  Zr  Zr0_3  1  0.16666650  0.83333350  0.50000000  1
  Zr  Zr0_4  1  0.66666650  0.33333350  0.00000000  1
  Zr  Zr0_5  1  0.66666650  0.33333350  0.50000000  1
  Zr  Zr0_6  1  0.66666650  0.83333350  0.00000000  1
  Zr  Zr0_7  1  0.66666650  0.83333350  0.50000000  1
loop_
_geom_bond_atom_site_label_1
_geom_bond_atom_site_label_2
_geom_bond_distance
_geom_bond_site_symmetry_2
Gd0_0 Zr0_2 3.354807 1_545
Gd0_0 Zr0_3 3.354807 1_545
Gd0_0 Zr0_4 3.354807 1_555
Gd0_0 Zr0_5 3.354807 1_555
Gd0_0 Zr0_0 3.354811 1_555
Gd0_0 Zr0_1 3.354811 1_555
Gd0_0 Gd0_4 3.393908 1_555
Gd0_0 Gd0_2 3.393908 1_555
Gd0_0 Gd0_2 3.393908 1_545
Gd0_0 Gd0_4 3.393908 1_455
Gd0_0 Gd0_6 3.393908 1_445
Gd0_0 Gd0_6 3.393908 1_555
Gd0_1 Zr0_2 3.354807 1_546
Gd0_1 Zr0_3 3.354807 1_545
Gd0_1 Zr0_4 3.354807 1_556
Gd0_1 Zr0_5 3.354807 1_555
Gd0_1 Zr0_0 3.354811 1_556
Gd0_1 Zr0_1 3.354811 1_555
Gd0_1 Gd0_3 3.393908 1_555
Gd0_1 Gd0_5 3.393908 1_455
Gd0_1 Gd0_5 3.393908 1_555
Gd0_1 Gd0_3 3.393908 1_545
Gd0_1 Gd0_7 3.393908 1_445
Gd0_1 Gd0_7 3.393908 1_555
Gd0_2 Zr0_1 3.354807 1_555
Gd0_2 Zr0_7 3.354807 1_555
Gd0_2 Zr0_0 3.354807 1_555
Gd0_2 Zr0_6 3.354807 1_555
Gd0_2 Zr0_3 3.354811 1_555
Gd0_2 Zr0_2 3.354811 1_555
Gd0_2 Gd0_6 3.393908 1_455
Gd0_2 Gd0_6 3.393908 1_555
Gd0_2 Gd0_4 3.393908 1_565
Gd0_2 Gd0_4 3.393908 1_455
Gd0_3 Zr0_0 3.354807 1_556
Gd0_3 Zr0_1 3.354807 1_555
Gd0_3 Zr0_7 3.354807 1_555
Gd0_3 Zr0_6 3.354807 1_556
Gd0_3 Zr0_3 3.354811 1_555
Gd0_3 Zr0_2 3.354811 1_556
Gd0_3 Gd0_7 3.393908 1_455
Gd0_3 Gd0_7 3.393908 1_555
Gd0_3 Gd0_5 3.393908 1_455
Gd0_3 Gd0_5 3.393908 1_565
Gd0_4 Zr0_7 3.354807 1_545
Gd0_4 Zr0_6 3.354807 1_545
Gd0_4 Zr0_0 3.354807 1_655
Gd0_4 Zr0_1 3.354807 1_655
Gd0_4 Zr0_4 3.354811 1_555
Gd0_4 Zr0_5 3.354811 1_555
Gd0_4 Gd0_6 3.393908 1_545
Gd0_4 Gd0_6 3.393908 1_555
Gd0_5 Zr0_6 3.354807 1_546
Gd0_5 Zr0_7 3.354807 1_545
Gd0_5 Zr0_0 3.354807 1_656
Gd0_5 Zr0_1 3.354807 1_655
Gd0_5 Zr0_4 3.354811 1_556
Gd0_5 Zr0_5 3.354811 1_555
Gd0_5 Gd0_7 3.393908 1_555
Gd0_5 Gd0_7 3.393908 1_545
Gd0_6 Zr0_5 3.354807 1_555
Gd0_6 Zr0_4 3.354807 1_555
Gd0_6 Zr0_2 3.354807 1_655
Gd0_6 Zr0_3 3.354807 1_655
Gd0_6 Zr0_6 3.354811 1_555
Gd0_6 Zr0_7 3.354811 1_555
Gd0_7 Zr0_4 3.354807 1_556
Gd0_7 Zr0_5 3.354807 1_555
Gd0_7 Zr0_3 3.354807 1_655
Gd0_7 Zr0_2 3.354807 1_656
Gd0_7 Zr0_6 3.354811 1_556
Gd0_7 Zr0_7 3.354811 1_555
Zr0_0 Zr0_2 3.393908 1_555
Zr0_0 Zr0_2 3.393908 1_545
Zr0_0 Zr0_4 3.393908 1_555
Zr0_0 Zr0_4 3.393908 1_455
Zr0_0 Zr0_6 3.393908 1_555
Zr0_0 Zr0_6 3.393908 1_445
Zr0_1 Zr0_5 3.393908 1_555
Zr0_1 Zr0_3 3.393908 1_555
Zr0_1 Zr0_5 3.393908 1_455
Zr0_1 Zr0_3 3.393908 1_545
Zr0_1 Zr0_7 3.393908 1_555
Zr0_1 Zr0_7 3.393908 1_445
Zr0_2 Zr0_6 3.393908 1_555
Zr0_2 Zr0_6 3.393908 1_455
Zr0_2 Zr0_4 3.393908 1_455
Zr0_2 Zr0_4 3.393908 1_565
Zr0_3 Zr0_7 3.393908 1_555
Zr0_3 Zr0_7 3.393908 1_455
Zr0_3 Zr0_5 3.393908 1_455
Zr0_3 Zr0_5 3.393908 1_565
Zr0_4 Zr0_6 3.393908 1_545
Zr0_4 Zr0_6 3.393908 1_555
Zr0_5 Zr0_7 3.393908 1_545
Zr0_5 Zr0_7 3.393908 1_555
