# generated using pymatgen
data_ThCoH4
_symmetry_space_group_name_H-M   'P 1'
_cell_length_a   6.22839452
_cell_length_b   6.22839452
_cell_length_c   4.64294193
_cell_angle_alpha   90.00000000
_cell_angle_beta   90.00000000
_cell_angle_gamma   143.24343699
_symmetry_Int_Tables_number   1
_chemical_formula_structural   ThCoH4
_chemical_formula_sum   'Th2 Co2 H8'
_cell_volume   107.78267306
_cell_formula_units_Z   2
loop_
 _symmetry_equiv_pos_site_id
 _symmetry_equiv_pos_as_xyz
  1  'x, y, z'
loop_
 _atom_site_type_symbol
 _atom_site_label
 _atom_site_symmetry_multiplicity
 _atom_site_fract_x
 _atom_site_fract_y
 _atom_site_fract_z
 _atom_site_occupancy
  Th  Th0  1  0.86789616  0.13210384  0.75000000  1
  Th  Th1  1  0.13210384  0.86789616  0.25000000  1
  Co  Co0  1  0.59589251  0.40410749  0.75000000  1
  Co  Co1  1  0.40410749  0.59589251  0.25000000  1
  H  H0  1  0.08368697  0.91631303  0.75000000  1
  H  H1  1  0.91631303  0.08368697  0.25000000  1
  H  H2  1  0.69089837  0.30910163  0.50110078  1
  H  H3  1  0.30910163  0.69089837  0.49889922  1
  H  H4  1  0.69089837  0.30910163  -0.00110078  1
  H  H5  1  0.30910163  0.69089837  0.00110078  1
  H  H6  1  0.50000000  0.50000000  -0.00000000  1
  H  H7  1  0.50000000  0.50000000  0.50000000  1
loop_
_geom_bond_atom_site_label_1
_geom_bond_atom_site_label_2
_geom_bond_distance
_geom_bond_site_symmetry_2
Co0 H2 1.611470 1_555
Co0 H4 1.611470 1_556
Co0 H7 1.622445 1_555
Co0 H6 1.622445 1_556
Co0 H0 1.969040 1_655
Co0 H0 1.969040 1_545
Co1 H3 1.611470 1_555
Co1 H5 1.611470 1_555
Co1 H6 1.622445 1_555
Co1 H7 1.622445 1_555
Co1 H1 1.969040 1_455
Co1 H1 1.969040 1_565
H0 Th1 2.390987 1_556
H0 Th1 2.390987 1_555
H0 Th0 2.550958 1_465
H1 Th0 2.390987 1_555
H1 Th0 2.390987 1_554
H1 Th1 2.550958 1_645
H2 Th1 2.387168 1_655
H2 Th1 2.387168 1_545
H2 Th0 2.390287 1_555
H3 Th0 2.387168 1_565
H3 Th0 2.387168 1_455
H3 Th1 2.390287 1_555
H4 Th1 2.387168 1_545
H4 Th1 2.387168 1_655
H4 Th0 2.390287 1_554
H5 Th0 2.387168 1_564
H5 Th0 2.387168 1_454
H5 Th1 2.390287 1_555
H6 Th1 2.764486 1_545
H6 Th0 2.764486 1_454
H6 Th1 2.764486 1_655
H6 Th0 2.764486 1_564
H7 Th1 2.764486 1_545
H7 Th0 2.764486 1_455
H7 Th1 2.764486 1_655
H7 Th0 2.764486 1_565
