# generated using pymatgen
data_TiNF
_symmetry_space_group_name_H-M   'P 1'
_cell_length_a   5.71457686
_cell_length_b   5.71457686
_cell_length_c   5.71457686
_cell_angle_alpha   140.05721424
_cell_angle_beta   140.05721424
_cell_angle_gamma   57.76643727
_symmetry_Int_Tables_number   1
_chemical_formula_structural   TiNF
_chemical_formula_sum   'Ti2 N2 F2'
_cell_volume   76.24860451
_cell_formula_units_Z   2
loop_
 _symmetry_equiv_pos_site_id
 _symmetry_equiv_pos_as_xyz
  1  'x, y, z'
loop_
 _atom_site_type_symbol
 _atom_site_label
 _atom_site_symmetry_multiplicity
 _atom_site_fract_x
 _atom_site_fract_y
 _atom_site_fract_z
 _atom_site_occupancy
  Ti  Ti0  1  0.59764700  0.09764700  0.50000000  1
  Ti  Ti1  1  0.84764700  0.84764700  0.00000000  1
  N  N0  1  0.66702200  0.66702200  0.00000000  1
  N  N1  1  0.41702200  0.91702200  0.50000000  1
  F  F0  1  0.86033100  0.36033100  0.50000000  1
  F  F1  1  0.11033100  0.11033100  0.00000000  1
loop_
_geom_bond_atom_site_label_1
_geom_bond_atom_site_label_2
_geom_bond_distance
_geom_bond_site_symmetry_2
N0 Ti1 1.807593 1_555
N0 Ti0 2.071618 1_554
N0 Ti0 2.071618 1_565
N1 Ti0 1.807593 1_565
N1 Ti1 2.071618 1_455
N1 Ti1 2.071618 1_556
F0 Ti1 1.955942 1_545
F0 Ti1 1.955942 1_556
F0 Ti0 2.628793 1_555
F1 Ti0 1.955942 1_555
F1 Ti0 1.955942 1_454
F1 Ti1 2.628793 1_445
