# generated using pymatgen
data_CaCu3(WO3)4
_symmetry_space_group_name_H-M   'P 1'
_cell_length_a   6.71307192
_cell_length_b   6.70664188
_cell_length_c   6.69410520
_cell_angle_alpha   109.50037366
_cell_angle_beta   109.43574092
_cell_angle_gamma   109.52088789
_symmetry_Int_Tables_number   1
_chemical_formula_structural   CaCu3(WO3)4
_chemical_formula_sum   'Ca1 Cu3 W4 O12'
_cell_volume   231.88056488
_cell_formula_units_Z   1
loop_
 _symmetry_equiv_pos_site_id
 _symmetry_equiv_pos_as_xyz
  1  'x, y, z'
loop_
 _atom_site_type_symbol
 _atom_site_label
 _atom_site_symmetry_multiplicity
 _atom_site_fract_x
 _atom_site_fract_y
 _atom_site_fract_z
 _atom_site_occupancy
  Ca  Ca0  1  0.00000000  0.00000000  0.00000000  1
  Cu  Cu0  1  0.50000100  0.50000000  0.00000100  1
  Cu  Cu1  1  0.00000100  0.50000100  0.50000100  1
  Cu  Cu2  1  0.50000000  0.99999900  0.49999900  1
  W  W0  1  0.00000000  0.00000000  0.50000000  1
  W  W1  1  0.00000000  0.50000000  0.00000000  1
  W  W2  1  0.50000000  0.50000000  0.50000000  1
  W  W3  1  0.50000000  0.00000000  0.00000000  1
  O  O0  1  0.82467700  0.29897600  0.12143100  1
  O  O1  1  0.17532400  0.70102400  0.87856900  1
  O  O2  1  0.82192500  0.70403400  0.52406400  1
  O  O3  1  0.28366900  0.47464200  0.16728600  1
  O  O4  1  0.47611800  0.17710900  0.29915900  1
  O  O5  1  0.12278300  0.82408700  0.29928400  1
  O  O6  1  0.71801300  0.88593400  0.18959000  1
  O  O7  1  0.52388200  0.82289100  0.70084100  1
  O  O8  1  0.17807500  0.29596600  0.47593600  1
  O  O9  1  0.71633100  0.52535800  0.83271400  1
  O  O10  1  0.87721600  0.17591200  0.70071600  1
  O  O11  1  0.28198700  0.11406600  0.81041000  1
loop_
_geom_bond_atom_site_label_1
_geom_bond_atom_site_label_2
_geom_bond_distance
_geom_bond_site_symmetry_2
Ca0 O6 2.656805 1_445
Ca0 O11 2.656805 1_554
Ca0 O3 2.676427 1_555
Ca0 O9 2.676427 1_444
Ca0 O8 2.678989 1_555
Ca0 O2 2.678989 1_444
Ca0 O0 2.681825 1_455
Ca0 O1 2.681831 1_544
Ca0 O10 2.685883 1_454
Ca0 O5 2.685887 1_545
Ca0 O4 2.692976 1_555
Ca0 O7 2.692976 1_444
Cu0 O9 2.106259 1_554
Cu0 O3 2.106260 1_555
Cu0 O6 2.119254 1_555
Cu0 O11 2.119254 1_554
Cu1 O1 2.073293 1_555
Cu1 O0 2.073305 1_455
Cu1 O2 2.098017 1_455
Cu1 O8 2.098017 1_555
Cu2 O10 2.071339 1_565
Cu2 O5 2.071344 1_555
Cu2 O7 2.072226 1_555
Cu2 O4 2.072226 1_565
O0 W1 2.042433 1_655
O0 W3 2.060076 1_555
O1 W1 2.042436 1_556
O1 W3 2.060072 1_566
O2 W0 2.037358 1_665
O2 W2 2.052716 1_555
O3 W1 1.957979 1_555
O3 W2 2.127906 1_555
O4 W3 2.049353 1_555
O4 W2 2.050242 1_555
O5 W0 2.050654 1_565
O5 W1 2.052792 1_555
O6 W0 1.959493 1_665
O6 W3 2.120891 1_565
O7 W3 2.049353 1_566
O7 W2 2.050242 1_555
O8 W0 2.037358 1_555
O8 W2 2.052716 1_555
O9 W1 1.957979 1_656
O9 W2 2.127906 1_555
O10 W0 2.050657 1_655
O10 W1 2.052794 1_656
O11 W0 1.959493 1_555
O11 W3 2.120891 1_556
