# generated using pymatgen
data_Li4Mn3O7
_symmetry_space_group_name_H-M   'P 1'
_cell_length_a   3.00430500
_cell_length_b   5.11041728
_cell_length_c   16.99243492
_cell_angle_alpha   89.43020803
_cell_angle_beta   89.01605871
_cell_angle_gamma   88.28308417
_symmetry_Int_Tables_number   1
_chemical_formula_structural   Li4Mn3O7
_chemical_formula_sum   'Li8 Mn6 O14'
_cell_volume   260.72195595
_cell_formula_units_Z   2
loop_
 _symmetry_equiv_pos_site_id
 _symmetry_equiv_pos_as_xyz
  1  'x, y, z'
loop_
 _atom_site_type_symbol
 _atom_site_label
 _atom_site_symmetry_multiplicity
 _atom_site_fract_x
 _atom_site_fract_y
 _atom_site_fract_z
 _atom_site_occupancy
  Li  Li0  1  0.50000000  0.50000000  0.00000000  1
  Li  Li1  1  0.93575000  0.65059200  0.13813600  1
  Li  Li2  1  0.35374400  0.77985600  0.28606800  1
  Li  Li3  1  0.78552500  0.92897400  0.42821700  1
  Li  Li4  1  0.21447500  0.07102600  0.57178300  1
  Li  Li5  1  0.64625600  0.22014400  0.71393200  1
  Li  Li6  1  0.06425000  0.34940800  0.86186400  1
  Li  Li7  1  0.00000000  0.00000000  0.00000000  1
  Mn  Mn0  1  0.56516400  0.86514200  0.86268200  1
  Mn  Mn1  1  0.43483600  0.13485800  0.13731800  1
  Mn  Mn2  1  0.86797400  0.28872800  0.28336800  1
  Mn  Mn3  1  0.28629600  0.42905100  0.42781900  1
  Mn  Mn4  1  0.71370400  0.57094900  0.57218100  1
  Mn  Mn5  1  0.13202600  0.71127200  0.71663200  1
  O  O0  1  0.06468900  0.70415700  0.91888200  1
  O  O1  1  0.45366100  0.84000300  0.07817600  1
  O  O2  1  0.92508100  0.99515300  0.20729300  1
  O  O3  1  0.29083800  0.12460000  0.35685800  1
  O  O4  1  0.71533700  0.26808300  0.50113700  1
  O  O5  1  0.14545700  0.40645600  0.64488600  1
  O  O6  1  0.57045800  0.55945100  0.78594600  1
  O  O7  1  0.93531100  0.29584300  0.08111800  1
  O  O8  1  0.42954200  0.44054900  0.21405400  1
  O  O9  1  0.85454300  0.59354400  0.35511400  1
  O  O10  1  0.28466300  0.73191700  0.49886300  1
  O  O11  1  0.70916200  0.87540000  0.64314200  1
  O  O12  1  0.07491900  0.00484700  0.79270700  1
  O  O13  1  0.54633900  0.15999700  0.92182400  1
loop_
_geom_bond_atom_site_label_1
_geom_bond_atom_site_label_2
_geom_bond_distance
_geom_bond_site_symmetry_2
Li0 O0 2.156479 1_554
Li0 O7 2.156479 1_555
Li0 O1 2.197316 1_555
Li0 O13 2.197316 1_554
Li0 O0 2.421518 1_654
Li0 O7 2.421518 1_455
Li1 O1 2.004945 1_555
Li1 O7 2.064099 1_555
Li1 O1 2.100538 1_655
Li1 O2 2.125810 1_555
Li1 O8 2.227089 1_655
Li1 O8 2.265420 1_555
Li2 O9 2.121165 1_555
Li2 O9 2.129617 1_455
Li2 O8 2.136588 1_555
Li2 O3 2.144983 1_565
Li2 O2 2.146132 1_455
Li2 O2 2.439999 1_555
Li3 O9 2.129952 1_555
Li3 O4 2.143570 1_565
Li3 O3 2.151112 1_565
Li3 O10 2.156662 1_655
Li3 O10 2.173518 1_555
Li3 O3 2.185876 1_665
Li4 O5 2.129952 1_555
Li4 O10 2.143570 1_545
Li4 O11 2.151112 1_545
Li4 O4 2.156662 1_455
Li4 O4 2.173518 1_555
Li4 O11 2.185876 1_445
Li5 O5 2.121165 1_555
Li5 O5 2.129617 1_655
Li5 O6 2.136588 1_555
Li5 O11 2.144983 1_545
Li5 O12 2.146132 1_655
Li5 O12 2.439999 1_555
Li6 O13 2.004945 1_555
Li6 O0 2.064099 1_555
Li6 O13 2.100538 1_455
Li6 O12 2.125810 1_555
Li6 O6 2.227089 1_455
Li6 O6 2.265420 1_555
Li7 O7 2.058680 1_455
Li7 O0 2.058680 1_544
Li7 O13 2.065090 1_454
Li7 O1 2.065090 1_545
Li7 O13 2.260802 1_554
Li7 O1 2.260802 1_445
Mn0 O13 1.818450 1_565
Mn0 O0 1.949513 1_655
Mn0 O0 1.964370 1_555
Mn0 O12 2.018187 1_565
Mn0 O6 2.044333 1_555
Mn0 O12 2.062769 1_665
Mn1 O1 1.818450 1_545
Mn1 O7 1.949513 1_455
Mn1 O7 1.964370 1_555
Mn1 O2 2.018187 1_545
Mn1 O8 2.044333 1_555
Mn1 O2 2.062769 1_445
Mn2 O8 1.923033 1_555
Mn2 O3 1.961303 1_655
Mn2 O9 1.986653 1_555
Mn2 O2 1.991711 1_545
Mn2 O8 2.197183 1_655
Mn2 O3 2.293751 1_555
Mn3 O4 1.965074 1_555
Mn3 O9 1.970916 1_455
Mn3 O10 1.972177 1_555
Mn3 O3 1.977461 1_555
Mn3 O9 2.267233 1_555
Mn3 O4 2.272001 1_455
Mn4 O10 1.965074 1_555
Mn4 O5 1.970916 1_655
Mn4 O4 1.972177 1_555
Mn4 O11 1.977461 1_555
Mn4 O5 2.267233 1_555
Mn4 O10 2.272001 1_655
Mn5 O6 1.923033 1_555
Mn5 O11 1.961303 1_455
Mn5 O5 1.986653 1_555
Mn5 O12 1.991711 1_565
Mn5 O6 2.197183 1_455
Mn5 O11 2.293751 1_555
