# generated using pymatgen
data_SrH10Pb2Br6O5
_symmetry_space_group_name_H-M   'P 1'
_cell_length_a   9.97173525
_cell_length_b   9.97173525
_cell_length_c   9.43756029
_cell_angle_alpha   71.05477302
_cell_angle_beta   71.05477302
_cell_angle_gamma   77.66357695
_symmetry_Int_Tables_number   1
_chemical_formula_structural   SrH10Pb2Br6O5
_chemical_formula_sum   'Sr2 H20 Pb4 Br12 O10'
_cell_volume   833.34364008
_cell_formula_units_Z   2
loop_
 _symmetry_equiv_pos_site_id
 _symmetry_equiv_pos_as_xyz
  1  'x, y, z'
loop_
 _atom_site_type_symbol
 _atom_site_label
 _atom_site_symmetry_multiplicity
 _atom_site_fract_x
 _atom_site_fract_y
 _atom_site_fract_z
 _atom_site_occupancy
  Sr  Sr0  1  0.97946200  0.02053800  0.25000000  1
  Sr  Sr1  1  0.02053800  0.97946200  0.75000000  1
  H  H0  1  0.09092900  0.33367400  0.09427700  1
  H  H1  1  0.66632600  0.90907100  0.40572300  1
  H  H2  1  0.90907100  0.66632600  0.90572300  1
  H  H3  1  0.33367400  0.09092900  0.59427700  1
  H  H4  1  0.06074400  0.29833900  0.27608300  1
  H  H5  1  0.70166100  0.93925600  0.22391700  1
  H  H6  1  0.93925600  0.70166100  0.72391700  1
  H  H7  1  0.29833900  0.06074400  0.77608300  1
  H  H8  1  0.22596700  0.89574200  0.43338800  1
  H  H9  1  0.10425800  0.77403300  0.06661200  1
  H  H10  1  0.77403300  0.10425800  0.56661200  1
  H  H11  1  0.89574200  0.22596700  0.93338800  1
  H  H12  1  0.22735600  0.05903100  0.38236900  1
  H  H13  1  0.94096900  0.77264400  0.11763100  1
  H  H14  1  0.77264400  0.94096900  0.61763100  1
  H  H15  1  0.05903100  0.22735600  0.88236900  1
  H  H16  1  0.78502700  0.32434300  0.22661400  1
  H  H17  1  0.67565700  0.21497300  0.27338600  1
  H  H18  1  0.21497300  0.67565700  0.77338600  1
  H  H19  1  0.32434300  0.78502700  0.72661400  1
  Pb  Pb0  1  0.45128900  0.26626800  0.96724400  1
  Pb  Pb1  1  0.73373200  0.54871100  0.53275600  1
  Pb  Pb2  1  0.54871100  0.73373200  0.03275600  1
  Pb  Pb3  1  0.26626800  0.45128900  0.46724400  1
  Br  Br0  1  0.43277000  0.18375300  0.31863700  1
  Br  Br1  1  0.81624700  0.56723000  0.18136300  1
  Br  Br2  1  0.56723000  0.81624700  0.68136300  1
  Br  Br3  1  0.18375300  0.43277000  0.81863700  1
  Br  Br4  1  0.69621800  0.43561800  0.88806400  1
  Br  Br5  1  0.56438200  0.30378200  0.61193600  1
  Br  Br6  1  0.30378200  0.56438200  0.11193600  1
  Br  Br7  1  0.43561800  0.69621800  0.38806400  1
  Br  Br8  1  0.68764100  0.01538800  0.96938100  1
  Br  Br9  1  0.98461200  0.31235900  0.53061900  1
  Br  Br10  1  0.31235900  0.98461200  0.03061900  1
  Br  Br11  1  0.01538800  0.68764100  0.46938100  1
  O  O0  1  0.09065800  0.25423800  0.18904500  1
  O  O1  1  0.74576200  0.90934200  0.31095500  1
  O  O2  1  0.90934200  0.74576200  0.81095500  1
  O  O3  1  0.25423800  0.09065800  0.68904500  1
  O  O4  1  0.16070600  0.98569000  0.43269000  1
  O  O5  1  0.01431000  0.83929400  0.06731000  1
  O  O6  1  0.83929400  0.01431000  0.56731000  1
  O  O7  1  0.98569000  0.16070600  0.93269000  1
  O  O8  1  0.77783700  0.22216300  0.25000000  1
  O  O9  1  0.22216300  0.77783700  0.75000000  1
loop_
_geom_bond_atom_site_label_1
_geom_bond_atom_site_label_2
_geom_bond_distance
_geom_bond_site_symmetry_2
H0 O0 0.983206 1_555
H1 O1 0.983206 1_555
H2 O2 0.983206 1_555
H3 O3 0.983206 1_555
H4 O0 0.988188 1_555
H5 O1 0.988188 1_555
H6 O2 0.988188 1_555
H7 O3 0.988188 1_555
H8 O4 0.988720 1_555
H9 O5 0.988720 1_555
H10 O6 0.988720 1_555
H11 O7 0.988720 1_555
H12 O4 0.989610 1_545
H13 O5 0.989610 1_655
H14 O6 0.989610 1_565
H15 O7 0.989610 1_455
H16 O8 0.983337 1_555
H17 O8 0.983337 1_555
H18 O9 0.983337 1_555
H19 O9 0.983337 1_555
Br0 Pb0 3.099093 1_554
Br0 Pb3 3.296295 1_555
Br1 Pb1 3.099093 1_555
Br1 Pb2 3.296295 1_555
Br2 Pb2 3.099093 1_556
Br2 Pb1 3.296295 1_555
Br3 Pb3 3.099093 1_555
Br3 Pb0 3.296295 1_555
Br4 Pb0 3.022122 1_555
Br4 Pb1 3.092932 1_555
Br5 Pb1 3.022122 1_555
Br5 Pb0 3.092932 1_555
Br6 Pb2 3.022122 1_555
Br6 Pb3 3.092932 1_555
Br7 Pb3 3.022122 1_555
Br7 Pb2 3.092932 1_555
Br8 H5 2.314086 1_546
Br8 Pb0 3.048330 1_555
Br8 Pb2 3.193593 1_546
Br8 Sr1 3.308348 1_645
Br9 H4 2.314086 1_655
Br9 Pb1 3.048330 1_555
Br9 Pb3 3.193593 1_655
Br9 Sr1 3.308348 1_645
Br10 H7 2.314086 1_564
Br10 Pb2 3.048330 1_555
Br10 Pb0 3.193593 1_564
Br10 Sr0 3.308348 1_465
Br11 H6 2.314086 1_455
Br11 Pb3 3.048330 1_555
Br11 Pb1 3.193593 1_455
Br11 Sr0 3.308348 1_465
O0 Sr0 2.609716 1_455
O1 Sr0 2.609716 1_565
O2 Sr1 2.609716 1_655
O3 Sr1 2.609716 1_545
O4 Sr0 2.779532 1_465
O4 Sr1 2.850222 1_555
O5 Sr0 2.779532 1_465
O5 Sr1 2.850222 1_554
O6 Sr1 2.779532 1_645
O6 Sr0 2.850222 1_555
O7 Sr1 2.779532 1_645
O7 Sr0 2.850222 1_556
O8 Sr0 2.521376 1_555
O9 Sr1 2.521376 1_555
