# generated using pymatgen
data_Cs2Li5(BO2)7
_symmetry_space_group_name_H-M   'P 1'
_cell_length_a   7.26799524
_cell_length_b   7.26799524
_cell_length_c   21.61578600
_cell_angle_alpha   90.00000000
_cell_angle_beta   90.00000000
_cell_angle_gamma   144.16151624
_symmetry_Int_Tables_number   1
_chemical_formula_structural   Cs2Li5(BO2)7
_chemical_formula_sum   'Cs4 Li10 B14 O28'
_cell_volume   668.54233305
_cell_formula_units_Z   2
loop_
 _symmetry_equiv_pos_site_id
 _symmetry_equiv_pos_as_xyz
  1  'x, y, z'
loop_
 _atom_site_type_symbol
 _atom_site_label
 _atom_site_symmetry_multiplicity
 _atom_site_fract_x
 _atom_site_fract_y
 _atom_site_fract_z
 _atom_site_occupancy
  Cs  Cs0  1  0.83028100  0.26530500  0.84711100  1
  Cs  Cs1  1  0.26530500  0.83028100  0.15288900  1
  Cs  Cs2  1  0.83028100  0.26530500  0.65288900  1
  Cs  Cs3  1  0.26530500  0.83028100  0.34711100  1
  Li  Li0  1  0.18662100  0.91702900  0.75000000  1
  Li  Li1  1  0.91702900  0.18662100  0.25000000  1
  Li  Li2  1  0.58647200  0.56491100  0.93811500  1
  Li  Li3  1  0.56491100  0.58647200  0.06188500  1
  Li  Li4  1  0.58647200  0.56491100  0.56188500  1
  Li  Li5  1  0.56491100  0.58647200  0.43811500  1
  Li  Li6  1  0.99173000  0.16138900  0.99331100  1
  Li  Li7  1  0.16138900  0.99173000  0.00668900  1
  Li  Li8  1  0.99173000  0.16138900  0.50668900  1
  Li  Li9  1  0.16138900  0.99173000  0.49331100  1
  B  B0  1  0.09574100  0.00312600  0.87168300  1
  B  B1  1  0.00312600  0.09574100  0.12831700  1
  B  B2  1  0.09574100  0.00312600  0.62831700  1
  B  B3  1  0.00312600  0.09574100  0.37168300  1
  B  B4  1  0.58424500  0.51613500  0.80841500  1
  B  B5  1  0.51613500  0.58424500  0.19158500  1
  B  B6  1  0.58424500  0.51613500  0.69158500  1
  B  B7  1  0.51613500  0.58424500  0.30841500  1
  B  B8  1  0.35444100  0.75387800  0.99562500  1
  B  B9  1  0.75387800  0.35444100  0.00437500  1
  B  B10  1  0.35444100  0.75387800  0.50437500  1
  B  B11  1  0.75387800  0.35444100  0.49562500  1
  B  B12  1  0.42511900  0.67473400  0.75000000  1
  B  B13  1  0.67473400  0.42511900  0.25000000  1
  O  O0  1  0.32964900  0.77508600  0.75000000  1
  O  O1  1  0.77508600  0.32964900  0.25000000  1
  O  O2  1  0.47609300  0.62276000  0.80591500  1
  O  O3  1  0.62276000  0.47609300  0.19408500  1
  O  O4  1  0.47609300  0.62276000  0.69408500  1
  O  O5  1  0.62276000  0.47609300  0.30591500  1
  O  O6  1  0.45820900  0.02146000  0.00343900  1
  O  O7  1  0.02146000  0.45820900  0.99656100  1
  O  O8  1  0.45820900  0.02146000  0.49656100  1
  O  O9  1  0.02146000  0.45820900  0.50343900  1
  O  O10  1  0.72645000  0.57081000  0.75000000  1
  O  O11  1  0.57081000  0.72645000  0.25000000  1
  O  O12  1  0.53646100  0.75582600  0.98835100  1
  O  O13  1  0.75582600  0.53646100  0.01164900  1
  O  O14  1  0.53646100  0.75582600  0.51164900  1
  O  O15  1  0.75582600  0.53646100  0.48835100  1
  O  O16  1  0.15532400  0.12726700  0.92805300  1
  O  O17  1  0.12726700  0.15532400  0.07194700  1
  O  O18  1  0.15532400  0.12726700  0.57194700  1
  O  O19  1  0.12726700  0.15532400  0.42805300  1
  O  O20  1  0.30665900  0.16906800  0.82234200  1
  O  O21  1  0.16906800  0.30665900  0.17765800  1
  O  O22  1  0.30665900  0.16906800  0.67765800  1
  O  O23  1  0.16906800  0.30665900  0.32234200  1
  O  O24  1  0.80538000  0.67935500  0.86219300  1
  O  O25  1  0.67935500  0.80538000  0.13780700  1
  O  O26  1  0.80538000  0.67935500  0.63780700  1
  O  O27  1  0.67935500  0.80538000  0.36219300  1
loop_
_geom_bond_atom_site_label_1
_geom_bond_atom_site_label_2
_geom_bond_distance
_geom_bond_site_symmetry_2
Cs0 O0 3.053030 1_545
Cs0 O0 3.082855 1_655
Cs0 O2 3.120476 1_545
Cs0 O2 3.130929 1_655
Cs0 O24 3.174591 1_555
Cs0 O20 3.308063 1_555
Cs0 O7 3.342726 1_655
Cs1 O1 3.053030 1_455
Cs1 O1 3.082855 1_565
Cs1 O3 3.120476 1_455
Cs1 O3 3.130929 1_565
Cs1 O25 3.174591 1_555
Cs1 O21 3.308063 1_555
Cs1 O6 3.342726 1_565
Cs2 O0 3.053030 1_545
Cs2 O0 3.082855 1_655
Cs2 O4 3.120476 1_545
Cs2 O4 3.130929 1_655
Cs2 O26 3.174591 1_555
Cs2 O22 3.308063 1_555
Cs2 O9 3.342726 1_655
Cs3 O1 3.053030 1_455
Cs3 O1 3.082855 1_565
Cs3 O5 3.120476 1_455
Cs3 O5 3.130929 1_565
Cs3 O27 3.174591 1_555
Cs3 O23 3.308063 1_555
Cs3 O8 3.342726 1_565
Li0 O10 1.967908 1_455
Li0 O0 1.970699 1_555
Li0 O20 1.992690 1_565
Li0 O22 1.992690 1_565
Li1 O11 1.967908 1_545
Li1 O1 1.970699 1_555
Li1 O21 1.992690 1_655
Li1 O23 1.992690 1_655
Li2 O24 1.941858 1_555
Li2 O16 1.955436 1_555
Li2 O12 2.013543 1_555
Li2 O13 2.120596 1_556
Li3 O25 1.941858 1_555
Li3 O17 1.955436 1_555
Li3 O13 2.013543 1_555
Li3 O12 2.120596 1_554
Li4 O26 1.941858 1_555
Li4 O18 1.955436 1_555
Li4 O14 2.013543 1_555
Li4 O15 2.120596 1_555
Li5 O27 1.941858 1_555
Li5 O19 1.955436 1_555
Li5 O15 2.013543 1_555
Li5 O14 2.120596 1_555
Li6 O12 1.958369 1_545
Li6 O17 1.982923 1_656
Li6 O16 1.985727 1_655
Li6 O7 1.987394 1_655
Li7 O13 1.958369 1_455
Li7 O16 1.982923 1_564
Li7 O17 1.985727 1_565
Li7 O6 1.987394 1_565
Li8 O14 1.958369 1_545
Li8 O19 1.982923 1_655
Li8 O18 1.985727 1_655
Li8 O9 1.987394 1_655
Li9 O15 1.958369 1_455
Li9 O18 1.982923 1_565
Li9 O19 1.985727 1_565
Li9 O8 1.987394 1_565
B0 O16 1.361177 1_555
B0 O20 1.394435 1_555
B0 O24 1.407642 1_445
B1 O17 1.361177 1_555
B1 O21 1.394435 1_555
B1 O25 1.407642 1_445
B2 O18 1.361177 1_555
B2 O22 1.394435 1_555
B2 O26 1.407642 1_445
B3 O19 1.361177 1_555
B3 O23 1.394435 1_555
B3 O27 1.407642 1_445
B4 O10 1.467857 1_555
B4 O2 1.486263 1_555
B4 O24 1.500143 1_555
B4 O20 1.507537 1_555
B5 O11 1.467857 1_555
B5 O3 1.486263 1_555
B5 O25 1.500143 1_555
B5 O21 1.507537 1_555
B6 O10 1.467857 1_555
B6 O4 1.486263 1_555
B6 O26 1.500143 1_555
B6 O22 1.507537 1_555
B7 O11 1.467857 1_555
B7 O5 1.486263 1_555
B7 O27 1.500143 1_555
B7 O23 1.507537 1_555
B8 O12 1.320861 1_555
B8 O6 1.414724 1_566
B8 O7 1.429408 1_555
B9 O13 1.320861 1_555
B9 O7 1.414724 1_654
B9 O6 1.429408 1_555
B10 O14 1.320861 1_555
B10 O8 1.414724 1_565
B10 O9 1.429408 1_555
B11 O15 1.320861 1_555
B11 O9 1.414724 1_655
B11 O8 1.429408 1_555
B12 O0 1.354238 1_555
B12 O2 1.402739 1_555
B12 O4 1.402739 1_555
B13 O1 1.354238 1_555
B13 O5 1.402739 1_555
B13 O3 1.402739 1_555
