# generated using pymatgen
data_CaV2O4
_symmetry_space_group_name_H-M   'P 1'
_cell_length_a   6.23721338
_cell_length_b   6.38098114
_cell_length_c   8.89432075
_cell_angle_alpha   92.36614578
_cell_angle_beta   89.99505749
_cell_angle_gamma   89.97581909
_symmetry_Int_Tables_number   1
_chemical_formula_structural   CaV2O4
_chemical_formula_sum   'Ca4 V8 O16'
_cell_volume   353.68803711
_cell_formula_units_Z   4
loop_
 _symmetry_equiv_pos_site_id
 _symmetry_equiv_pos_as_xyz
  1  'x, y, z'
loop_
 _atom_site_type_symbol
 _atom_site_label
 _atom_site_symmetry_multiplicity
 _atom_site_fract_x
 _atom_site_fract_y
 _atom_site_fract_z
 _atom_site_occupancy
  Ca  Ca0  1  0.99991200  0.99671500  0.00323400  1
  Ca  Ca1  1  0.50002000  0.49621100  0.50383300  1
  Ca  Ca2  1  0.00003600  0.74951500  0.62573900  1
  Ca  Ca3  1  0.50008500  0.24869300  0.12488100  1
  V  V0  1  0.75582700  0.49908000  0.87319400  1
  V  V1  1  0.24404300  0.49890900  0.87325100  1
  V  V2  1  0.00005600  0.25289300  0.62673000  1
  V  V3  1  0.99995300  0.50986400  0.24570500  1
  V  V4  1  0.50009700  0.00922900  0.74584100  1
  V  V5  1  0.25613500  0.99880000  0.37351600  1
  V  V6  1  0.74387700  0.99876700  0.37356600  1
  V  V7  1  0.49991500  0.75266100  0.12690900  1
  O  O0  1  0.00009600  0.25527500  0.37202500  1
  O  O1  1  0.49992500  0.75489300  0.87138900  1
  O  O2  1  0.00009200  0.27592000  0.86165700  1
  O  O3  1  0.49990800  0.77566300  0.36174400  1
  O  O4  1  0.99988000  0.77936000  0.36750000  1
  O  O5  1  0.50011500  0.27882400  0.86719300  1
  O  O6  1  0.24476700  0.01980100  0.61207300  1
  O  O7  1  0.74435500  0.52043100  0.11191500  1
  O  O8  1  0.75555400  0.02017400  0.61223700  1
  O  O9  1  0.25545700  0.52038200  0.11183900  1
  O  O10  1  0.22142800  0.47330600  0.65124200  1
  O  O11  1  0.72167100  0.97318600  0.15110200  1
  O  O12  1  0.77861400  0.47355600  0.65121200  1
  O  O13  1  0.27832500  0.97346000  0.15099700  1
  O  O14  1  0.99986600  0.69718300  0.87482300  1
  O  O15  1  0.49999200  0.19725200  0.37464700  1
loop_
_geom_bond_atom_site_label_1
_geom_bond_atom_site_label_2
_geom_bond_distance
_geom_bond_site_symmetry_2
Ca0 O14 2.185706 1_554
Ca0 O11 2.186359 1_555
Ca0 O13 2.186564 1_655
Ca0 O2 2.223739 1_664
Ca1 O12 2.185050 1_555
Ca1 O10 2.185265 1_555
Ca1 O15 2.185955 1_555
Ca1 O3 2.227769 1_555
Ca2 O14 2.254049 1_455
Ca2 O12 2.257060 1_455
Ca2 O10 2.257347 1_555
Ca2 O8 2.310283 1_465
Ca2 O6 2.310594 1_565
Ca2 O4 2.312564 1_455
Ca3 O11 2.255432 1_545
Ca3 O13 2.255486 1_545
Ca3 O15 2.258985 1_555
Ca3 O5 2.307906 1_554
Ca3 O7 2.315137 1_555
Ca3 O9 2.315476 1_555
O0 V3 2.012988 1_455
O0 V2 2.266106 1_555
O0 V5 2.286573 1_545
O0 V6 2.288486 1_445
O1 V4 2.007592 1_565
O1 V7 2.273309 1_556
O1 V0 2.283055 1_555
O1 V1 2.284728 1_555
O2 V1 2.083308 1_555
O2 V0 2.084581 1_455
O2 V2 2.088616 1_555
O3 V5 2.082285 1_555
O3 V6 2.083935 1_555
O3 V7 2.087795 1_555
O4 V3 1.994211 1_555
O4 V6 2.122371 1_555
O4 V5 2.124589 1_655
O5 V4 1.992745 1_555
O5 V0 2.125477 1_555
O5 V1 2.125544 1_555
O6 V4 1.990776 1_555
O6 V5 2.121678 1_545
O6 V2 2.130938 1_555
O7 V3 1.992229 1_555
O7 V0 2.123205 1_554
O7 V7 2.126006 1_555
O8 V4 1.990559 1_555
O8 V6 2.122829 1_545
O8 V2 2.129218 1_655
O9 V3 1.992027 1_455
O9 V1 2.122047 1_554
O9 V7 2.127240 1_555
O10 V2 1.976984 1_555
O10 V1 1.979681 1_555
O11 V7 1.978935 1_555
O11 V6 1.983518 1_555
O12 V2 1.977539 1_655
O12 V0 1.979464 1_555
O13 V7 1.978518 1_555
O13 V5 1.983902 1_555
O14 V0 1.978664 1_555
O14 V1 1.979210 1_655
O15 V6 1.978760 1_545
O15 V5 1.979304 1_545
