# generated using pymatgen
data_DyMoC2
_symmetry_space_group_name_H-M   'P 1'
_cell_length_a   3.39894800
_cell_length_b   5.70464500
_cell_length_c   10.79399700
_cell_angle_alpha   90.00000000
_cell_angle_beta   90.00000000
_cell_angle_gamma   90.00000000
_symmetry_Int_Tables_number   1
_chemical_formula_structural   DyMoC2
_chemical_formula_sum   'Dy4 Mo4 C8'
_cell_volume   209.29335359
_cell_formula_units_Z   4
loop_
 _symmetry_equiv_pos_site_id
 _symmetry_equiv_pos_as_xyz
  1  'x, y, z'
loop_
 _atom_site_type_symbol
 _atom_site_label
 _atom_site_symmetry_multiplicity
 _atom_site_fract_x
 _atom_site_fract_y
 _atom_site_fract_z
 _atom_site_occupancy
  Dy  Dy0  1  0.25000000  0.08519500  0.86242700  1
  Dy  Dy1  1  0.25000000  0.58519500  0.63757300  1
  Dy  Dy2  1  0.75000000  0.91480500  0.13757300  1
  Dy  Dy3  1  0.75000000  0.41480500  0.36242700  1
  Mo  Mo0  1  0.25000000  0.40301800  0.10927700  1
  Mo  Mo1  1  0.25000000  0.90301800  0.39072300  1
  Mo  Mo2  1  0.75000000  0.59698200  0.89072300  1
  Mo  Mo3  1  0.75000000  0.09698200  0.60927700  1
  C  C0  1  0.25000000  0.15931400  0.24704700  1
  C  C1  1  0.25000000  0.65931400  0.25295300  1
  C  C2  1  0.75000000  0.84068600  0.75295300  1
  C  C3  1  0.75000000  0.34068600  0.74704700  1
  C  C4  1  0.25000000  0.72356500  0.98443100  1
  C  C5  1  0.25000000  0.22356500  0.51556900  1
  C  C6  1  0.75000000  0.27643500  0.01556900  1
  C  C7  1  0.75000000  0.77643500  0.48443100  1
loop_
_geom_bond_atom_site_label_1
_geom_bond_atom_site_label_2
_geom_bond_distance
_geom_bond_site_symmetry_2
C0 Mo0 2.035734 1_555
C0 Mo1 2.131378 1_545
C0 Dy2 2.496018 1_445
C0 Dy2 2.496018 1_545
C0 Dy3 2.561938 1_455
C0 Dy3 2.561938 1_555
C1 Mo1 2.035734 1_555
C1 Mo0 2.131378 1_555
C1 Dy3 2.496018 1_455
C1 Dy3 2.496018 1_555
C1 Dy2 2.561938 1_555
C1 Dy2 2.561938 1_455
C2 Mo2 2.035734 1_555
C2 Mo3 2.131378 1_565
C2 Dy0 2.496018 1_565
C2 Dy0 2.496018 1_665
C2 Dy1 2.561938 1_555
C2 Dy1 2.561938 1_655
C3 Mo3 2.035734 1_555
C3 Mo2 2.131378 1_555
C3 Dy1 2.496018 1_655
C3 Dy1 2.496018 1_555
C3 Dy0 2.561938 1_655
C3 Dy0 2.561938 1_555
C4 Mo2 2.105411 1_455
C4 Mo2 2.105411 1_555
C4 Mo0 2.271518 1_556
C4 Dy0 2.447469 1_565
C4 Dy2 2.609761 1_556
C4 Dy2 2.609761 1_456
C5 Mo3 2.105411 1_555
C5 Mo3 2.105411 1_455
C5 Mo1 2.271518 1_545
C5 Dy1 2.447469 1_555
C5 Dy3 2.609761 1_455
C5 Dy3 2.609761 1_555
C6 Mo0 2.105411 1_555
C6 Mo0 2.105411 1_655
C6 Mo2 2.271518 1_554
C6 Dy2 2.447469 1_545
C6 Dy0 2.609761 1_554
C6 Dy0 2.609761 1_654
C7 Mo1 2.105411 1_555
C7 Mo1 2.105411 1_655
C7 Mo3 2.271518 1_565
C7 Dy3 2.447469 1_555
C7 Dy1 2.609761 1_555
C7 Dy1 2.609761 1_655
