# generated using pymatgen
data_GdSn3
_symmetry_space_group_name_H-M   'P 1'
_cell_length_a   4.71034706
_cell_length_b   4.71034602
_cell_length_c   4.71034706
_cell_angle_alpha   90.00000000
_cell_angle_beta   90.00000000
_cell_angle_gamma   90.00000000
_symmetry_Int_Tables_number   1
_chemical_formula_structural   GdSn3
_chemical_formula_sum   'Gd1 Sn3'
_cell_volume   104.51018727
_cell_formula_units_Z   1
loop_
 _symmetry_equiv_pos_site_id
 _symmetry_equiv_pos_as_xyz
  1  'x, y, z'
loop_
 _atom_site_type_symbol
 _atom_site_label
 _atom_site_symmetry_multiplicity
 _atom_site_fract_x
 _atom_site_fract_y
 _atom_site_fract_z
 _atom_site_occupancy
  Gd  Gd0  1  -0.00000000  -0.00000000  0.00000000  1
  Sn  Sn0  1  0.50000000  0.00000000  0.50000000  1
  Sn  Sn1  1  0.00000000  0.50000000  0.50000000  1
  Sn  Sn2  1  0.50000000  0.50000000  0.00000000  1
loop_
_geom_bond_atom_site_label_1
_geom_bond_atom_site_label_2
_geom_bond_distance
_geom_bond_site_symmetry_2
Gd0 Sn2 3.330718 1_455
Gd0 Sn2 3.330718 1_545
Gd0 Sn2 3.330718 1_445
Gd0 Sn2 3.330718 1_555
Gd0 Sn1 3.330718 1_554
Gd0 Sn1 3.330718 1_544
Gd0 Sn1 3.330718 1_555
Gd0 Sn1 3.330718 1_545
Gd0 Sn0 3.330718 1_555
Gd0 Sn0 3.330718 1_455
Gd0 Sn0 3.330718 1_454
Gd0 Sn0 3.330718 1_554
Sn0 Sn1 3.330718 1_555
Sn0 Sn1 3.330718 1_545
Sn0 Sn1 3.330718 1_655
Sn0 Sn1 3.330718 1_645
Sn0 Sn2 3.330718 1_555
Sn0 Sn2 3.330718 1_545
Sn0 Sn2 3.330718 1_556
Sn0 Sn2 3.330718 1_546
Sn1 Sn2 3.330718 1_556
Sn1 Sn2 3.330718 1_455
Sn1 Sn2 3.330718 1_555
Sn1 Sn2 3.330718 1_456
