# generated using pymatgen
data_BaIn(Cu3O4)2
_symmetry_space_group_name_H-M   'P 1'
_cell_length_a   6.64229099
_cell_length_b   6.64229099
_cell_length_c   6.64229099
_cell_angle_alpha   60.00000000
_cell_angle_beta   60.00000000
_cell_angle_gamma   60.00000000
_symmetry_Int_Tables_number   1
_chemical_formula_structural   BaIn(Cu3O4)2
_chemical_formula_sum   'Ba1 In1 Cu6 O8'
_cell_volume   207.22335194
_cell_formula_units_Z   1
loop_
 _symmetry_equiv_pos_site_id
 _symmetry_equiv_pos_as_xyz
  1  'x, y, z'
loop_
 _atom_site_type_symbol
 _atom_site_label
 _atom_site_symmetry_multiplicity
 _atom_site_fract_x
 _atom_site_fract_y
 _atom_site_fract_z
 _atom_site_occupancy
  Ba  Ba0  1  0.00000000  0.00000000  0.00000000  1
  In  In0  1  0.50000000  0.50000000  0.50000000  1
  Cu  Cu0  1  0.50000000  0.50000000  0.00000000  1
  Cu  Cu1  1  0.00000000  0.50000000  0.50000000  1
  Cu  Cu2  1  0.50000000  0.00000000  0.50000000  1
  Cu  Cu3  1  0.00000000  0.00000000  0.50000000  1
  Cu  Cu4  1  0.50000000  0.00000000  0.00000000  1
  Cu  Cu5  1  0.00000000  0.50000000  0.00000000  1
  O  O0  1  0.64222500  0.64222500  0.07332400  1
  O  O1  1  0.64222500  0.07332400  0.64222500  1
  O  O2  1  0.07332400  0.64222500  0.64222500  1
  O  O3  1  0.35777500  0.92667600  0.35777500  1
  O  O4  1  0.64222500  0.64222500  0.64222500  1
  O  O5  1  0.35777500  0.35777500  0.35777500  1
  O  O6  1  0.35777500  0.35777500  0.92667600  1
  O  O7  1  0.92667600  0.35777500  0.35777500  1
loop_
_geom_bond_atom_site_label_1
_geom_bond_atom_site_label_2
_geom_bond_distance
_geom_bond_site_symmetry_2
Ba0 Cu1 3.321145 1_554
Ba0 Cu3 3.321145 1_555
Ba0 Cu2 3.321145 1_455
Ba0 Cu2 3.321145 1_554
Ba0 Cu0 3.321145 1_545
Ba0 Cu5 3.321145 1_555
Ba0 Cu1 3.321145 1_545
Ba0 Cu4 3.321145 1_555
Ba0 Cu0 3.321145 1_455
Ba0 Cu3 3.321145 1_554
Ba0 Cu4 3.321145 1_455
Ba0 Cu5 3.321145 1_545
In0 O5 2.314033 1_555
In0 O4 2.314033 1_555
In0 O2 2.314038 1_555
In0 O0 2.314038 1_555
In0 O6 2.314038 1_555
In0 O1 2.314038 1_555
In0 O7 2.314038 1_555
In0 O3 2.314038 1_555
Cu0 O6 1.958263 1_554
Cu0 O0 1.958263 1_555
Cu0 O4 1.958268 1_554
Cu0 O5 1.958268 1_555
Cu1 O7 1.958263 1_455
Cu1 O2 1.958263 1_555
Cu1 O4 1.958268 1_455
Cu1 O5 1.958268 1_555
Cu2 O3 1.958263 1_545
Cu2 O1 1.958263 1_555
Cu2 O4 1.958268 1_545
Cu2 O5 1.958268 1_555
Cu3 O2 1.958268 1_545
Cu3 O1 1.958268 1_455
Cu3 O3 1.958268 1_545
Cu3 O7 1.958268 1_455
Cu4 O1 1.958268 1_554
Cu4 O0 1.958268 1_545
Cu4 O3 1.958268 1_545
Cu4 O6 1.958268 1_554
Cu5 O2 1.958268 1_554
Cu5 O7 1.958268 1_455
Cu5 O0 1.958268 1_455
Cu5 O6 1.958268 1_554
