# generated using pymatgen
data_Rb2MoSO4
_symmetry_space_group_name_H-M   'P 1'
_cell_length_a   6.18876637
_cell_length_b   6.18876637
_cell_length_c   12.32133830
_cell_angle_alpha   75.45500668
_cell_angle_beta   75.45500668
_cell_angle_gamma   59.99999606
_symmetry_Int_Tables_number   1
_chemical_formula_structural   Rb2MoSO4
_chemical_formula_sum   'Rb4 Mo2 S2 O8'
_cell_volume   391.13064253
_cell_formula_units_Z   2
loop_
 _symmetry_equiv_pos_site_id
 _symmetry_equiv_pos_as_xyz
  1  'x, y, z'
loop_
 _atom_site_type_symbol
 _atom_site_label
 _atom_site_symmetry_multiplicity
 _atom_site_fract_x
 _atom_site_fract_y
 _atom_site_fract_z
 _atom_site_occupancy
  Rb  Rb0  1  0.35507800  0.35507800  0.93476600  1
  Rb  Rb1  1  0.64492200  0.64492200  0.06523400  1
  Rb  Rb2  1  0.22547100  0.22547100  0.32358700  1
  Rb  Rb3  1  0.77452900  0.77452900  0.67641300  1
  Mo  Mo0  1  0.06116400  0.06116400  0.81650900  1
  Mo  Mo1  1  0.93883600  0.93883600  0.18349100  1
  S  S0  1  0.12597300  0.12597300  0.62208000  1
  S  S1  1  0.87402700  0.87402700  0.37792000  1
  O  O0  1  0.35620800  0.88820300  0.86738500  1
  O  O1  1  0.88820300  0.88820300  0.86738500  1
  O  O2  1  0.88820300  0.35620800  0.86738500  1
  O  O3  1  0.64379200  0.11179700  0.13261500  1
  O  O4  1  0.11179700  0.11179700  0.13261500  1
  O  O5  1  0.11179700  0.64379200  0.13261500  1
  O  O6  1  0.44533500  0.44533500  0.66399500  1
  O  O7  1  0.55466500  0.55466500  0.33600500  1
loop_
_geom_bond_atom_site_label_1
_geom_bond_atom_site_label_2
_geom_bond_distance
_geom_bond_site_symmetry_2
Rb2 S0 3.519794 1_555
Rb2 S1 3.630069 1_445
Rb2 S1 3.630074 1_455
Rb2 S1 3.630074 1_545
Rb3 S1 3.519794 1_555
Rb3 S0 3.630069 1_665
Rb3 S0 3.630074 1_565
Rb3 S0 3.630074 1_655
Mo0 O2 1.776576 1_455
Mo0 O0 1.776576 1_545
Mo0 O1 1.776586 1_445
Mo0 S0 2.292683 1_555
Mo1 O3 1.776576 1_565
Mo1 O5 1.776576 1_655
Mo1 O4 1.776586 1_665
Mo1 S1 2.292683 1_555
O0 Rb3 2.946935 1_555
O0 Rb1 3.009358 1_556
O0 Rb0 3.196805 1_555
O0 Rb0 3.196811 1_565
O1 Rb3 2.946932 1_555
O1 Rb1 3.009354 1_556
O1 Rb0 3.196808 1_565
O1 Rb0 3.196808 1_655
O2 Rb3 2.946935 1_555
O2 Rb1 3.009358 1_556
O2 Rb0 3.196805 1_555
O2 Rb0 3.196811 1_655
O3 Rb2 2.946935 1_555
O3 Rb0 3.009358 1_554
O3 Rb1 3.196805 1_555
O3 Rb1 3.196811 1_545
O4 Rb2 2.946932 1_555
O4 Rb0 3.009354 1_554
O4 Rb1 3.196808 1_545
O4 Rb1 3.196808 1_455
O5 Rb2 2.946935 1_555
O5 Rb0 3.009358 1_554
O5 Rb1 3.196805 1_555
O5 Rb1 3.196811 1_455
O6 Rb0 3.192899 1_555
O6 Rb3 3.576085 1_545
O6 Rb3 3.576085 1_455
O6 Rb3 3.576085 1_555
O7 Rb1 3.192899 1_555
O7 Rb2 3.576085 1_655
O7 Rb2 3.576085 1_565
O7 Rb2 3.576085 1_555
