# generated using pymatgen
data_SrAgP
_symmetry_space_group_name_H-M   'P 1'
_cell_length_a   4.40534840
_cell_length_b   4.40534838
_cell_length_c   8.33441036
_cell_angle_alpha   90.00000000
_cell_angle_beta   90.00000000
_cell_angle_gamma   120.00000794
_symmetry_Int_Tables_number   1
_chemical_formula_structural   SrAgP
_chemical_formula_sum   'Sr2 Ag2 P2'
_cell_volume   140.07673041
_cell_formula_units_Z   2
loop_
 _symmetry_equiv_pos_site_id
 _symmetry_equiv_pos_as_xyz
  1  'x, y, z'
loop_
 _atom_site_type_symbol
 _atom_site_label
 _atom_site_symmetry_multiplicity
 _atom_site_fract_x
 _atom_site_fract_y
 _atom_site_fract_z
 _atom_site_occupancy
  Sr  Sr0  1  0.00000000  -0.00000000  -0.00000000  1
  Sr  Sr1  1  0.00000000  -0.00000000  0.50000000  1
  Ag  Ag0  1  0.66666700  0.33333300  0.25000000  1
  Ag  Ag1  1  0.33333300  0.66666700  0.75000000  1
  P  P0  1  0.66666700  0.33333300  0.75000000  1
  P  P1  1  0.33333300  0.66666700  0.25000000  1
loop_
_geom_bond_atom_site_label_1
_geom_bond_atom_site_label_2
_geom_bond_distance
_geom_bond_site_symmetry_2
Ag0 P1 2.543426 1_545
Ag0 P1 2.543426 1_655
Ag0 P1 2.543434 1_555
Ag0 Sr1 3.287920 1_655
Ag0 Sr0 3.287920 1_655
Ag0 Sr0 3.287923 1_665
Ag0 Sr1 3.287923 1_665
Ag0 Sr1 3.287923 1_555
Ag0 Sr0 3.287923 1_555
Ag1 P0 2.543426 1_565
Ag1 P0 2.543426 1_455
Ag1 P0 2.543434 1_555
Ag1 Sr0 3.287920 1_566
Ag1 Sr1 3.287920 1_565
Ag1 Sr1 3.287923 1_555
Ag1 Sr0 3.287923 1_556
Ag1 Sr0 3.287923 1_666
Ag1 Sr1 3.287923 1_665
P0 Sr0 3.287920 1_656
P0 Sr1 3.287920 1_655
P0 Sr0 3.287923 1_666
P0 Sr1 3.287923 1_665
P0 Sr1 3.287923 1_555
P0 Sr0 3.287923 1_556
P1 Sr0 3.287920 1_565
P1 Sr1 3.287920 1_565
P1 Sr1 3.287923 1_555
P1 Sr0 3.287923 1_555
P1 Sr1 3.287923 1_665
P1 Sr0 3.287923 1_665
