# generated using pymatgen
data_Sr2GdGaO5
_symmetry_space_group_name_H-M   'P 1'
_cell_length_a   6.77167955
_cell_length_b   6.77167955
_cell_length_c   7.41621077
_cell_angle_alpha   63.02323842
_cell_angle_beta   63.02323842
_cell_angle_gamma   90.36604423
_symmetry_Int_Tables_number   1
_chemical_formula_structural   Sr2GdGaO5
_chemical_formula_sum   'Sr4 Gd2 Ga2 O10'
_cell_volume   260.27884338
_cell_formula_units_Z   2
loop_
 _symmetry_equiv_pos_site_id
 _symmetry_equiv_pos_as_xyz
  1  'x, y, z'
loop_
 _atom_site_type_symbol
 _atom_site_label
 _atom_site_symmetry_multiplicity
 _atom_site_fract_x
 _atom_site_fract_y
 _atom_site_fract_z
 _atom_site_occupancy
  Sr  Sr0  1  0.25000000  0.25000000  0.50000000  1
  Sr  Sr1  1  0.75000000  0.75000000  0.50000000  1
  Sr  Sr2  1  0.82604700  0.67395300  0.00000000  1
  Sr  Sr3  1  0.17395300  0.32604700  0.00000000  1
  Gd  Gd0  1  0.68086600  0.18086600  0.00000000  1
  Gd  Gd1  1  0.31913400  0.81913400  0.00000000  1
  Ga  Ga0  1  0.75328600  0.25328600  0.49342800  1
  Ga  Ga1  1  0.24671400  0.74671400  0.50657200  1
  O  O0  1  0.21764800  0.99822600  0.28412600  1
  O  O1  1  0.49822600  0.71764800  0.28412600  1
  O  O2  1  0.00991900  0.50991900  0.28421600  1
  O  O3  1  0.70586500  0.20586500  0.28421600  1
  O  O4  1  0.78235200  0.00177400  0.71587400  1
  O  O5  1  0.50177400  0.28235200  0.71587400  1
  O  O6  1  0.99008100  0.49008100  0.71578400  1
  O  O7  1  0.29413500  0.79413500  0.71578400  1
  O  O8  1  0.50000000  0.50000000  0.00000000  1
  O  O9  1  0.00000000  0.00000000  0.00000000  1
loop_
_geom_bond_atom_site_label_1
_geom_bond_atom_site_label_2
_geom_bond_distance
_geom_bond_site_symmetry_2
Gd0 O3 2.268755 1_555
Gd0 O6 2.268755 1_554
Gd0 O8 2.490805 1_555
Gd0 O9 2.490805 1_655
Gd0 O5 2.719998 1_554
Gd0 O0 2.719998 1_545
Gd0 O4 2.719998 1_554
Gd0 O1 2.719998 1_545
Gd1 O7 2.268755 1_554
Gd1 O2 2.268755 1_555
Gd1 O9 2.490805 1_565
Gd1 O8 2.490805 1_555
Gd1 O0 2.719998 1_555
Gd1 O5 2.719998 1_564
Gd1 O1 2.719998 1_555
Gd1 O4 2.719998 1_564
Ga0 O5 1.846825 1_555
Ga0 O4 1.846825 1_555
Ga0 O3 1.875184 1_555
Ga0 O2 1.875184 1_655
Ga1 O0 1.846825 1_555
Ga1 O1 1.846825 1_555
Ga1 O7 1.875184 1_555
Ga1 O6 1.875184 1_455
O0 Sr3 2.405361 1_565
O0 Sr1 2.882312 1_455
O0 Sr0 2.882312 1_565
O1 Sr2 2.405361 1_555
O1 Sr0 2.882312 1_555
O1 Sr1 2.882312 1_555
O2 Sr3 2.738902 1_555
O2 Sr2 2.738902 1_455
O2 Sr1 2.853674 1_455
O2 Sr0 2.853674 1_555
O3 Sr2 2.738902 1_555
O3 Sr3 2.738902 1_655
O3 Sr1 2.853674 1_545
O3 Sr0 2.853674 1_555
O4 Sr2 2.405361 1_546
O4 Sr0 2.882312 1_655
O4 Sr1 2.882312 1_545
O5 Sr3 2.405361 1_556
O5 Sr1 2.882312 1_555
O5 Sr0 2.882312 1_555
O6 Sr2 2.738902 1_556
O6 Sr3 2.738902 1_656
O6 Sr0 2.853674 1_655
O6 Sr1 2.853674 1_555
O7 Sr3 2.738902 1_556
O7 Sr2 2.738902 1_456
O7 Sr0 2.853674 1_565
O7 Sr1 2.853674 1_555
O8 Sr2 2.495817 1_555
O8 Sr3 2.495817 1_555
O8 Sr0 2.838082 1_555
O8 Sr1 2.838082 1_554
O9 Sr3 2.495817 1_555
O9 Sr2 2.495817 1_445
O9 Sr0 2.838082 1_554
O9 Sr1 2.838082 1_445
