# generated using pymatgen
data_Fe2O3
_symmetry_space_group_name_H-M   'P 1'
_cell_length_a   8.64756113
_cell_length_b   10.93536279
_cell_length_c   10.37500232
_cell_angle_alpha   89.30778347
_cell_angle_beta   91.84781313
_cell_angle_gamma   93.81732083
_symmetry_Int_Tables_number   1
_chemical_formula_structural   Fe2O3
_chemical_formula_sum   'Fe32 O48'
_cell_volume   978.36970455
_cell_formula_units_Z   16
loop_
 _symmetry_equiv_pos_site_id
 _symmetry_equiv_pos_as_xyz
  1  'x, y, z'
loop_
 _atom_site_type_symbol
 _atom_site_label
 _atom_site_symmetry_multiplicity
 _atom_site_fract_x
 _atom_site_fract_y
 _atom_site_fract_z
 _atom_site_occupancy
  Fe  Fe0  1  0.63697200  0.93143700  0.04951600  1
  Fe  Fe1  1  0.30062200  0.92826000  0.52864100  1
  Fe  Fe2  1  0.94264300  0.75960200  0.59500500  1
  Fe  Fe3  1  0.53679400  0.17606900  0.54465500  1
  Fe  Fe4  1  0.67800600  0.38322500  0.23254100  1
  Fe  Fe5  1  0.28754000  0.42515600  0.56957500  1
  Fe  Fe6  1  0.41733500  0.19352000  0.79181000  1
  Fe  Fe7  1  0.61664800  0.59665100  0.04937800  1
  Fe  Fe8  1  0.06802700  0.04833000  0.66429400  1
  Fe  Fe9  1  0.34785900  0.42624700  0.90226500  1
  Fe  Fe10  1  0.92583700  0.08179600  0.07284900  1
  Fe  Fe11  1  0.72415900  0.99345800  0.80523900  1
  Fe  Fe12  1  0.63799700  0.53879200  0.78561800  1
  Fe  Fe13  1  0.17149900  0.19122300  0.36553400  1
  Fe  Fe14  1  0.30200300  0.47748300  0.24420200  1
  Fe  Fe15  1  0.30151000  0.96789800  0.91929000  1
  Fe  Fe16  1  0.22982200  0.20689400  0.03144600  1
  Fe  Fe17  1  0.68731100  0.47279000  0.53443200  1
  Fe  Fe18  1  0.41602100  0.68268400  0.49879700  1
  Fe  Fe19  1  0.01679300  0.43791400  0.06695100  1
  Fe  Fe20  1  0.80486300  0.79788000  0.27435900  1
  Fe  Fe21  1  0.00129000  0.50722400  0.41879500  1
  Fe  Fe22  1  0.12828200  0.70303300  0.28440900  1
  Fe  Fe23  1  0.46732800  0.09440800  0.27007500  1
  Fe  Fe24  1  0.76110300  0.29130700  0.93806900  1
  Fe  Fe25  1  0.23871600  0.66447100  0.85617600  1
  Fe  Fe26  1  0.94934700  0.75552400  0.97256600  1
  Fe  Fe27  1  0.89864800  0.26152000  0.63868700  1
  Fe  Fe28  1  0.83566000  0.06856200  0.36088700  1
  Fe  Fe29  1  0.44878000  0.78615900  0.24197700  1
  Fe  Fe30  1  0.00314700  0.51185100  0.74176700  1
  Fe  Fe31  1  0.65732200  0.88333800  0.52338600  1
  O  O0  1  0.71009500  0.29884000  0.54628100  1
  O  O1  1  0.86281900  0.36864200  0.78848400  1
  O  O2  1  0.49859400  0.53716100  0.58978200  1
  O  O3  1  0.97353000  0.26547600  0.02686600  1
  O  O4  1  0.78130600  0.47568000  0.37145300  1
  O  O5  1  0.78865100  0.97280700  0.19718700  1
  O  O6  1  0.34195100  0.08692000  0.43928200  1
  O  O7  1  0.27314400  0.04081800  0.73951400  1
  O  O8  1  0.30233200  0.65798800  0.18544700  1
  O  O9  1  0.24243200  0.49412200  0.74867300  1
  O  O10  1  0.63322800  0.21738200  0.26708000  1
  O  O11  1  0.72741600  0.11472200  0.97253300  1
  O  O12  1  0.44227500  0.59761200  0.91865200  1
  O  O13  1  0.01430400  0.15331100  0.51253800  1
  O  O14  1  0.23197600  0.27164900  0.86069400  1
  O  O15  1  0.90326400  0.11235500  0.74705000  1
  O  O16  1  0.41074900  0.13048200  0.97261100  1
  O  O17  1  0.24806000  0.39512200  0.07382000  1
  O  O18  1  0.81320200  0.58312100  0.64413200  1
  O  O19  1  0.58552500  0.10765000  0.71027500  1
  O  O20  1  0.28941400  0.81549700  0.37730600  1
  O  O21  1  0.06450700  0.50218400  0.24103200  1
  O  O22  1  0.63064600  0.04462100  0.44482400  1
  O  O23  1  0.24485000  0.57203100  0.44329200  1
  O  O24  1  0.96993700  0.75502200  0.16326800  1
  O  O25  1  0.78444600  0.86317400  0.67582800  1
  O  O26  1  0.09729800  0.89808700  0.58089600  1
  O  O27  1  0.38819900  0.27898500  0.62317600  1
  O  O28  1  0.08835600  0.68246500  0.70831000  1
  O  O29  1  0.51736600  0.91403600  0.89284900  1
  O  O30  1  0.77581400  0.43033800  0.07169700  1
  O  O31  1  0.27377200  0.35203300  0.38588900  1
  O  O32  1  0.55407100  0.36498100  0.86565700  1
  O  O33  1  0.85404300  0.89658400  0.42624000  1
  O  O34  1  0.12263400  0.04737300  0.00632600  1
  O  O35  1  0.83974700  0.90694200  0.95170200  1
  O  O36  1  0.98878500  0.15010700  0.25777600  1
  O  O37  1  0.05911200  0.56732900  0.93629700  1
  O  O38  1  0.29049800  0.17441700  0.20596400  1
  O  O39  1  0.59465200  0.74656400  0.39224200  1
  O  O40  1  0.45898600  0.94839200  0.16854900  1
  O  O41  1  0.96859200  0.68356600  0.41932600  1
  O  O42  1  0.03731100  0.40817600  0.57427200  1
  O  O43  1  0.45356800  0.82758200  0.60315200  1
  O  O44  1  0.63384300  0.75510400  0.13755000  1
  O  O45  1  0.52100400  0.49333500  0.19442700  1
  O  O46  1  0.17410600  0.81040400  0.93031500  1
  O  O47  1  0.76575400  0.64594900  0.92323900  1
loop_
_geom_bond_atom_site_label_1
_geom_bond_atom_site_label_2
_geom_bond_distance
_geom_bond_site_symmetry_2
Fe0 O29 1.902847 1_554
Fe0 O5 2.020032 1_555
Fe0 O40 2.023512 1_555
Fe0 O35 2.088127 1_554
Fe0 O44 2.122556 1_555
Fe0 O11 2.249373 1_564
Fe1 O26 1.863911 1_555
Fe1 O43 1.914780 1_555
Fe1 O6 1.974190 1_565
Fe1 O20 2.004049 1_555
Fe1 O7 2.548632 1_565
Fe2 O28 1.924375 1_655
Fe2 O26 1.959844 1_655
Fe2 O41 2.037567 1_555
Fe2 O25 2.039762 1_555
Fe2 O18 2.227683 1_555
Fe2 O33 2.428905 1_555
Fe3 O19 1.911588 1_555
Fe3 O0 1.944126 1_555
Fe3 O27 1.965616 1_555
Fe3 O22 2.010766 1_555
Fe3 O6 2.161657 1_555
Fe4 O10 1.862006 1_555
Fe4 O45 1.902908 1_555
Fe4 O4 1.931106 1_555
Fe4 O30 1.943653 1_555
Fe5 O27 1.937654 1_555
Fe5 O9 2.072051 1_555
Fe5 O31 2.072425 1_555
Fe5 O23 2.104624 1_555
Fe5 O2 2.135183 1_555
Fe5 O42 2.161544 1_555
Fe6 O27 1.990322 1_555
Fe6 O16 1.991864 1_555
Fe6 O19 1.998277 1_555
Fe6 O14 2.020143 1_555
Fe6 O7 2.082924 1_555
Fe6 O32 2.276361 1_555
Fe7 O47 1.914439 1_554
Fe7 O44 1.963811 1_555
Fe7 O12 1.995809 1_554
Fe7 O45 2.034688 1_555
Fe7 O30 2.357608 1_555
Fe8 O15 1.866458 1_455
Fe8 O26 1.901554 1_545
Fe8 O7 1.921093 1_555
Fe8 O13 1.998216 1_555
Fe9 O14 1.952557 1_555
Fe9 O9 1.972111 1_555
Fe9 O32 1.995476 1_555
Fe9 O12 2.000548 1_555
Fe9 O17 2.018401 1_556
Fe10 O34 1.918732 1_655
Fe10 O11 2.028563 1_554
Fe10 O3 2.076399 1_555
Fe10 O5 2.089314 1_545
Fe10 O36 2.109161 1_555
Fe10 O35 2.366075 1_544
Fe11 O19 2.015121 1_565
Fe11 O35 2.048525 1_555
Fe11 O15 2.055964 1_565
Fe11 O25 2.072319 1_555
Fe11 O29 2.158080 1_555
Fe11 O11 2.195291 1_565
Fe12 O47 2.097298 1_555
Fe12 O32 2.155448 1_555
Fe12 O18 2.171112 1_555
Fe12 O2 2.328476 1_555
Fe12 O12 2.345301 1_555
Fe13 O31 1.925878 1_555
Fe13 O36 1.937057 1_455
Fe13 O38 1.993974 1_555
Fe13 O6 2.046724 1_555
Fe13 O13 2.095051 1_555
Fe14 O45 1.974969 1_555
Fe14 O31 2.008054 1_555
Fe14 O17 2.020625 1_555
Fe14 O8 2.058670 1_555
Fe14 O21 2.088366 1_555
Fe14 O23 2.401096 1_555
Fe15 O46 1.985895 1_555
Fe15 O29 2.022324 1_555
Fe15 O16 2.031211 1_565
Fe15 O7 2.033596 1_565
Fe15 O34 2.061912 1_566
Fe16 O14 1.900063 1_554
Fe16 O38 1.904681 1_555
Fe16 O34 1.936545 1_555
Fe16 O16 1.940802 1_554
Fe16 O17 2.104540 1_555
Fe16 O3 2.346520 1_455
Fe17 O4 1.898626 1_555
Fe17 O2 1.926570 1_555
Fe17 O18 1.927321 1_555
Fe17 O0 1.927437 1_555
Fe18 O23 1.926188 1_555
Fe18 O43 1.933542 1_555
Fe18 O2 2.001218 1_555
Fe18 O39 2.010990 1_555
Fe18 O20 2.230538 1_555
Fe19 O3 1.945164 1_455
Fe19 O21 1.967272 1_555
Fe19 O37 1.972529 1_554
Fe19 O30 2.082157 1_455
Fe19 O17 2.082846 1_555
Fe20 O33 1.940539 1_555
Fe20 O24 1.947825 1_555
Fe20 O44 2.051635 1_555
Fe20 O5 2.076372 1_555
Fe20 O39 2.259674 1_555
Fe20 O41 2.425352 1_555
Fe21 O21 1.942881 1_555
Fe21 O4 1.958454 1_455
Fe21 O42 1.960230 1_555
Fe21 O41 1.967620 1_455
Fe21 O23 2.184948 1_555
Fe22 O24 1.937327 1_455
Fe22 O8 1.942360 1_555
Fe22 O41 1.997483 1_455
Fe22 O20 2.024064 1_555
Fe22 O21 2.275359 1_555
Fe22 O23 2.411152 1_555
Fe23 O10 1.900660 1_555
Fe23 O38 1.909111 1_555
Fe23 O40 1.919554 1_545
Fe23 O6 2.090818 1_555
Fe23 O22 2.343387 1_555
Fe24 O1 1.963334 1_555
Fe24 O11 1.963846 1_555
Fe24 O3 2.063170 1_556
Fe24 O30 2.064835 1_556
Fe24 O32 2.123542 1_555
Fe25 O46 1.904361 1_555
Fe25 O28 1.995242 1_555
Fe25 O37 2.018392 1_555
Fe25 O12 2.034612 1_555
Fe25 O9 2.185323 1_555
Fe26 O35 1.968224 1_555
Fe26 O24 1.980777 1_556
Fe26 O47 1.981762 1_555
Fe26 O46 2.055052 1_655
Fe26 O37 2.362140 1_655
Fe27 O0 1.929411 1_555
Fe27 O15 1.971740 1_555
Fe27 O1 2.001737 1_555
Fe27 O42 2.055764 1_655
Fe27 O13 2.095915 1_655
Fe28 O36 1.898439 1_555
Fe28 O22 2.000560 1_555
Fe28 O33 2.005957 1_545
Fe28 O5 2.021879 1_545
Fe28 O13 2.325677 1_655
Fe28 O10 2.625115 1_555
Fe29 O8 1.909944 1_555
Fe29 O40 1.919982 1_555
Fe29 O44 2.010800 1_555
Fe29 O39 2.034397 1_555
Fe29 O20 2.041574 1_555
Fe30 O1 1.981548 1_455
Fe30 O28 1.990519 1_555
Fe30 O9 2.089966 1_555
Fe30 O18 2.091790 1_455
Fe30 O42 2.125496 1_555
Fe30 O37 2.145483 1_555
Fe31 O25 1.915789 1_555
Fe31 O22 1.958438 1_565
Fe31 O33 2.001248 1_555
Fe31 O43 2.024841 1_555
Fe31 O39 2.067780 1_555
