# generated using pymatgen
data_RbCu2H3(SeO5)2
_symmetry_space_group_name_H-M   'P 1'
_cell_length_a   5.74614799
_cell_length_b   5.74614799
_cell_length_c   8.17394367
_cell_angle_alpha   68.06529029
_cell_angle_beta   68.06529029
_cell_angle_gamma   71.07109928
_symmetry_Int_Tables_number   1
_chemical_formula_structural   RbCu2H3(SeO5)2
_chemical_formula_sum   'Rb1 Cu2 H3 Se2 O10'
_cell_volume   226.80652631
_cell_formula_units_Z   1
loop_
 _symmetry_equiv_pos_site_id
 _symmetry_equiv_pos_as_xyz
  1  'x, y, z'
loop_
 _atom_site_type_symbol
 _atom_site_label
 _atom_site_symmetry_multiplicity
 _atom_site_fract_x
 _atom_site_fract_y
 _atom_site_fract_z
 _atom_site_occupancy
  Rb  Rb0  1  0.00000000  0.00000000  0.00000000  1
  Cu  Cu0  1  0.50000000  0.00000000  0.50000000  1
  Cu  Cu1  1  0.00000000  0.50000000  0.50000000  1
  H  H0  1  0.80557700  0.80557700  0.70151900  1
  H  H1  1  0.19442300  0.19442300  0.29848100  1
  H  H2  1  0.00000000  0.00000000  0.50000000  1
  Se  Se0  1  0.57098200  0.57098200  0.22415600  1
  Se  Se1  1  0.42901800  0.42901800  0.77584400  1
  O  O0  1  0.68730000  0.68730000  0.33065000  1
  O  O1  1  0.31270000  0.31270000  0.66935000  1
  O  O2  1  0.85090000  0.85090000  0.56633900  1
  O  O3  1  0.14910000  0.14910000  0.43366100  1
  O  O4  1  0.31987200  0.31987200  0.00139400  1
  O  O5  1  0.68012800  0.68012800  0.99860600  1
  O  O6  1  0.66472400  0.24509400  0.28529700  1
  O  O7  1  0.33527600  0.75490600  0.71470300  1
  O  O8  1  0.75490600  0.33527600  0.71470300  1
  O  O9  1  0.24509400  0.66472400  0.28529700  1
loop_
_geom_bond_atom_site_label_1
_geom_bond_atom_site_label_2
_geom_bond_distance
_geom_bond_site_symmetry_2
Cu0 O6 1.933022 1_555
Cu0 O7 1.933022 1_545
Cu0 O2 2.107749 1_545
Cu0 O3 2.107749 1_555
Cu0 O0 2.406989 1_545
Cu0 O1 2.406989 1_555
Cu1 O9 1.933022 1_555
Cu1 O8 1.933022 1_455
Cu1 O2 2.107749 1_455
Cu1 O3 2.107749 1_555
Cu1 O0 2.406989 1_455
Cu1 O1 2.406989 1_555
H0 O2 0.985189 1_555
H1 O3 0.985189 1_555
H2 O3 1.242634 1_555
H2 O2 1.242634 1_445
O0 Se0 1.676415 1_555
O0 Rb0 2.932607 1_665
O1 Se1 1.676415 1_555
O1 Rb0 2.932607 1_556
O4 Se1 1.647168 1_554
O4 Rb0 2.996663 1_555
O5 Se0 1.647168 1_556
O5 Rb0 2.996663 1_666
O6 Se0 1.701194 1_555
O6 Rb0 2.910344 1_655
O7 Se1 1.701194 1_555
O7 Rb0 2.910344 1_566
O8 Se1 1.701194 1_555
O8 Rb0 2.910344 1_656
O9 Se0 1.701194 1_555
O9 Rb0 2.910344 1_565
