# generated using pymatgen
data_Ba2Fe2CuF14
_symmetry_space_group_name_H-M   'P 1'
_cell_length_a   7.61660837
_cell_length_b   7.61660837
_cell_length_c   15.21369026
_cell_angle_alpha   88.98673482
_cell_angle_beta   88.98673482
_cell_angle_gamma   42.03736858
_symmetry_Int_Tables_number   1
_chemical_formula_structural   Ba2Fe2CuF14
_chemical_formula_sum   'Ba4 Fe4 Cu2 F28'
_cell_volume   590.88796469
_cell_formula_units_Z   2
loop_
 _symmetry_equiv_pos_site_id
 _symmetry_equiv_pos_as_xyz
  1  'x, y, z'
loop_
 _atom_site_type_symbol
 _atom_site_label
 _atom_site_symmetry_multiplicity
 _atom_site_fract_x
 _atom_site_fract_y
 _atom_site_fract_z
 _atom_site_occupancy
  Ba  Ba0  1  0.12453700  0.23736300  0.86813900  1
  Ba  Ba1  1  0.23736300  0.12453700  0.36813900  1
  Ba  Ba2  1  0.87546300  0.76263700  0.13186100  1
  Ba  Ba3  1  0.76263700  0.87546300  0.63186100  1
  Fe  Fe0  1  0.10764800  0.13700500  0.63009500  1
  Fe  Fe1  1  0.89235200  0.86299500  0.36990500  1
  Fe  Fe2  1  0.13700500  0.10764800  0.13009500  1
  Fe  Fe3  1  0.86299500  0.89235200  0.86990500  1
  Cu  Cu0  1  0.50000000  0.50000000  0.50000000  1
  Cu  Cu1  1  0.50000000  0.50000000  0.00000000  1
  F  F0  1  0.94397900  0.05798600  0.15234300  1
  F  F1  1  0.89691100  0.37091200  0.04699300  1
  F  F2  1  0.10308900  0.62908800  0.95300700  1
  F  F3  1  0.64435800  0.86351800  0.91550900  1
  F  F4  1  0.61153200  0.50658000  0.89833200  1
  F  F5  1  0.49342000  0.38846800  0.60166800  1
  F  F6  1  0.37091200  0.89691100  0.54699300  1
  F  F7  1  0.94201400  0.05602100  0.34765700  1
  F  F8  1  0.36975100  0.98967800  0.71811200  1
  F  F9  1  0.35564200  0.13648200  0.08449100  1
  F  F10  1  0.84362300  0.40581800  0.70617000  1
  F  F11  1  0.13648200  0.35564200  0.58449100  1
  F  F12  1  0.40581800  0.84362300  0.20617000  1
  F  F13  1  0.15637700  0.59418200  0.29383000  1
  F  F14  1  0.50658000  0.61153200  0.39833200  1
  F  F15  1  0.63024900  0.01032200  0.28188800  1
  F  F16  1  0.15965000  0.68552300  0.48101300  1
  F  F17  1  0.05602100  0.94201400  0.84765700  1
  F  F18  1  0.84035000  0.31447700  0.51898700  1
  F  F19  1  0.68552300  0.15965000  0.98101300  1
  F  F20  1  0.62908800  0.10308900  0.45300700  1
  F  F21  1  0.59418200  0.15637700  0.79383000  1
  F  F22  1  0.98967800  0.36975100  0.21811200  1
  F  F23  1  0.31447700  0.84035000  0.01898700  1
  F  F24  1  0.38846800  0.49342000  0.10166800  1
  F  F25  1  0.05798600  0.94397900  0.65234300  1
  F  F26  1  0.01032200  0.63024900  0.78188800  1
  F  F27  1  0.86351800  0.64435800  0.41550900  1
loop_
_geom_bond_atom_site_label_1
_geom_bond_atom_site_label_2
_geom_bond_distance
_geom_bond_site_symmetry_2
Ba0 F8 2.650401 1_545
Ba0 F17 2.684082 1_545
Ba0 F26 2.732775 1_555
Ba0 F3 2.754122 1_545
Ba0 F4 2.784167 1_455
Ba0 F10 2.879759 1_455
Ba0 F1 2.959049 1_456
Ba0 F23 3.142844 1_546
Ba0 F2 3.162360 1_555
Ba0 F3 3.280170 1_455
Ba0 F21 3.325400 1_555
Ba1 F22 2.650401 1_455
Ba1 F7 2.684082 1_455
Ba1 F15 2.732775 1_555
Ba1 F27 2.754122 1_455
Ba1 F14 2.784167 1_545
Ba1 F12 2.879759 1_545
Ba1 F6 2.959049 1_545
Ba1 F18 3.142844 1_455
Ba1 F20 3.162360 1_555
Ba1 F27 3.280170 1_545
Ba1 F13 3.325400 1_555
Ba2 F15 2.650401 1_565
Ba2 F0 2.684082 1_565
Ba2 F22 2.732775 1_555
Ba2 F9 2.754122 1_565
Ba2 F24 2.784167 1_655
Ba2 F13 2.879759 1_655
Ba2 F2 2.959049 1_654
Ba2 F19 3.142844 1_564
Ba2 F1 3.162360 1_555
Ba2 F9 3.280170 1_655
Ba2 F12 3.325400 1_555
Ba3 F26 2.650401 1_655
Ba3 F25 2.684082 1_655
Ba3 F8 2.732775 1_555
Ba3 F11 2.754122 1_655
Ba3 F5 2.784167 1_565
Ba3 F21 2.879759 1_565
Ba3 F20 2.959049 1_565
Ba3 F16 3.142844 1_655
Ba3 F6 3.162360 1_555
Ba3 F11 3.280170 1_565
Ba3 F10 3.325400 1_555
Cu0 F5 1.769351 1_555
Cu0 F14 1.769351 1_555
Cu0 F18 1.836055 1_555
Cu0 F16 1.836055 1_555
Cu1 F24 1.769351 1_555
Cu1 F4 1.769351 1_554
Cu1 F23 1.836055 1_555
Cu1 F19 1.836055 1_554
F0 Fe2 1.795292 1_655
F1 Fe2 1.873123 1_655
F2 Fe3 1.873123 1_455
F3 Fe3 1.949289 1_555
F6 Fe0 1.873123 1_565
F7 Fe1 1.795292 1_545
F8 Fe0 1.936871 1_565
F9 Fe2 1.949289 1_555
F10 Fe0 1.860397 1_655
F11 Fe0 1.949289 1_555
F12 Fe2 1.860397 1_565
F13 Fe1 1.860397 1_455
F15 Fe1 1.936871 1_545
F16 Fe1 2.186882 1_455
F17 Fe3 1.795292 1_455
F18 Fe0 2.186882 1_655
F19 Fe3 2.186882 1_545
F20 Fe1 1.873123 1_545
F21 Fe3 1.860397 1_545
F22 Fe2 1.936871 1_655
F23 Fe2 2.186882 1_565
F25 Fe0 1.795292 1_565
F26 Fe3 1.936871 1_455
F27 Fe1 1.949289 1_555
