# generated using pymatgen
data_K2MoO2F5
_symmetry_space_group_name_H-M   'P 1'
_cell_length_a   6.29214243
_cell_length_b   6.29214243
_cell_length_c   9.46953378
_cell_angle_alpha   86.00782809
_cell_angle_beta   86.00782809
_cell_angle_gamma   89.99164051
_symmetry_Int_Tables_number   1
_chemical_formula_structural   K2MoO2F5
_chemical_formula_sum   'K4 Mo2 O4 F10'
_cell_volume   373.08751147
_cell_formula_units_Z   2
loop_
 _symmetry_equiv_pos_site_id
 _symmetry_equiv_pos_as_xyz
  1  'x, y, z'
loop_
 _atom_site_type_symbol
 _atom_site_label
 _atom_site_symmetry_multiplicity
 _atom_site_fract_x
 _atom_site_fract_y
 _atom_site_fract_z
 _atom_site_occupancy
  K  K0  1  0.28497000  0.29774600  0.20180000  1
  K  K1  1  0.70225400  0.71503000  0.79820000  1
  K  K2  1  0.23405100  0.76594900  0.50000000  1
  K  K3  1  0.74650300  0.25349700  0.50000000  1
  Mo  Mo0  1  0.76549800  0.79169300  0.26533800  1
  Mo  Mo1  1  0.20830700  0.23450200  0.73466200  1
  O  O0  1  0.74847600  0.80661200  0.08305100  1
  O  O1  1  0.19338800  0.25152400  0.91694900  1
  O  O2  1  0.33654900  0.66345100  0.00000000  1
  O  O3  1  0.73772000  0.26228000  0.00000000  1
  F  F0  1  0.77977300  0.77152800  0.48400100  1
  F  F1  1  0.22847200  0.22022700  0.51599900  1
  F  F2  1  0.54599200  0.56258400  0.31439500  1
  F  F3  1  0.43741600  0.45400800  0.68560500  1
  F  F4  1  0.99062700  0.56975200  0.28029400  1
  F  F5  1  0.43024800  0.00937300  0.71970600  1
  F  F6  1  0.54129300  0.00663200  0.31110500  1
  F  F7  1  0.99336800  0.45870700  0.68889500  1
  F  F8  1  0.98443000  0.01643600  0.27747000  1
  F  F9  1  0.98356400  0.01557000  0.72253000  1
loop_
_geom_bond_atom_site_label_1
_geom_bond_atom_site_label_2
_geom_bond_distance
_geom_bond_site_symmetry_2
K0 O1 2.831671 1_554
K0 O2 2.890254 1_555
K0 O3 3.334397 1_555
K1 O0 2.831671 1_556
K1 O2 2.890254 1_556
K1 O3 3.334397 1_556
Mo0 O0 1.732955 1_555
Mo1 O1 1.732955 1_555
F0 Mo0 2.073889 1_555
F0 K2 2.872988 1_655
F0 K1 2.977836 1_555
F0 K3 3.053345 1_565
F0 K3 3.258573 1_555
F1 Mo1 2.073889 1_555
F1 K2 2.872988 1_545
F1 K0 2.977836 1_555
F1 K3 3.053345 1_455
F1 K3 3.258573 1_555
F2 Mo0 2.004889 1_555
F2 K0 2.665178 1_555
F2 K3 2.880155 1_555
F2 K2 2.900187 1_555
F3 Mo1 2.004889 1_555
F3 K1 2.665178 1_555
F3 K3 2.880155 1_555
F3 K2 2.900187 1_555
F4 Mo0 1.994152 1_555
F4 K0 2.626089 1_655
F4 K2 3.000064 1_655
F4 K3 3.102782 1_555
F5 Mo1 1.994152 1_555
F5 K1 2.626089 1_545
F5 K2 3.000064 1_545
F5 K3 3.102782 1_555
F6 Mo0 2.000742 1_545
F6 K0 2.644878 1_555
F6 K3 2.826424 1_555
F6 K2 2.893533 1_545
F7 Mo1 2.000742 1_655
F7 K1 2.644878 1_555
F7 K3 2.826424 1_555
F7 K2 2.893533 1_655
F8 Mo0 1.988917 1_545
F8 K0 2.618824 1_655
F8 K3 2.984029 1_555
F8 K2 3.064187 1_645
F9 Mo1 1.988917 1_655
F9 K1 2.618824 1_545
F9 K3 2.984029 1_555
F9 K2 3.064187 1_645
