# generated using pymatgen
data_PrSnAu
_symmetry_space_group_name_H-M   'P 1'
_cell_length_a   4.74705009
_cell_length_b   4.74705009
_cell_length_c   8.04979100
_cell_angle_alpha   90.00000000
_cell_angle_beta   90.00000000
_cell_angle_gamma   120.00000129
_symmetry_Int_Tables_number   1
_chemical_formula_structural   PrSnAu
_chemical_formula_sum   'Pr2 Sn2 Au2'
_cell_volume   157.09517991
_cell_formula_units_Z   2
loop_
 _symmetry_equiv_pos_site_id
 _symmetry_equiv_pos_as_xyz
  1  'x, y, z'
loop_
 _atom_site_type_symbol
 _atom_site_label
 _atom_site_symmetry_multiplicity
 _atom_site_fract_x
 _atom_site_fract_y
 _atom_site_fract_z
 _atom_site_occupancy
  Pr  Pr0  1  0.00000000  0.00000000  0.50000000  1
  Pr  Pr1  1  0.00000000  0.00000000  0.00000000  1
  Sn  Sn0  1  0.33333300  0.66666700  0.25000000  1
  Sn  Sn1  1  0.66666700  0.33333300  0.75000000  1
  Au  Au0  1  0.33333300  0.66666700  0.75000000  1
  Au  Au1  1  0.66666700  0.33333300  0.25000000  1
loop_
_geom_bond_atom_site_label_1
_geom_bond_atom_site_label_2
_geom_bond_distance
_geom_bond_site_symmetry_2
Pr0 Sn1 3.400210 1_455
Pr0 Sn0 3.400210 1_545
Pr0 Sn1 3.400213 1_445
Pr0 Sn0 3.400213 1_445
Pr0 Sn0 3.400213 1_555
Pr0 Sn1 3.400213 1_555
Pr1 Sn1 3.400210 1_454
Pr1 Sn0 3.400210 1_545
Pr1 Sn1 3.400213 1_554
Pr1 Sn0 3.400213 1_445
Pr1 Sn0 3.400213 1_555
Pr1 Sn1 3.400213 1_444
Au0 Sn1 2.740708 1_455
Au0 Sn1 2.740708 1_565
Au0 Sn1 2.740716 1_555
Au0 Pr0 3.400210 1_565
Au0 Pr1 3.400210 1_566
Au0 Pr0 3.400213 1_555
Au0 Pr0 3.400213 1_665
Au0 Pr1 3.400213 1_556
Au0 Pr1 3.400213 1_666
Au1 Sn0 2.740708 1_545
Au1 Sn0 2.740708 1_655
Au1 Sn0 2.740716 1_555
Au1 Pr0 3.400210 1_655
Au1 Pr1 3.400210 1_655
Au1 Pr0 3.400213 1_555
Au1 Pr0 3.400213 1_665
Au1 Pr1 3.400213 1_555
Au1 Pr1 3.400213 1_665
