# generated using pymatgen
data_Ba6LiNb2Ir(ClO6)2
_symmetry_space_group_name_H-M   'P 1'
_cell_length_a   5.95681000
_cell_length_b   5.95678211
_cell_length_c   15.55815301
_cell_angle_alpha   90.00147652
_cell_angle_beta   90.00236306
_cell_angle_gamma   120.00016597
_symmetry_Int_Tables_number   1
_chemical_formula_structural   Ba6LiNb2Ir(ClO6)2
_chemical_formula_sum   'Ba6 Li1 Nb2 Ir1 Cl2 O12'
_cell_volume   478.09412294
_cell_formula_units_Z   1
loop_
 _symmetry_equiv_pos_site_id
 _symmetry_equiv_pos_as_xyz
  1  'x, y, z'
loop_
 _atom_site_type_symbol
 _atom_site_label
 _atom_site_symmetry_multiplicity
 _atom_site_fract_x
 _atom_site_fract_y
 _atom_site_fract_z
 _atom_site_occupancy
  Ba  Ba0  1  0.33337000  0.66670400  0.36328800  1
  Ba  Ba1  1  0.33333000  0.66665900  0.78901500  1
  Ba  Ba2  1  0.66663600  0.33330400  0.63556500  1
  Ba  Ba3  1  0.66669000  0.33335300  0.89112200  1
  Ba  Ba4  1  0.33333400  0.66666700  0.06647300  1
  Ba  Ba5  1  0.66668000  0.33335100  0.23275700  1
  Li  Li0  1  0.66665300  0.33331900  0.06318100  1
  Nb  Nb0  1  0.00000600  0.00000100  0.81794300  1
  Nb  Nb1  1  0.99999600  0.99999900  0.18349400  1
  Ir  Ir0  1  0.00000500  0.00000200  0.00090400  1
  Cl  Cl0  1  0.66667300  0.33333500  0.42881600  1
  Cl  Cl1  1  0.33333100  0.66666700  0.58078100  1
  O  O0  1  0.15254900  0.30509200  0.91307800  1
  O  O1  1  0.32836200  0.16417700  0.75786400  1
  O  O2  1  0.16117300  0.32236500  0.24527200  1
  O  O3  1  0.83580900  0.67162300  0.75786000  1
  O  O4  1  0.83581700  0.16418300  0.75786300  1
  O  O5  1  0.84193200  0.68386400  0.08833200  1
  O  O6  1  0.16117000  0.83880900  0.24526900  1
  O  O7  1  0.31612600  0.15806300  0.08834700  1
  O  O8  1  0.84193100  0.15806300  0.08834000  1
  O  O9  1  0.69491600  0.84745900  0.91307000  1
  O  O10  1  0.67762600  0.83881500  0.24525900  1
  O  O11  1  0.15255200  0.84745700  0.91307100  1
loop_
_geom_bond_atom_site_label_1
_geom_bond_atom_site_label_2
_geom_bond_distance
_geom_bond_site_symmetry_2
Ba0 O6 2.554649 1_555
Ba0 O2 2.554675 1_555
Ba0 O10 2.554676 1_555
Ba0 Cl1 3.383789 1_555
Ba0 Cl0 3.586843 1_565
Ba0 Cl0 3.587105 1_555
Ba0 Cl0 3.587298 1_455
Ba1 O9 2.684056 1_555
Ba1 O11 2.684127 1_555
Ba1 O0 2.684227 1_555
Ba1 O4 3.017612 1_455
Ba1 O1 3.017650 1_555
Ba1 O3 3.017696 1_455
Ba1 O1 3.017698 1_565
Ba1 O3 3.017700 1_555
Ba1 O4 3.017741 1_565
Ba1 Cl1 3.239736 1_555
Ba2 O3 2.581839 1_555
Ba2 O4 2.581878 1_555
Ba2 O1 2.581883 1_555
Ba2 Cl0 3.216633 1_555
Ba2 Cl1 3.542997 1_545
Ba2 Cl1 3.543205 1_555
Ba2 Cl1 3.543399 1_655
Ba3 Li0 2.676920 1_556
Ba3 O1 2.710007 1_555
Ba3 O4 2.710012 1_555
Ba3 O3 2.710012 1_555
Ba3 O11 3.001317 1_655
Ba3 O9 3.001384 1_555
Ba3 O0 3.001398 1_655
Ba3 O9 3.001486 1_545
Ba3 O0 3.001550 1_555
Ba3 O11 3.001565 1_545
Ba4 O8 2.999028 1_565
Ba4 O5 2.999053 1_555
Ba4 O7 2.999077 1_565
Ba4 O5 2.999087 1_455
Ba4 O7 2.999094 1_555
Ba4 O8 2.999114 1_455
Ba4 O0 3.028913 1_554
Ba4 O11 3.029061 1_554
Ba4 O9 3.029209 1_554
Ba4 O10 3.300174 1_555
Ba4 O6 3.300451 1_555
Ba4 O2 3.300541 1_555
Ba5 Li0 2.638289 1_555
Ba5 O7 2.884053 1_555
Ba5 O8 2.884190 1_555
Ba5 O5 2.884261 1_555
Ba5 O6 2.985114 1_655
Ba5 O2 2.985210 1_655
Ba5 O10 2.985211 1_555
Ba5 O10 2.985328 1_545
Ba5 O2 2.985392 1_555
Ba5 O6 2.985449 1_545
Ba5 Cl0 3.050316 1_555
Li0 O8 1.850190 1_555
Li0 O5 1.850193 1_555
Li0 O7 1.850205 1_555
Nb0 O1 1.934736 1_555
Nb0 O4 1.934753 1_455
Nb0 O3 1.934764 1_445
Nb0 O11 2.160441 1_545
Nb0 O0 2.160466 1_555
Nb0 O9 2.160507 1_445
Nb1 O2 1.920727 1_665
Nb1 O6 1.920739 1_655
Nb1 O10 1.920747 1_555
Nb1 O8 2.202544 1_565
Nb1 O7 2.202553 1_665
Nb1 O5 2.202596 1_555
Ir0 O9 2.084282 1_444
Ir0 O0 2.084318 1_554
Ir0 O11 2.084357 1_544
Ir0 O7 2.123679 1_555
Ir0 O5 2.123713 1_445
Ir0 O8 2.123740 1_455
