# generated using pymatgen
data_Mg6VW
_symmetry_space_group_name_H-M   'P 1'
_cell_length_a   4.73536500
_cell_length_b   5.97251900
_cell_length_c   10.97090800
_cell_angle_alpha   90.00000000
_cell_angle_beta   90.00000000
_cell_angle_gamma   90.00000000
_symmetry_Int_Tables_number   1
_chemical_formula_structural   Mg6VW
_chemical_formula_sum   'Mg12 V2 W2'
_cell_volume   310.27985016
_cell_formula_units_Z   2
loop_
 _symmetry_equiv_pos_site_id
 _symmetry_equiv_pos_as_xyz
  1  'x, y, z'
loop_
 _atom_site_type_symbol
 _atom_site_label
 _atom_site_symmetry_multiplicity
 _atom_site_fract_x
 _atom_site_fract_y
 _atom_site_fract_z
 _atom_site_occupancy
  Mg  Mg0  1  0.00000000  0.73901400  0.07878800  1
  Mg  Mg1  1  0.00000000  0.26098600  0.07878800  1
  Mg  Mg2  1  0.00000000  0.00000000  0.33015200  1
  Mg  Mg3  1  0.50000000  0.25861500  0.42274000  1
  Mg  Mg4  1  0.50000000  0.74138500  0.42274000  1
  Mg  Mg5  1  0.50000000  0.00000000  0.16957900  1
  Mg  Mg6  1  0.00000000  0.23901400  0.57878800  1
  Mg  Mg7  1  0.00000000  0.76098600  0.57878800  1
  Mg  Mg8  1  0.00000000  0.50000000  0.83015200  1
  Mg  Mg9  1  0.50000000  0.75861500  0.92274000  1
  Mg  Mg10  1  0.50000000  0.24138500  0.92274000  1
  Mg  Mg11  1  0.50000000  0.50000000  0.66957900  1
  V  V0  1  0.00000000  0.50000000  0.30434000  1
  V  V1  1  0.00000000  0.00000000  0.80434000  1
  W  W0  1  0.50000000  0.50000000  0.19287300  1
  W  W1  1  0.50000000  0.00000000  0.69287300  1
loop_
_geom_bond_atom_site_label_1
_geom_bond_atom_site_label_2
_geom_bond_distance
_geom_bond_site_symmetry_2
Mg0 Mg1 2.855031 1_555
Mg0 V0 2.856747 1_555
Mg0 Mg9 2.924129 1_554
Mg0 Mg9 2.924129 1_454
Mg0 Mg5 3.004619 1_465
Mg0 Mg5 3.004619 1_565
Mg0 W0 3.034842 1_455
Mg0 W0 3.034842 1_555
Mg0 Mg8 3.078716 1_554
Mg0 Mg1 3.117488 1_565
Mg0 Mg2 3.167735 1_565
Mg0 V1 3.390496 1_564
Mg1 V0 2.856747 1_555
Mg1 Mg10 2.924129 1_554
Mg1 Mg10 2.924129 1_454
Mg1 Mg5 3.004619 1_455
Mg1 Mg5 3.004619 1_555
Mg1 W0 3.034842 1_455
Mg1 W0 3.034842 1_555
Mg1 Mg8 3.078716 1_554
Mg1 Mg2 3.167735 1_555
Mg1 V1 3.390496 1_554
Mg2 Mg5 2.951147 1_555
Mg2 Mg5 2.951147 1_455
Mg2 V0 2.999656 1_555
Mg2 V0 2.999656 1_545
Mg2 Mg4 3.003907 1_445
Mg2 Mg3 3.003907 1_455
Mg2 Mg4 3.003907 1_545
Mg2 Mg3 3.003907 1_555
Mg2 Mg6 3.078716 1_555
Mg2 Mg7 3.078716 1_545
Mg3 Mg4 2.883353 1_555
Mg3 W0 2.904851 1_555
Mg3 Mg6 2.924129 1_555
Mg3 Mg6 2.924129 1_655
Mg3 V0 3.061313 1_655
Mg3 V0 3.061313 1_555
Mg3 Mg4 3.089166 1_545
Mg3 Mg5 3.178006 1_555
Mg3 W1 3.341959 1_555
Mg4 W0 2.904851 1_555
Mg4 Mg7 2.924129 1_555
Mg4 Mg7 2.924129 1_655
Mg4 V0 3.061313 1_555
Mg4 V0 3.061313 1_655
Mg4 Mg5 3.178006 1_565
Mg4 W1 3.341959 1_565
Mg5 W0 2.997174 1_545
Mg5 W0 2.997174 1_555
Mg5 Mg9 3.067891 1_544
Mg6 Mg7 2.855031 1_545
Mg6 V1 2.856747 1_555
Mg6 W1 3.034842 1_555
Mg6 W1 3.034842 1_455
Mg6 Mg7 3.117488 1_555
Mg6 Mg8 3.167735 1_555
Mg6 V0 3.390496 1_555
Mg7 V1 2.856747 1_565
Mg7 W1 3.034842 1_565
Mg7 W1 3.034842 1_465
Mg7 Mg8 3.167735 1_555
Mg7 V0 3.390496 1_555
Mg8 V1 2.999656 1_565
Mg8 V1 2.999656 1_555
Mg8 Mg9 3.003907 1_555
Mg8 Mg9 3.003907 1_455
Mg9 W1 2.904851 1_565
Mg9 V1 3.061313 1_565
Mg9 V1 3.061313 1_665
Mg9 W0 3.341959 1_556
Mg10 Mg9 2.883353 1_545
Mg10 W1 2.904851 1_555
Mg10 Mg8 3.003907 1_655
Mg10 Mg8 3.003907 1_555
Mg10 V1 3.061313 1_655
Mg10 V1 3.061313 1_555
Mg10 Mg5 3.067891 1_556
Mg10 Mg9 3.089166 1_555
Mg10 Mg11 3.178006 1_555
Mg10 W0 3.341959 1_556
Mg11 Mg8 2.951147 1_555
Mg11 Mg8 2.951147 1_655
Mg11 W1 2.997174 1_565
Mg11 W1 2.997174 1_555
Mg11 Mg7 3.004619 1_555
Mg11 Mg7 3.004619 1_655
Mg11 Mg6 3.004619 1_655
Mg11 Mg6 3.004619 1_555
Mg11 Mg3 3.067891 1_555
Mg11 Mg4 3.067891 1_555
Mg11 Mg9 3.178006 1_555
V0 W0 2.664843 1_455
V0 W0 2.664843 1_555
V1 W1 2.664843 1_555
V1 W1 2.664843 1_455
