# generated using pymatgen
data_NaWO2
_symmetry_space_group_name_H-M   'P 1'
_cell_length_a   7.27750280
_cell_length_b   7.27750280
_cell_length_c   7.27750280
_cell_angle_alpha   128.57106375
_cell_angle_beta   128.57106375
_cell_angle_gamma   75.70173631
_symmetry_Int_Tables_number   1
_chemical_formula_structural   NaWO2
_chemical_formula_sum   'Na4 W4 O8'
_cell_volume   229.17781175
_cell_formula_units_Z   4
loop_
 _symmetry_equiv_pos_site_id
 _symmetry_equiv_pos_as_xyz
  1  'x, y, z'
loop_
 _atom_site_type_symbol
 _atom_site_label
 _atom_site_symmetry_multiplicity
 _atom_site_fract_x
 _atom_site_fract_y
 _atom_site_fract_z
 _atom_site_occupancy
  Na  Na0  1  0.87500000  0.62500000  0.25000000  1
  Na  Na1  1  0.37500000  0.62500000  0.75000000  1
  Na  Na2  1  0.37500000  0.62500000  0.25000000  1
  Na  Na3  1  0.37500000  0.12500000  0.75000000  1
  W  W0  1  0.37500000  0.12500000  0.25000000  1
  W  W1  1  0.87500000  0.12500000  0.75000000  1
  W  W2  1  0.87500000  0.12500000  0.25000000  1
  W  W3  1  0.87500000  0.62500000  0.75000000  1
  O  O0  1  0.17257600  0.36602000  0.21625000  1
  O  O1  1  0.14977000  0.95632700  0.78375000  1
  O  O2  1  0.11602000  0.39977000  0.69344300  1
  O  O3  1  0.57742400  0.88398000  0.28375000  1
  O  O4  1  0.70632700  0.42257600  0.30655700  1
  O  O5  1  0.60023000  0.29367300  0.71625000  1
  O  O6  1  0.63398000  0.85023000  0.80655700  1
  O  O7  1  0.04367300  0.82742400  0.19344300  1
loop_
_geom_bond_atom_site_label_1
_geom_bond_atom_site_label_2
_geom_bond_distance
_geom_bond_site_symmetry_2
Na0 O5 2.432611 1_554
Na0 O1 2.432611 1_655
Na0 O4 2.475005 1_555
Na0 O7 2.475005 1_655
Na0 O3 2.524354 1_555
Na0 O0 2.524354 1_655
Na1 O3 2.432610 1_556
Na1 O0 2.432610 1_555
Na1 O2 2.474999 1_555
Na1 O6 2.474999 1_555
Na1 O5 2.524360 1_555
Na1 O1 2.524360 1_555
Na2 O7 2.432615 1_555
Na2 O4 2.432615 1_555
Na2 O3 2.475004 1_555
Na2 O0 2.475004 1_555
Na2 O6 2.524360 1_555
Na2 O2 2.524360 1_554
Na3 O6 2.432611 1_545
Na3 O2 2.432611 1_555
Na3 O1 2.474999 1_545
Na3 O5 2.474999 1_555
Na3 O4 2.524359 1_556
Na3 O7 2.524359 1_545
O0 W0 2.028989 1_555
O0 W1 2.138123 1_454
O1 W1 2.028986 1_465
O1 W0 2.138125 1_566
O2 W2 2.028986 1_455
O2 W3 2.138125 1_455
O3 W0 2.028989 1_565
O3 W1 2.138123 1_565
O4 W3 2.028985 1_555
O4 W2 2.138120 1_555
O5 W1 2.028986 1_555
O5 W0 2.138125 1_555
O6 W2 2.028986 1_566
O6 W3 2.138125 1_555
O7 W3 2.028985 1_454
O7 W2 2.138120 1_465
