# generated using pymatgen
data_MgSi
_symmetry_space_group_name_H-M   'P 1'
_cell_length_a   6.13060281
_cell_length_b   6.13060281
_cell_length_c   11.06620499
_cell_angle_alpha   75.41640985
_cell_angle_beta   75.41640985
_cell_angle_gamma   35.48475235
_symmetry_Int_Tables_number   1
_chemical_formula_structural   MgSi
_chemical_formula_sum   'Mg6 Si6'
_cell_volume   232.84358628
_cell_formula_units_Z   6
loop_
 _symmetry_equiv_pos_site_id
 _symmetry_equiv_pos_as_xyz
  1  'x, y, z'
loop_
 _atom_site_type_symbol
 _atom_site_label
 _atom_site_symmetry_multiplicity
 _atom_site_fract_x
 _atom_site_fract_y
 _atom_site_fract_z
 _atom_site_occupancy
  Mg  Mg0  1  0.29920700  0.29920700  0.85900900  1
  Mg  Mg1  1  0.84965600  0.84965600  0.41040800  1
  Mg  Mg2  1  0.42651300  0.42651300  0.16606400  1
  Mg  Mg3  1  0.70079300  0.70079300  0.14099100  1
  Mg  Mg4  1  0.15034400  0.15034400  0.58959200  1
  Mg  Mg5  1  0.57348700  0.57348700  0.83393600  1
  Si  Si0  1  0.91052700  0.91052700  0.97394300  1
  Si  Si1  1  0.18909600  0.18909600  0.33836300  1
  Si  Si2  1  0.81090400  0.81090400  0.66163700  1
  Si  Si3  1  0.45207200  0.45207200  0.61422300  1
  Si  Si4  1  0.08947300  0.08947300  0.02605700  1
  Si  Si5  1  0.54792800  0.54792800  0.38577700  1
loop_
_geom_bond_atom_site_label_1
_geom_bond_atom_site_label_2
_geom_bond_distance
_geom_bond_site_symmetry_2
Mg0 Si4 2.649960 1_556
Mg0 Si0 2.769869 1_545
Mg0 Si0 2.769869 1_455
Mg0 Si3 2.822741 1_555
Mg0 Si2 2.849864 1_545
Mg0 Si2 2.849864 1_455
Mg1 Si2 2.696074 1_555
Mg1 Si1 2.903791 1_565
Mg1 Si1 2.903791 1_655
Mg1 Si5 2.931221 1_655
Mg1 Si5 2.931221 1_565
Mg2 Si4 2.820173 1_565
Mg2 Si4 2.820173 1_655
Mg2 Si0 2.873162 1_544
Mg2 Si0 2.873162 1_454
Mg2 Si1 2.920183 1_555
Mg2 Si5 3.121671 1_555
Mg3 Si0 2.649960 1_554
Mg3 Si4 2.769869 1_655
Mg3 Si4 2.769869 1_565
Mg3 Si5 2.822741 1_555
Mg3 Si1 2.849864 1_655
Mg3 Si1 2.849864 1_565
Mg4 Si1 2.696074 1_555
Mg4 Si2 2.903791 1_545
Mg4 Si2 2.903791 1_455
Mg4 Si3 2.931221 1_545
Mg4 Si3 2.931221 1_455
Mg5 Si0 2.820173 1_455
Mg5 Si0 2.820173 1_545
Mg5 Si4 2.873162 1_656
Mg5 Si4 2.873162 1_566
Mg5 Si2 2.920183 1_555
Mg5 Si3 3.121671 1_555
Si0 Si4 2.310148 1_666
Si1 Si5 2.454787 1_455
Si1 Si5 2.454787 1_545
Si2 Si3 2.454787 1_655
Si2 Si3 2.454787 1_565
Si3 Si5 2.479466 1_555
