# generated using pymatgen
data_PrNdCo14B
_symmetry_space_group_name_H-M   'P 1'
_cell_length_a   8.63256500
_cell_length_b   8.63256500
_cell_length_c   11.80018900
_cell_angle_alpha   90.00000000
_cell_angle_beta   90.00000000
_cell_angle_gamma   90.00000000
_symmetry_Int_Tables_number   1
_chemical_formula_structural   PrNdCo14B
_chemical_formula_sum   'Pr4 Nd4 Co56 B4'
_cell_volume   879.36399056
_cell_formula_units_Z   4
loop_
 _symmetry_equiv_pos_site_id
 _symmetry_equiv_pos_as_xyz
  1  'x, y, z'
loop_
 _atom_site_type_symbol
 _atom_site_label
 _atom_site_symmetry_multiplicity
 _atom_site_fract_x
 _atom_site_fract_y
 _atom_site_fract_z
 _atom_site_occupancy
  Pr  Pr0  1  0.22579100  0.77420900  0.50000000  1
  Pr  Pr1  1  0.77420900  0.22579100  0.50000000  1
  Pr  Pr2  1  0.27420900  0.27420900  0.00000000  1
  Pr  Pr3  1  0.72579100  0.72579100  0.00000000  1
  Nd  Nd0  1  0.64485400  0.64485400  0.50000000  1
  Nd  Nd1  1  0.35514600  0.35514600  0.50000000  1
  Nd  Nd2  1  0.85514600  0.14485400  0.00000000  1
  Nd  Nd3  1  0.14485400  0.85514600  0.00000000  1
  Co  Co0  1  0.40142100  0.59857900  0.29414500  1
  Co  Co1  1  0.59857900  0.40142100  0.29414500  1
  Co  Co2  1  0.09857900  0.09857900  0.79414500  1
  Co  Co3  1  0.90142100  0.90142100  0.79414500  1
  Co  Co4  1  0.59857900  0.40142100  0.70585500  1
  Co  Co5  1  0.40142100  0.59857900  0.70585500  1
  Co  Co6  1  0.90142100  0.90142100  0.20585500  1
  Co  Co7  1  0.09857900  0.09857900  0.20585500  1
  Co  Co8  1  0.18199600  0.81800400  0.25296400  1
  Co  Co9  1  0.81800400  0.18199600  0.25296400  1
  Co  Co10  1  0.31800400  0.31800400  0.75296400  1
  Co  Co11  1  0.68199600  0.68199600  0.75296400  1
  Co  Co12  1  0.81800400  0.18199600  0.74703600  1
  Co  Co13  1  0.18199600  0.81800400  0.74703600  1
  Co  Co14  1  0.68199600  0.68199600  0.24703600  1
  Co  Co15  1  0.31800400  0.31800400  0.24703600  1
  Co  Co16  1  0.00000000  0.50000000  0.50000000  1
  Co  Co17  1  0.50000000  0.00000000  0.00000000  1
  Co  Co18  1  0.50000000  0.00000000  0.50000000  1
  Co  Co19  1  0.00000000  0.50000000  0.00000000  1
  Co  Co20  1  0.13946600  0.53625100  0.32051500  1
  Co  Co21  1  0.86053400  0.46374900  0.32051500  1
  Co  Co22  1  0.36053400  0.03625100  0.82051500  1
  Co  Co23  1  0.63946600  0.96374900  0.82051500  1
  Co  Co24  1  0.86053400  0.46374900  0.67948500  1
  Co  Co25  1  0.13946600  0.53625100  0.67948500  1
  Co  Co26  1  0.63946600  0.96374900  0.17948500  1
  Co  Co27  1  0.36053400  0.03625100  0.17948500  1
  Co  Co28  1  0.53625100  0.13946600  0.32051500  1
  Co  Co29  1  0.46374900  0.86053400  0.32051500  1
  Co  Co30  1  0.03625100  0.36053400  0.82051500  1
  Co  Co31  1  0.96374900  0.63946600  0.82051500  1
  Co  Co32  1  0.46374900  0.86053400  0.67948500  1
  Co  Co33  1  0.53625100  0.13946600  0.67948500  1
  Co  Co34  1  0.96374900  0.63946600  0.17948500  1
  Co  Co35  1  0.03625100  0.36053400  0.17948500  1
  Co  Co36  1  0.93022800  0.72407500  0.37293000  1
  Co  Co37  1  0.06977200  0.27592500  0.37293000  1
  Co  Co38  1  0.56977200  0.22407500  0.87293000  1
  Co  Co39  1  0.43022800  0.77592500  0.87293000  1
  Co  Co40  1  0.06977200  0.27592500  0.62707000  1
  Co  Co41  1  0.93022800  0.72407500  0.62707000  1
  Co  Co42  1  0.43022800  0.77592500  0.12707000  1
  Co  Co43  1  0.56977200  0.22407500  0.12707000  1
  Co  Co44  1  0.72407500  0.93022800  0.37293000  1
  Co  Co45  1  0.27592500  0.06977200  0.37293000  1
  Co  Co46  1  0.22407500  0.56977200  0.87293000  1
  Co  Co47  1  0.77592500  0.43022800  0.87293000  1
  Co  Co48  1  0.27592500  0.06977200  0.62707000  1
  Co  Co49  1  0.72407500  0.93022800  0.62707000  1
  Co  Co50  1  0.77592500  0.43022800  0.12707000  1
  Co  Co51  1  0.22407500  0.56977200  0.12707000  1
  Co  Co52  1  0.50000000  0.50000000  0.11614400  1
  Co  Co53  1  0.00000000  0.00000000  0.61614400  1
  Co  Co54  1  0.50000000  0.50000000  0.88385600  1
  Co  Co55  1  0.00000000  0.00000000  0.38385600  1
  B  B0  1  0.87761500  0.87761500  0.50000000  1
  B  B1  1  0.12238500  0.12238500  0.50000000  1
  B  B2  1  0.62238500  0.37761500  0.00000000  1
  B  B3  1  0.37761500  0.62238500  0.00000000  1
loop_
_geom_bond_atom_site_label_1
_geom_bond_atom_site_label_2
_geom_bond_distance
_geom_bond_site_symmetry_2
Co0 Co29 2.345208 1_555
Co0 Co20 2.345208 1_555
Co0 Co1 2.406962 1_555
Co0 Co52 2.420793 1_555
Co0 Co51 2.508491 1_555
Co0 Co42 2.508491 1_555
Co0 Co14 2.587286 1_555
Co0 Co15 2.587286 1_555
Co0 Co8 2.722523 1_555
Co0 Nd0 3.236717 1_555
Co0 Nd1 3.236717 1_555
Co0 Pr0 3.240063 1_555
Co1 Co21 2.345208 1_555
Co1 Co28 2.345208 1_555
Co1 Co52 2.420793 1_555
Co1 Co43 2.508491 1_555
Co1 Co50 2.508491 1_555
Co1 Co14 2.587286 1_555
Co1 Co15 2.587286 1_555
Co1 Co9 2.722523 1_555
Co1 Nd0 3.236717 1_555
Co1 Nd1 3.236717 1_555
Co1 Pr1 3.240063 1_555
Co2 Co30 2.345208 1_555
Co2 Co22 2.345208 1_555
Co2 Co3 2.406962 1_445
Co2 Co53 2.420793 1_555
Co2 Co48 2.508491 1_555
Co2 Co40 2.508491 1_555
Co2 Nd2 3.236717 1_456
Co2 Nd3 3.236717 1_546
Co2 Pr2 3.240063 1_556
Co3 Co31 2.345208 1_555
Co3 Co53 2.420793 1_665
Co3 Co49 2.508491 1_555
Co3 Co41 2.508491 1_555
Co3 Nd3 3.236717 1_656
Co3 Nd2 3.236717 1_566
Co3 Pr3 3.240063 1_556
Co4 Co5 2.406962 1_555
Co4 Co54 2.420793 1_555
Co4 Co47 2.508491 1_555
Co4 Nd0 3.236717 1_555
Co4 Nd1 3.236717 1_555
Co4 Pr1 3.240063 1_555
Co5 Co54 2.420793 1_555
Co5 Nd0 3.236717 1_555
Co5 Nd1 3.236717 1_555
Co5 Pr0 3.240063 1_555
Co6 Co7 2.406962 1_665
Co6 Co9 2.587286 1_565
Co6 Co8 2.587286 1_655
Co6 Nd3 3.236717 1_655
Co6 Nd2 3.236717 1_565
Co6 Pr3 3.240063 1_555
Co7 Co8 2.587286 1_545
Co7 Co9 2.587286 1_455
Co7 Nd2 3.236717 1_455
Co7 Nd3 3.236717 1_545
Co7 Pr2 3.240063 1_555
Co8 Pr0 2.963698 1_555
Co8 Nd3 3.019267 1_555
Co9 Pr1 2.963698 1_555
Co9 Nd2 3.019267 1_555
Co10 Co33 2.583951 1_555
Co10 Co25 2.583951 1_555
Co10 Co22 2.585736 1_555
Co10 Co30 2.585736 1_555
Co10 Co5 2.587286 1_555
Co10 Co4 2.587286 1_555
Co10 Co48 2.632643 1_555
Co10 Co40 2.632643 1_555
Co10 Co54 2.705974 1_555
Co10 Co38 2.717562 1_555
Co10 Co46 2.717562 1_555
Co10 Co2 2.722523 1_555
Co10 Pr2 2.963698 1_556
Co10 Nd1 3.019267 1_555
Co11 Co24 2.583951 1_555
Co11 Co32 2.583951 1_555
Co11 Co31 2.585736 1_555
Co11 Co23 2.585736 1_555
Co11 Co4 2.587286 1_555
Co11 Co5 2.587286 1_555
Co11 Co49 2.632643 1_555
Co11 Co41 2.632643 1_555
Co11 Co54 2.705974 1_555
Co11 Co39 2.717562 1_555
Co11 Co47 2.717562 1_555
Co11 Co3 2.722523 1_555
Co11 Pr3 2.963698 1_556
Co11 Nd0 3.019267 1_555
Co12 Co30 2.583951 1_655
Co12 Co23 2.583951 1_545
Co12 Co24 2.585736 1_555
Co12 Co33 2.585736 1_555
Co12 Co2 2.587286 1_655
Co12 Co3 2.587286 1_545
Co12 Co38 2.632643 1_555
Co12 Co47 2.632643 1_555
Co12 Co53 2.705974 1_655
Co12 Co40 2.717562 1_655
Co12 Co49 2.717562 1_545
Co12 Co4 2.722523 1_555
Co12 Pr1 2.963698 1_555
Co12 Nd2 3.019267 1_556
Co13 Co22 2.583951 1_565
Co13 Co31 2.583951 1_455
Co13 Co32 2.585736 1_555
Co13 Co25 2.585736 1_555
Co13 Co2 2.587286 1_565
Co13 Co3 2.587286 1_455
Co13 Co39 2.632643 1_555
Co13 Co46 2.632643 1_555
Co13 Co53 2.705974 1_565
Co13 Co48 2.717562 1_565
Co13 Co41 2.717562 1_455
Co13 Co5 2.722523 1_555
Co13 Pr0 2.963698 1_555
Co13 Nd3 3.019267 1_556
Co14 Co21 2.583951 1_555
Co14 Co29 2.583951 1_555
Co14 Co26 2.585736 1_555
Co14 Co34 2.585736 1_555
Co14 Co36 2.632643 1_555
Co14 Co44 2.632643 1_555
Co14 Co52 2.705974 1_555
Co14 Co42 2.717562 1_555
Co14 Co50 2.717562 1_555
Co14 Co6 2.722523 1_555
Co14 Pr3 2.963698 1_555
Co14 Nd0 3.019267 1_555
Co15 Co28 2.583951 1_555
Co15 Co20 2.583951 1_555
Co15 Co27 2.585736 1_555
Co15 Co35 2.585736 1_555
Co15 Co45 2.632643 1_555
Co15 Co37 2.632643 1_555
Co15 Co52 2.705974 1_555
Co15 Co43 2.717562 1_555
Co15 Co51 2.717562 1_555
Co15 Co7 2.722523 1_555
Co15 Pr2 2.963698 1_555
Co15 Nd1 3.019267 1_555
Co16 Co20 2.456250 1_555
Co16 Co25 2.456250 1_555
Co16 Co24 2.456250 1_455
Co16 Co21 2.456250 1_455
Co16 Co41 2.520478 1_455
Co16 Co36 2.520478 1_455
Co16 Co37 2.520478 1_555
Co16 Co40 2.520478 1_555
Co16 Pr0 3.066349 1_555
Co16 Pr1 3.066349 1_455
Co16 Nd1 3.311029 1_555
Co16 Nd0 3.311029 1_455
Co17 Co26 2.456250 1_545
Co17 Co23 2.456250 1_544
Co17 Co22 2.456250 1_554
Co17 Co27 2.456250 1_555
Co17 Co38 2.520478 1_554
Co17 Co39 2.520478 1_544
Co17 Co43 2.520478 1_555
Co17 Co42 2.520478 1_545
Co17 Pr2 3.066349 1_555
Co17 Pr3 3.066349 1_545
Co17 Nd2 3.311029 1_555
Co17 Nd3 3.311029 1_545
Co18 Co28 2.456250 1_555
Co18 Co33 2.456250 1_555
Co18 Co32 2.456250 1_545
Co18 Co29 2.456250 1_545
Co18 Co49 2.520478 1_545
Co18 Co44 2.520478 1_545
Co18 Co45 2.520478 1_555
Co18 Co48 2.520478 1_555
Co18 Pr1 3.066349 1_555
Co18 Pr0 3.066349 1_545
Co18 Nd1 3.311029 1_555
Co18 Nd0 3.311029 1_545
Co19 Co34 2.456250 1_455
Co19 Co31 2.456250 1_454
Co19 Co35 2.456250 1_555
Co19 Co30 2.456250 1_554
Co19 Co47 2.520478 1_454
Co19 Co46 2.520478 1_554
Co19 Co51 2.520478 1_555
Co19 Co50 2.520478 1_455
Co19 Pr3 3.066349 1_455
Co19 Pr2 3.066349 1_555
Co19 Nd3 3.311029 1_555
Co19 Nd2 3.311029 1_455
Co20 Co37 2.407237 1_555
Co20 Co51 2.414099 1_555
Co20 Co35 2.421641 1_555
Co20 Co34 2.421641 1_455
Co20 Co21 2.487911 1_455
Co20 Co36 2.504810 1_455
Co20 Co8 2.585736 1_555
Co20 Pr0 3.043150 1_555
Co20 Nd1 3.224365 1_555
Co21 Co36 2.407237 1_555
Co21 Co50 2.414099 1_555
Co21 Co35 2.421641 1_655
Co21 Co34 2.421641 1_555
Co21 Co37 2.504810 1_655
Co21 Co9 2.585736 1_555
Co21 Pr1 3.043150 1_555
Co21 Nd0 3.224365 1_555
Co22 Co39 2.407237 1_545
Co22 Co48 2.414099 1_555
Co22 Co33 2.421641 1_555
Co22 Co32 2.421641 1_545
Co22 Co23 2.487911 1_545
Co22 Co38 2.504810 1_555
Co22 Pr2 3.043150 1_556
Co22 Nd3 3.224365 1_546
Co23 Co3 2.345208 1_555
Co23 Co38 2.407237 1_565
Co23 Co49 2.414099 1_555
Co23 Co33 2.421641 1_565
Co23 Co32 2.421641 1_555
Co23 Co39 2.504810 1_555
Co23 Pr3 3.043150 1_556
Co23 Nd2 3.224365 1_566
Co24 Co4 2.345208 1_555
Co24 Co41 2.407237 1_555
Co24 Co47 2.414099 1_555
Co24 Co30 2.421641 1_655
Co24 Co31 2.421641 1_555
Co24 Co25 2.487911 1_655
Co24 Co40 2.504810 1_655
Co24 Pr1 3.043150 1_555
Co24 Nd0 3.224365 1_555
Co25 Co5 2.345208 1_555
Co25 Co40 2.407237 1_555
Co25 Co46 2.414099 1_555
Co25 Co30 2.421641 1_555
Co25 Co31 2.421641 1_455
Co25 Co41 2.504810 1_455
Co25 Pr0 3.043150 1_555
Co25 Nd1 3.224365 1_555
Co26 Co6 2.345208 1_555
Co26 Co43 2.407237 1_565
Co26 Co44 2.414099 1_555
Co26 Co28 2.421641 1_565
Co26 Co29 2.421641 1_555
Co26 Co27 2.487911 1_565
Co26 Co42 2.504810 1_555
Co26 Co9 2.583951 1_565
Co26 Pr3 3.043150 1_555
Co26 Nd2 3.224365 1_565
Co27 Co7 2.345208 1_555
Co27 Co42 2.407237 1_545
Co27 Co45 2.414099 1_555
Co27 Co28 2.421641 1_555
Co27 Co29 2.421641 1_545
Co27 Co43 2.504810 1_555
Co27 Co8 2.583951 1_545
Co27 Pr2 3.043150 1_555
Co27 Nd3 3.224365 1_545
Co28 Co45 2.407237 1_555
Co28 Co43 2.414099 1_555
Co28 Co29 2.487911 1_545
Co28 Co44 2.504810 1_545
Co28 Co9 2.585736 1_555
Co28 Pr1 3.043150 1_555
Co28 Nd1 3.224365 1_555
Co29 Co44 2.407237 1_555
Co29 Co42 2.414099 1_555
Co29 Co45 2.504810 1_565
Co29 Co8 2.585736 1_555
Co29 Pr0 3.043150 1_555
Co29 Nd0 3.224365 1_555
Co30 Co47 2.407237 1_455
Co30 Co40 2.414099 1_555
Co30 Co31 2.487911 1_455
Co30 Co46 2.504810 1_555
Co30 Pr2 3.043150 1_556
Co30 Nd2 3.224365 1_456
Co31 Co46 2.407237 1_655
Co31 Co41 2.414099 1_555
Co31 Co47 2.504810 1_555
Co31 Pr3 3.043150 1_556
Co31 Nd3 3.224365 1_656
Co32 Co5 2.345208 1_555
Co32 Co49 2.407237 1_555
Co32 Co39 2.414099 1_555
Co32 Co33 2.487911 1_565
Co32 Co48 2.504810 1_565
Co32 Pr0 3.043150 1_555
Co32 Nd0 3.224365 1_555
Co33 Co4 2.345208 1_555
Co33 Co48 2.407237 1_555
Co33 Co38 2.414099 1_555
Co33 Co49 2.504810 1_545
Co33 Pr1 3.043150 1_555
Co33 Nd1 3.224365 1_555
Co34 Co6 2.345208 1_555
Co34 Co51 2.407237 1_655
Co34 Co36 2.414099 1_555
Co34 Co35 2.487911 1_655
Co34 Co50 2.504810 1_555
Co34 Co8 2.583951 1_655
Co34 Pr3 3.043150 1_555
Co34 Nd3 3.224365 1_655
Co35 Co7 2.345208 1_555
Co35 Co50 2.407237 1_455
Co35 Co37 2.414099 1_555
Co35 Co51 2.504810 1_555
Co35 Co9 2.583951 1_455
Co35 Pr2 3.043150 1_555
Co35 Nd2 3.224365 1_455
Co36 Co6 2.508491 1_555
Co36 Co8 2.717562 1_655
Co36 Nd0 2.963937 1_555
Co36 Pr0 2.990926 1_655
Co37 Co7 2.508491 1_555
Co37 Co9 2.717562 1_455
Co37 Nd1 2.963937 1_555
Co37 Pr1 2.990926 1_455
Co38 Co4 2.508491 1_555
Co38 Nd2 2.963937 1_556
Co38 Pr2 2.990926 1_556
Co39 Co5 2.508491 1_555
Co39 Nd3 2.963937 1_556
Co39 Pr3 2.990926 1_556
Co40 Nd1 2.963937 1_555
Co40 Pr1 2.990926 1_455
Co41 Nd0 2.963937 1_555
Co41 Pr0 2.990926 1_655
Co42 Co8 2.632643 1_555
Co42 Nd3 2.963937 1_555
Co42 Pr3 2.990926 1_555
Co43 Co9 2.632643 1_555
Co43 Nd2 2.963937 1_555
Co43 Pr2 2.990926 1_555
Co44 Co6 2.508491 1_555
Co44 Co9 2.717562 1_565
Co44 Nd0 2.963937 1_555
Co44 Pr1 2.990926 1_565
Co45 Co7 2.508491 1_555
Co45 Co8 2.717562 1_545
Co45 Nd1 2.963937 1_555
Co45 Pr0 2.990926 1_545
Co46 Co5 2.508491 1_555
Co46 Nd3 2.963937 1_556
Co46 Pr2 2.990926 1_556
Co47 Nd2 2.963937 1_556
Co47 Pr3 2.990926 1_556
Co48 Nd1 2.963937 1_555
Co48 Pr0 2.990926 1_545
Co49 Nd0 2.963937 1_555
Co49 Pr1 2.990926 1_565
Co50 Co9 2.632643 1_555
Co50 Nd2 2.963937 1_555
Co50 Pr3 2.990926 1_555
Co51 Co8 2.632643 1_555
Co51 Nd3 2.963937 1_555
Co51 Pr2 2.990926 1_555
Co52 Pr3 3.078432 1_555
Co52 Pr2 3.078432 1_555
Co53 Pr1 3.078432 1_455
Co53 Pr0 3.078432 1_545
Co54 Pr3 3.078432 1_556
Co54 Pr2 3.078432 1_556
Co55 Co7 2.420793 1_555
Co55 Co6 2.420793 1_445
Co55 Co8 2.705974 1_545
Co55 Co9 2.705974 1_455
Co55 Pr1 3.078432 1_455
Co55 Pr0 3.078432 1_545
B0 Co53 2.027486 1_665
B0 Co55 2.027486 1_665
B0 Co44 2.052178 1_555
B0 Co36 2.052178 1_555
B0 Co41 2.052178 1_555
B0 Co49 2.052178 1_555
B0 Nd0 2.841614 1_555
B0 Pr0 3.135408 1_655
B0 Pr1 3.135408 1_565
B1 Co53 2.027486 1_555
B1 Co55 2.027486 1_555
B1 Co45 2.052178 1_555
B1 Co37 2.052178 1_555
B1 Co40 2.052178 1_555
B1 Co48 2.052178 1_555
B1 Nd1 2.841614 1_555
B1 Pr0 3.135408 1_545
B1 Pr1 3.135408 1_455
B2 Co52 2.027486 1_555
B2 Co54 2.027486 1_554
B2 Co38 2.052178 1_554
B2 Co47 2.052178 1_554
B2 Co43 2.052178 1_555
B2 Co50 2.052178 1_555
B2 Nd2 2.841614 1_555
B2 Pr2 3.135408 1_555
B2 Pr3 3.135408 1_555
B3 Co54 2.027486 1_554
B3 Co52 2.027486 1_555
B3 Co46 2.052178 1_554
B3 Co39 2.052178 1_554
B3 Co42 2.052178 1_555
B3 Co51 2.052178 1_555
B3 Nd3 2.841614 1_555
B3 Pr2 3.135408 1_555
B3 Pr3 3.135408 1_555
