# generated using pymatgen
data_Tb12Al7Si
_symmetry_space_group_name_H-M   'P 1'
_cell_length_a   11.29285410
_cell_length_b   11.29285410
_cell_length_c   11.29285410
_cell_angle_alpha   117.48469641
_cell_angle_beta   117.48469641
_cell_angle_gamma   94.41480409
_symmetry_Int_Tables_number   1
_chemical_formula_structural   Tb12Al7Si
_chemical_formula_sum   'Tb24 Al14 Si2'
_cell_volume   1053.68011594
_cell_formula_units_Z   2
loop_
 _symmetry_equiv_pos_site_id
 _symmetry_equiv_pos_as_xyz
  1  'x, y, z'
loop_
 _atom_site_type_symbol
 _atom_site_label
 _atom_site_symmetry_multiplicity
 _atom_site_fract_x
 _atom_site_fract_y
 _atom_site_fract_z
 _atom_site_occupancy
  Tb  Tb0  1  0.14796600  0.64796600  0.50000000  1
  Tb  Tb1  1  0.85203400  0.35203400  0.50000000  1
  Tb  Tb2  1  0.64796600  0.14796600  0.50000000  1
  Tb  Tb3  1  0.35203400  0.85203400  0.50000000  1
  Tb  Tb4  1  0.83618300  0.70083600  0.26425100  1
  Tb  Tb5  1  0.16381700  0.29916400  0.73574900  1
  Tb  Tb6  1  0.43658500  0.57193200  0.73574900  1
  Tb  Tb7  1  0.70083600  0.43658500  0.86465300  1
  Tb  Tb8  1  0.06341500  0.79916400  0.13534700  1
  Tb  Tb9  1  0.56341500  0.42806800  0.26425100  1
  Tb  Tb10  1  0.29916400  0.56341500  0.13534700  1
  Tb  Tb11  1  0.93658500  0.20083600  0.86465300  1
  Tb  Tb12  1  0.57193200  0.83618300  0.13534700  1
  Tb  Tb13  1  0.66381700  0.92806800  0.86465300  1
  Tb  Tb14  1  0.42806800  0.16381700  0.86465300  1
  Tb  Tb15  1  0.33618300  0.07193200  0.13534700  1
  Tb  Tb16  1  0.92806800  0.06341500  0.26425100  1
  Tb  Tb17  1  0.07193200  0.93658500  0.73574900  1
  Tb  Tb18  1  0.79916400  0.66381700  0.73574900  1
  Tb  Tb19  1  0.20083600  0.33618300  0.26425100  1
  Tb  Tb20  1  0.17008400  0.67008400  0.84016800  1
  Tb  Tb21  1  0.82991600  0.32991600  0.15983200  1
  Tb  Tb22  1  0.67008400  0.82991600  0.50000000  1
  Tb  Tb23  1  0.32991600  0.17008400  0.50000000  1
  Al  Al0  1  0.61765800  0.11765800  0.73531600  1
  Al  Al1  1  0.38234200  0.88234200  0.26468400  1
  Al  Al2  1  0.11765800  0.38234200  0.50000000  1
  Al  Al3  1  0.88234200  0.61765800  0.50000000  1
  Al  Al4  1  0.50000000  0.50000000  0.00000000  1
  Al  Al5  1  0.00000000  0.00000000  0.00000000  1
  Al  Al6  1  0.38234100  0.88234100  0.85699700  1
  Al  Al7  1  0.61765900  0.11765900  0.14300300  1
  Al  Al8  1  0.02534500  0.52534500  0.14300300  1
  Al  Al9  1  0.88234100  0.02534500  0.50000000  1
  Al  Al10  1  0.47465500  0.61765900  0.50000000  1
  Al  Al11  1  0.97465500  0.47465500  0.85699700  1
  Al  Al12  1  0.11765900  0.97465500  0.50000000  1
  Al  Al13  1  0.52534500  0.38234100  0.50000000  1
  Si  Si0  1  0.75000000  0.75000000  0.00000000  1
  Si  Si1  1  0.25000000  0.25000000  0.00000000  1
loop_
_geom_bond_atom_site_label_1
_geom_bond_atom_site_label_2
_geom_bond_distance
_geom_bond_site_symmetry_2
Al0 Tb2 2.992825 1_555
Al0 Tb3 2.992825 1_545
Al0 Tb11 3.056868 1_555
Al0 Tb7 3.056868 1_555
Al0 Tb13 3.056868 1_545
Al0 Tb14 3.056868 1_555
Al0 Tb22 3.427690 1_545
Al0 Tb23 3.427690 1_555
Al0 Tb21 3.517920 1_556
Al1 Tb3 2.992825 1_555
Al1 Tb2 2.992825 1_565
Al1 Tb15 3.056868 1_565
Al1 Tb12 3.056868 1_555
Al1 Tb10 3.056868 1_555
Al1 Tb8 3.056868 1_555
Al1 Tb22 3.427690 1_555
Al1 Tb23 3.427690 1_565
Al1 Tb20 3.517920 1_554
Al2 Tb0 2.992825 1_555
Al2 Tb1 2.992825 1_455
Al2 Tb5 3.056868 1_555
Al2 Tb16 3.056868 1_455
Al2 Tb6 3.056868 1_555
Al2 Tb19 3.056868 1_555
Al2 Tb20 3.427690 1_555
Al2 Tb21 3.427690 1_455
Al2 Tb23 3.517920 1_555
Al3 Tb1 2.992825 1_555
Al3 Tb0 2.992825 1_655
Al3 Tb17 3.056868 1_655
Al3 Tb9 3.056868 1_555
Al3 Tb18 3.056868 1_555
Al3 Tb4 3.056868 1_555
Al3 Tb21 3.427690 1_555
Al3 Tb20 3.427690 1_655
Al3 Tb22 3.517920 1_555
Al4 Tb6 3.229913 1_554
Al4 Tb12 3.229913 1_555
Al4 Tb7 3.229913 1_554
Al4 Tb9 3.229913 1_555
Al4 Tb5 3.229913 1_554
Al4 Tb10 3.229913 1_555
Al4 Tb14 3.229913 1_554
Al4 Tb4 3.229913 1_555
Al5 Tb19 3.229913 1_555
Al5 Tb11 3.229913 1_454
Al5 Tb18 3.229913 1_444
Al5 Tb15 3.229913 1_555
Al5 Tb17 3.229913 1_544
Al5 Tb8 3.229913 1_545
Al5 Tb13 3.229913 1_444
Al5 Tb16 3.229913 1_455
Al6 Al7 2.761101 1_566
Al6 Tb0 3.080121 1_555
Al6 Tb20 3.130770 1_555
Al6 Tb14 3.135360 1_565
Al6 Tb13 3.135360 1_555
Al6 Tb15 3.195099 1_566
Al6 Tb12 3.195099 1_556
Al6 Tb17 3.348495 1_555
Al6 Tb6 3.348495 1_555
Al6 Tb3 3.731244 1_555
Al7 Tb1 3.080121 1_555
Al7 Tb21 3.130770 1_555
Al7 Tb15 3.135360 1_555
Al7 Tb12 3.135360 1_545
Al7 Tb14 3.195099 1_554
Al7 Tb13 3.195099 1_544
Al7 Tb9 3.348495 1_555
Al7 Tb16 3.348495 1_555
Al7 Tb2 3.731244 1_555
Al8 Tb0 3.080126 1_555
Al8 Tb21 3.130785 1_455
Al8 Tb10 3.135348 1_555
Al8 Tb8 3.135348 1_555
Al8 Tb11 3.195104 1_454
Al8 Tb7 3.195104 1_454
Al8 Tb19 3.348500 1_555
Al8 Tb4 3.348500 1_455
Al8 Tb3 3.731235 1_555
Al9 Tb2 3.080116 1_555
Al9 Tb22 3.130777 1_545
Al9 Tb5 3.135354 1_655
Al9 Tb16 3.135354 1_555
Al9 Tb17 3.195108 1_645
Al9 Tb4 3.195108 1_545
Al9 Tb11 3.348495 1_555
Al9 Tb12 3.348495 1_545
Al9 Tb1 3.731233 1_555
Al10 Al13 2.761107 1_555
Al10 Tb3 3.080116 1_555
Al10 Tb22 3.130777 1_555
Al10 Tb6 3.135354 1_555
Al10 Tb19 3.135354 1_555
Al10 Tb18 3.195108 1_555
Al10 Tb9 3.195108 1_555
Al10 Tb13 3.348495 1_555
Al10 Tb10 3.348495 1_555
Al10 Tb0 3.731233 1_555
Al11 Al8 2.761085 1_656
Al11 Tb1 3.080126 1_555
Al11 Tb20 3.130785 1_655
Al11 Tb7 3.135348 1_555
Al11 Tb11 3.135348 1_555
Al11 Tb10 3.195104 1_656
Al11 Tb8 3.195104 1_656
Al11 Tb5 3.348500 1_655
Al11 Tb18 3.348500 1_555
Al11 Tb2 3.731235 1_555
Al12 Al9 2.761107 1_465
Al12 Tb3 3.080116 1_555
Al12 Tb23 3.130777 1_565
Al12 Tb4 3.135354 1_455
Al12 Tb17 3.135354 1_555
Al12 Tb16 3.195108 1_465
Al12 Tb5 3.195108 1_565
Al12 Tb8 3.348495 1_555
Al12 Tb14 3.348495 1_565
Al12 Tb0 3.731233 1_555
Al13 Tb2 3.080116 1_555
Al13 Tb23 3.130777 1_555
Al13 Tb9 3.135354 1_555
Al13 Tb18 3.135354 1_555
Al13 Tb19 3.195108 1_555
Al13 Tb6 3.195108 1_555
Al13 Tb7 3.348495 1_555
Al13 Tb15 3.348495 1_555
Al13 Tb1 3.731233 1_555
Si0 Tb7 3.015345 1_554
Si0 Tb4 3.015345 1_555
Si0 Tb13 3.015345 1_554
Si0 Tb18 3.015345 1_554
Si0 Tb8 3.015345 1_655
Si0 Tb12 3.015345 1_555
Si0 Tb6 3.015345 1_554
Si0 Tb16 3.015345 1_565
Si1 Tb14 3.015345 1_554
Si1 Tb5 3.015345 1_554
Si1 Tb11 3.015345 1_454
Si1 Tb10 3.015345 1_555
Si1 Tb15 3.015345 1_555
Si1 Tb9 3.015345 1_555
Si1 Tb19 3.015345 1_555
Si1 Tb17 3.015345 1_544
