# generated using pymatgen
data_NdAg3
_symmetry_space_group_name_H-M   'P 1'
_cell_length_a   6.52728688
_cell_length_b   6.52728688
_cell_length_c   4.79614312
_cell_angle_alpha   90.00000000
_cell_angle_beta   90.00000000
_cell_angle_gamma   120.00000404
_symmetry_Int_Tables_number   1
_chemical_formula_structural   NdAg3
_chemical_formula_sum   'Nd2 Ag6'
_cell_volume   176.96531341
_cell_formula_units_Z   2
loop_
 _symmetry_equiv_pos_site_id
 _symmetry_equiv_pos_as_xyz
  1  'x, y, z'
loop_
 _atom_site_type_symbol
 _atom_site_label
 _atom_site_symmetry_multiplicity
 _atom_site_fract_x
 _atom_site_fract_y
 _atom_site_fract_z
 _atom_site_occupancy
  Nd  Nd0  1  0.66666700  0.33333300  0.25000000  1
  Nd  Nd1  1  0.33333300  0.66666700  0.75000000  1
  Ag  Ag0  1  0.85171825  0.14828175  0.75000000  1
  Ag  Ag1  1  0.29656350  0.14828175  0.75000000  1
  Ag  Ag2  1  0.85171825  0.70343650  0.75000000  1
  Ag  Ag3  1  0.14828175  0.85171825  0.25000000  1
  Ag  Ag4  1  0.70343650  0.85171825  0.25000000  1
  Ag  Ag5  1  0.14828175  0.29656350  0.25000000  1
loop_
_geom_bond_atom_site_label_1
_geom_bond_atom_site_label_2
_geom_bond_distance
_geom_bond_site_symmetry_2
Ag0 Ag2 2.903633 1_545
Ag0 Ag1 2.903633 1_655
Ag0 Ag4 2.925937 1_545
Ag0 Ag4 2.925937 1_546
Ag0 Ag5 2.925937 1_655
Ag0 Ag5 2.925937 1_656
Ag0 Nd0 3.182403 1_555
Ag0 Nd0 3.182403 1_556
Ag0 Nd1 3.270256 1_545
Ag0 Nd1 3.270256 1_655
Ag1 Ag2 2.903632 1_445
Ag1 Ag3 2.925937 1_545
Ag1 Ag3 2.925937 1_546
Ag1 Ag5 2.925937 1_555
Ag1 Ag5 2.925937 1_556
Ag1 Nd0 3.182407 1_555
Ag1 Nd0 3.182407 1_556
Ag1 Nd1 3.270252 1_545
Ag1 Nd1 3.270259 1_555
Ag2 Ag3 2.925937 1_655
Ag2 Ag3 2.925937 1_656
Ag2 Ag4 2.925937 1_555
Ag2 Ag4 2.925937 1_556
Ag2 Nd0 3.182407 1_555
Ag2 Nd0 3.182407 1_556
Ag2 Nd1 3.270252 1_655
Ag2 Nd1 3.270259 1_555
Ag3 Ag5 2.903633 1_565
Ag3 Ag4 2.903633 1_455
Ag3 Nd1 3.182403 1_555
Ag3 Nd1 3.182403 1_554
Ag3 Nd0 3.270256 1_455
Ag3 Nd0 3.270256 1_565
Ag4 Ag5 2.903632 1_665
Ag4 Nd1 3.182407 1_555
Ag4 Nd1 3.182407 1_554
Ag4 Nd0 3.270252 1_565
Ag4 Nd0 3.270259 1_555
Ag5 Nd1 3.182407 1_554
Ag5 Nd1 3.182407 1_555
Ag5 Nd0 3.270252 1_455
Ag5 Nd0 3.270259 1_555
