# generated using pymatgen
data_Mg4Si3
_symmetry_space_group_name_H-M   'P 1'
_cell_length_a   5.01457400
_cell_length_b   7.25794630
_cell_length_c   7.77089457
_cell_angle_alpha   97.52455805
_cell_angle_beta   97.41347250
_cell_angle_gamma   105.38330458
_symmetry_Int_Tables_number   1
_chemical_formula_structural   Mg4Si3
_chemical_formula_sum   'Mg8 Si6'
_cell_volume   266.34730840
_cell_formula_units_Z   2
loop_
 _symmetry_equiv_pos_site_id
 _symmetry_equiv_pos_as_xyz
  1  'x, y, z'
loop_
 _atom_site_type_symbol
 _atom_site_label
 _atom_site_symmetry_multiplicity
 _atom_site_fract_x
 _atom_site_fract_y
 _atom_site_fract_z
 _atom_site_occupancy
  Mg  Mg0  1  0.29803500  0.24605300  0.59920200  1
  Mg  Mg1  1  0.03820800  0.91383000  0.88725200  1
  Mg  Mg2  1  0.23157200  0.33901200  0.98820400  1
  Mg  Mg3  1  0.84866200  0.59465900  0.10516800  1
  Mg  Mg4  1  0.47466700  0.83121100  0.19909500  1
  Mg  Mg5  1  0.89985200  0.46949000  0.70538700  1
  Mg  Mg6  1  0.13721700  0.81288300  0.50572400  1
  Mg  Mg7  1  0.65051200  0.25623600  0.30214200  1
  Si  Si0  1  0.61557600  0.13965800  0.89706900  1
  Si  Si1  1  0.74569700  0.05982600  0.60838700  1
  Si  Si2  1  0.44388400  0.68037500  0.83588600  1
  Si  Si3  1  0.21566100  0.46064600  0.32281700  1
  Si  Si4  1  0.05647300  0.02101800  0.24440000  1
  Si  Si5  1  0.59401600  0.67499200  0.54927700  1
loop_
_geom_bond_atom_site_label_1
_geom_bond_atom_site_label_2
_geom_bond_distance
_geom_bond_site_symmetry_2
Mg0 Si1 2.755636 1_455
Mg0 Si3 2.863181 1_555
Mg0 Si1 2.909462 1_555
Mg0 Si4 2.940374 1_555
Mg0 Si0 2.942618 1_555
Mg0 Mg6 2.994634 1_545
Mg0 Si5 3.171584 1_555
Mg1 Si4 2.765385 1_566
Mg1 Si0 2.909870 1_565
Mg1 Si1 2.928505 1_465
Mg1 Si2 2.957891 1_455
Mg1 Si2 3.004971 1_555
Mg1 Si0 3.005951 1_465
Mg1 Mg6 3.094732 1_555
Mg1 Si5 3.180191 1_455
Mg2 Si3 2.652676 1_556
Mg2 Si0 2.804429 1_555
Mg2 Si2 2.892535 1_555
Mg2 Si0 2.988742 1_455
Mg3 Si3 2.787622 1_655
Mg3 Si2 2.966602 1_554
Mg3 Si4 2.992279 1_665
Mg3 Mg6 3.259099 1_655
Mg4 Si4 2.830044 1_665
Mg4 Si4 2.831194 1_565
Mg4 Si2 2.859590 1_554
Mg4 Si3 2.998504 1_555
Mg4 Mg6 3.092389 1_555
Mg4 Si5 3.129960 1_555
Mg5 Si5 2.693643 1_555
Mg5 Si2 2.734550 1_655
Mg5 Si1 2.837179 1_555
Mg5 Si0 3.106916 1_555
Mg5 Mg6 3.154560 1_655
Mg6 Si5 2.723266 1_455
Mg6 Si5 2.732797 1_555
Mg6 Si4 2.735971 1_565
Mg6 Si3 2.904635 1_555
Mg6 Si1 3.042187 1_565
Mg6 Si1 3.098385 1_465
Mg6 Si2 3.207040 1_555
Mg7 Si3 2.801376 1_655
Mg7 Si3 2.954020 1_555
Mg7 Si4 2.957324 1_555
Mg7 Si1 2.979895 1_555
Mg7 Si4 3.023076 1_655
Mg7 Si0 3.120356 1_554
Si0 Si1 2.455983 1_555
Si1 Si5 2.652855 1_545
Si2 Si5 2.440139 1_555
Si3 Si5 2.443810 1_555
