# generated using pymatgen
data_BaCaVF7
_symmetry_space_group_name_H-M   'P 1'
_cell_length_a   10.68065400
_cell_length_b   5.77525900
_cell_length_c   10.01309151
_cell_angle_alpha   88.05236444
_cell_angle_beta   90.00000000
_cell_angle_gamma   90.00000000
_symmetry_Int_Tables_number   1
_chemical_formula_structural   BaCaVF7
_chemical_formula_sum   'Ba4 Ca4 V4 F28'
_cell_volume   617.28615304
_cell_formula_units_Z   4
loop_
 _symmetry_equiv_pos_site_id
 _symmetry_equiv_pos_as_xyz
  1  'x, y, z'
loop_
 _atom_site_type_symbol
 _atom_site_label
 _atom_site_symmetry_multiplicity
 _atom_site_fract_x
 _atom_site_fract_y
 _atom_site_fract_z
 _atom_site_occupancy
  Ba  Ba0  1  0.33424700  0.73468200  0.50706400  1
  Ba  Ba1  1  0.83424700  0.26531800  0.99293600  1
  Ba  Ba2  1  0.66575300  0.26531800  0.49293600  1
  Ba  Ba3  1  0.16575300  0.73468200  0.00706400  1
  Ca  Ca0  1  0.41152000  0.29020200  0.82649200  1
  Ca  Ca1  1  0.91152000  0.70979800  0.67350800  1
  Ca  Ca2  1  0.08848000  0.29020200  0.32649200  1
  Ca  Ca3  1  0.58848000  0.70979800  0.17350800  1
  V  V0  1  0.62411600  0.80778300  0.80595500  1
  V  V1  1  0.37588400  0.19221700  0.19404500  1
  V  V2  1  0.87588400  0.80778300  0.30595500  1
  V  V3  1  0.12411600  0.19221700  0.69404500  1
  F  F0  1  0.41395300  0.90238600  0.10443300  1
  F  F1  1  0.03344300  0.65441200  0.37073500  1
  F  F2  1  0.70998400  0.53285500  0.73579700  1
  F  F3  1  0.29001600  0.46714500  0.26420300  1
  F  F4  1  0.46172900  0.08106300  0.35601900  1
  F  F5  1  0.79579100  0.71050500  0.47863700  1
  F  F6  1  0.77613900  0.99028400  0.74044500  1
  F  F7  1  0.96172900  0.91893700  0.14398100  1
  F  F8  1  0.46655700  0.65441200  0.87073500  1
  F  F9  1  0.20998400  0.46714500  0.76420300  1
  F  F10  1  0.08604700  0.90238600  0.60443300  1
  F  F11  1  0.58604700  0.09761400  0.89556700  1
  F  F12  1  0.27613900  0.00971600  0.75955500  1
  F  F13  1  0.96255200  0.60035600  0.87790400  1
  F  F14  1  0.53827100  0.91893700  0.64398100  1
  F  F15  1  0.03827100  0.08106300  0.85601900  1
  F  F16  1  0.22386100  0.00971600  0.25955500  1
  F  F17  1  0.91395300  0.09761400  0.39556700  1
  F  F18  1  0.46255200  0.39964400  0.62209600  1
  F  F19  1  0.96655700  0.34558800  0.62926500  1
  F  F20  1  0.03744800  0.39964400  0.12209600  1
  F  F21  1  0.72386100  0.99028400  0.24044500  1
  F  F22  1  0.53744800  0.60035600  0.37790400  1
  F  F23  1  0.29579100  0.28949500  0.02136300  1
  F  F24  1  0.20420900  0.28949500  0.52136300  1
  F  F25  1  0.70420900  0.71050500  0.97863700  1
  F  F26  1  0.53344300  0.34558800  0.12926500  1
  F  F27  1  0.79001600  0.53285500  0.23579700  1
loop_
_geom_bond_atom_site_label_1
_geom_bond_atom_site_label_2
_geom_bond_distance
_geom_bond_site_symmetry_2
Ba0 F18 2.607128 1_555
Ba0 F22 2.655730 1_555
Ba0 F14 2.803493 1_555
Ba0 F4 2.817353 1_565
Ba0 F24 2.921455 1_555
Ba0 F3 2.963021 1_555
Ba0 F10 2.996710 1_555
Ba0 F12 3.094028 1_565
Ba0 F16 3.128508 1_565
Ba0 F9 3.241569 1_555
Ba1 F13 2.607128 1_555
Ba1 F20 2.655730 1_656
Ba1 F15 2.803493 1_655
Ba1 F7 2.817353 1_546
Ba1 F25 2.921455 1_555
Ba1 F27 2.963021 1_556
Ba1 F11 2.996710 1_555
Ba1 F6 3.094028 1_545
Ba1 F21 3.128508 1_546
Ba1 F2 3.241569 1_555
Ba2 F22 2.607128 1_555
Ba2 F18 2.655730 1_555
Ba2 F4 2.803493 1_555
Ba2 F14 2.817353 1_545
Ba2 F5 2.921455 1_555
Ba2 F2 2.963021 1_555
Ba2 F17 2.996710 1_555
Ba2 F21 3.094028 1_545
Ba2 F6 3.128508 1_545
Ba2 F27 3.241569 1_555
Ba3 F20 2.607128 1_555
Ba3 F13 2.655730 1_454
Ba3 F7 2.803493 1_455
Ba3 F15 2.817353 1_564
Ba3 F23 2.921455 1_555
Ba3 F9 2.963021 1_554
Ba3 F0 2.996710 1_555
Ba3 F16 3.094028 1_565
Ba3 F12 3.128508 1_564
Ba3 F3 3.241569 1_555
Ca0 F18 2.190290 1_555
Ca0 F8 2.242646 1_555
Ca0 F11 2.266697 1_555
Ca0 F12 2.288631 1_555
Ca0 F23 2.309706 1_556
Ca0 F9 2.454254 1_555
Ca1 F13 2.190290 1_555
Ca1 F19 2.242646 1_555
Ca1 F10 2.266697 1_655
Ca1 F6 2.288631 1_555
Ca1 F5 2.309706 1_555
Ca1 F2 2.454254 1_555
Ca2 F20 2.190290 1_555
Ca2 F1 2.242646 1_555
Ca2 F17 2.266697 1_455
Ca2 F16 2.288631 1_555
Ca2 F24 2.309706 1_555
Ca2 F3 2.454254 1_555
Ca3 F22 2.190290 1_555
Ca3 F26 2.242646 1_555
Ca3 F0 2.266697 1_555
Ca3 F21 2.288631 1_555
Ca3 F25 2.309706 1_554
Ca3 F27 2.454254 1_555
F0 V1 1.968329 1_565
F1 V2 1.999546 1_455
F2 V0 1.982798 1_555
F3 V1 1.982798 1_555
F4 V1 1.952543 1_555
F5 V2 1.992763 1_555
F6 V0 2.032388 1_555
F7 V2 1.952543 1_555
F8 V0 1.999546 1_555
F9 V3 1.982798 1_555
F10 V3 1.968329 1_565
F11 V0 1.968329 1_545
F12 V3 2.032388 1_555
F14 V0 1.952543 1_555
F15 V3 1.952543 1_555
F16 V1 2.032388 1_555
F17 V2 1.968329 1_545
F19 V3 1.999546 1_655
F21 V2 2.032388 1_555
F23 V1 1.992763 1_555
F24 V3 1.992763 1_555
F25 V0 1.992763 1_555
F26 V1 1.999546 1_555
F27 V2 1.982798 1_555
