# generated using pymatgen
data_Gd2MnSbO7
_symmetry_space_group_name_H-M   'P 1'
_cell_length_a   7.37107340
_cell_length_b   7.37107340
_cell_length_c   7.37107340
_cell_angle_alpha   121.55715271
_cell_angle_beta   118.65754580
_cell_angle_gamma   89.83256739
_symmetry_Int_Tables_number   1
_chemical_formula_structural   Gd2MnSbO7
_chemical_formula_sum   'Gd4 Mn2 Sb2 O14'
_cell_volume   282.50159595
_cell_formula_units_Z   2
loop_
 _symmetry_equiv_pos_site_id
 _symmetry_equiv_pos_as_xyz
  1  'x, y, z'
loop_
 _atom_site_type_symbol
 _atom_site_label
 _atom_site_symmetry_multiplicity
 _atom_site_fract_x
 _atom_site_fract_y
 _atom_site_fract_z
 _atom_site_occupancy
  Gd  Gd0  1  0.00000000  0.00000000  0.50000000  1
  Gd  Gd1  1  0.00000000  0.50000000  0.00000000  1
  Gd  Gd2  1  0.00000000  0.00000000  0.00000000  1
  Gd  Gd3  1  0.50000000  0.00000000  0.50000000  1
  Mn  Mn0  1  0.50000000  0.50000000  0.50000000  1
  Mn  Mn1  1  0.50000000  0.00000000  0.00000000  1
  Sb  Sb0  1  0.50000000  0.50000000  0.00000000  1
  Sb  Sb1  1  0.00000000  0.50000000  0.50000000  1
  O  O0  1  0.12726100  0.87726100  0.25000000  1
  O  O1  1  0.87273900  0.12273900  0.75000000  1
  O  O2  1  0.42001700  0.17001700  0.25000000  1
  O  O3  1  0.82747100  0.57747100  0.25000000  1
  O  O4  1  0.40974000  0.58135700  0.24054900  1
  O  O5  1  0.84080700  0.16919000  0.25945100  1
  O  O6  1  0.40974000  0.16919000  0.82838300  1
  O  O7  1  0.84080700  0.58135700  0.67161700  1
  O  O8  1  0.57998300  0.82998300  0.75000000  1
  O  O9  1  0.17252900  0.42252900  0.75000000  1
  O  O10  1  0.59026000  0.41864300  0.75945100  1
  O  O11  1  0.15919300  0.83081000  0.74054900  1
  O  O12  1  0.59026000  0.83081000  0.17161700  1
  O  O13  1  0.15919300  0.41864300  0.32838300  1
loop_
_geom_bond_atom_site_label_1
_geom_bond_atom_site_label_2
_geom_bond_distance
_geom_bond_site_symmetry_2
Gd0 O0 2.236568 1_545
Gd0 O1 2.236568 1_455
Gd0 O11 2.527147 1_545
Gd0 O5 2.527147 1_455
Gd0 O12 2.527153 1_445
Gd0 O6 2.527153 1_555
Gd0 O9 2.545827 1_555
Gd0 O3 2.545827 1_445
Gd1 O0 2.236568 1_555
Gd1 O1 2.236568 1_454
Gd1 O10 2.527153 1_454
Gd1 O4 2.527153 1_555
Gd1 O13 2.527153 1_555
Gd1 O7 2.527153 1_454
Gd1 O9 2.545827 1_554
Gd1 O3 2.545827 1_455
Gd2 O1 2.275157 1_454
Gd2 O0 2.275157 1_545
Gd2 O13 2.497409 1_555
Gd2 O7 2.497409 1_444
Gd2 O11 2.497414 1_544
Gd2 O5 2.497414 1_455
Gd2 O2 2.585491 1_555
Gd2 O8 2.585491 1_444
Gd3 O1 2.275157 1_555
Gd3 O0 2.275157 1_545
Gd3 O10 2.497409 1_555
Gd3 O4 2.497409 1_545
Gd3 O6 2.497409 1_555
Gd3 O12 2.497409 1_545
Gd3 O2 2.585491 1_555
Gd3 O8 2.585491 1_545
Mn0 O8 1.983536 1_555
Mn0 O2 1.983536 1_555
Mn0 O13 2.106499 1_555
Mn0 O7 2.106499 1_555
Mn0 O10 2.106506 1_555
Mn0 O4 2.106506 1_555
Mn1 O2 1.983536 1_555
Mn1 O8 1.983536 1_544
Mn1 O12 2.106499 1_545
Mn1 O6 2.106499 1_554
Mn1 O11 2.106499 1_544
Mn1 O5 2.106499 1_555
O3 Sb0 2.046610 1_555
O3 Sb1 2.046610 1_655
O4 Sb0 1.990564 1_555
O5 Sb1 1.990571 1_655
O6 Sb0 1.990571 1_556
O7 Sb1 1.990571 1_655
O9 Sb1 2.046610 1_555
O9 Sb0 2.046610 1_556
O10 Sb0 1.990564 1_556
O11 Sb1 1.990571 1_555
O12 Sb0 1.990571 1_555
O13 Sb1 1.990571 1_555
