# generated using pymatgen
data_La2Ir7
_symmetry_space_group_name_H-M   'P 1'
_cell_length_a   5.37647136
_cell_length_b   5.37647136
_cell_length_c   26.38826755
_cell_angle_alpha   90.00000000
_cell_angle_beta   90.00000000
_cell_angle_gamma   120.00002061
_symmetry_Int_Tables_number   1
_chemical_formula_structural   La2Ir7
_chemical_formula_sum   'La8 Ir28'
_cell_volume   660.59623302
_cell_formula_units_Z   4
loop_
 _symmetry_equiv_pos_site_id
 _symmetry_equiv_pos_as_xyz
  1  'x, y, z'
loop_
 _atom_site_type_symbol
 _atom_site_label
 _atom_site_symmetry_multiplicity
 _atom_site_fract_x
 _atom_site_fract_y
 _atom_site_fract_z
 _atom_site_occupancy
  La  La0  1  0.33333300  0.66666700  0.47121127  1
  La  La1  1  0.66666700  0.33333300  0.52878873  1
  La  La2  1  0.66666700  0.33333300  0.97121127  1
  La  La3  1  0.33333300  0.66666700  0.02878873  1
  La  La4  1  0.33333300  0.66666700  0.32556229  1
  La  La5  1  0.66666700  0.33333300  0.67443771  1
  La  La6  1  0.66666700  0.33333300  0.82556229  1
  La  La7  1  0.33333300  0.66666700  0.17443771  1
  Ir  Ir0  1  -0.00000000  -0.00000000  0.50000000  1
  Ir  Ir1  1  -0.00000000  -0.00000000  0.00000000  1
  Ir  Ir2  1  0.83209684  0.16790316  0.25000000  1
  Ir  Ir3  1  0.83209684  0.66419368  0.25000000  1
  Ir  Ir4  1  0.33580632  0.16790316  0.25000000  1
  Ir  Ir5  1  0.16790316  0.83209684  0.75000000  1
  Ir  Ir6  1  0.16790316  0.33580632  0.75000000  1
  Ir  Ir7  1  0.66419368  0.83209684  0.75000000  1
  Ir  Ir8  1  0.83487591  0.16512409  0.41281181  1
  Ir  Ir9  1  0.83487591  0.66975281  0.41281181  1
  Ir  Ir10  1  0.33024719  0.16512409  0.41281181  1
  Ir  Ir11  1  0.16512409  0.83487591  0.58718819  1
  Ir  Ir12  1  0.16512409  0.33024719  0.58718819  1
  Ir  Ir13  1  0.66975281  0.83487591  0.58718819  1
  Ir  Ir14  1  0.16512409  0.83487591  0.91281181  1
  Ir  Ir15  1  0.16512409  0.33024719  0.91281181  1
  Ir  Ir16  1  0.66975281  0.83487591  0.91281181  1
  Ir  Ir17  1  0.83487591  0.16512409  0.08718819  1
  Ir  Ir18  1  0.83487591  0.66975281  0.08718819  1
  Ir  Ir19  1  0.33024719  0.16512409  0.08718819  1
  Ir  Ir20  1  -0.00000000  -0.00000000  0.33166184  1
  Ir  Ir21  1  -0.00000000  -0.00000000  0.66833816  1
  Ir  Ir22  1  -0.00000000  -0.00000000  0.83166184  1
  Ir  Ir23  1  -0.00000000  -0.00000000  0.16833816  1
  Ir  Ir24  1  0.33333300  0.66666700  0.66641234  1
  Ir  Ir25  1  0.66666700  0.33333300  0.33358766  1
  Ir  Ir26  1  0.66666700  0.33333300  0.16641234  1
  Ir  Ir27  1  0.33333300  0.66666700  0.83358766  1
loop_
_geom_bond_atom_site_label_1
_geom_bond_atom_site_label_2
_geom_bond_distance
_geom_bond_site_symmetry_2
La0 La1 3.456001 1_455
La0 La1 3.456001 1_565
La0 La1 3.456010 1_555
La0 La4 3.843424 1_555
La1 La5 3.843424 1_555
La2 La3 3.456001 1_546
La2 La3 3.456001 1_656
La2 La3 3.456010 1_556
La2 La6 3.843424 1_555
La3 La7 3.843424 1_555
La4 La7 3.987916 1_555
La5 La6 3.987916 1_555
Ir0 Ir12 2.767291 1_555
Ir0 Ir10 2.767291 1_555
Ir0 Ir9 2.767291 1_445
Ir0 Ir13 2.767291 1_445
Ir0 Ir11 2.767294 1_545
Ir0 Ir8 2.767294 1_455
Ir0 La0 3.195714 1_545
Ir0 La1 3.195714 1_455
Ir0 La0 3.195717 1_555
Ir0 La0 3.195717 1_445
Ir0 La1 3.195717 1_555
Ir0 La1 3.195717 1_445
Ir1 Ir19 2.767291 1_555
Ir1 Ir15 2.767291 1_554
Ir1 Ir18 2.767291 1_445
Ir1 Ir16 2.767291 1_444
Ir1 Ir14 2.767294 1_544
Ir1 Ir17 2.767294 1_455
Ir1 La2 3.195714 1_454
Ir1 La3 3.195714 1_545
Ir1 La2 3.195717 1_444
Ir1 La2 3.195717 1_554
Ir1 La3 3.195717 1_445
Ir1 La3 3.195717 1_555
Ir2 Ir20 2.662405 1_655
Ir2 Ir23 2.662405 1_655
Ir2 Ir3 2.668292 1_555
Ir2 Ir4 2.668292 1_555
Ir2 Ir25 2.690448 1_555
Ir2 Ir26 2.690448 1_555
Ir2 Ir3 2.708180 1_545
Ir2 Ir4 2.708180 1_655
Ir2 La7 3.347030 1_545
Ir2 La7 3.347030 1_655
Ir2 La4 3.347030 1_655
Ir2 La4 3.347030 1_545
Ir3 Ir4 2.668291 1_555
Ir3 Ir4 2.708179 1_665
Ir3 La7 3.347028 1_655
Ir3 La4 3.347028 1_655
Ir3 La7 3.347032 1_555
Ir3 La4 3.347032 1_555
Ir4 La7 3.347028 1_545
Ir4 La4 3.347028 1_545
Ir4 La7 3.347032 1_555
Ir4 La4 3.347032 1_555
Ir5 Ir7 2.668292 1_555
Ir5 Ir6 2.668292 1_555
Ir5 Ir7 2.708180 1_455
Ir5 Ir6 2.708180 1_565
Ir5 La5 3.347030 1_455
Ir5 La5 3.347030 1_565
Ir5 La6 3.347030 1_455
Ir5 La6 3.347030 1_565
Ir6 Ir7 2.668291 1_555
Ir6 Ir7 2.708179 1_445
Ir6 La5 3.347028 1_455
Ir6 La6 3.347028 1_455
Ir6 La5 3.347032 1_555
Ir6 La6 3.347032 1_555
Ir7 La6 3.347028 1_565
Ir7 La5 3.347028 1_565
Ir7 La5 3.347032 1_555
Ir7 La6 3.347032 1_555
Ir8 Ir9 2.663349 1_545
Ir8 Ir9 2.713122 1_555
Ir8 La0 3.098658 1_655
Ir8 La0 3.098658 1_545
Ir8 La1 3.438007 1_555
Ir8 La4 3.539448 1_545
Ir8 La4 3.539448 1_655
Ir9 La0 3.098659 1_655
Ir9 La0 3.098659 1_555
Ir9 La1 3.438011 1_555
Ir9 La4 3.539449 1_655
Ir9 La4 3.539449 1_555
Ir10 Ir25 2.612325 1_555
Ir10 Ir20 2.636303 1_555
Ir10 Ir9 2.663349 1_445
Ir10 Ir8 2.663349 1_455
Ir10 Ir9 2.713121 1_555
Ir10 Ir8 2.713122 1_555
Ir10 La0 3.098659 1_545
Ir10 La0 3.098659 1_555
Ir10 La1 3.438011 1_555
Ir10 La4 3.539449 1_545
Ir10 La4 3.539449 1_555
Ir11 Ir24 2.612320 1_555
Ir11 Ir21 2.636306 1_565
Ir11 Ir13 2.663349 1_455
Ir11 Ir12 2.663349 1_565
Ir11 Ir13 2.713122 1_555
Ir11 Ir12 2.713122 1_555
Ir11 La1 3.098658 1_565
Ir11 La1 3.098658 1_455
Ir11 La0 3.438007 1_555
Ir11 La5 3.539448 1_455
Ir11 La5 3.539448 1_565
Ir12 Ir24 2.612325 1_555
Ir12 Ir21 2.636303 1_555
Ir12 Ir13 2.663349 1_445
Ir12 Ir13 2.713121 1_555
Ir12 La1 3.098659 1_455
Ir12 La1 3.098659 1_555
Ir12 La0 3.438011 1_555
Ir12 La5 3.539449 1_455
Ir12 La5 3.539449 1_555
Ir13 Ir24 2.612325 1_555
Ir13 Ir21 2.636303 1_665
Ir13 La1 3.098659 1_565
Ir13 La1 3.098659 1_555
Ir13 La0 3.438011 1_555
Ir13 La5 3.539449 1_565
Ir13 La5 3.539449 1_555
Ir14 Ir27 2.612320 1_555
Ir14 Ir22 2.636306 1_565
Ir14 Ir16 2.663349 1_455
Ir14 Ir15 2.663349 1_565
Ir14 Ir16 2.713122 1_555
Ir14 Ir15 2.713122 1_555
Ir14 La2 3.098658 1_565
Ir14 La2 3.098658 1_455
Ir14 La3 3.438007 1_556
Ir14 La6 3.539448 1_565
Ir14 La6 3.539448 1_455
Ir15 Ir27 2.612325 1_555
Ir15 Ir22 2.636303 1_555
Ir15 Ir16 2.663349 1_445
Ir15 Ir16 2.713121 1_555
Ir15 La2 3.098659 1_455
Ir15 La2 3.098659 1_555
Ir15 La3 3.438011 1_556
Ir15 La6 3.539449 1_455
Ir15 La6 3.539449 1_555
Ir16 Ir27 2.612325 1_555
Ir16 Ir22 2.636303 1_665
Ir16 La2 3.098659 1_565
Ir16 La2 3.098659 1_555
Ir16 La3 3.438011 1_556
Ir16 La6 3.539449 1_565
Ir16 La6 3.539449 1_555
Ir17 Ir26 2.612320 1_555
Ir17 Ir23 2.636306 1_655
Ir17 Ir19 2.663349 1_655
Ir17 Ir18 2.663349 1_545
Ir17 Ir18 2.713122 1_555
Ir17 Ir19 2.713122 1_555
Ir17 La3 3.098658 1_545
Ir17 La3 3.098658 1_655
Ir17 La2 3.438007 1_554
Ir17 La7 3.539448 1_545
Ir17 La7 3.539448 1_655
Ir18 Ir26 2.612325 1_555
Ir18 Ir23 2.636303 1_665
Ir18 Ir19 2.663349 1_665
Ir18 Ir19 2.713121 1_555
Ir18 La3 3.098659 1_655
Ir18 La3 3.098659 1_555
Ir18 La2 3.438011 1_554
Ir18 La7 3.539449 1_655
Ir18 La7 3.539449 1_555
Ir19 Ir26 2.612325 1_555
Ir19 Ir23 2.636303 1_555
Ir19 La3 3.098659 1_545
Ir19 La3 3.098659 1_555
Ir19 La2 3.438011 1_554
Ir19 La7 3.539449 1_545
Ir19 La7 3.539449 1_555
Ir20 Ir9 2.636303 1_445
Ir20 Ir8 2.636306 1_455
Ir20 Ir3 2.662405 1_445
Ir20 Ir4 2.662405 1_555
Ir20 Ir25 3.104520 1_455
Ir20 Ir25 3.104524 1_555
Ir20 Ir25 3.104524 1_445
Ir20 La4 3.108275 1_545
Ir20 La4 3.108278 1_445
Ir20 La4 3.108278 1_555
Ir21 Ir6 2.662405 1_555
Ir21 Ir7 2.662405 1_445
Ir21 Ir5 2.662405 1_545
Ir21 Ir24 3.104520 1_545
Ir21 Ir24 3.104524 1_445
Ir21 Ir24 3.104524 1_555
Ir21 La5 3.108275 1_455
Ir21 La5 3.108278 1_555
Ir21 La5 3.108278 1_445
Ir22 Ir6 2.662405 1_555
Ir22 Ir7 2.662405 1_445
Ir22 Ir5 2.662405 1_545
Ir22 Ir27 3.104520 1_545
Ir22 Ir27 3.104524 1_555
Ir22 Ir27 3.104524 1_445
Ir22 La6 3.108275 1_455
Ir22 La6 3.108278 1_555
Ir22 La6 3.108278 1_445
Ir23 Ir3 2.662405 1_445
Ir23 Ir4 2.662405 1_555
Ir23 Ir26 3.104520 1_455
Ir23 Ir26 3.104524 1_555
Ir23 Ir26 3.104524 1_445
Ir23 La7 3.108275 1_545
Ir23 La7 3.108278 1_555
Ir23 La7 3.108278 1_445
Ir24 Ir5 2.690448 1_555
Ir24 Ir6 2.690451 1_555
Ir24 Ir7 2.690451 1_555
Ir24 La5 3.111319 1_455
Ir24 La5 3.111319 1_565
Ir24 La5 3.111329 1_555
Ir25 Ir8 2.612320 1_555
Ir25 Ir9 2.612325 1_555
Ir25 Ir3 2.690451 1_555
Ir25 Ir4 2.690451 1_555
Ir25 La4 3.111319 1_545
Ir25 La4 3.111319 1_655
Ir25 La4 3.111329 1_555
Ir26 Ir3 2.690451 1_555
Ir26 Ir4 2.690451 1_555
Ir26 La7 3.111319 1_545
Ir26 La7 3.111319 1_655
Ir26 La7 3.111329 1_555
Ir27 Ir5 2.690448 1_555
Ir27 Ir6 2.690451 1_555
Ir27 Ir7 2.690451 1_555
Ir27 La6 3.111319 1_455
Ir27 La6 3.111319 1_565
Ir27 La6 3.111329 1_555
