# generated using pymatgen
data_Cs2CaTm2(WO4)4
_symmetry_space_group_name_H-M   'P 1'
_cell_length_a   8.06373271
_cell_length_b   7.99589739
_cell_length_c   7.57134209
_cell_angle_alpha   62.88258532
_cell_angle_beta   60.87454679
_cell_angle_gamma   90.49858830
_symmetry_Int_Tables_number   1
_chemical_formula_structural   Cs2CaTm2(WO4)4
_chemical_formula_sum   'Cs2 Ca1 Tm2 W4 O16'
_cell_volume   362.49988131
_cell_formula_units_Z   1
loop_
 _symmetry_equiv_pos_site_id
 _symmetry_equiv_pos_as_xyz
  1  'x, y, z'
loop_
 _atom_site_type_symbol
 _atom_site_label
 _atom_site_symmetry_multiplicity
 _atom_site_fract_x
 _atom_site_fract_y
 _atom_site_fract_z
 _atom_site_occupancy
  Cs  Cs0  1  0.74886439  0.25451951  0.74076482  1
  Cs  Cs1  1  0.21239746  0.78236066  0.26334744  1
  Ca  Ca0  1  0.99031944  0.99445203  0.77985257  1
  Tm  Tm0  1  0.31397628  0.79094344  0.73255695  1
  Tm  Tm1  1  0.78499014  0.20115821  0.25130727  1
  W  W0  1  0.30321531  0.31302151  0.70168722  1
  W  W1  1  0.70291415  0.68574370  0.29753724  1
  W  W2  1  0.68335480  0.68909458  0.80902674  1
  W  W3  1  0.29790551  0.28458970  0.21666533  1
  O  O0  1  0.36046035  0.25136465  0.95762360  1
  O  O1  1  0.64101736  0.76503770  0.03757667  1
  O  O2  1  0.74181288  0.63433514  0.56418180  1
  O  O3  1  0.22617211  0.34197336  0.46633687  1
  O  O4  1  0.61953396  0.92056079  0.63356732  1
  O  O5  1  0.33102486  0.04754465  0.39743001  1
  O  O6  1  0.05420075  0.33157347  0.89557449  1
  O  O7  1  0.95861664  0.68639762  0.08630367  1
  O  O8  1  0.41357702  0.62758560  0.53960411  1
  O  O9  1  0.59318315  0.37500533  0.45121581  1
  O  O10  1  0.36820841  0.57577718  0.98857614  1
  O  O11  1  0.61394393  0.40595308  0.04795479  1
  O  O12  1  0.25820501  0.03639468  0.79671208  1
  O  O13  1  0.76633084  0.97073574  0.17742529  1
  O  O14  1  0.94720621  0.76449883  0.69140458  1
  O  O15  1  0.02690204  0.21104583  0.33291017  1
loop_
_geom_bond_atom_site_label_1
_geom_bond_atom_site_label_2
_geom_bond_distance
_geom_bond_site_symmetry_2
Cs0 O2 2.718340 1_555
Cs0 O0 2.731450 1_555
Cs0 O9 2.843389 1_555
Cs0 O11 2.861190 1_556
Cs0 O15 2.989293 1_655
Cs0 O13 3.117514 1_546
Cs0 O3 3.234792 1_655
Cs0 O1 3.338383 1_546
Cs0 O6 3.355128 1_655
Cs0 O4 3.410003 1_545
Cs1 O14 2.814837 1_455
Cs1 O12 2.986487 1_564
Cs1 O10 3.042951 1_554
Cs1 O5 3.051893 1_565
Cs1 O1 3.059408 1_555
Cs1 O8 3.084874 1_555
Cs1 O3 3.164372 1_555
Cs1 O2 3.168421 1_455
Cs1 O7 3.186545 1_455
Cs1 O0 3.188289 1_564
Ca0 O12 2.256078 1_665
Ca0 O14 2.299583 1_555
Ca0 O7 2.391156 1_556
Ca0 O1 2.530394 1_556
Ca0 O3 2.544281 1_665
Ca0 O13 2.557429 1_556
Ca0 O5 2.688374 1_665
Ca0 O15 2.866048 1_665
Ca0 Cs0 2.876294 1_565
O0 W3 1.919888 1_556
O0 W0 2.053029 1_555
O1 W2 1.966245 1_554
O1 W1 2.085495 1_555
O2 W2 1.934788 1_555
O2 W1 2.050681 1_555
O3 W3 1.962001 1_555
O3 W0 2.078187 1_555
O4 W2 1.973759 1_555
O4 Tm0 2.270821 1_555
O4 Tm1 2.336603 1_565
O5 W3 1.880622 1_555
O5 Tm0 2.361428 1_545
O6 W0 1.882359 1_555
O6 Tm1 2.182377 1_456
O7 W1 1.895110 1_555
O7 Tm0 2.555329 1_654
O8 W1 2.015046 1_555
O8 W0 2.169874 1_555
O8 Tm0 2.258570 1_555
O9 W0 2.028743 1_555
O9 W1 2.152716 1_555
O9 Tm1 2.508388 1_555
O10 W3 2.020692 1_556
O10 W2 2.145019 1_555
O10 Tm0 2.169484 1_555
O11 W2 1.992495 1_554
O11 W3 2.173941 1_555
O11 Tm1 2.600478 1_555
O12 W0 1.955215 1_555
O12 Tm0 2.227508 1_545
O13 W1 1.979678 1_555
O13 Tm1 2.178711 1_565
O14 W2 1.824042 1_555
O15 W3 1.878696 1_555
O15 Tm1 2.325584 1_455
