# generated using pymatgen
data_Pr(GeIr)2
_symmetry_space_group_name_H-M   'P 1'
_cell_length_a   4.28209906
_cell_length_b   4.28209906
_cell_length_c   10.06741375
_cell_angle_alpha   90.00000000
_cell_angle_beta   90.00000000
_cell_angle_gamma   90.00000000
_symmetry_Int_Tables_number   1
_chemical_formula_structural   Pr(GeIr)2
_chemical_formula_sum   'Pr2 Ge4 Ir4'
_cell_volume   184.59984722
_cell_formula_units_Z   2
loop_
 _symmetry_equiv_pos_site_id
 _symmetry_equiv_pos_as_xyz
  1  'x, y, z'
loop_
 _atom_site_type_symbol
 _atom_site_label
 _atom_site_symmetry_multiplicity
 _atom_site_fract_x
 _atom_site_fract_y
 _atom_site_fract_z
 _atom_site_occupancy
  Pr  Pr0  1  0.00000000  0.50000000  0.25584563  1
  Pr  Pr1  1  0.50000000  0.00000000  0.74415437  1
  Ge  Ge0  1  -0.00000000  0.50000000  0.86943277  1
  Ge  Ge1  1  0.50000000  0.00000000  0.13056723  1
  Ge  Ge2  1  -0.00000000  -0.00000000  0.50000000  1
  Ge  Ge3  1  0.50000000  0.50000000  0.50000000  1
  Ir  Ir0  1  0.00000000  0.50000000  0.62631723  1
  Ir  Ir1  1  0.50000000  -0.00000000  0.37368277  1
  Ir  Ir2  1  0.00000000  -0.00000000  -0.00000000  1
  Ir  Ir3  1  0.50000000  0.50000000  -0.00000000  1
loop_
_geom_bond_atom_site_label_1
_geom_bond_atom_site_label_2
_geom_bond_distance
_geom_bond_site_symmetry_2
Ge0 Ir0 2.447545 1_555
Ge0 Ir3 2.512357 1_456
Ge0 Ir2 2.512357 1_566
Ge0 Ir2 2.512357 1_556
Ge0 Ir3 2.512357 1_556
Ge0 Pr1 3.280074 1_565
Ge0 Pr1 3.280074 1_455
Ge0 Pr1 3.280074 1_465
Ge0 Pr1 3.280074 1_555
Ge1 Ir1 2.447545 1_555
Ge1 Ir3 2.512357 1_555
Ge1 Ir3 2.512357 1_545
Ge1 Ir2 2.512357 1_555
Ge1 Ir2 2.512357 1_655
Ge1 Pr0 3.280074 1_555
Ge1 Pr0 3.280074 1_645
Ge1 Pr0 3.280074 1_655
Ge1 Pr0 3.280074 1_545
Ge2 Ir0 2.490238 1_545
Ge2 Ir0 2.490238 1_555
Ge2 Ir1 2.490238 1_555
Ge2 Ir1 2.490238 1_455
Ge2 Pr0 3.259735 1_555
Ge2 Pr0 3.259735 1_545
Ge2 Pr1 3.259735 1_555
Ge2 Pr1 3.259735 1_455
Ge3 Ir0 2.490238 1_555
Ge3 Ir1 2.490238 1_555
Ge3 Ir0 2.490238 1_655
Ge3 Ir1 2.490238 1_565
Ge3 Pr0 3.259735 1_555
Ge3 Pr0 3.259735 1_655
Ge3 Pr1 3.259735 1_565
Ge3 Pr1 3.259735 1_555
Ir0 Pr1 3.252004 1_455
Ir0 Pr1 3.252004 1_565
Ir0 Pr1 3.252004 1_555
Ir0 Pr1 3.252004 1_465
Ir1 Pr0 3.252004 1_555
Ir1 Pr0 3.252004 1_655
Ir1 Pr0 3.252004 1_545
Ir1 Pr0 3.252004 1_645
Ir2 Pr1 3.349380 1_454
Ir2 Pr1 3.349380 1_554
Ir2 Pr0 3.349380 1_545
Ir2 Pr0 3.349380 1_555
Ir3 Pr1 3.349380 1_564
Ir3 Pr1 3.349380 1_554
Ir3 Pr0 3.349380 1_555
Ir3 Pr0 3.349380 1_655
