# generated using pymatgen
data_AlV3
_symmetry_space_group_name_H-M   'P 1'
_cell_length_a   4.78956725
_cell_length_b   4.78955204
_cell_length_c   4.78954591
_cell_angle_alpha   90.00000000
_cell_angle_beta   90.00000000
_cell_angle_gamma   90.00000000
_symmetry_Int_Tables_number   1
_chemical_formula_structural   AlV3
_chemical_formula_sum   'Al2 V6'
_cell_volume   109.87161606
_cell_formula_units_Z   2
loop_
 _symmetry_equiv_pos_site_id
 _symmetry_equiv_pos_as_xyz
  1  'x, y, z'
loop_
 _atom_site_type_symbol
 _atom_site_label
 _atom_site_symmetry_multiplicity
 _atom_site_fract_x
 _atom_site_fract_y
 _atom_site_fract_z
 _atom_site_occupancy
  Al  Al0  1  -0.00000000  -0.00000000  -0.00000000  1
  Al  Al1  1  0.50000000  0.50000000  0.50000000  1
  V  V0  1  0.24999800  -0.00000000  0.50000000  1
  V  V1  1  0.75000200  -0.00000000  0.50000000  1
  V  V2  1  -0.00000000  0.50000000  0.24999301  1
  V  V3  1  -0.00000000  0.50000000  0.75000699  1
  V  V4  1  0.50000000  0.74999001  -0.00000000  1
  V  V5  1  0.50000000  0.25000999  -0.00000000  1
loop_
_geom_bond_atom_site_label_1
_geom_bond_atom_site_label_2
_geom_bond_distance
_geom_bond_site_symmetry_2
Al0 V2 2.677425 1_545
Al0 V2 2.677425 1_555
Al0 V3 2.677425 1_544
Al0 V3 2.677425 1_554
Al0 V0 2.677436 1_555
Al0 V1 2.677436 1_454
Al0 V0 2.677436 1_554
Al0 V1 2.677436 1_455
Al0 V5 2.677469 1_455
Al0 V4 2.677469 1_445
Al0 V5 2.677469 1_555
Al0 V4 2.677469 1_545
Al1 V4 2.677417 1_556
Al1 V5 2.677417 1_556
Al1 V5 2.677417 1_555
Al1 V4 2.677417 1_555
Al1 V0 2.677447 1_555
Al1 V1 2.677447 1_555
Al1 V0 2.677447 1_565
Al1 V1 2.677447 1_565
Al1 V2 2.677462 1_555
Al1 V3 2.677462 1_655
Al1 V2 2.677462 1_655
Al1 V3 2.677462 1_555
V0 V1 2.394764 1_455
V0 V1 2.394803 1_555
V0 V2 2.933000 1_545
V0 V2 2.933000 1_555
V0 V3 2.933000 1_555
V0 V3 2.933000 1_545
V0 V4 2.933012 1_545
V0 V5 2.933012 1_556
V0 V4 2.933012 1_546
V0 V5 2.933012 1_555
V1 V3 2.933000 1_655
V1 V2 2.933000 1_655
V1 V2 2.933000 1_645
V1 V3 2.933000 1_645
V1 V4 2.933012 1_545
V1 V5 2.933012 1_556
V1 V4 2.933012 1_546
V1 V5 2.933012 1_555
V2 V3 2.394706 1_554
V2 V3 2.394840 1_555
V2 V5 2.932962 1_555
V2 V4 2.932962 1_555
V2 V4 2.932962 1_455
V2 V5 2.932962 1_455
V3 V4 2.932962 1_456
V3 V5 2.932962 1_456
V3 V4 2.932962 1_556
V3 V5 2.932962 1_556
V4 V5 2.394680 1_555
V4 V5 2.394872 1_565
