# generated using pymatgen
data_LaSn2
_symmetry_space_group_name_H-M   'P 1'
_cell_length_a   8.68555612
_cell_length_b   8.68555612
_cell_length_c   4.68275727
_cell_angle_alpha   90.00000000
_cell_angle_beta   90.00000000
_cell_angle_gamma   149.81877059
_symmetry_Int_Tables_number   1
_chemical_formula_structural   LaSn2
_chemical_formula_sum   'La2 Sn4'
_cell_volume   177.59779258
_cell_formula_units_Z   2
loop_
 _symmetry_equiv_pos_site_id
 _symmetry_equiv_pos_as_xyz
  1  'x, y, z'
loop_
 _atom_site_type_symbol
 _atom_site_label
 _atom_site_symmetry_multiplicity
 _atom_site_fract_x
 _atom_site_fract_y
 _atom_site_fract_z
 _atom_site_occupancy
  La  La0  1  0.14322118  0.85677882  0.00000000  1
  La  La1  1  0.85677882  0.14322118  0.00000000  1
  Sn  Sn0  1  0.50000000  0.50000000  0.00000000  1
  Sn  Sn1  1  -0.00000000  0.00000000  0.50000000  1
  Sn  Sn2  1  0.30903984  0.69096016  0.50000000  1
  Sn  Sn3  1  0.69096016  0.30903984  0.50000000  1
loop_
_geom_bond_atom_site_label_1
_geom_bond_atom_site_label_2
_geom_bond_distance
_geom_bond_site_symmetry_2
La0 Sn0 3.299004 1_565
La0 Sn0 3.299004 1_455
La0 Sn3 3.352075 1_564
La0 Sn3 3.352075 1_565
La0 Sn3 3.352075 1_455
La0 Sn3 3.352075 1_454
La0 Sn1 3.354432 1_565
La0 Sn1 3.354432 1_564
La0 Sn2 3.635478 1_554
La0 Sn2 3.635478 1_555
La1 Sn0 3.299004 1_655
La1 Sn0 3.299004 1_545
La1 Sn2 3.352075 1_544
La1 Sn2 3.352075 1_545
La1 Sn2 3.352075 1_654
La1 Sn2 3.352075 1_655
La1 Sn1 3.354432 1_655
La1 Sn1 3.354432 1_654
La1 Sn3 3.635478 1_554
La1 Sn3 3.635478 1_555
Sn0 Sn1 3.255045 1_665
Sn0 Sn1 3.255045 1_554
Sn0 Sn1 3.255045 1_555
Sn0 Sn1 3.255045 1_664
Sn2 Sn3 3.005896 1_455
Sn2 Sn3 3.005896 1_565
