# generated using pymatgen
data_Na2MnCdFe(PO4)3
_symmetry_space_group_name_H-M   'P 1'
_cell_length_a   8.91481938
_cell_length_b   8.91481938
_cell_length_c   9.36545830
_cell_angle_alpha   60.19253436
_cell_angle_beta   60.19253436
_cell_angle_gamma   86.01504224
_symmetry_Int_Tables_number   1
_chemical_formula_structural   Na2MnCdFe(PO4)3
_chemical_formula_sum   'Na4 Mn2 Cd2 Fe2 P6 O24'
_cell_volume   544.58053405
_cell_formula_units_Z   2
loop_
 _symmetry_equiv_pos_site_id
 _symmetry_equiv_pos_as_xyz
  1  'x, y, z'
loop_
 _atom_site_type_symbol
 _atom_site_label
 _atom_site_symmetry_multiplicity
 _atom_site_fract_x
 _atom_site_fract_y
 _atom_site_fract_z
 _atom_site_occupancy
  Na  Na0  1  0.12367800  0.87632200  0.50000000  1
  Na  Na1  1  0.80909200  0.63455600  0.08025000  1
  Na  Na2  1  0.93715200  0.06284800  0.00000000  1
  Na  Na3  1  0.36544400  0.19090800  0.91975000  1
  Mn  Mn0  1  0.80681900  0.72672100  0.45040000  1
  Mn  Mn1  1  0.27327900  0.19318100  0.54960000  1
  Cd  Cd0  1  0.40073800  0.59926200  0.50000000  1
  Cd  Cd1  1  0.48528000  0.51472000  0.00000000  1
  Fe  Fe0  1  0.71993700  0.93980200  0.71961100  1
  Fe  Fe1  1  0.06019800  0.28006300  0.28038900  1
  P  P0  1  0.56873500  0.04800600  0.30723900  1
  P  P1  1  0.65882200  0.34117800  0.50000000  1
  P  P2  1  0.95199400  0.43126500  0.69276100  1
  P  P3  1  0.20299500  0.58384900  0.82444000  1
  P  P4  1  0.18700900  0.81299100  0.00000000  1
  P  P5  1  0.41615100  0.79700500  0.17556000  1
  O  O0  1  0.00191800  0.61703700  0.52309700  1
  O  O1  1  0.61646100  0.15095100  0.67369000  1
  O  O2  1  0.76716800  0.32272600  0.82523100  1
  O  O3  1  0.97240400  0.98408300  0.25426500  1
  O  O4  1  0.64781700  0.89625900  0.29471900  1
  O  O5  1  0.64024900  0.48452900  0.55492400  1
  O  O6  1  0.51547100  0.35975100  0.44507600  1
  O  O7  1  0.10374100  0.35218300  0.70528100  1
  O  O8  1  0.01591700  0.02759600  0.74573500  1
  O  O9  1  0.60682400  0.81423500  0.00992700  1
  O  O10  1  0.67727400  0.23283200  0.17476900  1
  O  O11  1  0.84904900  0.38353900  0.32631000  1
  O  O12  1  0.98773800  0.74699900  0.14302000  1
  O  O13  1  0.28817900  0.73882600  0.11700900  1
  O  O14  1  0.38296300  0.99808200  0.47690300  1
  O  O15  1  0.95444800  0.04617700  0.62337100  1
  O  O16  1  0.02942100  0.62005100  0.83217400  1
  O  O17  1  0.67355100  0.73162800  0.72264700  1
  O  O18  1  0.26837200  0.32644900  0.27735300  1
  O  O19  1  0.37994900  0.97057900  0.16782600  1
  O  O20  1  0.95382300  0.04555200  0.37662900  1
  O  O21  1  0.26117400  0.71182100  0.88299100  1
  O  O22  1  0.25300100  0.01226200  0.85698000  1
  O  O23  1  0.18576500  0.39317600  0.99007300  1
loop_
_geom_bond_atom_site_label_1
_geom_bond_atom_site_label_2
_geom_bond_distance
_geom_bond_site_symmetry_2
Na0 O15 2.364914 1_465
Na0 O20 2.364914 1_465
Na0 O14 2.487201 1_555
Na0 O0 2.487201 1_555
Na0 O19 2.491111 1_555
Na0 O16 2.491111 1_555
Na1 O16 2.235884 1_654
Na1 O12 2.371772 1_555
Na1 O9 2.445694 1_555
Na1 O11 2.454290 1_555
Na1 O6 2.864557 1_555
Na2 O8 2.305085 1_654
Na2 O3 2.305085 1_545
Na2 O4 2.419994 1_545
Na2 O7 2.419994 1_654
Na2 O22 2.569113 1_654
Na2 O12 2.569113 1_545
Na2 O2 2.924181 1_554
Na2 O10 2.924181 1_555
Na3 O19 2.235884 1_546
Na3 O22 2.371772 1_555
Na3 O23 2.445694 1_555
Na3 O1 2.454290 1_555
Na3 O5 2.864557 1_555
Mn0 O3 2.098162 1_555
Mn0 O0 2.173423 1_655
Mn0 O5 2.173528 1_555
Mn0 O17 2.237533 1_555
Mn0 O12 2.414207 1_555
Mn0 O4 2.446525 1_555
Mn1 O8 2.098162 1_555
Mn1 O14 2.173423 1_545
Mn1 O6 2.173528 1_555
Mn1 O18 2.237533 1_555
Mn1 O22 2.414207 1_555
Mn1 O7 2.446525 1_555
Cd0 O6 2.476923 1_555
Cd0 O5 2.476923 1_555
Cd0 P3 2.579245 1_555
Cd0 P5 2.579245 1_555
Cd0 O7 2.664206 1_555
Cd0 O4 2.664206 1_555
Cd1 O17 2.103951 1_554
Cd1 O18 2.103951 1_555
Fe0 O15 1.906522 1_565
Fe0 O17 1.912706 1_555
Fe0 O1 1.981771 1_565
Fe0 O9 2.016882 1_556
Fe0 O20 2.481605 1_565
Fe1 O20 1.906522 1_455
Fe1 O18 1.912706 1_555
Fe1 O11 1.981771 1_455
Fe1 O23 2.016882 1_554
Fe1 O15 2.481605 1_455
O0 P2 1.499613 1_455
O1 P1 1.549307 1_555
O2 P2 1.478576 1_555
O4 P0 1.511223 1_565
O5 P1 1.569908 1_555
O6 P1 1.569908 1_555
O7 P2 1.511223 1_455
O9 P5 1.580266 1_555
O10 P0 1.478576 1_555
O11 P1 1.549307 1_555
O12 P4 1.514027 1_655
O13 P4 1.621993 1_555
O13 P5 1.690612 1_555
O14 P0 1.499613 1_565
O15 O8 1.436670 1_655
O16 P3 1.531729 1_555
O19 P5 1.531729 1_555
O20 O3 1.436670 1_545
O21 P4 1.621993 1_556
O21 P3 1.690612 1_555
O22 P4 1.514027 1_546
O23 P3 1.580266 1_555
