# generated using pymatgen
data_Yb5Ir3
_symmetry_space_group_name_H-M   'P 1'
_cell_length_a   8.30948466
_cell_length_b   8.30948466
_cell_length_c   5.96609600
_cell_angle_alpha   90.00000000
_cell_angle_beta   90.00000000
_cell_angle_gamma   120.00000527
_symmetry_Int_Tables_number   1
_chemical_formula_structural   Yb5Ir3
_chemical_formula_sum   'Yb10 Ir6'
_cell_volume   356.75414433
_cell_formula_units_Z   2
loop_
 _symmetry_equiv_pos_site_id
 _symmetry_equiv_pos_as_xyz
  1  'x, y, z'
loop_
 _atom_site_type_symbol
 _atom_site_label
 _atom_site_symmetry_multiplicity
 _atom_site_fract_x
 _atom_site_fract_y
 _atom_site_fract_z
 _atom_site_occupancy
  Yb  Yb0  1  0.66666700  0.33333300  0.50000000  1
  Yb  Yb1  1  0.33333300  0.66666700  0.50000000  1
  Yb  Yb2  1  0.33333300  0.66666700  0.00000000  1
  Yb  Yb3  1  0.66666700  0.33333300  0.00000000  1
  Yb  Yb4  1  0.73420000  0.73420000  0.25000000  1
  Yb  Yb5  1  0.26580000  0.00000000  0.25000000  1
  Yb  Yb6  1  0.00000000  0.26580000  0.25000000  1
  Yb  Yb7  1  0.26580000  0.26580000  0.75000000  1
  Yb  Yb8  1  0.73420000  0.00000000  0.75000000  1
  Yb  Yb9  1  0.00000000  0.73420000  0.75000000  1
  Ir  Ir0  1  0.39349300  0.39349300  0.25000000  1
  Ir  Ir1  1  0.60650700  0.00000000  0.25000000  1
  Ir  Ir2  1  0.00000000  0.60650700  0.25000000  1
  Ir  Ir3  1  0.60650700  0.60650700  0.75000000  1
  Ir  Ir4  1  0.39349300  0.00000000  0.75000000  1
  Ir  Ir5  1  0.00000000  0.39349300  0.75000000  1
loop_
_geom_bond_atom_site_label_1
_geom_bond_atom_site_label_2
_geom_bond_distance
_geom_bond_site_symmetry_2
Ir0 Yb4 2.831099 1_555
Ir0 Yb6 2.889216 1_555
Ir0 Yb5 2.889216 1_555
Ir0 Yb0 2.960048 1_555
Ir0 Yb1 2.960048 1_555
Ir0 Yb2 2.960048 1_555
Ir0 Yb3 2.960048 1_555
Ir0 Yb7 3.166138 1_554
Ir0 Yb7 3.166138 1_555
Ir1 Yb5 2.831100 1_555
Ir1 Yb6 2.889215 1_655
Ir1 Yb4 2.889216 1_545
Ir1 Yb3 2.960041 1_555
Ir1 Yb0 2.960041 1_555
Ir1 Yb2 2.960043 1_545
Ir1 Yb1 2.960043 1_545
Ir1 Yb8 3.166138 1_554
Ir1 Yb8 3.166138 1_555
Ir2 Yb6 2.831100 1_555
Ir2 Yb5 2.889215 1_565
Ir2 Yb4 2.889216 1_455
Ir2 Yb1 2.960041 1_555
Ir2 Yb2 2.960041 1_555
Ir2 Yb3 2.960043 1_455
Ir2 Yb0 2.960043 1_455
Ir2 Yb9 3.166138 1_554
Ir2 Yb9 3.166138 1_555
Ir3 Yb7 2.831099 1_555
Ir3 Yb8 2.889216 1_565
Ir3 Yb9 2.889216 1_655
Ir3 Yb0 2.960048 1_555
Ir3 Yb3 2.960048 1_556
Ir3 Yb1 2.960048 1_555
Ir3 Yb2 2.960048 1_556
Ir3 Yb4 3.166138 1_555
Ir3 Yb4 3.166138 1_556
Ir4 Yb8 2.831100 1_555
Ir4 Yb9 2.889215 1_545
Ir4 Yb7 2.889216 1_555
Ir4 Yb2 2.960041 1_546
Ir4 Yb1 2.960041 1_545
Ir4 Yb0 2.960043 1_555
Ir4 Yb3 2.960043 1_556
Ir4 Yb5 3.166138 1_556
Ir4 Yb5 3.166138 1_555
Ir5 Yb9 2.831100 1_555
Ir5 Yb8 2.889215 1_455
Ir5 Yb7 2.889216 1_555
Ir5 Yb0 2.960041 1_455
Ir5 Yb3 2.960041 1_456
Ir5 Yb1 2.960043 1_555
Ir5 Yb2 2.960043 1_556
Ir5 Yb6 3.166138 1_555
Ir5 Yb6 3.166138 1_556
