# generated using pymatgen
data_Ta6Cr3Cu3C2
_symmetry_space_group_name_H-M   'P 1'
_cell_length_a   8.13145533
_cell_length_b   8.13145533
_cell_length_c   8.13145533
_cell_angle_alpha   120.47331864
_cell_angle_beta   119.62437879
_cell_angle_gamma   89.91698698
_symmetry_Int_Tables_number   1
_chemical_formula_structural   Ta6Cr3Cu3C2
_chemical_formula_sum   'Ta12 Cr6 Cu6 C4'
_cell_volume   379.87325756
_cell_formula_units_Z   2
loop_
 _symmetry_equiv_pos_site_id
 _symmetry_equiv_pos_as_xyz
  1  'x, y, z'
loop_
 _atom_site_type_symbol
 _atom_site_label
 _atom_site_symmetry_multiplicity
 _atom_site_fract_x
 _atom_site_fract_y
 _atom_site_fract_z
 _atom_site_occupancy
  Ta  Ta0  1  0.56932300  0.06932300  0.50000000  1
  Ta  Ta1  1  0.18329400  0.68329400  0.50000000  1
  Ta  Ta2  1  0.17969700  0.06932200  0.50108300  1
  Ta  Ta3  1  0.56824000  0.67861500  0.49891700  1
  Ta  Ta4  1  0.56824000  0.06932200  0.88962500  1
  Ta  Ta5  1  0.17969700  0.67861500  0.11037500  1
  Ta  Ta6  1  0.93209300  0.93209300  0.00000000  1
  Ta  Ta7  1  0.31677500  0.31677500  0.00000000  1
  Ta  Ta8  1  0.31746700  0.93595000  0.00256900  1
  Ta  Ta9  1  0.93338000  0.31489800  0.99743100  1
  Ta  Ta10  1  0.93338000  0.93595000  0.61848200  1
  Ta  Ta11  1  0.31746700  0.31489800  0.38151800  1
  Cr  Cr0  1  0.74145600  0.49467600  0.24678000  1
  Cr  Cr1  1  0.24789600  0.49467600  0.75322000  1
  Cr  Cr2  1  0.74949900  0.48281800  0.73331900  1
  Cr  Cr3  1  0.74949900  0.01618000  0.26668100  1
  Cr  Cr4  1  0.95388700  0.30104300  0.65284400  1
  Cr  Cr5  1  0.64820000  0.30104300  0.34715600  1
  Cu  Cu0  1  0.95893900  0.29565500  0.33671600  1
  Cu  Cu1  1  0.95893900  0.62222300  0.66328400  1
  Cu  Cu2  1  0.54383000  0.70624900  0.83758100  1
  Cu  Cu3  1  0.86866800  0.70624900  0.16241900  1
  Cu  Cu4  1  0.54334200  0.70634500  0.16300300  1
  Cu  Cu5  1  0.54334200  0.38033900  0.83699700  1
  C  C0  1  0.24707300  0.99755100  0.24952200  1
  C  C1  1  0.74803000  0.99755100  0.75047800  1
  C  C2  1  0.24917300  0.99873900  0.74956600  1
  C  C3  1  0.24917300  0.49960800  0.25043400  1
loop_
_geom_bond_atom_site_label_1
_geom_bond_atom_site_label_2
_geom_bond_distance
_geom_bond_site_symmetry_2
Cr0 Cr5 2.374688 1_555
Cr0 Cu4 2.473454 1_555
Cr0 Cu5 2.473454 1_554
Cr0 Cu0 2.488928 1_555
Cr0 Cu1 2.488928 1_555
Cr0 Cu3 2.530617 1_555
Cr0 Ta3 2.857088 1_555
Cr0 Ta4 2.857094 1_554
Cr0 Ta7 2.874702 1_555
Cr0 Ta9 2.966301 1_554
Cr0 Ta10 2.966306 1_555
Cr0 Ta1 2.999906 1_655
Cr1 Cr4 2.374692 1_455
Cr1 Cu4 2.473454 1_556
Cr1 Cu5 2.473454 1_555
Cr1 Cu1 2.488928 1_455
Cr1 Cu0 2.488928 1_455
Cr1 Cu2 2.530617 1_555
Cr1 Ta2 2.857093 1_555
Cr1 Ta5 2.857094 1_556
Cr1 Ta7 2.874702 1_556
Cr1 Ta11 2.966301 1_555
Cr1 Ta8 2.966308 1_556
Cr1 Ta1 2.999906 1_555
Cr2 Cr4 2.337125 1_555
Cr2 Cr5 2.337128 1_555
Cr2 Cu1 2.475654 1_555
Cr2 Cu5 2.515766 1_555
Cr2 Cu2 2.578199 1_555
Cr2 Cu3 2.578199 1_556
Cr2 Ta0 2.801302 1_555
Cr2 Ta9 2.916519 1_555
Cr2 Ta11 2.916519 1_555
Cr2 Ta5 2.938354 1_656
Cr2 Ta3 2.938359 1_555
Cr2 Ta6 3.008433 1_556
Cr3 Cr5 2.337122 1_555
Cr3 Cr4 2.337125 1_555
Cr3 Cu0 2.475654 1_555
Cr3 Cu4 2.515766 1_545
Cr3 Cu2 2.578199 1_544
Cr3 Cu3 2.578199 1_545
Cr3 Ta0 2.801302 1_555
Cr3 Ta10 2.916514 1_545
Cr3 Ta8 2.916521 1_545
Cr3 Ta2 2.938354 1_655
Cr3 Ta4 2.938354 1_554
Cr3 Ta6 3.008433 1_545
Cr4 Cr5 2.499783 1_555
Cr4 Cu0 2.569369 1_555
Cr4 Cu1 2.569369 1_555
Cr4 Ta10 2.834309 1_545
Cr4 Ta9 2.834317 1_555
Cr4 Ta7 2.844662 1_656
Cr4 Ta2 2.883810 1_655
Cr4 Ta5 2.883813 1_656
Cr4 Ta0 2.945012 1_555
Cr5 Cu0 2.569360 1_555
Cr5 Cu1 2.569365 1_555
Cr5 Ta8 2.834316 1_545
Cr5 Ta11 2.834325 1_555
Cr5 Ta7 2.844666 1_555
Cr5 Ta4 2.883810 1_554
Cr5 Ta3 2.883817 1_555
Cr5 Ta0 2.945016 1_555
Cu0 Cu1 2.636453 1_555
Cu0 Ta6 2.735879 1_545
Cu0 Ta11 2.747727 1_655
Cu0 Ta9 2.747727 1_554
Cu0 Ta1 2.898921 1_655
Cu0 Ta4 2.917054 1_554
Cu0 Ta2 2.917058 1_655
Cu1 Ta6 2.735879 1_556
Cu1 Ta8 2.747730 1_656
Cu1 Ta10 2.747735 1_555
Cu1 Ta1 2.898921 1_655
Cu1 Ta3 2.917054 1_555
Cu1 Ta5 2.917054 1_656
Cu2 Cu5 2.647723 1_555
Cu2 Cu4 2.647723 1_556
Cu2 Cu3 2.656388 1_556
Cu2 Ta4 2.754280 1_565
Cu2 Ta3 2.754288 1_555
Cu2 Ta1 2.773205 1_555
Cu2 Ta6 2.918715 1_556
Cu2 Ta11 2.926830 1_555
Cu2 Ta8 2.926833 1_556
Cu3 Cu4 2.647723 1_555
Cu3 Cu5 2.647723 1_554
Cu3 Ta5 2.754280 1_655
Cu3 Ta2 2.754280 1_665
Cu3 Ta1 2.773205 1_655
Cu3 Ta6 2.918715 1_555
Cu3 Ta10 2.926830 1_555
Cu3 Ta9 2.926830 1_554
Cu4 Cu5 2.631916 1_554
Cu4 Ta0 2.737028 1_565
Cu4 Ta3 2.762356 1_555
Cu4 Ta5 2.762364 1_555
Cu4 Ta7 2.920593 1_555
Cu4 Ta10 2.941549 1_555
Cu4 Ta8 2.941556 1_555
Cu5 Ta0 2.737028 1_555
Cu5 Ta4 2.762364 1_555
Cu5 Ta2 2.762364 1_555
Cu5 Ta7 2.920593 1_556
Cu5 Ta11 2.941549 1_555
Cu5 Ta9 2.941549 1_555
C0 Ta5 2.172832 1_555
C0 Ta2 2.172840 1_565
C0 Ta11 2.173999 1_565
C0 Ta8 2.174001 1_555
C0 Ta6 2.175091 1_455
C0 Ta0 2.208560 1_565
C1 Ta3 2.172834 1_555
C1 Ta4 2.172840 1_565
C1 Ta10 2.173992 1_555
C1 Ta9 2.173998 1_565
C1 Ta6 2.175090 1_556
C1 Ta0 2.208562 1_565
C2 Ta1 2.152714 1_555
C2 Ta7 2.166316 1_566
C2 Ta8 2.176363 1_556
C2 Ta10 2.176369 1_455
C2 Ta2 2.185839 1_565
C2 Ta4 2.185846 1_565
C3 Ta1 2.152713 1_555
C3 Ta7 2.166318 1_555
C3 Ta9 2.176371 1_454
C3 Ta11 2.176377 1_555
C3 Ta5 2.185839 1_555
C3 Ta3 2.185845 1_555
