# generated using pymatgen
data_MgMnF4
_symmetry_space_group_name_H-M   'P 1'
_cell_length_a   5.16702070
_cell_length_b   5.16702070
_cell_length_c   6.30254070
_cell_angle_alpha   65.94107782
_cell_angle_beta   65.94107782
_cell_angle_gamma   89.61733067
_symmetry_Int_Tables_number   1
_chemical_formula_structural   MgMnF4
_chemical_formula_sum   'Mg2 Mn2 F8'
_cell_volume   137.70854645
_cell_formula_units_Z   2
loop_
 _symmetry_equiv_pos_site_id
 _symmetry_equiv_pos_as_xyz
  1  'x, y, z'
loop_
 _atom_site_type_symbol
 _atom_site_label
 _atom_site_symmetry_multiplicity
 _atom_site_fract_x
 _atom_site_fract_y
 _atom_site_fract_z
 _atom_site_occupancy
  Mg  Mg0  1  0.27654800  0.27654800  0.46866800  1
  Mg  Mg1  1  0.76199000  0.76199000  0.48818200  1
  Mn  Mn0  1  0.50864400  0.01401900  0.99006000  1
  Mn  Mn1  1  0.01401900  0.50864400  0.99006000  1
  F  F0  1  0.80282100  0.80282100  0.77880300  1
  F  F1  1  0.61026000  0.61026000  0.28353200  1
  F  F2  1  0.12369900  0.12369900  0.28644400  1
  F  F3  1  0.64413000  0.13270000  0.24141200  1
  F  F4  1  0.42393100  0.42393100  0.77186600  1
  F  F5  1  0.93789100  0.33189800  0.73323700  1
  F  F6  1  0.33189800  0.93789100  0.73323700  1
  F  F7  1  0.13270000  0.64413000  0.24141200  1
loop_
_geom_bond_atom_site_label_1
_geom_bond_atom_site_label_2
_geom_bond_distance
_geom_bond_site_symmetry_2
F0 Mg1 2.018592 1_555
F0 Mn0 2.187801 1_565
F0 Mn1 2.187801 1_655
F1 Mg0 2.016605 1_555
F1 Mg1 2.133095 1_555
F1 Mn1 2.383296 1_654
F1 Mn0 2.383296 1_564
F2 Mg0 2.013434 1_555
F2 Mg1 2.185000 1_445
F2 Mn0 2.363343 1_554
F2 Mn1 2.363343 1_554
F3 Mg1 2.187792 1_545
F3 Mg0 2.200535 1_555
F3 Mn1 2.237769 1_654
F3 Mn0 2.253378 1_554
F4 Mg1 2.060815 1_555
F4 Mn1 2.161549 1_555
F4 Mn0 2.161549 1_555
F5 Mg0 1.981738 1_655
F5 Mn0 2.278333 1_555
F5 Mn1 2.310399 1_655
F5 Mg1 2.543444 1_555
F6 Mg0 1.981738 1_565
F6 Mn1 2.278333 1_555
F6 Mn0 2.310399 1_565
F6 Mg1 2.543444 1_555
F7 Mg1 2.187792 1_455
F7 Mg0 2.200535 1_555
F7 Mn0 2.237769 1_564
F7 Mn1 2.253378 1_554
