# generated using pymatgen
data_KNaMoWO5
_symmetry_space_group_name_H-M   'P 1'
_cell_length_a   11.56671165
_cell_length_b   11.70885738
_cell_length_c   17.55269884
_cell_angle_alpha   109.21662107
_cell_angle_beta   109.05013500
_cell_angle_gamma   89.98487476
_symmetry_Int_Tables_number   1
_chemical_formula_structural   KNaMoWO5
_chemical_formula_sum   'K16 Na16 Mo16 W16 O80'
_cell_volume   2106.47097638
_cell_formula_units_Z   16
loop_
 _symmetry_equiv_pos_site_id
 _symmetry_equiv_pos_as_xyz
  1  'x, y, z'
loop_
 _atom_site_type_symbol
 _atom_site_label
 _atom_site_symmetry_multiplicity
 _atom_site_fract_x
 _atom_site_fract_y
 _atom_site_fract_z
 _atom_site_occupancy
  K  K0  1  0.30505652  0.06615702  0.10826108  1
  K  K1  1  0.30165557  0.55951158  0.10603272  1
  K  K2  1  0.80532441  0.06130002  0.10973752  1
  K  K3  1  0.80362576  0.56036830  0.10772999  1
  K  K4  1  0.20250912  0.93574915  0.39396002  1
  K  K5  1  0.19232851  0.92956824  0.88254314  1
  K  K6  1  0.70369300  0.43838666  0.39740535  1
  K  K7  1  0.69234491  0.42911605  0.88471945  1
  K  K8  1  0.70221127  0.93497498  0.39482742  1
  K  K9  1  0.05840821  0.29423635  0.10981218  1
  K  K10  1  0.05271055  0.79172061  0.10505620  1
  K  K11  1  0.55380292  0.29149954  0.10783108  1
  K  K12  1  0.55299256  0.79455782  0.10468991  1
  K  K13  1  0.45324981  0.71330502  0.39601130  1
  K  K14  1  0.44006232  0.70567568  0.88262175  1
  K  K15  1  0.94124549  0.70337233  0.88192827  1
  Na  Na0  1  0.29866690  0.07019847  0.60380679  1
  Na  Na1  1  0.30054782  0.56308373  0.60025177  1
  Na  Na2  1  0.80276115  0.06630500  0.60340505  1
  Na  Na3  1  0.79732738  0.56772607  0.60135596  1
  Na  Na4  1  0.20294838  0.43954175  0.40627108  1
  Na  Na5  1  0.19780289  0.43502376  0.89709139  1
  Na  Na6  1  0.69592436  0.93412364  0.89517407  1
  Na  Na7  1  0.05116691  0.28276514  0.60371699  1
  Na  Na8  1  0.04948764  0.78708821  0.60024183  1
  Na  Na9  1  0.54976130  0.28563292  0.60226611  1
  Na  Na10  1  0.55229461  0.78584091  0.60205757  1
  Na  Na11  1  0.45577239  0.21632363  0.40842098  1
  Na  Na12  1  0.44776862  0.21038974  0.89669499  1
  Na  Na13  1  0.95310460  0.21883688  0.40648021  1
  Na  Na14  1  0.94620678  0.21122446  0.89594182  1
  Na  Na15  1  0.95006107  0.71757206  0.40376431  1
  Mo  Mo0  1  0.00581677  0.99848670  0.99619820  1
  Mo  Mo1  1  0.01594511  0.00194306  0.50397004  1
  Mo  Mo2  1  0.00224072  0.49517519  0.99445568  1
  Mo  Mo3  1  0.01509738  0.50255741  0.50222108  1
  Mo  Mo4  1  0.50371115  0.99789311  0.99400019  1
  Mo  Mo5  1  0.51453645  0.00609754  0.50609936  1
  Mo  Mo6  1  0.50458104  0.49558761  0.99506022  1
  Mo  Mo7  1  0.51593773  0.50170023  0.50674887  1
  Mo  Mo8  1  0.25493186  0.24941592  0.99609641  1
  Mo  Mo9  1  0.26470056  0.25478731  0.50605231  1
  Mo  Mo10  1  0.25236100  0.74403959  0.99225471  1
  Mo  Mo11  1  0.26423859  0.74935906  0.50311228  1
  Mo  Mo12  1  0.75564406  0.24358013  0.99361428  1
  Mo  Mo13  1  0.76855107  0.25182403  0.50619206  1
  Mo  Mo14  1  0.75269568  0.74755420  0.99351343  1
  Mo  Mo15  1  0.76473271  0.75272437  0.50568478  1
  W  W0  1  0.09971307  0.10967732  0.25935112  1
  W  W1  1  0.08904277  0.09938757  0.74833918  1
  W  W2  1  0.09644471  0.59421256  0.25631982  1
  W  W3  1  0.08845211  0.58344630  0.73834864  1
  W  W4  1  0.59747555  0.10237140  0.25713943  1
  W  W5  1  0.58616203  0.09008286  0.74678379  1
  W  W6  1  0.59833619  0.59310458  0.24999246  1
  W  W7  1  0.58818293  0.58953998  0.74286934  1
  W  W8  1  0.34745146  0.40332747  0.25990512  1
  W  W9  1  0.33721512  0.39925694  0.74864017  1
  W  W10  1  0.34875101  0.91136839  0.24894477  1
  W  W11  1  0.33749711  0.90646867  0.73933332  1
  W  W12  1  0.85585252  0.40368272  0.25260333  1
  W  W13  1  0.84228252  0.39814649  0.74352686  1
  W  W14  1  0.85283623  0.90771307  0.25126792  1
  W  W15  1  0.83536869  0.91016533  0.74619242  1
  O  O0  1  0.13075304  0.12522118  0.49088856  1
  O  O1  1  0.12350255  0.12235015  0.98603693  1
  O  O2  1  0.12856135  0.61624686  0.48374294  1
  O  O3  1  0.12248433  0.61309698  0.98297027  1
  O  O4  1  0.63354946  0.12611254  0.49550033  1
  O  O5  1  0.62378278  0.11593273  0.98219491  1
  O  O6  1  0.63200725  0.62268745  0.49371907  1
  O  O7  1  0.62239228  0.61803342  0.98490772  1
  O  O8  1  0.13098023  0.37637673  0.00245830  1
  O  O9  1  0.14778157  0.38793088  0.52197484  1
  O  O10  1  0.13312311  0.87461683  0.00408816  1
  O  O11  1  0.14520668  0.87991628  0.51806594  1
  O  O12  1  0.63248033  0.37282539  0.00408272  1
  O  O13  1  0.64750382  0.38426306  0.52269645  1
  O  O14  1  0.63299675  0.87689986  0.00237063  1
  O  O15  1  0.64801748  0.88713939  0.52410747  1
  O  O16  1  0.38237693  0.12374958  0.48968736  1
  O  O17  1  0.37428455  0.11918452  0.98306328  1
  O  O18  1  0.38118515  0.61735013  0.49350422  1
  O  O19  1  0.37089473  0.61302685  0.98375652  1
  O  O20  1  0.88416184  0.12021174  0.48907159  1
  O  O21  1  0.87464549  0.11568127  0.98377640  1
  O  O22  1  0.88438992  0.62259081  0.49238319  1
  O  O23  1  0.87210866  0.61598825  0.98506952  1
  O  O24  1  0.38215012  0.37682181  0.00256167  1
  O  O25  1  0.39703083  0.38618739  0.52112821  1
  O  O26  1  0.38116979  0.87706883  0.00366121  1
  O  O27  1  0.39818827  0.89068951  0.52503659  1
  O  O28  1  0.88463520  0.37561461  0.00528812  1
  O  O29  1  0.89910305  0.38565112  0.52079741  1
  O  O30  1  0.88010310  0.87764338  0.00293478  1
  O  O31  1  0.89722851  0.88560212  0.52058093  1
  O  O32  1  0.07366369  0.08081315  0.13696872  1
  O  O33  1  0.09244798  0.10461983  0.63849432  1
  O  O34  1  0.07005449  0.58423989  0.14002823  1
  O  O35  1  0.09251752  0.61284646  0.63854002  1
  O  O36  1  0.57134244  0.07937896  0.13556588  1
  O  O37  1  0.58695670  0.11030057  0.64186534  1
  O  O38  1  0.57434504  0.58808606  0.13437535  1
  O  O39  1  0.59540807  0.61171631  0.63972201  1
  O  O40  1  0.44769076  0.39170002  0.36784908  1
  O  O41  1  0.43972010  0.39381954  0.85793725  1
  O  O42  1  0.44949204  0.91745447  0.36516419  1
  O  O43  1  0.44222830  0.91536440  0.85496519  1
  O  O44  1  0.95523698  0.39504582  0.36512126  1
  O  O45  1  0.93568761  0.39766516  0.85681904  1
  O  O46  1  0.94863788  0.90005757  0.36501970  1
  O  O47  1  0.94412840  0.91396748  0.85858310  1
  O  O48  1  0.32540060  0.30891423  0.13868086  1
  O  O49  1  0.33930676  0.28234750  0.63978707  1
  O  O50  1  0.32572650  0.79742136  0.13791604  1
  O  O51  1  0.33768871  0.77570393  0.63916375  1
  O  O52  1  0.83050823  0.29572674  0.13705252  1
  O  O53  1  0.85196346  0.27648428  0.63963965  1
  O  O54  1  0.82832770  0.79794777  0.13772211  1
  O  O55  1  0.83777084  0.78515200  0.64232737  1
  O  O56  1  0.20148915  0.22646863  0.36736605  1
  O  O57  1  0.18947458  0.21278234  0.85804838  1
  O  O58  1  0.20841002  0.70509882  0.36678584  1
  O  O59  1  0.18742301  0.69100331  0.85481983  1
  O  O60  1  0.70560930  0.20968676  0.36788477  1
  O  O61  1  0.70256767  0.19561785  0.85674538  1
  O  O62  1  0.69999572  0.70107849  0.36649003  1
  O  O63  1  0.68228068  0.70641231  0.85556805  1
  O  O64  1  0.44280462  0.07926914  0.27301232  1
  O  O65  1  0.41916248  0.07008791  0.75074359  1
  O  O66  1  0.43897758  0.54602984  0.25040280  1
  O  O67  1  0.41859944  0.54014257  0.73066040  1
  O  O68  1  0.94695517  0.07430676  0.27550084  1
  O  O69  1  0.92345149  0.06586421  0.75026623  1
  O  O70  1  0.93883313  0.57011637  0.26973561  1
  O  O71  1  0.91793308  0.54284417  0.72792180  1
  O  O72  1  0.19140938  0.44937186  0.27294180  1
  O  O73  1  0.17190042  0.43196811  0.75174741  1
  O  O74  1  0.18686563  0.95531906  0.24715315  1
  O  O75  1  0.16706913  0.93921194  0.72877383  1
  O  O76  1  0.69561506  0.44981614  0.25375773  1
  O  O77  1  0.67264154  0.43440595  0.73210267  1
  O  O78  1  0.69096653  0.95356501  0.24818434  1
  O  O79  1  0.66692564  0.93419446  0.74703292  1
loop_
_geom_bond_atom_site_label_1
_geom_bond_atom_site_label_2
_geom_bond_distance
_geom_bond_site_symmetry_2
K0 O10 2.693928 1_545
K0 O48 2.709063 1_555
K0 O26 2.725085 1_545
K0 O1 2.726339 1_554
K0 O64 2.761330 1_555
K0 O17 2.811247 1_554
K0 O32 2.875759 1_555
K0 O36 2.954346 1_555
K1 O66 2.570035 1_555
K1 O8 2.625566 1_555
K1 O50 2.650100 1_555
K1 O24 2.699355 1_555
K1 O3 2.706238 1_554
K1 O19 2.765532 1_554
K1 O34 2.923279 1_555
K1 O38 3.028957 1_555
K1 O48 3.164986 1_555
K2 O52 2.625255 1_555
K2 O14 2.656698 1_545
K2 O30 2.700105 1_545
K2 O5 2.775544 1_554
K2 O68 2.787390 1_555
K2 O21 2.832127 1_554
K2 O36 2.883129 1_555
K2 O32 2.978975 1_655
K2 O54 3.275928 1_545
K3 O54 2.652416 1_555
K3 O12 2.659341 1_555
K3 O28 2.707240 1_555
K3 O70 2.725519 1_555
K3 O7 2.739583 1_554
K3 O23 2.779149 1_554
K3 O38 2.840178 1_555
K3 O34 2.941444 1_655
K3 O52 3.302741 1_555
K4 O58 2.588218 1_555
K4 O74 2.609546 1_555
K4 O0 2.634655 1_565
K4 O16 2.698686 1_565
K4 O11 2.737205 1_555
K4 O46 2.818265 1_455
K4 O27 2.844941 1_555
K4 O42 3.055086 1_555
K5 O75 2.658740 1_555
K5 O59 2.670194 1_555
K5 O1 2.696810 1_565
K5 O10 2.700392 1_556
K5 O17 2.733410 1_565
K5 O26 2.738028 1_556
K5 O47 2.759278 1_455
K5 O43 3.078509 1_555
K6 O76 2.540166 1_555
K6 O60 2.556119 1_555
K6 O6 2.591310 1_555
K6 O22 2.675889 1_555
K6 O13 2.740652 1_555
K6 O29 2.804448 1_555
K6 O40 2.854375 1_555
K6 O44 3.151232 1_555
K7 O61 2.623708 1_555
K7 O77 2.634885 1_555
K7 O7 2.647158 1_555
K7 O12 2.675786 1_556
K7 O23 2.699645 1_555
K7 O28 2.759958 1_556
K7 O41 2.811786 1_555
K7 O45 3.013038 1_555
K8 O78 2.615327 1_555
K8 O62 2.615975 1_555
K8 O4 2.659668 1_565
K8 O20 2.690315 1_565
K8 O15 2.760686 1_555
K8 O42 2.791834 1_555
K8 O31 2.807789 1_555
K8 O46 3.065527 1_555
K9 O28 2.656405 1_455
K9 O32 2.689247 1_555
K9 O8 2.721470 1_555
K9 O1 2.743401 1_554
K9 O72 2.750842 1_555
K9 O21 2.769668 1_454
K9 O52 2.827537 1_455
K9 O48 2.957169 1_555
K9 O34 3.255409 1_555
K10 O74 2.574518 1_555
K10 O30 2.657280 1_455
K10 O10 2.675261 1_555
K10 O34 2.686986 1_555
K10 O23 2.703853 1_454
K10 O3 2.792048 1_554
K10 O54 2.830873 1_455
K10 O50 3.015827 1_555
K10 O32 3.239445 1_565
K11 O76 2.611696 1_555
K11 O24 2.678353 1_555
K11 O36 2.679191 1_555
K11 O12 2.697219 1_555
K11 O17 2.702503 1_554
K11 O5 2.815022 1_554
K11 O48 2.859218 1_555
K11 O52 3.069352 1_555
K12 O78 2.578334 1_555
K12 O26 2.618018 1_555
K12 O38 2.630959 1_555
K12 O14 2.690107 1_555
K12 O19 2.752049 1_554
K12 O7 2.752662 1_554
K12 O50 2.870418 1_555
K12 O54 3.042981 1_555
K12 O36 3.193124 1_565
K13 O66 2.612488 1_555
K13 O42 2.616378 1_555
K13 O18 2.661358 1_555
K13 O6 2.687772 1_555
K13 O58 2.704053 1_555
K13 O27 2.773612 1_555
K13 O15 2.820770 1_555
K13 O62 3.057925 1_555
K14 O43 2.656489 1_555
K14 O67 2.664153 1_555
K14 O26 2.672545 1_556
K14 O19 2.676458 1_555
K14 O7 2.732062 1_555
K14 O14 2.753885 1_556
K14 O59 2.796627 1_555
K14 O63 2.991006 1_555
K15 O47 2.631243 1_555
K15 O71 2.663226 1_555
K15 O23 2.669986 1_555
K15 O30 2.702219 1_556
K15 O3 2.731900 1_655
K15 O10 2.758511 1_656
K15 O63 2.879871 1_555
K15 O59 3.032214 1_655
Na0 O49 2.358879 1_555
Na0 O65 2.500021 1_555
Na0 O11 2.535861 1_545
Na0 O0 2.538236 1_555
Na0 O27 2.603693 1_545
Na0 O33 2.647392 1_555
Na0 O16 2.726957 1_555
Na1 O51 2.353414 1_555
Na1 O67 2.353825 1_555
Na1 O9 2.403789 1_555
Na1 O25 2.565407 1_555
Na1 O2 2.590116 1_555
Na1 O18 2.590235 1_555
Na1 O35 2.716289 1_555
Na2 O53 2.349219 1_555
Na2 O15 2.448554 1_545
Na2 O69 2.500709 1_555
Na2 O4 2.522081 1_555
Na2 O31 2.606733 1_545
Na2 O20 2.716618 1_555
Na2 O37 2.796833 1_555
Na3 O71 2.317129 1_555
Na3 O55 2.406860 1_555
Na3 O13 2.451861 1_555
Na3 O6 2.466078 1_555
Na3 O39 2.640325 1_555
Na3 O29 2.651627 1_555
Na3 O22 2.674339 1_555
Na4 O72 2.341243 1_555
Na4 O56 2.358357 1_555
Na4 O2 2.404381 1_555
Na4 O9 2.559499 1_555
Na4 O18 2.602370 1_555
Na4 O25 2.714447 1_555
Na4 O44 2.721151 1_455
Na5 O57 2.456310 1_555
Na5 O73 2.457747 1_555
Na5 O3 2.483132 1_555
Na5 O8 2.501792 1_556
Na5 O19 2.567760 1_555
Na5 O24 2.586734 1_556
Na5 O45 2.877679 1_455
Na6 O14 2.498657 1_556
Na6 O5 2.500341 1_565
Na6 O79 2.511178 1_555
Na6 O63 2.515050 1_555
Na6 O30 2.597247 1_556
Na6 O21 2.634103 1_565
Na6 O43 2.775531 1_555
Na7 O33 2.366200 1_555
Na7 O29 2.478957 1_455
Na7 O20 2.519260 1_455
Na7 O73 2.529427 1_555
Na7 O53 2.586700 1_455
Na7 O0 2.637552 1_555
Na7 O9 2.652205 1_555
Na8 O75 2.337782 1_555
Na8 O35 2.354951 1_555
Na8 O31 2.416694 1_455
Na8 O22 2.486405 1_455
Na8 O11 2.561809 1_555
Na8 O2 2.747129 1_555
Na8 O55 2.781209 1_455
Na9 O77 2.349860 1_555
Na9 O37 2.372013 1_555
Na9 O25 2.448610 1_555
Na9 O16 2.506969 1_555
Na9 O13 2.579867 1_555
Na9 O4 2.611587 1_555
Na9 O49 2.724731 1_555
Na10 O39 2.348188 1_555
Na10 O27 2.455699 1_555
Na10 O79 2.477860 1_555
Na10 O18 2.550601 1_555
Na10 O15 2.561770 1_555
Na10 O6 2.620680 1_555
Na10 O51 2.776054 1_555
Na11 O64 2.345946 1_555
Na11 O40 2.377323 1_555
Na11 O16 2.395659 1_555
Na11 O25 2.572500 1_555
Na11 O4 2.586545 1_555
Na11 O13 2.703754 1_555
Na11 O56 2.802990 1_555
Na12 O41 2.450450 1_555
Na12 O65 2.459221 1_555
Na12 O17 2.463428 1_555
Na12 O24 2.522463 1_556
Na12 O5 2.591770 1_555
Na12 O12 2.597749 1_556
Na12 O57 2.841876 1_555
Na13 O68 2.342362 1_555
Na13 O44 2.404608 1_555
Na13 O20 2.434801 1_555
Na13 O29 2.543435 1_555
Na13 O0 2.588318 1_655
Na13 O60 2.711440 1_555
Na13 O9 2.735042 1_655
Na14 O45 2.486773 1_555
Na14 O69 2.490057 1_555
Na14 O21 2.506487 1_555
Na14 O28 2.521030 1_556
Na14 O1 2.598918 1_655
Na14 O8 2.610830 1_656
Na14 O61 2.664636 1_555
Na15 O70 2.378914 1_555
Na15 O46 2.444887 1_555
Na15 O22 2.478691 1_555
Na15 O31 2.571056 1_555
Na15 O2 2.616132 1_655
Na15 O11 2.696107 1_655
Na15 O62 2.741040 1_555
Mo0 O21 2.052407 1_465
Mo0 O10 2.071000 1_556
Mo0 O1 2.077970 1_565
Mo0 O30 2.086596 1_456
Mo0 O47 2.150551 1_455
Mo0 O32 2.194787 1_566
Mo1 O20 2.070406 1_455
Mo1 O0 2.077968 1_555
Mo1 O11 2.080429 1_545
Mo1 O31 2.085670 1_445
Mo1 O33 2.138181 1_555
Mo1 O46 2.196227 1_445
Mo2 O8 2.040338 1_556
Mo2 O28 2.047299 1_456
Mo2 O3 2.061245 1_555
Mo2 O23 2.069837 1_455
Mo2 O45 2.168728 1_455
Mo2 O34 2.273711 1_556
Mo3 O2 2.040254 1_555
Mo3 O9 2.057868 1_555
Mo3 O22 2.068585 1_455
Mo3 O29 2.088177 1_455
Mo3 O35 2.182356 1_555
Mo3 O44 2.184899 1_455
Mo4 O14 2.063329 1_556
Mo4 O5 2.063838 1_565
Mo4 O17 2.070181 1_565
Mo4 O26 2.086884 1_556
Mo4 O43 2.170322 1_555
Mo4 O36 2.206265 1_566
Mo5 O4 2.060244 1_555
Mo5 O16 2.071260 1_555
Mo5 O27 2.082362 1_545
Mo5 O15 2.096147 1_545
Mo5 O37 2.157020 1_555
Mo5 O42 2.204136 1_545
Mo6 O24 2.049350 1_556
Mo6 O7 2.066860 1_555
Mo6 O12 2.067741 1_556
Mo6 O19 2.073520 1_555
Mo6 O41 2.170151 1_555
Mo6 O38 2.184682 1_556
Mo7 O25 2.058386 1_555
Mo7 O13 2.063774 1_555
Mo7 O6 2.067914 1_555
Mo7 O18 2.070425 1_555
Mo7 O39 2.138439 1_555
Mo7 O40 2.214330 1_555
Mo8 O24 2.045554 1_556
Mo8 O1 2.051529 1_555
Mo8 O17 2.063682 1_555
Mo8 O8 2.066880 1_556
Mo8 O57 2.178780 1_555
Mo8 O48 2.221329 1_556
Mo9 O0 2.058887 1_555
Mo9 O25 2.061260 1_555
Mo9 O16 2.062346 1_555
Mo9 O9 2.072720 1_555
Mo9 O49 2.130322 1_555
Mo9 O56 2.208471 1_555
Mo10 O19 2.058389 1_555
Mo10 O10 2.063908 1_556
Mo10 O26 2.070570 1_556
Mo10 O3 2.076269 1_555
Mo10 O59 2.144885 1_555
Mo10 O50 2.275903 1_556
Mo11 O18 2.055123 1_555
Mo11 O11 2.066884 1_555
Mo11 O2 2.076487 1_555
Mo11 O27 2.116589 1_555
Mo11 O58 2.141651 1_555
Mo11 O51 2.170396 1_555
Mo12 O21 2.037387 1_555
Mo12 O5 2.050534 1_555
Mo12 O28 2.061846 1_556
Mo12 O12 2.083281 1_556
Mo12 O61 2.147824 1_555
Mo12 O52 2.242035 1_556
Mo13 O20 2.051748 1_555
Mo13 O4 2.065975 1_555
Mo13 O29 2.070136 1_555
Mo13 O13 2.101634 1_555
Mo13 O53 2.140225 1_555
Mo13 O60 2.173704 1_555
Mo14 O30 2.048292 1_556
Mo14 O14 2.054060 1_556
Mo14 O23 2.070033 1_555
Mo14 O7 2.072704 1_555
Mo14 O63 2.168687 1_555
Mo14 O54 2.256603 1_556
Mo15 O22 2.065777 1_555
Mo15 O6 2.073510 1_555
Mo15 O31 2.075956 1_555
Mo15 O15 2.086366 1_555
Mo15 O55 2.165272 1_555
Mo15 O62 2.174670 1_555
O32 W0 1.979682 1_555
O33 W1 1.962168 1_555
O34 W2 1.926087 1_555
O35 W3 1.908059 1_555
O36 W4 1.979484 1_555
O37 W5 1.935369 1_555
O38 W6 1.937209 1_555
O39 W7 1.939232 1_555
O40 W8 1.920527 1_555
O41 W9 1.919846 1_555
O42 W10 1.968998 1_555
O43 W11 1.963082 1_555
O44 W12 1.970188 1_555
O45 W13 1.930447 1_555
O46 W14 1.973832 1_555
O47 W15 1.948969 1_555
O48 W8 1.977915 1_555
O49 W9 1.957932 1_555
O50 W10 1.897044 1_555
O51 W11 1.914714 1_555
O52 W12 1.929205 1_555
O53 W13 1.946846 1_555
O54 W14 1.910377 1_555
O55 W15 1.934804 1_555
O56 W0 1.920323 1_555
O57 W1 1.917821 1_555
O58 W2 1.956274 1_555
O59 W3 1.963207 1_555
O60 W4 1.930736 1_555
O61 W5 1.949252 1_555
O62 W6 1.972758 1_555
O63 W7 1.945180 1_555
O64 W4 1.930463 1_555
O64 W10 2.093143 1_545
O65 W5 1.972169 1_555
O65 W11 2.056095 1_545
O66 W6 1.926985 1_555
O66 W8 2.059144 1_555
O67 W7 1.967901 1_555
O67 W9 2.060196 1_555
O68 W0 1.943827 1_655
O68 W14 2.079342 1_545
O69 W1 1.968552 1_655
O69 W15 2.057733 1_545
O70 W2 1.944944 1_655
O70 W12 2.058177 1_555
O71 W3 1.963982 1_655
O71 W13 2.043012 1_555
O72 W8 1.946419 1_555
O72 W2 2.069624 1_555
O73 W9 1.964668 1_555
O73 W3 2.063553 1_555
O74 W10 1.934866 1_555
O74 W0 2.052752 1_565
O75 W11 1.968551 1_555
O75 W1 2.056042 1_565
O76 W12 1.934979 1_555
O76 W6 2.026996 1_555
O77 W13 1.967077 1_555
O77 W7 2.045271 1_555
O78 W14 1.936263 1_555
O78 W4 2.039502 1_565
O79 W15 1.972592 1_555
O79 W5 2.050855 1_565
