# generated using pymatgen
data_NaP15
_symmetry_space_group_name_H-M   'P 1'
_cell_length_a   7.12188953
_cell_length_b   9.20999841
_cell_length_c   11.75052083
_cell_angle_alpha   92.56014519
_cell_angle_beta   98.99250602
_cell_angle_gamma   108.29080411
_symmetry_Int_Tables_number   1
_chemical_formula_structural   NaP15
_chemical_formula_sum   'Na2 P30'
_cell_volume   719.19232512
_cell_formula_units_Z   2
loop_
 _symmetry_equiv_pos_site_id
 _symmetry_equiv_pos_as_xyz
  1  'x, y, z'
loop_
 _atom_site_type_symbol
 _atom_site_label
 _atom_site_symmetry_multiplicity
 _atom_site_fract_x
 _atom_site_fract_y
 _atom_site_fract_z
 _atom_site_occupancy
  Na  Na0  1  0.79010993  0.78733403  0.00257270  1
  Na  Na1  1  0.20989007  0.21266597  0.99742730  1
  P  P0  1  0.66135100  0.31288729  0.57269885  1
  P  P1  1  0.33864900  0.68711271  0.42730115  1
  P  P2  1  0.70652887  0.13573986  0.83151347  1
  P  P3  1  0.29347113  0.86426014  0.16848653  1
  P  P4  1  0.34081266  0.80762224  0.85423736  1
  P  P5  1  0.65918734  0.19237776  0.14576264  1
  P  P6  1  0.74208157  0.51648864  0.83093688  1
  P  P7  1  0.25791843  0.48351136  0.16906312  1
  P  P8  1  0.52632479  0.92064950  0.72807964  1
  P  P9  1  0.47367521  0.07935050  0.27192036  1
  P  P10  1  0.50743615  0.28171449  0.82959196  1
  P  P11  1  0.49256385  0.71828551  0.17040804  1
  P  P12  1  0.98613848  0.55670541  0.16664344  1
  P  P13  1  0.01386152  0.44329459  0.83335656  1
  P  P14  1  0.02396720  0.90132036  0.66829636  1
  P  P15  1  0.97603280  0.09867964  0.33170364  1
  P  P16  1  0.20555879  0.59686574  0.73127037  1
  P  P17  1  0.79444121  0.40313426  0.26872963  1
  P  P18  1  0.88608599  0.24331294  0.70405046  1
  P  P19  1  0.11391401  0.75668706  0.29594954  1
  P  P20  1  0.61869171  0.76393381  0.35874686  1
  P  P21  1  0.38130829  0.23606619  0.64125314  1
  P  P22  1  0.10963195  0.91237299  0.85342681  1
  P  P23  1  0.89036805  0.08762701  0.14657319  1
  P  P24  1  0.69162267  0.54500928  0.64276522  1
  P  P25  1  0.30837733  0.45499072  0.35723478  1
  P  P26  1  0.98668764  0.66332496  0.60226230  1
  P  P27  1  0.01331236  0.33667504  0.39773770  1
  P  P28  1  0.30725666  0.98881692  0.60008439  1
  P  P29  1  0.69274334  0.01118308  0.39991561  1
loop_
_geom_bond_atom_site_label_1
_geom_bond_atom_site_label_2
_geom_bond_distance
_geom_bond_site_symmetry_2
Na0 P23 2.997792 1_565
Na0 P6 3.034192 1_554
Na0 P11 3.058917 1_555
Na0 P22 3.059098 1_654
Na0 P12 3.400510 1_555
Na0 P4 3.460184 1_554
Na1 P22 2.997792 1_545
Na1 P7 3.034192 1_556
Na1 P10 3.058917 1_555
Na1 P23 3.059098 1_456
Na1 P13 3.400510 1_555
Na1 P5 3.460184 1_556
P0 P24 2.189218 1_555
P0 P21 2.189680 1_555
P0 P18 2.305298 1_555
P1 P25 2.189218 1_555
P1 P20 2.189680 1_555
P1 P19 2.305298 1_555
P2 P8 2.179466 1_545
P3 P9 2.179466 1_565
P4 P8 2.216670 1_555
P5 P9 2.216670 1_555
P10 P21 2.222554 1_555
P10 P2 2.237793 1_555
P10 P6 2.277921 1_555
P11 P20 2.222554 1_555
P11 P3 2.237793 1_555
P11 P7 2.277921 1_555
P12 P17 2.180561 1_555
P12 P19 2.189699 1_655
P12 P7 2.237242 1_655
P13 P16 2.180561 1_555
P13 P18 2.189699 1_455
P13 P6 2.237242 1_455
P14 P22 2.154343 1_555
P14 P26 2.212583 1_455
P14 P28 2.214744 1_555
P15 P23 2.154343 1_555
P15 P27 2.212583 1_655
P15 P29 2.214744 1_555
P16 P4 2.219043 1_555
P16 P26 2.246220 1_455
P17 P5 2.219043 1_555
P17 P27 2.246220 1_655
P18 P2 2.190027 1_555
P19 P3 2.190027 1_555
P20 P29 2.183039 1_565
P21 P28 2.183039 1_545
P22 P4 2.152801 1_555
P23 P5 2.152801 1_555
P24 P26 2.179807 1_555
P24 P6 2.224839 1_555
P25 P27 2.179807 1_555
P25 P7 2.224839 1_555
P28 P8 2.248554 1_555
P29 P9 2.248554 1_555
