# generated using pymatgen
data_KLu3F10
_symmetry_space_group_name_H-M   'P 1'
_cell_length_a   8.04472233
_cell_length_b   8.04472233
_cell_length_c   13.14800500
_cell_angle_alpha   90.00000000
_cell_angle_beta   90.00000000
_cell_angle_gamma   120.00000272
_symmetry_Int_Tables_number   1
_chemical_formula_structural   KLu3F10
_chemical_formula_sum   'K4 Lu12 F40'
_cell_volume   736.90685711
_cell_formula_units_Z   4
loop_
 _symmetry_equiv_pos_site_id
 _symmetry_equiv_pos_as_xyz
  1  'x, y, z'
loop_
 _atom_site_type_symbol
 _atom_site_label
 _atom_site_symmetry_multiplicity
 _atom_site_fract_x
 _atom_site_fract_y
 _atom_site_fract_z
 _atom_site_occupancy
  K  K0  1  0.66666700  0.33333300  0.73165700  1
  K  K1  1  0.33333300  0.66666700  0.23165700  1
  K  K2  1  0.00000000  0.00000000  0.99402200  1
  K  K3  1  0.00000000  0.00000000  0.49402200  1
  Lu  Lu0  1  0.17415400  0.34830700  0.72599800  1
  Lu  Lu1  1  0.17415400  0.82584600  0.72599800  1
  Lu  Lu2  1  0.82584600  0.65169300  0.22599800  1
  Lu  Lu3  1  0.65169300  0.82584600  0.72599800  1
  Lu  Lu4  1  0.82584600  0.17415400  0.22599800  1
  Lu  Lu5  1  0.34830700  0.17415400  0.22599800  1
  Lu  Lu6  1  0.50561700  0.01123500  0.98430900  1
  Lu  Lu7  1  0.50561700  0.49438300  0.98430900  1
  Lu  Lu8  1  0.49438300  0.98876500  0.48430900  1
  Lu  Lu9  1  0.98876500  0.49438300  0.98430900  1
  Lu  Lu10  1  0.49438300  0.50561700  0.48430900  1
  Lu  Lu11  1  0.01123500  0.50561700  0.48430900  1
  F  F0  1  0.18427400  0.36854800  0.54911200  1
  F  F1  1  0.18427400  0.81572600  0.54911200  1
  F  F2  1  0.81572600  0.63145200  0.04911200  1
  F  F3  1  0.63145200  0.81572600  0.54911200  1
  F  F4  1  0.81572600  0.18427400  0.04911200  1
  F  F5  1  0.36854800  0.18427400  0.04911200  1
  F  F6  1  0.66666700  0.33333300  0.93904600  1
  F  F7  1  0.33333300  0.66666700  0.43904600  1
  F  F8  1  0.66666700  0.33333300  0.27601100  1
  F  F9  1  0.33333300  0.66666700  0.77601100  1
  F  F10  1  0.77749000  0.55498100  0.52067900  1
  F  F11  1  0.77749000  0.22251000  0.52067900  1
  F  F12  1  0.22251000  0.44501900  0.02067900  1
  F  F13  1  0.44501900  0.22251000  0.52067900  1
  F  F14  1  0.22251000  0.77749000  0.02067900  1
  F  F15  1  0.55498100  0.77749000  0.02067900  1
  F  F16  1  0.89018300  0.78036500  0.69163800  1
  F  F17  1  0.89018300  0.10981700  0.69163800  1
  F  F18  1  0.10981700  0.21963500  0.19163800  1
  F  F19  1  0.21963500  0.10981700  0.69163800  1
  F  F20  1  0.10981700  0.89018300  0.19163800  1
  F  F21  1  0.78036500  0.89018300  0.19163800  1
  F  F22  1  0.66136800  0.66467600  0.85448700  1
  F  F23  1  0.00330800  0.33863200  0.85448700  1
  F  F24  1  0.33863200  0.33532400  0.35448700  1
  F  F25  1  0.00330800  0.66467600  0.85448700  1
  F  F26  1  0.33532400  0.99669200  0.85448700  1
  F  F27  1  0.99669200  0.66136800  0.35448700  1
  F  F28  1  0.33532400  0.33863200  0.85448700  1
  F  F29  1  0.99669200  0.33532400  0.35448700  1
  F  F30  1  0.66467600  0.00330800  0.35448700  1
  F  F31  1  0.66467600  0.66136800  0.35448700  1
  F  F32  1  0.66136800  0.99669200  0.85448700  1
  F  F33  1  0.33863200  0.00330800  0.35448700  1
  F  F34  1  0.48086800  0.96173700  0.66067900  1
  F  F35  1  0.48086800  0.51913200  0.66067900  1
  F  F36  1  0.51913200  0.03826300  0.16067900  1
  F  F37  1  0.03826300  0.51913200  0.66067900  1
  F  F38  1  0.51913200  0.48086800  0.16067900  1
  F  F39  1  0.96173700  0.48086800  0.16067900  1
loop_
_geom_bond_atom_site_label_1
_geom_bond_atom_site_label_2
_geom_bond_distance
_geom_bond_site_symmetry_2
F0 Lu11 2.326942 1_555
F0 Lu10 2.326948 1_555
F0 Lu0 2.329969 1_555
F0 K3 2.667858 1_555
F1 Lu8 2.326948 1_555
F1 Lu11 2.326948 1_555
F1 Lu1 2.329969 1_555
F1 K3 2.667859 1_565
F2 Lu9 2.326942 1_554
F2 Lu7 2.326948 1_554
F2 Lu2 2.329969 1_555
F2 K2 2.667858 1_664
F3 Lu8 2.326942 1_555
F3 Lu10 2.326948 1_555
F3 Lu3 2.329969 1_555
F3 K3 2.667858 1_665
F4 Lu9 2.326948 1_554
F4 Lu6 2.326948 1_554
F4 Lu4 2.329969 1_555
F4 K2 2.667859 1_654
F5 Lu6 2.326942 1_554
F5 Lu7 2.326948 1_554
F5 Lu5 2.329969 1_555
F5 K2 2.667858 1_554
F6 Lu6 2.321607 1_555
F6 Lu9 2.321607 1_555
F6 Lu7 2.321621 1_555
F6 K0 2.726752 1_555
F7 Lu11 2.321607 1_555
F7 Lu8 2.321607 1_555
F7 Lu10 2.321621 1_555
F7 K1 2.726752 1_555
F8 Lu4 2.313403 1_555
F8 Lu2 2.313416 1_555
F8 Lu5 2.313416 1_555
F9 Lu1 2.313403 1_555
F9 Lu3 2.313416 1_555
F9 Lu0 2.313416 1_555
F10 Lu10 2.160789 1_555
F10 Lu11 2.160805 1_655
F10 K0 3.174794 1_555
F11 Lu11 2.160795 1_655
F11 Lu8 2.160795 1_545
F11 K0 3.174787 1_555
F12 Lu7 2.160789 1_554
F12 Lu9 2.160805 1_454
F12 K1 3.174794 1_555
F13 Lu10 2.160789 1_555
F13 Lu8 2.160805 1_545
F13 K0 3.174794 1_555
F14 Lu6 2.160795 1_564
F14 Lu9 2.160795 1_454
F14 K1 3.174787 1_555
F15 Lu7 2.160789 1_554
F15 Lu6 2.160805 1_564
F15 K1 3.174794 1_555
F16 Lu1 2.172765 1_655
F16 Lu3 2.172765 1_555
F16 K0 3.158577 1_555
F17 Lu0 2.172765 1_655
F17 Lu3 2.172765 1_545
F17 K0 3.158577 1_555
F18 Lu4 2.172765 1_455
F18 Lu5 2.172765 1_555
F18 K1 3.158577 1_555
F19 Lu1 2.172765 1_545
F19 Lu0 2.172765 1_555
F19 K0 3.158577 1_555
F20 Lu5 2.172765 1_565
F20 Lu2 2.172765 1_455
F20 K1 3.158577 1_555
F21 Lu4 2.172765 1_565
F21 Lu2 2.172765 1_555
F21 K1 3.158577 1_555
F22 Lu3 2.154541 1_555
F22 Lu7 2.154929 1_555
F22 K0 3.135091 1_555
F23 Lu0 2.154546 1_555
F23 Lu9 2.154932 1_455
F23 K0 3.135084 1_455
F24 Lu5 2.154541 1_555
F24 Lu10 2.154929 1_555
F24 K1 3.135091 1_555
F25 Lu1 2.154544 1_555
F25 Lu9 2.154927 1_455
F25 K0 3.135088 1_455
F26 Lu1 2.154544 1_555
F26 Lu6 2.154927 1_565
F26 K0 3.135088 1_565
F27 Lu2 2.154546 1_555
F27 Lu11 2.154932 1_655
F27 K1 3.135084 1_655
F28 Lu0 2.154541 1_555
F28 Lu7 2.154929 1_555
F28 K0 3.135091 1_555
F29 Lu4 2.154544 1_555
F29 Lu11 2.154927 1_655
F29 K1 3.135088 1_655
F30 Lu4 2.154544 1_555
F30 Lu8 2.154927 1_545
F30 K1 3.135088 1_545
F31 Lu2 2.154541 1_555
F31 Lu10 2.154929 1_555
F31 K1 3.135091 1_555
F32 Lu3 2.154546 1_555
F32 Lu6 2.154932 1_565
F32 K0 3.135084 1_565
F33 Lu5 2.154546 1_555
F33 Lu8 2.154932 1_545
F33 K1 3.135084 1_545
F34 Lu1 2.307262 1_555
F34 Lu3 2.307276 1_555
F34 Lu8 2.326546 1_555
F34 K0 2.751949 1_565
F35 Lu0 2.307263 1_555
F35 Lu3 2.307263 1_555
F35 Lu10 2.326548 1_555
F35 K0 2.751962 1_555
F36 Lu4 2.307262 1_555
F36 Lu5 2.307276 1_555
F36 Lu6 2.326546 1_554
F36 K1 2.751949 1_545
F37 Lu1 2.307262 1_555
F37 Lu0 2.307276 1_555
F37 Lu11 2.326546 1_555
F37 K0 2.751949 1_455
F38 Lu5 2.307263 1_555
F38 Lu2 2.307263 1_555
F38 Lu7 2.326548 1_554
F38 K1 2.751962 1_555
F39 Lu4 2.307262 1_555
F39 Lu2 2.307276 1_555
F39 Lu9 2.326546 1_554
F39 K1 2.751949 1_655
