# generated using pymatgen
data_Y2Ti3(SiO4)3
_symmetry_space_group_name_H-M   'P 1'
_cell_length_a   10.68420910
_cell_length_b   10.68420910
_cell_length_c   10.68420910
_cell_angle_alpha   109.47122063
_cell_angle_beta   109.47122063
_cell_angle_gamma   109.47122063
_symmetry_Int_Tables_number   1
_chemical_formula_structural   Y2Ti3(SiO4)3
_chemical_formula_sum   'Y8 Ti12 Si12 O48'
_cell_volume   938.86953319
_cell_formula_units_Z   4
loop_
 _symmetry_equiv_pos_site_id
 _symmetry_equiv_pos_as_xyz
  1  'x, y, z'
loop_
 _atom_site_type_symbol
 _atom_site_label
 _atom_site_symmetry_multiplicity
 _atom_site_fract_x
 _atom_site_fract_y
 _atom_site_fract_z
 _atom_site_occupancy
  Y  Y0  1  0.00000000  0.00000000  0.50000000  1
  Y  Y1  1  0.00000000  0.00000000  0.00000000  1
  Y  Y2  1  0.50000000  0.00000000  0.00000000  1
  Y  Y3  1  0.00000000  0.50000000  0.00000000  1
  Y  Y4  1  0.50000000  0.50000000  0.00000000  1
  Y  Y5  1  0.00000000  0.50000000  0.50000000  1
  Y  Y6  1  0.50000000  0.00000000  0.50000000  1
  Y  Y7  1  0.50000000  0.50000000  0.50000000  1
  Ti  Ti0  1  0.87500000  0.62500000  0.25000000  1
  Ti  Ti1  1  0.62500000  0.25000000  0.87500000  1
  Ti  Ti2  1  0.87500000  0.75000000  0.62500000  1
  Ti  Ti3  1  0.75000000  0.62500000  0.87500000  1
  Ti  Ti4  1  0.25000000  0.87500000  0.62500000  1
  Ti  Ti5  1  0.62500000  0.87500000  0.75000000  1
  Ti  Ti6  1  0.12500000  0.37500000  0.75000000  1
  Ti  Ti7  1  0.37500000  0.75000000  0.12500000  1
  Ti  Ti8  1  0.12500000  0.25000000  0.37500000  1
  Ti  Ti9  1  0.25000000  0.37500000  0.12500000  1
  Ti  Ti10  1  0.75000000  0.12500000  0.37500000  1
  Ti  Ti11  1  0.37500000  0.12500000  0.25000000  1
  Si  Si0  1  0.12500000  0.87500000  0.25000000  1
  Si  Si1  1  0.25000000  0.12500000  0.87500000  1
  Si  Si2  1  0.75000000  0.37500000  0.62500000  1
  Si  Si3  1  0.62500000  0.37500000  0.25000000  1
  Si  Si4  1  0.62500000  0.75000000  0.37500000  1
  Si  Si5  1  0.37500000  0.62500000  0.75000000  1
  Si  Si6  1  0.12500000  0.75000000  0.87500000  1
  Si  Si7  1  0.75000000  0.87500000  0.12500000  1
  Si  Si8  1  0.87500000  0.25000000  0.12500000  1
  Si  Si9  1  0.37500000  0.25000000  0.62500000  1
  Si  Si10  1  0.25000000  0.62500000  0.37500000  1
  Si  Si11  1  0.87500000  0.12500000  0.75000000  1
  O  O0  1  0.47808200  0.37194100  0.27263100  1
  O  O1  1  0.29454900  0.89385900  0.02191800  1
  O  O2  1  0.60614100  0.90068900  0.12805900  1
  O  O3  1  0.59931100  0.20545100  0.22736900  1
  O  O4  1  0.12805900  0.02191800  0.22736900  1
  O  O5  1  0.20545100  0.22736900  0.59931100  1
  O  O6  1  0.20545100  0.47808200  0.60614100  1
  O  O7  1  0.22736900  0.59931100  0.20545100  1
  O  O8  1  0.37194100  0.59931100  0.89385900  1
  O  O9  1  0.90068900  0.27263100  0.29454900  1
  O  O10  1  0.27263100  0.29454900  0.90068900  1
  O  O11  1  0.22736900  0.12805900  0.02191800  1
  O  O12  1  0.47808200  0.60614100  0.20545100  1
  O  O13  1  0.89385900  0.37194100  0.59931100  1
  O  O14  1  0.02191800  0.22736900  0.12805900  1
  O  O15  1  0.60614100  0.20545100  0.47808200  1
  O  O16  1  0.59931100  0.89385900  0.37194100  1
  O  O17  1  0.02191800  0.29454900  0.89385900  1
  O  O18  1  0.90068900  0.12805900  0.60614100  1
  O  O19  1  0.62805900  0.40068900  0.10614100  1
  O  O20  1  0.37194100  0.27263100  0.47808200  1
  O  O21  1  0.27263100  0.47808200  0.37194100  1
  O  O22  1  0.89385900  0.02191800  0.29454900  1
  O  O23  1  0.29454900  0.90068900  0.27263100  1
  O  O24  1  0.52191800  0.62805900  0.72736900  1
  O  O25  1  0.70545100  0.10614100  0.97808200  1
  O  O26  1  0.39385900  0.09931100  0.87194100  1
  O  O27  1  0.40068900  0.79454900  0.77263100  1
  O  O28  1  0.87194100  0.97808200  0.77263100  1
  O  O29  1  0.79454900  0.77263100  0.40068900  1
  O  O30  1  0.79454900  0.52191800  0.39385900  1
  O  O31  1  0.77263100  0.40068900  0.79454900  1
  O  O32  1  0.70545100  0.09931100  0.72736900  1
  O  O33  1  0.10614100  0.97808200  0.70545100  1
  O  O34  1  0.72736900  0.52191800  0.62805900  1
  O  O35  1  0.62805900  0.72736900  0.52191800  1
  O  O36  1  0.87194100  0.39385900  0.09931100  1
  O  O37  1  0.09931100  0.87194100  0.39385900  1
  O  O38  1  0.97808200  0.70545100  0.10614100  1
  O  O39  1  0.40068900  0.10614100  0.62805900  1
  O  O40  1  0.39385900  0.79454900  0.52191800  1
  O  O41  1  0.97808200  0.77263100  0.87194100  1
  O  O42  1  0.10614100  0.62805900  0.40068900  1
  O  O43  1  0.52191800  0.39385900  0.79454900  1
  O  O44  1  0.77263100  0.87194100  0.97808200  1
  O  O45  1  0.72736900  0.70545100  0.09931100  1
  O  O46  1  0.09931100  0.72736900  0.70545100  1
  O  O47  1  0.12805900  0.60614100  0.90068900  1
loop_
_geom_bond_atom_site_label_1
_geom_bond_atom_site_label_2
_geom_bond_distance
_geom_bond_site_symmetry_2
O0 Si3 1.657587 1_555
O0 Y7 2.240414 1_555
O0 Ti11 2.385880 1_555
O0 Ti9 2.439743 1_555
O1 Si6 1.657587 1_554
O1 Y2 2.240414 1_565
O1 Ti7 2.385880 1_555
O1 Ti11 2.439743 1_565
O2 Si7 1.657582 1_555
O2 Y2 2.240423 1_565
O2 Ti10 2.385884 1_565
O2 Ti7 2.439740 1_555
O3 Si3 1.657590 1_555
O3 Y2 2.240412 1_555
O3 Ti11 2.385889 1_555
O3 Ti10 2.439737 1_555
O4 Si0 1.657587 1_545
O4 Y1 2.240414 1_555
O4 Ti11 2.385880 1_555
O4 Ti8 2.439743 1_555
O5 Si9 1.657590 1_555
O5 Y0 2.240412 1_555
O5 Ti8 2.385889 1_555
O5 Ti6 2.439737 1_555
O6 Si5 1.657587 1_555
O6 Y5 2.240414 1_555
O6 Ti6 2.385880 1_555
O6 Ti8 2.439743 1_555
O7 Si10 1.657590 1_555
O7 Y3 2.240412 1_555
O7 Ti9 2.385889 1_555
O7 Ti7 2.439737 1_555
O8 Si5 1.657582 1_555
O8 Y4 2.240423 1_556
O8 Ti6 2.385884 1_555
O8 Ti7 2.439740 1_556
O9 Si8 1.657590 1_555
O9 Y5 2.240412 1_655
O9 Ti8 2.385889 1_655
O9 Ti10 2.439737 1_555
O10 Si1 1.657590 1_555
O10 Y4 2.240412 1_556
O10 Ti9 2.385889 1_556
O10 Ti6 2.439737 1_555
O11 Si1 1.657587 1_554
O11 Y1 2.240414 1_555
O11 Ti9 2.385880 1_555
O11 Ti11 2.439743 1_555
O12 Si4 1.657587 1_555
O12 Y4 2.240414 1_555
O12 Ti7 2.385880 1_555
O12 Ti9 2.439743 1_555
O13 Si2 1.657582 1_555
O13 Y5 2.240423 1_655
O13 Ti10 2.385884 1_555
O13 Ti6 2.439740 1_655
O14 Si8 1.657587 1_455
O14 Y1 2.240414 1_555
O14 Ti8 2.385880 1_555
O14 Ti9 2.439743 1_555
O15 Si2 1.657587 1_555
O15 Y6 2.240414 1_555
O15 Ti10 2.385880 1_555
O15 Ti11 2.439743 1_555
O16 Si4 1.657582 1_555
O16 Y6 2.240423 1_565
O16 Ti7 2.385884 1_555
O16 Ti10 2.439740 1_565
O17 Si11 1.657587 1_455
O17 Y3 2.240414 1_556
O17 Ti6 2.385880 1_555
O17 Ti9 2.439743 1_556
O18 Si11 1.657582 1_555
O18 Y0 2.240423 1_655
O18 Ti6 2.385884 1_655
O18 Ti10 2.439740 1_555
O19 Si3 1.657582 1_555
O19 Y4 2.240423 1_555
O19 Ti0 2.385884 1_555
O19 Ti1 2.439740 1_554
O20 Si9 1.657587 1_555
O20 Y7 2.240414 1_555
O20 Ti8 2.385880 1_555
O20 Ti11 2.439743 1_555
O21 Si10 1.657587 1_555
O21 Y7 2.240414 1_555
O21 Ti9 2.385880 1_555
O21 Ti8 2.439743 1_555
O22 Si7 1.657587 1_545
O22 Y0 2.240414 1_655
O22 Ti10 2.385880 1_555
O22 Ti8 2.439743 1_655
O23 Si0 1.657590 1_555
O23 Y6 2.240412 1_565
O23 Ti11 2.385889 1_565
O23 Ti7 2.439737 1_555
O24 Si5 1.657587 1_555
O24 Y7 2.240414 1_555
O24 Ti5 2.385880 1_555
O24 Ti3 2.439743 1_555
O25 Si8 1.657587 1_556
O25 Y2 2.240414 1_556
O25 Ti1 2.385880 1_555
O25 Ti5 2.439743 1_545
O26 Si1 1.657582 1_555
O26 Y2 2.240423 1_556
O26 Ti4 2.385884 1_545
O26 Ti1 2.439740 1_555
O27 Si5 1.657590 1_555
O27 Y2 2.240412 1_566
O27 Ti5 2.385889 1_555
O27 Ti4 2.439737 1_555
O28 Si11 1.657587 1_565
O28 Y1 2.240414 1_666
O28 Ti5 2.385880 1_555
O28 Ti2 2.439743 1_555
O29 Si4 1.657590 1_555
O29 Y0 2.240412 1_665
O29 Ti2 2.385889 1_555
O29 Ti0 2.439737 1_555
O30 Si3 1.657587 1_555
O30 Y5 2.240414 1_655
O30 Ti0 2.385880 1_555
O30 Ti2 2.439743 1_555
O31 Si2 1.657590 1_555
O31 Y3 2.240412 1_656
O31 Ti3 2.385889 1_555
O31 Ti1 2.439737 1_555
O32 Si11 1.657590 1_555
O32 Y6 2.240412 1_555
O32 Ti5 2.385889 1_545
O32 Ti1 2.439737 1_555
O33 Si1 1.657587 1_565
O33 Y0 2.240414 1_565
O33 Ti4 2.385880 1_555
O33 Ti2 2.439743 1_455
O34 Si2 1.657587 1_555
O34 Y7 2.240414 1_555
O34 Ti3 2.385880 1_555
O34 Ti2 2.439743 1_555
O35 Si4 1.657587 1_555
O35 Y7 2.240414 1_555
O35 Ti2 2.385880 1_555
O35 Ti5 2.439743 1_555
O36 Si8 1.657582 1_555
O36 Y3 2.240423 1_655
O36 Ti1 2.385884 1_554
O36 Ti0 2.439740 1_555
O37 Si0 1.657582 1_555
O37 Y0 2.240423 1_565
O37 Ti0 2.385884 1_455
O37 Ti4 2.439740 1_555
O38 Si0 1.657587 1_655
O38 Y3 2.240414 1_655
O38 Ti0 2.385880 1_555
O38 Ti3 2.439743 1_554
O39 Si9 1.657582 1_555
O39 Y6 2.240423 1_555
O39 Ti1 2.385884 1_555
O39 Ti4 2.439740 1_545
O40 Si10 1.657587 1_555
O40 Y6 2.240414 1_565
O40 Ti4 2.385880 1_555
O40 Ti5 2.439743 1_555
O41 Si6 1.657587 1_655
O41 Y1 2.240414 1_666
O41 Ti2 2.385880 1_555
O41 Ti3 2.439743 1_555
O42 Si10 1.657582 1_555
O42 Y5 2.240423 1_555
O42 Ti4 2.385884 1_555
O42 Ti0 2.439740 1_455
O43 Si9 1.657587 1_555
O43 Y4 2.240414 1_556
O43 Ti1 2.385880 1_555
O43 Ti3 2.439743 1_555
O44 Si7 1.657587 1_556
O44 Y1 2.240414 1_666
O44 Ti3 2.385880 1_555
O44 Ti5 2.439743 1_555
O45 Si7 1.657590 1_555
O45 Y4 2.240412 1_555
O45 Ti3 2.385889 1_554
O45 Ti0 2.439737 1_555
O46 Si6 1.657590 1_555
O46 Y5 2.240412 1_555
O46 Ti2 2.385889 1_455
O46 Ti4 2.439737 1_555
O47 Si6 1.657582 1_555
O47 Y3 2.240423 1_556
O47 Ti7 2.385884 1_556
O47 Ti6 2.439740 1_555
