# generated using pymatgen
data_SrNb2NiClO7
_symmetry_space_group_name_H-M   'P 1'
_cell_length_a   3.94186600
_cell_length_b   3.94186600
_cell_length_c   11.98949400
_cell_angle_alpha   90.00000000
_cell_angle_beta   90.00000000
_cell_angle_gamma   90.00000000
_symmetry_Int_Tables_number   1
_chemical_formula_structural   SrNb2NiClO7
_chemical_formula_sum   'Sr1 Nb2 Ni1 Cl1 O7'
_cell_volume   186.29644528
_cell_formula_units_Z   1
loop_
 _symmetry_equiv_pos_site_id
 _symmetry_equiv_pos_as_xyz
  1  'x, y, z'
loop_
 _atom_site_type_symbol
 _atom_site_label
 _atom_site_symmetry_multiplicity
 _atom_site_fract_x
 _atom_site_fract_y
 _atom_site_fract_z
 _atom_site_occupancy
  Sr  Sr0  1  0.50000000  0.50000000  0.00000000  1
  Nb  Nb0  1  0.00000000  0.00000000  0.80913600  1
  Nb  Nb1  1  0.00000000  0.00000000  0.19086400  1
  Ni  Ni0  1  0.00000000  0.00000000  0.50000000  1
  Cl  Cl0  1  0.50000000  0.50000000  0.50000000  1
  O  O0  1  0.50000000  0.00000000  0.15716300  1
  O  O1  1  0.00000000  0.00000000  0.65733900  1
  O  O2  1  0.50000000  0.00000000  0.84283700  1
  O  O3  1  0.00000000  0.00000000  0.34266100  1
  O  O4  1  0.00000000  0.50000000  0.15716300  1
  O  O5  1  0.00000000  0.50000000  0.84283700  1
  O  O6  1  0.00000000  0.00000000  0.00000000  1
loop_
_geom_bond_atom_site_label_1
_geom_bond_atom_site_label_2
_geom_bond_distance
_geom_bond_site_symmetry_2
Nb0 O1 1.819969 1_555
Nb0 O5 2.011924 1_545
Nb0 O2 2.011924 1_555
Nb0 O2 2.011924 1_455
Nb0 O5 2.011924 1_555
Nb0 O6 2.288363 1_556
Nb1 O3 1.819969 1_555
Nb1 O4 2.011924 1_545
Nb1 O0 2.011924 1_555
Nb1 O0 2.011924 1_455
Nb1 O4 2.011924 1_555
Nb1 O6 2.288363 1_555
Ni0 O1 1.886415 1_555
Ni0 O3 1.886415 1_555
Cl0 Ni0 2.787320 1_655
Cl0 Ni0 2.787320 1_665
Cl0 Ni0 2.787320 1_555
Cl0 Ni0 2.787320 1_565
O0 Sr0 2.726753 1_555
O0 Sr0 2.726753 1_545
O2 Sr0 2.726753 1_556
O2 Sr0 2.726753 1_546
O4 Sr0 2.726753 1_555
O4 Sr0 2.726753 1_455
O5 Sr0 2.726753 1_556
O5 Sr0 2.726753 1_456
O6 Sr0 2.787320 1_555
O6 Sr0 2.787320 1_455
O6 Sr0 2.787320 1_445
O6 Sr0 2.787320 1_545
