# generated using pymatgen
data_TbHo3
_symmetry_space_group_name_H-M   'P 1'
_cell_length_a   5.00476522
_cell_length_b   5.00476522
_cell_length_c   5.00476522
_cell_angle_alpha   90.00000000
_cell_angle_beta   90.00000000
_cell_angle_gamma   90.00000000
_symmetry_Int_Tables_number   1
_chemical_formula_structural   TbHo3
_chemical_formula_sum   'Tb1 Ho3'
_cell_volume   125.35773222
_cell_formula_units_Z   1
loop_
 _symmetry_equiv_pos_site_id
 _symmetry_equiv_pos_as_xyz
  1  'x, y, z'
loop_
 _atom_site_type_symbol
 _atom_site_label
 _atom_site_symmetry_multiplicity
 _atom_site_fract_x
 _atom_site_fract_y
 _atom_site_fract_z
 _atom_site_occupancy
  Tb  Tb0  1  -0.00000000  -0.00000000  -0.00000000  1
  Ho  Ho0  1  0.00000000  0.50000000  0.50000000  1
  Ho  Ho1  1  0.50000000  -0.00000000  0.50000000  1
  Ho  Ho2  1  0.50000000  0.50000000  -0.00000000  1
loop_
_geom_bond_atom_site_label_1
_geom_bond_atom_site_label_2
_geom_bond_distance
_geom_bond_site_symmetry_2
Ho0 Tb0 3.538903 1_565
Ho0 Ho2 3.538903 1_456
Ho0 Ho2 3.538903 1_455
Ho0 Ho1 3.538903 1_555
Ho0 Tb0 3.538903 1_566
Ho0 Ho2 3.538903 1_555
Ho0 Ho2 3.538903 1_556
Ho0 Ho1 3.538903 1_565
Ho0 Tb0 3.538903 1_555
Ho0 Tb0 3.538903 1_556
Ho0 Ho1 3.538903 1_455
Ho0 Ho1 3.538903 1_465
Ho1 Tb0 3.538903 1_656
Ho1 Tb0 3.538903 1_655
Ho1 Ho2 3.538903 1_545
Ho1 Ho2 3.538903 1_555
Ho1 Ho2 3.538903 1_556
Ho1 Tb0 3.538903 1_555
Ho1 Tb0 3.538903 1_556
Ho1 Ho2 3.538903 1_546
Ho2 Tb0 3.538903 1_565
Ho2 Tb0 3.538903 1_665
Ho2 Tb0 3.538903 1_655
Ho2 Tb0 3.538903 1_555
