# generated using pymatgen
data_GaN
_symmetry_space_group_name_H-M   'P 1'
_cell_length_a   11.94371371
_cell_length_b   11.69800562
_cell_length_c   11.82725790
_cell_angle_alpha   90.16143312
_cell_angle_beta   92.80950449
_cell_angle_gamma   90.09600534
_symmetry_Int_Tables_number   1
_chemical_formula_structural   GaN
_chemical_formula_sum   'Ga50 N50'
_cell_volume   1650.48092863
_cell_formula_units_Z   50
loop_
 _symmetry_equiv_pos_site_id
 _symmetry_equiv_pos_as_xyz
  1  'x, y, z'
loop_
 _atom_site_type_symbol
 _atom_site_label
 _atom_site_symmetry_multiplicity
 _atom_site_fract_x
 _atom_site_fract_y
 _atom_site_fract_z
 _atom_site_occupancy
  Ga  Ga0  1  0.79590245  0.66488871  0.61596786  1
  Ga  Ga1  1  0.26065279  0.27655651  0.35814660  1
  Ga  Ga2  1  0.96956773  0.28520974  0.86271119  1
  Ga  Ga3  1  0.71755758  0.65165857  0.33324109  1
  Ga  Ga4  1  0.46881081  0.27046845  0.31811529  1
  Ga  Ga5  1  0.57788245  0.73728807  0.63156346  1
  Ga  Ga6  1  0.67438595  0.92963673  0.71288839  1
  Ga  Ga7  1  0.12101166  0.43422923  0.41366871  1
  Ga  Ga8  1  0.73377184  0.35327756  0.28590741  1
  Ga  Ga9  1  0.95608123  0.67901750  0.00543148  1
  Ga  Ga10  1  0.88566065  0.82354544  0.84045387  1
  Ga  Ga11  1  0.04591554  0.87251155  0.09725316  1
  Ga  Ga12  1  0.58012375  0.51190096  0.79924873  1
  Ga  Ga13  1  0.72798873  0.31504677  0.98266454  1
  Ga  Ga14  1  0.03309969  0.24595717  0.47995459  1
  Ga  Ga15  1  0.43254108  0.75937669  0.96994422  1
  Ga  Ga16  1  0.78995790  0.16235724  0.38300871  1
  Ga  Ga17  1  0.57919919  0.53298927  0.04266736  1
  Ga  Ga18  1  0.84633820  0.51856753  0.14723035  1
  Ga  Ga19  1  0.08868657  0.15064335  0.74202256  1
  Ga  Ga20  1  0.02624509  0.05590197  0.28663786  1
  Ga  Ga21  1  0.29976612  0.48411916  0.24337387  1
  Ga  Ga22  1  0.05170865  0.32165065  0.22791304  1
  Ga  Ga23  1  0.52322929  0.53386071  0.24403877  1
  Ga  Ga24  1  0.39330793  0.61572982  0.76708742  1
  Ga  Ga25  1  0.47925486  0.04975582  0.32339657  1
  Ga  Ga26  1  0.21942999  0.08994183  0.15647263  1
  Ga  Ga27  1  0.09512875  0.58633559  0.24259575  1
  Ga  Ga28  1  0.01663651  0.81825398  0.60386925  1
  Ga  Ga29  1  0.80779191  0.06468877  0.83125400  1
  Ga  Ga30  1  0.06678216  0.40974303  0.03200931  1
  Ga  Ga31  1  0.44038425  0.74464879  0.32341619  1
  Ga  Ga32  1  0.22796145  0.67102218  0.88861146  1
  Ga  Ga33  1  0.08349079  0.56513510  0.58008294  1
  Ga  Ga34  1  0.56266164  0.88176515  0.17099109  1
  Ga  Ga35  1  0.07745123  0.05204048  0.92884523  1
  Ga  Ga36  1  0.68644952  0.87572518  0.41911834  1
  Ga  Ga37  1  0.68883650  0.73090711  0.11739469  1
  Ga  Ga38  1  0.29639253  0.74169394  0.54662267  1
  Ga  Ga39  1  0.12704059  0.76597984  0.36834966  1
  Ga  Ga40  1  0.93366448  0.14492933  0.05306532  1
  Ga  Ga41  1  0.84195575  0.88318997  0.27482861  1
  Ga  Ga42  1  0.25963790  0.12517575  0.50832121  1
  Ga  Ga43  1  0.00972167  0.59830828  0.78878031  1
  Ga  Ga44  1  0.32690998  0.88483920  0.11560519  1
  Ga  Ga45  1  0.21806373  0.70500966  0.11490719  1
  Ga  Ga46  1  0.02609709  0.99962011  0.51065183  1
  Ga  Ga47  1  0.27232630  0.95425640  0.38205055  1
  Ga  Ga48  1  0.92225001  0.58809186  0.40633364  1
  Ga  Ga49  1  0.71584575  0.70234038  0.88340853  1
  N  N0  1  0.41872725  0.40470897  0.51047361  1
  N  N1  1  0.89961379  0.41330400  0.65028077  1
  N  N2  1  0.69524921  0.44908398  0.53849001  1
  N  N3  1  0.11438998  0.13193574  0.58360091  1
  N  N4  1  0.13448789  0.72361787  0.53996217  1
  N  N5  1  0.92478674  0.73379591  0.70169681  1
  N  N6  1  0.00133478  0.54749498  0.10550944  1
  N  N7  1  0.67822401  0.62811685  0.73093970  1
  N  N8  1  0.41380308  0.98042000  0.68880537  1
  N  N9  1  0.33783868  0.50469510  0.02937367  1
  N  N10  1  0.80556885  0.50549250  0.30875970  1
  N  N11  1  0.57794655  0.69087886  0.97482002  1
  N  N12  1  0.23431918  0.30739843  0.75687566  1
  N  N13  1  0.60797303  0.20089236  0.03901421  1
  N  N14  1  0.46363352  0.05184893  0.90041746  1
  N  N15  1  0.31288567  0.33258734  0.71527210  1
  N  N16  1  0.61196715  0.12644389  0.10523042  1
  N  N17  1  0.71479270  0.99352974  0.54752153  1
  N  N18  1  0.13624134  0.17892458  0.25342265  1
  N  N19  1  0.79622828  0.64297252  0.03896657  1
  N  N20  1  0.32010833  0.22133913  0.06175007  1
  N  N21  1  0.37636809  0.24937732  0.99374023  1
  N  N22  1  0.58677955  0.28868413  0.72319658  1
  N  N23  1  0.87240951  0.73070395  0.32722665  1
  N  N24  1  0.15721793  0.90225962  0.75204975  1
  N  N25  1  0.30370937  0.78862921  0.39377339  1
  N  N26  1  0.68440224  0.72724684  0.50276266  1
  N  N27  1  0.53779491  0.88929603  0.33852864  1
  N  N28  1  0.21215950  0.84157265  0.80577257  1
  N  N29  1  0.91011616  0.27979831  0.14840177  1
  N  N30  1  0.74096603  0.09242614  0.53211557  1
  N  N31  1  0.94063308  0.97495118  0.85810285  1
  N  N32  1  0.35709988  0.04948920  0.65245058  1
  N  N33  1  0.94404849  0.11596030  0.41460476  1
  N  N34  1  0.33770641  0.00635429  0.23496301  1
  N  N35  1  0.10771625  0.93605486  0.37408077  1
  N  N36  1  0.29934061  0.45516022  0.95399335  1
  N  N37  1  0.81095248  0.34769672  0.13004704  1
  N  N38  1  0.92222321  0.32524487  0.61705107  1
  N  N39  1  0.82727266  0.20557974  0.91820830  1
  N  N40  1  0.93607313  0.97698980  0.16877301  1
  N  N41  1  0.46745296  0.47361195  0.55702865  1
  N  N42  1  0.68503114  0.35485637  0.52482494  1
  N  N43  1  0.17739475  0.97382214  0.04667714  1
  N  N44  1  0.57403955  0.38009812  0.28894711  1
  N  N45  1  0.41932749  0.70866416  0.63890671  1
  N  N46  1  0.51889327  0.97627525  0.91949137  1
  N  N47  1  0.61067132  0.05362237  0.17533979  1
  N  N48  1  0.55418166  0.20151684  0.70206109  1
  N  N49  1  0.63483017  0.43472564  0.93212210  1
loop_
_geom_bond_atom_site_label_1
_geom_bond_atom_site_label_2
_geom_bond_distance
_geom_bond_site_symmetry_2
Ga0 N5 1.971213 1_555
Ga0 N26 1.982991 1_555
Ga0 N7 2.048952 1_555
Ga1 N18 2.202824 1_555
Ga1 Ga7 2.593407 1_555
Ga2 N39 2.072306 1_555
Ga3 N10 2.036046 1_555
Ga3 N23 2.070820 1_555
Ga3 N26 2.242236 1_555
Ga4 N44 1.839261 1_555
Ga5 N45 1.928745 1_555
Ga5 N26 2.035315 1_555
Ga5 N7 2.079466 1_555
Ga6 N17 2.171728 1_555
Ga8 N44 1.935997 1_555
Ga8 N10 1.987064 1_555
Ga8 N37 2.101964 1_555
Ga9 N6 2.002656 1_655
Ga9 N19 2.013150 1_555
Ga10 N31 1.895311 1_555
Ga10 N5 2.020155 1_555
Ga11 N40 2.009664 1_455
Ga11 N43 2.078026 1_555
Ga11 Ga45 2.843276 1_555
Ga12 N49 1.902888 1_555
Ga12 N7 1.991840 1_555
Ga13 N49 1.870854 1_555
Ga13 N39 1.927520 1_555
Ga13 N37 1.997977 1_556
Ga13 N13 2.091505 1_556
Ga14 N33 1.987095 1_455
Ga14 N3 2.030108 1_555
Ga14 N38 2.334375 1_455
Ga14 Ga7 2.578835 1_555
Ga15 N11 1.912212 1_555
Ga16 N33 1.938664 1_555
Ga16 N30 2.056530 1_555
Ga17 N49 1.884536 1_554
Ga17 N11 2.015638 1_554
Ga18 N6 1.968110 1_655
Ga18 N10 2.000728 1_555
Ga18 N19 2.013442 1_555
Ga18 N37 2.049824 1_555
Ga19 N3 1.925401 1_555
Ga19 N12 2.525159 1_555
Ga20 N40 1.948735 1_445
Ga20 N33 1.972320 1_455
Ga20 N35 1.973845 1_545
Ga20 N18 1.999703 1_555
Ga21 N9 2.605139 1_555
Ga21 Ga7 3.062592 1_555
Ga22 N29 1.955181 1_455
Ga22 N18 1.968912 1_555
Ga22 Ga7 2.654804 1_555
Ga23 N44 1.965507 1_555
Ga24 N45 1.905556 1_555
Ga25 N34 2.007659 1_555
Ga25 N27 2.009544 1_545
Ga25 N47 2.408675 1_555
Ga26 N18 1.869213 1_555
Ga26 N34 1.922158 1_555
Ga26 N43 1.925460 1_545
Ga26 N20 2.280184 1_555
Ga27 N6 1.976430 1_555
Ga27 Ga45 2.566364 1_555
Ga27 Ga7 2.704861 1_555
Ga28 N5 1.909334 1_455
Ga28 N4 1.970524 1_555
Ga28 N24 2.559833 1_555
Ga29 N31 1.917873 1_545
Ga29 N39 1.947791 1_555
Ga30 N6 2.006576 1_555
Ga31 N25 1.937899 1_555
Ga31 N27 2.054267 1_555
Ga32 N28 2.229376 1_555
Ga32 Ga45 2.713053 1_556
Ga33 N4 2.015623 1_555
Ga33 Ga7 2.547844 1_555
Ga34 N27 2.019690 1_555
Ga34 N47 2.089442 1_565
Ga35 N31 2.010072 1_445
Ga35 N43 2.012983 1_546
Ga36 N27 1.980395 1_555
Ga36 N26 2.002002 1_555
Ga36 N17 2.063072 1_555
Ga37 N19 1.918189 1_555
Ga37 N11 2.142761 1_554
Ga38 N45 1.828570 1_555
Ga38 N25 1.896868 1_555
Ga38 N4 1.942648 1_555
Ga39 N35 2.004605 1_555
Ga39 N4 2.088373 1_555
Ga39 N25 2.132730 1_555
Ga40 N29 1.965248 1_555
Ga40 N39 2.114897 1_554
Ga40 N40 2.396789 1_545
Ga41 N23 1.919517 1_555
Ga41 N40 2.045205 1_555
Ga42 N3 1.989972 1_555
Ga42 N32 2.205043 1_555
Ga43 N5 2.124637 1_455
Ga44 N34 2.000077 1_565
Ga44 N43 2.192118 1_555
Ga44 Ga45 2.470862 1_555
Ga46 N33 2.001749 1_465
Ga46 N3 2.037168 1_565
Ga46 N35 2.064538 1_555
Ga47 N35 1.974819 1_555
Ga47 N25 1.978007 1_555
Ga47 N34 2.035952 1_565
Ga48 N23 1.992590 1_555
Ga48 N10 2.009753 1_555
Ga48 Ga7 2.979559 1_655
Ga49 N11 2.018464 1_555
Ga49 N7 2.029306 1_555
Ga49 N19 2.150644 1_556
N0 N41 1.120740 1_555
N1 N38 1.139113 1_555
N2 N42 1.119213 1_555
N12 N15 1.120110 1_555
N13 N16 1.172345 1_555
N14 N46 1.120959 1_545
N16 N47 1.191086 1_555
N17 N30 1.214446 1_565
N20 N21 1.122426 1_554
N22 N48 1.114235 1_555
N24 N28 1.140852 1_555
N29 N37 1.435159 1_555
N32 N8 1.127656 1_545
N36 N9 1.139322 1_556
