# generated using pymatgen
data_Ta3AlB8
_symmetry_space_group_name_H-M   'P 1'
_cell_length_a   3.04822916
_cell_length_b   3.04822916
_cell_length_c   13.45183536
_cell_angle_alpha   90.00000000
_cell_angle_beta   90.00000000
_cell_angle_gamma   120.00000002
_symmetry_Int_Tables_number   1
_chemical_formula_structural   Ta3AlB8
_chemical_formula_sum   'Ta3 Al1 B8'
_cell_volume   108.24488957
_cell_formula_units_Z   1
loop_
 _symmetry_equiv_pos_site_id
 _symmetry_equiv_pos_as_xyz
  1  'x, y, z'
loop_
 _atom_site_type_symbol
 _atom_site_label
 _atom_site_symmetry_multiplicity
 _atom_site_fract_x
 _atom_site_fract_y
 _atom_site_fract_z
 _atom_site_occupancy
  Ta  Ta0  1  0.00000000  -0.00000000  0.74529933  1
  Ta  Ta1  1  -0.00000000  0.00000000  0.50000000  1
  Ta  Ta2  1  -0.00000000  0.00000000  0.25470067  1
  Al  Al0  1  -0.00000000  0.00000000  0.00000000  1
  B  B0  1  0.66666700  0.33333300  0.87943685  1
  B  B1  1  0.66666700  0.33333300  0.62417722  1
  B  B2  1  0.66666700  0.33333300  0.37582278  1
  B  B3  1  0.66666700  0.33333300  0.12056315  1
  B  B4  1  0.33333300  0.66666700  0.87943685  1
  B  B5  1  0.33333300  0.66666700  0.62417722  1
  B  B6  1  0.33333300  0.66666700  0.37582278  1
  B  B7  1  0.33333300  0.66666700  0.12056315  1
loop_
_geom_bond_atom_site_label_1
_geom_bond_atom_site_label_2
_geom_bond_distance
_geom_bond_site_symmetry_2
Al0 B0 2.393209 1_454
Al0 B4 2.393209 1_544
Al0 B7 2.393209 1_545
Al0 B3 2.393209 1_455
Al0 B0 2.393211 1_444
Al0 B4 2.393211 1_554
Al0 B0 2.393211 1_554
Al0 B4 2.393211 1_444
Al0 B3 2.393211 1_555
Al0 B3 2.393211 1_445
Al0 B7 2.393211 1_555
Al0 B7 2.393211 1_445
B0 B4 1.759894 1_545
B0 B4 1.759894 1_655
B0 B4 1.759899 1_555
B0 Ta0 2.520530 1_655
B0 Ta0 2.520532 1_665
B0 Ta0 2.520532 1_555
B1 B5 1.759894 1_545
B1 B5 1.759894 1_655
B1 B5 1.759899 1_555
B1 Ta0 2.398311 1_655
B1 Ta0 2.398313 1_555
B1 Ta0 2.398313 1_665
B1 Ta1 2.426418 1_655
B1 Ta1 2.426419 1_665
B1 Ta1 2.426419 1_555
B2 B6 1.759894 1_545
B2 B6 1.759894 1_655
B2 B6 1.759899 1_555
B2 Ta2 2.398311 1_655
B2 Ta2 2.398313 1_665
B2 Ta2 2.398313 1_555
B2 Ta1 2.426418 1_655
B2 Ta1 2.426419 1_665
B2 Ta1 2.426419 1_555
B3 B7 1.759894 1_545
B3 B7 1.759894 1_655
B3 B7 1.759899 1_555
B3 Ta2 2.520530 1_655
B3 Ta2 2.520532 1_555
B3 Ta2 2.520532 1_665
B4 Ta0 2.520530 1_565
B4 Ta0 2.520532 1_665
B4 Ta0 2.520532 1_555
B5 Ta0 2.398311 1_565
B5 Ta0 2.398313 1_555
B5 Ta0 2.398313 1_665
B5 Ta1 2.426418 1_565
B5 Ta1 2.426419 1_665
B5 Ta1 2.426419 1_555
B6 Ta2 2.398311 1_565
B6 Ta2 2.398313 1_665
B6 Ta2 2.398313 1_555
B6 Ta1 2.426418 1_565
B6 Ta1 2.426419 1_665
B6 Ta1 2.426419 1_555
B7 Ta2 2.520530 1_565
B7 Ta2 2.520532 1_555
B7 Ta2 2.520532 1_665
