# generated using pymatgen
data_Re5Si3
_symmetry_space_group_name_H-M   'P 1'
_cell_length_a   4.95404300
_cell_length_b   7.13637156
_cell_length_c   7.13637156
_cell_angle_alpha   83.08036240
_cell_angle_beta   69.69007576
_cell_angle_gamma   69.69007576
_symmetry_Int_Tables_number   1
_chemical_formula_structural   Re5Si3
_chemical_formula_sum   'Re10 Si6'
_cell_volume   221.90231645
_cell_formula_units_Z   2
loop_
 _symmetry_equiv_pos_site_id
 _symmetry_equiv_pos_as_xyz
  1  'x, y, z'
loop_
 _atom_site_type_symbol
 _atom_site_label
 _atom_site_symmetry_multiplicity
 _atom_site_fract_x
 _atom_site_fract_y
 _atom_site_fract_z
 _atom_site_occupancy
  Re  Re0  1  0.72346500  0.84973700  0.70333300  1
  Re  Re1  1  0.27653500  0.15026300  0.29666700  1
  Re  Re2  1  0.77653500  0.29666700  0.15026300  1
  Re  Re3  1  0.22346500  0.70333300  0.84973700  1
  Re  Re4  1  0.57320200  0.70333300  0.15026300  1
  Re  Re5  1  0.42679800  0.29666700  0.84973700  1
  Re  Re6  1  0.07320200  0.15026300  0.70333300  1
  Re  Re7  1  0.92679800  0.84973700  0.29666700  1
  Re  Re8  1  0.75000000  0.50000000  0.50000000  1
  Re  Re9  1  0.25000000  0.50000000  0.50000000  1
  Si  Si0  1  0.17058700  0.50000000  0.15882600  1
  Si  Si1  1  0.82941300  0.50000000  0.84117400  1
  Si  Si2  1  0.32941300  0.84117400  0.50000000  1
  Si  Si3  1  0.67058700  0.15882600  0.50000000  1
  Si  Si4  1  0.25000000  0.00000000  0.00000000  1
  Si  Si5  1  0.75000000  0.00000000  0.00000000  1
loop_
_geom_bond_atom_site_label_1
_geom_bond_atom_site_label_2
_geom_bond_distance
_geom_bond_site_symmetry_2
Re0 Si3 2.476119 1_565
Re0 Si1 2.515920 1_555
Re0 Si5 2.547054 1_566
Re0 Si4 2.547055 1_566
Re0 Re7 2.721691 1_555
Re0 Si2 2.826804 1_555
Re0 Si2 2.826804 1_655
Re0 Re3 2.838274 1_555
Re0 Re3 2.838274 1_655
Re0 Re8 2.977349 1_555
Re0 Re9 2.977349 1_655
Re1 Si2 2.476119 1_545
Re1 Si0 2.515920 1_555
Re1 Si4 2.547054 1_555
Re1 Si5 2.547055 1_555
Re1 Re6 2.721691 1_555
Re1 Si3 2.826804 1_555
Re1 Si3 2.826804 1_455
Re1 Re2 2.838274 1_555
Re1 Re2 2.838274 1_455
Re1 Re9 2.977349 1_555
Re1 Re8 2.977349 1_455
Re2 Si1 2.476119 1_554
Re2 Si3 2.515920 1_555
Re2 Si5 2.547054 1_555
Re2 Si4 2.547055 1_655
Re2 Re4 2.721691 1_555
Re2 Si0 2.826804 1_655
Re2 Si0 2.826804 1_555
Re2 Re8 2.977349 1_555
Re2 Re9 2.977349 1_555
Re3 Si0 2.476119 1_556
Re3 Si2 2.515920 1_555
Re3 Si4 2.547054 1_566
Re3 Si5 2.547055 1_466
Re3 Re5 2.721691 1_555
Re3 Si1 2.826804 1_455
Re3 Si1 2.826804 1_555
Re3 Re9 2.977349 1_555
Re3 Re8 2.977349 1_555
Re4 Si1 2.476119 1_554
Re4 Si2 2.515920 1_555
Re4 Si5 2.547055 1_565
Re4 Si4 2.547055 1_565
Re4 Si0 2.826804 1_555
Re4 Si0 2.826804 1_655
Re4 Re7 2.838274 1_555
Re4 Re7 2.838274 1_455
Re4 Re8 2.977349 1_555
Re4 Re9 2.977349 1_555
Re5 Si0 2.476119 1_556
Re5 Si3 2.515920 1_555
Re5 Si4 2.547055 1_556
Re5 Si5 2.547055 1_556
Re5 Si1 2.826804 1_555
Re5 Si1 2.826804 1_455
Re5 Re6 2.838274 1_555
Re5 Re6 2.838274 1_655
Re5 Re9 2.977349 1_555
Re5 Re8 2.977349 1_555
Re6 Si2 2.476119 1_545
Re6 Si1 2.515920 1_455
Re6 Si4 2.547055 1_556
Re6 Si5 2.547055 1_456
Re6 Si3 2.826804 1_455
Re6 Si3 2.826804 1_555
Re6 Re9 2.977349 1_555
Re6 Re8 2.977349 1_455
Re7 Si3 2.476119 1_565
Re7 Si0 2.515920 1_655
Re7 Si5 2.547055 1_565
Re7 Si4 2.547055 1_665
Re7 Si2 2.826804 1_655
Re7 Si2 2.826804 1_555
Re7 Re8 2.977349 1_555
Re7 Re9 2.977349 1_655
Re8 Re9 2.477022 1_555
Re8 Re9 2.477022 1_655
Re8 Si1 2.597634 1_555
Re8 Si3 2.597634 1_555
Re8 Si2 2.597634 1_555
Re8 Si0 2.597634 1_655
Re9 Si0 2.597634 1_555
Re9 Si2 2.597634 1_555
Re9 Si3 2.597634 1_555
Re9 Si1 2.597634 1_455
Si4 Si5 2.477022 1_555
Si4 Si5 2.477022 1_455
