# generated using pymatgen
data_Ba6Gd2Al4O15
_symmetry_space_group_name_H-M   'P 1'
_cell_length_a   5.99818700
_cell_length_b   7.98704500
_cell_length_c   18.60767197
_cell_angle_alpha   88.52891081
_cell_angle_beta   90.00000000
_cell_angle_gamma   90.00000000
_symmetry_Int_Tables_number   1
_chemical_formula_structural   Ba6Gd2Al4O15
_chemical_formula_sum   'Ba12 Gd4 Al8 O30'
_cell_volume   891.15861455
_cell_formula_units_Z   2
loop_
 _symmetry_equiv_pos_site_id
 _symmetry_equiv_pos_as_xyz
  1  'x, y, z'
loop_
 _atom_site_type_symbol
 _atom_site_label
 _atom_site_symmetry_multiplicity
 _atom_site_fract_x
 _atom_site_fract_y
 _atom_site_fract_z
 _atom_site_occupancy
  Ba  Ba0  1  0.75738300  0.50163900  0.08238500  1
  Ba  Ba1  1  0.24261700  0.49836100  0.91761500  1
  Ba  Ba2  1  0.75738300  0.49836100  0.41761500  1
  Ba  Ba3  1  0.24261700  0.50163900  0.58238500  1
  Ba  Ba4  1  0.74468200  0.96910700  0.09008100  1
  Ba  Ba5  1  0.25531800  0.03089300  0.90991900  1
  Ba  Ba6  1  0.74468200  0.03089300  0.40991900  1
  Ba  Ba7  1  0.25531800  0.96910700  0.59008100  1
  Ba  Ba8  1  0.72409800  0.00000000  0.75000000  1
  Ba  Ba9  1  0.27590200  0.00000000  0.25000000  1
  Ba  Ba10  1  0.66990800  0.50000000  0.75000000  1
  Ba  Ba11  1  0.33009200  0.50000000  0.25000000  1
  Gd  Gd0  1  0.74599800  0.75221300  0.90999600  1
  Gd  Gd1  1  0.25400200  0.24778700  0.09000400  1
  Gd  Gd2  1  0.74599800  0.24778700  0.59000400  1
  Gd  Gd3  1  0.25400200  0.75221300  0.40999600  1
  Al  Al0  1  0.75151700  0.75262000  0.55683700  1
  Al  Al1  1  0.24848300  0.24738000  0.44316300  1
  Al  Al2  1  0.75151700  0.24738000  0.94316300  1
  Al  Al3  1  0.24848300  0.75262000  0.05683700  1
  Al  Al4  1  0.77268100  0.77979200  0.26670000  1
  Al  Al5  1  0.22731900  0.22020800  0.73330000  1
  Al  Al6  1  0.77268100  0.22020800  0.23330000  1
  Al  Al7  1  0.22731900  0.77979200  0.76670000  1
  O  O0  1  0.21054500  0.00000000  0.75000000  1
  O  O1  1  0.78945500  0.00000000  0.25000000  1
  O  O2  1  0.49260700  0.76393900  0.00090100  1
  O  O3  1  0.50739300  0.23606100  0.99909900  1
  O  O4  1  0.49260700  0.23606100  0.49909900  1
  O  O5  1  0.50739300  0.76393900  0.50090100  1
  O  O6  1  0.75936000  0.94249500  0.60705400  1
  O  O7  1  0.24064000  0.05750500  0.39294600  1
  O  O8  1  0.75936000  0.05750500  0.89294600  1
  O  O9  1  0.24064000  0.94249500  0.10705400  1
  O  O10  1  0.00858500  0.76206800  0.99796800  1
  O  O11  1  0.99141500  0.23793200  0.00203200  1
  O  O12  1  0.00858500  0.23793200  0.50203200  1
  O  O13  1  0.99141500  0.76206800  0.49796800  1
  O  O14  1  0.31378300  0.69372400  0.68588800  1
  O  O15  1  0.68621700  0.30627600  0.31411200  1
  O  O16  1  0.31378300  0.30627600  0.81411200  1
  O  O17  1  0.68621700  0.69372400  0.18588800  1
  O  O18  1  0.44507600  0.75192700  0.83248200  1
  O  O19  1  0.55492400  0.24807300  0.16751800  1
  O  O20  1  0.44507600  0.24807300  0.66751800  1
  O  O21  1  0.55492400  0.75192700  0.33248200  1
  O  O22  1  0.96845500  0.73023000  0.80858100  1
  O  O23  1  0.03154500  0.26977000  0.19141900  1
  O  O24  1  0.96845500  0.26977000  0.69141900  1
  O  O25  1  0.03154500  0.73023000  0.30858100  1
  O  O26  1  0.75444700  0.54169200  0.59323900  1
  O  O27  1  0.24555300  0.45830800  0.40676100  1
  O  O28  1  0.75444700  0.45830800  0.90676100  1
  O  O29  1  0.24555300  0.54169200  0.09323900  1
loop_
_geom_bond_atom_site_label_1
_geom_bond_atom_site_label_2
_geom_bond_distance
_geom_bond_site_symmetry_2
Ba0 O17 2.529220 1_555
Ba0 O19 2.814441 1_555
Ba0 O29 2.953036 1_655
Ba0 O11 2.967166 1_555
Ba0 O10 2.982720 1_654
Ba0 O2 3.007854 1_555
Ba0 O3 3.052609 1_554
Ba0 O29 3.093811 1_555
Ba0 O23 3.171340 1_655
Ba0 O28 3.295099 1_554
Ba1 O16 2.529220 1_555
Ba1 O18 2.814441 1_555
Ba1 O28 2.953036 1_455
Ba1 O10 2.967166 1_555
Ba1 O11 2.982720 1_456
Ba1 O3 3.007854 1_555
Ba1 O2 3.052609 1_556
Ba1 O28 3.093811 1_555
Ba1 O22 3.171340 1_455
Ba1 O29 3.295099 1_556
Ba2 O15 2.529220 1_555
Ba2 O21 2.814441 1_555
Ba2 O27 2.953036 1_655
Ba2 O13 2.967166 1_555
Ba2 O12 2.982720 1_655
Ba2 O4 3.007854 1_555
Ba2 O5 3.052609 1_555
Ba2 O27 3.093811 1_555
Ba2 O25 3.171340 1_655
Ba2 O26 3.295099 1_555
Ba3 O14 2.529220 1_555
Ba3 O20 2.814441 1_555
Ba3 O26 2.953036 1_455
Ba3 O12 2.967166 1_555
Ba3 O13 2.982720 1_455
Ba3 O5 3.007854 1_555
Ba3 O4 3.052609 1_555
Ba3 O26 3.093811 1_555
Ba3 O24 3.171340 1_455
Ba3 O27 3.295099 1_555
Ba4 O2 2.804417 1_555
Ba4 O17 2.817377 1_555
Ba4 O10 2.885055 1_654
Ba4 O19 2.915665 1_565
Ba4 O9 2.998534 1_655
Ba4 O1 3.004266 1_565
Ba4 O3 3.041832 1_564
Ba4 O9 3.046646 1_555
Ba4 O11 3.050255 1_565
Ba5 O3 2.804417 1_555
Ba5 O16 2.817377 1_555
Ba5 O11 2.885055 1_456
Ba5 O18 2.915665 1_545
Ba5 O8 2.998534 1_455
Ba5 O0 3.004266 1_555
Ba5 O2 3.041832 1_546
Ba5 O8 3.046646 1_555
Ba5 O10 3.050255 1_545
Ba6 O4 2.804417 1_555
Ba6 O15 2.817377 1_555
Ba6 O12 2.885055 1_655
Ba6 O21 2.915665 1_545
Ba6 O7 2.998534 1_655
Ba6 O1 3.004266 1_555
Ba6 O5 3.041832 1_545
Ba6 O7 3.046646 1_555
Ba6 O13 3.050255 1_545
Ba7 O5 2.804417 1_555
Ba7 O14 2.817377 1_555
Ba7 O13 2.885055 1_455
Ba7 O20 2.915665 1_565
Ba7 O6 2.998534 1_455
Ba7 O0 3.004266 1_565
Ba7 O4 3.041832 1_565
Ba7 O6 3.046646 1_555
Ba7 O12 3.050255 1_565
Ba8 O8 2.719088 1_555
Ba8 O6 2.719088 1_545
Ba8 O22 2.803299 1_545
Ba8 O24 2.803299 1_555
Ba8 O0 2.917800 1_655
Ba8 O18 2.987694 1_545
Ba8 O20 2.987694 1_555
Ba8 O0 3.080387 1_555
Ba9 O7 2.719088 1_555
Ba9 O9 2.719088 1_545
Ba9 O25 2.803299 1_545
Ba9 O23 2.803299 1_555
Ba9 O1 2.917800 1_455
Ba9 O19 2.987694 1_555
Ba9 O21 2.987694 1_545
Ba9 O1 3.080387 1_555
Ba10 O24 2.807007 1_555
Ba10 O22 2.807007 1_555
Ba10 O16 2.878444 1_555
Ba10 O14 2.878444 1_555
Ba10 O18 2.895101 1_555
Ba10 O20 2.895101 1_555
Ba10 O28 2.970990 1_555
Ba10 O26 2.970990 1_555
Ba11 O25 2.807007 1_555
Ba11 O23 2.807007 1_555
Ba11 O15 2.878444 1_555
Ba11 O17 2.878444 1_555
Ba11 O19 2.895101 1_555
Ba11 O21 2.895101 1_555
Ba11 O29 2.970990 1_555
Ba11 O27 2.970990 1_555
Gd0 O10 2.274467 1_655
Gd0 O2 2.277770 1_556
Gd0 O18 2.310528 1_555
Gd0 O22 2.321516 1_555
Gd0 O28 2.350295 1_555
Gd0 O8 2.452154 1_565
Gd1 O11 2.274467 1_455
Gd1 O3 2.277770 1_554
Gd1 O19 2.310528 1_555
Gd1 O23 2.321516 1_555
Gd1 O29 2.350295 1_555
Gd1 O9 2.452154 1_545
Gd2 O12 2.274467 1_655
Gd2 O4 2.277770 1_555
Gd2 O20 2.310528 1_555
Gd2 O24 2.321516 1_555
Gd2 O26 2.350295 1_555
Gd2 O6 2.452154 1_545
Gd3 O13 2.274467 1_455
Gd3 O5 2.277770 1_555
Gd3 O21 2.310528 1_555
Gd3 O25 2.321516 1_555
Gd3 O27 2.350295 1_555
Gd3 O7 2.452154 1_565
Al0 O5 1.797461 1_555
Al0 O26 1.799643 1_555
Al0 O6 1.802224 1_555
Al0 O13 1.808859 1_555
Al1 O4 1.797461 1_555
Al1 O27 1.799643 1_555
Al1 O7 1.802224 1_555
Al1 O12 1.808859 1_555
Al2 O3 1.797461 1_555
Al2 O28 1.799643 1_555
Al2 O8 1.802224 1_555
Al2 O11 1.808859 1_556
Al3 O2 1.797461 1_555
Al3 O29 1.799643 1_555
Al3 O9 1.802224 1_555
Al3 O10 1.808859 1_554
Al4 O17 1.748082 1_555
Al4 O25 1.777387 1_655
Al4 O1 1.781023 1_565
Al4 O21 1.799962 1_555
Al5 O16 1.748082 1_555
Al5 O24 1.777387 1_455
Al5 O0 1.781023 1_555
Al5 O20 1.799962 1_555
Al6 O15 1.748082 1_555
Al6 O23 1.777387 1_655
Al6 O1 1.781023 1_555
Al6 O19 1.799962 1_555
Al7 O14 1.748082 1_555
Al7 O22 1.777387 1_455
Al7 O0 1.781023 1_565
Al7 O18 1.799962 1_555
