# generated using pymatgen
data_RbBi3S5
_symmetry_space_group_name_H-M   'P 1'
_cell_length_a   4.17759600
_cell_length_b   13.13753000
_cell_length_c   18.70990400
_cell_angle_alpha   90.00000000
_cell_angle_beta   90.00000000
_cell_angle_gamma   90.00000000
_symmetry_Int_Tables_number   1
_chemical_formula_structural   RbBi3S5
_chemical_formula_sum   'Rb4 Bi12 S20'
_cell_volume   1026.86113908
_cell_formula_units_Z   4
loop_
 _symmetry_equiv_pos_site_id
 _symmetry_equiv_pos_as_xyz
  1  'x, y, z'
loop_
 _atom_site_type_symbol
 _atom_site_label
 _atom_site_symmetry_multiplicity
 _atom_site_fract_x
 _atom_site_fract_y
 _atom_site_fract_z
 _atom_site_occupancy
  Rb  Rb0  1  0.50000000  0.91977100  0.38482700  1
  Rb  Rb1  1  0.50000000  0.08022900  0.61517300  1
  Rb  Rb2  1  0.00000000  0.41977100  0.11517300  1
  Rb  Rb3  1  0.00000000  0.58022900  0.88482700  1
  Bi  Bi0  1  0.50000000  0.55524600  0.34606600  1
  Bi  Bi1  1  0.50000000  0.44475400  0.65393400  1
  Bi  Bi2  1  0.00000000  0.05524600  0.15393400  1
  Bi  Bi3  1  0.00000000  0.94475400  0.84606600  1
  Bi  Bi4  1  0.50000000  0.76805800  0.69395800  1
  Bi  Bi5  1  0.50000000  0.23194200  0.30604200  1
  Bi  Bi6  1  0.00000000  0.26805800  0.80604200  1
  Bi  Bi7  1  0.00000000  0.73194200  0.19395800  1
  Bi  Bi8  1  0.50000000  0.83908800  0.02882200  1
  Bi  Bi9  1  0.50000000  0.16091200  0.97117800  1
  Bi  Bi10  1  0.00000000  0.33908800  0.47117800  1
  Bi  Bi11  1  0.00000000  0.66091200  0.52882200  1
  S  S0  1  0.50000000  0.50000000  0.50000000  1
  S  S1  1  0.00000000  0.00000000  0.00000000  1
  S  S2  1  0.00000000  0.00000000  0.50000000  1
  S  S3  1  0.50000000  0.50000000  0.00000000  1
  S  S4  1  0.50000000  0.20406800  0.44655000  1
  S  S5  1  0.50000000  0.79593200  0.55345000  1
  S  S6  1  0.00000000  0.70406800  0.05345000  1
  S  S7  1  0.00000000  0.29593200  0.94655000  1
  S  S8  1  0.50000000  0.81128600  0.86877700  1
  S  S9  1  0.50000000  0.18871400  0.13122300  1
  S  S10  1  0.00000000  0.31128600  0.63122300  1
  S  S11  1  0.00000000  0.68871400  0.36877700  1
  S  S12  1  0.50000000  0.89324900  0.17242200  1
  S  S13  1  0.50000000  0.10675100  0.82757800  1
  S  S14  1  0.00000000  0.39324900  0.32757800  1
  S  S15  1  0.00000000  0.60675100  0.67242200  1
  S  S16  1  0.50000000  0.59595700  0.20371400  1
  S  S17  1  0.50000000  0.40404300  0.79628600  1
  S  S18  1  0.00000000  0.09595700  0.29628600  1
  S  S19  1  0.00000000  0.90404300  0.70371400  1
loop_
_geom_bond_atom_site_label_1
_geom_bond_atom_site_label_2
_geom_bond_distance
_geom_bond_site_symmetry_2
Rb0 S2 3.180803 1_565
Rb0 S2 3.180803 1_665
Rb0 S18 3.530578 1_565
Rb0 S18 3.530578 1_665
Rb0 S5 3.549711 1_555
Rb0 S11 3.696975 1_655
Rb0 S11 3.696975 1_555
Rb1 S2 3.180803 1_655
Rb1 S2 3.180803 1_555
Rb1 S19 3.530578 1_645
Rb1 S19 3.530578 1_545
Rb1 S4 3.549711 1_555
Rb1 S10 3.696975 1_555
Rb1 S10 3.696975 1_655
Rb2 S3 3.180803 1_455
Rb2 S3 3.180803 1_555
Rb2 S16 3.530578 1_455
Rb2 S16 3.530578 1_555
Rb2 S7 3.549711 1_554
Rb2 S9 3.696975 1_555
Rb2 S9 3.696975 1_455
Rb3 S3 3.180803 1_456
Rb3 S3 3.180803 1_556
Rb3 S17 3.530578 1_455
Rb3 S17 3.530578 1_555
Rb3 S6 3.549711 1_556
Rb3 S8 3.696975 1_555
Rb3 S8 3.696975 1_455
Bi0 S16 2.716563 1_555
Bi0 S11 2.760106 1_655
Bi0 S11 2.760106 1_555
Bi0 S0 2.970135 1_555
Bi0 S14 3.002022 1_655
Bi0 S14 3.002022 1_555
Bi1 S17 2.716563 1_555
Bi1 S10 2.760106 1_555
Bi1 S10 2.760106 1_655
Bi1 S0 2.970135 1_555
Bi1 S15 3.002022 1_655
Bi1 S15 3.002022 1_555
Bi2 S18 2.716563 1_555
Bi2 S9 2.760106 1_455
Bi2 S9 2.760106 1_555
Bi2 S1 2.970135 1_555
Bi2 S12 3.002022 1_445
Bi2 S12 3.002022 1_545
Bi3 S19 2.716563 1_555
Bi3 S8 2.760106 1_555
Bi3 S8 2.760106 1_455
Bi3 S1 2.970135 1_566
Bi3 S13 3.002022 1_565
Bi3 S13 3.002022 1_465
Bi4 S5 2.654274 1_555
Bi4 S19 2.754633 1_555
Bi4 S19 2.754633 1_655
Bi4 S15 3.002722 1_655
Bi4 S15 3.002722 1_555
Bi5 S4 2.654274 1_555
Bi5 S18 2.754633 1_655
Bi5 S18 2.754633 1_555
Bi5 S14 3.002722 1_555
Bi5 S14 3.002722 1_655
Bi6 S7 2.654274 1_555
Bi6 S17 2.754633 1_455
Bi6 S17 2.754633 1_555
Bi6 S13 3.002722 1_455
Bi6 S13 3.002722 1_555
Bi7 S6 2.654274 1_555
Bi7 S16 2.754633 1_455
Bi7 S16 2.754633 1_555
Bi7 S12 3.002722 1_555
Bi7 S12 3.002722 1_455
Bi8 S6 2.778826 1_555
Bi8 S6 2.778826 1_655
Bi8 S12 2.779366 1_555
Bi8 S8 3.016620 1_554
Bi8 S1 3.020399 1_665
Bi8 S1 3.020399 1_565
Bi9 S7 2.778826 1_555
Bi9 S7 2.778826 1_655
Bi9 S13 2.779366 1_555
Bi9 S9 3.016620 1_556
Bi9 S1 3.020399 1_656
Bi9 S1 3.020399 1_556
Bi10 S4 2.778826 1_455
Bi10 S4 2.778826 1_555
Bi10 S14 2.779366 1_555
Bi10 S10 3.016620 1_555
Bi10 S0 3.020399 1_555
Bi10 S0 3.020399 1_455
Bi11 S5 2.778826 1_555
Bi11 S5 2.778826 1_455
Bi11 S15 2.779366 1_555
Bi11 S11 3.016620 1_555
Bi11 S0 3.020399 1_455
Bi11 S0 3.020399 1_555
