# generated using pymatgen
data_Nd3Tm
_symmetry_space_group_name_H-M   'P 1'
_cell_length_a   7.41409101
_cell_length_b   7.41409101
_cell_length_c   5.84122646
_cell_angle_alpha   90.00000000
_cell_angle_beta   90.00000000
_cell_angle_gamma   119.99999868
_symmetry_Int_Tables_number   1
_chemical_formula_structural   Nd3Tm
_chemical_formula_sum   'Nd6 Tm2'
_cell_volume   278.06767600
_cell_formula_units_Z   2
loop_
 _symmetry_equiv_pos_site_id
 _symmetry_equiv_pos_as_xyz
  1  'x, y, z'
loop_
 _atom_site_type_symbol
 _atom_site_label
 _atom_site_symmetry_multiplicity
 _atom_site_fract_x
 _atom_site_fract_y
 _atom_site_fract_z
 _atom_site_occupancy
  Nd  Nd0  1  0.16849886  0.33699872  0.25000000  1
  Nd  Nd1  1  0.66300128  0.83150114  0.25000000  1
  Nd  Nd2  1  0.16849886  0.83150114  0.25000000  1
  Nd  Nd3  1  0.83150114  0.66300128  0.75000000  1
  Nd  Nd4  1  0.33699872  0.16849886  0.75000000  1
  Nd  Nd5  1  0.83150114  0.16849886  0.75000000  1
  Tm  Tm0  1  0.33333300  0.66666700  0.75000000  1
  Tm  Tm1  1  0.66666700  0.33333300  0.25000000  1
loop_
_geom_bond_atom_site_label_1
_geom_bond_atom_site_label_2
_geom_bond_distance
_geom_bond_site_symmetry_2
Nd0 Tm0 3.607012 1_554
Nd0 Tm0 3.607012 1_555
Nd0 Nd5 3.634828 1_455
Nd0 Nd5 3.634828 1_454
Nd0 Nd4 3.634836 1_555
Nd0 Nd4 3.634836 1_554
Nd0 Nd2 3.666286 1_555
Nd0 Nd1 3.666286 1_555
Nd0 Tm1 3.707113 1_455
Nd0 Tm1 3.707128 1_555
Nd0 Nd2 3.747805 1_545
Nd0 Nd1 3.747805 1_445
Nd1 Tm0 3.607012 1_554
Nd1 Tm0 3.607012 1_555
Nd1 Nd5 3.634828 1_564
Nd1 Nd5 3.634828 1_565
Nd1 Nd3 3.634836 1_555
Nd1 Nd3 3.634836 1_554
Nd1 Nd2 3.666286 1_555
Nd1 Tm1 3.707113 1_565
Nd1 Tm1 3.707128 1_555
Nd1 Nd2 3.747805 1_655
Nd2 Tm0 3.607012 1_555
Nd2 Tm0 3.607012 1_554
Nd2 Nd4 3.634828 1_564
Nd2 Nd4 3.634828 1_565
Nd2 Nd3 3.634828 1_454
Nd2 Nd3 3.634828 1_455
Nd2 Tm1 3.707120 1_455
Nd2 Tm1 3.707120 1_565
Nd3 Tm1 3.607012 1_555
Nd3 Tm1 3.607012 1_556
Nd3 Nd5 3.666286 1_555
Nd3 Nd4 3.666286 1_555
Nd3 Tm0 3.707113 1_655
Nd3 Tm0 3.707128 1_555
Nd3 Nd5 3.747805 1_565
Nd3 Nd4 3.747805 1_665
Nd4 Tm1 3.607012 1_555
Nd4 Tm1 3.607012 1_556
Nd4 Nd5 3.666286 1_555
Nd4 Tm0 3.707113 1_545
Nd4 Tm0 3.707128 1_555
Nd4 Nd5 3.747805 1_455
Nd5 Tm1 3.607012 1_556
Nd5 Tm1 3.607012 1_555
Nd5 Tm0 3.707120 1_545
Nd5 Tm0 3.707120 1_655
