# generated using pymatgen
data_Sm4Fe27Co7C2
_symmetry_space_group_name_H-M   'P 1'
_cell_length_a   6.48240917
_cell_length_b   6.48240917
_cell_length_c   12.90920776
_cell_angle_alpha   83.56157155
_cell_angle_beta   83.56157155
_cell_angle_gamma   83.55520972
_symmetry_Int_Tables_number   1
_chemical_formula_structural   Sm4Fe27Co7C2
_chemical_formula_sum   'Sm4 Fe27 Co7 C2'
_cell_volume   532.90894106
_cell_formula_units_Z   1
loop_
 _symmetry_equiv_pos_site_id
 _symmetry_equiv_pos_as_xyz
  1  'x, y, z'
loop_
 _atom_site_type_symbol
 _atom_site_label
 _atom_site_symmetry_multiplicity
 _atom_site_fract_x
 _atom_site_fract_y
 _atom_site_fract_z
 _atom_site_occupancy
  Sm  Sm0  1  0.66185700  0.66185700  0.32438000  1
  Sm  Sm1  1  0.66149700  0.66149700  0.82400400  1
  Sm  Sm2  1  0.33902200  0.33902200  0.17633400  1
  Sm  Sm3  1  0.33897300  0.33897300  0.67601000  1
  Fe  Fe0  1  0.34199200  0.34199200  0.42506500  1
  Fe  Fe1  1  0.34237600  0.34237600  0.92585100  1
  Fe  Fe2  1  0.34044600  0.84925400  0.17111500  1
  Fe  Fe3  1  0.34083300  0.84964400  0.67060700  1
  Fe  Fe4  1  0.84925400  0.34044600  0.17111500  1
  Fe  Fe5  1  0.84964400  0.34083300  0.67060700  1
  Fe  Fe6  1  0.65735200  0.65735200  0.07436000  1
  Fe  Fe7  1  0.65902100  0.65902100  0.57346900  1
  Fe  Fe8  1  0.66055700  0.14875800  0.33033800  1
  Fe  Fe9  1  0.65939500  0.15033600  0.82917000  1
  Fe  Fe10  1  0.14875800  0.66055700  0.33033800  1
  Fe  Fe11  1  0.15033600  0.65939500  0.82917000  1
  Fe  Fe12  1  0.28607500  0.71446900  0.99988200  1
  Fe  Fe13  1  0.28700800  0.71275500  0.49995800  1
  Fe  Fe14  1  0.71207100  0.99976100  0.14356100  1
  Fe  Fe15  1  0.71227900  0.00024100  0.64313500  1
  Fe  Fe16  1  0.99918200  0.28844100  0.35673500  1
  Fe  Fe17  1  0.00012600  0.28815100  0.85632500  1
  Fe  Fe18  1  0.28844100  0.99918200  0.35673500  1
  Fe  Fe19  1  0.28815100  0.00012600  0.85632500  1
  Fe  Fe20  1  0.99976100  0.71207100  0.14356100  1
  Fe  Fe21  1  0.00024100  0.71227900  0.64313500  1
  Fe  Fe22  1  0.71446900  0.28607500  0.99988200  1
  Fe  Fe23  1  0.71275500  0.28700800  0.49995800  1
  Fe  Fe24  1  0.90470300  0.90470300  0.95243300  1
  Fe  Fe25  1  0.09504300  0.09504300  0.04735700  1
  Fe  Fe26  1  0.09244600  0.09244600  0.54632700  1
  Co  Co0  1  0.00005300  0.00005300  0.25032700  1
  Co  Co1  1  0.00020300  0.00020300  0.74975900  1
  Co  Co2  1  0.00006200  0.50033400  0.99991400  1
  Co  Co3  1  0.00018600  0.49987800  0.50009400  1
  Co  Co4  1  0.49987800  0.00018600  0.50009400  1
  Co  Co5  1  0.50033400  0.00006200  0.99991400  1
  Co  Co6  1  0.90502500  0.90502500  0.45259300  1
  C  C0  1  0.50007500  0.50007500  0.99998300  1
  C  C1  1  0.50011900  0.50011900  0.50008200  1
loop_
_geom_bond_atom_site_label_1
_geom_bond_atom_site_label_2
_geom_bond_distance
_geom_bond_site_symmetry_2
Fe0 Fe16 2.553111 1_455
Fe0 Fe18 2.553111 1_545
Fe0 Fe10 2.554490 1_555
Fe0 Fe8 2.554490 1_555
Fe0 Fe26 2.671279 1_555
Fe1 Fe11 2.555299 1_555
Fe1 Fe9 2.555299 1_555
Fe1 Fe19 2.558070 1_555
Fe1 Fe17 2.558070 1_555
Fe1 Fe25 2.655301 1_556
Fe2 Fe20 2.546101 1_455
Fe2 Fe6 2.554819 1_555
Fe2 Fe25 2.655514 1_565
Fe2 Sm0 3.090083 1_555
Fe2 Sm2 3.182093 1_565
Fe2 Sm2 3.301687 1_555
Fe3 Fe7 2.559118 1_555
Fe3 Sm1 3.089031 1_555
Fe3 Sm3 3.179250 1_565
Fe3 Sm3 3.304634 1_555
Fe4 Fe8 2.543557 1_555
Fe4 Fe6 2.554819 1_555
Fe4 Sm0 3.090083 1_555
Fe4 Sm2 3.182093 1_655
Fe4 Sm2 3.301687 1_555
Fe5 Fe9 2.538627 1_555
Fe5 Fe7 2.559118 1_555
Fe5 Sm1 3.089031 1_555
Fe5 Sm3 3.179250 1_655
Fe5 Sm3 3.304634 1_555
Fe8 Sm2 3.101664 1_555
Fe8 Sm0 3.164884 1_545
Fe8 Sm0 3.319310 1_555
Fe9 Sm3 3.086665 1_555
Fe9 Sm1 3.175495 1_545
Fe9 Sm1 3.308270 1_555
Fe10 Fe13 2.527174 1_555
Fe10 Fe18 2.537257 1_555
Fe10 Fe2 2.543557 1_555
Fe10 Fe20 2.669703 1_455
Fe10 Fe16 2.672383 1_455
Fe10 Sm2 3.101664 1_555
Fe10 Sm0 3.164884 1_455
Fe10 Sm0 3.319310 1_555
Fe11 Fe12 2.537738 1_555
Fe11 Fe3 2.538627 1_555
Fe11 Fe19 2.546855 1_565
Fe11 Fe24 2.650835 1_455
Fe11 Fe21 2.663878 1_555
Fe11 Fe17 2.668864 1_555
Fe11 Sm3 3.086665 1_555
Fe11 Sm1 3.175495 1_455
Fe11 Sm1 3.308270 1_555
Fe12 Fe19 2.468582 1_565
Fe12 Fe20 2.472483 1_456
Fe12 Fe2 2.539857 1_556
Fe12 Fe25 2.734671 1_566
Fe12 Fe24 2.737433 1_455
Fe13 Fe18 2.469026 1_555
Fe13 Fe21 2.470087 1_555
Fe13 Fe3 2.538194 1_555
Fe13 Fe26 2.733366 1_565
Fe14 Fe22 2.472483 1_564
Fe14 Fe20 2.484978 1_555
Fe14 Fe4 2.546101 1_565
Fe14 Fe6 2.557959 1_555
Fe14 Fe8 2.669703 1_565
Fe14 Fe2 2.671974 1_555
Fe14 Fe24 2.739324 1_554
Fe14 Fe25 2.750964 1_665
Fe14 Sm0 3.032416 1_555
Fe14 Sm2 3.106262 1_565
Fe15 Fe23 2.470087 1_555
Fe15 Fe21 2.487328 1_645
Fe15 Fe5 2.545799 1_555
Fe15 Fe7 2.551041 1_545
Fe15 Fe9 2.663878 1_555
Fe15 Fe3 2.671171 1_545
Fe15 Fe26 2.732169 1_655
Fe15 Sm1 3.036762 1_545
Fe15 Sm3 3.105392 1_555
Fe16 Fe23 2.469026 1_555
Fe16 Fe18 2.498531 1_645
Fe16 Fe8 2.537257 1_555
Fe16 Fe4 2.658498 1_555
Fe16 Fe26 2.726156 1_655
Fe16 Sm2 3.037173 1_655
Fe16 Sm0 3.099243 1_555
Fe17 Fe22 2.468582 1_455
Fe17 Fe19 2.487872 1_555
Fe17 Fe9 2.546855 1_455
Fe17 Fe5 2.661234 1_455
Fe17 Fe25 2.739008 1_556
Fe17 Fe24 2.753520 1_445
Fe17 Sm3 3.032396 1_555
Fe17 Sm1 3.104235 1_455
Fe18 Fe2 2.658498 1_555
Fe18 Fe8 2.672383 1_565
Fe18 Fe26 2.726156 1_565
Fe18 Sm2 3.037173 1_565
Fe18 Sm0 3.099243 1_555
Fe19 Fe3 2.661234 1_545
Fe19 Fe9 2.668864 1_555
Fe19 Fe25 2.739008 1_556
Fe19 Fe24 2.753520 1_445
Fe19 Sm3 3.032396 1_555
Fe19 Sm1 3.104235 1_545
Fe20 Fe6 2.557959 1_555
Fe20 Fe4 2.671974 1_555
Fe20 Fe24 2.739324 1_554
Fe20 Fe25 2.750964 1_665
Fe20 Sm0 3.032416 1_555
Fe20 Sm2 3.106262 1_655
Fe21 Fe3 2.545799 1_555
Fe21 Fe7 2.551041 1_455
Fe21 Fe5 2.671171 1_455
Fe21 Fe26 2.732169 1_565
Fe21 Sm1 3.036762 1_455
Fe21 Sm3 3.105392 1_555
Fe22 Fe9 2.537738 1_555
Fe22 Fe4 2.539857 1_556
Fe22 Fe25 2.734671 1_656
Fe22 Fe24 2.737433 1_545
Fe23 Fe8 2.527174 1_555
Fe23 Fe5 2.538194 1_555
Fe23 Fe26 2.733366 1_655
Fe24 Fe25 2.359315 1_666
Fe24 Fe9 2.650835 1_565
Fe24 Fe6 2.657921 1_556
Fe24 Sm1 3.074111 1_555
Fe25 Fe4 2.655514 1_455
Fe25 Sm2 3.085063 1_555
Fe26 Fe3 2.662316 1_545
Fe26 Fe5 2.662316 1_455
Fe26 Sm3 3.111871 1_555
Co0 Fe18 2.439995 1_545
Co0 Fe16 2.439995 1_455
Co0 Fe14 2.441934 1_445
Co0 Fe20 2.441934 1_445
Co0 Fe8 2.465084 1_455
Co0 Fe10 2.465084 1_545
Co0 Fe2 2.470643 1_545
Co0 Fe4 2.470643 1_455
Co0 Co6 2.634478 1_445
Co0 Fe25 2.642938 1_555
Co0 Sm0 3.265788 1_445
Co0 Sm2 3.272833 1_555
Co1 Fe17 2.439716 1_555
Co1 Fe19 2.439716 1_555
Co1 Fe15 2.440112 1_455
Co1 Fe21 2.440112 1_545
Co1 Fe5 2.471067 1_455
Co1 Fe3 2.471067 1_545
Co1 Fe11 2.472251 1_545
Co1 Fe9 2.472251 1_455
Co1 Fe24 2.640335 1_445
Co1 Fe26 2.643418 1_555
Co1 Sm3 3.270547 1_555
Co1 Sm1 3.270860 1_445
Co2 Fe20 2.427352 1_456
Co2 Fe17 2.428844 1_555
Co2 Fe22 2.435991 1_455
Co2 Fe12 2.437586 1_555
Co2 Fe11 2.470771 1_555
Co2 Fe1 2.473924 1_555
Co2 Fe6 2.475479 1_456
Co2 Fe4 2.478617 1_456
Co2 Fe24 2.643829 1_455
Co2 Fe25 2.649011 1_556
Co2 Sm1 3.337061 1_455
Co2 Sm2 3.343744 1_556
Co3 Fe21 2.424038 1_555
Co3 Fe16 2.424279 1_455
Co3 Fe13 2.436387 1_555
Co3 Fe23 2.440145 1_455
Co3 Fe10 2.460636 1_555
Co3 Fe7 2.467728 1_455
Co3 Fe5 2.468939 1_455
Co3 Fe0 2.475279 1_555
Co3 Co6 2.648415 1_455
Co3 Fe26 2.657338 1_555
Co3 Sm0 3.335040 1_455
Co3 Sm3 3.337851 1_555
Co4 Fe15 2.424038 1_555
Co4 Fe18 2.424279 1_545
Co4 Fe23 2.436387 1_555
Co4 Fe13 2.440145 1_545
Co4 Fe8 2.460636 1_555
Co4 Fe7 2.467728 1_545
Co4 Fe3 2.468939 1_545
Co4 Fe0 2.475279 1_555
Co4 Co6 2.648415 1_545
Co4 Fe26 2.657338 1_555
Co4 Sm0 3.335040 1_545
Co4 Sm3 3.337851 1_555
Co5 Fe14 2.427352 1_546
Co5 Fe19 2.428844 1_555
Co5 Fe12 2.435991 1_545
Co5 Fe22 2.437586 1_555
Co5 Fe9 2.470771 1_555
Co5 Fe1 2.473924 1_555
Co5 Fe6 2.475479 1_546
Co5 Fe2 2.478617 1_546
Co5 Fe24 2.643829 1_545
Co5 Fe25 2.649011 1_556
Co5 Sm1 3.337061 1_545
Co5 Sm2 3.343744 1_556
Co6 Fe26 2.325319 1_665
Co6 Fe8 2.634025 1_565
Co6 Fe10 2.634025 1_655
Co6 Fe7 2.641168 1_555
Co6 Fe21 2.733235 1_655
Co6 Fe15 2.733235 1_565
Co6 Fe23 2.744911 1_565
Co6 Fe13 2.744911 1_655
Co6 Fe16 2.750042 1_565
Co6 Fe18 2.750042 1_655
Co6 Sm0 3.071977 1_555
C0 Fe22 1.850169 1_555
C0 Fe12 1.850169 1_555
C0 Fe6 1.916562 1_556
C0 Fe1 1.918150 1_555
C0 Sm1 2.555448 1_555
C0 Sm2 2.557582 1_556
C1 Fe13 1.838739 1_555
C1 Fe23 1.838739 1_555
C1 Fe7 1.922366 1_555
C1 Fe0 1.928827 1_555
C1 Sm3 2.553651 1_555
C1 Sm0 2.554060 1_555
