# generated using pymatgen
data_CeLuO3
_symmetry_space_group_name_H-M   'P 1'
_cell_length_a   5.77030300
_cell_length_b   5.98980200
_cell_length_c   8.34453800
_cell_angle_alpha   90.00000000
_cell_angle_beta   90.00000000
_cell_angle_gamma   90.00000000
_symmetry_Int_Tables_number   1
_chemical_formula_structural   CeLuO3
_chemical_formula_sum   'Ce4 Lu4 O12'
_cell_volume   288.41203700
_cell_formula_units_Z   4
loop_
 _symmetry_equiv_pos_site_id
 _symmetry_equiv_pos_as_xyz
  1  'x, y, z'
loop_
 _atom_site_type_symbol
 _atom_site_label
 _atom_site_symmetry_multiplicity
 _atom_site_fract_x
 _atom_site_fract_y
 _atom_site_fract_z
 _atom_site_occupancy
  Ce  Ce0  1  0.01310500  0.44526400  0.25000000  1
  Ce  Ce1  1  0.98689500  0.55473600  0.75000000  1
  Ce  Ce2  1  0.51310500  0.05473600  0.75000000  1
  Ce  Ce3  1  0.48689500  0.94526400  0.25000000  1
  Lu  Lu0  1  0.00000000  0.00000000  0.00000000  1
  Lu  Lu1  1  0.50000000  0.50000000  0.00000000  1
  Lu  Lu2  1  0.00000000  0.00000000  0.50000000  1
  Lu  Lu3  1  0.50000000  0.50000000  0.50000000  1
  O  O0  1  0.31286100  0.18906500  0.06467300  1
  O  O1  1  0.68713900  0.81093500  0.93532700  1
  O  O2  1  0.81286100  0.31093500  0.93532700  1
  O  O3  1  0.68713900  0.81093500  0.56467300  1
  O  O4  1  0.18713900  0.68906500  0.06467300  1
  O  O5  1  0.31286100  0.18906500  0.43532700  1
  O  O6  1  0.18713900  0.68906500  0.43532700  1
  O  O7  1  0.81286100  0.31093500  0.56467300  1
  O  O8  1  0.62453800  0.55202900  0.25000000  1
  O  O9  1  0.37546200  0.44797100  0.75000000  1
  O  O10  1  0.12453800  0.94797100  0.75000000  1
  O  O11  1  0.87546200  0.05202900  0.25000000  1
loop_
_geom_bond_atom_site_label_1
_geom_bond_atom_site_label_2
_geom_bond_distance
_geom_bond_site_symmetry_2
Ce0 O8 2.331565 1_455
Ce0 O6 2.352142 1_555
Ce0 O4 2.352142 1_555
Ce0 O11 2.485705 1_455
Ce0 O5 2.781781 1_555
Ce0 O0 2.781781 1_555
Ce0 O7 2.979484 1_455
Ce0 O2 2.979484 1_454
Ce1 O9 2.331565 1_655
Ce1 O2 2.352142 1_555
Ce1 O7 2.352142 1_555
Ce1 O10 2.485705 1_655
Ce1 O1 2.781781 1_555
Ce1 O3 2.781781 1_555
Ce1 O4 2.979484 1_656
Ce1 O6 2.979484 1_655
Ce2 O10 2.331565 1_545
Ce2 O1 2.352142 1_545
Ce2 O3 2.352142 1_545
Ce2 O9 2.485705 1_555
Ce2 O2 2.781781 1_555
Ce2 O7 2.781781 1_555
Ce2 O0 2.979484 1_556
Ce2 O5 2.979484 1_555
Ce3 O11 2.331565 1_565
Ce3 O5 2.352142 1_565
Ce3 O0 2.352142 1_565
Ce3 O8 2.485705 1_555
Ce3 O6 2.781781 1_555
Ce3 O4 2.781781 1_555
Ce3 O3 2.979484 1_555
Ce3 O1 2.979484 1_554
Lu0 O0 2.198369 1_555
Lu0 O1 2.198369 1_444
Lu0 O2 2.219458 1_454
Lu0 O4 2.219458 1_545
Lu0 O11 2.228339 1_455
Lu0 O10 2.228339 1_544
Lu1 O4 2.198369 1_555
Lu1 O2 2.198369 1_554
Lu1 O1 2.219458 1_554
Lu1 O0 2.219458 1_555
Lu1 O8 2.228339 1_555
Lu1 O9 2.228339 1_554
Lu2 O5 2.198369 1_555
Lu2 O3 2.198369 1_445
Lu2 O7 2.219458 1_455
Lu2 O6 2.219458 1_545
Lu2 O11 2.228339 1_455
Lu2 O10 2.228339 1_545
Lu3 O6 2.198369 1_555
Lu3 O7 2.198369 1_555
Lu3 O3 2.219458 1_555
Lu3 O5 2.219458 1_555
Lu3 O8 2.228339 1_555
Lu3 O9 2.228339 1_555
