# generated using pymatgen
data_Na3FeC6O17
_symmetry_space_group_name_H-M   'P 1'
_cell_length_a   10.77594864
_cell_length_b   10.77594864
_cell_length_c   14.21041067
_cell_angle_alpha   79.72449787
_cell_angle_beta   79.72449787
_cell_angle_gamma   75.02557920
_symmetry_Int_Tables_number   1
_chemical_formula_structural   Na3FeC6O17
_chemical_formula_sum   'Na12 Fe4 C24 O68'
_cell_volume   1553.26021976
_cell_formula_units_Z   4
loop_
 _symmetry_equiv_pos_site_id
 _symmetry_equiv_pos_as_xyz
  1  'x, y, z'
loop_
 _atom_site_type_symbol
 _atom_site_label
 _atom_site_symmetry_multiplicity
 _atom_site_fract_x
 _atom_site_fract_y
 _atom_site_fract_z
 _atom_site_occupancy
  Na  Na0  1  0.26875097  0.73124903  0.25000000  1
  Na  Na1  1  0.73124903  0.26875097  0.75000000  1
  Na  Na2  1  0.99833874  0.00166126  0.25000000  1
  Na  Na3  1  0.00166126  0.99833874  0.75000000  1
  Na  Na4  1  0.22739840  0.03738359  0.97309453  1
  Na  Na5  1  0.96261641  0.77260160  0.52690547  1
  Na  Na6  1  0.77260160  0.96261641  0.02690547  1
  Na  Na7  1  0.03738359  0.22739840  0.47309453  1
  Na  Na8  1  0.41599922  0.67648190  0.99750153  1
  Na  Na9  1  0.32351810  0.58400078  0.50249847  1
  Na  Na10  1  0.58400078  0.32351810  0.00249847  1
  Na  Na11  1  0.67648190  0.41599922  0.49750153  1
  Fe  Fe0  1  0.55863489  0.81850555  0.75626007  1
  Fe  Fe1  1  0.18149445  0.44136511  0.74373993  1
  Fe  Fe2  1  0.44136511  0.18149445  0.24373993  1
  Fe  Fe3  1  0.81850555  0.55863489  0.25626007  1
  C  C0  1  0.72336212  0.95163792  0.81337930  1
  C  C1  1  0.04836208  0.27663788  0.68662070  1
  C  C2  1  0.27663788  0.04836208  0.18662070  1
  C  C3  1  0.95163792  0.72336212  0.31337930  1
  C  C4  1  0.69967971  0.01036340  0.70663670  1
  C  C5  1  0.98963660  0.30032029  0.79336330  1
  C  C6  1  0.30032029  0.98963660  0.29336330  1
  C  C7  1  0.01036340  0.69967971  0.20663670  1
  C  C8  1  0.60669523  0.55483484  0.81369284  1
  C  C9  1  0.44516516  0.39330477  0.68630716  1
  C  C10  1  0.39330477  0.44516516  0.18630716  1
  C  C11  1  0.55483484  0.60669523  0.31369284  1
  C  C12  1  0.70476293  0.57708254  0.72183752  1
  C  C13  1  0.42291746  0.29523707  0.77816248  1
  C  C14  1  0.29523707  0.42291746  0.27816248  1
  C  C15  1  0.57708254  0.70476293  0.22183752  1
  C  C16  1  0.29510575  0.95883607  0.78227677  1
  C  C17  1  0.04116393  0.70489425  0.71772323  1
  C  C18  1  0.70489425  0.04116393  0.21772323  1
  C  C19  1  0.95883607  0.29510575  0.28227677  1
  C  C20  1  0.31087956  0.89192677  0.68910814  1
  C  C21  1  0.10807323  0.68912044  0.81089186  1
  C  C22  1  0.68912044  0.10807323  0.31089186  1
  C  C23  1  0.89192677  0.31087956  0.18910814  1
  O  O0  1  0.49184105  0.94427947  0.00594515  1
  O  O1  1  0.05572053  0.50815895  0.49405485  1
  O  O2  1  0.50815895  0.05572053  0.99405485  1
  O  O3  1  0.94427947  0.49184105  0.50594515  1
  O  O4  1  0.20738405  0.80805199  0.98253689  1
  O  O5  1  0.19194801  0.79261595  0.51746311  1
  O  O6  1  0.79261595  0.19194801  0.01746311  1
  O  O7  1  0.80805199  0.20738405  0.48253689  1
  O  O8  1  0.31786535  0.43439195  0.99121185  1
  O  O9  1  0.56560805  0.68213465  0.50878815  1
  O  O10  1  0.68213465  0.56560805  0.00878815  1
  O  O11  1  0.43439195  0.31786535  0.49121185  1
  O  O12  1  0.18818181  0.30081248  0.01164854  1
  O  O13  1  0.69918752  0.81181819  0.48835146  1
  O  O14  1  0.81181819  0.69918752  0.98835146  1
  O  O15  1  0.30081248  0.18818181  0.51164854  1
  O  O16  1  0.20266769  0.41276206  0.01862375  1
  O  O17  1  0.58723794  0.79733231  0.48137625  1
  O  O18  1  0.79733231  0.58723794  0.98137625  1
  O  O19  1  0.41276206  0.20266769  0.51862375  1
  O  O20  1  0.67217264  0.85597915  0.84818827  1
  O  O21  1  0.14402085  0.32782736  0.65181173  1
  O  O22  1  0.32782736  0.14402085  0.15181173  1
  O  O23  1  0.85597915  0.67217264  0.34818827  1
  O  O24  1  0.61826880  0.96678384  0.67355724  1
  O  O25  1  0.03321616  0.38173120  0.82644276  1
  O  O26  1  0.38173120  0.03321616  0.32644276  1
  O  O27  1  0.96678384  0.61826880  0.17355724  1
  O  O28  1  0.21299900  0.99858943  0.14452656  1
  O  O29  1  0.00141057  0.78700100  0.35547344  1
  O  O30  1  0.78700100  0.00141057  0.85547344  1
  O  O31  1  0.99858943  0.21299900  0.64452656  1
  O  O32  1  0.24072482  0.90697172  0.33769212  1
  O  O33  1  0.09302828  0.75927518  0.16230788  1
  O  O34  1  0.75927518  0.09302828  0.66230788  1
  O  O35  1  0.90697172  0.24072482  0.83769212  1
  O  O36  1  0.53041913  0.65971732  0.84283318  1
  O  O37  1  0.34028268  0.46958087  0.65716682  1
  O  O38  1  0.46958087  0.34028268  0.15716682  1
  O  O39  1  0.65971732  0.53041913  0.34283318  1
  O  O40  1  0.70204091  0.69832543  0.68976598  1
  O  O41  1  0.30167457  0.29795909  0.81023402  1
  O  O42  1  0.29795909  0.30167457  0.31023402  1
  O  O43  1  0.69832543  0.70204091  0.18976598  1
  O  O44  1  0.39419269  0.55652820  0.14511686  1
  O  O45  1  0.44347180  0.60580731  0.35488314  1
  O  O46  1  0.60580731  0.44347180  0.85488314  1
  O  O47  1  0.55652820  0.39419269  0.64511686  1
  O  O48  1  0.22184435  0.51630039  0.31392303  1
  O  O49  1  0.48369961  0.77815565  0.18607697  1
  O  O50  1  0.77815565  0.48369961  0.68607697  1
  O  O51  1  0.51630039  0.22184435  0.81392303  1
  O  O52  1  0.39804156  0.92822832  0.82453014  1
  O  O53  1  0.07177168  0.60195844  0.67546986  1
  O  O54  1  0.60195844  0.07177168  0.17546986  1
  O  O55  1  0.92822832  0.39804156  0.32453014  1
  O  O56  1  0.42304353  0.81975499  0.66849155  1
  O  O57  1  0.18024501  0.57695647  0.83150845  1
  O  O58  1  0.57695647  0.18024501  0.33150845  1
  O  O59  1  0.81975499  0.42304353  0.16849155  1
  O  O60  1  0.80928988  0.96933000  0.18746573  1
  O  O61  1  0.03067000  0.19071012  0.31253427  1
  O  O62  1  0.19071012  0.03067000  0.81253427  1
  O  O63  1  0.96933000  0.80928988  0.68746573  1
  O  O64  1  0.78697603  0.08716187  0.35262590  1
  O  O65  1  0.91283813  0.21302397  0.14737410  1
  O  O66  1  0.21302397  0.91283813  0.64737410  1
  O  O67  1  0.08716187  0.78697603  0.85262590  1
loop_
_geom_bond_atom_site_label_1
_geom_bond_atom_site_label_2
_geom_bond_distance
_geom_bond_site_symmetry_2
Na0 O33 2.375239 1_555
Na0 O32 2.375239 1_555
Na0 O48 2.477166 1_555
Na0 O49 2.477166 1_555
Na0 O44 2.561374 1_555
Na0 O45 2.561374 1_555
Na1 O34 2.375239 1_555
Na1 O35 2.375239 1_555
Na1 O51 2.477166 1_555
Na1 O50 2.477166 1_555
Na1 O47 2.561374 1_555
Na1 O46 2.561374 1_555
Na2 O61 2.486817 1_655
Na2 O60 2.486817 1_545
Na2 O28 2.517842 1_645
Na2 O29 2.517842 1_645
Na2 O64 2.524519 1_555
Na2 O65 2.524519 1_555
Na2 O33 2.957456 1_645
Na2 O32 2.957456 1_645
Na3 O62 2.486817 1_565
Na3 O63 2.486817 1_455
Na3 O31 2.517842 1_465
Na3 O30 2.517842 1_465
Na3 O66 2.524519 1_555
Na3 O67 2.524519 1_555
Na3 O34 2.957456 1_465
Na3 O35 2.957456 1_465
Na4 O28 2.380935 1_546
Na4 O62 2.400593 1_555
Na4 O4 2.513659 1_545
Na4 O52 2.757735 1_545
Na4 O0 2.859175 1_546
Na4 O12 2.896421 1_556
Na5 O29 2.380935 1_655
Na5 O63 2.400593 1_555
Na5 O5 2.513659 1_655
Na5 O53 2.757735 1_655
Na5 O1 2.859175 1_655
Na5 O13 2.896421 1_555
Na6 O30 2.380935 1_564
Na6 O60 2.400593 1_555
Na6 O6 2.513659 1_565
Na6 O54 2.757735 1_565
Na6 O2 2.859175 1_564
Na6 O14 2.896421 1_554
Na7 O31 2.380935 1_455
Na7 O61 2.400593 1_555
Na7 O7 2.513659 1_455
Na7 O55 2.757735 1_455
Na7 O3 2.859175 1_455
Na7 O15 2.896421 1_555
Na8 O44 2.267171 1_556
Na8 O36 2.333105 1_555
Na8 O4 2.350507 1_555
Na8 O10 2.828934 1_556
Na9 O45 2.267171 1_555
Na9 O37 2.333105 1_555
Na9 O5 2.350507 1_555
Na9 O11 2.828934 1_555
Na10 O46 2.267171 1_554
Na10 O38 2.333105 1_555
Na10 O6 2.350507 1_555
Na10 O8 2.828934 1_554
Na11 O47 2.267171 1_555
Na11 O39 2.333105 1_555
Na11 O7 2.350507 1_555
Na11 O9 2.828934 1_555
Fe0 O40 1.959462 1_555
Fe0 O36 1.979440 1_555
Fe0 O24 1.984558 1_555
Fe0 O52 2.021592 1_555
Fe0 O56 2.079576 1_555
Fe0 O20 2.092892 1_555
Fe1 O41 1.959462 1_555
Fe1 O37 1.979440 1_555
Fe1 O25 1.984558 1_555
Fe1 O53 2.021592 1_555
Fe1 O57 2.079576 1_555
Fe1 O21 2.092892 1_555
Fe2 O42 1.959462 1_555
Fe2 O38 1.979440 1_555
Fe2 O26 1.984558 1_555
Fe2 O54 2.021592 1_555
Fe2 O58 2.079576 1_555
Fe2 O22 2.092892 1_555
Fe3 O43 1.959462 1_555
Fe3 O39 1.979440 1_555
Fe3 O27 1.984558 1_555
Fe3 O55 2.021592 1_555
Fe3 O59 2.079576 1_555
Fe3 O23 2.092892 1_555
C0 O30 1.251657 1_565
C0 O20 1.275196 1_555
C1 O31 1.251657 1_455
C1 O21 1.275196 1_555
C2 O28 1.251657 1_545
C2 O22 1.275196 1_555
C3 O29 1.251657 1_655
C3 O23 1.275196 1_555
C4 O34 1.246536 1_555
C4 O24 1.284486 1_545
C5 O35 1.246536 1_555
C5 O25 1.284486 1_655
C6 O32 1.246536 1_555
C6 O26 1.284486 1_565
C7 O33 1.246536 1_555
C7 O27 1.284486 1_455
C8 O46 1.239412 1_555
C8 O36 1.299967 1_555
C9 O47 1.239412 1_555
C9 O37 1.299967 1_555
C10 O44 1.239412 1_555
C10 O38 1.299967 1_555
C11 O45 1.239412 1_555
C11 O39 1.299967 1_555
C12 O50 1.234553 1_555
C12 O40 1.299255 1_555
C13 O51 1.234553 1_555
C13 O41 1.299255 1_555
C14 O48 1.234553 1_555
C14 O42 1.299255 1_555
C15 O49 1.234553 1_555
C15 O43 1.299255 1_555
C16 O62 1.243292 1_565
C16 O52 1.295222 1_555
C17 O63 1.243292 1_455
C17 O53 1.295222 1_555
C18 O60 1.243292 1_545
C18 O54 1.295222 1_555
C19 O61 1.243292 1_655
C19 O55 1.295222 1_555
C20 O66 1.251829 1_555
C20 O56 1.273088 1_555
C21 O67 1.251829 1_555
C21 O57 1.273088 1_555
C22 O64 1.251829 1_555
C22 O58 1.273088 1_555
C23 O65 1.251829 1_555
C23 O59 1.273088 1_555
O0 O2 1.236011 1_564
O1 O3 1.236011 1_455
O10 O18 1.300641 1_554
O11 O19 1.300641 1_555
O12 O16 1.278671 1_555
O13 O17 1.278671 1_555
O14 O18 1.278671 1_555
O15 O19 1.278671 1_555
O16 O8 1.300641 1_554
O17 O9 1.300641 1_555
