# generated using pymatgen
data_YSiRu2C
_symmetry_space_group_name_H-M   'P 1'
_cell_length_a   5.87858025
_cell_length_b   5.87858025
_cell_length_c   7.16478500
_cell_angle_alpha   90.00000000
_cell_angle_beta   90.00000000
_cell_angle_gamma   142.13778147
_symmetry_Int_Tables_number   1
_chemical_formula_structural   YSiRu2C
_chemical_formula_sum   'Y2 Si2 Ru4 C2'
_cell_volume   151.96724767
_cell_formula_units_Z   2
loop_
 _symmetry_equiv_pos_site_id
 _symmetry_equiv_pos_as_xyz
  1  'x, y, z'
loop_
 _atom_site_type_symbol
 _atom_site_label
 _atom_site_symmetry_multiplicity
 _atom_site_fract_x
 _atom_site_fract_y
 _atom_site_fract_z
 _atom_site_occupancy
  Y  Y0  1  0.54623300  0.45376700  0.25000000  1
  Y  Y1  1  0.45376700  0.54623300  0.75000000  1
  Si  Si0  1  0.26789300  0.73210700  0.25000000  1
  Si  Si1  1  0.73210700  0.26789300  0.75000000  1
  Ru  Ru0  1  0.83595300  0.16404700  0.05703700  1
  Ru  Ru1  1  0.16404700  0.83595300  0.94296300  1
  Ru  Ru2  1  0.16404700  0.83595300  0.55703700  1
  Ru  Ru3  1  0.83595300  0.16404700  0.44296300  1
  C  C0  1  0.00000000  0.00000000  0.00000000  1
  C  C1  1  0.00000000  0.00000000  0.50000000  1
loop_
_geom_bond_atom_site_label_1
_geom_bond_atom_site_label_2
_geom_bond_distance
_geom_bond_site_symmetry_2
Si0 Y0 3.095477 1_555
Si0 Y0 3.116768 1_455
Si0 Y0 3.116768 1_565
Si1 Y1 3.095477 1_555
Si1 Y1 3.116768 1_545
Si1 Y1 3.116768 1_655
Ru0 Si0 2.474210 1_655
Ru0 Si0 2.474210 1_545
Ru0 Si1 2.484580 1_554
Ru1 Si1 2.474210 1_565
Ru1 Si1 2.474210 1_455
Ru1 Si0 2.484580 1_556
Ru2 Si1 2.474210 1_565
Ru2 Si1 2.474210 1_455
Ru2 Si0 2.484580 1_555
Ru3 Si0 2.474210 1_545
Ru3 Si0 2.474210 1_655
Ru3 Si1 2.484580 1_555
C0 Ru1 1.869609 1_544
C0 Ru0 1.869609 1_455
C0 Y1 2.666485 1_554
C0 Y0 2.666485 1_555
C0 Y0 2.666485 1_445
C0 Y1 2.666485 1_444
C1 Ru3 1.869609 1_455
C1 Ru2 1.869609 1_545
C1 Y0 2.666485 1_555
C1 Y0 2.666485 1_445
C1 Y1 2.666485 1_445
C1 Y1 2.666485 1_555
