# generated using pymatgen
data_ZrSn
_symmetry_space_group_name_H-M   'P 1'
_cell_length_a   5.49329600
_cell_length_b   6.13144200
_cell_length_c   8.49528464
_cell_angle_alpha   83.43498333
_cell_angle_beta   90.00000000
_cell_angle_gamma   90.00000000
_symmetry_Int_Tables_number   1
_chemical_formula_structural   ZrSn
_chemical_formula_sum   'Zr6 Sn6'
_cell_volume   284.26042981
_cell_formula_units_Z   6
loop_
 _symmetry_equiv_pos_site_id
 _symmetry_equiv_pos_as_xyz
  1  'x, y, z'
loop_
 _atom_site_type_symbol
 _atom_site_label
 _atom_site_symmetry_multiplicity
 _atom_site_fract_x
 _atom_site_fract_y
 _atom_site_fract_z
 _atom_site_occupancy
  Zr  Zr0  1  0.25000000  0.44844700  0.59122600  1
  Zr  Zr1  1  0.25000000  0.94329400  0.61523200  1
  Zr  Zr2  1  0.75000000  0.55155300  0.40877400  1
  Zr  Zr3  1  0.75000000  0.05670600  0.38476800  1
  Zr  Zr4  1  0.25000000  0.30283100  0.23494400  1
  Zr  Zr5  1  0.75000000  0.69716900  0.76505600  1
  Sn  Sn0  1  0.25000000  0.78867500  0.30040200  1
  Sn  Sn1  1  0.75000000  0.86118200  0.08265400  1
  Sn  Sn2  1  0.75000000  0.35805900  0.07766100  1
  Sn  Sn3  1  0.25000000  0.64194100  0.92233900  1
  Sn  Sn4  1  0.25000000  0.13881800  0.91734600  1
  Sn  Sn5  1  0.75000000  0.21132500  0.69959800  1
loop_
_geom_bond_atom_site_label_1
_geom_bond_atom_site_label_2
_geom_bond_distance
_geom_bond_site_symmetry_2
Sn0 Zr1 2.938008 1_555
Sn0 Zr0 3.045863 1_555
Sn0 Zr4 3.092249 1_555
Sn0 Zr4 3.137951 1_565
Sn0 Zr2 3.193654 1_555
Sn0 Zr2 3.193654 1_455
Sn0 Zr3 3.320828 1_465
Sn0 Zr3 3.320828 1_565
Sn1 Zr3 2.954309 1_565
Sn1 Zr5 2.985196 1_554
Sn1 Zr2 3.174442 1_555
Sn2 Zr3 3.019683 1_555
Sn2 Zr4 3.056242 1_555
Sn2 Zr4 3.056242 1_655
Sn2 Zr2 3.175379 1_555
Sn2 Zr5 3.180122 1_554
Sn3 Zr1 3.019683 1_555
Sn3 Zr5 3.056242 1_455
Sn3 Zr5 3.056242 1_555
Sn3 Zr0 3.175379 1_555
Sn3 Zr4 3.180122 1_556
Sn4 Zr1 2.954309 1_545
Sn4 Zr4 2.985196 1_556
Sn4 Zr0 3.174442 1_555
Sn5 Zr3 2.938008 1_555
Sn5 Zr2 3.045863 1_555
Sn5 Zr5 3.092249 1_555
Sn5 Zr5 3.137951 1_545
Sn5 Zr0 3.193654 1_555
Sn5 Zr0 3.193654 1_655
Sn5 Zr1 3.320828 1_645
Sn5 Zr1 3.320828 1_545
