# generated using pymatgen
data_Tm2Mn3Sb3O14
_symmetry_space_group_name_H-M   'P 1'
_cell_length_a   7.15203595
_cell_length_b   7.15203595
_cell_length_c   7.25780850
_cell_angle_alpha   61.48976910
_cell_angle_beta   61.48976910
_cell_angle_gamma   61.59214761
_symmetry_Int_Tables_number   1
_chemical_formula_structural   Tm2Mn3Sb3O14
_chemical_formula_sum   'Tm2 Mn3 Sb3 O14'
_cell_volume   271.49028535
_cell_formula_units_Z   1
loop_
 _symmetry_equiv_pos_site_id
 _symmetry_equiv_pos_as_xyz
  1  'x, y, z'
loop_
 _atom_site_type_symbol
 _atom_site_label
 _atom_site_symmetry_multiplicity
 _atom_site_fract_x
 _atom_site_fract_y
 _atom_site_fract_z
 _atom_site_occupancy
  Tm  Tm0  1  0.50000000  0.00000000  0.00000000  1
  Tm  Tm1  1  0.00000000  0.50000000  0.00000000  1
  Mn  Mn0  1  0.50000000  0.50000000  0.50000000  1
  Mn  Mn1  1  0.00000000  0.00000000  0.00000000  1
  Mn  Mn2  1  0.00000000  0.00000000  0.50000000  1
  Sb  Sb0  1  0.50000000  0.50000000  0.00000000  1
  Sb  Sb1  1  0.00000000  0.50000000  0.50000000  1
  Sb  Sb2  1  0.50000000  0.00000000  0.50000000  1
  O  O0  1  0.87904100  0.87904100  0.87485000  1
  O  O1  1  0.12095900  0.12095900  0.12515000  1
  O  O2  1  0.59443500  0.59443500  0.14442100  1
  O  O3  1  0.16993300  0.16993300  0.57127200  1
  O  O4  1  0.17186400  0.57089100  0.59190700  1
  O  O5  1  0.57971900  0.16989600  0.17445100  1
  O  O6  1  0.16989600  0.57971900  0.17445100  1
  O  O7  1  0.57089100  0.17186400  0.59190700  1
  O  O8  1  0.40556500  0.40556500  0.85557900  1
  O  O9  1  0.83006700  0.83006700  0.42872800  1
  O  O10  1  0.82813600  0.42910900  0.40809300  1
  O  O11  1  0.42028100  0.83010400  0.82554900  1
  O  O12  1  0.83010400  0.42028100  0.82554900  1
  O  O13  1  0.42910900  0.82813600  0.40809300  1
loop_
_geom_bond_atom_site_label_1
_geom_bond_atom_site_label_2
_geom_bond_distance
_geom_bond_site_symmetry_2
Mn0 O10 1.976346 1_555
Mn0 O13 1.976346 1_555
Mn0 O4 1.976346 1_555
Mn0 O7 1.976346 1_555
Mn0 O8 2.163011 1_555
Mn0 O2 2.163011 1_555
Mn1 O1 2.129369 1_555
Mn1 O0 2.129369 1_444
Mn1 O12 2.544614 1_454
Mn1 O11 2.544614 1_544
Mn1 O5 2.544614 1_455
Mn1 O6 2.544614 1_545
Mn1 O3 2.611804 1_554
Mn1 O9 2.611804 1_445
Mn2 O0 2.262054 1_445
Mn2 O1 2.262054 1_555
Mn2 O3 2.414041 1_555
Mn2 O9 2.414041 1_445
Mn2 O13 2.571709 1_545
Mn2 O10 2.571709 1_455
Mn2 O4 2.571709 1_545
Mn2 O7 2.571709 1_455
O0 Tm1 2.256221 1_656
O0 Tm0 2.256221 1_566
O1 Tm1 2.256221 1_555
O1 Tm0 2.256221 1_555
O2 Sb0 1.948514 1_555
O2 Tm0 2.424411 1_565
O2 Tm1 2.424411 1_655
O3 Sb2 2.005477 1_555
O3 Sb1 2.005477 1_555
O4 Sb1 1.977736 1_555
O4 Tm1 2.494891 1_556
O5 Sb2 2.004158 1_555
O5 Sb0 2.014157 1_555
O5 Tm0 2.494322 1_555
O6 Sb1 2.004158 1_555
O6 Sb0 2.014157 1_555
O6 Tm1 2.494322 1_555
O7 Sb2 1.977736 1_555
O7 Tm0 2.494891 1_556
O8 Sb0 1.948514 1_556
O8 Tm0 2.424411 1_556
O8 Tm1 2.424411 1_556
O9 Sb1 2.005477 1_655
O9 Sb2 2.005477 1_565
O10 Sb1 1.977736 1_655
O10 Tm1 2.494891 1_655
O11 Sb2 2.004158 1_565
O11 Sb0 2.014157 1_556
O11 Tm0 2.494322 1_566
O12 Sb1 2.004158 1_655
O12 Sb0 2.014157 1_556
O12 Tm1 2.494322 1_656
O13 Sb2 1.977736 1_565
O13 Tm0 2.494891 1_565
