# generated using pymatgen
data_RbAgCl3
_symmetry_space_group_name_H-M   'P 1'
_cell_length_a   5.08785996
_cell_length_b   5.08795536
_cell_length_c   5.08428202
_cell_angle_alpha   90.05524840
_cell_angle_beta   90.00000000
_cell_angle_gamma   90.00000000
_symmetry_Int_Tables_number   1
_chemical_formula_structural   RbAgCl3
_chemical_formula_sum   'Rb1 Ag1 Cl3'
_cell_volume   131.61575279
_cell_formula_units_Z   1
loop_
 _symmetry_equiv_pos_site_id
 _symmetry_equiv_pos_as_xyz
  1  'x, y, z'
loop_
 _atom_site_type_symbol
 _atom_site_label
 _atom_site_symmetry_multiplicity
 _atom_site_fract_x
 _atom_site_fract_y
 _atom_site_fract_z
 _atom_site_occupancy
  Rb  Rb0  1  0.00000000  0.00092519  0.99159603  1
  Ag  Ag0  1  0.50000000  0.50206426  0.48699988  1
  Cl  Cl0  1  0.00000000  0.50360193  0.48682919  1
  Cl  Cl1  1  0.50000000  0.50119457  0.98683741  1
  Cl  Cl2  1  0.50000000  0.00221306  0.48773949  1
loop_
_geom_bond_atom_site_label_1
_geom_bond_atom_site_label_2
_geom_bond_distance
_geom_bond_site_symmetry_2
Ag0 Cl1 2.541323 1_555
Ag0 Cl1 2.542967 1_554
Ag0 Cl2 2.543227 1_555
Ag0 Cl0 2.543942 1_555
Ag0 Cl0 2.543942 1_655
Ag0 Cl2 2.544734 1_565
Cl0 Rb0 3.571393 1_564
Cl0 Rb0 3.587301 1_554
Cl0 Rb0 3.602288 1_565
Cl0 Rb0 3.624948 1_555
Cl1 Rb0 3.596790 1_565
Cl1 Rb0 3.596790 1_665
Cl1 Rb0 3.598761 1_655
Cl1 Rb0 3.598761 1_555
Cl2 Rb0 3.582564 1_554
Cl2 Rb0 3.582564 1_654
Cl2 Rb0 3.610292 1_655
Cl2 Rb0 3.610292 1_555
