# generated using pymatgen
data_LiFeP2O7
_symmetry_space_group_name_H-M   'P 1'
_cell_length_a   9.68690800
_cell_length_b   9.77485472
_cell_length_c   11.20881140
_cell_angle_alpha   90.23533927
_cell_angle_beta   101.27982551
_cell_angle_gamma   90.29969059
_symmetry_Int_Tables_number   1
_chemical_formula_structural   LiFeP2O7
_chemical_formula_sum   'Li8 Fe8 P16 O56'
_cell_volume   1040.81147796
_cell_formula_units_Z   8
loop_
 _symmetry_equiv_pos_site_id
 _symmetry_equiv_pos_as_xyz
  1  'x, y, z'
loop_
 _atom_site_type_symbol
 _atom_site_label
 _atom_site_symmetry_multiplicity
 _atom_site_fract_x
 _atom_site_fract_y
 _atom_site_fract_z
 _atom_site_occupancy
  Li  Li0  1  0.88203300  0.70163100  0.54431400  1
  Li  Li1  1  0.59546700  0.61225300  0.02647300  1
  Li  Li2  1  0.60109600  0.96976200  0.49733300  1
  Li  Li3  1  0.40612900  0.39826100  0.96759000  1
  Li  Li4  1  0.34815500  0.10415400  0.95112700  1
  Li  Li5  1  0.07694200  0.90007500  0.02088600  1
  Li  Li6  1  0.16493500  0.57387100  0.53193100  1
  Li  Li7  1  0.11360500  0.28639400  0.45391000  1
  Fe  Fe0  1  0.79487300  0.91777300  0.32555600  1
  Fe  Fe1  1  0.75771700  0.20223900  0.17151000  1
  Fe  Fe2  1  0.76201200  0.72094600  0.83007300  1
  Fe  Fe3  1  0.70608200  0.42240900  0.66881800  1
  Fe  Fe4  1  0.29520000  0.58463800  0.31794900  1
  Fe  Fe5  1  0.24774800  0.28825000  0.17589400  1
  Fe  Fe6  1  0.25176000  0.78891000  0.82688300  1
  Fe  Fe7  1  0.20588700  0.07582400  0.66636100  1
  P  P0  1  0.98171300  0.44798000  0.25163600  1
  P  P1  1  0.88871400  0.71123000  0.11869900  1
  P  P2  1  0.93284500  0.91744000  0.75562400  1
  P  P3  1  0.87477000  0.14533900  0.57887000  1
  P  P4  1  0.62047800  0.64145800  0.42415600  1
  P  P5  1  0.56186900  0.42277700  0.23345700  1
  P  P6  1  0.48093000  0.05293300  0.25167600  1
  P  P7  1  0.61774200  0.21310500  0.88241400  1
  P  P8  1  0.38601000  0.79343400  0.11481600  1
  P  P9  1  0.52487900  0.94497600  0.75474100  1
  P  P10  1  0.44159000  0.57955300  0.76291300  1
  P  P11  1  0.37944300  0.35492700  0.57891500  1
  P  P12  1  0.12426800  0.85371400  0.42868600  1
  P  P13  1  0.07016000  0.07318400  0.23995500  1
  P  P14  1  0.10731500  0.28186100  0.88482800  1
  P  P15  1  0.02635300  0.55153700  0.75903300  1
  O  O0  1  0.98853300  0.43084600  0.38560600  1
  O  O1  1  0.96641100  0.83763500  0.43344300  1
  O  O2  1  0.91454700  0.07771200  0.26121400  1
  O  O3  1  0.89832800  0.58599700  0.21323500  1
  O  O4  1  0.90329900  0.33765600  0.16652000  1
  O  O5  1  0.81442700  0.82026800  0.18230600  1
  O  O6  1  0.78636500  0.66163200  0.99991600  1
  O  O7  1  0.96598900  0.25307000  0.90738200  1
  O  O8  1  0.87903200  0.06295400  0.70616900  1
  O  O9  1  0.91274400  0.89571400  0.88562300  1
  O  O10  1  0.87069000  0.54189600  0.77839000  1
  O  O11  1  0.81652600  0.28448700  0.60176200  1
  O  O12  1  0.83868000  0.80577100  0.68253500  1
  O  O13  1  0.78735700  0.05711800  0.47859900  1
  O  O14  1  0.71428700  0.57236700  0.53210800  1
  O  O15  1  0.65585100  0.30134600  0.28047500  1
  O  O16  1  0.68044500  0.78556600  0.40598900  1
  O  O17  1  0.63424300  0.03407800  0.22418500  1
  O  O18  1  0.63293900  0.55625300  0.30348800  1
  O  O19  1  0.55645700  0.44472200  0.10026600  1
  O  O20  1  0.52820400  0.76427000  0.09151600  1
  O  O21  1  0.71450500  0.16974400  0.00271900  1
  O  O22  1  0.67731600  0.32894900  0.81696200  1
  O  O23  1  0.60977200  0.08525600  0.79003900  1
  O  O24  1  0.59350400  0.58944700  0.73707200  1
  O  O25  1  0.60271600  0.83762000  0.84340800  1
  O  O26  1  0.53168900  0.35087900  0.56526900  1
  O  O27  1  0.47832800  0.07693400  0.38204400  1
  O  O28  1  0.52215300  0.91808200  0.62416400  1
  O  O29  1  0.46451700  0.64645400  0.42881700  1
  O  O30  1  0.39835300  0.15488500  0.15716500  1
  O  O31  1  0.40901600  0.41294400  0.26346700  1
  O  O32  1  0.39639200  0.91164200  0.21567900  1
  O  O33  1  0.31358500  0.67699900  0.17180800  1
  O  O34  1  0.28338100  0.85190300  0.99802700  1
  O  O35  1  0.47005900  0.23716000  0.90290600  1
  O  O36  1  0.43557600  0.57268000  0.89631100  1
  O  O37  1  0.37456600  0.43910100  0.70319000  1
  O  O38  1  0.37151500  0.96521600  0.78575000  1
  O  O39  1  0.31461200  0.21551300  0.59897200  1
  O  O40  1  0.33843500  0.69261700  0.70479200  1
  O  O41  1  0.28032900  0.43215900  0.47742600  1
  O  O42  1  0.20591800  0.93187500  0.53708900  1
  O  O43  1  0.15718300  0.19665500  0.30288600  1
  O  O44  1  0.18391500  0.71152500  0.40810500  1
  O  O45  1  0.13557400  0.46222000  0.22191600  1
  O  O46  1  0.08985300  0.06813900  0.11058000  1
  O  O47  1  0.13359100  0.93742100  0.30760100  1
  O  O48  1  0.03215200  0.74680200  0.10069700  1
  O  O49  1  0.22110500  0.32607000  0.00175200  1
  O  O50  1  0.18358700  0.16961800  0.82236700  1
  O  O51  1  0.10822100  0.65712600  0.84904000  1
  O  O52  1  0.10546700  0.40961100  0.78987100  1
  O  O53  1  0.09133400  0.91330800  0.74256700  1
  O  O54  1  0.03060200  0.15789600  0.56530900  1
  O  O55  1  0.03115400  0.58314700  0.62795800  1
loop_
_geom_bond_atom_site_label_1
_geom_bond_atom_site_label_2
_geom_bond_distance
_geom_bond_site_symmetry_2
Li0 O55 1.950282 1_655
Li0 O12 1.964420 1_555
Li0 O14 2.036125 1_555
Li0 O1 2.092700 1_555
Li0 O16 2.394396 1_555
Li1 O20 1.830616 1_555
Li1 O19 1.906719 1_555
Li1 O36 1.944795 1_554
Li1 O6 1.987045 1_554
Li2 O28 1.813324 1_555
Li2 O27 1.898582 1_565
Li2 O13 2.040165 1_565
Li2 O16 2.277733 1_555
Li3 O35 1.888242 1_555
Li3 O19 1.918006 1_556
Li3 O36 1.929172 1_555
Li3 O49 2.028404 1_556
Li4 O35 1.901657 1_555
Li4 O50 2.037636 1_555
Li4 O30 2.316166 1_556
Li4 O38 2.340597 1_545
Li4 O49 2.614021 1_556
Li4 O34 2.621702 1_545
Li5 O48 1.840992 1_555
Li5 O46 1.913188 1_565
Li5 O9 1.971236 1_454
Li5 O34 2.120306 1_554
Li6 O55 1.841811 1_555
Li6 O41 1.953961 1_555
Li6 O44 1.970601 1_555
Li6 O0 2.534621 1_455
Li6 O40 2.571638 1_555
Li7 O0 1.926571 1_455
Li7 O43 2.021002 1_555
Li7 O54 2.044100 1_555
Li7 O41 2.124684 1_555
Li7 O39 2.387467 1_555
Fe0 O5 1.905445 1_555
Fe0 O1 2.018031 1_555
Fe0 O16 2.024118 1_555
Fe0 O17 2.083783 1_565
Fe0 O2 2.150713 1_565
Fe0 O13 2.198626 1_565
Fe1 O21 1.881337 1_555
Fe1 O4 1.938033 1_555
Fe1 O15 1.968679 1_555
Fe1 O2 2.057287 1_555
Fe1 O17 2.178255 1_555
Fe2 O25 1.952272 1_555
Fe2 O6 1.962353 1_555
Fe2 O12 2.111672 1_555
Fe2 O24 2.169039 1_555
Fe2 O10 2.180956 1_555
Fe2 O9 2.246679 1_555
Fe3 O11 1.961741 1_555
Fe3 O22 1.964782 1_555
Fe3 O26 1.975797 1_555
Fe3 O14 2.137273 1_555
Fe3 O10 2.148892 1_555
Fe3 O24 2.185235 1_555
Fe4 O33 1.911713 1_555
Fe4 O29 1.945671 1_555
Fe4 O44 2.037523 1_555
Fe4 O45 2.073761 1_555
Fe4 O31 2.163205 1_555
Fe4 O41 2.357525 1_555
Fe5 O49 1.955285 1_555
Fe5 O30 2.002335 1_555
Fe5 O43 2.021925 1_555
Fe5 O31 2.063966 1_555
Fe5 O45 2.137769 1_555
Fe6 O51 1.942522 1_555
Fe6 O40 1.977589 1_555
Fe6 O34 1.977721 1_555
Fe6 O53 2.059476 1_555
Fe6 O38 2.173277 1_555
Fe7 O39 1.961855 1_555
Fe7 O42 2.015654 1_545
Fe7 O54 2.019648 1_555
Fe7 O50 2.020309 1_555
Fe7 O38 2.173482 1_545
Fe7 O53 2.201826 1_545
O0 P0 1.500241 1_555
O1 P12 1.547671 1_655
O2 P13 1.572308 1_655
O3 P0 1.593090 1_555
O3 P1 1.613459 1_555
O4 P0 1.532845 1_555
O5 P1 1.537737 1_555
O6 P1 1.569697 1_556
O7 P14 1.466032 1_655
O8 P2 1.582204 1_545
O8 P3 1.634906 1_555
O9 P2 1.522944 1_555
O10 P15 1.567280 1_655
O11 P3 1.515247 1_555
O12 P2 1.544209 1_555
O13 P3 1.528378 1_555
O14 P4 1.526103 1_555
O15 P5 1.531082 1_555
O16 P4 1.550234 1_555
O17 P6 1.586175 1_555
O18 P5 1.600992 1_555
O18 P4 1.610367 1_555
O19 P5 1.499894 1_555
O20 P8 1.480198 1_555
O21 P7 1.546290 1_554
O22 P7 1.522861 1_555
O23 P9 1.602966 1_545
O23 P7 1.611488 1_555
O24 P10 1.557008 1_555
O25 P9 1.543103 1_555
O26 P11 1.512872 1_555
O27 P6 1.484130 1_555
O28 P9 1.481086 1_555
O29 P4 1.522891 1_555
O30 P6 1.562291 1_555
O31 P5 1.583793 1_555
O32 P8 1.602168 1_555
O32 P6 1.610957 1_565
O33 P8 1.539021 1_555
O34 P8 1.591106 1_556
O35 P7 1.512038 1_555
O36 P10 1.509467 1_555
O37 P10 1.602376 1_555
O37 P11 1.623677 1_555
O38 P9 1.603601 1_555
O39 P11 1.533241 1_555
O40 P10 1.551500 1_555
O41 P11 1.540509 1_555
O42 P12 1.515183 1_555
O43 P13 1.553887 1_555
O44 P12 1.541665 1_555
O45 P0 1.595053 1_455
O46 P13 1.499820 1_555
O47 P13 1.596276 1_565
O47 P12 1.604989 1_555
O48 P1 1.482380 1_455
O49 P14 1.595178 1_554
O50 P14 1.563435 1_555
O51 P15 1.543341 1_555
O52 P15 1.594632 1_555
O52 P14 1.642016 1_555
O53 P2 1.571178 1_455
O54 P3 1.550751 1_455
O55 P15 1.512110 1_555
