# generated using pymatgen
data_BaNd(FeO3)4
_symmetry_space_group_name_H-M   'P 1'
_cell_length_a   5.48191716
_cell_length_b   5.48191716
_cell_length_c   7.72243154
_cell_angle_alpha   90.00000000
_cell_angle_beta   90.00000000
_cell_angle_gamma   90.00000000
_symmetry_Int_Tables_number   1
_chemical_formula_structural   BaNd(FeO3)4
_chemical_formula_sum   'Ba1 Nd1 Fe4 O12'
_cell_volume   232.07000080
_cell_formula_units_Z   1
loop_
 _symmetry_equiv_pos_site_id
 _symmetry_equiv_pos_as_xyz
  1  'x, y, z'
loop_
 _atom_site_type_symbol
 _atom_site_label
 _atom_site_symmetry_multiplicity
 _atom_site_fract_x
 _atom_site_fract_y
 _atom_site_fract_z
 _atom_site_occupancy
  Ba  Ba0  1  0.50000000  0.50000000  -0.00000000  1
  Nd  Nd0  1  0.00000000  -0.00000000  0.50000000  1
  Fe  Fe0  1  0.00000000  0.50000000  0.75004409  1
  Fe  Fe1  1  -0.00000000  0.50000000  0.24995591  1
  Fe  Fe2  1  0.50000000  0.00000000  0.24995591  1
  Fe  Fe3  1  0.50000000  -0.00000000  0.75004409  1
  O  O0  1  0.24040832  0.24040832  0.26413103  1
  O  O1  1  0.24040832  0.24040832  0.73586897  1
  O  O2  1  0.75959168  0.75959168  0.73586897  1
  O  O3  1  0.75959168  0.75959168  0.26413103  1
  O  O4  1  0.75959168  0.24040832  0.73586897  1
  O  O5  1  0.75959168  0.24040832  0.26413103  1
  O  O6  1  0.24040832  0.75959168  0.73586897  1
  O  O7  1  0.24040832  0.75959168  0.26413103  1
  O  O8  1  0.00000000  0.50000000  0.50000000  1
  O  O9  1  -0.00000000  0.50000000  -0.00000000  1
  O  O10  1  0.50000000  0.00000000  0.50000000  1
  O  O11  1  0.50000000  -0.00000000  -0.00000000  1
loop_
_geom_bond_atom_site_label_1
_geom_bond_atom_site_label_2
_geom_bond_distance
_geom_bond_site_symmetry_2
Ba0 O9 2.740959 1_655
Ba0 O11 2.740959 1_555
Ba0 O11 2.740959 1_565
Ba0 O9 2.740959 1_555
Ba0 O1 2.865434 1_554
Ba0 O2 2.865434 1_554
Ba0 O5 2.865434 1_555
Ba0 O4 2.865434 1_554
Ba0 O6 2.865434 1_554
Ba0 O3 2.865434 1_555
Ba0 O7 2.865434 1_555
Ba0 O0 2.865434 1_555
Nd0 O7 2.606052 1_545
Nd0 O3 2.606052 1_445
Nd0 O0 2.606052 1_555
Nd0 O5 2.606052 1_455
Nd0 O6 2.606052 1_545
Nd0 O2 2.606052 1_445
Nd0 O4 2.606052 1_455
Nd0 O1 2.606052 1_555
Nd0 O10 2.740959 1_555
Nd0 O8 2.740959 1_555
Nd0 O8 2.740959 1_545
Nd0 O10 2.740959 1_455
Fe0 O9 1.930267 1_556
Fe0 O8 1.930948 1_555
Fe0 O2 1.942663 1_455
Fe0 O6 1.942663 1_555
Fe0 O4 1.942663 1_455
Fe0 O1 1.942663 1_555
Fe1 O9 1.930267 1_555
Fe1 O8 1.930948 1_555
Fe1 O0 1.942663 1_555
Fe1 O5 1.942663 1_455
Fe1 O3 1.942663 1_455
Fe1 O7 1.942663 1_555
Fe2 O11 1.930267 1_555
Fe2 O10 1.930948 1_555
Fe2 O0 1.942663 1_555
Fe2 O5 1.942663 1_555
Fe2 O3 1.942663 1_545
Fe2 O7 1.942663 1_545
Fe3 O11 1.930267 1_556
Fe3 O10 1.930948 1_555
Fe3 O4 1.942663 1_555
Fe3 O6 1.942663 1_545
Fe3 O2 1.942663 1_545
Fe3 O1 1.942663 1_555
