# generated using pymatgen
data_Eu3Si6N4O9
_symmetry_space_group_name_H-M   'P 1'
_cell_length_a   7.17081615
_cell_length_b   7.17081615
_cell_length_c   6.66002200
_cell_angle_alpha   90.00000000
_cell_angle_beta   90.00000000
_cell_angle_gamma   120.00000142
_symmetry_Int_Tables_number   1
_chemical_formula_structural   Eu3Si6N4O9
_chemical_formula_sum   'Eu3 Si6 N4 O9'
_cell_volume   296.58109589
_cell_formula_units_Z   1
loop_
 _symmetry_equiv_pos_site_id
 _symmetry_equiv_pos_as_xyz
  1  'x, y, z'
loop_
 _atom_site_type_symbol
 _atom_site_label
 _atom_site_symmetry_multiplicity
 _atom_site_fract_x
 _atom_site_fract_y
 _atom_site_fract_z
 _atom_site_occupancy
  Eu  Eu0  1  0.00000000  0.00000000  0.52126100  1
  Eu  Eu1  1  0.33333300  0.66666700  0.41667800  1
  Eu  Eu2  1  0.66666700  0.33333300  0.37493300  1
  Si  Si0  1  0.92919500  0.37584300  0.83895400  1
  Si  Si1  1  0.44664800  0.07080500  0.83895400  1
  Si  Si2  1  0.62415700  0.55335200  0.83895400  1
  Si  Si3  1  0.74219200  0.96073300  0.06349600  1
  Si  Si4  1  0.21854100  0.25780800  0.06349600  1
  Si  Si5  1  0.03926700  0.78145900  0.06349600  1
  N  N0  1  0.00000000  0.00000000  0.02255900  1
  N  N1  1  0.70499600  0.12826200  0.90189400  1
  N  N2  1  0.42326600  0.29500400  0.90189400  1
  N  N3  1  0.87173800  0.57673400  0.90189400  1
  O  O0  1  0.58432200  0.70502800  0.00217900  1
  O  O1  1  0.12070600  0.41567800  0.00217900  1
  O  O2  1  0.29497200  0.87929400  0.00217900  1
  O  O3  1  0.70050800  0.99316500  0.29722700  1
  O  O4  1  0.29265700  0.29949200  0.29722700  1
  O  O5  1  0.00683500  0.70734300  0.29722700  1
  O  O6  1  0.99229800  0.37196600  0.60627300  1
  O  O7  1  0.37966800  0.00770200  0.60627300  1
  O  O8  1  0.62803400  0.62033200  0.60627300  1
loop_
_geom_bond_atom_site_label_1
_geom_bond_atom_site_label_2
_geom_bond_distance
_geom_bond_site_symmetry_2
Eu0 O4 2.595306 1_555
Eu0 O3 2.595306 1_445
Eu0 O5 2.595306 1_545
Eu0 O8 2.754163 1_445
Eu0 O7 2.754163 1_555
Eu0 O6 2.754163 1_455
Eu1 O7 2.621593 1_565
Eu1 O6 2.621596 1_455
Eu1 O8 2.621599 1_555
Eu1 O5 2.623424 1_555
Eu1 O3 2.623428 1_555
Eu1 O4 2.623431 1_555
Eu2 O3 2.620830 1_545
Eu2 O5 2.620834 1_655
Eu2 O4 2.620837 1_555
Eu2 O6 2.693720 1_555
Eu2 O7 2.693723 1_555
Eu2 O8 2.693726 1_555
N0 Si4 1.746636 1_555
N0 Si3 1.746636 1_445
N0 Si5 1.746636 1_545
N1 Si3 1.730057 1_546
N1 Si1 1.736141 1_555
N1 Si0 1.748728 1_555
N2 Si4 1.730057 1_556
N2 Si2 1.736141 1_555
N2 Si1 1.748728 1_555
N3 Si5 1.730057 1_656
N3 Si0 1.736141 1_555
N3 Si2 1.748728 1_555
O0 Si3 1.653694 1_555
O0 Si2 1.660418 1_554
O1 Si4 1.653694 1_555
O1 Si0 1.660418 1_454
O2 Si5 1.653694 1_555
O2 Si1 1.660418 1_564
O3 Si3 1.623613 1_555
O4 Si4 1.623613 1_555
O5 Si5 1.623613 1_555
O6 Si0 1.618505 1_555
O7 Si1 1.618505 1_555
O8 Si2 1.618505 1_555
