# generated using pymatgen
data_Ca(FeSi)2
_symmetry_space_group_name_H-M   'P 1'
_cell_length_a   5.67600324
_cell_length_b   5.67600324
_cell_length_c   5.67600324
_cell_angle_alpha   139.34070985
_cell_angle_beta   139.34070985
_cell_angle_gamma   58.85571842
_symmetry_Int_Tables_number   1
_chemical_formula_structural   Ca(FeSi)2
_chemical_formula_sum   'Ca1 Fe2 Si2'
_cell_volume   76.89629334
_cell_formula_units_Z   1
loop_
 _symmetry_equiv_pos_site_id
 _symmetry_equiv_pos_as_xyz
  1  'x, y, z'
loop_
 _atom_site_type_symbol
 _atom_site_label
 _atom_site_symmetry_multiplicity
 _atom_site_fract_x
 _atom_site_fract_y
 _atom_site_fract_z
 _atom_site_occupancy
  Ca  Ca0  1  0.00000000  0.00000000  0.00000000  1
  Fe  Fe0  1  0.75000000  0.25000000  0.50000000  1
  Fe  Fe1  1  0.25000000  0.75000000  0.50000000  1
  Si  Si0  1  0.63254000  0.63254000  0.00000000  1
  Si  Si1  1  0.36746000  0.36746000  0.00000000  1
loop_
_geom_bond_atom_site_label_1
_geom_bond_atom_site_label_2
_geom_bond_distance
_geom_bond_site_symmetry_2
Ca0 Si0 3.081329 1_444
Ca0 Si0 3.081329 1_455
Ca0 Si0 3.081329 1_545
Ca0 Si0 3.081329 1_556
Ca0 Si1 3.081329 1_444
Ca0 Si1 3.081329 1_556
Ca0 Si1 3.081329 1_545
Ca0 Si1 3.081329 1_455
Ca0 Fe1 3.162052 1_444
Ca0 Fe1 3.162052 1_544
Ca0 Fe1 3.162052 1_545
Ca0 Fe0 3.162052 1_555
Ca0 Fe1 3.162052 1_555
Ca0 Fe0 3.162052 1_444
Ca0 Fe0 3.162052 1_454
Ca0 Fe0 3.162052 1_455
Fe0 Si1 2.288537 1_656
Fe0 Si0 2.288537 1_545
Fe0 Si0 2.288537 1_556
Fe0 Si1 2.288537 1_555
Fe1 Si1 2.288537 1_566
Fe1 Si0 2.288537 1_455
Fe1 Si0 2.288537 1_556
Fe1 Si1 2.288537 1_555
Si0 Si1 2.620929 1_555
