# generated using pymatgen
data_NaCa2Nb8(BiO4)9
_symmetry_space_group_name_H-M   'P 1'
_cell_length_a   24.99503947
_cell_length_b   5.48689532
_cell_length_c   5.54848628
_cell_angle_alpha   89.73792241
_cell_angle_beta   90.00000000
_cell_angle_gamma   90.00000000
_symmetry_Int_Tables_number   1
_chemical_formula_structural   NaCa2Nb8(BiO4)9
_chemical_formula_sum   'Na1 Ca2 Nb8 Bi9 O36'
_cell_volume   760.94010714
_cell_formula_units_Z   1
loop_
 _symmetry_equiv_pos_site_id
 _symmetry_equiv_pos_as_xyz
  1  'x, y, z'
loop_
 _atom_site_type_symbol
 _atom_site_label
 _atom_site_symmetry_multiplicity
 _atom_site_fract_x
 _atom_site_fract_y
 _atom_site_fract_z
 _atom_site_occupancy
  Na  Na0  1  0.50000000  0.73749097  0.74217978  1
  Ca  Ca0  1  0.00000000  0.24215092  0.73940840  1
  Ca  Ca1  1  0.00000000  0.75811076  0.23986428  1
  Nb  Nb0  1  0.41564745  0.24099490  0.76843621  1
  Nb  Nb1  1  0.91784003  0.74294483  0.77164114  1
  Nb  Nb2  1  0.08215997  0.74294483  0.77164114  1
  Nb  Nb3  1  0.58435255  0.24099490  0.76843621  1
  Nb  Nb4  1  0.08200886  0.25556888  0.27130153  1
  Nb  Nb5  1  0.58351353  0.74592203  0.27317102  1
  Nb  Nb6  1  0.41648647  0.74592203  0.27317102  1
  Nb  Nb7  1  0.91799114  0.25556888  0.27130153  1
  Bi  Bi0  1  0.29917144  0.72435586  0.70489849  1
  Bi  Bi1  1  0.80138912  0.22236214  0.70204169  1
  Bi  Bi2  1  0.19861088  0.22236214  0.70204169  1
  Bi  Bi3  1  0.70082856  0.72435586  0.70489849  1
  Bi  Bi4  1  0.19895316  0.77883030  0.20422311  1
  Bi  Bi5  1  0.69980159  0.28058360  0.20136706  1
  Bi  Bi6  1  0.30019841  0.28058360  0.20136706  1
  Bi  Bi7  1  0.80104684  0.77883030  0.20422311  1
  Bi  Bi8  1  0.50000000  0.23455644  0.22370842  1
  O  O0  1  0.50000000  0.17130719  0.82577014  1
  O  O1  1  0.00000000  0.66612764  0.82439519  1
  O  O2  1  0.00000000  0.33495486  0.32396573  1
  O  O3  1  0.50000000  0.83418587  0.32152593  1
  O  O4  1  0.41402308  0.06157901  0.10486276  1
  O  O5  1  0.91237525  0.56062663  0.10427881  1
  O  O6  1  0.08762475  0.56062663  0.10427881  1
  O  O7  1  0.58597692  0.06157901  0.10486276  1
  O  O8  1  0.08766426  0.44082190  0.60391072  1
  O  O9  1  0.59146381  0.94867523  0.59555992  1
  O  O10  1  0.40853619  0.94867523  0.59555992  1
  O  O11  1  0.91233574  0.44082190  0.60391072  1
  O  O12  1  0.43696818  0.53932293  0.01347928  1
  O  O13  1  0.93882823  0.04414477  0.01093325  1
  O  O14  1  0.06117177  0.04414477  0.01093325  1
  O  O15  1  0.56303182  0.53932293  0.01347928  1
  O  O16  1  0.06096807  0.95758895  0.51098501  1
  O  O17  1  0.56534129  0.45947735  0.50904138  1
  O  O18  1  0.43465871  0.45947735  0.50904138  1
  O  O19  1  0.93903193  0.95758895  0.51098501  1
  O  O20  1  0.25010144  0.01339393  0.98072966  1
  O  O21  1  0.75154613  0.51421145  0.98071510  1
  O  O22  1  0.24845387  0.51421145  0.98071510  1
  O  O23  1  0.74989856  0.01339393  0.98072966  1
  O  O24  1  0.24879800  0.48806546  0.48068472  1
  O  O25  1  0.75053928  0.98685210  0.48222011  1
  O  O26  1  0.24946072  0.98685210  0.48222011  1
  O  O27  1  0.75120200  0.48806546  0.48068472  1
  O  O28  1  0.34275370  0.32688215  0.80587080  1
  O  O29  1  0.84475872  0.83014971  0.79817008  1
  O  O30  1  0.15524128  0.83014971  0.79817008  1
  O  O31  1  0.65724630  0.32688215  0.80587080  1
  O  O32  1  0.15531024  0.17152394  0.29955993  1
  O  O33  1  0.65745086  0.67568263  0.28670978  1
  O  O34  1  0.34254914  0.67568263  0.28670978  1
  O  O35  1  0.84468976  0.17152394  0.29955993  1
loop_
_geom_bond_atom_site_label_1
_geom_bond_atom_site_label_2
_geom_bond_distance
_geom_bond_site_symmetry_2
Na0 O3 2.391167 1_555
Na0 O0 2.427150 1_565
Na0 O15 2.432157 1_556
Na0 O12 2.432157 1_556
Na0 O18 2.585667 1_555
Na0 O17 2.585667 1_555
Na0 O10 2.687438 1_555
Na0 O9 2.687438 1_555
Ca0 O2 2.358376 1_555
Ca0 O1 2.375740 1_555
Ca0 O13 2.402683 1_456
Ca0 O14 2.402683 1_556
Ca0 O19 2.526764 1_445
Ca0 O16 2.526764 1_545
Ca0 O11 2.558757 1_455
Ca0 O8 2.558757 1_555
Ca1 O1 2.362081 1_554
Ca1 O2 2.366146 1_555
Ca1 O19 2.407954 1_455
Ca1 O16 2.407954 1_555
Ca1 O13 2.529066 1_465
Ca1 O14 2.529066 1_565
Ca1 O6 2.558211 1_555
Ca1 O5 2.558211 1_455
Nb0 O10 1.881042 1_545
Nb0 O28 1.893604 1_555
Nb0 O18 1.928355 1_555
Nb0 O4 2.106743 1_556
Nb0 O0 2.166015 1_555
Nb0 O12 2.198259 1_556
Nb1 O29 1.894197 1_555
Nb1 O11 1.909758 1_555
Nb1 O19 1.934857 1_555
Nb1 O5 2.099728 1_556
Nb1 O1 2.116468 1_655
Nb1 O13 2.188459 1_566
Nb2 O30 1.894197 1_555
Nb2 O8 1.909758 1_555
Nb2 O16 1.934857 1_555
Nb2 O6 2.099728 1_556
Nb2 O1 2.116468 1_555
Nb2 O14 2.188459 1_566
Nb3 O9 1.881042 1_545
Nb3 O31 1.893604 1_555
Nb3 O17 1.928355 1_555
Nb3 O7 2.106743 1_556
Nb3 O0 2.166015 1_555
Nb3 O15 2.198259 1_556
Nb4 O32 1.895634 1_555
Nb4 O6 1.914681 1_555
Nb4 O14 1.928561 1_555
Nb4 O8 2.115686 1_555
Nb4 O2 2.116134 1_555
Nb4 O16 2.167591 1_545
Nb5 O33 1.889248 1_555
Nb5 O15 1.907414 1_555
Nb5 O7 1.964898 1_565
Nb5 O17 2.090566 1_555
Nb5 O9 2.120146 1_555
Nb5 O3 2.159873 1_555
Nb6 O34 1.889248 1_555
Nb6 O12 1.907414 1_555
Nb6 O4 1.964898 1_565
Nb6 O18 2.090566 1_555
Nb6 O10 2.120146 1_555
Nb6 O3 2.159873 1_555
Nb7 O35 1.895634 1_555
Nb7 O5 1.914681 1_555
Nb7 O13 1.928561 1_555
Nb7 O11 2.115686 1_555
Nb7 O2 2.116134 1_655
Nb7 O19 2.167591 1_545
Bi0 O24 2.197412 1_555
Bi0 O26 2.264629 1_555
Bi0 O22 2.293994 1_555
Bi0 O28 2.499133 1_555
Bi0 O20 2.526645 1_565
Bi0 O34 2.576121 1_555
Bi1 O25 2.187987 1_545
Bi1 O27 2.278401 1_555
Bi1 O23 2.312113 1_555
Bi1 O29 2.465830 1_545
Bi1 O35 2.498381 1_555
Bi1 O21 2.555353 1_555
Bi2 O26 2.187987 1_545
Bi2 O24 2.278401 1_555
Bi2 O20 2.312113 1_555
Bi2 O30 2.465830 1_545
Bi2 O32 2.498381 1_555
Bi2 O22 2.555353 1_555
Bi3 O27 2.197412 1_555
Bi3 O25 2.264629 1_555
Bi3 O21 2.293994 1_555
Bi3 O31 2.499133 1_555
Bi3 O23 2.526645 1_565
Bi3 O33 2.576121 1_555
Bi4 O20 2.194084 1_564
Bi4 O22 2.278894 1_554
Bi4 O26 2.300397 1_555
Bi4 O32 2.474431 1_565
Bi4 O30 2.518558 1_554
Bi4 O24 2.535367 1_555
Bi5 O21 2.191012 1_554
Bi5 O23 2.287426 1_554
Bi5 O27 2.316163 1_555
Bi5 O31 2.450764 1_554
Bi5 O33 2.460449 1_555
Bi5 O25 2.571216 1_545
Bi6 O22 2.191012 1_554
Bi6 O20 2.287426 1_554
Bi6 O24 2.316163 1_555
Bi6 O28 2.450764 1_554
Bi6 O34 2.460449 1_555
Bi6 O26 2.571216 1_545
Bi7 O23 2.194084 1_564
Bi7 O21 2.278894 1_554
Bi7 O25 2.300397 1_555
Bi7 O35 2.474431 1_565
Bi7 O29 2.518558 1_554
Bi7 O27 2.535367 1_555
Bi8 O0 2.236630 1_554
Bi8 O3 2.260432 1_545
Bi8 O4 2.441218 1_555
Bi8 O7 2.441218 1_555
Bi8 O15 2.573177 1_555
Bi8 O12 2.573177 1_555
Bi8 O17 2.591274 1_555
Bi8 O18 2.591274 1_555
