# generated using pymatgen
data_NaMg30BO31
_symmetry_space_group_name_H-M   'P 1'
_cell_length_a   8.38246100
_cell_length_b   8.57466700
_cell_length_c   8.64456800
_cell_angle_alpha   90.00000000
_cell_angle_beta   90.00000000
_cell_angle_gamma   90.00000000
_symmetry_Int_Tables_number   1
_chemical_formula_structural   NaMg30BO31
_chemical_formula_sum   'Na1 Mg30 B1 O31'
_cell_volume   621.34398650
_cell_formula_units_Z   1
loop_
 _symmetry_equiv_pos_site_id
 _symmetry_equiv_pos_as_xyz
  1  'x, y, z'
loop_
 _atom_site_type_symbol
 _atom_site_label
 _atom_site_symmetry_multiplicity
 _atom_site_fract_x
 _atom_site_fract_y
 _atom_site_fract_z
 _atom_site_occupancy
  Na  Na0  1  0.00000000  0.00280900  0.00000000  1
  Mg  Mg0  1  0.00000000  0.00174100  0.50000000  1
  Mg  Mg1  1  0.50000000  0.00362600  0.50000000  1
  Mg  Mg2  1  0.00000000  0.50155100  0.00000000  1
  Mg  Mg3  1  0.50000000  0.50129200  0.00000000  1
  Mg  Mg4  1  0.00000000  0.49976700  0.50000000  1
  Mg  Mg5  1  0.50000000  0.49871500  0.50000000  1
  Mg  Mg6  1  0.25625700  0.00027600  0.25655700  1
  Mg  Mg7  1  0.74374300  0.00027600  0.25655700  1
  Mg  Mg8  1  0.25625700  0.00027600  0.74344300  1
  Mg  Mg9  1  0.74374300  0.00027600  0.74344300  1
  Mg  Mg10  1  0.25016900  0.50130500  0.25016600  1
  Mg  Mg11  1  0.74983100  0.50130500  0.25016600  1
  Mg  Mg12  1  0.25016900  0.50130500  0.74983400  1
  Mg  Mg13  1  0.74983100  0.50130500  0.74983400  1
  Mg  Mg14  1  0.24873900  0.74886500  0.00000000  1
  Mg  Mg15  1  0.75126100  0.74886500  0.00000000  1
  Mg  Mg16  1  0.24807900  0.75027600  0.50000000  1
  Mg  Mg17  1  0.75192100  0.75027600  0.50000000  1
  Mg  Mg18  1  0.25919300  0.25681700  0.00000000  1
  Mg  Mg19  1  0.74080700  0.25681700  0.00000000  1
  Mg  Mg20  1  0.25030600  0.25094900  0.50000000  1
  Mg  Mg21  1  0.74969400  0.25094900  0.50000000  1
  Mg  Mg22  1  0.00000000  0.75315500  0.24876300  1
  Mg  Mg23  1  0.50000000  0.75405300  0.26071100  1
  Mg  Mg24  1  0.00000000  0.75315500  0.75123700  1
  Mg  Mg25  1  0.50000000  0.75405300  0.73928900  1
  Mg  Mg26  1  0.00000000  0.24845900  0.24692000  1
  Mg  Mg27  1  0.50000000  0.24513600  0.24251400  1
  Mg  Mg28  1  0.00000000  0.24845900  0.75308000  1
  Mg  Mg29  1  0.50000000  0.24513600  0.75748600  1
  B  B0  1  0.50000000  0.92958400  0.00000000  1
  O  O0  1  0.00000000  0.74487200  0.00000000  1
  O  O1  1  0.00000000  0.74870200  0.50000000  1
  O  O2  1  0.50000000  0.74661200  0.50000000  1
  O  O3  1  0.00000000  0.26021400  0.00000000  1
  O  O4  1  0.50000000  0.27278700  0.00000000  1
  O  O5  1  0.00000000  0.25263300  0.50000000  1
  O  O6  1  0.50000000  0.25448100  0.50000000  1
  O  O7  1  0.25063800  0.75266600  0.24752300  1
  O  O8  1  0.74936200  0.75266600  0.24752300  1
  O  O9  1  0.25063800  0.75266600  0.75247700  1
  O  O10  1  0.74936200  0.75266600  0.75247700  1
  O  O11  1  0.25059100  0.24822300  0.24583500  1
  O  O12  1  0.74940900  0.24822300  0.24583500  1
  O  O13  1  0.25059100  0.24822300  0.75416500  1
  O  O14  1  0.74940900  0.24822300  0.75416500  1
  O  O15  1  0.33657700  0.98742100  0.00000000  1
  O  O16  1  0.66342300  0.98742100  0.00000000  1
  O  O17  1  0.24822600  0.00065900  0.50000000  1
  O  O18  1  0.75177400  0.00065900  0.50000000  1
  O  O19  1  0.25242600  0.50759200  0.00000000  1
  O  O20  1  0.74757400  0.50759200  0.00000000  1
  O  O21  1  0.24998300  0.50053300  0.50000000  1
  O  O22  1  0.75001700  0.50053300  0.50000000  1
  O  O23  1  0.00000000  0.00049200  0.25684900  1
  O  O24  1  0.50000000  0.99829200  0.26973300  1
  O  O25  1  0.00000000  0.00049200  0.74315100  1
  O  O26  1  0.50000000  0.99829200  0.73026700  1
  O  O27  1  0.00000000  0.50116300  0.25077900  1
  O  O28  1  0.50000000  0.50650300  0.24937200  1
  O  O29  1  0.00000000  0.50116300  0.74922100  1
  O  O30  1  0.50000000  0.50650300  0.75062800  1
loop_
_geom_bond_atom_site_label_1
_geom_bond_atom_site_label_2
_geom_bond_distance
_geom_bond_site_symmetry_2
Na0 O3 2.207162 1_555
Na0 O0 2.211724 1_545
Na0 O23 2.220438 1_555
Na0 O25 2.220438 1_554
Mg0 O18 2.080765 1_455
Mg0 O17 2.080765 1_555
Mg0 O25 2.101963 1_555
Mg0 O23 2.101963 1_555
Mg0 O5 2.151315 1_555
Mg0 O1 2.169725 1_545
Mg1 O24 1.991084 1_545
Mg1 O26 1.991084 1_545
Mg1 O17 2.110639 1_555
Mg1 O18 2.110639 1_555
Mg1 O6 2.150998 1_555
Mg1 O2 2.203809 1_545
Mg2 O3 2.069384 1_555
Mg2 O0 2.086397 1_555
Mg2 O19 2.116585 1_555
Mg2 O20 2.116585 1_455
Mg2 O29 2.167879 1_554
Mg2 O27 2.167879 1_555
Mg3 O4 1.959354 1_555
Mg3 O20 2.075982 1_555
Mg3 O19 2.075982 1_555
Mg3 O28 2.156176 1_555
Mg3 O30 2.156176 1_554
Mg4 O22 2.095483 1_455
Mg4 O21 2.095483 1_555
Mg4 O5 2.119092 1_555
Mg4 O1 2.134535 1_555
Mg4 O29 2.154441 1_555
Mg4 O27 2.154441 1_555
Mg5 O6 2.094225 1_555
Mg5 O21 2.095816 1_555
Mg5 O22 2.095816 1_555
Mg5 O2 2.125634 1_555
Mg5 O30 2.167600 1_555
Mg5 O28 2.167600 1_555
Mg6 O24 2.046409 1_545
Mg6 O17 2.105539 1_555
Mg6 O7 2.125131 1_545
Mg6 O11 2.128612 1_555
Mg6 O23 2.148067 1_555
Mg6 O15 2.320388 1_545
Mg7 O24 2.046409 1_545
Mg7 O18 2.105539 1_555
Mg7 O8 2.125131 1_545
Mg7 O12 2.128612 1_555
Mg7 O23 2.148067 1_655
Mg7 O16 2.320388 1_545
Mg8 O26 2.046409 1_545
Mg8 O17 2.105539 1_555
Mg8 O9 2.125131 1_545
Mg8 O13 2.128612 1_555
Mg8 O25 2.148067 1_555
Mg8 O15 2.320388 1_546
Mg9 O26 2.046409 1_545
Mg9 O18 2.105539 1_555
Mg9 O10 2.125131 1_545
Mg9 O14 2.128612 1_555
Mg9 O25 2.148067 1_655
Mg9 O16 2.320388 1_546
Mg10 O28 2.094684 1_555
Mg10 O27 2.097039 1_555
Mg10 O7 2.155462 1_555
Mg10 O21 2.159718 1_555
Mg10 O19 2.163332 1_555
Mg10 O11 2.170420 1_555
Mg11 O28 2.094684 1_555
Mg11 O27 2.097039 1_655
Mg11 O8 2.155462 1_555
Mg11 O22 2.159718 1_555
Mg11 O20 2.163332 1_555
Mg11 O12 2.170420 1_555
Mg12 O30 2.094684 1_555
Mg12 O29 2.097039 1_555
Mg12 O9 2.155462 1_555
Mg12 O21 2.159718 1_555
Mg12 O19 2.163332 1_556
Mg12 O13 2.170420 1_555
Mg13 O30 2.094684 1_555
Mg13 O29 2.097039 1_655
Mg13 O10 2.155462 1_555
Mg13 O22 2.159718 1_555
Mg13 O20 2.163332 1_556
Mg13 O14 2.170420 1_555
Mg14 O19 2.069066 1_555
Mg14 O0 2.085326 1_555
Mg14 O7 2.140037 1_555
Mg14 O9 2.140037 1_554
Mg14 O15 2.174020 1_555
Mg15 O20 2.069066 1_555
Mg15 O0 2.085326 1_655
Mg15 O8 2.140037 1_555
Mg15 O10 2.140037 1_554
Mg15 O16 2.174020 1_555
Mg16 O1 2.079556 1_555
Mg16 O2 2.111952 1_555
Mg16 O21 2.141523 1_555
Mg16 O17 2.146951 1_565
Mg16 O7 2.182756 1_555
Mg16 O9 2.182756 1_555
Mg17 O1 2.079556 1_655
Mg17 O2 2.111952 1_555
Mg17 O22 2.141523 1_555
Mg17 O18 2.146951 1_565
Mg17 O10 2.182756 1_555
Mg17 O8 2.182756 1_555
Mg18 O4 2.023195 1_555
Mg18 O13 2.127637 1_554
Mg18 O11 2.127637 1_555
Mg18 O19 2.151060 1_555
Mg18 O3 2.172870 1_555
Mg18 O15 2.399330 1_545
Mg19 O4 2.023195 1_555
Mg19 O12 2.127637 1_555
Mg19 O14 2.127637 1_554
Mg19 O20 2.151060 1_555
Mg19 O3 2.172870 1_655
Mg19 O16 2.399330 1_545
Mg20 O6 2.093269 1_555
Mg20 O5 2.098230 1_555
Mg20 O21 2.140101 1_555
Mg20 O17 2.146224 1_555
Mg20 O13 2.197272 1_555
Mg20 O11 2.197272 1_555
Mg21 O6 2.093269 1_555
Mg21 O5 2.098230 1_655
Mg21 O22 2.140101 1_555
Mg21 O18 2.146224 1_555
Mg21 O12 2.197272 1_555
Mg21 O14 2.197272 1_555
Mg22 O7 2.100995 1_555
Mg22 O8 2.100995 1_455
Mg22 O23 2.121984 1_565
Mg22 O0 2.151621 1_555
Mg22 O27 2.160818 1_555
Mg22 O1 2.172171 1_555
Mg23 O2 2.069534 1_555
Mg23 O7 2.093408 1_555
Mg23 O8 2.093408 1_555
Mg23 O24 2.095720 1_555
Mg23 O28 2.124921 1_555
Mg24 O9 2.100995 1_555
Mg24 O10 2.100995 1_455
Mg24 O25 2.121984 1_565
Mg24 O0 2.151621 1_556
Mg24 O29 2.160818 1_555
Mg24 O1 2.172171 1_555
Mg25 O2 2.069534 1_555
Mg25 O10 2.093408 1_555
Mg25 O9 2.093408 1_555
Mg25 O26 2.095720 1_555
Mg25 O30 2.124921 1_555
Mg26 O12 2.100591 1_455
Mg26 O11 2.100591 1_555
Mg26 O23 2.127966 1_555
Mg26 O3 2.136895 1_555
Mg26 O27 2.167109 1_555
Mg26 O5 2.188060 1_555
Mg27 O12 2.091026 1_555
Mg27 O11 2.091026 1_555
Mg27 O4 2.109794 1_555
Mg27 O24 2.129644 1_545
Mg27 O6 2.227297 1_555
Mg27 O28 2.241919 1_555
Mg28 O14 2.100591 1_455
Mg28 O13 2.100591 1_555
Mg28 O25 2.127966 1_555
Mg28 O3 2.136895 1_556
Mg28 O29 2.167109 1_555
Mg28 O5 2.188060 1_555
Mg29 O13 2.091026 1_555
Mg29 O14 2.091026 1_555
Mg29 O4 2.109794 1_556
Mg29 O26 2.129644 1_545
Mg29 O6 2.227297 1_555
Mg29 O30 2.241919 1_555
B0 O15 1.456894 1_555
B0 O16 1.456894 1_555
