# generated using pymatgen
data_Se
_symmetry_space_group_name_H-M   'P 1'
_cell_length_a   9.73631680
_cell_length_b   15.81865908
_cell_length_c   5.48040399
_cell_angle_alpha   90.00000000
_cell_angle_beta   89.96718936
_cell_angle_gamma   90.00000000
_symmetry_Int_Tables_number   1
_chemical_formula_structural   Se
_chemical_formula_sum   Se32
_cell_volume   844.06689141
_cell_formula_units_Z   32
loop_
 _symmetry_equiv_pos_site_id
 _symmetry_equiv_pos_as_xyz
  1  'x, y, z'
loop_
 _atom_site_type_symbol
 _atom_site_label
 _atom_site_symmetry_multiplicity
 _atom_site_fract_x
 _atom_site_fract_y
 _atom_site_fract_z
 _atom_site_occupancy
  Se  Se0_0  1  0.46222016  0.25802291  0.38171995  1
  Se  Se0_1  1  0.46222016  0.25802291  0.88171996  1
  Se  Se0_2  1  0.46222016  0.75802291  0.38171995  1
  Se  Se0_3  1  0.46222016  0.75802291  0.88171996  1
  Se  Se0_4  1  0.96222016  0.25802291  0.38171996  1
  Se  Se0_5  1  0.96222016  0.25802291  0.88171995  1
  Se  Se0_6  1  0.96222016  0.75802291  0.38171996  1
  Se  Se0_7  1  0.96222016  0.75802291  0.88171995  1
  Se  Se1_0  1  0.03777984  0.00802291  0.11828005  1
  Se  Se1_1  1  0.03777984  0.00802291  0.61828005  1
  Se  Se1_2  1  0.03777984  0.50802291  0.11828005  1
  Se  Se1_3  1  0.03777984  0.50802291  0.61828005  1
  Se  Se1_4  1  0.53777984  0.00802291  0.11828005  1
  Se  Se1_5  1  0.53777984  0.00802291  0.61828005  1
  Se  Se1_6  1  0.53777984  0.50802291  0.11828005  1
  Se  Se1_7  1  0.53777984  0.50802291  0.61828005  1
  Se  Se2_0  1  0.28813956  0.35697710  0.38211644  1
  Se  Se2_1  1  0.28813956  0.35697710  0.88211644  1
  Se  Se2_2  1  0.28813956  0.85697710  0.38211644  1
  Se  Se2_3  1  0.28813956  0.85697710  0.88211644  1
  Se  Se2_4  1  0.78813956  0.35697710  0.38211644  1
  Se  Se2_5  1  0.78813956  0.35697710  0.88211644  1
  Se  Se2_6  1  0.78813956  0.85697710  0.38211644  1
  Se  Se2_7  1  0.78813956  0.85697710  0.88211644  1
  Se  Se3_0  1  0.21186044  0.10697709  0.11788356  1
  Se  Se3_1  1  0.21186044  0.10697709  0.61788356  1
  Se  Se3_2  1  0.21186044  0.60697710  0.11788356  1
  Se  Se3_3  1  0.21186044  0.60697710  0.61788356  1
  Se  Se3_4  1  0.71186044  0.10697709  0.11788356  1
  Se  Se3_5  1  0.71186044  0.10697709  0.61788356  1
  Se  Se3_6  1  0.71186044  0.60697710  0.11788356  1
  Se  Se3_7  1  0.71186044  0.60697710  0.61788356  1
loop_
_geom_bond_atom_site_label_1
_geom_bond_atom_site_label_2
_geom_bond_distance
_geom_bond_site_symmetry_2
Se0_0 Se2_0 2.307149 1_555
Se0_0 Se0_1 2.740202 1_554
Se0_0 Se0_1 2.740202 1_555
Se0_1 Se2_1 2.307149 1_555
Se0_2 Se2_2 2.307149 1_555
Se0_2 Se0_3 2.740202 1_554
Se0_2 Se0_3 2.740202 1_555
Se0_3 Se2_3 2.307149 1_555
Se0_4 Se2_4 2.307149 1_555
Se0_4 Se0_5 2.740202 1_555
Se0_4 Se0_5 2.740202 1_554
Se0_5 Se2_5 2.307149 1_555
Se0_6 Se2_6 2.307149 1_555
Se0_6 Se0_7 2.740202 1_555
Se0_6 Se0_7 2.740202 1_554
Se0_7 Se2_7 2.307149 1_555
Se1_0 Se3_0 2.307149 1_555
Se1_0 Se1_1 2.740202 1_555
Se1_0 Se1_1 2.740202 1_554
Se1_1 Se3_1 2.307149 1_555
Se1_2 Se3_2 2.307149 1_555
Se1_2 Se1_3 2.740202 1_555
Se1_2 Se1_3 2.740202 1_554
Se1_3 Se3_3 2.307149 1_555
Se1_4 Se3_4 2.307149 1_555
Se1_4 Se1_5 2.740202 1_555
Se1_4 Se1_5 2.740202 1_554
Se1_5 Se3_5 2.307149 1_555
Se1_6 Se3_6 2.307149 1_555
Se1_6 Se1_7 2.740202 1_554
Se1_6 Se1_7 2.740202 1_555
Se1_7 Se3_7 2.307149 1_555
Se2_0 Se2_1 2.740202 1_555
Se2_0 Se2_1 2.740202 1_554
Se2_2 Se2_3 2.740202 1_554
Se2_2 Se2_3 2.740202 1_555
Se2_4 Se2_5 2.740202 1_555
Se2_4 Se2_5 2.740202 1_554
Se2_6 Se2_7 2.740202 1_555
Se2_6 Se2_7 2.740202 1_554
Se3_0 Se3_1 2.740202 1_555
Se3_0 Se3_1 2.740202 1_554
Se3_2 Se3_3 2.740202 1_555
Se3_2 Se3_3 2.740202 1_554
Se3_4 Se3_5 2.740202 1_555
Se3_4 Se3_5 2.740202 1_554
Se3_6 Se3_7 2.740202 1_554
Se3_6 Se3_7 2.740202 1_555
