# generated using pymatgen
data_Sn4SF6
_symmetry_space_group_name_H-M   'P 1'
_cell_length_a   5.11253700
_cell_length_b   7.23021900
_cell_length_c   7.23021847
_cell_angle_alpha   60.00000213
_cell_angle_beta   90.00000000
_cell_angle_gamma   90.00000000
_symmetry_Int_Tables_number   1
_chemical_formula_structural   Sn4SF6
_chemical_formula_sum   'Sn4 S1 F6'
_cell_volume   231.45681737
_cell_formula_units_Z   1
loop_
 _symmetry_equiv_pos_site_id
 _symmetry_equiv_pos_as_xyz
  1  'x, y, z'
loop_
 _atom_site_type_symbol
 _atom_site_label
 _atom_site_symmetry_multiplicity
 _atom_site_fract_x
 _atom_site_fract_y
 _atom_site_fract_z
 _atom_site_occupancy
  Sn  Sn0  1  0.99524700  0.50852000  0.50088600  1
  Sn  Sn1  1  0.99236600  0.49436100  0.99524700  1
  Sn  Sn2  1  0.50088600  0.99711900  0.99236600  1
  Sn  Sn3  1  0.49057900  0.00000000  0.49057900  1
  S  S0  1  0.92023800  0.00000000  0.92023800  1
  F  F0  1  0.69757900  0.25658000  0.38947900  1
  F  F1  1  0.13290000  0.30809900  0.69757900  1
  F  F2  1  0.38947900  0.43532100  0.13290000  1
  F  F3  1  0.41649900  0.86922400  0.67092100  1
  F  F4  1  0.80169700  0.74557900  0.41649900  1
  F  F5  1  0.67092100  0.38519700  0.80169700  1
loop_
_geom_bond_atom_site_label_1
_geom_bond_atom_site_label_2
_geom_bond_distance
_geom_bond_site_symmetry_2
S0 Sn2 2.204102 1_545
S0 Sn2 3.012313 1_645
F0 Sn3 1.933847 1_555
F1 Sn0 1.598998 1_455
F1 S0 2.269340 1_455
F2 Sn1 2.206774 1_454
F3 Sn3 1.226692 1_565
F4 Sn0 1.800952 1_555
F5 Sn0 2.517036 1_555
F5 Sn1 2.527171 1_555
F5 Sn2 2.580902 1_545
