# generated using pymatgen
data_Mg6FeB
_symmetry_space_group_name_H-M   'P 1'
_cell_length_a   6.41689400
_cell_length_b   18.89760400
_cell_length_c   20.30475000
_cell_angle_alpha   90.00000000
_cell_angle_beta   90.00000000
_cell_angle_gamma   90.00000000
_symmetry_Int_Tables_number   1
_chemical_formula_structural   Mg6FeB
_chemical_formula_sum   'Mg96 Fe16 B16'
_cell_volume   2462.23361458
_cell_formula_units_Z   16
loop_
 _symmetry_equiv_pos_site_id
 _symmetry_equiv_pos_as_xyz
  1  'x, y, z'
loop_
 _atom_site_type_symbol
 _atom_site_label
 _atom_site_symmetry_multiplicity
 _atom_site_fract_x
 _atom_site_fract_y
 _atom_site_fract_z
 _atom_site_occupancy
  Mg  Mg0_0  1  0.00000000  0.33395950  0.06114200  1
  Mg  Mg0_1  1  0.00000000  0.33395950  0.56114200  1
  Mg  Mg0_2  1  0.00000000  0.83395950  0.06114200  1
  Mg  Mg0_3  1  0.00000000  0.83395950  0.56114200  1
  Mg  Mg0_4  1  0.50000000  0.33395950  0.06114200  1
  Mg  Mg0_5  1  0.50000000  0.33395950  0.56114200  1
  Mg  Mg0_6  1  0.50000000  0.83395950  0.06114200  1
  Mg  Mg0_7  1  0.50000000  0.83395950  0.56114200  1
  Mg  Mg1_0  1  0.00000000  0.16604050  0.06114200  1
  Mg  Mg1_1  1  0.00000000  0.16604050  0.56114200  1
  Mg  Mg1_2  1  0.00000000  0.66604050  0.06114200  1
  Mg  Mg1_3  1  0.00000000  0.66604050  0.56114200  1
  Mg  Mg1_4  1  0.50000000  0.16604050  0.06114200  1
  Mg  Mg1_5  1  0.50000000  0.16604050  0.56114200  1
  Mg  Mg1_6  1  0.50000000  0.66604050  0.06114200  1
  Mg  Mg1_7  1  0.50000000  0.66604050  0.56114200  1
  Mg  Mg2_0  1  0.00000000  0.25000000  0.42310500  1
  Mg  Mg2_1  1  0.00000000  0.25000000  0.92310500  1
  Mg  Mg2_2  1  0.00000000  0.75000000  0.42310500  1
  Mg  Mg2_3  1  0.00000000  0.75000000  0.92310500  1
  Mg  Mg2_4  1  0.50000000  0.25000000  0.42310500  1
  Mg  Mg2_5  1  0.50000000  0.25000000  0.92310500  1
  Mg  Mg2_6  1  0.50000000  0.75000000  0.42310500  1
  Mg  Mg2_7  1  0.50000000  0.75000000  0.92310500  1
  Mg  Mg3_0  1  0.25000000  0.38783800  0.43736100  1
  Mg  Mg3_1  1  0.25000000  0.38783800  0.93736100  1
  Mg  Mg3_2  1  0.25000000  0.88783800  0.43736100  1
  Mg  Mg3_3  1  0.25000000  0.88783800  0.93736100  1
  Mg  Mg3_4  1  0.75000000  0.38783800  0.43736100  1
  Mg  Mg3_5  1  0.75000000  0.38783800  0.93736100  1
  Mg  Mg3_6  1  0.75000000  0.88783800  0.43736100  1
  Mg  Mg3_7  1  0.75000000  0.88783800  0.93736100  1
  Mg  Mg4_0  1  0.25000000  0.11216200  0.43736100  1
  Mg  Mg4_1  1  0.25000000  0.11216200  0.93736100  1
  Mg  Mg4_2  1  0.25000000  0.61216200  0.43736100  1
  Mg  Mg4_3  1  0.25000000  0.61216200  0.93736100  1
  Mg  Mg4_4  1  0.75000000  0.11216200  0.43736100  1
  Mg  Mg4_5  1  0.75000000  0.11216200  0.93736100  1
  Mg  Mg4_6  1  0.75000000  0.61216200  0.43736100  1
  Mg  Mg4_7  1  0.75000000  0.61216200  0.93736100  1
  Mg  Mg5_0  1  0.25000000  0.25000000  0.29067850  1
  Mg  Mg5_1  1  0.25000000  0.25000000  0.79067850  1
  Mg  Mg5_2  1  0.25000000  0.75000000  0.29067850  1
  Mg  Mg5_3  1  0.25000000  0.75000000  0.79067850  1
  Mg  Mg5_4  1  0.75000000  0.25000000  0.29067850  1
  Mg  Mg5_5  1  0.75000000  0.25000000  0.79067850  1
  Mg  Mg5_6  1  0.75000000  0.75000000  0.29067850  1
  Mg  Mg5_7  1  0.75000000  0.75000000  0.79067850  1
  Mg  Mg6_0  1  0.00000000  0.08395950  0.31114200  1
  Mg  Mg6_1  1  0.00000000  0.08395950  0.81114200  1
  Mg  Mg6_2  1  0.00000000  0.58395950  0.31114200  1
  Mg  Mg6_3  1  0.00000000  0.58395950  0.81114200  1
  Mg  Mg6_4  1  0.50000000  0.08395950  0.31114200  1
  Mg  Mg6_5  1  0.50000000  0.08395950  0.81114200  1
  Mg  Mg6_6  1  0.50000000  0.58395950  0.31114200  1
  Mg  Mg6_7  1  0.50000000  0.58395950  0.81114200  1
  Mg  Mg7_0  1  0.00000000  0.41604050  0.31114200  1
  Mg  Mg7_1  1  0.00000000  0.41604050  0.81114200  1
  Mg  Mg7_2  1  0.00000000  0.91604050  0.31114200  1
  Mg  Mg7_3  1  0.00000000  0.91604050  0.81114200  1
  Mg  Mg7_4  1  0.50000000  0.41604050  0.31114200  1
  Mg  Mg7_5  1  0.50000000  0.41604050  0.81114200  1
  Mg  Mg7_6  1  0.50000000  0.91604050  0.31114200  1
  Mg  Mg7_7  1  0.50000000  0.91604050  0.81114200  1
  Mg  Mg8_0  1  0.00000000  0.00000000  0.17310500  1
  Mg  Mg8_1  1  0.00000000  0.00000000  0.67310500  1
  Mg  Mg8_2  1  0.00000000  0.50000000  0.17310500  1
  Mg  Mg8_3  1  0.00000000  0.50000000  0.67310500  1
  Mg  Mg8_4  1  0.50000000  0.00000000  0.17310500  1
  Mg  Mg8_5  1  0.50000000  0.00000000  0.67310500  1
  Mg  Mg8_6  1  0.50000000  0.50000000  0.17310500  1
  Mg  Mg8_7  1  0.50000000  0.50000000  0.67310500  1
  Mg  Mg9_0  1  0.25000000  0.13783800  0.18736100  1
  Mg  Mg9_1  1  0.25000000  0.13783800  0.68736100  1
  Mg  Mg9_2  1  0.25000000  0.63783800  0.18736100  1
  Mg  Mg9_3  1  0.25000000  0.63783800  0.68736100  1
  Mg  Mg9_4  1  0.75000000  0.13783800  0.18736100  1
  Mg  Mg9_5  1  0.75000000  0.13783800  0.68736100  1
  Mg  Mg9_6  1  0.75000000  0.63783800  0.18736100  1
  Mg  Mg9_7  1  0.75000000  0.63783800  0.68736100  1
  Mg  Mg10_0  1  0.25000000  0.36216200  0.18736100  1
  Mg  Mg10_1  1  0.25000000  0.36216200  0.68736100  1
  Mg  Mg10_2  1  0.25000000  0.86216200  0.18736100  1
  Mg  Mg10_3  1  0.25000000  0.86216200  0.68736100  1
  Mg  Mg10_4  1  0.75000000  0.36216200  0.18736100  1
  Mg  Mg10_5  1  0.75000000  0.36216200  0.68736100  1
  Mg  Mg10_6  1  0.75000000  0.86216200  0.18736100  1
  Mg  Mg10_7  1  0.75000000  0.86216200  0.68736100  1
  Mg  Mg11_0  1  0.25000000  0.00000000  0.04067850  1
  Mg  Mg11_1  1  0.25000000  0.00000000  0.54067850  1
  Mg  Mg11_2  1  0.25000000  0.50000000  0.04067850  1
  Mg  Mg11_3  1  0.25000000  0.50000000  0.54067850  1
  Mg  Mg11_4  1  0.75000000  0.00000000  0.04067850  1
  Mg  Mg11_5  1  0.75000000  0.00000000  0.54067850  1
  Mg  Mg11_6  1  0.75000000  0.50000000  0.04067850  1
  Mg  Mg11_7  1  0.75000000  0.50000000  0.54067850  1
  Fe  Fe0_0  1  0.00000000  0.25000000  0.16919850  1
  Fe  Fe0_1  1  0.00000000  0.25000000  0.66919850  1
  Fe  Fe0_2  1  0.00000000  0.75000000  0.16919850  1
  Fe  Fe0_3  1  0.00000000  0.75000000  0.66919850  1
  Fe  Fe0_4  1  0.50000000  0.25000000  0.16919850  1
  Fe  Fe0_5  1  0.50000000  0.25000000  0.66919850  1
  Fe  Fe0_6  1  0.50000000  0.75000000  0.16919850  1
  Fe  Fe0_7  1  0.50000000  0.75000000  0.66919850  1
  Fe  Fe1_0  1  0.00000000  0.00000000  0.41919850  1
  Fe  Fe1_1  1  0.00000000  0.00000000  0.91919850  1
  Fe  Fe1_2  1  0.00000000  0.50000000  0.41919850  1
  Fe  Fe1_3  1  0.00000000  0.50000000  0.91919850  1
  Fe  Fe1_4  1  0.50000000  0.00000000  0.41919850  1
  Fe  Fe1_5  1  0.50000000  0.00000000  0.91919850  1
  Fe  Fe1_6  1  0.50000000  0.50000000  0.41919850  1
  Fe  Fe1_7  1  0.50000000  0.50000000  0.91919850  1
  B  B0_0  1  0.25000000  0.25000000  0.12001200  1
  B  B0_1  1  0.25000000  0.25000000  0.62001200  1
  B  B0_2  1  0.25000000  0.75000000  0.12001200  1
  B  B0_3  1  0.25000000  0.75000000  0.62001200  1
  B  B0_4  1  0.75000000  0.25000000  0.12001200  1
  B  B0_5  1  0.75000000  0.25000000  0.62001200  1
  B  B0_6  1  0.75000000  0.75000000  0.12001200  1
  B  B0_7  1  0.75000000  0.75000000  0.62001200  1
  B  B1_0  1  0.25000000  0.00000000  0.37001200  1
  B  B1_1  1  0.25000000  0.00000000  0.87001200  1
  B  B1_2  1  0.25000000  0.50000000  0.37001200  1
  B  B1_3  1  0.25000000  0.50000000  0.87001200  1
  B  B1_4  1  0.75000000  0.00000000  0.37001200  1
  B  B1_5  1  0.75000000  0.00000000  0.87001200  1
  B  B1_6  1  0.75000000  0.50000000  0.37001200  1
  B  B1_7  1  0.75000000  0.50000000  0.87001200  1
loop_
_geom_bond_atom_site_label_1
_geom_bond_atom_site_label_2
_geom_bond_distance
_geom_bond_site_symmetry_2
Mg0_0 Mg2_1 3.220735 1_554
Mg0_1 Mg2_0 3.220735 1_555
Mg0_2 Mg2_3 3.220735 1_554
Mg0_3 Mg2_2 3.220735 1_555
Mg0_4 Mg2_5 3.220735 1_554
Mg0_5 Mg2_4 3.220735 1_555
Mg0_6 Mg2_7 3.220735 1_554
Mg0_7 Mg2_6 3.220735 1_555
Mg1_0 Mg2_1 3.220735 1_554
Mg1_1 Mg2_0 3.220735 1_555
Mg1_2 Mg2_3 3.220735 1_554
Mg1_3 Mg2_2 3.220735 1_555
Mg1_4 Mg2_5 3.220735 1_554
Mg1_5 Mg2_4 3.220735 1_555
Mg1_6 Mg2_7 3.220735 1_554
Mg1_7 Mg2_6 3.220735 1_555
Mg2_0 Mg3_4 3.072840 1_455
Mg2_0 Mg3_0 3.072840 1_555
Mg2_0 Mg4_0 3.072840 1_555
Mg2_0 Mg4_4 3.072840 1_455
Mg2_0 Mg5_4 3.131077 1_455
Mg2_0 Mg5_0 3.131077 1_555
Mg2_0 Mg2_4 3.208447 1_455
Mg2_0 Mg2_4 3.208447 1_555
Mg2_1 Mg3_1 3.072840 1_555
Mg2_1 Mg3_5 3.072840 1_455
Mg2_1 Mg4_1 3.072840 1_555
Mg2_1 Mg4_5 3.072840 1_455
Mg2_1 Mg5_5 3.131077 1_455
Mg2_1 Mg5_1 3.131077 1_555
Mg2_1 Mg2_5 3.208447 1_455
Mg2_1 Mg2_5 3.208447 1_555
Mg2_2 Mg3_2 3.072840 1_555
Mg2_2 Mg3_6 3.072840 1_455
Mg2_2 Mg4_6 3.072840 1_455
Mg2_2 Mg4_2 3.072840 1_555
Mg2_2 Mg5_2 3.131077 1_555
Mg2_2 Mg5_6 3.131077 1_455
Mg2_2 Mg2_6 3.208447 1_555
Mg2_2 Mg2_6 3.208447 1_455
Mg2_3 Mg3_3 3.072840 1_555
Mg2_3 Mg3_7 3.072840 1_455
Mg2_3 Mg4_3 3.072840 1_555
Mg2_3 Mg4_7 3.072840 1_455
Mg2_3 Mg5_7 3.131077 1_455
Mg2_3 Mg5_3 3.131077 1_555
Mg2_3 Mg2_7 3.208447 1_555
Mg2_3 Mg2_7 3.208447 1_455
Mg2_4 Mg4_4 3.072840 1_555
Mg2_4 Mg3_0 3.072840 1_555
Mg2_4 Mg3_4 3.072840 1_555
Mg2_4 Mg4_0 3.072840 1_555
Mg2_4 Mg5_0 3.131077 1_555
Mg2_4 Mg5_4 3.131077 1_555
Mg2_5 Mg3_1 3.072840 1_555
Mg2_5 Mg3_5 3.072840 1_555
Mg2_5 Mg4_1 3.072840 1_555
Mg2_5 Mg4_5 3.072840 1_555
Mg2_5 Mg5_5 3.131077 1_555
Mg2_5 Mg5_1 3.131077 1_555
Mg2_6 Mg3_2 3.072840 1_555
Mg2_6 Mg3_6 3.072840 1_555
Mg2_6 Mg4_2 3.072840 1_555
Mg2_6 Mg4_6 3.072840 1_555
Mg2_6 Mg5_2 3.131077 1_555
Mg2_6 Mg5_6 3.131077 1_555
Mg2_7 Mg3_3 3.072840 1_555
Mg2_7 Mg3_7 3.072840 1_555
Mg2_7 Mg4_3 3.072840 1_555
Mg2_7 Mg4_7 3.072840 1_555
Mg2_7 Mg5_3 3.131077 1_555
Mg2_7 Mg5_7 3.131077 1_555
Mg6_0 Mg8_0 3.220735 1_555
Mg6_1 Mg8_1 3.220735 1_555
Mg6_2 Mg8_2 3.220735 1_555
Mg6_3 Mg8_3 3.220735 1_555
Mg6_4 Mg8_4 3.220735 1_555
Mg6_5 Mg8_5 3.220735 1_555
Mg6_6 Mg8_6 3.220735 1_555
Mg6_7 Mg8_7 3.220735 1_555
Mg7_0 Mg8_2 3.220735 1_555
Mg7_1 Mg8_3 3.220735 1_555
Mg7_2 Mg8_0 3.220735 1_565
Mg7_3 Mg8_1 3.220735 1_565
Mg7_4 Mg8_6 3.220735 1_555
Mg7_5 Mg8_7 3.220735 1_555
Mg7_6 Mg8_4 3.220735 1_565
Mg7_7 Mg8_5 3.220735 1_565
Mg8_0 Mg9_4 3.072840 1_455
Mg8_0 Mg9_0 3.072840 1_555
Mg8_0 Mg8_4 3.208447 1_555
Mg8_0 Mg8_4 3.208447 1_455
Mg8_1 Mg9_1 3.072840 1_555
Mg8_1 Mg9_5 3.072840 1_455
Mg8_1 Mg8_5 3.208447 1_455
Mg8_1 Mg8_5 3.208447 1_555
Mg8_2 Mg9_2 3.072840 1_555
Mg8_2 Mg9_6 3.072840 1_455
Mg8_2 Mg8_6 3.208447 1_555
Mg8_2 Mg8_6 3.208447 1_455
Mg8_3 Mg9_7 3.072840 1_455
Mg8_3 Mg9_3 3.072840 1_555
Mg8_3 Mg8_7 3.208447 1_555
Mg8_3 Mg8_7 3.208447 1_455
Mg8_4 Mg9_4 3.072840 1_555
Mg8_4 Mg9_0 3.072840 1_555
Mg8_5 Mg9_1 3.072840 1_555
Mg8_5 Mg9_5 3.072840 1_555
Mg8_6 Mg9_2 3.072840 1_555
Mg8_6 Mg9_6 3.072840 1_555
Mg8_7 Mg9_7 3.072840 1_555
Mg8_7 Mg9_3 3.072840 1_555
Mg10_0 Mg8_6 3.072840 1_555
Mg10_0 Mg8_2 3.072840 1_555
Mg10_1 Mg8_3 3.072840 1_555
Mg10_1 Mg8_7 3.072840 1_555
Mg10_2 Mg8_0 3.072840 1_565
Mg10_2 Mg8_4 3.072840 1_565
Mg10_3 Mg8_1 3.072840 1_565
Mg10_3 Mg8_5 3.072840 1_565
Mg10_4 Mg8_2 3.072840 1_655
Mg10_4 Mg8_6 3.072840 1_555
Mg10_5 Mg8_7 3.072840 1_555
Mg10_5 Mg8_3 3.072840 1_655
Mg10_6 Mg8_4 3.072840 1_565
Mg10_6 Mg8_0 3.072840 1_665
Mg10_7 Mg8_5 3.072840 1_565
Mg10_7 Mg8_1 3.072840 1_665
Mg11_0 Mg8_0 3.131077 1_555
Mg11_0 Mg8_4 3.131077 1_555
Mg11_1 Mg8_1 3.131077 1_555
Mg11_1 Mg8_5 3.131077 1_555
Mg11_2 Mg8_2 3.131077 1_555
Mg11_2 Mg8_6 3.131077 1_555
Mg11_3 Mg8_7 3.131077 1_555
Mg11_3 Mg8_3 3.131077 1_555
Mg11_4 Mg8_0 3.131077 1_655
Mg11_4 Mg8_4 3.131077 1_555
Mg11_5 Mg8_1 3.131077 1_655
Mg11_5 Mg8_5 3.131077 1_555
Mg11_6 Mg8_6 3.131077 1_555
Mg11_6 Mg8_2 3.131077 1_655
Mg11_7 Mg8_3 3.131077 1_655
Mg11_7 Mg8_7 3.131077 1_555
Fe0_0 Mg10_0 2.683693 1_555
Fe0_0 Mg10_4 2.683693 1_455
Fe0_0 Mg9_4 2.683693 1_455
Fe0_0 Mg9_0 2.683693 1_555
Fe0_0 Mg5_4 2.942406 1_455
Fe0_0 Mg5_0 2.942406 1_555
Fe0_1 Mg10_1 2.683693 1_555
Fe0_1 Mg10_5 2.683693 1_455
Fe0_1 Mg9_1 2.683693 1_555
Fe0_1 Mg9_5 2.683693 1_455
Fe0_1 Mg5_1 2.942406 1_555
Fe0_1 Mg5_5 2.942406 1_455
Fe0_2 Mg10_6 2.683693 1_455
Fe0_2 Mg10_2 2.683693 1_555
Fe0_2 Mg9_6 2.683693 1_455
Fe0_2 Mg9_2 2.683693 1_555
Fe0_2 Mg5_2 2.942406 1_555
Fe0_2 Mg5_6 2.942406 1_455
Fe0_3 Mg10_3 2.683693 1_555
Fe0_3 Mg10_7 2.683693 1_455
Fe0_3 Mg9_7 2.683693 1_455
Fe0_3 Mg9_3 2.683693 1_555
Fe0_3 Mg5_3 2.942406 1_555
Fe0_3 Mg5_7 2.942406 1_455
Fe0_4 Mg10_0 2.683693 1_555
Fe0_4 Mg10_4 2.683693 1_555
Fe0_4 Mg9_0 2.683693 1_555
Fe0_4 Mg9_4 2.683693 1_555
Fe0_4 Mg5_4 2.942406 1_555
Fe0_4 Mg5_0 2.942406 1_555
Fe0_5 Mg10_1 2.683693 1_555
Fe0_5 Mg10_5 2.683693 1_555
Fe0_5 Mg9_1 2.683693 1_555
Fe0_5 Mg9_5 2.683693 1_555
Fe0_5 Mg5_1 2.942406 1_555
Fe0_5 Mg5_5 2.942406 1_555
Fe0_6 Mg10_6 2.683693 1_555
Fe0_6 Mg10_2 2.683693 1_555
Fe0_6 Mg9_2 2.683693 1_555
Fe0_6 Mg9_6 2.683693 1_555
Fe0_6 Mg5_2 2.942406 1_555
Fe0_6 Mg5_6 2.942406 1_555
Fe0_7 Mg10_3 2.683693 1_555
Fe0_7 Mg10_7 2.683693 1_555
Fe0_7 Mg9_3 2.683693 1_555
Fe0_7 Mg9_7 2.683693 1_555
Fe0_7 Mg5_7 2.942406 1_555
Fe0_7 Mg5_3 2.942406 1_555
Fe1_0 Mg4_0 2.683693 1_555
Fe1_0 Mg4_4 2.683693 1_455
Fe1_0 Mg3_6 2.683693 1_445
Fe1_0 Mg3_2 2.683693 1_545
Fe1_0 Mg11_1 2.942406 1_555
Fe1_0 Mg11_5 2.942406 1_455
Fe1_1 Mg4_1 2.683693 1_555
Fe1_1 Mg4_5 2.683693 1_455
Fe1_1 Mg3_3 2.683693 1_545
Fe1_1 Mg3_7 2.683693 1_445
Fe1_1 Mg11_4 2.942406 1_456
Fe1_1 Mg11_0 2.942406 1_556
Fe1_2 Mg4_6 2.683693 1_455
Fe1_2 Mg4_2 2.683693 1_555
Fe1_2 Mg3_0 2.683693 1_555
Fe1_2 Mg3_4 2.683693 1_455
Fe1_2 Mg11_3 2.942406 1_555
Fe1_2 Mg11_7 2.942406 1_455
Fe1_3 Mg4_3 2.683693 1_555
Fe1_3 Mg3_1 2.683693 1_555
Fe1_3 Mg4_7 2.683693 1_455
Fe1_3 Mg3_5 2.683693 1_455
Fe1_3 Mg11_2 2.942406 1_556
Fe1_3 Mg11_6 2.942406 1_456
Fe1_4 Mg4_4 2.683693 1_555
Fe1_4 Mg4_0 2.683693 1_555
Fe1_4 Mg3_2 2.683693 1_545
Fe1_4 Mg3_6 2.683693 1_545
Fe1_4 Mg11_1 2.942406 1_555
Fe1_4 Mg11_5 2.942406 1_555
Fe1_5 Mg4_5 2.683693 1_555
Fe1_5 Mg4_1 2.683693 1_555
Fe1_5 Mg3_3 2.683693 1_545
Fe1_5 Mg3_7 2.683693 1_545
Fe1_5 Mg11_4 2.942406 1_556
Fe1_5 Mg11_0 2.942406 1_556
Fe1_6 Mg4_2 2.683693 1_555
Fe1_6 Mg3_0 2.683693 1_555
Fe1_6 Mg3_4 2.683693 1_555
Fe1_6 Mg4_6 2.683693 1_555
Fe1_6 Mg11_7 2.942406 1_555
Fe1_6 Mg11_3 2.942406 1_555
Fe1_7 Mg4_3 2.683693 1_555
Fe1_7 Mg3_1 2.683693 1_555
Fe1_7 Mg4_7 2.683693 1_555
Fe1_7 Mg3_5 2.683693 1_555
Fe1_7 Mg11_2 2.942406 1_556
Fe1_7 Mg11_6 2.942406 1_556
B0_0 Fe0_0 1.889702 1_555
B0_0 Fe0_4 1.889702 1_555
B0_0 Mg10_0 2.522448 1_555
B0_0 Mg9_0 2.522448 1_555
B0_0 Mg0_4 2.553386 1_555
B0_0 Mg1_0 2.553386 1_555
B0_0 Mg1_4 2.553386 1_555
B0_0 Mg0_0 2.553386 1_555
B0_1 Fe0_1 1.889702 1_555
B0_1 Fe0_5 1.889702 1_555
B0_1 Mg10_1 2.522448 1_555
B0_1 Mg9_1 2.522448 1_555
B0_1 Mg0_1 2.553386 1_555
B0_1 Mg0_5 2.553386 1_555
B0_1 Mg1_1 2.553386 1_555
B0_1 Mg1_5 2.553386 1_555
B0_2 Fe0_2 1.889702 1_555
B0_2 Fe0_6 1.889702 1_555
B0_2 Mg10_2 2.522448 1_555
B0_2 Mg9_2 2.522448 1_555
B0_2 Mg0_2 2.553386 1_555
B0_2 Mg0_6 2.553386 1_555
B0_2 Mg1_2 2.553386 1_555
B0_2 Mg1_6 2.553386 1_555
B0_3 Fe0_3 1.889702 1_555
B0_3 Fe0_7 1.889702 1_555
B0_3 Mg10_3 2.522448 1_555
B0_3 Mg9_3 2.522448 1_555
B0_3 Mg0_3 2.553386 1_555
B0_3 Mg0_7 2.553386 1_555
B0_3 Mg1_3 2.553386 1_555
B0_3 Mg1_7 2.553386 1_555
B0_4 Fe0_4 1.889702 1_555
B0_4 Fe0_0 1.889702 1_655
B0_4 Mg10_4 2.522448 1_555
B0_4 Mg9_4 2.522448 1_555
B0_4 Mg0_4 2.553386 1_555
B0_4 Mg0_0 2.553386 1_655
B0_4 Mg1_4 2.553386 1_555
B0_4 Mg1_0 2.553386 1_655
B0_5 Fe0_5 1.889702 1_555
B0_5 Fe0_1 1.889702 1_655
B0_5 Mg10_5 2.522448 1_555
B0_5 Mg9_5 2.522448 1_555
B0_5 Mg1_1 2.553386 1_655
B0_5 Mg0_1 2.553386 1_655
B0_5 Mg0_5 2.553386 1_555
B0_5 Mg1_5 2.553386 1_555
B0_6 Fe0_2 1.889702 1_655
B0_6 Fe0_6 1.889702 1_555
B0_6 Mg10_6 2.522448 1_555
B0_6 Mg9_6 2.522448 1_555
B0_6 Mg0_2 2.553386 1_655
B0_6 Mg0_6 2.553386 1_555
B0_6 Mg1_2 2.553386 1_655
B0_6 Mg1_6 2.553386 1_555
B0_7 Fe0_7 1.889702 1_555
B0_7 Fe0_3 1.889702 1_655
B0_7 Mg10_7 2.522448 1_555
B0_7 Mg9_7 2.522448 1_555
B0_7 Mg0_7 2.553386 1_555
B0_7 Mg0_3 2.553386 1_655
B0_7 Mg1_7 2.553386 1_555
B0_7 Mg1_3 2.553386 1_655
B1_0 Fe1_0 1.889702 1_555
B1_0 Fe1_4 1.889702 1_555
B1_0 Mg4_0 2.522448 1_555
B1_0 Mg3_2 2.522448 1_545
B1_0 Mg7_2 2.553386 1_545
B1_0 Mg7_6 2.553386 1_545
B1_0 Mg6_0 2.553386 1_555
B1_0 Mg6_4 2.553386 1_555
B1_1 Fe1_1 1.889702 1_555
B1_1 Fe1_5 1.889702 1_555
B1_1 Mg4_1 2.522448 1_555
B1_1 Mg3_3 2.522448 1_545
B1_1 Mg7_3 2.553386 1_545
B1_1 Mg7_7 2.553386 1_545
B1_1 Mg6_5 2.553386 1_555
B1_1 Mg6_1 2.553386 1_555
B1_2 Fe1_6 1.889702 1_555
B1_2 Fe1_2 1.889702 1_555
B1_2 Mg3_0 2.522448 1_555
B1_2 Mg4_2 2.522448 1_555
B1_2 Mg6_6 2.553386 1_555
B1_2 Mg6_2 2.553386 1_555
B1_2 Mg7_0 2.553386 1_555
B1_2 Mg7_4 2.553386 1_555
B1_3 Fe1_3 1.889702 1_555
B1_3 Fe1_7 1.889702 1_555
B1_3 Mg4_3 2.522448 1_555
B1_3 Mg3_1 2.522448 1_555
B1_3 Mg6_7 2.553386 1_555
B1_3 Mg6_3 2.553386 1_555
B1_3 Mg7_1 2.553386 1_555
B1_3 Mg7_5 2.553386 1_555
B1_4 Fe1_4 1.889702 1_555
B1_4 Fe1_0 1.889702 1_655
B1_4 Mg4_4 2.522448 1_555
B1_4 Mg3_6 2.522448 1_545
B1_4 Mg7_2 2.553386 1_645
B1_4 Mg7_6 2.553386 1_545
B1_4 Mg6_0 2.553386 1_655
B1_4 Mg6_4 2.553386 1_555
B1_5 Fe1_1 1.889702 1_655
B1_5 Fe1_5 1.889702 1_555
B1_5 Mg4_5 2.522448 1_555
B1_5 Mg3_7 2.522448 1_545
B1_5 Mg7_3 2.553386 1_645
B1_5 Mg7_7 2.553386 1_545
B1_5 Mg6_5 2.553386 1_555
B1_5 Mg6_1 2.553386 1_655
B1_6 Fe1_6 1.889702 1_555
B1_6 Fe1_2 1.889702 1_655
B1_6 Mg3_4 2.522448 1_555
B1_6 Mg4_6 2.522448 1_555
B1_6 Mg6_2 2.553386 1_655
B1_6 Mg6_6 2.553386 1_555
B1_6 Mg7_0 2.553386 1_655
B1_6 Mg7_4 2.553386 1_555
B1_7 Fe1_7 1.889702 1_555
B1_7 Fe1_3 1.889702 1_655
B1_7 Mg4_7 2.522448 1_555
B1_7 Mg3_5 2.522448 1_555
B1_7 Mg6_7 2.553386 1_555
B1_7 Mg6_3 2.553386 1_655
B1_7 Mg7_5 2.553386 1_555
B1_7 Mg7_1 2.553386 1_655
