# generated using pymatgen
data_Cs2FeCl5O
_symmetry_space_group_name_H-M   'P 1'
_cell_length_a   9.57208477
_cell_length_b   9.57208477
_cell_length_c   8.79011200
_cell_angle_alpha   90.00000000
_cell_angle_beta   90.00000000
_cell_angle_gamma   135.99400983
_symmetry_Int_Tables_number   1
_chemical_formula_structural   Cs2FeCl5O
_chemical_formula_sum   'Cs4 Fe2 Cl10 O2'
_cell_volume   559.53307969
_cell_formula_units_Z   2
loop_
 _symmetry_equiv_pos_site_id
 _symmetry_equiv_pos_as_xyz
  1  'x, y, z'
loop_
 _atom_site_type_symbol
 _atom_site_label
 _atom_site_symmetry_multiplicity
 _atom_site_fract_x
 _atom_site_fract_y
 _atom_site_fract_z
 _atom_site_occupancy
  Cs  Cs0  1  0.53050200  0.46949800  0.75000000  1
  Cs  Cs1  1  0.46949800  0.53050200  0.25000000  1
  Cs  Cs2  1  0.23510900  0.76489100  0.75000000  1
  Cs  Cs3  1  0.76489100  0.23510900  0.25000000  1
  Fe  Fe0  1  0.88251400  0.11748600  0.75000000  1
  Fe  Fe1  1  0.11748600  0.88251400  0.25000000  1
  Cl  Cl0  1  0.75329200  0.24670800  0.75000000  1
  Cl  Cl1  1  0.24670800  0.75329200  0.25000000  1
  Cl  Cl2  1  0.64883300  0.87859300  0.55695600  1
  Cl  Cl3  1  0.87859300  0.64883300  0.44304400  1
  Cl  Cl4  1  0.64883300  0.87859300  0.94304400  1
  Cl  Cl5  1  0.87859300  0.64883300  0.05695600  1
  Cl  Cl6  1  0.35116700  0.12140700  0.44304400  1
  Cl  Cl7  1  0.12140700  0.35116700  0.55695600  1
  Cl  Cl8  1  0.35116700  0.12140700  0.05695600  1
  Cl  Cl9  1  0.12140700  0.35116700  0.94304400  1
  O  O0  1  0.98321500  0.01678500  0.75000000  1
  O  O1  1  0.01678500  0.98321500  0.25000000  1
loop_
_geom_bond_atom_site_label_1
_geom_bond_atom_site_label_2
_geom_bond_distance
_geom_bond_site_symmetry_2
Cs0 O0 3.683141 1_565
Cs0 O0 3.683141 1_455
Cs1 O1 3.683141 1_655
Cs1 O1 3.683141 1_545
Fe0 O0 1.787422 1_555
Fe1 O1 1.787422 1_555
Cl0 Fe0 2.293663 1_555
Cl0 Cs2 3.600723 1_545
Cl0 Cs2 3.600723 1_655
Cl0 Cs0 3.954476 1_555
Cl1 Fe1 2.293663 1_555
Cl1 Cs3 3.600723 1_455
Cl1 Cs3 3.600723 1_565
Cl1 Cs1 3.954476 1_555
Cl2 Fe0 2.398696 1_565
Cl2 Cs1 3.619517 1_555
Cl2 Cs0 3.621607 1_555
Cl2 Cs2 3.680603 1_555
Cl2 Cs3 3.834905 1_565
Cl3 Fe1 2.398696 1_655
Cl3 Cs0 3.619517 1_555
Cl3 Cs1 3.621607 1_555
Cl3 Cs3 3.680603 1_555
Cl3 Cs2 3.834905 1_655
Cl4 Fe0 2.398696 1_565
Cl4 Cs1 3.619517 1_556
Cl4 Cs0 3.621607 1_555
Cl4 Cs2 3.680603 1_555
Cl4 Cs3 3.834905 1_566
Cl5 Fe1 2.398696 1_655
Cl5 Cs0 3.619517 1_554
Cl5 Cs1 3.621607 1_555
Cl5 Cs3 3.680603 1_555
Cl5 Cs2 3.834905 1_654
Cl6 Fe1 2.398696 1_545
Cl6 Cs0 3.619517 1_555
Cl6 Cs1 3.621607 1_555
Cl6 Cs3 3.680603 1_555
Cl6 Cs2 3.834905 1_545
Cl7 Fe0 2.398696 1_455
Cl7 Cs1 3.619517 1_555
Cl7 Cs0 3.621607 1_555
Cl7 Cs2 3.680603 1_555
Cl7 Cs3 3.834905 1_455
Cl8 Fe1 2.398696 1_545
Cl8 Cs0 3.619517 1_554
Cl8 Cs1 3.621607 1_555
Cl8 Cs3 3.680603 1_555
Cl8 Cs2 3.834905 1_544
Cl9 Fe0 2.398696 1_455
Cl9 Cs1 3.619517 1_556
Cl9 Cs0 3.621607 1_555
Cl9 Cs2 3.680603 1_555
Cl9 Cs3 3.834905 1_456
