# generated using pymatgen
data_YMg2V3S8
_symmetry_space_group_name_H-M   'P 1'
_cell_length_a   7.49645645
_cell_length_b   7.47270316
_cell_length_c   7.47810088
_cell_angle_alpha   59.14662702
_cell_angle_beta   59.10735940
_cell_angle_gamma   59.01520018
_symmetry_Int_Tables_number   1
_chemical_formula_structural   YMg2V3S8
_chemical_formula_sum   'Y1 Mg2 V3 S8'
_cell_volume   290.06890567
_cell_formula_units_Z   1
loop_
 _symmetry_equiv_pos_site_id
 _symmetry_equiv_pos_as_xyz
  1  'x, y, z'
loop_
 _atom_site_type_symbol
 _atom_site_label
 _atom_site_symmetry_multiplicity
 _atom_site_fract_x
 _atom_site_fract_y
 _atom_site_fract_z
 _atom_site_occupancy
  Y  Y0  1  0.50000300  0.50001100  0.49997700  1
  Mg  Mg0  1  0.87363800  0.87380300  0.87393600  1
  Mg  Mg1  1  0.12637200  0.12616600  0.12610800  1
  V  V0  1  0.50009400  0.50000300  0.99988400  1
  V  V1  1  0.99993200  0.49994700  0.50013100  1
  V  V2  1  0.49996200  0.00005200  0.50000300  1
  S  S0  1  0.73780300  0.74005700  0.73733500  1
  S  S1  1  0.24467000  0.24505300  0.72296200  1
  S  S2  1  0.24629100  0.72288700  0.24559600  1
  S  S3  1  0.72281700  0.24552400  0.24459300  1
  S  S4  1  0.75371300  0.27707100  0.75438600  1
  S  S5  1  0.27718200  0.75446700  0.75540500  1
  S  S6  1  0.26220200  0.26000200  0.26261400  1
  S  S7  1  0.75532300  0.75495300  0.27707100  1
loop_
_geom_bond_atom_site_label_1
_geom_bond_atom_site_label_2
_geom_bond_distance
_geom_bond_site_symmetry_2
Mg0 S4 2.441570 1_565
Mg0 S7 2.446004 1_556
Mg0 S5 2.451958 1_655
Mg0 S0 2.498489 1_555
Mg1 S2 2.441680 1_545
Mg1 S1 2.446063 1_554
Mg1 S3 2.452044 1_455
Mg1 S6 2.498424 1_555
S0 V2 2.499910 1_565
S0 V1 2.506438 1_555
S0 V0 2.516810 1_555
S1 V2 2.457881 1_555
S1 V1 2.461001 1_455
S1 Y0 2.700544 1_555
S2 V0 2.461012 1_554
S2 V1 2.472829 1_455
S2 Y0 2.685898 1_555
S3 V0 2.460020 1_554
S3 V2 2.467581 1_555
S3 Y0 2.689366 1_555
S4 V0 2.460077 1_555
S4 V1 2.471694 1_555
S4 Y0 2.685993 1_555
S5 V0 2.459757 1_555
S5 V2 2.467793 1_565
S5 Y0 2.689435 1_555
S6 V2 2.499772 1_555
S6 V1 2.507235 1_455
S6 V0 2.517536 1_554
S7 V2 2.458278 1_565
S7 V1 2.461501 1_555
S7 Y0 2.700444 1_555
