# generated using pymatgen
data_CsNbC6
_symmetry_space_group_name_H-M   'P 1'
_cell_length_a   5.62115200
_cell_length_b   5.62115200
_cell_length_c   5.62115200
_cell_angle_alpha   90.00000000
_cell_angle_beta   90.00000000
_cell_angle_gamma   90.00000000
_symmetry_Int_Tables_number   1
_chemical_formula_structural   CsNbC6
_chemical_formula_sum   'Cs1 Nb1 C6'
_cell_volume   177.61350606
_cell_formula_units_Z   1
loop_
 _symmetry_equiv_pos_site_id
 _symmetry_equiv_pos_as_xyz
  1  'x, y, z'
loop_
 _atom_site_type_symbol
 _atom_site_label
 _atom_site_symmetry_multiplicity
 _atom_site_fract_x
 _atom_site_fract_y
 _atom_site_fract_z
 _atom_site_occupancy
  Cs  Cs0  1  0.50000000  0.50000000  0.50000000  1
  Nb  Nb0  1  0.00000000  0.00000000  0.00000000  1
  C  C0  1  0.61207200  0.00000000  0.00000000  1
  C  C1  1  0.38792800  0.00000000  0.00000000  1
  C  C2  1  0.00000000  0.61207200  0.00000000  1
  C  C3  1  0.00000000  0.00000000  0.61207200  1
  C  C4  1  0.00000000  0.38792800  0.00000000  1
  C  C5  1  0.00000000  0.00000000  0.38792800  1
loop_
_geom_bond_atom_site_label_1
_geom_bond_atom_site_label_2
_geom_bond_distance
_geom_bond_site_symmetry_2
C0 C1 1.259947 1_555
C0 Nb0 2.180602 1_655
C1 Nb0 2.180602 1_555
C2 C4 1.259947 1_555
C2 Nb0 2.180602 1_565
C3 C5 1.259947 1_555
C3 Nb0 2.180602 1_556
C4 Nb0 2.180602 1_555
C5 Nb0 2.180602 1_555
