# generated using pymatgen
data_Li7Mn5O12
_symmetry_space_group_name_H-M   'P 1'
_cell_length_a   5.99583180
_cell_length_b   10.17526813
_cell_length_c   7.65832476
_cell_angle_alpha   77.43484783
_cell_angle_beta   98.40423354
_cell_angle_gamma   103.90520355
_symmetry_Int_Tables_number   1
_chemical_formula_structural   Li7Mn5O12
_chemical_formula_sum   'Li14 Mn10 O24'
_cell_volume   440.49512921
_cell_formula_units_Z   2
loop_
 _symmetry_equiv_pos_site_id
 _symmetry_equiv_pos_as_xyz
  1  'x, y, z'
loop_
 _atom_site_type_symbol
 _atom_site_label
 _atom_site_symmetry_multiplicity
 _atom_site_fract_x
 _atom_site_fract_y
 _atom_site_fract_z
 _atom_site_occupancy
  Li  Li0  1  0.16799000  0.25040600  0.16713300  1
  Li  Li1  1  0.16686300  0.75016300  0.16675200  1
  Li  Li2  1  0.66688900  0.25001300  0.16669500  1
  Li  Li3  1  0.66667900  0.74999200  0.16653600  1
  Li  Li4  1  0.17163800  0.00306300  0.66473100  1
  Li  Li5  1  0.16195200  0.49702800  0.66871500  1
  Li  Li6  1  0.49824000  0.24876600  0.50452800  1
  Li  Li7  1  0.51195000  0.75419500  0.51040600  1
  Li  Li8  1  0.83441300  0.25105100  0.82880800  1
  Li  Li9  1  0.82029400  0.74563300  0.82256400  1
  Li  Li10  1  0.00453100  0.24192900  0.50535400  1
  Li  Li11  1  0.00246900  0.74362100  0.50710700  1
  Li  Li12  1  0.32855500  0.25800600  0.82804900  1
  Li  Li13  1  0.33062800  0.75649800  0.82628200  1
  Mn  Mn0  1  0.66704100  0.99894800  0.66744300  1
  Mn  Mn1  1  0.99560100  0.99843200  0.99652600  1
  Mn  Mn2  1  0.33464100  0.00316700  0.33657700  1
  Mn  Mn3  1  0.49057900  0.49966300  0.99248300  1
  Mn  Mn4  1  0.84402200  0.50171400  0.33602000  1
  Mn  Mn5  1  0.66647600  0.50107200  0.66576500  1
  Mn  Mn6  1  0.99873900  0.49687200  0.99693000  1
  Mn  Mn7  1  0.33783000  0.50157300  0.33683400  1
  Mn  Mn8  1  0.48940400  0.99828900  0.99735300  1
  Mn  Mn9  1  0.84253100  0.00021300  0.34058500  1
  O  O0  1  0.80455200  0.10279100  0.08375200  1
  O  O1  1  0.84677600  0.61431300  0.09561600  1
  O  O2  1  0.52845600  0.39698700  0.24941600  1
  O  O3  1  0.48641600  0.88555300  0.23779400  1
  O  O4  1  0.34810500  0.11789200  0.08609700  1
  O  O5  1  0.34655600  0.61547300  0.09046300  1
  O  O6  1  0.98529300  0.38213100  0.24739500  1
  O  O7  1  0.98688800  0.88446400  0.24287300  1
  O  O8  1  0.18161200  0.12444600  0.40602900  1
  O  O9  1  0.14454700  0.60771600  0.40496100  1
  O  O10  1  0.15174800  0.37560600  0.92750800  1
  O  O11  1  0.18908700  0.89242700  0.92844200  1
  O  O12  1  0.68773800  0.11630500  0.43274100  1
  O  O13  1  0.68830200  0.61807600  0.42780100  1
  O  O14  1  0.64552000  0.38368200  0.90040200  1
  O  O15  1  0.64513200  0.88187600  0.90532100  1
  O  O16  1  0.50975300  0.11196300  0.76106500  1
  O  O17  1  0.50709400  0.61570800  0.75159100  1
  O  O18  1  0.82373600  0.38804900  0.57231900  1
  O  O19  1  0.82604800  0.88423600  0.58153300  1
  O  O20  1  0.96604200  0.10628900  0.75513200  1
  O  O21  1  0.96574000  0.60826800  0.75407900  1
  O  O22  1  0.36736600  0.39368900  0.57820700  1
  O  O23  1  0.36753900  0.89175300  0.57928800  1
loop_
_geom_bond_atom_site_label_1
_geom_bond_atom_site_label_2
_geom_bond_distance
_geom_bond_site_symmetry_2
Li0 O8 1.995738 1_555
Li0 O10 1.997573 1_554
Li0 O4 2.151599 1_555
Li0 O6 2.152960 1_455
Li0 O2 2.398818 1_555
Li0 O0 2.418632 1_455
Li1 O11 2.067110 1_554
Li1 O9 2.067470 1_555
Li1 O7 2.147328 1_455
Li1 O3 2.148868 1_555
Li1 O5 2.150008 1_555
Li1 O1 2.153557 1_455
Li2 O2 2.118799 1_555
Li2 O0 2.119061 1_555
Li2 O6 2.148703 1_555
Li2 O4 2.150075 1_555
Li2 O12 2.195243 1_555
Li2 O14 2.196778 1_554
Li3 O1 2.140375 1_555
Li3 O3 2.141294 1_555
Li3 O5 2.157408 1_555
Li3 O7 2.158102 1_555
Li3 O15 2.158507 1_554
Li3 O13 2.158981 1_555
Li4 O23 2.068134 1_545
Li4 O20 2.071310 1_455
Li4 O11 2.088686 1_545
Li4 O8 2.094933 1_555
Li4 O16 2.172743 1_555
Li4 O19 2.215082 1_445
Li5 O21 2.068676 1_455
Li5 O22 2.071742 1_555
Li5 O9 2.089133 1_555
Li5 O10 2.095690 1_555
Li5 O18 2.173642 1_455
Li5 O17 2.211796 1_555
Li6 O22 2.038699 1_555
Li6 O8 2.148407 1_555
Li6 O16 2.149164 1_555
Li6 O12 2.156586 1_555
Li6 O18 2.186664 1_555
Li6 O2 2.194219 1_555
Li7 O23 2.006092 1_555
Li7 O17 2.064398 1_555
Li7 O19 2.100080 1_555
Li7 O13 2.171927 1_555
Li7 O3 2.226978 1_555
Li7 O9 2.480306 1_555
Li8 O20 2.039969 1_555
Li8 O18 2.149521 1_555
Li8 O10 2.152958 1_655
Li8 O14 2.154702 1_555
Li8 O16 2.182092 1_555
Li8 O0 2.193338 1_556
Li9 O21 2.006921 1_555
Li9 O19 2.063991 1_555
Li9 O17 2.095404 1_555
Li9 O15 2.168680 1_555
Li9 O1 2.229942 1_556
Li9 O11 2.488660 1_655
Li10 O8 2.092058 1_555
Li10 O12 2.093946 1_455
Li10 O20 2.108197 1_455
Li10 O6 2.176569 1_455
Li10 O18 2.217569 1_455
Li10 O22 2.415378 1_555
Li11 O21 2.089322 1_455
Li11 O13 2.096582 1_455
Li11 O9 2.116988 1_555
Li11 O19 2.179329 1_455
Li11 O7 2.214666 1_455
Li11 O23 2.406623 1_555
Li12 O10 2.092409 1_555
Li12 O14 2.094400 1_555
Li12 O22 2.108933 1_555
Li12 O4 2.176810 1_556
Li12 O16 2.218631 1_555
Li12 O20 2.413911 1_455
Li13 O23 2.089104 1_555
Li13 O15 2.096649 1_555
Li13 O11 2.115279 1_555
Li13 O17 2.181956 1_555
Li13 O5 2.215340 1_556
Li13 O21 2.406328 1_455
Mn0 O12 1.931888 1_565
Mn0 O19 1.938183 1_555
Mn0 O16 1.950256 1_565
Mn0 O15 1.950791 1_555
Mn0 O20 1.970790 1_565
Mn0 O23 1.973539 1_555
Mn1 O20 1.941238 1_565
Mn1 O11 1.950413 1_655
Mn1 O7 1.988614 1_556
Mn1 O0 2.000732 1_566
Mn1 O15 2.245816 1_555
Mn1 O4 2.262606 1_666
Mn2 O8 1.902656 1_555
Mn2 O23 1.965338 1_545
Mn2 O3 1.987779 1_545
Mn2 O4 2.018566 1_555
Mn2 O7 2.247368 1_445
Mn2 O12 2.256438 1_555
Mn3 O5 1.939223 1_556
Mn3 O14 1.957956 1_555
Mn3 O17 1.963890 1_555
Mn3 O2 2.025785 1_556
Mn3 O10 2.171072 1_555
Mn3 O1 2.292662 1_556
Mn4 O6 1.918713 1_555
Mn4 O18 1.927010 1_555
Mn4 O9 1.929904 1_655
Mn4 O1 1.945400 1_555
Mn4 O13 1.962894 1_555
Mn4 O2 2.031509 1_555
Mn5 O14 1.931703 1_555
Mn5 O17 1.938764 1_555
Mn5 O18 1.949442 1_555
Mn5 O13 1.951026 1_555
Mn5 O22 1.971110 1_555
Mn5 O21 1.972907 1_555
Mn6 O10 1.902353 1_655
Mn6 O21 1.966190 1_555
Mn6 O1 1.986692 1_556
Mn6 O6 2.018525 1_556
Mn6 O5 2.246865 1_656
Mn6 O14 2.258026 1_555
Mn7 O22 1.941199 1_555
Mn7 O9 1.950696 1_555
Mn7 O5 1.988512 1_555
Mn7 O2 2.001331 1_555
Mn7 O13 2.245104 1_555
Mn7 O6 2.262401 1_455
Mn8 O4 1.919495 1_566
Mn8 O16 1.926998 1_565
Mn8 O11 1.928336 1_555
Mn8 O3 1.946171 1_556
Mn8 O15 1.964413 1_555
Mn8 O0 2.028282 1_566
Mn9 O7 1.938827 1_545
Mn9 O12 1.958580 1_555
Mn9 O19 1.963966 1_545
Mn9 O0 2.024867 1_555
Mn9 O8 2.173732 1_655
Mn9 O3 2.291491 1_545
