# generated using pymatgen
data_ScTeRh
_symmetry_space_group_name_H-M   'P 1'
_cell_length_a   4.44325633
_cell_length_b   4.44325551
_cell_length_c   4.44325583
_cell_angle_alpha   60.00000527
_cell_angle_beta   60.00001140
_cell_angle_gamma   59.99999705
_symmetry_Int_Tables_number   1
_chemical_formula_structural   ScTeRh
_chemical_formula_sum   'Sc1 Te1 Rh1'
_cell_volume   62.02817777
_cell_formula_units_Z   1
loop_
 _symmetry_equiv_pos_site_id
 _symmetry_equiv_pos_as_xyz
  1  'x, y, z'
loop_
 _atom_site_type_symbol
 _atom_site_label
 _atom_site_symmetry_multiplicity
 _atom_site_fract_x
 _atom_site_fract_y
 _atom_site_fract_z
 _atom_site_occupancy
  Sc  Sc0  1  0.00000000  0.00000000  0.00000000  1
  Te  Te0  1  0.50000000  0.50000000  0.50000000  1
  Rh  Rh0  1  0.25000000  0.25000000  0.25000000  1
loop_
_geom_bond_atom_site_label_1
_geom_bond_atom_site_label_2
_geom_bond_distance
_geom_bond_site_symmetry_2
Sc0 Te0 3.141856 1_545
Sc0 Te0 3.141856 1_455
Sc0 Te0 3.141856 1_544
Sc0 Te0 3.141856 1_454
Sc0 Te0 3.141857 1_445
Sc0 Te0 3.141857 1_554
Rh0 Te0 2.720927 1_545
Rh0 Sc0 2.720927 1_565
Rh0 Sc0 2.720927 1_555
Rh0 Te0 2.720927 1_555
Rh0 Sc0 2.720928 1_556
Rh0 Te0 2.720928 1_554
Rh0 Te0 2.720928 1_455
Rh0 Sc0 2.720928 1_655
