# generated using pymatgen
data_Ho3Er
_symmetry_space_group_name_H-M   'P 1'
_cell_length_a   4.98579747
_cell_length_b   4.98579747
_cell_length_c   4.98579854
_cell_angle_alpha   90.00000000
_cell_angle_beta   90.00000000
_cell_angle_gamma   90.00000000
_symmetry_Int_Tables_number   1
_chemical_formula_structural   Ho3Er
_chemical_formula_sum   'Ho3 Er1'
_cell_volume   123.93785966
_cell_formula_units_Z   1
loop_
 _symmetry_equiv_pos_site_id
 _symmetry_equiv_pos_as_xyz
  1  'x, y, z'
loop_
 _atom_site_type_symbol
 _atom_site_label
 _atom_site_symmetry_multiplicity
 _atom_site_fract_x
 _atom_site_fract_y
 _atom_site_fract_z
 _atom_site_occupancy
  Ho  Ho0  1  0.50000000  0.50000000  -0.00000000  1
  Ho  Ho1  1  -0.00000000  0.50000000  0.50000000  1
  Ho  Ho2  1  0.50000000  -0.00000000  0.50000000  1
  Er  Er0  1  -0.00000000  -0.00000000  -0.00000000  1
loop_
_geom_bond_atom_site_label_1
_geom_bond_atom_site_label_2
_geom_bond_distance
_geom_bond_site_symmetry_2
Ho0 Ho1 3.525492 1_555
Ho0 Ho1 3.525492 1_654
Ho0 Ho1 3.525492 1_554
Ho0 Ho2 3.525492 1_564
Ho0 Ho2 3.525492 1_554
Ho0 Ho1 3.525492 1_655
Ho0 Ho2 3.525492 1_555
Ho0 Ho2 3.525492 1_565
Ho1 Ho2 3.525491 1_555
Ho1 Ho2 3.525491 1_565
Ho1 Ho2 3.525491 1_455
Ho1 Ho2 3.525491 1_465
Er0 Ho0 3.525491 1_555
Er0 Ho0 3.525491 1_545
Er0 Ho0 3.525491 1_455
Er0 Ho0 3.525491 1_445
Er0 Ho1 3.525492 1_555
Er0 Ho1 3.525492 1_554
Er0 Ho2 3.525492 1_455
Er0 Ho2 3.525492 1_554
Er0 Ho1 3.525492 1_544
Er0 Ho2 3.525492 1_555
Er0 Ho2 3.525492 1_454
Er0 Ho1 3.525492 1_545
