# generated using pymatgen
data_La3InFeS7
_symmetry_space_group_name_H-M   'P 1'
_cell_length_a   10.11430336
_cell_length_b   10.11430337
_cell_length_c   6.42911551
_cell_angle_alpha   90.00000000
_cell_angle_beta   90.00000000
_cell_angle_gamma   120.00000126
_symmetry_Int_Tables_number   1
_chemical_formula_structural   La3InFeS7
_chemical_formula_sum   'La6 In2 Fe2 S14'
_cell_volume   569.57878631
_cell_formula_units_Z   2
loop_
 _symmetry_equiv_pos_site_id
 _symmetry_equiv_pos_as_xyz
  1  'x, y, z'
loop_
 _atom_site_type_symbol
 _atom_site_label
 _atom_site_symmetry_multiplicity
 _atom_site_fract_x
 _atom_site_fract_y
 _atom_site_fract_z
 _atom_site_occupancy
  La  La0  1  0.15437549  0.37463946  0.18970728  1
  La  La1  1  0.22026397  0.84562451  0.18970728  1
  La  La2  1  0.62536054  0.77973603  0.18970728  1
  La  La3  1  0.84562451  0.62536054  0.68970728  1
  La  La4  1  0.77973603  0.15437549  0.68970728  1
  La  La5  1  0.37463946  0.22026397  0.68970728  1
  In  In0  1  0.66666700  0.33333300  0.11921299  1
  In  In1  1  0.33333300  0.66666700  0.61921299  1
  Fe  Fe0  1  0.00000000  0.00000000  0.00371171  1
  Fe  Fe1  1  0.00000000  0.00000000  0.50371171  1
  S  S0  1  0.87103551  0.09618881  0.27510555  1
  S  S1  1  0.22515330  0.12896449  0.27510555  1
  S  S2  1  0.90381119  0.77484670  0.27510555  1
  S  S3  1  0.12896449  0.90381119  0.77510555  1
  S  S4  1  0.77484670  0.87103551  0.77510555  1
  S  S5  1  0.09618881  0.22515330  0.77510555  1
  S  S6  1  0.43542476  0.51668086  0.45328084  1
  S  S7  1  0.08125610  0.56457524  0.45328084  1
  S  S8  1  0.48331914  0.91874390  0.45328084  1
  S  S9  1  0.56457524  0.48331914  0.95328084  1
  S  S10  1  0.91874390  0.43542476  0.95328084  1
  S  S11  1  0.51668086  0.08125610  0.95328084  1
  S  S12  1  0.66666700  0.33333300  0.49391429  1
  S  S13  1  0.33333300  0.66666700  0.99391429  1
loop_
_geom_bond_atom_site_label_1
_geom_bond_atom_site_label_2
_geom_bond_distance
_geom_bond_site_symmetry_2
La0 S13 2.870296 1_554
La0 S0 2.893942 1_455
La0 S7 2.920557 1_555
La0 S1 2.960930 1_555
La0 S5 2.974482 1_554
La0 S6 2.988657 1_555
La0 S10 3.135845 1_454
La1 S13 2.870289 1_554
La1 S1 2.893942 1_565
La1 S8 2.920557 1_555
La1 S2 2.960930 1_455
La1 S3 2.974482 1_554
La1 S7 2.988657 1_555
La1 S11 3.135845 1_564
La2 S13 2.870297 1_554
La2 S2 2.893942 1_555
La2 S6 2.920557 1_555
La2 S0 2.960930 1_565
La2 S4 2.974482 1_554
La2 S8 2.988658 1_555
La2 S9 3.135845 1_554
La3 S12 2.870296 1_555
La3 S3 2.893942 1_655
La3 S10 2.920557 1_555
La3 S4 2.960930 1_555
La3 S2 2.974482 1_555
La3 S9 2.988657 1_555
La3 S7 3.135845 1_655
La4 S12 2.870289 1_555
La4 S4 2.893942 1_545
La4 S11 2.920557 1_555
La4 S5 2.960930 1_655
La4 S0 2.974482 1_555
La4 S10 2.988657 1_555
La4 S8 3.135845 1_545
La5 S12 2.870297 1_555
La5 S5 2.893942 1_555
La5 S9 2.920557 1_555
La5 S3 2.960930 1_545
La5 S1 2.974482 1_555
La5 S11 2.988658 1_555
La5 S6 3.135845 1_555
In0 S12 2.408998 1_555
In0 S10 2.464142 1_554
In0 S11 2.464143 1_554
In0 S9 2.464150 1_554
In1 S13 2.408998 1_555
In1 S7 2.464142 1_555
In1 S8 2.464143 1_555
In1 S6 2.464150 1_555
Fe0 S4 2.465169 1_444
Fe0 S5 2.465169 1_554
Fe0 S3 2.465169 1_544
Fe0 S1 2.638436 1_555
Fe0 S2 2.638436 1_445
Fe0 S0 2.638436 1_455
Fe1 S1 2.465169 1_555
Fe1 S2 2.465169 1_445
Fe1 S0 2.465169 1_455
Fe1 S4 2.638436 1_445
Fe1 S5 2.638436 1_555
Fe1 S3 2.638436 1_545
