# generated using pymatgen
data_CsMgNiF6
_symmetry_space_group_name_H-M   'P 1'
_cell_length_a   7.34753169
_cell_length_b   7.34753169
_cell_length_c   7.34753169
_cell_angle_alpha   120.51285229
_cell_angle_beta   119.55188590
_cell_angle_gamma   89.94596085
_symmetry_Int_Tables_number   1
_chemical_formula_structural   CsMgNiF6
_chemical_formula_sum   'Cs2 Mg2 Ni2 F12'
_cell_volume   280.32281058
_cell_formula_units_Z   2
loop_
 _symmetry_equiv_pos_site_id
 _symmetry_equiv_pos_as_xyz
  1  'x, y, z'
loop_
 _atom_site_type_symbol
 _atom_site_label
 _atom_site_symmetry_multiplicity
 _atom_site_fract_x
 _atom_site_fract_y
 _atom_site_fract_z
 _atom_site_occupancy
  Cs  Cs0  1  0.37177500  0.62177500  0.75000000  1
  Cs  Cs1  1  0.62822500  0.37822500  0.25000000  1
  Mg  Mg0  1  0.00000000  0.00000000  0.50000000  1
  Mg  Mg1  1  0.00000000  0.50000000  0.00000000  1
  Ni  Ni0  1  0.00000000  0.00000000  0.00000000  1
  Ni  Ni1  1  0.50000000  0.00000000  0.50000000  1
  F  F0  1  0.31802100  0.06802100  0.25000000  1
  F  F1  1  0.93079300  0.68079300  0.25000000  1
  F  F2  1  0.32593800  0.69263300  0.26169200  1
  F  F3  1  0.93094000  0.06424500  0.23830800  1
  F  F4  1  0.32593800  0.06424500  0.63330500  1
  F  F5  1  0.93094000  0.69263300  0.86669500  1
  F  F6  1  0.68197900  0.93197900  0.75000000  1
  F  F7  1  0.06920700  0.31920700  0.75000000  1
  F  F8  1  0.67406200  0.30736700  0.73830800  1
  F  F9  1  0.06906000  0.93575500  0.76169200  1
  F  F10  1  0.67406200  0.93575500  0.36669500  1
  F  F11  1  0.06906000  0.30736700  0.13330500  1
loop_
_geom_bond_atom_site_label_1
_geom_bond_atom_site_label_2
_geom_bond_distance
_geom_bond_site_symmetry_2
Cs0 F7 3.145460 1_555
Cs0 F9 3.202215 1_555
Cs0 F8 3.202215 1_555
Cs0 F11 3.202215 1_555
Cs0 F10 3.202215 1_556
Cs0 F6 3.224843 1_555
Cs1 F1 3.145460 1_555
Cs1 F3 3.202215 1_555
Cs1 F2 3.202215 1_555
Cs1 F5 3.202215 1_555
Cs1 F4 3.202215 1_554
Cs1 F0 3.224843 1_555
F0 Ni1 1.979897 1_555
F0 Ni0 1.979897 1_555
F1 Mg0 1.959489 1_665
F1 Mg1 1.959489 1_655
F2 Ni1 1.892839 1_565
F2 Mg1 2.033778 1_555
F3 Ni0 1.892846 1_655
F3 Mg0 2.033771 1_655
F4 Ni1 1.892839 1_555
F4 Mg0 2.033778 1_555
F5 Ni0 1.892839 1_666
F5 Mg1 2.033778 1_656
F6 Ni0 1.979897 1_666
F6 Ni1 1.979897 1_565
F7 Mg1 1.959489 1_556
F7 Mg0 1.959489 1_555
F8 Ni1 1.892839 1_555
F8 Mg1 2.033778 1_656
F9 Ni0 1.892846 1_566
F9 Mg0 2.033771 1_565
F10 Ni1 1.892839 1_565
F10 Mg0 2.033778 1_665
F11 Ni0 1.892839 1_555
F11 Mg1 2.033778 1_555
