# generated using pymatgen
data_Mn3CdTe4
_symmetry_space_group_name_H-M   'P 1'
_cell_length_a   4.16496000
_cell_length_b   4.16496000
_cell_length_c   11.92783200
_cell_angle_alpha   90.00000000
_cell_angle_beta   90.00000000
_cell_angle_gamma   90.00000000
_symmetry_Int_Tables_number   1
_chemical_formula_structural   Mn3CdTe4
_chemical_formula_sum   'Mn3 Cd1 Te4'
_cell_volume   206.91081113
_cell_formula_units_Z   1
loop_
 _symmetry_equiv_pos_site_id
 _symmetry_equiv_pos_as_xyz
  1  'x, y, z'
loop_
 _atom_site_type_symbol
 _atom_site_label
 _atom_site_symmetry_multiplicity
 _atom_site_fract_x
 _atom_site_fract_y
 _atom_site_fract_z
 _atom_site_occupancy
  Mn  Mn0  1  0.50000000  0.50000000  0.24923600  1
  Mn  Mn1  1  0.00000000  0.00000000  0.00000000  1
  Mn  Mn2  1  0.50000000  0.50000000  0.75076400  1
  Cd  Cd0  1  0.00000000  0.00000000  0.50000000  1
  Te  Te0  1  0.00000000  0.00000000  0.24011300  1
  Te  Te1  1  0.50000000  0.50000000  0.00000000  1
  Te  Te2  1  0.00000000  0.00000000  0.75988700  1
  Te  Te3  1  0.50000000  0.50000000  0.50000000  1
loop_
_geom_bond_atom_site_label_1
_geom_bond_atom_site_label_2
_geom_bond_distance
_geom_bond_site_symmetry_2
Mn0 Te0 2.947081 1_665
Mn0 Te0 2.947081 1_565
Mn0 Te0 2.947081 1_555
Mn0 Te0 2.947081 1_655
Mn0 Te1 2.972845 1_555
Mn0 Te3 2.991071 1_555
Mn1 Te0 2.864028 1_555
Mn1 Te2 2.864028 1_554
Mn1 Te1 2.945071 1_555
Mn1 Te1 2.945071 1_445
Mn1 Te1 2.945071 1_455
Mn1 Te1 2.945071 1_545
Mn2 Te2 2.947081 1_565
Mn2 Te2 2.947081 1_665
Mn2 Te2 2.947081 1_555
Mn2 Te2 2.947081 1_655
Mn2 Te1 2.972845 1_556
Mn2 Te3 2.991071 1_555
Cd0 Te3 2.945071 1_545
Cd0 Te3 2.945071 1_445
Cd0 Te3 2.945071 1_455
Cd0 Te3 2.945071 1_555
Cd0 Te2 3.099888 1_555
Cd0 Te0 3.099888 1_555
