# generated using pymatgen
data_TiZnP2O7
_symmetry_space_group_name_H-M   'P 1'
_cell_length_a   6.51959900
_cell_length_b   6.60645992
_cell_length_c   6.75506763
_cell_angle_alpha   83.89951552
_cell_angle_beta   66.89358883
_cell_angle_gamma   81.06016123
_symmetry_Int_Tables_number   1
_chemical_formula_structural   TiZnP2O7
_chemical_formula_sum   'Ti2 Zn2 P4 O14'
_cell_volume   264.03042025
_cell_formula_units_Z   2
loop_
 _symmetry_equiv_pos_site_id
 _symmetry_equiv_pos_as_xyz
  1  'x, y, z'
loop_
 _atom_site_type_symbol
 _atom_site_label
 _atom_site_symmetry_multiplicity
 _atom_site_fract_x
 _atom_site_fract_y
 _atom_site_fract_z
 _atom_site_occupancy
  Ti  Ti0  1  0.90000600  0.35095900  0.22036600  1
  Ti  Ti1  1  0.09999400  0.64904100  0.77963400  1
  Zn  Zn0  1  0.70588600  0.12401400  0.83124900  1
  Zn  Zn1  1  0.29411400  0.87598600  0.16875100  1
  P  P0  1  0.77658800  0.86081700  0.23991200  1
  P  P1  1  0.22341200  0.13918300  0.76008800  1
  P  P2  1  0.35331400  0.38734700  0.33737600  1
  P  P3  1  0.64668600  0.61265300  0.66262400  1
  O  O0  1  0.37651900  0.21791200  0.52446300  1
  O  O1  1  0.62348100  0.78208800  0.47553700  1
  O  O2  1  0.91671800  0.02127400  0.25491000  1
  O  O3  1  0.08328200  0.97872600  0.74509000  1
  O  O4  1  0.74898500  0.40646300  0.55137300  1
  O  O5  1  0.25101500  0.59353700  0.44862700  1
  O  O6  1  0.40337500  0.61179400  0.82188000  1
  O  O7  1  0.59662500  0.38820600  0.17812000  1
  O  O8  1  0.39087700  0.05064000  0.86619400  1
  O  O9  1  0.60912300  0.94936000  0.13380600  1
  O  O10  1  0.06602100  0.33026000  0.87373500  1
  O  O11  1  0.93397900  0.66974000  0.12626500  1
  O  O12  1  0.79606900  0.69330700  0.75339600  1
  O  O13  1  0.20393100  0.30669300  0.24660400  1
loop_
_geom_bond_atom_site_label_1
_geom_bond_atom_site_label_2
_geom_bond_distance
_geom_bond_site_symmetry_2
O0 P1 1.593331 1_555
O0 P2 1.633946 1_555
O1 P0 1.593331 1_555
O1 P3 1.633946 1_555
O2 P0 1.537885 1_545
O2 Ti0 2.156016 1_555
O2 Zn1 2.361086 1_645
O3 P1 1.537885 1_565
O3 Ti1 2.156016 1_555
O3 Zn0 2.361086 1_465
O4 P3 1.551439 1_555
O4 Ti0 2.106558 1_555
O4 Zn0 2.476156 1_555
O5 P2 1.551439 1_555
O5 Ti1 2.106558 1_555
O5 Zn1 2.476156 1_555
O6 P3 1.528319 1_555
O6 Ti1 2.081105 1_555
O7 P2 1.528319 1_555
O7 Ti0 2.081105 1_555
O8 P1 1.540958 1_555
O8 Zn0 2.100736 1_555
O8 Zn1 2.149291 1_546
O9 P0 1.540958 1_555
O9 Zn1 2.100736 1_555
O9 Zn0 2.149291 1_564
O10 P1 1.555925 1_555
O10 Ti1 2.153682 1_555
O10 Ti0 2.169281 1_456
O11 P0 1.555925 1_555
O11 Ti0 2.153682 1_555
O11 Ti1 2.169281 1_654
O12 P3 1.519160 1_555
O12 Ti1 2.031672 1_655
O13 P2 1.519160 1_555
O13 Ti0 2.031672 1_455
