# generated using pymatgen
data_KAl(SO7)2
_symmetry_space_group_name_H-M   'P 1'
_cell_length_a   15.13807000
_cell_length_b   15.13807000
_cell_length_c   15.13807000
_cell_angle_alpha   90.00000000
_cell_angle_beta   90.00000000
_cell_angle_gamma   90.00000000
_symmetry_Int_Tables_number   1
_chemical_formula_structural   KAl(SO7)2
_chemical_formula_sum   'K4 Al4 S8 O56'
_cell_volume   3469.05773169
_cell_formula_units_Z   4
loop_
 _symmetry_equiv_pos_site_id
 _symmetry_equiv_pos_as_xyz
  1  'x, y, z'
loop_
 _atom_site_type_symbol
 _atom_site_label
 _atom_site_symmetry_multiplicity
 _atom_site_fract_x
 _atom_site_fract_y
 _atom_site_fract_z
 _atom_site_occupancy
  K  K0  1  0.50000000  0.50000000  0.00000000  1
  K  K1  1  0.50000000  0.00000000  0.50000000  1
  K  K2  1  0.00000000  0.50000000  0.50000000  1
  K  K3  1  0.00000000  0.00000000  0.00000000  1
  Al  Al0  1  0.00000000  0.00000000  0.50000000  1
  Al  Al1  1  0.00000000  0.50000000  0.00000000  1
  Al  Al2  1  0.50000000  0.00000000  0.00000000  1
  Al  Al3  1  0.50000000  0.50000000  0.50000000  1
  S  S0  1  0.32471500  0.67528500  0.17528500  1
  S  S1  1  0.67528500  0.17528500  0.32471500  1
  S  S2  1  0.17528500  0.32471500  0.67528500  1
  S  S3  1  0.82471500  0.82471500  0.82471500  1
  S  S4  1  0.67528500  0.32471500  0.82471500  1
  S  S5  1  0.32471500  0.82471500  0.67528500  1
  S  S6  1  0.82471500  0.67528500  0.32471500  1
  S  S7  1  0.17528500  0.17528500  0.17528500  1
  O  O0  1  0.26773400  0.73226600  0.23226600  1
  O  O1  1  0.73226600  0.23226600  0.26773400  1
  O  O2  1  0.23226600  0.26773400  0.73226600  1
  O  O3  1  0.76773400  0.76773400  0.76773400  1
  O  O4  1  0.73226600  0.26773400  0.76773400  1
  O  O5  1  0.26773400  0.76773400  0.73226600  1
  O  O6  1  0.76773400  0.73226600  0.26773400  1
  O  O7  1  0.23226600  0.23226600  0.23226600  1
  O  O8  1  0.11827700  0.81384700  0.31405100  1
  O  O9  1  0.88172300  0.31384700  0.18594900  1
  O  O10  1  0.38172300  0.18615300  0.81405100  1
  O  O11  1  0.61827700  0.68615300  0.68594900  1
  O  O12  1  0.31405100  0.11827700  0.81384700  1
  O  O13  1  0.18594900  0.88172300  0.31384700  1
  O  O14  1  0.81405100  0.38172300  0.18615300  1
  O  O15  1  0.68594900  0.61827700  0.68615300  1
  O  O16  1  0.81384700  0.31405100  0.11827700  1
  O  O17  1  0.31384700  0.18594900  0.88172300  1
  O  O18  1  0.18615300  0.81405100  0.38172300  1
  O  O19  1  0.68615300  0.68594900  0.61827700  1
  O  O20  1  0.88172300  0.18615300  0.68594900  1
  O  O21  1  0.11827700  0.68615300  0.81405100  1
  O  O22  1  0.61827700  0.81384700  0.18594900  1
  O  O23  1  0.38172300  0.31384700  0.31405100  1
  O  O24  1  0.68594900  0.88172300  0.18615300  1
  O  O25  1  0.81405100  0.11827700  0.68615300  1
  O  O26  1  0.18594900  0.61827700  0.81384700  1
  O  O27  1  0.31405100  0.38172300  0.31384700  1
  O  O28  1  0.18615300  0.68594900  0.88172300  1
  O  O29  1  0.68615300  0.81405100  0.11827700  1
  O  O30  1  0.81384700  0.18594900  0.61827700  1
  O  O31  1  0.31384700  0.31405100  0.38172300  1
  O  O32  1  0.11610300  0.97557600  0.47618000  1
  O  O33  1  0.88389700  0.47557600  0.02382000  1
  O  O34  1  0.38389700  0.02442400  0.97618000  1
  O  O35  1  0.61610300  0.52442400  0.52382000  1
  O  O36  1  0.47618000  0.11610300  0.97557600  1
  O  O37  1  0.02382000  0.88389700  0.47557600  1
  O  O38  1  0.97618000  0.38389700  0.02442400  1
  O  O39  1  0.52382000  0.61610300  0.52442400  1
  O  O40  1  0.97557600  0.47618000  0.11610300  1
  O  O41  1  0.47557600  0.02382000  0.88389700  1
  O  O42  1  0.02442400  0.97618000  0.38389700  1
  O  O43  1  0.52442400  0.52382000  0.61610300  1
  O  O44  1  0.88389700  0.02442400  0.52382000  1
  O  O45  1  0.11610300  0.52442400  0.97618000  1
  O  O46  1  0.61610300  0.97557600  0.02382000  1
  O  O47  1  0.38389700  0.47557600  0.47618000  1
  O  O48  1  0.52382000  0.88389700  0.02442400  1
  O  O49  1  0.97618000  0.11610300  0.52442400  1
  O  O50  1  0.02382000  0.61610300  0.97557600  1
  O  O51  1  0.47618000  0.38389700  0.47557600  1
  O  O52  1  0.02442400  0.52382000  0.88389700  1
  O  O53  1  0.52442400  0.97618000  0.11610300  1
  O  O54  1  0.97557600  0.02382000  0.61610300  1
  O  O55  1  0.47557600  0.47618000  0.38389700  1
loop_
_geom_bond_atom_site_label_1
_geom_bond_atom_site_label_2
_geom_bond_distance
_geom_bond_site_symmetry_2
Al0 O42 1.831884 1_545
Al0 O54 1.831884 1_455
Al0 O32 1.831884 1_545
Al0 O49 1.831884 1_455
Al0 O44 1.831884 1_455
Al0 O37 1.831884 1_545
Al1 O38 1.831884 1_455
Al1 O50 1.831884 1_554
Al1 O40 1.831884 1_455
Al1 O45 1.831884 1_554
Al1 O52 1.831884 1_554
Al1 O33 1.831884 1_455
Al2 O34 1.831884 1_554
Al2 O46 1.831884 1_545
Al2 O53 1.831884 1_545
Al2 O36 1.831884 1_554
Al2 O48 1.831884 1_545
Al2 O41 1.831884 1_554
Al3 O35 1.831884 1_555
Al3 O39 1.831884 1_555
Al3 O43 1.831884 1_555
Al3 O47 1.831884 1_555
Al3 O51 1.831884 1_555
Al3 O55 1.831884 1_555
O0 S0 1.494036 1_555
O1 S1 1.494036 1_555
O2 S2 1.494036 1_555
O3 S3 1.494036 1_555
O4 S4 1.494036 1_555
O5 S5 1.494036 1_555
O6 S6 1.494036 1_555
O7 S7 1.494036 1_555
O10 O17 1.450942 1_555
O10 O12 1.450942 1_555
O11 O19 1.450942 1_555
O11 O15 1.450942 1_555
O12 O17 1.450942 1_555
O13 O18 1.450942 1_555
O13 O8 1.450942 1_555
O14 O9 1.450942 1_555
O14 O16 1.450942 1_555
O15 O19 1.450942 1_555
O16 O9 1.450942 1_555
O18 O8 1.450942 1_555
O20 O25 1.450942 1_555
O20 O30 1.450942 1_555
O21 O28 1.450942 1_555
O21 O26 1.450942 1_555
O22 O24 1.450942 1_555
O22 O29 1.450942 1_555
O23 O27 1.450942 1_555
O23 O31 1.450942 1_555
O24 O29 1.450942 1_555
O25 O30 1.450942 1_555
O26 O28 1.450942 1_555
O27 O31 1.450942 1_555
