# generated using pymatgen
data_Na3Fe2(GeO4)3
_symmetry_space_group_name_H-M   'P 1'
_cell_length_a   10.74237656
_cell_length_b   10.74237656
_cell_length_c   10.74237656
_cell_angle_alpha   109.47122063
_cell_angle_beta   109.47122063
_cell_angle_gamma   109.47122063
_symmetry_Int_Tables_number   1
_chemical_formula_structural   Na3Fe2(GeO4)3
_chemical_formula_sum   'Na12 Fe8 Ge12 O48'
_cell_volume   954.28747845
_cell_formula_units_Z   4
loop_
 _symmetry_equiv_pos_site_id
 _symmetry_equiv_pos_as_xyz
  1  'x, y, z'
loop_
 _atom_site_type_symbol
 _atom_site_label
 _atom_site_symmetry_multiplicity
 _atom_site_fract_x
 _atom_site_fract_y
 _atom_site_fract_z
 _atom_site_occupancy
  Na  Na0  1  0.25000000  0.87500000  0.62500000  1
  Na  Na1  1  0.75000000  0.62500000  0.87500000  1
  Na  Na2  1  0.87500000  0.75000000  0.62500000  1
  Na  Na3  1  0.62500000  0.25000000  0.87500000  1
  Na  Na4  1  0.87500000  0.62500000  0.25000000  1
  Na  Na5  1  0.62500000  0.87500000  0.75000000  1
  Na  Na6  1  0.75000000  0.12500000  0.37500000  1
  Na  Na7  1  0.25000000  0.37500000  0.12500000  1
  Na  Na8  1  0.12500000  0.25000000  0.37500000  1
  Na  Na9  1  0.37500000  0.75000000  0.12500000  1
  Na  Na10  1  0.12500000  0.37500000  0.75000000  1
  Na  Na11  1  0.37500000  0.12500000  0.25000000  1
  Fe  Fe0  1  0.00000000  0.00000000  0.00000000  1
  Fe  Fe1  1  0.00000000  0.00000000  0.50000000  1
  Fe  Fe2  1  0.50000000  0.00000000  0.00000000  1
  Fe  Fe3  1  0.00000000  0.50000000  0.00000000  1
  Fe  Fe4  1  0.50000000  0.00000000  0.50000000  1
  Fe  Fe5  1  0.50000000  0.50000000  0.00000000  1
  Fe  Fe6  1  0.00000000  0.50000000  0.50000000  1
  Fe  Fe7  1  0.50000000  0.50000000  0.50000000  1
  Ge  Ge0  1  0.37500000  0.62500000  0.75000000  1
  Ge  Ge1  1  0.62500000  0.37500000  0.25000000  1
  Ge  Ge2  1  0.87500000  0.25000000  0.12500000  1
  Ge  Ge3  1  0.75000000  0.37500000  0.62500000  1
  Ge  Ge4  1  0.62500000  0.75000000  0.37500000  1
  Ge  Ge5  1  0.25000000  0.12500000  0.87500000  1
  Ge  Ge6  1  0.75000000  0.87500000  0.12500000  1
  Ge  Ge7  1  0.25000000  0.62500000  0.37500000  1
  Ge  Ge8  1  0.37500000  0.25000000  0.62500000  1
  Ge  Ge9  1  0.12500000  0.75000000  0.87500000  1
  Ge  Ge10  1  0.87500000  0.12500000  0.75000000  1
  Ge  Ge11  1  0.12500000  0.87500000  0.25000000  1
  O  O0  1  0.08097800  0.69556100  0.68312100  1
  O  O1  1  0.61458300  0.41902200  0.10214300  1
  O  O2  1  0.39785700  0.81687900  0.51244000  1
  O  O3  1  0.98756000  0.80443900  0.88541700  1
  O  O4  1  0.81687900  0.80443900  0.41902200  1
  O  O5  1  0.88541700  0.98756000  0.80443900  1
  O  O6  1  0.88541700  0.39785700  0.08097800  1
  O  O7  1  0.80443900  0.88541700  0.98756000  1
  O  O8  1  0.68312100  0.10214300  0.98756000  1
  O  O9  1  0.51244000  0.61458300  0.69556100  1
  O  O10  1  0.69556100  0.51244000  0.61458300  1
  O  O11  1  0.80443900  0.41902200  0.81687900  1
  O  O12  1  0.08097800  0.88541700  0.39785700  1
  O  O13  1  0.10214300  0.98756000  0.68312100  1
  O  O14  1  0.41902200  0.81687900  0.80443900  1
  O  O15  1  0.39785700  0.08097800  0.88541700  1
  O  O16  1  0.98756000  0.68312100  0.10214300  1
  O  O17  1  0.41902200  0.10214300  0.61458300  1
  O  O18  1  0.51244000  0.39785700  0.81687900  1
  O  O19  1  0.31687900  0.89785700  0.01244000  1
  O  O20  1  0.81687900  0.51244000  0.39785700  1
  O  O21  1  0.69556100  0.68312100  0.08097800  1
  O  O22  1  0.10214300  0.61458300  0.41902200  1
  O  O23  1  0.61458300  0.69556100  0.51244000  1
  O  O24  1  0.91902200  0.30443900  0.31687900  1
  O  O25  1  0.38541700  0.58097800  0.89785700  1
  O  O26  1  0.60214300  0.18312100  0.48756000  1
  O  O27  1  0.01244000  0.19556100  0.11458300  1
  O  O28  1  0.18312100  0.19556100  0.58097800  1
  O  O29  1  0.11458300  0.01244000  0.19556100  1
  O  O30  1  0.11458300  0.60214300  0.91902200  1
  O  O31  1  0.19556100  0.11458300  0.01244000  1
  O  O32  1  0.38541700  0.30443900  0.48756000  1
  O  O33  1  0.89785700  0.38541700  0.58097800  1
  O  O34  1  0.30443900  0.31687900  0.91902200  1
  O  O35  1  0.31687900  0.91902200  0.30443900  1
  O  O36  1  0.18312100  0.48756000  0.60214300  1
  O  O37  1  0.48756000  0.60214300  0.18312100  1
  O  O38  1  0.58097800  0.89785700  0.38541700  1
  O  O39  1  0.01244000  0.31687900  0.89785700  1
  O  O40  1  0.60214300  0.91902200  0.11458300  1
  O  O41  1  0.58097800  0.18312100  0.19556100  1
  O  O42  1  0.89785700  0.01244000  0.31687900  1
  O  O43  1  0.91902200  0.11458300  0.60214300  1
  O  O44  1  0.19556100  0.58097800  0.18312100  1
  O  O45  1  0.30443900  0.48756000  0.38541700  1
  O  O46  1  0.48756000  0.38541700  0.30443900  1
  O  O47  1  0.68312100  0.08097800  0.69556100  1
loop_
_geom_bond_atom_site_label_1
_geom_bond_atom_site_label_2
_geom_bond_distance
_geom_bond_site_symmetry_2
Na0 O2 2.410996 1_555
Na0 O22 2.410996 1_555
Na0 O15 2.410996 1_565
Na0 O13 2.410996 1_555
Na0 O0 2.574304 1_555
Na0 O17 2.574304 1_565
Na0 O14 2.574304 1_555
Na0 O12 2.574304 1_555
Na1 O21 2.410996 1_556
Na1 O10 2.410996 1_555
Na1 O7 2.410996 1_555
Na1 O11 2.410996 1_555
Na1 O9 2.574304 1_555
Na1 O3 2.574304 1_555
Na1 O16 2.574304 1_556
Na1 O18 2.574304 1_555
Na2 O0 2.410996 1_655
Na2 O3 2.410996 1_555
Na2 O23 2.410996 1_555
Na2 O4 2.410996 1_555
Na2 O10 2.574304 1_555
Na2 O13 2.574304 1_655
Na2 O5 2.574304 1_555
Na2 O20 2.574304 1_555
Na3 O18 2.410996 1_555
Na3 O17 2.410996 1_555
Na3 O6 2.410996 1_556
Na3 O8 2.410996 1_555
Na3 O47 2.574304 1_555
Na3 O1 2.574304 1_556
Na3 O11 2.574304 1_555
Na3 O15 2.574304 1_555
Na4 O20 2.410996 1_555
Na4 O1 2.410996 1_555
Na4 O12 2.410996 1_655
Na4 O16 2.410996 1_555
Na4 O21 2.574304 1_555
Na4 O22 2.574304 1_655
Na4 O6 2.574304 1_555
Na4 O4 2.574304 1_555
Na5 O9 2.410996 1_555
Na5 O47 2.410996 1_565
Na5 O5 2.410996 1_555
Na5 O14 2.410996 1_555
Na5 O23 2.574304 1_555
Na5 O7 2.574304 1_555
Na5 O2 2.574304 1_555
Na5 O8 2.574304 1_565
Na6 O42 2.410996 1_555
Na6 O26 2.410996 1_555
Na6 O33 2.410996 1_555
Na6 O40 2.410996 1_545
Na6 O41 2.574304 1_555
Na6 O24 2.574304 1_555
Na6 O43 2.574304 1_555
Na6 O38 2.574304 1_545
Na7 O34 2.410996 1_554
Na7 O45 2.410996 1_555
Na7 O44 2.410996 1_555
Na7 O31 2.410996 1_555
Na7 O46 2.574304 1_555
Na7 O27 2.574304 1_555
Na7 O39 2.574304 1_554
Na7 O37 2.574304 1_555
Na8 O24 2.410996 1_455
Na8 O32 2.410996 1_555
Na8 O27 2.410996 1_555
Na8 O28 2.410996 1_555
Na8 O45 2.574304 1_555
Na8 O29 2.574304 1_555
Na8 O42 2.574304 1_455
Na8 O36 2.574304 1_555
Na9 O19 2.410996 1_555
Na9 O37 2.410996 1_555
Na9 O38 2.410996 1_555
Na9 O30 2.410996 1_554
Na9 O44 2.574304 1_555
Na9 O35 2.574304 1_555
Na9 O40 2.574304 1_555
Na9 O25 2.574304 1_554
Na10 O39 2.410996 1_555
Na10 O36 2.410996 1_555
Na10 O25 2.410996 1_555
Na10 O43 2.410996 1_455
Na10 O28 2.574304 1_555
Na10 O34 2.574304 1_555
Na10 O30 2.574304 1_555
Na10 O33 2.574304 1_455
Na11 O35 2.410996 1_545
Na11 O46 2.410996 1_555
Na11 O41 2.410996 1_555
Na11 O29 2.410996 1_555
Na11 O32 2.574304 1_555
Na11 O31 2.574304 1_555
Na11 O19 2.574304 1_545
Na11 O26 2.574304 1_555
Fe0 O27 1.981302 1_555
Fe0 O29 1.981302 1_555
Fe0 O31 1.981302 1_555
Fe0 O3 1.981302 1_444
Fe0 O7 1.981302 1_444
Fe0 O5 1.981302 1_444
Fe1 O28 1.981302 1_555
Fe1 O43 1.981302 1_455
Fe1 O13 1.981302 1_545
Fe1 O4 1.981302 1_445
Fe1 O12 1.981302 1_545
Fe1 O42 1.981302 1_455
Fe2 O41 1.981302 1_555
Fe2 O40 1.981302 1_545
Fe2 O8 1.981302 1_554
Fe2 O14 1.981302 1_544
Fe2 O15 1.981302 1_554
Fe2 O19 1.981302 1_545
Fe3 O44 1.981302 1_555
Fe3 O30 1.981302 1_554
Fe3 O16 1.981302 1_455
Fe3 O6 1.981302 1_455
Fe3 O11 1.981302 1_454
Fe3 O39 1.981302 1_554
Fe4 O26 1.981302 1_555
Fe4 O47 1.981302 1_555
Fe4 O17 1.981302 1_555
Fe4 O38 1.981302 1_545
Fe4 O2 1.981302 1_545
Fe4 O35 1.981302 1_545
Fe5 O37 1.981302 1_555
Fe5 O1 1.981302 1_555
Fe5 O21 1.981302 1_555
Fe5 O25 1.981302 1_554
Fe5 O18 1.981302 1_554
Fe5 O34 1.981302 1_554
Fe6 O36 1.981302 1_555
Fe6 O0 1.981302 1_555
Fe6 O22 1.981302 1_555
Fe6 O33 1.981302 1_455
Fe6 O20 1.981302 1_455
Fe6 O24 1.981302 1_455
Fe7 O9 1.981302 1_555
Fe7 O10 1.981302 1_555
Fe7 O23 1.981302 1_555
Fe7 O45 1.981302 1_555
Fe7 O32 1.981302 1_555
Fe7 O46 1.981302 1_555
Ge0 O25 1.782275 1_555
Ge0 O14 1.782275 1_555
Ge0 O9 1.782275 1_555
Ge0 O36 1.782275 1_555
Ge1 O20 1.782275 1_555
Ge1 O46 1.782275 1_555
Ge1 O1 1.782275 1_555
Ge1 O41 1.782275 1_555
Ge2 O6 1.782275 1_555
Ge2 O24 1.782275 1_555
Ge2 O8 1.782275 1_554
Ge2 O27 1.782275 1_655
Ge3 O33 1.782275 1_555
Ge3 O11 1.782275 1_555
Ge3 O10 1.782275 1_555
Ge3 O26 1.782275 1_555
Ge4 O4 1.782275 1_555
Ge4 O38 1.782275 1_555
Ge4 O23 1.782275 1_555
Ge4 O37 1.782275 1_555
Ge5 O15 1.782275 1_555
Ge5 O34 1.782275 1_555
Ge5 O13 1.782275 1_545
Ge5 O31 1.782275 1_556
Ge6 O42 1.782275 1_565
Ge6 O40 1.782275 1_555
Ge6 O7 1.782275 1_554
Ge6 O21 1.782275 1_555
Ge7 O2 1.782275 1_555
Ge7 O45 1.782275 1_555
Ge7 O22 1.782275 1_555
Ge7 O44 1.782275 1_555
Ge8 O18 1.782275 1_555
Ge8 O32 1.782275 1_555
Ge8 O17 1.782275 1_555
Ge8 O28 1.782275 1_555
Ge9 O19 1.782275 1_556
Ge9 O30 1.782275 1_555
Ge9 O3 1.782275 1_455
Ge9 O0 1.782275 1_555
Ge10 O39 1.782275 1_655
Ge10 O43 1.782275 1_555
Ge10 O5 1.782275 1_545
Ge10 O47 1.782275 1_555
Ge11 O12 1.782275 1_555
Ge11 O35 1.782275 1_555
Ge11 O16 1.782275 1_455
Ge11 O29 1.782275 1_565
