# generated using pymatgen
data_Mg6ZrTi
_symmetry_space_group_name_H-M   'P 1'
_cell_length_a   5.00034300
_cell_length_b   6.31092700
_cell_length_c   11.17378100
_cell_angle_alpha   90.00000000
_cell_angle_beta   90.00000000
_cell_angle_gamma   90.00000000
_symmetry_Int_Tables_number   1
_chemical_formula_structural   Mg6ZrTi
_chemical_formula_sum   'Mg12 Zr2 Ti2'
_cell_volume   352.60876833
_cell_formula_units_Z   2
loop_
 _symmetry_equiv_pos_site_id
 _symmetry_equiv_pos_as_xyz
  1  'x, y, z'
loop_
 _atom_site_type_symbol
 _atom_site_label
 _atom_site_symmetry_multiplicity
 _atom_site_fract_x
 _atom_site_fract_y
 _atom_site_fract_z
 _atom_site_occupancy
  Mg  Mg0  1  0.00000000  0.25907100  0.08023400  1
  Mg  Mg1  1  0.00000000  0.74092900  0.08023400  1
  Mg  Mg2  1  0.00000000  0.00000000  0.33395200  1
  Mg  Mg3  1  0.50000000  0.74446900  0.41901200  1
  Mg  Mg4  1  0.50000000  0.25553100  0.41901200  1
  Mg  Mg5  1  0.50000000  0.00000000  0.16706100  1
  Mg  Mg6  1  0.00000000  0.75907100  0.58023400  1
  Mg  Mg7  1  0.00000000  0.24092900  0.58023400  1
  Mg  Mg8  1  0.00000000  0.50000000  0.83395200  1
  Mg  Mg9  1  0.50000000  0.24446900  0.91901200  1
  Mg  Mg10  1  0.50000000  0.75553100  0.91901200  1
  Mg  Mg11  1  0.50000000  0.50000000  0.66706100  1
  Zr  Zr0  1  0.00000000  0.50000000  0.32154100  1
  Zr  Zr1  1  0.00000000  0.00000000  0.82154100  1
  Ti  Ti0  1  0.50000000  0.50000000  0.17895400  1
  Ti  Ti1  1  0.50000000  0.00000000  0.67895400  1
loop_
_geom_bond_atom_site_label_1
_geom_bond_atom_site_label_2
_geom_bond_distance
_geom_bond_site_symmetry_2
Mg0 Mg1 3.040971 1_555
Mg0 Mg9 3.082954 1_554
Mg0 Mg9 3.082954 1_454
Mg0 Zr0 3.095476 1_555
Mg0 Ti0 3.127221 1_555
Mg0 Ti0 3.127221 1_455
Mg0 Mg5 3.140903 1_455
Mg0 Mg5 3.140903 1_555
Mg0 Mg8 3.144016 1_554
Mg0 Mg1 3.269956 1_545
Mg0 Mg2 3.272662 1_555
Mg0 Zr1 3.320934 1_554
Mg1 Mg10 3.082954 1_554
Mg1 Mg10 3.082954 1_454
Mg1 Zr0 3.095476 1_555
Mg1 Ti0 3.127221 1_555
Mg1 Ti0 3.127221 1_455
Mg1 Mg5 3.140903 1_565
Mg1 Mg5 3.140903 1_465
Mg1 Mg8 3.144016 1_554
Mg1 Mg2 3.272662 1_565
Mg1 Zr1 3.320934 1_564
Mg2 Mg5 3.119030 1_555
Mg2 Mg5 3.119030 1_455
Mg2 Mg3 3.123267 1_545
Mg2 Mg3 3.123267 1_445
Mg2 Mg4 3.123267 1_455
Mg2 Mg4 3.123267 1_555
Mg2 Mg6 3.144016 1_545
Mg2 Mg7 3.144016 1_555
Mg2 Zr0 3.158509 1_545
Mg2 Zr0 3.158509 1_555
Mg3 Mg6 3.082954 1_655
Mg3 Mg6 3.082954 1_555
Mg3 Mg4 3.085652 1_555
Mg3 Ti0 3.094405 1_555
Mg3 Zr0 3.133265 1_555
Mg3 Zr0 3.133265 1_655
Mg3 Mg4 3.225275 1_565
Mg3 Mg5 3.244411 1_565
Mg3 Ti1 3.322186 1_565
Mg4 Mg7 3.082954 1_555
Mg4 Mg7 3.082954 1_655
Mg4 Ti0 3.094405 1_555
Mg4 Zr0 3.133265 1_555
Mg4 Zr0 3.133265 1_655
Mg4 Mg5 3.244411 1_555
Mg4 Ti1 3.322186 1_555
Mg5 Ti0 3.158261 1_545
Mg5 Ti0 3.158261 1_555
Mg5 Mg9 3.172117 1_554
Mg6 Mg7 3.040971 1_565
Mg6 Zr1 3.095476 1_565
Mg6 Ti1 3.127221 1_565
Mg6 Ti1 3.127221 1_465
Mg6 Mg7 3.269956 1_555
Mg6 Mg8 3.272662 1_555
Mg6 Zr0 3.320934 1_555
Mg7 Zr1 3.095476 1_555
Mg7 Ti1 3.127221 1_555
Mg7 Ti1 3.127221 1_455
Mg7 Mg8 3.272662 1_555
Mg7 Zr0 3.320934 1_555
Mg8 Mg9 3.123267 1_555
Mg8 Mg9 3.123267 1_455
Mg8 Zr1 3.158509 1_565
Mg8 Zr1 3.158509 1_555
Mg9 Ti1 3.094405 1_555
Mg9 Zr1 3.133265 1_555
Mg9 Zr1 3.133265 1_655
Mg9 Ti0 3.322186 1_556
Mg10 Mg9 3.085652 1_565
Mg10 Ti1 3.094405 1_565
Mg10 Mg8 3.123267 1_555
Mg10 Mg8 3.123267 1_655
Mg10 Zr1 3.133265 1_565
Mg10 Zr1 3.133265 1_665
Mg10 Mg5 3.172117 1_566
Mg10 Mg9 3.225275 1_555
Mg10 Mg11 3.244411 1_555
Mg10 Ti0 3.322186 1_556
Mg11 Mg8 3.119030 1_655
Mg11 Mg8 3.119030 1_555
Mg11 Mg7 3.140903 1_655
Mg11 Mg7 3.140903 1_555
Mg11 Mg6 3.140903 1_555
Mg11 Mg6 3.140903 1_655
Mg11 Ti1 3.158261 1_555
Mg11 Ti1 3.158261 1_565
Mg11 Mg3 3.172117 1_555
Mg11 Mg4 3.172117 1_555
Mg11 Mg9 3.244411 1_555
Ti0 Zr0 2.964668 1_655
Ti0 Zr0 2.964668 1_555
Ti1 Zr1 2.964668 1_655
Ti1 Zr1 2.964668 1_555
