# generated using pymatgen
data_Li4MnCo2O7
_symmetry_space_group_name_H-M   'P 1'
_cell_length_a   2.97449800
_cell_length_b   5.96662730
_cell_length_c   14.33619805
_cell_angle_alpha   83.02023555
_cell_angle_beta   84.55564899
_cell_angle_gamma   86.00331987
_symmetry_Int_Tables_number   1
_chemical_formula_structural   Li4MnCo2O7
_chemical_formula_sum   'Li8 Mn2 Co4 O14'
_cell_volume   250.97394853
_cell_formula_units_Z   2
loop_
 _symmetry_equiv_pos_site_id
 _symmetry_equiv_pos_as_xyz
  1  'x, y, z'
loop_
 _atom_site_type_symbol
 _atom_site_label
 _atom_site_symmetry_multiplicity
 _atom_site_fract_x
 _atom_site_fract_y
 _atom_site_fract_z
 _atom_site_occupancy
  Li  Li0  1  0.99717000  0.49765400  0.00161200  1
  Li  Li1  1  0.57765500  0.78102000  0.84944300  1
  Li  Li2  1  0.14893400  0.08317300  0.70932000  1
  Li  Li3  1  0.42827900  0.21616600  0.14576600  1
  Li  Li4  1  0.85666400  0.92888800  0.28663200  1
  Li  Li5  1  0.28304500  0.64208400  0.43020600  1
  Li  Li6  1  0.71036500  0.36211000  0.57704200  1
  Li  Li7  1  0.13661100  0.56365500  0.70933600  1
  Mn  Mn0  1  0.00519800  0.99957300  0.00214200  1
  Mn  Mn1  1  0.57872700  0.29529300  0.85103300  1
  Co  Co0  1  0.70695100  0.84756000  0.57652200  1
  Co  Co1  1  0.28642800  0.14335600  0.42994500  1
  Co  Co2  1  0.85706600  0.42664100  0.28720000  1
  Co  Co3  1  0.42621500  0.71048400  0.14477000  1
  O  O0  1  0.46941000  0.75458600  0.00604400  1
  O  O1  1  0.09563600  0.06223400  0.86085000  1
  O  O2  1  0.63299100  0.31717700  0.72329300  1
  O  O3  1  0.89713500  0.47401500  0.15101000  1
  O  O4  1  0.32535300  0.18685900  0.29371600  1
  O  O5  1  0.75302300  0.90453000  0.43937800  1
  O  O6  1  0.18465000  0.62855600  0.56963700  1
  O  O7  1  0.53842800  0.24274900  0.99411700  1
  O  O8  1  0.05138400  0.50773100  0.85608000  1
  O  O9  1  0.65126600  0.82986300  0.69946400  1
  O  O10  1  0.95725000  0.95083500  0.14041600  1
  O  O11  1  0.38695900  0.66603500  0.27985900  1
  O  O12  1  0.81412400  0.38114000  0.42152400  1
  O  O13  1  0.24308300  0.09603300  0.56364400  1
loop_
_geom_bond_atom_site_label_1
_geom_bond_atom_site_label_2
_geom_bond_distance
_geom_bond_site_symmetry_2
Li0 O8 2.071136 1_654
Li0 O0 2.118442 1_555
Li0 O3 2.123025 1_555
Li0 O7 2.131554 1_554
Li0 O7 2.140634 1_654
Li0 O0 2.160575 1_655
Li1 O8 2.078695 1_655
Li1 O9 2.126781 1_555
Li1 O1 2.141171 1_565
Li1 O0 2.225467 1_556
Li1 O8 2.325565 1_555
Li1 O1 2.385543 1_665
Li2 O2 2.013879 1_455
Li2 O9 2.057654 1_545
Li2 O13 2.073394 1_555
Li2 O2 2.113192 1_555
Li2 O1 2.152058 1_555
Li2 O9 2.213394 1_445
Li3 O4 2.101718 1_555
Li3 O3 2.129645 1_455
Li3 O10 2.155743 1_545
Li3 O7 2.155773 1_554
Li3 O3 2.159777 1_555
Li3 O10 2.198703 1_445
Li4 O10 2.078553 1_555
Li4 O4 2.132031 1_565
Li4 O11 2.149490 1_655
Li4 O4 2.164957 1_665
Li4 O5 2.170753 1_555
Li4 O11 2.188453 1_555
Li5 O6 1.985166 1_555
Li5 O11 2.136962 1_555
Li5 O12 2.145221 1_555
Li5 O5 2.149759 1_455
Li5 O12 2.183540 1_455
Li5 O5 2.194020 1_555
Li6 O2 2.073968 1_555
Li6 O6 2.151256 1_555
Li6 O13 2.175742 1_655
Li6 O6 2.184521 1_655
Li6 O12 2.211734 1_555
Li6 O13 2.218464 1_555
Li7 O6 1.986533 1_555
Li7 O2 2.016106 1_555
Li7 O9 2.071610 1_455
Li7 O8 2.083593 1_555
Li7 O2 2.150717 1_455
Li7 O9 2.264863 1_555
Mn0 O7 1.937798 1_464
Mn0 O0 1.939036 1_555
Mn0 O10 1.961261 1_455
Mn0 O1 2.010405 1_564
Mn0 O7 2.209016 1_564
Mn0 O0 2.228825 1_455
Mn1 O2 1.812599 1_555
Mn1 O8 1.948315 1_555
Mn1 O8 1.969390 1_655
Mn1 O1 2.003250 1_655
Mn1 O7 2.030441 1_555
Mn1 O1 2.052059 1_555
Co0 O9 1.745530 1_555
Co0 O6 1.866053 1_655
Co0 O5 1.947538 1_555
Co0 O13 1.957670 1_565
Co0 O6 2.115255 1_555
Co0 O13 2.232118 1_665
Co1 O13 1.896542 1_555
Co1 O5 1.920467 1_545
Co1 O12 1.927133 1_455
Co1 O4 1.932120 1_555
Co1 O12 2.173491 1_555
Co1 O5 2.189480 1_445
Co2 O12 1.905104 1_555
Co2 O4 1.926197 1_655
Co2 O11 1.928634 1_555
Co2 O3 1.931984 1_555
Co2 O11 2.186653 1_655
Co2 O4 2.193604 1_555
Co3 O11 1.916040 1_555
Co3 O3 1.917919 1_555
Co3 O10 1.929313 1_455
Co3 O0 1.967263 1_555
Co3 O3 2.174286 1_455
Co3 O10 2.197912 1_555
