# generated using pymatgen
data_LiCr6(OF)4
_symmetry_space_group_name_H-M   'P 1'
_cell_length_a   5.74824427
_cell_length_b   6.48557064
_cell_length_c   5.72672110
_cell_angle_alpha   90.91529795
_cell_angle_beta   106.37453913
_cell_angle_gamma   86.87004290
_symmetry_Int_Tables_number   1
_chemical_formula_structural   LiCr6(OF)4
_chemical_formula_sum   'Li1 Cr6 O4 F4'
_cell_volume   204.53072017
_cell_formula_units_Z   1
loop_
 _symmetry_equiv_pos_site_id
 _symmetry_equiv_pos_as_xyz
  1  'x, y, z'
loop_
 _atom_site_type_symbol
 _atom_site_label
 _atom_site_symmetry_multiplicity
 _atom_site_fract_x
 _atom_site_fract_y
 _atom_site_fract_z
 _atom_site_occupancy
  Li  Li0  1  0.03384300  0.37682600  0.92097700  1
  Cr  Cr0  1  0.00338900  0.53219400  0.46462000  1
  Cr  Cr1  1  0.99014100  0.97996600  0.00696300  1
  Cr  Cr2  1  0.47605100  0.12898000  0.76841600  1
  Cr  Cr3  1  0.51433100  0.62434500  0.73820400  1
  Cr  Cr4  1  0.49833500  0.37658900  0.27284300  1
  Cr  Cr5  1  0.49706900  0.88039300  0.23059000  1
  O  O0  1  0.33957100  0.37871200  0.54852800  1
  O  O1  1  0.65887100  0.86918600  0.95617700  1
  O  O2  1  0.29848400  0.14517000  0.04171100  1
  O  O3  1  0.65798300  0.63731300  0.44582500  1
  F  F0  1  0.25792800  0.60657800  0.95104000  1
  F  F1  1  0.18319600  0.87359300  0.35045700  1
  F  F2  1  0.81960400  0.13612800  0.68754400  1
  F  F3  1  0.75037200  0.37402900  0.05658100  1
loop_
_geom_bond_atom_site_label_1
_geom_bond_atom_site_label_2
_geom_bond_distance
_geom_bond_site_symmetry_2
Li0 O2 2.059128 1_556
Cr0 O3 2.037777 1_455
Cr0 O0 2.058592 1_555
Cr0 F3 2.607290 1_455
Cr1 O1 2.014277 1_554
Cr1 F2 2.067006 1_564
Cr1 F1 2.075054 1_655
Cr1 O2 2.081058 1_665
Cr2 O0 2.047884 1_555
Cr2 O1 2.080117 1_545
Cr2 O2 2.094300 1_556
Cr2 F2 2.154749 1_555
Cr2 F3 2.541316 1_556
Cr3 O0 2.056972 1_555
Cr3 O1 2.065432 1_555
Cr3 O3 2.069806 1_555
Cr3 F0 2.169580 1_555
Cr3 F3 2.501998 1_556
Cr4 O0 2.033686 1_555
Cr4 O3 2.070303 1_555
Cr4 O2 2.142858 1_555
Cr4 F3 2.154391 1_555
Cr4 F0 2.440821 1_554
Cr5 O3 2.029842 1_555
Cr5 O1 2.037882 1_554
Cr5 F1 2.106256 1_555
Cr5 O2 2.137995 1_565
Cr5 F0 2.557559 1_554
F0 Li0 1.996375 1_555
F2 Li0 2.226118 1_655
F3 Li0 1.993907 1_654
