# generated using pymatgen
data_Li5Mn2CoO8
_symmetry_space_group_name_H-M   'P 1'
_cell_length_a   2.96859000
_cell_length_b   5.07517180
_cell_length_c   10.07361393
_cell_angle_alpha   100.70904524
_cell_angle_beta   92.60647800
_cell_angle_gamma   104.09337642
_symmetry_Int_Tables_number   1
_chemical_formula_structural   Li5Mn2CoO8
_chemical_formula_sum   'Li5 Mn2 Co1 O8'
_cell_volume   143.98122879
_cell_formula_units_Z   1
loop_
 _symmetry_equiv_pos_site_id
 _symmetry_equiv_pos_as_xyz
  1  'x, y, z'
loop_
 _atom_site_type_symbol
 _atom_site_label
 _atom_site_symmetry_multiplicity
 _atom_site_fract_x
 _atom_site_fract_y
 _atom_site_fract_z
 _atom_site_occupancy
  Li  Li0  1  0.74713800  0.50697700  0.12948600  1
  Li  Li1  1  0.25443900  0.51268300  0.37824500  1
  Li  Li2  1  0.77252200  0.50420200  0.61331800  1
  Li  Li3  1  0.23816400  0.48706800  0.87682500  1
  Li  Li4  1  0.98136700  0.98211100  0.49919700  1
  Mn  Mn0  1  0.00649500  0.00528000  0.00358800  1
  Mn  Mn1  1  0.50486500  0.99533900  0.74106800  1
  Co  Co0  1  0.49239600  0.00435600  0.26210200  1
  O  O0  1  0.36123200  0.77565800  0.07268800  1
  O  O1  1  0.85290800  0.77368600  0.30614200  1
  O  O2  1  0.37396100  0.75421200  0.57605900  1
  O  O3  1  0.91901700  0.78569200  0.81268000  1
  O  O4  1  0.13685400  0.22956500  0.18550100  1
  O  O5  1  0.61898900  0.23412800  0.41795100  1
  O  O6  1  0.08805500  0.21393700  0.69409300  1
  O  O7  1  0.65159900  0.23510600  0.93105800  1
loop_
_geom_bond_atom_site_label_1
_geom_bond_atom_site_label_2
_geom_bond_distance
_geom_bond_site_symmetry_2
Li0 O1 1.986110 1_555
Li0 O0 2.119029 1_555
Li0 O4 2.160598 1_655
Li0 O0 2.164322 1_655
Li0 O7 2.170866 1_554
Li0 O4 2.174592 1_555
Li1 O5 2.060483 1_555
Li1 O2 2.101291 1_555
Li1 O4 2.147935 1_555
Li1 O5 2.167271 1_455
Li1 O1 2.179638 1_455
Li1 O1 2.183438 1_555
Li2 O2 2.004604 1_555
Li2 O2 2.018229 1_655
Li2 O5 2.138071 1_555
Li2 O6 2.181241 1_655
Li2 O3 2.194318 1_555
Li2 O6 2.469615 1_555
Li3 O6 2.045676 1_555
Li3 O7 2.056079 1_455
Li3 O7 2.098322 1_555
Li3 O3 2.149335 1_455
Li3 O0 2.184363 1_556
Li3 O3 2.406358 1_555
Li4 O1 2.004499 1_555
Li4 O2 2.050073 1_655
Li4 O6 2.059773 1_665
Li4 O5 2.107616 1_565
Li4 O2 2.152378 1_555
Li4 O5 2.288995 1_665
Mn0 O4 1.936320 1_555
Mn0 O0 1.945263 1_545
Mn0 O7 1.962004 1_454
Mn0 O3 2.006237 1_444
Mn0 O0 2.201694 1_445
Mn0 O7 2.217633 1_554
Mn1 O2 1.834474 1_555
Mn1 O6 1.945819 1_665
Mn1 O6 1.948366 1_565
Mn1 O3 2.001421 1_555
Mn1 O7 2.033212 1_565
Mn1 O3 2.043355 1_455
Co0 O5 1.737352 1_555
Co0 O1 1.863515 1_545
Co0 O4 1.963934 1_555
Co0 O0 2.007196 1_545
Co0 O1 2.087693 1_445
Co0 O4 2.226890 1_655
