# generated using pymatgen
data_Nb6GaSb
_symmetry_space_group_name_H-M   'P 1'
_cell_length_a   5.25854300
_cell_length_b   5.25854300
_cell_length_c   5.25854300
_cell_angle_alpha   90.00000000
_cell_angle_beta   90.00000000
_cell_angle_gamma   90.00000000
_symmetry_Int_Tables_number   1
_chemical_formula_structural   Nb6GaSb
_chemical_formula_sum   'Nb6 Ga1 Sb1'
_cell_volume   145.41067442
_cell_formula_units_Z   1
loop_
 _symmetry_equiv_pos_site_id
 _symmetry_equiv_pos_as_xyz
  1  'x, y, z'
loop_
 _atom_site_type_symbol
 _atom_site_label
 _atom_site_symmetry_multiplicity
 _atom_site_fract_x
 _atom_site_fract_y
 _atom_site_fract_z
 _atom_site_occupancy
  Nb  Nb0  1  0.00000000  0.50000000  0.75122700  1
  Nb  Nb1  1  0.50000000  0.24877300  0.00000000  1
  Nb  Nb2  1  0.75122700  0.00000000  0.50000000  1
  Nb  Nb3  1  0.00000000  0.50000000  0.24877300  1
  Nb  Nb4  1  0.50000000  0.75122700  0.00000000  1
  Nb  Nb5  1  0.24877300  0.00000000  0.50000000  1
  Ga  Ga0  1  0.50000000  0.50000000  0.50000000  1
  Sb  Sb0  1  0.00000000  0.00000000  0.00000000  1
loop_
_geom_bond_atom_site_label_1
_geom_bond_atom_site_label_2
_geom_bond_distance
_geom_bond_site_symmetry_2
Nb0 Nb3 2.616367 1_556
Nb0 Nb3 2.642176 1_555
Nb0 Sb0 2.936735 1_566
Nb0 Sb0 2.936735 1_556
Nb1 Nb4 2.616367 1_545
Nb1 Nb4 2.642176 1_555
Nb1 Sb0 2.936735 1_555
Nb1 Sb0 2.936735 1_655
Nb2 Nb5 2.616367 1_655
Nb2 Nb5 2.642176 1_555
Nb2 Sb0 2.936735 1_656
Nb2 Sb0 2.936735 1_655
Nb3 Sb0 2.936735 1_555
Nb3 Sb0 2.936735 1_565
Nb4 Sb0 2.936735 1_665
Nb4 Sb0 2.936735 1_565
Nb5 Sb0 2.936735 1_555
Nb5 Sb0 2.936735 1_556
Ga0 Nb3 2.942506 1_555
Ga0 Nb0 2.942506 1_555
Ga0 Nb0 2.942506 1_655
Ga0 Nb2 2.942506 1_565
Ga0 Nb1 2.942506 1_556
Ga0 Nb1 2.942506 1_555
Ga0 Nb3 2.942506 1_655
Ga0 Nb4 2.942506 1_556
Ga0 Nb4 2.942506 1_555
Ga0 Nb2 2.942506 1_555
Ga0 Nb5 2.942506 1_555
Ga0 Nb5 2.942506 1_565
