# generated using pymatgen
data_CsCaMg6
_symmetry_space_group_name_H-M   'P 1'
_cell_length_a   5.54532600
_cell_length_b   7.12642200
_cell_length_c   12.41809600
_cell_angle_alpha   90.00000000
_cell_angle_beta   90.00000000
_cell_angle_gamma   90.00000000
_symmetry_Int_Tables_number   1
_chemical_formula_structural   CsCaMg6
_chemical_formula_sum   'Cs2 Ca2 Mg12'
_cell_volume   490.74245548
_cell_formula_units_Z   2
loop_
 _symmetry_equiv_pos_site_id
 _symmetry_equiv_pos_as_xyz
  1  'x, y, z'
loop_
 _atom_site_type_symbol
 _atom_site_label
 _atom_site_symmetry_multiplicity
 _atom_site_fract_x
 _atom_site_fract_y
 _atom_site_fract_z
 _atom_site_occupancy
  Cs  Cs0  1  0.50000000  0.50000000  0.16062200  1
  Cs  Cs1  1  0.50000000  0.00000000  0.66062200  1
  Ca  Ca0  1  0.00000000  0.50000000  0.34525100  1
  Ca  Ca1  1  0.00000000  0.00000000  0.84525100  1
  Mg  Mg0  1  0.00000000  0.77815800  0.08045100  1
  Mg  Mg1  1  0.00000000  0.22184200  0.08045100  1
  Mg  Mg2  1  0.00000000  0.00000000  0.33275000  1
  Mg  Mg3  1  0.50000000  0.24768700  0.41704800  1
  Mg  Mg4  1  0.50000000  0.75231300  0.41704800  1
  Mg  Mg5  1  0.50000000  0.00000000  0.16637800  1
  Mg  Mg6  1  0.00000000  0.27815800  0.58045100  1
  Mg  Mg7  1  0.00000000  0.72184200  0.58045100  1
  Mg  Mg8  1  0.00000000  0.50000000  0.83275000  1
  Mg  Mg9  1  0.50000000  0.74768700  0.91704800  1
  Mg  Mg10  1  0.50000000  0.25231300  0.91704800  1
  Mg  Mg11  1  0.50000000  0.50000000  0.66637800  1
loop_
_geom_bond_atom_site_label_1
_geom_bond_atom_site_label_2
_geom_bond_distance
_geom_bond_site_symmetry_2
Cs0 Mg9 3.502088 1_554
Cs0 Mg10 3.502088 1_554
Cs0 Mg0 3.550806 1_655
Cs0 Mg0 3.550806 1_555
Cs0 Mg1 3.550806 1_555
Cs0 Mg1 3.550806 1_655
Cs0 Mg5 3.563928 1_555
Cs0 Mg5 3.563928 1_565
Cs0 Mg3 3.656916 1_555
Cs0 Mg4 3.656916 1_555
Cs1 Mg4 3.502088 1_545
Cs1 Mg3 3.502088 1_555
Cs1 Mg6 3.550806 1_555
Cs1 Mg6 3.550806 1_655
Cs1 Mg7 3.550806 1_645
Cs1 Mg7 3.550806 1_545
Cs1 Mg11 3.563928 1_545
Cs1 Mg11 3.563928 1_555
Cs1 Mg9 3.656916 1_545
Cs1 Mg10 3.656916 1_555
Ca0 Mg7 3.321155 1_555
Ca0 Mg6 3.321155 1_555
Ca0 Mg4 3.422821 1_555
Ca0 Mg3 3.422821 1_455
Ca0 Mg3 3.422821 1_555
Ca0 Mg4 3.422821 1_455
Ca0 Mg2 3.566591 1_555
Ca0 Mg2 3.566591 1_565
Ca0 Cs0 3.597822 1_555
Ca0 Cs0 3.597822 1_455
Ca0 Mg0 3.839583 1_555
Ca0 Mg1 3.839583 1_555
Ca1 Mg1 3.321155 1_556
Ca1 Mg0 3.321155 1_546
Ca1 Mg10 3.422821 1_555
Ca1 Mg9 3.422821 1_445
Ca1 Mg9 3.422821 1_545
Ca1 Mg10 3.422821 1_455
Ca1 Mg8 3.566591 1_545
Ca1 Mg8 3.566591 1_555
Ca1 Cs1 3.597822 1_555
Ca1 Cs1 3.597822 1_455
Ca1 Mg6 3.839583 1_555
Ca1 Mg7 3.839583 1_545
Mg0 Mg1 3.161879 1_565
Mg0 Mg5 3.365357 1_565
Mg0 Mg5 3.365357 1_465
Mg0 Mg9 3.442714 1_454
Mg0 Mg9 3.442714 1_554
Mg0 Mg2 3.509347 1_565
Mg1 Mg5 3.365357 1_455
Mg1 Mg5 3.365357 1_555
Mg1 Mg10 3.442714 1_554
Mg1 Mg10 3.442714 1_454
Mg1 Mg2 3.509347 1_555
Mg2 Mg3 3.449514 1_455
Mg2 Mg3 3.449514 1_555
Mg2 Mg4 3.449514 1_445
Mg2 Mg4 3.449514 1_545
Mg2 Mg5 3.457761 1_455
Mg2 Mg5 3.457761 1_555
Mg3 Mg6 3.442714 1_555
Mg3 Mg6 3.442714 1_655
Mg3 Mg4 3.530244 1_545
Mg3 Mg5 3.578471 1_555
Mg3 Mg4 3.596178 1_555
Mg4 Mg7 3.442714 1_655
Mg4 Mg7 3.442714 1_555
Mg4 Mg5 3.578471 1_565
Mg5 Mg9 3.580447 1_544
Mg6 Mg7 3.161879 1_555
Mg6 Mg8 3.509347 1_555
Mg7 Mg8 3.509347 1_555
Mg8 Mg9 3.449514 1_455
Mg8 Mg9 3.449514 1_555
Mg10 Mg8 3.449514 1_555
Mg10 Mg8 3.449514 1_655
Mg10 Mg9 3.530244 1_555
Mg10 Mg11 3.578471 1_555
Mg10 Mg5 3.580447 1_556
Mg10 Mg9 3.596178 1_545
Mg11 Mg7 3.365357 1_555
Mg11 Mg7 3.365357 1_655
Mg11 Mg6 3.365357 1_555
Mg11 Mg6 3.365357 1_655
Mg11 Mg8 3.457761 1_655
Mg11 Mg8 3.457761 1_555
Mg11 Mg9 3.578471 1_555
Mg11 Mg4 3.580447 1_555
Mg11 Mg3 3.580447 1_555
