# generated using pymatgen
data_NaNdTi2O6
_symmetry_space_group_name_H-M   'P 1'
_cell_length_a   5.47245800
_cell_length_b   5.50854500
_cell_length_c   7.73527100
_cell_angle_alpha   90.00000000
_cell_angle_beta   90.00000000
_cell_angle_gamma   90.00000000
_symmetry_Int_Tables_number   1
_chemical_formula_structural   NaNdTi2O6
_chemical_formula_sum   'Na2 Nd2 Ti4 O12'
_cell_volume   233.18191909
_cell_formula_units_Z   2
loop_
 _symmetry_equiv_pos_site_id
 _symmetry_equiv_pos_as_xyz
  1  'x, y, z'
loop_
 _atom_site_type_symbol
 _atom_site_label
 _atom_site_symmetry_multiplicity
 _atom_site_fract_x
 _atom_site_fract_y
 _atom_site_fract_z
 _atom_site_occupancy
  Na  Na0  1  0.49708500  0.76545300  0.50000000  1
  Na  Na1  1  0.99708500  0.23454700  0.00000000  1
  Nd  Nd0  1  0.00953500  0.28415400  0.50000000  1
  Nd  Nd1  1  0.50953500  0.71584600  0.00000000  1
  Ti  Ti0  1  0.50196400  0.24500000  0.75081800  1
  Ti  Ti1  1  0.00196400  0.75500000  0.25081800  1
  Ti  Ti2  1  0.50196400  0.24500000  0.24918200  1
  Ti  Ti3  1  0.00196400  0.75500000  0.74918200  1
  O  O0  1  0.27222500  0.52378300  0.71367600  1
  O  O1  1  0.21596500  0.03331500  0.28906400  1
  O  O2  1  0.71596500  0.96668500  0.21093600  1
  O  O3  1  0.77222500  0.47621700  0.78632400  1
  O  O4  1  0.71596500  0.96668500  0.78906400  1
  O  O5  1  0.77222500  0.47621700  0.21367600  1
  O  O6  1  0.27222500  0.52378300  0.28632400  1
  O  O7  1  0.21596500  0.03331500  0.71093600  1
  O  O8  1  0.57745700  0.23936900  0.50000000  1
  O  O9  1  0.93561500  0.73641000  0.50000000  1
  O  O10  1  0.43561500  0.26359000  0.00000000  1
  O  O11  1  0.07745700  0.76063100  0.00000000  1
loop_
_geom_bond_atom_site_label_1
_geom_bond_atom_site_label_2
_geom_bond_distance
_geom_bond_site_symmetry_2
Na0 O9 2.405164 1_555
Na0 O0 2.453229 1_555
Na0 O6 2.453229 1_555
Na0 O8 2.647380 1_565
Na0 O1 2.684435 1_565
Na0 O7 2.684435 1_565
Na0 O4 2.768241 1_555
Na0 O2 2.768241 1_555
Na0 O8 2.931145 1_555
Na1 O10 2.405164 1_655
Na1 O5 2.453229 1_555
Na1 O3 2.453229 1_554
Na1 O11 2.647380 1_645
Na1 O2 2.684435 1_545
Na1 O4 2.684435 1_544
Na1 O7 2.768241 1_654
Na1 O1 2.768241 1_655
Na1 O11 2.931145 1_655
Nd0 O8 2.377363 1_455
Nd0 O7 2.418202 1_555
Nd0 O1 2.418202 1_555
Nd0 O9 2.523901 1_455
Nd0 O0 2.557515 1_555
Nd0 O6 2.557515 1_555
Nd0 O3 2.776903 1_455
Nd0 O5 2.776903 1_455
Nd1 O11 2.377363 1_555
Nd1 O2 2.418202 1_555
Nd1 O4 2.418202 1_554
Nd1 O10 2.523901 1_555
Nd1 O5 2.557515 1_555
Nd1 O3 2.557515 1_554
Nd1 O6 2.776903 1_555
Nd1 O0 2.776903 1_554
O0 Ti3 1.971061 1_555
O0 Ti0 2.005375 1_555
O1 Ti1 1.951782 1_545
O1 Ti2 1.975980 1_555
O2 Ti2 1.951782 1_565
O2 Ti1 1.975980 1_655
O3 Ti0 1.971061 1_555
O3 Ti3 2.005375 1_655
O4 Ti0 1.951782 1_565
O4 Ti3 1.975980 1_655
O5 Ti2 1.971061 1_555
O5 Ti1 2.005375 1_655
O6 Ti1 1.971061 1_555
O6 Ti2 2.005375 1_555
O7 Ti3 1.951782 1_545
O7 Ti0 1.975980 1_555
O8 Ti0 1.983886 1_555
O8 Ti2 1.983886 1_555
O9 Ti1 1.964062 1_655
O9 Ti3 1.964062 1_655
O10 Ti2 1.964062 1_555
O10 Ti0 1.964062 1_554
O11 Ti3 1.983886 1_554
O11 Ti1 1.983886 1_555
