# generated using pymatgen
data_ScNiBO4
_symmetry_space_group_name_H-M   'P 1'
_cell_length_a   3.23152600
_cell_length_b   9.42145900
_cell_length_c   9.57761100
_cell_angle_alpha   90.00000000
_cell_angle_beta   90.00000000
_cell_angle_gamma   90.00000000
_symmetry_Int_Tables_number   1
_chemical_formula_structural   ScNiBO4
_chemical_formula_sum   'Sc4 Ni4 B4 O16'
_cell_volume   291.59697273
_cell_formula_units_Z   4
loop_
 _symmetry_equiv_pos_site_id
 _symmetry_equiv_pos_as_xyz
  1  'x, y, z'
loop_
 _atom_site_type_symbol
 _atom_site_label
 _atom_site_symmetry_multiplicity
 _atom_site_fract_x
 _atom_site_fract_y
 _atom_site_fract_z
 _atom_site_occupancy
  Sc  Sc0  1  0.50000000  0.88884600  0.82704200  1
  Sc  Sc1  1  0.50000000  0.38884600  0.17295800  1
  Sc  Sc2  1  0.50000000  0.89879600  0.44350400  1
  Sc  Sc3  1  0.50000000  0.39879600  0.55649600  1
  Ni  Ni0  1  0.00000000  0.12090400  0.68521400  1
  Ni  Ni1  1  0.00000000  0.62090400  0.31478600  1
  Ni  Ni2  1  0.00000000  0.10183900  0.05425000  1
  Ni  Ni3  1  0.00000000  0.60183900  0.94575000  1
  B  B0  1  0.00000000  0.16929300  0.37171600  1
  B  B1  1  0.00000000  0.66929300  0.62828400  1
  B  B2  1  0.50000000  0.83065300  0.12628300  1
  B  B3  1  0.50000000  0.33065300  0.87371700  1
  O  O0  1  0.00000000  0.24868400  0.49584700  1
  O  O1  1  0.00000000  0.74868400  0.50415300  1
  O  O2  1  0.50000000  0.74758700  0.00433500  1
  O  O3  1  0.50000000  0.24758700  0.99566500  1
  O  O4  1  0.00000000  0.23277900  0.24277100  1
  O  O5  1  0.00000000  0.73277900  0.75722900  1
  O  O6  1  0.50000000  0.76463200  0.25777600  1
  O  O7  1  0.50000000  0.26463200  0.74222400  1
  O  O8  1  0.00000000  0.00885500  0.86716400  1
  O  O9  1  0.00000000  0.50885500  0.13283600  1
  O  O10  1  0.50000000  0.98803800  0.63125200  1
  O  O11  1  0.50000000  0.48803800  0.36874800  1
  O  O12  1  0.00000000  0.02350600  0.38288900  1
  O  O13  1  0.00000000  0.52350600  0.61711100  1
  O  O14  1  0.50000000  0.97559000  0.11525900  1
  O  O15  1  0.50000000  0.47559000  0.88474100  1
loop_
_geom_bond_atom_site_label_1
_geom_bond_atom_site_label_2
_geom_bond_distance
_geom_bond_site_symmetry_2
Ni0 O8 2.037460 1_555
Ni0 O10 2.108265 1_445
Ni0 O10 2.108265 1_545
Ni0 O0 2.176869 1_555
Ni0 O7 2.177726 1_455
Ni0 O7 2.177726 1_555
Ni1 O9 2.037460 1_555
Ni1 O11 2.108265 1_455
Ni1 O11 2.108265 1_555
Ni1 O1 2.176869 1_555
Ni1 O6 2.177726 1_555
Ni1 O6 2.177726 1_455
Ni2 O8 1.994526 1_554
Ni2 O14 2.089716 1_445
Ni2 O14 2.089716 1_545
Ni2 O4 2.186779 1_555
Ni2 O3 2.193420 1_554
Ni2 O3 2.193420 1_454
Ni3 O9 1.994526 1_556
Ni3 O15 2.089716 1_455
Ni3 O15 2.089716 1_555
Ni3 O5 2.186779 1_555
Ni3 O2 2.193420 1_556
Ni3 O2 2.193420 1_456
B0 O4 1.372206 1_555
B0 O12 1.377689 1_555
B0 O0 1.404601 1_555
B1 O5 1.372206 1_555
B1 O13 1.377689 1_555
B1 O1 1.404601 1_555
B2 O14 1.369594 1_555
B2 O6 1.404622 1_555
B2 O2 1.405924 1_555
B3 O15 1.369594 1_555
B3 O7 1.404622 1_555
B3 O3 1.405924 1_555
O0 Sc3 2.224472 1_455
O0 Sc3 2.224472 1_555
O1 Sc2 2.224472 1_555
O1 Sc2 2.224472 1_455
O2 Sc0 2.157442 1_554
O3 Sc1 2.157442 1_556
O4 Sc1 2.284685 1_555
O4 Sc1 2.284685 1_455
O5 Sc0 2.284685 1_555
O5 Sc0 2.284685 1_455
O6 Sc2 2.182198 1_555
O7 Sc3 2.182198 1_555
O8 Sc0 2.009166 1_445
O8 Sc0 2.009166 1_545
O9 Sc1 2.009166 1_555
O9 Sc1 2.009166 1_455
O10 Sc2 1.985036 1_555
O10 Sc0 2.095168 1_555
O11 Sc3 1.985036 1_555
O11 Sc1 2.095168 1_555
O12 Sc2 2.080440 1_445
O12 Sc2 2.080440 1_545
O13 Sc3 2.080440 1_455
O13 Sc3 2.080440 1_555
