# generated using pymatgen
data_Mn4NO8
_symmetry_space_group_name_H-M   'P 1'
_cell_length_a   7.19443878
_cell_length_b   7.19443878
_cell_length_c   7.19443878
_cell_angle_alpha   92.39875732
_cell_angle_beta   92.39875732
_cell_angle_gamma   156.38988422
_symmetry_Int_Tables_number   1
_chemical_formula_structural   Mn4NO8
_chemical_formula_sum   'Mn4 N1 O8'
_cell_volume   145.98924372
_cell_formula_units_Z   1
loop_
 _symmetry_equiv_pos_site_id
 _symmetry_equiv_pos_as_xyz
  1  'x, y, z'
loop_
 _atom_site_type_symbol
 _atom_site_label
 _atom_site_symmetry_multiplicity
 _atom_site_fract_x
 _atom_site_fract_y
 _atom_site_fract_z
 _atom_site_occupancy
  Mn  Mn0  1  0.66638500  0.15107600  0.81746100  1
  Mn  Mn1  1  0.33361500  0.84892400  0.18253900  1
  Mn  Mn2  1  0.15107600  0.33361500  0.48469200  1
  Mn  Mn3  1  0.84892400  0.66638500  0.51530800  1
  N  N0  1  0.00000000  0.00000000  0.00000000  1
  O  O0  1  0.70436100  0.34404200  0.04840300  1
  O  O1  1  0.29563900  0.65595800  0.95159700  1
  O  O2  1  0.34404200  0.29563900  0.63968000  1
  O  O3  1  0.65595800  0.70436100  0.36032000  1
  O  O4  1  0.95690700  0.33586900  0.29277600  1
  O  O5  1  0.04309300  0.66413100  0.70722400  1
  O  O6  1  0.33586900  0.04309300  0.37896200  1
  O  O7  1  0.66413100  0.95690700  0.62103800  1
loop_
_geom_bond_atom_site_label_1
_geom_bond_atom_site_label_2
_geom_bond_distance
_geom_bond_site_symmetry_2
Mn0 O5 1.921198 1_545
Mn0 O5 1.921198 1_655
Mn0 O7 1.933913 1_545
Mn0 O1 1.955966 1_545
Mn0 O1 1.955966 1_655
Mn0 O0 1.958665 1_556
Mn1 O4 1.921198 1_565
Mn1 O4 1.921198 1_455
Mn1 O6 1.933913 1_565
Mn1 O0 1.955966 1_565
Mn1 O0 1.955966 1_455
Mn1 O1 1.958665 1_554
Mn2 O7 1.921193 1_445
Mn2 O7 1.921195 1_555
Mn2 O4 1.933918 1_455
Mn2 O3 1.955966 1_445
Mn2 O3 1.955966 1_555
Mn2 O2 1.958657 1_555
Mn3 O6 1.921193 1_665
Mn3 O6 1.921195 1_555
Mn3 O5 1.933918 1_655
Mn3 O2 1.955966 1_665
Mn3 O2 1.955966 1_555
Mn3 O3 1.958657 1_555
