# generated using pymatgen
data_SrCoN2
_symmetry_space_group_name_H-M   'P 1'
_cell_length_a   6.05095117
_cell_length_b   8.04554200
_cell_length_c   5.34010058
_cell_angle_alpha   90.00000000
_cell_angle_beta   116.86764189
_cell_angle_gamma   90.00000000
_symmetry_Int_Tables_number   1
_chemical_formula_structural   SrCoN2
_chemical_formula_sum   'Sr4 Co4 N8'
_cell_volume   231.90974715
_cell_formula_units_Z   4
loop_
 _symmetry_equiv_pos_site_id
 _symmetry_equiv_pos_as_xyz
  1  'x, y, z'
loop_
 _atom_site_type_symbol
 _atom_site_label
 _atom_site_symmetry_multiplicity
 _atom_site_fract_x
 _atom_site_fract_y
 _atom_site_fract_z
 _atom_site_occupancy
  Sr  Sr0  1  0.32458500  0.90401000  0.65922100  1
  Sr  Sr1  1  0.67541500  0.40401000  0.84077900  1
  Sr  Sr2  1  0.67541500  0.09599000  0.34077900  1
  Sr  Sr3  1  0.32458500  0.59599000  0.15922100  1
  Co  Co0  1  0.08375400  0.36665100  0.59897800  1
  Co  Co1  1  0.91624600  0.86665100  0.90102200  1
  Co  Co2  1  0.91624600  0.63334900  0.40102200  1
  Co  Co3  1  0.08375400  0.13334900  0.09897800  1
  N  N0  1  0.24802300  0.93308300  0.10739800  1
  N  N1  1  0.75197700  0.43308300  0.39260200  1
  N  N2  1  0.75197700  0.06691700  0.89260200  1
  N  N3  1  0.24802300  0.56691700  0.60739800  1
  N  N4  1  0.14496500  0.30945100  0.94535500  1
  N  N5  1  0.85503500  0.80945100  0.55464500  1
  N  N6  1  0.85503500  0.69054900  0.05464500  1
  N  N7  1  0.14496500  0.19054900  0.44535500  1
loop_
_geom_bond_atom_site_label_1
_geom_bond_atom_site_label_2
_geom_bond_distance
_geom_bond_site_symmetry_2
Co0 N7 1.758477 1_555
Co0 N4 1.775130 1_555
Co0 N1 1.879036 1_455
Co0 N3 1.883016 1_555
Co1 N6 1.758477 1_556
Co1 N5 1.775130 1_555
Co1 N0 1.879036 1_656
Co1 N2 1.883016 1_565
Co2 N5 1.758477 1_555
Co2 N6 1.775130 1_555
Co2 N3 1.879036 1_655
Co2 N1 1.883016 1_555
Co3 N4 1.758477 1_554
Co3 N7 1.775130 1_555
Co3 N2 1.879036 1_454
Co3 N0 1.883016 1_545
N0 Sr0 2.645644 1_554
N0 Sr2 2.654422 1_565
N0 Sr3 2.744229 1_555
N0 Sr0 2.778306 1_555
N1 Sr1 2.645644 1_555
N1 Sr3 2.654422 1_555
N1 Sr2 2.744229 1_555
N1 Sr1 2.778306 1_554
N2 Sr2 2.645644 1_556
N2 Sr0 2.654422 1_545
N2 Sr1 2.744229 1_555
N2 Sr2 2.778306 1_555
N3 Sr3 2.645644 1_555
N3 Sr1 2.654422 1_555
N3 Sr0 2.744229 1_555
N3 Sr3 2.778306 1_556
N4 Sr3 2.584251 1_556
N4 Sr1 2.743915 1_455
N5 Sr2 2.584251 1_565
N5 Sr0 2.743915 1_655
N6 Sr1 2.584251 1_554
N6 Sr3 2.743915 1_655
N7 Sr0 2.584251 1_545
N7 Sr2 2.743915 1_455
