# generated using pymatgen
data_Mg14CoBi
_symmetry_space_group_name_H-M   'P 1'
_cell_length_a   6.26091613
_cell_length_b   6.26091563
_cell_length_c   10.31719939
_cell_angle_alpha   90.00000000
_cell_angle_beta   90.00000000
_cell_angle_gamma   120.00000257
_symmetry_Int_Tables_number   1
_chemical_formula_structural   Mg14CoBi
_chemical_formula_sum   'Mg14 Co1 Bi1'
_cell_volume   350.24196602
_cell_formula_units_Z   1
loop_
 _symmetry_equiv_pos_site_id
 _symmetry_equiv_pos_as_xyz
  1  'x, y, z'
loop_
 _atom_site_type_symbol
 _atom_site_label
 _atom_site_symmetry_multiplicity
 _atom_site_fract_x
 _atom_site_fract_y
 _atom_site_fract_z
 _atom_site_occupancy
  Mg  Mg0  1  0.15844504  0.82922202  0.12500000  1
  Mg  Mg1  1  0.16811814  0.83405857  0.62500000  1
  Mg  Mg2  1  0.67077798  0.34155496  0.12500000  1
  Mg  Mg3  1  0.66594143  0.33188186  0.62500000  1
  Mg  Mg4  1  0.67077798  0.82922202  0.12500000  1
  Mg  Mg5  1  0.66594143  0.83405857  0.62500000  1
  Mg  Mg6  1  0.32805032  0.17194968  0.35148039  1
  Mg  Mg7  1  0.32805032  0.17194968  0.89851961  1
  Mg  Mg8  1  0.32805032  0.65610164  0.35148039  1
  Mg  Mg9  1  0.32805032  0.65610164  0.89851961  1
  Mg  Mg10  1  0.84389836  0.17194968  0.35148039  1
  Mg  Mg11  1  0.84389836  0.17194968  0.89851961  1
  Mg  Mg12  1  0.83333300  0.66666700  0.37576826  1
  Mg  Mg13  1  0.83333300  0.66666700  0.87423174  1
  Co  Co0  1  0.16666700  0.33333300  0.12500000  1
  Bi  Bi0  1  0.16666700  0.33333300  0.62500000  1
loop_
_geom_bond_atom_site_label_1
_geom_bond_atom_site_label_2
_geom_bond_distance
_geom_bond_site_symmetry_2
Mg0 Mg8 2.985514 1_555
Mg0 Mg9 2.985514 1_554
Mg0 Mg7 2.985520 1_564
Mg0 Mg6 2.985520 1_565
Mg0 Mg2 3.053242 1_455
Mg0 Mg4 3.053243 1_455
Mg0 Mg13 3.130684 1_454
Mg0 Mg12 3.130684 1_455
Mg0 Mg2 3.207673 1_565
Mg0 Mg4 3.207674 1_555
Mg1 Mg12 3.147549 1_455
Mg1 Mg13 3.147549 1_455
Mg1 Mg9 3.364983 1_555
Mg1 Mg8 3.364983 1_555
Mg1 Mg7 3.364989 1_565
Mg1 Mg6 3.364989 1_565
Mg2 Mg6 2.985520 1_555
Mg2 Mg7 2.985520 1_554
Mg2 Mg4 3.053242 1_555
Mg2 Mg4 3.207673 1_545
Mg3 Mg6 3.364989 1_555
Mg3 Mg7 3.364989 1_555
Mg4 Mg8 2.985520 1_555
Mg4 Mg9 2.985520 1_554
Mg5 Mg9 3.364989 1_555
Mg5 Mg8 3.364989 1_555
Mg6 Mg8 3.031235 1_555
Mg6 Mg8 3.229681 1_545
Mg7 Mg9 3.031235 1_555
Mg7 Mg9 3.229681 1_545
Mg10 Mg2 2.985514 1_555
Mg10 Mg4 2.985520 1_545
Mg10 Mg8 3.031235 1_655
Mg10 Mg6 3.031235 1_655
Mg10 Mg12 3.140993 1_545
Mg10 Mg12 3.140993 1_555
Mg10 Mg8 3.229681 1_545
Mg10 Mg6 3.229681 1_555
Mg10 Mg3 3.364983 1_555
Mg10 Mg5 3.364989 1_545
Mg11 Mg2 2.985514 1_556
Mg11 Mg4 2.985520 1_546
Mg11 Mg9 3.031235 1_655
Mg11 Mg7 3.031235 1_655
Mg11 Mg13 3.140993 1_545
Mg11 Mg13 3.140993 1_555
Mg11 Mg9 3.229681 1_545
Mg11 Mg7 3.229681 1_555
Mg11 Mg3 3.364983 1_555
Mg11 Mg5 3.364989 1_545
Mg12 Mg4 3.130678 1_555
Mg12 Mg2 3.130684 1_555
Mg12 Mg6 3.140993 1_665
Mg12 Mg6 3.140993 1_555
Mg12 Mg8 3.140994 1_655
Mg12 Mg8 3.140994 1_555
Mg12 Mg5 3.147543 1_555
Mg12 Mg3 3.147549 1_555
Mg13 Mg4 3.130678 1_556
Mg13 Mg2 3.130684 1_556
Mg13 Mg7 3.140993 1_665
Mg13 Mg7 3.140993 1_555
Mg13 Mg9 3.140994 1_655
Mg13 Mg9 3.140994 1_555
Mg13 Mg5 3.147543 1_555
Mg13 Mg3 3.147549 1_555
Co0 Mg6 2.919361 1_555
Co0 Mg7 2.919361 1_554
Co0 Mg9 2.919368 1_554
Co0 Mg8 2.919368 1_555
Co0 Mg11 2.919368 1_454
Co0 Mg10 2.919368 1_455
Co0 Mg0 3.130775 1_545
Co0 Mg4 3.130775 1_445
Co0 Mg0 3.130775 1_555
Co0 Mg4 3.130775 1_555
Co0 Mg2 3.130775 1_455
Co0 Mg2 3.130775 1_555
Bi0 Mg1 3.130468 1_555
Bi0 Mg1 3.130468 1_545
Bi0 Mg5 3.130468 1_555
Bi0 Mg5 3.130468 1_445
Bi0 Mg3 3.130468 1_555
Bi0 Mg3 3.130468 1_455
Bi0 Mg6 3.320573 1_555
Bi0 Mg7 3.320573 1_555
Bi0 Mg8 3.320579 1_555
Bi0 Mg9 3.320579 1_555
Bi0 Mg10 3.320579 1_455
Bi0 Mg11 3.320579 1_455
