# generated using pymatgen
data_ErSi
_symmetry_space_group_name_H-M   'P 1'
_cell_length_a   3.78873860
_cell_length_b   5.62527221
_cell_length_c   7.80244501
_cell_angle_alpha   89.99992985
_cell_angle_beta   90.00012222
_cell_angle_gamma   90.00002592
_symmetry_Int_Tables_number   1
_chemical_formula_structural   ErSi
_chemical_formula_sum   'Er4 Si4'
_cell_volume   166.29106020
_cell_formula_units_Z   4
loop_
 _symmetry_equiv_pos_site_id
 _symmetry_equiv_pos_as_xyz
  1  'x, y, z'
loop_
 _atom_site_type_symbol
 _atom_site_label
 _atom_site_symmetry_multiplicity
 _atom_site_fract_x
 _atom_site_fract_y
 _atom_site_fract_z
 _atom_site_occupancy
  Er  Er0  1  0.25000000  0.38512740  0.67927901  1
  Er  Er1  1  0.25000000  0.11486809  0.17913004  1
  Er  Er2  1  0.75000000  0.61487260  0.32072199  1
  Er  Er3  1  0.75000100  0.88513191  0.82086796  1
  Si  Si0  1  0.25000000  0.87009632  0.53843392  1
  Si  Si1  1  0.25000000  0.62990169  0.03842560  1
  Si  Si2  1  0.75000000  0.12990368  0.46156808  1
  Si  Si3  1  0.75000000  0.37009831  0.96157340  1
loop_
_geom_bond_atom_site_label_1
_geom_bond_atom_site_label_2
_geom_bond_distance
_geom_bond_site_symmetry_2
Er0 Si3 2.906398 1_555
Er0 Si3 2.906404 1_455
Er0 Si2 2.921536 1_455
Er0 Si2 2.921542 1_555
Er0 Si0 2.941103 1_555
Er0 Si0 3.098609 1_545
Er0 Si1 3.122238 1_556
Er1 Si2 2.907249 1_555
Er1 Si2 2.907255 1_455
Er1 Si3 2.920853 1_454
Er1 Si3 2.920857 1_554
Er1 Si1 2.940682 1_545
Er1 Si1 3.098231 1_555
Er1 Si0 3.123330 1_545
Er2 Si1 2.906410 1_555
Er2 Si1 2.906416 1_655
Er2 Si0 2.921541 1_655
Er2 Si0 2.921546 1_555
Er2 Si2 2.941106 1_555
Er2 Si2 3.098612 1_565
Er2 Si3 3.122252 1_554
Er3 Si0 2.907228 1_555
Er3 Si0 2.907229 1_655
Er3 Si1 2.920855 1_656
Er3 Si1 2.920864 1_556
Er3 Si3 2.940685 1_565
Er3 Si3 3.098234 1_555
Er3 Si2 3.123302 1_565
Si0 Si2 2.466630 1_465
Si0 Si2 2.466631 1_565
Si1 Si3 2.466591 1_454
Si1 Si3 2.466594 1_554
