# generated using pymatgen
data_SmHo3Ni4
_symmetry_space_group_name_H-M   'P 1'
_cell_length_a   4.15717900
_cell_length_b   5.39817994
_cell_length_c   7.12045053
_cell_angle_alpha   89.45643428
_cell_angle_beta   90.00000000
_cell_angle_gamma   90.00000000
_symmetry_Int_Tables_number   1
_chemical_formula_structural   SmHo3Ni4
_chemical_formula_sum   'Sm1 Ho3 Ni4'
_cell_volume   159.78426563
_cell_formula_units_Z   1
loop_
 _symmetry_equiv_pos_site_id
 _symmetry_equiv_pos_as_xyz
  1  'x, y, z'
loop_
 _atom_site_type_symbol
 _atom_site_label
 _atom_site_symmetry_multiplicity
 _atom_site_fract_x
 _atom_site_fract_y
 _atom_site_fract_z
 _atom_site_occupancy
  Sm  Sm0  1  0.25000000  0.37189800  0.67741200  1
  Ho  Ho0  1  0.25000000  0.12941600  0.17890300  1
  Ho  Ho1  1  0.75000000  0.63161900  0.31731200  1
  Ho  Ho2  1  0.75000000  0.86969000  0.82368200  1
  Ni  Ni0  1  0.25000000  0.87456900  0.53363200  1
  Ni  Ni1  1  0.25000000  0.62818600  0.04072300  1
  Ni  Ni2  1  0.75000000  0.11892300  0.45896500  1
  Ni  Ni3  1  0.75000000  0.37569900  0.96937200  1
loop_
_geom_bond_atom_site_label_1
_geom_bond_atom_site_label_2
_geom_bond_distance
_geom_bond_site_symmetry_2
Ho0 Ni1 2.857812 1_555
Ho0 Ni0 2.864693 1_545
Ho0 Ni3 2.876864 1_454
Ho0 Ni3 2.876864 1_554
Ho0 Ni2 2.880678 1_455
Ho0 Ni2 2.880678 1_555
Ho0 Ni1 2.887828 1_545
Ho1 Ni2 2.826217 1_565
Ho1 Ni3 2.848060 1_554
Ho1 Ni1 2.863609 1_555
Ho1 Ni1 2.863609 1_655
Ho1 Ni0 2.907125 1_555
Ho1 Ni0 2.907125 1_655
Ho1 Ni2 2.936686 1_555
Ho2 Ni3 2.852140 1_555
Ho2 Ni1 2.893138 1_556
Ho2 Ni1 2.893138 1_656
Ho2 Ni2 2.913411 1_565
Ho2 Ni0 2.930120 1_655
Ho2 Ni0 2.930120 1_555
Ho2 Ni3 2.931068 1_565
Ni0 Ni2 2.515915 1_565
Ni0 Ni2 2.515915 1_465
Ni0 Sm0 2.882314 1_565
Ni0 Sm0 2.891114 1_555
Ni1 Ni3 2.539582 1_454
Ni1 Ni3 2.539582 1_554
Ni1 Sm0 2.945199 1_554
Ni2 Sm0 2.940257 1_655
Ni2 Sm0 2.940257 1_555
Ni3 Sm0 2.939989 1_655
Ni3 Sm0 2.939989 1_555
