# generated using pymatgen
data_BaCeEuNbO6
_symmetry_space_group_name_H-M   'P 1'
_cell_length_a   6.11110784
_cell_length_b   6.17061232
_cell_length_c   8.66719885
_cell_angle_alpha   90.22637323
_cell_angle_beta   90.42576494
_cell_angle_gamma   89.96346474
_symmetry_Int_Tables_number   1
_chemical_formula_structural   BaCeEuNbO6
_chemical_formula_sum   'Ba2 Ce2 Eu2 Nb2 O12'
_cell_volume   326.82216961
_cell_formula_units_Z   2
loop_
 _symmetry_equiv_pos_site_id
 _symmetry_equiv_pos_as_xyz
  1  'x, y, z'
loop_
 _atom_site_type_symbol
 _atom_site_label
 _atom_site_symmetry_multiplicity
 _atom_site_fract_x
 _atom_site_fract_y
 _atom_site_fract_z
 _atom_site_occupancy
  Ba  Ba0  1  0.50953003  0.53710494  0.24914921  1
  Ba  Ba1  1  0.49046997  0.46289506  0.75085079  1
  Ce  Ce0  1  0.00000000  0.50000000  0.00000000  1
  Ce  Ce1  1  0.50000000  -0.00000000  0.50000000  1
  Eu  Eu0  1  0.99075134  0.04675488  0.25218791  1
  Eu  Eu1  1  0.00924866  0.95324512  0.74781209  1
  Nb  Nb0  1  0.50000000  -0.00000000  0.00000000  1
  Nb  Nb1  1  0.00000000  0.50000000  0.50000000  1
  O  O0  1  0.22418834  0.18748710  0.95440071  1
  O  O1  1  0.26471643  0.69976620  0.54075008  1
  O  O2  1  0.77581166  0.81251290  0.04559929  1
  O  O3  1  0.73528357  0.30023380  0.45924992  1
  O  O4  1  0.30335896  0.73321426  0.95713237  1
  O  O5  1  0.18302833  0.22214707  0.54399222  1
  O  O6  1  0.69664104  0.26678574  0.04286763  1
  O  O7  1  0.81697167  0.77785293  0.45600778  1
  O  O8  1  0.40644445  0.99109761  0.23068813  1
  O  O9  1  0.06858318  0.47093754  0.26849632  1
  O  O10  1  0.59355555  0.00890239  0.76931187  1
  O  O11  1  0.93141682  0.52906246  0.73150368  1
loop_
_geom_bond_atom_site_label_1
_geom_bond_atom_site_label_2
_geom_bond_distance
_geom_bond_site_symmetry_2
Ba0 O6 2.700138 1_555
Ba0 O3 2.708654 1_555
Ba0 O9 2.732169 1_555
Ba0 O8 2.875790 1_555
Ba0 O2 2.952697 1_555
Ba0 O7 2.980554 1_555
Ba0 O4 3.071233 1_554
Ba0 O1 3.109262 1_555
Ba1 O4 2.700138 1_555
Ba1 O1 2.708654 1_555
Ba1 O11 2.732169 1_555
Ba1 O10 2.875790 1_555
Ba1 O0 2.952697 1_555
Ba1 O5 2.980554 1_555
Ba1 O6 3.071233 1_556
Ba1 O3 3.109262 1_555
Ce0 O11 2.368960 1_454
Ce0 O9 2.368960 1_555
Ce0 O6 2.379840 1_455
Ce0 O4 2.379840 1_554
Ce0 O2 2.398035 1_455
Ce0 O0 2.398035 1_554
Ce1 O3 2.374968 1_555
Ce1 O1 2.374968 1_545
Ce1 O10 2.399475 1_555
Ce1 O8 2.399475 1_545
Ce1 O5 2.404172 1_555
Ce1 O7 2.404172 1_545
Eu0 O8 2.571273 1_645
Eu0 O2 2.639627 1_545
Eu0 O7 2.656132 1_545
Eu0 O9 2.663646 1_655
Eu0 O3 2.849718 1_555
Eu0 O6 2.886717 1_555
Eu0 O5 2.980657 1_655
Eu0 O0 3.086206 1_654
Eu1 O10 2.571273 1_465
Eu1 O0 2.639627 1_565
Eu1 O5 2.656132 1_565
Eu1 O11 2.663646 1_455
Eu1 O1 2.849718 1_555
Eu1 O4 2.886717 1_555
Eu1 O7 2.980657 1_455
Eu1 O2 3.086206 1_456
Nb0 O4 2.069600 1_544
Nb0 O6 2.069600 1_555
Nb0 O0 2.080102 1_554
Nb0 O2 2.080102 1_545
Nb0 O8 2.084578 1_545
Nb0 O10 2.084578 1_554
Nb1 O11 2.059946 1_455
Nb1 O9 2.059946 1_555
Nb1 O3 2.061999 1_455
Nb1 O1 2.061999 1_555
Nb1 O5 2.081443 1_555
Nb1 O7 2.081443 1_455
