# generated using pymatgen
data_Ba2CuO6
_symmetry_space_group_name_H-M   'P 1'
_cell_length_a   6.70531300
_cell_length_b   5.33354200
_cell_length_c   10.20011458
_cell_angle_alpha   58.80859484
_cell_angle_beta   90.00000000
_cell_angle_gamma   90.00000000
_symmetry_Int_Tables_number   1
_chemical_formula_structural   Ba2CuO6
_chemical_formula_sum   'Ba4 Cu2 O12'
_cell_volume   312.05444516
_cell_formula_units_Z   2
loop_
 _symmetry_equiv_pos_site_id
 _symmetry_equiv_pos_as_xyz
  1  'x, y, z'
loop_
 _atom_site_type_symbol
 _atom_site_label
 _atom_site_symmetry_multiplicity
 _atom_site_fract_x
 _atom_site_fract_y
 _atom_site_fract_z
 _atom_site_occupancy
  Ba  Ba0  1  0.43258700  0.21057000  0.26181200  1
  Ba  Ba1  1  0.93258700  0.78943000  0.23818800  1
  Ba  Ba2  1  0.56741300  0.78943000  0.73818800  1
  Ba  Ba3  1  0.06741300  0.21057000  0.76181200  1
  Cu  Cu0  1  0.50000000  0.00000000  0.00000000  1
  Cu  Cu1  1  0.00000000  0.00000000  0.50000000  1
  O  O0  1  0.17552400  0.73921400  0.48923600  1
  O  O1  1  0.67552400  0.26078600  0.01076400  1
  O  O2  1  0.82447600  0.26078600  0.51076400  1
  O  O3  1  0.32447600  0.73921400  0.98923600  1
  O  O4  1  0.75092400  0.89430200  0.46548300  1
  O  O5  1  0.25092400  0.10569800  0.03451700  1
  O  O6  1  0.24907600  0.10569800  0.53451700  1
  O  O7  1  0.74907600  0.89430200  0.96548300  1
  O  O8  1  0.02579800  0.24873800  0.28816000  1
  O  O9  1  0.52579700  0.75126200  0.21184000  1
  O  O10  1  0.97420200  0.75126200  0.71184000  1
  O  O11  1  0.47420200  0.24873800  0.78816000  1
loop_
_geom_bond_atom_site_label_1
_geom_bond_atom_site_label_2
_geom_bond_distance
_geom_bond_site_symmetry_2
Ba0 O9 2.728408 1_555
Ba0 O8 2.758695 1_555
Ba0 O9 2.818695 1_545
Ba0 O6 2.820079 1_555
Ba0 O3 2.843523 1_554
Ba0 O4 2.843903 1_545
Ba0 O5 2.918047 1_555
Ba0 O1 2.927826 1_555
Ba0 O0 2.938012 1_545
Ba1 O8 2.728410 1_655
Ba1 O9 2.758702 1_555
Ba1 O8 2.818697 1_665
Ba1 O7 2.820079 1_554
Ba1 O2 2.843523 1_555
Ba1 O5 2.843903 1_665
Ba1 O4 2.918047 1_555
Ba1 O0 2.927826 1_655
Ba1 O1 2.938012 1_565
Ba2 O11 2.728410 1_555
Ba2 O10 2.758695 1_555
Ba2 O11 2.818697 1_565
Ba2 O4 2.820079 1_555
Ba2 O1 2.843523 1_556
Ba2 O6 2.843903 1_565
Ba2 O7 2.918047 1_555
Ba2 O3 2.927826 1_555
Ba2 O2 2.938012 1_565
Ba3 O10 2.728410 1_455
Ba3 O11 2.758695 1_555
Ba3 O10 2.818697 1_445
Ba3 O5 2.820079 1_556
Ba3 O0 2.843523 1_555
Ba3 O7 2.843903 1_445
Ba3 O6 2.918047 1_555
Ba3 O2 2.927826 1_455
Ba3 O3 2.938012 1_545
Cu0 O7 1.853833 1_544
Cu0 O5 1.853833 1_555
Cu0 O9 1.868078 1_545
Cu0 O11 1.868078 1_554
Cu0 O3 1.868173 1_544
Cu0 O1 1.868173 1_555
Cu1 O4 1.853833 1_445
Cu1 O6 1.853833 1_555
Cu1 O8 1.868078 1_555
Cu1 O10 1.868078 1_445
Cu1 O0 1.868173 1_545
Cu1 O2 1.868173 1_455
