# generated using pymatgen
data_Sr2Ca2Cu3(BiO5)2
_symmetry_space_group_name_H-M   'P 1'
_cell_length_a   3.77918000
_cell_length_b   3.77918000
_cell_length_c   19.00611004
_cell_angle_alpha   95.70578018
_cell_angle_beta   95.70578018
_cell_angle_gamma   90.00000000
_symmetry_Int_Tables_number   1
_chemical_formula_structural   Sr2Ca2Cu3(BiO5)2
_chemical_formula_sum   'Sr2 Ca2 Cu3 Bi2 O10'
_cell_volume   268.75259831
_cell_formula_units_Z   1
loop_
 _symmetry_equiv_pos_site_id
 _symmetry_equiv_pos_as_xyz
  1  'x, y, z'
loop_
 _atom_site_type_symbol
 _atom_site_label
 _atom_site_symmetry_multiplicity
 _atom_site_fract_x
 _atom_site_fract_y
 _atom_site_fract_z
 _atom_site_occupancy
  Sr  Sr0  1  0.36547900  0.36547900  0.73095800  1
  Sr  Sr1  1  0.63452100  0.63452100  0.26904200  1
  Ca  Ca0  1  0.45656400  0.45656400  0.91312800  1
  Ca  Ca1  1  0.54343600  0.54343600  0.08687200  1
  Cu  Cu0  1  0.08489800  0.08489800  0.16979700  1
  Cu  Cu1  1  0.91510200  0.91510200  0.83020300  1
  Cu  Cu2  1  0.00000000  0.00000000  0.00000000  1
  Bi  Bi0  1  0.21112500  0.21112500  0.42224900  1
  Bi  Bi1  1  0.78887500  0.78887500  0.57775100  1
  O  O0  1  0.28899300  0.28899300  0.57798500  1
  O  O1  1  0.71100700  0.71100700  0.42201500  1
  O  O2  1  0.15602400  0.15602400  0.31204900  1
  O  O3  1  0.84397600  0.84397600  0.68795100  1
  O  O4  1  0.00000000  0.50000000  0.00000000  1
  O  O5  1  0.50000000  0.00000000  0.00000000  1
  O  O6  1  0.08610700  0.58610700  0.17221400  1
  O  O7  1  0.91389300  0.41389300  0.82778600  1
  O  O8  1  0.58610700  0.08610700  0.17221400  1
  O  O9  1  0.41389300  0.91389300  0.82778600  1
loop_
_geom_bond_atom_site_label_1
_geom_bond_atom_site_label_2
_geom_bond_distance
_geom_bond_site_symmetry_2
Ca0 O7 2.479816 1_455
Ca0 O9 2.479816 1_545
Ca0 O9 2.479816 1_555
Ca0 O7 2.479816 1_555
Ca0 O5 2.498557 1_556
Ca0 O4 2.498557 1_556
Ca0 O5 2.498557 1_566
Ca0 O4 2.498557 1_656
Ca1 O6 2.479816 1_655
Ca1 O8 2.479816 1_565
Ca1 O6 2.479816 1_555
Ca1 O8 2.479816 1_555
Ca1 O4 2.498557 1_655
Ca1 O5 2.498557 1_565
Ca1 O4 2.498557 1_555
Ca1 O5 2.498557 1_555
Cu0 O8 1.890135 1_455
Cu0 O6 1.890135 1_545
Cu0 O6 1.890139 1_555
Cu0 O8 1.890139 1_555
Cu0 O2 2.676800 1_555
Cu1 O9 1.890135 1_655
Cu1 O7 1.890135 1_565
Cu1 O9 1.890139 1_555
Cu1 O7 1.890139 1_555
Cu1 O3 2.676800 1_555
Cu2 O4 1.889590 1_545
Cu2 O5 1.889590 1_555
Cu2 O4 1.889590 1_555
Cu2 O5 1.889590 1_455
Bi0 O2 2.073667 1_555
Bi0 O1 2.672282 1_555
Bi0 O1 2.672287 1_455
Bi0 O1 2.672287 1_545
Bi0 O1 2.672293 1_445
Bi1 O3 2.073667 1_555
Bi1 O0 2.672282 1_555
Bi1 O0 2.672287 1_565
Bi1 O0 2.672287 1_655
Bi1 O0 2.672293 1_665
O0 Sr0 2.878540 1_555
O1 Sr1 2.878540 1_555
O2 Sr1 2.792134 1_445
O2 Sr1 2.792137 1_545
O2 Sr1 2.792137 1_455
O2 Sr1 2.792139 1_555
O3 Sr0 2.792134 1_665
O3 Sr0 2.792137 1_565
O3 Sr0 2.792137 1_655
O3 Sr0 2.792139 1_555
O6 Sr1 2.624955 1_555
O6 Sr1 2.624955 1_455
O7 Sr0 2.624955 1_655
O7 Sr0 2.624955 1_555
O8 Sr1 2.624955 1_555
O8 Sr1 2.624955 1_545
O9 Sr0 2.624955 1_565
O9 Sr0 2.624955 1_555
