# generated using pymatgen
data_AlCrFeO4
_symmetry_space_group_name_H-M   'P 1'
_cell_length_a   5.87231688
_cell_length_b   5.92754237
_cell_length_c   5.92753601
_cell_angle_alpha   89.32772678
_cell_angle_beta   119.72785854
_cell_angle_gamma   119.72788653
_symmetry_Int_Tables_number   1
_chemical_formula_structural   AlCrFeO4
_chemical_formula_sum   'Al2 Cr2 Fe2 O8'
_cell_volume   147.90088335
_cell_formula_units_Z   2
loop_
 _symmetry_equiv_pos_site_id
 _symmetry_equiv_pos_as_xyz
  1  'x, y, z'
loop_
 _atom_site_type_symbol
 _atom_site_label
 _atom_site_symmetry_multiplicity
 _atom_site_fract_x
 _atom_site_fract_y
 _atom_site_fract_z
 _atom_site_occupancy
  Al  Al0  1  0.74999900  0.37499900  0.62499600  1
  Al  Al1  1  0.25000500  0.37500700  0.62501900  1
  Cr  Cr0  1  0.25001700  0.87501300  0.62499300  1
  Cr  Cr1  1  0.75000300  0.37500900  0.12501300  1
  Fe  Fe0  1  0.49998400  0.75811200  0.24185300  1
  Fe  Fe1  1  0.99997800  0.99187700  0.00807900  1
  O  O0  1  0.27221300  0.14536300  0.85437000  1
  O  O1  1  0.72780000  0.14563800  0.85464700  1
  O  O2  1  0.22778100  0.60461000  0.39562100  1
  O  O3  1  0.77223100  0.60438700  0.39539800  1
  O  O4  1  0.71343400  0.58127200  0.84541700  1
  O  O5  1  0.28656200  0.15459700  0.41871400  1
  O  O6  1  0.78658400  0.16870900  0.40460200  1
  O  O7  1  0.21340900  0.59540800  0.83127600  1
loop_
_geom_bond_atom_site_label_1
_geom_bond_atom_site_label_2
_geom_bond_distance
_geom_bond_site_symmetry_2
Al0 O3 1.916969 1_555
Al0 O1 1.917080 1_555
Al0 O7 1.954187 1_655
Al0 O5 1.954306 1_555
Al0 O4 1.955571 1_555
Al0 O6 1.955612 1_555
Al1 O0 1.917014 1_555
Al1 O2 1.917027 1_555
Al1 O6 1.954229 1_455
Al1 O4 1.954277 1_555
Al1 O7 1.955556 1_555
Al1 O5 1.955619 1_555
Cr0 O1 2.024348 1_565
Cr0 O3 2.024362 1_455
Cr0 O0 2.025307 1_565
Cr0 O2 2.025374 1_555
Cr0 O5 2.036552 1_565
Cr0 O7 2.036661 1_555
Cr1 O2 2.024319 1_655
Cr1 O0 2.024387 1_554
Cr1 O1 2.025330 1_554
Cr1 O3 2.025346 1_555
Cr1 O4 2.036545 1_554
Cr1 O6 2.036654 1_555
Fe0 O7 2.017097 1_554
Fe0 O6 2.017214 1_565
Fe0 O2 2.048606 1_555
Fe0 O3 2.048611 1_555
Fe1 O4 2.017212 1_554
Fe1 O5 2.017379 1_665
Fe1 O1 2.048437 1_564
Fe1 O0 2.048458 1_664
