# generated using pymatgen
data_Na5SrNbP4
_symmetry_space_group_name_H-M   'P 1'
_cell_length_a   9.28690784
_cell_length_b   9.28690784
_cell_length_c   7.34955245
_cell_angle_alpha   90.07092955
_cell_angle_beta   90.07092955
_cell_angle_gamma   119.89943754
_symmetry_Int_Tables_number   1
_chemical_formula_structural   Na5SrNbP4
_chemical_formula_sum   'Na10 Sr2 Nb2 P8'
_cell_volume   549.50501998
_cell_formula_units_Z   2
loop_
 _symmetry_equiv_pos_site_id
 _symmetry_equiv_pos_as_xyz
  1  'x, y, z'
loop_
 _atom_site_type_symbol
 _atom_site_label
 _atom_site_symmetry_multiplicity
 _atom_site_fract_x
 _atom_site_fract_y
 _atom_site_fract_z
 _atom_site_occupancy
  Na  Na0  1  0.53930676  0.47353745  0.61509958  1
  Na  Na1  1  0.93493445  0.47119017  0.61323339  1
  Na  Na2  1  0.47353745  0.53930676  0.11509958  1
  Na  Na3  1  0.47119017  0.93493445  0.11323339  1
  Na  Na4  1  0.13424832  0.85551075  0.77953971  1
  Na  Na5  1  0.71104405  0.84849307  0.79675351  1
  Na  Na6  1  0.14763872  0.28930290  0.77125554  1
  Na  Na7  1  0.85551075  0.13424832  0.27953971  1
  Na  Na8  1  0.28930290  0.14763872  0.27125554  1
  Na  Na9  1  0.84849307  0.71104405  0.29675351  1
  Sr  Sr0  1  0.53249630  0.06149530  0.60853046  1
  Sr  Sr1  1  0.06149530  0.53249630  0.10853046  1
  Nb  Nb0  1  0.33213330  0.66132502  0.50255125  1
  Nb  Nb1  1  0.66132502  0.33213330  0.00255125  1
  P  P0  1  0.80891819  0.19401959  0.89730229  1
  P  P1  1  0.38286499  0.19092785  0.89243493  1
  P  P2  1  0.80946520  0.61607998  0.90507523  1
  P  P3  1  0.19401959  0.80891819  0.39730229  1
  P  P4  1  0.61607998  0.80946520  0.40507523  1
  P  P5  1  0.19092785  0.38286499  0.39243493  1
  P  P6  1  0.33421777  0.67084887  0.82842311  1
  P  P7  1  0.67084887  0.33421777  0.32842311  1
loop_
_geom_bond_atom_site_label_1
_geom_bond_atom_site_label_2
_geom_bond_distance
_geom_bond_site_symmetry_2
Na0 P7 3.030020 1_555
Na0 P2 3.042652 1_555
Na0 P1 3.061509 1_555
Na0 P4 3.228128 1_555
Na0 Nb0 3.282109 1_555
Na0 P5 3.334982 1_555
Na1 P7 2.980787 1_555
Na1 P2 3.054688 1_555
Na1 P0 3.061094 1_555
Na1 P3 3.262409 1_655
Na1 P5 3.302818 1_655
Na2 P6 3.030020 1_554
Na2 P4 3.042652 1_555
Na2 P5 3.061509 1_555
Na2 P2 3.228128 1_554
Na2 Nb1 3.282109 1_555
Na2 P1 3.334982 1_554
Na3 P6 2.980787 1_554
Na3 P4 3.054688 1_555
Na3 P3 3.061094 1_555
Na3 P0 3.262409 1_564
Na3 P1 3.302818 1_564
Na4 P2 2.866832 1_455
Na4 P1 2.922521 1_565
Na4 P3 2.937292 1_555
Na4 P6 3.113502 1_555
Na5 P2 2.845562 1_555
Na5 P0 2.958681 1_565
Na5 P4 2.977968 1_555
Na5 P6 3.044643 1_555
Na6 P5 2.885945 1_555
Na6 P1 2.896017 1_555
Na6 P0 2.961518 1_455
Na6 P6 3.099662 1_555
Na7 P4 2.866832 1_545
Na7 P5 2.922521 1_655
Na7 P0 2.937292 1_554
Na7 P7 3.113502 1_555
Na8 P1 2.885945 1_554
Na8 P5 2.896017 1_555
Na8 P3 2.961518 1_545
Na8 P7 3.099662 1_555
Na9 P4 2.845562 1_555
Na9 P3 2.958681 1_655
Na9 P2 2.977968 1_554
Na9 P7 3.044643 1_555
Nb0 P5 2.381909 1_555
Nb0 P6 2.396234 1_555
Nb0 P4 2.397904 1_555
Nb0 P3 2.423891 1_555
Nb1 P1 2.381909 1_554
Nb1 P7 2.396234 1_555
Nb1 P2 2.397904 1_554
Nb1 P0 2.423891 1_554
P0 Sr0 3.072345 1_555
P0 Sr1 3.228176 1_656
P1 Sr0 3.065275 1_555
P2 Sr1 3.181558 1_656
P3 Sr1 3.072345 1_555
P3 Sr0 3.228176 1_565
P4 Sr0 3.181558 1_565
P5 Sr1 3.065275 1_555
P6 Sr1 3.013122 1_556
P7 Sr0 3.013122 1_555
