# generated using pymatgen
data_Ti4ZnS8
_symmetry_space_group_name_H-M   'P 1'
_cell_length_a   7.38224045
_cell_length_b   7.38224045
_cell_length_c   7.38224143
_cell_angle_alpha   55.03573615
_cell_angle_beta   55.03573615
_cell_angle_gamma   55.03573262
_symmetry_Int_Tables_number   1
_chemical_formula_structural   Ti4ZnS8
_chemical_formula_sum   'Ti4 Zn1 S8'
_cell_volume   251.62514785
_cell_formula_units_Z   1
loop_
 _symmetry_equiv_pos_site_id
 _symmetry_equiv_pos_as_xyz
  1  'x, y, z'
loop_
 _atom_site_type_symbol
 _atom_site_label
 _atom_site_symmetry_multiplicity
 _atom_site_fract_x
 _atom_site_fract_y
 _atom_site_fract_z
 _atom_site_occupancy
  Ti  Ti0  1  0.00000000  0.50000000  0.50000000  1
  Ti  Ti1  1  0.50000000  0.00000000  0.50000000  1
  Ti  Ti2  1  0.50000000  0.50000000  0.00000000  1
  Ti  Ti3  1  0.00000000  0.00000000  0.00000000  1
  Zn  Zn0  1  0.50000000  0.50000000  0.50000000  1
  S  S0  1  0.25873100  0.75349800  0.75349800  1
  S  S1  1  0.24650200  0.24650200  0.74126900  1
  S  S2  1  0.74126900  0.24650200  0.24650200  1
  S  S3  1  0.24650200  0.74126900  0.24650200  1
  S  S4  1  0.25831000  0.25831000  0.25831000  1
  S  S5  1  0.74169000  0.74169000  0.74169000  1
  S  S6  1  0.75349800  0.25873100  0.75349800  1
  S  S7  1  0.75349800  0.75349800  0.25873100  1
loop_
_geom_bond_atom_site_label_1
_geom_bond_atom_site_label_2
_geom_bond_distance
_geom_bond_site_symmetry_2
S0 Ti1 2.444865 1_565
S0 Ti2 2.444865 1_556
S0 Ti3 2.469640 1_566
S0 Zn0 2.559280 1_555
S1 Ti0 2.444865 1_555
S1 Ti1 2.444865 1_555
S1 Ti3 2.469639 1_556
S1 Zn0 2.559280 1_555
S2 Ti1 2.444865 1_555
S2 Ti2 2.444865 1_555
S2 Ti3 2.469640 1_655
S2 Zn0 2.559280 1_555
S3 Ti0 2.444865 1_555
S3 Ti2 2.444865 1_555
S3 Ti3 2.469640 1_565
S3 Zn0 2.559280 1_555
S4 Ti2 2.419239 1_555
S4 Ti0 2.419239 1_555
S4 Ti1 2.419239 1_555
S5 Ti2 2.419239 1_556
S5 Ti1 2.419239 1_565
S5 Ti0 2.419239 1_655
S6 Ti0 2.444865 1_655
S6 Ti2 2.444865 1_556
S6 Ti3 2.469640 1_656
S6 Zn0 2.559280 1_555
S7 Ti1 2.444865 1_565
S7 Ti0 2.444865 1_655
S7 Ti3 2.469639 1_665
S7 Zn0 2.559280 1_555
