# generated using pymatgen
data_RbMg14BO15
_symmetry_space_group_name_H-M   'P 1'
_cell_length_a   8.56931000
_cell_length_b   8.88046428
_cell_length_c   4.34747200
_cell_angle_alpha   90.00000000
_cell_angle_beta   90.00000000
_cell_angle_gamma   90.00000000
_symmetry_Int_Tables_number   1
_chemical_formula_structural   RbMg14BO15
_chemical_formula_sum   'Rb1 Mg14 B1 O15'
_cell_volume   330.84023400
_cell_formula_units_Z   1
loop_
 _symmetry_equiv_pos_site_id
 _symmetry_equiv_pos_as_xyz
  1  'x, y, z'
loop_
 _atom_site_type_symbol
 _atom_site_label
 _atom_site_symmetry_multiplicity
 _atom_site_fract_x
 _atom_site_fract_y
 _atom_site_fract_z
 _atom_site_occupancy
  Rb  Rb0  1  0.07271860  0.00000000  -0.00000000  1
  Mg  Mg0  1  0.99720344  0.50000000  -0.00000000  1
  Mg  Mg1  1  0.50933360  0.00000000  -0.00000000  1
  Mg  Mg2  1  0.98973354  0.25368550  0.50000000  1
  Mg  Mg3  1  0.98973354  0.74631450  0.50000000  1
  Mg  Mg4  1  0.50156484  0.25406792  0.50000000  1
  Mg  Mg5  1  0.50156484  0.74593208  0.50000000  1
  Mg  Mg6  1  0.26682786  0.00000000  0.50000000  1
  Mg  Mg7  1  0.24971971  0.50000000  0.50000000  1
  Mg  Mg8  1  0.75051201  0.00000000  0.50000000  1
  Mg  Mg9  1  0.74357040  0.50000000  0.50000000  1
  Mg  Mg10  1  0.26503206  0.28419386  0.00000000  1
  Mg  Mg11  1  0.26503206  0.71580614  0.00000000  1
  Mg  Mg12  1  0.75020244  0.23023246  -0.00000000  1
  Mg  Mg13  1  0.75020244  0.76976754  -0.00000000  1
  B  B0  1  0.55527607  0.50000000  -0.00000000  1
  O  O0  1  0.22893488  0.50000000  -0.00000000  1
  O  O1  1  0.73863647  0.00000000  -0.00000000  1
  O  O2  1  0.71249759  0.50000000  -0.00000000  1
  O  O3  1  0.24723474  0.24469635  0.50000000  1
  O  O4  1  0.24723474  0.75530365  0.50000000  1
  O  O5  1  0.74303955  0.25485918  0.50000000  1
  O  O6  1  0.74303955  0.74514082  0.50000000  1
  O  O7  1  0.98109280  0.00000000  0.50000000  1
  O  O8  1  0.98690820  0.50000000  0.50000000  1
  O  O9  1  0.49859912  0.00000000  0.50000000  1
  O  O10  1  0.49984091  0.50000000  0.50000000  1
  O  O11  1  0.98638506  0.27608765  -0.00000000  1
  O  O12  1  0.98638506  0.72391235  -0.00000000  1
  O  O13  1  0.49597193  0.23308711  0.00000000  1
  O  O14  1  0.49597193  0.76691289  -0.00000000  1
loop_
_geom_bond_atom_site_label_1
_geom_bond_atom_site_label_2
_geom_bond_distance
_geom_bond_site_symmetry_2
Mg0 O0 1.985779 1_655
Mg0 O12 1.990606 1_555
Mg0 O11 1.990606 1_555
Mg0 O8 2.175526 1_554
Mg0 O8 2.175526 1_555
Mg0 O2 2.439733 1_555
Mg1 O1 1.964967 1_555
Mg1 O13 2.073086 1_555
Mg1 O14 2.073086 1_545
Mg1 O9 2.175681 1_554
Mg1 O9 2.175681 1_555
Mg2 O5 2.114023 1_555
Mg2 O11 2.183009 1_556
Mg2 O11 2.183009 1_555
Mg2 O8 2.187521 1_555
Mg2 O3 2.208051 1_655
Mg2 O7 2.254062 1_555
Mg3 O6 2.114023 1_555
Mg3 O12 2.183009 1_556
Mg3 O12 2.183009 1_555
Mg3 O8 2.187521 1_555
Mg3 O4 2.208051 1_655
Mg3 O7 2.254062 1_565
Mg4 O5 2.069284 1_555
Mg4 O3 2.181022 1_555
Mg4 O13 2.182233 1_555
Mg4 O13 2.182233 1_556
Mg4 O10 2.184041 1_555
Mg4 O9 2.256384 1_555
Mg5 O6 2.069284 1_555
Mg5 O4 2.181022 1_555
Mg5 O14 2.182233 1_555
Mg5 O14 2.182233 1_556
Mg5 O10 2.184041 1_555
Mg5 O9 2.256384 1_565
Mg6 O9 1.986120 1_555
Mg6 O4 2.179494 1_545
Mg6 O3 2.179494 1_555
Mg6 O7 2.448552 1_455
Mg7 O10 2.143366 1_555
Mg7 O0 2.181021 1_555
Mg7 O0 2.181021 1_556
Mg7 O8 2.252113 1_455
Mg7 O3 2.267315 1_555
Mg7 O4 2.267315 1_555
Mg8 O7 1.975918 1_555
Mg8 O9 2.158720 1_555
Mg8 O1 2.176117 1_556
Mg8 O1 2.176117 1_555
Mg8 O6 2.264174 1_545
Mg8 O5 2.264174 1_555
Mg9 O8 2.085237 1_555
Mg9 O10 2.088594 1_555
Mg9 O5 2.176969 1_555
Mg9 O6 2.176969 1_555
Mg9 O2 2.189984 1_556
Mg9 O2 2.189984 1_555
Mg10 O0 1.941262 1_555
Mg10 O13 2.030370 1_555
Mg10 O3 2.207129 1_555
Mg10 O3 2.207129 1_554
Mg10 O11 2.388897 1_455
Mg11 O0 1.941262 1_555
Mg11 O14 2.030370 1_555
Mg11 O4 2.207129 1_554
Mg11 O4 2.207129 1_555
Mg11 O12 2.388897 1_455
Mg12 O1 2.046972 1_555
Mg12 O11 2.064482 1_555
Mg12 O13 2.178728 1_555
Mg12 O5 2.185572 1_555
Mg12 O5 2.185572 1_554
Mg12 O2 2.417351 1_555
Mg13 O1 2.046972 1_565
Mg13 O12 2.064482 1_555
Mg13 O14 2.178728 1_555
Mg13 O6 2.185572 1_555
Mg13 O6 2.185572 1_554
Mg13 O2 2.417351 1_555
B0 O2 1.347280 1_555
B0 O10 2.225038 1_554
B0 O10 2.225038 1_555
O7 Rb0 2.311194 1_656
O7 Rb0 2.311194 1_655
O11 Rb0 2.560974 1_655
O12 Rb0 2.560974 1_665
