# generated using pymatgen
data_Li7Mn2(CoO4)3
_symmetry_space_group_name_H-M   'P 1'
_cell_length_a   5.05349600
_cell_length_b   5.10819791
_cell_length_c   8.78698869
_cell_angle_alpha   90.44509489
_cell_angle_beta   90.42152966
_cell_angle_gamma   108.95723362
_symmetry_Int_Tables_number   1
_chemical_formula_structural   Li7Mn2(CoO4)3
_chemical_formula_sum   'Li7 Mn2 Co3 O12'
_cell_volume   214.50847205
_cell_formula_units_Z   1
loop_
 _symmetry_equiv_pos_site_id
 _symmetry_equiv_pos_as_xyz
  1  'x, y, z'
loop_
 _atom_site_type_symbol
 _atom_site_label
 _atom_site_symmetry_multiplicity
 _atom_site_fract_x
 _atom_site_fract_y
 _atom_site_fract_z
 _atom_site_occupancy
  Li  Li0  1  0.00473900  0.50437800  0.15995400  1
  Li  Li1  1  0.49885300  0.49771500  0.32543600  1
  Li  Li2  1  0.00399500  0.50221100  0.49806000  1
  Li  Li3  1  0.50507900  0.50221200  0.66711700  1
  Li  Li4  1  0.99235000  0.49476300  0.83861400  1
  Li  Li5  1  0.49486200  0.50033400  0.00802500  1
  Li  Li6  1  0.49805800  0.99805800  0.16547200  1
  Mn  Mn0  1  0.99702500  0.99265600  0.00287200  1
  Mn  Mn1  1  0.50387200  0.00569300  0.49839300  1
  Co  Co0  1  0.00270700  0.00232200  0.32575400  1
  Co  Co1  1  0.00071800  0.00186300  0.66656100  1
  Co  Co2  1  0.50019100  0.99913400  0.84372400  1
  O  O0  1  0.23430600  0.76844400  0.99317100  1
  O  O1  1  0.77404300  0.76425100  0.15846900  1
  O  O2  1  0.25245200  0.77955000  0.34783400  1
  O  O3  1  0.74756400  0.77889200  0.50423500  1
  O  O4  1  0.27257400  0.78520400  0.66318700  1
  O  O5  1  0.76177300  0.76620600  0.83795100  1
  O  O6  1  0.75027300  0.22238800  0.34639100  1
  O  O7  1  0.26537700  0.23236900  0.50214000  1
  O  O8  1  0.74297100  0.22811100  0.66006600  1
  O  O9  1  0.22664400  0.22182600  0.83911700  1
  O  O10  1  0.74833900  0.21893000  0.98977700  1
  O  O11  1  0.22123100  0.23249000  0.15768100  1
loop_
_geom_bond_atom_site_label_1
_geom_bond_atom_site_label_2
_geom_bond_distance
_geom_bond_site_symmetry_2
Li0 O11 2.028146 1_555
Li0 O1 2.031523 1_455
Li0 O0 2.086179 1_554
Li0 O10 2.179711 1_454
Li0 O2 2.249134 1_555
Li0 O6 2.297060 1_455
Li1 O7 2.158880 1_555
Li1 O11 2.163393 1_555
Li1 O1 2.184272 1_555
Li1 O6 2.188111 1_555
Li1 O2 2.196772 1_555
Li1 O3 2.207719 1_555
Li2 O6 2.053719 1_455
Li2 O2 2.055173 1_555
Li2 O8 2.141380 1_455
Li2 O4 2.168142 1_555
Li2 O7 2.197519 1_555
Li2 O3 2.206714 1_455
Li3 O7 2.080167 1_555
Li3 O3 2.116494 1_555
Li3 O8 2.122014 1_555
Li3 O5 2.134935 1_555
Li3 O4 2.138964 1_555
Li3 O9 2.251884 1_555
Li4 O0 2.032080 1_655
Li4 O10 2.048039 1_555
Li4 O5 2.080903 1_555
Li4 O9 2.101970 1_655
Li4 O8 2.174255 1_555
Li4 O4 2.298970 1_655
Li5 O1 2.065088 1_555
Li5 O11 2.082991 1_555
Li5 O9 2.179161 1_554
Li5 O5 2.183616 1_554
Li5 O0 2.190522 1_554
Li5 O10 2.220052 1_554
Li6 O0 2.090804 1_554
Li6 O10 2.093969 1_564
Li6 O1 2.111340 1_555
Li6 O6 2.111359 1_565
Li6 O11 2.117576 1_565
Li6 O2 2.123919 1_555
Mn0 O0 1.910274 1_654
Mn0 O11 1.919543 1_665
Mn0 O1 1.921875 1_555
Mn0 O10 1.967827 1_564
Mn0 O5 1.976511 1_554
Mn0 O9 1.988849 1_664
Mn1 O2 1.922727 1_545
Mn1 O7 1.923832 1_555
Mn1 O6 1.926553 1_555
Mn1 O3 1.946388 1_545
Mn1 O8 1.956192 1_555
Mn1 O4 1.981543 1_545
Co0 O6 1.963641 1_455
Co0 O2 1.964288 1_545
Co0 O11 1.997588 1_555
Co0 O1 2.002279 1_445
Co0 O7 2.114961 1_555
Co0 O3 2.127468 1_445
Co1 O3 1.992385 1_445
Co1 O9 1.994892 1_555
Co1 O8 2.003374 1_455
Co1 O4 2.025119 1_545
Co1 O5 2.070195 1_445
Co1 O7 2.072253 1_555
Co2 O10 1.875986 1_565
Co2 O0 1.984883 1_555
Co2 O4 2.040443 1_555
Co2 O5 2.046387 1_555
Co2 O9 2.056261 1_565
Co2 O8 2.145644 1_565
