# generated using pymatgen
data_Ba2NdTaO6
_symmetry_space_group_name_H-M   'P 1'
_cell_length_a   6.10770423
_cell_length_b   6.10770423
_cell_length_c   6.15762099
_cell_angle_alpha   59.95999647
_cell_angle_beta   59.95999647
_cell_angle_gamma   60.05719947
_symmetry_Int_Tables_number   1
_chemical_formula_structural   Ba2NdTaO6
_chemical_formula_sum   'Ba2 Nd1 Ta1 O6'
_cell_volume   162.39709203
_cell_formula_units_Z   1
loop_
 _symmetry_equiv_pos_site_id
 _symmetry_equiv_pos_as_xyz
  1  'x, y, z'
loop_
 _atom_site_type_symbol
 _atom_site_label
 _atom_site_symmetry_multiplicity
 _atom_site_fract_x
 _atom_site_fract_y
 _atom_site_fract_z
 _atom_site_occupancy
  Ba  Ba0  1  0.75117900  0.75117900  0.74496600  1
  Ba  Ba1  1  0.24882100  0.24882100  0.25503400  1
  Nd  Nd0  1  0.00000000  0.00000000  0.00000000  1
  Ta  Ta0  1  0.50000000  0.50000000  0.50000000  1
  O  O0  1  0.70080700  0.23634300  0.30277700  1
  O  O1  1  0.29919300  0.76365700  0.69722300  1
  O  O2  1  0.76365700  0.29919300  0.69722300  1
  O  O3  1  0.23634300  0.70080700  0.30277700  1
  O  O4  1  0.72966200  0.72966200  0.21094700  1
  O  O5  1  0.27033800  0.27033800  0.78905300  1
loop_
_geom_bond_atom_site_label_1
_geom_bond_atom_site_label_2
_geom_bond_distance
_geom_bond_site_symmetry_2
Ba0 O4 2.744044 1_556
Ba0 O0 2.853020 1_565
Ba0 O3 2.853020 1_655
Ba0 O2 2.879795 1_555
Ba0 O1 2.879795 1_555
Ba0 O5 3.085532 1_655
Ba0 O5 3.085532 1_565
Ba0 O1 3.246906 1_655
Ba0 O2 3.246906 1_565
Ba0 O3 3.297603 1_556
Ba0 O0 3.297603 1_556
Ba0 O4 3.424901 1_555
Ba1 O5 2.744044 1_554
Ba1 O2 2.853020 1_455
Ba1 O1 2.853020 1_545
Ba1 O3 2.879795 1_555
Ba1 O0 2.879795 1_555
Ba1 O4 3.085532 1_545
Ba1 O4 3.085532 1_455
Ba1 O0 3.246906 1_455
Ba1 O3 3.246906 1_545
Ba1 O1 3.297603 1_554
Ba1 O2 3.297603 1_554
Ba1 O5 3.424901 1_555
Nd0 O3 2.355665 1_545
Nd0 O0 2.355665 1_455
Nd0 O2 2.355665 1_454
Nd0 O1 2.355665 1_544
Nd0 O5 2.359387 1_554
Nd0 O4 2.359387 1_445
O0 Ta0 2.016773 1_555
O1 Ta0 2.016773 1_555
O2 Ta0 2.016773 1_555
O3 Ta0 2.016773 1_555
O4 Ta0 2.016927 1_555
O5 Ta0 2.016927 1_555
