# generated using pymatgen
data_CeSe2
_symmetry_space_group_name_H-M   'P 1'
_cell_length_a   7.42637400
_cell_length_b   7.97182400
_cell_length_c   13.56415400
_cell_angle_alpha   90.00000000
_cell_angle_beta   90.00000000
_cell_angle_gamma   90.00000000
_symmetry_Int_Tables_number   1
_chemical_formula_structural   CeSe2
_chemical_formula_sum   'Ce8 Se16'
_cell_volume   803.02160641
_cell_formula_units_Z   8
loop_
 _symmetry_equiv_pos_site_id
 _symmetry_equiv_pos_as_xyz
  1  'x, y, z'
loop_
 _atom_site_type_symbol
 _atom_site_label
 _atom_site_symmetry_multiplicity
 _atom_site_fract_x
 _atom_site_fract_y
 _atom_site_fract_z
 _atom_site_occupancy
  Ce  Ce0  1  0.36822800  0.89087100  0.62934300  1
  Ce  Ce1  1  0.63177200  0.60912900  0.12934300  1
  Ce  Ce2  1  0.13177200  0.39087100  0.37065700  1
  Ce  Ce3  1  0.86822800  0.10912900  0.87065700  1
  Ce  Ce4  1  0.63177200  0.10912900  0.37065700  1
  Ce  Ce5  1  0.36822800  0.39087100  0.87065700  1
  Ce  Ce6  1  0.86822800  0.60912900  0.62934300  1
  Ce  Ce7  1  0.13177200  0.89087100  0.12934300  1
  Se  Se0  1  0.68173900  0.84722700  0.51032500  1
  Se  Se1  1  0.31826100  0.65277300  0.01032500  1
  Se  Se2  1  0.81826100  0.34722700  0.48967500  1
  Se  Se3  1  0.18173900  0.15277300  0.98967500  1
  Se  Se4  1  0.31826100  0.15277300  0.48967500  1
  Se  Se5  1  0.68173900  0.34722700  0.98967500  1
  Se  Se6  1  0.18173900  0.65277300  0.51032500  1
  Se  Se7  1  0.81826100  0.84722700  0.01032500  1
  Se  Se8  1  0.03025100  0.88484900  0.72900000  1
  Se  Se9  1  0.96974900  0.61515100  0.22900000  1
  Se  Se10  1  0.46974900  0.38484900  0.27100000  1
  Se  Se11  1  0.53025100  0.11515100  0.77100000  1
  Se  Se12  1  0.96974900  0.11515100  0.27100000  1
  Se  Se13  1  0.03025100  0.38484900  0.77100000  1
  Se  Se14  1  0.53025100  0.61515100  0.72900000  1
  Se  Se15  1  0.46974900  0.88484900  0.22900000  1
loop_
_geom_bond_atom_site_label_1
_geom_bond_atom_site_label_2
_geom_bond_distance
_geom_bond_site_symmetry_2
Ce0 Se4 2.843555 1_565
Ce0 Se14 2.847143 1_555
Ce0 Se6 2.850782 1_555
Ce0 Se8 2.851208 1_555
Ce0 Se0 2.854473 1_555
Ce0 Se11 2.887292 1_565
Ce1 Se5 2.843555 1_554
Ce1 Se15 2.847143 1_555
Ce1 Se7 2.850782 1_555
Ce1 Se9 2.851208 1_555
Ce1 Se1 2.854473 1_555
Ce1 Se10 2.887292 1_555
Ce2 Se6 2.843555 1_555
Ce2 Se12 2.847143 1_455
Ce2 Se4 2.850782 1_555
Ce2 Se10 2.851208 1_555
Ce2 Se2 2.854473 1_455
Ce2 Se9 2.887292 1_455
Ce3 Se7 2.843555 1_546
Ce3 Se13 2.847143 1_655
Ce3 Se5 2.850782 1_555
Ce3 Se11 2.851208 1_555
Ce3 Se3 2.854473 1_655
Ce3 Se8 2.887292 1_645
Ce4 Se0 2.843555 1_545
Ce4 Se10 2.847143 1_555
Ce4 Se2 2.850782 1_555
Ce4 Se12 2.851208 1_555
Ce4 Se4 2.854473 1_555
Ce4 Se15 2.887292 1_545
Ce5 Se1 2.843555 1_556
Ce5 Se11 2.847143 1_555
Ce5 Se3 2.850782 1_555
Ce5 Se13 2.851208 1_555
Ce5 Se5 2.854473 1_555
Ce5 Se14 2.887292 1_555
Ce6 Se2 2.843555 1_555
Ce6 Se8 2.847143 1_655
Ce6 Se0 2.850782 1_555
Ce6 Se14 2.851208 1_555
Ce6 Se6 2.854473 1_655
Ce6 Se13 2.887292 1_655
Ce7 Se3 2.843555 1_564
Ce7 Se9 2.847143 1_455
Ce7 Se1 2.850782 1_555
Ce7 Se15 2.851208 1_555
Ce7 Se7 2.854473 1_455
Ce7 Se12 2.887292 1_465
