# generated using pymatgen
data_SrMn3(PO4)3
_symmetry_space_group_name_H-M   'P 1'
_cell_length_a   9.37945102
_cell_length_b   9.37945102
_cell_length_c   9.37945102
_cell_angle_alpha   138.09416385
_cell_angle_beta   112.36593865
_cell_angle_gamma   82.83286120
_symmetry_Int_Tables_number   1
_chemical_formula_structural   SrMn3(PO4)3
_chemical_formula_sum   'Sr2 Mn6 P6 O24'
_cell_volume   492.61170954
_cell_formula_units_Z   2
loop_
 _symmetry_equiv_pos_site_id
 _symmetry_equiv_pos_as_xyz
  1  'x, y, z'
loop_
 _atom_site_type_symbol
 _atom_site_label
 _atom_site_symmetry_multiplicity
 _atom_site_fract_x
 _atom_site_fract_y
 _atom_site_fract_z
 _atom_site_occupancy
  Sr  Sr0  1  0.25000000  0.35697300  0.10697300  1
  Sr  Sr1  1  0.75000000  0.64302700  0.89302700  1
  Mn  Mn0  1  0.11804600  0.11804600  0.50000000  1
  Mn  Mn1  1  0.38195400  0.88195400  0.00000000  1
  Mn  Mn2  1  0.61804600  0.11804600  0.00000000  1
  Mn  Mn3  1  0.88195400  0.88195400  0.50000000  1
  Mn  Mn4  1  0.50000000  0.00000000  0.50000000  1
  Mn  Mn5  1  0.00000000  0.50000000  0.50000000  1
  P  P0  1  0.25000000  0.84298000  0.59298000  1
  P  P1  1  0.75000000  0.15702000  0.40702000  1
  P  P2  1  0.32354400  0.32354400  0.50000000  1
  P  P3  1  0.17645600  0.67645600  0.00000000  1
  P  P4  1  0.82354400  0.32354400  0.00000000  1
  P  P5  1  0.67645600  0.67645600  0.50000000  1
  O  O0  1  0.16069500  0.62158200  0.46088700  1
  O  O1  1  0.83930500  0.37841800  0.53911300  1
  O  O2  1  0.66069500  0.19980800  0.53911300  1
  O  O3  1  0.33930500  0.80019200  0.46088700  1
  O  O4  1  0.13269500  0.98954500  0.62224000  1
  O  O5  1  0.63269500  0.01045500  0.14314900  1
  O  O6  1  0.86730500  0.01045500  0.37776000  1
  O  O7  1  0.36730500  0.98954500  0.85685100  1
  O  O8  1  0.42893900  0.56065400  0.72198800  1
  O  O9  1  0.16133300  0.43934600  0.86828400  1
  O  O10  1  0.92893900  0.20695100  0.86828400  1
  O  O11  1  0.66133300  0.79304900  0.72198800  1
  O  O12  1  0.57106100  0.43934600  0.27801200  1
  O  O13  1  0.83866700  0.56065400  0.13171600  1
  O  O14  1  0.07106100  0.79304900  0.13171600  1
  O  O15  1  0.33866700  0.20695100  0.27801200  1
  O  O16  1  0.13878200  0.30106100  0.44064600  1
  O  O17  1  0.13958500  0.69893900  0.83772100  1
  O  O18  1  0.63878200  0.19813600  0.83772100  1
  O  O19  1  0.63958500  0.80186400  0.44064600  1
  O  O20  1  0.86121800  0.69893900  0.55935400  1
  O  O21  1  0.86041500  0.30106100  0.16227900  1
  O  O22  1  0.36121800  0.80186400  0.16227900  1
  O  O23  1  0.36041500  0.19813600  0.55935400  1
loop_
_geom_bond_atom_site_label_1
_geom_bond_atom_site_label_2
_geom_bond_distance
_geom_bond_site_symmetry_2
Mn0 O4 2.163754 1_545
Mn0 O6 2.163754 1_455
Mn0 O16 2.209651 1_555
Mn0 O23 2.209651 1_555
Mn0 O14 2.218519 1_545
Mn0 O9 2.218521 1_555
Mn1 O7 2.163746 1_554
Mn1 O5 2.163756 1_565
Mn1 O17 2.209651 1_554
Mn1 O22 2.209651 1_555
Mn1 O15 2.218519 1_565
Mn1 O8 2.218523 1_554
Mn2 O5 2.163746 1_555
Mn2 O7 2.163756 1_544
Mn2 O21 2.209651 1_555
Mn2 O18 2.209651 1_554
Mn2 O11 2.218519 1_544
Mn2 O12 2.218523 1_555
Mn3 O6 2.163754 1_565
Mn3 O4 2.163754 1_655
Mn3 O19 2.209651 1_555
Mn3 O20 2.209651 1_555
Mn3 O10 2.218519 1_565
Mn3 O13 2.218521 1_555
Mn4 O23 1.971111 1_555
Mn4 O18 1.971111 1_555
Mn4 O22 1.971111 1_545
Mn4 O19 1.971111 1_545
Mn4 O2 2.275785 1_555
Mn4 O3 2.275785 1_545
Mn5 O17 1.971111 1_555
Mn5 O20 1.971111 1_455
Mn5 O16 1.971111 1_555
Mn5 O21 1.971111 1_455
Mn5 O0 2.275785 1_555
Mn5 O1 2.275785 1_455
O0 P0 1.537372 1_555
O0 Sr0 2.686037 1_555
O1 P1 1.537372 1_555
O1 Sr1 2.686037 1_555
O2 P1 1.537372 1_555
O2 Sr1 2.686037 1_555
O3 P0 1.537372 1_555
O3 Sr0 2.686037 1_555
O4 P0 1.570508 1_555
O4 Sr0 2.752267 1_566
O5 P1 1.570514 1_555
O5 Sr1 2.752267 1_544
O6 P1 1.570508 1_555
O6 Sr1 2.752267 1_544
O7 P0 1.570514 1_555
O7 Sr0 2.752267 1_566
O8 P2 1.532347 1_555
O8 Sr1 2.701477 1_555
O9 P3 1.532344 1_556
O9 Sr0 2.701485 1_556
O10 P4 1.532352 1_556
O10 Sr0 2.701477 1_656
O11 P5 1.532352 1_555
O11 Sr1 2.701477 1_555
O12 P5 1.532347 1_555
O12 Sr0 2.701477 1_555
O13 P4 1.532344 1_555
O13 Sr1 2.701485 1_554
O14 P3 1.532352 1_555
O14 Sr1 2.701477 1_454
O15 P2 1.532352 1_555
O15 Sr0 2.701477 1_555
O16 P2 1.593672 1_555
O17 P3 1.593672 1_556
O18 P4 1.593672 1_556
O19 P5 1.593672 1_555
O20 P5 1.593672 1_555
O21 P4 1.593672 1_555
O22 P3 1.593672 1_555
O23 P2 1.593672 1_555
