# generated using pymatgen
data_Fe14Ni11O32
_symmetry_space_group_name_H-M   'P 1'
_cell_length_a   5.92610100
_cell_length_b   6.11211899
_cell_length_c   19.78187756
_cell_angle_alpha   82.38280369
_cell_angle_beta   81.38542303
_cell_angle_gamma   61.27042640
_symmetry_Int_Tables_number   1
_chemical_formula_structural   Fe14Ni11O32
_chemical_formula_sum   'Fe14 Ni11 O32'
_cell_volume   619.70961197
_cell_formula_units_Z   1
loop_
 _symmetry_equiv_pos_site_id
 _symmetry_equiv_pos_as_xyz
  1  'x, y, z'
loop_
 _atom_site_type_symbol
 _atom_site_label
 _atom_site_symmetry_multiplicity
 _atom_site_fract_x
 _atom_site_fract_y
 _atom_site_fract_z
 _atom_site_occupancy
  Fe  Fe0  1  0.51253500  0.73820800  0.75251300  1
  Fe  Fe1  1  0.61389400  0.70210200  0.93622500  1
  Fe  Fe2  1  0.05825100  0.73255900  0.84633200  1
  Fe  Fe3  1  0.12536100  0.42990300  0.68919100  1
  Fe  Fe4  1  0.04597000  0.41672000  0.51094600  1
  Fe  Fe5  1  0.31881900  0.34040900  0.96994900  1
  Fe  Fe6  1  0.05808500  0.21947400  0.84368600  1
  Fe  Fe7  1  0.58541500  0.26159700  0.43461500  1
  Fe  Fe8  1  0.57864100  0.94413900  0.60281600  1
  Fe  Fe9  1  0.53814400  0.17878000  0.25741700  1
  Fe  Fe10  1  0.07449200  0.01643000  0.16674900  1
  Fe  Fe11  1  0.06184000  0.71977900  0.34322500  1
  Fe  Fe12  1  0.55266800  0.98470200  0.09038700  1
  Fe  Fe13  1  0.54616000  0.48279800  0.08885500  1
  Ni  Ni0  1  0.56479200  0.22210800  0.84339900  1
  Ni  Ni1  1  0.56976200  0.45403800  0.59635800  1
  Ni  Ni2  1  0.07466100  0.94745700  0.60022800  1
  Ni  Ni3  1  0.81668100  0.09078500  0.72066000  1
  Ni  Ni4  1  0.81751500  0.83474400  0.46836900  1
  Ni  Ni5  1  0.06062400  0.21874800  0.34216600  1
  Ni  Ni6  1  0.56204300  0.71764600  0.34321600  1
  Ni  Ni7  1  0.31341600  0.84301200  0.47016700  1
  Ni  Ni8  1  0.30623900  0.60310600  0.21752800  1
  Ni  Ni9  1  0.04765500  0.48864700  0.08627300  1
  Ni  Ni10  1  0.81232100  0.58948200  0.21701100  1
  O  O0  1  0.41987000  0.53338100  0.90593900  1
  O  O1  1  0.18918600  0.40834000  0.78844200  1
  O  O2  1  0.95248500  0.52888200  0.90588500  1
  O  O3  1  0.42276900  0.05610900  0.90613400  1
  O  O4  1  0.70326200  0.39162900  0.78281600  1
  O  O5  1  0.93397000  0.26704300  0.65403100  1
  O  O6  1  0.18427200  0.90891400  0.78422900  1
  O  O7  1  0.69340100  0.13772900  0.53132300  1
  O  O8  1  0.45429100  0.26060400  0.65362900  1
  O  O9  1  0.93164200  0.04149800  0.89231600  1
  O  O10  1  0.70485500  0.90334400  0.78434800  1
  O  O11  1  0.93393900  0.78496800  0.65673900  1
  O  O12  1  0.44050400  0.03386400  0.40634500  1
  O  O13  1  0.22927500  0.08544800  0.54097300  1
  O  O14  1  0.17651600  0.92635800  0.26859400  1
  O  O15  1  0.69401200  0.65293200  0.53161000  1
  O  O16  1  0.45073200  0.76451700  0.65356200  1
  O  O17  1  0.92490000  0.04081400  0.40781600  1
  O  O18  1  0.18823600  0.64351800  0.53059500  1
  O  O19  1  0.40356500  0.58949600  0.40071100  1
  O  O20  1  0.72028700  0.84578600  0.28514500  1
  O  O21  1  0.93271000  0.78624400  0.15333200  1
  O  O22  1  0.66857100  0.67843800  0.03497000  1
  O  O23  1  0.19288400  0.40313500  0.27825900  1
  O  O24  1  0.43135400  0.78004200  0.15123600  1
  O  O25  1  0.93893000  0.51807700  0.41148300  1
  O  O26  1  0.88888400  0.35570900  0.14370800  1
  O  O27  1  0.68039800  0.41057400  0.27983600  1
  O  O28  1  0.21822300  0.61161100  0.03622600  1
  O  O29  1  0.65096100  0.19267200  0.04023500  1
  O  O30  1  0.44769000  0.28273100  0.16030900  1
  O  O31  1  0.20644300  0.18572100  0.03844500  1
loop_
_geom_bond_atom_site_label_1
_geom_bond_atom_site_label_2
_geom_bond_distance
_geom_bond_site_symmetry_2
Fe0 O6 1.767256 1_555
Fe0 O4 1.920614 1_555
Fe0 O16 2.016497 1_555
Fe0 O10 2.050289 1_555
Fe1 O2 1.809059 1_555
Fe1 O3 1.955364 1_565
Fe1 O22 2.002794 1_556
Fe1 O0 2.062647 1_555
Fe2 O6 1.837613 1_555
Fe2 O2 1.862952 1_455
Fe2 O9 1.960835 1_465
Fe2 O1 2.167419 1_555
Fe2 O10 2.303772 1_455
Fe2 O0 2.309376 1_555
Fe3 O8 1.791198 1_555
Fe3 O11 1.972518 1_455
Fe3 O1 2.030074 1_555
Fe3 O5 2.065499 1_455
Fe4 O13 1.841881 1_555
Fe4 O15 1.899462 1_455
Fe4 O18 2.036666 1_555
Fe4 O25 2.080971 1_455
Fe5 O31 1.780093 1_556
Fe5 O0 1.846356 1_555
Fe5 O28 2.052815 1_556
Fe5 O3 2.076562 1_555
Fe5 O29 2.324035 1_556
Fe5 O2 2.383069 1_455
Fe6 O9 1.720603 1_455
Fe6 O1 1.844953 1_555
Fe6 O6 2.123549 1_545
Fe6 O2 2.174953 1_455
Fe6 O4 2.296539 1_455
Fe6 O3 2.364724 1_555
Fe7 O17 1.846539 1_555
Fe7 O19 1.847069 1_555
Fe7 O7 2.039495 1_555
Fe7 O12 2.118265 1_555
Fe8 O16 1.751429 1_555
Fe8 O7 1.975994 1_565
Fe8 O8 2.053794 1_565
Fe8 O15 2.196783 1_555
Fe8 O11 2.223973 1_555
Fe8 O13 2.299708 1_565
Fe9 O20 1.837884 1_545
Fe9 O23 1.853809 1_555
Fe9 O30 2.009645 1_555
Fe9 O27 2.083577 1_555
Fe10 O26 1.850597 1_455
Fe10 O24 1.907820 1_545
Fe10 O21 2.014466 1_445
Fe10 O14 2.116238 1_545
Fe11 O25 2.000235 1_455
Fe11 O14 2.065387 1_555
Fe11 O23 2.217172 1_555
Fe11 O19 2.219876 1_555
Fe11 O17 2.228143 1_465
Fe11 O20 2.230143 1_455
Fe12 O29 1.773054 1_565
Fe12 O24 1.933041 1_555
Fe12 O22 2.063987 1_555
Fe12 O31 2.156038 1_565
Fe12 O30 2.222424 1_565
Fe12 O21 2.430528 1_555
Fe13 O22 1.832131 1_555
Fe13 O29 1.915661 1_555
Fe13 O30 1.953069 1_555
Fe13 O28 2.097236 1_555
Fe13 O24 2.107357 1_555
Fe13 O26 2.196799 1_555
Ni0 O4 1.837601 1_555
Ni0 O3 1.857991 1_555
Ni0 O10 2.146555 1_545
Ni0 O0 2.150044 1_555
Ni0 O9 2.218359 1_555
Ni0 O1 2.322333 1_555
Ni1 O8 1.827571 1_555
Ni1 O15 1.955952 1_555
Ni1 O16 2.103000 1_555
Ni1 O7 2.223712 1_555
Ni1 O5 2.299303 1_555
Ni1 O18 2.471847 1_555
Ni2 O13 1.756120 1_565
Ni2 O11 1.775974 1_455
Ni2 O5 2.088816 1_465
Ni2 O18 2.236103 1_555
Ni2 O16 2.307856 1_555
Ni2 O7 2.508303 1_465
Ni3 O10 1.853667 1_545
Ni3 O5 1.857401 1_555
Ni3 O4 2.123302 1_555
Ni3 O11 2.165719 1_545
Ni3 O6 2.384217 1_645
Ni3 O8 2.406850 1_555
Ni4 O15 1.864043 1_555
Ni4 O17 1.889032 1_565
Ni4 O25 2.127502 1_555
Ni4 O7 2.132813 1_565
Ni4 O18 2.380759 1_655
Ni4 O12 2.406154 1_565
Ni5 O23 1.912401 1_555
Ni5 O17 1.915683 1_455
Ni5 O25 2.201805 1_455
Ni5 O14 2.234684 1_545
Ni5 O27 2.425165 1_455
Ni5 O12 2.446833 1_555
Ni6 O19 1.714680 1_555
Ni6 O20 1.719681 1_555
Ni6 O27 2.163649 1_555
Ni6 O12 2.201365 1_565
Ni6 O25 2.479473 1_555
Ni7 O18 1.919251 1_555
Ni7 O12 1.921254 1_565
Ni7 O13 2.009215 1_565
Ni7 O19 2.030497 1_555
Ni7 O15 2.417013 1_555
Ni7 O17 2.462393 1_465
Ni8 O24 1.882178 1_555
Ni8 O23 1.883272 1_555
Ni8 O14 2.085993 1_555
Ni8 O30 2.131583 1_555
Ni8 O27 2.397131 1_555
Ni8 O21 2.418429 1_455
Ni9 O28 1.673323 1_555
Ni9 O26 1.733882 1_455
Ni9 O31 1.931713 1_555
Ni9 O21 2.170291 1_455
Ni9 O22 2.299556 1_455
Ni10 O27 1.876698 1_555
Ni10 O21 1.922532 1_555
Ni10 O26 2.019683 1_555
Ni10 O20 2.021471 1_555
Ni10 O23 2.415521 1_655
Ni10 O24 2.469189 1_555
