# generated using pymatgen
data_Yb(Sb3Os)4
_symmetry_space_group_name_H-M   'P 1'
_cell_length_a   8.17163211
_cell_length_b   8.17163211
_cell_length_c   8.17163211
_cell_angle_alpha   109.47122063
_cell_angle_beta   109.47122063
_cell_angle_gamma   109.47122063
_symmetry_Int_Tables_number   1
_chemical_formula_structural   Yb(Sb3Os)4
_chemical_formula_sum   'Yb1 Sb12 Os4'
_cell_volume   420.05342345
_cell_formula_units_Z   1
loop_
 _symmetry_equiv_pos_site_id
 _symmetry_equiv_pos_as_xyz
  1  'x, y, z'
loop_
 _atom_site_type_symbol
 _atom_site_label
 _atom_site_symmetry_multiplicity
 _atom_site_fract_x
 _atom_site_fract_y
 _atom_site_fract_z
 _atom_site_occupancy
  Yb  Yb0  1  0.00000000  0.00000000  0.00000000  1
  Sb  Sb0  1  0.84357700  0.66230000  0.50587700  1
  Sb  Sb1  1  0.15642300  0.33770000  0.49412300  1
  Sb  Sb2  1  0.15642300  0.66230000  0.81872400  1
  Sb  Sb3  1  0.84357700  0.33770000  0.18127600  1
  Sb  Sb4  1  0.66230000  0.50587700  0.84357700  1
  Sb  Sb5  1  0.33770000  0.49412300  0.15642300  1
  Sb  Sb6  1  0.66230000  0.81872400  0.15642300  1
  Sb  Sb7  1  0.33770000  0.18127600  0.84357700  1
  Sb  Sb8  1  0.50587700  0.84357700  0.66230000  1
  Sb  Sb9  1  0.49412300  0.15642300  0.33770000  1
  Sb  Sb10  1  0.18127600  0.84357700  0.33770000  1
  Sb  Sb11  1  0.81872400  0.15642300  0.66230000  1
  Os  Os0  1  0.50000000  0.50000000  0.50000000  1
  Os  Os1  1  0.50000000  0.00000000  0.00000000  1
  Os  Os2  1  0.00000000  0.50000000  0.00000000  1
  Os  Os3  1  0.00000000  0.00000000  0.50000000  1
loop_
_geom_bond_atom_site_label_1
_geom_bond_atom_site_label_2
_geom_bond_distance
_geom_bond_site_symmetry_2
Sb0 Sb2 2.951953 1_655
Sb0 Sb3 3.062862 1_555
Sb0 Yb0 3.511704 1_666
Sb1 Sb3 2.951953 1_455
Sb1 Sb2 3.062862 1_555
Sb1 Yb0 3.511704 1_555
Sb2 Yb0 3.511701 1_566
Sb3 Yb0 3.511701 1_655
Sb4 Sb6 2.951953 1_556
Sb4 Sb7 3.062862 1_555
Sb4 Yb0 3.511704 1_666
Sb5 Sb7 2.951953 1_554
Sb5 Sb6 3.062862 1_555
Sb5 Yb0 3.511704 1_555
Sb6 Yb0 3.511701 1_665
Sb7 Yb0 3.511701 1_556
Sb8 Yb0 3.511704 1_666
Sb9 Yb0 3.511704 1_555
Sb10 Sb9 2.951953 1_565
Sb10 Sb8 3.062862 1_555
Sb10 Yb0 3.511701 1_565
Sb11 Sb8 2.951953 1_545
Sb11 Sb9 3.062862 1_555
Sb11 Yb0 3.511701 1_656
Os0 Sb0 2.651237 1_555
Os0 Sb1 2.651237 1_555
Os0 Sb4 2.651237 1_555
Os0 Sb8 2.651237 1_555
Os0 Sb5 2.651237 1_555
Os0 Sb9 2.651237 1_555
Os1 Sb6 2.651230 1_545
Os1 Sb7 2.651230 1_554
Os1 Sb8 2.651237 1_544
Os1 Sb9 2.651237 1_555
Os1 Sb2 2.651238 1_544
Os1 Sb3 2.651238 1_555
Os2 Sb2 2.651230 1_554
Os2 Sb3 2.651230 1_455
Os2 Sb4 2.651237 1_454
Os2 Sb5 2.651237 1_555
Os2 Sb10 2.651238 1_555
Os2 Sb11 2.651238 1_454
Os3 Sb10 2.651230 1_545
Os3 Sb11 2.651230 1_455
Os3 Sb0 2.651237 1_445
Os3 Sb1 2.651237 1_555
Os3 Sb7 2.651238 1_555
Os3 Sb6 2.651238 1_445
