# generated using pymatgen
data_FeB
_symmetry_space_group_name_H-M   'P 1'
_cell_length_a   3.90014000
_cell_length_b   6.69292400
_cell_length_c   6.69292400
_cell_angle_alpha   90.00000000
_cell_angle_beta   90.00000000
_cell_angle_gamma   90.00000000
_symmetry_Int_Tables_number   1
_chemical_formula_structural   FeB
_chemical_formula_sum   'Fe8 B8'
_cell_volume   174.70767484
_cell_formula_units_Z   8
loop_
 _symmetry_equiv_pos_site_id
 _symmetry_equiv_pos_as_xyz
  1  'x, y, z'
loop_
 _atom_site_type_symbol
 _atom_site_label
 _atom_site_symmetry_multiplicity
 _atom_site_fract_x
 _atom_site_fract_y
 _atom_site_fract_z
 _atom_site_occupancy
  Fe  Fe0  1  0.86931100  0.62086200  0.62086200  1
  Fe  Fe1  1  0.36931100  0.62086200  0.87913800  1
  Fe  Fe2  1  0.36931100  0.87913800  0.62086200  1
  Fe  Fe3  1  0.86931100  0.87913800  0.87913800  1
  Fe  Fe4  1  0.13068900  0.37913800  0.37913800  1
  Fe  Fe5  1  0.63068900  0.37913800  0.12086200  1
  Fe  Fe6  1  0.63068900  0.12086200  0.37913800  1
  Fe  Fe7  1  0.13068900  0.12086200  0.12086200  1
  B  B0  1  0.36564300  0.57168400  0.57168400  1
  B  B1  1  0.86564300  0.57168400  0.92831600  1
  B  B2  1  0.86564300  0.92831600  0.57168400  1
  B  B3  1  0.36564300  0.92831600  0.92831600  1
  B  B4  1  0.63435700  0.42831600  0.42831600  1
  B  B5  1  0.13435700  0.42831600  0.07168400  1
  B  B6  1  0.13435700  0.07168400  0.42831600  1
  B  B7  1  0.63435700  0.07168400  0.07168400  1
loop_
_geom_bond_atom_site_label_1
_geom_bond_atom_site_label_2
_geom_bond_distance
_geom_bond_site_symmetry_2
B0 B4 1.714592 1_555
B0 Fe0 1.990943 1_455
B0 Fe0 2.018773 1_555
B0 Fe4 2.039896 1_555
B0 Fe1 2.083973 1_555
B0 Fe2 2.083973 1_555
B1 B5 1.714592 1_656
B1 Fe1 1.990943 1_555
B1 Fe1 2.018773 1_655
B1 Fe5 2.039896 1_556
B1 Fe0 2.083973 1_555
B1 Fe3 2.083973 1_555
B2 B6 1.714592 1_665
B2 Fe2 1.990943 1_555
B2 Fe2 2.018773 1_655
B2 Fe6 2.039896 1_565
B2 Fe3 2.083973 1_555
B2 Fe0 2.083973 1_555
B3 B7 1.714592 1_566
B3 Fe3 1.990943 1_455
B3 Fe3 2.018773 1_555
B3 Fe7 2.039896 1_566
B3 Fe2 2.083973 1_555
B3 Fe1 2.083973 1_555
B4 Fe4 1.990943 1_655
B4 Fe4 2.018773 1_555
B4 Fe0 2.039896 1_555
B4 Fe6 2.083973 1_555
B4 Fe5 2.083973 1_555
B5 Fe5 1.990943 1_555
B5 Fe5 2.018773 1_455
B5 Fe1 2.039896 1_554
B5 Fe7 2.083973 1_555
B5 Fe4 2.083973 1_555
B6 Fe6 1.990943 1_555
B6 Fe6 2.018773 1_455
B6 Fe2 2.039896 1_545
B6 Fe7 2.083973 1_555
B6 Fe4 2.083973 1_555
B7 Fe7 1.990943 1_655
B7 Fe7 2.018773 1_555
B7 Fe3 2.039896 1_544
B7 Fe6 2.083973 1_555
B7 Fe5 2.083973 1_555
