# generated using pymatgen
data_Pr3In
_symmetry_space_group_name_H-M   'P 1'
_cell_length_a   7.22336173
_cell_length_b   7.22336173
_cell_length_c   5.63940583
_cell_angle_alpha   90.00000000
_cell_angle_beta   90.00000000
_cell_angle_gamma   120.00001727
_symmetry_Int_Tables_number   1
_chemical_formula_structural   Pr3In
_chemical_formula_sum   'Pr6 In2'
_cell_volume   254.82535178
_cell_formula_units_Z   2
loop_
 _symmetry_equiv_pos_site_id
 _symmetry_equiv_pos_as_xyz
  1  'x, y, z'
loop_
 _atom_site_type_symbol
 _atom_site_label
 _atom_site_symmetry_multiplicity
 _atom_site_fract_x
 _atom_site_fract_y
 _atom_site_fract_z
 _atom_site_occupancy
  Pr  Pr0  1  0.82321976  0.17678024  0.75000000  1
  Pr  Pr1  1  0.35356048  0.17678024  0.75000000  1
  Pr  Pr2  1  0.82321976  0.64643952  0.75000000  1
  Pr  Pr3  1  0.17678024  0.82321976  0.25000000  1
  Pr  Pr4  1  0.64643952  0.82321976  0.25000000  1
  Pr  Pr5  1  0.17678024  0.35356048  0.25000000  1
  In  In0  1  0.66666700  0.33333300  0.25000000  1
  In  In1  1  0.33333300  0.66666700  0.75000000  1
loop_
_geom_bond_atom_site_label_1
_geom_bond_atom_site_label_2
_geom_bond_distance
_geom_bond_site_symmetry_2
In0 Pr0 3.433235 1_554
In0 Pr0 3.433235 1_555
In0 Pr2 3.433238 1_554
In0 Pr1 3.433238 1_555
In0 Pr1 3.433238 1_554
In0 Pr2 3.433238 1_555
In0 Pr5 3.613893 1_655
In0 Pr4 3.613893 1_545
In0 Pr3 3.613896 1_655
In0 Pr3 3.613896 1_545
In0 Pr4 3.613900 1_555
In0 Pr5 3.613900 1_555
In1 Pr3 3.433235 1_556
In1 Pr3 3.433235 1_555
In1 Pr4 3.433238 1_555
In1 Pr4 3.433238 1_556
In1 Pr5 3.433238 1_555
In1 Pr5 3.433238 1_556
In1 Pr1 3.613893 1_565
In1 Pr2 3.613893 1_455
In1 Pr0 3.613896 1_455
In1 Pr0 3.613896 1_565
In1 Pr2 3.613900 1_555
In1 Pr1 3.613900 1_555
