# generated using pymatgen
data_La4TaCo33
_symmetry_space_group_name_H-M   'P 1'
_cell_length_a   6.35387030
_cell_length_b   6.35387030
_cell_length_c   12.76252991
_cell_angle_alpha   83.08922567
_cell_angle_beta   83.08922567
_cell_angle_gamma   82.93608685
_symmetry_Int_Tables_number   1
_chemical_formula_structural   La4TaCo33
_chemical_formula_sum   'La4 Ta1 Co33'
_cell_volume   504.69838029
_cell_formula_units_Z   1
loop_
 _symmetry_equiv_pos_site_id
 _symmetry_equiv_pos_as_xyz
  1  'x, y, z'
loop_
 _atom_site_type_symbol
 _atom_site_label
 _atom_site_symmetry_multiplicity
 _atom_site_fract_x
 _atom_site_fract_y
 _atom_site_fract_z
 _atom_site_occupancy
  La  La0  1  0.35381000  0.35381000  0.67772000  1
  La  La1  1  0.34368500  0.34368500  0.17200800  1
  La  La2  1  0.65660700  0.65660700  0.82784100  1
  La  La3  1  0.65576000  0.65576000  0.32711600  1
  Ta  Ta0  1  0.09379500  0.09379500  0.54687000  1
  Co  Co0  1  0.71706800  0.28341300  0.00019000  1
  Co  Co1  1  0.70873000  0.28914600  0.49888800  1
  Co  Co2  1  0.28377400  0.99912900  0.85885100  1
  Co  Co3  1  0.28698900  0.99667300  0.35492100  1
  Co  Co4  1  0.99746800  0.71010400  0.64376300  1
  Co  Co5  1  0.99992600  0.71599900  0.14144700  1
  Co  Co6  1  0.71010400  0.99746800  0.64376300  1
  Co  Co7  1  0.71599900  0.99992600  0.14144700  1
  Co  Co8  1  0.99912900  0.28377400  0.85885100  1
  Co  Co9  1  0.99667300  0.28698900  0.35492100  1
  Co  Co10  1  0.28341300  0.71706800  0.00019000  1
  Co  Co11  1  0.28914600  0.70873000  0.49888800  1
  Co  Co12  1  0.99835600  0.99835600  0.75327300  1
  Co  Co13  1  0.99947400  0.99947400  0.24921600  1
  Co  Co14  1  0.99843100  0.50573400  0.49881000  1
  Co  Co15  1  0.99999100  0.49997400  0.00017800  1
  Co  Co16  1  0.49997400  0.99999100  0.00017800  1
  Co  Co17  1  0.50573400  0.99843100  0.49881000  1
  Co  Co18  1  0.65898100  0.65898100  0.57335000  1
  Co  Co19  1  0.65926900  0.65926900  0.07469600  1
  Co  Co20  1  0.66058300  0.14908500  0.83078100  1
  Co  Co21  1  0.65791600  0.14814500  0.32879000  1
  Co  Co22  1  0.14908500  0.66058300  0.83078100  1
  Co  Co23  1  0.14814500  0.65791600  0.32879000  1
  Co  Co24  1  0.34007100  0.34007100  0.92656600  1
  Co  Co25  1  0.34453900  0.34453900  0.42493900  1
  Co  Co26  1  0.34429800  0.85166700  0.67237800  1
  Co  Co27  1  0.34053500  0.85052900  0.16996800  1
  Co  Co28  1  0.85166700  0.34429800  0.67237800  1
  Co  Co29  1  0.85052900  0.34053500  0.16996800  1
  Co  Co30  1  0.09387400  0.09387400  0.04819100  1
  Co  Co31  1  0.90458300  0.90458300  0.95317900  1
  Co  Co32  1  0.90188600  0.90188600  0.44710400  1
loop_
_geom_bond_atom_site_label_1
_geom_bond_atom_site_label_2
_geom_bond_distance
_geom_bond_site_symmetry_2
La0 Ta0 3.201077 1_555
La0 La2 3.709218 1_555
Co0 Co8 2.384913 1_554
Co0 Co7 2.390231 1_545
Co0 Co15 2.394412 1_555
Co0 Co16 2.399325 1_545
Co0 Co20 2.497609 1_554
Co0 Co29 2.500591 1_555
Co0 Co19 2.643670 1_555
Co0 Co24 2.645475 1_554
Co0 Co30 2.650280 1_655
Co0 Co31 2.653959 1_544
Co0 La1 3.051276 1_555
Co0 La2 3.054949 1_554
Co1 Co17 2.379572 1_545
Co1 Co14 2.429892 1_555
Co1 Co9 2.431946 1_555
Co1 Co6 2.455345 1_545
Co1 Co21 2.515443 1_555
Co1 Co28 2.568873 1_555
Co1 Co25 2.571885 1_555
Co1 Co18 2.609100 1_555
Co1 Ta0 2.707856 1_655
Co1 Co32 2.729647 1_545
Co1 La3 3.016825 1_555
Co1 La0 3.036882 1_555
Co2 Co8 2.395314 1_465
Co2 Co22 2.489951 1_555
Co2 Co24 2.506629 1_565
Co2 Co26 2.630072 1_555
Co2 Co20 2.653462 1_565
Co2 Co31 2.664393 1_455
Co2 Co30 2.669703 1_566
Co2 La2 3.036207 1_555
Co2 La0 3.060401 1_565
Co3 Co9 2.443036 1_465
Co3 Co32 2.689484 1_455
Co3 Ta0 2.709754 1_565
Co3 La3 3.007453 1_555
Co3 La1 3.032349 1_565
Co4 Co6 2.418195 1_555
Co4 Ta0 2.703076 1_665
Co4 La2 3.014938 1_555
Co4 La0 3.029612 1_655
Co5 Co7 2.389272 1_555
Co5 La1 3.038291 1_655
Co5 La3 3.046995 1_555
Co6 Ta0 2.703076 1_665
Co6 La2 3.014938 1_555
Co6 La0 3.029612 1_565
Co7 La1 3.038291 1_565
Co7 La3 3.046995 1_555
Co8 La2 3.036207 1_555
Co8 La0 3.060401 1_655
Co9 Ta0 2.709754 1_655
Co9 La3 3.007453 1_555
Co9 La1 3.032349 1_655
Co10 Co2 2.384913 1_554
Co10 Co5 2.390231 1_455
Co10 Co16 2.394412 1_555
Co10 Co15 2.399325 1_455
Co10 Co22 2.497609 1_554
Co10 Co27 2.500591 1_555
Co10 Co19 2.643670 1_555
Co10 Co24 2.645475 1_554
Co10 Co30 2.650280 1_565
Co10 Co31 2.653959 1_454
Co10 La1 3.051276 1_555
Co10 La2 3.054949 1_554
Co11 Co14 2.379572 1_455
Co11 Co17 2.429892 1_555
Co11 Co3 2.431946 1_555
Co11 Co4 2.455345 1_455
Co11 Co23 2.515443 1_555
Co11 Co26 2.568873 1_555
Co11 Co25 2.571885 1_555
Co11 Co18 2.609100 1_555
Co11 Ta0 2.707856 1_565
Co11 Co32 2.729647 1_455
Co11 La3 3.016825 1_555
Co11 La0 3.036882 1_555
Co12 Co8 2.386686 1_565
Co12 Co2 2.386686 1_655
Co12 Co20 2.390253 1_565
Co12 Co22 2.390253 1_655
Co12 Co4 2.434805 1_555
Co12 Co6 2.434805 1_555
Co12 Co28 2.438789 1_565
Co12 Co26 2.438789 1_655
Co12 Co31 2.564149 1_555
Co12 Ta0 2.645036 1_665
Co12 La2 3.240524 1_555
Co12 La0 3.367183 1_665
Co13 Co7 2.393716 1_555
Co13 Co5 2.393716 1_555
Co13 Co3 2.395185 1_655
Co13 Co9 2.395185 1_565
Co13 Co29 2.411056 1_565
Co13 Co27 2.411056 1_655
Co13 Co21 2.414499 1_565
Co13 Co23 2.414499 1_655
Co13 Co32 2.547199 1_555
Co13 Co30 2.578685 1_665
Co13 La3 3.264270 1_555
Co13 La1 3.267531 1_665
Co14 Co4 2.383703 1_555
Co14 Co18 2.391154 1_555
Co14 Co23 2.402681 1_655
Co14 Co9 2.434579 1_555
Co14 Co25 2.439971 1_655
Co14 Co28 2.453583 1_555
Co14 Co32 2.542730 1_555
Co14 Ta0 2.628158 1_655
Co14 La3 3.253585 1_555
Co14 La0 3.379114 1_655
Co15 Co5 2.393713 1_555
Co15 Co8 2.396015 1_554
Co15 Co24 2.405254 1_654
Co15 Co19 2.411006 1_555
Co15 Co22 2.413870 1_654
Co15 Co29 2.415975 1_555
Co15 Co31 2.582551 1_554
Co15 Co30 2.591949 1_655
Co15 La1 3.264854 1_655
Co15 La2 3.268394 1_554
Co16 Co7 2.393713 1_555
Co16 Co2 2.396015 1_554
Co16 Co24 2.405254 1_564
Co16 Co19 2.411006 1_555
Co16 Co20 2.413870 1_564
Co16 Co27 2.415975 1_555
Co16 Co31 2.582551 1_554
Co16 Co30 2.591949 1_565
Co16 La1 3.264854 1_565
Co16 La2 3.268394 1_554
Co17 Co6 2.383703 1_555
Co17 Co18 2.391154 1_555
Co17 Co21 2.402681 1_565
Co17 Co3 2.434579 1_555
Co17 Co25 2.439971 1_565
Co17 Co26 2.453583 1_555
Co17 Co32 2.542730 1_555
Co17 Ta0 2.628158 1_565
Co17 La3 3.253585 1_555
Co17 La0 3.379114 1_565
Co18 Co4 2.499156 1_555
Co18 Co6 2.499156 1_555
Co18 Co28 2.501242 1_555
Co18 Co26 2.501242 1_555
Co18 Co32 2.597909 1_555
Co18 La0 2.995914 1_555
Co18 La3 3.147639 1_555
Co18 La2 3.244396 1_555
Co19 Co29 2.492861 1_555
Co19 Co27 2.492861 1_555
Co19 Co5 2.500046 1_555
Co19 Co7 2.500046 1_555
Co19 Co31 2.588114 1_554
Co19 La1 3.061741 1_555
Co19 La2 3.154664 1_554
Co19 La3 3.216321 1_555
Co20 Co8 2.489951 1_555
Co20 Co24 2.502870 1_555
Co20 Co28 2.505162 1_555
Co20 Co31 2.581402 1_545
Co20 Co6 2.649912 1_545
Co20 La0 2.998095 1_555
Co20 La2 3.137116 1_545
Co20 La2 3.217452 1_555
Co21 Co25 2.489385 1_555
Co21 Co9 2.496591 1_555
Co21 Co29 2.505077 1_555
Co21 Co32 2.555282 1_545
Co21 Co3 2.623664 1_545
Co21 Co7 2.642708 1_545
Co21 La1 3.047417 1_555
Co21 La3 3.132917 1_545
Co21 La3 3.221173 1_555
Co22 Co24 2.502870 1_555
Co22 Co26 2.505162 1_555
Co22 Co31 2.581402 1_455
Co22 Co4 2.649912 1_455
Co22 Co8 2.653462 1_455
Co22 La0 2.998095 1_555
Co22 La2 3.137116 1_455
Co22 La2 3.217452 1_555
Co23 Co25 2.489385 1_555
Co23 Co3 2.496591 1_555
Co23 Co27 2.505077 1_555
Co23 Co32 2.555282 1_455
Co23 Co9 2.623664 1_455
Co23 Co5 2.642708 1_455
Co23 La1 3.047417 1_555
Co23 La3 3.132917 1_455
Co23 La3 3.221173 1_555
Co24 Co8 2.506629 1_455
Co24 Co30 2.595523 1_556
Co24 La2 3.074552 1_555
Co24 La1 3.138171 1_556
Co24 La0 3.157539 1_555
Co25 Co9 2.563275 1_455
Co25 Co3 2.563275 1_545
Co25 Ta0 2.632334 1_555
Co25 La3 3.025376 1_555
Co25 La1 3.229355 1_555
Co25 La0 3.241472 1_555
Co26 Co4 2.561058 1_455
Co26 Co6 2.576391 1_555
Co26 Ta0 2.623782 1_565
Co26 La2 3.026759 1_555
Co26 La0 3.149120 1_555
Co26 La0 3.207598 1_565
Co27 Co5 2.503257 1_455
Co27 Co30 2.583470 1_565
Co27 Co3 2.608894 1_555
Co27 Co7 2.643814 1_555
Co27 La3 3.053739 1_555
Co27 La1 3.139230 1_565
Co27 La1 3.215009 1_555
Co28 Co6 2.561058 1_545
Co28 Co4 2.576391 1_555
Co28 Ta0 2.623782 1_655
Co28 Co8 2.630072 1_555
Co28 La2 3.026759 1_555
Co28 La0 3.149120 1_555
Co28 La0 3.207598 1_655
Co29 Co7 2.503257 1_545
Co29 Co30 2.583470 1_655
Co29 Co9 2.608894 1_555
Co29 Co5 2.643814 1_555
Co29 La3 3.053739 1_555
Co29 La1 3.139230 1_655
Co29 La1 3.215009 1_555
Co30 Co31 2.328351 1_444
Co30 Co7 2.651675 1_445
Co30 Co5 2.651675 1_445
Co30 Co8 2.669703 1_454
Co30 La1 3.059865 1_555
Co31 Co7 2.656125 1_556
Co31 Co5 2.656125 1_556
Co31 Co8 2.664393 1_565
Co31 La2 3.057373 1_555
Co32 Ta0 2.389111 1_665
Co32 Co9 2.689484 1_565
Co32 Co6 2.757162 1_555
Co32 Co4 2.757162 1_555
Co32 La3 2.998403 1_555
