# generated using pymatgen
data_Na3RuO4
_symmetry_space_group_name_H-M   'P 1'
_cell_length_a   8.39487972
_cell_length_b   8.39487972
_cell_length_c   5.64992448
_cell_angle_alpha   77.28605849
_cell_angle_beta   77.28605849
_cell_angle_gamma   98.62989848
_symmetry_Int_Tables_number   1
_chemical_formula_structural   Na3RuO4
_chemical_formula_sum   'Na12 Ru4 O16'
_cell_volume   370.55217242
_cell_formula_units_Z   4
loop_
 _symmetry_equiv_pos_site_id
 _symmetry_equiv_pos_as_xyz
  1  'x, y, z'
loop_
 _atom_site_type_symbol
 _atom_site_label
 _atom_site_symmetry_multiplicity
 _atom_site_fract_x
 _atom_site_fract_y
 _atom_site_fract_z
 _atom_site_occupancy
  Na  Na0  1  0.62434065  0.37565935  0.00000000  1
  Na  Na1  1  0.37565935  0.62434065  0.00000000  1
  Na  Na2  1  -0.00000000  0.50000000  0.00000000  1
  Na  Na3  1  0.50000000  -0.00000000  0.00000000  1
  Na  Na4  1  0.11997559  0.37056421  0.48105164  1
  Na  Na5  1  0.37056421  0.11997559  0.48105164  1
  Na  Na6  1  0.88002441  0.62943579  0.51894836  1
  Na  Na7  1  0.62943579  0.88002441  0.51894836  1
  Na  Na8  1  -0.00000000  -0.00000000  0.50000000  1
  Na  Na9  1  0.74193981  0.25806019  0.50000000  1
  Na  Na10  1  0.25806019  0.74193981  0.50000000  1
  Na  Na11  1  0.50000000  0.50000000  0.50000000  1
  Ru  Ru0  1  0.87245300  0.12754700  0.00000000  1
  Ru  Ru1  1  0.12754700  0.87245300  0.00000000  1
  Ru  Ru2  1  0.25472257  0.25472257  0.97503169  1
  Ru  Ru3  1  0.74527743  0.74527743  0.02496831  1
  O  O0  1  0.11224955  0.11224955  0.79490725  1
  O  O1  1  0.88775045  0.88775045  0.20509275  1
  O  O2  1  0.87564201  0.33054193  0.77698410  1
  O  O3  1  0.33054193  0.87564201  0.77698410  1
  O  O4  1  0.12435799  0.66945807  0.22301590  1
  O  O5  1  0.66945807  0.12435799  0.22301590  1
  O  O6  1  0.65361902  0.65361902  0.79856289  1
  O  O7  1  0.34638098  0.34638098  0.20143711  1
  O  O8  1  0.00960176  0.23419570  0.19117770  1
  O  O9  1  0.23419570  0.00960176  0.19117770  1
  O  O10  1  0.99039824  0.76580430  0.80882230  1
  O  O11  1  0.76580430  0.99039824  0.80882230  1
  O  O12  1  0.75356509  0.53756823  0.23240340  1
  O  O13  1  0.53756823  0.75356509  0.23240340  1
  O  O14  1  0.24643491  0.46243177  0.76759660  1
  O  O15  1  0.46243177  0.24643491  0.76759660  1
loop_
_geom_bond_atom_site_label_1
_geom_bond_atom_site_label_2
_geom_bond_distance
_geom_bond_site_symmetry_2
Na0 O6 2.310071 1_554
Na0 O7 2.310071 1_555
Na0 O2 2.336990 1_554
Na0 O5 2.336990 1_555
Na0 O12 2.391334 1_555
Na0 O15 2.391334 1_554
Na1 O6 2.310071 1_554
Na1 O7 2.310071 1_555
Na1 O3 2.336990 1_554
Na1 O4 2.336990 1_555
Na1 O13 2.391334 1_555
Na1 O14 2.391334 1_554
Na2 O10 2.276779 1_454
Na2 O8 2.276779 1_555
Na2 O12 2.299105 1_455
Na2 O14 2.299105 1_554
Na2 O4 2.371408 1_555
Na2 O2 2.371408 1_454
Na3 O11 2.276779 1_544
Na3 O9 2.276779 1_555
Na3 O13 2.299105 1_545
Na3 O15 2.299105 1_554
Na3 O5 2.371408 1_555
Na3 O3 2.371408 1_544
Na4 O7 2.254938 1_555
Na4 O2 2.269808 1_455
Na4 O14 2.324480 1_555
Na4 O8 2.454848 1_555
Na4 O0 2.462866 1_555
Na4 O4 2.600244 1_555
Na5 O7 2.254938 1_555
Na5 O3 2.269808 1_545
Na5 O15 2.324480 1_555
Na5 O9 2.454848 1_555
Na5 O0 2.462866 1_555
Na5 O5 2.600244 1_555
Na6 O6 2.254938 1_555
Na6 O4 2.269808 1_655
Na6 O12 2.324480 1_555
Na6 O10 2.454848 1_555
Na6 O1 2.462866 1_555
Na6 O2 2.600244 1_555
Na7 O6 2.254938 1_555
Na7 O5 2.269808 1_565
Na7 O13 2.324480 1_555
Na7 O11 2.454848 1_555
Na7 O1 2.462866 1_555
Na7 O3 2.600244 1_555
Na8 O9 2.301482 1_555
Na8 O8 2.301482 1_555
Na8 O11 2.301482 1_445
Na8 O10 2.301482 1_445
Na8 O1 2.380736 1_445
Na8 O0 2.380736 1_555
Na9 O2 2.250873 1_555
Na9 O5 2.250873 1_555
Na9 O15 2.471019 1_555
Na9 O12 2.471019 1_555
Na9 O11 2.587807 1_545
Na9 O8 2.587807 1_655
Na10 O3 2.250873 1_555
Na10 O4 2.250873 1_555
Na10 O14 2.471019 1_555
Na10 O13 2.471019 1_555
Na10 O10 2.587807 1_455
Na10 O9 2.587807 1_565
Na11 O14 2.255772 1_555
Na11 O15 2.255772 1_555
Na11 O13 2.255772 1_555
Na11 O12 2.255772 1_555
Na11 O7 2.754572 1_555
Na11 O6 2.754572 1_555
O0 Ru0 2.127901 1_456
O0 Ru1 2.127901 1_546
O0 Ru2 2.130487 1_555
O1 Ru0 2.127901 1_565
O1 Ru1 2.127901 1_655
O1 Ru3 2.130487 1_555
O2 Ru0 1.875824 1_556
O3 Ru1 1.875824 1_556
O4 Ru1 1.875824 1_555
O5 Ru0 1.875824 1_555
O6 Ru3 1.873295 1_556
O7 Ru2 1.873295 1_554
O8 Ru0 1.989368 1_455
O8 Ru2 2.109563 1_554
O9 Ru1 1.989368 1_545
O9 Ru2 2.109563 1_554
O10 Ru1 1.989368 1_656
O10 Ru3 2.109563 1_556
O11 Ru0 1.989368 1_566
O11 Ru3 2.109563 1_556
O12 Ru3 1.895165 1_555
O13 Ru3 1.895165 1_555
O14 Ru2 1.895165 1_555
O15 Ru2 1.895165 1_555
