# generated using pymatgen
data_NiPSe3
_symmetry_space_group_name_H-M   'P 1'
_cell_length_a   6.16327728
_cell_length_b   6.16327728
_cell_length_c   6.93231534
_cell_angle_alpha   81.51156731
_cell_angle_beta   81.51156731
_cell_angle_gamma   120.03129151
_symmetry_Int_Tables_number   1
_chemical_formula_structural   NiPSe3
_chemical_formula_sum   'Ni2 P2 Se6'
_cell_volume   217.80825324
_cell_formula_units_Z   2
loop_
 _symmetry_equiv_pos_site_id
 _symmetry_equiv_pos_as_xyz
  1  'x, y, z'
loop_
 _atom_site_type_symbol
 _atom_site_label
 _atom_site_symmetry_multiplicity
 _atom_site_fract_x
 _atom_site_fract_y
 _atom_site_fract_z
 _atom_site_occupancy
  Ni  Ni0  1  0.66664900  0.33335100  0.00000000  1
  Ni  Ni1  1  0.33335100  0.66664900  0.00000000  1
  P  P0  1  0.05641300  0.05641300  0.83079600  1
  P  P1  1  0.94358700  0.94358700  0.16920400  1
  Se  Se0  1  0.71845000  0.71845000  0.76885100  1
  Se  Se1  1  0.28155000  0.28155000  0.23114900  1
  Se  Se2  1  0.07724400  0.43554600  0.76895200  1
  Se  Se3  1  0.43554600  0.07724400  0.76895200  1
  Se  Se4  1  0.92275600  0.56445400  0.23104800  1
  Se  Se5  1  0.56445400  0.92275600  0.23104800  1
loop_
_geom_bond_atom_site_label_1
_geom_bond_atom_site_label_2
_geom_bond_distance
_geom_bond_site_symmetry_2
Ni0 Se3 2.501045 1_554
Ni0 Se4 2.501045 1_555
Ni0 Se1 2.504131 1_555
Ni0 Se0 2.504131 1_554
Ni0 Se2 2.505251 1_654
Ni0 Se5 2.505251 1_545
Ni1 Se2 2.501045 1_554
Ni1 Se5 2.501045 1_555
Ni1 Se1 2.504131 1_555
Ni1 Se0 2.504131 1_554
Ni1 Se3 2.505251 1_564
Ni1 Se4 2.505251 1_455
P0 P1 2.241290 1_446
P0 Se0 2.246586 1_445
P0 Se3 2.246815 1_555
P0 Se2 2.246815 1_555
P1 Se1 2.246586 1_665
P1 Se5 2.246815 1_555
P1 Se4 2.246815 1_555
