# generated using pymatgen
data_Ba8Ti3Co(SiO4)8
_symmetry_space_group_name_H-M   'P 1'
_cell_length_a   12.17342500
_cell_length_b   12.17342500
_cell_length_c   5.32213100
_cell_angle_alpha   90.00000000
_cell_angle_beta   90.00000000
_cell_angle_gamma   90.00000000
_symmetry_Int_Tables_number   1
_chemical_formula_structural   Ba8Ti3Co(SiO4)8
_chemical_formula_sum   'Ba8 Ti3 Co1 Si8 O32'
_cell_volume   788.69870729
_cell_formula_units_Z   1
loop_
 _symmetry_equiv_pos_site_id
 _symmetry_equiv_pos_as_xyz
  1  'x, y, z'
loop_
 _atom_site_type_symbol
 _atom_site_label
 _atom_site_symmetry_multiplicity
 _atom_site_fract_x
 _atom_site_fract_y
 _atom_site_fract_z
 _atom_site_occupancy
  Ba  Ba0  1  0.75041300  0.42299800  0.99670700  1
  Ba  Ba1  1  0.25010400  0.92294600  0.99904500  1
  Ba  Ba2  1  0.24958700  0.57700200  0.99670700  1
  Ba  Ba3  1  0.74989600  0.07705400  0.99904500  1
  Ba  Ba4  1  0.92294600  0.74989600  0.99904500  1
  Ba  Ba5  1  0.42299800  0.24958700  0.99670700  1
  Ba  Ba6  1  0.07705400  0.25010400  0.99904500  1
  Ba  Ba7  1  0.57700200  0.75041300  0.99670700  1
  Ti  Ti0  1  0.00000000  0.50000000  0.53902700  1
  Ti  Ti1  1  0.50000000  0.00000000  0.53902700  1
  Ti  Ti2  1  0.00000000  0.00000000  0.53887200  1
  Co  Co0  1  0.50000000  0.50000000  0.54333500  1
  Si  Si0  1  0.74844500  0.62092300  0.51552100  1
  Si  Si1  1  0.25007200  0.12193800  0.51562500  1
  Si  Si2  1  0.25155500  0.37907700  0.51552100  1
  Si  Si3  1  0.74992800  0.87806200  0.51562500  1
  Si  Si4  1  0.12193800  0.74992800  0.51562500  1
  Si  Si5  1  0.62092300  0.25155500  0.51552100  1
  Si  Si6  1  0.87806200  0.25007200  0.51562500  1
  Si  Si7  1  0.37907700  0.74844500  0.51552100  1
  O  O0  1  0.00000000  0.50000000  0.21825200  1
  O  O1  1  0.50000000  0.00000000  0.21825200  1
  O  O2  1  0.00000000  0.00000000  0.21825000  1
  O  O3  1  0.50000000  0.50000000  0.22173400  1
  O  O4  1  0.74860100  0.62319100  0.21419100  1
  O  O5  1  0.24994400  0.12369500  0.21436100  1
  O  O6  1  0.25139900  0.37680900  0.21419100  1
  O  O7  1  0.75005600  0.87630500  0.21436100  1
  O  O8  1  0.12369500  0.75005600  0.21436100  1
  O  O9  1  0.62319100  0.25139900  0.21419100  1
  O  O10  1  0.87630500  0.24994400  0.21436100  1
  O  O11  1  0.37680900  0.74860100  0.21419100  1
  O  O12  1  0.64140900  0.56343800  0.64961700  1
  O  O13  1  0.14243500  0.06454200  0.64700600  1
  O  O14  1  0.35859100  0.43656200  0.64961700  1
  O  O15  1  0.85756500  0.93545800  0.64700600  1
  O  O16  1  0.06439900  0.64234300  0.64703800  1
  O  O17  1  0.56442600  0.14302400  0.64601000  1
  O  O18  1  0.93560100  0.35765700  0.64703800  1
  O  O19  1  0.43557400  0.85697600  0.64601000  1
  O  O20  1  0.93545800  0.14243500  0.64700600  1
  O  O21  1  0.43656200  0.64140900  0.64961700  1
  O  O22  1  0.06454200  0.85756500  0.64700600  1
  O  O23  1  0.56343800  0.35859100  0.64961700  1
  O  O24  1  0.85697600  0.56442600  0.64601000  1
  O  O25  1  0.35765700  0.06439900  0.64703800  1
  O  O26  1  0.14302400  0.43557400  0.64601000  1
  O  O27  1  0.64234300  0.93560100  0.64703800  1
  O  O28  1  0.74968900  0.74965000  0.63203200  1
  O  O29  1  0.25031100  0.25035000  0.63203200  1
  O  O30  1  0.74965000  0.25031100  0.63203200  1
  O  O31  1  0.25035000  0.74968900  0.63203200  1
loop_
_geom_bond_atom_site_label_1
_geom_bond_atom_site_label_2
_geom_bond_distance
_geom_bond_site_symmetry_2
Ba0 O4 2.698033 1_556
Ba0 O12 2.845351 1_555
Ba0 O9 2.846404 1_556
Ba0 O10 2.851059 1_556
Ba0 O24 2.851421 1_555
Ba0 O30 2.861152 1_555
Ba0 O18 3.029547 1_555
Ba0 O23 3.034445 1_555
Ba0 O0 3.391220 1_656
Ba0 O3 3.406703 1_556
Ba1 O5 2.699140 1_566
Ba1 O8 2.847944 1_556
Ba1 O25 2.861667 1_565
Ba1 O11 2.862636 1_556
Ba1 O13 2.863472 1_565
Ba1 O31 2.874681 1_555
Ba1 O22 3.040820 1_555
Ba1 O19 3.045141 1_555
Ba1 O1 3.390464 1_566
Ba1 O2 3.392732 1_566
Ba2 O6 2.698033 1_556
Ba2 O14 2.845351 1_555
Ba2 O11 2.846404 1_556
Ba2 O8 2.851059 1_556
Ba2 O26 2.851421 1_555
Ba2 O31 2.861152 1_555
Ba2 O16 3.029547 1_555
Ba2 O21 3.034445 1_555
Ba2 O0 3.391220 1_556
Ba2 O3 3.406703 1_556
Ba3 O7 2.699140 1_546
Ba3 O10 2.847944 1_556
Ba3 O27 2.861667 1_545
Ba3 O9 2.862636 1_556
Ba3 O15 2.863472 1_545
Ba3 O30 2.874681 1_555
Ba3 O20 3.040820 1_555
Ba3 O17 3.045141 1_555
Ba3 O1 3.390464 1_556
Ba3 O2 3.392732 1_656
Ba4 O8 2.699140 1_656
Ba4 O7 2.847944 1_556
Ba4 O16 2.861667 1_655
Ba4 O4 2.862636 1_556
Ba4 O22 2.863472 1_655
Ba4 O28 2.874681 1_555
Ba4 O15 3.040820 1_555
Ba4 O24 3.045141 1_555
Ba4 O0 3.390464 1_656
Ba4 O2 3.392732 1_666
Ba5 O9 2.698033 1_556
Ba5 O23 2.845351 1_555
Ba5 O6 2.846404 1_556
Ba5 O5 2.851059 1_556
Ba5 O17 2.851421 1_555
Ba5 O29 2.861152 1_555
Ba5 O25 3.029547 1_555
Ba5 O14 3.034445 1_555
Ba5 O1 3.391220 1_556
Ba5 O3 3.406703 1_556
Ba6 O10 2.699140 1_456
Ba6 O5 2.847944 1_556
Ba6 O18 2.861667 1_455
Ba6 O6 2.862636 1_556
Ba6 O20 2.863472 1_455
Ba6 O29 2.874681 1_555
Ba6 O13 3.040820 1_555
Ba6 O26 3.045141 1_555
Ba6 O0 3.390464 1_556
Ba6 O2 3.392732 1_556
Ba7 O11 2.698033 1_556
Ba7 O21 2.845351 1_555
Ba7 O4 2.846404 1_556
Ba7 O7 2.851059 1_556
Ba7 O19 2.851421 1_555
Ba7 O28 2.861152 1_555
Ba7 O27 3.029547 1_555
Ba7 O12 3.034445 1_555
Ba7 O1 3.391220 1_566
Ba7 O3 3.406703 1_556
Co0 O3 1.711603 1_555
Co0 O12 1.969687 1_555
Co0 O23 1.969687 1_555
Co0 O14 1.969687 1_555
Co0 O21 1.969687 1_555
O0 Ti0 1.707207 1_555
O1 Ti1 1.707207 1_555
O2 Ti2 1.706392 1_555
O4 Si0 1.603956 1_555
O5 Si1 1.603510 1_555
O6 Si2 1.603956 1_555
O7 Si3 1.603510 1_555
O8 Si4 1.603510 1_555
O9 Si5 1.603956 1_555
O10 Si6 1.603510 1_555
O11 Si7 1.603956 1_555
O12 Si0 1.642204 1_555
O13 Si1 1.641348 1_555
O13 Ti2 1.988720 1_555
O14 Si2 1.642204 1_555
O15 Si3 1.641348 1_555
O15 Ti2 1.988720 1_665
O16 Si4 1.641657 1_555
O16 Ti0 1.986867 1_555
O17 Si5 1.643433 1_555
O17 Ti1 1.992660 1_555
O18 Si6 1.641657 1_555
O18 Ti0 1.986867 1_655
O19 Si7 1.643433 1_555
O19 Ti1 1.992660 1_565
O20 Si6 1.641348 1_555
O20 Ti2 1.988720 1_655
O21 Si7 1.642204 1_555
O22 Si4 1.641348 1_555
O22 Ti2 1.988720 1_565
O23 Si5 1.642204 1_555
O24 Si0 1.643433 1_555
O24 Ti0 1.992660 1_655
O25 Si1 1.641657 1_555
O25 Ti1 1.986867 1_555
O26 Si2 1.643433 1_555
O26 Ti0 1.992660 1_555
O27 Si3 1.641657 1_555
O27 Ti1 1.986867 1_565
O28 Si3 1.681508 1_555
O28 Si0 1.685342 1_555
O29 Si1 1.681508 1_555
O29 Si2 1.685342 1_555
O30 Si6 1.681508 1_555
O30 Si5 1.685342 1_555
O31 Si4 1.681508 1_555
O31 Si7 1.685342 1_555
