# generated using pymatgen
data_Tb2FeCo3
_symmetry_space_group_name_H-M   'P 1'
_cell_length_a   4.99595360
_cell_length_b   4.99598295
_cell_length_c   4.99596684
_cell_angle_alpha   62.89056527
_cell_angle_beta   62.89051987
_cell_angle_gamma   62.89045051
_symmetry_Int_Tables_number   1
_chemical_formula_structural   Tb2FeCo3
_chemical_formula_sum   'Tb2 Fe1 Co3'
_cell_volume   93.83770969
_cell_formula_units_Z   1
loop_
 _symmetry_equiv_pos_site_id
 _symmetry_equiv_pos_as_xyz
  1  'x, y, z'
loop_
 _atom_site_type_symbol
 _atom_site_label
 _atom_site_symmetry_multiplicity
 _atom_site_fract_x
 _atom_site_fract_y
 _atom_site_fract_z
 _atom_site_occupancy
  Tb  Tb0  1  0.62722787  0.62722908  0.62722818  1
  Tb  Tb1  1  0.37277217  0.37277096  0.37277220  1
  Fe  Fe0  1  -0.00000096  -0.00000097  0.00000062  1
  Co  Co0  1  0.00000133  0.49999961  -0.00000024  1
  Co  Co1  1  0.49999961  0.00000134  -0.00000024  1
  Co  Co2  1  -0.00000002  -0.00000001  0.49999948  1
loop_
_geom_bond_atom_site_label_1
_geom_bond_atom_site_label_2
_geom_bond_distance
_geom_bond_site_symmetry_2
Tb0 Tb1 3.044164 1_555
Tb0 Tb1 3.153977 1_655
Tb0 Tb1 3.153986 1_565
Tb0 Tb1 3.153988 1_556
Fe0 Tb1 3.046265 1_455
Fe0 Tb0 3.046268 1_544
Fe0 Tb0 3.046269 1_445
Fe0 Tb1 3.046277 1_545
Fe0 Tb0 3.046279 1_454
Fe0 Tb1 3.046280 1_554
Co0 Fe0 2.497985 1_565
Co0 Fe0 2.497998 1_555
Co0 Co1 2.606304 1_555
Co0 Co2 2.606319 1_555
Co0 Co1 2.606322 1_465
Co0 Co2 2.606322 1_564
Co0 Tb1 2.888599 1_555
Co0 Tb0 2.888605 1_454
Co0 Tb0 3.018202 1_554
Co0 Tb1 3.018210 1_554
Co0 Tb1 3.018212 1_455
Co0 Tb0 3.018216 1_455
Co1 Fe0 2.497971 1_655
Co1 Fe0 2.497983 1_555
Co1 Co2 2.606309 1_555
Co1 Co2 2.606313 1_654
Co1 Tb1 2.888606 1_555
Co1 Tb0 2.888611 1_544
Co1 Tb1 3.018208 1_554
Co1 Tb0 3.018214 1_545
Co1 Tb0 3.018220 1_554
Co1 Tb1 3.018230 1_545
Co2 Fe0 2.497982 1_555
Co2 Fe0 2.497985 1_556
Co2 Tb0 2.888605 1_445
Co2 Tb1 2.888609 1_555
Co2 Tb1 3.018200 1_455
Co2 Tb0 3.018203 1_545
Co2 Tb1 3.018220 1_545
Co2 Tb0 3.018223 1_455
