# generated using pymatgen
data_NdTm3
_symmetry_space_group_name_H-M   'P 1'
_cell_length_a   7.18903341
_cell_length_b   7.18903341
_cell_length_c   5.73463458
_cell_angle_alpha   90.00000000
_cell_angle_beta   90.00000000
_cell_angle_gamma   120.00002012
_symmetry_Int_Tables_number   1
_chemical_formula_structural   NdTm3
_chemical_formula_sum   'Nd2 Tm6'
_cell_volume   256.67129175
_cell_formula_units_Z   2
loop_
 _symmetry_equiv_pos_site_id
 _symmetry_equiv_pos_as_xyz
  1  'x, y, z'
loop_
 _atom_site_type_symbol
 _atom_site_label
 _atom_site_symmetry_multiplicity
 _atom_site_fract_x
 _atom_site_fract_y
 _atom_site_fract_z
 _atom_site_occupancy
  Nd  Nd0  1  0.66666700  0.33333300  0.25000000  1
  Nd  Nd1  1  0.33333300  0.66666700  0.75000000  1
  Tm  Tm0  1  0.83569687  0.16430313  0.75000000  1
  Tm  Tm1  1  0.32860425  0.16430213  0.75000000  1
  Tm  Tm2  1  0.83569787  0.67139575  0.75000000  1
  Tm  Tm3  1  0.16430313  0.83569687  0.25000000  1
  Tm  Tm4  1  0.67139575  0.83569787  0.25000000  1
  Tm  Tm5  1  0.16430213  0.32860425  0.25000000  1
loop_
_geom_bond_atom_site_label_1
_geom_bond_atom_site_label_2
_geom_bond_distance
_geom_bond_site_symmetry_2
Nd0 Tm0 3.556875 1_554
Nd0 Tm0 3.556875 1_555
Nd0 Tm1 3.556886 1_555
Nd0 Tm1 3.556886 1_554
Nd0 Tm2 3.556886 1_555
Nd0 Tm2 3.556886 1_554
Nd0 Tm4 3.594634 1_545
Nd0 Tm5 3.594634 1_655
Nd0 Tm3 3.594636 1_655
Nd0 Tm3 3.594636 1_545
Nd0 Tm4 3.594641 1_555
Nd0 Tm5 3.594641 1_555
Nd1 Tm3 3.556875 1_555
Nd1 Tm3 3.556875 1_556
Nd1 Tm5 3.556886 1_556
Nd1 Tm5 3.556886 1_555
Nd1 Tm4 3.556886 1_556
Nd1 Tm4 3.556886 1_555
Nd1 Tm2 3.594634 1_455
Nd1 Tm1 3.594634 1_565
Nd1 Tm0 3.594636 1_455
Nd1 Tm0 3.594636 1_565
Nd1 Tm2 3.594641 1_555
Nd1 Tm1 3.594641 1_555
Tm0 Tm4 3.522364 1_546
Tm0 Tm4 3.522364 1_545
Tm0 Tm5 3.522364 1_655
Tm0 Tm5 3.522364 1_656
Tm0 Tm2 3.543531 1_545
Tm0 Tm1 3.543531 1_655
Tm0 Tm1 3.645502 1_555
Tm0 Tm2 3.645502 1_555
Tm1 Tm5 3.522360 1_556
Tm1 Tm5 3.522360 1_555
Tm1 Tm3 3.522364 1_545
Tm1 Tm3 3.522364 1_546
Tm1 Tm2 3.543519 1_445
Tm1 Tm2 3.645512 1_555
Tm2 Tm4 3.522360 1_556
Tm2 Tm4 3.522360 1_555
Tm2 Tm3 3.522364 1_656
Tm2 Tm3 3.522364 1_655
Tm3 Tm4 3.543531 1_455
Tm3 Tm5 3.543531 1_565
Tm3 Tm5 3.645502 1_555
Tm3 Tm4 3.645502 1_555
Tm4 Tm5 3.543519 1_665
Tm4 Tm5 3.645512 1_555
