# generated using pymatgen
data_Li4MnCo2O7
_symmetry_space_group_name_H-M   'P 1'
_cell_length_a   5.92905581
_cell_length_b   6.57350287
_cell_length_c   7.72701288
_cell_angle_alpha   115.97041558
_cell_angle_beta   111.36292683
_cell_angle_gamma   75.98136293
_symmetry_Int_Tables_number   1
_chemical_formula_structural   Li4MnCo2O7
_chemical_formula_sum   'Li8 Mn2 Co4 O14'
_cell_volume   250.91072776
_cell_formula_units_Z   2
loop_
 _symmetry_equiv_pos_site_id
 _symmetry_equiv_pos_as_xyz
  1  'x, y, z'
loop_
 _atom_site_type_symbol
 _atom_site_label
 _atom_site_symmetry_multiplicity
 _atom_site_fract_x
 _atom_site_fract_y
 _atom_site_fract_z
 _atom_site_occupancy
  Li  Li0  1  0.21533000  0.43141400  0.14140500  1
  Li  Li1  1  0.92324800  0.85090900  0.28490500  1
  Li  Li2  1  0.64401700  0.29151700  0.42478200  1
  Li  Li3  1  0.34806900  0.71206100  0.56472900  1
  Li  Li4  1  0.07088700  0.14451600  0.71226200  1
  Li  Li5  1  0.79100800  0.57031200  0.87095800  1
  Li  Li6  1  0.50117500  0.00090400  0.00118600  1
  Li  Li7  1  0.71410400  0.43279500  0.14363900  1
  Mn  Mn0  1  0.00141400  0.00418700  0.00201500  1
  Mn  Mn1  1  0.13769700  0.28563900  0.42624900  1
  Co  Co0  1  0.44224700  0.83995500  0.27885700  1
  Co  Co1  1  0.84813700  0.70619200  0.56192400  1
  Co  Co2  1  0.57486800  0.14991000  0.72184300  1
  Co  Co3  1  0.28570700  0.57105800  0.85684300  1
  O  O0  1  0.89501300  0.26034800  0.92638800  1
  O  O1  1  0.59899500  0.72604800  0.08135800  1
  O  O2  1  0.29304400  0.14441300  0.21086100  1
  O  O3  1  0.03472400  0.56214200  0.37462900  1
  O  O4  1  0.73471100  0.99500400  0.50589400  1
  O  O5  1  0.43349800  0.42369800  0.63776100  1
  O  O6  1  0.17371300  0.84565800  0.80007200  1
  O  O7  1  0.53989800  0.58634900  0.36904600  1
  O  O8  1  0.25656200  0.01383800  0.48842400  1
  O  O9  1  0.96822000  0.42084600  0.62502400  1
  O  O10  1  0.70981000  0.86835800  0.79996200  1
  O  O11  1  0.39219500  0.29837400  0.91104300  1
  O  O12  1  0.11727600  0.72207700  0.06115100  1
  O  O13  1  0.85443400  0.14147800  0.21678800  1
loop_
_geom_bond_atom_site_label_1
_geom_bond_atom_site_label_2
_geom_bond_distance
_geom_bond_site_symmetry_2
Li0 O2 2.084484 1_555
Li0 O11 2.141294 1_554
Li0 O12 2.147118 1_555
Li0 O0 2.175156 1_454
Li0 O3 2.176366 1_555
Li0 O7 2.179215 1_555
Li1 O1 2.067458 1_555
Li1 O13 2.106727 1_565
Li1 O4 2.126909 1_555
Li1 O12 2.173614 1_655
Li1 O3 2.175232 1_655
Li1 O8 2.193573 1_665
Li2 O7 2.068915 1_555
Li2 O9 2.069912 1_555
Li2 O13 2.142098 1_555
Li2 O5 2.177147 1_555
Li2 O4 2.190359 1_545
Li2 O2 2.250922 1_555
Li3 O7 1.991481 1_555
Li3 O3 2.052180 1_555
Li3 O5 2.105136 1_555
Li3 O6 2.162853 1_555
Li3 O8 2.201609 1_565
Li3 O10 2.356125 1_555
Li4 O0 2.042945 1_455
Li4 O9 2.088589 1_455
Li4 O11 2.110084 1_555
Li4 O8 2.137561 1_555
Li4 O4 2.177717 1_445
Li4 O6 2.230984 1_545
Li5 O1 2.076862 1_556
Li5 O12 2.115867 1_656
Li5 O10 2.159433 1_555
Li5 O0 2.162982 1_555
Li5 O9 2.236042 1_555
Li5 O5 2.314072 1_555
Li6 O1 2.048265 1_545
Li6 O10 2.097508 1_544
Li6 O2 2.142819 1_555
Li6 O6 2.144479 1_544
Li6 O11 2.231410 1_554
Li6 O13 2.250213 1_555
Li7 O0 2.075979 1_554
Li7 O1 2.085480 1_555
Li7 O7 2.094063 1_555
Li7 O3 2.122350 1_655
Li7 O13 2.124217 1_555
Li7 O11 2.140285 1_554
Mn0 O0 1.911408 1_454
Mn0 O13 1.920656 1_455
Mn0 O10 1.945353 1_444
Mn0 O6 1.945740 1_544
Mn0 O2 1.969803 1_555
Mn0 O12 2.003987 1_545
Mn1 O9 1.911778 1_455
Mn1 O3 1.937885 1_555
Mn1 O13 1.945673 1_455
Mn1 O8 1.953149 1_555
Mn1 O2 1.956903 1_555
Mn1 O5 1.988570 1_555
Co0 O1 1.857060 1_555
Co0 O7 1.963658 1_555
Co0 O4 2.048729 1_555
Co0 O8 2.051558 1_565
Co0 O12 2.088784 1_555
Co0 O2 2.188292 1_565
Co1 O3 1.916689 1_655
Co1 O7 1.966381 1_555
Co1 O4 2.033034 1_555
Co1 O10 2.037240 1_555
Co1 O9 2.040599 1_555
Co1 O6 2.178282 1_655
Co2 O11 1.911731 1_555
Co2 O4 1.978858 1_545
Co2 O0 2.026096 1_555
Co2 O5 2.064039 1_555
Co2 O10 2.083047 1_545
Co2 O8 2.130697 1_555
Co3 O11 1.924469 1_555
Co3 O12 1.941842 1_556
Co3 O6 1.947375 1_555
Co3 O5 1.950695 1_555
Co3 O1 2.125820 1_556
Co3 O9 2.149861 1_455
