# generated using pymatgen
data_SrLa4TiAl4O15
_symmetry_space_group_name_H-M   'P 1'
_cell_length_a   13.84708711
_cell_length_b   13.84708711
_cell_length_c   3.85162900
_cell_angle_alpha   90.00000000
_cell_angle_beta   90.00000000
_cell_angle_gamma   157.42477941
_symmetry_Int_Tables_number   1
_chemical_formula_structural   SrLa4TiAl4O15
_chemical_formula_sum   'Sr1 La4 Ti1 Al4 O15'
_cell_volume   283.51425499
_cell_formula_units_Z   1
loop_
 _symmetry_equiv_pos_site_id
 _symmetry_equiv_pos_as_xyz
  1  'x, y, z'
loop_
 _atom_site_type_symbol
 _atom_site_label
 _atom_site_symmetry_multiplicity
 _atom_site_fract_x
 _atom_site_fract_y
 _atom_site_fract_z
 _atom_site_occupancy
  Sr  Sr0  1  0.00000000  0.00000000  0.00000000  1
  La  La0  1  0.60219400  0.39780600  0.00000000  1
  La  La1  1  0.19977100  0.80022900  0.00000000  1
  La  La2  1  0.80022900  0.19977100  0.00000000  1
  La  La3  1  0.39780600  0.60219400  0.00000000  1
  Ti  Ti0  1  0.50000000  0.50000000  0.50000000  1
  Al  Al0  1  0.10082300  0.89917700  0.50000000  1
  Al  Al1  1  0.70047800  0.29952200  0.50000000  1
  Al  Al2  1  0.29952200  0.70047800  0.50000000  1
  Al  Al3  1  0.89917700  0.10082300  0.50000000  1
  O  O0  1  0.10054400  0.40162100  0.50000000  1
  O  O1  1  0.89945600  0.59837900  0.50000000  1
  O  O2  1  0.50000000  0.00000000  0.50000000  1
  O  O3  1  0.69549900  0.79991800  0.50000000  1
  O  O4  1  0.30450100  0.20008200  0.50000000  1
  O  O5  1  0.20008200  0.30450100  0.50000000  1
  O  O6  1  0.00000000  0.50000000  0.50000000  1
  O  O7  1  0.59837900  0.89945600  0.50000000  1
  O  O8  1  0.79991800  0.69549900  0.50000000  1
  O  O9  1  0.40162100  0.10054400  0.50000000  1
  O  O10  1  0.89785300  0.10214700  0.00000000  1
  O  O11  1  0.69985700  0.30014300  0.00000000  1
  O  O12  1  0.30014300  0.69985700  0.00000000  1
  O  O13  1  0.50000000  0.50000000  0.00000000  1
  O  O14  1  0.10214700  0.89785300  0.00000000  1
loop_
_geom_bond_atom_site_label_1
_geom_bond_atom_site_label_2
_geom_bond_distance
_geom_bond_site_symmetry_2
La0 O11 2.652379 1_555
La0 O1 2.693188 1_554
La0 O1 2.693188 1_555
La0 O9 2.693188 1_555
La0 O9 2.693188 1_554
La0 O14 2.710347 1_655
La0 O14 2.710347 1_545
La0 O8 2.711929 1_554
La0 O8 2.711929 1_555
La0 O4 2.711929 1_555
La0 O4 2.711929 1_554
La0 O13 2.775434 1_555
La1 O14 2.651320 1_555
La1 O11 2.710348 1_565
La1 O11 2.710348 1_455
La1 O9 2.710900 1_565
La1 O9 2.710900 1_564
La1 O1 2.710900 1_454
La1 O1 2.710900 1_455
La1 O2 2.721423 1_565
La1 O2 2.721423 1_564
La1 O6 2.721423 1_555
La1 O6 2.721423 1_554
La1 O12 2.725952 1_555
La2 O10 2.651320 1_555
La2 O12 2.710348 1_655
La2 O12 2.710348 1_545
La2 O0 2.710900 1_655
La2 O0 2.710900 1_654
La2 O7 2.710900 1_544
La2 O7 2.710900 1_545
La2 O6 2.721423 1_654
La2 O2 2.721423 1_555
La2 O2 2.721423 1_554
La2 O6 2.721423 1_655
La2 O11 2.725952 1_555
La3 O12 2.652379 1_555
La3 O7 2.693188 1_554
La3 O7 2.693188 1_555
La3 O0 2.693188 1_555
La3 O0 2.693188 1_554
La3 O10 2.710347 1_565
La3 O10 2.710347 1_455
La3 O3 2.711929 1_555
La3 O3 2.711929 1_554
La3 O5 2.711929 1_554
La3 O5 2.711929 1_555
La3 O13 2.775434 1_555
Al0 O4 1.900902 1_565
Al0 O8 1.900902 1_455
Al0 O1 1.917151 1_455
Al0 O9 1.917151 1_565
Al0 O14 1.926150 1_555
Al0 O14 1.926150 1_556
Al1 O2 1.909284 1_555
Al1 O6 1.909284 1_655
Al1 O9 1.913145 1_555
Al1 O1 1.913145 1_555
Al1 O11 1.925888 1_555
Al1 O11 1.925888 1_556
Al2 O6 1.909284 1_555
Al2 O2 1.909284 1_565
Al2 O0 1.913145 1_555
Al2 O7 1.913145 1_555
Al2 O12 1.925888 1_556
Al2 O12 1.925888 1_555
Al3 O5 1.900902 1_655
Al3 O3 1.900902 1_545
Al3 O7 1.917151 1_545
Al3 O0 1.917151 1_655
Al3 O10 1.926150 1_556
Al3 O10 1.926150 1_555
O3 Ti0 1.952821 1_555
O3 Sr0 2.754924 1_666
O3 Sr0 2.754924 1_665
O4 Ti0 1.952821 1_555
O4 Sr0 2.754924 1_555
O4 Sr0 2.754924 1_556
O5 Ti0 1.952821 1_555
O5 Sr0 2.754924 1_555
O5 Sr0 2.754924 1_556
O8 Ti0 1.952821 1_555
O8 Sr0 2.754924 1_665
O8 Sr0 2.754924 1_666
O10 Sr0 2.774158 1_655
O13 Ti0 1.925814 1_554
O13 Ti0 1.925814 1_555
O13 Sr0 2.710347 1_555
O13 Sr0 2.710347 1_665
O14 Sr0 2.774158 1_565
