# generated using pymatgen
data_Mg14TiMn
_symmetry_space_group_name_H-M   'P 1'
_cell_length_a   6.33042493
_cell_length_b   6.22222790
_cell_length_c   10.12091337
_cell_angle_alpha   90.00000000
_cell_angle_beta   90.00000000
_cell_angle_gamma   119.43621236
_symmetry_Int_Tables_number   1
_chemical_formula_structural   Mg14TiMn
_chemical_formula_sum   'Mg14 Ti1 Mn1'
_cell_volume   347.19099872
_cell_formula_units_Z   1
loop_
 _symmetry_equiv_pos_site_id
 _symmetry_equiv_pos_as_xyz
  1  'x, y, z'
loop_
 _atom_site_type_symbol
 _atom_site_label
 _atom_site_symmetry_multiplicity
 _atom_site_fract_x
 _atom_site_fract_y
 _atom_site_fract_z
 _atom_site_occupancy
  Mg  Mg0  1  0.16735537  0.33367719  0.62500000  1
  Mg  Mg1  1  0.16702173  0.83351036  0.62500000  1
  Mg  Mg2  1  0.66443847  0.33548642  0.12500000  1
  Mg  Mg3  1  0.66506937  0.33242686  0.62500000  1
  Mg  Mg4  1  0.66443847  0.82895105  0.12500000  1
  Mg  Mg5  1  0.66506937  0.83264151  0.62500000  1
  Mg  Mg6  1  0.32809348  0.16420822  0.36456021  1
  Mg  Mg7  1  0.32809348  0.16420822  0.88543979  1
  Mg  Mg8  1  0.32809348  0.66388626  0.36456021  1
  Mg  Mg9  1  0.32809348  0.66388626  0.88543979  1
  Mg  Mg10  1  0.84252055  0.17126078  0.36623480  1
  Mg  Mg11  1  0.84252055  0.17126078  0.88376520  1
  Mg  Mg12  1  0.83992066  0.66996083  0.37234312  1
  Mg  Mg13  1  0.83992066  0.66996083  0.87765688  1
  Ti  Ti0  1  0.15760727  0.82880314  0.12500000  1
  Mn  Mn0  1  0.17174361  0.33587130  0.12500000  1
loop_
_geom_bond_atom_site_label_1
_geom_bond_atom_site_label_2
_geom_bond_distance
_geom_bond_site_symmetry_2
Mg0 Mg1 3.111114 1_555
Mg0 Mg1 3.111115 1_545
Mg0 Mg5 3.154572 1_555
Mg0 Mg3 3.154572 1_555
Mg0 Mg11 3.172709 1_455
Mg0 Mg10 3.172709 1_455
Mg0 Mg5 3.175867 1_445
Mg0 Mg3 3.175868 1_455
Mg0 Mg6 3.185882 1_555
Mg0 Mg7 3.185882 1_555
Mg0 Mg8 3.185888 1_555
Mg0 Mg9 3.185888 1_555
Mg1 Mg13 3.129057 1_455
Mg1 Mg12 3.129057 1_455
Mg1 Mg3 3.155513 1_565
Mg1 Mg5 3.155514 1_555
Mg1 Mg3 3.174918 1_455
Mg1 Mg5 3.174918 1_455
Mg1 Mg8 3.187372 1_555
Mg1 Mg9 3.187372 1_555
Mg1 Mg6 3.187378 1_565
Mg1 Mg7 3.187378 1_565
Mg2 Mg7 3.052451 1_554
Mg2 Mg6 3.052451 1_555
Mg2 Mg4 3.070449 1_555
Mg2 Mn0 3.120145 1_555
Mg2 Ti0 3.122420 1_655
Mg2 Mg4 3.151779 1_545
Mg2 Ti0 3.208004 1_545
Mg2 Mn0 3.210281 1_655
Mg3 Mg5 3.109778 1_545
Mg3 Mg5 3.112450 1_555
Mg3 Mg6 3.224806 1_555
Mg3 Mg7 3.224806 1_555
Mg4 Mg9 3.052451 1_554
Mg4 Mg8 3.052451 1_555
Mg4 Mn0 3.120145 1_555
Mg4 Ti0 3.122420 1_655
Mg4 Ti0 3.208005 1_555
Mg4 Mn0 3.210281 1_665
Mg5 Mg8 3.224806 1_555
Mg5 Mg9 3.224806 1_555
Mg6 Mn0 3.006356 1_555
Mg6 Ti0 3.030657 1_545
Mg6 Mg8 3.109111 1_555
Mg6 Mg8 3.113117 1_545
Mg7 Mn0 3.006356 1_556
Mg7 Ti0 3.030657 1_546
Mg7 Mg9 3.109111 1_555
Mg7 Mg9 3.113117 1_545
Mg8 Mn0 3.006362 1_555
Mg8 Ti0 3.030650 1_555
Mg9 Mn0 3.006362 1_556
Mg9 Ti0 3.030650 1_556
Mg10 Mn0 3.042282 1_655
Mg10 Mg2 3.067302 1_555
Mg10 Mg4 3.067308 1_545
Mg10 Mg8 3.095731 1_655
Mg10 Mg6 3.095732 1_655
Mg10 Mg12 3.111761 1_555
Mg10 Mg12 3.111761 1_545
Mg10 Mg3 3.199003 1_555
Mg10 Mg5 3.199009 1_545
Mg10 Mg8 3.235246 1_545
Mg10 Mg6 3.235246 1_555
Mg11 Mn0 3.042282 1_656
Mg11 Mg2 3.067302 1_556
Mg11 Mg4 3.067308 1_546
Mg11 Mg9 3.095731 1_655
Mg11 Mg7 3.095732 1_655
Mg11 Mg13 3.111761 1_555
Mg11 Mg13 3.111761 1_545
Mg11 Mg3 3.199003 1_555
Mg11 Mg5 3.199009 1_545
Mg11 Mg9 3.235246 1_545
Mg11 Mg7 3.235246 1_555
Mg12 Ti0 3.055215 1_655
Mg12 Mg4 3.091859 1_555
Mg12 Mg2 3.091865 1_555
Mg12 Mg6 3.110089 1_665
Mg12 Mg8 3.110089 1_655
Mg12 Mg5 3.144828 1_555
Mg12 Mg3 3.144834 1_555
Mg12 Mg6 3.222639 1_555
Mg12 Mg8 3.222639 1_555
Mg13 Ti0 3.055215 1_656
Mg13 Mg4 3.091859 1_556
Mg13 Mg2 3.091865 1_556
Mg13 Mg7 3.110089 1_665
Mg13 Mg9 3.110089 1_655
Mg13 Mg5 3.144828 1_555
Mg13 Mg3 3.144834 1_555
Mg13 Mg7 3.222639 1_555
Mg13 Mg9 3.222639 1_555
Mn0 Ti0 3.112090 1_545
Mn0 Ti0 3.112090 1_555
