# generated using pymatgen
data_NpAl3Pd2
_symmetry_space_group_name_H-M   'P 1'
_cell_length_a   5.47369172
_cell_length_b   5.47369172
_cell_length_c   4.18652400
_cell_angle_alpha   90.00000000
_cell_angle_beta   90.00000000
_cell_angle_gamma   119.99999660
_symmetry_Int_Tables_number   1
_chemical_formula_structural   NpAl3Pd2
_chemical_formula_sum   'Np1 Al3 Pd2'
_cell_volume   108.62877948
_cell_formula_units_Z   1
loop_
 _symmetry_equiv_pos_site_id
 _symmetry_equiv_pos_as_xyz
  1  'x, y, z'
loop_
 _atom_site_type_symbol
 _atom_site_label
 _atom_site_symmetry_multiplicity
 _atom_site_fract_x
 _atom_site_fract_y
 _atom_site_fract_z
 _atom_site_occupancy
  Np  Np0  1  0.00000000  0.00000000  0.00000000  1
  Al  Al0  1  0.50000000  0.00000000  0.50000000  1
  Al  Al1  1  0.00000000  0.50000000  0.50000000  1
  Al  Al2  1  0.50000000  0.50000000  0.50000000  1
  Pd  Pd0  1  0.33333300  0.66666700  0.00000000  1
  Pd  Pd1  1  0.66666700  0.33333300  0.00000000  1
loop_
_geom_bond_atom_site_label_1
_geom_bond_atom_site_label_2
_geom_bond_distance
_geom_bond_site_symmetry_2
Np0 Pd0 3.160234 1_545
Np0 Pd1 3.160234 1_455
Np0 Pd0 3.160239 1_445
Np0 Pd1 3.160239 1_555
Np0 Pd1 3.160239 1_445
Np0 Pd0 3.160239 1_555
Al0 Pd1 2.622693 1_555
Al0 Pd0 2.622693 1_546
Al0 Pd1 2.622693 1_556
Al0 Pd0 2.622693 1_545
Al0 Al2 2.736846 1_555
Al0 Al2 2.736846 1_545
Al0 Al1 2.736846 1_655
Al0 Al1 2.736846 1_545
Al0 Np0 3.445587 1_656
Al0 Np0 3.445587 1_655
Al0 Np0 3.445587 1_556
Al0 Np0 3.445587 1_555
Al1 Pd0 2.622693 1_556
Al1 Pd1 2.622693 1_456
Al1 Pd0 2.622693 1_555
Al1 Pd1 2.622693 1_455
Al1 Al2 2.736846 1_455
Al1 Al2 2.736846 1_555
Al1 Np0 3.445587 1_565
Al1 Np0 3.445587 1_555
Al1 Np0 3.445587 1_556
Al1 Np0 3.445587 1_566
Al2 Pd1 2.622695 1_556
Al2 Pd0 2.622695 1_556
Al2 Pd1 2.622695 1_555
Al2 Pd0 2.622695 1_555
Al2 Np0 3.445587 1_555
Al2 Np0 3.445587 1_556
Al2 Np0 3.445587 1_666
Al2 Np0 3.445587 1_665
Pd0 Pd1 3.160234 1_455
Pd0 Pd1 3.160234 1_565
Pd0 Pd1 3.160244 1_555
