# generated using pymatgen
data_SrAl2
_symmetry_space_group_name_H-M   'P 1'
_cell_length_a   5.83892963
_cell_length_b   5.83893032
_cell_length_c   5.83892948
_cell_angle_alpha   60.00000473
_cell_angle_beta   60.00000083
_cell_angle_gamma   60.00000446
_symmetry_Int_Tables_number   1
_chemical_formula_structural   SrAl2
_chemical_formula_sum   'Sr2 Al4'
_cell_volume   140.76179564
_cell_formula_units_Z   2
loop_
 _symmetry_equiv_pos_site_id
 _symmetry_equiv_pos_as_xyz
  1  'x, y, z'
loop_
 _atom_site_type_symbol
 _atom_site_label
 _atom_site_symmetry_multiplicity
 _atom_site_fract_x
 _atom_site_fract_y
 _atom_site_fract_z
 _atom_site_occupancy
  Sr  Sr0  1  0.12500000  0.12500000  0.12500000  1
  Sr  Sr1  1  0.87500000  0.87500000  0.87500000  1
  Al  Al0  1  0.50000000  0.00000000  0.50000000  1
  Al  Al1  1  -0.00000000  0.50000000  0.50000000  1
  Al  Al2  1  0.50000000  0.50000000  0.50000000  1
  Al  Al3  1  0.50000000  0.50000000  0.00000000  1
loop_
_geom_bond_atom_site_label_1
_geom_bond_atom_site_label_2
_geom_bond_distance
_geom_bond_site_symmetry_2
Al0 Al2 2.919465 1_555
Al0 Al2 2.919465 1_545
Al0 Al3 2.919465 1_546
Al0 Al3 2.919465 1_555
Al0 Al1 2.919465 1_555
Al0 Al1 2.919465 1_645
Al0 Sr1 3.423376 1_545
Al0 Sr0 3.423376 1_555
Al0 Sr0 3.423376 1_556
Al0 Sr1 3.423376 1_544
Al0 Sr0 3.423376 1_655
Al0 Sr1 3.423376 1_445
Al1 Al2 2.919465 1_555
Al1 Al3 2.919465 1_456
Al1 Al2 2.919465 1_455
Al1 Al3 2.919465 1_555
Al1 Sr1 3.423376 1_455
Al1 Sr1 3.423376 1_454
Al1 Sr0 3.423376 1_555
Al1 Sr0 3.423376 1_556
Al1 Sr0 3.423376 1_565
Al1 Sr1 3.423376 1_445
Al2 Al3 2.919465 1_556
Al2 Al3 2.919465 1_555
Al2 Sr1 3.423376 1_455
Al2 Sr0 3.423376 1_655
Al2 Sr0 3.423376 1_556
Al2 Sr1 3.423376 1_554
Al2 Sr0 3.423376 1_565
Al2 Sr1 3.423376 1_545
Al3 Sr0 3.423376 1_555
Al3 Sr1 3.423376 1_554
Al3 Sr0 3.423376 1_655
Al3 Sr1 3.423376 1_454
Al3 Sr1 3.423376 1_544
Al3 Sr0 3.423376 1_565
