# generated using pymatgen
data_MgO
_symmetry_space_group_name_H-M   'P 1'
_cell_length_a   9.66811954
_cell_length_b   9.66811954
_cell_length_c   4.18840900
_cell_angle_alpha   90.00000000
_cell_angle_beta   90.00000000
_cell_angle_gamma   119.99999688
_symmetry_Int_Tables_number   1
_chemical_formula_structural   MgO
_chemical_formula_sum   'Mg12 O12'
_cell_volume   339.05000327
_cell_formula_units_Z   12
loop_
 _symmetry_equiv_pos_site_id
 _symmetry_equiv_pos_as_xyz
  1  'x, y, z'
loop_
 _atom_site_type_symbol
 _atom_site_label
 _atom_site_symmetry_multiplicity
 _atom_site_fract_x
 _atom_site_fract_y
 _atom_site_fract_z
 _atom_site_occupancy
  Mg  Mg0  1  0.12243100  0.66839800  0.00000000  1
  Mg  Mg1  1  0.33160200  0.45403300  0.00000000  1
  Mg  Mg2  1  0.54596700  0.87756900  0.00000000  1
  Mg  Mg3  1  0.66839800  0.12243100  0.50000000  1
  Mg  Mg4  1  0.45403300  0.33160200  0.50000000  1
  Mg  Mg5  1  0.87756900  0.54596700  0.50000000  1
  Mg  Mg6  1  0.87756900  0.33160200  0.00000000  1
  Mg  Mg7  1  0.66839800  0.54596700  0.00000000  1
  Mg  Mg8  1  0.45403300  0.12243100  0.00000000  1
  Mg  Mg9  1  0.33160200  0.87756900  0.50000000  1
  Mg  Mg10  1  0.54596700  0.66839800  0.50000000  1
  Mg  Mg11  1  0.12243100  0.45403300  0.50000000  1
  O  O0  1  0.12248800  0.67114900  0.50000000  1
  O  O1  1  0.32885100  0.45133800  0.50000000  1
  O  O2  1  0.54866200  0.87751200  0.50000000  1
  O  O3  1  0.67114900  0.12248800  0.00000000  1
  O  O4  1  0.45133800  0.32885100  0.00000000  1
  O  O5  1  0.87751200  0.54866200  0.00000000  1
  O  O6  1  0.87751200  0.32885100  0.50000000  1
  O  O7  1  0.67114900  0.54866200  0.50000000  1
  O  O8  1  0.45133800  0.12248800  0.50000000  1
  O  O9  1  0.32885100  0.87751200  0.00000000  1
  O  O10  1  0.54866200  0.67114900  0.00000000  1
  O  O11  1  0.12248800  0.45133800  0.00000000  1
loop_
_geom_bond_atom_site_label_1
_geom_bond_atom_site_label_2
_geom_bond_distance
_geom_bond_site_symmetry_2
Mg0 O9 2.008843 1_555
Mg0 O5 2.050836 1_455
Mg0 O0 2.094370 1_554
Mg0 O0 2.094370 1_555
Mg0 O11 2.098838 1_555
Mg1 O11 2.008838 1_555
Mg1 O4 2.050827 1_555
Mg1 O1 2.094370 1_554
Mg1 O1 2.094370 1_555
Mg1 O10 2.098833 1_555
Mg2 O10 2.008848 1_555
Mg2 O3 2.050836 1_565
Mg2 O2 2.094370 1_555
Mg2 O2 2.094370 1_554
Mg2 O9 2.098828 1_555
Mg3 O6 2.008843 1_555
Mg3 O2 2.050836 1_545
Mg3 O3 2.094370 1_555
Mg3 O3 2.094370 1_556
Mg3 O8 2.098838 1_555
Mg4 O8 2.008838 1_555
Mg4 O1 2.050827 1_555
Mg4 O4 2.094370 1_555
Mg4 O4 2.094370 1_556
Mg4 O7 2.098833 1_555
Mg5 O7 2.008848 1_555
Mg5 O0 2.050836 1_655
Mg5 O5 2.094370 1_556
Mg5 O5 2.094370 1_555
Mg5 O6 2.098828 1_555
Mg6 O3 2.008843 1_555
Mg6 O11 2.050836 1_655
Mg6 O6 2.094370 1_554
Mg6 O6 2.094370 1_555
Mg6 O5 2.098838 1_555
Mg7 O5 2.008838 1_555
Mg7 O10 2.050827 1_555
Mg7 O7 2.094370 1_554
Mg7 O7 2.094370 1_555
Mg7 O4 2.098833 1_555
Mg8 O4 2.008848 1_555
Mg8 O9 2.050836 1_545
Mg8 O8 2.094370 1_554
Mg8 O8 2.094370 1_555
Mg8 O3 2.098828 1_555
Mg9 O0 2.008843 1_555
Mg9 O8 2.050836 1_565
Mg9 O9 2.094370 1_555
Mg9 O9 2.094370 1_556
Mg9 O2 2.098838 1_555
Mg10 O2 2.008838 1_555
Mg10 O7 2.050827 1_555
Mg10 O10 2.094370 1_556
Mg10 O10 2.094370 1_555
Mg10 O1 2.098833 1_555
Mg11 O1 2.008848 1_555
Mg11 O6 2.050836 1_455
Mg11 O11 2.094370 1_556
Mg11 O11 2.094370 1_555
Mg11 O0 2.098828 1_555
