# generated using pymatgen
data_Mg14ZnFeO16
_symmetry_space_group_name_H-M   'P 1'
_cell_length_a   4.28254400
_cell_length_b   8.50506300
_cell_length_c   8.56149400
_cell_angle_alpha   90.00000000
_cell_angle_beta   90.00000000
_cell_angle_gamma   90.00000000
_symmetry_Int_Tables_number   1
_chemical_formula_structural   Mg14ZnFeO16
_chemical_formula_sum   'Mg14 Zn1 Fe1 O16'
_cell_volume   311.83792023
_cell_formula_units_Z   1
loop_
 _symmetry_equiv_pos_site_id
 _symmetry_equiv_pos_as_xyz
  1  'x, y, z'
loop_
 _atom_site_type_symbol
 _atom_site_label
 _atom_site_symmetry_multiplicity
 _atom_site_fract_x
 _atom_site_fract_y
 _atom_site_fract_z
 _atom_site_occupancy
  Mg  Mg0  1  0.00000000  0.00000000  0.50000000  1
  Mg  Mg1  1  0.00000000  0.50000000  0.50000000  1
  Mg  Mg2  1  0.50000000  0.75028800  0.00000000  1
  Mg  Mg3  1  0.50000000  0.24971200  0.00000000  1
  Mg  Mg4  1  0.50000000  0.74961500  0.50000000  1
  Mg  Mg5  1  0.50000000  0.25038500  0.50000000  1
  Mg  Mg6  1  0.50000000  0.00000000  0.74992600  1
  Mg  Mg7  1  0.50000000  0.50000000  0.75051700  1
  Mg  Mg8  1  0.50000000  0.00000000  0.25007400  1
  Mg  Mg9  1  0.50000000  0.50000000  0.24948300  1
  Mg  Mg10  1  0.00000000  0.74998900  0.74881600  1
  Mg  Mg11  1  0.00000000  0.25001100  0.74881600  1
  Mg  Mg12  1  0.00000000  0.74998900  0.25118400  1
  Mg  Mg13  1  0.00000000  0.25001100  0.25118400  1
  Zn  Zn0  1  0.00000000  0.00000000  0.00000000  1
  Fe  Fe0  1  0.00000000  0.50000000  0.00000000  1
  O  O0  1  0.00000000  0.00000000  0.74648600  1
  O  O1  1  0.00000000  0.50000000  0.74325700  1
  O  O2  1  0.00000000  0.00000000  0.25351400  1
  O  O3  1  0.00000000  0.50000000  0.25674300  1
  O  O4  1  0.50000000  0.75051100  0.75109000  1
  O  O5  1  0.50000000  0.24948900  0.75109000  1
  O  O6  1  0.50000000  0.75051100  0.24891000  1
  O  O7  1  0.50000000  0.24948900  0.24891000  1
  O  O8  1  0.50000000  0.00000000  0.00000000  1
  O  O9  1  0.50000000  0.50000000  0.00000000  1
  O  O10  1  0.50000000  0.00000000  0.50000000  1
  O  O11  1  0.50000000  0.50000000  0.50000000  1
  O  O12  1  0.00000000  0.74827200  0.00000000  1
  O  O13  1  0.00000000  0.25172800  0.00000000  1
  O  O14  1  0.00000000  0.75068200  0.50000000  1
  O  O15  1  0.00000000  0.24931800  0.50000000  1
loop_
_geom_bond_atom_site_label_1
_geom_bond_atom_site_label_2
_geom_bond_distance
_geom_bond_site_symmetry_2
Mg0 O0 2.110288 1_555
Mg0 O2 2.110288 1_555
Mg0 O15 2.120465 1_555
Mg0 O14 2.120465 1_545
Mg0 O10 2.141272 1_455
Mg0 O10 2.141272 1_555
Mg1 O1 2.082643 1_555
Mg1 O3 2.082643 1_555
Mg1 O15 2.132066 1_555
Mg1 O14 2.132066 1_555
Mg1 O11 2.141272 1_555
Mg1 O11 2.141272 1_455
Mg2 O8 2.123816 1_565
Mg2 O9 2.128715 1_555
Mg2 O6 2.131042 1_555
Mg2 O4 2.131042 1_554
Mg2 O12 2.141341 1_655
Mg2 O12 2.141341 1_555
Mg3 O8 2.123816 1_555
Mg3 O9 2.128715 1_555
Mg3 O7 2.131042 1_555
Mg3 O5 2.131042 1_554
Mg3 O13 2.141341 1_655
Mg3 O13 2.141341 1_555
Mg4 O11 2.122991 1_555
Mg4 O10 2.129540 1_565
Mg4 O14 2.141291 1_555
Mg4 O14 2.141291 1_655
Mg4 O4 2.149719 1_555
Mg4 O6 2.149719 1_555
Mg5 O11 2.122991 1_555
Mg5 O10 2.129540 1_555
Mg5 O15 2.141291 1_655
Mg5 O15 2.141291 1_555
Mg5 O5 2.149719 1_555
Mg5 O7 2.149719 1_555
Mg6 O4 2.121943 1_545
Mg6 O5 2.121943 1_555
Mg6 O10 2.139740 1_555
Mg6 O8 2.141007 1_556
Mg6 O0 2.141475 1_555
Mg6 O0 2.141475 1_655
Mg7 O4 2.130617 1_555
Mg7 O5 2.130617 1_555
Mg7 O9 2.135947 1_556
Mg7 O1 2.142174 1_655
Mg7 O1 2.142174 1_555
Mg7 O11 2.144800 1_555
Mg8 O6 2.121943 1_545
Mg8 O7 2.121943 1_555
Mg8 O10 2.139740 1_555
Mg8 O8 2.141007 1_555
Mg8 O2 2.141475 1_655
Mg8 O2 2.141475 1_555
Mg9 O6 2.130617 1_555
Mg9 O7 2.130617 1_555
Mg9 O9 2.135947 1_555
Mg9 O3 2.142174 1_555
Mg9 O3 2.142174 1_655
Mg9 O11 2.144800 1_555
Mg10 O0 2.126453 1_565
Mg10 O1 2.126705 1_555
Mg10 O14 2.130245 1_555
Mg10 O4 2.141365 1_555
Mg10 O4 2.141365 1_455
Mg10 O12 2.150560 1_556
Mg11 O0 2.126453 1_555
Mg11 O1 2.126705 1_555
Mg11 O15 2.130245 1_555
Mg11 O5 2.141365 1_455
Mg11 O5 2.141365 1_555
Mg11 O13 2.150560 1_556
Mg12 O2 2.126453 1_565
Mg12 O3 2.126705 1_555
Mg12 O14 2.130245 1_555
Mg12 O6 2.141365 1_455
Mg12 O6 2.141365 1_555
Mg12 O12 2.150560 1_555
Mg13 O2 2.126453 1_555
Mg13 O3 2.126705 1_555
Mg13 O15 2.130245 1_555
Mg13 O7 2.141365 1_555
Mg13 O7 2.141365 1_455
Mg13 O13 2.150560 1_555
Fe0 O13 2.111569 1_555
Fe0 O12 2.111569 1_555
Fe0 O9 2.141272 1_455
Fe0 O9 2.141272 1_555
Fe0 O3 2.198104 1_555
Fe0 O1 2.198104 1_554
O0 Zn0 2.170459 1_556
O2 Zn0 2.170459 1_555
O8 Zn0 2.141272 1_655
O8 Zn0 2.141272 1_555
O12 Zn0 2.140962 1_565
O13 Zn0 2.140962 1_555
