# generated using pymatgen
data_MgZrZn2
_symmetry_space_group_name_H-M   'P 1'
_cell_length_a   4.62105028
_cell_length_b   4.62105028
_cell_length_c   4.62105028
_cell_angle_alpha   60.00000000
_cell_angle_beta   60.00000000
_cell_angle_gamma   60.00000000
_symmetry_Int_Tables_number   1
_chemical_formula_structural   MgZrZn2
_chemical_formula_sum   'Mg1 Zr1 Zn2'
_cell_volume   69.77616308
_cell_formula_units_Z   1
loop_
 _symmetry_equiv_pos_site_id
 _symmetry_equiv_pos_as_xyz
  1  'x, y, z'
loop_
 _atom_site_type_symbol
 _atom_site_label
 _atom_site_symmetry_multiplicity
 _atom_site_fract_x
 _atom_site_fract_y
 _atom_site_fract_z
 _atom_site_occupancy
  Mg  Mg0  1  0.50000000  0.50000000  0.50000000  1
  Zr  Zr0  1  -0.00000000  0.00000000  -0.00000000  1
  Zn  Zn0  1  0.75000000  0.75000000  0.75000000  1
  Zn  Zn1  1  0.25000000  0.25000000  0.25000000  1
loop_
_geom_bond_atom_site_label_1
_geom_bond_atom_site_label_2
_geom_bond_distance
_geom_bond_site_symmetry_2
Mg0 Zn0 2.829804 1_455
Mg0 Zn0 2.829804 1_545
Mg0 Zn0 2.829804 1_555
Mg0 Zn0 2.829804 1_554
Mg0 Zn1 2.829804 1_565
Mg0 Zn1 2.829804 1_555
Mg0 Zn1 2.829804 1_556
Mg0 Zn1 2.829804 1_655
Zn0 Zr0 2.829804 1_666
Zn0 Zr0 2.829804 1_665
Zn0 Zr0 2.829804 1_656
Zn0 Zr0 2.829804 1_566
Zn1 Zr0 2.829804 1_655
Zn1 Zr0 2.829804 1_555
Zn1 Zr0 2.829804 1_556
Zn1 Zr0 2.829804 1_565
