# generated using pymatgen
data_V2O5
_symmetry_space_group_name_H-M   'P 1'
_cell_length_a   12.69592525
_cell_length_b   11.12245892
_cell_length_c   13.07851076
_cell_angle_alpha   90.83452309
_cell_angle_beta   86.03275798
_cell_angle_gamma   87.39368540
_symmetry_Int_Tables_number   1
_chemical_formula_structural   V2O5
_chemical_formula_sum   'V30 O75'
_cell_volume   1840.19339426
_cell_formula_units_Z   15
loop_
 _symmetry_equiv_pos_site_id
 _symmetry_equiv_pos_as_xyz
  1  'x, y, z'
loop_
 _atom_site_type_symbol
 _atom_site_label
 _atom_site_symmetry_multiplicity
 _atom_site_fract_x
 _atom_site_fract_y
 _atom_site_fract_z
 _atom_site_occupancy
  V  V0  1  0.92718703  0.48165522  0.07188404  1
  V  V1  1  0.86410147  0.77479865  -0.00246706  1
  V  V2  1  0.07065760  0.94803904  0.52881643  1
  V  V3  1  0.52902019  0.56369428  0.90629196  1
  V  V4  1  0.83245484  0.10745039  0.46966817  1
  V  V5  1  0.41468749  0.07929528  0.65872155  1
  V  V6  1  0.36907753  0.36126157  0.78693079  1
  V  V7  1  0.41871426  0.51615773  0.57795701  1
  V  V8  1  0.66979776  0.85741605  0.09278126  1
  V  V9  1  0.44110404  0.93526951  0.97636113  1
  V  V10  1  0.63147480  0.00695553  0.34176139  1
  V  V11  1  0.20701277  0.63307302  0.49153858  1
  V  V12  1  0.89910010  0.77036582  0.55616354  1
  V  V13  1  0.98814589  0.90149101  0.78436271  1
  V  V14  1  0.20333350  0.35549192  0.37279499  1
  V  V15  1  0.09305274  0.09171161  0.32057694  1
  V  V16  1  0.89856510  0.37062482  0.68831378  1
  V  V17  1  0.03664859  0.79754362  0.32501384  1
  V  V18  1  0.14435385  0.55769559  0.16896672  1
  V  V19  1  0.55306497  0.21580823  0.00326303  1
  V  V20  1  0.89299435  0.21422754  0.17124336  1
  V  V21  1  0.67036966  0.93608768  0.58784408  1
  V  V22  1  0.45916190  0.46744246  0.13514583  1
  V  V23  1  0.28335473  0.30350008  0.00824052  1
  V  V24  1  0.73359865  0.37629629  0.49507169  1
  V  V25  1  0.36315297  0.72009933  0.29263270  1
  V  V26  1  0.49295393  0.29708243  0.37582712  1
  V  V27  1  0.26996172  0.85798178  0.79705016  1
  V  V28  1  0.74578537  0.38584388  0.92084204  1
  V  V29  1  0.77138815  0.46768622  0.26832871  1
  O  O0  1  0.32821629  0.64113713  0.54098061  1
  O  O1  1  0.55674645  0.37416136  0.06318558  1
  O  O2  1  0.19919763  0.20846875  0.05063032  1
  O  O3  1  0.15729991  0.79936384  0.55676249  1
  O  O4  1  0.94808372  0.23592545  0.65465995  1
  O  O5  1  0.42784778  0.57947707  0.23231096  1
  O  O6  1  0.07432735  0.49663891  0.06966075  1
  O  O7  1  0.46972868  0.44289395  0.83764274  1
  O  O8  1  0.75421671  0.08401843  0.57728973  1
  O  O9  1  0.32601714  0.29486507  0.36452475  1
  O  O10  1  0.37117897  0.12638856  0.55144022  1
  O  O11  1  0.18647206  0.47518929  0.47090478  1
  O  O12  1  0.84945279  0.37440476  0.83083423  1
  O  O13  1  0.53094488  0.55674284  0.61555971  1
  O  O14  1  0.32957146  0.96326518  0.71159197  1
  O  O15  1  0.12379425  0.89089186  0.80695959  1
  O  O16  1  0.67376509  0.25645783  0.91652786  1
  O  O17  1  0.34333144  0.40065130  0.11349793  1
  O  O18  1  0.10419383  0.69231456  0.59048021  1
  O  O19  1  0.68543107  0.85726899  0.68955824  1
  O  O20  1  0.57469909  0.14004985  0.10516174  1
  O  O21  1  0.25966533  0.36310239  0.87251011  1
  O  O22  1  0.41067754  0.21965222  0.74086814  1
  O  O23  1  0.43860653  0.77250930  0.37780007  1
  O  O24  1  0.41968846  0.23742660  0.97144401  1
  O  O25  1  0.76363877  0.91343159  0.00460198  1
  O  O26  1  0.11892086  0.23168795  0.38868679  1
  O  O27  1  0.54312793  0.03035667  0.63344858  1
  O  O28  1  0.22402078  0.69026188  0.36911203  1
  O  O29  1  0.54974489  0.84206405  0.03951634  1
  O  O30  1  0.96636867  0.31418212  0.09599534  1
  O  O31  1  0.84933777  0.66258439  0.62111000  1
  O  O32  1  0.28959450  0.72306844  0.74983969  1
  O  O33  1  0.95393278  0.82248128  0.06559290  1
  O  O34  1  0.51425812  0.68975616  0.84825672  1
  O  O35  1  0.98570410  0.72862968  0.43762539  1
  O  O36  1  0.93957667  0.87167265  0.27966818  1
  O  O37  1  0.88623124  0.53506577  0.19439071  1
  O  O38  1  0.80184884  0.85947164  0.50976815  1
  O  O39  1  0.18624717  0.07668751  0.23223709  1
  O  O40  1  0.97528620  0.88432830  0.63544187  1
  O  O41  1  0.77392549  0.40257357  0.61896402  1
  O  O42  1  0.06801345  0.67842054  0.23236616  1
  O  O43  1  0.66214771  0.52131500  0.22635436  1
  O  O44  1  0.14847513  0.04200332  0.57223381  1
  O  O45  1  0.37720718  0.01404818  0.06507153  1
  O  O46  1  0.66921461  0.51969627  0.89787172  1
  O  O47  1  0.84373924  0.25915755  0.45401502  1
  O  O48  1  0.54978564  0.04847193  0.92519284  1
  O  O49  1  0.62082765  0.31583912  0.44822685  1
  O  O50  1  0.43726673  0.42014333  0.47483724  1
  O  O51  1  0.99000771  0.46832414  0.66523406  1
  O  O52  1  0.34080754  0.82476553  0.20941631  1
  O  O53  1  0.74386382  0.72250356  0.09078682  1
  O  O54  1  0.96523867  0.04463579  0.47528472  1
  O  O55  1  0.33329248  0.85986667  0.91362141  1
  O  O56  1  0.77224586  0.49748238  0.40002467  1
  O  O57  1  0.24436148  0.62095689  0.11440824  1
  O  O58  1  0.79232063  0.30856953  0.24440740  1
  O  O59  1  0.97758839  0.12863852  0.25850062  1
  O  O60  1  0.11248216  0.92837804  0.37972708  1
  O  O61  1  0.65071503  0.92454497  0.22040588  1
  O  O62  1  0.46761352  0.58319818  0.03158872  1
  O  O63  1  0.83654313  0.12139704  0.09946753  1
  O  O64  1  0.17506681  0.43735293  0.26346421  1
  O  O65  1  0.50455902  0.35876546  0.26088906  1
  O  O66  1  0.46381026  0.02997722  0.86148870  1
  O  O67  1  0.61063637  0.92000807  0.44513593  1
  O  O68  1  0.90534745  0.60322546  -0.00755698  1
  O  O69  1  0.76007316  0.06477490  0.36222711  1
  O  O70  1  0.54061855  0.12688016  0.34999213  1
  O  O71  1  0.91307902  0.80188768  0.86359370  1
  O  O72  1  0.80173474  0.40995194  0.03764414  1
  O  O73  1  0.94373538  0.03509463  0.81520268  1
  O  O74  1  0.33871932  0.44164635  0.67740881  1
loop_
_geom_bond_atom_site_label_1
_geom_bond_atom_site_label_2
_geom_bond_distance
_geom_bond_site_symmetry_2
O0 V11 1.715400 1_555
O0 V7 1.854048 1_555
O1 V22 1.786175 1_555
O1 V19 1.921148 1_555
O2 V23 1.613682 1_555
O3 V2 1.996473 1_555
O3 V11 2.078527 1_555
O4 V16 1.640237 1_555
O5 V22 1.778933 1_555
O5 V25 1.871065 1_555
O6 V18 1.768445 1_555
O6 V0 1.881300 1_455
O7 V6 1.761374 1_555
O7 V3 1.824380 1_555
O8 V4 1.696022 1_555
O8 V21 2.001253 1_545
O9 V14 1.664786 1_555
O9 V26 2.135974 1_555
O10 V5 1.628022 1_555
O11 V11 1.806141 1_555
O11 V14 1.830573 1_555
O12 V28 1.702996 1_555
O12 V16 1.923381 1_555
O13 V7 1.620146 1_555
O14 V27 1.787420 1_555
O14 V5 1.833250 1_565
O15 V13 1.766387 1_455
O15 V27 1.870316 1_555
O16 V28 1.742031 1_555
O16 V19 1.917517 1_556
O17 V22 1.716235 1_555
O17 V23 1.954235 1_555
O18 O3 1.453912 1_555
O18 V11 1.864363 1_555
O19 V21 1.621306 1_555
O20 V19 1.619817 1_555
O21 V6 1.721721 1_555
O21 V23 1.941935 1_556
O22 V6 1.724909 1_555
O22 V5 1.878898 1_555
O23 V25 1.636364 1_555
O24 V19 1.778139 1_556
O24 V23 1.877866 1_556
O25 V8 1.742385 1_555
O25 V1 1.952846 1_555
O26 V14 1.788743 1_555
O26 V15 1.836247 1_555
O27 V5 1.704134 1_555
O27 V21 1.938865 1_545
O28 V11 1.734718 1_555
O28 V25 2.012292 1_555
O29 V8 1.733407 1_555
O29 V9 1.926637 1_554
O30 V20 1.752564 1_555
O30 V0 1.941941 1_555
O31 V12 1.606868 1_555
O32 V27 1.616406 1_555
O33 V1 1.598762 1_555
O34 V3 1.613676 1_555
O35 V17 1.766669 1_655
O35 V12 1.877396 1_555
O36 V17 1.604159 1_655
O37 V0 1.737595 1_555
O37 V29 1.883613 1_555
O38 V12 1.698465 1_555
O38 V21 2.040755 1_555
O39 V15 1.596854 1_555
O40 V2 1.945780 1_655
O40 V12 1.956854 1_555
O40 V13 1.972940 1_555
O41 V24 1.757162 1_555
O41 V16 1.899945 1_555
O42 V18 1.779860 1_555
O42 V17 1.794638 1_555
O43 V29 1.618740 1_555
O44 V2 1.595312 1_545
O45 V9 1.596062 1_544
O46 V28 1.781444 1_555
O46 V3 1.819817 1_555
O47 V4 1.713942 1_555
O47 V24 1.910806 1_555
O48 O66 1.438465 1_555
O48 V9 1.997949 1_545
O48 V19 2.113260 1_556
O49 V24 1.753371 1_555
O49 V26 1.952828 1_555
O50 V7 1.704701 1_555
O50 V26 1.945189 1_555
O51 V16 1.641808 1_555
O52 V25 1.633955 1_555
O53 V8 1.733127 1_555
O53 V1 1.999970 1_555
O54 V4 1.801941 1_555
O54 V2 1.859184 1_645
O55 V27 1.772424 1_555
O55 V9 1.868138 1_555
O56 V29 1.750103 1_555
O56 V24 1.904557 1_555
O57 V18 1.608369 1_555
O58 V29 1.797270 1_555
O58 V20 1.824795 1_555
O59 V15 1.759657 1_655
O59 V20 1.862870 1_555
O60 V17 1.936234 1_555
O60 V2 1.991360 1_555
O60 V15 1.996542 1_565
O61 V8 1.814796 1_555
O61 V10 1.817277 1_565
O62 V3 1.771346 1_554
O62 V22 1.883272 1_555
O63 V20 1.610305 1_555
O64 V14 1.755440 1_555
O64 V18 1.881080 1_555
O65 V26 1.661520 1_555
O65 V22 2.150226 1_555
O66 V9 1.861073 1_545
O67 V10 1.686695 1_565
O67 V21 2.071006 1_555
O68 V0 1.741081 1_555
O68 V1 1.954715 1_555
O69 V4 1.800886 1_555
O69 V10 1.817082 1_555
O70 V10 1.720476 1_555
O70 V26 1.978121 1_555
O71 V13 1.789457 1_555
O71 V1 1.851396 1_556
O72 V28 1.750874 1_554
O72 V0 1.891342 1_555
O73 V13 1.601144 1_545
O74 V6 1.755565 1_555
O74 V7 1.826259 1_555
