# generated using pymatgen
data_Tm2Fe3Si5
_symmetry_space_group_name_H-M   'P 1'
_cell_length_a   10.24235113
_cell_length_b   10.24236118
_cell_length_c   5.38356684
_cell_angle_alpha   90.00000000
_cell_angle_beta   90.00000000
_cell_angle_gamma   89.99970631
_symmetry_Int_Tables_number   1
_chemical_formula_structural   Tm2Fe3Si5
_chemical_formula_sum   'Tm8 Fe12 Si20'
_cell_volume   564.76770709
_cell_formula_units_Z   4
loop_
 _symmetry_equiv_pos_site_id
 _symmetry_equiv_pos_as_xyz
  1  'x, y, z'
loop_
 _atom_site_type_symbol
 _atom_site_label
 _atom_site_symmetry_multiplicity
 _atom_site_fract_x
 _atom_site_fract_y
 _atom_site_fract_z
 _atom_site_occupancy
  Tm  Tm0  1  0.56947809  0.73688612  0.50000000  1
  Tm  Tm1  1  0.43052234  0.26311440  0.50000000  1
  Tm  Tm2  1  0.06947844  0.76311956  0.00000000  1
  Tm  Tm3  1  0.93052068  0.23688145  0.00000000  1
  Tm  Tm4  1  0.26311420  0.56947981  0.50000000  1
  Tm  Tm5  1  0.73688580  0.43052042  0.50000000  1
  Tm  Tm6  1  0.23688094  0.06947717  0.00000000  1
  Tm  Tm7  1  0.76311844  0.93052259  0.00000000  1
  Fe  Fe0  1  0.87669131  0.85570418  0.50000000  1
  Fe  Fe1  1  0.12330940  0.14429568  0.50000000  1
  Fe  Fe2  1  0.37670582  0.64428288  0.00000000  1
  Fe  Fe3  1  0.62329323  0.35571709  0.00000000  1
  Fe  Fe4  1  0.14430042  0.87669270  0.50000000  1
  Fe  Fe5  1  0.85570037  0.12330741  0.50000000  1
  Fe  Fe6  1  0.35571944  0.37670503  0.00000000  1
  Fe  Fe7  1  0.64428049  0.62329543  0.00000000  1
  Fe  Fe8  1  0.50000068  0.99999944  0.25000625  1
  Fe  Fe9  1  -0.00000045  0.49999995  0.74999394  1
  Fe  Fe10  1  -0.00000045  0.49999995  0.25000606  1
  Fe  Fe11  1  0.50000068  0.99999944  0.74999375  1
  Si  Si0  1  0.67758171  0.17756861  0.25001002  1
  Si  Si1  1  0.32241774  0.82243141  0.25001024  1
  Si  Si2  1  0.17757210  0.32241745  0.74999299  1
  Si  Si3  1  0.82242794  0.67758270  0.74999294  1
  Si  Si4  1  0.82242794  0.67758270  0.25000706  1
  Si  Si5  1  0.17757210  0.32241745  0.25000701  1
  Si  Si6  1  0.67758171  0.17756861  0.74998998  1
  Si  Si7  1  0.32241774  0.82243141  0.74998976  1
  Si  Si8  1  0.49999946  0.50000019  0.23493712  1
  Si  Si9  1  0.00000025  -0.00000010  0.73496386  1
  Si  Si10  1  0.49999946  0.50000019  0.76506288  1
  Si  Si11  1  0.00000025  -0.00000010  0.26503614  1
  Si  Si12  1  0.68015039  0.97786658  0.50000000  1
  Si  Si13  1  0.31985110  0.02213250  0.50000000  1
  Si  Si14  1  0.18013418  0.52212691  0.00000000  1
  Si  Si15  1  0.81986509  0.47787342  0.00000000  1
  Si  Si16  1  0.02213499  0.68015291  0.50000000  1
  Si  Si17  1  0.97786534  0.31984715  0.50000000  1
  Si  Si18  1  0.47787002  0.18013025  0.00000000  1
  Si  Si19  1  0.52212963  0.81986908  0.00000000  1
loop_
_geom_bond_atom_site_label_1
_geom_bond_atom_site_label_2
_geom_bond_distance
_geom_bond_site_symmetry_2
Fe0 Si11 2.319370 1_665
Fe0 Si9 2.319370 1_665
Fe0 Si4 2.334225 1_555
Fe0 Si3 2.334225 1_555
Fe0 Si16 2.334985 1_655
Fe0 Si12 2.370209 1_555
Fe0 Tm7 3.030856 1_556
Fe0 Tm7 3.030856 1_555
Fe1 Si9 2.319372 1_555
Fe1 Si11 2.319372 1_555
Fe1 Si5 2.334226 1_555
Fe1 Si2 2.334226 1_555
Fe1 Si17 2.334989 1_455
Fe1 Si13 2.370220 1_555
Fe1 Tm6 3.030851 1_555
Fe1 Tm6 3.030851 1_556
Fe2 Si8 2.319113 1_555
Fe2 Si10 2.319113 1_554
Fe2 Si1 2.334551 1_555
Fe2 Si7 2.334551 1_554
Fe2 Si19 2.335142 1_555
Fe2 Si14 2.370452 1_555
Fe2 Tm4 3.030893 1_555
Fe2 Tm4 3.030893 1_554
Fe3 Si8 2.319116 1_555
Fe3 Si10 2.319116 1_554
Fe3 Si6 2.334551 1_554
Fe3 Si0 2.334551 1_555
Fe3 Si18 2.335143 1_555
Fe3 Si15 2.370456 1_555
Fe3 Tm5 3.030898 1_554
Fe3 Tm5 3.030898 1_555
Fe4 Si9 2.319381 1_565
Fe4 Si11 2.319381 1_565
Fe4 Si1 2.334171 1_555
Fe4 Si7 2.334171 1_555
Fe4 Si13 2.334966 1_565
Fe4 Si16 2.370227 1_555
Fe4 Tm2 3.030870 1_555
Fe4 Tm2 3.030870 1_556
Fe5 Si9 2.319381 1_655
Fe5 Si11 2.319381 1_655
Fe5 Si6 2.334183 1_555
Fe5 Si0 2.334183 1_555
Fe5 Si12 2.334967 1_545
Fe5 Si17 2.370224 1_555
Fe5 Tm3 3.030869 1_555
Fe5 Tm3 3.030869 1_556
Fe6 Si8 2.319112 1_555
Fe6 Si10 2.319112 1_554
Fe6 Si2 2.334534 1_554
Fe6 Si5 2.334534 1_555
Fe6 Si14 2.335110 1_555
Fe6 Si18 2.370440 1_555
Fe6 Tm1 3.030886 1_554
Fe6 Tm1 3.030886 1_555
Fe7 Si8 2.319119 1_555
Fe7 Si10 2.319119 1_554
Fe7 Si3 2.334534 1_554
Fe7 Si4 2.334534 1_555
Fe7 Si15 2.335105 1_555
Fe7 Si19 2.370432 1_555
Fe7 Tm0 3.030885 1_555
Fe7 Tm0 3.030885 1_554
Fe8 Si19 2.294942 1_555
Fe8 Si18 2.294948 1_565
Fe8 Si13 2.295064 1_565
Fe8 Si12 2.295065 1_555
Fe8 Si0 2.572160 1_565
Fe8 Si1 2.572166 1_555
Fe8 Tm0 3.095190 1_555
Fe8 Tm1 3.095207 1_565
Fe8 Tm7 3.095255 1_555
Fe8 Tm6 3.095275 1_565
Fe9 Si15 2.294973 1_456
Fe9 Si14 2.294975 1_556
Fe9 Si17 2.295095 1_455
Fe9 Si16 2.295098 1_555
Fe9 Si3 2.572177 1_455
Fe9 Si2 2.572182 1_555
Fe9 Tm5 3.095203 1_455
Fe9 Tm4 3.095212 1_555
Fe9 Tm3 3.095275 1_456
Fe9 Tm2 3.095285 1_556
Fe10 Si15 2.294973 1_455
Fe10 Si14 2.294975 1_555
Fe10 Si17 2.295095 1_455
Fe10 Si16 2.295098 1_555
Fe10 Si4 2.572177 1_455
Fe10 Si5 2.572182 1_555
Fe10 Fe9 2.691718 1_555
Fe10 Fe9 2.691849 1_554
Fe10 Tm5 3.095203 1_455
Fe10 Tm4 3.095212 1_555
Fe10 Tm3 3.095275 1_455
Fe10 Tm2 3.095285 1_555
Fe11 Si19 2.294942 1_556
Fe11 Si18 2.294948 1_566
Fe11 Si13 2.295064 1_565
Fe11 Si12 2.295065 1_555
Fe11 Si6 2.572160 1_565
Fe11 Si7 2.572166 1_555
Fe11 Fe8 2.691716 1_555
Fe11 Fe8 2.691851 1_556
Fe11 Tm0 3.095190 1_555
Fe11 Tm1 3.095207 1_565
Fe11 Tm7 3.095255 1_556
Fe11 Tm6 3.095275 1_566
Si0 Si12 2.448615 1_545
Si0 Si18 2.448754 1_555
Si0 Si6 2.691676 1_555
Si0 Si6 2.691891 1_554
Si0 Tm3 2.981999 1_555
Si0 Tm5 2.982049 1_555
Si0 Tm7 2.996946 1_545
Si0 Tm1 2.997038 1_555
Si1 Si13 2.448606 1_565
Si1 Si19 2.448757 1_555
Si1 Si7 2.691673 1_555
Si1 Si7 2.691894 1_554
Si1 Tm2 2.982001 1_555
Si1 Tm4 2.982045 1_555
Si1 Tm6 2.996945 1_565
Si1 Tm0 2.997045 1_555
Si2 Si5 2.691708 1_555
Si2 Si5 2.691859 1_556
Si2 Tm6 2.981992 1_556
Si2 Tm1 2.982032 1_555
Si2 Tm3 2.996989 1_456
Si2 Tm4 2.997070 1_555
Si3 Si4 2.691707 1_555
Si3 Si4 2.691859 1_556
Si3 Tm7 2.981990 1_556
Si3 Tm0 2.982030 1_555
Si3 Tm2 2.996984 1_656
Si3 Tm5 2.997069 1_555
Si4 Tm7 2.981990 1_555
Si4 Tm0 2.982030 1_555
Si4 Tm2 2.996984 1_655
Si4 Tm5 2.997069 1_555
Si5 Tm6 2.981992 1_555
Si5 Tm1 2.982032 1_555
Si5 Tm3 2.996989 1_455
Si5 Tm4 2.997070 1_555
Si6 Tm3 2.981999 1_556
Si6 Tm5 2.982049 1_555
Si6 Tm7 2.996946 1_546
Si6 Tm1 2.997038 1_555
Si7 Tm2 2.982001 1_556
Si7 Tm4 2.982045 1_555
Si7 Tm6 2.996945 1_566
Si7 Tm0 2.997045 1_555
Si8 Tm4 2.903349 1_555
Si8 Tm1 2.903355 1_555
Si8 Tm5 2.903359 1_555
Si8 Tm0 2.903360 1_555
Si9 Tm2 2.903235 1_546
Si9 Tm6 2.903240 1_556
Si9 Tm3 2.903248 1_456
Si9 Tm7 2.903249 1_446
Si10 Tm4 2.903349 1_555
Si10 Tm1 2.903355 1_555
Si10 Tm5 2.903359 1_555
Si10 Tm0 2.903360 1_555
Si11 Tm2 2.903235 1_545
Si11 Tm6 2.903240 1_555
Si11 Tm3 2.903248 1_455
Si11 Tm7 2.903249 1_445
Si12 Si6 2.448615 1_565
Si12 Tm0 2.716065 1_555
Si12 Tm7 2.864084 1_556
Si12 Tm7 2.864084 1_555
Si13 Si7 2.448606 1_545
Si13 Tm1 2.716074 1_555
Si13 Tm6 2.864091 1_556
Si13 Tm6 2.864091 1_555
Si14 Si5 2.448728 1_555
Si14 Si2 2.448728 1_554
Si14 Tm2 2.716097 1_555
Si14 Tm4 2.864137 1_554
Si14 Tm4 2.864137 1_555
Si15 Si3 2.448727 1_554
Si15 Si4 2.448727 1_555
Si15 Tm3 2.716090 1_555
Si15 Tm5 2.864135 1_554
Si15 Tm5 2.864135 1_555
Si16 Si4 2.448665 1_455
Si16 Si3 2.448665 1_455
Si16 Tm4 2.716044 1_555
Si16 Tm2 2.864080 1_556
Si16 Tm2 2.864080 1_555
Si17 Si5 2.448663 1_655
Si17 Si2 2.448663 1_655
Si17 Tm5 2.716048 1_555
Si17 Tm3 2.864079 1_556
Si17 Tm3 2.864079 1_555
Si18 Si6 2.448754 1_554
Si18 Tm6 2.716061 1_555
Si18 Tm1 2.864139 1_554
Si18 Tm1 2.864139 1_555
Si19 Si7 2.448757 1_554
Si19 Tm7 2.716060 1_555
Si19 Tm0 2.864137 1_555
Si19 Tm0 2.864137 1_554
