# generated using pymatgen
data_Sm(BIr)4
_symmetry_space_group_name_H-M   'P 1'
_cell_length_a   7.68556300
_cell_length_b   7.68556300
_cell_length_c   3.98656000
_cell_angle_alpha   90.00000000
_cell_angle_beta   90.00000000
_cell_angle_gamma   90.00000000
_symmetry_Int_Tables_number   1
_chemical_formula_structural   Sm(BIr)4
_chemical_formula_sum   'Sm2 B8 Ir8'
_cell_volume   235.47764222
_cell_formula_units_Z   2
loop_
 _symmetry_equiv_pos_site_id
 _symmetry_equiv_pos_as_xyz
  1  'x, y, z'
loop_
 _atom_site_type_symbol
 _atom_site_label
 _atom_site_symmetry_multiplicity
 _atom_site_fract_x
 _atom_site_fract_y
 _atom_site_fract_z
 _atom_site_occupancy
  Sm  Sm0  1  0.00000000  0.00000000  0.00000000  1
  Sm  Sm1  1  0.50000000  0.50000000  0.50000000  1
  B  B0  1  0.65811100  0.77889100  0.11044900  1
  B  B1  1  0.34188900  0.22110900  0.11044900  1
  B  B2  1  0.27889100  0.84188900  0.61044900  1
  B  B3  1  0.72110900  0.15811100  0.61044900  1
  B  B4  1  0.84188900  0.72110900  0.38955100  1
  B  B5  1  0.15811100  0.27889100  0.38955100  1
  B  B6  1  0.22110900  0.65811100  0.88955100  1
  B  B7  1  0.77889100  0.34188900  0.88955100  1
  Ir  Ir0  1  0.15979500  0.39080800  0.88919500  1
  Ir  Ir1  1  0.84020500  0.60919200  0.88919500  1
  Ir  Ir2  1  0.89080800  0.34020500  0.38919500  1
  Ir  Ir3  1  0.10919200  0.65979500  0.38919500  1
  Ir  Ir4  1  0.34020500  0.10919200  0.61080500  1
  Ir  Ir5  1  0.65979500  0.89080800  0.61080500  1
  Ir  Ir6  1  0.60919200  0.15979500  0.11080500  1
  Ir  Ir7  1  0.39080800  0.84020500  0.11080500  1
loop_
_geom_bond_atom_site_label_1
_geom_bond_atom_site_label_2
_geom_bond_distance
_geom_bond_site_symmetry_2
B0 B4 1.852079 1_555
B0 Ir1 2.106563 1_554
B0 Ir7 2.107727 1_555
B0 Ir5 2.169684 1_554
B0 Ir5 2.172290 1_555
B0 Sm1 2.912501 1_555
B1 B5 1.852079 1_555
B1 Ir0 2.106563 1_554
B1 Ir6 2.107727 1_555
B1 Ir4 2.169684 1_554
B1 Ir4 2.172290 1_555
B1 Sm1 2.912501 1_555
B2 B6 1.852079 1_555
B2 Ir3 2.106563 1_555
B2 Ir4 2.107727 1_565
B2 Ir7 2.169684 1_555
B2 Ir7 2.172290 1_556
B2 Sm0 2.912501 1_566
B3 B7 1.852079 1_555
B3 Ir2 2.106563 1_555
B3 Ir5 2.107727 1_545
B3 Ir6 2.169684 1_555
B3 Ir6 2.172290 1_556
B3 Sm0 2.912501 1_656
B4 Ir5 2.106563 1_555
B4 Ir3 2.107727 1_655
B4 Ir1 2.169684 1_555
B4 Ir1 2.172290 1_554
B4 Sm0 2.912501 1_665
B5 Ir4 2.106563 1_555
B5 Ir2 2.107727 1_455
B5 Ir0 2.169684 1_555
B5 Ir0 2.172290 1_554
B5 Sm0 2.912501 1_555
B6 Ir7 2.106563 1_556
B6 Ir0 2.107727 1_555
B6 Ir3 2.169684 1_556
B6 Ir3 2.172290 1_555
B6 Sm1 2.912501 1_555
B7 Ir6 2.106563 1_556
B7 Ir1 2.107727 1_555
B7 Ir2 2.169684 1_556
B7 Ir2 2.172290 1_555
B7 Sm1 2.912501 1_555
