# generated using pymatgen
data_GdAl2
_symmetry_space_group_name_H-M   'P 1'
_cell_length_a   5.57504255
_cell_length_b   5.57514369
_cell_length_c   5.57510651
_cell_angle_alpha   60.00035819
_cell_angle_beta   59.99975860
_cell_angle_gamma   60.00034674
_symmetry_Int_Tables_number   1
_chemical_formula_structural   GdAl2
_chemical_formula_sum   'Gd2 Al4'
_cell_volume   122.53042619
_cell_formula_units_Z   2
loop_
 _symmetry_equiv_pos_site_id
 _symmetry_equiv_pos_as_xyz
  1  'x, y, z'
loop_
 _atom_site_type_symbol
 _atom_site_label
 _atom_site_symmetry_multiplicity
 _atom_site_fract_x
 _atom_site_fract_y
 _atom_site_fract_z
 _atom_site_occupancy
  Gd  Gd0  1  0.87499575  0.87498911  0.87500732  1
  Gd  Gd1  1  0.12500425  0.12501089  0.12499268  1
  Al  Al0  1  0.50000000  0.50000000  0.50000000  1
  Al  Al1  1  0.50000000  0.50000000  -0.00000000  1
  Al  Al2  1  0.00000000  0.50000000  0.50000000  1
  Al  Al3  1  0.50000000  0.00000000  0.50000000  1
loop_
_geom_bond_atom_site_label_1
_geom_bond_atom_site_label_2
_geom_bond_distance
_geom_bond_site_symmetry_2
Gd0 Gd1 3.413963 1_566
Gd0 Gd1 3.413985 1_656
Gd0 Gd1 3.414103 1_666
Gd0 Gd1 3.414108 1_665
Al0 Al2 2.787521 1_555
Al0 Al2 2.787521 1_655
Al0 Al1 2.787553 1_556
Al0 Al1 2.787553 1_555
Al0 Al3 2.787572 1_555
Al0 Al3 2.787572 1_565
Al0 Gd0 3.268635 1_554
Al0 Gd1 3.268635 1_556
Al0 Gd1 3.268683 1_655
Al0 Gd0 3.268683 1_455
Al0 Gd1 3.268757 1_565
Al0 Gd0 3.268757 1_545
Al1 Al2 2.787527 1_654
Al1 Al2 2.787527 1_555
Al1 Al3 2.787578 1_555
Al1 Al3 2.787578 1_564
Al1 Gd1 3.268627 1_555
Al1 Gd0 3.268627 1_554
Al1 Gd0 3.268681 1_454
Al1 Gd1 3.268681 1_655
Al1 Gd0 3.268756 1_544
Al1 Gd1 3.268756 1_565
Al2 Al3 2.787561 1_555
Al2 Al3 2.787561 1_465
Al2 Gd1 3.268678 1_555
Al2 Gd0 3.268678 1_455
Al2 Gd0 3.268685 1_454
Al2 Gd1 3.268685 1_556
Al2 Gd0 3.268781 1_445
Al2 Gd1 3.268781 1_565
Al3 Gd1 3.268672 1_555
Al3 Gd0 3.268672 1_545
Al3 Gd0 3.268679 1_544
Al3 Gd1 3.268679 1_556
Al3 Gd0 3.268700 1_445
Al3 Gd1 3.268700 1_655
