# generated using pymatgen
data_BaSrNdSbO6
_symmetry_space_group_name_H-M   'P 1'
_cell_length_a   6.05860983
_cell_length_b   6.07196804
_cell_length_c   8.56745005
_cell_angle_alpha   90.24645975
_cell_angle_beta   90.33358434
_cell_angle_gamma   90.04529984
_symmetry_Int_Tables_number   1
_chemical_formula_structural   BaSrNdSbO6
_chemical_formula_sum   'Ba2 Sr2 Nd2 Sb2 O12'
_cell_volume   315.16829340
_cell_formula_units_Z   2
loop_
 _symmetry_equiv_pos_site_id
 _symmetry_equiv_pos_as_xyz
  1  'x, y, z'
loop_
 _atom_site_type_symbol
 _atom_site_label
 _atom_site_symmetry_multiplicity
 _atom_site_fract_x
 _atom_site_fract_y
 _atom_site_fract_z
 _atom_site_occupancy
  Ba  Ba0  1  0.50441365  0.51997675  0.24998443  1
  Ba  Ba1  1  0.49558635  0.48002325  0.75001557  1
  Sr  Sr0  1  0.99394575  0.02991630  0.25257158  1
  Sr  Sr1  1  0.00605425  0.97008370  0.74742842  1
  Nd  Nd0  1  -0.00000000  0.50000000  -0.00000000  1
  Nd  Nd1  1  0.50000000  -0.00000000  0.50000000  1
  Sb  Sb0  1  0.50000000  -0.00000000  -0.00000000  1
  Sb  Sb1  1  -0.00000000  0.50000000  0.50000000  1
  O  O0  1  0.23866992  0.19982875  0.95744075  1
  O  O1  1  0.26081213  0.70320764  0.52583790  1
  O  O2  1  0.76133008  0.80017125  0.04255925  1
  O  O3  1  0.73918787  0.29679236  0.47416210  1
  O  O4  1  0.29643995  0.74032030  0.96595494  1
  O  O5  1  0.19443212  0.23287010  0.54053377  1
  O  O6  1  0.70356005  0.25967970  0.03404506  1
  O  O7  1  0.80556788  0.76712990  0.45946623  1
  O  O8  1  0.42157363  0.99802068  0.23036096  1
  O  O9  1  0.05704677  0.46593266  0.26911546  1
  O  O10  1  0.57842637  0.00197932  0.76963904  1
  O  O11  1  0.94295323  0.53406734  0.73088454  1
loop_
_geom_bond_atom_site_label_1
_geom_bond_atom_site_label_2
_geom_bond_distance
_geom_bond_site_symmetry_2
Ba0 O6 2.716676 1_555
Ba0 O9 2.735903 1_555
Ba0 O3 2.746301 1_555
Ba0 O2 2.920536 1_555
Ba0 O8 2.951468 1_555
Ba0 O7 2.955774 1_555
Ba0 O1 3.003685 1_555
Ba0 O4 3.048632 1_554
Ba0 O8 3.211938 1_545
Ba1 O4 2.716676 1_555
Ba1 O11 2.735903 1_555
Ba1 O1 2.746301 1_555
Ba1 O0 2.920536 1_555
Ba1 O10 2.951468 1_555
Ba1 O5 2.955774 1_555
Ba1 O3 3.003685 1_555
Ba1 O6 3.048632 1_556
Ba1 O10 3.211938 1_565
Nd0 O4 2.333597 1_554
Nd0 O6 2.333597 1_455
Nd0 O11 2.339472 1_454
Nd0 O9 2.339472 1_555
Nd0 O2 2.355941 1_455
Nd0 O0 2.355941 1_554
Nd1 O1 2.323721 1_545
Nd1 O3 2.323721 1_555
Nd1 O8 2.355746 1_545
Nd1 O10 2.355746 1_555
Nd1 O5 2.356843 1_555
Nd1 O7 2.356843 1_545
O0 Sb0 2.027839 1_556
O0 Sr1 2.667468 1_545
O0 Sr0 3.117669 1_456
O1 Sb1 2.014655 1_555
O1 Sr1 2.936666 1_555
O2 Sb0 2.027839 1_565
O2 Sr0 2.667468 1_565
O2 Sr1 3.117669 1_654
O3 Sb1 2.014655 1_655
O3 Sr0 2.936666 1_555
O4 Sb0 2.020163 1_566
O4 Sr1 2.921436 1_555
O5 Sb1 2.035253 1_555
O5 Sr1 2.652470 1_545
O5 Sr0 3.002870 1_455
O6 Sb0 2.020163 1_555
O6 Sr0 2.921436 1_555
O7 Sb1 2.035253 1_655
O7 Sr0 2.652470 1_565
O7 Sr1 3.002870 1_655
O8 Sb0 2.032769 1_565
O8 Sr0 2.606211 1_465
O9 Sb1 2.019813 1_555
O9 Sr0 2.677671 1_455
O10 Sb0 2.032769 1_556
O10 Sr1 2.606211 1_645
O11 Sb1 2.019813 1_655
O11 Sr1 2.677671 1_655
