# generated using pymatgen
data_Ta2CrN3
_symmetry_space_group_name_H-M   'P 1'
_cell_length_a   6.23816081
_cell_length_b   2.86722737
_cell_length_c   11.56284098
_cell_angle_alpha   90.00000091
_cell_angle_beta   22.06125418
_cell_angle_gamma   76.71390837
_symmetry_Int_Tables_number   1
_chemical_formula_structural   Ta2CrN3
_chemical_formula_sum   'Ta2 Cr1 N3'
_cell_volume   61.44174590
_cell_formula_units_Z   1
loop_
 _symmetry_equiv_pos_site_id
 _symmetry_equiv_pos_as_xyz
  1  'x, y, z'
loop_
 _atom_site_type_symbol
 _atom_site_label
 _atom_site_symmetry_multiplicity
 _atom_site_fract_x
 _atom_site_fract_y
 _atom_site_fract_z
 _atom_site_occupancy
  Ta  Ta0  1  0.00000000  0.00000000  0.64849700  1
  Ta  Ta1  1  0.00000000  0.00000000  0.35150300  1
  Cr  Cr0  1  0.00000000  0.00000000  0.00000000  1
  N  N0  1  0.00000000  0.50000000  0.50000000  1
  N  N1  1  0.00000000  0.00000000  0.82859700  1
  N  N2  1  0.00000000  0.00000000  0.17140300  1
loop_
_geom_bond_atom_site_label_1
_geom_bond_atom_site_label_2
_geom_bond_distance
_geom_bond_site_symmetry_2
Cr0 N0 1.853262 1_455
Cr0 N0 1.853262 1_644
Cr0 N1 1.981906 1_554
Cr0 N2 1.981906 1_555
N0 Ta1 2.236850 1_555
N0 Ta0 2.236850 1_565
N0 Ta1 2.236850 1_565
N0 Ta0 2.236850 1_555
N1 Ta0 2.082468 1_555
N1 Ta1 2.357961 1_655
N1 Ta1 2.357961 1_456
N1 Ta1 2.357961 1_645
N1 Ta1 2.357961 1_466
N2 Ta1 2.082468 1_555
N2 Ta0 2.357961 1_455
N2 Ta0 2.357961 1_654
N2 Ta0 2.357961 1_465
N2 Ta0 2.357961 1_644
