# generated using pymatgen
data_KCaMg6
_symmetry_space_group_name_H-M   'P 1'
_cell_length_a   5.50074600
_cell_length_b   6.88633700
_cell_length_c   12.06657600
_cell_angle_alpha   90.00000000
_cell_angle_beta   90.00000000
_cell_angle_gamma   90.00000000
_symmetry_Int_Tables_number   1
_chemical_formula_structural   KCaMg6
_chemical_formula_sum   'K2 Ca2 Mg12'
_cell_volume   457.08178675
_cell_formula_units_Z   2
loop_
 _symmetry_equiv_pos_site_id
 _symmetry_equiv_pos_as_xyz
  1  'x, y, z'
loop_
 _atom_site_type_symbol
 _atom_site_label
 _atom_site_symmetry_multiplicity
 _atom_site_fract_x
 _atom_site_fract_y
 _atom_site_fract_z
 _atom_site_occupancy
  K  K0  1  0.50000000  0.50000000  0.16197300  1
  K  K1  1  0.50000000  0.00000000  0.66197300  1
  Ca  Ca0  1  0.00000000  0.50000000  0.34020800  1
  Ca  Ca1  1  0.00000000  0.00000000  0.84020800  1
  Mg  Mg0  1  0.00000000  0.75747100  0.08083900  1
  Mg  Mg1  1  0.00000000  0.24252900  0.08083900  1
  Mg  Mg2  1  0.00000000  0.00000000  0.33373700  1
  Mg  Mg3  1  0.50000000  0.24780800  0.41779900  1
  Mg  Mg4  1  0.50000000  0.75219200  0.41779900  1
  Mg  Mg5  1  0.50000000  0.00000000  0.16680600  1
  Mg  Mg6  1  0.00000000  0.25747100  0.58083900  1
  Mg  Mg7  1  0.00000000  0.74252900  0.58083900  1
  Mg  Mg8  1  0.00000000  0.50000000  0.83373700  1
  Mg  Mg9  1  0.50000000  0.74780800  0.91779900  1
  Mg  Mg10  1  0.50000000  0.25219200  0.91779900  1
  Mg  Mg11  1  0.50000000  0.50000000  0.66680600  1
loop_
_geom_bond_atom_site_label_1
_geom_bond_atom_site_label_2
_geom_bond_distance
_geom_bond_site_symmetry_2
K0 Mg9 3.404857 1_554
K0 Mg10 3.404857 1_554
K0 Mg1 3.415648 1_655
K0 Mg0 3.415648 1_655
K0 Mg1 3.415648 1_555
K0 Mg0 3.415648 1_555
K0 Mg5 3.443662 1_555
K0 Mg5 3.443662 1_565
K0 Mg3 3.541931 1_555
K0 Mg4 3.541931 1_555
K1 Mg4 3.404857 1_545
K1 Mg3 3.404857 1_555
K1 Mg7 3.415648 1_645
K1 Mg6 3.415648 1_555
K1 Mg6 3.415648 1_655
K1 Mg7 3.415648 1_545
K1 Mg11 3.443662 1_545
K1 Mg11 3.443662 1_555
K1 Mg9 3.541931 1_545
K1 Mg10 3.541931 1_555
Ca0 Mg6 3.349657 1_555
Ca0 Mg7 3.349657 1_555
Ca0 Mg3 3.384846 1_555
Ca0 Mg4 3.384846 1_555
Ca0 Mg3 3.384846 1_455
Ca0 Mg4 3.384846 1_455
Ca0 Mg2 3.444054 1_555
Ca0 Mg2 3.444054 1_565
Ca0 K0 3.491418 1_555
Ca0 K0 3.491418 1_455
Ca0 Mg1 3.597032 1_555
Ca0 Mg0 3.597032 1_555
Ca1 Mg0 3.349657 1_546
Ca1 Mg1 3.349657 1_556
Ca1 Mg9 3.384846 1_445
Ca1 Mg9 3.384846 1_545
Ca1 Mg10 3.384846 1_555
Ca1 Mg10 3.384846 1_455
Ca1 Mg8 3.444054 1_555
Ca1 Mg8 3.444054 1_545
Ca1 K1 3.491418 1_455
Ca1 K1 3.491418 1_555
Ca1 Mg6 3.597032 1_555
Ca1 Mg7 3.597032 1_545
Mg0 Mg1 3.340273 1_565
Mg0 Mg5 3.380822 1_465
Mg0 Mg5 3.380822 1_565
Mg0 Mg9 3.382216 1_554
Mg0 Mg9 3.382216 1_454
Mg0 Mg8 3.469010 1_554
Mg0 Mg2 3.478749 1_565
Mg0 Mg1 3.546064 1_555
Mg1 Mg5 3.380822 1_455
Mg1 Mg5 3.380822 1_555
Mg1 Mg10 3.382216 1_454
Mg1 Mg10 3.382216 1_554
Mg1 Mg8 3.469010 1_554
Mg1 Mg2 3.478749 1_555
Mg2 Mg3 3.391982 1_455
Mg2 Mg4 3.391982 1_445
Mg2 Mg3 3.391982 1_555
Mg2 Mg4 3.391982 1_545
Mg2 Mg5 3.409091 1_455
Mg2 Mg5 3.409091 1_555
Mg2 Mg7 3.469010 1_545
Mg2 Mg6 3.469010 1_555
Mg3 Mg6 3.382216 1_555
Mg3 Mg6 3.382216 1_655
Mg3 Mg4 3.412979 1_545
Mg3 Mg4 3.473358 1_555
Mg3 Mg5 3.476303 1_555
Mg4 Mg7 3.382216 1_655
Mg4 Mg7 3.382216 1_555
Mg4 Mg5 3.476303 1_565
Mg5 Mg9 3.470453 1_544
Mg6 Mg7 3.340273 1_555
Mg6 Mg8 3.478749 1_555
Mg6 Mg7 3.546064 1_545
Mg7 Mg8 3.478749 1_555
Mg8 Mg9 3.391982 1_555
Mg8 Mg9 3.391982 1_455
Mg10 Mg8 3.391982 1_555
Mg10 Mg8 3.391982 1_655
Mg10 Mg9 3.412979 1_555
Mg10 Mg5 3.470453 1_556
Mg10 Mg9 3.473358 1_545
Mg10 Mg11 3.476303 1_555
Mg11 Mg7 3.380822 1_555
Mg11 Mg7 3.380822 1_655
Mg11 Mg6 3.380822 1_655
Mg11 Mg6 3.380822 1_555
Mg11 Mg8 3.409091 1_655
Mg11 Mg8 3.409091 1_555
Mg11 Mg3 3.470453 1_555
Mg11 Mg4 3.470453 1_555
Mg11 Mg9 3.476303 1_555
