# generated using pymatgen
data_Sr2V2Se3O13
_symmetry_space_group_name_H-M   'P 1'
_cell_length_a   9.93660300
_cell_length_b   8.57845200
_cell_length_c   15.06162662
_cell_angle_alpha   83.09482779
_cell_angle_beta   90.00000000
_cell_angle_gamma   90.00000000
_symmetry_Int_Tables_number   1
_chemical_formula_structural   Sr2V2Se3O13
_chemical_formula_sum   'Sr8 V8 Se12 O52'
_cell_volume   1274.55066166
_cell_formula_units_Z   4
loop_
 _symmetry_equiv_pos_site_id
 _symmetry_equiv_pos_as_xyz
  1  'x, y, z'
loop_
 _atom_site_type_symbol
 _atom_site_label
 _atom_site_symmetry_multiplicity
 _atom_site_fract_x
 _atom_site_fract_y
 _atom_site_fract_z
 _atom_site_occupancy
  Sr  Sr0  1  0.68267900  0.85651800  0.04109900  1
  Sr  Sr1  1  0.18267900  0.64348200  0.95890100  1
  Sr  Sr2  1  0.31732100  0.14348200  0.95890100  1
  Sr  Sr3  1  0.81732100  0.35651800  0.04109900  1
  Sr  Sr4  1  0.77976400  0.90577900  0.35351800  1
  Sr  Sr5  1  0.27976400  0.59422100  0.64648200  1
  Sr  Sr6  1  0.22023600  0.09422100  0.64648200  1
  Sr  Sr7  1  0.72023600  0.40577900  0.35351800  1
  V  V0  1  0.00771100  0.95879900  0.13435400  1
  V  V1  1  0.50771100  0.54120100  0.86564600  1
  V  V2  1  0.99228900  0.04120100  0.86564600  1
  V  V3  1  0.49228900  0.45879900  0.13435400  1
  V  V4  1  0.55284300  0.90413600  0.58355300  1
  V  V5  1  0.05284300  0.59586400  0.41644700  1
  V  V6  1  0.44715700  0.09586400  0.41644700  1
  V  V7  1  0.94715700  0.40413600  0.58355300  1
  Se  Se0  1  0.45750300  0.90307000  0.78860800  1
  Se  Se1  1  0.95750300  0.59693000  0.21139200  1
  Se  Se2  1  0.54249700  0.09693000  0.21139200  1
  Se  Se3  1  0.04249700  0.40307000  0.78860800  1
  Se  Se4  1  0.45777600  0.70294200  0.41918600  1
  Se  Se5  1  0.95777700  0.79705800  0.58081400  1
  Se  Se6  1  0.54222400  0.29705800  0.58081400  1
  Se  Se7  1  0.04222400  0.20294200  0.41918600  1
  Se  Se8  1  0.32417200  0.79101800  0.14594200  1
  Se  Se9  1  0.82417200  0.70898200  0.85405800  1
  Se  Se10  1  0.67582800  0.20898200  0.85405800  1
  Se  Se11  1  0.17582800  0.29101800  0.14594200  1
  O  O0  1  0.98136100  0.99098700  0.23902900  1
  O  O1  1  0.48136100  0.50901300  0.76097100  1
  O  O2  1  0.01863900  0.00901300  0.76097100  1
  O  O3  1  0.51863900  0.49098700  0.23902900  1
  O  O4  1  0.89310400  0.06278200  0.06809900  1
  O  O5  1  0.39310400  0.43721800  0.93190100  1
  O  O6  1  0.10689600  0.93721800  0.93190100  1
  O  O7  1  0.60689600  0.56278200  0.06809900  1
  O  O8  1  0.33864200  0.60455800  0.10819700  1
  O  O9  1  0.83864200  0.89544200  0.89180300  1
  O  O10  1  0.66135800  0.39544200  0.89180300  1
  O  O11  1  0.16135800  0.10455800  0.10819700  1
  O  O12  1  0.40120300  0.73802100  0.86426300  1
  O  O13  1  0.90120300  0.76197900  0.13573700  1
  O  O14  1  0.59879700  0.26197900  0.13573700  1
  O  O15  1  0.09879700  0.23802100  0.86426300  1
  O  O16  1  0.15674100  0.80465100  0.11067600  1
  O  O17  1  0.65674100  0.69534900  0.88932400  1
  O  O18  1  0.84325900  0.19534900  0.88932400  1
  O  O19  1  0.34325900  0.30465100  0.11067600  1
  O  O20  1  0.66568700  0.81046800  0.65000100  1
  O  O21  1  0.16568700  0.68953200  0.34999900  1
  O  O22  1  0.33431300  0.18953200  0.34999900  1
  O  O23  1  0.83431300  0.31046800  0.65000100  1
  O  O24  1  0.63176300  0.96755600  0.48462400  1
  O  O25  1  0.13176300  0.53244400  0.51537600  1
  O  O26  1  0.36823700  0.03244400  0.51537600  1
  O  O27  1  0.86823700  0.46755600  0.48462400  1
  O  O28  1  0.44590600  0.89474400  0.36465200  1
  O  O29  1  0.94590600  0.60525600  0.63534800  1
  O  O30  1  0.55409400  0.10525600  0.63534800  1
  O  O31  1  0.05409400  0.39474400  0.36465200  1
  O  O32  1  0.45705400  0.72750200  0.53502800  1
  O  O33  1  0.95705400  0.77249800  0.46497200  1
  O  O34  1  0.54294600  0.27249800  0.46497200  1
  O  O35  1  0.04294600  0.22750200  0.53502800  1
  O  O36  1  0.39339300  0.85357400  0.68749700  1
  O  O37  1  0.89339300  0.64642600  0.31250300  1
  O  O38  1  0.60660700  0.14642600  0.31250300  1
  O  O39  1  0.10660700  0.35357400  0.68749700  1
  O  O40  1  0.34260400  0.04022800  0.80942600  1
  O  O41  1  0.84260400  0.45977200  0.19057400  1
  O  O42  1  0.65739600  0.95977200  0.19057400  1
  O  O43  1  0.15739600  0.54022800  0.80942600  1
  O  O44  1  0.40998400  0.90245800  0.06305800  1
  O  O45  1  0.90998400  0.59754200  0.93694200  1
  O  O46  1  0.59001600  0.09754200  0.93694200  1
  O  O47  1  0.09001600  0.40245800  0.06305800  1
  O  O48  1  0.62073900  0.66395100  0.39801800  1
  O  O49  1  0.12073900  0.83604900  0.60198200  1
  O  O50  1  0.37926100  0.33604900  0.60198200  1
  O  O51  1  0.87926100  0.16395100  0.39801800  1
loop_
_geom_bond_atom_site_label_1
_geom_bond_atom_site_label_2
_geom_bond_distance
_geom_bond_site_symmetry_2
O0 V0 1.653804 1_655
O0 Sr4 2.686541 1_555
O1 V1 1.653804 1_555
O1 Sr5 2.686541 1_555
O2 V2 1.653804 1_455
O2 Sr6 2.686541 1_555
O3 V3 1.653804 1_555
O3 Sr7 2.686541 1_555
O4 V0 1.695389 1_645
O4 Sr3 2.614464 1_555
O4 Sr0 2.800208 1_545
O5 V1 1.695389 1_555
O5 Sr2 2.614464 1_555
O5 Sr1 2.800208 1_555
O6 V2 1.695389 1_465
O6 Sr1 2.614464 1_555
O6 Sr2 2.800208 1_565
O7 V3 1.695389 1_555
O7 Sr0 2.614464 1_555
O7 Sr3 2.800208 1_555
O8 Se8 1.766647 1_555
O8 V3 1.982707 1_555
O8 Sr1 2.718279 1_554
O9 Se9 1.766647 1_555
O9 V2 1.982707 1_565
O9 Sr0 2.718279 1_556
O10 Se10 1.766647 1_555
O10 V1 1.982707 1_555
O10 Sr3 2.718279 1_556
O11 Se11 1.766647 1_555
O11 V0 1.982707 1_545
O11 Sr2 2.718279 1_554
O12 Se0 1.796700 1_555
O12 V1 1.990670 1_555
O12 Sr1 2.669540 1_555
O13 Se1 1.796700 1_555
O13 V0 1.990670 1_655
O13 Sr0 2.669540 1_555
O14 Se2 1.796700 1_555
O14 V3 1.990670 1_555
O14 Sr3 2.669540 1_555
O15 Se3 1.796700 1_555
O15 V2 1.990670 1_455
O15 Sr2 2.669540 1_555
O16 Se8 1.746069 1_555
O16 V0 2.045022 1_555
O16 Sr1 2.821988 1_554
O17 Se9 1.746069 1_555
O17 V1 2.045022 1_555
O17 Sr0 2.821988 1_556
O18 Se10 1.746069 1_555
O18 V2 2.045022 1_555
O18 Sr3 2.821988 1_556
O19 Se11 1.746069 1_555
O19 V3 2.045022 1_555
O19 Sr2 2.821988 1_554
O20 V4 1.646572 1_555
O21 V5 1.646572 1_555
O22 V6 1.646572 1_555
O23 V7 1.646572 1_555
O24 V4 1.713541 1_555
O24 V6 2.314959 1_565
O24 Sr4 2.567984 1_555
O25 V5 1.713541 1_555
O25 V7 2.314959 1_455
O25 Sr5 2.567984 1_555
O26 V6 1.713541 1_555
O26 V4 2.314959 1_545
O26 Sr6 2.567984 1_555
O27 V7 1.713541 1_555
O27 V5 2.314959 1_655
O27 Sr7 2.567984 1_555
O28 Se4 1.752377 1_555
O28 V6 1.977125 1_565
O29 Se5 1.752377 1_555
O29 V7 1.977125 1_555
O30 Se6 1.752377 1_555
O30 V4 1.977125 1_545
O31 Se7 1.752377 1_555
O31 V5 1.977125 1_555
O32 Se4 1.782428 1_555
O32 V4 2.000595 1_555
O32 Sr5 2.601373 1_555
O33 Se5 1.782428 1_555
O33 V5 2.000595 1_655
O33 Sr4 2.601373 1_555
O34 Se6 1.782428 1_555
O34 V6 2.000595 1_555
O34 Sr7 2.601373 1_555
O35 Se7 1.782428 1_555
O35 V7 2.000595 1_455
O35 Sr6 2.601373 1_555
O36 Se0 1.749512 1_555
O36 V4 2.232968 1_555
O36 Sr5 2.633796 1_555
O36 Sr6 2.701309 1_565
O37 Se1 1.749512 1_555
O37 V5 2.232968 1_655
O37 Sr4 2.633796 1_555
O37 Sr7 2.701309 1_555
O38 Se2 1.749512 1_555
O38 V6 2.232968 1_555
O38 Sr7 2.633796 1_555
O38 Sr4 2.701309 1_545
O39 Se3 1.749512 1_555
O39 V7 2.232968 1_455
O39 Sr6 2.633796 1_555
O39 Sr5 2.701309 1_555
O40 Se0 1.695557 1_545
O40 Sr2 2.528972 1_555
O40 Sr6 2.728145 1_555
O41 Se1 1.695557 1_555
O41 Sr3 2.528972 1_555
O41 Sr7 2.728145 1_555
O42 Se2 1.695557 1_565
O42 Sr0 2.528972 1_555
O42 Sr4 2.728145 1_555
O43 Se3 1.695557 1_555
O43 Sr1 2.528972 1_555
O43 Sr5 2.728145 1_555
O44 Se8 1.706583 1_555
O44 Sr2 2.608434 1_564
O44 Sr0 2.763749 1_555
O45 Se9 1.706583 1_555
O45 Sr3 2.608434 1_556
O45 Sr1 2.763749 1_655
O46 Se10 1.706583 1_555
O46 Sr0 2.608434 1_546
O46 Sr2 2.763749 1_555
O47 Se11 1.706583 1_555
O47 Sr1 2.608434 1_554
O47 Sr3 2.763749 1_455
O48 Se4 1.691537 1_555
O48 Sr7 2.586228 1_555
O48 Sr4 2.629718 1_555
O49 Se5 1.691528 1_455
O49 Sr6 2.586228 1_565
O49 Sr5 2.629718 1_555
O50 Se6 1.691537 1_555
O50 Sr5 2.586228 1_555
O50 Sr6 2.629718 1_555
O51 Se7 1.691537 1_655
O51 Sr4 2.586228 1_545
O51 Sr7 2.629718 1_555
