# generated using pymatgen
data_Ti2N2O
_symmetry_space_group_name_H-M   'P 1'
_cell_length_a   8.21402500
_cell_length_b   8.22768947
_cell_length_c   8.23181676
_cell_angle_alpha   109.55984444
_cell_angle_beta   109.42252621
_cell_angle_gamma   109.34800533
_symmetry_Int_Tables_number   1
_chemical_formula_structural   Ti2N2O
_chemical_formula_sum   'Ti16 N16 O8'
_cell_volume   428.69869567
_cell_formula_units_Z   8
loop_
 _symmetry_equiv_pos_site_id
 _symmetry_equiv_pos_as_xyz
  1  'x, y, z'
loop_
 _atom_site_type_symbol
 _atom_site_label
 _atom_site_symmetry_multiplicity
 _atom_site_fract_x
 _atom_site_fract_y
 _atom_site_fract_z
 _atom_site_occupancy
  Ti  Ti0  1  0.98789100  0.99116800  0.51858100  1
  Ti  Ti1  1  0.76335000  0.96893300  0.28700600  1
  Ti  Ti2  1  0.95586700  0.70606100  0.25083600  1
  Ti  Ti3  1  0.54698300  0.78712000  0.75655300  1
  Ti  Ti4  1  0.21429300  0.26760900  0.03294900  1
  Ti  Ti5  1  0.70197700  0.25252800  0.53547500  1
  Ti  Ti6  1  0.51479800  0.50405200  0.48641500  1
  Ti  Ti7  1  0.48887200  0.99341200  0.00889000  1
  Ti  Ti8  1  0.26270500  0.55488600  0.20432300  1
  Ti  Ti9  1  0.99822600  0.50250100  0.98873300  1
  Ti  Ti10  1  0.74339300  0.45568100  0.79892100  1
  Ti  Ti11  1  0.28164600  0.73673500  0.46469100  1
  Ti  Ti12  1  0.79503400  0.74593000  0.96372000  1
  Ti  Ti13  1  0.04522500  0.29349300  0.74662700  1
  Ti  Ti14  1  0.45402500  0.20604700  0.24812400  1
  Ti  Ti15  1  0.23960600  0.03191900  0.70349600  1
  N  N0  1  0.94985300  0.22217300  0.04292100  1
  N  N1  1  0.77323500  0.04950300  0.49003100  1
  N  N2  1  0.53960300  0.76833100  0.00943900  1
  N  N3  1  0.27946400  0.53899900  0.94919000  1
  N  N4  1  0.73464200  0.50733400  0.53943800  1
  N  N5  1  0.26452500  0.48828900  0.45893100  1
  N  N6  1  0.76445200  0.72321000  0.72503200  1
  N  N7  1  0.22582700  0.77715800  0.23215800  1
  N  N8  1  0.72369300  0.45564100  0.05428700  1
  N  N9  1  0.99399400  0.04496800  0.73024300  1
  N  N10  1  0.45713400  0.23124000  0.99344200  1
  N  N11  1  0.04065000  0.54995700  0.72463500  1
  N  N12  1  0.72562600  0.73611200  0.22613700  1
  N  N13  1  0.22614000  0.95186100  0.50844800  1
  N  N14  1  0.51107200  0.27443000  0.45135400  1
  N  N15  1  0.05473000  0.77550100  0.95688100  1
  O  O0  1  0.48843700  0.72789200  0.54761700  1
  O  O1  1  0.27509200  0.27134600  0.77532300  1
  O  O2  1  0.95807400  0.45106000  0.27589400  1
  O  O3  1  0.00770700  0.95621900  0.26888600  1
  O  O4  1  0.77469600  0.22409500  0.76984600  1
  O  O5  1  0.23341100  0.27246300  0.27274400  1
  O  O6  1  0.45497200  0.99799900  0.77662600  1
  O  O7  1  0.54908000  0.00614100  0.22515800  1
loop_
_geom_bond_atom_site_label_1
_geom_bond_atom_site_label_2
_geom_bond_distance
_geom_bond_site_symmetry_2
N0 Ti4 2.113212 1_655
N1 Ti1 1.539943 1_545
N1 Ti5 1.909953 1_555
N1 Ti0 1.937813 1_545
N1 Ti13 2.129186 1_655
N2 Ti1 1.998670 1_555
N2 Ti7 2.029500 1_555
N2 Ti3 2.157380 1_554
N2 Ti12 2.304917 1_554
N3 Ti13 1.896936 1_555
N3 Ti8 2.113597 1_556
N4 Ti6 1.699344 1_555
N4 N6 1.787420 1_555
N4 Ti5 2.010941 1_555
N4 Ti10 2.296585 1_555
N4 Ti14 2.401256 1_555
N5 O5 1.784398 1_555
N5 O0 1.882255 1_555
N5 Ti6 1.946401 1_555
N5 Ti11 1.985121 1_555
N5 Ti8 2.333828 1_555
N5 Ti3 2.415964 1_555
N6 Ti12 1.831208 1_555
N6 Ti6 1.953029 1_555
N6 Ti3 2.091402 1_555
N7 Ti8 1.902988 1_555
N7 Ti11 1.982046 1_555
N7 Ti9 2.072260 1_454
N7 Ti2 2.170351 1_455
N8 Ti2 1.900546 1_555
N8 Ti10 2.161429 1_554
N9 Ti0 1.626366 1_545
N9 Ti13 1.893110 1_655
N9 Ti15 2.133841 1_655
N9 Ti4 2.141874 1_656
N10 Ti15 2.044505 1_555
N10 Ti7 2.096588 1_546
N10 Ti14 2.182197 1_556
N10 Ti4 2.221691 1_556
N11 Ti13 2.188729 1_555
N11 Ti9 2.445863 1_455
N11 Ti5 2.491754 1_455
N12 Ti1 1.696253 1_555
N12 Ti2 1.940850 1_555
N13 Ti15 1.466125 1_565
N13 Ti11 1.920293 1_555
N13 Ti0 2.109786 1_455
N13 Ti2 2.130248 1_455
N14 Ti14 1.417250 1_555
N14 Ti5 1.587307 1_555
N14 Ti6 1.801178 1_555
N14 N4 1.850007 1_555
N15 Ti12 2.087543 1_455
N15 Ti9 2.261394 1_455
O0 Ti3 1.469799 1_555
O0 Ti11 1.643311 1_555
O0 Ti6 1.846084 1_555
O0 Ti8 2.350106 1_555
O1 Ti15 1.743616 1_555
O1 Ti13 1.901109 1_555
O2 Ti2 2.181115 1_555
O2 Ti11 2.381501 1_655
O3 Ti2 1.900552 1_455
O3 Ti0 2.047387 1_455
O3 Ti1 2.095149 1_455
O3 Ti12 2.127024 1_454
O4 Ti5 1.939609 1_555
O4 Ti10 1.953001 1_555
O4 Ti9 2.028344 1_555
O4 Ti13 2.194368 1_655
O5 Ti4 1.913016 1_555
O5 Ti6 2.049540 1_555
O5 Ti14 2.109439 1_555
O6 Ti15 1.816892 1_565
O6 Ti7 1.853574 1_556
O6 Ti3 2.090186 1_555
O6 Ti11 2.255257 1_555
O7 Ti7 1.637141 1_545
O7 Ti1 1.820997 1_545
O7 Ti14 2.022748 1_555
O7 Ti5 2.219043 1_555
