# generated using pymatgen
data_Ba(BO4)2
_symmetry_space_group_name_H-M   'P 1'
_cell_length_a   16.28499000
_cell_length_b   8.09882900
_cell_length_c   11.65237173
_cell_angle_alpha   60.54293501
_cell_angle_beta   90.00000000
_cell_angle_gamma   90.00000000
_symmetry_Int_Tables_number   1
_chemical_formula_structural   Ba(BO4)2
_chemical_formula_sum   'Ba8 B16 O64'
_cell_volume   1338.14999721
_cell_formula_units_Z   8
loop_
 _symmetry_equiv_pos_site_id
 _symmetry_equiv_pos_as_xyz
  1  'x, y, z'
loop_
 _atom_site_type_symbol
 _atom_site_label
 _atom_site_symmetry_multiplicity
 _atom_site_fract_x
 _atom_site_fract_y
 _atom_site_fract_z
 _atom_site_occupancy
  Ba  Ba0  1  0.32842400  0.00093300  0.73239500  1
  Ba  Ba1  1  0.17157600  0.00093300  0.23239500  1
  Ba  Ba2  1  0.67157600  0.99906700  0.26760500  1
  Ba  Ba3  1  0.82842400  0.99906700  0.76760500  1
  Ba  Ba4  1  0.08970400  0.47122100  0.76825600  1
  Ba  Ba5  1  0.41029600  0.47122100  0.26825600  1
  Ba  Ba6  1  0.91029600  0.52877900  0.23174400  1
  Ba  Ba7  1  0.58970400  0.52877900  0.73174400  1
  B  B0  1  0.51106100  0.77706800  0.92447100  1
  B  B1  1  0.98893900  0.77706800  0.42447100  1
  B  B2  1  0.48893900  0.22293200  0.07552900  1
  B  B3  1  0.01106100  0.22293200  0.57552900  1
  B  B4  1  0.47085500  0.79522700  0.41785100  1
  B  B5  1  0.02914500  0.79522700  0.91785100  1
  B  B6  1  0.52914500  0.20477300  0.58214900  1
  B  B7  1  0.97085500  0.20477300  0.08214900  1
  B  B8  1  0.23572400  0.71004900  0.05487600  1
  B  B9  1  0.26427600  0.71004900  0.55487600  1
  B  B10  1  0.76427600  0.28995100  0.94512400  1
  B  B11  1  0.73572400  0.28995100  0.44512400  1
  B  B12  1  0.28454900  0.25152000  0.93841300  1
  B  B13  1  0.21545100  0.25152000  0.43841300  1
  B  B14  1  0.71545100  0.74848000  0.06158700  1
  B  B15  1  0.78454900  0.74848000  0.56158700  1
  O  O0  1  0.07821400  0.25974100  0.63906600  1
  O  O1  1  0.42178600  0.25974100  0.13906600  1
  O  O2  1  0.92178600  0.74025900  0.36093400  1
  O  O3  1  0.57821400  0.74025900  0.86093400  1
  O  O4  1  0.48070100  0.31496100  0.93514800  1
  O  O5  1  0.01929900  0.31496100  0.43514800  1
  O  O6  1  0.51929900  0.68503900  0.06485200  1
  O  O7  1  0.98070100  0.68503900  0.56485200  1
  O  O8  1  0.43452200  0.69079400  0.91180100  1
  O  O9  1  0.06547800  0.69079400  0.41180100  1
  O  O10  1  0.56547800  0.30920600  0.08819900  1
  O  O11  1  0.93452200  0.30920600  0.58819900  1
  O  O12  1  0.48221100  0.97030700  0.86302100  1
  O  O13  1  0.01778900  0.97030700  0.36302100  1
  O  O14  1  0.51778900  0.02969300  0.13697900  1
  O  O15  1  0.98221100  0.02969300  0.63697900  1
  O  O16  1  0.51059100  0.00536700  0.64376500  1
  O  O17  1  0.98940900  0.00536700  0.14376500  1
  O  O18  1  0.48940900  0.99463300  0.35623500  1
  O  O19  1  0.01059100  0.99463300  0.85623500  1
  O  O20  1  0.44648900  0.27735400  0.57922500  1
  O  O21  1  0.05351100  0.27735400  0.07922500  1
  O  O22  1  0.55351100  0.72264600  0.42077500  1
  O  O23  1  0.94648900  0.72264600  0.92077500  1
  O  O24  1  0.45754900  0.70495500  0.55907800  1
  O  O25  1  0.04245100  0.70495500  0.05907800  1
  O  O26  1  0.54245100  0.29504500  0.44092200  1
  O  O27  1  0.95754900  0.29504500  0.94092200  1
  O  O28  1  0.40824500  0.71867600  0.37149800  1
  O  O29  1  0.09175500  0.71867600  0.87149800  1
  O  O30  1  0.59175500  0.28132400  0.62850200  1
  O  O31  1  0.90824500  0.28132400  0.12850200  1
  O  O32  1  0.24041900  0.51363100  0.61454900  1
  O  O33  1  0.25958100  0.51363100  0.11454900  1
  O  O34  1  0.75958100  0.48636900  0.38545100  1
  O  O35  1  0.74041900  0.48636900  0.88545100  1
  O  O36  1  0.31469200  0.75379900  0.63630800  1
  O  O37  1  0.18530800  0.75379900  0.13630800  1
  O  O38  1  0.68530800  0.24620100  0.36369200  1
  O  O39  1  0.81469200  0.24620100  0.86369200  1
  O  O40  1  0.28808100  0.80702200  0.41904300  1
  O  O41  1  0.21191900  0.80702200  0.91904300  1
  O  O42  1  0.71191900  0.19297800  0.58095700  1
  O  O43  1  0.78808100  0.19297800  0.08095700  1
  O  O44  1  0.31702300  0.77848600  0.07140200  1
  O  O45  1  0.18297700  0.77848600  0.57140200  1
  O  O46  1  0.68297700  0.22151400  0.92859800  1
  O  O47  1  0.81702300  0.22151400  0.42859800  1
  O  O48  1  0.19227100  0.17436300  0.57367900  1
  O  O49  1  0.30772900  0.17436300  0.07367900  1
  O  O50  1  0.80772900  0.82563700  0.42632100  1
  O  O51  1  0.69227100  0.82563700  0.92632100  1
  O  O52  1  0.33484900  0.24060100  0.84300400  1
  O  O53  1  0.16515100  0.24060100  0.34300400  1
  O  O54  1  0.66515100  0.75939900  0.15699600  1
  O  O55  1  0.83484900  0.75939900  0.65699600  1
  O  O56  1  0.20518700  0.17259900  0.92923500  1
  O  O57  1  0.29481300  0.17259900  0.42923500  1
  O  O58  1  0.79481300  0.82740100  0.07076500  1
  O  O59  1  0.70518700  0.82740100  0.57076500  1
  O  O60  1  0.24428100  0.44418800  0.39226800  1
  O  O61  1  0.25571900  0.44418800  0.89226800  1
  O  O62  1  0.75571900  0.55581200  0.60773200  1
  O  O63  1  0.74428100  0.55581200  0.10773200  1
loop_
_geom_bond_atom_site_label_1
_geom_bond_atom_site_label_2
_geom_bond_distance
_geom_bond_site_symmetry_2
Ba0 O41 2.727051 1_545
Ba0 O36 2.741107 1_545
Ba0 O48 2.784688 1_555
Ba0 O52 2.810736 1_555
Ba0 O20 2.822073 1_555
Ba0 O12 2.877345 1_545
Ba0 O8 2.915482 1_545
Ba0 O16 3.135607 1_555
Ba0 O57 3.143386 1_555
Ba1 O40 2.727051 1_545
Ba1 O37 2.741107 1_545
Ba1 O49 2.784688 1_555
Ba1 O53 2.810736 1_555
Ba1 O21 2.822073 1_555
Ba1 O13 2.877345 1_545
Ba1 O9 2.915482 1_545
Ba1 O17 3.135607 1_455
Ba1 O56 3.143386 1_554
Ba2 O43 2.727051 1_565
Ba2 O38 2.741107 1_565
Ba2 O50 2.784688 1_555
Ba2 O54 2.810736 1_555
Ba2 O22 2.822073 1_555
Ba2 O14 2.877345 1_565
Ba2 O10 2.915482 1_565
Ba2 O18 3.135607 1_555
Ba2 O59 3.143386 1_555
Ba3 O42 2.727051 1_565
Ba3 O39 2.741107 1_565
Ba3 O51 2.784688 1_555
Ba3 O55 2.810736 1_555
Ba3 O23 2.822073 1_555
Ba3 O15 2.877345 1_565
Ba3 O11 2.915482 1_565
Ba3 O19 3.135607 1_655
Ba3 O58 3.143386 1_556
Ba4 O7 2.780381 1_455
Ba4 O0 2.787563 1_555
Ba4 O29 2.799292 1_555
Ba4 O27 2.809284 1_455
Ba4 O45 2.854326 1_555
Ba4 O56 2.905608 1_555
Ba4 O32 2.957165 1_555
Ba4 O61 3.022266 1_555
Ba4 O21 3.216658 1_556
Ba5 O6 2.780381 1_555
Ba5 O1 2.787563 1_555
Ba5 O28 2.799292 1_555
Ba5 O26 2.809284 1_555
Ba5 O44 2.854326 1_555
Ba5 O57 2.905608 1_555
Ba5 O33 2.957165 1_555
Ba5 O60 3.022266 1_555
Ba5 O20 3.216658 1_555
Ba6 O5 2.780381 1_655
Ba6 O2 2.787563 1_555
Ba6 O31 2.799292 1_555
Ba6 O25 2.809284 1_655
Ba6 O47 2.854326 1_555
Ba6 O58 2.905608 1_555
Ba6 O34 2.957165 1_555
Ba6 O63 3.022266 1_555
Ba6 O23 3.216658 1_554
Ba7 O4 2.780381 1_555
Ba7 O3 2.787563 1_555
Ba7 O30 2.799292 1_555
Ba7 O24 2.809284 1_555
Ba7 O46 2.854326 1_555
Ba7 O59 2.905608 1_555
Ba7 O35 2.957165 1_555
Ba7 O62 3.022266 1_555
Ba7 O22 3.216658 1_555
B0 O3 1.431783 1_555
B0 O6 1.431831 1_556
B0 O12 1.442406 1_555
B0 O8 1.471416 1_555
B1 O2 1.431783 1_555
B1 O7 1.431831 1_555
B1 O13 1.442406 1_655
B1 O9 1.471416 1_655
B2 O1 1.431783 1_555
B2 O4 1.431831 1_554
B2 O14 1.442406 1_555
B2 O10 1.471416 1_555
B3 O0 1.431783 1_555
B3 O5 1.431831 1_555
B3 O15 1.442406 1_455
B3 O11 1.471416 1_455
B4 O28 1.430049 1_555
B4 O18 1.440295 1_555
B4 O24 1.451289 1_555
B4 O22 1.462482 1_555
B5 O29 1.430049 1_555
B5 O19 1.440295 1_555
B5 O25 1.451289 1_556
B5 O23 1.462482 1_455
B6 O30 1.430049 1_555
B6 O16 1.440295 1_555
B6 O26 1.451289 1_555
B6 O20 1.462482 1_555
B7 O31 1.430049 1_555
B7 O17 1.440295 1_555
B7 O27 1.451289 1_554
B7 O21 1.462482 1_655
B8 O37 1.425015 1_555
B8 O41 1.431665 1_554
B8 O33 1.441191 1_555
B8 O44 1.483952 1_555
B9 O36 1.425015 1_555
B9 O40 1.431665 1_555
B9 O32 1.441191 1_555
B9 O45 1.483952 1_555
B10 O39 1.425015 1_555
B10 O43 1.431665 1_556
B10 O35 1.441191 1_555
B10 O46 1.483952 1_555
B11 O38 1.425015 1_555
B11 O42 1.431665 1_555
B11 O34 1.441191 1_555
B11 O47 1.483952 1_555
B12 O52 1.418261 1_555
B12 O49 1.431284 1_556
B12 O61 1.455727 1_555
B12 O56 1.468852 1_555
B13 O53 1.418261 1_555
B13 O48 1.431284 1_555
B13 O60 1.455727 1_555
B13 O57 1.468852 1_555
B14 O54 1.418261 1_555
B14 O51 1.431284 1_554
B14 O63 1.455727 1_555
B14 O58 1.468852 1_555
B15 O55 1.418261 1_555
B15 O50 1.431284 1_555
B15 O62 1.455727 1_555
B15 O59 1.468852 1_555
