# generated using pymatgen
data_MnSeO3
_symmetry_space_group_name_H-M   'P 1'
_cell_length_a   8.27751532
_cell_length_b   5.24718107
_cell_length_c   13.76165274
_cell_angle_alpha   81.27241742
_cell_angle_beta   90.00000000
_cell_angle_gamma   90.00000000
_symmetry_Int_Tables_number   1
_chemical_formula_structural   MnSeO3
_chemical_formula_sum   'Mn8 Se8 O24'
_cell_volume   590.79741054
_cell_formula_units_Z   8
loop_
 _symmetry_equiv_pos_site_id
 _symmetry_equiv_pos_as_xyz
  1  'x, y, z'
loop_
 _atom_site_type_symbol
 _atom_site_label
 _atom_site_symmetry_multiplicity
 _atom_site_fract_x
 _atom_site_fract_y
 _atom_site_fract_z
 _atom_site_occupancy
  Mn  Mn0  1  0.57622348  0.08069071  0.60179275  1
  Mn  Mn1  1  0.07622348  0.91930929  0.89820725  1
  Mn  Mn2  1  0.42377652  0.91930929  0.39820725  1
  Mn  Mn3  1  0.92377652  0.08069071  0.10179275  1
  Mn  Mn4  1  0.76599148  0.47155862  0.74984499  1
  Mn  Mn5  1  0.26599148  0.52844138  0.75015501  1
  Mn  Mn6  1  0.23400852  0.52844138  0.25015501  1
  Mn  Mn7  1  0.73400852  0.47155862  0.24984499  1
  Se  Se0  1  0.78631918  0.63502731  0.49652910  1
  Se  Se1  1  0.28631918  0.36497269  0.00347090  1
  Se  Se2  1  0.21368082  0.36497269  0.50347090  1
  Se  Se3  1  0.71368082  0.63502731  0.99652910  1
  Se  Se4  1  0.46456807  0.01317742  0.81461847  1
  Se  Se5  1  0.96456807  0.98682258  0.68538153  1
  Se  Se6  1  0.53543193  0.98682258  0.18538153  1
  Se  Se7  1  0.03543193  0.01317742  0.31461847  1
  O  O0  1  0.43552390  0.82865433  0.72363550  1
  O  O1  1  0.93552390  0.17134567  0.77636450  1
  O  O2  1  0.56447610  0.17134567  0.27636450  1
  O  O3  1  0.06447610  0.82865433  0.22363550  1
  O  O4  1  0.54577607  0.27062005  0.73877681  1
  O  O5  1  0.04577607  0.72937995  0.76122319  1
  O  O6  1  0.45422393  0.72937995  0.26122319  1
  O  O7  1  0.95422393  0.27062005  0.23877681  1
  O  O8  1  0.27594523  0.14490928  0.82348362  1
  O  O9  1  0.77594523  0.85509072  0.67651638  1
  O  O10  1  0.72405477  0.85509072  0.17651638  1
  O  O11  1  0.22405477  0.14490928  0.32348362  1
  O  O12  1  0.75582657  0.38015183  0.58962841  1
  O  O13  1  0.25582657  0.61984817  0.91037159  1
  O  O14  1  0.24417343  0.61984817  0.41037159  1
  O  O15  1  0.74417343  0.38015183  0.08962841  1
  O  O16  1  0.60787751  0.80735505  0.49834849  1
  O  O17  1  0.10787751  0.19264495  0.00165151  1
  O  O18  1  0.39212249  0.19264495  0.50165151  1
  O  O19  1  0.89212249  0.80735505  0.99834849  1
  O  O20  1  0.76760658  0.49252953  0.39589366  1
  O  O21  1  0.26760658  0.50747047  0.10410634  1
  O  O22  1  0.23239342  0.50747047  0.60410634  1
  O  O23  1  0.73239342  0.49252953  0.89589366  1
loop_
_geom_bond_atom_site_label_1
_geom_bond_atom_site_label_2
_geom_bond_distance
_geom_bond_site_symmetry_2
Mn0 O18 2.078668 1_555
Mn0 O12 2.151150 1_555
Mn0 O16 2.184456 1_545
Mn0 O9 2.195995 1_545
Mn0 O4 2.276084 1_555
Mn0 O0 2.289960 1_545
Mn1 O19 2.078668 1_455
Mn1 O13 2.151150 1_555
Mn1 O17 2.184456 1_566
Mn1 O8 2.195995 1_565
Mn1 O5 2.276084 1_555
Mn1 O1 2.289960 1_465
Mn2 O16 2.078668 1_555
Mn2 O14 2.151150 1_555
Mn2 O18 2.184456 1_565
Mn2 O11 2.195995 1_565
Mn2 O6 2.276084 1_555
Mn2 O2 2.289960 1_565
Mn3 O17 2.078668 1_655
Mn3 O15 2.151150 1_555
Mn3 O19 2.184456 1_544
Mn3 O10 2.195995 1_545
Mn3 O7 2.276084 1_555
Mn3 O3 2.289960 1_645
Mn4 O23 2.048451 1_555
Mn4 O1 2.099875 1_555
Mn4 O9 2.111592 1_555
Mn4 O4 2.122816 1_555
Mn4 O12 2.327958 1_555
Mn4 O5 2.698603 1_655
Mn5 O22 2.048451 1_555
Mn5 O0 2.099875 1_555
Mn5 O8 2.111592 1_555
Mn5 O5 2.122816 1_555
Mn5 O13 2.327958 1_555
Mn5 O4 2.698603 1_555
Mn6 O21 2.048451 1_555
Mn6 O3 2.099875 1_555
Mn6 O11 2.111592 1_555
Mn6 O6 2.122816 1_555
Mn6 O14 2.327958 1_555
Mn6 O7 2.698603 1_455
Mn7 O20 2.048451 1_555
Mn7 O2 2.099875 1_555
Mn7 O10 2.111592 1_555
Mn7 O7 2.122816 1_555
Mn7 O15 2.327958 1_555
Mn7 O6 2.698603 1_555
O0 Se4 1.711974 1_565
O1 Se5 1.711974 1_545
O2 Se6 1.711974 1_545
O3 Se7 1.711974 1_565
O4 Se4 1.714090 1_555
O5 Se5 1.714090 1_455
O6 Se6 1.714090 1_555
O7 Se7 1.714090 1_655
O8 Se4 1.719305 1_555
O9 Se5 1.719305 1_555
O10 Se6 1.719305 1_555
O11 Se7 1.719305 1_555
O12 Se0 1.724464 1_555
O13 Se1 1.724464 1_556
O14 Se2 1.724464 1_555
O15 Se3 1.724464 1_554
O16 Se0 1.734020 1_555
O17 Se1 1.734020 1_555
O18 Se2 1.734020 1_555
O19 Se3 1.734020 1_555
O20 Se0 1.677883 1_555
O21 Se1 1.677883 1_555
O22 Se2 1.677883 1_555
O23 Se3 1.677883 1_555
