# generated using pymatgen
data_PrSBr
_symmetry_space_group_name_H-M   'P 1'
_cell_length_a   6.98575979
_cell_length_b   7.14930374
_cell_length_c   13.87604657
_cell_angle_alpha   90.00000000
_cell_angle_beta   90.00000000
_cell_angle_gamma   90.00000000
_symmetry_Int_Tables_number   1
_chemical_formula_structural   PrSBr
_chemical_formula_sum   'Pr8 S8 Br8'
_cell_volume   693.01581466
_cell_formula_units_Z   8
loop_
 _symmetry_equiv_pos_site_id
 _symmetry_equiv_pos_as_xyz
  1  'x, y, z'
loop_
 _atom_site_type_symbol
 _atom_site_label
 _atom_site_symmetry_multiplicity
 _atom_site_fract_x
 _atom_site_fract_y
 _atom_site_fract_z
 _atom_site_occupancy
  Pr  Pr0  1  0.25842964  0.96747768  0.90740096  1
  Pr  Pr1  1  0.74157036  0.03252232  0.09259904  1
  Pr  Pr2  1  0.24157036  0.46747768  0.09259904  1
  Pr  Pr3  1  0.74157036  0.53252232  0.40740096  1
  Pr  Pr4  1  0.75842964  0.53252232  0.90740096  1
  Pr  Pr5  1  0.25842964  0.46747768  0.59259904  1
  Pr  Pr6  1  0.75842964  0.03252232  0.59259904  1
  Pr  Pr7  1  0.24157036  0.96747768  0.40740096  1
  S  S0  1  0.99862999  0.74119274  0.52415850  1
  S  S1  1  0.00137001  0.25880726  0.47584150  1
  S  S2  1  0.50137001  0.24119274  0.47584150  1
  S  S3  1  0.00137001  0.75880726  0.02415850  1
  S  S4  1  0.49862999  0.75880726  0.52415850  1
  S  S5  1  0.99862999  0.24119274  0.97584150  1
  S  S6  1  0.49862999  0.25880726  0.97584150  1
  S  S7  1  0.50137001  0.74119274  0.02415850  1
  Br  Br0  1  0.15772524  0.60914730  0.79286342  1
  Br  Br1  1  0.84227476  0.39085270  0.20713658  1
  Br  Br2  1  0.34227476  0.10914730  0.20713658  1
  Br  Br3  1  0.84227476  0.89085270  0.29286342  1
  Br  Br4  1  0.65772524  0.89085270  0.79286342  1
  Br  Br5  1  0.15772524  0.10914730  0.70713658  1
  Br  Br6  1  0.65772524  0.39085270  0.70713658  1
  Br  Br7  1  0.34227476  0.60914730  0.29286342  1
loop_
_geom_bond_atom_site_label_1
_geom_bond_atom_site_label_2
_geom_bond_distance
_geom_bond_site_symmetry_2
Pr0 S5 2.832861 1_465
Pr0 S6 2.838238 1_565
Pr0 S3 2.841687 1_556
Pr0 S7 2.849960 1_556
Pr1 S3 2.832861 1_645
Pr1 S7 2.838238 1_545
Pr1 S5 2.841687 1_554
Pr1 S6 2.849960 1_554
Pr2 S7 2.832861 1_555
Pr2 S3 2.838238 1_555
Pr2 S6 2.841687 1_554
Pr2 S5 2.849960 1_454
Pr3 S1 2.832861 1_655
Pr3 S2 2.838238 1_555
Pr3 S0 2.841687 1_555
Pr3 S4 2.849960 1_555
Pr4 S6 2.832861 1_555
Pr4 S5 2.838238 1_555
Pr4 S7 2.841687 1_556
Pr4 S3 2.849960 1_656
Pr5 S0 2.832861 1_455
Pr5 S4 2.838238 1_555
Pr5 S1 2.841687 1_555
Pr5 S2 2.849960 1_555
Pr6 S4 2.832861 1_545
Pr6 S0 2.838238 1_545
Pr6 S2 2.841687 1_555
Pr6 S1 2.849960 1_655
Pr7 S2 2.832861 1_565
Pr7 S1 2.838238 1_565
Pr7 S4 2.841687 1_555
Pr7 S0 2.849960 1_455
Br0 Pr5 3.040216 1_555
Br0 Pr0 3.095764 1_555
Br0 Pr4 3.256797 1_455
Br1 Pr3 3.040216 1_555
Br1 Pr1 3.095764 1_555
Br1 Pr2 3.256797 1_655
Br2 Pr7 3.040216 1_545
Br2 Pr2 3.095764 1_555
Br2 Pr1 3.256797 1_555
Br3 Pr1 3.040216 1_565
Br3 Pr3 3.095764 1_555
Br3 Pr7 3.256797 1_655
Br4 Pr6 3.040216 1_565
Br4 Pr4 3.095764 1_555
Br4 Pr0 3.256797 1_555
Br5 Pr0 3.040216 1_545
Br5 Pr5 3.095764 1_555
Br5 Pr6 3.256797 1_455
Br6 Pr4 3.040216 1_555
Br6 Pr6 3.095764 1_555
Br6 Pr5 3.256797 1_555
Br7 Pr2 3.040216 1_555
Br7 Pr7 3.095764 1_555
Br7 Pr3 3.256797 1_555
