# generated using pymatgen
data_LaCeMg14
_symmetry_space_group_name_H-M   'P 1'
_cell_length_a   6.61224001
_cell_length_b   6.46213651
_cell_length_c   10.60030040
_cell_angle_alpha   90.00000000
_cell_angle_beta   90.00000000
_cell_angle_gamma   119.25186621
_symmetry_Int_Tables_number   1
_chemical_formula_structural   LaCeMg14
_chemical_formula_sum   'La1 Ce1 Mg14'
_cell_volume   395.18316565
_cell_formula_units_Z   1
loop_
 _symmetry_equiv_pos_site_id
 _symmetry_equiv_pos_as_xyz
  1  'x, y, z'
loop_
 _atom_site_type_symbol
 _atom_site_label
 _atom_site_symmetry_multiplicity
 _atom_site_fract_x
 _atom_site_fract_y
 _atom_site_fract_z
 _atom_site_occupancy
  La  La0  1  0.17335752  0.33667826  0.12500000  1
  Ce  Ce0  1  0.17029959  0.83514929  0.12500000  1
  Mg  Mg0  1  0.16626060  0.33312980  0.62500000  1
  Mg  Mg1  1  0.16557457  0.83278678  0.62500000  1
  Mg  Mg2  1  0.66597189  0.33310518  0.12500000  1
  Mg  Mg3  1  0.66654738  0.33398238  0.62500000  1
  Mg  Mg4  1  0.66597189  0.83286571  0.12500000  1
  Mg  Mg5  1  0.66654738  0.83256400  0.62500000  1
  Mg  Mg6  1  0.33820448  0.16673036  0.38829431  1
  Mg  Mg7  1  0.33820448  0.16673036  0.86170569  1
  Mg  Mg8  1  0.33820448  0.67147512  0.38829431  1
  Mg  Mg9  1  0.33820448  0.67147512  0.86170569  1
  Mg  Mg10  1  0.82521549  0.16260825  0.38115745  1
  Mg  Mg11  1  0.82521549  0.16260825  0.86884255  1
  Mg  Mg12  1  0.82811014  0.66405557  0.37920293  1
  Mg  Mg13  1  0.82811014  0.66405557  0.87079707  1
loop_
_geom_bond_atom_site_label_1
_geom_bond_atom_site_label_2
_geom_bond_distance
_geom_bond_site_symmetry_2
La0 Mg4 3.268629 1_555
La0 Mg2 3.268629 1_555
La0 Mg4 3.343733 1_445
La0 Mg2 3.343733 1_455
La0 Mg7 3.369539 1_554
La0 Mg6 3.369539 1_555
La0 Mg8 3.369545 1_555
La0 Mg9 3.369545 1_554
La0 Mg11 3.377420 1_454
La0 Mg10 3.377420 1_455
Ce0 La0 3.231116 1_555
Ce0 La0 3.231116 1_565
Ce0 Mg2 3.284740 1_565
Ce0 Mg4 3.284740 1_555
Ce0 Mg2 3.327549 1_455
Ce0 Mg4 3.327550 1_455
Ce0 Mg13 3.340377 1_454
Ce0 Mg12 3.340377 1_455
Ce0 Mg8 3.359850 1_555
Ce0 Mg9 3.359850 1_554
Ce0 Mg6 3.359856 1_565
Ce0 Mg7 3.359856 1_564
Mg0 Mg6 3.152699 1_555
Mg0 Mg7 3.152699 1_555
Mg0 Mg8 3.152705 1_555
Mg0 Mg9 3.152705 1_555
Mg0 Mg1 3.231071 1_555
Mg0 Mg1 3.231071 1_545
Mg0 Mg11 3.248429 1_455
Mg0 Mg10 3.248429 1_455
Mg0 Mg5 3.305327 1_555
Mg0 Mg3 3.305328 1_555
Mg0 Mg5 3.306919 1_445
Mg0 Mg3 3.306919 1_455
Mg1 Mg8 3.138202 1_555
Mg1 Mg9 3.138202 1_555
Mg1 Mg6 3.138208 1_565
Mg1 Mg7 3.138208 1_565
Mg1 Mg12 3.252533 1_455
Mg1 Mg13 3.252533 1_455
Mg1 Mg3 3.298984 1_455
Mg1 Mg5 3.298984 1_455
Mg1 Mg3 3.313256 1_565
Mg1 Mg5 3.313256 1_555
Mg2 Mg4 3.229521 1_555
Mg2 Mg4 3.232616 1_545
Mg2 Mg6 3.371270 1_555
Mg2 Mg7 3.371270 1_554
Mg3 Mg7 3.143935 1_555
Mg3 Mg6 3.143935 1_555
Mg3 Mg5 3.221902 1_555
Mg3 Mg5 3.240234 1_545
Mg4 Mg8 3.371270 1_555
Mg4 Mg9 3.371270 1_554
Mg5 Mg8 3.143935 1_555
Mg5 Mg9 3.143935 1_555
Mg6 Mg8 3.200407 1_545
Mg6 Mg8 3.261730 1_555
Mg7 Mg9 3.200407 1_545
Mg7 Mg9 3.261730 1_555
Mg10 Mg3 3.184943 1_555
Mg10 Mg5 3.184950 1_545
Mg10 Mg12 3.231178 1_555
Mg10 Mg12 3.231178 1_545
Mg10 Mg8 3.234218 1_545
Mg10 Mg6 3.234219 1_555
Mg10 Mg2 3.290823 1_555
Mg10 Mg4 3.290829 1_545
Mg10 Mg8 3.379916 1_655
Mg10 Mg6 3.379917 1_655
Mg11 Mg3 3.184943 1_555
Mg11 Mg5 3.184950 1_545
Mg11 Mg13 3.231178 1_555
Mg11 Mg13 3.231178 1_545
Mg11 Mg9 3.234218 1_545
Mg11 Mg7 3.234219 1_555
Mg11 Mg2 3.290823 1_556
Mg11 Mg4 3.290829 1_546
Mg11 Mg9 3.379916 1_655
Mg11 Mg7 3.379917 1_655
Mg12 Mg5 3.201974 1_555
Mg12 Mg3 3.201980 1_555
Mg12 Mg6 3.264493 1_555
Mg12 Mg8 3.264494 1_555
Mg12 Mg4 3.277711 1_555
Mg12 Mg2 3.277717 1_555
Mg12 Mg6 3.351084 1_665
Mg12 Mg8 3.351085 1_655
Mg13 Mg5 3.201974 1_555
Mg13 Mg3 3.201980 1_555
Mg13 Mg7 3.264493 1_555
Mg13 Mg9 3.264494 1_555
Mg13 Mg4 3.277711 1_556
Mg13 Mg2 3.277717 1_556
Mg13 Mg7 3.351084 1_665
Mg13 Mg9 3.351085 1_655
