# generated using pymatgen
data_LiCr2O3
_symmetry_space_group_name_H-M   'P 1'
_cell_length_a   5.23818012
_cell_length_b   5.23812262
_cell_length_c   5.29741058
_cell_angle_alpha   79.31634827
_cell_angle_beta   100.68545516
_cell_angle_gamma   60.85421825
_symmetry_Int_Tables_number   1
_chemical_formula_structural   LiCr2O3
_chemical_formula_sum   'Li2 Cr4 O6'
_cell_volume   118.13501911
_cell_formula_units_Z   2
loop_
 _symmetry_equiv_pos_site_id
 _symmetry_equiv_pos_as_xyz
  1  'x, y, z'
loop_
 _atom_site_type_symbol
 _atom_site_label
 _atom_site_symmetry_multiplicity
 _atom_site_fract_x
 _atom_site_fract_y
 _atom_site_fract_z
 _atom_site_occupancy
  Li  Li0  1  0.91482600  0.91483600  0.74999900  1
  Li  Li1  1  0.08347400  0.08352100  0.24999100  1
  Cr  Cr0  1  0.75303900  0.75303800  0.25000200  1
  Cr  Cr1  1  0.41398800  0.41402500  0.24998800  1
  Cr  Cr2  1  0.24397200  0.24387300  0.75007700  1
  Cr  Cr3  1  0.58560700  0.58565000  0.74991900  1
  O  O0  1  0.00103000  0.52003400  0.03072300  1
  O  O1  1  0.52000300  0.00108800  0.46926300  1
  O  O2  1  0.16790200  0.64487700  0.48144800  1
  O  O3  1  0.35845600  0.81272500  0.00244100  1
  O  O4  1  0.64491900  0.16789900  0.01859200  1
  O  O5  1  0.81278200  0.35843400  0.49755700  1
loop_
_geom_bond_atom_site_label_1
_geom_bond_atom_site_label_2
_geom_bond_distance
_geom_bond_site_symmetry_2
Li0 O1 2.095999 1_565
Li0 O0 2.096002 1_656
Li0 O3 2.201413 1_656
Li0 O5 2.201420 1_565
Li0 O2 2.323817 1_655
Li0 O4 2.323857 1_566
Li1 O0 2.152031 1_555
Li1 O1 2.152126 1_555
Li1 O4 2.177405 1_455
Li1 O2 2.177803 1_545
Li1 O5 2.281455 1_455
Li1 O3 2.281773 1_545
Cr0 O0 2.016759 1_655
Cr0 O1 2.016887 1_565
Cr0 O2 2.025296 1_655
Cr0 O4 2.025305 1_565
Cr0 O5 2.074327 1_555
Cr0 O3 2.074369 1_555
Cr1 O1 1.998873 1_555
Cr1 O0 1.998952 1_555
Cr1 O4 2.060272 1_555
Cr1 O2 2.060296 1_555
Cr1 O3 2.101719 1_555
Cr1 O5 2.102009 1_555
Cr2 O4 2.112061 1_556
Cr2 O2 2.112372 1_555
Cr2 O3 2.123983 1_546
Cr2 O5 2.124323 1_455
Cr2 O0 2.372366 1_556
Cr2 O1 2.372510 1_555
Cr3 O5 2.102409 1_555
Cr3 O3 2.102773 1_556
Cr3 O2 2.219809 1_555
Cr3 O4 2.220276 1_556
Cr3 O1 2.224081 1_565
Cr3 O0 2.224334 1_656
