# generated using pymatgen
data_PuB2Ru
_symmetry_space_group_name_H-M   'P 1'
_cell_length_a   5.36503121
_cell_length_b   5.78123040
_cell_length_c   6.43349796
_cell_angle_alpha   90.00088655
_cell_angle_beta   90.00000000
_cell_angle_gamma   90.00000000
_symmetry_Int_Tables_number   1
_chemical_formula_structural   PuB2Ru
_chemical_formula_sum   'Pu4 B8 Ru4'
_cell_volume   199.54447063
_cell_formula_units_Z   4
loop_
 _symmetry_equiv_pos_site_id
 _symmetry_equiv_pos_as_xyz
  1  'x, y, z'
loop_
 _atom_site_type_symbol
 _atom_site_label
 _atom_site_symmetry_multiplicity
 _atom_site_fract_x
 _atom_site_fract_y
 _atom_site_fract_z
 _atom_site_occupancy
  Pu  Pu0  1  0.75000000  0.50177490  0.15700578  1
  Pu  Pu1  1  0.75000000  0.00179101  0.34299978  1
  Pu  Pu2  1  0.25000000  0.49822064  0.84303785  1
  Pu  Pu3  1  0.25000000  0.99822234  0.65695481  1
  B  B0  1  0.91168382  0.12696442  0.96376802  1
  B  B1  1  0.58831727  0.62696870  0.53622793  1
  B  B2  1  0.41169297  0.87303347  0.03625002  1
  B  B3  1  0.08830681  0.37302787  0.46375386  1
  B  B4  1  0.08830703  0.87303347  0.03625002  1
  B  B5  1  0.41169319  0.37302787  0.46375386  1
  B  B6  1  0.58831618  0.12696442  0.96376802  1
  B  B7  1  0.91168273  0.62696870  0.53622793  1
  Ru  Ru0  1  0.75000000  0.30757754  0.68454439  1
  Ru  Ru1  1  0.75000000  0.80757796  0.81545845  1
  Ru  Ru2  1  0.25000000  0.69241942  0.31543342  1
  Ru  Ru3  1  0.25000000  0.19242625  0.18456485  1
loop_
_geom_bond_atom_site_label_1
_geom_bond_atom_site_label_2
_geom_bond_distance
_geom_bond_site_symmetry_2
Pu0 Ru1 2.820279 1_554
Pu1 Ru0 2.820163 1_555
Pu2 Ru3 2.820146 1_556
Pu3 Ru2 2.820106 1_555
B0 B6 1.734877 1_555
B0 B4 1.808457 1_646
B0 Ru0 2.251619 1_555
B0 Ru1 2.252146 1_545
B0 Ru3 2.335706 1_656
B0 Pu0 2.644467 1_556
B0 Pu1 2.688632 1_556
B0 Pu3 2.782918 1_645
B0 Pu2 2.916252 1_655
B1 B7 1.734866 1_555
B1 B5 1.808481 1_555
B1 Ru1 2.251616 1_555
B1 Ru0 2.252209 1_555
B1 Ru2 2.335698 1_555
B1 Pu1 2.644524 1_565
B1 Pu0 2.688586 1_555
B1 Pu2 2.782933 1_555
B1 Pu3 2.916221 1_555
B2 B4 1.734976 1_555
B2 B6 1.808457 1_564
B2 Ru2 2.251434 1_555
B2 Ru3 2.252209 1_565
B2 Ru1 2.335641 1_554
B2 Pu2 2.644417 1_554
B2 Pu3 2.689042 1_554
B2 Pu1 2.782621 1_565
B2 Pu0 2.916275 1_555
B3 B5 1.734978 1_555
B3 B7 1.808481 1_455
B3 Ru3 2.251404 1_555
B3 Ru2 2.252243 1_555
B3 Ru0 2.335638 1_455
B3 Pu3 2.644380 1_545
B3 Pu2 2.688963 1_555
B3 Pu0 2.782612 1_455
B3 Pu1 2.916162 1_455
B4 Ru2 2.251434 1_555
B4 Ru3 2.252209 1_565
B4 Ru1 2.335641 1_454
B4 Pu2 2.644417 1_554
B4 Pu3 2.689042 1_554
B4 Pu1 2.782621 1_465
B4 Pu0 2.916275 1_455
B5 Ru3 2.251404 1_555
B5 Ru2 2.252243 1_555
B5 Ru0 2.335638 1_555
B5 Pu3 2.644380 1_545
B5 Pu2 2.688963 1_555
B5 Pu0 2.782612 1_555
B5 Pu1 2.916162 1_555
B6 Ru0 2.251619 1_555
B6 Ru1 2.252146 1_545
B6 Ru3 2.335706 1_556
B6 Pu0 2.644467 1_556
B6 Pu1 2.688632 1_556
B6 Pu3 2.782918 1_545
B6 Pu2 2.916252 1_555
B7 Ru1 2.251616 1_555
B7 Ru0 2.252209 1_555
B7 Ru2 2.335698 1_655
B7 Pu1 2.644524 1_565
B7 Pu0 2.688586 1_555
B7 Pu2 2.782933 1_655
B7 Pu3 2.916221 1_655
