# generated using pymatgen
data_AsH3C(OF3)2
_symmetry_space_group_name_H-M   'P 1'
_cell_length_a   8.24995500
_cell_length_b   10.30221900
_cell_length_c   15.88693000
_cell_angle_alpha   90.00000000
_cell_angle_beta   90.00000000
_cell_angle_gamma   90.00000000
_symmetry_Int_Tables_number   1
_chemical_formula_structural   AsH3C(OF3)2
_chemical_formula_sum   'As8 H24 C8 O16 F48'
_cell_volume   1350.27534963
_cell_formula_units_Z   8
loop_
 _symmetry_equiv_pos_site_id
 _symmetry_equiv_pos_as_xyz
  1  'x, y, z'
loop_
 _atom_site_type_symbol
 _atom_site_label
 _atom_site_symmetry_multiplicity
 _atom_site_fract_x
 _atom_site_fract_y
 _atom_site_fract_z
 _atom_site_occupancy
  As  As0  1  0.35158600  0.50606000  0.14777300  1
  As  As1  1  0.64841400  0.00606000  0.35222700  1
  As  As2  1  0.14841400  0.49394000  0.64777300  1
  As  As3  1  0.85158600  0.99394000  0.85222700  1
  As  As4  1  0.64841400  0.49394000  0.85222700  1
  As  As5  1  0.35158600  0.99394000  0.64777300  1
  As  As6  1  0.85158600  0.50606000  0.35222700  1
  As  As7  1  0.14841400  0.00606000  0.14777300  1
  H  H0  1  0.25365500  0.82552200  0.50362900  1
  H  H1  1  0.74634500  0.32552200  0.99637100  1
  H  H2  1  0.24634500  0.17447800  0.00362900  1
  H  H3  1  0.75365500  0.67447800  0.49637100  1
  H  H4  1  0.74634500  0.17447800  0.49637100  1
  H  H5  1  0.25365500  0.67447800  0.00362900  1
  H  H6  1  0.75365500  0.82552200  0.99637100  1
  H  H7  1  0.24634500  0.32552200  0.50362900  1
  H  H8  1  0.40996400  0.64202400  0.34725900  1
  H  H9  1  0.59003600  0.14202400  0.15274100  1
  H  H10  1  0.09003600  0.35797600  0.84725900  1
  H  H11  1  0.90996400  0.85797600  0.65274100  1
  H  H12  1  0.59003600  0.35797600  0.65274100  1
  H  H13  1  0.40996400  0.85797600  0.84725900  1
  H  H14  1  0.90996400  0.64202400  0.15274100  1
  H  H15  1  0.09003600  0.14202400  0.34725900  1
  H  H16  1  0.19092400  0.76069900  0.32803200  1
  H  H17  1  0.80907600  0.26069900  0.17196800  1
  H  H18  1  0.30907600  0.23930100  0.82803200  1
  H  H19  1  0.69092400  0.73930100  0.67196800  1
  H  H20  1  0.80907600  0.23930100  0.67196800  1
  H  H21  1  0.19092400  0.73930100  0.82803200  1
  H  H22  1  0.69092400  0.76069900  0.17196800  1
  H  H23  1  0.30907600  0.26069900  0.32803200  1
  C  C0  1  0.25177000  0.75733400  0.38911600  1
  C  C1  1  0.74823000  0.25733400  0.11088400  1
  C  C2  1  0.24823000  0.24266600  0.88911600  1
  C  C3  1  0.75177000  0.74266600  0.61088400  1
  C  C4  1  0.74823000  0.24266600  0.61088400  1
  C  C5  1  0.25177000  0.74266600  0.88911600  1
  C  C6  1  0.75177000  0.75733400  0.11088400  1
  C  C7  1  0.24823000  0.25733400  0.38911600  1
  O  O0  1  0.19117600  0.82537900  0.44796000  1
  O  O1  1  0.80882400  0.32537900  0.05204000  1
  O  O2  1  0.30882400  0.17462100  0.94796000  1
  O  O3  1  0.69117600  0.67462100  0.55204000  1
  O  O4  1  0.80882400  0.17462100  0.55204000  1
  O  O5  1  0.19117600  0.67462100  0.94796000  1
  O  O6  1  0.69117600  0.82537900  0.05204000  1
  O  O7  1  0.30882400  0.32537900  0.44796000  1
  O  O8  1  0.38016300  0.68861600  0.40013600  1
  O  O9  1  0.61983700  0.18861600  0.09986400  1
  O  O10  1  0.11983700  0.31138400  0.90013600  1
  O  O11  1  0.88016300  0.81138400  0.59986400  1
  O  O12  1  0.61983700  0.31138400  0.59986400  1
  O  O13  1  0.38016300  0.81138400  0.90013600  1
  O  O14  1  0.88016300  0.68861600  0.09986400  1
  O  O15  1  0.11983700  0.18861600  0.40013600  1
  F  F0  1  0.34360300  0.65428200  0.08581500  1
  F  F1  1  0.65639700  0.15428200  0.41418500  1
  F  F2  1  0.15639700  0.34571800  0.58581500  1
  F  F3  1  0.84360300  0.84571800  0.91418500  1
  F  F4  1  0.65639700  0.34571800  0.91418500  1
  F  F5  1  0.34360300  0.84571800  0.58581500  1
  F  F6  1  0.84360300  0.65428200  0.41418500  1
  F  F7  1  0.15639700  0.15428200  0.08581500  1
  F  F8  1  0.34242600  0.41332700  0.05498500  1
  F  F9  1  0.65757400  0.91332700  0.44501500  1
  F  F10  1  0.15757400  0.58667300  0.55498500  1
  F  F11  1  0.84242600  0.08667300  0.94501500  1
  F  F12  1  0.65757400  0.58667300  0.94501500  1
  F  F13  1  0.34242600  0.08667300  0.55498500  1
  F  F14  1  0.84242600  0.41332700  0.44501500  1
  F  F15  1  0.15757400  0.91332700  0.05498500  1
  F  F16  1  0.36508000  0.36676800  0.21131200  1
  F  F17  1  0.63492000  0.86676800  0.28868800  1
  F  F18  1  0.13492000  0.63323200  0.71131200  1
  F  F19  1  0.86508000  0.13323200  0.78868800  1
  F  F20  1  0.63492000  0.63323200  0.78868800  1
  F  F21  1  0.36508000  0.13323200  0.71131200  1
  F  F22  1  0.86508000  0.36676800  0.28868800  1
  F  F23  1  0.13492000  0.86676800  0.21131200  1
  F  F24  1  0.36127200  0.60776900  0.23929200  1
  F  F25  1  0.63872800  0.10776900  0.26070800  1
  F  F26  1  0.13872800  0.39223100  0.73929200  1
  F  F27  1  0.86127200  0.89223100  0.76070800  1
  F  F28  1  0.63872800  0.39223100  0.76070800  1
  F  F29  1  0.36127200  0.89223100  0.73929200  1
  F  F30  1  0.86127200  0.60776900  0.26070800  1
  F  F31  1  0.13872800  0.10776900  0.23929200  1
  F  F32  1  0.56515500  0.51271300  0.13967100  1
  F  F33  1  0.43484500  0.01271300  0.36032900  1
  F  F34  1  0.93484500  0.48728700  0.63967100  1
  F  F35  1  0.06515500  0.98728700  0.86032900  1
  F  F36  1  0.43484500  0.48728700  0.86032900  1
  F  F37  1  0.56515500  0.98728700  0.63967100  1
  F  F38  1  0.06515500  0.51271300  0.36032900  1
  F  F39  1  0.93484500  0.01271300  0.13967100  1
  F  F40  1  0.13831800  0.50693100  0.15376800  1
  F  F41  1  0.86168200  0.00693100  0.34623200  1
  F  F42  1  0.36168200  0.49306900  0.65376800  1
  F  F43  1  0.63831800  0.99306900  0.84623200  1
  F  F44  1  0.86168200  0.49306900  0.84623200  1
  F  F45  1  0.13831800  0.99306900  0.65376800  1
  F  F46  1  0.63831800  0.50693100  0.34623200  1
  F  F47  1  0.36168200  0.00693100  0.15376800  1
loop_
_geom_bond_atom_site_label_1
_geom_bond_atom_site_label_2
_geom_bond_distance
_geom_bond_site_symmetry_2
As0 F16 1.758020 1_555
As0 F8 1.758248 1_555
As0 F40 1.762050 1_555
As0 F32 1.767959 1_555
As0 F24 1.793967 1_555
As0 F0 1.817967 1_555
As1 F17 1.758020 1_545
As1 F9 1.758248 1_545
As1 F41 1.762050 1_555
As1 F33 1.767959 1_555
As1 F25 1.793967 1_555
As1 F1 1.817967 1_555
As2 F18 1.758020 1_555
As2 F10 1.758248 1_555
As2 F42 1.762050 1_555
As2 F34 1.767959 1_455
As2 F26 1.793967 1_555
As2 F2 1.817967 1_555
As3 F19 1.758020 1_565
As3 F11 1.758248 1_565
As3 F43 1.762050 1_555
As3 F35 1.767959 1_655
As3 F27 1.793967 1_555
As3 F3 1.817967 1_555
As4 F20 1.758020 1_555
As4 F12 1.758248 1_555
As4 F44 1.762050 1_555
As4 F36 1.767959 1_555
As4 F28 1.793967 1_555
As4 F4 1.817967 1_555
As5 F21 1.758020 1_565
As5 F13 1.758248 1_565
As5 F45 1.762050 1_555
As5 F37 1.767959 1_555
As5 F29 1.793967 1_555
As5 F5 1.817967 1_555
As6 F22 1.758020 1_555
As6 F14 1.758248 1_555
As6 F46 1.762050 1_555
As6 F38 1.767959 1_655
As6 F30 1.793967 1_555
As6 F6 1.817967 1_555
As7 F23 1.758020 1_545
As7 F15 1.758248 1_545
As7 F47 1.762050 1_555
As7 F39 1.767959 1_455
As7 F31 1.793967 1_555
As7 F7 1.817967 1_555
H0 O0 1.023655 1_555
H1 O1 1.023655 1_556
H2 O2 1.023655 1_554
H3 O3 1.023655 1_555
H4 O4 1.023655 1_555
H5 O5 1.023655 1_554
H6 O6 1.023655 1_556
H7 O7 1.023655 1_555
H8 O8 0.998266 1_555
H9 O9 0.998266 1_555
H10 O10 0.998266 1_555
H11 O11 0.998266 1_555
H12 O12 0.998266 1_555
H13 O13 0.998266 1_555
H14 O14 0.998266 1_555
H15 O15 0.998266 1_555
C0 H16 1.093129 1_555
C0 O0 1.270931 1_555
C0 O8 1.286011 1_555
C1 H17 1.093129 1_555
C1 O1 1.270931 1_555
C1 O9 1.286011 1_555
C2 H18 1.093129 1_555
C2 O2 1.270931 1_555
C2 O10 1.286011 1_555
C3 H19 1.093129 1_555
C3 O3 1.270931 1_555
C3 O11 1.286011 1_555
C4 H20 1.093129 1_555
C4 O4 1.270931 1_555
C4 O12 1.286011 1_555
C5 H21 1.093129 1_555
C5 O5 1.270931 1_555
C5 O13 1.286011 1_555
C6 H22 1.093129 1_555
C6 O6 1.270931 1_555
C6 O14 1.286011 1_555
C7 H23 1.093129 1_555
C7 O7 1.270931 1_555
C7 O15 1.286011 1_555
F0 H5 1.516167 1_555
F1 H4 1.516167 1_555
F2 H7 1.516167 1_555
F3 H6 1.516167 1_555
F4 H1 1.516167 1_555
F5 H0 1.516167 1_555
F6 H3 1.516167 1_555
F7 H2 1.516167 1_555
