# generated using pymatgen
data_U3Bi4Rh3
_symmetry_space_group_name_H-M   'P 1'
_cell_length_a   8.49099630
_cell_length_b   8.49099630
_cell_length_c   8.49099630
_cell_angle_alpha   109.47122063
_cell_angle_beta   109.47122063
_cell_angle_gamma   109.47122063
_symmetry_Int_Tables_number   1
_chemical_formula_structural   U3Bi4Rh3
_chemical_formula_sum   'U6 Bi8 Rh6'
_cell_volume   471.25293093
_cell_formula_units_Z   2
loop_
 _symmetry_equiv_pos_site_id
 _symmetry_equiv_pos_as_xyz
  1  'x, y, z'
loop_
 _atom_site_type_symbol
 _atom_site_label
 _atom_site_symmetry_multiplicity
 _atom_site_fract_x
 _atom_site_fract_y
 _atom_site_fract_z
 _atom_site_occupancy
  U  U0  1  0.62500000  0.37500000  0.75000000  1
  U  U1  1  0.87500000  0.12500000  0.25000000  1
  U  U2  1  0.37500000  0.75000000  0.62500000  1
  U  U3  1  0.12500000  0.25000000  0.87500000  1
  U  U4  1  0.75000000  0.62500000  0.37500000  1
  U  U5  1  0.25000000  0.87500000  0.12500000  1
  Bi  Bi0  1  0.82320700  0.82320700  0.82320700  1
  Bi  Bi1  1  0.67679300  0.00000000  0.50000000  1
  Bi  Bi2  1  0.50000000  0.67679300  0.00000000  1
  Bi  Bi3  1  0.32320700  0.32320700  0.32320700  1
  Bi  Bi4  1  0.00000000  0.50000000  0.67679300  1
  Bi  Bi5  1  0.17679300  0.00000000  0.50000000  1
  Bi  Bi6  1  0.00000000  0.50000000  0.17679300  1
  Bi  Bi7  1  0.50000000  0.17679300  0.00000000  1
  Rh  Rh0  1  0.12500000  0.87500000  0.75000000  1
  Rh  Rh1  1  0.37500000  0.62500000  0.25000000  1
  Rh  Rh2  1  0.87500000  0.75000000  0.12500000  1
  Rh  Rh3  1  0.62500000  0.25000000  0.37500000  1
  Rh  Rh4  1  0.75000000  0.12500000  0.87500000  1
  Rh  Rh5  1  0.25000000  0.37500000  0.62500000  1
loop_
_geom_bond_atom_site_label_1
_geom_bond_atom_site_label_2
_geom_bond_distance
_geom_bond_site_symmetry_2
Bi0 Rh2 2.763906 1_556
Bi0 Rh0 2.763906 1_655
Bi0 Rh4 2.763906 1_565
Bi0 U4 3.340337 1_555
Bi0 U2 3.340337 1_555
Bi0 U0 3.340337 1_555
Bi0 U3 3.447887 1_665
Bi0 U1 3.447887 1_566
Bi0 U5 3.447887 1_656
Bi1 Rh3 2.763906 1_555
Bi1 Rh1 2.763906 1_545
Bi1 Rh4 2.763906 1_555
Bi1 U3 3.340337 1_655
Bi1 U4 3.340337 1_545
Bi1 U1 3.340337 1_555
Bi1 U2 3.447887 1_545
Bi1 U5 3.447887 1_545
Bi1 U0 3.447887 1_555
Bi2 Rh2 2.763906 1_555
Bi2 Rh5 2.763906 1_554
Bi2 Rh1 2.763906 1_555
Bi2 U5 3.340337 1_555
Bi2 U2 3.340337 1_554
Bi2 U1 3.340337 1_565
Bi2 U4 3.447887 1_555
Bi2 U0 3.447887 1_554
Bi2 U3 3.447887 1_554
Bi3 Rh3 2.763906 1_555
Bi3 Rh1 2.763906 1_555
Bi3 Rh5 2.763906 1_555
Bi3 U1 3.340337 1_455
Bi3 U5 3.340337 1_545
Bi3 U3 3.340337 1_554
Bi3 U4 3.447887 1_555
Bi3 U2 3.447887 1_555
Bi3 U0 3.447887 1_555
Bi4 Rh0 2.763906 1_555
Bi4 Rh3 2.763906 1_455
Bi4 Rh5 2.763906 1_555
Bi4 U5 3.340337 1_556
Bi4 U3 3.340337 1_555
Bi4 U0 3.340337 1_455
Bi4 U2 3.447887 1_555
Bi4 U4 3.447887 1_455
Bi4 U1 3.447887 1_455
Bi5 Rh2 2.763906 1_445
Bi5 Rh0 2.763906 1_545
Bi5 Rh5 2.763906 1_555
Bi5 U5 3.340337 1_545
Bi5 U2 3.340337 1_545
Bi5 U0 3.340337 1_555
Bi5 U1 3.447887 1_455
Bi5 U4 3.447887 1_445
Bi5 U3 3.447887 1_555
Bi6 Rh1 2.763906 1_555
Bi6 Rh2 2.763906 1_455
Bi6 Rh4 2.763906 1_454
Bi6 U1 3.340337 1_455
Bi6 U2 3.340337 1_555
Bi6 U4 3.340337 1_455
Bi6 U5 3.447887 1_555
Bi6 U3 3.447887 1_554
Bi6 U0 3.447887 1_454
Bi7 Rh3 2.763906 1_555
Bi7 Rh4 2.763906 1_554
Bi7 Rh0 2.763906 1_544
Bi7 U0 3.340337 1_554
Bi7 U4 3.340337 1_555
Bi7 U3 3.340337 1_554
Bi7 U2 3.447887 1_544
Bi7 U5 3.447887 1_545
Bi7 U1 3.447887 1_555
Rh0 U3 3.002021 1_565
Rh0 U5 3.002021 1_556
Rh0 U2 3.002021 1_555
Rh0 U4 3.002021 1_455
Rh1 U4 3.002021 1_555
Rh1 U5 3.002021 1_555
Rh1 U3 3.002021 1_554
Rh1 U2 3.002021 1_555
Rh2 U4 3.002021 1_555
Rh2 U0 3.002021 1_554
Rh2 U1 3.002021 1_565
Rh2 U5 3.002021 1_655
Rh3 U0 3.002021 1_555
Rh3 U1 3.002021 1_555
Rh3 U4 3.002021 1_555
Rh3 U5 3.002021 1_545
Rh4 U0 3.002021 1_555
Rh4 U1 3.002021 1_556
Rh4 U3 3.002021 1_655
Rh4 U2 3.002021 1_545
Rh5 U1 3.002021 1_455
Rh5 U0 3.002021 1_555
Rh5 U3 3.002021 1_555
Rh5 U2 3.002021 1_555
