# generated using pymatgen
data_Sm3MgBi(Ru2O7)2
_symmetry_space_group_name_H-M   'P 1'
_cell_length_a   7.47645001
_cell_length_b   7.47665719
_cell_length_c   7.43933609
_cell_angle_alpha   89.99835082
_cell_angle_beta   59.83486538
_cell_angle_gamma   120.00096673
_symmetry_Int_Tables_number   1
_chemical_formula_structural   Sm3MgBi(Ru2O7)2
_chemical_formula_sum   'Sm3 Mg1 Bi1 Ru4 O14'
_cell_volume   293.30594638
_cell_formula_units_Z   1
loop_
 _symmetry_equiv_pos_site_id
 _symmetry_equiv_pos_as_xyz
  1  'x, y, z'
loop_
 _atom_site_type_symbol
 _atom_site_label
 _atom_site_symmetry_multiplicity
 _atom_site_fract_x
 _atom_site_fract_y
 _atom_site_fract_z
 _atom_site_occupancy
  Sm  Sm0  1  0.24972400  0.37691100  0.37329700  1
  Sm  Sm1  1  0.24971800  0.87280500  0.37330300  1
  Sm  Sm2  1  0.75385100  0.37692500  0.37327300  1
  Mg  Mg0  1  0.99900400  0.99949400  0.00151800  1
  Bi  Bi0  1  0.75286400  0.37643700  0.87067700  1
  Ru  Ru0  1  0.73000200  0.86501000  0.40493200  1
  Ru  Ru1  1  0.26839500  0.86625600  0.86541200  1
  Ru  Ru2  1  0.26837900  0.40212700  0.86541300  1
  Ru  Ru3  1  0.73254800  0.86628600  0.86542200  1
  O  O0  1  0.49441500  0.24720300  0.25832300  1
  O  O1  1  0.00297400  0.50148600  0.49549000  1
  O  O2  1  0.90381800  0.95192900  0.54789800  1
  O  O3  1  0.50015900  0.54828800  0.54791200  1
  O  O4  1  0.50018200  0.95190500  0.54789700  1
  O  O5  1  0.10014200  0.55006800  0.95060700  1
  O  O6  1  0.49936700  0.94929500  0.95061900  1
  O  O7  1  0.49935800  0.55008200  0.95061200  1
  O  O8  1  0.57449400  0.78723700  0.21330700  1
  O  O9  1  0.99944600  0.21221700  0.21325700  1
  O  O10  1  0.99943700  0.78719800  0.21327000  1
  O  O11  1  0.41986700  0.20992700  0.78918500  1
  O  O12  1  0.00093000  0.79095300  0.78918600  1
  O  O13  1  0.00092500  0.20996200  0.78919200  1
loop_
_geom_bond_atom_site_label_1
_geom_bond_atom_site_label_2
_geom_bond_distance
_geom_bond_site_symmetry_2
Mg0 O11 2.219321 1_664
Mg0 O13 2.219436 1_664
Mg0 O12 2.219500 1_654
Mg0 O9 2.238511 1_565
Mg0 O10 2.238547 1_555
Mg0 O8 2.238635 1_555
Bi0 O1 2.273209 1_655
Bi0 O0 2.348696 1_556
Bi0 O11 2.555985 1_555
Bi0 O12 2.556187 1_655
Bi0 O13 2.556351 1_655
Bi0 O6 2.637992 1_545
Bi0 O7 2.638088 1_555
Bi0 O5 2.638392 1_655
O0 Sm2 2.284724 1_555
O0 Sm1 2.284796 1_545
O0 Sm0 2.284846 1_555
O1 Sm1 2.264913 1_555
O1 Sm0 2.264994 1_555
O1 Sm2 2.265041 1_455
O2 Ru3 1.941558 1_555
O2 Ru0 1.945973 1_555
O2 Sm0 2.622544 1_665
O2 Sm1 2.622820 1_655
O3 Ru2 1.941325 1_555
O3 Ru0 1.945616 1_555
O3 Sm0 2.623030 1_555
O3 Sm2 2.623120 1_555
O4 Ru1 1.941401 1_555
O4 Ru0 1.945614 1_555
O4 Sm2 2.622839 1_565
O4 Sm1 2.623030 1_555
O5 Ru2 1.948703 1_555
O5 Ru1 1.948721 1_555
O5 Sm2 2.594707 1_456
O6 Ru1 1.948649 1_555
O6 Ru3 1.948791 1_555
O6 Sm1 2.594737 1_556
O7 Ru2 1.948668 1_555
O7 Ru3 1.948856 1_555
O7 Sm0 2.594745 1_556
O8 Ru3 2.161389 1_554
O8 Ru0 2.170660 1_555
O8 Sm0 2.523928 1_555
O8 Sm1 2.524085 1_555
O9 Ru2 2.161244 1_654
O9 Ru0 2.171099 1_545
O9 Sm2 2.523840 1_555
O9 Sm0 2.523877 1_655
O10 Ru1 2.161335 1_654
O10 Ru0 2.171361 1_555
O10 Sm2 2.523586 1_555
O10 Sm1 2.523824 1_655
O11 Ru1 2.156614 1_545
O11 Ru2 2.156739 1_555
O11 Sm2 2.546554 1_555
O12 Ru1 2.156632 1_555
O12 Ru3 2.156769 1_455
O12 Sm1 2.546473 1_555
O13 Ru3 2.156532 1_445
O13 Ru2 2.156556 1_555
O13 Sm0 2.546528 1_555
