# generated using pymatgen
data_SrLi2Si
_symmetry_space_group_name_H-M   'P 1'
_cell_length_a   12.21099477
_cell_length_b   12.49361988
_cell_length_c   12.49362010
_cell_angle_alpha   60.95691145
_cell_angle_beta   60.74553376
_cell_angle_gamma   60.74553690
_symmetry_Int_Tables_number   1
_chemical_formula_structural   SrLi2Si
_chemical_formula_sum   'Sr1 Li2 Si1'
_cell_volume   1372.55076705
_cell_formula_units_Z   1
loop_
 _symmetry_equiv_pos_site_id
 _symmetry_equiv_pos_as_xyz
  1  'x, y, z'
loop_
 _atom_site_type_symbol
 _atom_site_label
 _atom_site_symmetry_multiplicity
 _atom_site_fract_x
 _atom_site_fract_y
 _atom_site_fract_z
 _atom_site_occupancy
  Sr  Sr0  1  0.50000000  0.00000000  0.00000000  1
  Li  Li0  1  0.79946824  1.00000000  0.00000000  1
  Li  Li1  1  0.20053176  0.00000000  1.00000000  1
  Si  Si0  1  0.00000000  0.00000000  0.00000000  1
loop_
_geom_bond_atom_site_label_1
_geom_bond_atom_site_label_2
_geom_bond_distance
_geom_bond_site_symmetry_2
Li0 Si0 2.448692 1_665
Li0 Sr0 3.656805 1_565
Li1 Si0 2.448692 1_556
Li1 Sr0 3.656805 1_556
