# generated using pymatgen
data_Sr2VP2O9
_symmetry_space_group_name_H-M   'P 1'
_cell_length_a   6.72539888
_cell_length_b   6.99043567
_cell_length_c   8.72819197
_cell_angle_alpha   76.32543328
_cell_angle_beta   77.59859483
_cell_angle_gamma   115.20085882
_symmetry_Int_Tables_number   1
_chemical_formula_structural   Sr2VP2O9
_chemical_formula_sum   'Sr4 V2 P4 O18'
_cell_volume   336.74483058
_cell_formula_units_Z   2
loop_
 _symmetry_equiv_pos_site_id
 _symmetry_equiv_pos_as_xyz
  1  'x, y, z'
loop_
 _atom_site_type_symbol
 _atom_site_label
 _atom_site_symmetry_multiplicity
 _atom_site_fract_x
 _atom_site_fract_y
 _atom_site_fract_z
 _atom_site_occupancy
  Sr  Sr0  1  0.20798924  0.95538295  0.08474223  1
  Sr  Sr1  1  0.79273147  0.04012517  0.91525777  1
  Sr  Sr2  1  0.62793737  0.37533867  0.24919803  1
  Sr  Sr3  1  0.37713440  0.62453669  0.75080197  1
  V  V0  1  0.00386890  0.98130773  0.49147061  1
  V  V1  1  -0.00466049  0.47277834  0.50852939  1
  P  P0  1  0.82876859  0.57751514  0.84434774  1
  P  P1  1  0.17311633  0.42186288  0.15565226  1
  P  P2  1  0.41245832  0.16280993  0.67274324  1
  P  P3  1  0.58520156  0.83555417  0.32725576  1
  O  O0  1  0.95247597  0.68623758  0.95222060  1
  O  O1  1  0.59611443  0.36135547  0.95042345  1
  O  O2  1  0.04653688  0.31177792  0.04957655  1
  O  O3  1  0.40469657  0.63845818  0.04777940  1
  O  O4  1  0.74649579  0.78310999  0.21421287  1
  O  O5  1  0.53413566  -0.00050919  0.21552651  1
  O  O6  1  0.24966118  0.21501732  0.78447349  1
  O  O7  1  0.46070866  -0.00267713  0.78578713  1
  O  O8  1  0.98243588  0.51501125  0.72725967  1
  O  O9  1  0.79597677  0.75967683  0.72616604  1
  O  O10  1  0.02214282  0.48584287  0.27383396  1
  O  O11  1  0.20969555  0.24227192  0.27274033  1
  O  O12  1  0.70676735  0.93443007  0.44541150  1
  O  O13  1  0.34790498  0.61916442  0.44880012  1
  O  O14  1  0.29670510  0.06796454  0.55119988  1
  O  O15  1  0.65217885  0.37984157  0.55458850  1
  O  O16  1  0.03447783  0.78877426  0.41970619  1
  O  O17  1  0.95418402  0.20848146  0.58029381  1
loop_
_geom_bond_atom_site_label_1
_geom_bond_atom_site_label_2
_geom_bond_distance
_geom_bond_site_symmetry_2
O0 P0 1.514143 1_555
O0 Sr0 2.638204 1_656
O0 Sr2 2.659505 1_556
O0 Sr1 3.068052 1_565
O1 P0 1.513804 1_555
O1 Sr0 2.654429 1_546
O1 Sr2 2.682948 1_556
O1 Sr1 3.092799 1_555
O2 P1 1.513810 1_555
O2 Sr1 2.654423 1_454
O2 Sr3 2.682950 1_554
O2 Sr0 3.092797 1_545
O3 P1 1.514143 1_555
O3 Sr1 2.638204 1_564
O3 Sr3 2.659506 1_554
O3 Sr0 3.068052 1_555
O4 P3 1.527938 1_555
O4 Sr2 2.530357 1_555
O4 Sr0 2.650941 1_655
O4 Sr1 2.663163 1_564
O5 P3 1.527371 1_545
O5 Sr2 2.533872 1_555
O5 Sr0 2.622085 1_545
O5 Sr1 2.691385 1_554
O6 P2 1.527385 1_555
O6 Sr3 2.533872 1_555
O6 Sr1 2.622079 1_455
O6 Sr0 2.691387 1_546
O7 P2 1.527938 1_555
O7 Sr3 2.530356 1_545
O7 Sr1 2.650941 1_555
O7 Sr0 2.663163 1_546
O8 P0 1.563780 1_555
O8 V1 1.989114 1_655
O8 Sr3 2.500548 1_655
O8 Sr1 2.873838 1_555
O9 P0 1.565244 1_555
O9 V0 1.993984 1_655
O9 Sr3 2.500231 1_555
O9 Sr1 2.849312 1_565
O10 P1 1.565244 1_555
O10 V1 1.993984 1_555
O10 Sr2 2.500225 1_455
O10 Sr0 2.849312 1_555
O11 P1 1.563775 1_555
O11 V0 1.989117 1_545
O11 Sr2 2.500555 1_555
O11 Sr0 2.873844 1_545
O12 P3 1.558099 1_555
O12 V0 2.027614 1_655
O12 Sr3 2.711911 1_555
O13 P3 1.555245 1_555
O13 V1 2.022816 1_555
O13 Sr3 2.692817 1_555
O14 P2 1.555240 1_555
O14 V0 2.022816 1_545
O14 Sr2 2.692819 1_555
O15 P2 1.558094 1_555
O15 V1 2.027614 1_655
O15 Sr2 2.711909 1_555
O16 V0 1.680864 1_555
O16 V1 2.038940 1_555
O16 Sr0 2.651995 1_555
O17 V1 1.680857 1_655
O17 V0 2.038947 1_645
O17 Sr1 2.651995 1_555
