# generated using pymatgen
data_Nb12TlTe15As
_symmetry_space_group_name_H-M   'P 1'
_cell_length_a   10.71225975
_cell_length_b   10.71225975
_cell_length_c   7.32204200
_cell_angle_alpha   90.00000000
_cell_angle_beta   90.00000000
_cell_angle_gamma   119.99999844
_symmetry_Int_Tables_number   1
_chemical_formula_structural   Nb12TlTe15As
_chemical_formula_sum   'Nb12 Tl1 Te15 As1'
_cell_volume   727.65420557
_cell_formula_units_Z   1
loop_
 _symmetry_equiv_pos_site_id
 _symmetry_equiv_pos_as_xyz
  1  'x, y, z'
loop_
 _atom_site_type_symbol
 _atom_site_label
 _atom_site_symmetry_multiplicity
 _atom_site_fract_x
 _atom_site_fract_y
 _atom_site_fract_z
 _atom_site_occupancy
  Nb  Nb0  1  0.43788900  0.28204100  0.00000000  1
  Nb  Nb1  1  0.43778800  0.28588400  0.50000000  1
  Nb  Nb2  1  0.71795900  0.15584800  0.00000000  1
  Nb  Nb3  1  0.71411600  0.15190300  0.50000000  1
  Nb  Nb4  1  0.84415200  0.56211100  0.00000000  1
  Nb  Nb5  1  0.84809700  0.56221200  0.50000000  1
  Nb  Nb6  1  0.22007700  0.05196500  0.76594300  1
  Nb  Nb7  1  0.22007700  0.05196500  0.23405700  1
  Nb  Nb8  1  0.94803500  0.16811200  0.76594300  1
  Nb  Nb9  1  0.94803500  0.16811200  0.23405700  1
  Nb  Nb10  1  0.83188800  0.77992300  0.76594300  1
  Nb  Nb11  1  0.83188800  0.77992300  0.23405700  1
  Tl  Tl0  1  0.33333300  0.66666700  0.00000000  1
  Te  Te0  1  0.39740600  0.00428700  0.00000000  1
  Te  Te1  1  0.38838200  0.00488100  0.50000000  1
  Te  Te2  1  0.99571300  0.39311800  0.00000000  1
  Te  Te3  1  0.99511900  0.38350000  0.50000000  1
  Te  Te4  1  0.60688200  0.60259400  0.00000000  1
  Te  Te5  1  0.61650000  0.61161800  0.50000000  1
  Te  Te6  1  0.26943000  0.33384500  0.75162200  1
  Te  Te7  1  0.26943000  0.33384500  0.24837800  1
  Te  Te8  1  0.66615500  0.93558500  0.75162200  1
  Te  Te9  1  0.66615500  0.93558500  0.24837800  1
  Te  Te10  1  0.06441500  0.73057000  0.75162200  1
  Te  Te11  1  0.06441500  0.73057000  0.24837800  1
  Te  Te12  1  0.00000000  0.00000000  0.50000000  1
  Te  Te13  1  0.66666700  0.33333300  0.74898800  1
  Te  Te14  1  0.66666700  0.33333300  0.25101200  1
  As  As0  1  0.00000000  0.00000000  0.00000000  1
loop_
_geom_bond_atom_site_label_1
_geom_bond_atom_site_label_2
_geom_bond_distance
_geom_bond_site_symmetry_2
Nb0 Te0 2.783989 1_555
Nb0 Te7 2.805942 1_555
Nb0 Te6 2.805942 1_554
Nb0 Te13 2.887796 1_554
Nb0 Te14 2.887796 1_555
Nb0 Te4 2.975264 1_555
Nb1 Te1 2.783547 1_555
Nb1 Te6 2.799558 1_555
Nb1 Te7 2.799558 1_555
Nb1 Te13 2.889153 1_555
Nb1 Te14 2.889153 1_555
Nb1 Te5 3.026627 1_555
Nb2 Te2 2.783985 1_555
Nb2 Te9 2.805942 1_545
Nb2 Te8 2.805942 1_544
Nb2 Te13 2.887788 1_554
Nb2 Te14 2.887788 1_555
Nb2 Te0 2.975264 1_555
Nb3 Te3 2.783547 1_555
Nb3 Te8 2.799550 1_545
Nb3 Te9 2.799550 1_545
Nb3 Te13 2.889153 1_555
Nb3 Te14 2.889153 1_555
Nb3 Te1 3.026627 1_555
Nb4 Te4 2.783979 1_555
Nb4 Te10 2.805942 1_654
Nb4 Te11 2.805942 1_655
Nb4 Te13 2.887793 1_554
Nb4 Te14 2.887793 1_555
Nb4 Te2 2.975273 1_555
Nb5 Te5 2.783547 1_555
Nb5 Te11 2.799553 1_655
Nb5 Te10 2.799553 1_655
Nb5 Te14 2.889153 1_555
Nb5 Te13 2.889153 1_555
Nb5 Te3 3.026627 1_555
Nb6 Te0 2.788644 1_556
Nb6 Te6 2.794981 1_555
Nb6 Te1 2.864622 1_555
Nb6 Te12 2.889153 1_555
Nb6 Te10 2.983941 1_545
Nb7 Te0 2.788644 1_555
Nb7 Te7 2.794981 1_555
Nb7 Te1 2.864622 1_555
Nb7 Te12 2.889153 1_555
Nb7 Te11 2.983941 1_545
Nb8 Te2 2.788636 1_556
Nb8 Te8 2.794981 1_545
Nb8 Te3 2.864614 1_555
Nb8 Te12 2.889153 1_655
Nb8 Te6 2.983941 1_655
Nb9 Te2 2.788636 1_555
Nb9 Te9 2.794981 1_545
Nb9 Te3 2.864614 1_555
Nb9 Te12 2.889153 1_655
Nb9 Te7 2.983941 1_655
Nb10 Te4 2.788638 1_556
Nb10 Te10 2.794981 1_655
Nb10 Te5 2.864617 1_555
Nb10 Te12 2.889153 1_665
Nb10 Te8 2.983941 1_555
Nb11 Te4 2.788638 1_555
Nb11 Te11 2.794981 1_655
Nb11 Te5 2.864617 1_555
Nb11 Te12 2.889153 1_665
Nb11 Te9 2.983941 1_555
Te0 Tl0 3.327020 1_545
Te2 Tl0 3.327027 1_655
Te4 Tl0 3.327041 1_555
As0 Nb9 2.737237 1_455
As0 Nb8 2.737237 1_454
As0 Nb6 2.737237 1_554
As0 Nb7 2.737237 1_555
As0 Nb10 2.737237 1_444
As0 Nb11 2.737237 1_445
