# generated using pymatgen
data_NdRu2
_symmetry_space_group_name_H-M   'P 1'
_cell_length_a   5.29358178
_cell_length_b   5.29358178
_cell_length_c   9.13095370
_cell_angle_alpha   89.99933649
_cell_angle_beta   90.00067002
_cell_angle_gamma   120.00048765
_symmetry_Int_Tables_number   1
_chemical_formula_structural   NdRu2
_chemical_formula_sum   'Nd4 Ru8'
_cell_volume   221.58680295
_cell_formula_units_Z   4
loop_
 _symmetry_equiv_pos_site_id
 _symmetry_equiv_pos_as_xyz
  1  'x, y, z'
loop_
 _atom_site_type_symbol
 _atom_site_label
 _atom_site_symmetry_multiplicity
 _atom_site_fract_x
 _atom_site_fract_y
 _atom_site_fract_z
 _atom_site_occupancy
  Nd  Nd0  1  0.66667987  0.33332013  0.56751844  1
  Nd  Nd1  1  0.33332148  0.66667852  0.43245739  1
  Nd  Nd2  1  0.33331878  0.66668122  0.06746231  1
  Nd  Nd3  1  0.66667966  0.33332034  0.93256714  1
  Ru  Ru0  1  0.00000129  -0.00000229  0.49990549  1
  Ru  Ru1  1  0.00000140  -0.00000140  0.00009236  1
  Ru  Ru2  1  0.16907467  0.33808818  0.75020958  1
  Ru  Ru3  1  0.16898231  0.83101769  0.75020859  1
  Ru  Ru4  1  0.66191182  0.83092533  0.75020958  1
  Ru  Ru5  1  0.83090301  0.66186676  0.24979028  1
  Ru  Ru6  1  0.83099045  0.16900955  0.24978957  1
  Ru  Ru7  1  0.33813324  0.16909699  0.24979028  1
loop_
_geom_bond_atom_site_label_1
_geom_bond_atom_site_label_2
_geom_bond_distance
_geom_bond_site_symmetry_2
Nd0 Ru0 3.117896 1_655
Nd0 Ru0 3.118013 1_665
Nd0 Ru0 3.118017 1_555
Nd0 Ru4 3.128656 1_555
Nd0 Ru2 3.128656 1_555
Nd0 Ru3 3.128661 1_655
Nd0 Ru3 3.128661 1_545
Nd0 Ru2 3.128719 1_655
Nd0 Ru4 3.128719 1_545
Nd0 Ru7 3.268828 1_555
Nd0 Ru5 3.268828 1_555
Nd0 Ru6 3.269023 1_555
Nd0 Nd1 3.295572 1_545
Nd0 Nd1 3.295573 1_655
Nd0 Nd1 3.295890 1_555
Nd0 Nd3 3.333243 1_555
Nd1 Ru0 3.117578 1_565
Nd1 Ru0 3.117725 1_665
Nd1 Ru0 3.117730 1_555
Nd1 Ru7 3.128532 1_555
Nd1 Ru5 3.128532 1_555
Nd1 Ru6 3.128554 1_455
Nd1 Ru6 3.128554 1_565
Nd1 Ru5 3.128612 1_455
Nd1 Ru7 3.128612 1_565
Nd1 Ru4 3.269115 1_555
Nd1 Ru2 3.269115 1_555
Nd1 Ru3 3.269325 1_555
Nd1 Nd2 3.332753 1_555
Nd2 Ru1 3.117400 1_565
Nd2 Ru1 3.117605 1_555
Nd2 Ru1 3.117605 1_665
Nd2 Ru5 3.126868 1_555
Nd2 Ru7 3.126868 1_555
Nd2 Ru6 3.126897 1_565
Nd2 Ru6 3.126897 1_455
Nd2 Ru7 3.126977 1_565
Nd2 Ru5 3.126977 1_455
Nd2 Ru2 3.265092 1_554
Nd2 Ru4 3.265092 1_554
Nd2 Ru3 3.265247 1_554
Nd2 Nd3 3.294980 1_454
Nd2 Nd3 3.294980 1_564
Nd2 Nd3 3.295375 1_554
Nd3 Ru1 3.117719 1_656
Nd3 Ru1 3.117866 1_666
Nd3 Ru1 3.117866 1_556
Nd3 Ru2 3.126998 1_555
Nd3 Ru4 3.126999 1_555
Nd3 Ru3 3.127048 1_545
Nd3 Ru3 3.127048 1_655
Nd3 Ru4 3.127130 1_545
Nd3 Ru2 3.127130 1_655
Nd3 Ru5 3.264754 1_556
Nd3 Ru7 3.264754 1_556
Nd3 Ru6 3.264885 1_556
Ru0 Ru6 2.759887 1_455
Ru0 Ru5 2.760180 1_445
Ru0 Ru7 2.760183 1_555
Ru0 Ru3 2.761143 1_545
Ru0 Ru4 2.761500 1_445
Ru0 Ru2 2.761503 1_555
Ru1 Ru6 2.756757 1_455
Ru1 Ru7 2.757013 1_555
Ru1 Ru5 2.757013 1_445
Ru1 Ru3 2.758011 1_544
Ru1 Ru4 2.758300 1_444
Ru1 Ru2 2.758300 1_554
Ru2 Ru4 2.608855 1_555
Ru2 Ru3 2.609607 1_555
Ru2 Ru3 2.683975 1_545
Ru2 Ru4 2.684688 1_445
Ru3 Ru4 2.609607 1_555
Ru3 Ru4 2.683975 1_455
Ru5 Ru7 2.608498 1_555
Ru5 Ru6 2.609211 1_555
Ru5 Ru6 2.684370 1_565
Ru5 Ru7 2.685045 1_665
Ru6 Ru7 2.609211 1_555
Ru6 Ru7 2.684370 1_655
