# generated using pymatgen
data_Tb4Si2S3O7
_symmetry_space_group_name_H-M   'P 1'
_cell_length_a   10.80139735
_cell_length_b   10.80139735
_cell_length_c   10.80139735
_cell_angle_alpha   113.95852459
_cell_angle_beta   113.95852459
_cell_angle_gamma   100.82731151
_symmetry_Int_Tables_number   1
_chemical_formula_structural   Tb4Si2S3O7
_chemical_formula_sum   'Tb16 Si8 S12 O28'
_cell_volume   953.90364791
_cell_formula_units_Z   4
loop_
 _symmetry_equiv_pos_site_id
 _symmetry_equiv_pos_as_xyz
  1  'x, y, z'
loop_
 _atom_site_type_symbol
 _atom_site_label
 _atom_site_symmetry_multiplicity
 _atom_site_fract_x
 _atom_site_fract_y
 _atom_site_fract_z
 _atom_site_occupancy
  Tb  Tb0  1  0.92213100  0.42213100  0.84426300  1
  Tb  Tb1  1  0.17213100  0.82786900  0.00000000  1
  Tb  Tb2  1  0.82786900  0.17213100  0.00000000  1
  Tb  Tb3  1  0.57786900  0.07786900  0.15573700  1
  Tb  Tb4  1  0.82786900  0.82786900  0.65573700  1
  Tb  Tb5  1  0.57786900  0.42213100  0.50000000  1
  Tb  Tb6  1  0.92213100  0.07786900  0.50000000  1
  Tb  Tb7  1  0.17213100  0.17213100  0.34426300  1
  Tb  Tb8  1  0.53318800  0.29730800  0.76412000  1
  Tb  Tb9  1  0.53318800  0.76906700  0.23588000  1
  Tb  Tb10  1  0.70269200  0.46681200  0.23588000  1
  Tb  Tb11  1  0.51906700  0.78318800  0.73588000  1
  Tb  Tb12  1  0.04730800  0.78318800  0.26412000  1
  Tb  Tb13  1  0.21681200  0.48093300  0.26412000  1
  Tb  Tb14  1  0.21681200  0.95269200  0.73588000  1
  Tb  Tb15  1  0.23093300  0.46681200  0.76412000  1
  Si  Si0  1  0.77871000  0.90369500  0.12498500  1
  Si  Si1  1  0.77871000  0.65372500  0.87501500  1
  Si  Si2  1  0.09630500  0.22129000  0.87501500  1
  Si  Si3  1  0.40372500  0.02871000  0.37501500  1
  Si  Si4  1  0.65369500  0.02871000  0.62498500  1
  Si  Si5  1  0.97129000  0.59627500  0.62498500  1
  Si  Si6  1  0.97129000  0.34630500  0.37501500  1
  Si  Si7  1  0.34627500  0.22129000  0.12498500  1
  S  S0  1  0.00000000  0.00000000  0.00000000  1
  S  S1  1  0.75000000  0.25000000  0.50000000  1
  S  S2  1  0.25000000  0.75000000  0.50000000  1
  S  S3  1  0.50000000  0.50000000  0.00000000  1
  S  S4  1  0.37500000  0.47843300  0.60343300  1
  S  S5  1  0.22843300  0.12500000  0.60343300  1
  S  S6  1  0.52156700  0.62500000  0.39656700  1
  S  S7  1  0.87500000  0.77156700  0.39656700  1
  S  S8  1  0.37500000  0.77156700  0.89656700  1
  S  S9  1  0.52156700  0.12500000  0.89656700  1
  S  S10  1  0.22843300  0.62500000  0.10343300  1
  S  S11  1  0.87500000  0.47843300  0.10343300  1
  O  O0  1  0.27394000  0.27394000  0.00000000  1
  O  O1  1  0.02394000  0.52394000  0.50000000  1
  O  O2  1  0.47606000  0.97606000  0.50000000  1
  O  O3  1  0.72606000  0.72606000  0.00000000  1
  O  O4  1  0.70075400  0.46881500  0.76806000  1
  O  O5  1  0.70075400  0.93269400  0.23194000  1
  O  O6  1  0.53118500  0.29924600  0.23194000  1
  O  O7  1  0.68269400  0.95075400  0.73194000  1
  O  O8  1  0.21881500  0.95075400  0.26806000  1
  O  O9  1  0.04924600  0.31730600  0.26806000  1
  O  O10  1  0.04924600  0.78118500  0.73194000  1
  O  O11  1  0.06730600  0.29924600  0.76806000  1
  O  O12  1  0.79408800  0.55816500  0.51839000  1
  O  O13  1  0.03977500  0.27569800  0.48161000  1
  O  O14  1  0.44183500  0.20591200  0.48161000  1
  O  O15  1  0.02569800  0.04408800  0.73592400  1
  O  O16  1  0.30816500  0.28977500  0.26407600  1
  O  O17  1  0.95591200  0.97430200  0.26407600  1
  O  O18  1  0.71022500  0.69183500  0.73592400  1
  O  O19  1  0.72430200  0.96022500  0.51839000  1
  O  O20  1  0.95591200  0.69183500  0.98161000  1
  O  O21  1  0.71022500  0.97430200  0.01839000  1
  O  O22  1  0.30816500  0.04408800  0.01839000  1
  O  O23  1  0.72430200  0.20591200  0.76407600  1
  O  O24  1  0.44183500  0.96022500  0.23592400  1
  O  O25  1  0.79408800  0.27569800  0.23592400  1
  O  O26  1  0.03977500  0.55816500  0.76407600  1
  O  O27  1  0.02569800  0.28977500  0.98161000  1
loop_
_geom_bond_atom_site_label_1
_geom_bond_atom_site_label_2
_geom_bond_distance
_geom_bond_site_symmetry_2
S0 Tb2 2.865727 1_455
S0 Tb1 2.865727 1_545
S0 Tb7 2.865735 1_555
S0 Tb4 2.865735 1_444
S1 Tb6 2.865727 1_555
S1 Tb5 2.865727 1_555
S1 Tb0 2.865735 1_555
S1 Tb3 2.865735 1_555
S2 Tb13 2.814172 1_555
S2 Tb11 2.814172 1_555
S2 Tb12 2.814179 1_555
S2 Tb14 2.814179 1_555
S3 Tb9 2.814172 1_555
S3 Tb15 2.814172 1_554
S3 Tb10 2.814179 1_555
S3 Tb8 2.814179 1_554
S4 Tb15 2.783310 1_555
S4 Tb11 2.783317 1_555
S4 Tb7 2.890808 1_555
S4 Tb5 2.890811 1_555
S4 Tb8 3.371140 1_555
S4 Tb13 3.371146 1_555
S5 Tb8 2.783319 1_555
S5 Tb14 2.783319 1_545
S5 Tb7 2.890800 1_555
S5 Tb6 2.890811 1_455
S5 Tb15 3.371136 1_555
S5 Tb12 3.371140 1_545
S6 Tb9 2.783310 1_555
S6 Tb13 2.783317 1_555
S6 Tb4 2.890808 1_555
S6 Tb5 2.890811 1_555
S6 Tb10 3.371140 1_555
S6 Tb11 3.371146 1_555
S7 Tb12 2.783319 1_655
S7 Tb10 2.783319 1_555
S7 Tb4 2.890800 1_555
S7 Tb6 2.890811 1_565
S7 Tb9 3.371136 1_555
S7 Tb14 3.371140 1_655
S8 Tb11 2.783310 1_555
S8 Tb15 2.783317 1_555
S8 Tb3 2.890808 1_566
S8 Tb1 2.890811 1_556
S8 Tb14 3.371140 1_555
S8 Tb9 3.371146 1_556
S9 Tb8 2.783319 1_555
S9 Tb14 2.783319 1_545
S9 Tb3 2.890800 1_556
S9 Tb2 2.890811 1_556
S9 Tb11 3.371136 1_545
S9 Tb10 3.371140 1_556
S10 Tb13 2.783310 1_555
S10 Tb9 2.783317 1_555
S10 Tb0 2.890808 1_454
S10 Tb1 2.890811 1_555
S10 Tb12 3.371140 1_555
S10 Tb15 3.371146 1_554
S11 Tb12 2.783319 1_655
S11 Tb10 2.783319 1_555
S11 Tb0 2.890800 1_554
S11 Tb2 2.890811 1_555
S11 Tb13 3.371136 1_655
S11 Tb8 3.371140 1_554
O0 Si7 1.640188 1_555
O0 Si2 1.640188 1_554
O1 Si5 1.640188 1_455
O1 Si6 1.640188 1_455
O2 Si4 1.640188 1_565
O2 Si3 1.640188 1_565
O3 Si0 1.640188 1_555
O3 Si1 1.640188 1_554
O4 Si1 1.654381 1_555
O4 Tb8 2.307216 1_555
O4 Tb5 2.416834 1_555
O4 Tb0 2.416844 1_555
O5 Si0 1.654390 1_555
O5 Tb9 2.307215 1_555
O5 Tb6 2.416838 1_565
O5 Tb3 2.416842 1_565
O6 Si7 1.654381 1_555
O6 Tb10 2.307216 1_555
O6 Tb5 2.416834 1_555
O6 Tb3 2.416844 1_555
O7 Si4 1.654390 1_565
O7 Tb11 2.307215 1_555
O7 Tb2 2.416838 1_566
O7 Tb4 2.416842 1_555
O8 Si3 1.654381 1_565
O8 Tb12 2.307216 1_555
O8 Tb1 2.416834 1_555
O8 Tb7 2.416844 1_565
O9 Si6 1.654390 1_455
O9 Tb13 2.307215 1_555
O9 Tb2 2.416838 1_455
O9 Tb7 2.416842 1_555
O10 Si5 1.654381 1_455
O10 Tb14 2.307216 1_555
O10 Tb1 2.416834 1_556
O10 Tb4 2.416844 1_455
O11 Si2 1.654390 1_555
O11 Tb15 2.307215 1_555
O11 Tb6 2.416838 1_455
O11 Tb0 2.416842 1_455
O12 Si5 1.639481 1_555
O12 Tb5 2.397875 1_555
O12 Tb10 2.449885 1_555
O12 Tb4 2.543952 1_555
O13 Si6 1.639481 1_455
O13 Tb6 2.397875 1_455
O13 Tb15 2.449887 1_555
O13 Tb7 2.543946 1_555
O14 Si3 1.639481 1_555
O14 Tb5 2.397875 1_555
O14 Tb8 2.449885 1_555
O14 Tb7 2.543952 1_555
O15 Si2 1.639479 1_555
O15 Tb4 2.397866 1_445
O15 Tb14 2.449887 1_545
O15 Tb6 2.543963 1_455
O16 Si7 1.639472 1_555
O16 Tb7 2.397893 1_555
O16 Tb13 2.449893 1_555
O16 Tb5 2.543956 1_555
O17 Si0 1.639479 1_555
O17 Tb7 2.397866 1_665
O17 Tb12 2.449887 1_655
O17 Tb6 2.543963 1_565
O18 Si1 1.639472 1_555
O18 Tb4 2.397893 1_555
O18 Tb11 2.449893 1_555
O18 Tb5 2.543956 1_555
O19 Si4 1.639481 1_565
O19 Tb6 2.397875 1_565
O19 Tb9 2.449887 1_555
O19 Tb4 2.543946 1_555
O20 Si1 1.639481 1_555
O20 Tb1 2.397875 1_656
O20 Tb12 2.449885 1_656
O20 Tb0 2.543952 1_555
O21 Si0 1.639481 1_555
O21 Tb2 2.397875 1_565
O21 Tb11 2.449887 1_554
O21 Tb3 2.543946 1_565
O22 Si7 1.639481 1_555
O22 Tb1 2.397875 1_545
O22 Tb14 2.449885 1_544
O22 Tb3 2.543952 1_555
O23 Si4 1.639479 1_555
O23 Tb0 2.397866 1_555
O23 Tb8 2.449887 1_555
O23 Tb2 2.543963 1_556
O24 Si3 1.639472 1_565
O24 Tb3 2.397893 1_565
O24 Tb9 2.449893 1_555
O24 Tb1 2.543956 1_555
O25 Si6 1.639479 1_555
O25 Tb3 2.397866 1_555
O25 Tb10 2.449887 1_555
O25 Tb2 2.543963 1_555
O26 Si5 1.639472 1_455
O26 Tb0 2.397893 1_455
O26 Tb15 2.449893 1_555
O26 Tb1 2.543956 1_556
O27 Si2 1.639481 1_555
O27 Tb2 2.397875 1_456
O27 Tb13 2.449887 1_556
O27 Tb0 2.543946 1_455
