# generated using pymatgen
data_TbSnIr
_symmetry_space_group_name_H-M   'P 1'
_cell_length_a   7.42999188
_cell_length_b   7.42999188
_cell_length_c   3.98703295
_cell_angle_alpha   90.00000000
_cell_angle_beta   90.00000000
_cell_angle_gamma   119.99999766
_symmetry_Int_Tables_number   1
_chemical_formula_structural   TbSnIr
_chemical_formula_sum   'Tb3 Sn3 Ir3'
_cell_volume   190.61503128
_cell_formula_units_Z   3
loop_
 _symmetry_equiv_pos_site_id
 _symmetry_equiv_pos_as_xyz
  1  'x, y, z'
loop_
 _atom_site_type_symbol
 _atom_site_label
 _atom_site_symmetry_multiplicity
 _atom_site_fract_x
 _atom_site_fract_y
 _atom_site_fract_z
 _atom_site_occupancy
  Tb  Tb0  1  0.59285358  0.00000000  0.00000000  1
  Tb  Tb1  1  0.00000000  0.59285358  -0.00000000  1
  Tb  Tb2  1  0.40714642  0.40714642  0.00000000  1
  Sn  Sn0  1  0.25720018  -0.00000000  0.50000000  1
  Sn  Sn1  1  -0.00000000  0.25720018  0.50000000  1
  Sn  Sn2  1  0.74279982  0.74279982  0.50000000  1
  Ir  Ir0  1  0.33333300  0.66666700  0.50000000  1
  Ir  Ir1  1  0.66666700  0.33333300  0.50000000  1
  Ir  Ir2  1  -0.00000000  -0.00000000  -0.00000000  1
loop_
_geom_bond_atom_site_label_1
_geom_bond_atom_site_label_2
_geom_bond_distance
_geom_bond_site_symmetry_2
Sn0 Tb0 3.192750 1_555
Sn0 Tb0 3.192750 1_556
Sn0 Tb2 3.316062 1_555
Sn0 Tb2 3.316062 1_556
Sn0 Tb1 3.316062 1_546
Sn0 Tb1 3.316062 1_545
Sn1 Tb1 3.192750 1_555
Sn1 Tb1 3.192750 1_556
Sn1 Tb2 3.316062 1_555
Sn1 Tb2 3.316062 1_556
Sn1 Tb0 3.316062 1_456
Sn1 Tb0 3.316062 1_455
Sn2 Tb2 3.192750 1_555
Sn2 Tb2 3.192750 1_556
Sn2 Tb1 3.316062 1_656
Sn2 Tb1 3.316062 1_655
Sn2 Tb0 3.316062 1_565
Sn2 Tb0 3.316062 1_566
Ir0 Sn0 2.802641 1_565
Ir0 Sn1 2.802645 1_555
Ir0 Sn2 2.802648 1_555
Ir0 Tb1 3.008398 1_555
Ir0 Tb1 3.008398 1_556
Ir0 Tb0 3.008399 1_565
Ir0 Tb0 3.008399 1_566
Ir0 Tb2 3.008403 1_555
Ir0 Tb2 3.008403 1_556
Ir1 Sn1 2.802641 1_655
Ir1 Sn0 2.802645 1_555
Ir1 Sn2 2.802648 1_555
Ir1 Tb0 3.008398 1_555
Ir1 Tb0 3.008398 1_556
Ir1 Tb1 3.008399 1_656
Ir1 Tb1 3.008399 1_655
Ir1 Tb2 3.008403 1_555
Ir1 Tb2 3.008403 1_556
Ir2 Sn1 2.761523 1_555
Ir2 Sn0 2.761523 1_554
Ir2 Sn1 2.761523 1_554
Ir2 Sn0 2.761523 1_555
Ir2 Sn2 2.761523 1_444
Ir2 Sn2 2.761523 1_445
Ir2 Tb1 3.025095 1_545
Ir2 Tb0 3.025095 1_455
Ir2 Tb2 3.025095 1_555
