# generated using pymatgen
data_Sr2GdTa(CuO4)2
_symmetry_space_group_name_H-M   'P 1'
_cell_length_a   3.93505100
_cell_length_b   3.93505100
_cell_length_c   11.73933000
_cell_angle_alpha   90.00000000
_cell_angle_beta   90.00000000
_cell_angle_gamma   90.00000000
_symmetry_Int_Tables_number   1
_chemical_formula_structural   Sr2GdTa(CuO4)2
_chemical_formula_sum   'Sr2 Gd1 Ta1 Cu2 O8'
_cell_volume   181.77913891
_cell_formula_units_Z   1
loop_
 _symmetry_equiv_pos_site_id
 _symmetry_equiv_pos_as_xyz
  1  'x, y, z'
loop_
 _atom_site_type_symbol
 _atom_site_label
 _atom_site_symmetry_multiplicity
 _atom_site_fract_x
 _atom_site_fract_y
 _atom_site_fract_z
 _atom_site_occupancy
  Sr  Sr0  1  0.50000000  0.50000000  0.20112700  1
  Sr  Sr1  1  0.50000000  0.50000000  0.79887300  1
  Gd  Gd0  1  0.50000000  0.50000000  0.50000000  1
  Ta  Ta0  1  0.00000000  0.00000000  0.00000000  1
  Cu  Cu0  1  0.00000000  0.00000000  0.36062600  1
  Cu  Cu1  1  0.00000000  0.00000000  0.63937400  1
  O  O0  1  0.00000000  0.00000000  0.16893500  1
  O  O1  1  0.00000000  0.00000000  0.83106500  1
  O  O2  1  0.00000000  0.50000000  0.00000000  1
  O  O3  1  0.50000000  0.00000000  0.00000000  1
  O  O4  1  0.00000000  0.50000000  0.37356900  1
  O  O5  1  0.00000000  0.50000000  0.62643100  1
  O  O6  1  0.50000000  0.00000000  0.37356900  1
  O  O7  1  0.50000000  0.00000000  0.62643100  1
loop_
_geom_bond_atom_site_label_1
_geom_bond_atom_site_label_2
_geom_bond_distance
_geom_bond_site_symmetry_2
Gd0 O7 2.464559 1_555
Gd0 O7 2.464559 1_565
Gd0 O5 2.464559 1_555
Gd0 O5 2.464559 1_655
Gd0 O4 2.464559 1_655
Gd0 O6 2.464559 1_555
Gd0 O6 2.464559 1_565
Gd0 O4 2.464559 1_555
Cu0 O6 1.973384 1_555
Cu0 O4 1.973384 1_555
Cu0 O4 1.973384 1_545
Cu0 O6 1.973384 1_455
Cu0 O0 2.250324 1_555
Cu1 O7 1.973384 1_455
Cu1 O5 1.973384 1_545
Cu1 O7 1.973384 1_555
Cu1 O5 1.973384 1_555
Cu1 O1 2.250324 1_555
O0 Ta0 1.983184 1_555
O0 Sr0 2.808048 1_545
O0 Sr0 2.808048 1_455
O0 Sr0 2.808048 1_555
O0 Sr0 2.808048 1_445
O1 Ta0 1.983184 1_556
O1 Sr1 2.808048 1_445
O1 Sr1 2.808048 1_545
O1 Sr1 2.808048 1_455
O1 Sr1 2.808048 1_555
O2 Ta0 1.967526 1_555
O2 Ta0 1.967526 1_565
O2 Sr0 3.073423 1_455
O2 Sr0 3.073423 1_555
O2 Sr1 3.073423 1_554
O2 Sr1 3.073423 1_454
O3 Ta0 1.967526 1_555
O3 Ta0 1.967526 1_655
O3 Sr0 3.073423 1_555
O3 Sr0 3.073423 1_545
O3 Sr1 3.073423 1_554
O3 Sr1 3.073423 1_544
O4 Sr0 2.822971 1_455
O4 Sr0 2.822971 1_555
O5 Sr1 2.822971 1_455
O5 Sr1 2.822971 1_555
O6 Sr0 2.822971 1_545
O6 Sr0 2.822971 1_555
O7 Sr1 2.822971 1_545
O7 Sr1 2.822971 1_555
