# generated using pymatgen
data_Ca2AlH2OF7
_symmetry_space_group_name_H-M   'P 1'
_cell_length_a   5.91739500
_cell_length_b   5.93446673
_cell_length_c   9.39787911
_cell_angle_alpha   78.61667926
_cell_angle_beta   77.55360720
_cell_angle_gamma   73.14887718
_symmetry_Int_Tables_number   1
_chemical_formula_structural   Ca2AlH2OF7
_chemical_formula_sum   'Ca4 Al2 H4 O2 F14'
_cell_volume   305.19786851
_cell_formula_units_Z   2
loop_
 _symmetry_equiv_pos_site_id
 _symmetry_equiv_pos_as_xyz
  1  'x, y, z'
loop_
 _atom_site_type_symbol
 _atom_site_label
 _atom_site_symmetry_multiplicity
 _atom_site_fract_x
 _atom_site_fract_y
 _atom_site_fract_z
 _atom_site_occupancy
  Ca  Ca0  1  0.41551900  0.41562400  0.35477400  1
  Ca  Ca1  1  0.58448100  0.58437600  0.64522600  1
  Ca  Ca2  1  0.84248400  0.84267300  0.20700900  1
  Ca  Ca3  1  0.15751600  0.15732700  0.79299100  1
  Al  Al0  1  0.50000000  0.50000000  0.00000000  1
  Al  Al1  1  0.00000000  0.00000000  0.50000000  1
  H  H0  1  0.05917800  0.25055400  0.10928500  1
  H  H1  1  0.94082200  0.74944600  0.89071500  1
  H  H2  1  0.27565100  0.03392500  0.11154300  1
  H  H3  1  0.72434900  0.96607500  0.88845700  1
  O  O0  1  0.11912000  0.09127300  0.08043800  1
  O  O1  1  0.88088000  0.90872700  0.91956200  1
  F  F0  1  0.59207400  0.64475000  0.12376600  1
  F  F1  1  0.40792600  0.35525000  0.87623400  1
  F  F2  1  0.19736700  0.56035500  0.11371200  1
  F  F3  1  0.80263300  0.43964500  0.88628800  1
  F  F4  1  0.57593000  0.21883100  0.12658900  1
  F  F5  1  0.42407000  0.78116900  0.87341100  1
  F  F6  1  0.17604600  0.17676100  0.37248700  1
  F  F7  1  0.82395400  0.82323900  0.62751300  1
  F  F8  1  0.75927300  0.11191700  0.38598000  1
  F  F9  1  0.24072700  0.88808300  0.61402000  1
  F  F10  1  0.11569800  0.76072000  0.38127000  1
  F  F11  1  0.88430200  0.23928000  0.61873000  1
  F  F12  1  0.64887400  0.63645100  0.39688600  1
  F  F13  1  0.35112600  0.36354900  0.60311400  1
loop_
_geom_bond_atom_site_label_1
_geom_bond_atom_site_label_2
_geom_bond_distance
_geom_bond_site_symmetry_2
Ca0 F6 2.239398 1_555
Ca0 F13 2.255631 1_555
Ca0 F12 2.295696 1_555
Ca0 F10 2.303934 1_555
Ca0 F8 2.322725 1_555
Ca0 F4 2.516360 1_555
Ca0 F0 2.516788 1_555
Ca0 F2 2.717748 1_555
Ca1 F7 2.239398 1_555
Ca1 F12 2.255631 1_555
Ca1 F13 2.295696 1_555
Ca1 F11 2.303934 1_555
Ca1 F9 2.322725 1_555
Ca1 F5 2.516360 1_555
Ca1 F1 2.516788 1_555
Ca1 F3 2.717748 1_555
Ca2 F12 2.250359 1_555
Ca2 F2 2.394171 1_655
Ca2 F4 2.418415 1_565
Ca2 F8 2.423253 1_565
Ca2 F10 2.429675 1_655
Ca2 F0 2.461448 1_555
Ca2 O0 2.477741 1_665
Ca2 O1 2.621424 1_554
Ca3 F13 2.250359 1_555
Ca3 F3 2.394171 1_455
Ca3 F5 2.418415 1_545
Ca3 F9 2.423253 1_545
Ca3 F11 2.429675 1_455
Ca3 F1 2.461448 1_555
Ca3 O1 2.477741 1_445
Ca3 O0 2.621424 1_556
Al0 F0 1.823888 1_555
Al0 F1 1.823888 1_554
Al0 F5 1.847574 1_554
Al0 F4 1.847574 1_555
Al0 F3 1.852448 1_554
Al0 F2 1.852448 1_555
Al1 F7 1.794672 1_445
Al1 F6 1.794672 1_555
Al1 F9 1.856601 1_545
Al1 F8 1.856601 1_455
Al1 F11 1.860826 1_455
Al1 F10 1.860826 1_545
H0 O0 0.978837 1_555
H1 O1 0.978837 1_555
H2 O0 0.976681 1_555
H3 O1 0.976681 1_555
