# generated using pymatgen
data_Ba2GdReO6
_symmetry_space_group_name_H-M   'P 1'
_cell_length_a   6.03846162
_cell_length_b   6.04984300
_cell_length_c   8.56006213
_cell_angle_alpha   90.00000000
_cell_angle_beta   89.94111973
_cell_angle_gamma   90.00000000
_symmetry_Int_Tables_number   1
_chemical_formula_structural   Ba2GdReO6
_chemical_formula_sum   'Ba4 Gd2 Re2 O12'
_cell_volume   312.71383995
_cell_formula_units_Z   2
loop_
 _symmetry_equiv_pos_site_id
 _symmetry_equiv_pos_as_xyz
  1  'x, y, z'
loop_
 _atom_site_type_symbol
 _atom_site_label
 _atom_site_symmetry_multiplicity
 _atom_site_fract_x
 _atom_site_fract_y
 _atom_site_fract_z
 _atom_site_occupancy
  Ba  Ba0  1  0.00168000  0.48818100  0.25018000  1
  Ba  Ba1  1  0.99832000  0.51181900  0.74982000  1
  Ba  Ba2  1  0.49832000  0.98818100  0.24982000  1
  Ba  Ba3  1  0.50168000  0.01181900  0.75018000  1
  Gd  Gd0  1  0.00000000  0.00000000  0.00000000  1
  Gd  Gd1  1  0.50000000  0.50000000  0.50000000  1
  Re  Re0  1  0.00000000  0.00000000  0.50000000  1
  Re  Re1  1  0.50000000  0.50000000  0.00000000  1
  O  O0  1  0.97056400  0.00093500  0.26748600  1
  O  O1  1  0.02943600  0.99906500  0.73251400  1
  O  O2  1  0.52943600  0.50093500  0.23251400  1
  O  O3  1  0.47056400  0.49906500  0.76748600  1
  O  O4  1  0.25070000  0.71683300  0.01518800  1
  O  O5  1  0.74930000  0.28316700  0.98481200  1
  O  O6  1  0.24930000  0.21683300  0.48481200  1
  O  O7  1  0.75070000  0.78316700  0.51518800  1
  O  O8  1  0.28287700  0.25182800  0.01652500  1
  O  O9  1  0.71712300  0.74817200  0.98347500  1
  O  O10  1  0.21712300  0.75182800  0.48347500  1
  O  O11  1  0.78287700  0.24817200  0.51652500  1
loop_
_geom_bond_atom_site_label_1
_geom_bond_atom_site_label_2
_geom_bond_distance
_geom_bond_site_symmetry_2
Ba0 O2 2.856831 1_455
Ba0 O4 2.866139 1_555
Ba0 O10 2.868794 1_555
Ba0 O0 2.957447 1_455
Ba0 O8 2.986843 1_555
Ba0 O6 2.995121 1_555
Ba0 O5 3.004666 1_454
Ba0 O11 3.007640 1_455
Ba0 O0 3.111286 1_465
Ba0 O2 3.191198 1_555
Ba0 O7 3.258936 1_455
Ba0 O9 3.262934 1_454
Ba1 O3 2.856831 1_655
Ba1 O5 2.866139 1_555
Ba1 O11 2.868794 1_555
Ba1 O1 2.957447 1_655
Ba1 O9 2.986843 1_555
Ba1 O7 2.995121 1_555
Ba1 O4 3.004666 1_656
Ba1 O10 3.007640 1_655
Ba1 O1 3.111286 1_645
Ba1 O3 3.191198 1_555
Ba1 O6 3.258936 1_655
Ba1 O8 3.262934 1_656
Ba2 O0 2.856831 1_565
Ba2 O6 2.866139 1_565
Ba2 O8 2.868794 1_565
Ba2 O2 2.957447 1_555
Ba2 O10 2.986843 1_555
Ba2 O4 2.995121 1_555
Ba2 O7 3.004666 1_555
Ba2 O9 3.007640 1_554
Ba2 O2 3.111286 1_565
Ba2 O0 3.191198 1_465
Ba2 O5 3.258936 1_564
Ba2 O11 3.262934 1_565
Ba3 O1 2.856831 1_545
Ba3 O7 2.866139 1_545
Ba3 O9 2.868794 1_545
Ba3 O3 2.957447 1_555
Ba3 O11 2.986843 1_555
Ba3 O5 2.995121 1_555
Ba3 O6 3.004666 1_555
Ba3 O8 3.007640 1_556
Ba3 O3 3.111286 1_545
Ba3 O1 3.191198 1_645
Ba3 O4 3.258936 1_546
Ba3 O10 3.262934 1_545
Gd0 O5 2.289933 1_454
Gd0 O4 2.289933 1_545
Gd0 O8 2.293331 1_555
Gd0 O9 2.293331 1_444
Gd0 O0 2.296411 1_455
Gd0 O1 2.296411 1_544
Gd1 O6 2.289933 1_555
Gd1 O7 2.289933 1_555
Gd1 O11 2.293331 1_555
Gd1 O10 2.293331 1_555
Gd1 O2 2.296411 1_555
Gd1 O3 2.296411 1_555
O0 Re0 1.998445 1_655
O1 Re0 1.998445 1_565
O2 Re1 1.998445 1_555
O3 Re1 1.998445 1_556
O4 Re1 2.000882 1_555
O5 Re1 2.000882 1_556
O6 Re0 2.000882 1_555
O7 Re0 2.000882 1_665
O8 Re1 1.998197 1_555
O9 Re1 1.998197 1_556
O10 Re0 1.998197 1_565
O11 Re0 1.998197 1_655
