# generated using pymatgen
data_Dy2Fe17
_symmetry_space_group_name_H-M   'P 1'
_cell_length_a   6.40629532
_cell_length_b   6.40629532
_cell_length_c   6.40629518
_cell_angle_alpha   83.15476758
_cell_angle_beta   83.15476758
_cell_angle_gamma   83.15476581
_symmetry_Int_Tables_number   1
_chemical_formula_structural   Dy2Fe17
_chemical_formula_sum   'Dy2 Fe17'
_cell_volume   257.70946221
_cell_formula_units_Z   1
loop_
 _symmetry_equiv_pos_site_id
 _symmetry_equiv_pos_as_xyz
  1  'x, y, z'
loop_
 _atom_site_type_symbol
 _atom_site_label
 _atom_site_symmetry_multiplicity
 _atom_site_fract_x
 _atom_site_fract_y
 _atom_site_fract_z
 _atom_site_occupancy
  Dy  Dy0  1  0.65822300  0.65822300  0.65822300  1
  Dy  Dy1  1  0.34177700  0.34177700  0.34177700  1
  Fe  Fe0  1  0.90235600  0.90235600  0.90235600  1
  Fe  Fe1  1  0.09764400  0.09764400  0.09764400  1
  Fe  Fe2  1  0.00000000  0.00000000  0.50000000  1
  Fe  Fe3  1  0.50000000  0.00000000  0.00000000  1
  Fe  Fe4  1  0.00000000  0.50000000  0.00000000  1
  Fe  Fe5  1  0.70685900  0.29314100  0.00000000  1
  Fe  Fe6  1  0.00000000  0.70685900  0.29314100  1
  Fe  Fe7  1  0.29314100  0.00000000  0.70685900  1
  Fe  Fe8  1  0.00000000  0.29314100  0.70685900  1
  Fe  Fe9  1  0.70685900  0.00000000  0.29314100  1
  Fe  Fe10  1  0.29314100  0.70685900  0.00000000  1
  Fe  Fe11  1  0.34422300  0.34422300  0.84477100  1
  Fe  Fe12  1  0.84477100  0.34422300  0.34422300  1
  Fe  Fe13  1  0.34422300  0.84477100  0.34422300  1
  Fe  Fe14  1  0.65577700  0.65577700  0.15522900  1
  Fe  Fe15  1  0.15522900  0.65577700  0.65577700  1
  Fe  Fe16  1  0.65577700  0.15522900  0.65577700  1
loop_
_geom_bond_atom_site_label_1
_geom_bond_atom_site_label_2
_geom_bond_distance
_geom_bond_site_symmetry_2
Dy0 Fe0 3.014535 1_555
Dy0 Fe8 3.021490 1_655
Dy0 Fe7 3.021490 1_565
Dy0 Fe5 3.021490 1_556
Dy0 Fe10 3.021490 1_556
Dy0 Fe9 3.021490 1_565
Dy0 Fe6 3.021490 1_655
Dy0 Fe13 3.056070 1_555
Dy0 Fe12 3.056070 1_555
Dy0 Fe11 3.056070 1_555
Dy0 Fe14 3.180316 1_556
Dy0 Fe15 3.180316 1_655
Dy0 Fe16 3.180316 1_565
Dy0 Fe14 3.226146 1_555
Dy0 Fe15 3.226146 1_555
Dy0 Fe16 3.226146 1_555
Dy0 Fe4 3.271110 1_656
Dy0 Fe3 3.271110 1_566
Dy0 Fe2 3.271111 1_665
Dy1 Fe1 3.014535 1_555
Dy1 Fe6 3.021490 1_555
Dy1 Fe9 3.021490 1_555
Dy1 Fe10 3.021490 1_555
Dy1 Fe5 3.021490 1_555
Dy1 Fe8 3.021490 1_555
Dy1 Fe7 3.021490 1_555
Dy1 Fe15 3.056070 1_555
Dy1 Fe16 3.056070 1_555
Dy1 Fe14 3.056070 1_555
Dy1 Fe11 3.180316 1_554
Dy1 Fe13 3.180316 1_545
Dy1 Fe12 3.180316 1_455
Dy1 Fe11 3.226146 1_555
Dy1 Fe13 3.226146 1_555
Dy1 Fe12 3.226146 1_555
Dy1 Fe4 3.271110 1_555
Dy1 Fe3 3.271110 1_555
Dy1 Fe2 3.271111 1_555
Fe0 Fe1 2.411400 1_666
Fe0 Fe2 2.598314 1_665
Fe0 Fe4 2.598314 1_656
Fe0 Fe3 2.598314 1_566
Fe0 Fe16 2.643819 1_565
Fe0 Fe15 2.643819 1_655
Fe0 Fe14 2.643819 1_556
Fe0 Fe9 2.768829 1_566
Fe0 Fe6 2.768829 1_656
Fe0 Fe10 2.768829 1_656
Fe0 Fe5 2.768829 1_566
Fe0 Fe8 2.768829 1_665
Fe0 Fe7 2.768829 1_665
Fe1 Fe2 2.598314 1_555
Fe1 Fe4 2.598314 1_555
Fe1 Fe3 2.598314 1_555
Fe1 Fe13 2.643819 1_545
Fe1 Fe12 2.643819 1_455
Fe1 Fe11 2.643819 1_554
Fe1 Fe7 2.768829 1_554
Fe1 Fe8 2.768829 1_554
Fe1 Fe5 2.768829 1_455
Fe1 Fe10 2.768829 1_545
Fe1 Fe6 2.768829 1_545
Fe1 Fe9 2.768829 1_455
Fe2 Fe7 2.424062 1_555
Fe2 Fe8 2.424062 1_555
Fe2 Fe9 2.424062 1_455
Fe2 Fe6 2.424062 1_545
Fe3 Fe7 2.424062 1_554
Fe3 Fe9 2.424062 1_555
Fe3 Fe5 2.424062 1_555
Fe4 Fe6 2.424062 1_555
Fe4 Fe8 2.424062 1_554
Fe4 Fe5 2.424062 1_455
Fe5 Fe9 2.492529 1_555
Fe5 Fe8 2.492529 1_654
Fe6 Fe9 2.492529 1_465
Fe7 Fe8 2.492529 1_555
Fe10 Fe4 2.424062 1_555
Fe10 Fe3 2.424062 1_565
Fe10 Fe7 2.492529 1_564
Fe10 Fe6 2.492529 1_555
Fe10 Fe13 2.540851 1_555
Fe10 Fe15 2.540851 1_554
Fe10 Fe14 2.604795 1_555
Fe10 Fe11 2.604795 1_554
Fe11 Fe4 2.457019 1_556
Fe11 Fe3 2.457019 1_556
Fe11 Fe16 2.472414 1_555
Fe11 Fe15 2.472414 1_555
Fe11 Fe7 2.540851 1_555
Fe11 Fe8 2.540851 1_555
Fe11 Fe5 2.604795 1_556
Fe12 Fe2 2.457019 1_655
Fe12 Fe4 2.457019 1_655
Fe12 Fe14 2.472414 1_555
Fe12 Fe16 2.472414 1_555
Fe12 Fe5 2.540851 1_555
Fe12 Fe9 2.540851 1_555
Fe12 Fe8 2.604795 1_655
Fe12 Fe6 2.604795 1_655
Fe13 Fe2 2.457019 1_565
Fe13 Fe3 2.457019 1_565
Fe13 Fe14 2.472414 1_555
Fe13 Fe15 2.472414 1_555
Fe13 Fe6 2.540851 1_555
Fe13 Fe7 2.604795 1_565
Fe13 Fe9 2.604795 1_565
Fe14 Fe3 2.457019 1_565
Fe14 Fe4 2.457019 1_655
Fe14 Fe9 2.540851 1_565
Fe14 Fe6 2.540851 1_655
Fe14 Fe5 2.604795 1_555
Fe15 Fe2 2.457019 1_565
Fe15 Fe4 2.457019 1_556
Fe15 Fe7 2.540851 1_565
Fe15 Fe6 2.604795 1_555
Fe15 Fe8 2.604795 1_555
Fe16 Fe2 2.457019 1_655
Fe16 Fe3 2.457019 1_556
Fe16 Fe5 2.540851 1_556
Fe16 Fe8 2.540851 1_655
Fe16 Fe9 2.604795 1_555
Fe16 Fe7 2.604795 1_555
