# generated using pymatgen
data_Ca(CrS2)2
_symmetry_space_group_name_H-M   'P 1'
_cell_length_a   7.29433209
_cell_length_b   7.29433209
_cell_length_c   7.29433209
_cell_angle_alpha   120.07927481
_cell_angle_beta   118.51234875
_cell_angle_gamma   91.22932274
_symmetry_Int_Tables_number   1
_chemical_formula_structural   Ca(CrS2)2
_chemical_formula_sum   'Ca2 Cr4 S8'
_cell_volume   277.22515729
_cell_formula_units_Z   2
loop_
 _symmetry_equiv_pos_site_id
 _symmetry_equiv_pos_as_xyz
  1  'x, y, z'
loop_
 _atom_site_type_symbol
 _atom_site_label
 _atom_site_symmetry_multiplicity
 _atom_site_fract_x
 _atom_site_fract_y
 _atom_site_fract_z
 _atom_site_occupancy
  Ca  Ca0  1  0.00000000  0.00000000  0.00000000  1
  Ca  Ca1  1  0.50000000  0.00000000  0.50000000  1
  Cr  Cr0  1  0.00000000  0.50000000  0.00000000  1
  Cr  Cr1  1  0.00000000  0.50000000  0.50000000  1
  Cr  Cr2  1  0.00000000  0.00000000  0.50000000  1
  Cr  Cr3  1  0.50000000  0.50000000  0.00000000  1
  S  S0  1  0.23515900  0.26546700  0.96969200  1
  S  S1  1  0.23857000  0.70725500  0.96868500  1
  S  S2  1  0.79577500  0.26546700  0.53030800  1
  S  S3  1  0.76143000  0.73011600  0.46868500  1
  S  S4  1  0.20422500  0.73453300  0.46969200  1
  S  S5  1  0.76143000  0.29274500  0.03131500  1
  S  S6  1  0.23857000  0.26988400  0.53131500  1
  S  S7  1  0.76484100  0.73453300  0.03030800  1
loop_
_geom_bond_atom_site_label_1
_geom_bond_atom_site_label_2
_geom_bond_distance
_geom_bond_site_symmetry_2
Ca0 S0 2.718368 1_554
Ca0 S7 2.718368 1_445
Ca0 S5 2.773148 1_455
Ca0 S1 2.773148 1_544
Ca0 S3 2.773149 1_444
Ca0 S6 2.773149 1_555
Ca1 S2 2.718368 1_555
Ca1 S4 2.718368 1_545
Ca1 S6 2.773143 1_555
Ca1 S3 2.773143 1_545
Ca1 S5 2.773148 1_556
Ca1 S1 2.773148 1_544
Cr0 S1 2.445151 1_554
Cr0 S5 2.445151 1_455
Cr0 S2 2.454948 1_454
Cr0 S0 2.454948 1_554
Cr0 S7 2.454948 1_455
Cr0 S4 2.454948 1_555
Cr1 S2 2.403938 1_455
Cr1 S4 2.403938 1_555
Cr1 S1 2.455231 1_555
Cr1 S5 2.455231 1_455
Cr1 S3 2.455236 1_455
Cr1 S6 2.455236 1_555
Cr2 S3 2.445146 1_445
Cr2 S6 2.445146 1_555
Cr2 S2 2.454948 1_455
Cr2 S7 2.454948 1_445
Cr2 S4 2.454948 1_545
Cr2 S0 2.454948 1_555
Cr3 S7 2.403938 1_555
Cr3 S0 2.403938 1_554
Cr3 S3 2.455230 1_555
Cr3 S6 2.455230 1_554
Cr3 S1 2.455231 1_554
Cr3 S5 2.455231 1_555
