# generated using pymatgen
data_Li2Ga7
_symmetry_space_group_name_H-M   'P 1'
_cell_length_a   7.36164206
_cell_length_b   7.37469060
_cell_length_c   7.37469099
_cell_angle_alpha   69.20061021
_cell_angle_beta   69.42055178
_cell_angle_gamma   69.42053537
_symmetry_Int_Tables_number   1
_chemical_formula_structural   Li2Ga7
_chemical_formula_sum   'Li4 Ga14'
_cell_volume   338.43579040
_cell_formula_units_Z   2
loop_
 _symmetry_equiv_pos_site_id
 _symmetry_equiv_pos_as_xyz
  1  'x, y, z'
loop_
 _atom_site_type_symbol
 _atom_site_label
 _atom_site_symmetry_multiplicity
 _atom_site_fract_x
 _atom_site_fract_y
 _atom_site_fract_z
 _atom_site_occupancy
  Li  Li0  1  0.51971937  0.11728602  0.11728602  1
  Li  Li1  1  0.88893623  0.88527895  0.47788884  1
  Li  Li2  1  0.88893623  0.47788884  0.88527895  1
  Li  Li3  1  0.46002205  0.88257710  0.88257710  1
  Ga  Ga0  1  0.71029537  0.69839353  0.18395808  1
  Ga  Ga1  1  0.71029537  0.18395808  0.69839353  1
  Ga  Ga2  1  0.18659369  0.70397130  0.70397130  1
  Ga  Ga3  1  0.29469630  0.29930159  0.81060534  1
  Ga  Ga4  1  0.29469630  0.81060534  0.29930159  1
  Ga  Ga5  1  0.81700488  0.29770717  0.29770717  1
  Ga  Ga6  1  0.48673533  0.48950153  0.17468481  1
  Ga  Ga7  1  0.48673533  0.17468481  0.48950153  1
  Ga  Ga8  1  0.17137381  0.48747494  0.48747494  1
  Ga  Ga9  1  0.50977088  0.50595623  0.82552288  1
  Ga  Ga10  1  0.50977088  0.82552288  0.50595623  1
  Ga  Ga11  1  0.82550253  0.51011109  0.51011109  1
  Ga  Ga12  1  0.07681301  0.07917062  0.07917062  1
  Ga  Ga13  1  0.92591347  0.91881197  0.91881197  1
loop_
_geom_bond_atom_site_label_1
_geom_bond_atom_site_label_2
_geom_bond_distance
_geom_bond_site_symmetry_2
Li0 Li3 3.063088 1_544
Ga0 Ga13 2.521882 1_554
Ga0 Ga11 2.582050 1_555
Ga0 Ga10 2.615497 1_555
Ga0 Ga6 2.650043 1_555
Ga0 Ga5 2.668972 1_555
Ga0 Ga4 2.767544 1_555
Ga0 Li0 2.848256 1_565
Ga0 Li2 2.868722 1_554
Ga0 Li3 3.025697 1_554
Ga1 Ga13 2.521882 1_545
Ga1 Ga11 2.582051 1_555
Ga1 Ga9 2.615497 1_555
Ga1 Ga7 2.650043 1_555
Ga1 Ga5 2.668973 1_555
Ga1 Ga3 2.767544 1_555
Ga1 Li0 2.848257 1_556
Ga1 Li1 2.868722 1_545
Ga1 Li3 3.025698 1_545
Ga2 Ga9 2.592953 1_555
Ga2 Ga8 2.678182 1_555
Ga2 Ga3 2.694714 1_555
Ga2 Ga4 2.694715 1_555
Ga2 Li1 2.880042 1_455
Ga2 Li2 2.880042 1_455
Ga3 Ga8 2.591381 1_555
Ga3 Ga7 2.594127 1_555
Ga3 Ga9 2.603736 1_555
Ga3 Li2 2.748334 1_455
Ga3 Li3 2.806033 1_545
Ga3 Li0 2.928429 1_556
Ga4 Ga8 2.591381 1_555
Ga4 Ga6 2.594126 1_555
Ga4 Li1 2.748334 1_455
Ga4 Li3 2.806033 1_554
Ga4 Li0 2.928430 1_565
Ga5 Ga6 2.637577 1_555
Ga5 Ga7 2.637578 1_555
Ga5 Li1 2.790896 1_545
Ga5 Li2 2.790897 1_554
Ga6 Ga9 2.481831 1_554
Ga6 Ga8 2.635537 1_555
Ga6 Ga7 2.636719 1_555
Ga6 Li0 2.838555 1_555
Ga6 Li3 2.923103 1_554
Ga6 Li2 2.972906 1_554
Ga7 Ga8 2.635537 1_555
Ga7 Li0 2.838555 1_555
Ga7 Li3 2.923103 1_545
Ga7 Li1 2.972906 1_545
Ga8 Li1 2.932991 1_455
Ga8 Li2 2.932992 1_455
Ga9 Li3 2.834076 1_555
Ga9 Li2 2.902083 1_555
Ga9 Li0 2.904136 1_556
Ga10 Ga7 2.481831 1_565
Ga10 Ga2 2.592954 1_555
Ga10 Ga4 2.603736 1_555
Ga10 Ga11 2.648118 1_555
Ga10 Ga9 2.676501 1_555
Ga10 Li3 2.834076 1_555
Ga10 Li1 2.902083 1_555
Ga10 Li0 2.904136 1_565
Ga11 Ga8 2.441503 1_655
Ga11 Ga5 2.606062 1_555
Ga11 Ga9 2.648119 1_555
Ga11 Li1 2.879719 1_555
Ga11 Li2 2.879719 1_555
Ga12 Ga5 2.522600 1_455
Ga12 Ga4 2.538630 1_545
Ga12 Ga3 2.538631 1_554
Ga12 Ga13 2.621341 1_444
Ga12 Li3 2.811478 1_544
Ga12 Li2 2.854622 1_454
Ga12 Li1 2.854623 1_445
Ga13 Ga2 2.492191 1_655
Ga13 Li0 2.931553 1_566
