# generated using pymatgen
data_Pu3Sc
_symmetry_space_group_name_H-M   'P 1'
_cell_length_a   5.45988467
_cell_length_b   5.45988467
_cell_length_c   5.45988467
_cell_angle_alpha   130.41884202
_cell_angle_beta   130.41884202
_cell_angle_gamma   72.73805902
_symmetry_Int_Tables_number   1
_chemical_formula_structural   Pu3Sc
_chemical_formula_sum   'Pu3 Sc1'
_cell_volume   92.16743625
_cell_formula_units_Z   1
loop_
 _symmetry_equiv_pos_site_id
 _symmetry_equiv_pos_as_xyz
  1  'x, y, z'
loop_
 _atom_site_type_symbol
 _atom_site_label
 _atom_site_symmetry_multiplicity
 _atom_site_fract_x
 _atom_site_fract_y
 _atom_site_fract_z
 _atom_site_occupancy
  Pu  Pu0  1  0.75000000  0.25000000  0.49999900  1
  Pu  Pu1  1  0.25000000  0.75000000  0.49999900  1
  Pu  Pu2  1  0.50000000  0.50000000  0.00000000  1
  Sc  Sc0  1  0.00000000  0.00000000  0.00000000  1
loop_
_geom_bond_atom_site_label_1
_geom_bond_atom_site_label_2
_geom_bond_distance
_geom_bond_site_symmetry_2
Pu0 Sc0 3.173816 1_655
Pu0 Pu2 3.173816 1_555
Pu0 Pu2 3.173819 1_656
Pu0 Sc0 3.173819 1_666
Pu0 Pu2 3.173822 1_545
Pu0 Sc0 3.173822 1_555
Pu0 Sc0 3.173825 1_656
Pu0 Pu2 3.173825 1_556
Pu0 Pu1 3.237623 1_645
Pu0 Pu1 3.237623 1_656
Pu0 Pu1 3.237623 1_544
Pu0 Pu1 3.237623 1_555
Pu1 Sc0 3.173816 1_565
Pu1 Pu2 3.173816 1_555
Pu1 Pu2 3.173819 1_566
Pu1 Sc0 3.173819 1_666
Pu1 Pu2 3.173822 1_455
Pu1 Sc0 3.173822 1_555
Pu1 Pu2 3.173825 1_556
Pu1 Sc0 3.173825 1_566
Pu2 Sc0 3.237623 1_655
Pu2 Sc0 3.237623 1_565
Pu2 Sc0 3.237623 1_666
Pu2 Sc0 3.237623 1_554
