# generated using pymatgen
data_Dy12(OsC3)5
_symmetry_space_group_name_H-M   'P 1'
_cell_length_a   5.06317634
_cell_length_b   10.67915739
_cell_length_c   10.67903372
_cell_angle_alpha   120.00002010
_cell_angle_beta   89.99999245
_cell_angle_gamma   89.99999962
_symmetry_Int_Tables_number   1
_chemical_formula_structural   Dy12(OsC3)5
_chemical_formula_sum   'Dy12 Os5 C15'
_cell_volume   500.06048978
_cell_formula_units_Z   1
loop_
 _symmetry_equiv_pos_site_id
 _symmetry_equiv_pos_as_xyz
  1  'x, y, z'
loop_
 _atom_site_type_symbol
 _atom_site_label
 _atom_site_symmetry_multiplicity
 _atom_site_fract_x
 _atom_site_fract_y
 _atom_site_fract_z
 _atom_site_occupancy
  Dy  Dy0  1  0.50000006  0.20692441  0.20691765  1
  Dy  Dy1  1  0.50000000  -0.00001411  0.79306224  1
  Dy  Dy2  1  0.50000007  0.79308378  -0.00000061  1
  Dy  Dy3  1  -0.00000008  0.72828204  0.18389994  1
  Dy  Dy4  1  0.00000005  0.45560629  0.27171438  1
  Dy  Dy5  1  0.00000003  0.54436941  0.81608846  1
  Dy  Dy6  1  -0.00000000  0.81610672  0.54439657  1
  Dy  Dy7  1  -0.00000005  0.18389339  0.72827630  1
  Dy  Dy8  1  -0.00000002  0.27172438  0.45563242  1
  Dy  Dy9  1  0.49999990  0.56420123  0.56420517  1
  Dy  Dy10  1  0.49999988  0.00001050  0.43582269  1
  Dy  Dy11  1  0.50000001  0.43580558  -0.00001474  1
  Os  Os0  1  0.00000000  0.83969656  0.83968309  1
  Os  Os1  1  0.00000032  0.00000402  0.16030511  1
  Os  Os2  1  -0.00000018  0.16029913  -0.00001106  1
  Os  Os3  1  0.49999992  0.66667526  0.33334561  1
  Os  Os4  1  0.49999997  0.33332349  0.66666329  1
  C  C0  1  -0.00000007  0.66462705  0.66463101  1
  C  C1  1  0.00000018  0.00000829  0.33538739  1
  C  C2  1  -0.00000001  0.33536705  -0.00001218  1
  C  C3  1  0.00000009  0.20901296  0.20901579  1
  C  C4  1  0.00000004  0.00001276  0.79098703  1
  C  C5  1  0.00000012  0.79097635  -0.00001876  1
  C  C6  1  -0.00000003  0.53980088  0.53979091  1
  C  C7  1  -0.00000006  -0.00000739  0.46021244  1
  C  C8  1  -0.00000006  0.46020941  0.00000933  1
  C  C9  1  0.49999998  0.71593668  0.18461068  1
  C  C10  1  0.50000000  0.46867119  0.28406971  1
  C  C11  1  0.49999998  0.53131724  0.81539112  1
  C  C12  1  0.49999997  0.81540534  0.53133399  1
  C  C13  1  0.50000001  0.18459856  0.71591992  1
  C  C14  1  0.49999999  0.28407356  0.46868412  1
loop_
_geom_bond_atom_site_label_1
_geom_bond_atom_site_label_2
_geom_bond_distance
_geom_bond_site_symmetry_2
C0 C6 1.333105 1_555
C0 Os0 1.869490 1_555
C0 Dy5 2.518435 1_555
C0 Dy6 2.518447 1_555
C0 Dy9 2.749382 1_555
C0 Dy9 2.749382 1_455
C1 C7 1.333095 1_555
C1 Os1 1.869687 1_555
C1 Dy8 2.518471 1_555
C1 Dy3 2.518570 1_545
C1 Dy10 2.749413 1_555
C1 Dy10 2.749416 1_455
C2 C8 1.333096 1_555
C2 Os2 1.869584 1_555
C2 Dy7 2.518403 1_554
C2 Dy4 2.518544 1_555
C2 Dy11 2.749443 1_455
C2 Dy11 2.749443 1_555
C3 Os1 2.022751 1_555
C3 Os2 2.022900 1_555
C3 Dy4 2.370638 1_555
C3 Dy8 2.370811 1_555
C3 Dy0 2.531687 1_555
C3 Dy0 2.531687 1_455
C4 Os2 2.022642 1_556
C4 Os0 2.022826 1_545
C4 Dy7 2.370576 1_555
C4 Dy6 2.370626 1_545
C4 Dy1 2.531686 1_555
C4 Dy1 2.531687 1_455
C5 Os0 2.022798 1_554
C5 Os1 2.022959 1_565
C5 Dy5 2.370725 1_554
C5 Dy3 2.370831 1_555
C5 Dy2 2.531687 1_555
C5 Dy2 2.531688 1_455
C6 Dy4 2.535749 1_555
C6 Dy8 2.535863 1_555
C6 Dy9 2.544970 1_555
C6 Dy9 2.544971 1_455
C7 Dy7 2.535697 1_555
C7 Dy6 2.535731 1_545
C7 Dy10 2.544961 1_555
C7 Dy10 2.544962 1_455
C8 Dy3 2.535764 1_555
C8 Dy5 2.535881 1_554
C8 Dy11 2.544954 1_455
C8 Dy11 2.544954 1_555
C9 Os3 1.906613 1_555
C9 Dy2 2.487906 1_555
C9 Dy3 2.535227 1_655
C9 Dy3 2.535228 1_555
C9 Dy11 2.634105 1_555
C9 Dy10 2.874300 1_565
C10 Os3 1.906669 1_555
C10 Dy0 2.487799 1_555
C10 Dy4 2.535233 1_555
C10 Dy4 2.535233 1_655
C10 Dy9 2.634074 1_555
C10 Dy11 2.874375 1_555
C11 Os4 1.906585 1_555
C11 Dy2 2.487978 1_556
C11 Dy5 2.535228 1_555
C11 Dy5 2.535229 1_655
C11 Dy11 2.633823 1_556
C11 Dy9 2.874146 1_555
C12 Os3 1.906540 1_555
C12 Dy1 2.487594 1_565
C12 Dy6 2.535233 1_555
C12 Dy6 2.535234 1_655
C12 Dy10 2.633943 1_565
C12 Dy9 2.874286 1_555
C13 Os4 1.906488 1_555
C13 Dy1 2.487898 1_555
C13 Dy7 2.535232 1_655
C13 Dy7 2.535232 1_555
C13 Dy10 2.633736 1_555
C13 Dy11 2.874217 1_556
C14 Os4 1.906463 1_555
C14 Dy0 2.487974 1_555
C14 Dy8 2.535227 1_655
C14 Dy8 2.535227 1_555
C14 Dy9 2.634048 1_555
C14 Dy10 2.874203 1_555
