# generated using pymatgen
data_CrCoH15N5ClO8
_symmetry_space_group_name_H-M   'P 1'
_cell_length_a   7.80094552
_cell_length_b   7.80094552
_cell_length_c   10.26816300
_cell_angle_alpha   90.00000000
_cell_angle_beta   90.00000000
_cell_angle_gamma   112.55112233
_symmetry_Int_Tables_number   1
_chemical_formula_structural   CrCoH15N5ClO8
_chemical_formula_sum   'Cr2 Co2 H30 N10 Cl2 O16'
_cell_volume   577.08778128
_cell_formula_units_Z   2
loop_
 _symmetry_equiv_pos_site_id
 _symmetry_equiv_pos_as_xyz
  1  'x, y, z'
loop_
 _atom_site_type_symbol
 _atom_site_label
 _atom_site_symmetry_multiplicity
 _atom_site_fract_x
 _atom_site_fract_y
 _atom_site_fract_z
 _atom_site_occupancy
  Cr  Cr0  1  0.35432100  0.64567900  0.75172900  1
  Cr  Cr1  1  0.64567900  0.35432100  0.25172900  1
  Co  Co0  1  0.62415900  0.37584100  0.76508400  1
  Co  Co1  1  0.37584100  0.62415900  0.26508400  1
  H  H0  1  0.82284000  0.63587300  0.62470600  1
  H  H1  1  0.17716000  0.36412700  0.12470600  1
  H  H2  1  0.63587300  0.82284000  0.12470600  1
  H  H3  1  0.36412700  0.17716000  0.62470600  1
  H  H4  1  0.91439700  0.27608900  0.82651600  1
  H  H5  1  0.08560300  0.72391100  0.32651600  1
  H  H6  1  0.27608900  0.91439700  0.32651600  1
  H  H7  1  0.72391100  0.08560300  0.82651600  1
  H  H8  1  0.76946700  0.23053300  0.94944700  1
  H  H9  1  0.23053300  0.76946700  0.44944700  1
  H  H10  1  0.89335200  0.62725800  0.88464200  1
  H  H11  1  0.10664800  0.37274200  0.38464200  1
  H  H12  1  0.62725800  0.89335200  0.38464200  1
  H  H13  1  0.37274200  0.10664800  0.88464200  1
  H  H14  1  0.71930200  0.54075600  0.98716900  1
  H  H15  1  0.28069800  0.45924400  0.48716900  1
  H  H16  1  0.54075600  0.71930200  0.48716900  1
  H  H17  1  0.45924400  0.28069800  0.98716900  1
  H  H18  1  0.81043600  0.44511000  0.54757600  1
  H  H19  1  0.18956400  0.55489000  0.04757600  1
  H  H20  1  0.44511000  0.81043600  0.04757600  1
  H  H21  1  0.55489000  0.18956400  0.54757600  1
  H  H22  1  0.95504300  0.52469100  0.67209600  1
  H  H23  1  0.04495700  0.47530900  0.17209600  1
  H  H24  1  0.52469100  0.95504300  0.17209600  1
  H  H25  1  0.47530900  0.04495700  0.67209600  1
  H  H26  1  0.71397700  0.69096300  0.87347400  1
  H  H27  1  0.28602300  0.30903700  0.37347400  1
  H  H28  1  0.69096300  0.71397700  0.37347400  1
  H  H29  1  0.30903700  0.28602300  0.87347400  1
  N  N0  1  0.75140300  0.58006500  0.89185100  1
  N  N1  1  0.24859700  0.41993500  0.39185100  1
  N  N2  1  0.58006500  0.75140300  0.39185100  1
  N  N3  1  0.41993500  0.24859700  0.89185100  1
  N  N4  1  0.77554400  0.22445600  0.84918200  1
  N  N5  1  0.22445600  0.77554400  0.34918200  1
  N  N6  1  0.82490600  0.50583800  0.63810500  1
  N  N7  1  0.17509400  0.49416200  0.13810500  1
  N  N8  1  0.50583800  0.82490600  0.13810500  1
  N  N9  1  0.49416200  0.17509400  0.63810500  1
  Cl  Cl0  1  0.95331500  0.04668500  0.57497500  1
  Cl  Cl1  1  0.04668500  0.95331500  0.07497500  1
  O  O0  1  0.95978600  0.04021400  0.98547700  1
  O  O1  1  0.04021400  0.95978600  0.48547700  1
  O  O2  1  0.47659800  0.52340200  0.68961400  1
  O  O3  1  0.52340200  0.47659800  0.18961400  1
  O  O4  1  0.85636000  0.14364000  0.50014200  1
  O  O5  1  0.14364000  0.85636000  0.00014200  1
  O  O6  1  0.72765100  0.27234900  0.12790700  1
  O  O7  1  0.27234900  0.72765100  0.62790700  1
  O  O8  1  0.18109200  0.50817600  0.84341000  1
  O  O9  1  0.81890800  0.49182400  0.34341000  1
  O  O10  1  0.50817600  0.18109200  0.34341000  1
  O  O11  1  0.49182400  0.81890800  0.84341000  1
  O  O12  1  0.09535500  0.18170600  0.65667600  1
  O  O13  1  0.90464500  0.81829400  0.15667600  1
  O  O14  1  0.18170600  0.09535500  0.15667600  1
  O  O15  1  0.81829400  0.90464500  0.65667600  1
loop_
_geom_bond_atom_site_label_1
_geom_bond_atom_site_label_2
_geom_bond_distance
_geom_bond_site_symmetry_2
Cr0 O7 1.657702 1_555
Cr0 O11 1.658658 1_555
Cr0 O8 1.658658 1_555
Cr0 O2 1.710102 1_555
Cr1 O6 1.657702 1_555
Cr1 O10 1.658658 1_555
Cr1 O9 1.658658 1_555
Cr1 O3 1.710102 1_555
Co0 N6 1.990656 1_555
Co0 N9 1.990656 1_555
Co0 N0 2.001194 1_555
Co0 N3 2.001194 1_555
Co0 O2 2.065674 1_555
Co0 N4 2.145847 1_555
Co1 N8 1.990656 1_555
Co1 N7 1.990656 1_555
Co1 N2 2.001194 1_555
Co1 N1 2.001194 1_555
Co1 O3 2.065674 1_555
Co1 N5 2.145847 1_555
H0 N6 1.029916 1_555
H1 N7 1.029916 1_555
H2 N8 1.029916 1_555
H3 N9 1.029916 1_555
H4 N4 1.027156 1_555
H5 N5 1.027156 1_555
H6 N5 1.027156 1_555
H7 N4 1.027156 1_555
H8 N4 1.032553 1_555
H9 N5 1.032553 1_555
H10 N0 1.026899 1_555
H11 N1 1.026899 1_555
H12 N2 1.026899 1_555
H13 N3 1.026899 1_555
H14 N0 1.027510 1_555
H15 N1 1.027510 1_555
H16 N2 1.027510 1_555
H17 N3 1.027510 1_555
H18 N6 1.029682 1_555
H19 N7 1.029682 1_555
H20 N8 1.029682 1_555
H21 N9 1.029682 1_555
H22 N6 1.029341 1_555
H23 N7 1.029341 1_555
H24 N8 1.029341 1_555
H25 N9 1.029341 1_555
H26 N0 1.031014 1_555
H27 N1 1.031014 1_555
H28 N2 1.031014 1_555
H29 N3 1.031014 1_555
Cl0 O1 1.454675 1_645
Cl0 O15 1.464853 1_545
Cl0 O12 1.464853 1_655
Cl0 O4 1.474215 1_555
Cl1 O0 1.454675 1_464
Cl1 O13 1.464853 1_455
Cl1 O14 1.464853 1_565
Cl1 O5 1.474215 1_555
