# generated using pymatgen
data_Dy2Fe17N3
_symmetry_space_group_name_H-M   'P 1'
_cell_length_a   8.38417400
_cell_length_b   8.64427501
_cell_length_c   8.64427501
_cell_angle_alpha   120.02061004
_cell_angle_beta   90.00000000
_cell_angle_gamma   90.00000000
_symmetry_Int_Tables_number   1
_chemical_formula_structural   Dy2Fe17N3
_chemical_formula_sum   'Dy4 Fe34 N6'
_cell_volume   542.44765097
_cell_formula_units_Z   2
loop_
 _symmetry_equiv_pos_site_id
 _symmetry_equiv_pos_as_xyz
  1  'x, y, z'
loop_
 _atom_site_type_symbol
 _atom_site_label
 _atom_site_symmetry_multiplicity
 _atom_site_fract_x
 _atom_site_fract_y
 _atom_site_fract_z
 _atom_site_occupancy
  Dy  Dy0  1  0.75000000  0.00006000  0.99994000  1
  Dy  Dy1  1  0.25000000  0.99994000  0.00006000  1
  Dy  Dy2  1  0.25000000  0.66664200  0.33335800  1
  Dy  Dy3  1  0.75000000  0.33335800  0.66664200  1
  Fe  Fe0  1  0.60781600  0.66663300  0.33336700  1
  Fe  Fe1  1  0.39218400  0.33336700  0.66663300  1
  Fe  Fe2  1  0.10781600  0.33336700  0.66663300  1
  Fe  Fe3  1  0.89218400  0.66663300  0.33336700  1
  Fe  Fe4  1  0.50000000  0.50000000  0.00000000  1
  Fe  Fe5  1  0.50000000  0.50000000  0.50000000  1
  Fe  Fe6  1  0.50000000  0.00000000  0.50000000  1
  Fe  Fe7  1  0.00000000  0.50000000  0.00000000  1
  Fe  Fe8  1  0.00000000  0.50000000  0.50000000  1
  Fe  Fe9  1  0.00000000  0.00000000  0.50000000  1
  Fe  Fe10  1  0.75000000  0.67155900  0.05253100  1
  Fe  Fe11  1  0.75000000  0.38106400  0.32858700  1
  Fe  Fe12  1  0.75000000  0.94727400  0.61889700  1
  Fe  Fe13  1  0.75000000  0.38110300  0.05272600  1
  Fe  Fe14  1  0.75000000  0.94746900  0.32844100  1
  Fe  Fe15  1  0.75000000  0.67141300  0.61893600  1
  Fe  Fe16  1  0.25000000  0.32844100  0.94746900  1
  Fe  Fe17  1  0.25000000  0.61893600  0.67141300  1
  Fe  Fe18  1  0.25000000  0.05272600  0.38110300  1
  Fe  Fe19  1  0.25000000  0.61889700  0.94727400  1
  Fe  Fe20  1  0.25000000  0.05253100  0.67155900  1
  Fe  Fe21  1  0.25000000  0.32858700  0.38106400  1
  Fe  Fe22  1  0.47952700  0.83078900  0.66172900  1
  Fe  Fe23  1  0.47944700  0.83085200  0.16914800  1
  Fe  Fe24  1  0.47952700  0.33827100  0.16921100  1
  Fe  Fe25  1  0.52047300  0.16921100  0.33827100  1
  Fe  Fe26  1  0.52055300  0.16914800  0.83085200  1
  Fe  Fe27  1  0.52047300  0.66172900  0.83078900  1
  Fe  Fe28  1  0.97952700  0.16921100  0.33827100  1
  Fe  Fe29  1  0.97944700  0.16914800  0.83085200  1
  Fe  Fe30  1  0.97952700  0.66172900  0.83078900  1
  Fe  Fe31  1  0.02047300  0.83078900  0.66172900  1
  Fe  Fe32  1  0.02055300  0.83085200  0.16914800  1
  Fe  Fe33  1  0.02047300  0.33827100  0.16921100  1
  N  N0  1  0.25000000  0.83559800  0.67125800  1
  N  N1  1  0.25000000  0.83566100  0.16433900  1
  N  N2  1  0.25000000  0.32874200  0.16440200  1
  N  N3  1  0.75000000  0.16440200  0.32874200  1
  N  N4  1  0.75000000  0.16433900  0.83566100  1
  N  N5  1  0.75000000  0.67125800  0.83559800  1
loop_
_geom_bond_atom_site_label_1
_geom_bond_atom_site_label_2
_geom_bond_distance
_geom_bond_site_symmetry_2
Dy0 N4 2.459894 1_555
Dy0 N5 2.460954 1_545
Dy0 N3 2.460954 1_556
Dy1 N1 2.459894 1_555
Dy1 N0 2.460954 1_554
Dy1 N2 2.460954 1_565
Dy2 N0 2.529049 1_555
Dy2 N2 2.529049 1_555
Dy2 N1 2.530870 1_555
Dy2 Fe0 2.999992 1_555
Dy2 Fe3 2.999992 1_455
Dy2 Fe7 3.258633 1_555
Dy2 Fe4 3.258633 1_555
Dy2 Fe9 3.258633 1_565
Dy2 Fe6 3.258633 1_565
Dy2 Fe8 3.258804 1_555
Dy2 Fe5 3.258804 1_555
Dy3 N5 2.529049 1_555
Dy3 N3 2.529049 1_555
Dy3 N4 2.530870 1_555
Dy3 Fe2 2.999992 1_655
Dy3 Fe1 2.999992 1_555
Dy3 Fe7 3.258633 1_656
Dy3 Fe4 3.258633 1_556
Dy3 Fe9 3.258633 1_655
Dy3 Fe6 3.258633 1_555
Dy3 Fe5 3.258804 1_555
Dy3 Fe8 3.258804 1_655
Fe0 Fe3 2.384191 1_555
Fe0 Fe6 2.653818 1_565
Fe0 Fe4 2.653818 1_555
Fe0 Fe5 2.653838 1_555
Fe0 Fe22 2.682723 1_555
Fe0 Fe24 2.682723 1_555
Fe0 Fe23 2.684215 1_555
Fe0 Fe13 2.721552 1_555
Fe0 Fe12 2.721552 1_555
Fe0 Fe11 2.722942 1_555
Fe0 Fe15 2.722942 1_555
Fe0 Fe14 2.723912 1_555
Fe0 Fe10 2.723912 1_555
Fe1 Fe2 2.384191 1_555
Fe1 Fe4 2.653818 1_556
Fe1 Fe6 2.653818 1_555
Fe1 Fe5 2.653838 1_555
Fe1 Fe27 2.682723 1_555
Fe1 Fe25 2.682723 1_555
Fe1 Fe26 2.684215 1_555
Fe1 Fe18 2.721552 1_555
Fe1 Fe19 2.721552 1_555
Fe1 Fe21 2.722942 1_555
Fe1 Fe17 2.722942 1_555
Fe1 Fe16 2.723912 1_555
Fe1 Fe20 2.723912 1_555
Fe2 Fe7 2.653818 1_556
Fe2 Fe9 2.653818 1_555
Fe2 Fe8 2.653838 1_555
Fe2 Fe30 2.682723 1_455
Fe2 Fe28 2.682723 1_455
Fe2 Fe29 2.684215 1_455
Fe2 Fe21 2.722942 1_555
Fe2 Fe20 2.723912 1_555
Fe3 Fe9 2.653818 1_665
Fe3 Fe7 2.653818 1_655
Fe3 Fe8 2.653838 1_655
Fe3 Fe31 2.682723 1_655
Fe3 Fe33 2.682723 1_655
Fe3 Fe32 2.684215 1_655
Fe10 N5 1.873928 1_554
Fe10 Fe4 2.474885 1_555
Fe10 Fe7 2.474885 1_655
Fe10 Fe3 2.723912 1_555
Fe11 N3 1.873557 1_555
Fe11 Fe8 2.474192 1_655
Fe11 Fe5 2.474192 1_555
Fe11 Fe3 2.722942 1_555
Fe12 N4 1.874486 1_565
Fe12 Fe6 2.475114 1_565
Fe12 Fe9 2.475114 1_665
Fe12 Fe3 2.721552 1_555
Fe13 N4 1.874486 1_554
Fe13 Fe7 2.475114 1_655
Fe13 Fe4 2.475114 1_555
Fe13 Fe3 2.721552 1_555
Fe14 N3 1.873928 1_565
Fe14 Fe6 2.474885 1_565
Fe14 Fe9 2.474885 1_665
Fe14 Fe3 2.723912 1_555
Fe15 N5 1.873557 1_555
Fe15 Fe5 2.474192 1_555
Fe15 Fe8 2.474192 1_655
Fe15 Fe3 2.722942 1_555
Fe16 N2 1.873928 1_556
Fe16 Fe4 2.474885 1_556
Fe16 Fe7 2.474885 1_556
Fe16 Fe2 2.723912 1_555
Fe17 N0 1.873557 1_555
Fe17 Fe5 2.474192 1_555
Fe17 Fe8 2.474192 1_555
Fe17 Fe2 2.722942 1_555
Fe18 N1 1.874486 1_545
Fe18 Fe9 2.475114 1_555
Fe18 Fe6 2.475114 1_555
Fe18 Fe2 2.721552 1_555
Fe19 N1 1.874486 1_556
Fe19 Fe4 2.475114 1_556
Fe19 Fe7 2.475114 1_556
Fe19 Fe2 2.721552 1_555
Fe20 N0 1.873928 1_545
Fe20 Fe9 2.474885 1_555
Fe20 Fe6 2.474885 1_555
Fe21 N2 1.873557 1_555
Fe21 Fe8 2.474192 1_555
Fe21 Fe5 2.474192 1_555
Fe22 N0 1.925716 1_555
Fe22 Fe5 2.481982 1_555
Fe22 Fe6 2.483877 1_565
Fe23 N1 1.925071 1_555
Fe23 Fe4 2.482483 1_555
Fe23 Fe6 2.482483 1_565
Fe24 N2 1.925716 1_555
Fe24 Fe5 2.481982 1_555
Fe24 Fe4 2.483877 1_555
Fe25 N3 1.925716 1_555
Fe25 Fe5 2.481982 1_555
Fe25 Fe6 2.483877 1_555
Fe26 N4 1.925071 1_555
Fe26 Fe6 2.482483 1_555
Fe26 Fe4 2.482483 1_556
Fe27 N5 1.925716 1_555
Fe27 Fe5 2.481982 1_555
Fe27 Fe4 2.483877 1_556
Fe28 N3 1.925716 1_555
Fe28 Fe8 2.481982 1_655
Fe28 Fe9 2.483877 1_655
Fe29 N4 1.925071 1_555
Fe29 Fe9 2.482483 1_655
Fe29 Fe7 2.482483 1_656
Fe30 N5 1.925716 1_555
Fe30 Fe8 2.481982 1_655
Fe30 Fe7 2.483877 1_656
Fe31 N0 1.925716 1_555
Fe31 Fe8 2.481982 1_555
Fe31 Fe9 2.483877 1_565
Fe32 N1 1.925071 1_555
Fe32 Fe9 2.482483 1_565
Fe32 Fe7 2.482483 1_555
Fe33 N2 1.925716 1_555
Fe33 Fe8 2.481982 1_555
Fe33 Fe7 2.483877 1_555
