# generated using pymatgen
data_MgAg4(RuO3)4
_symmetry_space_group_name_H-M   'P 1'
_cell_length_a   7.39696839
_cell_length_b   7.38807177
_cell_length_c   7.37983872
_cell_angle_alpha   60.03386582
_cell_angle_beta   90.00344909
_cell_angle_gamma   120.03791655
_symmetry_Int_Tables_number   1
_chemical_formula_structural   MgAg4(RuO3)4
_chemical_formula_sum   'Mg1 Ag4 Ru4 O12'
_cell_volume   285.16948510
_cell_formula_units_Z   1
loop_
 _symmetry_equiv_pos_site_id
 _symmetry_equiv_pos_as_xyz
  1  'x, y, z'
loop_
 _atom_site_type_symbol
 _atom_site_label
 _atom_site_symmetry_multiplicity
 _atom_site_fract_x
 _atom_site_fract_y
 _atom_site_fract_z
 _atom_site_occupancy
  Mg  Mg0  1  0.62611000  0.25221500  0.62393300  1
  Ag  Ag0  1  0.50007900  0.49978100  0.00010800  1
  Ag  Ag1  1  0.99987700  0.99975700  0.00025400  1
  Ag  Ag2  1  0.99969600  0.49977700  0.00011000  1
  Ag  Ag3  1  0.99987000  0.99975300  0.49998900  1
  Ru  Ru0  1  0.49154700  0.98310800  0.02542100  1
  Ru  Ru1  1  0.49154400  0.98304100  0.49139800  1
  Ru  Ru2  1  0.49108300  0.51794200  0.49101000  1
  Ru  Ru3  1  0.02692500  0.51798100  0.49097700  1
  O  O0  1  0.82530100  0.25058500  0.42473800  1
  O  O1  1  0.56905900  0.13812600  0.18099500  1
  O  O2  1  0.56888400  0.75014000  0.18063800  1
  O  O3  1  0.82534100  0.25056700  0.82472000  1
  O  O4  1  0.82582800  0.65165300  0.42416200  1
  O  O5  1  0.42524000  0.25057400  0.42471300  1
  O  O6  1  0.56893100  0.75020300  0.56926500  1
  O  O7  1  0.18120000  0.75011500  0.18063400  1
  O  O8  1  0.18087600  0.36178700  0.56910400  1
  O  O9  1  0.42527300  0.25056200  0.82467200  1
  O  O10  1  0.42570100  0.85141600  0.82429400  1
  O  O11  1  0.18126600  0.75017700  0.56923700  1
loop_
_geom_bond_atom_site_label_1
_geom_bond_atom_site_label_2
_geom_bond_distance
_geom_bond_site_symmetry_2
Mg0 O4 2.086661 1_555
Mg0 O9 2.089438 1_555
Mg0 O3 2.089807 1_555
Mg0 O0 2.089921 1_555
Mg0 O5 2.090183 1_555
Mg0 O10 2.093770 1_545
Ag0 O5 2.594544 1_555
Ag0 O9 2.594979 1_554
Ag0 O10 2.607455 1_554
Ag0 O6 2.640493 1_554
Ag0 O2 2.640927 1_555
Ag0 O1 2.642581 1_555
Ag1 O4 2.589735 1_555
Ag1 O3 2.602956 1_564
Ag1 O9 2.603552 1_664
Ag1 O8 2.642763 1_664
Ag1 O7 2.645064 1_655
Ag1 O2 2.645504 1_555
Ag2 O3 2.594574 1_554
Ag2 O0 2.594802 1_555
Ag2 O10 2.607635 1_654
Ag2 O7 2.640715 1_655
Ag2 O11 2.640785 1_654
Ag2 O1 2.642808 1_555
Ag3 O4 2.589886 1_555
Ag3 O5 2.603302 1_665
Ag3 O0 2.603375 1_565
Ag3 O8 2.642819 1_665
Ag3 O6 2.645081 1_555
Ag3 O11 2.645176 1_655
O0 Ru3 2.093068 1_655
O0 Ru1 2.094584 1_545
O1 Ru1 1.899856 1_545
O1 Ru0 1.901224 1_545
O2 Ru2 1.899196 1_555
O2 Ru0 1.902092 1_555
O3 Ru3 2.093560 1_655
O3 Ru0 2.094486 1_546
O4 Ru2 2.101133 1_555
O4 Ru3 2.101259 1_655
O5 Ru2 2.093035 1_555
O5 Ru1 2.094816 1_545
O6 Ru2 1.900081 1_555
O6 Ru1 1.901408 1_555
O7 Ru3 1.898956 1_555
O7 Ru0 1.902502 1_555
O8 Ru3 1.900462 1_555
O8 Ru2 1.901043 1_555
O9 Ru2 2.093015 1_555
O9 Ru0 2.094017 1_546
O10 Ru0 2.086888 1_556
O10 Ru1 2.087515 1_555
O11 Ru3 1.899672 1_555
O11 Ru1 1.901891 1_555
