# generated using pymatgen
data_Mg15Mn
_symmetry_space_group_name_H-M   'P 1'
_cell_length_a   6.33735575
_cell_length_b   6.33735575
_cell_length_c   10.16098700
_cell_angle_alpha   90.00000000
_cell_angle_beta   90.00000000
_cell_angle_gamma   119.99999739
_symmetry_Int_Tables_number   1
_chemical_formula_structural   Mg15Mn
_chemical_formula_sum   'Mg15 Mn1'
_cell_volume   353.41315658
_cell_formula_units_Z   1
loop_
 _symmetry_equiv_pos_site_id
 _symmetry_equiv_pos_as_xyz
  1  'x, y, z'
loop_
 _atom_site_type_symbol
 _atom_site_label
 _atom_site_symmetry_multiplicity
 _atom_site_fract_x
 _atom_site_fract_y
 _atom_site_fract_z
 _atom_site_occupancy
  Mg  Mg0  1  0.00000000  0.00000000  0.50000000  1
  Mg  Mg1  1  0.00024000  0.50012000  0.00000000  1
  Mg  Mg2  1  0.00023500  0.50011800  0.50000000  1
  Mg  Mg3  1  0.49988000  0.50012000  0.00000000  1
  Mg  Mg4  1  0.49988200  0.50011800  0.50000000  1
  Mg  Mg5  1  0.49988000  0.99976000  0.00000000  1
  Mg  Mg6  1  0.49988200  0.99976500  0.50000000  1
  Mg  Mg7  1  0.16406700  0.32813300  0.75404000  1
  Mg  Mg8  1  0.16406700  0.32813300  0.24596000  1
  Mg  Mg9  1  0.16406700  0.83593300  0.75404000  1
  Mg  Mg10  1  0.16406700  0.83593300  0.24596000  1
  Mg  Mg11  1  0.67186700  0.83593300  0.75404000  1
  Mg  Mg12  1  0.67186700  0.83593300  0.24596000  1
  Mg  Mg13  1  0.66666700  0.33333300  0.74913000  1
  Mg  Mg14  1  0.66666700  0.33333300  0.25087000  1
  Mn  Mn0  1  0.00000000  0.00000000  0.00000000  1
loop_
_geom_bond_atom_site_label_1
_geom_bond_atom_site_label_2
_geom_bond_distance
_geom_bond_site_symmetry_2
Mg0 Mg8 3.147431 1_555
Mg0 Mg12 3.147431 1_445
Mg0 Mg7 3.147431 1_555
Mg0 Mg11 3.147431 1_445
Mg0 Mg10 3.147434 1_545
Mg0 Mg9 3.147434 1_545
Mg0 Mg2 3.168675 1_545
Mg0 Mg6 3.168675 1_545
Mg0 Mg4 3.168678 1_555
Mg0 Mg4 3.168678 1_445
Mg0 Mg6 3.168681 1_445
Mg0 Mg2 3.168681 1_555
Mg1 Mg10 3.105394 1_555
Mg1 Mg9 3.105394 1_554
Mg1 Mg7 3.105397 1_554
Mg1 Mg8 3.105397 1_555
Mg1 Mg13 3.138391 1_454
Mg1 Mg14 3.138391 1_455
Mg1 Mg3 3.166396 1_555
Mg1 Mg5 3.166397 1_555
Mg1 Mn0 3.168678 1_565
Mg1 Mn0 3.168678 1_555
Mg1 Mg3 3.170959 1_455
Mg1 Mg5 3.170959 1_445
Mg2 Mg4 3.166441 1_555
Mg2 Mg6 3.166441 1_555
Mg2 Mg4 3.170915 1_455
Mg2 Mg6 3.170915 1_445
Mg2 Mg9 3.171848 1_555
Mg2 Mg8 3.171855 1_555
Mg2 Mg7 3.171855 1_555
Mg3 Mg7 3.105394 1_554
Mg3 Mg8 3.105394 1_555
Mg3 Mg5 3.166396 1_555
Mg3 Mn0 3.168678 1_665
Mg3 Mn0 3.168678 1_555
Mg3 Mg5 3.170959 1_545
Mg4 Mg6 3.166441 1_555
Mg4 Mg6 3.170915 1_545
Mg4 Mg8 3.171848 1_555
Mg4 Mg7 3.171848 1_555
Mg5 Mg9 3.105394 1_554
Mg5 Mn0 3.168678 1_565
Mg5 Mn0 3.168678 1_665
Mg6 Mg9 3.171848 1_555
Mg7 Mn0 3.080456 1_556
Mg7 Mg9 3.119247 1_545
Mg7 Mg9 3.218109 1_555
Mg8 Mn0 3.080456 1_555
Mg9 Mn0 3.080459 1_566
Mg10 Mn0 3.080459 1_565
Mg10 Mg5 3.105394 1_555
Mg10 Mg12 3.119247 1_455
Mg10 Mg8 3.119247 1_565
Mg10 Mg14 3.169199 1_455
Mg10 Mg14 3.169199 1_565
Mg10 Mg2 3.171848 1_555
Mg10 Mg6 3.171848 1_555
Mg10 Mg8 3.218109 1_555
Mg10 Mg12 3.218109 1_555
Mg11 Mn0 3.080456 1_666
Mg11 Mg3 3.105394 1_556
Mg11 Mg5 3.105397 1_556
Mg11 Mg9 3.119247 1_655
Mg11 Mg7 3.119247 1_665
Mg11 Mg13 3.169199 1_565
Mg11 Mg13 3.169199 1_555
Mg11 Mg4 3.171848 1_555
Mg11 Mg6 3.171855 1_555
Mg11 Mg9 3.218109 1_555
Mg11 Mg7 3.218109 1_555
Mg12 Mn0 3.080456 1_665
Mg12 Mg3 3.105394 1_555
Mg12 Mg5 3.105397 1_555
Mg12 Mg8 3.119247 1_665
Mg12 Mg14 3.169199 1_565
Mg12 Mg14 3.169199 1_555
Mg12 Mg4 3.171848 1_555
Mg12 Mg6 3.171855 1_555
Mg12 Mg8 3.218109 1_555
Mg13 Mg2 3.124032 1_655
Mg13 Mg6 3.124032 1_545
Mg13 Mg4 3.124038 1_555
Mg13 Mg5 3.138391 1_546
Mg13 Mg3 3.138394 1_556
Mg13 Mg7 3.169199 1_655
Mg13 Mg7 3.169199 1_555
Mg13 Mg9 3.169199 1_655
Mg13 Mg9 3.169199 1_545
Mg14 Mg2 3.124032 1_655
Mg14 Mg6 3.124032 1_545
Mg14 Mg4 3.124038 1_555
Mg14 Mg5 3.138391 1_545
Mg14 Mg3 3.138394 1_555
Mg14 Mg8 3.169199 1_655
Mg14 Mg8 3.169199 1_555
