# generated using pymatgen
data_Ce2ZrO6
_symmetry_space_group_name_H-M   'P 1'
_cell_length_a   3.80985010
_cell_length_b   3.80985010
_cell_length_c   9.21646800
_cell_angle_alpha   90.00000000
_cell_angle_beta   90.00000000
_cell_angle_gamma   120.00000174
_symmetry_Int_Tables_number   1
_chemical_formula_structural   Ce2ZrO6
_chemical_formula_sum   'Ce2 Zr1 O6'
_cell_volume   115.85397006
_cell_formula_units_Z   1
loop_
 _symmetry_equiv_pos_site_id
 _symmetry_equiv_pos_as_xyz
  1  'x, y, z'
loop_
 _atom_site_type_symbol
 _atom_site_label
 _atom_site_symmetry_multiplicity
 _atom_site_fract_x
 _atom_site_fract_y
 _atom_site_fract_z
 _atom_site_occupancy
  Ce  Ce0  1  0.33333300  0.66666700  0.67442400  1
  Ce  Ce1  1  0.66666700  0.33333300  0.32557600  1
  Zr  Zr0  1  0.00000000  0.00000000  0.00000000  1
  O  O0  1  0.66666700  0.33333300  0.07051600  1
  O  O1  1  0.00000000  0.00000000  0.76385000  1
  O  O2  1  0.33333300  0.66666700  0.41378100  1
  O  O3  1  0.33333300  0.66666700  0.92948400  1
  O  O4  1  0.66666700  0.33333300  0.58621900  1
  O  O5  1  0.00000000  0.00000000  0.23615000  1
loop_
_geom_bond_atom_site_label_1
_geom_bond_atom_site_label_2
_geom_bond_distance
_geom_bond_site_symmetry_2
Ce0 O4 2.345033 1_455
Ce0 O4 2.345033 1_565
Ce0 O4 2.345039 1_555
Ce0 O1 2.348958 1_565
Ce0 O1 2.348961 1_555
Ce0 O1 2.348961 1_665
Ce0 O3 2.350752 1_555
Ce0 O2 2.402208 1_555
Ce1 O2 2.345033 1_655
Ce1 O2 2.345033 1_545
Ce1 O2 2.345039 1_555
Ce1 O5 2.348958 1_655
Ce1 O5 2.348961 1_665
Ce1 O5 2.348961 1_555
Ce1 O0 2.350752 1_555
Ce1 O4 2.402208 1_555
O0 Zr0 2.293620 1_655
O0 Zr0 2.293623 1_665
O0 Zr0 2.293623 1_555
O1 Zr0 2.176469 1_556
O3 Zr0 2.293620 1_566
O3 Zr0 2.293623 1_556
O3 Zr0 2.293623 1_666
O5 Zr0 2.176469 1_555
