# generated using pymatgen
data_CaMg
_symmetry_space_group_name_H-M   'P 1'
_cell_length_a   12.92810497
_cell_length_b   12.92810497
_cell_length_c   11.63799150
_cell_angle_alpha   69.93846811
_cell_angle_beta   69.93846811
_cell_angle_gamma   33.73906290
_symmetry_Int_Tables_number   1
_chemical_formula_structural   CaMg
_chemical_formula_sum   'Ca16 Mg16'
_cell_volume   1008.55363309
_cell_formula_units_Z   16
loop_
 _symmetry_equiv_pos_site_id
 _symmetry_equiv_pos_as_xyz
  1  'x, y, z'
loop_
 _atom_site_type_symbol
 _atom_site_label
 _atom_site_symmetry_multiplicity
 _atom_site_fract_x
 _atom_site_fract_y
 _atom_site_fract_z
 _atom_site_occupancy
  Ca  Ca0_0  1  0.44743767  0.44743767  0.41477276  1
  Ca  Ca0_1  1  0.44743767  0.44743767  0.91477275  1
  Ca  Ca0_2  1  0.44743767  0.94743767  0.41477276  1
  Ca  Ca0_3  1  0.44743767  0.94743767  0.91477276  1
  Ca  Ca0_4  1  0.94743767  0.44743767  0.41477276  1
  Ca  Ca0_5  1  0.94743767  0.44743767  0.91477276  1
  Ca  Ca0_6  1  0.94743767  0.94743767  0.41477275  1
  Ca  Ca0_7  1  0.94743767  0.94743767  0.91477275  1
  Ca  Ca1_0  1  0.05256233  0.05256233  0.08522725  1
  Ca  Ca1_1  1  0.05256233  0.05256233  0.58522725  1
  Ca  Ca1_2  1  0.05256233  0.55256233  0.08522725  1
  Ca  Ca1_3  1  0.05256233  0.55256233  0.58522725  1
  Ca  Ca1_4  1  0.55256233  0.05256233  0.08522725  1
  Ca  Ca1_5  1  0.55256233  0.05256233  0.58522725  1
  Ca  Ca1_6  1  0.55256233  0.55256233  0.08522725  1
  Ca  Ca1_7  1  0.55256233  0.55256233  0.58522725  1
  Mg  Mg0_0  1  0.32415604  0.32415604  0.31915986  1
  Mg  Mg0_1  1  0.32415605  0.32415605  0.81915986  1
  Mg  Mg0_2  1  0.32415604  0.82415604  0.31915986  1
  Mg  Mg0_3  1  0.32415605  0.82415605  0.81915987  1
  Mg  Mg0_4  1  0.82415605  0.32415605  0.31915986  1
  Mg  Mg0_5  1  0.82415605  0.32415605  0.81915987  1
  Mg  Mg0_6  1  0.82415604  0.82415604  0.31915986  1
  Mg  Mg0_7  1  0.82415605  0.82415605  0.81915987  1
  Mg  Mg1_0  1  0.17584395  0.17584395  0.18084014  1
  Mg  Mg1_1  1  0.17584396  0.17584395  0.68084014  1
  Mg  Mg1_2  1  0.17584395  0.67584395  0.18084013  1
  Mg  Mg1_3  1  0.17584395  0.67584395  0.68084014  1
  Mg  Mg1_4  1  0.67584395  0.17584395  0.18084013  1
  Mg  Mg1_5  1  0.67584396  0.17584396  0.68084014  1
  Mg  Mg1_6  1  0.67584396  0.67584395  0.18084014  1
  Mg  Mg1_7  1  0.67584396  0.67584396  0.68084013  1
loop_
_geom_bond_atom_site_label_1
_geom_bond_atom_site_label_2
_geom_bond_distance
_geom_bond_site_symmetry_2
Ca0_0 Mg0_2 3.476605 1_555
Ca0_0 Mg0_4 3.476605 1_555
Ca0_0 Mg1_3 3.493758 1_555
Ca0_0 Mg1_5 3.493758 1_555
Ca0_0 Mg1_4 3.501298 1_555
Ca0_0 Mg1_2 3.501298 1_555
Ca0_0 Mg0_0 3.602323 1_555
Ca0_0 Ca0_6 3.751650 1_455
Ca0_0 Ca0_6 3.751650 1_545
Ca0_0 Ca1_6 3.784602 1_555
Ca0_0 Ca1_7 3.794807 1_555
Ca0_0 Ca1_5 3.899513 1_555
Ca0_0 Ca1_3 3.899513 1_555
Ca0_1 Mg0_3 3.476605 1_555
Ca0_1 Mg0_5 3.476605 1_555
Ca0_1 Mg1_4 3.493758 1_556
Ca0_1 Mg1_2 3.493758 1_556
Ca0_1 Mg1_5 3.501298 1_555
Ca0_1 Mg1_3 3.501298 1_555
Ca0_1 Mg0_1 3.602323 1_555
Ca0_1 Ca0_7 3.751650 1_545
Ca0_1 Ca0_7 3.751650 1_455
Ca0_1 Ca1_7 3.784602 1_555
Ca0_1 Ca1_6 3.794807 1_556
Ca0_1 Ca1_4 3.899513 1_556
Ca0_1 Ca1_2 3.899513 1_556
Ca0_2 Mg0_6 3.476605 1_555
Ca0_2 Mg0_0 3.476605 1_565
Ca0_2 Mg1_1 3.493758 1_565
Ca0_2 Mg1_7 3.493758 1_555
Ca0_2 Mg1_0 3.501298 1_565
Ca0_2 Mg1_6 3.501298 1_555
Ca0_2 Mg0_2 3.602323 1_555
Ca0_2 Ca0_4 3.751650 1_465
Ca0_2 Ca0_4 3.751650 1_555
Ca0_2 Ca1_4 3.784602 1_565
Ca0_2 Ca1_5 3.794807 1_565
Ca0_2 Ca1_1 3.899513 1_565
Ca0_2 Ca1_7 3.899513 1_555
Ca0_3 Mg0_1 3.476605 1_565
Ca0_3 Mg0_7 3.476605 1_555
Ca0_3 Mg1_0 3.493758 1_566
Ca0_3 Mg1_6 3.493758 1_556
Ca0_3 Mg1_1 3.501298 1_565
Ca0_3 Mg1_7 3.501298 1_555
Ca0_3 Mg0_3 3.602323 1_555
Ca0_3 Ca0_5 3.751650 1_555
Ca0_3 Ca0_5 3.751650 1_465
Ca0_3 Ca1_5 3.784602 1_565
Ca0_3 Ca1_4 3.794807 1_566
Ca0_3 Ca1_6 3.899513 1_556
Ca0_3 Ca1_0 3.899513 1_566
Ca0_4 Mg0_6 3.476605 1_555
Ca0_4 Mg0_0 3.476605 1_655
Ca0_4 Mg1_7 3.493758 1_555
Ca0_4 Mg1_1 3.493758 1_655
Ca0_4 Mg1_0 3.501298 1_655
Ca0_4 Mg1_6 3.501298 1_555
Ca0_4 Mg0_4 3.602323 1_555
Ca0_4 Ca1_2 3.784602 1_655
Ca0_4 Ca1_3 3.794807 1_655
Ca0_4 Ca1_1 3.899513 1_655
Ca0_4 Ca1_7 3.899513 1_555
Ca0_5 Mg0_1 3.476605 1_655
Ca0_5 Mg0_7 3.476605 1_555
Ca0_5 Mg1_0 3.493758 1_656
Ca0_5 Mg1_6 3.493758 1_556
Ca0_5 Mg1_1 3.501298 1_655
Ca0_5 Mg1_7 3.501298 1_555
Ca0_5 Mg0_5 3.602323 1_555
Ca0_5 Ca1_3 3.784602 1_655
Ca0_5 Ca1_2 3.794807 1_656
Ca0_5 Ca1_0 3.899513 1_656
Ca0_5 Ca1_6 3.899513 1_556
Ca0_6 Mg0_2 3.476605 1_655
Ca0_6 Mg0_4 3.476605 1_565
Ca0_6 Mg1_3 3.493758 1_655
Ca0_6 Mg1_5 3.493758 1_565
Ca0_6 Mg1_2 3.501298 1_655
Ca0_6 Mg1_4 3.501298 1_565
Ca0_6 Mg0_6 3.602323 1_555
Ca0_6 Ca1_0 3.784602 1_665
Ca0_6 Ca1_1 3.794807 1_665
Ca0_6 Ca1_5 3.899513 1_565
Ca0_6 Ca1_3 3.899513 1_655
Ca0_7 Mg0_5 3.476605 1_565
Ca0_7 Mg0_3 3.476605 1_655
Ca0_7 Mg1_4 3.493758 1_566
Ca0_7 Mg1_2 3.493758 1_656
Ca0_7 Mg1_5 3.501298 1_565
Ca0_7 Mg1_3 3.501298 1_655
Ca0_7 Mg0_7 3.602323 1_555
Ca0_7 Ca1_1 3.784602 1_665
Ca0_7 Ca1_0 3.794807 1_666
Ca0_7 Ca1_4 3.899513 1_566
Ca0_7 Ca1_2 3.899513 1_656
Ca1_0 Mg1_4 3.476605 1_455
Ca1_0 Mg1_2 3.476605 1_545
Ca1_0 Mg0_5 3.493758 1_454
Ca1_0 Mg0_3 3.493758 1_544
Ca1_0 Mg0_2 3.501298 1_545
Ca1_0 Mg0_4 3.501298 1_455
Ca1_0 Mg1_0 3.602323 1_555
Ca1_0 Ca1_6 3.751650 1_545
Ca1_0 Ca1_6 3.751650 1_455
Ca1_1 Mg1_5 3.476605 1_455
Ca1_1 Mg1_3 3.476605 1_545
Ca1_1 Mg0_2 3.493758 1_545
Ca1_1 Mg0_4 3.493758 1_455
Ca1_1 Mg0_3 3.501298 1_545
Ca1_1 Mg0_5 3.501298 1_455
Ca1_1 Mg1_1 3.602323 1_555
Ca1_1 Ca1_7 3.751650 1_545
Ca1_1 Ca1_7 3.751650 1_455
Ca1_2 Mg1_6 3.476605 1_455
Ca1_2 Mg1_0 3.476605 1_555
Ca1_2 Mg0_7 3.493758 1_454
Ca1_2 Mg0_1 3.493758 1_554
Ca1_2 Mg0_6 3.501298 1_455
Ca1_2 Mg0_0 3.501298 1_555
Ca1_2 Mg1_2 3.602323 1_555
Ca1_2 Ca1_4 3.751650 1_465
Ca1_2 Ca1_4 3.751650 1_555
Ca1_3 Mg1_7 3.476605 1_455
Ca1_3 Mg1_1 3.476605 1_555
Ca1_3 Mg0_6 3.493758 1_455
Ca1_3 Mg0_0 3.493758 1_555
Ca1_3 Mg0_1 3.501298 1_555
Ca1_3 Mg0_7 3.501298 1_455
Ca1_3 Mg1_3 3.602323 1_555
Ca1_3 Ca1_5 3.751650 1_465
Ca1_3 Ca1_5 3.751650 1_555
Ca1_4 Mg1_0 3.476605 1_555
Ca1_4 Mg1_6 3.476605 1_545
Ca1_4 Mg0_7 3.493758 1_544
Ca1_4 Mg0_1 3.493758 1_554
Ca1_4 Mg0_0 3.501298 1_555
Ca1_4 Mg0_6 3.501298 1_545
Ca1_4 Mg1_4 3.602323 1_555
Ca1_5 Mg1_7 3.476605 1_545
Ca1_5 Mg1_1 3.476605 1_555
Ca1_5 Mg0_0 3.493758 1_555
Ca1_5 Mg0_6 3.493758 1_545
Ca1_5 Mg0_1 3.501298 1_555
Ca1_5 Mg0_7 3.501298 1_545
Ca1_5 Mg1_5 3.602323 1_555
Ca1_6 Mg1_4 3.476605 1_555
Ca1_6 Mg1_2 3.476605 1_555
Ca1_6 Mg0_5 3.493758 1_554
Ca1_6 Mg0_3 3.493758 1_554
Ca1_6 Mg0_2 3.501298 1_555
Ca1_6 Mg0_4 3.501298 1_555
Ca1_6 Mg1_6 3.602323 1_555
Ca1_7 Mg1_5 3.476605 1_555
Ca1_7 Mg1_3 3.476605 1_555
Ca1_7 Mg0_4 3.493758 1_555
Ca1_7 Mg0_2 3.493758 1_555
Ca1_7 Mg0_3 3.501298 1_555
Ca1_7 Mg0_5 3.501298 1_555
Ca1_7 Mg1_7 3.602323 1_555
Mg0_0 Mg1_2 3.088234 1_555
Mg0_0 Mg1_4 3.088234 1_555
Mg0_1 Mg1_3 3.088234 1_555
Mg0_1 Mg1_5 3.088234 1_555
Mg0_2 Mg1_0 3.088234 1_565
Mg0_2 Mg1_6 3.088234 1_555
Mg0_3 Mg1_1 3.088234 1_565
Mg0_3 Mg1_7 3.088234 1_555
Mg0_4 Mg1_0 3.088234 1_655
Mg0_4 Mg1_6 3.088234 1_555
Mg0_5 Mg1_1 3.088234 1_655
Mg0_5 Mg1_7 3.088234 1_555
Mg0_6 Mg1_2 3.088234 1_655
Mg0_6 Mg1_4 3.088234 1_565
Mg0_7 Mg1_3 3.088234 1_655
Mg0_7 Mg1_5 3.088234 1_565
