# generated using pymatgen
data_Ca2Mg
_symmetry_space_group_name_H-M   'P 1'
_cell_length_a   7.54749044
_cell_length_b   7.54749044
_cell_length_c   35.22044000
_cell_angle_alpha   90.00000000
_cell_angle_beta   90.00000000
_cell_angle_gamma   119.99998628
_symmetry_Int_Tables_number   1
_chemical_formula_structural   Ca2Mg
_chemical_formula_sum   'Ca32 Mg16'
_cell_volume   1737.52319766
_cell_formula_units_Z   16
loop_
 _symmetry_equiv_pos_site_id
 _symmetry_equiv_pos_as_xyz
  1  'x, y, z'
loop_
 _atom_site_type_symbol
 _atom_site_label
 _atom_site_symmetry_multiplicity
 _atom_site_fract_x
 _atom_site_fract_y
 _atom_site_fract_z
 _atom_site_occupancy
  Ca  Ca0_0  1  0.16666650  0.33333350  0.45383650  1
  Ca  Ca0_1  1  0.16666650  0.33333350  0.95383650  1
  Ca  Ca0_2  1  0.16666650  0.83333350  0.45383650  1
  Ca  Ca0_3  1  0.16666650  0.83333350  0.95383650  1
  Ca  Ca0_4  1  0.66666650  0.33333350  0.45383650  1
  Ca  Ca0_5  1  0.66666650  0.33333350  0.95383650  1
  Ca  Ca0_6  1  0.66666650  0.83333350  0.45383650  1
  Ca  Ca0_7  1  0.66666650  0.83333350  0.95383650  1
  Ca  Ca1_0  1  0.16666650  0.33333350  0.29616350  1
  Ca  Ca1_1  1  0.16666650  0.33333350  0.79616350  1
  Ca  Ca1_2  1  0.16666650  0.83333350  0.29616350  1
  Ca  Ca1_3  1  0.16666650  0.83333350  0.79616350  1
  Ca  Ca1_4  1  0.66666650  0.33333350  0.29616350  1
  Ca  Ca1_5  1  0.66666650  0.33333350  0.79616350  1
  Ca  Ca1_6  1  0.66666650  0.83333350  0.29616350  1
  Ca  Ca1_7  1  0.66666650  0.83333350  0.79616350  1
  Ca  Ca2_0  1  0.33333350  0.16666650  0.20383650  1
  Ca  Ca2_1  1  0.33333350  0.16666650  0.70383650  1
  Ca  Ca2_2  1  0.33333350  0.66666650  0.20383650  1
  Ca  Ca2_3  1  0.33333350  0.66666650  0.70383650  1
  Ca  Ca2_4  1  0.83333350  0.16666650  0.20383650  1
  Ca  Ca2_5  1  0.83333350  0.16666650  0.70383650  1
  Ca  Ca2_6  1  0.83333350  0.66666650  0.20383650  1
  Ca  Ca2_7  1  0.83333350  0.66666650  0.70383650  1
  Ca  Ca3_0  1  0.33333350  0.16666650  0.04616350  1
  Ca  Ca3_1  1  0.33333350  0.16666650  0.54616350  1
  Ca  Ca3_2  1  0.33333350  0.66666650  0.04616350  1
  Ca  Ca3_3  1  0.33333350  0.66666650  0.54616350  1
  Ca  Ca3_4  1  0.83333350  0.16666650  0.04616350  1
  Ca  Ca3_5  1  0.83333350  0.16666650  0.54616350  1
  Ca  Ca3_6  1  0.83333350  0.66666650  0.04616350  1
  Ca  Ca3_7  1  0.83333350  0.66666650  0.54616350  1
  Mg  Mg0_0  1  0.33333350  0.16666650  0.37500000  1
  Mg  Mg0_1  1  0.33333350  0.16666650  0.87500000  1
  Mg  Mg0_2  1  0.33333350  0.66666650  0.37500000  1
  Mg  Mg0_3  1  0.33333350  0.66666650  0.87500000  1
  Mg  Mg0_4  1  0.83333350  0.16666650  0.37500000  1
  Mg  Mg0_5  1  0.83333350  0.16666650  0.87500000  1
  Mg  Mg0_6  1  0.83333350  0.66666650  0.37500000  1
  Mg  Mg0_7  1  0.83333350  0.66666650  0.87500000  1
  Mg  Mg1_0  1  0.16666650  0.33333350  0.12500000  1
  Mg  Mg1_1  1  0.16666650  0.33333350  0.62500000  1
  Mg  Mg1_2  1  0.16666650  0.83333350  0.12500000  1
  Mg  Mg1_3  1  0.16666650  0.83333350  0.62500000  1
  Mg  Mg1_4  1  0.66666650  0.33333350  0.12500000  1
  Mg  Mg1_5  1  0.66666650  0.33333350  0.62500000  1
  Mg  Mg1_6  1  0.66666650  0.83333350  0.12500000  1
  Mg  Mg1_7  1  0.66666650  0.83333350  0.62500000  1
loop_
_geom_bond_atom_site_label_1
_geom_bond_atom_site_label_2
_geom_bond_distance
_geom_bond_site_symmetry_2
Ca0_0 Mg0_4 3.529428 1_455
Ca0_0 Mg0_2 3.529428 1_555
Ca0_0 Mg0_0 3.529432 1_555
Ca0_0 Ca0_4 3.773745 1_455
Ca0_0 Ca0_2 3.773745 1_545
Ca0_0 Ca0_4 3.773745 1_555
Ca0_0 Ca0_2 3.773745 1_555
Ca0_0 Ca0_6 3.773746 1_555
Ca0_0 Ca0_6 3.773746 1_445
Ca0_0 Ca3_5 3.914234 1_455
Ca0_0 Ca3_3 3.914234 1_555
Ca0_0 Ca3_1 3.914238 1_555
Ca0_1 Mg0_5 3.529428 1_455
Ca0_1 Mg0_3 3.529428 1_555
Ca0_1 Mg0_1 3.529432 1_555
Ca0_1 Ca0_3 3.773745 1_545
Ca0_1 Ca0_5 3.773745 1_455
Ca0_1 Ca0_5 3.773745 1_555
Ca0_1 Ca0_3 3.773745 1_555
Ca0_1 Ca0_7 3.773746 1_445
Ca0_1 Ca0_7 3.773746 1_555
Ca0_1 Ca3_4 3.914234 1_456
Ca0_1 Ca3_2 3.914234 1_556
Ca0_1 Ca3_0 3.914238 1_556
Ca0_2 Mg0_6 3.529428 1_455
Ca0_2 Mg0_0 3.529428 1_565
Ca0_2 Mg0_2 3.529432 1_555
Ca0_2 Ca0_6 3.773745 1_455
Ca0_2 Ca0_6 3.773745 1_555
Ca0_2 Ca0_4 3.773746 1_565
Ca0_2 Ca0_4 3.773746 1_455
Ca0_2 Ca3_1 3.914234 1_565
Ca0_2 Ca3_7 3.914234 1_455
Ca0_2 Ca3_3 3.914238 1_555
Ca0_3 Mg0_1 3.529428 1_565
Ca0_3 Mg0_7 3.529428 1_455
Ca0_3 Mg0_3 3.529432 1_555
Ca0_3 Ca0_7 3.773745 1_455
Ca0_3 Ca0_7 3.773745 1_555
Ca0_3 Ca0_5 3.773746 1_565
Ca0_3 Ca0_5 3.773746 1_455
Ca0_3 Ca3_0 3.914234 1_566
Ca0_3 Ca3_6 3.914234 1_456
Ca0_3 Ca3_2 3.914238 1_556
Ca0_4 Mg0_0 3.529428 1_555
Ca0_4 Mg0_6 3.529428 1_555
Ca0_4 Mg0_4 3.529432 1_555
Ca0_4 Ca0_6 3.773745 1_555
Ca0_4 Ca0_6 3.773745 1_545
Ca0_4 Ca3_7 3.914234 1_555
Ca0_4 Ca3_1 3.914234 1_555
Ca0_4 Ca3_5 3.914238 1_555
Ca0_5 Mg0_1 3.529428 1_555
Ca0_5 Mg0_7 3.529428 1_555
Ca0_5 Mg0_5 3.529432 1_555
Ca0_5 Ca0_7 3.773745 1_555
Ca0_5 Ca0_7 3.773745 1_545
Ca0_5 Ca3_0 3.914234 1_556
Ca0_5 Ca3_6 3.914234 1_556
Ca0_5 Ca3_4 3.914238 1_556
Ca0_6 Mg0_4 3.529428 1_565
Ca0_6 Mg0_2 3.529428 1_555
Ca0_6 Mg0_6 3.529432 1_555
Ca0_6 Ca3_3 3.914234 1_555
Ca0_6 Ca3_5 3.914234 1_565
Ca0_6 Ca3_7 3.914238 1_555
Ca0_7 Mg0_5 3.529428 1_565
Ca0_7 Mg0_3 3.529428 1_555
Ca0_7 Mg0_7 3.529432 1_555
Ca0_7 Ca3_2 3.914234 1_556
Ca0_7 Ca3_4 3.914234 1_566
Ca0_7 Ca3_6 3.914238 1_556
Ca1_0 Mg0_4 3.529428 1_455
Ca1_0 Mg0_2 3.529428 1_555
Ca1_0 Mg0_0 3.529432 1_555
Ca1_0 Ca1_2 3.773745 1_545
Ca1_0 Ca1_4 3.773745 1_455
Ca1_0 Ca1_2 3.773745 1_555
Ca1_0 Ca1_4 3.773745 1_555
Ca1_0 Ca1_6 3.773746 1_445
Ca1_0 Ca1_6 3.773746 1_555
Ca1_0 Ca2_4 3.914234 1_455
Ca1_0 Ca2_2 3.914234 1_555
Ca1_0 Ca2_0 3.914238 1_555
Ca1_1 Mg0_5 3.529428 1_455
Ca1_1 Mg0_3 3.529428 1_555
Ca1_1 Mg0_1 3.529432 1_555
Ca1_1 Ca1_3 3.773745 1_545
Ca1_1 Ca1_5 3.773745 1_455
Ca1_1 Ca1_5 3.773745 1_555
Ca1_1 Ca1_3 3.773745 1_555
Ca1_1 Ca1_7 3.773746 1_445
Ca1_1 Ca1_7 3.773746 1_555
Ca1_1 Ca2_5 3.914234 1_455
Ca1_1 Ca2_3 3.914234 1_555
Ca1_1 Ca2_1 3.914238 1_555
Ca1_2 Mg0_6 3.529428 1_455
Ca1_2 Mg0_0 3.529428 1_565
Ca1_2 Mg0_2 3.529432 1_555
Ca1_2 Ca1_6 3.773745 1_455
Ca1_2 Ca1_6 3.773745 1_555
Ca1_2 Ca1_4 3.773746 1_565
Ca1_2 Ca1_4 3.773746 1_455
Ca1_2 Ca2_0 3.914234 1_565
Ca1_2 Ca2_6 3.914234 1_455
Ca1_2 Ca2_2 3.914238 1_555
Ca1_3 Mg0_7 3.529428 1_455
Ca1_3 Mg0_1 3.529428 1_565
Ca1_3 Mg0_3 3.529432 1_555
Ca1_3 Ca1_7 3.773745 1_455
Ca1_3 Ca1_7 3.773745 1_555
Ca1_3 Ca1_5 3.773746 1_565
Ca1_3 Ca1_5 3.773746 1_455
Ca1_3 Ca2_1 3.914234 1_565
Ca1_3 Ca2_7 3.914234 1_455
Ca1_3 Ca2_3 3.914238 1_555
Ca1_4 Mg0_6 3.529428 1_555
Ca1_4 Mg0_0 3.529428 1_555
Ca1_4 Mg0_4 3.529432 1_555
Ca1_4 Ca1_6 3.773745 1_555
Ca1_4 Ca1_6 3.773745 1_545
Ca1_4 Ca2_0 3.914234 1_555
Ca1_4 Ca2_6 3.914234 1_555
Ca1_4 Ca2_4 3.914238 1_555
Ca1_5 Mg0_1 3.529428 1_555
Ca1_5 Mg0_7 3.529428 1_555
Ca1_5 Mg0_5 3.529432 1_555
Ca1_5 Ca1_7 3.773745 1_555
Ca1_5 Ca1_7 3.773745 1_545
Ca1_5 Ca2_7 3.914234 1_555
Ca1_5 Ca2_1 3.914234 1_555
Ca1_5 Ca2_5 3.914238 1_555
Ca1_6 Mg0_2 3.529428 1_555
Ca1_6 Mg0_4 3.529428 1_565
Ca1_6 Mg0_6 3.529432 1_555
Ca1_6 Ca2_4 3.914234 1_565
Ca1_6 Ca2_2 3.914234 1_555
Ca1_6 Ca2_6 3.914238 1_555
Ca1_7 Mg0_3 3.529428 1_555
Ca1_7 Mg0_5 3.529428 1_565
Ca1_7 Mg0_7 3.529432 1_555
Ca1_7 Ca2_5 3.914234 1_565
Ca1_7 Ca2_3 3.914234 1_555
Ca1_7 Ca2_7 3.914238 1_555
Ca2_0 Mg1_2 3.529428 1_545
Ca2_0 Mg1_4 3.529428 1_555
Ca2_0 Mg1_0 3.529432 1_555
Ca2_0 Ca2_2 3.773745 1_545
Ca2_0 Ca2_4 3.773745 1_455
Ca2_0 Ca2_2 3.773745 1_555
Ca2_0 Ca2_4 3.773745 1_555
Ca2_0 Ca2_6 3.773746 1_555
Ca2_0 Ca2_6 3.773746 1_445
Ca2_1 Mg1_3 3.529428 1_545
Ca2_1 Mg1_5 3.529428 1_555
Ca2_1 Mg1_1 3.529432 1_555
Ca2_1 Ca2_5 3.773745 1_455
Ca2_1 Ca2_3 3.773745 1_545
Ca2_1 Ca2_5 3.773745 1_555
Ca2_1 Ca2_3 3.773745 1_555
Ca2_1 Ca2_7 3.773746 1_445
Ca2_1 Ca2_7 3.773746 1_555
Ca2_2 Mg1_0 3.529428 1_555
Ca2_2 Mg1_6 3.529428 1_555
Ca2_2 Mg1_2 3.529432 1_555
Ca2_2 Ca2_6 3.773745 1_555
Ca2_2 Ca2_6 3.773745 1_455
Ca2_2 Ca2_4 3.773746 1_455
Ca2_2 Ca2_4 3.773746 1_565
Ca2_3 Mg1_7 3.529428 1_555
Ca2_3 Mg1_1 3.529428 1_555
Ca2_3 Mg1_3 3.529432 1_555
Ca2_3 Ca2_7 3.773745 1_555
Ca2_3 Ca2_7 3.773745 1_455
Ca2_3 Ca2_5 3.773746 1_565
Ca2_3 Ca2_5 3.773746 1_455
Ca2_4 Mg1_0 3.529428 1_655
Ca2_4 Mg1_6 3.529428 1_545
Ca2_4 Mg1_4 3.529432 1_555
Ca2_4 Ca2_6 3.773745 1_545
Ca2_4 Ca2_6 3.773745 1_555
Ca2_5 Mg1_1 3.529428 1_655
Ca2_5 Mg1_7 3.529428 1_545
Ca2_5 Mg1_5 3.529432 1_555
Ca2_5 Ca2_7 3.773745 1_545
Ca2_5 Ca2_7 3.773745 1_555
Ca2_6 Mg1_4 3.529428 1_555
Ca2_6 Mg1_2 3.529428 1_655
Ca2_6 Mg1_6 3.529432 1_555
Ca2_7 Mg1_5 3.529428 1_555
Ca2_7 Mg1_3 3.529428 1_655
Ca2_7 Mg1_7 3.529432 1_555
Ca3_0 Mg1_2 3.529428 1_545
Ca3_0 Mg1_4 3.529428 1_555
Ca3_0 Mg1_0 3.529432 1_555
Ca3_0 Ca3_4 3.773745 1_455
Ca3_0 Ca3_2 3.773745 1_545
Ca3_0 Ca3_2 3.773745 1_555
Ca3_0 Ca3_4 3.773745 1_555
Ca3_0 Ca3_6 3.773746 1_445
Ca3_0 Ca3_6 3.773746 1_555
Ca3_1 Mg1_3 3.529428 1_545
Ca3_1 Mg1_5 3.529428 1_555
Ca3_1 Mg1_1 3.529432 1_555
Ca3_1 Ca3_5 3.773745 1_455
Ca3_1 Ca3_3 3.773745 1_545
Ca3_1 Ca3_5 3.773745 1_555
Ca3_1 Ca3_3 3.773745 1_555
Ca3_1 Ca3_7 3.773746 1_445
Ca3_1 Ca3_7 3.773746 1_555
Ca3_2 Mg1_6 3.529428 1_555
Ca3_2 Mg1_0 3.529428 1_555
Ca3_2 Mg1_2 3.529432 1_555
Ca3_2 Ca3_6 3.773745 1_555
Ca3_2 Ca3_6 3.773745 1_455
Ca3_2 Ca3_4 3.773746 1_565
Ca3_2 Ca3_4 3.773746 1_455
Ca3_3 Mg1_1 3.529428 1_555
Ca3_3 Mg1_7 3.529428 1_555
Ca3_3 Mg1_3 3.529432 1_555
Ca3_3 Ca3_7 3.773745 1_555
Ca3_3 Ca3_7 3.773745 1_455
Ca3_3 Ca3_5 3.773746 1_565
Ca3_3 Ca3_5 3.773746 1_455
Ca3_4 Mg1_6 3.529428 1_545
Ca3_4 Mg1_0 3.529428 1_655
Ca3_4 Mg1_4 3.529432 1_555
Ca3_4 Ca3_6 3.773745 1_545
Ca3_4 Ca3_6 3.773745 1_555
Ca3_5 Mg1_1 3.529428 1_655
Ca3_5 Mg1_7 3.529428 1_545
Ca3_5 Mg1_5 3.529432 1_555
Ca3_5 Ca3_7 3.773745 1_545
Ca3_5 Ca3_7 3.773745 1_555
Ca3_6 Mg1_4 3.529428 1_555
Ca3_6 Mg1_2 3.529428 1_655
Ca3_6 Mg1_6 3.529432 1_555
Ca3_7 Mg1_5 3.529428 1_555
Ca3_7 Mg1_3 3.529428 1_655
Ca3_7 Mg1_7 3.529432 1_555
