# generated using pymatgen
data_KMgAs(H6O5)2
_symmetry_space_group_name_H-M   'P 1'
_cell_length_a   6.24244700
_cell_length_b   7.22341000
_cell_length_c   11.24913300
_cell_angle_alpha   90.00000000
_cell_angle_beta   90.00000000
_cell_angle_gamma   90.00000000
_symmetry_Int_Tables_number   1
_chemical_formula_structural   KMgAs(H6O5)2
_chemical_formula_sum   'K2 Mg2 As2 H24 O20'
_cell_volume   507.24313890
_cell_formula_units_Z   2
loop_
 _symmetry_equiv_pos_site_id
 _symmetry_equiv_pos_as_xyz
  1  'x, y, z'
loop_
 _atom_site_type_symbol
 _atom_site_label
 _atom_site_symmetry_multiplicity
 _atom_site_fract_x
 _atom_site_fract_y
 _atom_site_fract_z
 _atom_site_occupancy
  K  K0  1  0.38471400  0.50000000  0.20599500  1
  K  K1  1  0.61528600  0.00000000  0.70599500  1
  Mg  Mg0  1  0.62884400  0.00000000  0.37855600  1
  Mg  Mg1  1  0.37115600  0.50000000  0.87855600  1
  As  As0  1  0.99305400  0.50000000  0.49196700  1
  As  As1  1  0.00694600  0.00000000  0.99196700  1
  H  H0  1  0.98886600  0.11209900  0.50339000  1
  H  H1  1  0.98886600  0.88790100  0.50339000  1
  H  H2  1  0.01113400  0.38790100  0.00339000  1
  H  H3  1  0.01113400  0.61209900  0.00339000  1
  H  H4  1  0.29245600  0.89865500  0.23530600  1
  H  H5  1  0.29245600  0.10134500  0.23530600  1
  H  H6  1  0.70754400  0.60134500  0.73530600  1
  H  H7  1  0.70754400  0.39865500  0.73530600  1
  H  H8  1  0.82762200  0.31800900  0.29648600  1
  H  H9  1  0.82762200  0.68199100  0.29648600  1
  H  H10  1  0.17237800  0.18199100  0.79648600  1
  H  H11  1  0.17237800  0.81800900  0.79648600  1
  H  H12  1  0.79426300  0.19603200  0.18126200  1
  H  H13  1  0.79426300  0.80396800  0.18126200  1
  H  H14  1  0.20573700  0.30396800  0.68126200  1
  H  H15  1  0.20573700  0.69603200  0.68126200  1
  H  H16  1  0.59679100  0.32198500  0.50737300  1
  H  H17  1  0.59679100  0.67801500  0.50737300  1
  H  H18  1  0.40320900  0.17801500  0.00737300  1
  H  H19  1  0.40320900  0.82198500  0.00737300  1
  H  H20  1  0.35341800  0.24737500  0.50057700  1
  H  H21  1  0.35341800  0.75262500  0.50057700  1
  H  H22  1  0.64658200  0.25262500  0.00057700  1
  H  H23  1  0.64658200  0.74737500  0.00057700  1
  O  O0  1  0.99153800  0.50000000  0.33897900  1
  O  O1  1  0.00846200  0.00000000  0.83897900  1
  O  O2  1  0.73537900  0.50000000  0.54769300  1
  O  O3  1  0.26462100  0.00000000  0.04769300  1
  O  O4  1  0.11983800  0.30390400  0.54439400  1
  O  O5  1  0.11983800  0.69609600  0.54439400  1
  O  O6  1  0.88016200  0.19609600  0.04439400  1
  O  O7  1  0.88016200  0.80390400  0.04439400  1
  O  O8  1  0.73100400  0.21941000  0.26286100  1
  O  O9  1  0.73100400  0.78059000  0.26286100  1
  O  O10  1  0.26899600  0.28059000  0.76286100  1
  O  O11  1  0.26899600  0.71941000  0.76286100  1
  O  O12  1  0.50776000  0.20873800  0.48805400  1
  O  O13  1  0.50776000  0.79126200  0.48805400  1
  O  O14  1  0.49224000  0.29126200  0.98805400  1
  O  O15  1  0.49224000  0.70873800  0.98805400  1
  O  O16  1  0.32321000  0.00000000  0.28987900  1
  O  O17  1  0.67679000  0.50000000  0.78987900  1
  O  O18  1  0.89613700  0.00000000  0.49054800  1
  O  O19  1  0.10386300  0.50000000  0.99054800  1
loop_
_geom_bond_atom_site_label_1
_geom_bond_atom_site_label_2
_geom_bond_distance
_geom_bond_site_symmetry_2
K0 O0 2.874346 1_455
K0 O15 2.955432 1_554
K0 O14 2.955432 1_554
K0 O19 2.991237 1_554
K0 O8 3.031522 1_555
K0 O9 3.031522 1_555
K1 O1 2.874346 1_655
K1 O12 2.955432 1_555
K1 O13 2.955432 1_545
K1 O18 2.991237 1_555
K1 O11 3.031522 1_545
K1 O10 3.031522 1_555
Mg0 O12 2.088543 1_555
Mg0 O13 2.088543 1_545
Mg0 O18 2.090748 1_555
Mg0 O9 2.147647 1_545
Mg0 O8 2.147647 1_555
Mg0 O16 2.152947 1_555
Mg1 O15 2.088543 1_555
Mg1 O14 2.088543 1_555
Mg1 O19 2.090748 1_555
Mg1 O10 2.147647 1_555
Mg1 O11 2.147647 1_555
Mg1 O17 2.152947 1_555
As0 O0 1.721008 1_555
As0 O2 1.726357 1_555
As0 O5 1.726446 1_655
As0 O4 1.726446 1_655
As1 O1 1.721008 1_555
As1 O3 1.726357 1_556
As1 O6 1.726446 1_456
As1 O7 1.726446 1_446
H0 O18 1.005792 1_555
H0 O4 1.673553 1_655
H1 O18 1.005792 1_565
H1 O5 1.673553 1_655
H2 O19 1.005792 1_554
H2 O6 1.673553 1_455
H3 O19 1.005792 1_554
H3 O7 1.673553 1_455
H4 O16 0.974492 1_565
H4 K0 2.955126 1_555
H5 O16 0.974492 1_555
H5 K0 2.955126 1_555
H6 O17 0.974492 1_555
H6 K1 2.955126 1_565
H7 O17 0.974492 1_555
H7 K1 2.955126 1_555
H8 O8 1.007027 1_555
H8 O0 1.733109 1_555
H9 O9 1.007027 1_555
H9 O0 1.733109 1_555
H10 O10 1.007027 1_555
H10 O1 1.733109 1_555
H11 O11 1.007027 1_555
H11 O1 1.733109 1_565
H12 O8 1.013424 1_555
H12 O6 1.630351 1_555
H13 O9 1.013424 1_555
H13 O7 1.630351 1_555
H14 O10 1.013424 1_555
H14 O4 1.630351 1_555
H15 O11 1.013424 1_555
H15 O5 1.630351 1_555
H16 O12 1.012563 1_555
H16 O2 1.614820 1_555
H17 O13 1.012563 1_555
H17 O2 1.614820 1_555
H18 O14 1.012563 1_554
H18 O3 1.614820 1_555
H19 O15 1.012563 1_554
H19 O3 1.614820 1_565
H20 O12 1.012924 1_555
H20 O4 1.592412 1_555
H21 O13 1.012924 1_555
H21 O5 1.592412 1_555
H22 O14 1.012924 1_554
H22 O6 1.592412 1_555
H23 O15 1.012924 1_554
H23 O7 1.592412 1_555
