# generated using pymatgen
data_Mg14CuCO16
_symmetry_space_group_name_H-M   'P 1'
_cell_length_a   8.52082714
_cell_length_b   8.52082714
_cell_length_c   4.21732062
_cell_angle_alpha   90.00000000
_cell_angle_beta   90.00000000
_cell_angle_gamma   90.00000000
_symmetry_Int_Tables_number   1
_chemical_formula_structural   Mg14CuCO16
_chemical_formula_sum   'Mg14 Cu1 C1 O16'
_cell_volume   306.19643450
_cell_formula_units_Z   1
loop_
 _symmetry_equiv_pos_site_id
 _symmetry_equiv_pos_as_xyz
  1  'x, y, z'
loop_
 _atom_site_type_symbol
 _atom_site_label
 _atom_site_symmetry_multiplicity
 _atom_site_fract_x
 _atom_site_fract_y
 _atom_site_fract_z
 _atom_site_occupancy
  Mg  Mg0  1  0.00000000  0.50000000  -0.00000000  1
  Mg  Mg1  1  0.50000000  -0.00000000  -0.00000000  1
  Mg  Mg2  1  0.00000000  0.24969200  0.50000000  1
  Mg  Mg3  1  0.00000000  0.75030800  0.50000000  1
  Mg  Mg4  1  0.50000000  0.25307341  0.50000000  1
  Mg  Mg5  1  0.50000000  0.74692659  0.50000000  1
  Mg  Mg6  1  0.24969200  -0.00000000  0.50000000  1
  Mg  Mg7  1  0.25307341  0.50000000  0.50000000  1
  Mg  Mg8  1  0.75030800  -0.00000000  0.50000000  1
  Mg  Mg9  1  0.74692659  0.50000000  0.50000000  1
  Mg  Mg10  1  0.25119904  0.25119904  0.00000000  1
  Mg  Mg11  1  0.25119904  0.74880096  -0.00000000  1
  Mg  Mg12  1  0.74880096  0.25119904  0.00000000  1
  Mg  Mg13  1  0.74880096  0.74880096  -0.00000000  1
  Cu  Cu0  1  0.00000000  -0.00000000  -0.00000000  1
  C  C0  1  0.50000000  0.50000000  -0.00000000  1
  O  O0  1  0.25413738  -0.00000000  -0.00000000  1
  O  O1  1  0.24881043  0.50000000  -0.00000000  1
  O  O2  1  0.74586262  -0.00000000  0.00000000  1
  O  O3  1  0.75118957  0.50000000  0.00000000  1
  O  O4  1  0.25018245  0.25018245  0.50000000  1
  O  O5  1  0.25018245  0.74981755  0.50000000  1
  O  O6  1  0.74981755  0.25018245  0.50000000  1
  O  O7  1  0.74981755  0.74981755  0.50000000  1
  O  O8  1  0.00000000  -0.00000000  0.50000000  1
  O  O9  1  0.00000000  0.50000000  0.50000000  1
  O  O10  1  0.50000000  -0.00000000  0.50000000  1
  O  O11  1  0.50000000  0.50000000  0.50000000  1
  O  O12  1  0.00000000  0.25413738  0.00000000  1
  O  O13  1  0.00000000  0.74586262  -0.00000000  1
  O  O14  1  0.50000000  0.24881043  0.00000000  1
  O  O15  1  0.50000000  0.75118957  -0.00000000  1
loop_
_geom_bond_atom_site_label_1
_geom_bond_atom_site_label_2
_geom_bond_distance
_geom_bond_site_symmetry_2
Mg0 O12 2.094953 1_555
Mg0 O13 2.094953 1_555
Mg0 O9 2.108660 1_554
Mg0 O9 2.108660 1_555
Mg0 O1 2.120071 1_555
Mg0 O3 2.120071 1_455
Mg1 O0 2.094953 1_555
Mg1 O2 2.094953 1_555
Mg1 O10 2.108660 1_555
Mg1 O10 2.108660 1_554
Mg1 O14 2.120071 1_555
Mg1 O15 2.120071 1_545
Mg2 O12 2.109000 1_556
Mg2 O12 2.109000 1_555
Mg2 O8 2.127582 1_555
Mg2 O6 2.131766 1_455
Mg2 O4 2.131766 1_555
Mg2 O9 2.132831 1_555
Mg3 O13 2.109000 1_555
Mg3 O13 2.109000 1_556
Mg3 O8 2.127582 1_565
Mg3 O7 2.131766 1_455
Mg3 O5 2.131766 1_555
Mg3 O9 2.132831 1_555
Mg4 O11 2.104019 1_555
Mg4 O14 2.108973 1_556
Mg4 O14 2.108973 1_555
Mg4 O4 2.128795 1_555
Mg4 O6 2.128795 1_555
Mg4 O10 2.156395 1_555
Mg5 O11 2.104019 1_555
Mg5 O15 2.108973 1_556
Mg5 O15 2.108973 1_555
Mg5 O5 2.128795 1_555
Mg5 O7 2.128795 1_555
Mg5 O10 2.156395 1_565
Mg6 O0 2.109000 1_555
Mg6 O0 2.109000 1_556
Mg6 O8 2.127582 1_555
Mg6 O5 2.131766 1_545
Mg6 O4 2.131766 1_555
Mg6 O10 2.132831 1_555
Mg7 O11 2.104019 1_555
Mg7 O1 2.108973 1_556
Mg7 O1 2.108973 1_555
Mg7 O4 2.128795 1_555
Mg7 O5 2.128795 1_555
Mg7 O9 2.156395 1_555
Mg8 O2 2.109000 1_555
Mg8 O2 2.109000 1_556
Mg8 O8 2.127582 1_655
Mg8 O7 2.131766 1_545
Mg8 O6 2.131766 1_555
Mg8 O10 2.132831 1_555
Mg9 O11 2.104019 1_555
Mg9 O3 2.108973 1_556
Mg9 O3 2.108973 1_555
Mg9 O6 2.128795 1_555
Mg9 O7 2.128795 1_555
Mg9 O9 2.156395 1_655
Mg10 O4 2.108696 1_554
Mg10 O4 2.108696 1_555
Mg10 O1 2.120088 1_555
Mg10 O14 2.120088 1_555
Mg10 O0 2.140570 1_555
Mg10 O12 2.140570 1_555
Mg11 O5 2.108696 1_554
Mg11 O5 2.108696 1_555
Mg11 O15 2.120088 1_555
Mg11 O1 2.120088 1_555
Mg11 O0 2.140570 1_565
Mg11 O13 2.140570 1_555
Mg12 O6 2.108696 1_555
Mg12 O6 2.108696 1_554
Mg12 O3 2.120088 1_555
Mg12 O14 2.120088 1_555
Mg12 O12 2.140570 1_655
Mg12 O2 2.140570 1_555
Mg13 O7 2.108696 1_555
Mg13 O7 2.108696 1_554
Mg13 O15 2.120088 1_555
Mg13 O3 2.120088 1_555
Mg13 O2 2.140570 1_565
Mg13 O13 2.140570 1_655
Cu0 O8 2.108660 1_555
Cu0 O8 2.108660 1_554
Cu0 O2 2.165461 1_455
Cu0 O13 2.165461 1_545
Cu0 O0 2.165461 1_555
Cu0 O12 2.165461 1_555
C0 O11 2.108660 1_555
C0 O11 2.108660 1_554
C0 O14 2.140343 1_555
C0 O15 2.140343 1_555
C0 O3 2.140343 1_555
C0 O1 2.140343 1_555
