# generated using pymatgen
data_Ti3MnCr2(PO4)6
_symmetry_space_group_name_H-M   'P 1'
_cell_length_a   8.67600839
_cell_length_b   8.67600839
_cell_length_c   8.67600876
_cell_angle_alpha   60.09288234
_cell_angle_beta   60.09288234
_cell_angle_gamma   60.09288294
_symmetry_Int_Tables_number   1
_chemical_formula_structural   Ti3MnCr2(PO4)6
_chemical_formula_sum   'Ti3 Mn1 Cr2 P6 O24'
_cell_volume   462.76231443
_cell_formula_units_Z   1
loop_
 _symmetry_equiv_pos_site_id
 _symmetry_equiv_pos_as_xyz
  1  'x, y, z'
loop_
 _atom_site_type_symbol
 _atom_site_label
 _atom_site_symmetry_multiplicity
 _atom_site_fract_x
 _atom_site_fract_y
 _atom_site_fract_z
 _atom_site_occupancy
  Ti  Ti0  1  0.85426600  0.85426600  0.85426600  1
  Ti  Ti1  1  0.64571600  0.64571600  0.64571600  1
  Ti  Ti2  1  0.35336700  0.35336700  0.35336700  1
  Mn  Mn0  1  0.14621900  0.14621900  0.14621900  1
  Cr  Cr0  1  0.00135100  0.00135100  0.00135100  1
  Cr  Cr1  1  0.50111100  0.50111100  0.50111100  1
  P  P0  1  0.54851000  0.95390000  0.24826800  1
  P  P1  1  0.24826800  0.54851000  0.95390000  1
  P  P2  1  0.04278800  0.74626100  0.45712200  1
  P  P3  1  0.74626100  0.45712200  0.04278800  1
  P  P4  1  0.45712200  0.04278800  0.74626100  1
  P  P5  1  0.95390000  0.24826800  0.54851000  1
  O  O0  1  0.51384100  0.88345800  0.67658500  1
  O  O1  1  0.88345800  0.67658500  0.51384100  1
  O  O2  1  0.74550100  0.94069900  0.08611000  1
  O  O3  1  0.67658500  0.51384100  0.88345800  1
  O  O4  1  0.40003400  0.98005500  0.18911300  1
  O  O5  1  0.57332100  0.76243300  0.41464900  1
  O  O6  1  0.08611000  0.74550100  0.94069900  1
  O  O7  1  0.41464900  0.57332100  0.76243300  1
  O  O8  1  0.99789400  0.80887900  0.62003700  1
  O  O9  1  0.76243300  0.41464900  0.57332100  1
  O  O10  1  0.04993200  0.90291800  0.26561700  1
  O  O11  1  0.80887900  0.62003700  0.99789400  1
  O  O12  1  0.18911300  0.40003400  0.98005500  1
  O  O13  1  0.94069900  0.08611000  0.74550100  1
  O  O14  1  0.23493600  0.58198600  0.44606900  1
  O  O15  1  0.98005500  0.18911300  0.40003400  1
  O  O16  1  0.58198600  0.44606900  0.23493600  1
  O  O17  1  0.90291800  0.26561700  0.04993200  1
  O  O18  1  0.44606900  0.23493600  0.58198600  1
  O  O19  1  0.62003700  0.99789400  0.80887900  1
  O  O20  1  0.30577700  0.49932500  0.12195400  1
  O  O21  1  0.26561700  0.04993200  0.90291800  1
  O  O22  1  0.12195400  0.30577700  0.49932500  1
  O  O23  1  0.49932500  0.12195400  0.30577700  1
loop_
_geom_bond_atom_site_label_1
_geom_bond_atom_site_label_2
_geom_bond_distance
_geom_bond_site_symmetry_2
Mn0 O12 2.045131 1_554
Mn0 O4 2.045131 1_545
Mn0 O15 2.045131 1_455
Mn0 O10 2.223008 1_545
Mn0 O17 2.223008 1_455
Mn0 O21 2.223008 1_554
Cr0 O21 2.194532 1_554
Cr0 O17 2.194532 1_455
Cr0 O10 2.194532 1_545
Cr0 O2 2.212725 1_445
Cr0 O6 2.212725 1_544
Cr0 O13 2.212725 1_454
Cr1 O18 2.281043 1_555
Cr1 O14 2.281043 1_555
Cr1 O16 2.281043 1_555
Cr1 O5 2.312435 1_555
Cr1 O9 2.312435 1_555
Cr1 O7 2.312435 1_555
O0 P4 1.541686 1_565
O0 Ti1 1.878107 1_555
O1 P2 1.541686 1_655
O1 Ti1 1.878107 1_555
O2 P0 1.575179 1_555
O2 Ti0 2.098709 1_554
O3 P3 1.541686 1_556
O3 Ti1 1.878107 1_555
O4 P0 1.491961 1_555
O5 P0 1.565778 1_555
O5 Ti1 2.008965 1_555
O6 P1 1.575179 1_555
O6 Ti0 2.098709 1_455
O7 P1 1.565778 1_555
O7 Ti1 2.008965 1_555
O8 P2 1.565386 1_655
O8 Ti0 1.902905 1_555
O9 P5 1.565778 1_555
O9 Ti1 2.008965 1_555
O10 P2 1.530081 1_555
O11 P3 1.565386 1_556
O11 Ti0 1.902904 1_555
O12 P1 1.491961 1_555
O13 P5 1.575179 1_555
O13 Ti0 2.098709 1_545
O14 P2 1.557957 1_555
O14 Ti2 2.090768 1_555
O15 P5 1.491961 1_555
O16 P3 1.557957 1_555
O16 Ti2 2.090768 1_555
O17 P3 1.530081 1_555
O18 P4 1.557957 1_555
O18 Ti2 2.090768 1_555
O19 P4 1.565386 1_565
O19 Ti0 1.902905 1_555
O20 P1 1.565122 1_554
O20 Ti2 1.890777 1_555
O21 P4 1.530081 1_555
O22 P5 1.565122 1_455
O22 Ti2 1.890777 1_555
O23 P0 1.565122 1_545
O23 Ti2 1.890777 1_555
