# generated using pymatgen
data_NaU3O8
_symmetry_space_group_name_H-M   'P 1'
_cell_length_a   6.88667545
_cell_length_b   6.88665499
_cell_length_c   4.20339963
_cell_angle_alpha   90.00000000
_cell_angle_beta   90.00000000
_cell_angle_gamma   120.00048916
_symmetry_Int_Tables_number   1
_chemical_formula_structural   NaU3O8
_chemical_formula_sum   'Na1 U3 O8'
_cell_volume   172.64226091
_cell_formula_units_Z   1
loop_
 _symmetry_equiv_pos_site_id
 _symmetry_equiv_pos_as_xyz
  1  'x, y, z'
loop_
 _atom_site_type_symbol
 _atom_site_label
 _atom_site_symmetry_multiplicity
 _atom_site_fract_x
 _atom_site_fract_y
 _atom_site_fract_z
 _atom_site_occupancy
  Na  Na0  1  -0.00002677  0.99997267  0.50000000  1
  U  U0  1  0.00000370  0.35973262  -0.00000000  1
  U  U1  1  0.64026705  0.64026917  -0.00000000  1
  U  U2  1  0.35973088  0.00000561  -0.00000000  1
  O  O0  1  0.65539444  0.65539512  0.50000000  1
  O  O1  1  0.34461456  0.00000284  0.50000000  1
  O  O2  1  0.00000003  0.76080175  -0.00000000  1
  O  O3  1  0.23921066  0.23920492  -0.00000000  1
  O  O4  1  0.76079733  -0.00000652  -0.00000000  1
  O  O5  1  0.00000225  0.34461527  0.50000000  1
  O  O6  1  0.66667113  0.33333767  0.00000000  1
  O  O7  1  0.33333376  0.66666888  -0.00000000  1
loop_
_geom_bond_atom_site_label_1
_geom_bond_atom_site_label_2
_geom_bond_distance
_geom_bond_site_symmetry_2
Na0 O0 2.372977 1_455
Na0 O1 2.373329 1_565
Na0 O5 2.373335 1_565
Na0 O2 2.670270 1_556
Na0 O2 2.670270 1_555
Na0 O4 2.670282 1_466
Na0 O4 2.670282 1_465
Na0 O3 2.670479 1_565
Na0 O3 2.670479 1_566
O0 U1 2.104280 1_555
O0 U1 2.104280 1_556
O1 U2 2.104276 1_555
O1 U2 2.104276 1_556
O2 U2 2.184004 1_565
O2 U1 2.184019 1_455
O2 U0 2.762037 1_555
O3 U2 2.183953 1_555
O3 U0 2.184045 1_555
O3 U1 2.761948 1_555
O4 U1 2.183958 1_545
O4 U0 2.184045 1_655
O4 U2 2.762056 1_555
O5 U0 2.104276 1_556
O5 U0 2.104276 1_555
O6 U2 2.210265 1_555
O6 U1 2.210268 1_555
O6 U0 2.210278 1_655
O7 U0 2.210247 1_555
O7 U1 2.210269 1_555
O7 U2 2.210293 1_565
