# generated using pymatgen
data_Yb3Sb4Au3
_symmetry_space_group_name_H-M   'P 1'
_cell_length_a   8.71379519
_cell_length_b   8.71379519
_cell_length_c   8.71379519
_cell_angle_alpha   109.47122063
_cell_angle_beta   109.47122063
_cell_angle_gamma   109.47122063
_symmetry_Int_Tables_number   1
_chemical_formula_structural   Yb3Sb4Au3
_chemical_formula_sum   'Yb6 Sb8 Au6'
_cell_volume   509.33105126
_cell_formula_units_Z   2
loop_
 _symmetry_equiv_pos_site_id
 _symmetry_equiv_pos_as_xyz
  1  'x, y, z'
loop_
 _atom_site_type_symbol
 _atom_site_label
 _atom_site_symmetry_multiplicity
 _atom_site_fract_x
 _atom_site_fract_y
 _atom_site_fract_z
 _atom_site_occupancy
  Yb  Yb0  1  0.12500000  0.87500000  0.25000000  1
  Yb  Yb1  1  0.37500000  0.62500000  0.75000000  1
  Yb  Yb2  1  0.87500000  0.25000000  0.12500000  1
  Yb  Yb3  1  0.62500000  0.75000000  0.37500000  1
  Yb  Yb4  1  0.25000000  0.12500000  0.87500000  1
  Yb  Yb5  1  0.75000000  0.37500000  0.62500000  1
  Sb  Sb0  1  0.32465000  0.32465000  0.32465000  1
  Sb  Sb1  1  0.17535000  0.50000000  0.00000000  1
  Sb  Sb2  1  0.00000000  0.17535000  0.50000000  1
  Sb  Sb3  1  0.82465000  0.82465000  0.82465000  1
  Sb  Sb4  1  0.50000000  0.00000000  0.17535000  1
  Sb  Sb5  1  0.67535000  0.50000000  0.00000000  1
  Sb  Sb6  1  0.50000000  0.00000000  0.67535000  1
  Sb  Sb7  1  0.00000000  0.67535000  0.50000000  1
  Au  Au0  1  0.62500000  0.37500000  0.25000000  1
  Au  Au1  1  0.87500000  0.12500000  0.75000000  1
  Au  Au2  1  0.37500000  0.25000000  0.62500000  1
  Au  Au3  1  0.12500000  0.75000000  0.87500000  1
  Au  Au4  1  0.25000000  0.62500000  0.37500000  1
  Au  Au5  1  0.75000000  0.87500000  0.12500000  1
loop_
_geom_bond_atom_site_label_1
_geom_bond_atom_site_label_2
_geom_bond_distance
_geom_bond_site_symmetry_2
Sb0 Yb4 3.435667 1_554
Sb0 Yb0 3.435667 1_545
Sb0 Yb2 3.435667 1_455
Sb0 Yb1 3.530316 1_555
Sb0 Yb5 3.530316 1_555
Sb0 Yb3 3.530316 1_555
Sb1 Yb3 3.435667 1_555
Sb1 Yb4 3.435667 1_554
Sb1 Yb1 3.435667 1_554
Sb1 Yb0 3.530316 1_555
Sb1 Yb5 3.530316 1_454
Sb1 Yb2 3.530316 1_455
Sb2 Yb2 3.435667 1_455
Sb2 Yb1 3.435667 1_555
Sb2 Yb5 3.435667 1_455
Sb2 Yb0 3.530316 1_545
Sb2 Yb4 3.530316 1_555
Sb2 Yb3 3.530316 1_445
Sb3 Yb3 3.435667 1_555
Sb3 Yb1 3.435667 1_555
Sb3 Yb5 3.435667 1_555
Sb3 Yb0 3.530316 1_656
Sb3 Yb2 3.530316 1_566
Sb3 Yb4 3.530316 1_665
Sb4 Yb5 3.435667 1_555
Sb4 Yb0 3.435667 1_545
Sb4 Yb3 3.435667 1_545
Sb4 Yb2 3.530316 1_555
Sb4 Yb1 3.530316 1_544
Sb4 Yb4 3.530316 1_554
Sb5 Yb5 3.435667 1_554
Sb5 Yb2 3.435667 1_555
Sb5 Yb0 3.435667 1_655
Sb5 Yb3 3.530316 1_555
Sb5 Yb1 3.530316 1_554
Sb5 Yb4 3.530316 1_554
Sb6 Yb1 3.435667 1_545
Sb6 Yb4 3.435667 1_555
Sb6 Yb2 3.435667 1_556
Sb6 Yb5 3.530316 1_555
Sb6 Yb0 3.530316 1_545
Sb6 Yb3 3.530316 1_545
Sb7 Yb3 3.435667 1_455
Sb7 Yb4 3.435667 1_565
Sb7 Yb0 3.435667 1_555
Sb7 Yb2 3.530316 1_455
Sb7 Yb1 3.530316 1_555
Sb7 Yb5 3.530316 1_455
Au0 Sb5 2.832845 1_555
Au0 Sb7 2.832845 1_655
Au0 Sb4 2.832845 1_555
Au0 Sb0 2.832845 1_555
Au0 Yb5 3.080792 1_555
Au0 Yb2 3.080792 1_555
Au0 Yb3 3.080792 1_555
Au0 Yb4 3.080792 1_554
Au1 Sb3 2.832845 1_545
Au1 Sb2 2.832845 1_655
Au1 Sb1 2.832845 1_656
Au1 Sb6 2.832845 1_555
Au1 Yb5 3.080792 1_555
Au1 Yb2 3.080792 1_556
Au1 Yb4 3.080792 1_655
Au1 Yb3 3.080792 1_545
Au2 Sb2 2.832845 1_555
Au2 Sb6 2.832845 1_555
Au2 Sb5 2.832845 1_556
Au2 Sb0 2.832845 1_555
Au2 Yb5 3.080792 1_555
Au2 Yb4 3.080792 1_555
Au2 Yb1 3.080792 1_555
Au2 Yb0 3.080792 1_545
Au3 Sb4 2.832845 1_566
Au3 Sb7 2.832845 1_555
Au3 Sb1 2.832845 1_556
Au3 Sb3 2.832845 1_455
Au3 Yb4 3.080792 1_565
Au3 Yb0 3.080792 1_556
Au3 Yb5 3.080792 1_455
Au3 Yb1 3.080792 1_555
Au4 Sb0 2.832845 1_555
Au4 Sb6 2.832845 1_565
Au4 Sb7 2.832845 1_555
Au4 Sb1 2.832845 1_555
Au4 Yb3 3.080792 1_555
Au4 Yb0 3.080792 1_555
Au4 Yb2 3.080792 1_455
Au4 Yb1 3.080792 1_555
Au5 Sb2 2.832845 1_665
Au5 Sb4 2.832845 1_565
Au5 Sb5 2.832845 1_555
Au5 Sb3 2.832845 1_554
Au5 Yb3 3.080792 1_555
Au5 Yb2 3.080792 1_565
Au5 Yb1 3.080792 1_554
Au5 Yb0 3.080792 1_655
