# generated using pymatgen
data_SmMgCrS4
_symmetry_space_group_name_H-M   'P 1'
_cell_length_a   7.75261871
_cell_length_b   7.63767766
_cell_length_c   7.63756261
_cell_angle_alpha   59.30960496
_cell_angle_beta   59.49929695
_cell_angle_gamma   59.50135012
_symmetry_Int_Tables_number   1
_chemical_formula_structural   SmMgCrS4
_chemical_formula_sum   'Sm2 Mg2 Cr2 S8'
_cell_volume   315.67846347
_cell_formula_units_Z   2
loop_
 _symmetry_equiv_pos_site_id
 _symmetry_equiv_pos_as_xyz
  1  'x, y, z'
loop_
 _atom_site_type_symbol
 _atom_site_label
 _atom_site_symmetry_multiplicity
 _atom_site_fract_x
 _atom_site_fract_y
 _atom_site_fract_z
 _atom_site_occupancy
  Sm  Sm0  1  0.49995700  0.50006200  0.49996400  1
  Sm  Sm1  1  0.99999400  0.50001300  0.49998800  1
  Mg  Mg0  1  0.87382100  0.87616700  0.87619100  1
  Mg  Mg1  1  0.12616100  0.12382400  0.12385500  1
  Cr  Cr0  1  0.50014900  0.49993100  0.99988100  1
  Cr  Cr1  1  0.49997700  0.99997800  0.50010400  1
  S  S0  1  0.70604300  0.75744700  0.75745100  1
  S  S1  1  0.27230900  0.22368200  0.73167500  1
  S  S2  1  0.27235000  0.73164000  0.22361200  1
  S  S3  1  0.72089200  0.24256700  0.24256200  1
  S  S4  1  0.72764900  0.26832500  0.77631400  1
  S  S5  1  0.27907800  0.75742600  0.75745800  1
  S  S6  1  0.29399000  0.24256400  0.24258000  1
  S  S7  1  0.72763400  0.77636900  0.26836600  1
loop_
_geom_bond_atom_site_label_1
_geom_bond_atom_site_label_2
_geom_bond_distance
_geom_bond_site_symmetry_2
Mg0 S4 2.436623 1_565
Mg0 S7 2.436686 1_556
Mg0 S0 2.563294 1_555
Mg0 S5 2.563396 1_655
Mg1 S1 2.436682 1_554
Mg1 S2 2.436860 1_545
Mg1 S3 2.563493 1_455
Mg1 S6 2.563667 1_555
Cr0 S4 2.452518 1_555
Cr0 S2 2.453954 1_556
Cr0 S0 2.512712 1_555
Cr0 S3 2.512801 1_556
Cr0 S5 2.513188 1_555
Cr0 S6 2.513267 1_556
Cr1 S1 2.453057 1_565
Cr1 S7 2.453458 1_555
Cr1 S0 2.512715 1_555
Cr1 S5 2.512856 1_555
Cr1 S3 2.513217 1_565
Cr1 S6 2.513303 1_565
S0 Sm1 2.788498 1_555
S1 Sm1 2.738560 1_455
S1 Sm0 2.738646 1_555
S2 Sm0 2.738383 1_555
S2 Sm1 2.738430 1_455
S3 Sm0 2.788510 1_555
S4 Sm1 2.738651 1_555
S4 Sm0 2.738747 1_555
S5 Sm0 2.788330 1_555
S6 Sm1 2.788335 1_455
S7 Sm0 2.738441 1_555
S7 Sm1 2.738496 1_555
