# generated using pymatgen
data_Sc6Te2Pd
_symmetry_space_group_name_H-M   'P 1'
_cell_length_a   3.82775800
_cell_length_b   10.75862600
_cell_length_c   20.40349700
_cell_angle_alpha   90.00000000
_cell_angle_beta   90.00000000
_cell_angle_gamma   90.00000000
_symmetry_Int_Tables_number   1
_chemical_formula_structural   Sc6Te2Pd
_chemical_formula_sum   'Sc24 Te8 Pd4'
_cell_volume   840.24491292
_cell_formula_units_Z   4
loop_
 _symmetry_equiv_pos_site_id
 _symmetry_equiv_pos_as_xyz
  1  'x, y, z'
loop_
 _atom_site_type_symbol
 _atom_site_label
 _atom_site_symmetry_multiplicity
 _atom_site_fract_x
 _atom_site_fract_y
 _atom_site_fract_z
 _atom_site_occupancy
  Sc  Sc0  1  0.25000000  0.80972300  0.60884700  1
  Sc  Sc1  1  0.25000000  0.69027700  0.10884700  1
  Sc  Sc2  1  0.75000000  0.19027700  0.39115300  1
  Sc  Sc3  1  0.75000000  0.30972300  0.89115300  1
  Sc  Sc4  1  0.25000000  0.97058300  0.15835200  1
  Sc  Sc5  1  0.25000000  0.52941700  0.65835200  1
  Sc  Sc6  1  0.75000000  0.02941700  0.84164800  1
  Sc  Sc7  1  0.75000000  0.47058300  0.34164800  1
  Sc  Sc8  1  0.25000000  0.23661000  0.76836100  1
  Sc  Sc9  1  0.25000000  0.26339000  0.26836100  1
  Sc  Sc10  1  0.75000000  0.76339000  0.23163900  1
  Sc  Sc11  1  0.75000000  0.73661000  0.73163900  1
  Sc  Sc12  1  0.25000000  0.61940100  0.47396100  1
  Sc  Sc13  1  0.25000000  0.88059900  0.97396100  1
  Sc  Sc14  1  0.75000000  0.38059900  0.52603900  1
  Sc  Sc15  1  0.75000000  0.11940100  0.02603900  1
  Sc  Sc16  1  0.25000000  0.94199500  0.36270400  1
  Sc  Sc17  1  0.25000000  0.55800500  0.86270400  1
  Sc  Sc18  1  0.75000000  0.05800500  0.63729600  1
  Sc  Sc19  1  0.75000000  0.44199500  0.13729600  1
  Sc  Sc20  1  0.25000000  0.11170900  0.50511000  1
  Sc  Sc21  1  0.25000000  0.38829100  0.00511000  1
  Sc  Sc22  1  0.75000000  0.88829100  0.49489000  1
  Sc  Sc23  1  0.75000000  0.61170900  0.99489000  1
  Te  Te0  1  0.25000000  0.95408400  0.73539900  1
  Te  Te1  1  0.25000000  0.54591600  0.23539900  1
  Te  Te2  1  0.75000000  0.04591600  0.26460100  1
  Te  Te3  1  0.75000000  0.45408400  0.76460100  1
  Te  Te4  1  0.25000000  0.26499900  0.62528100  1
  Te  Te5  1  0.25000000  0.23500100  0.12528100  1
  Te  Te6  1  0.75000000  0.73500100  0.37471900  1
  Te  Te7  1  0.75000000  0.76499900  0.87471900  1
  Pd  Pd0  1  0.25000000  0.13451200  0.92364200  1
  Pd  Pd1  1  0.25000000  0.36548800  0.42364200  1
  Pd  Pd2  1  0.75000000  0.86548800  0.07635800  1
  Pd  Pd3  1  0.75000000  0.63451200  0.57635800  1
loop_
_geom_bond_atom_site_label_1
_geom_bond_atom_site_label_2
_geom_bond_distance
_geom_bond_site_symmetry_2
Sc0 Te0 3.013214 1_555
Sc1 Te1 3.013214 1_555
Sc2 Te2 3.013214 1_555
Sc3 Te3 3.013214 1_555
Sc4 Te5 2.923704 1_565
Sc4 Te2 3.003230 1_565
Sc4 Te2 3.003230 1_465
Sc5 Te4 2.923704 1_555
Sc5 Te3 3.003230 1_555
Sc5 Te3 3.003230 1_455
Sc6 Te7 2.923704 1_545
Sc6 Te0 3.003230 1_645
Sc6 Te0 3.003230 1_545
Sc7 Te6 2.923704 1_555
Sc7 Te1 3.003230 1_555
Sc7 Te1 3.003230 1_655
Sc8 Te4 2.935266 1_555
Sc8 Te3 3.023758 1_555
Sc8 Te3 3.023758 1_455
Sc8 Te0 3.113106 1_545
Sc9 Te5 2.935266 1_555
Sc9 Te2 3.023758 1_455
Sc9 Te2 3.023758 1_555
Sc9 Te1 3.113106 1_555
Sc10 Te6 2.935266 1_555
Sc10 Te1 3.023758 1_655
Sc10 Te1 3.023758 1_555
Sc10 Te2 3.113106 1_565
Sc11 Te7 2.935266 1_555
Sc11 Te0 3.023758 1_655
Sc11 Te0 3.023758 1_555
Sc11 Te3 3.113106 1_555
Sc12 Te6 3.051208 1_455
Sc12 Te6 3.051208 1_555
Sc13 Te7 3.051208 1_455
Sc13 Te7 3.051208 1_555
Sc14 Te4 3.051208 1_655
Sc14 Te4 3.051208 1_555
Sc15 Te5 3.051208 1_555
Sc15 Te5 3.051208 1_655
Sc16 Te6 2.946596 1_555
Sc16 Te6 2.946596 1_455
Sc16 Te2 2.986560 1_465
Sc16 Te2 2.986560 1_565
Sc17 Te7 2.946596 1_455
Sc17 Te7 2.946596 1_555
Sc17 Te3 2.986560 1_555
Sc17 Te3 2.986560 1_455
Sc18 Te4 2.946596 1_555
Sc18 Te4 2.946596 1_655
Sc18 Te0 2.986560 1_545
Sc18 Te0 2.986560 1_645
Sc19 Te5 2.946596 1_655
Sc19 Te5 2.946596 1_555
Sc19 Te1 2.986560 1_655
Sc19 Te1 2.986560 1_555
Sc20 Te4 2.954942 1_555
Sc21 Te5 2.954942 1_555
Sc22 Te6 2.954942 1_555
Sc23 Te7 2.954942 1_555
Pd0 Sc3 2.766892 1_555
Pd0 Sc3 2.766892 1_455
Pd0 Sc6 2.782117 1_555
Pd0 Sc6 2.782117 1_455
Pd0 Sc15 2.838020 1_556
Pd0 Sc15 2.838020 1_456
Pd0 Sc13 2.918315 1_545
Pd0 Sc21 3.196502 1_556
Pd0 Sc8 3.353286 1_555
Pd1 Sc2 2.766892 1_455
Pd1 Sc2 2.766892 1_555
Pd1 Sc7 2.782117 1_555
Pd1 Sc7 2.782117 1_455
Pd1 Sc14 2.838020 1_555
Pd1 Sc14 2.838020 1_455
Pd1 Sc12 2.918315 1_555
Pd1 Sc20 3.196502 1_555
Pd1 Sc9 3.353286 1_555
Pd2 Sc1 2.766892 1_555
Pd2 Sc1 2.766892 1_655
Pd2 Sc4 2.782117 1_655
Pd2 Sc4 2.782117 1_555
Pd2 Sc13 2.838020 1_554
Pd2 Sc13 2.838020 1_654
Pd2 Sc15 2.918315 1_565
Pd2 Sc23 3.196502 1_554
Pd2 Sc10 3.353286 1_555
Pd3 Sc0 2.766892 1_655
Pd3 Sc0 2.766892 1_555
Pd3 Sc5 2.782117 1_555
Pd3 Sc5 2.782117 1_655
Pd3 Sc12 2.838020 1_555
Pd3 Sc12 2.838020 1_655
Pd3 Sc14 2.918315 1_555
Pd3 Sc22 3.196502 1_555
Pd3 Sc11 3.353286 1_555
