# generated using pymatgen
data_Lu2MnCoO6
_symmetry_space_group_name_H-M   'P 1'
_cell_length_a   5.53313999
_cell_length_b   5.19279095
_cell_length_c   7.55139947
_cell_angle_alpha   90.53340204
_cell_angle_beta   89.99814252
_cell_angle_gamma   90.00208840
_symmetry_Int_Tables_number   1
_chemical_formula_structural   Lu2MnCoO6
_chemical_formula_sum   'Lu4 Mn2 Co2 O12'
_cell_volume   216.96072442
_cell_formula_units_Z   2
loop_
 _symmetry_equiv_pos_site_id
 _symmetry_equiv_pos_as_xyz
  1  'x, y, z'
loop_
 _atom_site_type_symbol
 _atom_site_label
 _atom_site_symmetry_multiplicity
 _atom_site_fract_x
 _atom_site_fract_y
 _atom_site_fract_z
 _atom_site_occupancy
  Lu  Lu0  1  0.57510603  0.52551343  0.74780745  1
  Lu  Lu1  1  0.07507268  0.97435750  0.75220857  1
  Lu  Lu2  1  0.42489397  0.47448657  0.25219255  1
  Lu  Lu3  1  0.92492732  0.02564250  0.24779143  1
  Mn  Mn0  1  0.50000000  0.00000000  0.50000000  1
  Mn  Mn1  1  -0.00000000  0.50000000  0.00000000  1
  Co  Co0  1  0.50000000  0.00000000  0.00000000  1
  Co  Co1  1  -0.00000000  0.50000000  0.50000000  1
  O  O0  1  0.95073658  0.37368419  0.75917662  1
  O  O1  1  0.45070050  0.12629062  0.74082369  1
  O  O2  1  0.04926342  0.62631581  0.24082338  1
  O  O3  1  0.54929950  0.87370938  0.25917631  1
  O  O4  1  0.81200435  0.79989082  0.93999728  1
  O  O5  1  0.31204999  0.70009599  0.55994725  1
  O  O6  1  0.20661251  0.18109660  0.43176036  1
  O  O7  1  0.70665656  0.31892328  0.06826235  1
  O  O8  1  0.18799565  0.20010918  0.06000272  1
  O  O9  1  0.68795001  0.29990401  0.44005275  1
  O  O10  1  0.79338749  0.81890340  0.56823964  1
  O  O11  1  0.29334344  0.68107672  0.93173765  1
loop_
_geom_bond_atom_site_label_1
_geom_bond_atom_site_label_2
_geom_bond_distance
_geom_bond_site_symmetry_2
Lu0 O1 2.184522 1_555
Lu0 O0 2.224900 1_555
Lu0 O5 2.230930 1_555
Lu0 O11 2.234127 1_555
Lu0 O10 2.378394 1_555
Lu0 O4 2.411628 1_555
Lu0 O9 2.666929 1_555
Lu0 O7 2.754091 1_556
Lu1 O0 2.184958 1_465
Lu1 O1 2.225023 1_565
Lu1 O4 2.230278 1_455
Lu1 O10 2.233829 1_455
Lu1 O11 2.377930 1_555
Lu1 O5 2.411841 1_555
Lu1 O8 2.667623 1_566
Lu1 O6 2.754276 1_565
Lu2 O3 2.184522 1_555
Lu2 O2 2.224900 1_555
Lu2 O9 2.230930 1_555
Lu2 O7 2.234127 1_555
Lu2 O6 2.378394 1_555
Lu2 O8 2.411628 1_555
Lu2 O5 2.666929 1_555
Lu2 O11 2.754091 1_554
Lu3 O2 2.184958 1_645
Lu3 O3 2.225023 1_545
Lu3 O8 2.230278 1_655
Lu3 O6 2.233829 1_655
Lu3 O7 2.377930 1_555
Lu3 O9 2.411841 1_555
Lu3 O4 2.667623 1_544
Lu3 O10 2.754276 1_545
Mn0 O9 1.929951 1_555
Mn0 O5 1.929951 1_545
Mn0 O3 1.946640 1_545
Mn0 O1 1.946640 1_555
Mn0 O6 1.947910 1_555
Mn0 O10 1.947910 1_545
Mn1 O4 1.930210 1_454
Mn1 O8 1.930210 1_555
Mn1 O0 1.946662 1_454
Mn1 O2 1.946662 1_555
Mn1 O11 1.947618 1_554
Mn1 O7 1.947618 1_455
Co0 O8 2.063184 1_555
Co0 O4 2.063184 1_544
Co0 O7 2.073619 1_555
Co0 O11 2.073619 1_544
Co0 O1 2.087784 1_554
Co0 O3 2.087784 1_545
Co1 O9 2.063233 1_455
Co1 O5 2.063233 1_555
Co1 O10 2.073409 1_455
Co1 O6 2.073409 1_555
Co1 O0 2.087779 1_455
Co1 O2 2.087779 1_555
