# generated using pymatgen
data_ErPRu2C
_symmetry_space_group_name_H-M   'P 1'
_cell_length_a   5.85220785
_cell_length_b   5.85220785
_cell_length_c   7.03189200
_cell_angle_alpha   90.00000000
_cell_angle_beta   90.00000000
_cell_angle_gamma   142.54388816
_symmetry_Int_Tables_number   1
_chemical_formula_structural   ErPRu2C
_chemical_formula_sum   'Er2 P2 Ru4 C2'
_cell_volume   146.46198692
_cell_formula_units_Z   2
loop_
 _symmetry_equiv_pos_site_id
 _symmetry_equiv_pos_as_xyz
  1  'x, y, z'
loop_
 _atom_site_type_symbol
 _atom_site_label
 _atom_site_symmetry_multiplicity
 _atom_site_fract_x
 _atom_site_fract_y
 _atom_site_fract_z
 _atom_site_occupancy
  Er  Er0  1  0.54402400  0.45597600  0.25000000  1
  Er  Er1  1  0.45597600  0.54402400  0.75000000  1
  P  P0  1  0.26741300  0.73258700  0.25000000  1
  P  P1  1  0.73258700  0.26741300  0.75000000  1
  Ru  Ru0  1  0.83524600  0.16475400  0.05282900  1
  Ru  Ru1  1  0.16475400  0.83524600  0.94717100  1
  Ru  Ru2  1  0.16475400  0.83524600  0.55282900  1
  Ru  Ru3  1  0.83524600  0.16475400  0.44717100  1
  C  C0  1  0.00000000  0.00000000  0.00000000  1
  C  C1  1  0.00000000  0.00000000  0.50000000  1
loop_
_geom_bond_atom_site_label_1
_geom_bond_atom_site_label_2
_geom_bond_distance
_geom_bond_site_symmetry_2
Er0 P0 3.066151 1_555
Er0 P0 3.108415 1_655
Er0 P0 3.108415 1_545
Er1 P1 3.066151 1_555
Er1 P1 3.108415 1_565
Er1 P1 3.108415 1_455
P0 Ru2 2.414440 1_555
P0 Ru1 2.414440 1_554
P0 Ru3 2.453238 1_455
P0 Ru0 2.453238 1_455
P0 Ru3 2.453238 1_565
P0 Ru0 2.453238 1_565
P1 Ru3 2.414440 1_555
P1 Ru0 2.414440 1_556
P1 Ru1 2.453238 1_655
P1 Ru1 2.453238 1_545
P1 Ru2 2.453238 1_545
P1 Ru2 2.453238 1_655
C0 Ru0 1.863650 1_455
C0 Ru1 1.863650 1_544
C0 Er0 2.619022 1_555
C0 Er0 2.619022 1_445
C0 Er1 2.619022 1_444
C0 Er1 2.619022 1_554
C1 Ru2 1.863650 1_545
C1 Ru3 1.863650 1_455
C1 Er0 2.619022 1_555
C1 Er0 2.619022 1_445
C1 Er1 2.619022 1_555
C1 Er1 2.619022 1_445
