# generated using pymatgen
data_Ca7MgMn7FeO20
_symmetry_space_group_name_H-M   'P 1'
_cell_length_a   10.88990559
_cell_length_b   11.13761915
_cell_length_c   16.89375825
_cell_angle_alpha   109.04034386
_cell_angle_beta   109.13481783
_cell_angle_gamma   90.52903945
_symmetry_Int_Tables_number   1
_chemical_formula_structural   Ca7MgMn7FeO20
_chemical_formula_sum   'Ca28 Mg4 Mn28 Fe4 O80'
_cell_volume   1814.33909095
_cell_formula_units_Z   4
loop_
 _symmetry_equiv_pos_site_id
 _symmetry_equiv_pos_as_xyz
  1  'x, y, z'
loop_
 _atom_site_type_symbol
 _atom_site_label
 _atom_site_symmetry_multiplicity
 _atom_site_fract_x
 _atom_site_fract_y
 _atom_site_fract_z
 _atom_site_occupancy
  Ca  Ca0  1  0.30670500  0.06354300  0.60782700  1
  Ca  Ca1  1  0.30737400  0.56266800  0.60569300  1
  Ca  Ca2  1  0.80665100  0.06322900  0.60859100  1
  Ca  Ca3  1  0.80465800  0.56340100  0.10878700  1
  Ca  Ca4  1  0.80715700  0.56320700  0.60690000  1
  Ca  Ca5  1  0.19466300  0.43299500  0.38911200  1
  Ca  Ca6  1  0.19981000  0.43819700  0.89417900  1
  Ca  Ca7  1  0.19544200  0.93651000  0.38760000  1
  Ca  Ca8  1  0.20162300  0.93863400  0.89719800  1
  Ca  Ca9  1  0.69483600  0.43543400  0.39086400  1
  Ca  Ca10  1  0.69735000  0.43589900  0.89276900  1
  Ca  Ca11  1  0.69459100  0.93555000  0.39017900  1
  Ca  Ca12  1  0.69990900  0.93502400  0.89604500  1
  Ca  Ca13  1  0.05484500  0.29339500  0.11057200  1
  Ca  Ca14  1  0.05548100  0.29273500  0.60777600  1
  Ca  Ca15  1  0.05481000  0.79191400  0.60641500  1
  Ca  Ca16  1  0.55593600  0.29310000  0.10945300  1
  Ca  Ca17  1  0.55539800  0.29299400  0.60741500  1
  Ca  Ca18  1  0.55233900  0.79125800  0.10882900  1
  Ca  Ca19  1  0.55626200  0.79069800  0.60552900  1
  Ca  Ca20  1  0.44689300  0.20364000  0.38618400  1
  Ca  Ca21  1  0.45174800  0.20455800  0.89091000  1
  Ca  Ca22  1  0.44571100  0.70755900  0.38732100  1
  Ca  Ca23  1  0.45098200  0.70717500  0.89207400  1
  Ca  Ca24  1  0.94863200  0.20412800  0.38791700  1
  Ca  Ca25  1  0.94786300  0.20352800  0.89147900  1
  Ca  Ca26  1  0.94806200  0.70857000  0.39094700  1
  Ca  Ca27  1  0.95276300  0.70696800  0.89684700  1
  Mg  Mg0  1  0.28509800  0.07445200  0.11533000  1
  Mg  Mg1  1  0.28796300  0.57097900  0.11065900  1
  Mg  Mg2  1  0.78113100  0.07589200  0.11293400  1
  Mg  Mg3  1  0.03052700  0.79006400  0.11337700  1
  Mn  Mn0  1  0.00642000  0.99973000  0.49855700  1
  Mn  Mn1  1  0.00561800  0.49679300  0.49827100  1
  Mn  Mn2  1  0.50491500  0.99950300  0.49751900  1
  Mn  Mn3  1  0.50661500  0.49943300  0.00181600  1
  Mn  Mn4  1  0.50456500  0.49625800  0.49657500  1
  Mn  Mn5  1  0.26308300  0.25339700  0.00538400  1
  Mn  Mn6  1  0.25573700  0.24706100  0.49855400  1
  Mn  Mn7  1  0.26102100  0.75005300  0.00601900  1
  Mn  Mn8  1  0.25590600  0.74989600  0.49921000  1
  Mn  Mn9  1  0.76033300  0.24679600  0.00168100  1
  Mn  Mn10  1  0.75516800  0.24775700  0.49912200  1
  Mn  Mn11  1  0.75378600  0.74915300  0.49831800  1
  Mn  Mn12  1  0.09906300  0.09017400  0.24265700  1
  Mn  Mn13  1  0.11265300  0.09269600  0.75266900  1
  Mn  Mn14  1  0.10852400  0.60389600  0.24892200  1
  Mn  Mn15  1  0.10833000  0.60068500  0.75201100  1
  Mn  Mn16  1  0.60016800  0.09593200  0.24628500  1
  Mn  Mn17  1  0.61227500  0.08854500  0.75010900  1
  Mn  Mn18  1  0.59693900  0.59416400  0.24501200  1
  Mn  Mn19  1  0.60923700  0.59935000  0.74992500  1
  Mn  Mn20  1  0.35533000  0.40670200  0.24343200  1
  Mn  Mn21  1  0.36003200  0.40802300  0.75041900  1
  Mn  Mn22  1  0.34690100  0.90139400  0.23957500  1
  Mn  Mn23  1  0.35593100  0.89920900  0.75002100  1
  Mn  Mn24  1  0.85912800  0.40448500  0.24757000  1
  Mn  Mn25  1  0.86180900  0.40694600  0.75139900  1
  Mn  Mn26  1  0.85802500  0.91345100  0.24697000  1
  Mn  Mn27  1  0.85946700  0.89809400  0.75184200  1
  Fe  Fe0  1  0.01014800  0.99986800  0.00588600  1
  Fe  Fe1  1  0.00965800  0.49941300  0.00165800  1
  Fe  Fe2  1  0.50509800  0.00235700  0.00320400  1
  Fe  Fe3  1  0.76050600  0.75179400  0.00582500  1
  O  O0  1  0.12288900  0.11755200  0.48246900  1
  O  O1  1  0.13051000  0.12175000  0.98726000  1
  O  O2  1  0.12350300  0.61869500  0.48526600  1
  O  O3  1  0.13208700  0.61813100  0.98715900  1
  O  O4  1  0.62085400  0.11657100  0.48070700  1
  O  O5  1  0.62861000  0.11648500  0.98406900  1
  O  O6  1  0.62301300  0.61913900  0.48668900  1
  O  O7  1  0.62414100  0.61688600  0.98794500  1
  O  O8  1  0.15580400  0.39117900  0.03291100  1
  O  O9  1  0.13932100  0.37843700  0.51496300  1
  O  O10  1  0.14887800  0.88383400  0.02824400  1
  O  O11  1  0.13763900  0.87868300  0.51360800  1
  O  O12  1  0.64064500  0.37485700  0.01755000  1
  O  O13  1  0.63862800  0.38014400  0.51545000  1
  O  O14  1  0.64523000  0.88720300  0.02027000  1
  O  O15  1  0.63609100  0.87962600  0.51210800  1
  O  O16  1  0.37056400  0.11504000  0.48098200  1
  O  O17  1  0.37841100  0.12418200  0.98313900  1
  O  O18  1  0.37240400  0.61577700  0.48465100  1
  O  O19  1  0.37597100  0.62029600  0.97953500  1
  O  O20  1  0.87040200  0.11606100  0.48115800  1
  O  O21  1  0.87711700  0.11440500  0.98518800  1
  O  O22  1  0.87207800  0.61696300  0.48526400  1
  O  O23  1  0.87641800  0.61408300  0.98440900  1
  O  O24  1  0.39112000  0.39937700  0.02977700  1
  O  O25  1  0.38314300  0.37863900  0.50806400  1
  O  O26  1  0.38639400  0.89180600  0.02263700  1
  O  O27  1  0.38728300  0.88280600  0.51368300  1
  O  O28  1  0.89327500  0.38344100  0.02254400  1
  O  O29  1  0.88445000  0.38062600  0.51148300  1
  O  O30  1  0.90161900  0.88441100  0.02676900  1
  O  O31  1  0.88459400  0.88117200  0.51046300  1
  O  O32  1  0.10865700  0.10747900  0.13824800  1
  O  O33  1  0.08074200  0.09677000  0.62975700  1
  O  O34  1  0.09159500  0.61657500  0.13669600  1
  O  O35  1  0.07735200  0.59392000  0.63263100  1
  O  O36  1  0.60418500  0.10298800  0.13715400  1
  O  O37  1  0.58144000  0.09655900  0.62831400  1
  O  O38  1  0.59455800  0.59812100  0.13441400  1
  O  O39  1  0.57396700  0.59126100  0.63026200  1
  O  O40  1  0.45146500  0.40333800  0.36707300  1
  O  O41  1  0.45044000  0.40018600  0.87182400  1
  O  O42  1  0.44116100  0.90377100  0.36573000  1
  O  O43  1  0.44316800  0.90293700  0.86750400  1
  O  O44  1  0.95096400  0.40103700  0.36970600  1
  O  O45  1  0.96078200  0.39585900  0.87096800  1
  O  O46  1  0.95059300  0.90437200  0.36827700  1
  O  O47  1  0.95196700  0.90229600  0.86981300  1
  O  O48  1  0.34071400  0.26139800  0.13095500  1
  O  O49  1  0.33356900  0.28185400  0.62924100  1
  O  O50  1  0.34628900  0.75889300  0.12977400  1
  O  O51  1  0.32725200  0.78688300  0.63155100  1
  O  O52  1  0.83173700  0.26510500  0.12989200  1
  O  O53  1  0.83104400  0.28081700  0.62895600  1
  O  O54  1  0.85074700  0.77494400  0.13627700  1
  O  O55  1  0.82847600  0.78811500  0.63253000  1
  O  O56  1  0.18497400  0.20531600  0.36339500  1
  O  O57  1  0.20347000  0.22449300  0.87530800  1
  O  O58  1  0.19638100  0.71476400  0.36756100  1
  O  O59  1  0.19420600  0.71785000  0.87079100  1
  O  O60  1  0.68345500  0.21226100  0.36515500  1
  O  O61  1  0.70619100  0.21992200  0.87168200  1
  O  O62  1  0.68218800  0.70988800  0.36369200  1
  O  O63  1  0.69667300  0.71288500  0.86751300  1
  O  O64  1  0.40963500  0.07690100  0.23589500  1
  O  O65  1  0.42220200  0.06391800  0.75001200  1
  O  O66  1  0.40930800  0.58160700  0.23617900  1
  O  O67  1  0.42509500  0.58282700  0.74977200  1
  O  O68  1  0.91073800  0.08440300  0.23507000  1
  O  O69  1  0.92243100  0.06301400  0.75093300  1
  O  O70  1  0.92908900  0.57836500  0.24989300  1
  O  O71  1  0.92465100  0.58330700  0.75116100  1
  O  O72  1  0.17138300  0.43744300  0.24945500  1
  O  O73  1  0.17250500  0.43651900  0.75070100  1
  O  O74  1  0.15267000  0.92036300  0.23547400  1
  O  O75  1  0.17373700  0.91580600  0.75108500  1
  O  O76  1  0.67189000  0.43756000  0.25002500  1
  O  O77  1  0.67264700  0.43506000  0.75097100  1
  O  O78  1  0.67005000  0.93755900  0.24926300  1
  O  O79  1  0.67488500  0.91332800  0.75092300  1
loop_
_geom_bond_atom_site_label_1
_geom_bond_atom_site_label_2
_geom_bond_distance
_geom_bond_site_symmetry_2
Ca0 O65 2.316134 1_555
Ca0 O49 2.339239 1_555
Ca0 O11 2.456188 1_545
Ca0 O27 2.492035 1_545
Ca0 O33 2.618081 1_555
Ca0 O0 2.632108 1_555
Ca0 O16 2.678816 1_555
Ca0 O37 2.902396 1_555
Ca1 O67 2.282727 1_555
Ca1 O51 2.385384 1_555
Ca1 O9 2.438948 1_555
Ca1 O25 2.513930 1_555
Ca1 O2 2.592015 1_555
Ca1 O18 2.600697 1_555
Ca1 O35 2.694986 1_555
Ca1 O39 2.794425 1_555
Ca2 O69 2.321289 1_555
Ca2 O53 2.333678 1_555
Ca2 O15 2.461426 1_545
Ca2 O31 2.518159 1_545
Ca2 O37 2.595292 1_555
Ca2 O4 2.666119 1_555
Ca2 O20 2.694747 1_555
Ca2 O33 2.892947 1_655
Ca3 O54 2.264984 1_555
Ca3 O70 2.272759 1_555
Ca3 O12 2.447372 1_555
Ca3 O28 2.474568 1_555
Ca3 O38 2.475533 1_555
Ca3 O7 2.563401 1_554
Ca3 O23 2.680787 1_554
Ca4 O71 2.284990 1_555
Ca4 O55 2.394115 1_555
Ca4 O13 2.434937 1_555
Ca4 O29 2.494880 1_555
Ca4 O6 2.590799 1_555
Ca4 O22 2.613078 1_555
Ca4 O39 2.700607 1_555
Ca4 O35 2.830115 1_655
Ca5 O72 2.305979 1_555
Ca5 O56 2.424121 1_555
Ca5 O2 2.485887 1_555
Ca5 O18 2.496225 1_555
Ca5 O44 2.571609 1_455
Ca5 O25 2.594286 1_555
Ca5 O9 2.632284 1_555
Ca5 O40 2.947514 1_555
Ca6 O57 2.298553 1_555
Ca6 O73 2.337051 1_555
Ca6 O3 2.400055 1_555
Ca6 O19 2.465629 1_555
Ca6 O45 2.517782 1_455
Ca6 O24 2.703512 1_556
Ca6 O8 2.743959 1_556
Ca6 O41 2.892042 1_555
Ca7 O58 2.381482 1_555
Ca7 O74 2.401295 1_555
Ca7 O16 2.447508 1_565
Ca7 O0 2.451467 1_565
Ca7 O46 2.584529 1_455
Ca7 O11 2.666111 1_555
Ca7 O27 2.682586 1_555
Ca7 O42 2.829828 1_555
Ca8 O75 2.312471 1_555
Ca8 O59 2.347172 1_555
Ca8 O1 2.418901 1_565
Ca8 O17 2.494282 1_565
Ca8 O26 2.599339 1_556
Ca8 O47 2.608114 1_455
Ca8 O10 2.704147 1_556
Ca8 O43 2.843057 1_555
Ca9 O76 2.317578 1_555
Ca9 O60 2.374222 1_555
Ca9 O6 2.473296 1_555
Ca9 O22 2.482467 1_555
Ca9 O40 2.550251 1_555
Ca9 O29 2.620119 1_555
Ca9 O13 2.620502 1_555
Ca9 O44 2.939082 1_555
Ca10 O77 2.318136 1_555
Ca10 O61 2.321661 1_555
Ca10 O7 2.457540 1_555
Ca10 O23 2.466284 1_555
Ca10 O41 2.603438 1_555
Ca10 O12 2.658574 1_556
Ca10 O28 2.737215 1_556
Ca10 O45 3.028757 1_555
Ca11 O78 2.314510 1_555
Ca11 O62 2.399095 1_555
Ca11 O4 2.423165 1_565
Ca11 O20 2.460374 1_565
Ca11 O15 2.593608 1_555
Ca11 O31 2.616669 1_555
Ca11 O42 2.655523 1_555
Ca11 O46 2.939357 1_555
Ca12 O79 2.305975 1_555
Ca12 O63 2.358793 1_555
Ca12 O5 2.392447 1_565
Ca12 O21 2.458443 1_565
Ca12 O14 2.566154 1_556
Ca12 O43 2.676287 1_555
Ca12 O30 2.770347 1_556
Ca12 O47 2.928175 1_555
Ca13 O72 2.289922 1_555
Ca13 O32 2.307404 1_555
Ca13 O28 2.367158 1_455
Ca13 O8 2.443763 1_555
Ca13 O52 2.584903 1_455
Ca13 O21 2.587038 1_454
Ca13 O1 2.688739 1_554
Ca14 O73 2.332540 1_555
Ca14 O33 2.334561 1_555
Ca14 O9 2.470246 1_555
Ca14 O29 2.481907 1_455
Ca14 O53 2.591830 1_455
Ca14 O20 2.619887 1_455
Ca14 O0 2.679049 1_555
Ca14 O49 2.938132 1_555
Ca15 O75 2.290429 1_555
Ca15 O35 2.386459 1_555
Ca15 O11 2.470902 1_555
Ca15 O31 2.483437 1_455
Ca15 O22 2.569408 1_455
Ca15 O2 2.631445 1_555
Ca15 O55 2.644729 1_455
Ca15 O51 2.859793 1_555
Ca16 O76 2.307891 1_555
Ca16 O36 2.341859 1_555
Ca16 O24 2.435005 1_555
Ca16 O12 2.436492 1_555
Ca16 O48 2.525136 1_555
Ca16 O17 2.537586 1_554
Ca16 O5 2.718758 1_554
Ca16 O52 2.940203 1_555
Ca17 O37 2.332688 1_555
Ca17 O77 2.333320 1_555
Ca17 O13 2.463390 1_555
Ca17 O25 2.501863 1_555
Ca17 O49 2.568112 1_555
Ca17 O16 2.624420 1_555
Ca17 O4 2.689415 1_555
Ca17 O53 2.912896 1_555
Ca18 O78 2.317802 1_555
Ca18 O38 2.349467 1_555
Ca18 O50 2.424638 1_555
Ca18 O26 2.452810 1_555
Ca18 O14 2.533536 1_555
Ca18 O19 2.560074 1_554
Ca18 O7 2.653443 1_554
Ca19 O79 2.294716 1_555
Ca19 O39 2.388804 1_555
Ca19 O27 2.459211 1_555
Ca19 O15 2.476087 1_555
Ca19 O18 2.574127 1_555
Ca19 O6 2.586410 1_555
Ca19 O51 2.672744 1_555
Ca19 O55 2.849585 1_555
Ca20 O40 2.351728 1_555
Ca20 O64 2.362012 1_555
Ca20 O16 2.473489 1_555
Ca20 O4 2.477949 1_555
Ca20 O25 2.619925 1_555
Ca20 O13 2.669643 1_555
Ca20 O60 2.718380 1_555
Ca20 O56 2.751328 1_555
Ca21 O65 2.297568 1_555
Ca21 O41 2.303781 1_555
Ca21 O17 2.362093 1_555
Ca21 O5 2.490696 1_555
Ca21 O12 2.607940 1_556
Ca21 O57 2.647823 1_555
Ca21 O24 2.892795 1_556
Ca21 O61 2.903454 1_555
Ca22 O42 2.328395 1_555
Ca22 O66 2.373549 1_555
Ca22 O18 2.515558 1_555
Ca22 O6 2.550428 1_555
Ca22 O15 2.615418 1_555
Ca22 O58 2.630089 1_555
Ca22 O27 2.639389 1_555
Ca22 O62 2.733347 1_555
Ca23 O67 2.270018 1_555
Ca23 O19 2.344398 1_555
Ca23 O43 2.346081 1_555
Ca23 O7 2.507129 1_555
Ca23 O14 2.696357 1_556
Ca23 O59 2.708768 1_555
Ca23 O26 2.769979 1_556
Ca23 O63 2.841947 1_555
Ca24 O44 2.312854 1_555
Ca24 O68 2.379210 1_555
Ca24 O20 2.457941 1_555
Ca24 O0 2.476665 1_655
Ca24 O9 2.640586 1_655
Ca24 O29 2.648556 1_555
Ca24 O56 2.738227 1_655
Ca24 O60 2.791909 1_555
Ca25 O45 2.288927 1_555
Ca25 O69 2.302145 1_555
Ca25 O21 2.428123 1_555
Ca25 O1 2.507807 1_655
Ca25 O61 2.557961 1_555
Ca25 O28 2.694670 1_556
Ca25 O8 2.883057 1_656
Ca25 O57 2.899202 1_655
Ca26 O70 2.289332 1_555
Ca26 O46 2.335365 1_555
Ca26 O22 2.484746 1_555
Ca26 O2 2.504256 1_655
Ca26 O31 2.580077 1_555
Ca26 O11 2.589848 1_655
Ca26 O62 2.779648 1_555
Ca26 O58 2.861489 1_655
Ca27 O71 2.309680 1_555
Ca27 O47 2.363773 1_555
Ca27 O23 2.395512 1_555
Ca27 O3 2.487497 1_655
Ca27 O30 2.650455 1_556
Ca27 O63 2.673196 1_555
Ca27 O10 2.707444 1_656
Ca27 O59 2.812348 1_655
Mg0 O64 2.034871 1_555
Mg0 O48 2.070042 1_555
Mg0 O32 2.094020 1_555
Mg0 O10 2.312013 1_545
Mg0 O1 2.482902 1_554
Mg0 O26 2.627277 1_545
Mg1 O66 2.062295 1_555
Mg1 O50 2.070753 1_555
Mg1 O8 2.190433 1_555
Mg1 O34 2.348449 1_555
Mg1 O3 2.433054 1_554
Mg1 O24 2.474644 1_555
Mg2 O68 2.054052 1_555
Mg2 O52 2.075566 1_555
Mg2 O36 2.102044 1_555
Mg2 O14 2.309667 1_545
Mg2 O5 2.447050 1_554
Mg3 O74 2.083866 1_555
Mg3 O54 2.131646 1_455
Mg3 O34 2.163260 1_555
Mg3 O30 2.213468 1_455
Mg3 O23 2.482122 1_454
Mg3 O10 2.643983 1_555
Mn0 O0 1.957683 1_565
Mn0 O31 1.964687 1_455
Mn0 O46 1.981753 1_455
Mn0 O11 1.986254 1_555
Mn0 O20 1.989378 1_465
Mn0 O33 1.995157 1_565
Mn1 O29 1.953170 1_455
Mn1 O44 1.959196 1_455
Mn1 O2 1.971544 1_555
Mn1 O9 1.986445 1_555
Mn1 O22 1.993180 1_455
Mn1 O35 2.037768 1_555
Mn2 O4 1.954761 1_565
Mn2 O27 1.958309 1_555
Mn2 O16 1.968720 1_565
Mn2 O15 1.975617 1_555
Mn2 O37 1.990761 1_565
Mn2 O42 1.999966 1_555
Mn3 O24 1.937507 1_555
Mn3 O7 1.941617 1_554
Mn3 O41 1.985367 1_554
Mn3 O19 1.998176 1_554
Mn3 O38 2.027534 1_555
Mn3 O12 2.037105 1_555
Mn4 O25 1.950469 1_555
Mn4 O6 1.955132 1_555
Mn4 O40 1.968265 1_555
Mn4 O18 1.975901 1_555
Mn4 O13 1.975922 1_555
Mn4 O39 2.024477 1_555
Mn5 O1 1.925119 1_554
Mn5 O17 1.944120 1_554
Mn5 O8 1.964593 1_555
Mn5 O24 1.975264 1_555
Mn5 O48 1.980499 1_555
Mn5 O57 1.988291 1_554
Mn6 O0 1.922334 1_555
Mn6 O25 1.939353 1_555
Mn6 O16 1.950986 1_555
Mn6 O9 1.955776 1_555
Mn6 O49 1.987926 1_555
Mn6 O56 2.042262 1_555
Mn7 O3 1.896038 1_554
Mn7 O10 1.954907 1_555
Mn7 O50 1.958109 1_555
Mn7 O19 1.958169 1_554
Mn7 O26 1.963456 1_555
Mn7 O59 2.061037 1_554
Mn8 O2 1.945139 1_555
Mn8 O11 1.946070 1_555
Mn8 O27 1.947649 1_555
Mn8 O18 1.975134 1_555
Mn8 O58 2.000513 1_555
Mn8 O51 2.006551 1_555
Mn9 O5 1.911179 1_554
Mn9 O28 1.952210 1_555
Mn9 O12 1.954210 1_555
Mn9 O21 1.966751 1_554
Mn9 O52 1.985540 1_555
Mn9 O61 1.994829 1_554
Mn10 O4 1.933038 1_555
Mn10 O29 1.944942 1_555
Mn10 O20 1.952308 1_555
Mn10 O13 1.964559 1_555
Mn10 O53 1.977002 1_555
Mn10 O60 2.034718 1_555
Mn11 O6 1.938143 1_555
Mn11 O31 1.950934 1_555
Mn11 O15 1.953951 1_555
Mn11 O22 1.971065 1_555
Mn11 O55 2.033034 1_555
Mn11 O62 2.038137 1_555
Mn12 O32 1.871235 1_555
Mn12 O56 1.923645 1_555
Mn12 O74 1.962036 1_545
Mn12 O68 2.011560 1_455
Mn13 O33 2.005780 1_555
Mn13 O57 2.017648 1_555
Mn13 O75 2.079929 1_545
Mn13 O69 2.083857 1_455
Mn14 O58 1.887710 1_555
Mn14 O34 1.895906 1_555
Mn14 O70 1.978170 1_455
Mn14 O72 1.983899 1_555
Mn15 O35 1.908199 1_555
Mn15 O59 1.908595 1_555
Mn15 O73 1.959424 1_555
Mn15 O71 2.002714 1_455
Mn16 O36 1.885315 1_555
Mn16 O60 1.902791 1_555
Mn16 O78 1.936644 1_545
Mn16 O64 2.027247 1_555
Mn17 O37 2.005434 1_555
Mn17 O61 2.009903 1_555
Mn17 O79 2.075898 1_545
Mn17 O65 2.084856 1_555
Mn18 O38 1.874988 1_555
Mn18 O62 1.901181 1_555
Mn18 O76 1.947547 1_555
Mn18 O66 1.999513 1_555
Mn19 O63 1.884297 1_555
Mn19 O39 1.901009 1_555
Mn19 O77 1.965131 1_555
Mn19 O67 2.011103 1_555
Mn20 O48 2.011349 1_555
Mn20 O40 2.019538 1_555
Mn20 O72 2.064899 1_555
Mn20 O66 2.082584 1_555
Mn21 O49 1.994325 1_555
Mn21 O41 1.994509 1_555
Mn21 O67 2.070276 1_555
Mn21 O73 2.070868 1_555
Mn22 O50 2.007650 1_555
Mn22 O42 2.031009 1_555
Mn22 O64 2.091417 1_565
Mn22 O74 2.108330 1_555
Mn23 O43 1.884882 1_555
Mn23 O51 1.901997 1_555
Mn23 O65 1.965172 1_565
Mn23 O75 1.999758 1_555
Mn24 O44 1.989624 1_555
Mn24 O52 2.010006 1_555
Mn24 O70 2.058155 1_555
Mn24 O76 2.086696 1_555
Mn25 O45 1.998775 1_555
Mn25 O53 2.001364 1_555
Mn25 O71 2.075746 1_555
Mn25 O77 2.084500 1_555
Mn26 O54 1.975184 1_555
Mn26 O46 2.002228 1_555
Mn26 O68 2.073732 1_565
Mn26 O78 2.078287 1_555
Mn27 O47 1.900256 1_555
Mn27 O55 1.900668 1_555
Mn27 O69 1.961205 1_565
Mn27 O79 2.014202 1_555
Fe0 O30 1.927730 1_455
Fe0 O21 1.959947 1_464
Fe0 O10 2.018824 1_555
Fe0 O1 2.043526 1_564
Fe0 O32 2.059711 1_565
Fe0 O47 2.066226 1_454
Fe1 O23 1.954789 1_454
Fe1 O28 1.989842 1_455
Fe1 O3 1.994665 1_554
Fe1 O45 2.011192 1_454
Fe1 O8 2.040751 1_555
Fe1 O34 2.098802 1_555
Fe2 O26 1.951254 1_545
Fe2 O17 1.971628 1_554
Fe2 O14 2.011406 1_545
Fe2 O5 2.012690 1_554
Fe2 O43 2.062228 1_544
Fe2 O36 2.064789 1_555
Fe3 O14 1.976253 1_555
Fe3 O7 1.980590 1_554
Fe3 O30 1.982156 1_555
Fe3 O23 2.012403 1_554
Fe3 O54 2.023315 1_555
Fe3 O63 2.097540 1_554
