# generated using pymatgen
data_ZnAu4
_symmetry_space_group_name_H-M   'P 1'
_cell_length_a   23.17873223
_cell_length_b   23.17873223
_cell_length_c   23.17873128
_cell_angle_alpha   14.76096524
_cell_angle_beta   14.76096524
_cell_angle_gamma   14.76096239
_symmetry_Int_Tables_number   1
_chemical_formula_structural   ZnAu4
_chemical_formula_sum   'Zn8 Au32'
_cell_volume   703.96237402
_cell_formula_units_Z   8
loop_
 _symmetry_equiv_pos_site_id
 _symmetry_equiv_pos_as_xyz
  1  'x, y, z'
loop_
 _atom_site_type_symbol
 _atom_site_label
 _atom_site_symmetry_multiplicity
 _atom_site_fract_x
 _atom_site_fract_y
 _atom_site_fract_z
 _atom_site_occupancy
  Zn  Zn0_0  1  0.00000000  0.00000000  0.00000000  1
  Zn  Zn0_1  1  0.00000000  0.00000000  0.50000000  1
  Zn  Zn0_2  1  0.00000000  0.50000000  0.00000000  1
  Zn  Zn0_3  1  0.00000000  0.50000000  0.50000000  1
  Zn  Zn0_4  1  0.50000000  0.00000000  0.00000000  1
  Zn  Zn0_5  1  0.50000000  0.00000000  0.50000000  1
  Zn  Zn0_6  1  0.50000000  0.50000000  0.00000000  1
  Zn  Zn0_7  1  0.50000000  0.50000000  0.50000000  1
  Au  Au0_0  1  0.30273500  0.30273500  0.30273500  1
  Au  Au0_1  1  0.30273500  0.30273500  0.80273500  1
  Au  Au0_2  1  0.30273500  0.80273500  0.30273500  1
  Au  Au0_3  1  0.30273500  0.80273500  0.80273500  1
  Au  Au0_4  1  0.80273500  0.30273500  0.30273500  1
  Au  Au0_5  1  0.80273500  0.30273500  0.80273500  1
  Au  Au0_6  1  0.80273500  0.80273500  0.30273500  1
  Au  Au0_7  1  0.80273500  0.80273500  0.80273500  1
  Au  Au1_0  1  0.10075850  0.10075850  0.10075850  1
  Au  Au1_1  1  0.10075850  0.10075850  0.60075850  1
  Au  Au1_2  1  0.10075850  0.60075850  0.10075850  1
  Au  Au1_3  1  0.10075850  0.60075850  0.60075850  1
  Au  Au1_4  1  0.60075850  0.10075850  0.10075850  1
  Au  Au1_5  1  0.60075850  0.10075850  0.60075850  1
  Au  Au1_6  1  0.60075850  0.60075850  0.10075850  1
  Au  Au1_7  1  0.60075850  0.60075850  0.60075850  1
  Au  Au2_0  1  0.39924150  0.39924150  0.39924150  1
  Au  Au2_1  1  0.39924150  0.39924150  0.89924150  1
  Au  Au2_2  1  0.39924150  0.89924150  0.39924150  1
  Au  Au2_3  1  0.39924150  0.89924150  0.89924150  1
  Au  Au2_4  1  0.89924150  0.39924150  0.39924150  1
  Au  Au2_5  1  0.89924150  0.39924150  0.89924150  1
  Au  Au2_6  1  0.89924150  0.89924150  0.39924150  1
  Au  Au2_7  1  0.89924150  0.89924150  0.89924150  1
  Au  Au3_0  1  0.19726500  0.19726500  0.19726500  1
  Au  Au3_1  1  0.19726500  0.19726500  0.69726500  1
  Au  Au3_2  1  0.19726500  0.69726500  0.19726500  1
  Au  Au3_3  1  0.19726500  0.69726500  0.69726500  1
  Au  Au3_4  1  0.69726500  0.19726500  0.19726500  1
  Au  Au3_5  1  0.69726500  0.19726500  0.69726500  1
  Au  Au3_6  1  0.69726500  0.69726500  0.19726500  1
  Au  Au3_7  1  0.69726500  0.69726500  0.69726500  1
loop_
_geom_bond_atom_site_label_1
_geom_bond_atom_site_label_2
_geom_bond_distance
_geom_bond_site_symmetry_2
Au0_0 Zn0_5 2.717096 1_555
Au0_0 Zn0_3 2.717096 1_555
Au0_0 Zn0_6 2.717097 1_555
Au0_0 Au1_4 2.975073 1_555
Au0_0 Au1_2 2.975073 1_555
Au0_0 Au1_1 2.975074 1_555
Au0_1 Zn0_4 2.717096 1_556
Au0_1 Zn0_2 2.717096 1_556
Au0_1 Zn0_7 2.717097 1_555
Au0_1 Au1_5 2.975073 1_555
Au0_1 Au1_3 2.975073 1_555
Au0_1 Au1_0 2.975074 1_556
Au0_2 Zn0_1 2.717096 1_565
Au0_2 Zn0_7 2.717096 1_555
Au0_2 Zn0_4 2.717097 1_565
Au0_2 Au1_6 2.975073 1_555
Au0_2 Au1_0 2.975073 1_565
Au0_2 Au1_3 2.975074 1_555
Au0_3 Zn0_0 2.717096 1_566
Au0_3 Zn0_6 2.717096 1_556
Au0_3 Zn0_5 2.717097 1_565
Au0_3 Au1_1 2.975073 1_565
Au0_3 Au1_7 2.975073 1_555
Au0_3 Au1_2 2.975074 1_556
Au0_4 Zn0_1 2.717096 1_655
Au0_4 Zn0_7 2.717096 1_555
Au0_4 Zn0_2 2.717097 1_655
Au0_4 Au1_6 2.975073 1_555
Au0_4 Au1_0 2.975073 1_655
Au0_4 Au1_5 2.975074 1_555
Au0_5 Zn0_0 2.717096 1_656
Au0_5 Zn0_6 2.717096 1_556
Au0_5 Zn0_3 2.717097 1_655
Au0_5 Au1_1 2.975073 1_655
Au0_5 Au1_7 2.975073 1_555
Au0_5 Au1_4 2.975074 1_556
Au0_6 Zn0_3 2.717096 1_655
Au0_6 Zn0_5 2.717096 1_565
Au0_6 Zn0_0 2.717097 1_665
Au0_6 Au1_4 2.975073 1_565
Au0_6 Au1_2 2.975073 1_655
Au0_6 Au1_7 2.975074 1_555
Au0_7 Zn0_4 2.717096 1_566
Au0_7 Zn0_2 2.717096 1_656
Au0_7 Zn0_1 2.717097 1_665
Au0_7 Au1_5 2.975073 1_565
Au0_7 Au1_3 2.975073 1_655
Au0_7 Au1_6 2.975074 1_556
Au1_0 Au2_3 2.949340 1_544
Au1_0 Au2_5 2.949340 1_454
Au1_0 Au2_6 2.949341 1_445
Au1_0 Au1_6 2.977488 1_455
Au1_0 Au1_6 2.977488 1_545
Au1_0 Au1_5 2.977489 1_455
Au1_0 Au1_3 2.977489 1_545
Au1_0 Au1_5 2.977489 1_554
Au1_0 Au1_3 2.977489 1_554
Au1_1 Au2_2 2.949340 1_545
Au1_1 Au2_4 2.949340 1_455
Au1_1 Au2_7 2.949341 1_445
Au1_1 Au1_7 2.977488 1_455
Au1_1 Au1_7 2.977488 1_545
Au1_1 Au1_4 2.977489 1_456
Au1_1 Au1_2 2.977489 1_546
Au1_1 Au1_4 2.977489 1_555
Au1_1 Au1_2 2.977489 1_555
Au1_2 Au2_7 2.949340 1_454
Au1_2 Au2_1 2.949340 1_554
Au1_2 Au2_4 2.949341 1_455
Au1_2 Au1_4 2.977488 1_465
Au1_2 Au1_4 2.977488 1_555
Au1_2 Au1_7 2.977489 1_554
Au1_2 Au1_7 2.977489 1_455
Au1_3 Au2_0 2.949340 1_555
Au1_3 Au2_6 2.949340 1_455
Au1_3 Au2_5 2.949341 1_455
Au1_3 Au1_5 2.977488 1_465
Au1_3 Au1_5 2.977488 1_555
Au1_3 Au1_6 2.977489 1_456
Au1_3 Au1_6 2.977489 1_555
Au1_4 Au2_7 2.949340 1_544
Au1_4 Au2_1 2.949340 1_554
Au1_4 Au2_2 2.949341 1_545
Au1_4 Au1_7 2.977489 1_545
Au1_4 Au1_7 2.977489 1_554
Au1_5 Au2_0 2.949340 1_555
Au1_5 Au2_6 2.949340 1_545
Au1_5 Au2_3 2.949341 1_545
Au1_5 Au1_6 2.977489 1_546
Au1_5 Au1_6 2.977489 1_555
Au1_6 Au2_5 2.949340 1_554
Au1_6 Au2_3 2.949340 1_554
Au1_6 Au2_0 2.949341 1_555
Au1_7 Au2_2 2.949340 1_555
Au1_7 Au2_4 2.949340 1_555
Au1_7 Au2_1 2.949341 1_555
Au2_0 Au3_2 2.975073 1_555
Au2_0 Au3_4 2.975073 1_555
Au2_0 Au3_1 2.975074 1_555
Au2_0 Au2_6 2.977488 1_545
Au2_0 Au2_6 2.977488 1_455
Au2_0 Au2_3 2.977489 1_545
Au2_0 Au2_5 2.977489 1_455
Au2_0 Au2_5 2.977489 1_554
Au2_0 Au2_3 2.977489 1_554
Au2_1 Au3_3 2.975073 1_555
Au2_1 Au3_5 2.975073 1_555
Au2_1 Au3_0 2.975074 1_556
Au2_1 Au2_7 2.977488 1_545
Au2_1 Au2_7 2.977488 1_455
Au2_1 Au2_4 2.977489 1_456
Au2_1 Au2_2 2.977489 1_546
Au2_1 Au2_4 2.977489 1_555
Au2_1 Au2_2 2.977489 1_555
Au2_2 Au3_6 2.975073 1_555
Au2_2 Au3_0 2.975073 1_565
Au2_2 Au3_3 2.975074 1_555
Au2_2 Au2_4 2.977488 1_465
Au2_2 Au2_4 2.977488 1_555
Au2_2 Au2_7 2.977489 1_455
Au2_2 Au2_7 2.977489 1_554
Au2_3 Au3_7 2.975073 1_555
Au2_3 Au3_1 2.975073 1_565
Au2_3 Au3_2 2.975074 1_556
Au2_3 Au2_5 2.977488 1_555
Au2_3 Au2_5 2.977488 1_465
Au2_3 Au2_6 2.977489 1_555
Au2_3 Au2_6 2.977489 1_456
Au2_4 Au3_6 2.975073 1_555
Au2_4 Au3_0 2.975073 1_655
Au2_4 Au3_5 2.975074 1_555
Au2_4 Au2_7 2.977489 1_545
Au2_4 Au2_7 2.977489 1_554
Au2_5 Au3_7 2.975073 1_555
Au2_5 Au3_1 2.975073 1_655
Au2_5 Au3_4 2.975074 1_556
Au2_5 Au2_6 2.977489 1_555
Au2_5 Au2_6 2.977489 1_546
Au2_6 Au3_2 2.975073 1_655
Au2_6 Au3_4 2.975073 1_565
Au2_6 Au3_7 2.975074 1_555
Au2_7 Au3_3 2.975073 1_655
Au2_7 Au3_5 2.975073 1_565
Au2_7 Au3_6 2.975074 1_556
Au3_0 Zn0_4 2.717096 1_555
Au3_0 Zn0_2 2.717096 1_555
Au3_0 Zn0_1 2.717097 1_555
Au3_1 Zn0_5 2.717096 1_555
Au3_1 Zn0_3 2.717096 1_555
Au3_1 Zn0_0 2.717097 1_556
Au3_2 Zn0_6 2.717096 1_555
Au3_2 Zn0_0 2.717096 1_565
Au3_2 Zn0_3 2.717097 1_555
Au3_3 Zn0_7 2.717096 1_555
Au3_3 Zn0_1 2.717096 1_565
Au3_3 Zn0_2 2.717097 1_556
Au3_4 Zn0_6 2.717096 1_555
Au3_4 Zn0_0 2.717096 1_655
Au3_4 Zn0_5 2.717097 1_555
Au3_5 Zn0_7 2.717096 1_555
Au3_5 Zn0_1 2.717096 1_655
Au3_5 Zn0_4 2.717097 1_556
Au3_6 Zn0_2 2.717096 1_655
Au3_6 Zn0_4 2.717096 1_565
Au3_6 Zn0_7 2.717097 1_555
Au3_7 Zn0_3 2.717096 1_655
Au3_7 Zn0_5 2.717096 1_565
Au3_7 Zn0_6 2.717097 1_556
