# generated using pymatgen
data_Sm2USe5
_symmetry_space_group_name_H-M   'P 1'
_cell_length_a   7.84060113
_cell_length_b   8.39404867
_cell_length_c   12.38386790
_cell_angle_alpha   90.00000000
_cell_angle_beta   90.00000000
_cell_angle_gamma   90.00000000
_symmetry_Int_Tables_number   1
_chemical_formula_structural   Sm2USe5
_chemical_formula_sum   'Sm8 U4 Se20'
_cell_volume   815.03668056
_cell_formula_units_Z   4
loop_
 _symmetry_equiv_pos_site_id
 _symmetry_equiv_pos_as_xyz
  1  'x, y, z'
loop_
 _atom_site_type_symbol
 _atom_site_label
 _atom_site_symmetry_multiplicity
 _atom_site_fract_x
 _atom_site_fract_y
 _atom_site_fract_z
 _atom_site_occupancy
  Sm  Sm0  1  0.51815341  0.49781652  0.32102146  1
  Sm  Sm1  1  0.98184659  0.00218348  0.82102146  1
  Sm  Sm2  1  0.48184659  0.99781652  0.67897854  1
  Sm  Sm3  1  0.01815341  0.50218348  0.17897854  1
  Sm  Sm4  1  0.48184659  0.50218348  0.67897854  1
  Sm  Sm5  1  0.01815341  0.99781652  0.17897854  1
  Sm  Sm6  1  0.51815341  0.00218348  0.32102146  1
  Sm  Sm7  1  0.98184659  0.49781652  0.82102146  1
  U  U0  1  0.07628632  0.75000000  0.49024969  1
  U  U1  1  0.42371368  0.75000000  0.99024969  1
  U  U2  1  0.92371368  0.25000000  0.50975031  1
  U  U3  1  0.57628632  0.25000000  0.00975031  1
  Se  Se0  1  0.83747006  0.95637438  0.59844403  1
  Se  Se1  1  0.66252994  0.54362562  0.09844403  1
  Se  Se2  1  0.16252994  0.45637438  0.40155597  1
  Se  Se3  1  0.33747006  0.04362562  0.90155597  1
  Se  Se4  1  0.16252994  0.04362562  0.40155597  1
  Se  Se5  1  0.33747006  0.45637438  0.90155597  1
  Se  Se6  1  0.83747006  0.54362562  0.59844403  1
  Se  Se7  1  0.66252994  0.95637438  0.09844403  1
  Se  Se8  1  0.82700067  0.75000000  0.31638243  1
  Se  Se9  1  0.67299933  0.75000000  0.81638243  1
  Se  Se10  1  0.17299933  0.25000000  0.68361757  1
  Se  Se11  1  0.32700067  0.25000000  0.18361757  1
  Se  Se12  1  0.45959912  0.75000000  0.49977702  1
  Se  Se13  1  0.04040088  0.75000000  -0.00022298  1
  Se  Se14  1  0.54040088  0.25000000  0.50022298  1
  Se  Se15  1  0.95959912  0.25000000  0.00022298  1
  Se  Se16  1  0.20000258  0.75000000  0.71502394  1
  Se  Se17  1  0.29999742  0.75000000  0.21502394  1
  Se  Se18  1  0.79999742  0.25000000  0.28497606  1
  Se  Se19  1  0.70000258  0.25000000  0.78497606  1
loop_
_geom_bond_atom_site_label_1
_geom_bond_atom_site_label_2
_geom_bond_distance
_geom_bond_site_symmetry_2
Se0 U2 2.781807 1_565
Se0 U0 2.881367 1_655
Se0 Sm2 2.981661 1_555
Se0 Sm1 3.004472 1_565
Se1 U3 2.781807 1_555
Se1 U1 2.881367 1_554
Se1 Sm3 2.981661 1_655
Se1 Sm0 3.004472 1_555
Se2 U0 2.781807 1_555
Se2 U2 2.881367 1_455
Se2 Sm0 2.981661 1_555
Se2 Sm3 3.004472 1_555
Se3 U1 2.781807 1_545
Se3 U3 2.881367 1_556
Se3 Sm1 2.981661 1_455
Se3 Sm2 3.004472 1_545
Se4 U0 2.781807 1_545
Se4 U2 2.881367 1_455
Se4 Sm6 2.981661 1_555
Se4 Sm5 3.004472 1_545
Se5 U1 2.781807 1_555
Se5 U3 2.881367 1_556
Se5 Sm7 2.981661 1_455
Se5 Sm4 3.004472 1_555
Se6 U2 2.781807 1_555
Se6 U0 2.881367 1_655
Se6 Sm4 2.981661 1_555
Se6 Sm7 3.004472 1_555
Se7 U3 2.781807 1_565
Se7 U1 2.881367 1_554
Se7 Sm5 2.981661 1_655
Se7 Sm6 3.004472 1_565
Se8 U0 2.907974 1_655
Se8 Sm5 3.077148 1_655
Se8 Sm3 3.077148 1_655
Se8 Sm0 3.216863 1_555
Se8 Sm6 3.216863 1_565
Se9 U1 2.907974 1_555
Se9 Sm4 3.077148 1_555
Se9 Sm2 3.077148 1_555
Se9 Sm1 3.216863 1_565
Se9 Sm7 3.216863 1_555
Se10 U2 2.907974 1_455
Se10 Sm7 3.077148 1_455
Se10 Sm1 3.077148 1_455
Se10 Sm4 3.216863 1_555
Se10 Sm2 3.216863 1_545
Se11 U3 2.907974 1_555
Se11 Sm6 3.077148 1_555
Se11 Sm0 3.077148 1_555
Se11 Sm5 3.216863 1_545
Se11 Sm3 3.216863 1_555
Se12 U0 3.007718 1_555
Se12 Sm4 3.046716 1_555
Se12 Sm2 3.046716 1_555
Se12 Sm0 3.097126 1_555
Se12 Sm6 3.097126 1_565
Se13 U1 3.007718 1_554
Se13 Sm5 3.046716 1_555
Se13 Sm3 3.046716 1_555
Se13 Sm7 3.097126 1_454
Se13 Sm1 3.097126 1_464
Se14 U2 3.007718 1_555
Se14 Sm6 3.046716 1_555
Se14 Sm0 3.046716 1_555
Se14 Sm2 3.097126 1_545
Se14 Sm4 3.097126 1_555
Se15 U3 3.007718 1_555
Se15 Sm7 3.046716 1_554
Se15 Sm1 3.046716 1_554
Se15 Sm5 3.097126 1_645
Se15 Sm3 3.097126 1_655
Se16 U0 2.947746 1_555
Se16 Sm1 3.021557 1_465
Se16 Sm7 3.021557 1_455
Se16 Sm4 3.067532 1_555
Se16 Sm2 3.067532 1_555
Se17 U1 2.947746 1_554
Se17 Sm0 3.021557 1_555
Se17 Sm6 3.021557 1_565
Se17 Sm3 3.067532 1_555
Se17 Sm5 3.067532 1_555
Se18 U2 2.947746 1_555
Se18 Sm5 3.021557 1_645
Se18 Sm3 3.021557 1_655
Se18 Sm0 3.067532 1_555
Se18 Sm6 3.067532 1_555
Se19 U3 2.947746 1_556
Se19 Sm4 3.021557 1_555
Se19 Sm2 3.021557 1_545
Se19 Sm7 3.067532 1_555
Se19 Sm1 3.067532 1_555
