# generated using pymatgen
data_Zn3Si3(AgO6)2
_symmetry_space_group_name_H-M   'P 1'
_cell_length_a   10.43844495
_cell_length_b   10.43844495
_cell_length_c   10.43844495
_cell_angle_alpha   109.47122063
_cell_angle_beta   109.47122063
_cell_angle_gamma   109.47122063
_symmetry_Int_Tables_number   1
_chemical_formula_structural   Zn3Si3(AgO6)2
_chemical_formula_sum   'Zn12 Si12 Ag8 O48'
_cell_volume   875.55921743
_cell_formula_units_Z   4
loop_
 _symmetry_equiv_pos_site_id
 _symmetry_equiv_pos_as_xyz
  1  'x, y, z'
loop_
 _atom_site_type_symbol
 _atom_site_label
 _atom_site_symmetry_multiplicity
 _atom_site_fract_x
 _atom_site_fract_y
 _atom_site_fract_z
 _atom_site_occupancy
  Zn  Zn0  1  0.25000000  0.37500000  0.12500000  1
  Zn  Zn1  1  0.75000000  0.12500000  0.37500000  1
  Zn  Zn2  1  0.37500000  0.12500000  0.25000000  1
  Zn  Zn3  1  0.12500000  0.37500000  0.75000000  1
  Zn  Zn4  1  0.25000000  0.87500000  0.62500000  1
  Zn  Zn5  1  0.12500000  0.25000000  0.37500000  1
  Zn  Zn6  1  0.62500000  0.25000000  0.87500000  1
  Zn  Zn7  1  0.75000000  0.62500000  0.87500000  1
  Zn  Zn8  1  0.87500000  0.75000000  0.62500000  1
  Zn  Zn9  1  0.87500000  0.62500000  0.25000000  1
  Zn  Zn10  1  0.62500000  0.87500000  0.75000000  1
  Zn  Zn11  1  0.37500000  0.75000000  0.12500000  1
  Si  Si0  1  0.12500000  0.75000000  0.87500000  1
  Si  Si1  1  0.87500000  0.25000000  0.12500000  1
  Si  Si2  1  0.75000000  0.37500000  0.62500000  1
  Si  Si3  1  0.12500000  0.87500000  0.25000000  1
  Si  Si4  1  0.25000000  0.12500000  0.87500000  1
  Si  Si5  1  0.37500000  0.62500000  0.75000000  1
  Si  Si6  1  0.37500000  0.25000000  0.62500000  1
  Si  Si7  1  0.87500000  0.12500000  0.75000000  1
  Si  Si8  1  0.62500000  0.37500000  0.25000000  1
  Si  Si9  1  0.75000000  0.87500000  0.12500000  1
  Si  Si10  1  0.25000000  0.62500000  0.37500000  1
  Si  Si11  1  0.62500000  0.75000000  0.37500000  1
  Ag  Ag0  1  0.50000000  0.00000000  0.00000000  1
  Ag  Ag1  1  0.50000000  0.50000000  0.00000000  1
  Ag  Ag2  1  0.00000000  0.50000000  0.50000000  1
  Ag  Ag3  1  0.00000000  0.00000000  0.50000000  1
  Ag  Ag4  1  0.50000000  0.50000000  0.50000000  1
  Ag  Ag5  1  0.00000000  0.50000000  0.00000000  1
  Ag  Ag6  1  0.50000000  0.00000000  0.50000000  1
  Ag  Ag7  1  0.00000000  0.00000000  0.00000000  1
  O  O0  1  0.59644500  0.89612700  0.36933600  1
  O  O1  1  0.36933600  0.59644500  0.89612700  1
  O  O2  1  0.27289100  0.29968300  0.90355500  1
  O  O3  1  0.47320800  0.60387300  0.20031700  1
  O  O4  1  0.29968300  0.89612700  0.02679200  1
  O  O5  1  0.13066400  0.02679200  0.22710900  1
  O  O6  1  0.36933600  0.27289100  0.47320800  1
  O  O7  1  0.89612700  0.36933600  0.59644500  1
  O  O8  1  0.20031700  0.22710900  0.59644500  1
  O  O9  1  0.47320800  0.36933600  0.27289100  1
  O  O10  1  0.89612700  0.02679200  0.29968300  1
  O  O11  1  0.60387300  0.90355500  0.13066400  1
  O  O12  1  0.90355500  0.13066400  0.60387300  1
  O  O13  1  0.27289100  0.47320800  0.36933600  1
  O  O14  1  0.59644500  0.20031700  0.22710900  1
  O  O15  1  0.22710900  0.59644500  0.20031700  1
  O  O16  1  0.02679200  0.29968300  0.89612700  1
  O  O17  1  0.90355500  0.27289100  0.29968300  1
  O  O18  1  0.02679200  0.22710900  0.13066400  1
  O  O19  1  0.79968300  0.77289100  0.40355500  1
  O  O20  1  0.20031700  0.47320800  0.60387300  1
  O  O21  1  0.60387300  0.20031700  0.47320800  1
  O  O22  1  0.22710900  0.13066400  0.02679200  1
  O  O23  1  0.13066400  0.60387300  0.90355500  1
  O  O24  1  0.40355500  0.10387300  0.63066400  1
  O  O25  1  0.63066400  0.40355500  0.10387300  1
  O  O26  1  0.72710900  0.70031700  0.09644500  1
  O  O27  1  0.52679200  0.39612700  0.79968300  1
  O  O28  1  0.70031700  0.10387300  0.97320800  1
  O  O29  1  0.86933600  0.97320800  0.77289100  1
  O  O30  1  0.63066400  0.72710900  0.52679200  1
  O  O31  1  0.10387300  0.63066400  0.40355500  1
  O  O32  1  0.86933600  0.39612700  0.09644500  1
  O  O33  1  0.77289100  0.86933600  0.97320800  1
  O  O34  1  0.39612700  0.79968300  0.52679200  1
  O  O35  1  0.70031700  0.09644500  0.72710900  1
  O  O36  1  0.79968300  0.52679200  0.39612700  1
  O  O37  1  0.97320800  0.77289100  0.86933600  1
  O  O38  1  0.09644500  0.72710900  0.70031700  1
  O  O39  1  0.97320800  0.70031700  0.10387300  1
  O  O40  1  0.77289100  0.40355500  0.79968300  1
  O  O41  1  0.40355500  0.79968300  0.77289100  1
  O  O42  1  0.72710900  0.52679200  0.63066400  1
  O  O43  1  0.09644500  0.86933600  0.39612700  1
  O  O44  1  0.39612700  0.09644500  0.86933600  1
  O  O45  1  0.10387300  0.97320800  0.70031700  1
  O  O46  1  0.52679200  0.63066400  0.72710900  1
  O  O47  1  0.29968300  0.90355500  0.27289100  1
loop_
_geom_bond_atom_site_label_1
_geom_bond_atom_site_label_2
_geom_bond_distance
_geom_bond_site_symmetry_2
Ag0 O14 2.169484 1_555
Ag0 O41 2.169484 1_544
Ag0 O4 2.169486 1_545
Ag0 O28 2.169486 1_554
Ag0 O44 2.169489 1_554
Ag0 O11 2.169489 1_545
Ag1 O2 2.169484 1_554
Ag1 O26 2.169484 1_555
Ag1 O27 2.169486 1_554
Ag1 O3 2.169486 1_555
Ag1 O1 2.169489 1_554
Ag1 O25 2.169489 1_555
Ag2 O38 2.169484 1_555
Ag2 O17 2.169484 1_455
Ag2 O36 2.169486 1_455
Ag2 O20 2.169486 1_555
Ag2 O31 2.169489 1_555
Ag2 O7 2.169489 1_455
Ag3 O19 2.169484 1_445
Ag3 O8 2.169484 1_555
Ag3 O45 2.169486 1_545
Ag3 O10 2.169486 1_455
Ag3 O12 2.169489 1_455
Ag3 O43 2.169489 1_545
Ag4 O46 2.169484 1_555
Ag4 O30 2.169484 1_555
Ag4 O9 2.169484 1_555
Ag4 O6 2.169484 1_555
Ag4 O42 2.169484 1_555
Ag4 O13 2.169484 1_555
Ag5 O15 2.169484 1_555
Ag5 O40 2.169484 1_454
Ag5 O39 2.169486 1_455
Ag5 O16 2.169486 1_554
Ag5 O23 2.169489 1_554
Ag5 O32 2.169489 1_455
Ag6 O47 2.169484 1_545
Ag6 O35 2.169484 1_555
Ag6 O21 2.169486 1_555
Ag6 O34 2.169486 1_545
Ag6 O0 2.169489 1_545
Ag6 O24 2.169489 1_555
Ag7 O5 2.169484 1_555
Ag7 O29 2.169484 1_444
Ag7 O18 2.169484 1_555
Ag7 O33 2.169484 1_444
Ag7 O37 2.169484 1_444
Ag7 O22 2.169484 1_555
O0 Si11 1.664475 1_555
O0 Zn11 2.302246 1_555
O0 Zn1 2.360111 1_565
O1 Si5 1.664475 1_555
O1 Zn3 2.302246 1_555
O1 Zn11 2.360111 1_556
O2 Si4 1.664485 1_555
O2 Zn0 2.302246 1_556
O2 Zn3 2.360103 1_555
O3 Si11 1.664483 1_555
O3 Zn11 2.302236 1_555
O3 Zn0 2.360109 1_555
O4 Si0 1.664483 1_554
O4 Zn11 2.302236 1_555
O4 Zn2 2.360109 1_565
O5 Si3 1.664485 1_545
O5 Zn2 2.302246 1_555
O5 Zn5 2.360103 1_555
O6 Si6 1.664485 1_555
O6 Zn5 2.302246 1_555
O6 Zn2 2.360103 1_555
O7 Si2 1.664475 1_555
O7 Zn1 2.302246 1_555
O7 Zn3 2.360111 1_655
O8 Si6 1.664485 1_555
O8 Zn5 2.302246 1_555
O8 Zn3 2.360103 1_555
O9 Si8 1.664485 1_555
O9 Zn2 2.302246 1_555
O9 Zn0 2.360103 1_555
O10 Si9 1.664483 1_545
O10 Zn1 2.302236 1_555
O10 Zn5 2.360109 1_655
O11 Si9 1.664475 1_555
O11 Zn1 2.302246 1_565
O11 Zn11 2.360111 1_555
O12 Si7 1.664475 1_555
O12 Zn3 2.302246 1_655
O12 Zn1 2.360111 1_555
O13 Si10 1.664485 1_555
O13 Zn0 2.302246 1_555
O13 Zn5 2.360103 1_555
O14 Si8 1.664485 1_555
O14 Zn2 2.302246 1_555
O14 Zn1 2.360103 1_555
O15 Si10 1.664485 1_555
O15 Zn0 2.302246 1_555
O15 Zn11 2.360103 1_555
O16 Si7 1.664483 1_455
O16 Zn3 2.302236 1_555
O16 Zn0 2.360109 1_556
O17 Si1 1.664485 1_555
O17 Zn5 2.302246 1_655
O17 Zn1 2.360103 1_555
O18 Si1 1.664485 1_455
O18 Zn5 2.302246 1_555
O18 Zn0 2.360103 1_555
O19 Si11 1.664485 1_555
O19 Zn8 2.302246 1_555
O19 Zn9 2.360103 1_555
O20 Si5 1.664483 1_555
O20 Zn3 2.302236 1_555
O20 Zn5 2.360109 1_555
O21 Si2 1.664483 1_555
O21 Zn1 2.302236 1_555
O21 Zn2 2.360109 1_555
O22 Si4 1.664485 1_554
O22 Zn0 2.302246 1_555
O22 Zn2 2.360103 1_555
O23 Si0 1.664475 1_555
O23 Zn11 2.302246 1_556
O23 Zn3 2.360111 1_555
O24 Si6 1.664475 1_555
O24 Zn6 2.302246 1_555
O24 Zn4 2.360111 1_545
O25 Si8 1.664475 1_555
O25 Zn9 2.302246 1_555
O25 Zn6 2.360111 1_554
O26 Si9 1.664485 1_555
O26 Zn7 2.302246 1_554
O26 Zn9 2.360103 1_555
O27 Si6 1.664483 1_555
O27 Zn6 2.302236 1_555
O27 Zn7 2.360109 1_555
O28 Si1 1.664483 1_556
O28 Zn6 2.302236 1_555
O28 Zn10 2.360109 1_545
O29 Si7 1.664485 1_565
O29 Zn10 2.302246 1_555
O29 Zn8 2.360103 1_555
O30 Si11 1.664485 1_555
O30 Zn8 2.302246 1_555
O30 Zn10 2.360103 1_555
O31 Si10 1.664475 1_555
O31 Zn4 2.302246 1_555
O31 Zn9 2.360111 1_455
O32 Si1 1.664475 1_555
O32 Zn6 2.302246 1_554
O32 Zn9 2.360111 1_555
O33 Si9 1.664485 1_556
O33 Zn7 2.302246 1_555
O33 Zn10 2.360103 1_555
O34 Si10 1.664483 1_555
O34 Zn4 2.302236 1_555
O34 Zn10 2.360109 1_555
O35 Si7 1.664485 1_555
O35 Zn10 2.302246 1_545
O35 Zn6 2.360103 1_555
O36 Si8 1.664483 1_555
O36 Zn9 2.302236 1_555
O36 Zn8 2.360109 1_555
O37 Si0 1.664485 1_655
O37 Zn8 2.302246 1_555
O37 Zn7 2.360103 1_555
O38 Si0 1.664485 1_555
O38 Zn8 2.302246 1_455
O38 Zn4 2.360103 1_555
O39 Si3 1.664483 1_655
O39 Zn9 2.302236 1_555
O39 Zn7 2.360109 1_554
O40 Si2 1.664485 1_555
O40 Zn7 2.302246 1_555
O40 Zn6 2.360103 1_555
O41 Si5 1.664485 1_555
O41 Zn10 2.302246 1_555
O41 Zn4 2.360103 1_555
O42 Si2 1.664485 1_555
O42 Zn7 2.302246 1_555
O42 Zn8 2.360103 1_555
O43 Si3 1.664475 1_555
O43 Zn9 2.302246 1_455
O43 Zn4 2.360111 1_555
O44 Si4 1.664475 1_555
O44 Zn4 2.302246 1_545
O44 Zn6 2.360111 1_555
O45 Si4 1.664483 1_565
O45 Zn4 2.302236 1_555
O45 Zn8 2.360109 1_455
O46 Si5 1.664485 1_555
O46 Zn10 2.302246 1_555
O46 Zn7 2.360103 1_555
O47 Si3 1.664485 1_555
O47 Zn2 2.302246 1_565
O47 Zn11 2.360103 1_555
