# generated using pymatgen
data_MnH8C3(NO3)2
_symmetry_space_group_name_H-M   'P 1'
_cell_length_a   8.92832779
_cell_length_b   7.77905665
_cell_length_c   11.60520313
_cell_angle_alpha   90.00000000
_cell_angle_beta   90.00000000
_cell_angle_gamma   90.00000000
_symmetry_Int_Tables_number   1
_chemical_formula_structural   MnH8C3(NO3)2
_chemical_formula_sum   'Mn4 H32 C12 N8 O24'
_cell_volume   806.02740283
_cell_formula_units_Z   4
loop_
 _symmetry_equiv_pos_site_id
 _symmetry_equiv_pos_as_xyz
  1  'x, y, z'
loop_
 _atom_site_type_symbol
 _atom_site_label
 _atom_site_symmetry_multiplicity
 _atom_site_fract_x
 _atom_site_fract_y
 _atom_site_fract_z
 _atom_site_occupancy
  Mn  Mn0  1  0.54525582  0.49883141  0.11035258  1
  Mn  Mn1  1  0.45474421  0.50116862  0.61035256  1
  Mn  Mn2  1  0.04525581  0.00116860  0.11035258  1
  Mn  Mn3  1  0.95474418  0.99883138  0.61035256  1
  H  H0  1  0.34852158  0.18270357  0.11663396  1
  H  H1  1  0.65147844  0.81729641  0.61663393  1
  H  H2  1  0.84852156  0.31729644  0.11663396  1
  H  H3  1  0.15147843  0.68270359  0.61663393  1
  H  H4  1  0.28677658  0.73974533  0.16185905  1
  H  H5  1  0.71322342  0.26025467  0.66185906  1
  H  H6  1  0.78677658  0.76025467  0.16185905  1
  H  H7  1  0.21322341  0.23974531  0.66185906  1
  H  H8  1  0.55698868  0.43032013  0.35999961  1
  H  H9  1  0.44301230  0.56967987  0.85999961  1
  H  H10  1  0.05698869  0.06967985  0.35999961  1
  H  H11  1  0.94301132  0.93032013  0.85999961  1
  H  H12  1  0.08104915  0.62669471  0.30259339  1
  H  H13  1  0.91895084  0.37330529  0.80259342  1
  H  H14  1  0.58104916  0.87330529  0.30259339  1
  H  H15  1  0.41895084  0.12669473  0.80259342  1
  H  H16  1  0.08414451  0.41168253  0.27477685  1
  H  H17  1  0.91585548  0.58831744  0.77477682  1
  H  H18  1  0.58414452  0.08831746  0.27477685  1
  H  H19  1  0.41585548  0.91168256  0.77477682  1
  H  H20  1  0.14823464  0.48475531  0.40244590  1
  H  H21  1  0.85176534  0.51524469  0.90244593  1
  H  H22  1  0.64823466  0.01524470  0.40244590  1
  H  H23  1  0.35176537  0.98475531  0.90244593  1
  H  H24  1  0.90518803  0.60521669  0.42874515  1
  H  H25  1  0.09481196  0.39478331  0.92874518  1
  H  H26  1  0.40518803  0.89478331  0.42874515  1
  H  H27  1  0.59481197  0.10521670  0.92874518  1
  H  H28  1  0.92202360  0.39566781  0.44182560  1
  H  H29  1  0.07797642  0.60433219  0.94182557  1
  H  H30  1  0.42202357  0.10433221  0.44182560  1
  H  H31  1  0.57797640  0.89566781  0.94182557  1
  C  C0  1  0.27668246  0.27830454  0.15926983  1
  C  C1  1  0.72331752  0.72169543  0.65926983  1
  C  C2  1  0.77668248  0.22169546  0.15926983  1
  C  C3  1  0.22331754  0.77830457  0.65926983  1
  C  C4  1  0.33028358  0.79505907  0.08136397  1
  C  C5  1  0.66971642  0.20494090  0.58136398  1
  C  C6  1  0.83028358  0.70494093  0.08136397  1
  C  C7  1  0.16971642  0.29505910  0.58136398  1
  C  C8  1  0.54477812  0.57085938  0.36128508  1
  C  C9  1  0.45522188  0.42914059  0.86128508  1
  C  C10  1  0.04477811  0.92914062  0.36128508  1
  C  C11  1  0.95522188  0.07085940  0.86128508  1
  N  N0  1  0.06878912  0.50426926  0.33804710  1
  N  N1  1  0.93121091  0.49573077  0.83804710  1
  N  N2  1  0.56878909  0.99573074  0.33804710  1
  N  N3  1  0.43121088  0.00426924  0.83804710  1
  N  N4  1  0.91769834  0.49364293  0.38317906  1
  N  N5  1  0.08230167  0.50635707  0.88317906  1
  N  N6  1  0.41769834  0.00635707  0.38317906  1
  N  N7  1  0.58230166  0.99364293  0.88317906  1
  O  O0  1  0.33142407  0.42267042  0.18412081  1
  O  O1  1  0.66857596  0.57732961  0.68412080  1
  O  O2  1  0.83142404  0.07732958  0.18412081  1
  O  O3  1  0.16857593  0.92267039  0.68412080  1
  O  O4  1  0.14180446  0.23597212  0.17969247  1
  O  O5  1  0.85819553  0.76402788  0.67969244  1
  O  O6  1  0.64180447  0.26402788  0.17969247  1
  O  O7  1  0.35819556  0.73597212  0.67969244  1
  O  O8  1  0.44748454  0.73118031  0.03849673  1
  O  O9  1  0.55251549  0.26881971  0.53849675  1
  O  O10  1  0.94748451  0.76881969  0.03849673  1
  O  O11  1  0.05251547  0.23118029  0.53849675  1
  O  O12  1  0.25882180  0.91979321  0.03726272  1
  O  O13  1  0.74117817  0.08020679  0.53726270  1
  O  O14  1  0.75882183  0.58020679  0.03726272  1
  O  O15  1  0.24117819  0.41979321  0.53726270  1
  O  O16  1  0.57101049  0.65152064  0.26843367  1
  O  O17  1  0.42898954  0.34847939  0.76843367  1
  O  O18  1  0.07101046  0.84847936  0.26843367  1
  O  O19  1  0.92898951  0.15152061  0.76843367  1
  O  O20  1  0.50601751  0.64225551  0.45418349  1
  O  O21  1  0.49398246  0.35774449  0.95418346  1
  O  O22  1  0.00601754  0.85774449  0.45418349  1
  O  O23  1  0.99398249  0.14225453  0.95418346  1
loop_
_geom_bond_atom_site_label_1
_geom_bond_atom_site_label_2
_geom_bond_distance
_geom_bond_site_symmetry_2
Mn0 O21 2.167677 1_554
Mn0 O8 2.173546 1_555
Mn0 O6 2.174145 1_555
Mn0 O0 2.174581 1_555
Mn0 O14 2.180834 1_555
Mn0 O16 2.197570 1_555
Mn1 O20 2.167677 1_555
Mn1 O9 2.173545 1_555
Mn1 O7 2.174145 1_555
Mn1 O1 2.174581 1_555
Mn1 O15 2.180835 1_555
Mn1 O17 2.197570 1_555
Mn2 O23 2.167673 1_454
Mn2 O10 2.173546 1_445
Mn2 O4 2.174145 1_555
Mn2 O2 2.174581 1_455
Mn2 O12 2.180834 1_545
Mn2 O18 2.197570 1_545
Mn3 O22 2.167677 1_655
Mn3 O11 2.173546 1_665
Mn3 O5 2.174145 1_555
Mn3 O3 2.174581 1_655
Mn3 O13 2.180834 1_565
Mn3 O19 2.197570 1_565
H12 N0 1.043192 1_555
H13 N1 1.043192 1_555
H14 N2 1.043192 1_555
H15 N3 1.043192 1_555
H16 N0 1.037633 1_555
H17 N1 1.037633 1_555
H18 N2 1.037633 1_545
H19 N3 1.037633 1_565
H20 N0 1.041499 1_555
H21 N1 1.041500 1_555
H22 N2 1.041500 1_545
H23 N3 1.041499 1_565
H24 N4 1.022461 1_555
H25 N5 1.022461 1_555
H26 N6 1.022461 1_565
H27 N7 1.022461 1_545
H28 N4 1.022542 1_555
H29 N5 1.022542 1_555
H30 N6 1.022543 1_555
H31 N7 1.022542 1_555
C0 H0 1.099678 1_555
C0 O0 1.258273 1_555
C0 O4 1.270747 1_555
C1 H1 1.099678 1_555
C1 O1 1.258272 1_555
C1 O5 1.270747 1_555
C2 H2 1.099678 1_555
C2 O2 1.258272 1_555
C2 O6 1.270747 1_555
C3 H3 1.099678 1_555
C3 O3 1.258272 1_555
C3 O7 1.270747 1_555
C4 H4 1.099407 1_555
C4 O8 1.260709 1_555
C4 O12 1.269071 1_555
C5 H5 1.099407 1_555
C5 O9 1.260709 1_555
C5 O13 1.269070 1_555
C6 H6 1.099407 1_555
C6 O10 1.260708 1_555
C6 O14 1.269070 1_555
C7 H7 1.099407 1_555
C7 O11 1.260709 1_555
C7 O15 1.269070 1_555
C8 H8 1.098786 1_555
C8 O20 1.261165 1_555
C8 O16 1.268742 1_555
C9 H9 1.098786 1_555
C9 O21 1.261164 1_555
C9 O17 1.268742 1_555
C10 H10 1.098786 1_565
C10 O22 1.261164 1_555
C10 O18 1.268742 1_555
C11 H11 1.098786 1_545
C11 O23 1.261161 1_555
C11 O19 1.268742 1_555
