# generated using pymatgen
data_LaFeO3
_symmetry_space_group_name_H-M   'P 1'
_cell_length_a   4.04615430
_cell_length_b   6.75993714
_cell_length_c   11.06507041
_cell_angle_alpha   89.99330492
_cell_angle_beta   89.99916333
_cell_angle_gamma   90.02750032
_symmetry_Int_Tables_number   1
_chemical_formula_structural   LaFeO3
_chemical_formula_sum   'La4 Fe4 O12'
_cell_volume   302.64898869
_cell_formula_units_Z   4
loop_
 _symmetry_equiv_pos_site_id
 _symmetry_equiv_pos_as_xyz
  1  'x, y, z'
loop_
 _atom_site_type_symbol
 _atom_site_label
 _atom_site_symmetry_multiplicity
 _atom_site_fract_x
 _atom_site_fract_y
 _atom_site_fract_z
 _atom_site_occupancy
  La  La0  1  0.50038200  0.00021500  0.99999900  1
  La  La1  1  0.99985300  0.49992300  0.99984600  1
  La  La2  1  0.00039400  0.49977700  0.49989100  1
  La  La3  1  0.49974600  0.00014500  0.49988300  1
  Fe  Fe0  1  0.42610400  0.31128300  0.24991000  1
  Fe  Fe1  1  0.57386200  0.68855900  0.74984100  1
  Fe  Fe2  1  0.07461000  0.81126800  0.24992600  1
  Fe  Fe3  1  0.92393700  0.18909000  0.74994400  1
  O  O0  1  0.02364100  0.16586900  0.58383500  1
  O  O1  1  0.41714300  0.01565900  0.25016200  1
  O  O2  1  0.97670600  0.83443600  0.08371900  1
  O  O3  1  0.52382500  0.33410000  0.08361500  1
  O  O4  1  0.52388100  0.33401000  0.41632000  1
  O  O5  1  0.97641200  0.83444400  0.41632300  1
  O  O6  1  0.47615500  0.66555000  0.91631900  1
  O  O7  1  0.58269300  0.98405200  0.75023600  1
  O  O8  1  0.91713300  0.48472200  0.75017700  1
  O  O9  1  0.08318200  0.51558200  0.25018700  1
  O  O10  1  0.47667400  0.66547300  0.58357600  1
  O  O11  1  0.02366800  0.16584500  0.91629100  1
loop_
_geom_bond_atom_site_label_1
_geom_bond_atom_site_label_2
_geom_bond_distance
_geom_bond_site_symmetry_2
La0 O2 2.414605 1_546
La0 O11 2.415347 1_555
La0 O3 2.441218 1_556
La0 O6 2.446486 1_545
La0 O11 2.567468 1_655
La0 O2 2.569255 1_446
La0 O7 2.785798 1_545
La0 O1 2.790452 1_556
La1 O6 2.412359 1_655
La1 O3 2.413115 1_556
La1 O11 2.442311 1_655
La1 O2 2.446258 1_556
La1 O6 2.569021 1_555
La1 O3 2.571478 1_656
La1 O8 2.784713 1_555
La1 O9 2.792503 1_656
La2 O10 2.413296 1_555
La2 O4 2.413788 1_455
La2 O0 2.442592 1_555
La2 O5 2.445876 1_455
La2 O4 2.568977 1_555
La2 O10 2.569999 1_455
La2 O9 2.785250 1_555
La2 O8 2.791680 1_455
La3 O0 2.414791 1_555
La3 O5 2.414866 1_545
La3 O4 2.440779 1_555
La3 O10 2.446202 1_545
La3 O5 2.567363 1_445
La3 O0 2.570867 1_655
La3 O1 2.785294 1_555
La3 O7 2.792548 1_545
Fe0 O3 1.888339 1_555
Fe0 O4 1.889623 1_555
Fe0 O9 1.958148 1_555
Fe0 O1 1.998713 1_555
Fe1 O10 1.887761 1_555
Fe1 O6 1.890406 1_555
Fe1 O8 1.956949 1_555
Fe1 O7 1.997822 1_555
Fe2 O2 1.887783 1_455
Fe2 O5 1.890110 1_455
Fe2 O1 1.956532 1_565
Fe2 O9 1.999138 1_555
Fe3 O0 1.888323 1_655
Fe3 O11 1.890899 1_655
Fe3 O7 1.955938 1_545
Fe3 O8 1.998659 1_555
