# generated using pymatgen
data_Li2MnCoO4
_symmetry_space_group_name_H-M   'P 1'
_cell_length_a   2.98358500
_cell_length_b   5.09323365
_cell_length_c   10.28900959
_cell_angle_alpha   99.05761056
_cell_angle_beta   93.51038819
_cell_angle_gamma   103.05630958
_symmetry_Int_Tables_number   1
_chemical_formula_structural   Li2MnCoO4
_chemical_formula_sum   'Li4 Mn2 Co2 O8'
_cell_volume   149.64828450
_cell_formula_units_Z   2
loop_
 _symmetry_equiv_pos_site_id
 _symmetry_equiv_pos_as_xyz
  1  'x, y, z'
loop_
 _atom_site_type_symbol
 _atom_site_label
 _atom_site_symmetry_multiplicity
 _atom_site_fract_x
 _atom_site_fract_y
 _atom_site_fract_z
 _atom_site_occupancy
  Li  Li0  1  0.49433400  0.49582200  0.75136000  1
  Li  Li1  1  0.00000000  0.50000000  0.00000000  1
  Li  Li2  1  0.50566600  0.50417800  0.24864000  1
  Li  Li3  1  0.00000000  0.50000000  0.50000000  1
  Mn  Mn0  1  0.25680700  0.00551600  0.87462800  1
  Mn  Mn1  1  0.74319300  0.99448400  0.12537200  1
  Co  Co0  1  0.75316500  0.00591000  0.62510600  1
  Co  Co1  1  0.24683500  0.99409000  0.37489400  1
  O  O0  1  0.12910200  0.77751500  0.68936600  1
  O  O1  1  0.60843000  0.77013900  0.94257600  1
  O  O2  1  0.09918800  0.76240400  0.19010800  1
  O  O3  1  0.62856900  0.77201800  0.43759900  1
  O  O4  1  0.90081200  0.23759600  0.80989200  1
  O  O5  1  0.39157000  0.22986100  0.05742400  1
  O  O6  1  0.87089800  0.22248500  0.31063400  1
  O  O7  1  0.37143100  0.22798200  0.56240100  1
loop_
_geom_bond_atom_site_label_1
_geom_bond_atom_site_label_2
_geom_bond_distance
_geom_bond_site_symmetry_2
Li0 O4 2.108045 1_555
Li0 O4 2.134472 1_455
Li0 O0 2.135921 1_555
Li0 O7 2.151037 1_555
Li0 O1 2.185478 1_555
Li0 O0 2.293577 1_655
Li1 O1 2.122428 1_454
Li1 O5 2.122428 1_555
Li1 O2 2.151074 1_555
Li1 O4 2.151074 1_454
Li1 O5 2.190041 1_455
Li1 O1 2.190041 1_554
Li2 O2 2.108045 1_555
Li2 O2 2.134472 1_655
Li2 O6 2.135921 1_555
Li2 O3 2.151037 1_555
Li2 O5 2.185478 1_555
Li2 O6 2.293577 1_455
Li3 O7 2.108656 1_555
Li3 O3 2.108656 1_455
Li3 O0 2.176566 1_555
Li3 O6 2.176566 1_455
Li3 O7 2.258841 1_455
Li3 O3 2.258841 1_555
Mn0 O4 1.922892 1_455
Mn0 O1 1.941360 1_545
Mn0 O5 2.006947 1_556
Mn0 O0 2.035033 1_545
Mn0 O4 2.216134 1_555
Mn0 O1 2.247196 1_445
Mn1 O2 1.922892 1_655
Mn1 O5 1.941360 1_565
Mn1 O1 2.006947 1_554
Mn1 O6 2.035033 1_565
Mn1 O2 2.216134 1_555
Mn1 O5 2.247196 1_665
Co0 O7 1.927314 1_555
Co0 O0 1.946608 1_645
Co0 O4 2.038998 1_555
Co0 O3 2.065872 1_545
Co0 O7 2.128640 1_655
Co0 O0 2.161363 1_545
Co1 O3 1.927314 1_555
Co1 O6 1.946608 1_465
Co1 O2 2.038998 1_555
Co1 O7 2.065872 1_565
Co1 O3 2.128640 1_455
Co1 O6 2.161363 1_565
