# generated using pymatgen
data_Li7Mn2(CoO4)3
_symmetry_space_group_name_H-M   'P 1'
_cell_length_a   4.99030200
_cell_length_b   5.09436476
_cell_length_c   8.87517625
_cell_angle_alpha   90.34390165
_cell_angle_beta   90.70831538
_cell_angle_gamma   108.38198067
_symmetry_Int_Tables_number   1
_chemical_formula_structural   Li7Mn2(CoO4)3
_chemical_formula_sum   'Li7 Mn2 Co3 O12'
_cell_volume   214.08779255
_cell_formula_units_Z   1
loop_
 _symmetry_equiv_pos_site_id
 _symmetry_equiv_pos_as_xyz
  1  'x, y, z'
loop_
 _atom_site_type_symbol
 _atom_site_label
 _atom_site_symmetry_multiplicity
 _atom_site_fract_x
 _atom_site_fract_y
 _atom_site_fract_z
 _atom_site_occupancy
  Li  Li0  1  0.00000000  0.50000000  0.00000000  1
  Li  Li1  1  0.49340800  0.49554900  0.17087100  1
  Li  Li2  1  0.99953400  0.50241900  0.34561600  1
  Li  Li3  1  0.50000000  0.50000000  0.50000000  1
  Li  Li4  1  0.00046600  0.49758100  0.65438400  1
  Li  Li5  1  0.50659200  0.50445100  0.82912900  1
  Li  Li6  1  0.00000000  0.00000000  0.50000000  1
  Mn  Mn0  1  0.00257500  0.00476600  0.83173000  1
  Mn  Mn1  1  0.99742500  0.99523400  0.16827000  1
  Co  Co0  1  0.50000000  0.00000000  0.00000000  1
  Co  Co1  1  0.49330800  0.99437600  0.34109300  1
  Co  Co2  1  0.50669200  0.00562400  0.65890700  1
  O  O0  1  0.25671400  0.78227900  0.84569400  1
  O  O1  1  0.76308400  0.78417300  0.99659900  1
  O  O2  1  0.22936200  0.76404500  0.16744200  1
  O  O3  1  0.74960500  0.77720300  0.31464400  1
  O  O4  1  0.27642600  0.75624200  0.50160400  1
  O  O5  1  0.75872200  0.77912900  0.68296700  1
  O  O6  1  0.74328600  0.21772100  0.15430600  1
  O  O7  1  0.24127800  0.22087100  0.31703300  1
  O  O8  1  0.72357400  0.24375800  0.49839600  1
  O  O9  1  0.25039500  0.22279700  0.68535600  1
  O  O10  1  0.77063800  0.23595500  0.83255800  1
  O  O11  1  0.23691600  0.21582700  0.00340100  1
loop_
_geom_bond_atom_site_label_1
_geom_bond_atom_site_label_2
_geom_bond_distance
_geom_bond_site_symmetry_2
Li0 O10 2.071427 1_454
Li0 O2 2.071427 1_555
Li0 O0 2.118899 1_554
Li0 O6 2.118899 1_455
Li0 O1 2.138601 1_454
Li0 O11 2.138601 1_555
Li1 O3 2.025401 1_555
Li1 O7 2.043436 1_555
Li1 O11 2.157613 1_555
Li1 O6 2.166780 1_555
Li1 O2 2.178151 1_555
Li1 O1 2.279486 1_554
Li2 O4 2.074191 1_655
Li2 O8 2.096318 1_555
Li2 O7 2.161353 1_655
Li2 O3 2.165179 1_555
Li2 O2 2.167588 1_655
Li2 O6 2.317039 1_555
Li3 O4 1.966666 1_555
Li3 O8 1.966666 1_555
Li3 O7 2.255758 1_555
Li3 O5 2.255758 1_555
Li3 O9 2.284984 1_555
Li3 O3 2.284984 1_555
Li4 O8 2.074191 1_455
Li4 O4 2.096318 1_555
Li4 O5 2.161353 1_455
Li4 O9 2.165179 1_555
Li4 O10 2.167588 1_455
Li4 O0 2.317039 1_555
Li5 O9 2.025401 1_555
Li5 O5 2.043436 1_555
Li5 O1 2.157613 1_555
Li5 O0 2.166780 1_555
Li5 O10 2.178151 1_555
Li5 O11 2.279486 1_556
Li6 O4 2.127262 1_545
Li6 O8 2.127262 1_455
Li6 O7 2.137416 1_555
Li6 O5 2.137416 1_445
Li6 O9 2.141992 1_555
Li6 O3 2.141992 1_445
Mn0 O10 1.893858 1_455
Mn0 O5 1.898727 1_445
Mn0 O9 1.908265 1_555
Mn0 O0 1.952648 1_545
Mn0 O11 1.997073 1_556
Mn0 O1 2.012015 1_445
Mn1 O2 1.893858 1_655
Mn1 O7 1.898727 1_665
Mn1 O3 1.908265 1_555
Mn1 O6 1.952648 1_565
Mn1 O1 1.997073 1_554
Mn1 O11 2.012015 1_665
Co0 O6 1.916000 1_555
Co0 O0 1.916000 1_544
Co0 O1 1.960724 1_544
Co0 O11 1.960724 1_555
Co0 O10 2.127092 1_554
Co0 O2 2.127092 1_545
Co1 O3 1.952368 1_555
Co1 O7 1.967328 1_565
Co1 O8 1.975305 1_565
Co1 O4 1.975662 1_555
Co1 O2 2.107213 1_555
Co1 O6 2.185756 1_565
Co2 O9 1.952368 1_555
Co2 O5 1.967328 1_545
Co2 O4 1.975305 1_545
Co2 O8 1.975662 1_555
Co2 O10 2.107213 1_555
Co2 O0 2.185756 1_545
