# generated using pymatgen
data_Ba5Gd8Zn4O21
_symmetry_space_group_name_H-M   'P 1'
_cell_length_a   10.35178530
_cell_length_b   10.35178530
_cell_length_c   10.35178530
_cell_angle_alpha   94.52569342
_cell_angle_beta   94.52569342
_cell_angle_gamma   147.37186358
_symmetry_Int_Tables_number   1
_chemical_formula_structural   Ba5Gd8Zn4O21
_chemical_formula_sum   'Ba5 Gd8 Zn4 O21'
_cell_volume   574.03060807
_cell_formula_units_Z   1
loop_
 _symmetry_equiv_pos_site_id
 _symmetry_equiv_pos_as_xyz
  1  'x, y, z'
loop_
 _atom_site_type_symbol
 _atom_site_label
 _atom_site_symmetry_multiplicity
 _atom_site_fract_x
 _atom_site_fract_y
 _atom_site_fract_z
 _atom_site_occupancy
  Ba  Ba0  1  0.53338900  0.86155100  0.39493900  1
  Ba  Ba1  1  0.86155100  0.46661100  0.32816200  1
  Ba  Ba2  1  0.13844900  0.53338900  0.67183800  1
  Ba  Ba3  1  0.46661100  0.13844900  0.60506100  1
  Ba  Ba4  1  0.00000000  0.00000000  0.00000000  1
  Gd  Gd0  1  0.41095800  0.64266300  0.05362100  1
  Gd  Gd1  1  0.64266300  0.58904200  0.23170500  1
  Gd  Gd2  1  0.35733700  0.41095800  0.76829500  1
  Gd  Gd3  1  0.58904200  0.35733700  0.94637900  1
  Gd  Gd4  1  0.24739500  0.83281100  0.08020600  1
  Gd  Gd5  1  0.83281100  0.75260500  0.58541600  1
  Gd  Gd6  1  0.16718900  0.24739500  0.41458400  1
  Gd  Gd7  1  0.75260500  0.16718900  0.91979400  1
  Zn  Zn0  1  0.04095500  0.74760700  0.78856100  1
  Zn  Zn1  1  0.74760700  0.95904500  0.70665200  1
  Zn  Zn2  1  0.25239300  0.04095500  0.29334800  1
  Zn  Zn3  1  0.95904500  0.25239300  0.21143900  1
  O  O0  1  0.90147600  0.49509000  0.88863100  1
  O  O1  1  0.49509000  0.60646000  0.59361400  1
  O  O2  1  0.01284600  0.90147600  0.40638600  1
  O  O3  1  0.60646000  0.01284600  0.11136900  1
  O  O4  1  0.09852400  0.50491000  0.11136900  1
  O  O5  1  0.50491000  0.39354000  0.40638600  1
  O  O6  1  0.98715400  0.09852400  0.59361400  1
  O  O7  1  0.39354000  0.98715400  0.88863100  1
  O  O8  1  0.06990000  0.29527400  0.86835900  1
  O  O9  1  0.29527400  0.42691600  0.22537500  1
  O  O10  1  0.20154100  0.06990000  0.77462500  1
  O  O11  1  0.42691600  0.20154100  0.13164100  1
  O  O12  1  0.93010000  0.70472600  0.13164100  1
  O  O13  1  0.70472600  0.57308400  0.77462500  1
  O  O14  1  0.79845900  0.93010000  0.22537500  1
  O  O15  1  0.57308400  0.79845900  0.86835900  1
  O  O16  1  0.62649100  0.03460200  0.66109300  1
  O  O17  1  0.50000000  0.50000000  0.00000000  1
  O  O18  1  0.37350900  0.96539800  0.33890700  1
  O  O19  1  0.96539800  0.62649100  0.59188900  1
  O  O20  1  0.03460200  0.37350900  0.40811100  1
loop_
_geom_bond_atom_site_label_1
_geom_bond_atom_site_label_2
_geom_bond_distance
_geom_bond_site_symmetry_2
Ba0 O18 2.678607 1_555
Ba0 O16 2.760957 1_565
Ba0 O20 2.912738 1_665
Ba0 O20 2.912744 1_555
Ba0 O9 2.964928 1_555
Ba0 O14 2.964930 1_555
Ba0 O6 3.253043 1_565
Ba0 O1 3.253045 1_555
Ba0 O3 3.274517 1_565
Ba0 O4 3.274517 1_555
Ba1 O19 2.678609 1_555
Ba1 O20 2.760947 1_655
Ba1 O18 2.912741 1_545
Ba1 O18 2.912741 1_655
Ba1 O11 2.964937 1_555
Ba1 O12 2.964944 1_555
Ba1 O3 3.253043 1_555
Ba1 O4 3.253046 1_655
Ba1 O2 3.274517 1_655
Ba1 O5 3.274517 1_555
Ba2 O20 2.678609 1_555
Ba2 O19 2.760947 1_455
Ba2 O16 2.912741 1_455
Ba2 O16 2.912741 1_565
Ba2 O15 2.964937 1_555
Ba2 O8 2.964944 1_555
Ba2 O7 3.253043 1_555
Ba2 O0 3.253046 1_455
Ba2 O1 3.274517 1_555
Ba2 O6 3.274517 1_455
Ba3 O16 2.678607 1_555
Ba3 O18 2.760957 1_545
Ba3 O19 2.912738 1_445
Ba3 O19 2.912744 1_555
Ba3 O13 2.964928 1_555
Ba3 O10 2.964930 1_555
Ba3 O2 3.253043 1_545
Ba3 O5 3.253045 1_555
Ba3 O0 3.274517 1_555
Ba3 O7 3.274517 1_545
Ba4 O17 2.907841 1_555
Ba4 O17 2.907841 1_445
Ba4 O12 2.968337 1_445
Ba4 O8 2.968337 1_554
Ba4 O11 2.968346 1_555
Ba4 O10 2.968346 1_554
Ba4 O15 2.968346 1_444
Ba4 O14 2.968346 1_445
Ba4 O9 2.968349 1_555
Ba4 O13 2.968349 1_444
Gd0 O4 2.349994 1_555
Gd0 O3 2.349997 1_565
Gd0 O15 2.352140 1_554
Gd0 O8 2.352143 1_554
Gd0 O17 2.362823 1_555
Gd0 O9 2.457823 1_555
Gd0 O14 2.457825 1_555
Gd1 O5 2.349998 1_555
Gd1 O2 2.349998 1_655
Gd1 O14 2.352140 1_555
Gd1 O9 2.352150 1_555
Gd1 O17 2.362823 1_555
Gd1 O12 2.457820 1_555
Gd1 O11 2.457825 1_555
Gd2 O6 2.349998 1_455
Gd2 O1 2.349998 1_555
Gd2 O10 2.352140 1_555
Gd2 O13 2.352150 1_555
Gd2 O17 2.362823 1_556
Gd2 O8 2.457820 1_555
Gd2 O15 2.457825 1_555
Gd3 O0 2.349994 1_555
Gd3 O7 2.349997 1_545
Gd3 O11 2.352140 1_556
Gd3 O12 2.352143 1_556
Gd3 O17 2.362823 1_556
Gd3 O13 2.457823 1_555
Gd3 O10 2.457825 1_555
Gd4 O4 2.332595 1_555
Gd4 O3 2.332599 1_565
Gd4 O7 2.382534 1_554
Gd4 O0 2.382538 1_454
Gd4 O11 2.425238 1_565
Gd4 O12 2.425244 1_455
Gd4 O18 2.570995 1_555
Gd5 O2 2.332598 1_655
Gd5 O5 2.332598 1_555
Gd5 O6 2.382544 1_565
Gd5 O1 2.382544 1_555
Gd5 O10 2.425238 1_665
Gd5 O13 2.425238 1_555
Gd5 O19 2.570995 1_555
Gd6 O6 2.332598 1_455
Gd6 O1 2.332598 1_555
Gd6 O5 2.382544 1_555
Gd6 O2 2.382544 1_545
Gd6 O14 2.425238 1_445
Gd6 O9 2.425238 1_555
Gd6 O20 2.570995 1_555
Gd7 O0 2.332595 1_555
Gd7 O7 2.332599 1_545
Gd7 O3 2.382534 1_556
Gd7 O4 2.382538 1_656
Gd7 O15 2.425238 1_545
Gd7 O8 2.425244 1_655
Gd7 O16 2.570995 1_555
O0 Zn0 2.072909 1_655
O1 Zn1 2.072895 1_555
O2 Zn2 2.072895 1_565
O3 Zn3 2.072901 1_555
O4 Zn3 2.072909 1_455
O5 Zn2 2.072895 1_555
O6 Zn1 2.072895 1_545
O7 Zn0 2.072901 1_555
O8 Zn1 2.165002 1_445
O9 Zn3 2.164996 1_455
O10 Zn0 2.165002 1_545
O11 Zn2 2.165004 1_555
O12 Zn2 2.165002 1_665
O13 Zn0 2.164996 1_655
O14 Zn3 2.165002 1_565
O15 Zn1 2.165004 1_555
O16 Zn1 2.005683 1_545
O18 Zn2 2.005683 1_565
O19 Zn0 2.005674 1_655
O20 Zn3 2.005674 1_455
