# generated using pymatgen
data_PaSi3
_symmetry_space_group_name_H-M   'P 1'
_cell_length_a   5.89375637
_cell_length_b   5.89375637
_cell_length_c   4.47571205
_cell_angle_alpha   90.00000000
_cell_angle_beta   90.00000000
_cell_angle_gamma   120.00000905
_symmetry_Int_Tables_number   1
_chemical_formula_structural   PaSi3
_chemical_formula_sum   'Pa2 Si6'
_cell_volume   134.64092556
_cell_formula_units_Z   2
loop_
 _symmetry_equiv_pos_site_id
 _symmetry_equiv_pos_as_xyz
  1  'x, y, z'
loop_
 _atom_site_type_symbol
 _atom_site_label
 _atom_site_symmetry_multiplicity
 _atom_site_fract_x
 _atom_site_fract_y
 _atom_site_fract_z
 _atom_site_occupancy
  Pa  Pa0  1  0.66666700  0.33333300  0.25000000  1
  Pa  Pa1  1  0.33333300  0.66666700  0.75000000  1
  Si  Si0  1  0.85727410  0.14272590  0.75000000  1
  Si  Si1  1  0.28545279  0.14272590  0.75000000  1
  Si  Si2  1  0.85727410  0.71454721  0.75000000  1
  Si  Si3  1  0.14273014  0.85726986  0.25000000  1
  Si  Si4  1  0.71453872  0.85726986  0.25000000  1
  Si  Si5  1  0.14273014  0.28546128  0.25000000  1
loop_
_geom_bond_atom_site_label_1
_geom_bond_atom_site_label_2
_geom_bond_distance
_geom_bond_site_symmetry_2
Pa0 Si4 2.956985 1_545
Pa0 Si5 2.956985 1_655
Pa0 Si3 2.956991 1_545
Pa0 Si3 2.956991 1_655
Pa0 Si5 2.956997 1_555
Pa0 Si4 2.956997 1_555
Pa0 Si2 2.965472 1_555
Pa0 Si1 2.965472 1_554
Pa0 Si2 2.965472 1_554
Pa0 Si1 2.965472 1_555
Pa0 Si0 2.965473 1_555
Pa0 Si0 2.965473 1_554
Pa1 Si1 2.956989 1_565
Pa1 Si2 2.956989 1_455
Pa1 Si0 2.956995 1_565
Pa1 Si0 2.956995 1_455
Pa1 Si2 2.957000 1_555
Pa1 Si1 2.957000 1_555
Pa1 Si5 2.965444 1_556
Pa1 Si4 2.965444 1_556
Pa1 Si4 2.965444 1_555
Pa1 Si5 2.965444 1_555
Pa1 Si3 2.965444 1_556
Pa1 Si3 2.965444 1_555
Si0 Si2 2.523581 1_545
Si0 Si1 2.523581 1_655
Si0 Si4 2.670369 1_545
Si0 Si4 2.670369 1_546
Si0 Si5 2.670369 1_656
Si0 Si5 2.670369 1_655
Si1 Si2 2.523581 1_445
Si1 Si3 2.670369 1_545
Si1 Si3 2.670369 1_546
Si1 Si5 2.670375 1_555
Si1 Si5 2.670375 1_556
Si2 Si3 2.670369 1_656
Si2 Si3 2.670369 1_655
Si2 Si4 2.670375 1_556
Si2 Si4 2.670375 1_555
Si3 Si5 2.523656 1_565
Si3 Si4 2.523656 1_455
Si4 Si5 2.523656 1_665
