# generated using pymatgen
data_V2Co2PbO8
_symmetry_space_group_name_H-M   'P 1'
_cell_length_a   8.58850300
_cell_length_b   9.86571957
_cell_length_c   9.86571957
_cell_angle_alpha   79.07872824
_cell_angle_beta   64.19752281
_cell_angle_gamma   64.19752281
_symmetry_Int_Tables_number   1
_chemical_formula_structural   V2Co2PbO8
_chemical_formula_sum   'V8 Co8 Pb4 O32'
_cell_volume   677.56265400
_cell_formula_units_Z   4
loop_
 _symmetry_equiv_pos_site_id
 _symmetry_equiv_pos_as_xyz
  1  'x, y, z'
loop_
 _atom_site_type_symbol
 _atom_site_label
 _atom_site_symmetry_multiplicity
 _atom_site_fract_x
 _atom_site_fract_y
 _atom_site_fract_z
 _atom_site_occupancy
  V  V0  1  0.96077900  0.31794600  0.15853400  1
  V  V1  1  0.93726000  0.84146600  0.68205400  1
  V  V2  1  0.52872500  0.65853400  0.18205400  1
  V  V3  1  0.02872500  0.18205400  0.65853400  1
  V  V4  1  0.43726000  0.68205400  0.84146600  1
  V  V5  1  0.46077900  0.15853400  0.31794600  1
  V  V6  1  0.36931300  0.34146600  0.81794600  1
  V  V7  1  0.86931300  0.81794600  0.34146600  1
  Co  Co0  1  0.89454600  0.50272800  0.83861400  1
  Co  Co1  1  0.73588800  0.16138600  0.49727200  1
  Co  Co2  1  0.64727400  0.33861400  0.99727200  1
  Co  Co3  1  0.14727400  0.99727200  0.33861400  1
  Co  Co4  1  0.23588800  0.49727200  0.16138600  1
  Co  Co5  1  0.39454600  0.83861400  0.50272800  1
  Co  Co6  1  0.98316000  0.66138600  0.00272800  1
  Co  Co7  1  0.48316000  0.00272800  0.66138600  1
  Pb  Pb0  1  0.73323900  0.50000000  0.50000000  1
  Pb  Pb1  1  0.23323900  0.50000000  0.50000000  1
  Pb  Pb2  1  0.48323900  0.00000000  0.00000000  1
  Pb  Pb3  1  0.98323900  0.00000000  0.00000000  1
  O  O0  1  0.94554800  0.84645400  0.85628600  1
  O  O1  1  0.14828800  0.14371400  0.15354600  1
  O  O2  1  0.04200200  0.35628600  0.65354600  1
  O  O3  1  0.54200200  0.65354600  0.35628600  1
  O  O4  1  0.64828800  0.15354600  0.14371400  1
  O  O5  1  0.44554800  0.85628600  0.84645400  1
  O  O6  1  0.05183300  0.64371400  0.34645400  1
  O  O7  1  0.55183300  0.34645400  0.64371400  1
  O  O8  1  0.65071600  0.83360700  0.48737400  1
  O  O9  1  0.47169800  0.51262600  0.16639300  1
  O  O10  1  0.73432400  0.98737400  0.66639300  1
  O  O11  1  0.23432400  0.66639300  0.98737400  1
  O  O12  1  0.97169800  0.16639300  0.51262600  1
  O  O13  1  0.15071600  0.48737400  0.83360700  1
  O  O14  1  0.38809000  0.01262600  0.33360700  1
  O  O15  1  0.88809000  0.33360700  0.01262600  1
  O  O16  1  0.23468100  0.02579700  0.65720000  1
  O  O17  1  0.41767700  0.34280000  0.97420300  1
  O  O18  1  0.51047700  0.15720000  0.47420300  1
  O  O19  1  0.01047700  0.47420300  0.15720000  1
  O  O20  1  0.91767700  0.97420300  0.34280000  1
  O  O21  1  0.73468100  0.65720000  0.02579700  1
  O  O22  1  0.14188100  0.84280000  0.52579700  1
  O  O23  1  0.64188100  0.52579700  0.84280000  1
  O  O24  1  0.92537600  0.67102200  0.67850700  1
  O  O25  1  0.77490500  0.32149300  0.32897800  1
  O  O26  1  0.84639800  0.17850700  0.82897800  1
  O  O27  1  0.34639800  0.82897800  0.17850700  1
  O  O28  1  0.27490500  0.32897800  0.32149300  1
  O  O29  1  0.42537600  0.67850700  0.67102200  1
  O  O30  1  0.85388300  0.82149300  0.17102200  1
  O  O31  1  0.35388300  0.17102200  0.82149300  1
loop_
_geom_bond_atom_site_label_1
_geom_bond_atom_site_label_2
_geom_bond_distance
_geom_bond_site_symmetry_2
Co0 O23 2.063509 1_555
Co0 O24 2.084884 1_555
Co0 O2 2.102050 1_655
Co0 O13 2.117546 1_655
Co0 O15 2.155575 1_556
Co0 O21 2.157665 1_556
Co1 O18 2.063518 1_555
Co1 O25 2.084884 1_555
Co1 O7 2.102050 1_555
Co1 O12 2.117554 1_555
Co1 O10 2.155574 1_545
Co1 O20 2.157665 1_545
Co2 O17 2.063518 1_555
Co2 O26 2.084884 1_555
Co2 O4 2.102050 1_556
Co2 O15 2.117546 1_556
Co2 O9 2.155574 1_556
Co2 O23 2.157665 1_555
Co3 O20 2.063518 1_455
Co3 O27 2.084884 1_555
Co3 O1 2.102050 1_565
Co3 O14 2.117546 1_565
Co3 O12 2.155574 1_465
Co3 O22 2.157665 1_555
Co4 O19 2.063518 1_555
Co4 O28 2.084884 1_555
Co4 O6 2.102050 1_555
Co4 O9 2.117554 1_555
Co4 O11 2.155574 1_554
Co4 O17 2.157665 1_554
Co5 O22 2.063509 1_555
Co5 O29 2.084884 1_555
Co5 O3 2.102050 1_555
Co5 O8 2.117546 1_555
Co5 O14 2.155575 1_565
Co5 O16 2.157665 1_565
Co6 O21 2.063509 1_555
Co6 O30 2.084884 1_555
Co6 O0 2.102050 1_554
Co6 O11 2.117554 1_654
Co6 O13 2.155575 1_654
Co6 O19 2.157665 1_655
Co7 O16 2.063509 1_555
Co7 O31 2.084884 1_555
Co7 O5 2.102050 1_545
Co7 O10 2.117554 1_545
Co7 O8 2.155575 1_545
Co7 O18 2.157665 1_555
O0 V1 1.761762 1_555
O0 Pb3 2.459693 1_566
O1 V0 1.761766 1_455
O1 Pb2 2.459693 1_555
O2 V3 1.761766 1_555
O2 Pb1 2.459693 1_555
O3 V2 1.761766 1_555
O3 Pb0 2.459693 1_555
O4 V5 1.761766 1_555
O4 Pb3 2.459693 1_555
O5 V4 1.761762 1_555
O5 Pb2 2.459693 1_566
O6 V7 1.761762 1_455
O6 Pb1 2.459699 1_555
O7 V6 1.761762 1_555
O7 Pb0 2.459699 1_555
O8 V7 1.760626 1_555
O9 V2 1.760621 1_555
O10 V1 1.760626 1_555
O11 V4 1.760626 1_555
O12 V3 1.760621 1_655
O13 V6 1.760626 1_555
O14 V5 1.760626 1_555
O15 V0 1.760626 1_555
O16 V3 1.766099 1_555
O17 V6 1.766094 1_555
O18 V5 1.766094 1_555
O19 V0 1.766094 1_455
O20 V7 1.766094 1_555
O21 V2 1.766099 1_555
O22 V1 1.766094 1_455
O23 V4 1.766094 1_555
O24 V1 1.736110 1_555
O24 Pb1 2.475491 1_655
O25 V0 1.736106 1_555
O25 Pb0 2.475491 1_555
O26 V3 1.736106 1_655
O26 Pb3 2.475491 1_556
O27 V2 1.736106 1_555
O27 Pb2 2.475491 1_565
O28 V5 1.736106 1_555
O28 Pb1 2.475491 1_555
O29 V4 1.736110 1_555
O29 Pb0 2.475491 1_555
O30 V7 1.736106 1_555
O30 Pb3 2.475491 1_565
O31 V6 1.736106 1_555
O31 Pb2 2.475491 1_556
