# generated using pymatgen
data_Sc15(In5Rh2)4
_symmetry_space_group_name_H-M   'P 1'
_cell_length_a   7.11293000
_cell_length_b   7.71221900
_cell_length_c   33.66303177
_cell_angle_alpha   83.51118161
_cell_angle_beta   90.00000000
_cell_angle_gamma   90.00000000
_symmetry_Int_Tables_number   1
_chemical_formula_structural   Sc15(In5Rh2)4
_chemical_formula_sum   'Sc30 In40 Rh16'
_cell_volume   1834.80554714
_cell_formula_units_Z   2
loop_
 _symmetry_equiv_pos_site_id
 _symmetry_equiv_pos_as_xyz
  1  'x, y, z'
loop_
 _atom_site_type_symbol
 _atom_site_label
 _atom_site_symmetry_multiplicity
 _atom_site_fract_x
 _atom_site_fract_y
 _atom_site_fract_z
 _atom_site_occupancy
  Sc  Sc0  1  0.00000000  0.01822400  0.19241400  1
  Sc  Sc1  1  0.00000000  0.41753800  0.39213400  1
  Sc  Sc2  1  0.00000000  0.81778200  0.59206400  1
  Sc  Sc3  1  0.00000000  0.21625200  0.79237200  1
  Sc  Sc4  1  0.00000000  0.60913600  0.99203300  1
  Sc  Sc5  1  0.00000000  0.13010000  0.08336500  1
  Sc  Sc6  1  0.00000000  0.52150700  0.28105000  1
  Sc  Sc7  1  0.00000000  0.92270200  0.48117400  1
  Sc  Sc8  1  0.00000000  0.32225500  0.68104700  1
  Sc  Sc9  1  0.00000000  0.72336200  0.88090100  1
  Sc  Sc10  1  0.00000000  0.65874900  0.12656600  1
  Sc  Sc11  1  0.00000000  0.06037500  0.32688600  1
  Sc  Sc12  1  0.00000000  0.46092900  0.52693700  1
  Sc  Sc13  1  0.00000000  0.85993600  0.72692600  1
  Sc  Sc14  1  0.00000000  0.26566300  0.92492300  1
  Sc  Sc15  1  0.50000000  0.98564100  0.19066200  1
  Sc  Sc16  1  0.50000000  0.38555300  0.39019100  1
  Sc  Sc17  1  0.50000000  0.78545400  0.59024600  1
  Sc  Sc18  1  0.50000000  0.18518000  0.78996300  1
  Sc  Sc19  1  0.50000000  0.60886400  0.99176500  1
  Sc  Sc20  1  0.50000000  0.12599800  0.08489100  1
  Sc  Sc21  1  0.50000000  0.52991100  0.28886900  1
  Sc  Sc22  1  0.50000000  0.92998200  0.48866800  1
  Sc  Sc23  1  0.50000000  0.33015100  0.68857500  1
  Sc  Sc24  1  0.50000000  0.73033400  0.88734400  1
  Sc  Sc25  1  0.50000000  0.68333600  0.12193700  1
  Sc  Sc26  1  0.50000000  0.08418200  0.32062900  1
  Sc  Sc27  1  0.50000000  0.48455800  0.52057700  1
  Sc  Sc28  1  0.50000000  0.88432300  0.72047100  1
  Sc  Sc29  1  0.50000000  0.26826500  0.92373600  1
  In  In0  1  0.74782100  0.26579000  0.00049100  1
  In  In1  1  0.73044300  0.65093900  0.20056100  1
  In  In2  1  0.72916600  0.05088600  0.40042000  1
  In  In3  1  0.72887100  0.45074500  0.60043100  1
  In  In4  1  0.73031600  0.85071000  0.80021700  1
  In  In5  1  0.72840900  0.29888000  0.14960400  1
  In  In6  1  0.73035300  0.70082600  0.34959400  1
  In  In7  1  0.72980400  0.10092600  0.54953700  1
  In  In8  1  0.73059800  0.50041300  0.74970400  1
  In  In9  1  0.75177400  0.89669600  0.94623300  1
  In  In10  1  0.75226700  0.84127200  0.05315100  1
  In  In11  1  0.72888900  0.24942000  0.25013800  1
  In  In12  1  0.72903500  0.64971200  0.45006000  1
  In  In13  1  0.72913900  0.04959900  0.65003800  1
  In  In14  1  0.72877700  0.44886900  0.85061600  1
  In  In15  1  0.25217900  0.26579000  0.00049100  1
  In  In16  1  0.26955700  0.65093900  0.20056100  1
  In  In17  1  0.27083400  0.05088600  0.40042000  1
  In  In18  1  0.27112900  0.45074500  0.60043100  1
  In  In19  1  0.26968400  0.85071000  0.80021700  1
  In  In20  1  0.27159100  0.29888000  0.14960400  1
  In  In21  1  0.26964700  0.70082600  0.34959400  1
  In  In22  1  0.27019600  0.10092600  0.54953700  1
  In  In23  1  0.26940200  0.50041300  0.74970400  1
  In  In24  1  0.24822600  0.89669600  0.94623300  1
  In  In25  1  0.24773300  0.84127200  0.05315100  1
  In  In26  1  0.27111100  0.24942000  0.25013800  1
  In  In27  1  0.27096500  0.64971200  0.45006000  1
  In  In28  1  0.27086100  0.04959900  0.65003800  1
  In  In29  1  0.27122300  0.44886900  0.85061600  1
  In  In30  1  0.75096300  0.46526300  0.06764500  1
  In  In31  1  0.76449100  0.86608100  0.26671000  1
  In  In32  1  0.76418100  0.26655300  0.46661300  1
  In  In33  1  0.76493700  0.66636700  0.66657600  1
  In  In34  1  0.75834700  0.06869800  0.86551200  1
  In  In35  1  0.24903700  0.46526300  0.06764500  1
  In  In36  1  0.23550900  0.86608100  0.26671000  1
  In  In37  1  0.23581900  0.26655300  0.46661300  1
  In  In38  1  0.23506300  0.66636700  0.66657600  1
  In  In39  1  0.24165300  0.06869800  0.86551200  1
  Rh  Rh0  1  0.75998900  0.93256500  0.13361100  1
  Rh  Rh1  1  0.76179200  0.33247900  0.33327300  1
  Rh  Rh2  1  0.76164600  0.73252400  0.53330400  1
  Rh  Rh3  1  0.76171200  0.13218200  0.73306700  1
  Rh  Rh4  1  0.75410100  0.53215000  0.93349500  1
  Rh  Rh5  1  0.24001100  0.93256500  0.13361100  1
  Rh  Rh6  1  0.23820800  0.33247900  0.33327300  1
  Rh  Rh7  1  0.23835400  0.73252400  0.53330400  1
  Rh  Rh8  1  0.23828800  0.13218200  0.73306700  1
  Rh  Rh9  1  0.24589900  0.53215000  0.93349500  1
  Rh  Rh10  1  0.00000000  0.99995400  0.99965000  1
  Rh  Rh11  1  0.00000000  0.39787700  0.20002400  1
  Rh  Rh12  1  0.00000000  0.79951200  0.40002900  1
  Rh  Rh13  1  0.00000000  0.19937800  0.59985200  1
  Rh  Rh14  1  0.00000000  0.59852000  0.80016000  1
  Rh  Rh15  1  0.50000000  0.99742900  0.99976400  1
loop_
_geom_bond_atom_site_label_1
_geom_bond_atom_site_label_2
_geom_bond_distance
_geom_bond_site_symmetry_2
In0 Rh15 2.720802 1_544
In0 Rh10 2.726656 1_644
In0 Rh4 2.874205 1_554
In0 In30 2.874626 1_555
In0 Sc14 3.112748 1_654
In0 Sc29 3.126100 1_554
In0 Sc19 3.165191 1_554
In0 Sc4 3.184309 1_654
In0 Sc5 3.381665 1_655
In0 Sc20 3.413125 1_555
In1 Rh11 2.737427 1_655
In1 In31 2.933475 1_555
In1 Rh0 2.955428 1_555
In1 Sc15 3.044083 1_555
In1 Sc25 3.099166 1_555
In1 Sc10 3.138546 1_655
In1 In16 3.278250 1_555
In1 In11 3.347579 1_555
In1 In5 3.371564 1_555
In1 Sc6 3.376792 1_655
In1 Sc0 3.405782 1_665
In1 Sc21 3.430430 1_555
In2 Rh12 2.734121 1_645
In2 In32 2.937907 1_555
In2 Rh1 2.961410 1_555
In2 Sc16 3.039148 1_555
In2 Sc26 3.127574 1_555
In2 Sc11 3.130976 1_655
In2 In6 3.355600 1_545
In2 Sc7 3.386862 1_645
In2 Sc1 3.406836 1_655
In2 Sc22 3.424243 1_545
In3 Rh13 2.736106 1_655
In3 In33 2.936996 1_555
In3 Rh2 2.961964 1_555
In3 Sc17 3.038269 1_555
In3 Sc27 3.128226 1_555
In3 Sc12 3.130858 1_655
In3 In7 3.355370 1_555
In3 Sc8 3.384959 1_655
In3 Sc2 3.410428 1_655
In3 Sc23 3.419898 1_555
In4 Rh14 2.731907 1_655
In4 Rh3 2.960202 1_565
In4 Sc18 3.042289 1_565
In4 Sc13 3.119632 1_655
In4 Sc28 3.130524 1_555
In4 In8 3.350848 1_555
In4 Sc9 3.379106 1_655
In4 Sc3 3.395391 1_665
In4 Sc24 3.395948 1_555
In5 Rh11 2.736508 1_655
In5 Rh0 2.943682 1_545
In5 Sc15 3.103400 1_545
In5 Sc0 3.128683 1_655
In5 Sc20 3.133571 1_555
In5 Sc5 3.324796 1_655
In5 Sc10 3.398474 1_655
In5 Sc25 3.416733 1_555
In6 Rh12 2.726255 1_655
In6 Rh1 2.962198 1_555
In6 Sc21 3.034769 1_555
In6 Sc16 3.116604 1_555
In6 Sc1 3.129771 1_655
In6 Sc11 3.387180 1_665
In6 Sc6 3.411233 1_655
In6 Sc26 3.424155 1_565
In7 Rh13 2.725735 1_655
In7 Rh2 2.961962 1_545
In7 Sc22 3.036284 1_545
In7 Sc17 3.116998 1_545
In7 Sc2 3.131283 1_645
In7 Sc12 3.391688 1_655
In7 Sc7 3.404973 1_645
In7 Sc27 3.424028 1_555
In8 Rh14 2.723934 1_655
In8 Rh3 2.964291 1_555
In8 Sc3 3.134693 1_655
In8 Sc13 3.386349 1_655
In8 Sc8 3.408698 1_655
In9 Rh10 2.703454 1_655
In9 Rh15 2.715576 1_555
In9 Rh4 2.891526 1_555
In9 Sc24 3.059083 1_555
In9 Sc4 3.104825 1_655
In9 Sc19 3.116899 1_555
In9 Sc9 3.225785 1_655
In9 Sc14 3.356756 1_665
In9 Sc29 3.391454 1_565
In10 Rh10 2.710747 1_654
In10 Rh15 2.722265 1_554
In10 Rh0 2.875043 1_555
In10 In30 2.885752 1_555
In10 Sc25 3.070442 1_555
In10 Sc5 3.100540 1_665
In10 Sc20 3.116643 1_565
In10 Sc10 3.226130 1_655
In10 Sc4 3.372775 1_654
In10 Sc19 3.397007 1_554
In11 Rh11 2.727444 1_655
In11 Rh1 2.949968 1_555
In11 In31 2.956830 1_545
In11 Sc26 3.036769 1_555
In11 Sc21 3.109252 1_555
In11 Sc6 3.114213 1_655
In11 In26 3.256143 1_555
In11 In5 3.362601 1_555
In11 Sc0 3.384804 1_655
In11 Sc11 3.415819 1_655
In11 Sc15 3.423190 1_545
In12 Rh12 2.728761 1_655
In12 Rh2 2.952758 1_555
In12 In32 2.955147 1_555
In12 Sc27 3.037754 1_555
In12 Sc22 3.106470 1_555
In12 Sc7 3.121324 1_655
In12 In27 3.258220 1_555
In12 In2 3.346086 1_565
In12 In6 3.360359 1_555
In12 Sc1 3.392990 1_655
In12 Sc12 3.417622 1_655
In12 Sc16 3.434256 1_555
In13 Rh13 2.731156 1_655
In13 Rh3 2.945120 1_555
In13 In33 2.956056 1_545
In13 Sc28 3.036387 1_545
In13 Sc23 3.107288 1_555
In13 Sc8 3.117578 1_655
In13 In28 3.259699 1_555
In13 In3 3.345461 1_555
In13 In7 3.361526 1_555
In13 Sc2 3.391965 1_645
In13 Sc13 3.419784 1_645
In13 Sc17 3.432841 1_545
In14 Rh14 2.737820 1_655
In14 In34 2.925712 1_555
In14 Rh4 2.938341 1_555
In14 Sc24 3.081439 1_555
In14 Sc9 3.119358 1_655
In14 Sc29 3.141954 1_555
In14 In29 3.254550 1_555
In14 Sc14 3.343099 1_655
In14 In4 3.360725 1_555
In14 In8 3.375295 1_555
In14 Sc3 3.402854 1_655
In14 Sc18 3.448323 1_555
In15 Rh15 2.720802 1_544
In15 Rh10 2.726656 1_544
In15 Rh9 2.874205 1_554
In15 In35 2.874626 1_555
In15 Sc14 3.112748 1_554
In15 Sc29 3.126100 1_554
In15 Sc19 3.165191 1_554
In15 Sc4 3.184309 1_554
In15 Sc5 3.381665 1_555
In15 Sc20 3.413125 1_555
In16 Rh11 2.737427 1_555
In16 In36 2.933475 1_555
In16 Rh5 2.955428 1_555
In16 Sc15 3.044083 1_555
In16 Sc25 3.099166 1_555
In16 Sc10 3.138546 1_555
In16 In26 3.347579 1_555
In16 In20 3.371564 1_555
In16 Sc6 3.376792 1_555
In16 Sc0 3.405782 1_565
In16 Sc21 3.430430 1_555
In17 Rh12 2.734121 1_545
In17 In37 2.937907 1_555
In17 Rh6 2.961410 1_555
In17 Sc16 3.039148 1_555
In17 Sc26 3.127574 1_555
In17 Sc11 3.130976 1_555
In17 In2 3.260083 1_555
In17 In27 3.346086 1_545
In17 In21 3.355600 1_545
In17 Sc7 3.386862 1_545
In17 Sc1 3.406836 1_555
In17 Sc22 3.424243 1_545
In18 Rh13 2.736106 1_555
In18 In38 2.936996 1_555
In18 Rh7 2.961964 1_555
In18 Sc17 3.038269 1_555
In18 Sc27 3.128226 1_555
In18 Sc12 3.130858 1_555
In18 In3 3.255887 1_555
In18 In28 3.345461 1_555
In18 In22 3.355370 1_555
In18 Sc8 3.384959 1_555
In18 Sc2 3.410428 1_555
In18 Sc23 3.419898 1_555
In19 Rh14 2.731907 1_555
In19 In39 2.921064 1_565
In19 Rh8 2.960202 1_565
In19 Sc18 3.042289 1_565
In19 Sc13 3.119632 1_555
In19 Sc28 3.130524 1_555
In19 In4 3.276443 1_555
In19 In23 3.350848 1_555
In19 In29 3.360725 1_555
In19 Sc9 3.379106 1_555
In19 Sc3 3.395391 1_565
In19 Sc24 3.395948 1_555
In20 Rh11 2.736508 1_555
In20 In35 2.912755 1_555
In20 Rh5 2.943682 1_545
In20 Sc15 3.103400 1_545
In20 Sc0 3.128683 1_555
In20 Sc20 3.133571 1_555
In20 In5 3.249314 1_555
In20 Sc5 3.324796 1_555
In20 In26 3.362601 1_555
In20 Sc10 3.398474 1_555
In20 Sc25 3.416733 1_555
In21 Rh12 2.726255 1_555
In21 In36 2.943529 1_555
In21 Rh6 2.962198 1_555
In21 Sc21 3.034769 1_555
In21 Sc16 3.116604 1_555
In21 Sc1 3.129771 1_555
In21 In6 3.276970 1_555
In21 In27 3.360359 1_555
In21 Sc11 3.387180 1_565
In21 Sc6 3.411233 1_555
In21 Sc26 3.424155 1_565
In22 Rh13 2.725735 1_555
In22 In37 2.945815 1_555
In22 Rh7 2.961962 1_545
In22 Sc22 3.036284 1_545
In22 Sc17 3.116998 1_545
In22 Sc2 3.131283 1_545
In22 In7 3.269160 1_555
In22 In28 3.361526 1_555
In22 Sc12 3.391688 1_555
In22 Sc7 3.404973 1_545
In22 Sc27 3.424028 1_555
In23 Rh14 2.723934 1_555
In23 In38 2.952787 1_555
In23 Rh8 2.964291 1_555
In23 Sc3 3.134693 1_555
In23 In29 3.375295 1_555
In23 Sc13 3.386349 1_555
In23 Sc8 3.408698 1_555
In24 Rh10 2.703454 1_555
In24 Rh15 2.715576 1_555
In24 In39 2.886335 1_565
In24 Rh9 2.891526 1_555
In24 Sc24 3.059083 1_555
In24 Sc4 3.104825 1_555
In24 Sc19 3.116899 1_555
In24 Sc9 3.225785 1_555
In24 Sc14 3.356756 1_565
In24 Sc29 3.391454 1_565
In25 Rh10 2.710747 1_554
In25 Rh15 2.722265 1_554
In25 Rh5 2.875043 1_555
In25 In35 2.885752 1_555
In25 Sc25 3.070442 1_555
In25 Sc5 3.100540 1_565
In25 Sc20 3.116643 1_565
In25 Sc10 3.226130 1_555
In25 Sc4 3.372775 1_554
In25 Sc19 3.397007 1_554
In26 Rh11 2.727444 1_555
In26 Rh6 2.949968 1_555
In26 In36 2.956830 1_545
In26 Sc26 3.036769 1_555
In26 Sc21 3.109252 1_555
In26 Sc6 3.114213 1_555
In26 Sc0 3.384804 1_555
In26 Sc11 3.415819 1_555
In26 Sc15 3.423190 1_545
In27 Rh12 2.728761 1_555
In27 Rh7 2.952758 1_555
In27 In37 2.955147 1_555
In27 Sc27 3.037754 1_555
In27 Sc22 3.106470 1_555
In27 Sc7 3.121324 1_555
In27 Sc1 3.392990 1_555
In27 Sc12 3.417622 1_555
In27 Sc16 3.434256 1_555
In28 Rh13 2.731156 1_555
In28 Rh8 2.945120 1_555
In28 In38 2.956056 1_545
In28 Sc28 3.036387 1_545
In28 Sc23 3.107288 1_555
In28 Sc8 3.117578 1_555
In28 Sc2 3.391965 1_545
In28 Sc13 3.419784 1_545
In28 Sc17 3.432841 1_545
In29 Rh14 2.737820 1_555
In29 In39 2.925712 1_555
In29 Rh9 2.938341 1_555
In29 Sc24 3.081439 1_555
In29 Sc9 3.119358 1_555
In29 Sc29 3.141954 1_555
In29 Sc14 3.343099 1_555
In29 Sc3 3.402854 1_555
In29 Sc18 3.448323 1_555
In30 In5 2.912755 1_555
In30 Sc5 3.128917 1_655
In30 Sc10 3.157142 1_655
In30 Sc20 3.166423 1_555
In30 Sc25 3.170178 1_555
In30 Sc4 3.195205 1_654
In30 Sc19 3.209106 1_554
In31 In6 2.943529 1_555
In31 Sc0 3.126468 1_665
In31 Sc6 3.132280 1_655
In31 Sc11 3.137040 1_665
In31 Sc26 3.217628 1_565
In31 Sc21 3.221846 1_555
In31 Sc15 3.226398 1_555
In31 In36 3.350318 1_655
In32 In7 2.945815 1_555
In32 Sc7 3.129274 1_645
In32 Sc1 3.129791 1_655
In32 Sc12 3.142052 1_655
In32 Sc27 3.216849 1_555
In32 Sc22 3.222479 1_545
In32 Sc16 3.233869 1_555
In32 In37 3.354728 1_655
In33 In8 2.952787 1_555
In33 Sc8 3.127884 1_655
In33 Sc2 3.128692 1_655
In33 Sc13 3.136376 1_655
In33 Sc28 3.218325 1_555
In33 Sc23 3.223224 1_555
In33 Sc17 3.234766 1_555
In33 In38 3.343973 1_655
In34 In9 2.886335 1_545
In34 In4 2.921064 1_545
In34 Sc3 3.110981 1_655
In34 Sc14 3.154112 1_655
In34 Sc9 3.162944 1_645
In34 Sc18 3.183603 1_555
In34 Sc29 3.204533 1_555
In34 Sc24 3.208291 1_545
In35 Sc5 3.128917 1_555
In35 Sc10 3.157142 1_555
In35 Sc20 3.166423 1_555
In35 Sc25 3.170178 1_555
In35 Sc4 3.195205 1_554
In35 Sc19 3.209106 1_554
In36 Sc0 3.126468 1_565
In36 Sc6 3.132280 1_555
In36 Sc11 3.137040 1_565
In36 Sc26 3.217628 1_565
In36 Sc21 3.221846 1_555
In36 Sc15 3.226398 1_555
In37 Sc7 3.129274 1_545
In37 Sc1 3.129791 1_555
In37 Sc12 3.142052 1_555
In37 Sc27 3.216849 1_555
In37 Sc22 3.222479 1_545
In37 Sc16 3.233869 1_555
In38 Sc8 3.127884 1_555
In38 Sc2 3.128692 1_555
In38 Sc13 3.136376 1_555
In38 Sc28 3.218325 1_555
In38 Sc23 3.223224 1_555
In38 Sc17 3.234766 1_555
In39 Sc3 3.110981 1_555
In39 Sc14 3.154112 1_555
In39 Sc9 3.162944 1_545
In39 Sc18 3.183603 1_555
In39 Sc29 3.204533 1_555
In39 Sc24 3.208291 1_545
Rh0 Sc25 2.727547 1_555
Rh0 Sc15 2.730099 1_555
Rh0 Sc5 2.741142 1_665
Rh0 Sc10 2.746507 1_655
Rh0 Sc0 2.750422 1_665
Rh0 Sc20 2.789647 1_565
Rh1 Sc11 2.724493 1_655
Rh1 Sc16 2.735585 1_555
Rh1 Sc26 2.738568 1_555
Rh1 Sc21 2.739672 1_555
Rh1 Sc6 2.739956 1_655
Rh1 Sc1 2.742455 1_655
Rh2 Sc12 2.721970 1_655
Rh2 Sc17 2.735204 1_555
Rh2 Sc27 2.736689 1_555
Rh2 Sc2 2.741042 1_655
Rh2 Sc22 2.742846 1_555
Rh2 Sc7 2.742870 1_655
Rh3 Sc13 2.724338 1_645
Rh3 Sc18 2.734533 1_555
Rh3 Sc28 2.735382 1_545
Rh3 Sc8 2.740061 1_655
Rh3 Sc23 2.742765 1_555
Rh3 Sc3 2.751593 1_655
Rh4 Sc24 2.734914 1_555
Rh4 Sc14 2.738685 1_655
Rh4 Sc4 2.749420 1_655
Rh4 Sc29 2.769030 1_555
Rh4 Sc19 2.779693 1_555
Rh4 Sc9 2.788968 1_655
Rh5 Sc25 2.727547 1_555
Rh5 Sc15 2.730099 1_555
Rh5 Sc5 2.741142 1_565
Rh5 Sc10 2.746507 1_555
Rh5 Sc0 2.750422 1_565
Rh5 Sc20 2.789647 1_565
Rh6 Sc11 2.724493 1_555
Rh6 Sc16 2.735585 1_555
Rh6 Sc26 2.738568 1_555
Rh6 Sc21 2.739672 1_555
Rh6 Sc6 2.739956 1_555
Rh6 Sc1 2.742455 1_555
Rh7 Sc12 2.721970 1_555
Rh7 Sc17 2.735204 1_555
Rh7 Sc27 2.736689 1_555
Rh7 Sc2 2.741042 1_555
Rh7 Sc22 2.742846 1_555
Rh7 Sc7 2.742870 1_555
Rh8 Sc13 2.724338 1_545
Rh8 Sc18 2.734533 1_555
Rh8 Sc28 2.735382 1_545
Rh8 Sc8 2.740061 1_555
Rh8 Sc23 2.742765 1_555
Rh8 Sc3 2.751593 1_555
Rh9 Sc24 2.734914 1_555
Rh9 Sc14 2.738685 1_555
Rh9 Sc4 2.749420 1_555
Rh9 Sc29 2.769030 1_555
Rh9 Sc19 2.779693 1_555
Rh9 Sc9 2.788968 1_555
Rh10 Sc4 3.053697 1_555
Rh10 Sc14 3.059752 1_565
Rh10 Sc5 3.096521 1_566
Rh11 Sc0 2.967852 1_555
Rh11 Sc6 2.989411 1_555
Rh11 Sc10 3.006347 1_555
Rh12 Sc1 2.987595 1_555
Rh12 Sc7 2.991782 1_555
Rh12 Sc11 2.998396 1_565
Rh13 Sc2 2.983971 1_545
Rh13 Sc8 2.992364 1_555
Rh13 Sc12 2.995758 1_555
Rh14 Sc9 2.984279 1_555
Rh14 Sc3 2.989134 1_555
Rh14 Sc13 3.003145 1_555
Rh15 Sc19 3.038929 1_555
Rh15 Sc29 3.115252 1_565
Rh15 Sc20 3.136438 1_566
