# generated using pymatgen
data_Si2MoO6
_symmetry_space_group_name_H-M   'P 1'
_cell_length_a   5.12412600
_cell_length_b   10.89411400
_cell_length_c   19.32762300
_cell_angle_alpha   90.00000000
_cell_angle_beta   90.00000000
_cell_angle_gamma   90.00000000
_symmetry_Int_Tables_number   1
_chemical_formula_structural   Si2MoO6
_chemical_formula_sum   'Si16 Mo8 O48'
_cell_volume   1078.92228049
_cell_formula_units_Z   8
loop_
 _symmetry_equiv_pos_site_id
 _symmetry_equiv_pos_as_xyz
  1  'x, y, z'
loop_
 _atom_site_type_symbol
 _atom_site_label
 _atom_site_symmetry_multiplicity
 _atom_site_fract_x
 _atom_site_fract_y
 _atom_site_fract_z
 _atom_site_occupancy
  Si  Si0  1  0.62270100  0.17099600  0.27668100  1
  Si  Si1  1  0.75953700  0.32800800  0.97264400  1
  Si  Si2  1  0.74046300  0.32800800  0.47264400  1
  Si  Si3  1  0.87729900  0.67099600  0.72331900  1
  Si  Si4  1  0.12270100  0.82900400  0.22331900  1
  Si  Si5  1  0.37729900  0.32900400  0.77668100  1
  Si  Si6  1  0.25953700  0.17199200  0.97264400  1
  Si  Si7  1  0.75953700  0.82800800  0.52735600  1
  Si  Si8  1  0.74046300  0.82800800  0.02735600  1
  Si  Si9  1  0.87729900  0.17099600  0.77668100  1
  Si  Si10  1  0.37729900  0.82900400  0.72331900  1
  Si  Si11  1  0.62270100  0.67099600  0.22331900  1
  Si  Si12  1  0.24046300  0.67199200  0.02735600  1
  Si  Si13  1  0.12270100  0.32900400  0.27668100  1
  Si  Si14  1  0.24046300  0.17199200  0.47264400  1
  Si  Si15  1  0.25953700  0.67199200  0.52735600  1
  Mo  Mo0  1  0.43523800  0.54837800  0.37372700  1
  Mo  Mo1  1  0.56476200  0.45162200  0.62627300  1
  Mo  Mo2  1  0.93523800  0.45162200  0.12627300  1
  Mo  Mo3  1  0.06476200  0.54837800  0.87372700  1
  Mo  Mo4  1  0.43523800  0.04837800  0.12627300  1
  Mo  Mo5  1  0.56476200  0.95162200  0.87372700  1
  Mo  Mo6  1  0.93523800  0.95162200  0.37372700  1
  Mo  Mo7  1  0.06476200  0.04837800  0.62627300  1
  O  O0  1  0.81523300  0.04739100  0.82101200  1
  O  O1  1  0.32089300  0.54875600  0.57178900  1
  O  O2  1  0.18476700  0.95260900  0.17898800  1
  O  O3  1  0.76255700  0.85395500  0.44396700  1
  O  O4  1  0.26255700  0.64604500  0.44396700  1
  O  O5  1  0.96519400  0.71814500  0.54705200  1
  O  O6  1  0.86225100  0.14189300  0.69360300  1
  O  O7  1  0.13774900  0.35810700  0.19360300  1
  O  O8  1  0.76255700  0.35395500  0.05603300  1
  O  O9  1  0.86225100  0.64189300  0.80639700  1
  O  O10  1  0.31523300  0.95260900  0.67898800  1
  O  O11  1  0.73744300  0.85395500  0.94396700  1
  O  O12  1  0.67910700  0.45124400  0.42821100  1
  O  O13  1  0.36225100  0.35810700  0.69360300  1
  O  O14  1  0.68476700  0.54739100  0.17898800  1
  O  O15  1  0.32089300  0.04875700  0.92821100  1
  O  O16  1  0.31523300  0.45260900  0.82101200  1
  O  O17  1  0.16982500  0.21985300  0.79611800  1
  O  O18  1  0.33017500  0.21985300  0.29611800  1
  O  O19  1  0.53480600  0.21814500  0.45294800  1
  O  O20  1  0.73744300  0.35395500  0.55603300  1
  O  O21  1  0.63774900  0.14189300  0.19360300  1
  O  O22  1  0.82089300  0.95124400  0.57178900  1
  O  O23  1  0.16982500  0.71985300  0.70388200  1
  O  O24  1  0.23744300  0.64604500  0.94396700  1
  O  O25  1  0.63774900  0.64189300  0.30639700  1
  O  O26  1  0.67910700  0.95124400  0.07178900  1
  O  O27  1  0.26255700  0.14604500  0.05603300  1
  O  O28  1  0.17910700  0.04875700  0.42821100  1
  O  O29  1  0.66982500  0.28014700  0.79611800  1
  O  O30  1  0.18476700  0.45260900  0.32101200  1
  O  O31  1  0.83017500  0.28014700  0.29611800  1
  O  O32  1  0.83017500  0.78014700  0.20388200  1
  O  O33  1  0.82089300  0.45124400  0.92821100  1
  O  O34  1  0.23744300  0.14604500  0.55603300  1
  O  O35  1  0.17910700  0.54875600  0.07178900  1
  O  O36  1  0.33017500  0.71985300  0.20388200  1
  O  O37  1  0.03480600  0.28185500  0.45294800  1
  O  O38  1  0.46519400  0.28185500  0.95294800  1
  O  O39  1  0.66982500  0.78014700  0.70388200  1
  O  O40  1  0.46519400  0.78185500  0.54705200  1
  O  O41  1  0.53480600  0.71814500  0.04705200  1
  O  O42  1  0.03480600  0.78185500  0.04705200  1
  O  O43  1  0.36225100  0.85810700  0.80639700  1
  O  O44  1  0.68476700  0.04739100  0.32101200  1
  O  O45  1  0.96519400  0.21814500  0.95294800  1
  O  O46  1  0.13774900  0.85810700  0.30639700  1
  O  O47  1  0.81523300  0.54739100  0.67898800  1
loop_
_geom_bond_atom_site_label_1
_geom_bond_atom_site_label_2
_geom_bond_distance
_geom_bond_site_symmetry_2
Mo0 O4 1.938564 1_555
Mo0 O30 1.942630 1_555
Mo0 O12 1.946846 1_555
Mo0 O25 1.951445 1_555
Mo1 O20 1.938564 1_555
Mo1 O47 1.942630 1_555
Mo1 O1 1.946846 1_555
Mo1 O13 1.951445 1_555
Mo2 O8 1.938564 1_555
Mo2 O14 1.942630 1_555
Mo2 O35 1.946846 1_655
Mo2 O7 1.951445 1_655
Mo3 O24 1.938564 1_555
Mo3 O16 1.942630 1_555
Mo3 O33 1.946846 1_455
Mo3 O9 1.951445 1_455
Mo4 O27 1.938564 1_555
Mo4 O2 1.942630 1_545
Mo4 O26 1.946846 1_545
Mo4 O21 1.951445 1_555
Mo5 O11 1.938564 1_555
Mo5 O0 1.942630 1_565
Mo5 O15 1.946852 1_565
Mo5 O43 1.951445 1_555
Mo6 O3 1.938564 1_555
Mo6 O44 1.942630 1_565
Mo6 O28 1.946852 1_665
Mo6 O46 1.951445 1_655
Mo7 O34 1.938564 1_555
Mo7 O10 1.942630 1_545
Mo7 O22 1.946846 1_445
Mo7 O6 1.951445 1_455
O0 Si9 1.627426 1_555
O1 Si15 1.624435 1_555
O2 Si4 1.627426 1_555
O3 Si7 1.636385 1_555
O4 Si15 1.636385 1_555
O5 Si15 1.634790 1_655
O5 Si7 1.639484 1_555
O6 Si9 1.638518 1_555
O7 Si13 1.638518 1_555
O8 Si1 1.636385 1_554
O9 Si3 1.638518 1_555
O10 Si10 1.627426 1_555
O11 Si8 1.636385 1_556
O12 Si2 1.624435 1_555
O13 Si5 1.638518 1_555
O14 Si11 1.627426 1_555
O15 Si6 1.624426 1_555
O16 Si5 1.627426 1_555
O17 Si9 1.634394 1_455
O17 Si5 1.638696 1_555
O18 Si0 1.634394 1_555
O18 Si13 1.638696 1_555
O19 Si14 1.634790 1_555
O19 Si2 1.639484 1_555
O20 Si2 1.636385 1_555
O21 Si0 1.638518 1_555
O22 Si7 1.624435 1_555
O23 Si3 1.634394 1_455
O23 Si10 1.638696 1_555
O24 Si12 1.636385 1_556
O25 Si11 1.638518 1_555
O26 Si8 1.624435 1_555
O27 Si6 1.636385 1_554
O28 Si14 1.624426 1_555
O29 Si5 1.634394 1_555
O29 Si9 1.638696 1_555
O30 Si13 1.627426 1_555
O31 Si13 1.634394 1_655
O31 Si0 1.638696 1_555
O32 Si4 1.634394 1_655
O32 Si11 1.638696 1_555
O33 Si1 1.624435 1_555
O34 Si14 1.636385 1_555
O35 Si12 1.624435 1_555
O36 Si11 1.634394 1_555
O36 Si4 1.638696 1_555
O37 Si2 1.634790 1_455
O37 Si14 1.639484 1_555
O38 Si1 1.634790 1_555
O38 Si6 1.639484 1_555
O39 Si10 1.634394 1_555
O39 Si3 1.638696 1_555
O40 Si7 1.634790 1_555
O40 Si15 1.639484 1_555
O41 Si12 1.634790 1_555
O41 Si8 1.639484 1_555
O42 Si8 1.634790 1_455
O42 Si12 1.639484 1_555
O43 Si10 1.638518 1_555
O44 Si0 1.627426 1_555
O45 Si6 1.634790 1_655
O45 Si1 1.639484 1_555
O46 Si4 1.638518 1_555
O47 Si3 1.627426 1_555
