# generated using pymatgen
data_Ta3Mn8Si
_symmetry_space_group_name_H-M   'P 1'
_cell_length_a   4.75431203
_cell_length_b   4.75431203
_cell_length_c   7.81025100
_cell_angle_alpha   90.00000000
_cell_angle_beta   90.00000000
_cell_angle_gamma   120.00000037
_symmetry_Int_Tables_number   1
_chemical_formula_structural   Ta3Mn8Si
_chemical_formula_sum   'Ta3 Mn8 Si1'
_cell_volume   152.88714950
_cell_formula_units_Z   1
loop_
 _symmetry_equiv_pos_site_id
 _symmetry_equiv_pos_as_xyz
  1  'x, y, z'
loop_
 _atom_site_type_symbol
 _atom_site_label
 _atom_site_symmetry_multiplicity
 _atom_site_fract_x
 _atom_site_fract_y
 _atom_site_fract_z
 _atom_site_occupancy
  Ta  Ta0  1  0.33333300  0.66666700  0.44184900  1
  Ta  Ta1  1  0.33333300  0.66666700  0.06559200  1
  Ta  Ta2  1  0.66666700  0.33333300  0.92048400  1
  Mn  Mn0  1  0.00000000  0.00000000  0.50346800  1
  Mn  Mn1  1  0.00000000  0.00000000  0.00823300  1
  Mn  Mn2  1  0.17157200  0.34314500  0.74717400  1
  Mn  Mn3  1  0.17157200  0.82842800  0.74717400  1
  Mn  Mn4  1  0.65685500  0.82842800  0.74717400  1
  Mn  Mn5  1  0.82611500  0.65223000  0.25204300  1
  Mn  Mn6  1  0.82611500  0.17388500  0.25204300  1
  Mn  Mn7  1  0.34777000  0.17388500  0.25204300  1
  Si  Si0  1  0.66666700  0.33333300  0.56265700  1
loop_
_geom_bond_atom_site_label_1
_geom_bond_atom_site_label_2
_geom_bond_distance
_geom_bond_site_symmetry_2
Ta0 Ta1 2.938662 1_555
Ta1 Ta2 2.969666 1_454
Ta1 Ta2 2.969666 1_564
Ta1 Ta2 2.969674 1_554
Mn0 Mn3 2.370461 1_545
Mn0 Mn4 2.370463 1_445
Mn0 Mn2 2.370463 1_555
Mn0 Mn5 2.430309 1_445
Mn0 Mn7 2.430309 1_555
Mn0 Mn6 2.430309 1_455
Mn0 Si0 2.783556 1_455
Mn0 Si0 2.783560 1_555
Mn0 Si0 2.783560 1_445
Mn0 Ta0 2.786771 1_545
Mn0 Ta0 2.786775 1_445
Mn0 Ta0 2.786775 1_555
Mn1 Mn5 2.382511 1_445
Mn1 Mn7 2.382511 1_555
Mn1 Mn6 2.382511 1_455
Mn1 Mn3 2.480604 1_544
Mn1 Mn2 2.480606 1_554
Mn1 Mn4 2.480606 1_444
Mn1 Ta1 2.781218 1_545
Mn1 Ta1 2.781222 1_555
Mn1 Ta1 2.781222 1_445
Mn1 Ta2 2.829165 1_454
Mn1 Ta2 2.829169 1_554
Mn1 Ta2 2.829169 1_444
Mn2 Mn4 2.307187 1_555
Mn2 Mn3 2.307187 1_555
Mn2 Mn4 2.447125 1_445
Mn2 Mn3 2.447125 1_545
Mn2 Ta0 2.731483 1_555
Mn2 Ta2 2.735818 1_455
Mn2 Ta2 2.735826 1_555
Mn2 Si0 2.780165 1_455
Mn2 Si0 2.780173 1_555
Mn2 Ta1 2.821199 1_556
Mn3 Mn4 2.307187 1_555
Mn3 Mn4 2.447125 1_455
Mn3 Ta0 2.731483 1_555
Mn3 Ta2 2.735822 1_455
Mn3 Ta2 2.735822 1_565
Mn3 Si0 2.780169 1_455
Mn3 Si0 2.780169 1_565
Mn3 Ta1 2.821199 1_556
Mn4 Ta0 2.731483 1_555
Mn4 Ta2 2.735818 1_565
Mn4 Ta2 2.735826 1_555
Mn4 Si0 2.780165 1_565
Mn4 Si0 2.780173 1_555
Mn4 Ta1 2.821199 1_556
Mn5 Mn7 2.274201 1_555
Mn5 Mn6 2.274201 1_555
Mn5 Mn7 2.480111 1_665
Mn5 Mn6 2.480111 1_565
Mn5 Si0 2.758505 1_555
Mn5 Ta1 2.788368 1_655
Mn5 Ta1 2.788372 1_555
Mn5 Ta0 2.802142 1_655
Mn5 Ta0 2.802146 1_555
Mn5 Ta2 2.903415 1_554
Mn6 Mn7 2.274201 1_555
Mn6 Mn7 2.480111 1_655
Mn6 Si0 2.758503 1_555
Mn6 Ta1 2.788370 1_545
Mn6 Ta1 2.788370 1_655
Mn6 Ta0 2.802144 1_545
Mn6 Ta0 2.802144 1_655
Mn6 Ta2 2.903413 1_554
Mn7 Si0 2.758505 1_555
Mn7 Ta1 2.788368 1_545
Mn7 Ta1 2.788372 1_555
Mn7 Ta0 2.802142 1_545
Mn7 Ta0 2.802146 1_555
Mn7 Ta2 2.903415 1_554
Si0 Ta2 2.794719 1_555
Si0 Ta0 2.902542 1_545
Si0 Ta0 2.902542 1_655
Si0 Ta0 2.902550 1_555
