# generated using pymatgen
data_Sm5Bi3
_symmetry_space_group_name_H-M   'P 1'
_cell_length_a   6.51271781
_cell_length_b   9.36601921
_cell_length_c   9.36588549
_cell_angle_alpha   120.00047168
_cell_angle_beta   90.00000000
_cell_angle_gamma   90.00000000
_symmetry_Int_Tables_number   1
_chemical_formula_structural   Sm5Bi3
_chemical_formula_sum   'Sm10 Bi6'
_cell_volume   494.76015480
_cell_formula_units_Z   2
loop_
 _symmetry_equiv_pos_site_id
 _symmetry_equiv_pos_as_xyz
  1  'x, y, z'
loop_
 _atom_site_type_symbol
 _atom_site_label
 _atom_site_symmetry_multiplicity
 _atom_site_fract_x
 _atom_site_fract_y
 _atom_site_fract_z
 _atom_site_occupancy
  Sm  Sm0  1  0.50000096  0.33333176  0.66666423  1
  Sm  Sm1  1  0.50000096  0.66666753  0.33333577  1
  Sm  Sm2  1  0.00000096  0.66666824  0.33333577  1
  Sm  Sm3  1  0.00000096  0.33333247  0.66666423  1
  Sm  Sm4  1  0.74999941  0.24741810  1.00000000  1
  Sm  Sm5  1  0.75000153  0.75265002  0.75263462  1
  Sm  Sm6  1  0.75000153  0.00001541  0.24736538  1
  Sm  Sm7  1  0.24999941  0.75258190  0.00000000  1
  Sm  Sm8  1  0.25000153  0.24734998  0.24736538  1
  Sm  Sm9  1  0.25000153  0.99998459  0.75263462  1
  Bi  Bi0  1  0.74999675  0.61305944  0.00000000  1
  Bi  Bi1  1  0.74999943  0.38697018  0.38696636  1
  Bi  Bi2  1  0.74999943  0.00000382  0.61303364  1
  Bi  Bi3  1  0.24999675  0.38694056  -0.00000000  1
  Bi  Bi4  1  0.24999943  0.61302982  0.61303364  1
  Bi  Bi5  1  0.24999943  0.99999618  0.38696636  1
loop_
_geom_bond_atom_site_label_1
_geom_bond_atom_site_label_2
_geom_bond_distance
_geom_bond_site_symmetry_2
Bi0 Sm5 3.178978 1_554
Bi0 Sm6 3.178978 1_565
Bi0 Sm1 3.328996 1_555
Bi0 Sm0 3.328996 1_554
Bi0 Sm2 3.329020 1_655
Bi0 Sm3 3.329020 1_654
Bi0 Sm4 3.424604 1_554
Bi0 Sm7 3.508762 1_555
Bi0 Sm7 3.508794 1_655
Bi1 Sm6 3.178968 1_555
Bi1 Sm4 3.179091 1_554
Bi1 Sm1 3.328915 1_555
Bi1 Sm2 3.328930 1_655
Bi1 Sm0 3.328930 1_555
Bi1 Sm3 3.328937 1_655
Bi1 Sm5 3.424861 1_555
Bi1 Sm8 3.509066 1_555
Bi1 Sm8 3.509091 1_655
Bi2 Sm5 3.178968 1_545
Bi2 Sm4 3.179091 1_555
Bi2 Sm0 3.328915 1_555
Bi2 Sm3 3.328930 1_655
Bi2 Sm1 3.328931 1_545
Bi2 Sm2 3.328937 1_645
Bi2 Sm6 3.424861 1_555
Bi2 Sm9 3.509066 1_545
Bi2 Sm9 3.509091 1_645
Bi3 Sm8 3.178978 1_555
Bi3 Sm9 3.178978 1_544
Bi3 Sm3 3.328996 1_554
Bi3 Sm2 3.328996 1_555
Bi3 Sm0 3.329020 1_554
Bi3 Sm1 3.329020 1_555
Bi3 Sm7 3.424604 1_555
Bi3 Sm4 3.508762 1_454
Bi3 Sm4 3.508794 1_554
Bi4 Sm9 3.178968 1_555
Bi4 Sm7 3.179091 1_556
Bi4 Sm3 3.328915 1_555
Bi4 Sm0 3.328930 1_555
Bi4 Sm2 3.328930 1_555
Bi4 Sm1 3.328937 1_555
Bi4 Sm8 3.424861 1_555
Bi4 Sm5 3.509066 1_455
Bi4 Sm5 3.509091 1_555
Bi5 Sm8 3.178968 1_565
Bi5 Sm7 3.179091 1_555
Bi5 Sm2 3.328915 1_555
Bi5 Sm1 3.328930 1_555
Bi5 Sm3 3.328931 1_565
Bi5 Sm0 3.328937 1_565
Bi5 Sm9 3.424861 1_555
Bi5 Sm6 3.509066 1_465
Bi5 Sm6 3.509091 1_565
