# generated using pymatgen
data_DyThFe14B
_symmetry_space_group_name_H-M   'P 1'
_cell_length_a   8.74896400
_cell_length_b   8.74896400
_cell_length_c   11.97176100
_cell_angle_alpha   90.00000000
_cell_angle_beta   90.00000000
_cell_angle_gamma   90.00000000
_symmetry_Int_Tables_number   1
_chemical_formula_structural   DyThFe14B
_chemical_formula_sum   'Dy4 Th4 Fe56 B4'
_cell_volume   916.37091638
_cell_formula_units_Z   4
loop_
 _symmetry_equiv_pos_site_id
 _symmetry_equiv_pos_as_xyz
  1  'x, y, z'
loop_
 _atom_site_type_symbol
 _atom_site_label
 _atom_site_symmetry_multiplicity
 _atom_site_fract_x
 _atom_site_fract_y
 _atom_site_fract_z
 _atom_site_occupancy
  Dy  Dy0  1  0.22942100  0.77057900  0.50000000  1
  Dy  Dy1  1  0.77057900  0.22942100  0.50000000  1
  Dy  Dy2  1  0.27057900  0.27057900  0.00000000  1
  Dy  Dy3  1  0.72942100  0.72942100  0.00000000  1
  Th  Th0  1  0.64406800  0.64406800  0.50000000  1
  Th  Th1  1  0.35593200  0.35593200  0.50000000  1
  Th  Th2  1  0.85593200  0.14406800  0.00000000  1
  Th  Th3  1  0.14406800  0.85593200  0.00000000  1
  Fe  Fe0  1  0.18342100  0.81657900  0.25531800  1
  Fe  Fe1  1  0.81657900  0.18342100  0.25531800  1
  Fe  Fe2  1  0.31657900  0.31657900  0.75531800  1
  Fe  Fe3  1  0.68342100  0.68342100  0.75531800  1
  Fe  Fe4  1  0.81657900  0.18342100  0.74468200  1
  Fe  Fe5  1  0.18342100  0.81657900  0.74468200  1
  Fe  Fe6  1  0.68342100  0.68342100  0.24468200  1
  Fe  Fe7  1  0.31657900  0.31657900  0.24468200  1
  Fe  Fe8  1  0.93480900  0.72489800  0.37310500  1
  Fe  Fe9  1  0.06519100  0.27510200  0.37310500  1
  Fe  Fe10  1  0.56519100  0.22489800  0.87310500  1
  Fe  Fe11  1  0.43480900  0.77510200  0.87310500  1
  Fe  Fe12  1  0.06519100  0.27510200  0.62689500  1
  Fe  Fe13  1  0.93480900  0.72489800  0.62689500  1
  Fe  Fe14  1  0.43480900  0.77510200  0.12689500  1
  Fe  Fe15  1  0.56519100  0.22489800  0.12689500  1
  Fe  Fe16  1  0.72489800  0.93480900  0.37310500  1
  Fe  Fe17  1  0.27510200  0.06519100  0.37310500  1
  Fe  Fe18  1  0.22489800  0.56519100  0.87310500  1
  Fe  Fe19  1  0.77510200  0.43480900  0.87310500  1
  Fe  Fe20  1  0.27510200  0.06519100  0.62689500  1
  Fe  Fe21  1  0.72489800  0.93480900  0.62689500  1
  Fe  Fe22  1  0.77510200  0.43480900  0.12689500  1
  Fe  Fe23  1  0.22489800  0.56519100  0.12689500  1
  Fe  Fe24  1  0.50000000  0.50000000  0.11510200  1
  Fe  Fe25  1  0.00000000  0.00000000  0.61510200  1
  Fe  Fe26  1  0.50000000  0.50000000  0.88489800  1
  Fe  Fe27  1  0.00000000  0.00000000  0.38489800  1
  Fe  Fe28  1  0.14076500  0.53758500  0.32496000  1
  Fe  Fe29  1  0.85923500  0.46241500  0.32496000  1
  Fe  Fe30  1  0.35923500  0.03758500  0.82496000  1
  Fe  Fe31  1  0.64076500  0.96241500  0.82496000  1
  Fe  Fe32  1  0.85923500  0.46241500  0.67504000  1
  Fe  Fe33  1  0.14076500  0.53758500  0.67504000  1
  Fe  Fe34  1  0.64076500  0.96241500  0.17504000  1
  Fe  Fe35  1  0.35923500  0.03758500  0.17504000  1
  Fe  Fe36  1  0.53758500  0.14076500  0.32496000  1
  Fe  Fe37  1  0.46241500  0.85923500  0.32496000  1
  Fe  Fe38  1  0.03758500  0.35923500  0.82496000  1
  Fe  Fe39  1  0.96241500  0.64076500  0.82496000  1
  Fe  Fe40  1  0.46241500  0.85923500  0.67504000  1
  Fe  Fe41  1  0.53758500  0.14076500  0.67504000  1
  Fe  Fe42  1  0.96241500  0.64076500  0.17504000  1
  Fe  Fe43  1  0.03758500  0.35923500  0.17504000  1
  Fe  Fe44  1  0.00000000  0.50000000  0.50000000  1
  Fe  Fe45  1  0.50000000  0.00000000  0.00000000  1
  Fe  Fe46  1  0.50000000  0.00000000  0.50000000  1
  Fe  Fe47  1  0.00000000  0.50000000  0.00000000  1
  Fe  Fe48  1  0.40205400  0.59794600  0.29795500  1
  Fe  Fe49  1  0.59794600  0.40205400  0.29795500  1
  Fe  Fe50  1  0.09794600  0.09794600  0.79795500  1
  Fe  Fe51  1  0.90205400  0.90205400  0.79795500  1
  Fe  Fe52  1  0.59794600  0.40205400  0.70204500  1
  Fe  Fe53  1  0.40205400  0.59794600  0.70204500  1
  Fe  Fe54  1  0.90205400  0.90205400  0.20204500  1
  Fe  Fe55  1  0.09794600  0.09794600  0.20204500  1
  B  B0  1  0.87718700  0.87718700  0.50000000  1
  B  B1  1  0.12281300  0.12281300  0.50000000  1
  B  B2  1  0.62281300  0.37718700  0.00000000  1
  B  B3  1  0.37718700  0.62281300  0.00000000  1
loop_
_geom_bond_atom_site_label_1
_geom_bond_atom_site_label_2
_geom_bond_distance
_geom_bond_site_symmetry_2
Dy0 Fe5 2.984055 1_555
Dy0 Fe0 2.984055 1_555
Dy0 Fe13 3.018498 1_455
Dy0 Fe8 3.018498 1_455
Dy0 Fe20 3.018498 1_565
Dy0 Fe17 3.018498 1_565
Dy0 Fe28 3.024601 1_555
Dy0 Fe33 3.024601 1_555
Dy0 Fe37 3.024601 1_555
Dy0 Fe40 3.024601 1_555
Dy0 Fe44 3.103688 1_555
Dy0 Fe46 3.103688 1_565
Dy0 Fe25 3.155390 1_565
Dy0 Fe27 3.155390 1_565
Dy0 Fe53 3.226939 1_555
Dy0 Fe48 3.226939 1_555
Dy0 Th1 3.792826 1_555
Dy0 Th0 3.792826 1_555
Dy1 Fe4 2.984055 1_555
Dy1 Fe1 2.984055 1_555
Dy1 Fe21 3.018498 1_545
Dy1 Fe16 3.018498 1_545
Dy1 Fe12 3.018498 1_655
Dy1 Fe9 3.018498 1_655
Dy1 Fe36 3.024601 1_555
Dy1 Fe41 3.024601 1_555
Dy1 Fe29 3.024601 1_555
Dy1 Fe32 3.024601 1_555
Dy1 Fe46 3.103688 1_555
Dy1 Fe44 3.103688 1_655
Dy1 Fe25 3.155390 1_655
Dy1 Fe27 3.155390 1_655
Dy1 Fe52 3.226939 1_555
Dy1 Fe49 3.226939 1_555
Dy1 Th1 3.792826 1_555
Dy1 Th0 3.792826 1_555
Dy2 Fe7 2.984055 1_555
Dy2 Fe2 2.984055 1_554
Dy2 Fe15 3.018498 1_555
Dy2 Fe23 3.018498 1_555
Dy2 Fe10 3.018498 1_554
Dy2 Fe18 3.018498 1_554
Dy2 Fe30 3.024601 1_554
Dy2 Fe35 3.024601 1_555
Dy2 Fe43 3.024601 1_555
Dy2 Fe38 3.024601 1_554
Dy2 Fe45 3.103688 1_555
Dy2 Fe47 3.103688 1_555
Dy2 Fe24 3.155390 1_555
Dy2 Fe26 3.155390 1_554
Dy2 Fe55 3.226939 1_555
Dy2 Fe50 3.226939 1_554
Dy2 Th3 3.792826 1_545
Dy2 Th2 3.792826 1_455
Dy3 Fe6 2.984055 1_555
Dy3 Fe3 2.984055 1_554
Dy3 Fe22 3.018498 1_555
Dy3 Fe14 3.018498 1_555
Dy3 Fe19 3.018498 1_554
Dy3 Fe11 3.018498 1_554
Dy3 Fe34 3.024601 1_555
Dy3 Fe31 3.024601 1_554
Dy3 Fe42 3.024601 1_555
Dy3 Fe39 3.024601 1_554
Dy3 Fe47 3.103688 1_655
Dy3 Fe45 3.103688 1_565
Dy3 Fe24 3.155390 1_555
Dy3 Fe26 3.155390 1_554
Dy3 Fe51 3.226939 1_554
Dy3 Fe54 3.226939 1_555
Dy3 Th3 3.792826 1_655
Dy3 Th2 3.792826 1_565
Th0 Th1 3.565079 1_555
Th2 Th3 3.565079 1_645
Fe0 Fe28 2.606229 1_555
Fe0 Fe37 2.606229 1_555
Fe0 Fe55 2.650623 1_565
Fe0 Fe54 2.650623 1_455
Fe0 Fe35 2.651111 1_565
Fe0 Fe42 2.651111 1_455
Fe0 Fe23 2.707901 1_555
Fe0 Fe14 2.707901 1_555
Fe0 Fe8 2.713460 1_455
Fe0 Fe17 2.713460 1_565
Fe0 Fe27 2.748989 1_565
Fe0 Fe48 2.752862 1_555
Fe0 Th3 3.095145 1_555
Fe1 Fe36 2.606229 1_555
Fe1 Fe29 2.606229 1_555
Fe1 Fe55 2.650623 1_655
Fe1 Fe54 2.650623 1_545
Fe1 Fe43 2.651111 1_655
Fe1 Fe34 2.651111 1_545
Fe1 Fe15 2.707901 1_555
Fe1 Fe22 2.707901 1_555
Fe1 Fe16 2.713460 1_545
Fe1 Fe9 2.713460 1_655
Fe1 Fe27 2.748989 1_655
Fe1 Fe49 2.752862 1_555
Fe1 Th2 3.095145 1_555
Fe2 Fe30 2.606229 1_555
Fe2 Fe38 2.606229 1_555
Fe2 Fe52 2.650623 1_555
Fe2 Fe53 2.650623 1_555
Fe2 Fe33 2.651111 1_555
Fe2 Fe41 2.651111 1_555
Fe2 Fe20 2.707901 1_555
Fe2 Fe26 2.748989 1_555
Fe2 Fe50 2.752862 1_555
Fe2 Th1 3.095145 1_555
Fe3 Fe31 2.606229 1_555
Fe3 Fe39 2.606229 1_555
Fe3 Fe52 2.650623 1_555
Fe3 Fe53 2.650623 1_555
Fe3 Fe32 2.651111 1_555
Fe3 Fe40 2.651111 1_555
Fe3 Fe51 2.752862 1_555
Fe3 Th0 3.095145 1_555
Fe4 Fe41 2.606229 1_555
Fe4 Fe50 2.650623 1_655
Fe4 Fe51 2.650623 1_545
Fe4 Fe52 2.752862 1_555
Fe4 Th2 3.095145 1_556
Fe5 Fe50 2.650623 1_565
Fe5 Fe51 2.650623 1_455
Fe5 Fe53 2.752862 1_555
Fe5 Th3 3.095145 1_556
Fe6 Fe8 2.707901 1_555
Fe6 Th0 3.095145 1_555
Fe7 Fe9 2.707901 1_555
Fe7 Th1 3.095145 1_555
Fe8 Th0 3.046024 1_555
Fe9 Th1 3.046024 1_555
Fe10 Fe31 2.458271 1_545
Fe10 Fe41 2.494528 1_555
Fe10 Fe30 2.502941 1_555
Fe10 Fe45 2.550429 1_556
Fe10 Fe52 2.584233 1_555
Fe10 Fe4 2.707901 1_555
Fe10 Fe2 2.713460 1_555
Fe10 Th2 3.046024 1_556
Fe11 Fe30 2.458271 1_565
Fe11 Fe40 2.494528 1_555
Fe11 Fe31 2.502941 1_555
Fe11 Fe45 2.550429 1_566
Fe11 Fe53 2.584233 1_555
Fe11 Fe5 2.707901 1_555
Fe11 Fe3 2.713460 1_555
Fe11 Th3 3.046024 1_556
Fe12 Fe33 2.458271 1_555
Fe12 Fe38 2.494528 1_555
Fe12 Fe32 2.502941 1_455
Fe12 Fe44 2.550429 1_555
Fe12 Fe50 2.584233 1_555
Fe12 Fe2 2.707901 1_555
Fe12 Fe4 2.713460 1_455
Fe12 Th1 3.046024 1_555
Fe13 Fe32 2.458271 1_555
Fe13 Fe39 2.494528 1_555
Fe13 Fe33 2.502941 1_655
Fe13 Fe44 2.550429 1_655
Fe13 Fe51 2.584233 1_555
Fe13 Fe3 2.707901 1_555
Fe13 Fe5 2.713460 1_655
Fe13 Th0 3.046024 1_555
Fe14 Fe35 2.458271 1_565
Fe14 Fe37 2.494528 1_555
Fe14 Fe34 2.502941 1_555
Fe14 Fe45 2.550429 1_565
Fe14 Fe48 2.584233 1_555
Fe14 Fe6 2.713460 1_555
Fe14 Th3 3.046024 1_555
Fe15 Fe34 2.458271 1_545
Fe15 Fe36 2.494528 1_555
Fe15 Fe35 2.502941 1_555
Fe15 Fe45 2.550429 1_555
Fe15 Fe49 2.584233 1_555
Fe15 Fe7 2.713460 1_555
Fe15 Th2 3.046024 1_555
Fe16 Fe37 2.458271 1_555
Fe16 Fe34 2.494528 1_555
Fe16 Fe36 2.502941 1_565
Fe16 Fe46 2.550429 1_565
Fe16 Fe54 2.584233 1_555
Fe16 Fe6 2.707901 1_555
Fe16 Th0 3.046024 1_555
Fe17 Fe36 2.458271 1_555
Fe17 Fe35 2.494528 1_555
Fe17 Fe37 2.502941 1_545
Fe17 Fe46 2.550429 1_555
Fe17 Fe55 2.584233 1_555
Fe17 Fe7 2.707901 1_555
Fe17 Th1 3.046024 1_555
Fe18 Fe39 2.458271 1_455
Fe18 Fe33 2.494528 1_555
Fe18 Fe38 2.502941 1_555
Fe18 Fe47 2.550429 1_556
Fe18 Fe53 2.584233 1_555
Fe18 Fe5 2.707901 1_555
Fe18 Fe2 2.713460 1_555
Fe18 Th3 3.046024 1_556
Fe19 Fe38 2.458271 1_655
Fe19 Fe32 2.494528 1_555
Fe19 Fe39 2.502941 1_555
Fe19 Fe47 2.550429 1_656
Fe19 Fe52 2.584233 1_555
Fe19 Fe4 2.707901 1_555
Fe19 Fe3 2.713460 1_555
Fe19 Th2 3.046024 1_556
Fe20 Fe41 2.458271 1_555
Fe20 Fe30 2.494528 1_555
Fe20 Fe40 2.502941 1_545
Fe20 Fe46 2.550429 1_555
Fe20 Fe50 2.584233 1_555
Fe20 Fe5 2.713460 1_545
Fe20 Th1 3.046024 1_555
Fe21 Fe40 2.458271 1_555
Fe21 Fe31 2.494528 1_555
Fe21 Fe41 2.502941 1_565
Fe21 Fe46 2.550429 1_565
Fe21 Fe51 2.584233 1_555
Fe21 Fe3 2.707901 1_555
Fe21 Fe4 2.713460 1_565
Fe21 Th0 3.046024 1_555
Fe22 Fe43 2.458271 1_655
Fe22 Fe29 2.494528 1_555
Fe22 Fe42 2.502941 1_555
Fe22 Fe47 2.550429 1_655
Fe22 Fe49 2.584233 1_555
Fe22 Fe6 2.713460 1_555
Fe22 Th2 3.046024 1_555
Fe23 Fe42 2.458271 1_455
Fe23 Fe28 2.494528 1_555
Fe23 Fe43 2.502941 1_555
Fe23 Fe47 2.550429 1_555
Fe23 Fe48 2.584233 1_555
Fe23 Fe7 2.713460 1_555
Fe23 Th3 3.046024 1_555
Fe24 Fe49 2.502136 1_555
Fe24 Fe48 2.502136 1_555
Fe24 Fe6 2.748989 1_555
Fe24 Fe7 2.748989 1_555
Fe25 Fe50 2.502136 1_555
Fe25 Fe51 2.502136 1_445
Fe25 Fe4 2.748989 1_455
Fe25 Fe5 2.748989 1_545
Fe26 Fe52 2.502136 1_555
Fe26 Fe53 2.502136 1_555
Fe26 Fe3 2.748989 1_555
Fe27 Fe55 2.502136 1_555
Fe27 Fe54 2.502136 1_445
Fe28 Fe48 2.368383 1_555
Fe28 Fe44 2.452777 1_555
Fe28 Fe9 2.458271 1_555
Fe28 Fe8 2.502941 1_455
Fe28 Fe42 2.543818 1_455
Fe28 Fe43 2.543818 1_555
Fe28 Fe29 2.549384 1_455
Fe28 Fe7 2.651111 1_555
Fe28 Th1 3.234321 1_555
Fe29 Fe49 2.368383 1_555
Fe29 Fe44 2.452777 1_655
Fe29 Fe8 2.458271 1_555
Fe29 Fe9 2.502941 1_655
Fe29 Fe42 2.543818 1_555
Fe29 Fe43 2.543818 1_655
Fe29 Fe6 2.651111 1_555
Fe29 Th0 3.234321 1_555
Fe30 Fe50 2.368383 1_555
Fe30 Fe45 2.452777 1_556
Fe30 Fe40 2.543818 1_545
Fe30 Fe41 2.543818 1_555
Fe30 Fe31 2.549384 1_545
Fe30 Fe5 2.651111 1_545
Fe30 Th3 3.234321 1_546
Fe31 Fe51 2.368383 1_555
Fe31 Fe45 2.452777 1_566
Fe31 Fe40 2.543818 1_555
Fe31 Fe41 2.543818 1_565
Fe31 Fe4 2.651111 1_565
Fe31 Th2 3.234321 1_566
Fe32 Fe52 2.368383 1_555
Fe32 Fe44 2.452777 1_655
Fe32 Fe39 2.543818 1_555
Fe32 Fe38 2.543818 1_655
Fe32 Fe33 2.549384 1_655
Fe32 Fe4 2.606229 1_555
Fe32 Th0 3.234321 1_555
Fe33 Fe53 2.368383 1_555
Fe33 Fe44 2.452777 1_555
Fe33 Fe39 2.543818 1_455
Fe33 Fe38 2.543818 1_555
Fe33 Fe5 2.606229 1_555
Fe33 Th1 3.234321 1_555
Fe34 Fe54 2.368383 1_555
Fe34 Fe45 2.452777 1_565
Fe34 Fe37 2.543818 1_555
Fe34 Fe36 2.543818 1_565
Fe34 Fe35 2.549384 1_565
Fe34 Fe6 2.606229 1_555
Fe34 Th2 3.234321 1_565
Fe35 Fe55 2.368383 1_555
Fe35 Fe45 2.452777 1_555
Fe35 Fe37 2.543818 1_545
Fe35 Fe36 2.543818 1_555
Fe35 Fe7 2.606229 1_555
Fe35 Th3 3.234321 1_545
Fe36 Fe49 2.368383 1_555
Fe36 Fe46 2.452777 1_555
Fe36 Fe37 2.549384 1_545
Fe36 Fe7 2.651111 1_555
Fe36 Th1 3.234321 1_555
Fe37 Fe48 2.368383 1_555
Fe37 Fe46 2.452777 1_565
Fe37 Fe6 2.651111 1_555
Fe37 Th0 3.234321 1_555
Fe38 Fe50 2.368383 1_555
Fe38 Fe47 2.452777 1_556
Fe38 Fe39 2.549384 1_455
Fe38 Fe4 2.651111 1_455
Fe38 Th2 3.234321 1_456
Fe39 Fe51 2.368383 1_555
Fe39 Fe47 2.452777 1_656
Fe39 Fe5 2.651111 1_655
Fe39 Th3 3.234321 1_656
Fe40 Fe53 2.368383 1_555
Fe40 Fe46 2.452777 1_565
Fe40 Fe41 2.549384 1_565
Fe40 Fe5 2.606229 1_555
Fe40 Th0 3.234321 1_555
Fe41 Fe52 2.368383 1_555
Fe41 Fe46 2.452777 1_555
Fe41 Th1 3.234321 1_555
Fe42 Fe54 2.368383 1_555
Fe42 Fe47 2.452777 1_655
Fe42 Fe8 2.494528 1_555
Fe42 Fe43 2.549384 1_655
Fe42 Fe6 2.606229 1_555
Fe42 Th3 3.234321 1_655
Fe43 Fe55 2.368383 1_555
Fe43 Fe47 2.452777 1_555
Fe43 Fe9 2.494528 1_555
Fe43 Fe7 2.606229 1_555
Fe43 Th2 3.234321 1_455
Fe44 Fe8 2.550429 1_455
Fe44 Fe9 2.550429 1_555
Fe44 Th1 3.359456 1_555
Fe44 Th0 3.359456 1_455
Fe45 Th2 3.359456 1_555
Fe45 Th3 3.359456 1_545
Fe46 Th1 3.359456 1_555
Fe46 Th0 3.359456 1_545
Fe47 Th3 3.359456 1_555
Fe47 Th2 3.359456 1_455
Fe48 Fe49 2.423753 1_555
Fe48 Fe7 2.650623 1_555
Fe48 Fe6 2.650623 1_555
Fe48 Th1 3.239884 1_555
Fe48 Th0 3.239884 1_555
Fe49 Fe7 2.650623 1_555
Fe49 Fe6 2.650623 1_555
Fe49 Th1 3.239884 1_555
Fe49 Th0 3.239884 1_555
Fe50 Fe51 2.423753 1_445
Fe50 Th3 3.239884 1_546
Fe50 Th2 3.239884 1_456
Fe51 Th3 3.239884 1_656
Fe51 Th2 3.239884 1_566
Fe52 Fe53 2.423753 1_555
Fe52 Th0 3.239884 1_555
Fe52 Th1 3.239884 1_555
Fe53 Th0 3.239884 1_555
Fe53 Th1 3.239884 1_555
Fe54 Fe55 2.423753 1_665
Fe54 Fe8 2.584233 1_555
Fe54 Fe6 2.752862 1_555
Fe54 Th3 3.239884 1_655
Fe54 Th2 3.239884 1_565
Fe55 Fe9 2.584233 1_555
Fe55 Fe7 2.752862 1_555
Fe55 Th3 3.239884 1_545
Fe55 Th2 3.239884 1_455
B0 Fe25 2.051305 1_665
B0 Fe27 2.051305 1_665
B0 Fe21 2.082594 1_555
B0 Fe13 2.082594 1_555
B0 Fe16 2.082594 1_555
B0 Fe8 2.082594 1_555
B0 Th0 2.884359 1_555
B0 Dy1 3.219738 1_565
B0 Dy0 3.219738 1_655
B1 Fe25 2.051305 1_555
B1 Fe27 2.051305 1_555
B1 Fe20 2.082594 1_555
B1 Fe12 2.082594 1_555
B1 Fe17 2.082594 1_555
B1 Fe9 2.082594 1_555
B1 Th1 2.884359 1_555
B1 Dy0 3.219738 1_545
B1 Dy1 3.219738 1_455
B2 Fe24 2.051305 1_555
B2 Fe26 2.051305 1_554
B2 Fe15 2.082594 1_555
B2 Fe22 2.082594 1_555
B2 Fe10 2.082594 1_554
B2 Fe19 2.082594 1_554
B2 Th2 2.884359 1_555
B2 Dy2 3.219738 1_555
B2 Dy3 3.219738 1_555
B3 Fe24 2.051305 1_555
B3 Fe26 2.051305 1_554
B3 Fe23 2.082594 1_555
B3 Fe14 2.082594 1_555
B3 Fe18 2.082594 1_554
B3 Fe11 2.082594 1_554
B3 Th3 2.884359 1_555
B3 Dy2 3.219738 1_555
B3 Dy3 3.219738 1_555
