# generated using pymatgen
data_Li7Mn2(CoO4)3
_symmetry_space_group_name_H-M   'P 1'
_cell_length_a   8.81328400
_cell_length_b   5.03442900
_cell_length_c   5.11380087
_cell_angle_alpha   70.78771484
_cell_angle_beta   90.00000000
_cell_angle_gamma   90.00000000
_symmetry_Int_Tables_number   1
_chemical_formula_structural   Li7Mn2(CoO4)3
_chemical_formula_sum   'Li7 Mn2 Co3 O12'
_cell_volume   214.26166303
_cell_formula_units_Z   1
loop_
 _symmetry_equiv_pos_site_id
 _symmetry_equiv_pos_as_xyz
  1  'x, y, z'
loop_
 _atom_site_type_symbol
 _atom_site_label
 _atom_site_symmetry_multiplicity
 _atom_site_fract_x
 _atom_site_fract_y
 _atom_site_fract_z
 _atom_site_occupancy
  Li  Li0  1  0.82482700  0.00000000  0.50000000  1
  Li  Li1  1  0.66149700  0.50000000  0.50000000  1
  Li  Li2  1  0.49657300  0.00000000  0.50000000  1
  Li  Li3  1  0.34043100  0.50000000  0.50000000  1
  Li  Li4  1  0.17881600  0.00000000  0.50000000  1
  Li  Li5  1  0.99786400  0.50000000  0.50000000  1
  Li  Li6  1  0.33650900  0.00000000  0.00000000  1
  Mn  Mn0  1  0.00341200  0.00000000  0.00000000  1
  Mn  Mn1  1  0.17094300  0.50000000  0.00000000  1
  Co  Co0  1  0.82473800  0.50000000  0.00000000  1
  Co  Co1  1  0.65841700  0.00000000  0.00000000  1
  Co  Co2  1  0.49382600  0.50000000  0.00000000  1
  O  O0  1  0.84250100  0.76747300  0.22423100  1
  O  O1  1  0.67182400  0.25852100  0.23581800  1
  O  O2  1  0.50811300  0.74770200  0.22739100  1
  O  O3  1  0.32345700  0.27664000  0.23451700  1
  O  O4  1  0.15419800  0.74878500  0.22086000  1
  O  O5  1  0.00598000  0.25296700  0.21887200  1
  O  O6  1  0.84250100  0.23252700  0.77576900  1
  O  O7  1  0.67182400  0.74147900  0.76418200  1
  O  O8  1  0.50811300  0.25229800  0.77260900  1
  O  O9  1  0.32345700  0.72336000  0.76548300  1
  O  O10  1  0.15419800  0.25121500  0.77914000  1
  O  O11  1  0.00598000  0.74703300  0.78112800  1
loop_
_geom_bond_atom_site_label_1
_geom_bond_atom_site_label_2
_geom_bond_distance
_geom_bond_site_symmetry_2
Li0 O7 2.044550 1_545
Li0 O1 2.044550 1_555
Li0 O6 2.114215 1_555
Li0 O0 2.114215 1_545
Li0 O11 2.243369 1_645
Li0 O5 2.243369 1_655
Li1 O8 2.044944 1_555
Li1 O2 2.044944 1_555
Li1 O7 2.095778 1_555
Li1 O1 2.095778 1_555
Li1 O6 2.257655 1_555
Li1 O0 2.257655 1_555
Li2 O8 2.175429 1_555
Li2 O2 2.175429 1_545
Li2 O7 2.178861 1_545
Li2 O1 2.178861 1_555
Li2 O9 2.205957 1_545
Li2 O3 2.205957 1_555
Li3 O9 2.033408 1_555
Li3 O3 2.033408 1_555
Li3 O8 2.130344 1_555
Li3 O2 2.130344 1_555
Li3 O4 2.263550 1_555
Li3 O10 2.263550 1_555
Li4 O9 2.040452 1_545
Li4 O3 2.040452 1_555
Li4 O11 2.191808 1_545
Li4 O5 2.191808 1_555
Li4 O10 2.207359 1_555
Li4 O4 2.207359 1_545
Li5 O4 2.080407 1_655
Li5 O10 2.080407 1_655
Li5 O6 2.104063 1_555
Li5 O0 2.104063 1_555
Li5 O11 2.189825 1_655
Li5 O5 2.189825 1_655
Li6 O8 2.069008 1_554
Li6 O2 2.069008 1_545
Li6 O3 2.119063 1_555
Li6 O9 2.119063 1_544
Li6 O10 2.125258 1_554
Li6 O4 2.125258 1_545
Mn0 O10 1.923818 1_554
Mn0 O4 1.923818 1_545
Mn0 O0 1.952684 1_445
Mn0 O6 1.952684 1_454
Mn0 O5 1.952773 1_555
Mn0 O11 1.952773 1_544
Mn1 O3 1.903136 1_555
Mn1 O9 1.903136 1_554
Mn1 O4 1.948625 1_555
Mn1 O10 1.948625 1_554
Mn1 O5 1.999268 1_555
Mn1 O11 1.999268 1_554
Co0 O1 1.945139 1_555
Co0 O7 1.945139 1_554
Co0 O0 2.041775 1_555
Co0 O6 2.041775 1_554
Co0 O5 2.105904 1_655
Co0 O11 2.105904 1_654
Co1 O8 1.936030 1_554
Co1 O2 1.936030 1_545
Co1 O1 2.048194 1_555
Co1 O7 2.048194 1_544
Co1 O0 2.105693 1_545
Co1 O6 2.105693 1_554
Co2 O2 1.969137 1_555
Co2 O8 1.969137 1_554
Co2 O3 2.017355 1_555
Co2 O9 2.017355 1_554
Co2 O1 2.104354 1_555
Co2 O7 2.104354 1_554
