# generated using pymatgen
data_Mg14SiBiO16
_symmetry_space_group_name_H-M   'P 1'
_cell_length_a   8.58214293
_cell_length_b   8.96503483
_cell_length_c   4.42206216
_cell_angle_alpha   90.00000000
_cell_angle_beta   90.00000000
_cell_angle_gamma   90.00000000
_symmetry_Int_Tables_number   1
_chemical_formula_structural   Mg14SiBiO16
_chemical_formula_sum   'Mg14 Si1 Bi1 O16'
_cell_volume   340.22997041
_cell_formula_units_Z   1
loop_
 _symmetry_equiv_pos_site_id
 _symmetry_equiv_pos_as_xyz
  1  'x, y, z'
loop_
 _atom_site_type_symbol
 _atom_site_label
 _atom_site_symmetry_multiplicity
 _atom_site_fract_x
 _atom_site_fract_y
 _atom_site_fract_z
 _atom_site_occupancy
  Mg  Mg0  1  0.50000000  -0.00000000  -0.00000000  1
  Mg  Mg1  1  0.50000000  0.50000000  -0.00000000  1
  Mg  Mg2  1  0.00000000  0.24726866  0.50000000  1
  Mg  Mg3  1  0.00000000  0.75273134  0.50000000  1
  Mg  Mg4  1  0.50000000  0.24723486  0.50000000  1
  Mg  Mg5  1  0.50000000  0.75276514  0.50000000  1
  Mg  Mg6  1  0.24990399  -0.00000000  0.50000000  1
  Mg  Mg7  1  0.25991991  0.50000000  0.50000000  1
  Mg  Mg8  1  0.75009601  -0.00000000  0.50000000  1
  Mg  Mg9  1  0.74008009  0.50000000  0.50000000  1
  Mg  Mg10  1  0.25253272  0.24942439  -0.00000000  1
  Mg  Mg11  1  0.25253272  0.75057561  0.00000000  1
  Mg  Mg12  1  0.74746728  0.24942439  0.00000000  1
  Mg  Mg13  1  0.74746728  0.75057561  0.00000000  1
  Si  Si0  1  0.00000000  -0.00000000  -0.00000000  1
  Bi  Bi0  1  0.00000000  0.50000000  -0.00000000  1
  O  O0  1  0.23269907  -0.00000000  0.00000000  1
  O  O1  1  0.27701821  0.50000000  -0.00000000  1
  O  O2  1  0.76730093  -0.00000000  -0.00000000  1
  O  O3  1  0.72298179  0.50000000  -0.00000000  1
  O  O4  1  0.24914461  0.24734539  0.50000000  1
  O  O5  1  0.24914461  0.75265461  0.50000000  1
  O  O6  1  0.75085539  0.24734539  0.50000000  1
  O  O7  1  0.75085539  0.75265461  0.50000000  1
  O  O8  1  0.00000000  -0.00000000  0.50000000  1
  O  O9  1  0.00000000  0.50000000  0.50000000  1
  O  O10  1  0.50000000  -0.00000000  0.50000000  1
  O  O11  1  0.50000000  0.50000000  0.50000000  1
  O  O12  1  0.00000000  0.18359585  -0.00000000  1
  O  O13  1  0.00000000  0.81640415  0.00000000  1
  O  O14  1  0.50000000  0.23747409  -0.00000000  1
  O  O15  1  0.50000000  0.76252591  0.00000000  1
loop_
_geom_bond_atom_site_label_1
_geom_bond_atom_site_label_2
_geom_bond_distance
_geom_bond_site_symmetry_2
Mg0 O15 2.128963 1_545
Mg0 O14 2.128963 1_555
Mg0 O10 2.211031 1_554
Mg0 O10 2.211031 1_555
Mg0 O2 2.294015 1_555
Mg0 O0 2.294015 1_555
Mg1 O1 1.913662 1_555
Mg1 O3 1.913662 1_555
Mg1 O11 2.211031 1_554
Mg1 O11 2.211031 1_555
Mg1 O15 2.353554 1_555
Mg1 O14 2.353554 1_555
Mg2 O4 2.138195 1_555
Mg2 O6 2.138195 1_455
Mg2 O8 2.216772 1_555
Mg2 O9 2.265745 1_555
Mg2 O12 2.283529 1_556
Mg2 O12 2.283529 1_555
Mg3 O7 2.138195 1_455
Mg3 O5 2.138195 1_555
Mg3 O8 2.216772 1_565
Mg3 O9 2.265745 1_555
Mg3 O13 2.283529 1_556
Mg3 O13 2.283529 1_555
Mg4 O4 2.152877 1_555
Mg4 O6 2.152877 1_555
Mg4 O14 2.212762 1_556
Mg4 O14 2.212762 1_555
Mg4 O10 2.216469 1_555
Mg4 O11 2.266048 1_555
Mg5 O5 2.152877 1_555
Mg5 O7 2.152877 1_555
Mg5 O15 2.212762 1_556
Mg5 O15 2.212762 1_555
Mg5 O10 2.216469 1_565
Mg5 O11 2.266048 1_555
Mg6 O8 2.144712 1_555
Mg6 O10 2.146360 1_555
Mg6 O0 2.215956 1_555
Mg6 O0 2.215956 1_556
Mg6 O5 2.217470 1_545
Mg6 O4 2.217470 1_555
Mg7 O11 2.060402 1_555
Mg7 O1 2.215895 1_556
Mg7 O1 2.215895 1_555
Mg7 O9 2.230670 1_555
Mg7 O4 2.266944 1_555
Mg7 O5 2.266944 1_555
Mg8 O8 2.144712 1_655
Mg8 O10 2.146360 1_555
Mg8 O2 2.215956 1_555
Mg8 O2 2.215956 1_556
Mg8 O6 2.217470 1_555
Mg8 O7 2.217470 1_545
Mg9 O11 2.060402 1_555
Mg9 O3 2.215895 1_556
Mg9 O3 2.215895 1_555
Mg9 O9 2.230670 1_655
Mg9 O6 2.266944 1_555
Mg9 O7 2.266944 1_555
Mg10 O14 2.126500 1_555
Mg10 O4 2.211301 1_554
Mg10 O4 2.211301 1_555
Mg10 O0 2.242568 1_555
Mg10 O12 2.246186 1_555
Mg10 O1 2.256226 1_555
Mg11 O15 2.126500 1_555
Mg11 O5 2.211301 1_554
Mg11 O5 2.211301 1_555
Mg11 O0 2.242568 1_565
Mg11 O13 2.246186 1_555
Mg11 O1 2.256226 1_555
Mg12 O14 2.126500 1_555
Mg12 O6 2.211301 1_555
Mg12 O6 2.211301 1_554
Mg12 O2 2.242568 1_555
Mg12 O12 2.246186 1_655
Mg12 O3 2.256226 1_555
Mg13 O15 2.126500 1_555
Mg13 O7 2.211301 1_555
Mg13 O7 2.211301 1_554
Mg13 O2 2.242568 1_565
Mg13 O13 2.246186 1_655
Mg13 O3 2.256226 1_555
Bi0 O9 2.211031 1_555
Bi0 O9 2.211031 1_554
Bi0 O3 2.377410 1_455
Bi0 O1 2.377410 1_555
O0 Si0 1.997057 1_555
O2 Si0 1.997057 1_655
O8 Si0 2.211031 1_556
O8 Si0 2.211031 1_555
O12 Si0 1.645943 1_555
O13 Si0 1.645943 1_565
