# generated using pymatgen
data_Ba10MgMn6(O12F)2
_symmetry_space_group_name_H-M   'P 1'
_cell_length_a   7.72224692
_cell_length_b   10.88707534
_cell_length_c   10.87407332
_cell_angle_alpha   121.13515822
_cell_angle_beta   90.00000000
_cell_angle_gamma   90.00000000
_symmetry_Int_Tables_number   1
_chemical_formula_structural   Ba10MgMn6(O12F)2
_chemical_formula_sum   'Ba10 Mg1 Mn6 O24 F2'
_cell_volume   782.52018324
_cell_formula_units_Z   1
loop_
 _symmetry_equiv_pos_site_id
 _symmetry_equiv_pos_as_xyz
  1  'x, y, z'
loop_
 _atom_site_type_symbol
 _atom_site_label
 _atom_site_symmetry_multiplicity
 _atom_site_fract_x
 _atom_site_fract_y
 _atom_site_fract_z
 _atom_site_occupancy
  Ba  Ba0  1  0.50336840  0.68870240  0.34814788  1
  Ba  Ba1  1  0.99070586  0.34900317  0.64717945  1
  Ba  Ba2  1  0.50929414  0.34900317  0.64717945  1
  Ba  Ba3  1  0.99663160  0.68870240  0.34814788  1
  Ba  Ba4  1  0.75000000  0.23336310  0.98455732  1
  Ba  Ba5  1  0.75000000  0.99762068  0.22261255  1
  Ba  Ba6  1  0.75000000  0.77550641  0.76582636  1
  Ba  Ba7  1  0.25000000  0.68119215  0.00264060  1
  Ba  Ba8  1  0.25000000  0.95757994  0.83432615  1
  Ba  Ba9  1  0.25000000  0.26049459  0.24798773  1
  Mg  Mg0  1  0.25000000  0.19655934  0.76133766  1
  Mn  Mn0  1  0.75000000  0.98687504  0.60328286  1
  Mn  Mn1  1  0.75000000  0.41042918  0.36243352  1
  Mn  Mn2  1  0.75000000  0.62424488  0.03234094  1
  Mn  Mn3  1  0.25000000  0.03563283  0.37910450  1
  Mn  Mn4  1  0.25000000  0.60661260  0.63301089  1
  Mn  Mn5  1  0.25000000  0.36585644  0.01391694  1
  O  O0  1  0.75000000  0.17107177  0.68179541  1
  O  O1  1  0.75000000  0.32521365  0.45881626  1
  O  O2  1  0.75000000  0.52574185  0.84700251  1
  O  O3  1  0.25000000  0.85670247  0.31200718  1
  O  O4  1  0.25000000  0.70042490  0.54711879  1
  O  O5  1  0.25000000  0.54190329  0.17963175  1
  O  O6  1  0.75000000  0.89993309  0.41759566  1
  O  O7  1  0.75000000  0.59517673  0.47213836  1
  O  O8  1  0.75000000  0.52825692  0.11737919  1
  O  O9  1  0.25000000  0.13535219  0.56621747  1
  O  O10  1  0.25000000  0.42196011  0.52370846  1
  O  O11  1  0.25000000  0.40716691  0.83779712  1
  O  O12  1  0.57364698  0.92409510  0.65246654  1
  O  O13  1  0.57118094  0.36104591  0.25350605  1
  O  O14  1  0.57539019  0.73864286  0.09891454  1
  O  O15  1  0.07401518  0.09832502  0.33179358  1
  O  O16  1  0.07508614  0.65331939  0.74663579  1
  O  O17  1  0.08582622  0.21703315  0.91425134  1
  O  O18  1  0.42598482  0.09832502  0.33179358  1
  O  O19  1  0.42491386  0.65331939  0.74663579  1
  O  O20  1  0.41417378  0.21703315  0.91425134  1
  O  O21  1  0.92635302  0.92409510  0.65246654  1
  O  O22  1  0.92881906  0.36104591  0.25350605  1
  O  O23  1  0.92460981  0.73864286  0.09891454  1
  F  F0  1  0.54194935  0.98064795  0.98606174  1
  F  F1  1  0.95805065  0.98064795  0.98606174  1
loop_
_geom_bond_atom_site_label_1
_geom_bond_atom_site_label_2
_geom_bond_distance
_geom_bond_site_symmetry_2
Ba0 O5 2.590712 1_555
Ba0 O6 2.773126 1_555
Ba0 O7 2.810985 1_555
Ba0 O3 2.841003 1_555
Ba0 O4 2.870572 1_555
Ba0 O8 2.905634 1_555
Ba0 O12 3.007150 1_555
Ba0 O14 3.077960 1_555
Ba0 O13 3.203435 1_555
Ba1 O1 2.677501 1_555
Ba1 O11 2.710986 1_655
Ba1 O10 2.746946 1_655
Ba1 O2 2.748695 1_555
Ba1 O9 2.842038 1_655
Ba1 O0 2.846648 1_555
Ba1 O16 2.977512 1_655
Ba1 O15 3.153535 1_655
Ba2 O1 2.677501 1_555
Ba2 O11 2.710986 1_555
Ba2 O10 2.746946 1_555
Ba2 O2 2.748695 1_555
Ba2 O9 2.842038 1_555
Ba2 O0 2.846648 1_555
Ba2 O19 2.977512 1_555
Ba2 O18 3.153535 1_555
Ba3 O5 2.590712 1_655
Ba3 O6 2.773126 1_555
Ba3 O7 2.810985 1_555
Ba3 O3 2.841003 1_655
Ba3 O4 2.870572 1_655
Ba3 O8 2.905634 1_555
Ba3 O21 3.007150 1_555
Ba3 O23 3.077960 1_555
Ba3 O22 3.203435 1_555
Ba4 O17 2.683450 1_655
Ba4 O20 2.683450 1_555
Ba4 O8 2.756508 1_556
Ba4 O13 2.861499 1_556
Ba4 O22 2.861499 1_556
Ba4 O0 2.998329 1_555
Ba4 F1 3.193407 1_545
Ba4 F0 3.193407 1_545
Ba5 O15 2.743381 1_665
Ba5 O18 2.743381 1_565
Ba5 O23 2.766794 1_555
Ba5 O14 2.766794 1_555
Ba5 O6 2.821082 1_555
Ba5 F0 2.956419 1_554
Ba5 F1 2.956419 1_554
Ba5 O1 3.137539 1_565
Ba6 O7 2.751296 1_555
Ba6 F0 2.788093 1_555
Ba6 F1 2.788093 1_555
Ba6 O19 2.797884 1_555
Ba6 O16 2.797884 1_655
Ba6 O12 2.837816 1_555
Ba6 O21 2.837816 1_555
Ba6 O2 3.264267 1_555
Ba7 O11 2.565789 1_554
Ba7 O23 2.669070 1_455
Ba7 O14 2.669070 1_555
Ba7 O3 2.884575 1_555
Ba7 O16 2.965232 1_554
Ba7 O19 2.965232 1_554
Ba7 O5 3.003649 1_555
Ba8 F1 2.727598 1_455
Ba8 F0 2.727598 1_555
Ba8 O20 2.793345 1_565
Ba8 O17 2.793345 1_565
Ba8 O4 2.924036 1_555
Ba8 O12 3.089420 1_555
Ba8 O21 3.089420 1_455
Ba8 O19 3.231102 1_555
Ba8 O16 3.231102 1_555
Ba9 O10 2.574702 1_555
Ba9 O22 2.699193 1_455
Ba9 O13 2.699193 1_555
Ba9 O18 2.731007 1_555
Ba9 O15 2.731007 1_555
Mg0 O9 1.866486 1_555
Mg0 O11 1.994303 1_555
Mg0 O20 2.009622 1_555
Mg0 O17 2.009622 1_555
Mn0 O0 1.726233 1_565
Mn0 O21 1.727956 1_555
Mn0 O12 1.727956 1_555
Mn0 O6 1.731061 1_555
Mn1 O22 1.714745 1_555
Mn1 O13 1.714745 1_555
Mn1 O1 1.721829 1_555
Mn1 O7 1.728404 1_555
Mn2 O8 1.716536 1_555
Mn2 O14 1.720751 1_555
Mn2 O23 1.720751 1_555
Mn2 O2 1.725334 1_554
Mn3 O3 1.690369 1_545
Mn3 O18 1.714794 1_555
Mn3 O15 1.714794 1_555
Mn3 O9 1.741909 1_555
Mn4 O4 1.703515 1_555
Mn4 O19 1.720448 1_555
Mn4 O16 1.720448 1_555
Mn4 O10 1.727186 1_555
Mn5 O5 1.830048 1_555
Mn5 O20 1.895039 1_554
Mn5 O17 1.895039 1_554
Mn5 O11 2.181916 1_554
