# generated using pymatgen
data_V4FeCuO12
_symmetry_space_group_name_H-M   'P 1'
_cell_length_a   6.77262693
_cell_length_b   6.77616408
_cell_length_c   11.83146503
_cell_angle_alpha   75.12027034
_cell_angle_beta   104.88374594
_cell_angle_gamma   96.12839997
_symmetry_Int_Tables_number   1
_chemical_formula_structural   V4FeCuO12
_chemical_formula_sum   'V8 Fe2 Cu2 O24'
_cell_volume   506.67662564
_cell_formula_units_Z   2
loop_
 _symmetry_equiv_pos_site_id
 _symmetry_equiv_pos_as_xyz
  1  'x, y, z'
loop_
 _atom_site_type_symbol
 _atom_site_label
 _atom_site_symmetry_multiplicity
 _atom_site_fract_x
 _atom_site_fract_y
 _atom_site_fract_z
 _atom_site_occupancy
  V  V0  1  0.20172300  0.61575300  0.37372600  1
  V  V1  1  0.20176600  0.61568000  0.87372400  1
  V  V2  1  0.61570300  0.20186200  0.37620000  1
  V  V3  1  0.61577800  0.20193200  0.87616900  1
  V  V4  1  0.38927900  0.78947700  0.12964900  1
  V  V5  1  0.38932100  0.78946100  0.62964600  1
  V  V6  1  0.78968600  0.38934100  0.12033400  1
  V  V7  1  0.78970000  0.38937700  0.62032000  1
  Fe  Fe0  1  0.91593700  0.91584700  0.12505700  1
  Fe  Fe1  1  0.91601500  0.91595400  0.62506400  1
  Cu  Cu0  1  0.09404200  0.09352600  0.87556400  1
  Cu  Cu1  1  0.09379100  0.09407600  0.37507900  1
  O  O0  1  0.03484300  0.81513200  0.30759100  1
  O  O1  1  0.03493000  0.81515400  0.80760100  1
  O  O2  1  0.81515800  0.03492400  0.44243500  1
  O  O3  1  0.81514300  0.03493500  0.94243200  1
  O  O4  1  0.07965100  0.38684600  0.38037300  1
  O  O5  1  0.07983100  0.38680000  0.88035800  1
  O  O6  1  0.38663100  0.08022600  0.36957600  1
  O  O7  1  0.38669000  0.08016100  0.86955900  1
  O  O8  1  0.19818400  0.96038800  0.08284500  1
  O  O9  1  0.19832000  0.96037500  0.58294000  1
  O  O10  1  0.96042700  0.19824600  0.16707200  1
  O  O11  1  0.96045400  0.19835400  0.66697400  1
  O  O12  1  0.37352000  0.64121400  0.27549100  1
  O  O13  1  0.37369800  0.64124600  0.77555700  1
  O  O14  1  0.64139200  0.37367000  0.47443600  1
  O  O15  1  0.64139300  0.37362500  0.97445100  1
  O  O16  1  0.33803300  0.63147200  0.02486600  1
  O  O17  1  0.33796200  0.63144100  0.52489100  1
  O  O18  1  0.63146700  0.33796000  0.22501200  1
  O  O19  1  0.63144100  0.33796200  0.72499700  1
  O  O20  1  0.62735400  0.90638000  0.13826400  1
  O  O21  1  0.62739800  0.90637200  0.63825300  1
  O  O22  1  0.90667300  0.62740300  0.11175100  1
  O  O23  1  0.90666300  0.62742500  0.61174400  1
loop_
_geom_bond_atom_site_label_1
_geom_bond_atom_site_label_2
_geom_bond_distance
_geom_bond_site_symmetry_2
Fe0 O20 1.993348 1_555
Fe0 O22 1.993925 1_555
Fe0 O0 2.060408 1_655
Fe0 O3 2.061625 1_564
Fe0 O8 2.069879 1_655
Fe0 O10 2.070791 1_565
Fe1 O21 1.993437 1_555
Fe1 O23 1.994497 1_555
Fe1 O1 2.060508 1_655
Fe1 O2 2.061584 1_565
Fe1 O9 2.069813 1_655
Fe1 O11 2.070257 1_565
Cu0 O7 2.013834 1_555
Cu0 O5 2.015754 1_555
Cu0 O3 2.190355 1_455
Cu0 O1 2.194843 1_545
Cu0 O8 2.331691 1_546
Cu0 O11 2.345980 1_455
Cu1 O6 2.013883 1_555
Cu1 O4 2.014013 1_555
Cu1 O2 2.191759 1_455
Cu1 O0 2.195439 1_545
Cu1 O9 2.338456 1_545
Cu1 O10 2.339392 1_455
O0 V0 1.744622 1_555
O1 V1 1.744895 1_555
O2 V2 1.745180 1_555
O3 V3 1.745010 1_555
O4 V0 1.671104 1_555
O5 V1 1.670578 1_555
O6 V2 1.670354 1_555
O7 V3 1.670830 1_555
O8 V4 1.716208 1_555
O9 V5 1.715800 1_555
O10 V6 1.715568 1_555
O11 V7 1.715309 1_555
O12 V4 1.783129 1_555
O12 V0 1.811976 1_555
O13 V5 1.783485 1_555
O13 V1 1.811978 1_555
O14 V7 1.783331 1_555
O14 V2 1.812270 1_555
O15 V6 1.783305 1_556
O15 V3 1.812144 1_555
O16 V4 1.784672 1_555
O16 V1 1.813926 1_554
O17 V5 1.784448 1_555
O17 V0 1.813934 1_555
O18 V6 1.784369 1_555
O18 V2 1.814240 1_555
O19 V7 1.784554 1_555
O19 V3 1.813784 1_555
O20 V4 1.709396 1_555
O21 V5 1.709434 1_555
O22 V6 1.710151 1_555
O23 V7 1.710012 1_555
