# generated using pymatgen
data_MgMnO2
_symmetry_space_group_name_H-M   'P 1'
_cell_length_a   6.10133539
_cell_length_b   6.11273871
_cell_length_c   6.11283707
_cell_angle_alpha   90.00396815
_cell_angle_beta   120.05933428
_cell_angle_gamma   120.05911954
_symmetry_Int_Tables_number   1
_chemical_formula_structural   MgMnO2
_chemical_formula_sum   'Mg4 Mn4 O8'
_cell_volume   160.91405154
_cell_formula_units_Z   4
loop_
 _symmetry_equiv_pos_site_id
 _symmetry_equiv_pos_as_xyz
  1  'x, y, z'
loop_
 _atom_site_type_symbol
 _atom_site_label
 _atom_site_symmetry_multiplicity
 _atom_site_fract_x
 _atom_site_fract_y
 _atom_site_fract_z
 _atom_site_occupancy
  Mg  Mg0  1  0.00007541  0.00057054  0.99965587  1
  Mg  Mg1  1  0.50005366  0.50052627  0.49964311  1
  Mg  Mg2  1  0.00005080  0.50052688  0.99964510  1
  Mg  Mg3  1  0.50006671  0.50054560  0.99961586  1
  Mn  Mn0  1  0.00004499  0.00029452  0.49977678  1
  Mn  Mn1  1  -0.00003002  0.50025208  0.49973626  1
  Mn  Mn2  1  0.50002210  0.00032629  0.99977034  1
  Mn  Mn3  1  0.50000318  0.00031404  0.49976623  1
  O  O0  1  0.48929688  0.73482355  0.24446610  1
  O  O1  1  0.01068884  0.25557456  0.24512310  1
  O  O2  1  0.48935457  0.25496425  0.24448930  1
  O  O3  1  0.01074034  0.25559105  0.76523520  1
  O  O4  1  0.98934811  0.74491528  0.75455606  1
  O  O5  1  0.51073085  0.26563259  0.75516862  1
  O  O6  1  0.98934105  0.74492610  0.23445170  1
  O  O7  1  0.51072252  0.74553238  0.75516136  1
loop_
_geom_bond_atom_site_label_1
_geom_bond_atom_site_label_2
_geom_bond_distance
_geom_bond_site_symmetry_2
Mg0 O2 2.107881 1_556
Mg0 O7 2.108306 1_445
Mg0 O3 2.116564 1_555
Mg0 O1 2.118180 1_556
Mg0 O4 2.119015 1_445
Mg0 O6 2.120903 1_446
Mg1 O4 2.108038 1_555
Mg1 O1 2.108265 1_555
Mg1 O0 2.116734 1_555
Mg1 O7 2.118262 1_555
Mg1 O2 2.118880 1_555
Mg1 O5 2.120794 1_555
Mg2 O0 2.107839 1_556
Mg2 O5 2.108057 1_455
Mg2 O4 2.116730 1_455
Mg2 O6 2.118441 1_456
Mg2 O3 2.119039 1_555
Mg2 O1 2.120851 1_556
Mg3 O6 2.107867 1_556
Mg3 O3 2.108177 1_555
Mg3 O7 2.116582 1_555
Mg3 O0 2.118460 1_556
Mg3 O5 2.118904 1_555
Mg3 O2 2.120955 1_556
Mn0 O5 2.200072 1_555
Mn0 O0 2.200357 1_445
Mn0 O1 2.205113 1_555
Mn0 O6 2.205203 1_445
Mn0 O3 2.205522 1_555
Mn0 O4 2.206096 1_445
Mn1 O2 2.199771 1_455
Mn1 O7 2.200375 1_555
Mn1 O6 2.205216 1_455
Mn1 O1 2.205287 1_555
Mn1 O4 2.205709 1_455
Mn1 O3 2.206106 1_555
Mn2 O1 2.199985 1_656
Mn2 O4 2.200041 1_445
Mn2 O5 2.205004 1_555
Mn2 O2 2.205344 1_556
Mn2 O7 2.205710 1_545
Mn2 O0 2.206268 1_546
Mn3 O6 2.199968 1_445
Mn3 O3 2.200311 1_655
Mn3 O2 2.205084 1_555
Mn3 O5 2.205216 1_555
Mn3 O0 2.205631 1_545
Mn3 O7 2.206176 1_545
