# generated using pymatgen
data_Tl2CrO4
_symmetry_space_group_name_H-M   'P 1'
_cell_length_a   6.98223478
_cell_length_b   6.98223478
_cell_length_c   14.68450926
_cell_angle_alpha   68.67361454
_cell_angle_beta   68.67361454
_cell_angle_gamma   49.01060039
_symmetry_Int_Tables_number   1
_chemical_formula_structural   Tl2CrO4
_chemical_formula_sum   'Tl8 Cr4 O16'
_cell_volume   495.33988750
_cell_formula_units_Z   4
loop_
 _symmetry_equiv_pos_site_id
 _symmetry_equiv_pos_as_xyz
  1  'x, y, z'
loop_
 _atom_site_type_symbol
 _atom_site_label
 _atom_site_symmetry_multiplicity
 _atom_site_fract_x
 _atom_site_fract_y
 _atom_site_fract_z
 _atom_site_occupancy
  Tl  Tl0  1  0.37913603  0.37913603  0.63116086  1
  Tl  Tl1  1  0.62086397  0.62086397  0.36883914  1
  Tl  Tl2  1  0.07650372  0.07650372  0.61365142  1
  Tl  Tl3  1  0.92349628  0.92349628  0.38634858  1
  Tl  Tl4  1  0.18217781  0.18217781  0.88577898  1
  Tl  Tl5  1  0.81782219  0.81782219  0.11422102  1
  Tl  Tl6  1  0.50512347  0.50512347  0.86855692  1
  Tl  Tl7  1  0.49487653  0.49487653  0.13144308  1
  Cr  Cr0  1  0.72349485  0.72349485  0.63845059  1
  Cr  Cr1  1  0.27650515  0.27650515  0.36154941  1
  Cr  Cr2  1  0.85926107  0.85926107  0.85834044  1
  Cr  Cr3  1  0.14073893  0.14073893  0.14165956  1
  O  O0  1  0.67155249  0.67155249  0.55206540  1
  O  O1  1  0.32844751  0.32844751  0.44793460  1
  O  O2  1  0.86508233  0.86508233  0.58549641  1
  O  O3  1  0.13491767  0.13491767  0.41450359  1
  O  O4  1  0.44415982  0.91166231  0.70897500  1
  O  O5  1  0.91166231  0.44415982  0.70897500  1
  O  O6  1  0.55584018  0.08833769  0.29102500  1
  O  O7  1  0.08833769  0.55584018  0.29102500  1
  O  O8  1  0.94215564  0.94215564  0.92139327  1
  O  O9  1  0.05784436  0.05784436  0.07860673  1
  O  O10  1  0.72348791  0.72348791  0.93609672  1
  O  O11  1  0.27651209  0.27651209  0.06390328  1
  O  O12  1  0.65309343  0.12541005  0.78860785  1
  O  O13  1  0.12541005  0.65309343  0.78860785  1
  O  O14  1  0.34690657  0.87458995  0.21139215  1
  O  O15  1  0.87458995  0.34690657  0.21139215  1
loop_
_geom_bond_atom_site_label_1
_geom_bond_atom_site_label_2
_geom_bond_distance
_geom_bond_site_symmetry_2
Cr0 O0 1.647430 1_555
Cr0 O2 1.650185 1_555
Cr0 O4 1.661806 1_555
Cr0 O5 1.661806 1_555
Cr1 O1 1.647430 1_555
Cr1 O3 1.650185 1_555
Cr1 O6 1.661806 1_555
Cr1 O7 1.661806 1_555
Cr2 O10 1.644826 1_555
Cr2 O8 1.657207 1_555
Cr2 O13 1.659185 1_655
Cr2 O12 1.659185 1_565
Cr3 O11 1.644826 1_555
Cr3 O9 1.657207 1_555
Cr3 O15 1.659185 1_455
Cr3 O14 1.659185 1_545
O2 Tl3 2.714381 1_555
O3 Tl2 2.714381 1_555
O4 Tl2 2.727591 1_565
O4 Tl0 2.808219 1_565
O4 Tl6 2.834117 1_555
O5 Tl2 2.727591 1_655
O5 Tl0 2.808219 1_655
O5 Tl6 2.834117 1_555
O6 Tl3 2.727591 1_545
O6 Tl1 2.808219 1_545
O6 Tl7 2.834117 1_555
O7 Tl3 2.727591 1_455
O7 Tl1 2.808219 1_455
O7 Tl7 2.834117 1_555
O8 Tl5 2.633978 1_556
O9 Tl4 2.633978 1_554
O12 Tl6 2.695039 1_555
O12 Tl0 2.816912 1_555
O13 Tl6 2.695039 1_555
O13 Tl0 2.816912 1_555
O14 Tl7 2.695039 1_555
O14 Tl1 2.816912 1_555
O15 Tl7 2.695039 1_555
O15 Tl1 2.816912 1_555
