# generated using pymatgen
data_RbCrCuF6
_symmetry_space_group_name_H-M   'P 1'
_cell_length_a   7.39094279
_cell_length_b   7.39094279
_cell_length_c   7.39094279
_cell_angle_alpha   121.93401277
_cell_angle_beta   119.73766412
_cell_angle_gamma   88.56907318
_symmetry_Int_Tables_number   1
_chemical_formula_structural   RbCrCuF6
_chemical_formula_sum   'Rb2 Cr2 Cu2 F12'
_cell_volume   281.65021948
_cell_formula_units_Z   2
loop_
 _symmetry_equiv_pos_site_id
 _symmetry_equiv_pos_as_xyz
  1  'x, y, z'
loop_
 _atom_site_type_symbol
 _atom_site_label
 _atom_site_symmetry_multiplicity
 _atom_site_fract_x
 _atom_site_fract_y
 _atom_site_fract_z
 _atom_site_occupancy
  Rb  Rb0  1  0.36966600  0.61966600  0.75000000  1
  Rb  Rb1  1  0.63033400  0.38033400  0.25000000  1
  Cr  Cr0  1  0.00000000  0.00000000  0.00000000  1
  Cr  Cr1  1  0.50000000  0.00000000  0.50000000  1
  Cu  Cu0  1  0.00000000  0.00000000  0.50000000  1
  Cu  Cu1  1  0.00000000  0.50000000  0.00000000  1
  F  F0  1  0.31232700  0.06232700  0.25000000  1
  F  F1  1  0.93121400  0.68121400  0.25000000  1
  F  F2  1  0.33399100  0.68264100  0.25993600  1
  F  F3  1  0.92270400  0.07405400  0.24006400  1
  F  F4  1  0.33399100  0.07405400  0.65135000  1
  F  F5  1  0.92270400  0.68264100  0.84865000  1
  F  F6  1  0.68767300  0.93767300  0.75000000  1
  F  F7  1  0.06878600  0.31878600  0.75000000  1
  F  F8  1  0.66600900  0.31735900  0.74006400  1
  F  F9  1  0.07729600  0.92594600  0.75993600  1
  F  F10  1  0.66600900  0.92594600  0.34865000  1
  F  F11  1  0.07729600  0.31735900  0.15135000  1
loop_
_geom_bond_atom_site_label_1
_geom_bond_atom_site_label_2
_geom_bond_distance
_geom_bond_site_symmetry_2
Cr0 F5 1.933052 1_444
Cr0 F11 1.933052 1_555
Cr0 F3 1.933059 1_455
Cr0 F9 1.933059 1_544
Cr0 F6 1.968818 1_444
Cr0 F0 1.968818 1_555
Cr1 F2 1.933052 1_545
Cr1 F8 1.933052 1_555
Cr1 F10 1.933052 1_545
Cr1 F4 1.933052 1_555
Cr1 F6 1.968818 1_545
Cr1 F0 1.968818 1_555
Cu0 F7 1.935546 1_555
Cu0 F1 1.935546 1_445
Cu0 F9 2.079609 1_545
Cu0 F3 2.079609 1_455
Cu0 F4 2.079616 1_555
Cu0 F10 2.079616 1_445
Cu1 F7 1.935546 1_554
Cu1 F1 1.935546 1_455
Cu1 F11 2.079616 1_555
Cu1 F5 2.079616 1_454
Cu1 F2 2.079616 1_555
Cu1 F8 2.079616 1_454
F0 Rb1 3.365174 1_555
F1 Rb1 3.183934 1_555
F2 Rb1 3.088111 1_555
F3 Rb1 3.088111 1_555
F4 Rb1 3.088111 1_556
F5 Rb1 3.088111 1_555
F6 Rb0 3.365174 1_555
F7 Rb0 3.183934 1_555
F8 Rb0 3.088111 1_555
F9 Rb0 3.088111 1_555
F10 Rb0 3.088111 1_554
F11 Rb0 3.088111 1_555
