# generated using pymatgen
data_Na2TePO11
_symmetry_space_group_name_H-M   'P 1'
_cell_length_a   14.77935700
_cell_length_b   6.08740100
_cell_length_c   6.11931740
_cell_angle_alpha   60.40602000
_cell_angle_beta   90.00000000
_cell_angle_gamma   90.00000000
_symmetry_Int_Tables_number   1
_chemical_formula_structural   Na2TePO11
_chemical_formula_sum   'Na4 Te2 P2 O22'
_cell_volume   478.72201894
_cell_formula_units_Z   2
loop_
 _symmetry_equiv_pos_site_id
 _symmetry_equiv_pos_as_xyz
  1  'x, y, z'
loop_
 _atom_site_type_symbol
 _atom_site_label
 _atom_site_symmetry_multiplicity
 _atom_site_fract_x
 _atom_site_fract_y
 _atom_site_fract_z
 _atom_site_occupancy
  Na  Na0  1  0.04404400  0.33071100  0.33273200  1
  Na  Na1  1  0.54404400  0.66928900  0.66726800  1
  Na  Na2  1  0.31255600  0.66872700  0.66965100  1
  Na  Na3  1  0.81255600  0.33127300  0.33034900  1
  Te  Te0  1  0.49518500  0.33172300  0.32704200  1
  Te  Te1  1  0.99518500  0.66827700  0.67295800  1
  P  P0  1  0.26324800  0.99300800  0.00456800  1
  P  P1  1  0.76324800  0.00699200  0.99543200  1
  O  O0  1  0.23057900  0.82409100  0.89918600  1
  O  O1  1  0.23349300  0.87685500  0.28077100  1
  O  O2  1  0.23792900  0.27520800  0.83376700  1
  O  O3  1  0.73057900  0.17590900  0.10081400  1
  O  O4  1  0.73349300  0.12314500  0.71922900  1
  O  O5  1  0.73792900  0.72479200  0.16623300  1
  O  O6  1  0.43706800  0.43598700  0.54547200  1
  O  O7  1  0.43284300  0.55303600  0.01952600  1
  O  O8  1  0.43198300  0.01773500  0.43364600  1
  O  O9  1  0.93706800  0.56401300  0.45452800  1
  O  O10  1  0.93284300  0.44696400  0.98047400  1
  O  O11  1  0.93198300  0.98226500  0.56635400  1
  O  O12  1  0.06140900  0.69474600  0.93101100  1
  O  O13  1  0.05768900  0.92040200  0.37304300  1
  O  O14  1  0.06255000  0.38207900  0.69281200  1
  O  O15  1  0.56140900  0.30525400  0.06898900  1
  O  O16  1  0.55768900  0.07959800  0.62695700  1
  O  O17  1  0.56255000  0.61792100  0.30718800  1
  O  O18  1  0.36796700  0.02386900  0.98211300  1
  O  O19  1  0.86796700  0.97613100  0.01788700  1
  O  O20  1  0.21125700  0.33541900  0.32804800  1
  O  O21  1  0.71125700  0.66458100  0.67195200  1
loop_
_geom_bond_atom_site_label_1
_geom_bond_atom_site_label_2
_geom_bond_distance
_geom_bond_site_symmetry_2
Na0 O12 2.374681 1_554
Na0 O14 2.389202 1_555
Na0 O13 2.394066 1_545
Na0 O20 2.471469 1_555
Na0 O9 2.473380 1_455
Na0 O11 2.508156 1_445
Na0 O10 2.518265 1_454
Na1 O15 2.374681 1_556
Na1 O17 2.389202 1_555
Na1 O16 2.394066 1_565
Na1 O21 2.471469 1_555
Na1 O6 2.473380 1_555
Na1 O8 2.508156 1_565
Na1 O7 2.518265 1_556
Na2 O2 2.363755 1_555
Na2 O0 2.376412 1_555
Na2 O1 2.378146 1_555
Na2 O8 2.585401 1_565
Na2 O7 2.598273 1_556
Na2 O6 2.652249 1_555
Na3 O5 2.363755 1_555
Na3 O3 2.376412 1_555
Na3 O4 2.378146 1_555
Na3 O11 2.585401 1_545
Na3 O10 2.598273 1_554
Na3 O9 2.652249 1_555
O0 P0 1.536633 1_556
O1 P0 1.539367 1_555
O2 P0 1.552447 1_546
O3 P1 1.536633 1_554
O4 P1 1.539367 1_555
O5 P1 1.552447 1_564
O6 Te0 1.940398 1_555
O7 Te0 1.923813 1_555
O8 Te0 1.928696 1_555
O9 Te1 1.940398 1_555
O10 Te1 1.923813 1_555
O11 Te1 1.928696 1_555
O12 Te1 1.931010 1_455
O13 Te1 1.948086 1_455
O14 Te1 1.957603 1_455
O15 Te0 1.931010 1_555
O16 Te0 1.948086 1_555
O17 Te0 1.957603 1_555
O18 P0 1.556917 1_546
O19 P1 1.556917 1_564
