# generated using pymatgen
data_Nb11S12
_symmetry_space_group_name_H-M   'P 1'
_cell_length_a   5.73368375
_cell_length_b   5.73368375
_cell_length_c   35.26682003
_cell_angle_alpha   86.50477430
_cell_angle_beta   86.50477430
_cell_angle_gamma   56.82981543
_symmetry_Int_Tables_number   1
_chemical_formula_structural   Nb11S12
_chemical_formula_sum   'Nb22 S24'
_cell_volume   968.14158382
_cell_formula_units_Z   2
loop_
 _symmetry_equiv_pos_site_id
 _symmetry_equiv_pos_as_xyz
  1  'x, y, z'
loop_
 _atom_site_type_symbol
 _atom_site_label
 _atom_site_symmetry_multiplicity
 _atom_site_fract_x
 _atom_site_fract_y
 _atom_site_fract_z
 _atom_site_occupancy
  Nb  Nb0  1  0.83980500  0.33871500  0.99963500  1
  Nb  Nb1  1  0.31365500  0.40606600  0.68533800  1
  Nb  Nb2  1  0.16019500  0.66128500  0.00036500  1
  Nb  Nb3  1  0.44045700  0.55954300  0.75000000  1
  Nb  Nb4  1  0.40606600  0.31365500  0.18533800  1
  Nb  Nb5  1  0.01652200  0.92773200  0.31308100  1
  Nb  Nb6  1  0.55954300  0.44045700  0.25000000  1
  Nb  Nb7  1  0.59393400  0.68634500  0.81466200  1
  Nb  Nb8  1  0.66128500  0.16019500  0.50036500  1
  Nb  Nb9  1  0.33871500  0.83980500  0.49963500  1
  Nb  Nb10  1  0.77558800  0.88789000  0.74946100  1
  Nb  Nb11  1  0.98347800  0.07226800  0.68691900  1
  Nb  Nb12  1  0.68634500  0.59393400  0.31466200  1
  Nb  Nb13  1  0.88789000  0.77558800  0.24946100  1
  Nb  Nb14  1  0.07226800  0.98347800  0.18691900  1
  Nb  Nb15  1  0.11211000  0.22441200  0.75053900  1
  Nb  Nb16  1  0.64802400  0.73714800  0.68542100  1
  Nb  Nb17  1  0.26285200  0.35197600  0.81457900  1
  Nb  Nb18  1  0.22441200  0.11211000  0.25053900  1
  Nb  Nb19  1  0.73714800  0.64802400  0.18542100  1
  Nb  Nb20  1  0.35197600  0.26285200  0.31457900  1
  Nb  Nb21  1  0.92773200  0.01652200  0.81308100  1
  S  S0  1  0.57974600  0.34539500  0.85784900  1
  S  S1  1  0.02549300  0.83177100  0.45675500  1
  S  S2  1  0.31715600  0.50611300  0.54345500  1
  S  S3  1  0.42025400  0.65460500  0.14215100  1
  S  S4  1  0.98152700  0.76089300  0.64118900  1
  S  S5  1  0.77508700  0.70442000  0.04068100  1
  S  S6  1  0.49388700  0.68284400  0.95654500  1
  S  S7  1  0.65460500  0.42025400  0.64215100  1
  S  S8  1  0.91074800  0.68054200  0.85772800  1
  S  S9  1  0.70442000  0.77508700  0.54068100  1
  S  S10  1  0.68284400  0.49388700  0.45654500  1
  S  S11  1  0.23910700  0.01847300  0.85881100  1
  S  S12  1  0.68054200  0.91074800  0.35772800  1
  S  S13  1  0.08925200  0.31945800  0.14227200  1
  S  S14  1  0.16822900  0.97450700  0.04324500  1
  S  S15  1  0.01847300  0.23910700  0.35881100  1
  S  S16  1  0.22491300  0.29558000  0.95931900  1
  S  S17  1  0.97450700  0.16822900  0.54324500  1
  S  S18  1  0.31945800  0.08925200  0.64227200  1
  S  S19  1  0.83177100  0.02549300  0.95675500  1
  S  S20  1  0.29558000  0.22491300  0.45931900  1
  S  S21  1  0.50611300  0.31715600  0.04345500  1
  S  S22  1  0.76089300  0.98152700  0.14118900  1
  S  S23  1  0.34539500  0.57974600  0.35784900  1
loop_
_geom_bond_atom_site_label_1
_geom_bond_atom_site_label_2
_geom_bond_distance
_geom_bond_site_symmetry_2
Nb0 S6 2.419904 1_555
Nb0 S14 2.435308 1_646
Nb0 S21 2.437039 1_556
Nb0 S19 2.438129 1_555
Nb0 S16 2.453747 1_655
Nb0 S5 2.466382 1_556
Nb1 S18 2.423154 1_555
Nb1 S4 2.434247 1_455
Nb1 S7 2.438003 1_555
Nb1 Nb3 2.765906 1_555
Nb1 Nb15 2.899766 1_555
Nb2 S21 2.419904 1_555
Nb2 S19 2.435308 1_464
Nb2 S6 2.437039 1_554
Nb2 S14 2.438129 1_555
Nb2 S5 2.453747 1_455
Nb2 S16 2.466382 1_554
Nb3 Nb7 2.765906 1_555
Nb4 S13 2.423154 1_555
Nb4 S22 2.434247 1_545
Nb4 S3 2.438003 1_555
Nb4 Nb6 2.765906 1_555
Nb5 S23 2.427203 1_555
Nb5 S12 2.452851 1_455
Nb5 S15 2.482662 1_565
Nb7 S8 2.423154 1_555
Nb7 S11 2.434247 1_565
Nb7 S0 2.438003 1_555
Nb8 S2 2.419904 1_555
Nb8 S1 2.435308 1_645
Nb8 S10 2.437039 1_555
Nb8 S17 2.438129 1_555
Nb8 S9 2.453747 1_545
Nb8 S20 2.466382 1_555
Nb9 S10 2.419904 1_555
Nb9 S17 2.435308 1_465
Nb9 S2 2.437039 1_555
Nb9 S1 2.438129 1_555
Nb9 S20 2.453747 1_565
Nb9 S9 2.466382 1_555
Nb10 Nb21 2.735593 1_565
Nb10 Nb16 2.741155 1_555
Nb10 Nb11 2.859605 1_565
Nb10 Nb7 2.899766 1_555
Nb10 Nb15 3.186762 1_565
Nb10 Nb15 3.186762 1_655
Nb10 Nb3 3.198168 1_655
Nb10 Nb3 3.229595 1_565
Nb11 S7 2.427203 1_555
Nb11 S18 2.452851 1_655
Nb11 S4 2.482662 1_545
Nb11 Nb15 2.735593 1_655
Nb12 S12 2.423154 1_555
Nb12 S15 2.434247 1_655
Nb12 S23 2.438003 1_555
Nb12 Nb6 2.765906 1_555
Nb12 Nb13 2.899766 1_555
Nb13 Nb5 2.735593 1_655
Nb13 Nb19 2.741155 1_555
Nb13 Nb14 2.859605 1_655
Nb13 Nb18 3.186762 1_655
Nb13 Nb18 3.186762 1_565
Nb13 Nb6 3.198168 1_565
Nb13 Nb6 3.229595 1_655
Nb14 S3 2.427203 1_555
Nb14 S13 2.452851 1_565
Nb14 S22 2.482662 1_455
Nb14 Nb18 2.735593 1_565
Nb15 Nb17 2.741155 1_555
Nb15 Nb21 2.859605 1_455
Nb15 Nb3 3.198168 1_545
Nb15 Nb3 3.229595 1_455
Nb16 S18 2.398677 1_565
Nb16 S7 2.426417 1_555
Nb16 S4 2.450241 1_555
Nb16 Nb3 2.890203 1_555
Nb17 S8 2.398677 1_455
Nb17 S0 2.426417 1_555
Nb17 S11 2.450241 1_555
Nb17 Nb3 2.890203 1_555
Nb18 Nb20 2.741155 1_555
Nb18 Nb5 2.859605 1_545
Nb18 Nb4 2.899766 1_555
Nb18 Nb6 3.198168 1_455
Nb18 Nb6 3.229595 1_545
Nb19 S13 2.398677 1_655
Nb19 S3 2.426417 1_555
Nb19 S22 2.450241 1_555
Nb19 Nb6 2.890203 1_555
Nb20 S12 2.398677 1_545
Nb20 S23 2.426417 1_555
Nb20 S15 2.450241 1_555
Nb20 Nb6 2.890203 1_555
Nb21 S0 2.427203 1_555
Nb21 S8 2.452851 1_545
Nb21 S11 2.482662 1_655
