# generated using pymatgen
data_Ca8Ti2Mn6O23
_symmetry_space_group_name_H-M   'P 1'
_cell_length_a   10.91620062
_cell_length_b   15.41042678
_cell_length_c   10.76471905
_cell_angle_alpha   90.06599013
_cell_angle_beta   90.33636845
_cell_angle_gamma   90.03144056
_symmetry_Int_Tables_number   1
_chemical_formula_structural   Ca8Ti2Mn6O23
_chemical_formula_sum   'Ca32 Ti8 Mn24 O92'
_cell_volume   1810.84398785
_cell_formula_units_Z   4
loop_
 _symmetry_equiv_pos_site_id
 _symmetry_equiv_pos_as_xyz
  1  'x, y, z'
loop_
 _atom_site_type_symbol
 _atom_site_label
 _atom_site_symmetry_multiplicity
 _atom_site_fract_x
 _atom_site_fract_y
 _atom_site_fract_z
 _atom_site_occupancy
  Ca  Ca0  1  0.00932875  0.11975432  0.50494118  1
  Ca  Ca1  1  0.01194044  0.11748467  0.99912940  1
  Ca  Ca2  1  0.01982701  0.62567981  0.49626733  1
  Ca  Ca3  1  0.02206094  0.62553835  0.99556016  1
  Ca  Ca4  1  0.52892669  0.13201160  0.50465977  1
  Ca  Ca5  1  0.53697625  0.12265922  0.97320800  1
  Ca  Ca6  1  0.52658086  0.62456677  0.49826102  1
  Ca  Ca7  1  0.52220301  0.62447419  0.99330789  1
  Ca  Ca8  1  0.49161914  0.38459583  0.99713641  1
  Ca  Ca9  1  0.48146297  0.38510716  0.50670092  1
  Ca  Ca10  1  0.48801578  0.86654387  0.99591283  1
  Ca  Ca11  1  0.48385258  0.86370210  0.51367556  1
  Ca  Ca12  1  0.96782102  0.38750609  0.00104122  1
  Ca  Ca13  1  0.97484772  0.38285745  0.50428606  1
  Ca  Ca14  1  0.97331185  0.86864715  0.00538711  1
  Ca  Ca15  1  0.96872927  0.86801823  0.50492280  1
  Ca  Ca16  1  0.23109885  0.39100737  0.25255408  1
  Ca  Ca17  1  0.22978918  0.38415771  0.73966786  1
  Ca  Ca18  1  0.22853625  0.87051133  0.24497353  1
  Ca  Ca19  1  0.23288216  0.86443867  0.75106031  1
  Ca  Ca20  1  0.72939409  0.38430973  0.24465040  1
  Ca  Ca21  1  0.72428213  0.38018439  0.74701946  1
  Ca  Ca22  1  0.73045532  0.86565393  0.24659789  1
  Ca  Ca23  1  0.72475858  0.87055461  0.74489651  1
  Ca  Ca24  1  0.24211475  0.12059447  0.26461394  1
  Ca  Ca25  1  0.27622945  0.11966110  0.73680297  1
  Ca  Ca26  1  0.27459159  0.62645488  0.25515764  1
  Ca  Ca27  1  0.27292214  0.62441016  0.75837431  1
  Ca  Ca28  1  0.77443462  0.11835015  0.25269933  1
  Ca  Ca29  1  0.76733591  0.12476147  0.75273841  1
  Ca  Ca30  1  0.77052648  0.62472757  0.25461991  1
  Ca  Ca31  1  0.77155529  0.62567682  0.75457148  1
  Ti  Ti0  1  0.99587700  0.99296644  0.24953125  1
  Ti  Ti1  1  0.98924170  0.99624790  0.75717800  1
  Ti  Ti2  1  0.25156005  0.99656031  0.99639426  1
  Ti  Ti3  1  0.23201183  0.99080258  0.51206471  1
  Ti  Ti4  1  0.25735099  0.24370825  0.96661063  1
  Ti  Ti5  1  0.24499589  0.25437618  0.49828929  1
  Ti  Ti6  1  0.98785906  0.25159643  0.26674848  1
  Ti  Ti7  1  0.98873356  0.25256931  0.74970284  1
  Mn  Mn0  1  0.99996257  0.50294240  0.24989422  1
  Mn  Mn1  1  0.00143072  0.50165489  0.75024602  1
  Mn  Mn2  1  0.50669796  0.98764922  0.24395569  1
  Mn  Mn3  1  0.50191653  0.99902655  0.74845513  1
  Mn  Mn4  1  0.49949728  0.50388970  0.25096882  1
  Mn  Mn5  1  0.50029463  0.50158206  0.74999466  1
  Mn  Mn6  1  0.24988704  0.50218553  0.00443323  1
  Mn  Mn7  1  0.25125689  0.50446978  0.50047480  1
  Mn  Mn8  1  0.74711434  0.99743097  0.99897840  1
  Mn  Mn9  1  0.74441208  -0.00006217  0.50057098  1
  Mn  Mn10  1  0.74866011  0.50295018  0.00036982  1
  Mn  Mn11  1  0.75121550  0.50078743  0.50049667  1
  Mn  Mn12  1  0.25066546  0.74810773  0.00402711  1
  Mn  Mn13  1  0.25122325  0.74759254  0.49965929  1
  Mn  Mn14  1  0.74946209  0.25079866  0.00042501  1
  Mn  Mn15  1  0.74785212  0.25160820  0.50180741  1
  Mn  Mn16  1  0.74995309  0.74863004  0.00063373  1
  Mn  Mn17  1  0.75017330  0.74830029  0.50019554  1
  Mn  Mn18  1  0.00072320  0.74726965  0.25075359  1
  Mn  Mn19  1  0.00126689  0.74855706  0.75108385  1
  Mn  Mn20  1  0.51600565  0.25593065  0.25942651  1
  Mn  Mn21  1  0.50430197  0.25153345  0.74448970  1
  Mn  Mn22  1  0.49962843  0.74747119  0.25152442  1
  Mn  Mn23  1  0.50041929  0.74722655  0.75140705  1
  O  O0  1  0.10315479  0.26432732  0.59133681  1
  O  O1  1  0.10649854  0.77185069  0.10568767  1
  O  O2  1  0.10727112  0.77300338  0.60447761  1
  O  O3  1  0.59029007  0.25998594  0.09971397  1
  O  O4  1  0.59966003  0.27030339  0.59533684  1
  O  O5  1  0.60767366  0.77207827  0.10865956  1
  O  O6  1  0.60816911  0.76547929  0.60750882  1
  O  O7  1  0.39691881  0.21095465  0.36512932  1
  O  O8  1  0.40503176  0.22903649  0.89644844  1
  O  O9  1  0.39606782  0.72536506  0.39713733  1
  O  O10  1  0.39637154  0.73156619  0.89760942  1
  O  O11  1  0.90078366  0.23140946  0.40428506  1
  O  O12  1  0.90222313  0.23310871  0.90024235  1
  O  O13  1  0.89745369  0.73093075  0.39625542  1
  O  O14  1  0.89770449  0.73015729  0.89659149  1
  O  O15  1  0.15214541  0.24402100  0.33364729  1
  O  O16  1  0.15153276  0.23048306  0.83919051  1
  O  O17  1  0.14760709  0.73025342  0.35211589  1
  O  O18  1  0.14853871  0.73165123  0.85299514  1
  O  O19  1  0.65635673  0.22395712  0.35151100  1
  O  O20  1  0.65124412  0.23090571  0.85016126  1
  O  O21  1  0.64621298  0.72865869  0.35422016  1
  O  O22  1  0.64531360  0.72967795  0.85560446  1
  O  O23  1  0.35412897  0.26417938  0.63809763  1
  O  O24  1  0.35775242  0.77325189  0.14584306  1
  O  O25  1  0.35620450  0.76897940  0.64404434  1
  O  O26  1  0.86235812  0.27190119  0.14364065  1
  O  O27  1  0.85191316  0.27202227  0.64996173  1
  O  O28  1  0.85773128  0.77024738  0.14527538  1
  O  O29  1  0.85745739  0.77166666  0.64596427  1
  O  O30  1  0.35730620  0.48462900  0.14712984  1
  O  O31  1  0.35634310  0.48120448  0.64337458  1
  O  O32  1  0.35310328  0.99983072  0.16324285  1
  O  O33  1  0.35550041  0.98384554  0.64085015  1
  O  O34  1  0.85595735  0.48142411  0.14579794  1
  O  O35  1  0.85758848  0.47764302  0.64585500  1
  O  O36  1  0.85170821  0.98065818  0.14584447  1
  O  O37  1  0.85291266  0.97938365  0.64583126  1
  O  O38  1  0.14291029  0.00997982  0.35775514  1
  O  O39  1  0.14580531  0.02552970  0.86060450  1
  O  O40  1  0.14814968  0.52079767  0.35211707  1
  O  O41  1  0.14893335  0.51525345  0.85283774  1
  O  O42  1  0.62749181  0.02952062  0.35663156  1
  O  O43  1  0.64836952  0.01943238  0.84872977  1
  O  O44  1  0.64659010  0.51920827  0.35402848  1
  O  O45  1  0.64537654  0.52017701  0.85442776  1
  O  O46  1  0.39399313  0.02289924  0.89608604  1
  O  O47  1  0.39561073  0.52335558  0.39746369  1
  O  O48  1  0.39574002  0.51315415  0.89730653  1
  O  O49  1  0.88880673  0.01939058  0.39358509  1
  O  O50  1  0.89434897  0.01585848  0.89756704  1
  O  O51  1  0.89892100  0.51834208  0.39688111  1
  O  O52  1  0.89802325  0.51831061  0.89668348  1
  O  O53  1  0.10261286  0.48315242  0.10515612  1
  O  O54  1  0.10779954  0.47860167  0.60471646  1
  O  O55  1  0.10483302  0.98419221  0.10611092  1
  O  O56  1  0.10022660  0.97715106  0.60714430  1
  O  O57  1  0.60718223  0.48125061  0.10762492  1
  O  O58  1  0.60762197  0.48178391  0.60563333  1
  O  O59  1  0.60169765  0.98546089  0.09420535  1
  O  O60  1  0.59832439  0.98036962  0.59867313  1
  O  O61  1  0.01249670  0.37715563  0.27841816  1
  O  O62  1  0.01445355  0.37527840  0.78518509  1
  O  O63  1  0.00650146  0.87255557  0.28549742  1
  O  O64  1  0.01240488  0.87440959  0.78976717  1
  O  O65  1  0.49688483  0.37727840  0.28467140  1
  O  O66  1  0.50563753  0.37519545  0.78246389  1
  O  O67  1  0.50586162  0.87272143  0.29857089  1
  O  O68  1  0.50613563  0.87416247  0.78271608  1
  O  O69  1  0.49409510  0.12566024  0.71554984  1
  O  O70  1  0.49179220  0.62680288  0.20870977  1
  O  O71  1  0.48887054  0.62397832  0.71465760  1
  O  O72  1  0.99848982  0.12911007  0.21728792  1
  O  O73  1  0.98855045  0.12425396  0.71573384  1
  O  O74  1  0.98793355  0.62578580  0.20992667  1
  O  O75  1  0.98974080  0.62492965  0.71078035  1
  O  O76  1  0.22672895  0.14850906  0.06164972  1
  O  O77  1  0.24465306  0.11956140  0.51515772  1
  O  O78  1  0.24074251  0.62898904  0.03781257  1
  O  O79  1  0.23493598  0.62567375  0.54298969  1
  O  O80  1  0.74578379  0.12417904  0.03694974  1
  O  O81  1  0.74408140  0.12623891  0.54049840  1
  O  O82  1  0.74056741  0.62600523  0.03805513  1
  O  O83  1  0.74540951  0.62387498  0.53772868  1
  O  O84  1  0.26460029  0.37513565  0.46416412  1
  O  O85  1  0.25268533  0.35663918  0.01481131  1
  O  O86  1  0.26909571  0.87639372  0.45848971  1
  O  O87  1  0.26370305  0.88021078  0.96988813  1
  O  O88  1  0.75910479  0.37485392  0.45924947  1
  O  O89  1  0.75162340  0.37599588  0.96599210  1
  O  O90  1  0.75378880  0.87504391  0.46179692  1
  O  O91  1  0.75624397  0.87409461  0.96194219  1
loop_
_geom_bond_atom_site_label_1
_geom_bond_atom_site_label_2
_geom_bond_distance
_geom_bond_site_symmetry_2
Ca0 O73 2.282734 1_455
Ca0 O11 2.351625 1_455
Ca0 O49 2.352645 1_455
Ca0 O77 2.570559 1_555
Ca0 O0 2.619007 1_555
Ca0 O56 2.649430 1_545
Ca0 O38 2.742653 1_555
Ca1 O50 2.296322 1_455
Ca1 O72 2.360470 1_456
Ca1 O12 2.394625 1_455
Ca1 O76 2.481638 1_556
Ca1 O39 2.527859 1_555
Ca1 O55 2.562778 1_546
Ca1 O16 2.890220 1_555
Ca2 O75 2.334360 1_455
Ca2 O13 2.358780 1_455
Ca2 O51 2.366355 1_455
Ca2 O79 2.398543 1_555
Ca2 O17 2.641839 1_555
Ca2 O40 2.646640 1_555
Ca2 O2 2.720457 1_555
Ca2 O54 2.723530 1_555
Ca3 O74 2.339631 1_456
Ca3 O14 2.359334 1_455
Ca3 O52 2.381881 1_455
Ca3 O78 2.428034 1_556
Ca3 O18 2.638871 1_555
Ca3 O53 2.641136 1_556
Ca3 O41 2.681143 1_555
Ca3 O1 2.705098 1_556
Ca4 O69 2.306175 1_555
Ca4 O81 2.379639 1_555
Ca4 O7 2.406923 1_555
Ca4 O4 2.464810 1_555
Ca4 O42 2.491519 1_555
Ca4 O19 2.586643 1_555
Ca4 O60 2.656583 1_545
Ca5 O8 2.331615 1_555
Ca5 O46 2.338389 1_555
Ca5 O80 2.376658 1_556
Ca5 O43 2.412686 1_555
Ca5 O20 2.472903 1_555
Ca5 O3 2.579628 1_556
Ca5 O59 2.581288 1_546
Ca5 O69 2.810567 1_555
Ca6 O71 2.367947 1_555
Ca6 O9 2.369760 1_555
Ca6 O47 2.372657 1_555
Ca6 O83 2.423840 1_555
Ca6 O21 2.590372 1_555
Ca6 O44 2.604497 1_555
Ca6 O6 2.621347 1_555
Ca6 O58 2.637438 1_555
Ca7 O70 2.344549 1_556
Ca7 O10 2.379373 1_555
Ca7 O48 2.427594 1_555
Ca7 O82 2.429215 1_556
Ca7 O45 2.578118 1_555
Ca7 O22 2.580374 1_555
Ca7 O57 2.690992 1_556
Ca7 O5 2.750266 1_556
Ca8 O57 2.280538 1_556
Ca8 O66 2.321210 1_555
Ca8 O3 2.461743 1_556
Ca8 O48 2.483784 1_555
Ca8 O85 2.651331 1_556
Ca8 O30 2.675386 1_556
Ca8 O8 2.791853 1_555
Ca8 O89 2.863068 1_555
Ca9 O58 2.286321 1_555
Ca9 O4 2.386856 1_555
Ca9 O65 2.399893 1_555
Ca9 O84 2.413334 1_555
Ca9 O31 2.498790 1_555
Ca9 O47 2.606718 1_555
Ca9 O23 2.726152 1_555
Ca10 O5 2.299127 1_556
Ca10 O68 2.307785 1_555
Ca10 O59 2.448567 1_556
Ca10 O87 2.472112 1_555
Ca10 O10 2.535252 1_555
Ca10 O24 2.593034 1_556
Ca10 O46 2.830132 1_565
Ca11 O6 2.267760 1_555
Ca11 O67 2.333669 1_555
Ca11 O60 2.368844 1_555
Ca11 O86 2.423109 1_555
Ca11 O25 2.463201 1_555
Ca11 O9 2.648445 1_555
Ca11 O33 2.699024 1_555
Ca11 O68 2.909196 1_555
Ca11 O90 3.007377 1_555
Ca12 O53 2.359696 1_655
Ca12 O62 2.388908 1_654
Ca12 O89 2.394287 1_554
Ca12 O52 2.429533 1_554
Ca12 O34 2.456248 1_555
Ca12 O26 2.623044 1_555
Ca12 O12 2.708213 1_554
Ca13 O54 2.329737 1_655
Ca13 O88 2.404756 1_555
Ca13 O61 2.469744 1_655
Ca13 O35 2.472715 1_555
Ca13 O0 2.483480 1_655
Ca13 O51 2.525699 1_555
Ca13 O27 2.684346 1_555
Ca13 O11 2.690984 1_555
Ca14 O1 2.343571 1_655
Ca14 O64 2.364215 1_654
Ca14 O91 2.414096 1_554
Ca14 O28 2.486841 1_555
Ca14 O55 2.526241 1_655
Ca14 O14 2.566810 1_554
Ca14 O36 2.654777 1_555
Ca14 O50 2.689438 1_564
Ca15 O2 2.359376 1_655
Ca15 O90 2.391678 1_555
Ca15 O63 2.401246 1_655
Ca15 O29 2.451554 1_555
Ca15 O56 2.464611 1_655
Ca15 O13 2.533484 1_555
Ca15 O37 2.619810 1_555
Ca15 O49 2.763252 1_565
Ca16 O30 2.299447 1_555
Ca16 O84 2.318210 1_555
Ca16 O61 2.413486 1_555
Ca16 O40 2.444900 1_555
Ca16 O53 2.546069 1_555
Ca16 O15 2.578155 1_555
Ca16 O85 2.624844 1_555
Ca16 O65 2.927682 1_555
Ca17 O31 2.288607 1_555
Ca17 O62 2.407835 1_555
Ca17 O54 2.446680 1_555
Ca17 O41 2.520605 1_555
Ca17 O23 2.543973 1_555
Ca17 O16 2.738653 1_555
Ca17 O0 2.799122 1_555
Ca18 O24 2.321878 1_555
Ca18 O86 2.339789 1_555
Ca18 O63 2.465450 1_555
Ca18 O1 2.510686 1_555
Ca18 O32 2.570942 1_555
Ca18 O17 2.607318 1_555
Ca18 O38 2.641308 1_565
Ca18 O55 2.666825 1_555
Ca19 O25 2.306491 1_555
Ca19 O87 2.389666 1_555
Ca19 O64 2.449861 1_555
Ca19 O18 2.500826 1_555
Ca19 O2 2.514519 1_555
Ca19 O33 2.570239 1_555
Ca19 O56 2.738000 1_555
Ca19 O39 2.909606 1_565
Ca19 O68 3.003941 1_555
Ca20 O34 2.302072 1_555
Ca20 O88 2.335596 1_555
Ca20 O57 2.484237 1_555
Ca20 O26 2.511323 1_555
Ca20 O44 2.556147 1_555
Ca20 O65 2.579153 1_555
Ca20 O19 2.842608 1_555
Ca20 O3 2.893569 1_555
Ca21 O35 2.362024 1_555
Ca21 O89 2.375216 1_555
Ca21 O27 2.413850 1_555
Ca21 O66 2.420478 1_555
Ca21 O58 2.524778 1_555
Ca21 O45 2.596324 1_555
Ca21 O20 2.678574 1_555
Ca21 O4 2.710927 1_555
Ca22 O28 2.301735 1_555
Ca22 O90 2.333348 1_555
Ca22 O5 2.459740 1_555
Ca22 O36 2.467371 1_555
Ca22 O67 2.520320 1_555
Ca22 O21 2.580860 1_555
Ca22 O59 2.838690 1_555
Ca23 O91 2.360147 1_555
Ca23 O29 2.360426 1_555
Ca23 O68 2.424020 1_555
Ca23 O37 2.434346 1_555
Ca23 O6 2.529659 1_555
Ca23 O22 2.627067 1_555
Ca23 O43 2.686168 1_565
Ca23 O60 2.688792 1_555
Ca24 O76 2.232661 1_555
Ca24 O38 2.257968 1_555
Ca24 O15 2.267593 1_555
Ca24 O7 2.436789 1_555
Ca24 O32 2.476977 1_545
Ca24 O77 2.697078 1_555
Ca24 O72 2.708156 1_455
Ca25 O69 2.392327 1_555
Ca25 O77 2.408714 1_555
Ca25 O39 2.435529 1_555
Ca25 O16 2.449520 1_555
Ca25 O33 2.490733 1_545
Ca25 O46 2.607334 1_555
Ca25 O23 2.612663 1_555
Ca25 O8 2.780942 1_555
Ca26 O17 2.363285 1_555
Ca26 O78 2.366883 1_555
Ca26 O40 2.379916 1_555
Ca26 O70 2.426027 1_555
Ca26 O9 2.527114 1_555
Ca26 O47 2.569113 1_555
Ca26 O30 2.636867 1_555
Ca26 O24 2.709762 1_555
Ca27 O79 2.353051 1_555
Ca27 O18 2.372150 1_555
Ca27 O41 2.390228 1_555
Ca27 O71 2.406569 1_555
Ca27 O10 2.599520 1_555
Ca27 O48 2.637918 1_555
Ca27 O31 2.690937 1_555
Ca27 O25 2.705894 1_555
Ca28 O19 2.335774 1_555
Ca28 O80 2.343459 1_555
Ca28 O42 2.391818 1_555
Ca28 O72 2.483051 1_555
Ca28 O49 2.483883 1_555
Ca28 O36 2.558283 1_545
Ca28 O11 2.750455 1_555
Ca28 O26 2.813520 1_555
Ca29 O81 2.297422 1_555
Ca29 O20 2.322794 1_555
Ca29 O43 2.325133 1_555
Ca29 O73 2.449778 1_555
Ca29 O50 2.674450 1_555
Ca29 O37 2.687965 1_545
Ca29 O27 2.691075 1_555
Ca29 O12 2.727805 1_555
Ca30 O82 2.352291 1_555
Ca30 O21 2.360464 1_555
Ca30 O44 2.374508 1_555
Ca30 O74 2.424350 1_555
Ca30 O13 2.624868 1_555
Ca30 O51 2.642065 1_555
Ca30 O34 2.669829 1_555
Ca30 O28 2.708778 1_555
Ca31 O83 2.350103 1_555
Ca31 O22 2.380466 1_555
Ca31 O45 2.390574 1_555
Ca31 O75 2.430703 1_555
Ca31 O14 2.606364 1_555
Ca31 O52 2.639564 1_555
Ca31 O29 2.706334 1_555
Ca31 O35 2.732196 1_555
Mn0 O74 1.946162 1_555
Mn0 O53 1.948330 1_655
Mn0 O51 1.948437 1_555
Mn0 O34 1.953119 1_555
Mn0 O61 1.967657 1_655
Mn0 O40 1.970093 1_655
Mn1 O75 1.951200 1_455
Mn1 O41 1.958165 1_555
Mn1 O35 1.960348 1_455
Mn1 O52 1.960941 1_455
Mn1 O54 1.987254 1_555
Mn1 O62 1.988931 1_555
Mn2 O67 1.866794 1_555
Mn2 O32 1.893405 1_555
Mn2 O42 1.898620 1_565
Mn2 O59 1.922168 1_555
Mn3 O43 1.948931 1_565
Mn3 O60 1.951697 1_555
Mn3 O68 1.960167 1_555
Mn3 O33 1.981992 1_555
Mn3 O69 1.985560 1_565
Mn3 O46 2.017419 1_565
Mn4 O30 1.930081 1_555
Mn4 O70 1.950259 1_555
Mn4 O44 1.960315 1_555
Mn4 O47 1.970579 1_555
Mn4 O57 1.976126 1_555
Mn4 O65 1.985208 1_555
Mn5 O71 1.928542 1_555
Mn5 O45 1.957555 1_555
Mn5 O31 1.965368 1_555
Mn5 O48 1.967219 1_555
Mn5 O58 1.975188 1_555
Mn5 O66 1.980011 1_555
Mn6 O30 1.946262 1_555
Mn6 O53 1.966452 1_555
Mn6 O41 1.974323 1_554
Mn6 O48 1.978662 1_554
Mn6 O78 1.989117 1_555
Mn6 O85 2.246056 1_555
Mn7 O79 1.931125 1_555
Mn7 O31 1.947248 1_555
Mn7 O47 1.954026 1_555
Mn7 O40 1.964888 1_555
Mn7 O54 1.972677 1_555
Mn7 O84 2.036079 1_555
Mn8 O59 1.903652 1_556
Mn8 O91 1.944310 1_555
Mn8 O36 1.962138 1_556
Mn8 O43 1.968245 1_565
Mn8 O50 1.968862 1_565
Mn8 O80 1.995170 1_566
Mn9 O60 1.941463 1_545
Mn9 O90 1.971778 1_545
Mn9 O49 1.980490 1_555
Mn9 O37 1.981940 1_545
Mn9 O81 1.992772 1_555
Mn9 O42 2.053468 1_555
Mn10 O82 1.940947 1_555
Mn10 O45 1.946860 1_554
Mn10 O57 1.962470 1_555
Mn10 O34 1.978079 1_555
Mn10 O89 1.991009 1_554
Mn10 O52 1.995456 1_554
Mn11 O83 1.939407 1_555
Mn11 O58 1.960814 1_555
Mn11 O44 1.962446 1_555
Mn11 O35 1.975953 1_555
Mn11 O51 1.984539 1_555
Mn11 O88 1.992357 1_555
Mn12 O78 1.874959 1_555
Mn12 O24 1.955603 1_555
Mn12 O1 1.956555 1_555
Mn12 O18 1.981896 1_554
Mn12 O10 1.981998 1_554
Mn12 O87 2.074046 1_554
Mn13 O79 1.944677 1_555
Mn13 O25 1.953244 1_555
Mn13 O17 1.962384 1_555
Mn13 O9 1.963559 1_555
Mn13 O2 1.978965 1_555
Mn13 O86 2.043732 1_555
Mn14 O20 1.959110 1_554
Mn14 O89 1.965199 1_554
Mn14 O80 1.991355 1_555
Mn14 O26 1.994346 1_555
Mn14 O12 2.009744 1_554
Mn14 O3 2.050179 1_555
Mn15 O4 1.931990 1_555
Mn15 O19 1.943118 1_555
Mn15 O88 1.958213 1_555
Mn15 O81 1.977305 1_555
Mn15 O27 1.977384 1_555
Mn15 O11 2.001591 1_555
Mn16 O82 1.935398 1_555
Mn16 O22 1.950656 1_554
Mn16 O28 1.973929 1_555
Mn16 O5 1.978880 1_555
Mn16 O91 1.979524 1_554
Mn16 O14 1.989417 1_554
Mn17 O21 1.956104 1_555
Mn17 O6 1.956602 1_555
Mn17 O83 1.960733 1_555
Mn17 O13 1.982245 1_555
Mn17 O29 1.984978 1_555
Mn17 O90 1.997315 1_555
Mn18 O74 1.927321 1_455
Mn18 O13 1.951617 1_455
Mn18 O17 1.952142 1_555
Mn18 O28 1.957508 1_455
Mn18 O63 1.967086 1_555
Mn18 O1 1.984281 1_555
Mn19 O75 1.957257 1_455
Mn19 O14 1.957897 1_455
Mn19 O18 1.958655 1_555
Mn19 O29 1.962761 1_455
Mn19 O64 1.986681 1_555
Mn19 O2 1.998480 1_555
Mn20 O7 1.866346 1_555
Mn20 O19 1.885958 1_555
Mn20 O65 1.901136 1_555
Mn20 O3 1.906276 1_555
Mn21 O4 1.940494 1_555
Mn21 O66 1.948603 1_555
Mn21 O69 1.967256 1_555
Mn21 O20 1.986947 1_555
Mn21 O8 1.998005 1_555
Mn21 O23 2.003954 1_555
Mn22 O70 1.917042 1_555
Mn22 O24 1.957470 1_555
Mn22 O21 1.961403 1_555
Mn22 O9 1.967910 1_555
Mn22 O5 1.980447 1_555
Mn22 O67 1.995953 1_555
Mn23 O71 1.943497 1_555
Mn23 O22 1.952778 1_555
Mn23 O10 1.961324 1_555
Mn23 O6 1.970817 1_555
Mn23 O25 1.976497 1_555
Mn23 O68 1.985461 1_555
O0 Ti5 1.855353 1_555
O0 Ti7 2.127119 1_455
O7 Ti5 2.297772 1_555
O8 Ti4 1.798548 1_555
O11 Ti6 1.791523 1_555
O12 Ti7 1.904366 1_555
O15 Ti6 1.932284 1_455
O15 Ti5 2.042551 1_555
O16 Ti4 1.799379 1_555
O16 Ti7 2.045333 1_455
O23 Ti5 1.919715 1_555
O26 Ti6 1.926425 1_555
O27 Ti7 1.858975 1_555
O32 Ti2 2.105585 1_554
O33 Ti3 1.931104 1_555
O36 Ti0 1.933162 1_555
O37 Ti1 1.922722 1_555
O38 Ti3 1.942965 1_545
O38 Ti0 1.994746 1_445
O39 Ti2 1.910750 1_545
O39 Ti1 2.083217 1_445
O46 Ti2 1.941189 1_545
O49 Ti0 1.989203 1_545
O50 Ti1 1.861692 1_545
O55 Ti0 1.959015 1_455
O55 Ti2 2.004768 1_554
O56 Ti3 1.782926 1_555
O56 Ti1 2.045763 1_455
O61 Ti6 1.957168 1_455
O62 Ti7 1.948613 1_455
O63 Ti0 1.899447 1_455
O64 Ti1 1.926995 1_455
O72 Ti6 1.964309 1_555
O72 Ti0 2.127146 1_545
O73 Ti7 2.010504 1_555
O73 Ti1 2.022958 1_545
O76 Ti4 1.821431 1_554
O76 Ti2 2.459498 1_544
O77 Ti3 1.989172 1_545
O77 Ti5 2.085685 1_555
O84 Ti5 1.909439 1_555
O85 Ti4 1.816270 1_554
O86 Ti3 1.898986 1_555
O87 Ti2 1.820260 1_555
