# generated using pymatgen
data_Nd3Al11
_symmetry_space_group_name_H-M   'P 1'
_cell_length_a   4.36307790
_cell_length_b   8.46210258
_cell_length_c   8.46210258
_cell_angle_alpha   72.22219900
_cell_angle_beta   75.06037214
_cell_angle_gamma   75.06037214
_symmetry_Int_Tables_number   1
_chemical_formula_structural   Nd3Al11
_chemical_formula_sum   'Nd3 Al11'
_cell_volume   281.95415833
_cell_formula_units_Z   1
loop_
 _symmetry_equiv_pos_site_id
 _symmetry_equiv_pos_as_xyz
  1  'x, y, z'
loop_
 _atom_site_type_symbol
 _atom_site_label
 _atom_site_symmetry_multiplicity
 _atom_site_fract_x
 _atom_site_fract_y
 _atom_site_fract_z
 _atom_site_occupancy
  Nd  Nd0  1  0.00000000  0.00000000  -0.00000000  1
  Nd  Nd1  1  0.31720041  0.68279959  0.68279959  1
  Nd  Nd2  1  0.68279959  0.31720041  0.31720041  1
  Al  Al0  1  0.00000000  0.50000000  0.50000000  1
  Al  Al1  1  0.50000000  0.28466953  0.71533047  1
  Al  Al2  1  0.50000000  0.71533047  0.28466953  1
  Al  Al3  1  0.33399203  0.29790129  0.03411566  1
  Al  Al4  1  0.66600797  0.70209871  0.96588434  1
  Al  Al5  1  0.33399203  0.03411566  0.29790129  1
  Al  Al6  1  0.66600797  0.96588434  0.70209871  1
  Al  Al7  1  0.13593905  0.58953960  0.13858130  1
  Al  Al8  1  0.86406095  0.41046040  0.86141870  1
  Al  Al9  1  0.13593905  0.13858130  0.58953960  1
  Al  Al10  1  0.86406095  0.86141870  0.41046040  1
loop_
_geom_bond_atom_site_label_1
_geom_bond_atom_site_label_2
_geom_bond_distance
_geom_bond_site_symmetry_2
Al0 Al7 2.856716 1_555
Al0 Al10 2.856716 1_455
Al0 Al8 2.856716 1_455
Al0 Al9 2.856716 1_555
Al0 Al1 3.061382 1_455
Al0 Al1 3.061382 1_555
Al0 Al2 3.061382 1_455
Al0 Al2 3.061382 1_555
Al0 Nd2 3.220213 1_555
Al0 Nd1 3.220213 1_455
Al0 Nd2 3.220214 1_455
Al0 Nd1 3.220214 1_555
Al1 Al3 2.636165 1_556
Al1 Al6 2.636165 1_545
Al1 Al8 2.805737 1_455
Al1 Al9 2.805737 1_655
Al1 Al8 2.805741 1_555
Al1 Al9 2.805741 1_555
Al1 Nd1 3.197438 1_555
Al1 Nd2 3.197438 1_555
Al1 Nd0 3.580675 1_556
Al1 Nd0 3.580675 1_656
Al2 Al5 2.636165 1_565
Al2 Al4 2.636165 1_554
Al2 Al7 2.805737 1_655
Al2 Al7 2.805741 1_555
Al2 Nd1 3.197438 1_555
Al2 Nd2 3.197438 1_555
Al2 Nd0 3.580675 1_565
Al2 Nd0 3.580675 1_665
Al3 Al5 2.631085 1_555
Al3 Al8 2.633394 1_554
Al3 Al8 2.633395 1_454
Al3 Al7 2.730816 1_555
Al3 Nd2 3.213704 1_555
Al3 Nd2 3.213707 1_455
Al3 Nd0 3.334219 1_655
Al3 Nd0 3.334222 1_555
Al4 Al6 2.631085 1_555
Al4 Al7 2.633394 1_556
Al4 Al7 2.633395 1_656
Al4 Al8 2.730816 1_555
Al4 Nd1 3.213704 1_555
Al4 Nd1 3.213707 1_655
Al4 Nd0 3.334219 1_566
Al4 Nd0 3.334222 1_666
Al5 Al9 2.730816 1_555
Al5 Nd2 3.213704 1_555
Al5 Nd2 3.213707 1_455
Al5 Nd0 3.334219 1_655
Al5 Nd0 3.334222 1_555
Al6 Al9 2.633394 1_565
Al6 Al9 2.633395 1_665
Al6 Nd1 3.213704 1_555
Al6 Nd1 3.213707 1_655
Al6 Nd0 3.334219 1_566
Al6 Nd0 3.334222 1_666
Al7 Nd2 3.191522 1_455
Al7 Nd2 3.191525 1_555
Al7 Nd0 3.255816 1_565
Al7 Nd1 3.607510 1_554
Al8 Nd1 3.191522 1_655
Al8 Nd1 3.191525 1_555
Al8 Nd0 3.255816 1_656
Al8 Nd2 3.607510 1_556
Al9 Nd2 3.191522 1_455
Al9 Nd2 3.191525 1_555
Al9 Nd0 3.255816 1_556
Al9 Nd1 3.607510 1_545
Al10 Al5 2.633394 1_565
Al10 Al5 2.633395 1_665
Al10 Al6 2.730816 1_555
Al10 Al2 2.805737 1_655
Al10 Al2 2.805741 1_555
Al10 Nd1 3.191522 1_655
Al10 Nd1 3.191525 1_555
Al10 Nd0 3.255816 1_665
Al10 Nd2 3.607510 1_565
