# generated using pymatgen
data_Mg16Al12Hg
_symmetry_space_group_name_H-M   'P 1'
_cell_length_a   9.29331742
_cell_length_b   9.10012294
_cell_length_c   9.10012343
_cell_angle_alpha   109.03717521
_cell_angle_beta   109.90185476
_cell_angle_gamma   109.90185297
_symmetry_Int_Tables_number   1
_chemical_formula_structural   Mg16Al12Hg
_chemical_formula_sum   'Mg16 Al12 Hg1'
_cell_volume   589.26097300
_cell_formula_units_Z   1
loop_
 _symmetry_equiv_pos_site_id
 _symmetry_equiv_pos_as_xyz
  1  'x, y, z'
loop_
 _atom_site_type_symbol
 _atom_site_label
 _atom_site_symmetry_multiplicity
 _atom_site_fract_x
 _atom_site_fract_y
 _atom_site_fract_z
 _atom_site_occupancy
  Mg  Mg0  1  0.00131900  0.34570400  0.99999900  1
  Mg  Mg1  1  0.31458500  0.60295600  0.00000000  1
  Mg  Mg2  1  0.00577400  0.00000000  0.00000100  1
  Mg  Mg3  1  0.59687700  0.30215100  0.00000100  1
  Mg  Mg4  1  0.68033100  0.68069800  0.27890800  1
  Mg  Mg5  1  0.59687800  0.00000100  0.30215000  1
  Mg  Mg6  1  0.99963400  0.59821000  0.31930300  1
  Mg  Mg7  1  0.00131900  0.00000000  0.34570300  1
  Mg  Mg8  1  0.71162900  0.39704500  0.39704500  1
  Mg  Mg9  1  0.40142500  0.72109400  0.40179100  1
  Mg  Mg10  1  0.99963500  0.31930200  0.59821000  1
  Mg  Mg11  1  0.31458400  0.00000000  0.60295600  1
  Mg  Mg12  1  0.65561500  0.65429600  0.65429600  1
  Mg  Mg13  1  0.68033200  0.27890800  0.68069800  1
  Mg  Mg14  1  0.29472700  0.69785000  0.69785000  1
  Mg  Mg15  1  0.40142500  0.40179100  0.72109400  1
  Al  Al0  1  0.81520900  0.62788200  0.99999900  1
  Al  Al1  1  0.64180300  0.81249800  0.00000100  1
  Al  Al2  1  0.36511800  0.37217700  0.18448200  1
  Al  Al3  1  0.82930300  0.18750200  0.18750100  1
  Al  Al4  1  0.18063400  0.81551600  0.18769300  1
  Al  Al5  1  0.18732700  0.37211900  0.37211800  1
  Al  Al6  1  0.36511800  0.18448200  0.37217600  1
  Al  Al7  1  0.99294200  0.81230700  0.62782400  1
  Al  Al8  1  0.81520800  0.00000000  0.62788300  1
  Al  Al9  1  0.99294200  0.62782400  0.81230700  1
  Al  Al10  1  0.64180300  0.00000000  0.81249800  1
  Al  Al11  1  0.18063400  0.18769400  0.81551600  1
  Hg  Hg0  1  0.33587200  0.00000000  0.99999900  1
loop_
_geom_bond_atom_site_label_1
_geom_bond_atom_site_label_2
_geom_bond_distance
_geom_bond_site_symmetry_2
Mg0 Mg1 3.052191 1_556
Mg0 Mg13 3.069701 1_455
Mg0 Mg6 3.069719 1_456
Mg0 Mg2 3.160288 1_556
Mg1 Mg14 3.106782 1_554
Mg1 Mg5 3.106788 1_565
Mg1 Mg15 3.132672 1_554
Mg1 Mg4 3.132675 1_555
Mg1 Mg10 3.164165 1_454
Mg1 Mg9 3.164171 1_555
Mg2 Mg7 3.160264 1_555
Mg3 Mg8 3.106782 1_555
Mg3 Mg4 3.169751 1_555
Mg3 Mg6 3.214700 1_555
Mg4 Mg7 3.069715 1_665
Mg4 Mg8 3.164166 1_555
Mg4 Mg5 3.214700 1_565
Mg4 Mg9 3.233844 1_555
Mg4 Mg6 3.233860 1_555
Mg5 Mg8 3.106781 1_555
Mg5 Mg9 3.169758 1_545
Mg6 Mg8 3.132679 1_555
Mg6 Mg9 3.233859 1_655
Mg10 Mg7 3.069705 1_655
Mg10 Mg8 3.132692 1_555
Mg10 Mg14 3.169754 1_655
Mg10 Mg5 3.214699 1_555
Mg10 Mg15 3.233847 1_655
Mg10 Mg13 3.233861 1_555
Mg11 Mg7 3.052194 1_555
Mg11 Mg14 3.106783 1_545
Mg11 Mg3 3.106790 1_556
Mg11 Mg9 3.132679 1_545
Mg11 Mg13 3.132689 1_555
Mg11 Mg6 3.164163 1_445
Mg11 Mg15 3.164169 1_555
Mg12 Mg8 3.052186 1_555
Mg12 Mg9 3.069708 1_555
Mg12 Mg15 3.069708 1_555
Mg12 Mg2 3.160285 1_666
Mg13 Mg8 3.164164 1_555
Mg13 Mg5 3.169758 1_555
Mg13 Mg3 3.214709 1_556
Mg13 Mg15 3.233853 1_555
Mg14 Mg6 3.169751 1_455
Mg14 Mg15 3.214702 1_555
Mg14 Mg9 3.214703 1_555
Mg15 Mg3 3.169748 1_556
Al0 Al1 2.694945 1_556
Al0 Al4 2.750685 1_656
Al0 Al9 2.750685 1_555
Al0 Mg3 2.967947 1_556
Al0 Mg13 2.981573 1_555
Al0 Mg6 2.981592 1_556
Al0 Mg12 3.116705 1_555
Al0 Mg7 3.116712 1_666
Al0 Mg15 3.166121 1_555
Al0 Mg4 3.166147 1_556
Al0 Mg2 3.243535 1_666
Al1 Al3 2.778879 1_565
Al1 Al10 2.778887 1_564
Al1 Mg5 2.975222 1_565
Al1 Mg14 2.975236 1_554
Al1 Mg1 2.989242 1_555
Al1 Mg7 3.071181 1_665
Al1 Mg12 3.071198 1_554
Al1 Mg15 3.109376 1_554
Al1 Mg4 3.109376 1_555
Al1 Mg2 3.228522 1_665
Al2 Al5 2.750700 1_555
Al2 Al6 2.781732 1_555
Al2 Mg4 2.883602 1_555
Al2 Mg9 2.970931 1_555
Al2 Mg8 3.023286 1_555
Al2 Mg0 3.102308 1_554
Al2 Hg0 3.117123 1_554
Al2 Mg1 3.143910 1_555
Al2 Mg2 3.196077 1_555
Al2 Mg3 3.249861 1_555
Al3 Al5 2.694960 1_655
Al3 Mg5 2.975217 1_555
Al3 Mg3 2.975219 1_555
Al3 Mg8 2.989247 1_555
Al3 Mg7 3.071200 1_655
Al3 Mg0 3.071200 1_654
Al3 Mg6 3.109380 1_555
Al3 Mg10 3.109391 1_555
Al3 Mg2 3.228528 1_655
Al4 Al6 2.734136 1_565
Al4 Al9 2.781710 1_454
Al4 Mg9 2.883610 1_555
Al4 Mg6 2.970920 1_455
Al4 Mg1 3.023284 1_555
Al4 Mg7 3.102305 1_565
Al4 Hg0 3.117132 1_564
Al4 Mg11 3.143925 1_565
Al4 Mg2 3.196068 1_565
Al4 Mg5 3.249890 1_565
Al5 Al6 2.750708 1_555
Al5 Mg14 2.967939 1_555
Al5 Mg9 2.981583 1_555
Al5 Mg15 2.981595 1_555
Al5 Mg7 3.116716 1_555
Al5 Mg0 3.116716 1_554
Al5 Mg6 3.166123 1_455
Al5 Mg10 3.166128 1_455
Al5 Mg2 3.243545 1_555
Al6 Mg13 2.883612 1_555
Al6 Mg15 2.970938 1_555
Al6 Mg8 3.023282 1_555
Al6 Mg7 3.102306 1_555
Al6 Hg0 3.117122 1_554
Al6 Mg11 3.143920 1_555
Al6 Mg2 3.196066 1_555
Al6 Mg5 3.249869 1_555
Al7 Al9 2.734136 1_555
Al7 Al8 2.750700 1_565
Al7 Mg6 2.883608 1_555
Al7 Mg4 2.970927 1_555
Al7 Mg11 3.023274 1_665
Al7 Mg12 3.102312 1_555
Al7 Hg0 3.117110 1_665
Al7 Mg8 3.143918 1_555
Al7 Mg2 3.196077 1_666
Al7 Mg14 3.249873 1_655
Al8 Mg5 2.967949 1_555
Al8 Mg4 2.981583 1_545
Al8 Mg10 2.981588 1_555
Al8 Mg0 3.116701 1_655
Al8 Mg12 3.116706 1_545
Al8 Mg9 3.166116 1_545
Al8 Mg13 3.166126 1_555
Al8 Mg2 3.243547 1_656
Al9 Mg10 2.883621 1_555
Al9 Mg13 2.970922 1_555
Al9 Mg1 3.023282 1_656
Al9 Mg12 3.102312 1_555
Al9 Hg0 3.117116 1_665
Al9 Mg8 3.143918 1_555
Al9 Mg2 3.196071 1_666
Al9 Mg14 3.249873 1_655
Al10 Al8 2.694930 1_555
Al10 Al3 2.778872 1_556
Al10 Mg14 2.975232 1_545
Al10 Mg3 2.975242 1_556
Al10 Mg11 2.989254 1_555
Al10 Mg12 3.071190 1_545
Al10 Mg0 3.071191 1_655
Al10 Mg9 3.109374 1_545
Al10 Mg13 3.109384 1_555
Al10 Mg2 3.228523 1_656
Al11 Al2 2.734136 1_556
Al11 Al8 2.750693 1_455
Al11 Al7 2.781717 1_445
Al11 Mg15 2.883605 1_555
Al11 Mg10 2.970901 1_455
Al11 Mg11 3.023281 1_555
Al11 Mg0 3.102300 1_555
Al11 Hg0 3.117127 1_555
Al11 Mg1 3.143915 1_556
Al11 Mg2 3.196085 1_556
Al11 Mg3 3.249881 1_556
Hg0 Mg14 2.983813 1_545
Hg0 Mg3 2.983813 1_556
Hg0 Mg5 2.983823 1_556
Hg0 Mg2 3.067712 1_556
