# generated using pymatgen
data_FeO2
_symmetry_space_group_name_H-M   'P 1'
_cell_length_a   2.96656400
_cell_length_b   8.77719900
_cell_length_c   10.71807100
_cell_angle_alpha   90.00000000
_cell_angle_beta   90.00000000
_cell_angle_gamma   90.00000000
_symmetry_Int_Tables_number   1
_chemical_formula_structural   FeO2
_chemical_formula_sum   'Fe8 O16'
_cell_volume   279.07844646
_cell_formula_units_Z   8
loop_
 _symmetry_equiv_pos_site_id
 _symmetry_equiv_pos_as_xyz
  1  'x, y, z'
loop_
 _atom_site_type_symbol
 _atom_site_label
 _atom_site_symmetry_multiplicity
 _atom_site_fract_x
 _atom_site_fract_y
 _atom_site_fract_z
 _atom_site_occupancy
  Fe  Fe0  1  0.75000000  0.91424400  0.10351600  1
  Fe  Fe1  1  0.25000000  0.58575600  0.60351600  1
  Fe  Fe2  1  0.75000000  0.41424400  0.39648400  1
  Fe  Fe3  1  0.25000000  0.08575600  0.89648400  1
  Fe  Fe4  1  0.25000000  0.05177800  0.38339800  1
  Fe  Fe5  1  0.75000000  0.94822200  0.61660200  1
  Fe  Fe6  1  0.25000000  0.55177800  0.11660200  1
  Fe  Fe7  1  0.75000000  0.44822200  0.88339800  1
  O  O0  1  0.75000000  0.41964400  0.07044700  1
  O  O1  1  0.25000000  0.58035600  0.92955300  1
  O  O2  1  0.75000000  0.91964400  0.42955300  1
  O  O3  1  0.25000000  0.08035600  0.57044700  1
  O  O4  1  0.75000000  0.53442700  0.71318300  1
  O  O5  1  0.25000000  0.46557300  0.28681700  1
  O  O6  1  0.75000000  0.03442700  0.78681700  1
  O  O7  1  0.25000000  0.96557300  0.21318300  1
  O  O8  1  0.75000000  0.11929200  0.01229400  1
  O  O9  1  0.25000000  0.88070800  0.98770600  1
  O  O10  1  0.75000000  0.61929200  0.48770600  1
  O  O11  1  0.25000000  0.38070800  0.51229400  1
  O  O12  1  0.25000000  0.30846600  0.85365900  1
  O  O13  1  0.75000000  0.69153400  0.14634100  1
  O  O14  1  0.75000000  0.19153400  0.35365900  1
  O  O15  1  0.25000000  0.80846600  0.64634100  1
loop_
_geom_bond_atom_site_label_1
_geom_bond_atom_site_label_2
_geom_bond_distance
_geom_bond_site_symmetry_2
Fe0 O7 1.945432 1_555
Fe0 O7 1.945432 1_655
Fe0 O9 1.956398 1_554
Fe0 O9 1.956398 1_654
Fe0 O13 2.007936 1_555
Fe0 O8 2.048178 1_565
Fe1 O4 1.945432 1_555
Fe1 O4 1.945432 1_455
Fe1 O10 1.956398 1_555
Fe1 O10 1.956398 1_455
Fe1 O15 2.007936 1_555
Fe1 O11 2.048178 1_555
Fe2 O5 1.945432 1_655
Fe2 O5 1.945432 1_555
Fe2 O11 1.956398 1_655
Fe2 O11 1.956398 1_555
Fe2 O14 2.007936 1_555
Fe2 O10 2.048178 1_555
Fe3 O6 1.945432 1_555
Fe3 O6 1.945432 1_455
Fe3 O8 1.956398 1_456
Fe3 O8 1.956398 1_556
Fe3 O12 2.007936 1_555
Fe3 O9 2.048178 1_545
Fe4 O2 1.946768 1_545
Fe4 O2 1.946768 1_445
Fe4 O14 1.951008 1_455
Fe4 O14 1.951008 1_555
Fe4 O7 1.975057 1_545
Fe4 O3 2.020435 1_555
Fe5 O3 1.946768 1_565
Fe5 O3 1.946768 1_665
Fe5 O15 1.951008 1_655
Fe5 O15 1.951008 1_555
Fe5 O6 1.975057 1_565
Fe5 O2 2.020435 1_555
Fe6 O0 1.946768 1_455
Fe6 O0 1.946768 1_555
Fe6 O13 1.951008 1_455
Fe6 O13 1.951008 1_555
Fe6 O5 1.975057 1_555
Fe6 O1 2.020435 1_554
Fe7 O1 1.946768 1_655
Fe7 O1 1.946768 1_555
Fe7 O12 1.951008 1_555
Fe7 O12 1.951008 1_655
Fe7 O4 1.975057 1_555
Fe7 O0 2.020435 1_556
