# generated using pymatgen
data_ZnClO
_symmetry_space_group_name_H-M   'P 1'
_cell_length_a   5.66785900
_cell_length_b   6.56947600
_cell_length_c   11.42866800
_cell_angle_alpha   90.00000000
_cell_angle_beta   90.00000000
_cell_angle_gamma   90.00000000
_symmetry_Int_Tables_number   1
_chemical_formula_structural   ZnClO
_chemical_formula_sum   'Zn8 Cl8 O8'
_cell_volume   425.54489493
_cell_formula_units_Z   8
loop_
 _symmetry_equiv_pos_site_id
 _symmetry_equiv_pos_as_xyz
  1  'x, y, z'
loop_
 _atom_site_type_symbol
 _atom_site_label
 _atom_site_symmetry_multiplicity
 _atom_site_fract_x
 _atom_site_fract_y
 _atom_site_fract_z
 _atom_site_occupancy
  Zn  Zn0  1  0.76158800  0.37500300  0.00713700  1
  Zn  Zn1  1  0.26158800  0.62499700  0.49286300  1
  Zn  Zn2  1  0.23841200  0.12499700  0.50713700  1
  Zn  Zn3  1  0.73841200  0.87500300  0.99286300  1
  Zn  Zn4  1  0.23841200  0.62499700  0.99286300  1
  Zn  Zn5  1  0.73841200  0.37500300  0.50713700  1
  Zn  Zn6  1  0.76158800  0.87500300  0.49286300  1
  Zn  Zn7  1  0.26158800  0.12499700  0.00713700  1
  Cl  Cl0  1  0.04275700  0.41553600  0.64810900  1
  Cl  Cl1  1  0.54275700  0.58446400  0.85189100  1
  Cl  Cl2  1  0.95724300  0.08446400  0.14810900  1
  Cl  Cl3  1  0.45724300  0.91553600  0.35189100  1
  Cl  Cl4  1  0.95724300  0.58446400  0.35189100  1
  Cl  Cl5  1  0.45724300  0.41553600  0.14810900  1
  Cl  Cl6  1  0.04275700  0.91553600  0.85189100  1
  Cl  Cl7  1  0.54275700  0.08446400  0.64810900  1
  O  O0  1  0.08935400  0.36370600  0.94012600  1
  O  O1  1  0.58935400  0.63629400  0.55987400  1
  O  O2  1  0.91064600  0.13629400  0.44012600  1
  O  O3  1  0.41064600  0.86370600  0.05987400  1
  O  O4  1  0.91064600  0.63629400  0.05987400  1
  O  O5  1  0.41064600  0.36370600  0.44012600  1
  O  O6  1  0.08935400  0.86370600  0.55987400  1
  O  O7  1  0.58935400  0.13629400  0.94012600  1
loop_
_geom_bond_atom_site_label_1
_geom_bond_atom_site_label_2
_geom_bond_distance
_geom_bond_site_symmetry_2
Cl0 Zn5 2.375330 1_455
Cl0 Zn1 2.565121 1_555
Cl0 Zn2 2.732868 1_555
Cl1 Zn4 2.375330 1_555
Cl1 Zn0 2.565121 1_556
Cl1 Zn3 2.732868 1_555
Cl2 Zn7 2.375330 1_655
Cl2 Zn3 2.565121 1_544
Cl2 Zn0 2.732868 1_555
Cl3 Zn6 2.375330 1_555
Cl3 Zn2 2.565121 1_565
Cl3 Zn1 2.732868 1_555
Cl4 Zn1 2.375330 1_655
Cl4 Zn5 2.565121 1_555
Cl4 Zn6 2.732868 1_555
Cl5 Zn0 2.375330 1_555
Cl5 Zn4 2.565121 1_554
Cl5 Zn7 2.732868 1_555
Cl6 Zn3 2.375330 1_455
Cl6 Zn7 2.565121 1_566
Cl6 Zn4 2.732868 1_555
Cl7 Zn2 2.375330 1_555
Cl7 Zn6 2.565121 1_545
Cl7 Zn5 2.732868 1_555
O0 Zn7 1.999678 1_556
O0 Zn4 2.005877 1_555
O0 Zn0 2.010770 1_456
O1 Zn6 1.999678 1_555
O1 Zn5 2.005877 1_555
O1 Zn1 2.010770 1_555
O2 Zn5 1.999678 1_555
O2 Zn6 2.005877 1_545
O2 Zn2 2.010770 1_655
O3 Zn4 1.999678 1_554
O3 Zn7 2.005877 1_565
O3 Zn3 2.010770 1_554
O4 Zn3 1.999678 1_554
O4 Zn0 2.005877 1_555
O4 Zn4 2.010770 1_654
O5 Zn2 1.999678 1_555
O5 Zn1 2.005877 1_555
O5 Zn5 2.010770 1_555
O6 Zn1 1.999678 1_555
O6 Zn2 2.005877 1_565
O6 Zn6 2.010770 1_455
O7 Zn0 1.999678 1_556
O7 Zn3 2.005877 1_545
O7 Zn7 2.010770 1_556
