# generated using pymatgen
data_Mg(FeS2)2
_symmetry_space_group_name_H-M   'P 1'
_cell_length_a   6.97594268
_cell_length_b   6.97594268
_cell_length_c   6.97594268
_cell_angle_alpha   120.44557538
_cell_angle_beta   118.42246309
_cell_angle_gamma   90.99191254
_symmetry_Int_Tables_number   1
_chemical_formula_structural   Mg(FeS2)2
_chemical_formula_sum   'Mg2 Fe4 S8'
_cell_volume   241.96751278
_cell_formula_units_Z   2
loop_
 _symmetry_equiv_pos_site_id
 _symmetry_equiv_pos_as_xyz
  1  'x, y, z'
loop_
 _atom_site_type_symbol
 _atom_site_label
 _atom_site_symmetry_multiplicity
 _atom_site_fract_x
 _atom_site_fract_y
 _atom_site_fract_z
 _atom_site_occupancy
  Mg  Mg0  1  0.00000000  0.00000000  0.00000000  1
  Mg  Mg1  1  0.50000000  0.00000000  0.50000000  1
  Fe  Fe0  1  0.50000000  0.50000000  0.50000000  1
  Fe  Fe1  1  0.00000000  0.50000000  0.50000000  1
  Fe  Fe2  1  0.50000000  0.00000000  0.00000000  1
  Fe  Fe3  1  0.50000000  0.50000000  0.00000000  1
  S  S0  1  0.71006100  0.74468600  0.96537500  1
  S  S1  1  0.26225300  0.27001400  0.50776100  1
  S  S2  1  0.27931100  0.74468600  0.53462500  1
  S  S3  1  0.73774700  0.24550800  0.00776100  1
  S  S4  1  0.72068900  0.25531400  0.46537500  1
  S  S5  1  0.73774700  0.72998600  0.49223900  1
  S  S6  1  0.26225300  0.75449200  0.99223900  1
  S  S7  1  0.28993900  0.25531400  0.03462500  1
loop_
_geom_bond_atom_site_label_1
_geom_bond_atom_site_label_2
_geom_bond_distance
_geom_bond_site_symmetry_2
Mg0 S7 2.509111 1_555
Mg0 S0 2.509111 1_444
Mg0 S1 2.528207 1_555
Mg0 S3 2.528207 1_455
Mg0 S5 2.528207 1_444
Mg0 S6 2.528207 1_544
Mg1 S4 2.509111 1_555
Mg1 S2 2.509111 1_545
Mg1 S1 2.528207 1_555
Mg1 S6 2.528207 1_544
Mg1 S3 2.528207 1_556
Mg1 S5 2.528207 1_545
Fe0 S4 2.317140 1_555
Fe0 S2 2.317140 1_555
Fe0 S0 2.317140 1_555
Fe0 S7 2.317140 1_555
Fe0 S5 2.325718 1_555
Fe0 S1 2.325718 1_555
Fe1 S2 2.405700 1_555
Fe1 S4 2.405700 1_455
Fe1 S6 2.453411 1_555
Fe1 S1 2.453411 1_555
Fe1 S3 2.453411 1_455
Fe1 S5 2.453411 1_455
Fe2 S0 2.317140 1_544
Fe2 S7 2.317140 1_555
Fe2 S4 2.317140 1_555
Fe2 S2 2.317140 1_544
Fe2 S3 2.325718 1_555
Fe2 S6 2.325718 1_544
Fe3 S7 2.405700 1_555
Fe3 S0 2.405700 1_554
Fe3 S6 2.453411 1_554
Fe3 S1 2.453411 1_554
Fe3 S5 2.453411 1_555
Fe3 S3 2.453411 1_555
