# generated using pymatgen
data_BaSr2I6
_symmetry_space_group_name_H-M   'P 1'
_cell_length_a   10.11296752
_cell_length_b   10.11296752
_cell_length_c   12.01739947
_cell_angle_alpha   68.26192206
_cell_angle_beta   68.26192206
_cell_angle_gamma   48.91766211
_symmetry_Int_Tables_number   1
_chemical_formula_structural   BaSr2I6
_chemical_formula_sum   'Ba2 Sr4 I12'
_cell_volume   846.26143285
_cell_formula_units_Z   2
loop_
 _symmetry_equiv_pos_site_id
 _symmetry_equiv_pos_as_xyz
  1  'x, y, z'
loop_
 _atom_site_type_symbol
 _atom_site_label
 _atom_site_symmetry_multiplicity
 _atom_site_fract_x
 _atom_site_fract_y
 _atom_site_fract_z
 _atom_site_occupancy
  Ba  Ba0  1  0.95145341  0.04854659  0.25000000  1
  Ba  Ba1  1  0.04854659  0.95145341  0.75000000  1
  Sr  Sr0  1  0.41086284  0.29981422  0.62978512  1
  Sr  Sr1  1  0.70018578  0.58913716  0.87021488  1
  Sr  Sr2  1  0.29981422  0.41086284  0.12978512  1
  Sr  Sr3  1  0.58913716  0.70018578  0.37021488  1
  I  I0  1  0.94502961  0.67926894  0.30962384  1
  I  I1  1  0.78582382  0.27249859  0.51111379  1
  I  I2  1  0.49700657  0.78513463  0.63717337  1
  I  I3  1  0.67926894  0.94502961  0.80962384  1
  I  I4  1  0.27249859  0.78582382  0.01111379  1
  I  I5  1  0.21486537  0.50299343  0.86282663  1
  I  I6  1  0.78513463  0.49700657  0.13717337  1
  I  I7  1  0.72750141  0.21417618  0.98888621  1
  I  I8  1  0.32073106  0.05497039  0.19037616  1
  I  I9  1  0.50299343  0.21486537  0.36282663  1
  I  I10  1  0.21417618  0.72750141  0.48888621  1
  I  I11  1  0.05497039  0.32073106  0.69037616  1
loop_
_geom_bond_atom_site_label_1
_geom_bond_atom_site_label_2
_geom_bond_distance
_geom_bond_site_symmetry_2
Ba0 I6 3.513509 1_555
Ba0 I9 3.513509 1_555
Ba0 I8 3.573004 1_655
Ba0 I0 3.573004 1_545
Ba0 I10 3.640086 1_645
Ba0 I4 3.640086 1_645
Ba0 I1 3.763853 1_555
Ba0 I7 3.763853 1_554
Ba1 I2 3.513509 1_555
Ba1 I5 3.513509 1_555
Ba1 I11 3.573004 1_565
Ba1 I3 3.573004 1_455
Ba1 I7 3.640086 1_465
Ba1 I1 3.640086 1_465
Ba1 I4 3.763853 1_556
Ba1 I10 3.763853 1_555
I0 Sr3 3.271229 1_555
I0 Sr2 3.273162 1_655
I1 Sr3 3.360615 1_555
I1 Sr0 3.376172 1_555
I2 Sr3 3.267070 1_555
I2 Sr1 3.285083 1_555
I3 Sr1 3.271229 1_555
I3 Sr0 3.273162 1_565
I4 Sr1 3.360615 1_554
I4 Sr2 3.376172 1_555
I5 Sr2 3.267070 1_556
I5 Sr0 3.285083 1_555
I6 Sr1 3.267070 1_554
I6 Sr3 3.285083 1_555
I7 Sr2 3.360615 1_556
I7 Sr1 3.376172 1_555
I8 Sr2 3.271229 1_555
I8 Sr3 3.273162 1_545
I9 Sr0 3.267070 1_555
I9 Sr2 3.285083 1_555
I10 Sr0 3.360615 1_555
I10 Sr3 3.376172 1_555
I11 Sr0 3.271229 1_555
I11 Sr1 3.273162 1_455
