# generated using pymatgen
data_K2Mn3H6S3O16
_symmetry_space_group_name_H-M   'P 1'
_cell_length_a   9.98046048
_cell_length_b   9.98046048
_cell_length_c   10.13333700
_cell_angle_alpha   90.00000000
_cell_angle_beta   90.00000000
_cell_angle_gamma   133.37478728
_symmetry_Int_Tables_number   1
_chemical_formula_structural   K2Mn3H6S3O16
_chemical_formula_sum   'K4 Mn6 H12 S6 O32'
_cell_volume   733.69328051
_cell_formula_units_Z   2
loop_
 _symmetry_equiv_pos_site_id
 _symmetry_equiv_pos_as_xyz
  1  'x, y, z'
loop_
 _atom_site_type_symbol
 _atom_site_label
 _atom_site_symmetry_multiplicity
 _atom_site_fract_x
 _atom_site_fract_y
 _atom_site_fract_z
 _atom_site_occupancy
  K  K0  1  0.23831100  0.85140800  0.28191500  1
  K  K1  1  0.85140800  0.23831100  0.28191500  1
  K  K2  1  0.76168900  0.14859200  0.78191500  1
  K  K3  1  0.14859200  0.76168900  0.78191500  1
  Mn  Mn0  1  0.55843400  0.38154900  0.73555600  1
  Mn  Mn1  1  0.38154900  0.55843400  0.73555600  1
  Mn  Mn2  1  0.44156600  0.61845100  0.23555600  1
  Mn  Mn3  1  0.61845100  0.44156600  0.23555600  1
  Mn  Mn4  1  0.80763700  0.80763700  0.51728900  1
  Mn  Mn5  1  0.19236300  0.19236300  0.01728900  1
  H  H0  1  0.48161000  0.48161000  0.52142500  1
  H  H1  1  0.51839000  0.51839000  0.02142500  1
  H  H2  1  0.19964300  0.19964300  0.76919200  1
  H  H3  1  0.80035700  0.80035700  0.26919200  1
  H  H4  1  0.91573700  0.72551500  0.07944100  1
  H  H5  1  0.72551500  0.91573700  0.07944100  1
  H  H6  1  0.08426300  0.27448500  0.57944100  1
  H  H7  1  0.27448500  0.08426300  0.57944100  1
  H  H8  1  0.91915300  0.57038700  0.07607000  1
  H  H9  1  0.57038700  0.91915300  0.07607000  1
  H  H10  1  0.08084700  0.42961300  0.57607000  1
  H  H11  1  0.42961300  0.08084700  0.57607000  1
  S  S0  1  0.87651100  0.52171200  0.50554400  1
  S  S1  1  0.52171200  0.87651100  0.50554400  1
  S  S2  1  0.12348900  0.47828800  0.00554400  1
  S  S3  1  0.47828800  0.12348900  0.00554400  1
  S  S4  1  0.81721300  0.81721300  0.84497000  1
  S  S5  1  0.18278700  0.18278700  0.34497000  1
  O  O0  1  0.55221800  0.55221800  0.60078700  1
  O  O1  1  0.44778200  0.44778200  0.10078700  1
  O  O2  1  0.30652800  0.30652800  0.81844900  1
  O  O3  1  0.69347200  0.69347200  0.31844900  1
  O  O4  1  0.36429400  0.10045900  0.63614000  1
  O  O5  1  0.10045900  0.36429400  0.63614000  1
  O  O6  1  0.63570600  0.89954100  0.13614000  1
  O  O7  1  0.89954100  0.63570600  0.13614000  1
  O  O8  1  0.73747400  0.41628800  0.39831000  1
  O  O9  1  0.41628800  0.73747400  0.39831000  1
  O  O10  1  0.26252600  0.58371200  0.89831000  1
  O  O11  1  0.58371200  0.26252600  0.89831000  1
  O  O12  1  0.78974500  0.43184200  0.63647600  1
  O  O13  1  0.43184200  0.78974500  0.63647600  1
  O  O14  1  0.21025500  0.56815800  0.13647600  1
  O  O15  1  0.56815800  0.21025500  0.13647600  1
  O  O16  1  0.02589300  0.52588800  0.47947800  1
  O  O17  1  0.52588800  0.02589300  0.47947800  1
  O  O18  1  0.97410700  0.47411200  0.97947800  1
  O  O19  1  0.47411200  0.97410700  0.97947800  1
  O  O20  1  0.95849400  0.71572800  0.50925400  1
  O  O21  1  0.71572800  0.95849400  0.50925400  1
  O  O22  1  0.04150600  0.28427200  0.00925400  1
  O  O23  1  0.28427200  0.04150600  0.00925400  1
  O  O24  1  0.64226500  0.77562200  0.84501900  1
  O  O25  1  0.77562200  0.64226500  0.84501900  1
  O  O26  1  0.35773500  0.22437800  0.34501900  1
  O  O27  1  0.22437800  0.35773500  0.34501900  1
  O  O28  1  0.93059700  0.93059700  0.72704200  1
  O  O29  1  0.06940300  0.06940300  0.22704200  1
  O  O30  1  0.91916400  0.91916400  0.96933200  1
  O  O31  1  0.08083600  0.08083600  0.46933200  1
loop_
_geom_bond_atom_site_label_1
_geom_bond_atom_site_label_2
_geom_bond_distance
_geom_bond_site_symmetry_2
K0 O7 2.872396 1_455
K0 O17 2.900530 1_565
K0 O9 2.934914 1_555
K0 O14 3.025708 1_555
K0 O26 3.097069 1_565
K0 O16 3.097897 1_555
K0 O15 3.105154 1_565
K0 O20 3.121795 1_455
K0 O23 3.201348 1_565
K1 O6 2.872396 1_545
K1 O16 2.900530 1_655
K1 O8 2.934914 1_555
K1 O15 3.025708 1_555
K1 O27 3.097069 1_655
K1 O17 3.097897 1_555
K1 O14 3.105154 1_655
K1 O21 3.121795 1_545
K1 O22 3.201348 1_655
K2 O5 2.872396 1_655
K2 O19 2.900530 1_545
K2 O11 2.934914 1_555
K2 O12 3.025708 1_555
K2 O24 3.097069 1_545
K2 O18 3.097897 1_555
K2 O13 3.105154 1_545
K2 O22 3.121795 1_656
K2 O21 3.201348 1_545
K3 O4 2.872396 1_565
K3 O18 2.900530 1_455
K3 O10 2.934914 1_555
K3 O13 3.025708 1_555
K3 O25 3.097069 1_455
K3 O19 3.097897 1_555
K3 O12 3.105154 1_455
K3 O23 3.121795 1_566
K3 O20 3.201348 1_455
Mn0 O11 2.146252 1_555
Mn0 O0 2.217079 1_555
Mn0 O25 2.225439 1_555
Mn0 O12 2.235607 1_555
Mn0 O2 2.236397 1_555
Mn0 O4 2.274486 1_555
Mn1 O10 2.146252 1_555
Mn1 O0 2.217079 1_555
Mn1 O24 2.225439 1_555
Mn1 O13 2.235607 1_555
Mn1 O2 2.236397 1_555
Mn1 O5 2.274486 1_555
Mn2 O9 2.146252 1_555
Mn2 O1 2.217079 1_555
Mn2 O27 2.225439 1_555
Mn2 O14 2.235607 1_555
Mn2 O3 2.236397 1_555
Mn2 O6 2.274486 1_555
Mn3 O8 2.146252 1_555
Mn3 O1 2.217079 1_555
Mn3 O26 2.225439 1_555
Mn3 O15 2.235607 1_555
Mn3 O3 2.236397 1_555
Mn3 O7 2.274486 1_555
Mn4 O0 2.187907 1_555
Mn4 O3 2.207532 1_555
Mn4 O31 2.212169 1_665
Mn4 O20 2.238737 1_555
Mn4 O21 2.238737 1_555
Mn4 O28 2.336922 1_555
Mn5 O1 2.187907 1_555
Mn5 O2 2.207532 1_554
Mn5 O30 2.212169 1_444
Mn5 O23 2.238737 1_555
Mn5 O22 2.238737 1_555
Mn5 O29 2.336922 1_555
H0 O0 0.978695 1_555
H1 O1 0.978695 1_555
H2 O2 0.980838 1_555
H3 O3 0.980838 1_555
H4 O7 0.980126 1_555
H5 O6 0.980126 1_555
H6 O5 0.980126 1_555
H7 O4 0.980126 1_555
H8 O7 1.004539 1_555
H9 O6 1.004539 1_555
H10 O5 1.004539 1_555
H11 O4 1.004539 1_555
O8 S0 1.485935 1_555
O9 S1 1.485935 1_555
O10 S2 1.485935 1_556
O11 S3 1.485935 1_556
O12 S0 1.499296 1_555
O13 S1 1.499296 1_555
O14 S2 1.499296 1_555
O15 S3 1.499296 1_555
O16 S0 1.486251 1_455
O17 S1 1.486251 1_545
O18 S2 1.486251 1_656
O19 S3 1.486251 1_566
O20 S0 1.498071 1_555
O21 S1 1.498071 1_555
O22 S2 1.498071 1_555
O23 S3 1.498071 1_555
O24 S4 1.491817 1_555
O25 S4 1.491817 1_555
O26 S5 1.491817 1_555
O27 S5 1.491817 1_555
O28 S4 1.493409 1_555
O29 S5 1.493409 1_555
O30 S4 1.495565 1_555
O31 S5 1.495565 1_555
