# generated using pymatgen
data_Li2V2(SiO3)3
_symmetry_space_group_name_H-M   'P 1'
_cell_length_a   10.12366400
_cell_length_b   10.12370369
_cell_length_c   12.46262700
_cell_angle_alpha   89.99964403
_cell_angle_beta   89.99985180
_cell_angle_gamma   119.99956505
_symmetry_Int_Tables_number   1
_chemical_formula_structural   Li2V2(SiO3)3
_chemical_formula_sum   'Li12 V12 Si18 O54'
_cell_volume   1106.16338809
_cell_formula_units_Z   6
loop_
 _symmetry_equiv_pos_site_id
 _symmetry_equiv_pos_as_xyz
  1  'x, y, z'
loop_
 _atom_site_type_symbol
 _atom_site_label
 _atom_site_symmetry_multiplicity
 _atom_site_fract_x
 _atom_site_fract_y
 _atom_site_fract_z
 _atom_site_occupancy
  Li  Li0  1  0.15658300  0.99949100  0.17061700  1
  Li  Li1  1  0.20686700  0.75785800  0.01337500  1
  Li  Li2  1  0.24216900  0.44898800  0.68006800  1
  Li  Li3  1  0.00049900  0.15708900  0.83729900  1
  Li  Li4  1  0.55094200  0.79311000  0.34671900  1
  Li  Li5  1  0.16447400  0.01232200  0.66952900  1
  Li  Li6  1  0.31019200  0.26799300  0.78211600  1
  Li  Li7  1  0.84288600  0.84339500  0.50397200  1
  Li  Li8  1  0.84781400  0.83555300  0.00285600  1
  Li  Li9  1  0.73201300  0.04217000  0.44880200  1
  Li  Li10  1  0.95780100  0.68984500  0.11546800  1
  Li  Li11  1  0.98770300  0.15213800  0.33620400  1
  V  V0  1  0.33369300  0.84715100  0.49135700  1
  V  V1  1  0.15283600  0.48654500  0.15804400  1
  V  V2  1  0.51345700  0.66630800  0.82471900  1
  V  V3  1  0.33383000  0.32645000  0.24553300  1
  V  V4  1  0.36851000  0.33419400  0.00300200  1
  V  V5  1  0.49996100  0.16163400  0.84416500  1
  V  V6  1  0.66172200  0.50004100  0.17750500  1
  V  V7  1  0.99258400  0.66611600  0.57884600  1
  V  V8  1  0.96566100  0.63147700  0.33632700  1
  V  V9  1  0.66580200  0.03432400  0.66965400  1
  V  V10  1  0.67357300  0.00739300  0.91219800  1
  V  V11  1  0.83837000  0.33833600  0.51082300  1
  Si  Si0  1  0.13558600  0.95173600  0.91852100  1
  Si  Si1  1  0.29500200  0.81804700  0.76946500  1
  Si  Si2  1  0.18563100  0.50110100  0.88597700  1
  Si  Si3  1  0.31544800  0.81435500  0.21929500  1
  Si  Si4  1  0.04826700  0.18387400  0.58520300  1
  Si  Si5  1  0.18196500  0.47696700  0.43611900  1
  Si  Si6  1  0.17980100  0.01924100  0.42998200  1
  Si  Si7  1  0.49891000  0.68455000  0.55264000  1
  Si  Si8  1  0.52302900  0.70499700  0.10280300  1
  Si  Si9  1  0.62009800  0.49398100  0.44829200  1
  Si  Si10  1  0.47358600  0.19966900  0.57854700  1
  Si  Si11  1  0.81612200  0.86438600  0.25188100  1
  Si  Si12  1  0.83943900  0.82019500  0.76331600  1
  Si  Si13  1  0.72608800  0.52642700  0.91187700  1
  Si  Si14  1  0.50603300  0.12611600  0.11496400  1
  Si  Si15  1  0.87388300  0.37990000  0.78162300  1
  Si  Si16  1  0.80034000  0.27392000  0.24523400  1
  Si  Si17  1  0.98077200  0.16056500  0.09663900  1
  O  O0  1  0.10357600  0.83265400  0.43835400  1
  O  O1  1  0.07425500  0.88552000  0.03674100  1
  O  O2  1  0.19704700  0.84007000  0.86786400  1
  O  O3  1  0.13228600  0.69207300  0.20939200  1
  O  O4  1  0.05671300  0.53144900  0.45213600  1
  O  O5  1  0.03321500  0.37770600  0.81744700  1
  O  O6  1  0.22104400  0.81046500  0.65227000  1
  O  O7  1  0.14731200  0.54904400  0.99823200  1
  O  O8  1  0.34449400  0.96678300  0.15076800  1
  O  O9  1  0.27972100  0.65265700  0.80457800  1
  O  O10  1  0.15997000  0.35700500  0.53453500  1
  O  O11  1  0.40165900  0.85263400  0.33156400  1
  O  O12  1  0.11450500  0.18876900  0.70342700  1
  O  O13  1  0.18955100  0.41057900  0.31892800  1
  O  O14  1  0.47473300  0.94328800  0.78547400  1
  O  O15  1  0.37291700  0.72027100  0.13789800  1
  O  O16  1  0.30794100  0.44024100  0.87609900  1
  O  O17  1  0.16736700  0.27094500  0.10502100  1
  O  O18  1  0.07806000  0.06329100  0.51239800  1
  O  O19  1  0.34735100  0.62706900  0.47124200  1
  O  O20  1  0.19385600  0.09789800  0.31533700  1
  O  O21  1  0.45096200  0.59831400  0.66490600  1
  O  O22  1  0.55977400  0.86771500  0.54274400  1
  O  O23  1  0.58945300  0.77897900  0.98562000  1
  O  O24  1  0.26991100  0.12712100  0.90437400  1
  O  O25  1  0.46856500  0.52527500  0.11881200  1
  O  O26  1  0.64299100  0.80296500  0.20121700  1
  O  O27  1  0.62227900  0.65549100  0.48411300  1
  O  O28  1  0.34524700  0.07103200  0.49134900  1
  O  O29  1  0.72907400  0.89640500  0.77167700  1
  O  O30  1  0.54713700  0.44479700  0.32969000  1
  O  O31  1  0.39099300  0.16614400  0.69446700  1
  O  O32  1  0.81127100  0.92573800  0.37011100  1
  O  O33  1  0.50868900  0.36691400  0.53618600  1
  O  O34  1  0.46709800  0.26405000  0.13102900  1
  O  O35  1  0.55649000  0.38126700  0.90155900  1
  O  O36  1  0.72578600  0.65474900  0.82467100  1
  O  O37  1  0.55523000  0.10234200  0.99636100  1
  O  O38  1  0.77515100  0.60900500  0.02779800  1
  O  O39  1  0.90401100  0.80612500  0.64866500  1
  O  O40  1  0.85720000  0.73006700  0.23769000  1
  O  O41  1  0.61872800  0.17521000  0.56821700  1
  O  O42  1  0.79696400  0.53292800  0.46435900  1
  O  O43  1  0.98524100  0.92195700  0.84570300  1
  O  O44  1  0.63309400  0.14176400  0.20286700  1
  O  O45  1  0.85822100  0.49130700  0.86951600  1
  O  O46  1  0.82479600  0.44352500  0.23489500  1
  O  O47  1  0.73595800  0.20303500  0.79769600  1
  O  O48  1  0.83387500  0.22481900  0.36114200  1
  O  O49  1  0.89765300  0.45285800  0.66301600  1
  O  O50  1  0.87287200  0.14279600  0.57104200  1
  O  O51  1  0.92896100  0.27421900  0.15800000  1
  O  O52  1  0.90210000  0.09595000  0.98199300  1
  O  O53  1  0.93671200  0.01477300  0.17907200  1
loop_
_geom_bond_atom_site_label_1
_geom_bond_atom_site_label_2
_geom_bond_distance
_geom_bond_site_symmetry_2
Li0 O1 1.961641 1_555
Li0 O20 2.002982 1_565
Li0 O8 2.102301 1_555
Li0 O53 2.309553 1_465
Li1 O7 1.895646 1_554
Li1 O2 2.018393 1_554
Li1 O1 2.300555 1_555
Li1 O15 2.453300 1_555
Li1 O8 2.529809 1_555
Li1 O3 2.545279 1_555
Li2 O21 1.895677 1_555
Li2 O10 2.018503 1_555
Li2 O12 2.300079 1_555
Li2 O9 2.453555 1_555
Li2 O5 2.529889 1_555
Li2 O16 2.545333 1_555
Li3 O12 1.961713 1_555
Li3 O52 2.002653 1_455
Li3 O5 2.102266 1_555
Li3 O43 2.309431 1_445
Li4 O11 1.895653 1_555
Li4 O26 2.018304 1_555
Li4 O32 2.301085 1_555
Li4 O19 2.453045 1_555
Li4 O27 2.529956 1_555
Li4 O22 2.545411 1_555
Li5 O31 2.051673 1_555
Li5 O12 2.128112 1_555
Li5 O18 2.306029 1_555
Li5 O6 2.391782 1_545
Li5 O39 2.423600 1_445
Li6 O31 1.941366 1_555
Li6 O24 1.984974 1_555
Li6 O12 1.985136 1_555
Li6 O16 2.110204 1_555
Li7 O32 1.961437 1_555
Li7 O39 2.002622 1_555
Li7 O27 2.102235 1_555
Li7 O18 2.309787 1_665
Li8 O38 2.052021 1_555
Li8 O1 2.128328 1_655
Li8 O43 2.306436 1_554
Li8 O23 2.391091 1_554
Li8 O52 2.422875 1_564
Li9 O48 1.941445 1_555
Li9 O50 1.984811 1_555
Li9 O32 1.985133 1_545
Li9 O22 2.109687 1_545
Li10 O38 1.941500 1_555
Li10 O40 1.984418 1_555
Li10 O1 1.985272 1_655
Li10 O3 2.109765 1_655
Li11 O48 2.051594 1_555
Li11 O32 2.127991 1_545
Li11 O53 2.305947 1_555
Li11 O13 2.391881 1_655
Li11 O20 2.422975 1_655
O0 Si6 1.648292 1_565
O0 V8 2.206948 1_455
O0 V7 2.297018 1_455
O0 V0 2.354389 1_555
O1 Si0 1.609148 1_554
O2 Si1 1.660732 1_555
O2 Si0 1.663451 1_555
O3 Si3 1.640307 1_555
O3 V8 2.165533 1_455
O3 V1 2.283639 1_555
O4 Si5 1.628277 1_555
O4 V8 2.211704 1_455
O4 V11 2.218477 1_455
O4 V7 2.378854 1_455
O5 Si2 1.656301 1_555
O5 Si15 1.684487 1_455
O6 Si1 1.625499 1_555
O6 V7 2.223137 1_455
O6 V0 2.244227 1_555
O7 Si2 1.591079 1_555
O7 V1 2.098955 1_556
O8 Si3 1.656298 1_555
O8 Si14 1.684499 1_565
O9 Si1 1.661288 1_555
O9 Si2 1.681974 1_555
O9 V2 2.313937 1_555
O10 Si5 1.660846 1_555
O10 Si4 1.663594 1_555
O11 Si3 1.591028 1_555
O11 V0 2.098606 1_555
O12 Si4 1.609270 1_555
O13 Si5 1.625520 1_555
O13 V3 2.222499 1_555
O13 V1 2.244016 1_555
O14 Si1 1.628231 1_555
O14 V9 2.211724 1_565
O14 V5 2.218534 1_565
O14 V10 2.379326 1_565
O15 Si8 1.661213 1_555
O15 Si3 1.681934 1_555
O15 V1 2.313888 1_555
O16 Si2 1.640386 1_555
O16 V4 2.165212 1_556
O16 V2 2.283643 1_555
O17 Si17 1.648382 1_455
O17 V4 2.206621 1_555
O17 V3 2.296805 1_555
O17 V1 2.354454 1_555
O18 Si4 1.665132 1_555
O18 Si6 1.665547 1_555
O19 Si5 1.661281 1_555
O19 Si7 1.681978 1_555
O19 V0 2.313918 1_555
O20 Si6 1.606994 1_555
O20 V3 2.199936 1_555
O21 Si7 1.591092 1_555
O21 V2 2.098919 1_555
O22 Si7 1.640360 1_555
O22 V9 2.165240 1_565
O22 V0 2.283739 1_555
O23 Si8 1.625510 1_556
O23 V10 2.222709 1_565
O23 V2 2.244214 1_555
O24 Si0 1.618147 1_545
O24 V4 2.193036 1_556
O24 V5 2.301172 1_555
O25 Si8 1.628200 1_555
O25 V4 2.211748 1_555
O25 V6 2.218932 1_555
O25 V3 2.379208 1_555
O26 Si8 1.660844 1_555
O26 Si11 1.663585 1_555
O27 Si7 1.656257 1_555
O27 Si9 1.684391 1_555
O28 Si6 1.669434 1_555
O28 Si10 1.694997 1_555
O28 V0 2.210344 1_545
O29 Si12 1.648176 1_555
O29 V9 2.206987 1_565
O29 V10 2.297053 1_565
O29 V2 2.354416 1_555
O30 Si9 1.615704 1_555
O30 V6 2.146354 1_555
O30 V3 2.147442 1_555
O31 Si10 1.617899 1_555
O31 V5 2.179447 1_555
O32 Si11 1.609278 1_555
O33 Si10 1.634020 1_555
O33 Si9 1.635812 1_555
O34 Si14 1.641889 1_555
O34 V4 2.180581 1_555
O34 V3 2.260082 1_555
O34 V6 2.284345 1_555
O35 Si13 1.612742 1_555
O35 V5 2.123830 1_555
O35 V4 2.130750 1_556
O36 Si12 1.669361 1_555
O36 Si13 1.694927 1_555
O36 V2 2.210381 1_555
O37 Si14 1.615751 1_556
O37 V5 2.146375 1_555
O37 V10 2.147352 1_555
O38 Si13 1.617864 1_554
O38 V6 2.179392 1_555
O39 Si12 1.606969 1_555
O39 V7 2.200267 1_555
O40 Si11 1.618262 1_555
O40 V8 2.192916 1_555
O40 V6 2.300747 1_555
O41 Si10 1.612689 1_555
O41 V11 2.123937 1_555
O41 V9 2.130545 1_555
O42 Si9 1.641825 1_555
O42 V8 2.180404 1_555
O42 V7 2.259557 1_555
O42 V11 2.284218 1_555
O43 Si0 1.664999 1_655
O43 Si12 1.665439 1_555
O44 Si16 1.634103 1_555
O44 Si14 1.635875 1_555
O45 Si13 1.634037 1_555
O45 Si15 1.635812 1_555
O46 Si16 1.612758 1_555
O46 V6 2.123431 1_555
O46 V8 2.130440 1_555
O47 Si15 1.641856 1_555
O47 V9 2.180597 1_555
O47 V10 2.259898 1_555
O47 V5 2.284239 1_555
O48 Si16 1.617941 1_555
O48 V11 2.179513 1_555
O49 Si15 1.615746 1_555
O49 V11 2.146196 1_555
O49 V7 2.147140 1_555
O50 Si4 1.618202 1_655
O50 V9 2.192882 1_555
O50 V11 2.301178 1_555
O51 Si17 1.669522 1_555
O51 Si16 1.695138 1_555
O51 V1 2.210315 1_655
O52 Si17 1.607081 1_556
O52 V10 2.199703 1_555
O53 Si11 1.665237 1_545
O53 Si17 1.665669 1_555
