# generated using pymatgen
data_Ce4(YS2)11
_symmetry_space_group_name_H-M   'P 1'
_cell_length_a   19.72955207
_cell_length_b   19.72955207
_cell_length_c   11.40767898
_cell_angle_alpha   88.39376818
_cell_angle_beta   88.39376818
_cell_angle_gamma   11.51634755
_symmetry_Int_Tables_number   1
_chemical_formula_structural   Ce4(YS2)11
_chemical_formula_sum   'Ce4 Y11 S22'
_cell_volume   886.18264226
_cell_formula_units_Z   1
loop_
 _symmetry_equiv_pos_site_id
 _symmetry_equiv_pos_as_xyz
  1  'x, y, z'
loop_
 _atom_site_type_symbol
 _atom_site_label
 _atom_site_symmetry_multiplicity
 _atom_site_fract_x
 _atom_site_fract_y
 _atom_site_fract_z
 _atom_site_occupancy
  Ce  Ce0  1  0.10441800  0.10441800  0.98855200  1
  Ce  Ce1  1  0.89558200  0.89558200  0.01144800  1
  Ce  Ce2  1  0.36714900  0.36714900  0.65216300  1
  Ce  Ce3  1  0.63285100  0.63285100  0.34783700  1
  Y  Y0  1  0.79790700  0.79790700  0.94127100  1
  Y  Y1  1  0.20209300  0.20209300  0.05872900  1
  Y  Y2  1  0.46182600  0.46182600  0.72956700  1
  Y  Y3  1  0.53817400  0.53817400  0.27043300  1
  Y  Y4  1  0.65767000  0.65767000  0.69933700  1
  Y  Y5  1  0.34233000  0.34233000  0.30066300  1
  Y  Y6  1  0.26327400  0.26327400  0.64860800  1
  Y  Y7  1  0.73672600  0.73672600  0.35139200  1
  Y  Y8  1  0.06960700  0.06960700  0.63922300  1
  Y  Y9  1  0.93039300  0.93039300  0.36077700  1
  Y  Y10  1  0.00000000  0.00000000  0.00000000  1
  S  S0  1  0.08800700  0.08800700  0.24813300  1
  S  S1  1  0.91199300  0.91199300  0.75186700  1
  S  S2  1  0.18899900  0.18899900  0.30951200  1
  S  S3  1  0.81100100  0.81100100  0.69048800  1
  S  S4  1  0.28015100  0.28015100  0.41115400  1
  S  S5  1  0.71984900  0.71984900  0.58884600  1
  S  S6  1  0.44467100  0.44467100  0.50663900  1
  S  S7  1  0.55532900  0.55532900  0.49336100  1
  S  S8  1  0.13501200  0.13501200  0.54590300  1
  S  S9  1  0.86498800  0.86498800  0.45409700  1
  S  S10  1  0.59285400  0.59285400  0.78889800  1
  S  S11  1  0.40714600  0.40714600  0.21110200  1
  S  S12  1  0.45261400  0.45261400  0.96936600  1
  S  S13  1  0.54738600  0.54738600  0.03063400  1
  S  S14  1  0.35081900  0.35081900  0.90831500  1
  S  S15  1  0.64918100  0.64918100  0.09168500  1
  S  S16  1  0.16856200  0.16856200  0.84933400  1
  S  S17  1  0.83143800  0.83143800  0.15066600  1
  S  S18  1  0.00781600  0.00781600  0.75987700  1
  S  S19  1  0.99218400  0.99218400  0.24012300  1
  S  S20  1  0.25499500  0.25499500  0.88110600  1
  S  S21  1  0.74500500  0.74500500  0.11889400  1
loop_
_geom_bond_atom_site_label_1
_geom_bond_atom_site_label_2
_geom_bond_distance
_geom_bond_site_symmetry_2
Ce0 S15 2.916744 1_546
Ce0 S15 2.916744 1_456
Ce0 S16 2.939164 1_555
Ce0 S0 3.012710 1_556
Ce0 S13 3.016892 1_546
Ce0 S13 3.016892 1_456
Ce0 S10 3.061058 1_455
Ce0 S10 3.061058 1_545
Ce1 S14 2.916744 1_564
Ce1 S14 2.916744 1_654
Ce1 S17 2.939164 1_555
Ce1 S1 3.012710 1_554
Ce1 S12 3.016892 1_564
Ce1 S12 3.016892 1_654
Ce1 S11 3.061058 1_565
Ce1 S11 3.061058 1_655
Ce2 S1 2.902482 1_455
Ce2 S1 2.902482 1_545
Ce2 S14 2.973910 1_555
Ce2 S3 2.985695 1_545
Ce2 S3 2.985695 1_455
Ce2 S9 3.006909 1_455
Ce2 S9 3.006909 1_545
Ce2 S6 3.425521 1_555
Ce3 S0 2.902482 1_655
Ce3 S0 2.902482 1_565
Ce3 S15 2.973910 1_555
Ce3 S2 2.985695 1_565
Ce3 S2 2.985695 1_655
Ce3 S8 3.006909 1_655
Ce3 S8 3.006909 1_565
Ce3 S7 3.425521 1_555
S0 Y3 2.789736 1_455
S0 Y3 2.789736 1_545
S1 Y2 2.789736 1_655
S1 Y2 2.789736 1_565
S2 Y7 2.776321 1_455
S2 Y7 2.776321 1_545
S2 Y1 2.892383 1_555
S3 Y6 2.776321 1_655
S3 Y6 2.776321 1_565
S3 Y0 2.892383 1_555
S4 Y7 2.712032 1_455
S4 Y7 2.712032 1_545
S4 Y5 2.715613 1_555
S4 Y6 2.770467 1_555
S5 Y6 2.712032 1_655
S5 Y6 2.712032 1_565
S5 Y4 2.715613 1_555
S5 Y7 2.770467 1_555
S6 Y2 2.649043 1_555
S6 Y9 2.655895 1_545
S6 Y9 2.655895 1_455
S7 Y3 2.649043 1_555
S7 Y8 2.655895 1_565
S7 Y8 2.655895 1_655
S8 Y8 2.751885 1_555
S8 Y4 2.803740 1_455
S8 Y4 2.803740 1_545
S9 Y9 2.751885 1_555
S9 Y5 2.803740 1_655
S9 Y5 2.803740 1_565
S10 Y4 2.715276 1_555
S10 Y8 2.784679 1_565
S10 Y8 2.784679 1_655
S11 Y5 2.715276 1_555
S11 Y9 2.784679 1_545
S11 Y9 2.784679 1_455
S12 Y10 2.745548 1_566
S12 Y10 2.745548 1_656
S12 Y2 2.749234 1_555
S13 Y10 2.745548 1_565
S13 Y10 2.745548 1_655
S13 Y3 2.749234 1_555
S14 Y0 2.886330 1_545
S14 Y0 2.886330 1_455
S15 Y1 2.886330 1_655
S15 Y1 2.886330 1_565
S16 Y4 2.659003 1_455
S16 Y4 2.659003 1_545
S16 Y1 2.759728 1_556
S17 Y5 2.659003 1_655
S17 Y5 2.659003 1_565
S17 Y0 2.759728 1_554
S18 Y2 2.707968 1_455
S18 Y2 2.707968 1_545
S18 Y10 2.747775 1_556
S18 Y8 2.755241 1_555
S19 Y3 2.707968 1_655
S19 Y3 2.707968 1_565
S19 Y10 2.747775 1_665
S19 Y9 2.755241 1_555
S20 Y6 2.663000 1_555
S20 Y0 2.700519 1_545
S20 Y0 2.700519 1_455
S20 Y1 2.860469 1_556
S21 Y7 2.663000 1_555
S21 Y1 2.700519 1_655
S21 Y1 2.700519 1_565
S21 Y0 2.860469 1_554
