# generated using pymatgen
data_Rb2Ta2O5
_symmetry_space_group_name_H-M   'P 1'
_cell_length_a   9.07974619
_cell_length_b   9.07974619
_cell_length_c   9.07974619
_cell_angle_alpha   142.42369942
_cell_angle_beta   142.16595442
_cell_angle_gamma   54.38522474
_symmetry_Int_Tables_number   1
_chemical_formula_structural   Rb2Ta2O5
_chemical_formula_sum   'Rb4 Ta4 O10'
_cell_volume   278.08409176
_cell_formula_units_Z   2
loop_
 _symmetry_equiv_pos_site_id
 _symmetry_equiv_pos_as_xyz
  1  'x, y, z'
loop_
 _atom_site_type_symbol
 _atom_site_label
 _atom_site_symmetry_multiplicity
 _atom_site_fract_x
 _atom_site_fract_y
 _atom_site_fract_z
 _atom_site_occupancy
  Rb  Rb0  1  0.62202800  0.11425900  0.49223100  1
  Rb  Rb1  1  0.37797200  0.88574100  0.50776900  1
  Rb  Rb2  1  0.12202800  0.62979700  0.50776900  1
  Rb  Rb3  1  0.87797200  0.37020300  0.49223100  1
  Ta  Ta0  1  0.00000000  0.00000000  0.00000000  1
  Ta  Ta1  1  0.50000000  0.50000000  0.00000000  1
  Ta  Ta2  1  0.25000000  0.28277900  0.03277900  1
  Ta  Ta3  1  0.75000000  0.71722100  0.96722100  1
  O  O0  1  0.24905900  0.74905900  0.00000000  1
  O  O1  1  0.25094100  0.25094100  0.50000000  1
  O  O2  1  0.74905900  0.74905900  0.50000000  1
  O  O3  1  0.75094100  0.25094100  0.00000000  1
  O  O4  1  0.12801800  0.12451000  0.99649200  1
  O  O5  1  0.87198200  0.87549000  0.00350800  1
  O  O6  1  0.62801800  0.63152500  0.00350800  1
  O  O7  1  0.37198200  0.36847500  0.99649200  1
  O  O8  1  0.00000000  0.50000000  0.00000000  1
  O  O9  1  0.50000000  0.50000000  0.50000000  1
loop_
_geom_bond_atom_site_label_1
_geom_bond_atom_site_label_2
_geom_bond_distance
_geom_bond_site_symmetry_2
O0 Ta1 2.074702 1_555
O0 Ta0 2.074702 1_565
O0 Rb2 2.849302 1_554
O0 Rb0 2.849302 1_565
O0 Rb3 2.874793 1_454
O0 Rb1 2.874793 1_555
O1 Ta0 2.074702 1_555
O1 Ta1 2.074702 1_556
O1 Rb1 2.849302 1_545
O1 Rb3 2.849302 1_455
O1 Rb2 2.874793 1_555
O1 Rb0 2.874793 1_555
O2 Ta0 2.074702 1_666
O2 Ta1 2.074702 1_555
O2 Rb2 2.849302 1_655
O2 Rb0 2.849302 1_565
O2 Rb3 2.874793 1_555
O2 Rb1 2.874793 1_555
O3 Ta0 2.074702 1_655
O3 Ta1 2.074702 1_555
O3 Rb3 2.849302 1_555
O3 Rb1 2.849302 1_544
O3 Rb2 2.874793 1_655
O3 Rb0 2.874793 1_554
O4 Ta2 1.981702 1_556
O4 Ta0 2.067902 1_556
O4 Rb2 2.859995 1_545
O4 Rb0 2.945335 1_455
O4 Rb0 2.945335 1_556
O4 Rb2 2.991833 1_556
O5 Ta3 1.981702 1_554
O5 Ta0 2.067902 1_665
O5 Rb3 2.859995 1_565
O5 Rb1 2.945335 1_554
O5 Rb1 2.945335 1_655
O5 Rb3 2.991833 1_554
O6 Ta3 1.981709 1_554
O6 Ta1 2.067894 1_555
O6 Rb0 2.859998 1_565
O6 Rb2 2.945332 1_655
O6 Rb2 2.945338 1_554
O6 Rb0 2.991830 1_554
O7 Ta2 1.981709 1_556
O7 Ta1 2.067894 1_556
O7 Rb1 2.859998 1_545
O7 Rb3 2.945332 1_455
O7 Rb3 2.945338 1_556
O7 Rb1 2.991830 1_556
O8 Ta2 1.944295 1_555
O8 Ta3 1.944295 1_454
O8 Rb1 2.951580 1_555
O8 Rb0 2.951580 1_454
O8 Rb3 2.951580 1_454
O8 Rb2 2.951580 1_555
O9 Ta3 1.944295 1_555
O9 Ta2 1.944295 1_555
O9 Rb3 2.951580 1_555
O9 Rb0 2.951580 1_555
O9 Rb1 2.951580 1_555
O9 Rb2 2.951580 1_555
