# generated using pymatgen
data_Ce3Ge5
_symmetry_space_group_name_H-M   'P 1'
_cell_length_a   11.34738494
_cell_length_b   9.34531489
_cell_length_c   7.66884600
_cell_angle_alpha   83.03433025
_cell_angle_beta   54.83399553
_cell_angle_gamma   42.13167421
_symmetry_Int_Tables_number   1
_chemical_formula_structural   Ce3Ge5
_chemical_formula_sum   'Ce6 Ge10'
_cell_volume   370.17956656
_cell_formula_units_Z   2
loop_
 _symmetry_equiv_pos_site_id
 _symmetry_equiv_pos_as_xyz
  1  'x, y, z'
loop_
 _atom_site_type_symbol
 _atom_site_label
 _atom_site_symmetry_multiplicity
 _atom_site_fract_x
 _atom_site_fract_y
 _atom_site_fract_z
 _atom_site_occupancy
  Ce  Ce0  1  0.03572700  0.12830000  0.34671400  1
  Ce  Ce1  1  0.34671400  0.48925900  0.03572700  1
  Ce  Ce2  1  0.12170000  0.21427300  0.76074100  1
  Ce  Ce3  1  0.76074100  0.90328600  0.12170000  1
  Ce  Ce4  1  0.44900200  0.55099800  0.44900200  1
  Ce  Ce5  1  0.69900200  0.80099800  0.69900200  1
  Ge  Ge0  1  0.52570900  0.80026300  0.19654100  1
  Ge  Ge1  1  0.19654100  0.47748800  0.52570900  1
  Ge  Ge2  1  0.44973700  0.72429100  0.77251200  1
  Ge  Ge3  1  0.77251200  0.05345900  0.44973700  1
  Ge  Ge4  1  0.30282900  0.32957200  0.78370500  1
  Ge  Ge5  1  0.78370500  0.58389300  0.30282900  1
  Ge  Ge6  1  0.92042800  0.94717100  0.66610700  1
  Ge  Ge7  1  0.66610700  0.46629500  0.92042800  1
  Ge  Ge8  1  0.00127300  0.99872700  0.00127300  1
  Ge  Ge9  1  0.25127300  0.24872700  0.25127300  1
loop_
_geom_bond_atom_site_label_1
_geom_bond_atom_site_label_2
_geom_bond_distance
_geom_bond_site_symmetry_2
Ce0 Ge5 3.020073 1_455
Ce0 Ge6 3.027247 1_445
Ce0 Ge7 3.064447 1_455
Ce0 Ge9 3.099277 1_555
Ce0 Ge2 3.100139 1_544
Ce0 Ge0 3.136472 1_545
Ce0 Ge3 3.206332 1_455
Ce0 Ge2 3.219997 1_455
Ce0 Ge8 3.363080 1_545
Ce0 Ge7 3.529923 1_544
Ce1 Ge4 3.020079 1_554
Ce1 Ge7 3.027254 1_554
Ce1 Ge6 3.064445 1_544
Ce1 Ge9 3.099277 1_555
Ce1 Ge3 3.100137 1_465
Ce1 Ge1 3.136470 1_555
Ce1 Ge2 3.206324 1_554
Ce1 Ge3 3.220000 1_554
Ce1 Ge8 3.363080 1_555
Ce1 Ge6 3.529926 1_455
Ce2 Ge7 3.020069 1_455
Ce2 Ge4 3.027243 1_555
Ce2 Ge5 3.064441 1_456
Ce2 Ge8 3.099277 1_546
Ce2 Ge0 3.100134 1_545
Ce2 Ge2 3.136468 1_545
Ce2 Ge1 3.206330 1_555
Ce2 Ge0 3.219997 1_456
Ce2 Ge9 3.363080 1_555
Ce2 Ge5 3.529922 1_545
Ce3 Ge6 3.020073 1_554
Ce3 Ge5 3.027251 1_555
Ce3 Ge4 3.064444 1_654
Ce3 Ge8 3.099277 1_655
Ce3 Ge1 3.100137 1_565
Ce3 Ge3 3.136463 1_565
Ce3 Ge0 3.206321 1_555
Ce3 Ge1 3.219994 1_654
Ce3 Ge9 3.363080 1_565
Ce3 Ge4 3.529920 1_565
Ce4 Ge8 3.039612 1_645
Ce4 Ge8 3.039612 1_556
Ce4 Ge6 3.083802 1_455
Ce4 Ge7 3.083804 1_554
Ce4 Ge2 3.129900 1_555
Ce4 Ge3 3.129906 1_555
Ce4 Ge1 3.147171 1_555
Ce4 Ge0 3.147179 1_555
Ce4 Ge5 3.538349 1_555
Ce4 Ge4 3.538357 1_555
Ce5 Ge9 3.039612 1_655
Ce5 Ge9 3.039612 1_566
Ce5 Ge4 3.083805 1_565
Ce5 Ge5 3.083810 1_555
Ce5 Ge0 3.129907 1_556
Ce5 Ge1 3.129910 1_655
Ce5 Ge3 3.147173 1_565
Ce5 Ge2 3.147181 1_555
Ce5 Ge7 3.538351 1_555
Ce5 Ge6 3.538360 1_555
Ge0 Ge5 2.625380 1_555
Ge0 Ge9 2.646088 1_565
Ge0 Ge7 2.665485 1_554
Ge1 Ge4 2.625382 1_555
Ge1 Ge9 2.646095 1_555
Ge1 Ge6 2.665485 1_455
Ge2 Ge7 2.625393 1_555
Ge2 Ge8 2.646086 1_556
Ge2 Ge5 2.665485 1_555
Ge3 Ge6 2.625396 1_545
Ge3 Ge8 2.646089 1_645
Ge3 Ge4 2.665485 1_555
