# generated using pymatgen
data_YTc2Cl8O9
_symmetry_space_group_name_H-M   'P 1'
_cell_length_a   6.77120227
_cell_length_b   12.79024100
_cell_length_c   11.86031593
_cell_angle_alpha   90.00000000
_cell_angle_beta   84.71388841
_cell_angle_gamma   90.00000000
_symmetry_Int_Tables_number   1
_chemical_formula_structural   YTc2Cl8O9
_chemical_formula_sum   'Y2 Tc4 Cl16 O18'
_cell_volume   1022.79784732
_cell_formula_units_Z   2
loop_
 _symmetry_equiv_pos_site_id
 _symmetry_equiv_pos_as_xyz
  1  'x, y, z'
loop_
 _atom_site_type_symbol
 _atom_site_label
 _atom_site_symmetry_multiplicity
 _atom_site_fract_x
 _atom_site_fract_y
 _atom_site_fract_z
 _atom_site_occupancy
  Y  Y0  1  0.02756300  0.07137100  0.94596700  1
  Y  Y1  1  0.97243700  0.57137100  0.55403300  1
  Tc  Tc0  1  0.56694200  0.98687800  0.49475200  1
  Tc  Tc1  1  0.43305800  0.48687800  0.00524800  1
  Tc  Tc2  1  0.23729800  0.96954600  0.49544100  1
  Tc  Tc3  1  0.76270200  0.46954600  0.00455900  1
  Cl  Cl0  1  0.62707600  0.90037400  0.65515600  1
  Cl  Cl1  1  0.63606100  0.08963300  0.33432200  1
  Cl  Cl2  1  0.37292400  0.40037400  0.84484400  1
  Cl  Cl3  1  0.36393900  0.58963300  0.16567800  1
  Cl  Cl4  1  0.41419700  0.64324400  0.90801900  1
  Cl  Cl5  1  0.32064800  0.34841200  0.10929600  1
  Cl  Cl6  1  0.67935200  0.84841200  0.39070400  1
  Cl  Cl7  1  0.58580300  0.14324400  0.59198100  1
  Cl  Cl8  1  0.09271800  0.10276000  0.63886200  1
  Cl  Cl9  1  0.21171700  0.85250000  0.35985500  1
  Cl  Cl10  1  0.90728200  0.60276000  0.86113800  1
  Cl  Cl11  1  0.78828300  0.35250000  0.14014500  1
  Cl  Cl12  1  0.84128200  0.61592600  0.10008700  1
  Cl  Cl13  1  0.84055100  0.35849700  0.86239700  1
  Cl  Cl14  1  0.15944900  0.85849700  0.63760300  1
  Cl  Cl15  1  0.15871800  0.11592600  0.39991300  1
  O  O0  1  0.08448400  0.21906200  0.98684600  1
  O  O1  1  0.94495800  0.85929300  0.97819600  1
  O  O2  1  0.91551600  0.71906200  0.51315400  1
  O  O3  1  0.05504200  0.35929300  0.52180400  1
  O  O4  1  0.01101600  0.00572100  0.15888500  1
  O  O5  1  0.02511700  0.06036900  0.76370800  1
  O  O6  1  0.97488300  0.56036900  0.73629200  1
  O  O7  1  0.98898400  0.50572100  0.34111500  1
  O  O8  1  0.36632800  0.01409600  0.93605300  1
  O  O9  1  0.16072200  0.06501800  0.15013500  1
  O  O10  1  0.63367200  0.51409600  0.56394700  1
  O  O11  1  0.83927800  0.56501800  0.34986500  1
  O  O12  1  0.76787300  0.83344600  0.98975400  1
  O  O13  1  0.68002800  0.05011800  0.96949800  1
  O  O14  1  0.31997200  0.55011800  0.53050200  1
  O  O15  1  0.23212700  0.33344600  0.51024600  1
  O  O16  1  0.50828100  0.08873300  0.93939600  1
  O  O17  1  0.49171900  0.58873300  0.56060400  1
loop_
_geom_bond_atom_site_label_1
_geom_bond_atom_site_label_2
_geom_bond_distance
_geom_bond_site_symmetry_2
Tc0 Tc2 2.242333 1_555
Tc1 Tc3 2.242333 1_555
Cl0 Tc0 2.269791 1_555
Cl1 Tc0 2.324370 1_545
Cl2 Tc1 2.269791 1_556
Cl3 Tc1 2.324370 1_555
Cl4 Tc1 2.317989 1_556
Cl5 Tc1 2.250695 1_555
Cl6 Tc0 2.250695 1_555
Cl7 Tc0 2.317989 1_545
Cl8 O5 1.603472 1_555
Cl8 Tc2 2.539310 1_545
Cl9 Tc2 2.215500 1_555
Cl10 O6 1.603472 1_555
Cl10 Tc3 2.539310 1_556
Cl11 Tc3 2.215500 1_555
Cl12 Tc3 2.276648 1_555
Cl13 Tc3 2.230328 1_556
Cl14 Tc2 2.230328 1_555
Cl15 Tc2 2.276648 1_545
O0 Y0 1.996593 1_555
O1 O12 1.239186 1_555
O1 Y0 2.788796 1_665
O2 Y1 1.996593 1_555
O3 Y1 2.788796 1_455
O4 O9 1.262600 1_555
O4 Y0 2.653770 1_554
O5 Y0 2.167810 1_555
O6 Y1 2.167810 1_555
O7 Y1 2.653770 1_555
O8 Y0 2.400522 1_555
O9 Y0 2.661863 1_554
O10 O17 1.357864 1_555
O10 Y1 2.400522 1_555
O11 O7 1.262600 1_555
O11 Y1 2.661863 1_555
O13 O16 1.341757 1_555
O13 Y0 2.359758 1_655
O14 O17 1.341757 1_555
O14 Y1 2.359758 1_455
O15 O3 1.239186 1_555
O16 O8 1.357864 1_555
