# generated using pymatgen
data_Mg2B12H24O35
_symmetry_space_group_name_H-M   'P 1'
_cell_length_a   11.74327468
_cell_length_b   11.74327468
_cell_length_c   13.70057814
_cell_angle_alpha   64.62324616
_cell_angle_beta   64.62324616
_cell_angle_gamma   59.99999675
_symmetry_Int_Tables_number   1
_chemical_formula_structural   Mg2B12H24O35
_chemical_formula_sum   'Mg4 B24 H48 O70'
_cell_volume   1421.84320006
_cell_formula_units_Z   2
loop_
 _symmetry_equiv_pos_site_id
 _symmetry_equiv_pos_as_xyz
  1  'x, y, z'
loop_
 _atom_site_type_symbol
 _atom_site_label
 _atom_site_symmetry_multiplicity
 _atom_site_fract_x
 _atom_site_fract_y
 _atom_site_fract_z
 _atom_site_occupancy
  Mg  Mg0  1  0.64326335  0.64326335  0.07020994  1
  Mg  Mg1  1  0.14326335  0.14326335  0.57020994  1
  Mg  Mg2  1  0.35673665  0.35673665  0.92979006  1
  Mg  Mg3  1  0.85673665  0.85673665  0.42979006  1
  B  B0  1  0.58180521  0.68637919  0.30067905  1
  B  B1  1  0.68637919  0.43113655  0.30067905  1
  B  B2  1  0.43113655  0.58180521  0.30067905  1
  B  B3  1  0.08180521  0.93113655  0.80067905  1
  B  B4  1  0.93113655  0.18637919  0.80067905  1
  B  B5  1  0.18637919  0.08180521  0.80067905  1
  B  B6  1  0.41819479  0.31362081  0.69932095  1
  B  B7  1  0.31362081  0.56886345  0.69932095  1
  B  B8  1  0.56886345  0.41819479  0.69932095  1
  B  B9  1  0.91819479  0.06886345  0.19932095  1
  B  B10  1  0.06886345  0.81362081  0.19932095  1
  B  B11  1  0.81362081  0.91819479  0.19932095  1
  B  B12  1  0.47942551  0.67293228  0.62715960  1
  B  B13  1  0.67293228  0.22048262  0.62715960  1
  B  B14  1  0.22048262  0.47942551  0.62715960  1
  B  B15  1  0.97942551  0.72048262  0.12715960  1
  B  B16  1  0.72048262  0.17293228  0.12715960  1
  B  B17  1  0.17293228  0.97942551  0.12715960  1
  B  B18  1  0.52057449  0.32706772  0.37284040  1
  B  B19  1  0.32706772  0.77951738  0.37284040  1
  B  B20  1  0.77951738  0.52057449  0.37284040  1
  B  B21  1  0.02057449  0.27951738  0.87284040  1
  B  B22  1  0.27951738  0.82706772  0.87284040  1
  B  B23  1  0.82706772  0.02057449  0.87284040  1
  H  H0  1  0.27273118  0.20426013  0.65535669  1
  H  H1  1  0.20426013  0.86765200  0.65535669  1
  H  H2  1  0.86765200  0.27273118  0.65535669  1
  H  H3  1  0.77273118  0.36765200  0.15535669  1
  H  H4  1  0.36765200  0.70426013  0.15535669  1
  H  H5  1  0.70426013  0.77273118  0.15535669  1
  H  H6  1  0.72726882  0.79573987  0.34464331  1
  H  H7  1  0.79573987  0.13234800  0.34464331  1
  H  H8  1  0.13234800  0.72726882  0.34464331  1
  H  H9  1  0.22726882  0.63234800  0.84464331  1
  H  H10  1  0.63234800  0.29573987  0.84464331  1
  H  H11  1  0.29573987  0.22726882  0.84464331  1
  H  H12  1  0.36809179  0.05323230  0.39248379  1
  H  H13  1  0.05323230  0.18619212  0.39248379  1
  H  H14  1  0.18619212  0.36809179  0.39248379  1
  H  H15  1  0.86809179  0.68619212  0.89248379  1
  H  H16  1  0.68619212  0.55323230  0.89248379  1
  H  H17  1  0.55323230  0.86809179  0.89248379  1
  H  H18  1  0.63190821  0.94676770  0.60751621  1
  H  H19  1  0.94676770  0.81380788  0.60751621  1
  H  H20  1  0.81380788  0.63190821  0.60751621  1
  H  H21  1  0.13190821  0.31380788  0.10751621  1
  H  H22  1  0.31380788  0.44676770  0.10751621  1
  H  H23  1  0.44676770  0.13190821  0.10751621  1
  H  H24  1  0.40234177  0.95076425  0.50746628  1
  H  H25  1  0.95076425  0.13942771  0.50746628  1
  H  H26  1  0.13942771  0.40234177  0.50746628  1
  H  H27  1  0.90234177  0.63942771  0.00746628  1
  H  H28  1  0.63942771  0.45076425  0.00746628  1
  H  H29  1  0.45076425  0.90234177  0.00746628  1
  H  H30  1  0.59765823  0.04923575  0.49253372  1
  H  H31  1  0.04923575  0.86057229  0.49253372  1
  H  H32  1  0.86057229  0.59765823  0.49253372  1
  H  H33  1  0.09765823  0.36057229  0.99253372  1
  H  H34  1  0.36057229  0.54923575  0.99253372  1
  H  H35  1  0.54923575  0.09765823  0.99253372  1
  H  H36  1  0.54208072  0.04621917  0.22910099  1
  H  H37  1  0.04621917  0.18259912  0.22910099  1
  H  H38  1  0.18259912  0.54208072  0.22910099  1
  H  H39  1  0.04208072  0.68259912  0.72910099  1
  H  H40  1  0.68259912  0.54621917  0.72910099  1
  H  H41  1  0.54621917  0.04208072  0.72910099  1
  H  H42  1  0.45791928  0.95378083  0.77089901  1
  H  H43  1  0.95378083  0.81740088  0.77089901  1
  H  H44  1  0.81740088  0.45791928  0.77089901  1
  H  H45  1  0.95791928  0.31740088  0.27089901  1
  H  H46  1  0.31740088  0.45378083  0.27089901  1
  H  H47  1  0.45378083  0.95791928  0.27089901  1
  O  O0  1  0.67606393  0.64889955  0.36319319  1
  O  O1  1  0.64889955  0.31184333  0.36319319  1
  O  O2  1  0.31184333  0.67606393  0.36319319  1
  O  O3  1  0.17606393  0.81184333  0.86319319  1
  O  O4  1  0.81184333  0.14889955  0.86319319  1
  O  O5  1  0.14889955  0.17606393  0.86319319  1
  O  O6  1  0.32393607  0.35110045  0.63680681  1
  O  O7  1  0.35110045  0.68815667  0.63680681  1
  O  O8  1  0.68815667  0.32393607  0.63680681  1
  O  O9  1  0.82393607  0.18815667  0.13680681  1
  O  O10  1  0.18815667  0.85110045  0.13680681  1
  O  O11  1  0.85110045  0.82393607  0.13680681  1
  O  O12  1  0.44992793  0.79022219  0.34053212  1
  O  O13  1  0.79022219  0.41931776  0.34053212  1
  O  O14  1  0.41931776  0.44992793  0.34053212  1
  O  O15  1  0.94992793  0.91931776  0.84053212  1
  O  O16  1  0.91931776  0.29022219  0.84053212  1
  O  O17  1  0.29022219  0.94992793  0.84053212  1
  O  O18  1  0.55007207  0.20977781  0.65946788  1
  O  O19  1  0.20977781  0.58068224  0.65946788  1
  O  O20  1  0.58068224  0.55007207  0.65946788  1
  O  O21  1  0.05007207  0.08068224  0.15946788  1
  O  O22  1  0.08068224  0.70977781  0.15946788  1
  O  O23  1  0.70977781  0.05007207  0.15946788  1
  O  O24  1  0.55900894  0.55900894  0.32297317  1
  O  O25  1  0.05900894  0.05900894  0.82297317  1
  O  O26  1  0.44099106  0.44099106  0.67702683  1
  O  O27  1  0.94099106  0.94099106  0.17702683  1
  O  O28  1  0.23205710  0.13801981  0.67888341  1
  O  O29  1  0.13801981  0.95103968  0.67888341  1
  O  O30  1  0.95103968  0.23205710  0.67888341  1
  O  O31  1  0.73205710  0.45103968  0.17888341  1
  O  O32  1  0.45103968  0.63801981  0.17888341  1
  O  O33  1  0.63801981  0.73205710  0.17888341  1
  O  O34  1  0.76794290  0.86198019  0.32111659  1
  O  O35  1  0.86198019  0.04896032  0.32111659  1
  O  O36  1  0.04896032  0.76794290  0.32111659  1
  O  O37  1  0.26794290  0.54896032  0.82111659  1
  O  O38  1  0.54896032  0.36198019  0.82111659  1
  O  O39  1  0.36198019  0.26794290  0.82111659  1
  O  O40  1  0.49908957  0.79276760  0.58762315  1
  O  O41  1  0.79276760  0.12051967  0.58762315  1
  O  O42  1  0.12051967  0.49908957  0.58762315  1
  O  O43  1  0.99908957  0.62051967  0.08762315  1
  O  O44  1  0.62051967  0.29276760  0.08762315  1
  O  O45  1  0.29276760  0.99908957  0.08762315  1
  O  O46  1  0.50091043  0.20723240  0.41237685  1
  O  O47  1  0.20723240  0.87948033  0.41237685  1
  O  O48  1  0.87948033  0.50091043  0.41237685  1
  O  O49  1  0.00091043  0.37948033  0.91237685  1
  O  O50  1  0.37948033  0.70723240  0.91237685  1
  O  O51  1  0.70723240  0.00091043  0.91237685  1
  O  O52  1  0.32975822  0.03224364  0.47568643  1
  O  O53  1  0.03224364  0.16231171  0.47568643  1
  O  O54  1  0.16231171  0.32975822  0.47568643  1
  O  O55  1  0.82975822  0.66231171  0.97568643  1
  O  O56  1  0.66231171  0.53224364  0.97568643  1
  O  O57  1  0.53224364  0.82975822  0.97568643  1
  O  O58  1  0.67024178  0.96775636  0.52431357  1
  O  O59  1  0.96775636  0.83768829  0.52431357  1
  O  O60  1  0.83768829  0.67024178  0.52431357  1
  O  O61  1  0.17024178  0.33768829  0.02431357  1
  O  O62  1  0.33768829  0.46775636  0.02431357  1
  O  O63  1  0.46775636  0.17024178  0.02431357  1
  O  O64  1  0.94755066  0.75000000  0.75000000  1
  O  O65  1  0.75000000  0.55244934  0.75000000  1
  O  O66  1  0.55244934  0.94755066  0.75000000  1
  O  O67  1  0.44755066  0.05244934  0.25000000  1
  O  O68  1  0.05244934  0.25000000  0.25000000  1
  O  O69  1  0.25000000  0.44755066  0.25000000  1
loop_
_geom_bond_atom_site_label_1
_geom_bond_atom_site_label_2
_geom_bond_distance
_geom_bond_site_symmetry_2
Mg0 O57 2.081848 1_554
Mg0 O56 2.081848 1_554
Mg0 O55 2.081848 1_554
Mg0 O31 2.120328 1_555
Mg0 O32 2.120328 1_555
Mg0 O33 2.120328 1_555
Mg1 O52 2.081848 1_555
Mg1 O53 2.081848 1_555
Mg1 O54 2.081848 1_555
Mg1 O30 2.120328 1_455
Mg1 O29 2.120328 1_545
Mg1 O28 2.120328 1_555
Mg2 O63 2.081848 1_556
Mg2 O62 2.081848 1_556
Mg2 O61 2.081848 1_556
Mg2 O37 2.120328 1_555
Mg2 O38 2.120328 1_555
Mg2 O39 2.120328 1_555
Mg3 O58 2.081848 1_555
Mg3 O59 2.081848 1_555
Mg3 O60 2.081848 1_555
Mg3 O36 2.120328 1_655
Mg3 O35 2.120328 1_565
Mg3 O34 2.120328 1_555
B0 O12 1.463206 1_555
B0 O33 1.466522 1_555
B0 O0 1.467931 1_555
B0 O24 1.530014 1_555
B1 O13 1.463206 1_555
B1 O31 1.466522 1_555
B1 O1 1.467931 1_555
B1 O24 1.530014 1_555
B2 O14 1.463206 1_555
B2 O32 1.466522 1_555
B2 O2 1.467931 1_555
B2 O24 1.530014 1_555
B3 O15 1.463206 1_455
B3 O29 1.466522 1_555
B3 O3 1.467931 1_555
B3 O25 1.530014 1_565
B4 O16 1.463206 1_555
B4 O30 1.466522 1_555
B4 O4 1.467931 1_555
B4 O25 1.530014 1_655
B5 O17 1.463206 1_545
B5 O28 1.466522 1_555
B5 O5 1.467931 1_555
B5 O25 1.530014 1_555
B6 O18 1.463206 1_555
B6 O39 1.466522 1_555
B6 O6 1.467931 1_555
B6 O26 1.530014 1_555
B7 O19 1.463206 1_555
B7 O37 1.466522 1_555
B7 O7 1.467931 1_555
B7 O26 1.530014 1_555
B8 O20 1.463206 1_555
B8 O38 1.466522 1_555
B8 O8 1.467931 1_555
B8 O26 1.530014 1_555
B9 O21 1.463206 1_655
B9 O35 1.466522 1_555
B9 O9 1.467931 1_555
B9 O27 1.530014 1_545
B10 O22 1.463206 1_555
B10 O36 1.466522 1_555
B10 O10 1.467931 1_555
B10 O27 1.530014 1_455
B11 O23 1.463206 1_565
B11 O34 1.466522 1_555
B11 O11 1.467931 1_555
B11 O27 1.530014 1_555
B12 O20 1.370996 1_555
B12 O40 1.375315 1_555
B12 O7 1.378573 1_555
B13 O18 1.370996 1_555
B13 O41 1.375315 1_555
B13 O8 1.378573 1_555
B14 O19 1.370996 1_555
B14 O42 1.375315 1_555
B14 O6 1.378573 1_555
B15 O22 1.370996 1_655
B15 O43 1.375315 1_555
B15 O11 1.378573 1_555
B16 O23 1.370996 1_555
B16 O44 1.375315 1_555
B16 O9 1.378573 1_555
B17 O21 1.370996 1_565
B17 O45 1.375315 1_555
B17 O10 1.378573 1_555
B18 O14 1.370996 1_555
B18 O46 1.375315 1_555
B18 O1 1.378573 1_555
B19 O12 1.370996 1_555
B19 O47 1.375315 1_555
B19 O2 1.378573 1_555
B20 O13 1.370996 1_555
B20 O48 1.375315 1_555
B20 O0 1.378573 1_555
B21 O16 1.370996 1_455
B21 O49 1.375315 1_555
B21 O5 1.378573 1_555
B22 O17 1.370996 1_555
B22 O50 1.375315 1_555
B22 O3 1.378573 1_555
B23 O15 1.370996 1_545
B23 O51 1.375315 1_555
B23 O4 1.378573 1_555
H0 O28 0.980720 1_555
H1 O29 0.980720 1_555
H2 O30 0.980720 1_555
H3 O31 0.980720 1_555
H4 O32 0.980720 1_555
H5 O33 0.980720 1_555
H6 O34 0.980720 1_555
H7 O35 0.980720 1_555
H8 O36 0.980720 1_555
H9 O37 0.980720 1_555
H10 O38 0.980720 1_555
H11 O39 0.980720 1_555
H12 O52 0.996550 1_555
H13 O53 0.996550 1_555
H14 O54 0.996550 1_555
H15 O55 0.996550 1_555
H16 O56 0.996550 1_555
H17 O57 0.996550 1_555
H18 O58 0.996550 1_555
H19 O59 0.996550 1_555
H20 O60 0.996550 1_555
H21 O61 0.996550 1_555
H22 O62 0.996550 1_555
H23 O63 0.996550 1_555
H24 O52 0.988472 1_565
H25 O53 0.988472 1_655
H26 O54 0.988472 1_555
H27 O55 0.988472 1_554
H28 O56 0.988472 1_554
H29 O57 0.988472 1_554
H30 O58 0.988472 1_545
H31 O59 0.988472 1_455
H32 O60 0.988472 1_555
H33 O61 0.988472 1_556
H34 O62 0.988472 1_556
H35 O63 0.988472 1_556
H36 O67 0.991937 1_555
H37 O68 0.991937 1_555
H38 O69 0.991937 1_555
H39 O64 0.991937 1_455
H40 O65 0.991937 1_555
H41 O66 0.991937 1_545
H42 O66 0.991937 1_555
H43 O64 0.991937 1_555
H44 O65 0.991937 1_555
H45 O68 0.991937 1_655
H46 O69 0.991937 1_555
H47 O67 0.991937 1_565
