# generated using pymatgen
data_CaMn6O5F7
_symmetry_space_group_name_H-M   'P 1'
_cell_length_a   7.27112749
_cell_length_b   6.02866124
_cell_length_c   6.52679922
_cell_angle_alpha   85.63639181
_cell_angle_beta   73.19495410
_cell_angle_gamma   73.17251394
_symmetry_Int_Tables_number   1
_chemical_formula_structural   CaMn6O5F7
_chemical_formula_sum   'Ca1 Mn6 O5 F7'
_cell_volume   262.14840215
_cell_formula_units_Z   1
loop_
 _symmetry_equiv_pos_site_id
 _symmetry_equiv_pos_as_xyz
  1  'x, y, z'
loop_
 _atom_site_type_symbol
 _atom_site_label
 _atom_site_symmetry_multiplicity
 _atom_site_fract_x
 _atom_site_fract_y
 _atom_site_fract_z
 _atom_site_occupancy
  Ca  Ca0  1  0.66032100  0.33301600  0.82412900  1
  Mn  Mn0  1  0.84661200  0.74584000  0.60117700  1
  Mn  Mn1  1  0.66950500  0.33865800  0.32946500  1
  Mn  Mn2  1  0.31793600  0.76583400  0.61410600  1
  Mn  Mn3  1  0.15577500  0.31125100  0.33434400  1
  Mn  Mn4  1  0.50156800  0.92776000  0.10985500  1
  Mn  Mn5  1  0.00137100  0.95531200  0.04411100  1
  O  O0  1  0.61038000  0.59282200  0.54908600  1
  O  O1  1  0.95802500  0.20301600  0.24927800  1
  O  O2  1  0.71368000  0.09039800  0.11301800  1
  O  O3  1  0.02985400  0.83417000  0.76176600  1
  O  O4  1  0.30675400  0.99098300  0.39672000  1
  F  F0  1  0.65017100  0.07253400  0.60701200  1
  F  F1  1  0.36011400  0.27695300  0.01568600  1
  F  F2  1  0.30747600  0.84634000  0.94333900  1
  F  F3  1  0.36587100  0.44630600  0.40818200  1
  F  F4  1  0.67094900  0.59186600  0.04755200  1
  F  F5  1  0.96792300  0.38926000  0.65592100  1
  F  F6  1  0.01682600  0.67309900  0.28066800  1
loop_
_geom_bond_atom_site_label_1
_geom_bond_atom_site_label_2
_geom_bond_distance
_geom_bond_site_symmetry_2
Ca0 F0 2.223913 1_555
Ca0 F4 2.246978 1_556
Ca0 F1 2.286256 1_556
Ca0 F5 2.298980 1_555
Ca0 O0 2.329685 1_555
Ca0 O2 2.349439 1_556
Mn0 O3 2.112014 1_655
Mn0 O0 2.284691 1_555
Mn1 O1 1.944391 1_555
Mn1 O2 2.029772 1_555
Mn1 O0 2.045452 1_555
Mn2 O4 1.889932 1_555
Mn2 O3 1.969695 1_555
Mn2 O0 2.012714 1_555
Mn3 O1 1.965055 1_455
Mn3 O4 2.002605 1_545
Mn4 O4 1.979843 1_555
Mn4 O2 2.058515 1_565
Mn5 O2 1.940796 1_465
Mn5 O3 1.966915 1_554
Mn5 O1 1.977435 1_465
F0 Mn0 2.066846 1_545
F0 Mn1 2.327306 1_555
F1 Mn3 2.162561 1_555
F1 Mn4 2.186864 1_545
F2 Mn5 2.047129 1_556
F2 Mn4 2.186990 1_556
F2 Mn2 2.213973 1_555
F3 Mn1 2.030922 1_555
F3 Mn3 2.105799 1_555
F3 Mn2 2.317971 1_555
F4 Mn4 2.043164 1_555
F4 Mn1 2.299258 1_555
F5 Mn0 2.120005 1_555
F5 Mn3 2.147716 1_655
F6 Mn0 2.104379 1_455
F6 Mn3 2.171301 1_555
F6 Mn5 2.209296 1_555
