# generated using pymatgen
data_Na3CoO3
_symmetry_space_group_name_H-M   'P 1'
_cell_length_a   8.30632331
_cell_length_b   8.30632331
_cell_length_c   8.30632331
_cell_angle_alpha   109.47122063
_cell_angle_beta   109.47122063
_cell_angle_gamma   109.47122063
_symmetry_Int_Tables_number   1
_chemical_formula_structural   Na3CoO3
_chemical_formula_sum   'Na12 Co4 O12'
_cell_volume   441.16860944
_cell_formula_units_Z   4
loop_
 _symmetry_equiv_pos_site_id
 _symmetry_equiv_pos_as_xyz
  1  'x, y, z'
loop_
 _atom_site_type_symbol
 _atom_site_label
 _atom_site_symmetry_multiplicity
 _atom_site_fract_x
 _atom_site_fract_y
 _atom_site_fract_z
 _atom_site_occupancy
  Na  Na0  1  0.51220600  0.00000000  0.27546300  1
  Na  Na1  1  0.51220600  0.27546300  0.00000000  1
  Na  Na2  1  0.76325700  0.48779400  0.48779400  1
  Na  Na3  1  0.72453700  0.23674300  0.72453700  1
  Na  Na4  1  0.27546300  0.51220600  0.00000000  1
  Na  Na5  1  0.72453700  0.72453700  0.23674300  1
  Na  Na6  1  0.27546300  0.00000000  0.51220600  1
  Na  Na7  1  0.48779400  0.48779400  0.76325700  1
  Na  Na8  1  0.48779400  0.76325700  0.48779400  1
  Na  Na9  1  0.00000000  0.27546300  0.51220600  1
  Na  Na10  1  0.00000000  0.51220600  0.27546300  1
  Na  Na11  1  0.23674300  0.72453700  0.72453700  1
  Co  Co0  1  0.63703600  0.00000000  0.00000000  1
  Co  Co1  1  0.36296400  0.36296400  0.36296400  1
  Co  Co2  1  0.00000000  0.63703600  0.00000000  1
  Co  Co3  1  0.00000000  0.00000000  0.63703600  1
  O  O0  1  0.75169600  0.22490200  0.22490200  1
  O  O1  1  0.77509800  0.00000000  0.52679400  1
  O  O2  1  0.77509800  0.52679300  0.00000000  1
  O  O3  1  0.47320600  0.24830400  0.47320700  1
  O  O4  1  0.47320600  0.47320600  0.24830400  1
  O  O5  1  0.52679300  0.77509800  0.00000000  1
  O  O6  1  0.52679300  0.00000000  0.77509800  1
  O  O7  1  0.24830400  0.47320600  0.47320700  1
  O  O8  1  0.22490200  0.75169600  0.22490200  1
  O  O9  1  0.22490200  0.22490200  0.75169600  1
  O  O10  1  0.00000000  0.77509800  0.52679300  1
  O  O11  1  0.00000000  0.52679300  0.77509800  1
loop_
_geom_bond_atom_site_label_1
_geom_bond_atom_site_label_2
_geom_bond_distance
_geom_bond_site_symmetry_2
Na0 O8 2.366090 1_545
Na0 O3 2.366093 1_555
Na0 O1 2.467284 1_555
Na0 O5 2.495189 1_545
Na0 O0 2.495194 1_555
Na1 O4 2.366090 1_555
Na1 O9 2.366090 1_554
Na1 O2 2.467279 1_555
Na1 O6 2.495189 1_554
Na1 O0 2.495194 1_555
Na2 O10 2.366093 1_655
Na2 O11 2.366093 1_655
Na2 O0 2.467284 1_555
Na2 O4 2.495194 1_555
Na2 O3 2.495199 1_555
Na3 O1 2.366090 1_555
Na3 O6 2.366093 1_555
Na3 O3 2.467279 1_555
Na3 O2 2.495189 1_556
Na3 O11 2.495189 1_655
Na4 O4 2.366090 1_555
Na4 O9 2.366090 1_554
Na4 O5 2.467279 1_555
Na4 O11 2.495189 1_554
Na4 O8 2.495194 1_555
Na5 O5 2.366093 1_555
Na5 O2 2.366093 1_555
Na5 O4 2.467284 1_555
Na5 O10 2.495189 1_655
Na5 O1 2.495194 1_565
Na6 O3 2.366084 1_555
Na6 O8 2.366090 1_545
Na6 O6 2.467279 1_555
Na6 O10 2.495189 1_545
Na6 O9 2.495194 1_555
Na7 O2 2.366093 1_556
Na7 O5 2.366093 1_556
Na7 O9 2.467284 1_555
Na7 O7 2.495189 1_555
Na7 O3 2.495189 1_555
Na8 O1 2.366090 1_565
Na8 O6 2.366093 1_565
Na8 O8 2.467284 1_555
Na8 O4 2.495194 1_555
Na8 O7 2.495199 1_555
Na9 O7 2.366084 1_555
Na9 O0 2.366090 1_455
Na9 O11 2.467279 1_555
Na9 O9 2.495194 1_555
Na9 O1 2.495194 1_455
Na10 O0 2.366090 1_455
Na10 O7 2.366093 1_555
Na10 O10 2.467279 1_555
Na10 O2 2.495189 1_455
Na10 O8 2.495194 1_555
Na11 O11 2.366093 1_555
Na11 O10 2.366093 1_555
Na11 O7 2.467279 1_555
Na11 O5 2.495189 1_556
Na11 O6 2.495189 1_565
Co0 O0 1.785475 1_555
Co0 O5 1.785477 1_545
Co0 O6 1.785477 1_554
Co1 O4 1.785475 1_555
Co1 O3 1.785480 1_555
Co1 O7 1.785480 1_555
Co2 O8 1.785475 1_555
Co2 O2 1.785477 1_455
Co2 O11 1.785477 1_554
Co3 O9 1.785475 1_555
Co3 O1 1.785475 1_455
Co3 O10 1.785477 1_545
