# generated using pymatgen
data_CeAl4Pd
_symmetry_space_group_name_H-M   'P 1'
_cell_length_a   8.19785193
_cell_length_b   8.19785193
_cell_length_c   6.70533236
_cell_angle_alpha   90.00000000
_cell_angle_beta   90.00000000
_cell_angle_gamma   149.92829193
_symmetry_Int_Tables_number   1
_chemical_formula_structural   CeAl4Pd
_chemical_formula_sum   'Ce2 Al8 Pd2'
_cell_volume   225.80342721
_cell_formula_units_Z   2
loop_
 _symmetry_equiv_pos_site_id
 _symmetry_equiv_pos_as_xyz
  1  'x, y, z'
loop_
 _atom_site_type_symbol
 _atom_site_label
 _atom_site_symmetry_multiplicity
 _atom_site_fract_x
 _atom_site_fract_y
 _atom_site_fract_z
 _atom_site_occupancy
  Ce  Ce0  1  0.61426481  0.38573519  0.25000000  1
  Ce  Ce1  1  0.38573519  0.61426481  0.75000000  1
  Al  Al0  1  0.42801469  0.57198531  0.25000000  1
  Al  Al1  1  0.57198531  0.42801469  0.75000000  1
  Al  Al2  1  -0.00000000  0.00000000  0.00000000  1
  Al  Al3  1  -0.00000000  0.00000000  0.50000000  1
  Al  Al4  1  0.81560795  0.18439205  0.05274187  1
  Al  Al5  1  0.18439205  0.81560795  0.94725813  1
  Al  Al6  1  0.18439205  0.81560795  0.55274187  1
  Al  Al7  1  0.81560795  0.18439205  0.44725813  1
  Pd  Pd0  1  0.27606597  0.72393403  0.25000000  1
  Pd  Pd1  1  0.72393403  0.27606597  0.75000000  1
loop_
_geom_bond_atom_site_label_1
_geom_bond_atom_site_label_2
_geom_bond_distance
_geom_bond_site_symmetry_2
Ce0 Pd0 3.329694 1_655
Ce0 Pd0 3.329694 1_545
Ce1 Pd1 3.329694 1_565
Ce1 Pd1 3.329694 1_455
Al0 Pd0 2.406013 1_555
Al0 Al3 2.938069 1_555
Al0 Al3 2.938069 1_665
Al0 Al2 2.938069 1_665
Al0 Al2 2.938069 1_555
Al0 Ce0 2.949154 1_555
Al0 Ce1 3.418854 1_554
Al0 Ce1 3.418854 1_555
Al1 Pd1 2.406013 1_555
Al1 Al3 2.938069 1_555
Al1 Al2 2.938069 1_666
Al1 Al3 2.938069 1_665
Al1 Al2 2.938069 1_556
Al1 Ce1 2.949154 1_555
Al1 Ce0 3.418854 1_555
Al1 Ce0 3.418854 1_556
Al2 Al5 2.941073 1_544
Al2 Al4 2.941073 1_455
Al2 Ce0 3.256780 1_445
Al2 Ce1 3.256780 1_554
Al2 Ce1 3.256780 1_444
Al2 Ce0 3.256780 1_555
Al3 Al6 2.941073 1_545
Al3 Al7 2.941073 1_455
Al3 Ce0 3.256780 1_445
Al3 Ce1 3.256780 1_555
Al3 Ce0 3.256780 1_555
Al3 Ce1 3.256780 1_445
Al4 Pd1 2.495592 1_554
Al4 Pd0 2.581556 1_655
Al4 Pd0 2.581556 1_545
Al4 Ce1 3.142736 1_654
Al4 Ce1 3.142736 1_544
Al4 Ce0 3.451629 1_555
Al5 Pd0 2.495592 1_556
Al5 Pd1 2.581556 1_455
Al5 Pd1 2.581556 1_565
Al5 Ce0 3.142736 1_456
Al5 Ce0 3.142736 1_566
Al5 Ce1 3.451629 1_555
Al6 Pd0 2.495592 1_555
Al6 Pd1 2.581556 1_455
Al6 Pd1 2.581556 1_565
Al6 Ce0 3.142736 1_455
Al6 Ce0 3.142736 1_565
Al6 Ce1 3.451629 1_555
Al7 Pd1 2.495592 1_555
Al7 Pd0 2.581556 1_655
Al7 Pd0 2.581556 1_545
Al7 Ce1 3.142736 1_545
Al7 Ce1 3.142736 1_655
Al7 Ce0 3.451629 1_555
