# generated using pymatgen
data_CuH12C3S3N6Cl
_symmetry_space_group_name_H-M   'P 1'
_cell_length_a   13.84014281
_cell_length_b   13.84014281
_cell_length_c   13.98467157
_cell_angle_alpha   90.00000000
_cell_angle_beta   90.00000000
_cell_angle_gamma   90.00000000
_symmetry_Int_Tables_number   1
_chemical_formula_structural   CuH12C3S3N6Cl
_chemical_formula_sum   'Cu8 H96 C24 S24 N48 Cl8'
_cell_volume   2678.75758810
_cell_formula_units_Z   8
loop_
 _symmetry_equiv_pos_site_id
 _symmetry_equiv_pos_as_xyz
  1  'x, y, z'
loop_
 _atom_site_type_symbol
 _atom_site_label
 _atom_site_symmetry_multiplicity
 _atom_site_fract_x
 _atom_site_fract_y
 _atom_site_fract_z
 _atom_site_occupancy
  Cu  Cu0  1  0.47138423  0.15256366  0.33869697  1
  Cu  Cu1  1  0.52861577  0.84743634  0.83869697  1
  Cu  Cu2  1  0.65256366  0.02861577  0.58869697  1
  Cu  Cu3  1  0.34743634  0.97138423  0.08869697  1
  Cu  Cu4  1  0.84743634  0.52861577  0.16130303  1
  Cu  Cu5  1  0.15256366  0.47138423  0.66130303  1
  Cu  Cu6  1  0.02861577  0.65256366  0.41130303  1
  Cu  Cu7  1  0.97138423  0.34743634  0.91130303  1
  H  H0  1  0.51974729  0.45643474  0.37587186  1
  H  H1  1  0.48025271  0.54356526  0.87587186  1
  H  H2  1  0.95643474  0.98025271  0.62587186  1
  H  H3  1  0.04356526  0.01974729  0.12587186  1
  H  H4  1  0.54356526  0.48025271  0.12412814  1
  H  H5  1  0.45643474  0.51974729  0.62412814  1
  H  H6  1  0.98025271  0.95643474  0.37412814  1
  H  H7  1  0.01974729  0.04356526  0.87412814  1
  H  H8  1  0.53911551  0.33528748  0.34042257  1
  H  H9  1  0.46088449  0.66471252  0.84042257  1
  H  H10  1  0.83528748  0.96088449  0.59042257  1
  H  H11  1  0.16471252  0.03911551  0.09042257  1
  H  H12  1  0.66471252  0.46088449  0.15957743  1
  H  H13  1  0.33528748  0.53911551  0.65957743  1
  H  H14  1  0.96088449  0.83528748  0.40957743  1
  H  H15  1  0.03911551  0.16471252  0.90957743  1
  H  H16  1  0.49461901  0.82733253  0.40461469  1
  H  H17  1  0.50538099  0.17266747  0.90461469  1
  H  H18  1  0.32733253  0.00538099  0.65461469  1
  H  H19  1  0.67266747  0.99461901  0.15461469  1
  H  H20  1  0.17266747  0.50538099  0.09538531  1
  H  H21  1  0.82733253  0.49461901  0.59538531  1
  H  H22  1  0.00538099  0.32733253  0.34538531  1
  H  H23  1  0.99461901  0.67266747  0.84538531  1
  H  H24  1  0.50141271  0.95470488  0.40682303  1
  H  H25  1  0.49858729  0.04529512  0.90682303  1
  H  H26  1  0.45470488  0.99858729  0.65682303  1
  H  H27  1  0.54529512  0.00141271  0.15682303  1
  H  H28  1  0.04529512  0.49858729  0.09317697  1
  H  H29  1  0.95470488  0.50141271  0.59317697  1
  H  H30  1  0.99858729  0.45470488  0.34317697  1
  H  H31  1  0.00141271  0.54529512  0.84317697  1
  H  H32  1  0.63873048  0.26985964  0.02011354  1
  H  H33  1  0.36126952  0.73014036  0.52011354  1
  H  H34  1  0.76985964  0.86126952  0.27011354  1
  H  H35  1  0.23014036  0.13873048  0.77011354  1
  H  H36  1  0.73014036  0.36126952  0.47988646  1
  H  H37  1  0.26985964  0.63873048  0.97988646  1
  H  H38  1  0.86126952  0.76985964  0.72988646  1
  H  H39  1  0.13873048  0.23014036  0.22988646  1
  H  H40  1  0.71874786  0.21126925  0.09899800  1
  H  H41  1  0.28125214  0.78873075  0.59899800  1
  H  H42  1  0.71126925  0.78125214  0.34899800  1
  H  H43  1  0.28873075  0.21874786  0.84899800  1
  H  H44  1  0.78873075  0.28125214  0.40100200  1
  H  H45  1  0.21126925  0.71874786  0.90100200  1
  H  H46  1  0.78125214  0.71126925  0.65100200  1
  H  H47  1  0.21874786  0.28873075  0.15100200  1
  H  H48  1  0.41263880  0.74896829  0.29251059  1
  H  H49  1  0.58736120  0.25103171  0.79251059  1
  H  H50  1  0.24896829  0.08736120  0.54251059  1
  H  H51  1  0.75103171  0.91263880  0.04251059  1
  H  H52  1  0.25103171  0.58736120  0.20748941  1
  H  H53  1  0.74896829  0.41263880  0.70748941  1
  H  H54  1  0.08736120  0.24896829  0.45748941  1
  H  H55  1  0.91263880  0.75103171  0.95748941  1
  H  H56  1  0.34995213  0.81331202  0.20104187  1
  H  H57  1  0.65004787  0.18668798  0.70104187  1
  H  H58  1  0.31331202  0.15004787  0.45104187  1
  H  H59  1  0.68668798  0.84995213  0.95104187  1
  H  H60  1  0.18668798  0.65004787  0.29895813  1
  H  H61  1  0.81331202  0.34995213  0.79895813  1
  H  H62  1  0.15004787  0.31331202  0.54895813  1
  H  H63  1  0.84995213  0.68668798  0.04895813  1
  H  H64  1  0.48513488  0.29992269  0.06406649  1
  H  H65  1  0.51486512  0.70007731  0.56406649  1
  H  H66  1  0.79992269  0.01486512  0.31406649  1
  H  H67  1  0.20007731  0.98513488  0.81406649  1
  H  H68  1  0.70007731  0.51486512  0.43593351  1
  H  H69  1  0.29992269  0.48513488  0.93593351  1
  H  H70  1  0.01486512  0.79992269  0.68593351  1
  H  H71  1  0.98513488  0.20007731  0.18593351  1
  H  H72  1  0.44344634  0.26832559  0.18042771  1
  H  H73  1  0.55655366  0.73167441  0.68042771  1
  H  H74  1  0.76832559  0.05655366  0.43042771  1
  H  H75  1  0.23167441  0.94344634  0.93042771  1
  H  H76  1  0.73167441  0.55655366  0.31957229  1
  H  H77  1  0.26832559  0.44344634  0.81957229  1
  H  H78  1  0.05655366  0.76832559  0.56957229  1
  H  H79  1  0.94344634  0.23167441  0.06957229  1
  H  H80  1  0.36903465  0.51515129  0.39680705  1
  H  H81  1  0.63096535  0.48484871  0.89680705  1
  H  H82  1  0.01515129  0.13096535  0.64680705  1
  H  H83  1  0.98484871  0.86903465  0.14680705  1
  H  H84  1  0.48484871  0.63096535  0.10319295  1
  H  H85  1  0.51515129  0.36903465  0.60319295  1
  H  H86  1  0.13096535  0.01515129  0.35319295  1
  H  H87  1  0.86903465  0.98484871  0.85319295  1
  H  H88  1  0.26835185  0.43821550  0.38609904  1
  H  H89  1  0.73164815  0.56178450  0.88609904  1
  H  H90  1  0.93821550  0.23164815  0.63609904  1
  H  H91  1  0.06178450  0.76835185  0.13609904  1
  H  H92  1  0.56178450  0.73164815  0.11390096  1
  H  H93  1  0.43821550  0.26835185  0.61390096  1
  H  H94  1  0.23164815  0.93821550  0.36390096  1
  H  H95  1  0.76835185  0.06178450  0.86390096  1
  C  C0  1  0.58383865  0.23411644  0.15225162  1
  C  C1  1  0.41616135  0.76588356  0.65225162  1
  C  C2  1  0.73411644  0.91616135  0.40225162  1
  C  C3  1  0.26588356  0.08383865  0.90225162  1
  C  C4  1  0.76588356  0.41616135  0.34774838  1
  C  C5  1  0.23411644  0.58383865  0.84774838  1
  C  C6  1  0.91616135  0.73411644  0.59774838  1
  C  C7  1  0.08383865  0.26588356  0.09774838  1
  C  C8  1  0.42574467  0.89596858  0.29499346  1
  C  C9  1  0.57425533  0.10403142  0.79499346  1
  C  C10  1  0.39596858  0.07425533  0.54499346  1
  C  C11  1  0.60403142  0.92574467  0.04499346  1
  C  C12  1  0.10403142  0.57425533  0.20500654  1
  C  C13  1  0.89596858  0.42574467  0.70500654  1
  C  C14  1  0.07425533  0.39596858  0.45500654  1
  C  C15  1  0.92574467  0.60403142  0.95500654  1
  C  C16  1  0.39801058  0.37427272  0.35872611  1
  C  C17  1  0.60198942  0.62572728  0.85872611  1
  C  C18  1  0.87427272  0.10198942  0.60872611  1
  C  C19  1  0.12572728  0.89801058  0.10872611  1
  C  C20  1  0.62572728  0.60198942  0.14127389  1
  C  C21  1  0.37427272  0.39801058  0.64127389  1
  C  C22  1  0.10198942  0.87427272  0.39127389  1
  C  C23  1  0.89801058  0.12572728  0.89127389  1
  S  S0  1  0.39582608  0.00600238  0.24310966  1
  S  S1  1  0.60417392  0.99399762  0.74310966  1
  S  S2  1  0.50600238  0.10417392  0.49310966  1
  S  S3  1  0.49399762  0.89582608  0.99310966  1
  S  S4  1  0.99399762  0.60417392  0.25689034  1
  S  S5  1  0.00600238  0.39582608  0.75689034  1
  S  S6  1  0.10417392  0.50600238  0.50689034  1
  S  S7  1  0.89582608  0.49399762  0.00689034  1
  S  S8  1  0.34813522  0.26437783  0.32624883  1
  S  S9  1  0.65186478  0.73562217  0.82624883  1
  S  S10  1  0.76437783  0.15186478  0.57624883  1
  S  S11  1  0.23562217  0.84813522  0.07624883  1
  S  S12  1  0.73562217  0.65186478  0.17375117  1
  S  S13  1  0.26437783  0.34813522  0.67375117  1
  S  S14  1  0.15186478  0.76437783  0.42375117  1
  S  S15  1  0.84813522  0.23562217  0.92375117  1
  S  S16  1  0.61086278  0.18349743  0.26147548  1
  S  S17  1  0.38913722  0.81650257  0.76147548  1
  S  S18  1  0.68349743  0.88913722  0.51147548  1
  S  S19  1  0.31650257  0.11086278  0.01147548  1
  S  S20  1  0.81650257  0.38913722  0.23852452  1
  S  S21  1  0.18349743  0.61086278  0.73852452  1
  S  S22  1  0.88913722  0.68349743  0.48852452  1
  S  S23  1  0.11086278  0.31650257  0.98852452  1
  N  N0  1  0.49324367  0.38987842  0.35892122  1
  N  N1  1  0.50675633  0.61012158  0.85892122  1
  N  N2  1  0.88987842  0.00675633  0.60892122  1
  N  N3  1  0.11012158  0.99324367  0.10892122  1
  N  N4  1  0.61012158  0.50675633  0.14107878  1
  N  N5  1  0.38987842  0.49324367  0.64107878  1
  N  N6  1  0.00675633  0.88987842  0.39107878  1
  N  N7  1  0.99324367  0.11012158  0.89107878  1
  N  N8  1  0.47762988  0.89274832  0.37503674  1
  N  N9  1  0.52237012  0.10725168  0.87503674  1
  N  N10  1  0.39274832  0.02237012  0.62503674  1
  N  N11  1  0.60725168  0.97762988  0.12503674  1
  N  N12  1  0.10725168  0.52237012  0.12496326  1
  N  N13  1  0.89274832  0.47762988  0.62496326  1
  N  N14  1  0.02237012  0.39274832  0.37496326  1
  N  N15  1  0.97762988  0.60725168  0.87496326  1
  N  N16  1  0.65205614  0.23739909  0.08458251  1
  N  N17  1  0.34794386  0.76260091  0.58458251  1
  N  N18  1  0.73739909  0.84794386  0.33458251  1
  N  N19  1  0.26260091  0.15205614  0.83458251  1
  N  N20  1  0.76260091  0.34794386  0.41541749  1
  N  N21  1  0.23739909  0.65205614  0.91541749  1
  N  N22  1  0.84794386  0.73739909  0.66541749  1
  N  N23  1  0.15205614  0.26260091  0.16541749  1
  N  N24  1  0.39810168  0.81218628  0.25617758  1
  N  N25  1  0.60189832  0.18781372  0.75617758  1
  N  N26  1  0.31218628  0.10189832  0.50617758  1
  N  N27  1  0.68781372  0.89810168  0.00617758  1
  N  N28  1  0.18781372  0.60189832  0.24382242  1
  N  N29  1  0.81218628  0.39810168  0.74382242  1
  N  N30  1  0.10189832  0.31218628  0.49382242  1
  N  N31  1  0.89810168  0.68781372  0.99382242  1
  N  N32  1  0.49753679  0.27205351  0.13080075  1
  N  N33  1  0.50246321  0.72794649  0.63080075  1
  N  N34  1  0.77205351  0.00246321  0.38080075  1
  N  N35  1  0.22794649  0.99753679  0.88080075  1
  N  N36  1  0.72794649  0.50246321  0.36919925  1
  N  N37  1  0.27205351  0.49753679  0.86919925  1
  N  N38  1  0.00246321  0.77205351  0.61919925  1
  N  N39  1  0.99753679  0.22794649  0.11919925  1
  N  N40  1  0.34060647  0.44781008  0.38297556  1
  N  N41  1  0.65939353  0.55218992  0.88297556  1
  N  N42  1  0.94781008  0.15939353  0.63297556  1
  N  N43  1  0.05218992  0.84060647  0.13297556  1
  N  N44  1  0.55218992  0.65939353  0.11702444  1
  N  N45  1  0.44781008  0.34060647  0.61702444  1
  N  N46  1  0.15939353  0.94781008  0.36702444  1
  N  N47  1  0.84060647  0.05218992  0.86702444  1
  Cl  Cl0  1  0.53184096  0.35003321  0.91053372  1
  Cl  Cl1  1  0.46815904  0.64996679  0.41053372  1
  Cl  Cl2  1  0.85003321  0.96815904  0.16053372  1
  Cl  Cl3  1  0.14996679  0.03184096  0.66053372  1
  Cl  Cl4  1  0.64996679  0.46815904  0.58946628  1
  Cl  Cl5  1  0.35003321  0.53184096  0.08946628  1
  Cl  Cl6  1  0.96815904  0.85003321  0.83946628  1
  Cl  Cl7  1  0.03184096  0.14996679  0.33946628  1
loop_
_geom_bond_atom_site_label_1
_geom_bond_atom_site_label_2
_geom_bond_distance
_geom_bond_site_symmetry_2
Cu0 S16 2.252991 1_555
Cu0 S8 2.309726 1_555
Cu0 S2 2.311090 1_555
Cu0 S0 2.644808 1_555
Cu1 S17 2.252991 1_555
Cu1 S9 2.309726 1_555
Cu1 S3 2.311090 1_555
Cu1 S1 2.644808 1_555
Cu2 S18 2.252991 1_545
Cu2 S10 2.309726 1_555
Cu2 S1 2.311090 1_545
Cu2 S2 2.644808 1_555
Cu3 S19 2.252991 1_565
Cu3 S11 2.309726 1_555
Cu3 S0 2.311090 1_565
Cu3 S3 2.644808 1_554
Cu4 S20 2.252991 1_555
Cu4 S12 2.309726 1_555
Cu4 S7 2.311090 1_555
Cu4 S4 2.644808 1_555
Cu5 S21 2.252991 1_555
Cu5 S13 2.309726 1_555
Cu5 S6 2.311090 1_555
Cu5 S5 2.644808 1_555
Cu6 S22 2.252991 1_455
Cu6 S14 2.309726 1_555
Cu6 S4 2.311090 1_455
Cu6 S6 2.644808 1_555
Cu7 S23 2.252991 1_655
Cu7 S15 2.309726 1_555
Cu7 S5 2.311090 1_655
Cu7 S7 2.644808 1_556
H0 N0 1.019441 1_555
H1 N1 1.019441 1_555
H2 N2 1.019441 1_565
H3 N3 1.019441 1_545
H4 N4 1.019441 1_555
H5 N5 1.019441 1_555
H6 N6 1.019441 1_655
H7 N7 1.019441 1_455
H8 N0 1.020215 1_555
H9 N1 1.020215 1_555
H10 N2 1.020215 1_565
H11 N3 1.020215 1_545
H12 N4 1.020215 1_555
H13 N5 1.020215 1_555
H14 N6 1.020215 1_655
H15 N7 1.020215 1_455
H16 N8 1.022774 1_555
H17 N9 1.022774 1_555
H18 N10 1.022774 1_555
H19 N11 1.022774 1_555
H20 N12 1.022774 1_555
H21 N13 1.022774 1_555
H22 N14 1.022774 1_555
H23 N15 1.022774 1_555
H24 N8 1.020406 1_555
H25 N9 1.020406 1_555
H26 N10 1.020406 1_565
H27 N11 1.020406 1_545
H28 N12 1.020406 1_555
H29 N13 1.020406 1_555
H30 N14 1.020406 1_655
H31 N15 1.020406 1_455
H32 N16 1.024055 1_555
H33 N17 1.024055 1_555
H34 N18 1.024055 1_555
H35 N19 1.024055 1_555
H36 N20 1.024055 1_555
H37 N21 1.024055 1_555
H38 N22 1.024055 1_555
H39 N23 1.024055 1_555
H40 N16 1.011630 1_555
H41 N17 1.011630 1_555
H42 N18 1.011630 1_555
H43 N19 1.011630 1_555
H44 N20 1.011630 1_555
H45 N21 1.011630 1_555
H46 N22 1.011630 1_555
H47 N23 1.011630 1_555
H48 N24 1.031592 1_555
H49 N25 1.031592 1_555
H50 N26 1.031592 1_555
H51 N27 1.031592 1_555
H52 N28 1.031592 1_555
H53 N29 1.031592 1_555
H54 N30 1.031592 1_555
H55 N31 1.031592 1_555
H56 N24 1.019241 1_555
H57 N25 1.019241 1_555
H58 N26 1.019241 1_555
H59 N27 1.019241 1_556
H60 N28 1.019241 1_555
H61 N29 1.019241 1_555
H62 N30 1.019241 1_555
H63 N31 1.019241 1_554
H64 N32 1.024307 1_555
H65 N33 1.024307 1_555
H66 N34 1.024307 1_555
H67 N35 1.024307 1_555
H68 N36 1.024307 1_555
H69 N37 1.024307 1_555
H70 N38 1.024307 1_555
H71 N39 1.024307 1_555
H72 N32 1.022131 1_555
H73 N33 1.022131 1_555
H74 N34 1.022131 1_555
H75 N35 1.022131 1_555
H76 N36 1.022131 1_555
H77 N37 1.022131 1_555
H78 N38 1.022131 1_555
H79 N39 1.022131 1_555
H80 N40 1.029983 1_555
H81 N41 1.029983 1_555
H82 N42 1.029983 1_455
H83 N43 1.029983 1_655
H84 N44 1.029983 1_555
H85 N45 1.029983 1_555
H86 N46 1.029983 1_545
H87 N47 1.029983 1_565
H88 N40 1.009737 1_555
H89 N41 1.009737 1_555
H90 N42 1.009737 1_555
H91 N43 1.009737 1_555
H92 N44 1.009737 1_555
H93 N45 1.009737 1_555
H94 N46 1.009737 1_555
H95 N47 1.009737 1_555
C0 N16 1.337537 1_555
C0 N32 1.338781 1_555
C0 S16 1.721577 1_555
C1 N17 1.337537 1_555
C1 N33 1.338781 1_555
C1 S17 1.721577 1_555
C2 N18 1.337537 1_555
C2 N34 1.338781 1_565
C2 S18 1.721577 1_555
C3 N19 1.337537 1_555
C3 N35 1.338781 1_545
C3 S19 1.721577 1_556
C4 N20 1.337537 1_555
C4 N36 1.338781 1_555
C4 S20 1.721577 1_555
C5 N21 1.337537 1_555
C5 N37 1.338781 1_555
C5 S21 1.721577 1_555
C6 N22 1.337537 1_555
C6 N38 1.338781 1_655
C6 S22 1.721577 1_555
C7 N23 1.337537 1_555
C7 N39 1.338781 1_455
C7 S23 1.721577 1_554
C8 N8 1.330662 1_555
C8 N24 1.336267 1_555
C8 S0 1.736979 1_565
C9 N9 1.330662 1_555
C9 N25 1.336267 1_555
C9 S1 1.736979 1_545
C10 N10 1.330662 1_555
C10 N26 1.336267 1_555
C10 S2 1.736979 1_555
C11 N11 1.330662 1_555
C11 N27 1.336267 1_555
C11 S3 1.736979 1_554
C12 N12 1.330662 1_555
C12 N28 1.336267 1_555
C12 S4 1.736979 1_455
C13 N13 1.330662 1_555
C13 N29 1.336267 1_555
C13 S5 1.736979 1_655
C14 N14 1.330662 1_555
C14 N30 1.336267 1_555
C14 S6 1.736979 1_555
C15 N15 1.330662 1_555
C15 N31 1.336267 1_555
C15 S7 1.736979 1_556
C16 N40 1.334936 1_555
C16 N0 1.335622 1_555
C16 S8 1.730923 1_555
C17 N41 1.334936 1_555
C17 N1 1.335622 1_555
C17 S9 1.730923 1_555
C18 N42 1.334936 1_555
C18 N2 1.335622 1_555
C18 S10 1.730923 1_555
C19 N43 1.334936 1_555
C19 N3 1.335622 1_555
C19 S11 1.730923 1_555
C20 N44 1.334936 1_555
C20 N4 1.335622 1_555
C20 S12 1.730923 1_555
C21 N45 1.334936 1_555
C21 N5 1.335622 1_555
C21 S13 1.730923 1_555
C22 N46 1.334936 1_555
C22 N6 1.335622 1_555
C22 S14 1.730923 1_555
C23 N47 1.334936 1_555
C23 N7 1.335622 1_555
C23 S15 1.730923 1_555
