# generated using pymatgen
data_Hf2(NiAs)3
_symmetry_space_group_name_H-M   'P 1'
_cell_length_a   3.70958790
_cell_length_b   10.30086158
_cell_length_c   12.61612398
_cell_angle_alpha   89.98582644
_cell_angle_beta   90.00000000
_cell_angle_gamma   90.00000000
_symmetry_Int_Tables_number   1
_chemical_formula_structural   Hf2(NiAs)3
_chemical_formula_sum   'Hf8 Ni12 As12'
_cell_volume   482.08670241
_cell_formula_units_Z   4
loop_
 _symmetry_equiv_pos_site_id
 _symmetry_equiv_pos_as_xyz
  1  'x, y, z'
loop_
 _atom_site_type_symbol
 _atom_site_label
 _atom_site_symmetry_multiplicity
 _atom_site_fract_x
 _atom_site_fract_y
 _atom_site_fract_z
 _atom_site_occupancy
  Hf  Hf0  1  0.25000000  0.33034035  0.99483335  1
  Hf  Hf1  1  0.25000000  0.16945970  0.49493314  1
  Hf  Hf2  1  0.75000000  0.66950719  0.00507317  1
  Hf  Hf3  1  0.75000000  0.83063858  0.50516156  1
  Hf  Hf4  1  0.25000000  0.42864152  0.71094731  1
  Hf  Hf5  1  0.25000000  0.07120922  0.21076287  1
  Hf  Hf6  1  0.75000000  0.57133592  0.28904202  1
  Hf  Hf7  1  0.75000000  0.92879873  0.78915190  1
  Ni  Ni0  1  0.25000000  0.90343522  0.98496719  1
  Ni  Ni1  1  0.25000000  0.59646588  0.48500253  1
  Ni  Ni2  1  0.75000000  0.09647871  0.01487547  1
  Ni  Ni3  1  0.75000000  0.40367135  0.51516962  1
  Ni  Ni4  1  0.25000000  0.13797883  0.71577968  1
  Ni  Ni5  1  0.25000000  0.36199660  0.21574049  1
  Ni  Ni6  1  0.75000000  0.86207087  0.28424485  1
  Ni  Ni7  1  0.75000000  0.63793745  0.78422613  1
  Ni  Ni8  1  0.25000000  0.77643091  0.16555482  1
  Ni  Ni9  1  0.25000000  0.72350905  0.66551817  1
  Ni  Ni10  1  0.75000000  0.22351534  0.83436460  1
  Ni  Ni11  1  0.75000000  0.27664059  0.33465826  1
  As  As0  1  0.25000000  0.09989560  0.89668559  1
  As  As1  1  0.25000000  0.40008617  0.39683001  1
  As  As2  1  0.75000000  0.90000580  0.10323779  1
  As  As3  1  0.75000000  0.60004357  0.60326150  1
  As  As4  1  0.25000000  0.74099434  0.85624073  1
  As  As5  1  0.25000000  0.75896533  0.35633643  1
  As  As6  1  0.75000000  0.25889612  0.14375057  1
  As  As7  1  0.75000000  0.24101081  0.64367788  1
  As  As8  1  0.25000000  0.55371082  0.12435943  1
  As  As9  1  0.25000000  0.94625871  0.62448095  1
  As  As10  1  0.75000000  0.44623958  0.87558525  1
  As  As11  1  0.75000000  0.05383113  0.37554674  1
loop_
_geom_bond_atom_site_label_1
_geom_bond_atom_site_label_2
_geom_bond_distance
_geom_bond_site_symmetry_2
Hf0 Ni5 2.806084 1_556
Hf0 Ni10 2.958174 1_455
Hf0 Ni10 2.958174 1_555
Hf0 Ni2 3.050748 1_456
Hf0 Ni2 3.050748 1_556
Hf1 Ni4 2.804955 1_555
Hf1 Ni11 2.957494 1_455
Hf1 Ni11 2.957494 1_555
Hf1 Ni3 3.053899 1_455
Hf1 Ni3 3.053899 1_555
Hf2 Ni7 2.805227 1_554
Hf2 Ni8 2.958664 1_555
Hf2 Ni8 2.958664 1_655
Hf2 Ni0 3.051354 1_654
Hf2 Ni0 3.051354 1_554
Hf3 Ni6 2.805777 1_555
Hf3 Ni9 2.958002 1_655
Hf3 Ni9 2.958002 1_555
Hf3 Ni1 3.053500 1_655
Hf3 Ni1 3.053500 1_555
Hf4 Ni7 2.990646 1_555
Hf4 Ni7 2.990646 1_455
Hf4 Ni4 2.994682 1_555
Hf4 Ni9 3.090852 1_555
Hf4 Ni3 3.099583 1_555
Hf4 Ni3 3.099583 1_455
Hf4 Ni10 3.213674 1_555
Hf4 Ni10 3.213674 1_455
Hf4 Ni1 3.333423 1_555
Hf5 Ni6 2.989940 1_545
Hf5 Ni6 2.989940 1_445
Hf5 Ni5 2.996034 1_555
Hf5 Ni8 3.089710 1_545
Hf5 Ni2 3.100841 1_455
Hf5 Ni2 3.100841 1_555
Hf5 Ni11 3.219174 1_555
Hf5 Ni11 3.219174 1_455
Hf5 Ni0 3.332277 1_544
Hf6 Ni5 2.991057 1_555
Hf6 Ni5 2.991057 1_655
Hf6 Ni6 2.995417 1_555
Hf7 Ni4 2.989821 1_565
Hf7 Ni4 2.989821 1_665
Hf7 Ni7 2.996782 1_555
Hf7 Ni10 3.089097 1_565
Hf7 Ni0 3.100198 1_555
Hf7 Ni0 3.100198 1_655
Hf7 Ni9 3.216612 1_555
Hf7 Ni9 3.216612 1_655
Hf7 Ni2 3.330996 1_566
Ni6 Ni8 2.541921 1_555
Ni6 Ni8 2.541921 1_655
Ni7 Ni9 2.541553 1_555
Ni7 Ni9 2.541553 1_655
Ni10 Ni4 2.540770 1_555
Ni10 Ni4 2.540770 1_655
Ni11 Ni5 2.542345 1_555
Ni11 Ni5 2.542345 1_655
As0 Ni0 2.309714 1_545
As0 Ni4 2.315704 1_555
As0 Ni2 2.380094 1_456
As0 Ni2 2.380094 1_556
As0 Ni10 2.383165 1_455
As0 Ni10 2.383165 1_555
As0 Hf0 2.677598 1_555
As0 Hf7 2.896235 1_545
As0 Hf7 2.896235 1_445
As1 Ni1 2.308805 1_555
As1 Ni5 2.318189 1_555
As1 Ni3 2.381315 1_455
As1 Ni3 2.381315 1_555
As1 Ni11 2.381794 1_555
As1 Ni11 2.381794 1_455
As1 Hf1 2.678455 1_555
As1 Hf6 2.898289 1_455
As1 Hf6 2.898289 1_555
As2 Ni2 2.310318 1_565
As2 Ni6 2.316704 1_555
As2 Ni0 2.380734 1_654
As2 Ni0 2.380734 1_554
As2 Ni8 2.382902 1_555
As2 Ni8 2.382902 1_655
As2 Hf2 2.678189 1_555
As2 Hf5 2.896852 1_565
As2 Hf5 2.896852 1_665
As3 Ni3 2.308247 1_555
As3 Ni7 2.316295 1_555
As3 Ni1 2.380676 1_655
As3 Ni1 2.380676 1_555
As3 Ni9 2.382256 1_555
As3 Ni9 2.382256 1_655
As3 Hf3 2.678149 1_555
As3 Hf4 2.898639 1_655
As3 Hf4 2.898639 1_555
As4 Ni7 2.322312 1_455
As4 Ni7 2.322312 1_555
As4 Ni0 2.332099 1_555
As4 Ni9 2.412956 1_555
As4 Hf2 2.739990 1_456
As4 Hf2 2.739990 1_556
As4 Hf7 2.810395 1_455
As4 Hf7 2.810395 1_555
As5 Ni6 2.322716 1_455
As5 Ni6 2.322716 1_555
As5 Ni1 2.331425 1_555
As5 Ni8 2.413595 1_555
As5 Hf3 2.740693 1_555
As5 Hf3 2.740693 1_455
As5 Hf6 2.810225 1_555
As5 Hf6 2.810225 1_455
As6 Ni5 2.322396 1_655
As6 Ni5 2.322396 1_555
As6 Ni2 2.333232 1_555
As6 Ni11 2.415486 1_555
As6 Hf0 2.740604 1_654
As6 Hf0 2.740604 1_554
As6 Hf5 2.809271 1_555
As6 Hf5 2.809271 1_655
As7 Ni4 2.322420 1_555
As7 Ni4 2.322420 1_655
As7 Ni3 2.331231 1_555
As7 Ni10 2.412424 1_555
As7 Hf1 2.739659 1_655
As7 Hf1 2.739659 1_555
As7 Hf4 2.810139 1_555
As7 Hf4 2.810139 1_655
As8 Ni5 2.286463 1_555
As8 Ni8 2.352467 1_555
As8 Hf2 2.669638 1_455
As8 Hf2 2.669638 1_555
As8 Hf6 2.791068 1_455
As8 Hf6 2.791068 1_555
As8 Hf0 2.822477 1_554
As9 Ni4 2.286485 1_565
As9 Ni9 2.352073 1_555
As9 Hf3 2.669395 1_455
As9 Hf3 2.669395 1_555
As9 Hf7 2.790782 1_455
As9 Hf7 2.790782 1_555
As9 Hf1 2.820554 1_565
As10 Ni7 2.286178 1_555
As10 Ni10 2.352579 1_555
As10 Hf0 2.669840 1_555
As10 Hf0 2.669840 1_655
As10 Hf4 2.790631 1_555
As10 Hf4 2.790631 1_655
As10 Hf2 2.821335 1_556
As11 Ni6 2.286862 1_545
As11 Ni11 2.352262 1_555
As11 Hf1 2.669911 1_655
As11 Hf1 2.669911 1_555
As11 Hf5 2.791789 1_555
As11 Hf5 2.791789 1_655
As11 Hf3 2.820973 1_545
