# generated using pymatgen
data_Na2AlGe7O16
_symmetry_space_group_name_H-M   'P 1'
_cell_length_a   7.54428488
_cell_length_b   7.98643088
_cell_length_c   8.08352743
_cell_angle_alpha   114.89288257
_cell_angle_beta   100.09816466
_cell_angle_gamma   107.57735505
_symmetry_Int_Tables_number   1
_chemical_formula_structural   Na2AlGe7O16
_chemical_formula_sum   'Na2 Al1 Ge7 O16'
_cell_volume   394.57067539
_cell_formula_units_Z   1
loop_
 _symmetry_equiv_pos_site_id
 _symmetry_equiv_pos_as_xyz
  1  'x, y, z'
loop_
 _atom_site_type_symbol
 _atom_site_label
 _atom_site_symmetry_multiplicity
 _atom_site_fract_x
 _atom_site_fract_y
 _atom_site_fract_z
 _atom_site_occupancy
  Na  Na0  1  0.12672300  0.28575500  0.25727100  1
  Na  Na1  1  0.87789600  0.71808000  0.74035100  1
  Al  Al0  1  0.21009400  0.16955600  0.85269000  1
  Ge  Ge0  1  0.31048500  0.79928700  0.59122800  1
  Ge  Ge1  1  0.68832300  0.20568800  0.41568300  1
  Ge  Ge2  1  0.35525300  0.54521600  0.80006700  1
  Ge  Ge3  1  0.63512700  0.44238400  0.19296800  1
  Ge  Ge4  1  0.78723200  0.82752000  0.14669800  1
  Ge  Ge5  1  0.23021800  0.81304300  0.19123800  1
  Ge  Ge6  1  0.77324800  0.18349900  0.81173800  1
  O  O0  1  0.24323300  0.64456700  0.97143300  1
  O  O1  1  0.75834600  0.35839000  0.02849000  1
  O  O2  1  0.18586300  0.91615200  0.73006600  1
  O  O3  1  0.81700900  0.08724500  0.26938300  1
  O  O4  1  0.37740800  0.30946400  0.09686400  1
  O  O5  1  0.62137500  0.68990200  0.89828200  1
  O  O6  1  0.27169900  0.56439800  0.58941900  1
  O  O7  1  0.73131400  0.43846700  0.41062400  1
  O  O8  1  0.28494500  0.28904800  0.72192100  1
  O  O9  1  0.71447500  0.71098000  0.28323800  1
  O  O10  1  0.42889500  0.05980900  0.32781800  1
  O  O11  1  0.56976600  0.94045700  0.67121000  1
  O  O12  1  0.19582600  0.69508200  0.33552200  1
  O  O13  1  0.80505400  0.30478200  0.66913600  1
  O  O14  1  0.97813900  0.13795400  0.88395300  1
  O  O15  1  0.02205500  0.86327500  0.11271100  1
loop_
_geom_bond_atom_site_label_1
_geom_bond_atom_site_label_2
_geom_bond_distance
_geom_bond_site_symmetry_2
Na0 O6 2.414021 1_555
Na0 O3 2.440514 1_455
Na0 O4 2.478769 1_555
Na0 O14 2.602382 1_454
Na0 O15 2.849841 1_545
Na0 O12 2.910821 1_555
Na1 O7 2.403744 1_555
Na1 O2 2.421988 1_655
Na1 O5 2.504178 1_555
Na1 O15 2.596049 1_656
Na1 O14 2.836819 1_565
Na1 O13 2.953364 1_555
Al0 O8 1.755017 1_555
Al0 O14 1.769704 1_455
Al0 O2 1.770853 1_545
Al0 O4 1.776363 1_556
Ge0 O2 1.741498 1_555
Ge0 O11 1.768126 1_555
Ge0 O12 1.789808 1_555
Ge0 O6 1.802442 1_555
Ge1 O10 1.769496 1_555
Ge1 O13 1.783474 1_555
Ge1 O3 1.803180 1_555
Ge1 O7 1.807620 1_555
Ge2 O8 1.733511 1_555
Ge2 O0 1.775646 1_555
Ge2 O6 1.794939 1_555
Ge2 O5 1.806636 1_555
Ge3 O4 1.743614 1_555
Ge3 O1 1.772315 1_555
Ge3 O7 1.798744 1_555
Ge3 O9 1.801626 1_555
Ge4 O9 1.776082 1_555
Ge4 O15 1.796291 1_655
Ge4 O5 1.798973 1_554
Ge4 O3 1.801462 1_565
Ge5 O0 1.762226 1_554
Ge5 O10 1.775769 1_565
Ge5 O12 1.788476 1_555
Ge5 O15 1.809833 1_555
Ge6 O14 1.750532 1_555
Ge6 O1 1.771207 1_556
Ge6 O11 1.774032 1_545
Ge6 O13 1.794759 1_555
