# generated using pymatgen
data_Ba4Mg(SiN3)2
_symmetry_space_group_name_H-M   'P 1'
_cell_length_a   11.79488210
_cell_length_b   11.04630064
_cell_length_c   6.99150172
_cell_angle_alpha   78.12569447
_cell_angle_beta   66.41862566
_cell_angle_gamma   35.45567987
_symmetry_Int_Tables_number   1
_chemical_formula_structural   Ba4Mg(SiN3)2
_chemical_formula_sum   'Ba8 Mg2 Si4 N12'
_cell_volume   471.75610038
_cell_formula_units_Z   2
loop_
 _symmetry_equiv_pos_site_id
 _symmetry_equiv_pos_as_xyz
  1  'x, y, z'
loop_
 _atom_site_type_symbol
 _atom_site_label
 _atom_site_symmetry_multiplicity
 _atom_site_fract_x
 _atom_site_fract_y
 _atom_site_fract_z
 _atom_site_occupancy
  Ba  Ba0  1  0.85004400  0.85004400  0.14995600  1
  Ba  Ba1  1  0.14995600  0.14995600  0.85004400  1
  Ba  Ba2  1  0.39995600  0.39995600  0.10004400  1
  Ba  Ba3  1  0.10004400  0.10004400  0.39995600  1
  Ba  Ba4  1  0.66856500  0.66856500  0.33143500  1
  Ba  Ba5  1  0.33143500  0.33143500  0.66856500  1
  Ba  Ba6  1  0.58143500  0.58143500  0.91856500  1
  Ba  Ba7  1  0.91856500  0.91856500  0.58143500  1
  Mg  Mg0  1  0.50000000  0.50000000  0.50000000  1
  Mg  Mg1  1  0.75000000  0.75000000  0.75000000  1
  Si  Si0  1  0.84216900  0.15783100  0.15783100  1
  Si  Si1  1  0.15783100  0.84216900  0.84216900  1
  Si  Si2  1  0.40783100  0.09216900  0.09216900  1
  Si  Si3  1  0.09216900  0.40783100  0.40783100  1
  N  N0  1  0.78330600  0.35288700  0.22535600  1
  N  N1  1  0.63845100  0.22535600  0.35288700  1
  N  N2  1  0.22535600  0.63845100  0.78330600  1
  N  N3  1  0.35288700  0.78330600  0.63845100  1
  N  N4  1  0.46669400  0.89711300  0.02464400  1
  N  N5  1  0.61154900  0.02464400  0.89711300  1
  N  N6  1  0.02464400  0.61154900  0.46669400  1
  N  N7  1  0.89711300  0.46669400  0.61154900  1
  N  N8  1  0.88503200  0.11496800  0.88503200  1
  N  N9  1  0.11496800  0.88503200  0.11496800  1
  N  N10  1  0.36496800  0.13503200  0.36496800  1
  N  N11  1  0.13503200  0.36496800  0.13503200  1
loop_
_geom_bond_atom_site_label_1
_geom_bond_atom_site_label_2
_geom_bond_distance
_geom_bond_site_symmetry_2
Ba0 N2 2.856686 1_654
Ba0 N1 2.856686 1_565
Ba0 N5 2.914572 1_564
Ba0 N6 2.914572 1_655
Ba0 N11 3.260036 1_655
Ba0 N10 3.260036 1_565
Ba1 N3 2.856686 1_545
Ba1 N0 2.856686 1_456
Ba1 N7 2.914572 1_455
Ba1 N4 2.914572 1_546
Ba1 N11 3.260036 1_556
Ba1 N10 3.260036 1_555
Ba2 N6 2.856686 1_555
Ba2 N5 2.856686 1_554
Ba2 N2 2.914572 1_554
Ba2 N1 2.914572 1_555
Ba2 N9 3.260036 1_555
Ba2 N8 3.260036 1_554
Ba3 N7 2.856686 1_455
Ba3 N4 2.856686 1_545
Ba3 N3 2.914572 1_545
Ba3 N0 2.914572 1_455
Ba3 N8 3.260036 1_455
Ba3 N9 3.260036 1_545
Ba4 N3 2.667256 1_555
Ba4 N0 2.667256 1_555
Ba4 N7 2.951016 1_555
Ba4 N4 2.951016 1_555
Ba4 N11 3.032191 1_655
Ba4 N10 3.032191 1_565
Ba5 N2 2.667256 1_555
Ba5 N1 2.667256 1_555
Ba5 N5 2.951016 1_555
Ba5 N6 2.951016 1_555
Ba5 N11 3.032191 1_556
Ba5 N10 3.032191 1_555
Ba6 N7 2.667256 1_555
Ba6 N4 2.667256 1_556
Ba6 N3 2.951016 1_555
Ba6 N0 2.951016 1_556
Ba6 N8 3.032191 1_555
Ba6 N9 3.032191 1_556
Ba7 N6 2.667256 1_655
Ba7 N5 2.667256 1_565
Ba7 N1 2.951016 1_565
Ba7 N2 2.951016 1_655
Ba7 N8 3.032191 1_565
Ba7 N9 3.032191 1_655
Mg0 N2 2.190377 1_555
Mg0 N0 2.190377 1_555
Mg0 N3 2.190377 1_555
Mg0 N1 2.190377 1_555
Mg1 N5 2.190377 1_565
Mg1 N6 2.190377 1_655
Mg1 N4 2.190377 1_556
Mg1 N7 2.190377 1_555
N0 Si0 1.751202 1_555
N1 Si0 1.751202 1_555
N2 Si1 1.751202 1_555
N3 Si1 1.751202 1_555
N4 Si2 1.751202 1_565
N5 Si2 1.751202 1_556
N6 Si3 1.751202 1_555
N7 Si3 1.751202 1_655
N8 Si1 1.824182 1_645
N8 Si0 1.824182 1_556
N9 Si1 1.824182 1_554
N9 Si0 1.824182 1_465
N10 Si2 1.824182 1_555
N10 Si3 1.824182 1_555
N11 Si2 1.824182 1_555
N11 Si3 1.824182 1_555
