# generated using pymatgen
data_Mo15Pb3Se19
_symmetry_space_group_name_H-M   'P 1'
_cell_length_a   19.72418600
_cell_length_b   9.91630000
_cell_length_c   9.92119712
_cell_angle_alpha   61.12735109
_cell_angle_beta   90.00000000
_cell_angle_gamma   90.00000000
_symmetry_Int_Tables_number   1
_chemical_formula_structural   Mo15Pb3Se19
_chemical_formula_sum   'Mo30 Pb6 Se38'
_cell_volume   1699.28318256
_cell_formula_units_Z   2
loop_
 _symmetry_equiv_pos_site_id
 _symmetry_equiv_pos_as_xyz
  1  'x, y, z'
loop_
 _atom_site_type_symbol
 _atom_site_label
 _atom_site_symmetry_multiplicity
 _atom_site_fract_x
 _atom_site_fract_y
 _atom_site_fract_z
 _atom_site_occupancy
  Mo  Mo0  1  0.75000000  0.48405200  0.34693800  1
  Mo  Mo1  1  0.75000000  0.33887300  0.16979500  1
  Mo  Mo2  1  0.75000000  0.17049400  0.48128100  1
  Mo  Mo3  1  0.25000000  0.51594800  0.65306200  1
  Mo  Mo4  1  0.25000000  0.66112700  0.83020500  1
  Mo  Mo5  1  0.25000000  0.82950600  0.51871900  1
  Mo  Mo6  1  0.63519400  0.49422700  0.18771200  1
  Mo  Mo7  1  0.63516800  0.18998300  0.31145200  1
  Mo  Mo8  1  0.63533100  0.32127200  0.49129500  1
  Mo  Mo9  1  0.13519400  0.50577300  0.81228800  1
  Mo  Mo10  1  0.13516800  0.81001700  0.68854800  1
  Mo  Mo11  1  0.13533100  0.67872800  0.50870500  1
  Mo  Mo12  1  0.36480600  0.50577300  0.81228800  1
  Mo  Mo13  1  0.36483200  0.81001700  0.68854800  1
  Mo  Mo14  1  0.36466900  0.67872800  0.50870500  1
  Mo  Mo15  1  0.86480600  0.49422700  0.18771200  1
  Mo  Mo16  1  0.86483200  0.18998300  0.31145200  1
  Mo  Mo17  1  0.86466900  0.32127200  0.49129500  1
  Mo  Mo18  1  0.55721200  0.83445000  0.15138900  1
  Mo  Mo19  1  0.55548800  0.15240100  0.01678900  1
  Mo  Mo20  1  0.55714200  0.01304100  0.84532900  1
  Mo  Mo21  1  0.05721200  0.16555000  0.84861100  1
  Mo  Mo22  1  0.05548800  0.84759900  0.98321100  1
  Mo  Mo23  1  0.05714200  0.98695900  0.15467100  1
  Mo  Mo24  1  0.44278800  0.16555000  0.84861100  1
  Mo  Mo25  1  0.44451200  0.84759900  0.98321100  1
  Mo  Mo26  1  0.44285800  0.98695900  0.15467100  1
  Mo  Mo27  1  0.94278800  0.83445000  0.15138900  1
  Mo  Mo28  1  0.94451200  0.15240100  0.01678900  1
  Mo  Mo29  1  0.94285800  0.01304100  0.84532900  1
  Pb  Pb0  1  0.61053800  0.65497200  0.66614900  1
  Pb  Pb1  1  0.11053800  0.34502800  0.33385100  1
  Pb  Pb2  1  0.38946200  0.34502800  0.33385100  1
  Pb  Pb3  1  0.88946200  0.65497200  0.66614900  1
  Pb  Pb4  1  0.75000000  0.95634700  0.82611100  1
  Pb  Pb5  1  0.25000000  0.04365300  0.17388900  1
  Se  Se0  1  0.75000000  0.63158300  0.05000700  1
  Se  Se1  1  0.75000000  0.04099800  0.31035800  1
  Se  Se2  1  0.75000000  0.31826700  0.64314300  1
  Se  Se3  1  0.25000000  0.36841700  0.94999300  1
  Se  Se4  1  0.25000000  0.95900200  0.68964200  1
  Se  Se5  1  0.25000000  0.68173300  0.35685700  1
  Se  Se6  1  0.65915800  0.00074500  0.02819000  1
  Se  Se7  1  0.15915800  0.99925500  0.97181000  1
  Se  Se8  1  0.34084200  0.99925500  0.97181000  1
  Se  Se9  1  0.84084200  0.00074500  0.02819000  1
  Se  Se10  1  0.55466200  0.71223500  0.96876100  1
  Se  Se11  1  0.55035000  0.96869700  0.31704000  1
  Se  Se12  1  0.55149000  0.31828100  0.71783600  1
  Se  Se13  1  0.05466200  0.28776500  0.03123900  1
  Se  Se14  1  0.05035000  0.03130300  0.68296000  1
  Se  Se15  1  0.05149000  0.68171900  0.28216400  1
  Se  Se16  1  0.44533800  0.28776500  0.03123900  1
  Se  Se17  1  0.44965000  0.03130300  0.68296000  1
  Se  Se18  1  0.44851000  0.68171900  0.28216400  1
  Se  Se19  1  0.94533800  0.71223500  0.96876100  1
  Se  Se20  1  0.94965000  0.96869700  0.31704000  1
  Se  Se21  1  0.94851000  0.31828100  0.71783600  1
  Se  Se22  1  0.64179000  0.62158600  0.37360800  1
  Se  Se23  1  0.64177100  0.37071700  0.00643100  1
  Se  Se24  1  0.63380400  0.01368700  0.60865300  1
  Se  Se25  1  0.14179000  0.37841400  0.62639200  1
  Se  Se26  1  0.14177100  0.62928300  0.99356900  1
  Se  Se27  1  0.13380400  0.98631300  0.39134700  1
  Se  Se28  1  0.35821000  0.37841400  0.62639200  1
  Se  Se29  1  0.35822900  0.62928300  0.99356900  1
  Se  Se30  1  0.36619600  0.98631300  0.39134700  1
  Se  Se31  1  0.85821000  0.62158600  0.37360800  1
  Se  Se32  1  0.85822900  0.37071700  0.00643100  1
  Se  Se33  1  0.86619600  0.01368700  0.60865300  1
  Se  Se34  1  0.03281700  0.66466200  0.66875500  1
  Se  Se35  1  0.53281700  0.33533800  0.33124500  1
  Se  Se36  1  0.96718300  0.33533800  0.33124500  1
  Se  Se37  1  0.46718300  0.66466200  0.66875500  1
loop_
_geom_bond_atom_site_label_1
_geom_bond_atom_site_label_2
_geom_bond_distance
_geom_bond_site_symmetry_2
Mo0 Se0 2.580038 1_555
Mo0 Se2 2.583228 1_555
Mo0 Se22 2.614193 1_555
Mo0 Se31 2.614193 1_555
Mo0 Mo2 2.728041 1_555
Mo1 Se0 2.550712 1_555
Mo1 Se1 2.586839 1_555
Mo1 Se32 2.605649 1_555
Mo1 Se23 2.605649 1_555
Mo1 Mo2 2.711987 1_555
Mo2 Se1 2.574394 1_555
Mo2 Se2 2.645489 1_555
Mo2 Se33 2.714739 1_555
Mo2 Se24 2.714739 1_555
Mo2 Mo8 2.739408 1_555
Mo2 Mo7 2.773423 1_555
Mo2 Pb4 3.032756 1_545
Mo3 Se3 2.580038 1_555
Mo3 Se5 2.583228 1_555
Mo3 Se25 2.614193 1_555
Mo3 Se28 2.614193 1_555
Mo3 Mo5 2.728041 1_555
Mo4 Se3 2.550712 1_555
Mo4 Se4 2.586839 1_555
Mo4 Se29 2.605649 1_555
Mo4 Se26 2.605649 1_555
Mo4 Mo5 2.711987 1_555
Mo5 Se4 2.574394 1_555
Mo5 Se5 2.645489 1_555
Mo5 Se30 2.714739 1_555
Mo5 Se27 2.714739 1_555
Mo5 Pb5 3.032756 1_565
Mo6 Se35 2.533994 1_555
Mo6 Se23 2.622753 1_555
Mo6 Se0 2.655635 1_555
Mo6 Se22 2.694960 1_555
Mo6 Se10 2.716653 1_554
Mo7 Se35 2.542638 1_555
Mo7 Se24 2.602507 1_555
Mo7 Se23 2.673769 1_555
Mo7 Se1 2.707090 1_555
Mo7 Se11 2.738526 1_545
Mo8 Se35 2.532875 1_555
Mo8 Se22 2.624895 1_555
Mo8 Se24 2.688883 1_555
Mo8 Se2 2.709731 1_555
Mo8 Se12 2.778980 1_555
Mo9 Se34 2.533994 1_555
Mo9 Se26 2.622753 1_555
Mo9 Se3 2.655635 1_555
Mo9 Se25 2.694960 1_555
Mo9 Se13 2.716653 1_556
Mo10 Se34 2.542638 1_555
Mo10 Se27 2.602507 1_555
Mo10 Se26 2.673769 1_555
Mo10 Se4 2.707090 1_555
Mo10 Se14 2.738526 1_565
Mo10 Mo5 2.773423 1_555
Mo11 Se34 2.532875 1_555
Mo11 Se25 2.624895 1_555
Mo11 Se27 2.688883 1_555
Mo11 Se5 2.709731 1_555
Mo11 Mo5 2.739408 1_555
Mo11 Se15 2.778980 1_555
Mo12 Se37 2.533994 1_555
Mo12 Se29 2.622753 1_555
Mo12 Se3 2.655635 1_555
Mo12 Se28 2.694960 1_555
Mo12 Se16 2.716653 1_556
Mo13 Se37 2.542638 1_555
Mo13 Se30 2.602507 1_555
Mo13 Se29 2.673769 1_555
Mo13 Se4 2.707090 1_555
Mo13 Se17 2.738526 1_565
Mo13 Mo5 2.773423 1_555
Mo14 Se37 2.532875 1_555
Mo14 Se28 2.624895 1_555
Mo14 Se30 2.688883 1_555
Mo14 Se5 2.709731 1_555
Mo14 Mo5 2.739408 1_555
Mo14 Se18 2.778980 1_555
Mo15 Se36 2.533994 1_555
Mo15 Se32 2.622753 1_555
Mo15 Se0 2.655635 1_555
Mo15 Se31 2.694960 1_555
Mo15 Se19 2.716653 1_554
Mo16 Se36 2.542638 1_555
Mo16 Se33 2.602507 1_555
Mo16 Se32 2.673769 1_555
Mo16 Se1 2.707090 1_555
Mo16 Se20 2.738526 1_545
Mo16 Mo2 2.773423 1_555
Mo17 Se36 2.532875 1_555
Mo17 Se31 2.624895 1_555
Mo17 Se33 2.688883 1_555
Mo17 Se2 2.709731 1_555
Mo17 Mo2 2.739408 1_555
Mo17 Se21 2.778980 1_555
Mo18 Se6 2.511990 1_565
Mo18 Se11 2.569882 1_555
Mo18 Se18 2.583886 1_555
Mo18 Se10 2.621990 1_554
Mo18 Se22 2.757713 1_555
Mo19 Se6 2.508260 1_555
Mo19 Se16 2.593928 1_555
Mo19 Se12 2.607179 1_554
Mo19 Se11 2.638519 1_545
Mo19 Se23 2.716391 1_555
Mo20 Se17 2.615582 1_555
Mo20 Se10 2.621446 1_545
Mo20 Se12 2.660223 1_555
Mo20 Se6 2.672348 1_556
Mo20 Se24 2.790262 1_555
Mo21 Se7 2.511990 1_545
Mo21 Se14 2.569882 1_555
Mo21 Se21 2.583886 1_455
Mo21 Se13 2.621990 1_556
Mo21 Se25 2.757713 1_555
Mo22 Se7 2.508260 1_555
Mo22 Se19 2.593928 1_455
Mo22 Se15 2.607179 1_556
Mo22 Se14 2.638519 1_565
Mo22 Se26 2.716391 1_555
Mo23 Se20 2.615582 1_455
Mo23 Se13 2.621446 1_565
Mo23 Se15 2.660223 1_555
Mo23 Se7 2.672348 1_554
Mo23 Se27 2.790262 1_555
Mo24 Se8 2.511990 1_545
Mo24 Se17 2.569882 1_555
Mo24 Se12 2.583886 1_555
Mo24 Se16 2.621990 1_556
Mo24 Se28 2.757713 1_555
Mo25 Se8 2.508260 1_555
Mo25 Se10 2.593928 1_555
Mo25 Se18 2.607179 1_556
Mo25 Se17 2.638519 1_565
Mo25 Se29 2.716391 1_555
Mo26 Se11 2.615582 1_555
Mo26 Se16 2.621446 1_565
Mo26 Se18 2.660223 1_555
Mo26 Se8 2.672348 1_554
Mo26 Se30 2.790262 1_555
Mo27 Se9 2.511990 1_565
Mo27 Se20 2.569882 1_555
Mo27 Se15 2.583886 1_655
Mo27 Se19 2.621990 1_554
Mo27 Se31 2.757713 1_555
Mo28 Se9 2.508260 1_555
Mo28 Se13 2.593928 1_655
Mo28 Se21 2.607179 1_554
Mo28 Se20 2.638519 1_545
Mo28 Se32 2.716391 1_555
Mo29 Se14 2.615582 1_655
Mo29 Se19 2.621446 1_545
Mo29 Se21 2.660223 1_555
Mo29 Se9 2.672348 1_556
Mo29 Se33 2.790262 1_555
Pb0 Se37 2.829735 1_555
Pb0 Se22 3.137068 1_555
Pb0 Se23 3.245351 1_556
Pb0 Se12 3.333635 1_555
Pb0 Se24 3.351056 1_565
Pb1 Se36 2.829735 1_455
Pb1 Se25 3.137068 1_555
Pb1 Se26 3.245351 1_554
Pb1 Se15 3.333635 1_555
Pb1 Se27 3.351056 1_545
Pb2 Se35 2.829735 1_555
Pb2 Se28 3.137068 1_555
Pb2 Se29 3.245351 1_554
Pb2 Se18 3.333635 1_555
Pb2 Se30 3.351056 1_545
Pb3 Se34 2.829735 1_655
Pb3 Se31 3.137068 1_555
Pb3 Se32 3.245351 1_556
Pb3 Se21 3.333635 1_555
Pb3 Se33 3.351056 1_565
Pb4 Se6 2.876844 1_566
Pb4 Se9 2.876844 1_566
Pb4 Se0 2.897775 1_556
Pb4 Se33 3.007634 1_565
Pb4 Se24 3.007634 1_565
Pb4 Se2 3.143866 1_565
Pb5 Se8 2.876844 1_544
Pb5 Se7 2.876844 1_544
Pb5 Se3 2.897775 1_554
Pb5 Se30 3.007634 1_545
Pb5 Se27 3.007634 1_545
Pb5 Se5 3.143866 1_545
