# generated using pymatgen
data_BaLaTiCuO6
_symmetry_space_group_name_H-M   'P 1'
_cell_length_a   5.61997722
_cell_length_b   5.61997722
_cell_length_c   5.61997722
_cell_angle_alpha   60.00000000
_cell_angle_beta   60.00000000
_cell_angle_gamma   60.00000000
_symmetry_Int_Tables_number   1
_chemical_formula_structural   BaLaTiCuO6
_chemical_formula_sum   'Ba1 La1 Ti1 Cu1 O6'
_cell_volume   125.51298753
_cell_formula_units_Z   1
loop_
 _symmetry_equiv_pos_site_id
 _symmetry_equiv_pos_as_xyz
  1  'x, y, z'
loop_
 _atom_site_type_symbol
 _atom_site_label
 _atom_site_symmetry_multiplicity
 _atom_site_fract_x
 _atom_site_fract_y
 _atom_site_fract_z
 _atom_site_occupancy
  Ba  Ba0  1  0.00000000  0.00000000  0.00000000  1
  La  La0  1  0.50000000  0.50000000  0.50000000  1
  Ti  Ti0  1  0.25000000  0.25000000  0.25000000  1
  Cu  Cu0  1  0.75000000  0.75000000  0.75000000  1
  O  O0  1  0.00302800  0.49697200  0.49697200  1
  O  O1  1  0.49697200  0.00302800  0.00302800  1
  O  O2  1  0.00302800  0.49697200  0.00302800  1
  O  O3  1  0.49697200  0.00302800  0.49697200  1
  O  O4  1  0.49697200  0.49697200  0.00302800  1
  O  O5  1  0.00302800  0.00302800  0.49697200  1
loop_
_geom_bond_atom_site_label_1
_geom_bond_atom_site_label_2
_geom_bond_distance
_geom_bond_site_symmetry_2
Ba0 O2 2.810092 1_555
Ba0 O1 2.810092 1_555
Ba0 O5 2.810092 1_555
Ba0 O4 2.810092 1_545
Ba0 O3 2.810092 1_455
Ba0 O0 2.810092 1_554
Ba0 O3 2.810092 1_554
Ba0 O4 2.810092 1_455
Ba0 O0 2.810092 1_545
Ba0 O5 2.810092 1_554
Ba0 O2 2.810092 1_545
Ba0 O1 2.810092 1_455
La0 O4 2.810092 1_556
La0 O3 2.810092 1_565
La0 O0 2.810092 1_655
La0 O5 2.810092 1_655
La0 O1 2.810092 1_556
La0 O2 2.810092 1_655
La0 O2 2.810092 1_556
La0 O1 2.810092 1_565
La0 O5 2.810092 1_565
La0 O4 2.810092 1_555
La0 O3 2.810092 1_555
La0 O0 2.810092 1_555
Cu0 O1 2.011028 1_566
Cu0 O2 2.011028 1_656
Cu0 O5 2.011028 1_665
Cu0 O3 2.011028 1_565
Cu0 O0 2.011028 1_655
Cu0 O4 2.011028 1_556
O0 Ti0 1.962896 1_555
O1 Ti0 1.962896 1_555
O2 Ti0 1.962896 1_555
O3 Ti0 1.962896 1_555
O4 Ti0 1.962896 1_555
O5 Ti0 1.962896 1_555
