# generated using pymatgen
data_U3NF13
_symmetry_space_group_name_H-M   'P 1'
_cell_length_a   7.31470000
_cell_length_b   7.99638000
_cell_length_c   8.43714800
_cell_angle_alpha   90.00000000
_cell_angle_beta   90.00000000
_cell_angle_gamma   90.00000000
_symmetry_Int_Tables_number   1
_chemical_formula_structural   U3NF13
_chemical_formula_sum   'U6 N2 F26'
_cell_volume   493.49824276
_cell_formula_units_Z   2
loop_
 _symmetry_equiv_pos_site_id
 _symmetry_equiv_pos_as_xyz
  1  'x, y, z'
loop_
 _atom_site_type_symbol
 _atom_site_label
 _atom_site_symmetry_multiplicity
 _atom_site_fract_x
 _atom_site_fract_y
 _atom_site_fract_z
 _atom_site_occupancy
  U  U0  1  0.88594800  0.00000000  0.50255400  1
  U  U1  1  0.11405200  0.00000000  0.00255400  1
  U  U2  1  0.38994900  0.25686800  0.65931400  1
  U  U3  1  0.38994900  0.74313200  0.65931400  1
  U  U4  1  0.61005100  0.74313200  0.15931400  1
  U  U5  1  0.61005100  0.25686800  0.15931400  1
  N  N0  1  0.89392900  0.50000000  0.79688700  1
  N  N1  1  0.10607100  0.50000000  0.29688700  1
  F  F0  1  0.55736700  0.50000000  0.65818700  1
  F  F1  1  0.44263300  0.50000000  0.15818700  1
  F  F2  1  0.54495200  0.30071100  0.91024100  1
  F  F3  1  0.54495200  0.69928900  0.91024100  1
  F  F4  1  0.45504800  0.69928900  0.41024100  1
  F  F5  1  0.45504800  0.30071100  0.41024100  1
  F  F6  1  0.81277000  0.25152100  0.35761800  1
  F  F7  1  0.81277000  0.74847900  0.35761800  1
  F  F8  1  0.18723000  0.74847900  0.85761800  1
  F  F9  1  0.18723000  0.25152100  0.85761800  1
  F  F10  1  0.88913700  0.18698200  0.04588500  1
  F  F11  1  0.88913700  0.81301800  0.04588500  1
  F  F12  1  0.11086300  0.81301800  0.54588500  1
  F  F13  1  0.11086300  0.18698200  0.54588500  1
  F  F14  1  0.68592100  0.16661000  0.63879100  1
  F  F15  1  0.68592100  0.83339000  0.63879100  1
  F  F16  1  0.31407900  0.83339000  0.13879100  1
  F  F17  1  0.31407900  0.16661000  0.13879100  1
  F  F18  1  0.77072600  0.50000000  0.13849400  1
  F  F19  1  0.22927400  0.50000000  0.63849400  1
  F  F20  1  0.96531000  0.00000000  0.77272400  1
  F  F21  1  0.03469000  0.00000000  0.27272400  1
  F  F22  1  0.63113000  0.00000000  0.32512200  1
  F  F23  1  0.36887000  0.00000000  0.82512200  1
  F  F24  1  0.60589800  0.00000000  0.04293600  1
  F  F25  1  0.39410200  0.00000000  0.54293600  1
loop_
_geom_bond_atom_site_label_1
_geom_bond_atom_site_label_2
_geom_bond_distance
_geom_bond_site_symmetry_2
F0 U2 2.297735 1_555
F0 U3 2.297735 1_555
F1 U4 2.297735 1_555
F1 U5 2.297735 1_555
F2 U5 2.183075 1_556
F2 U2 2.427048 1_555
F3 U4 2.183075 1_556
F3 U3 2.427048 1_555
F4 U3 2.183075 1_555
F4 U4 2.427048 1_555
F5 U2 2.183075 1_555
F5 U5 2.427048 1_555
F6 U5 2.236055 1_555
F6 U0 2.413924 1_555
F7 U4 2.236055 1_555
F7 U0 2.413924 1_565
F8 U3 2.236055 1_555
F8 U1 2.413924 1_566
F9 U2 2.236055 1_555
F9 U1 2.413924 1_556
F10 U1 2.252965 1_655
F10 U5 2.322847 1_555
F11 U1 2.252965 1_665
F11 U4 2.322847 1_555
F12 U0 2.252965 1_465
F12 U3 2.322847 1_555
F13 U0 2.252965 1_455
F13 U2 2.322847 1_555
F14 U0 2.288443 1_555
F14 U2 2.288642 1_555
F15 U0 2.288443 1_565
F15 U3 2.288642 1_555
F16 U1 2.288443 1_565
F16 U4 2.288642 1_555
F17 U1 2.288443 1_555
F17 U5 2.288642 1_555
F18 U4 2.278592 1_555
F18 U5 2.278592 1_555
F19 U2 2.278592 1_555
F19 U3 2.278592 1_555
F20 U1 2.223488 1_656
F20 U0 2.352222 1_555
F21 U0 2.223488 1_455
F21 U1 2.352222 1_555
F22 U0 2.390660 1_555
F22 U5 2.489940 1_555
F22 U4 2.489940 1_545
F23 U1 2.390660 1_556
F23 U2 2.489940 1_555
F23 U3 2.489940 1_545
F24 U4 2.276845 1_545
F24 U5 2.276845 1_555
F25 U3 2.276845 1_545
F25 U2 2.276845 1_555
