# generated using pymatgen
data_LuB2C
_symmetry_space_group_name_H-M   'P 1'
_cell_length_a   6.69612800
_cell_length_b   6.69612800
_cell_length_c   3.67836500
_cell_angle_alpha   90.00000000
_cell_angle_beta   90.00000000
_cell_angle_gamma   90.00000000
_symmetry_Int_Tables_number   1
_chemical_formula_structural   LuB2C
_chemical_formula_sum   'Lu4 B8 C4'
_cell_volume   164.93100877
_cell_formula_units_Z   4
loop_
 _symmetry_equiv_pos_site_id
 _symmetry_equiv_pos_as_xyz
  1  'x, y, z'
loop_
 _atom_site_type_symbol
 _atom_site_label
 _atom_site_symmetry_multiplicity
 _atom_site_fract_x
 _atom_site_fract_y
 _atom_site_fract_z
 _atom_site_occupancy
  Lu  Lu0  1  0.30320400  0.80320400  0.50000000  1
  Lu  Lu1  1  0.69679600  0.19679600  0.50000000  1
  Lu  Lu2  1  0.80320400  0.69679600  0.50000000  1
  Lu  Lu3  1  0.19679600  0.30320400  0.50000000  1
  B  B0  1  0.46799600  0.31900700  0.00000000  1
  B  B1  1  0.53200400  0.68099300  0.00000000  1
  B  B2  1  0.96799600  0.18099300  0.00000000  1
  B  B3  1  0.03200400  0.81900700  0.00000000  1
  B  B4  1  0.68099300  0.46799600  0.00000000  1
  B  B5  1  0.31900700  0.53200400  0.00000000  1
  B  B6  1  0.81900700  0.96799600  0.00000000  1
  B  B7  1  0.18099300  0.03200400  0.00000000  1
  C  C0  1  0.41654000  0.08346000  0.00000000  1
  C  C1  1  0.58346000  0.91654000  0.00000000  1
  C  C2  1  0.91654000  0.41654000  0.00000000  1
  C  C3  1  0.08346000  0.58346000  0.00000000  1
loop_
_geom_bond_atom_site_label_1
_geom_bond_atom_site_label_2
_geom_bond_distance
_geom_bond_site_symmetry_2
B0 C0 1.614449 1_555
B0 Lu1 2.529728 1_555
B0 Lu1 2.529728 1_554
B0 Lu3 2.586815 1_554
B0 Lu3 2.586815 1_555
B1 C1 1.614449 1_555
B1 Lu0 2.529728 1_554
B1 Lu0 2.529728 1_555
B1 Lu2 2.586815 1_554
B1 Lu2 2.586815 1_555
B2 C2 1.614449 1_555
B2 Lu3 2.529728 1_655
B2 Lu3 2.529728 1_654
B2 Lu1 2.586815 1_555
B2 Lu1 2.586815 1_554
B3 C3 1.614449 1_555
B3 Lu2 2.529728 1_455
B3 Lu2 2.529728 1_454
B3 Lu0 2.586815 1_554
B3 Lu0 2.586815 1_555
B4 C2 1.614449 1_555
B4 Lu2 2.529728 1_554
B4 Lu2 2.529728 1_555
B4 Lu1 2.586815 1_555
B4 Lu1 2.586815 1_554
B5 C3 1.614449 1_555
B5 Lu3 2.529728 1_555
B5 Lu3 2.529728 1_554
B5 Lu0 2.586815 1_554
B5 Lu0 2.586815 1_555
B6 C1 1.614449 1_555
B6 Lu1 2.529728 1_565
B6 Lu1 2.529728 1_564
B6 Lu2 2.586815 1_554
B6 Lu2 2.586815 1_555
B7 C0 1.614449 1_555
B7 Lu0 2.529728 1_545
B7 Lu0 2.529728 1_544
B7 Lu3 2.586815 1_554
B7 Lu3 2.586815 1_555
C0 Lu0 2.735010 1_545
C0 Lu0 2.735010 1_544
C0 Lu1 2.735010 1_555
C0 Lu1 2.735010 1_554
C0 Lu3 2.777198 1_555
C0 Lu3 2.777198 1_554
C1 Lu0 2.735010 1_555
C1 Lu1 2.735010 1_565
C1 Lu1 2.735010 1_564
C1 Lu0 2.735010 1_554
C1 Lu2 2.777198 1_554
C1 Lu2 2.777198 1_555
C2 Lu3 2.735010 1_654
C2 Lu3 2.735010 1_655
C2 Lu2 2.735010 1_555
C2 Lu2 2.735010 1_554
C2 Lu1 2.777198 1_555
C2 Lu1 2.777198 1_554
C3 Lu3 2.735010 1_555
C3 Lu2 2.735010 1_455
C3 Lu2 2.735010 1_454
C3 Lu3 2.735010 1_554
C3 Lu0 2.777198 1_555
C3 Lu0 2.777198 1_554
