# generated using pymatgen
data_Mg6CuMo
_symmetry_space_group_name_H-M   'P 1'
_cell_length_a   4.76925600
_cell_length_b   6.08495600
_cell_length_c   10.47908100
_cell_angle_alpha   90.00000000
_cell_angle_beta   90.00000000
_cell_angle_gamma   90.00000000
_symmetry_Int_Tables_number   1
_chemical_formula_structural   Mg6CuMo
_chemical_formula_sum   'Mg12 Cu2 Mo2'
_cell_volume   304.11040129
_cell_formula_units_Z   2
loop_
 _symmetry_equiv_pos_site_id
 _symmetry_equiv_pos_as_xyz
  1  'x, y, z'
loop_
 _atom_site_type_symbol
 _atom_site_label
 _atom_site_symmetry_multiplicity
 _atom_site_fract_x
 _atom_site_fract_y
 _atom_site_fract_z
 _atom_site_occupancy
  Mg  Mg0  1  0.00000000  0.25279000  0.58212800  1
  Mg  Mg1  1  0.00000000  0.74721000  0.58212800  1
  Mg  Mg2  1  0.50000000  0.24641100  0.41078700  1
  Mg  Mg3  1  0.50000000  0.75358900  0.41078700  1
  Mg  Mg4  1  0.50000000  0.00000000  0.67356500  1
  Mg  Mg5  1  0.50000000  0.00000000  0.17475300  1
  Mg  Mg6  1  0.00000000  0.75279000  0.08212800  1
  Mg  Mg7  1  0.00000000  0.24721000  0.08212800  1
  Mg  Mg8  1  0.50000000  0.74641100  0.91078700  1
  Mg  Mg9  1  0.50000000  0.25358900  0.91078700  1
  Mg  Mg10  1  0.50000000  0.50000000  0.17356500  1
  Mg  Mg11  1  0.50000000  0.50000000  0.67475300  1
  Cu  Cu0  1  0.00000000  0.00000000  0.83376600  1
  Cu  Cu1  1  0.00000000  0.50000000  0.33376600  1
  Mo  Mo0  1  0.00000000  0.00000000  0.33209000  1
  Mo  Mo1  1  0.00000000  0.50000000  0.83209000  1
loop_
_geom_bond_atom_site_label_1
_geom_bond_atom_site_label_2
_geom_bond_distance
_geom_bond_site_symmetry_2
Mg0 Mg11 2.981840 1_555
Mg0 Mg11 2.981840 1_455
Mg0 Mg2 2.985258 1_455
Mg0 Mg2 2.985258 1_555
Mg0 Mg4 2.995106 1_455
Mg0 Mg4 2.995106 1_555
Mg0 Mg1 3.008524 1_555
Mg0 Mo1 3.020582 1_555
Mg0 Mo0 3.038320 1_555
Mg0 Mg1 3.076432 1_545
Mg1 Mg11 2.981840 1_555
Mg1 Mg11 2.981840 1_455
Mg1 Mg3 2.985258 1_555
Mg1 Mg3 2.985258 1_455
Mg1 Mg4 2.995106 1_465
Mg1 Mg4 2.995106 1_565
Mg1 Mo1 3.020582 1_555
Mg1 Mo0 3.038320 1_565
Mg2 Mg5 2.892405 1_555
Mg2 Mo0 2.935087 1_655
Mg2 Mo0 2.935087 1_555
Mg2 Mg3 2.998800 1_545
Mg2 Mg3 3.086156 1_555
Mg2 Mg4 3.135428 1_555
Mg3 Mg5 2.892405 1_565
Mg3 Mo0 2.935087 1_665
Mg3 Mo0 2.935087 1_565
Mg3 Mg4 3.135428 1_565
Mg4 Mg9 2.925856 1_555
Mg4 Mg8 2.925856 1_545
Mg5 Mo0 2.899106 1_655
Mg5 Mo0 2.899106 1_555
Mg5 Mg6 2.981840 1_645
Mg5 Mg6 2.981840 1_545
Mg5 Mg7 2.981840 1_555
Mg5 Mg7 2.981840 1_655
Mg5 Mg9 3.167415 1_554
Mg5 Mg8 3.167415 1_544
Mg6 Mg8 2.985258 1_554
Mg6 Mg8 2.985258 1_454
Mg6 Mg7 3.008524 1_565
Mg6 Mo0 3.020582 1_565
Mg6 Mo1 3.038320 1_554
Mg6 Mg7 3.076432 1_555
Mg7 Mg9 2.985258 1_554
Mg7 Mg9 2.985258 1_454
Mg7 Mo0 3.020582 1_555
Mg7 Mo1 3.038320 1_554
Mg8 Mo1 2.935087 1_655
Mg8 Mo1 2.935087 1_555
Mg8 Mg9 2.998800 1_555
Mg8 Mg9 3.086156 1_565
Mg9 Mo1 2.935087 1_655
Mg9 Mo1 2.935087 1_555
Mg10 Mg2 2.925856 1_555
Mg10 Mg3 2.925856 1_555
Mg10 Mg6 2.995106 1_555
Mg10 Mg6 2.995106 1_655
Mg10 Mg7 2.995106 1_555
Mg10 Mg7 2.995106 1_655
Mg10 Mg5 3.042503 1_565
Mg10 Mg5 3.042503 1_555
Mg10 Mg8 3.135428 1_554
Mg10 Mg9 3.135428 1_554
Mg11 Mg8 2.892405 1_555
Mg11 Mg9 2.892405 1_555
Mg11 Mo1 2.899106 1_655
Mg11 Mo1 2.899106 1_555
Mg11 Mg4 3.042503 1_555
Mg11 Mg4 3.042503 1_565
Mg11 Mg3 3.167415 1_555
Mg11 Mg2 3.167415 1_555
Cu0 Mg4 2.916279 1_455
Cu0 Mg4 2.916279 1_555
Cu0 Mg9 2.952789 1_455
Cu0 Mg9 2.952789 1_555
Cu0 Mg8 2.952789 1_445
Cu0 Mg8 2.952789 1_545
Cu0 Mg6 3.006054 1_546
Cu0 Mg7 3.006054 1_556
Cu0 Mo1 3.042529 1_545
Cu0 Mo1 3.042529 1_555
Cu0 Mg1 3.052791 1_545
Cu0 Mg0 3.052791 1_555
Cu1 Mg10 2.916279 1_455
Cu1 Mg10 2.916279 1_555
Cu1 Mg3 2.952789 1_455
Cu1 Mg3 2.952789 1_555
Cu1 Mg2 2.952789 1_455
Cu1 Mg2 2.952789 1_555
Cu1 Mg0 3.006054 1_555
Cu1 Mg1 3.006054 1_555
Cu1 Mo0 3.042529 1_565
Cu1 Mo0 3.042529 1_555
Cu1 Mg7 3.052791 1_555
Cu1 Mg6 3.052791 1_555
