# generated using pymatgen
data_Ca3CoRhO6
_symmetry_space_group_name_H-M   'P 1'
_cell_length_a   6.49125616
_cell_length_b   9.03354119
_cell_length_c   9.24381459
_cell_angle_alpha   90.00167440
_cell_angle_beta   89.96273286
_cell_angle_gamma   91.65815669
_symmetry_Int_Tables_number   1
_chemical_formula_structural   Ca3CoRhO6
_chemical_formula_sum   'Ca12 Co4 Rh4 O24'
_cell_volume   541.82122744
_cell_formula_units_Z   4
loop_
 _symmetry_equiv_pos_site_id
 _symmetry_equiv_pos_as_xyz
  1  'x, y, z'
loop_
 _atom_site_type_symbol
 _atom_site_label
 _atom_site_symmetry_multiplicity
 _atom_site_fract_x
 _atom_site_fract_y
 _atom_site_fract_z
 _atom_site_occupancy
  Ca  Ca0  1  0.61176029  0.56663005  0.68012709  1
  Ca  Ca1  1  0.61357701  0.06960214  0.18362450  1
  Ca  Ca2  1  0.88778885  0.43119709  0.18297010  1
  Ca  Ca3  1  0.88648022  0.93308162  0.68056107  1
  Ca  Ca4  1  0.24916543  0.75027906  0.13824380  1
  Ca  Ca5  1  0.24992286  0.24977139  0.63473331  1
  Ca  Ca6  1  0.11183687  0.56655305  0.81948054  1
  Ca  Ca7  1  0.11346181  0.06979594  0.31652362  1
  Ca  Ca8  1  0.75078138  0.24969339  0.86513059  1
  Ca  Ca9  1  0.74880530  0.75018983  0.36175678  1
  Ca  Ca10  1  0.38766149  0.43154832  0.31774404  1
  Ca  Ca11  1  0.38689470  0.93283238  0.81891607  1
  Co  Co0  1  0.24597808  0.75194435  0.50325709  1
  Co  Co1  1  0.74683298  0.75155326  0.99653467  1
  Co  Co2  1  0.25174487  0.24918255  0.99295651  1
  Co  Co3  1  0.75013938  0.24994583  0.50713975  1
  Rh  Rh0  1  0.50031144  0.49954153  0.00090638  1
  Rh  Rh1  1  0.50010083  0.99996226  0.49900297  1
  Rh  Rh2  1  0.00005807  0.00004368  0.00067384  1
  Rh  Rh3  1  0.00058661  0.49964676  0.49947409  1
  O  O0  1  0.54975297  0.30982444  0.10534153  1
  O  O1  1  0.54404056  0.80649512  0.60130607  1
  O  O2  1  0.20401242  0.47684409  0.06668549  1
  O  O3  1  0.20442913  0.97424542  0.56603308  1
  O  O4  1  0.40879542  0.37188883  0.83025549  1
  O  O5  1  0.41167753  0.87561982  0.32891600  1
  O  O6  1  0.04397936  0.80662303  0.89852354  1
  O  O7  1  0.04884905  0.30902167  0.39541524  1
  O  O8  1  0.90898541  0.37283646  0.67058096  1
  O  O9  1  0.91209901  0.87557378  0.17093234  1
  O  O10  1  0.70386699  0.47660552  0.43306471  1
  O  O11  1  0.70400239  0.97407095  0.93410191  1
  O  O12  1  0.45555415  0.69164198  0.89699434  1
  O  O13  1  0.45223616  0.19184151  0.39632076  1
  O  O14  1  0.79475745  0.52266692  0.93347734  1
  O  O15  1  0.79710486  0.02521368  0.43339213  1
  O  O16  1  0.59177298  0.62718954  0.16859463  1
  O  O17  1  0.58882687  0.12475299  0.67180235  1
  O  O18  1  0.95238247  0.19191034  0.10350906  1
  O  O19  1  0.95615988  0.69219298  0.60308261  1
  O  O20  1  0.09236254  0.62697902  0.33140256  1
  O  O21  1  0.08761712  0.12443873  0.82745414  1
  O  O22  1  0.29528645  0.52227840  0.56718325  1
  O  O23  1  0.29756037  0.02625028  0.06587363  1
loop_
_geom_bond_atom_site_label_1
_geom_bond_atom_site_label_2
_geom_bond_distance
_geom_bond_site_symmetry_2
Ca0 O22 2.329347 1_555
Ca0 O1 2.339849 1_555
Ca0 O10 2.502163 1_555
Ca0 O12 2.526994 1_555
Ca0 O4 2.572955 1_555
Ca0 O19 2.577375 1_555
Ca0 O8 2.643903 1_555
Ca0 O14 2.661646 1_555
Ca1 O0 2.336012 1_555
Ca1 O23 2.345748 1_555
Ca1 O13 2.499199 1_555
Ca1 O11 2.537095 1_544
Ca1 O5 2.541074 1_545
Ca1 O18 2.542303 1_555
Ca1 O15 2.634750 1_555
Ca1 O9 2.652772 1_545
Ca2 O18 2.332345 1_555
Ca2 O2 2.342472 1_655
Ca2 O7 2.497446 1_655
Ca2 O0 2.528774 1_555
Ca2 O14 2.529251 1_554
Ca2 O20 2.576879 1_655
Ca2 O10 2.638725 1_555
Ca2 O16 2.653639 1_555
Ca3 O3 2.339117 1_655
Ca3 O19 2.347186 1_555
Ca3 O15 2.505851 1_565
Ca3 O21 2.531434 1_665
Ca3 O6 2.545601 1_655
Ca3 O1 2.576910 1_555
Ca3 O17 2.632784 1_565
Ca3 O11 2.656078 1_555
Ca4 O20 2.323119 1_555
Ca4 O5 2.331220 1_555
Ca4 O9 2.510402 1_455
Ca4 O16 2.530814 1_555
Ca4 O2 2.565743 1_555
Ca4 O23 2.591477 1_565
Ca4 O6 2.643208 1_554
Ca4 O12 2.661906 1_554
Ca5 O4 2.341698 1_555
Ca5 O21 2.343966 1_555
Ca5 O17 2.525326 1_555
Ca5 O8 2.526854 1_455
Ca5 O22 2.548430 1_555
Ca5 O3 2.577423 1_545
Ca5 O13 2.625145 1_555
Ca5 O7 2.632152 1_555
Ca6 O14 2.335367 1_455
Ca6 O6 2.342187 1_555
Ca6 O2 2.503286 1_556
Ca6 O19 2.525839 1_455
Ca6 O8 2.561155 1_455
Ca6 O12 2.573807 1_555
Ca6 O4 2.648485 1_555
Ca6 O22 2.653491 1_555
Ca7 O7 2.330205 1_555
Ca7 O15 2.344276 1_455
Ca7 O18 2.501392 1_455
Ca7 O3 2.538637 1_545
Ca7 O13 2.541117 1_555
Ca7 O9 2.543124 1_445
Ca7 O23 2.640966 1_555
Ca7 O5 2.652187 1_545
Ca8 O8 2.336206 1_555
Ca8 O17 2.346576 1_555
Ca8 O21 2.514848 1_655
Ca8 O4 2.528485 1_555
Ca8 O14 2.553585 1_555
Ca8 O11 2.579556 1_545
Ca8 O18 2.623718 1_556
Ca8 O0 2.639232 1_556
Ca9 O16 2.323481 1_555
Ca9 O9 2.333707 1_555
Ca9 O5 2.511857 1_555
Ca9 O20 2.536496 1_655
Ca9 O10 2.566261 1_555
Ca9 O15 2.581534 1_565
Ca9 O1 2.638940 1_555
Ca9 O19 2.665954 1_555
Ca10 O13 2.333510 1_555
Ca10 O10 2.338707 1_555
Ca10 O0 2.497061 1_555
Ca10 O22 2.524764 1_555
Ca10 O7 2.536675 1_555
Ca10 O16 2.577212 1_555
Ca10 O20 2.646236 1_555
Ca10 O2 2.646937 1_555
Ca11 O11 2.338388 1_555
Ca11 O12 2.350200 1_555
Ca11 O23 2.507236 1_566
Ca11 O17 2.537633 1_565
Ca11 O1 2.540462 1_555
Ca11 O6 2.578234 1_555
Ca11 O21 2.640192 1_565
Ca11 O3 2.652644 1_555
Co0 O3 2.115013 1_555
Co0 O19 2.149671 1_455
Co0 O20 2.174655 1_555
Co0 O1 2.180557 1_555
Co0 O22 2.189692 1_555
Co0 O5 2.220494 1_555
Co1 O11 2.117445 1_555
Co1 O12 2.158138 1_555
Co1 O6 2.175088 1_655
Co1 O16 2.176575 1_556
Co1 O14 2.179140 1_555
Co1 O9 2.222047 1_556
Co2 O4 2.112500 1_555
Co2 O23 2.152541 1_556
Co2 O21 2.162862 1_555
Co2 O2 2.196948 1_556
Co2 O18 2.242197 1_456
Co2 O0 2.250040 1_556
Co3 O8 2.124583 1_555
Co3 O17 2.149835 1_555
Co3 O15 2.171302 1_555
Co3 O10 2.188023 1_555
Co3 O13 2.237887 1_555
Co3 O7 2.246922 1_655
O0 Rh0 2.001114 1_555
O1 Rh1 2.014789 1_555
O2 Rh0 2.021562 1_555
O3 Rh1 2.023410 1_555
O4 Rh0 2.032863 1_556
O5 Rh1 2.006710 1_555
O6 Rh2 2.013518 1_566
O7 Rh3 2.004865 1_555
O8 Rh3 2.031504 1_655
O9 Rh2 2.007245 1_665
O10 Rh3 2.026892 1_655
O11 Rh2 2.025435 1_666
O12 Rh0 2.011994 1_556
O13 Rh1 2.008386 1_545
O14 Rh0 2.015107 1_556
O15 Rh1 2.027268 1_545
O16 Rh0 2.011559 1_555
O17 Rh1 2.029159 1_545
O18 Rh2 2.008498 1_655
O19 Rh3 2.013560 1_655
O20 Rh3 2.012708 1_555
O21 Rh2 2.027718 1_556
O22 Rh3 2.017899 1_555
O23 Rh2 2.030696 1_555
