# generated using pymatgen
data_Li2FeS2
_symmetry_space_group_name_H-M   'P 1'
_cell_length_a   6.34201655
_cell_length_b   6.34201655
_cell_length_c   6.34201655
_cell_angle_alpha   132.77795834
_cell_angle_beta   124.90102611
_cell_angle_gamma   75.44438991
_symmetry_Int_Tables_number   1
_chemical_formula_structural   Li2FeS2
_chemical_formula_sum   'Li4 Fe2 S4'
_cell_volume   149.50873659
_cell_formula_units_Z   2
loop_
 _symmetry_equiv_pos_site_id
 _symmetry_equiv_pos_as_xyz
  1  'x, y, z'
loop_
 _atom_site_type_symbol
 _atom_site_label
 _atom_site_symmetry_multiplicity
 _atom_site_fract_x
 _atom_site_fract_y
 _atom_site_fract_z
 _atom_site_occupancy
  Li  Li0  1  0.21145800  0.36142100  0.85003700  1
  Li  Li1  1  0.51138500  0.86142100  0.64996300  1
  Li  Li2  1  0.48861500  0.13857900  0.35003700  1
  Li  Li3  1  0.78854200  0.63857900  0.14996300  1
  Fe  Fe0  1  0.00000000  0.25000000  0.25000000  1
  Fe  Fe1  1  0.00000000  0.75000000  0.75000000  1
  S  S0  1  0.10906100  0.88361200  0.22544900  1
  S  S1  1  0.34183800  0.61638800  0.72544900  1
  S  S2  1  0.65816200  0.38361200  0.27455100  1
  S  S3  1  0.89093900  0.11638800  0.77455100  1
loop_
_geom_bond_atom_site_label_1
_geom_bond_atom_site_label_2
_geom_bond_distance
_geom_bond_site_symmetry_2
Li0 S3 2.497959 1_455
Li0 S2 2.500361 1_556
Li0 S0 2.652562 1_556
Li0 S0 2.652562 1_545
Li0 S1 2.660433 1_555
Li1 S1 2.497959 1_555
Li1 S0 2.500367 1_555
Li1 S2 2.652555 1_555
Li1 S2 2.652565 1_566
Li1 S3 2.660423 1_565
Li2 S2 2.497959 1_555
Li2 S3 2.500367 1_555
Li2 S1 2.652555 1_555
Li2 S1 2.652565 1_544
Li2 S0 2.660423 1_545
Li3 S0 2.497959 1_655
Li3 S1 2.500361 1_554
Li3 S3 2.652562 1_565
Li3 S3 2.652562 1_554
Li3 S2 2.660433 1_555
Fe0 S3 2.173916 1_454
Fe0 S0 2.173916 1_545
Fe0 S1 2.173919 1_555
Fe0 S2 2.173922 1_455
Fe1 S3 2.173916 1_465
Fe1 S0 2.173916 1_556
Fe1 S2 2.173919 1_455
Fe1 S1 2.173922 1_555
