# generated using pymatgen
data_Mn9Al8Fe3(SiO4)12
_symmetry_space_group_name_H-M   'P 1'
_cell_length_a   10.15492694
_cell_length_b   10.15492694
_cell_length_c   11.71756091
_cell_angle_alpha   54.75600995
_cell_angle_beta   54.75600995
_cell_angle_gamma   70.52033800
_symmetry_Int_Tables_number   1
_chemical_formula_structural   Mn9Al8Fe3(SiO4)12
_chemical_formula_sum   'Mn9 Al8 Fe3 Si12 O48'
_cell_volume   805.96846568
_cell_formula_units_Z   1
loop_
 _symmetry_equiv_pos_site_id
 _symmetry_equiv_pos_as_xyz
  1  'x, y, z'
loop_
 _atom_site_type_symbol
 _atom_site_label
 _atom_site_symmetry_multiplicity
 _atom_site_fract_x
 _atom_site_fract_y
 _atom_site_fract_z
 _atom_site_occupancy
  Mn  Mn0  1  0.62464100  0.37535900  0.50000000  1
  Mn  Mn1  1  0.87577100  0.37464200  0.62548300  1
  Mn  Mn2  1  0.62535800  0.12422900  0.37451700  1
  Mn  Mn3  1  0.75015800  0.75003700  0.87500100  1
  Mn  Mn4  1  0.24996300  0.24984200  0.12499900  1
  Mn  Mn5  1  0.12513700  0.87486300  0.50000000  1
  Mn  Mn6  1  0.37486800  0.62513200  0.00000000  1
  Mn  Mn7  1  0.12494900  0.62510500  0.87489400  1
  Mn  Mn8  1  0.37489500  0.87505100  0.12510600  1
  Al  Al0  1  0.49956800  0.49948900  0.25102200  1
  Al  Al1  1  0.50051100  0.50043200  0.74897800  1
  Al  Al2  1  0.99923900  0.99986800  0.24955700  1
  Al  Al3  1  0.00013200  0.00076100  0.75044300  1
  Al  Al4  1  0.49945100  0.00062100  0.74949300  1
  Al  Al5  1  0.50122700  0.99944400  0.25005400  1
  Al  Al6  1  0.99937900  0.50054900  0.25050700  1
  Al  Al7  1  0.00055600  0.49877300  0.74994600  1
  Fe  Fe0  1  0.24972200  0.24993000  0.62529100  1
  Fe  Fe1  1  0.75007000  0.75027800  0.37470900  1
  Fe  Fe2  1  0.87527700  0.12472300  0.00000000  1
  Si  Si0  1  0.24956200  0.24973900  0.87488400  1
  Si  Si1  1  0.75026100  0.75043800  0.12511600  1
  Si  Si2  1  0.62559500  0.37440500  0.00000000  1
  Si  Si3  1  0.87501900  0.12498100  0.50000000  1
  Si  Si4  1  0.12513400  0.62516100  0.37488300  1
  Si  Si5  1  0.37483900  0.87486600  0.62511700  1
  Si  Si6  1  0.75006400  0.75007700  0.62436700  1
  Si  Si7  1  0.24992300  0.24993600  0.37563300  1
  Si  Si8  1  0.37482200  0.62517800  0.50000000  1
  Si  Si9  1  0.12458500  0.87541500  0.00000000  1
  Si  Si10  1  0.87512600  0.37505200  0.12458300  1
  Si  Si11  1  0.62494800  0.12487400  0.87541700  1
  O  O0  1  0.48811900  0.41761800  0.94906800  1
  O  O1  1  0.58238300  0.51188100  0.05093200  1
  O  O2  1  0.91766300  0.98801800  0.64543700  1
  O  O3  1  0.01198200  0.08233700  0.35456300  1
  O  O4  1  0.31306300  0.61709600  0.23716300  1
  O  O5  1  0.11685500  0.81312100  0.33239700  1
  O  O6  1  0.18687900  0.88314500  0.66760300  1
  O  O7  1  0.38290400  0.68693700  0.76283700  1
  O  O8  1  0.19948100  0.10444000  0.06281100  1
  O  O9  1  0.30041200  0.39528800  0.86668900  1
  O  O10  1  0.89556000  0.80051900  0.93718900  1
  O  O11  1  0.60471200  0.69958800  0.13331100  1
  O  O12  1  0.51328200  0.58371100  0.54921200  1
  O  O13  1  0.41628900  0.48671800  0.45078800  1
  O  O14  1  0.08166400  0.01435500  0.85500500  1
  O  O15  1  0.98564500  0.91833600  0.14499500  1
  O  O16  1  0.68728900  0.38290900  0.26265700  1
  O  O17  1  0.88330200  0.18761700  0.16573000  1
  O  O18  1  0.81238300  0.11669800  0.83427000  1
  O  O19  1  0.61709100  0.31271100  0.73734300  1
  O  O20  1  0.80005300  0.89449900  0.43615200  1
  O  O21  1  0.69983700  0.60547600  0.63087100  1
  O  O22  1  0.10550100  0.19994700  0.56384800  1
  O  O23  1  0.39452400  0.30016300  0.36912900  1
  O  O24  1  0.51326300  0.91609200  0.43770500  1
  O  O25  1  0.41596000  0.01327000  0.63310500  1
  O  O26  1  0.08390800  0.48673700  0.56229500  1
  O  O27  1  0.98673000  0.58404000  0.36689500  1
  O  O28  1  0.68709600  0.11689500  0.55016200  1
  O  O29  1  0.88310500  0.31290400  0.44983800  1
  O  O30  1  0.81367100  0.38090500  0.85541300  1
  O  O31  1  0.61909500  0.18632900  0.14458700  1
  O  O32  1  0.80013300  0.60594600  0.26362000  1
  O  O33  1  0.70090300  0.89535600  0.16822700  1
  O  O34  1  0.10464400  0.29909700  0.83177300  1
  O  O35  1  0.39405400  0.19986700  0.73638000  1
  O  O36  1  0.48753100  0.08228500  0.06332900  1
  O  O37  1  0.58237300  0.98785900  0.86680500  1
  O  O38  1  0.91771500  0.51246900  0.93667100  1
  O  O39  1  0.01214100  0.41762700  0.13319500  1
  O  O40  1  0.31261900  0.88300300  0.94981200  1
  O  O41  1  0.11699700  0.68738100  0.05018800  1
  O  O42  1  0.18702000  0.61685700  0.64572700  1
  O  O43  1  0.38314300  0.81298000  0.35427300  1
  O  O44  1  0.19942500  0.39541800  0.23790000  1
  O  O45  1  0.30108700  0.10481600  0.33248400  1
  O  O46  1  0.89518400  0.69891300  0.66751600  1
  O  O47  1  0.60458200  0.80057500  0.76210000  1
loop_
_geom_bond_atom_site_label_1
_geom_bond_atom_site_label_2
_geom_bond_distance
_geom_bond_site_symmetry_2
Mn0 O13 2.268850 1_555
Mn0 O12 2.268850 1_555
Mn0 O29 2.275128 1_555
Mn0 O28 2.275128 1_555
Mn0 O19 2.426830 1_555
Mn0 O16 2.426830 1_555
Mn0 O35 2.435519 1_555
Mn0 O32 2.435519 1_555
Mn1 O26 2.266527 1_655
Mn1 O18 2.274193 1_555
Mn1 O19 2.278311 1_555
Mn1 O27 2.279007 1_555
Mn1 O30 2.422947 1_555
Mn1 O22 2.425915 1_655
Mn1 O29 2.432214 1_555
Mn1 O21 2.436845 1_555
Mn2 O24 2.266527 1_545
Mn2 O17 2.274193 1_555
Mn2 O16 2.278311 1_555
Mn2 O25 2.279007 1_555
Mn2 O31 2.422947 1_555
Mn2 O20 2.425915 1_545
Mn2 O28 2.432214 1_555
Mn2 O23 2.436845 1_555
Mn3 O10 2.269740 1_555
Mn3 O11 2.271742 1_556
Mn3 O46 2.272381 1_555
Mn3 O47 2.272984 1_555
Mn3 O38 2.430389 1_555
Mn3 O37 2.433436 1_555
Mn3 O2 2.434705 1_555
Mn3 O1 2.437613 1_556
Mn4 O8 2.269740 1_555
Mn4 O9 2.271742 1_554
Mn4 O45 2.272381 1_555
Mn4 O44 2.272984 1_555
Mn4 O36 2.430389 1_555
Mn4 O39 2.433436 1_555
Mn4 O3 2.434705 1_555
Mn4 O0 2.437619 1_554
Mn5 O43 2.269847 1_555
Mn5 O42 2.269847 1_555
Mn5 O3 2.272675 1_565
Mn5 O2 2.272675 1_455
Mn5 O6 2.429811 1_555
Mn5 O5 2.429811 1_555
Mn5 O46 2.437892 1_455
Mn5 O45 2.437892 1_565
Mn6 O40 2.269473 1_554
Mn6 O41 2.269473 1_555
Mn6 O0 2.272102 1_554
Mn6 O1 2.272111 1_555
Mn6 O4 2.425434 1_555
Mn6 O7 2.425434 1_554
Mn6 O47 2.433427 1_554
Mn6 O44 2.433427 1_555
Mn7 O6 2.269821 1_555
Mn7 O38 2.269948 1_455
Mn7 O7 2.270690 1_555
Mn7 O39 2.271675 1_556
Mn7 O42 2.426097 1_555
Mn7 O41 2.428814 1_556
Mn7 O10 2.429597 1_455
Mn7 O9 2.432789 1_555
Mn8 O5 2.269821 1_555
Mn8 O36 2.269948 1_565
Mn8 O4 2.270690 1_555
Mn8 O37 2.271675 1_554
Mn8 O43 2.426097 1_555
Mn8 O40 2.428814 1_554
Mn8 O8 2.429597 1_565
Mn8 O11 2.432789 1_555
Al0 O13 1.910327 1_555
Al0 O23 1.911431 1_555
Al0 O4 1.913709 1_555
Al0 O16 1.913789 1_555
Al0 O1 1.916907 1_555
Al0 O11 1.919415 1_555
Al1 O12 1.910327 1_555
Al1 O21 1.911431 1_555
Al1 O7 1.913709 1_555
Al1 O19 1.913789 1_555
Al1 O0 1.916909 1_555
Al1 O9 1.919415 1_555
Al2 O15 1.909946 1_555
Al2 O20 1.912092 1_555
Al2 O17 1.913685 1_565
Al2 O5 1.915203 1_655
Al2 O8 1.916715 1_665
Al2 O3 1.917627 1_665
Al3 O14 1.909946 1_555
Al3 O22 1.912092 1_555
Al3 O18 1.913685 1_455
Al3 O6 1.915203 1_545
Al3 O10 1.916715 1_445
Al3 O2 1.917627 1_445
Al4 O35 1.910416 1_555
Al4 O25 1.911784 1_555
Al4 O28 1.913544 1_555
Al4 O40 1.916197 1_545
Al4 O37 1.916494 1_545
Al4 O47 1.917709 1_545
Al5 O33 1.909065 1_555
Al5 O24 1.912942 1_555
Al5 O31 1.913793 1_565
Al5 O36 1.913923 1_565
Al5 O43 1.915787 1_555
Al5 O45 1.919730 1_565
Al6 O32 1.910416 1_555
Al6 O27 1.911784 1_555
Al6 O29 1.913544 1_555
Al6 O41 1.916197 1_655
Al6 O39 1.916494 1_655
Al6 O44 1.917709 1_655
Al7 O34 1.909065 1_555
Al7 O26 1.912942 1_555
Al7 O30 1.913793 1_455
Al7 O38 1.913923 1_455
Al7 O42 1.915787 1_555
Al7 O46 1.919730 1_455
Fe0 O35 2.245500 1_555
Fe0 O22 2.248414 1_555
Fe0 O34 2.250185 1_555
Fe0 O23 2.251936 1_555
Fe0 O26 2.418316 1_555
Fe0 O25 2.419190 1_555
Fe0 O14 2.422857 1_555
Fe0 O13 2.422907 1_555
Fe1 O32 2.245500 1_555
Fe1 O20 2.248414 1_555
Fe1 O33 2.250185 1_555
Fe1 O21 2.251936 1_555
Fe1 O24 2.418316 1_555
Fe1 O27 2.419190 1_555
Fe1 O15 2.422857 1_555
Fe1 O12 2.422907 1_555
Fe2 O14 2.248708 1_654
Fe2 O15 2.248708 1_545
Fe2 O31 2.254016 1_555
Fe2 O30 2.254016 1_554
Fe2 O17 2.415479 1_555
Fe2 O18 2.415479 1_554
Fe2 O33 2.422760 1_545
Fe2 O34 2.422760 1_654
O0 Si2 1.657845 1_556
O1 Si2 1.657847 1_555
O2 Si3 1.655493 1_565
O3 Si3 1.655493 1_455
O4 Si4 1.657367 1_555
O5 Si4 1.656118 1_555
O6 Si5 1.656118 1_555
O7 Si5 1.657367 1_555
O8 Si0 1.656159 1_554
O9 Si0 1.657850 1_555
O10 Si1 1.656159 1_556
O11 Si1 1.657850 1_555
O12 Si8 1.657540 1_555
O13 Si8 1.657540 1_555
O14 Si9 1.656850 1_546
O15 Si9 1.656850 1_655
O16 Si10 1.657757 1_555
O17 Si10 1.656474 1_555
O18 Si11 1.656474 1_555
O19 Si11 1.657757 1_555
O20 Si6 1.656493 1_555
O21 Si6 1.657618 1_555
O22 Si7 1.656493 1_555
O23 Si7 1.657618 1_555
O24 Si5 1.656042 1_555
O25 Si5 1.657373 1_545
O26 Si4 1.656042 1_555
O27 Si4 1.657373 1_655
O28 Si3 1.657787 1_555
O29 Si3 1.657787 1_555
O30 Si2 1.656190 1_556
O31 Si2 1.656190 1_555
O32 Si1 1.657715 1_555
O33 Si1 1.657080 1_555
O34 Si0 1.657080 1_555
O35 Si0 1.657715 1_555
O36 Si11 1.655259 1_554
O37 Si11 1.657299 1_565
O38 Si10 1.655259 1_556
O39 Si10 1.657299 1_455
O40 Si9 1.657620 1_556
O41 Si9 1.657620 1_555
O42 Si8 1.656063 1_555
O43 Si8 1.656063 1_555
O44 Si7 1.657810 1_555
O45 Si7 1.656324 1_555
O46 Si6 1.656324 1_555
O47 Si6 1.657810 1_555
