# generated using pymatgen
data_PdS2
_symmetry_space_group_name_H-M   'P 1'
_cell_length_a   5.48297086
_cell_length_b   5.56536307
_cell_length_c   7.88021863
_cell_angle_alpha   90.00000000
_cell_angle_beta   90.00000000
_cell_angle_gamma   90.00000000
_symmetry_Int_Tables_number   1
_chemical_formula_structural   PdS2
_chemical_formula_sum   'Pd4 S8'
_cell_volume   240.46269291
_cell_formula_units_Z   4
loop_
 _symmetry_equiv_pos_site_id
 _symmetry_equiv_pos_as_xyz
  1  'x, y, z'
loop_
 _atom_site_type_symbol
 _atom_site_label
 _atom_site_symmetry_multiplicity
 _atom_site_fract_x
 _atom_site_fract_y
 _atom_site_fract_z
 _atom_site_occupancy
  Pd  Pd0  1  0.50000000  0.00000000  0.50000000  1
  Pd  Pd1  1  -0.00000000  0.50000000  0.50000000  1
  Pd  Pd2  1  0.50000000  0.50000000  -0.00000000  1
  Pd  Pd3  1  -0.00000000  0.00000000  -0.00000000  1
  S  S0  1  0.60477143  0.11041335  0.07829600  1
  S  S1  1  0.10477143  0.38958665  0.92170400  1
  S  S2  1  0.39522857  0.61041335  0.42170400  1
  S  S3  1  0.89522857  0.88958665  0.57829600  1
  S  S4  1  0.10477143  0.11041335  0.42170400  1
  S  S5  1  0.60477143  0.38958665  0.57829600  1
  S  S6  1  0.89522857  0.61041335  0.07829600  1
  S  S7  1  0.39522857  0.88958665  0.92170400  1
loop_
_geom_bond_atom_site_label_1
_geom_bond_atom_site_label_2
_geom_bond_distance
_geom_bond_site_symmetry_2
Pd0 S5 2.326313 1_555
Pd0 S2 2.326313 1_545
Pd0 S4 2.335440 1_555
Pd0 S3 2.335440 1_545
Pd1 S3 2.326313 1_455
Pd1 S4 2.326313 1_555
Pd1 S2 2.335440 1_555
Pd1 S5 2.335440 1_455
Pd2 S0 2.326313 1_555
Pd2 S7 2.326313 1_554
Pd2 S6 2.335440 1_555
Pd2 S1 2.335440 1_554
Pd3 S1 2.326313 1_554
Pd3 S6 2.326313 1_445
Pd3 S7 2.335440 1_544
Pd3 S0 2.335440 1_455
S0 S7 2.086411 1_544
S1 S6 2.086411 1_456
S2 S5 2.086411 1_555
S3 S4 2.086411 1_665
