# generated using pymatgen
data_BaMg14Nb
_symmetry_space_group_name_H-M   'P 1'
_cell_length_a   6.53716806
_cell_length_b   6.47973066
_cell_length_c   10.45499342
_cell_angle_alpha   90.00000000
_cell_angle_beta   90.00000000
_cell_angle_gamma   119.70978077
_symmetry_Int_Tables_number   1
_chemical_formula_structural   BaMg14Nb
_chemical_formula_sum   'Ba1 Mg14 Nb1'
_cell_volume   384.64815569
_cell_formula_units_Z   1
loop_
 _symmetry_equiv_pos_site_id
 _symmetry_equiv_pos_as_xyz
  1  'x, y, z'
loop_
 _atom_site_type_symbol
 _atom_site_label
 _atom_site_symmetry_multiplicity
 _atom_site_fract_x
 _atom_site_fract_y
 _atom_site_fract_z
 _atom_site_occupancy
  Ba  Ba0  1  0.15660366  0.32830133  0.12500000  1
  Mg  Mg0  1  0.16865509  0.33432704  0.62500000  1
  Mg  Mg1  1  0.16419848  0.83209874  0.62500000  1
  Mg  Mg2  1  0.66003763  0.32779410  0.12500000  1
  Mg  Mg3  1  0.66499206  0.33620394  0.62500000  1
  Mg  Mg4  1  0.66003763  0.83224253  0.12500000  1
  Mg  Mg5  1  0.66499206  0.82878713  0.62500000  1
  Mg  Mg6  1  0.33502098  0.15372362  0.38304367  1
  Mg  Mg7  1  0.33502098  0.15372362  0.86695633  1
  Mg  Mg8  1  0.33502098  0.68129836  0.38304367  1
  Mg  Mg9  1  0.33502098  0.68129836  0.86695633  1
  Mg  Mg10  1  0.82113641  0.16056870  0.39175252  1
  Mg  Mg11  1  0.82113641  0.16056870  0.85824748  1
  Mg  Mg12  1  0.84512374  0.67256237  0.36552661  1
  Mg  Mg13  1  0.84512374  0.67256237  0.88447339  1
  Nb  Nb0  1  0.18787917  0.84393909  0.12500000  1
loop_
_geom_bond_atom_site_label_1
_geom_bond_atom_site_label_2
_geom_bond_distance
_geom_bond_site_symmetry_2
Ba0 Mg4 3.244508 1_445
Ba0 Mg2 3.244508 1_455
Ba0 Nb0 3.244728 1_545
Ba0 Nb0 3.244728 1_555
Ba0 Mg4 3.292662 1_555
Ba0 Mg2 3.292663 1_555
Ba0 Mg7 3.350548 1_554
Ba0 Mg6 3.350548 1_555
Ba0 Mg9 3.350554 1_554
Ba0 Mg8 3.350554 1_555
Ba0 Mg11 3.377267 1_454
Ba0 Mg10 3.377267 1_455
Mg0 Mg10 3.136895 1_455
Mg0 Mg11 3.136895 1_455
Mg0 Mg6 3.195777 1_555
Mg0 Mg7 3.195777 1_555
Mg0 Mg8 3.195784 1_555
Mg0 Mg9 3.195784 1_555
Mg0 Mg5 3.238628 1_555
Mg0 Mg3 3.238628 1_555
Mg0 Mg1 3.239964 1_545
Mg0 Mg1 3.239964 1_555
Mg0 Mg5 3.298574 1_445
Mg0 Mg3 3.298574 1_455
Mg1 Mg8 3.111679 1_555
Mg1 Mg9 3.111679 1_555
Mg1 Mg6 3.111686 1_565
Mg1 Mg7 3.111686 1_565
Mg1 Mg3 3.252814 1_455
Mg1 Mg5 3.252815 1_455
Mg1 Mg12 3.262106 1_455
Mg1 Mg13 3.262106 1_455
Mg1 Mg3 3.284459 1_565
Mg1 Mg5 3.284460 1_555
Mg2 Nb0 3.124835 1_545
Mg2 Mg4 3.211041 1_545
Mg2 Mg4 3.268690 1_555
Mg2 Mg7 3.269472 1_554
Mg2 Mg6 3.269472 1_555
Mg2 Nb0 3.413661 1_655
Mg3 Mg6 3.149932 1_555
Mg3 Mg7 3.149932 1_555
Mg3 Mg5 3.191806 1_555
Mg3 Mg5 3.287924 1_545
Mg4 Nb0 3.124835 1_555
Mg4 Mg9 3.269473 1_554
Mg4 Mg8 3.269473 1_555
Mg4 Nb0 3.413661 1_655
Mg5 Mg8 3.149933 1_555
Mg5 Mg9 3.149933 1_555
Mg6 Mg8 3.061188 1_545
Mg6 Nb0 3.212332 1_545
Mg6 Mg8 3.418542 1_555
Mg7 Mg9 3.061188 1_545
Mg7 Nb0 3.212332 1_546
Mg7 Mg9 3.418542 1_555
Mg8 Nb0 3.212326 1_555
Mg9 Nb0 3.212326 1_556
Mg10 Mg3 3.071703 1_555
Mg10 Mg5 3.071709 1_545
Mg10 Mg8 3.157384 1_545
Mg10 Mg6 3.157384 1_555
Mg10 Mg12 3.254298 1_545
Mg10 Mg12 3.254298 1_555
Mg10 Mg2 3.345486 1_555
Mg10 Mg4 3.345492 1_545
Mg10 Mg8 3.382777 1_655
Mg10 Mg6 3.382777 1_655
Mg11 Mg3 3.071703 1_555
Mg11 Mg5 3.071709 1_545
Mg11 Mg9 3.157384 1_545
Mg11 Mg7 3.157384 1_555
Mg11 Mg13 3.254298 1_545
Mg11 Mg13 3.254298 1_555
Mg11 Mg2 3.345486 1_556
Mg11 Mg4 3.345492 1_546
Mg11 Mg9 3.382777 1_655
Mg11 Mg7 3.382777 1_655
Mg12 Mg4 3.177919 1_555
Mg12 Mg2 3.177925 1_555
Mg12 Nb0 3.179792 1_655
Mg12 Mg6 3.180144 1_665
Mg12 Mg8 3.180144 1_655
Mg12 Mg5 3.309406 1_555
Mg12 Mg3 3.309412 1_555
Mg12 Mg6 3.368024 1_555
Mg12 Mg8 3.368025 1_555
Mg13 Mg4 3.177919 1_556
Mg13 Mg2 3.177925 1_556
Mg13 Nb0 3.179792 1_656
Mg13 Mg7 3.180144 1_665
Mg13 Mg9 3.180144 1_655
Mg13 Mg5 3.309406 1_555
Mg13 Mg3 3.309412 1_555
Mg13 Mg7 3.368024 1_555
Mg13 Mg9 3.368025 1_555
