# generated using pymatgen
data_GdCoSi3
_symmetry_space_group_name_H-M   'P 1'
_cell_length_a   5.61287754
_cell_length_b   5.61287754
_cell_length_c   5.61287754
_cell_angle_alpha   137.46651213
_cell_angle_beta   137.46651213
_cell_angle_gamma   61.72105028
_symmetry_Int_Tables_number   1
_chemical_formula_structural   GdCoSi3
_chemical_formula_sum   'Gd1 Co1 Si3'
_cell_volume   79.87957773
_cell_formula_units_Z   1
loop_
 _symmetry_equiv_pos_site_id
 _symmetry_equiv_pos_as_xyz
  1  'x, y, z'
loop_
 _atom_site_type_symbol
 _atom_site_label
 _atom_site_symmetry_multiplicity
 _atom_site_fract_x
 _atom_site_fract_y
 _atom_site_fract_z
 _atom_site_occupancy
  Gd  Gd0  1  0.00244100  0.00244100  0.00000000  1
  Co  Co0  1  0.66117700  0.66117700  0.00000000  1
  Si  Si0  1  0.42978400  0.42978400  0.00000000  1
  Si  Si1  1  0.26179900  0.76179900  0.50000000  1
  Si  Si2  1  0.76179900  0.26179900  0.50000000  1
loop_
_geom_bond_atom_site_label_1
_geom_bond_atom_site_label_2
_geom_bond_distance
_geom_bond_site_symmetry_2
Gd0 Si0 2.963035 1_545
Gd0 Si0 2.963035 1_556
Gd0 Si0 2.963035 1_455
Gd0 Si0 2.963035 1_444
Gd0 Si1 3.085787 1_444
Gd0 Si2 3.085787 1_444
Gd0 Si2 3.085787 1_455
Gd0 Si1 3.085787 1_545
Gd0 Si1 3.223517 1_555
Gd0 Si2 3.223517 1_454
Gd0 Si1 3.223517 1_544
Gd0 Si2 3.223517 1_555
Co0 Si0 2.229795 1_555
Co0 Si2 2.254966 1_565
Co0 Si1 2.254966 1_554
Co0 Si2 2.254966 1_554
Co0 Si1 2.254966 1_655
Co0 Gd0 3.260241 1_565
Co0 Gd0 3.260241 1_655
Co0 Gd0 3.260241 1_554
Co0 Gd0 3.260241 1_666
Co0 Gd0 3.288555 1_665
Si0 Si1 2.600980 1_555
Si0 Si2 2.600980 1_555
Si0 Si2 2.600980 1_454
Si0 Si1 2.600980 1_544
