# generated using pymatgen
data_La6Ni6P17
_symmetry_space_group_name_H-M   'P 1'
_cell_length_a   8.82079868
_cell_length_b   8.82079868
_cell_length_c   8.82079868
_cell_angle_alpha   109.47122063
_cell_angle_beta   109.47122063
_cell_angle_gamma   109.47122063
_symmetry_Int_Tables_number   1
_chemical_formula_structural   La6Ni6P17
_chemical_formula_sum   'La6 Ni6 P17'
_cell_volume   528.32582403
_cell_formula_units_Z   1
loop_
 _symmetry_equiv_pos_site_id
 _symmetry_equiv_pos_as_xyz
  1  'x, y, z'
loop_
 _atom_site_type_symbol
 _atom_site_label
 _atom_site_symmetry_multiplicity
 _atom_site_fract_x
 _atom_site_fract_y
 _atom_site_fract_z
 _atom_site_occupancy
  La  La0  1  0.71026737  0.00000000  0.71026737  1
  La  La1  1  0.28973263  0.28973263  0.00000000  1
  La  La2  1  0.71026737  0.71026737  0.00000000  1
  La  La3  1  0.00000000  0.28973263  0.28973263  1
  La  La4  1  -0.00000000  0.71026737  0.71026737  1
  La  La5  1  0.28973263  0.00000000  0.28973263  1
  Ni  Ni0  1  0.75000000  0.50000000  0.25000000  1
  Ni  Ni1  1  0.25000000  0.75000000  0.50000000  1
  Ni  Ni2  1  0.75000000  0.25000000  0.50000000  1
  Ni  Ni3  1  0.50000000  0.25000000  0.75000000  1
  Ni  Ni4  1  0.50000000  0.75000000  0.25000000  1
  Ni  Ni5  1  0.25000000  0.50000000  0.75000000  1
  P  P0  1  -0.00000000  0.00000000  0.00000000  1
  P  P1  1  0.56931839  0.56931839  0.56931839  1
  P  P2  1  -0.00000000  0.43068161  -0.00000000  1
  P  P3  1  0.43068161  0.00000000  0.00000000  1
  P  P4  1  -0.00000000  -0.00000000  0.43068161  1
  P  P5  1  0.36812796  0.36812796  0.60115003  1
  P  P6  1  0.00000000  0.23302207  0.63187204  1
  P  P7  1  0.23302207  0.00000000  0.63187204  1
  P  P8  1  0.76697793  0.39884997  0.76697793  1
  P  P9  1  0.39884997  0.76697793  0.76697793  1
  P  P10  1  0.60115003  0.36812796  0.36812796  1
  P  P11  1  -0.00000000  0.63187204  0.23302207  1
  P  P12  1  0.76697793  0.76697793  0.39884997  1
  P  P13  1  0.63187204  0.23302207  -0.00000000  1
  P  P14  1  0.23302207  0.63187204  0.00000000  1
  P  P15  1  0.36812796  0.60115003  0.36812796  1
  P  P16  1  0.63187204  -0.00000000  0.23302207  1
loop_
_geom_bond_atom_site_label_1
_geom_bond_atom_site_label_2
_geom_bond_distance
_geom_bond_site_symmetry_2
La0 P0 2.951037 1_656
La0 P13 3.139780 1_556
La0 P6 3.139780 1_655
La0 P9 3.139780 1_545
La0 P12 3.139780 1_545
La0 P2 3.193039 1_656
La0 P1 3.193039 1_545
La0 P8 3.219419 1_555
La0 P15 3.219419 1_545
La0 Ni2 3.327244 1_555
La0 Ni3 3.327244 1_555
La0 Ni4 3.327244 1_545
La0 Ni1 3.327244 1_545
La1 P0 2.951037 1_555
La1 P10 3.139780 1_555
La1 P7 3.139780 1_554
La1 P6 3.139780 1_554
La1 P15 3.139780 1_555
La1 P3 3.193039 1_555
La1 P2 3.193039 1_555
La1 P13 3.219419 1_555
La1 P14 3.219419 1_555
La1 Ni0 3.327244 1_555
La1 Ni4 3.327244 1_555
La1 Ni3 3.327244 1_554
La1 Ni5 3.327244 1_554
La2 P0 2.951037 1_665
La2 P8 3.139780 1_554
La2 P16 3.139780 1_565
La2 P9 3.139780 1_554
La2 P11 3.139780 1_655
La2 P4 3.193039 1_665
La2 P1 3.193039 1_554
La2 P12 3.219419 1_555
La2 P5 3.219419 1_554
La2 Ni0 3.327244 1_555
La2 Ni5 3.327244 1_554
La2 Ni4 3.327244 1_555
La2 Ni3 3.327244 1_554
La3 P0 2.951037 1_555
La3 P16 3.139780 1_455
La3 P13 3.139780 1_455
La3 P5 3.139780 1_555
La3 P15 3.139780 1_555
La3 P2 3.193039 1_555
La3 P4 3.193039 1_555
La3 P11 3.219419 1_555
La3 P6 3.219419 1_555
La3 Ni1 3.327244 1_555
La3 Ni2 3.327244 1_455
La3 Ni5 3.327244 1_555
La3 Ni0 3.327244 1_455
La4 P0 2.951037 1_566
La4 P12 3.139780 1_455
La4 P7 3.139780 1_565
La4 P8 3.139780 1_455
La4 P14 3.139780 1_556
La4 P3 3.193039 1_566
La4 P1 3.193039 1_455
La4 P9 3.219419 1_555
La4 P10 3.219419 1_455
La4 Ni2 3.327244 1_455
La4 Ni0 3.327244 1_455
La4 Ni1 3.327244 1_555
La4 Ni5 3.327244 1_555
La5 P0 2.951037 1_555
La5 P10 3.139780 1_555
La5 P14 3.139780 1_545
La5 P5 3.139780 1_555
La5 P11 3.139780 1_545
La5 P3 3.193039 1_555
La5 P4 3.193039 1_555
La5 P16 3.219419 1_555
La5 P7 3.219419 1_555
La5 Ni2 3.327244 1_555
La5 Ni1 3.327244 1_545
La5 Ni3 3.327244 1_555
La5 Ni4 3.327244 1_545
Ni0 P12 2.205589 1_555
Ni0 P13 2.205589 1_555
Ni0 P10 2.205589 1_555
Ni0 P11 2.205589 1_655
Ni1 P15 2.205589 1_555
Ni1 P9 2.205589 1_555
Ni1 P11 2.205589 1_555
Ni1 P7 2.205589 1_565
Ni2 P8 2.205589 1_555
Ni2 P16 2.205589 1_555
Ni2 P10 2.205589 1_555
Ni2 P6 2.205589 1_655
Ni3 P5 2.205589 1_555
Ni3 P8 2.205589 1_555
Ni3 P13 2.205589 1_556
Ni3 P7 2.205589 1_555
Ni4 P14 2.205589 1_555
Ni4 P15 2.205589 1_555
Ni4 P12 2.205589 1_555
Ni4 P16 2.205589 1_565
Ni5 P5 2.205589 1_555
Ni5 P14 2.205589 1_556
Ni5 P9 2.205589 1_555
Ni5 P6 2.205589 1_555
P1 P10 2.223162 1_555
P1 P5 2.223162 1_555
P1 P15 2.223162 1_555
P2 P8 2.223162 1_454
P3 P9 2.223162 1_544
P4 P7 2.223162 1_555
P4 P6 2.223162 1_555
P11 P2 2.223162 1_555
P12 P4 2.223162 1_665
P13 P3 2.223162 1_555
P14 P2 2.223162 1_555
P16 P3 2.223162 1_555
