# generated using pymatgen
data_Zn2CuIrO6
_symmetry_space_group_name_H-M   'P 1'
_cell_length_a   5.19674500
_cell_length_b   5.13003600
_cell_length_c   9.23690254
_cell_angle_alpha   56.84398599
_cell_angle_beta   90.00000000
_cell_angle_gamma   90.00000000
_symmetry_Int_Tables_number   1
_chemical_formula_structural   Zn2CuIrO6
_chemical_formula_sum   'Zn4 Cu2 Ir2 O12'
_cell_volume   206.15758798
_cell_formula_units_Z   2
loop_
 _symmetry_equiv_pos_site_id
 _symmetry_equiv_pos_as_xyz
  1  'x, y, z'
loop_
 _atom_site_type_symbol
 _atom_site_label
 _atom_site_symmetry_multiplicity
 _atom_site_fract_x
 _atom_site_fract_y
 _atom_site_fract_z
 _atom_site_occupancy
  Zn  Zn0  1  0.94429200  0.24210000  0.75085900  1
  Zn  Zn1  1  0.44429200  0.75790000  0.74914100  1
  Zn  Zn2  1  0.55570800  0.24210000  0.25085900  1
  Zn  Zn3  1  0.05570800  0.75790000  0.24914100  1
  Cu  Cu0  1  0.50000000  0.00000000  0.00000000  1
  Cu  Cu1  1  0.00000000  0.00000000  0.50000000  1
  Ir  Ir0  1  0.50000000  0.50000000  0.50000000  1
  Ir  Ir1  1  0.00000000  0.50000000  0.00000000  1
  O  O0  1  0.42743900  0.60321300  0.26240400  1
  O  O1  1  0.18357700  0.88905500  0.92873800  1
  O  O2  1  0.18304800  0.24674100  0.57618500  1
  O  O3  1  0.68304800  0.75325900  0.92381500  1
  O  O4  1  0.68357700  0.11094500  0.57126200  1
  O  O5  1  0.92743900  0.39678700  0.23759600  1
  O  O6  1  0.07256100  0.60321300  0.76240400  1
  O  O7  1  0.31642300  0.88905500  0.42873800  1
  O  O8  1  0.31695200  0.24674100  0.07618500  1
  O  O9  1  0.81642300  0.11094500  0.07126200  1
  O  O10  1  0.81695200  0.75325900  0.42381500  1
  O  O11  1  0.57256100  0.39678700  0.73759600  1
loop_
_geom_bond_atom_site_label_1
_geom_bond_atom_site_label_2
_geom_bond_distance
_geom_bond_site_symmetry_2
Cu0 O1 1.967476 1_544
Cu0 O9 1.967476 1_555
Cu0 O3 1.994158 1_544
Cu0 O8 1.994158 1_555
Cu0 O11 2.182585 1_554
Cu0 O0 2.182585 1_545
Cu1 O7 1.967476 1_545
Cu1 O4 1.967476 1_455
Cu1 O2 1.994158 1_555
Cu1 O10 1.994158 1_445
Cu1 O5 2.182585 1_455
Cu1 O6 2.182585 1_545
Ir0 O4 1.972267 1_555
Ir0 O7 1.972267 1_555
Ir0 O10 1.973860 1_555
Ir0 O2 1.973860 1_555
Ir0 O0 1.991972 1_555
Ir0 O11 1.991972 1_555
Ir1 O1 1.972267 1_554
Ir1 O9 1.972267 1_455
Ir1 O3 1.973860 1_454
Ir1 O8 1.973860 1_555
Ir1 O5 1.991972 1_455
Ir1 O6 1.991972 1_554
O0 Zn2 2.025743 1_555
O0 Zn3 2.066448 1_555
O1 Zn0 2.066660 1_465
O2 Zn0 2.025149 1_455
O2 Zn1 2.510374 1_545
O3 Zn1 2.025149 1_555
O3 Zn0 2.510374 1_565
O4 Zn1 2.066660 1_545
O5 Zn3 2.025743 1_655
O5 Zn2 2.066448 1_555
O6 Zn0 2.025743 1_455
O6 Zn1 2.066448 1_555
O7 Zn2 2.066660 1_565
O8 Zn2 2.025149 1_555
O8 Zn3 2.510374 1_545
O9 Zn3 2.066660 1_645
O10 Zn3 2.025149 1_655
O10 Zn2 2.510374 1_565
O11 Zn1 2.025743 1_555
O11 Zn0 2.066448 1_555
