# generated using pymatgen
data_RbLaMg6O8
_symmetry_space_group_name_H-M   'P 1'
_cell_length_a   9.37693514
_cell_length_b   4.71718213
_cell_length_c   4.71718213
_cell_angle_alpha   90.00000000
_cell_angle_beta   90.00000000
_cell_angle_gamma   90.00000000
_symmetry_Int_Tables_number   1
_chemical_formula_structural   RbLaMg6O8
_chemical_formula_sum   'Rb1 La1 Mg6 O8'
_cell_volume   208.65375331
_cell_formula_units_Z   1
loop_
 _symmetry_equiv_pos_site_id
 _symmetry_equiv_pos_as_xyz
  1  'x, y, z'
loop_
 _atom_site_type_symbol
 _atom_site_label
 _atom_site_symmetry_multiplicity
 _atom_site_fract_x
 _atom_site_fract_y
 _atom_site_fract_z
 _atom_site_occupancy
  Rb  Rb0  1  0.50000000  0.00000000  0.00000000  1
  La  La0  1  0.00000000  0.00000000  0.00000000  1
  Mg  Mg0  1  0.00000000  0.50000000  0.50000000  1
  Mg  Mg1  1  0.50000000  0.50000000  0.50000000  1
  Mg  Mg2  1  0.27454104  0.00000000  0.50000000  1
  Mg  Mg3  1  0.72545896  -0.00000000  0.50000000  1
  Mg  Mg4  1  0.27454104  0.50000000  -0.00000000  1
  Mg  Mg5  1  0.72545896  0.50000000  0.00000000  1
  O  O0  1  0.24013253  0.00000000  0.00000000  1
  O  O1  1  0.75986747  -0.00000000  -0.00000000  1
  O  O2  1  0.25305867  0.50000000  0.50000000  1
  O  O3  1  0.74694133  0.50000000  0.50000000  1
  O  O4  1  0.00000000  0.00000000  0.50000000  1
  O  O5  1  0.50000000  0.00000000  0.50000000  1
  O  O6  1  0.00000000  0.50000000  0.00000000  1
  O  O7  1  0.50000000  0.50000000  0.00000000  1
loop_
_geom_bond_atom_site_label_1
_geom_bond_atom_site_label_2
_geom_bond_distance
_geom_bond_site_symmetry_2
La0 O0 2.251707 1_555
La0 O1 2.251707 1_455
La0 O4 2.358591 1_554
La0 O6 2.358591 1_545
La0 O4 2.358591 1_555
La0 O6 2.358591 1_555
Mg0 O4 2.358591 1_565
Mg0 O6 2.358591 1_556
Mg0 O6 2.358591 1_555
Mg0 O4 2.358591 1_555
Mg0 O2 2.372915 1_555
Mg0 O3 2.372915 1_455
Mg1 O3 2.315553 1_555
Mg1 O2 2.315553 1_555
Mg1 O7 2.358591 1_556
Mg1 O5 2.358591 1_555
Mg1 O5 2.358591 1_565
Mg1 O7 2.358591 1_555
Mg2 O5 2.114114 1_555
Mg2 O2 2.367178 1_545
Mg2 O2 2.367178 1_555
Mg2 O0 2.380557 1_555
Mg2 O0 2.380557 1_556
Mg2 O4 2.574354 1_555
Mg3 O5 2.114114 1_555
Mg3 O3 2.367178 1_545
Mg3 O3 2.367178 1_555
Mg3 O1 2.380557 1_555
Mg3 O1 2.380557 1_556
Mg3 O4 2.574354 1_655
Mg4 O7 2.114114 1_555
Mg4 O2 2.367178 1_554
Mg4 O2 2.367178 1_555
Mg4 O0 2.380557 1_555
Mg4 O0 2.380557 1_565
Mg4 O6 2.574354 1_555
Mg5 O7 2.114114 1_555
Mg5 O3 2.367178 1_554
Mg5 O3 2.367178 1_555
Mg5 O1 2.380557 1_555
Mg5 O1 2.380557 1_565
Mg5 O6 2.574354 1_655
O0 Rb0 2.436760 1_555
O1 Rb0 2.436760 1_555
O5 Rb0 2.358591 1_555
O5 Rb0 2.358591 1_556
O7 Rb0 2.358591 1_565
O7 Rb0 2.358591 1_555
