# generated using pymatgen
data_Ca2Al2Sn2O9
_symmetry_space_group_name_H-M   'P 1'
_cell_length_a   5.56153100
_cell_length_b   9.09950600
_cell_length_c   15.08608500
_cell_angle_alpha   90.00000000
_cell_angle_beta   90.00000000
_cell_angle_gamma   90.00000000
_symmetry_Int_Tables_number   1
_chemical_formula_structural   Ca2Al2Sn2O9
_chemical_formula_sum   'Ca8 Al8 Sn8 O36'
_cell_volume   763.46429005
_cell_formula_units_Z   4
loop_
 _symmetry_equiv_pos_site_id
 _symmetry_equiv_pos_as_xyz
  1  'x, y, z'
loop_
 _atom_site_type_symbol
 _atom_site_label
 _atom_site_symmetry_multiplicity
 _atom_site_fract_x
 _atom_site_fract_y
 _atom_site_fract_z
 _atom_site_occupancy
  Ca  Ca0  1  0.13769900  0.56730500  0.14576100  1
  Ca  Ca1  1  0.36230100  0.93269500  0.64576100  1
  Ca  Ca2  1  0.36230100  0.06730500  0.85423900  1
  Ca  Ca3  1  0.13769900  0.43269500  0.35423900  1
  Ca  Ca4  1  0.86230100  0.43269500  0.85423900  1
  Ca  Ca5  1  0.63769900  0.06730500  0.35423900  1
  Ca  Ca6  1  0.63769900  0.93269500  0.14576100  1
  Ca  Ca7  1  0.86230100  0.56730500  0.64576100  1
  Al  Al0  1  0.18995800  0.84331100  0.02838900  1
  Al  Al1  1  0.31004200  0.65668900  0.52838900  1
  Al  Al2  1  0.31004200  0.34331100  0.97161100  1
  Al  Al3  1  0.18995800  0.15668900  0.47161100  1
  Al  Al4  1  0.81004200  0.15668900  0.97161100  1
  Al  Al5  1  0.68995800  0.34331100  0.47161100  1
  Al  Al6  1  0.68995800  0.65668900  0.02838900  1
  Al  Al7  1  0.81004200  0.84331100  0.52838900  1
  Sn  Sn0  1  0.13394400  0.84485500  0.33406500  1
  Sn  Sn1  1  0.36605600  0.65514500  0.83406500  1
  Sn  Sn2  1  0.36605600  0.34485500  0.66593500  1
  Sn  Sn3  1  0.13394400  0.15514500  0.16593500  1
  Sn  Sn4  1  0.86605600  0.15514500  0.66593500  1
  Sn  Sn5  1  0.63394400  0.34485500  0.16593500  1
  Sn  Sn6  1  0.63394400  0.65514500  0.33406500  1
  Sn  Sn7  1  0.86605600  0.84485500  0.83406500  1
  O  O0  1  0.30758800  0.66090900  0.40956400  1
  O  O1  1  0.19241200  0.83909100  0.90956400  1
  O  O2  1  0.19241200  0.16090900  0.59043600  1
  O  O3  1  0.30758800  0.33909100  0.09043600  1
  O  O4  1  0.69241200  0.33909100  0.59043600  1
  O  O5  1  0.80758800  0.16090900  0.09043600  1
  O  O6  1  0.80758800  0.83909100  0.40956400  1
  O  O7  1  0.69241200  0.66090900  0.90956400  1
  O  O8  1  0.41959900  0.72790300  0.07157500  1
  O  O9  1  0.08040100  0.77209700  0.57157500  1
  O  O10  1  0.08040100  0.22790300  0.92842500  1
  O  O11  1  0.41959900  0.27209700  0.42842500  1
  O  O12  1  0.58040100  0.27209700  0.92842500  1
  O  O13  1  0.91959900  0.22790300  0.42842500  1
  O  O14  1  0.91959900  0.77209700  0.07157500  1
  O  O15  1  0.58040100  0.72790300  0.57157500  1
  O  O16  1  0.46470600  0.83279000  0.27180500  1
  O  O17  1  0.03529400  0.66721000  0.77180500  1
  O  O18  1  0.03529400  0.33279000  0.72819500  1
  O  O19  1  0.46470600  0.16721000  0.22819500  1
  O  O20  1  0.53529400  0.16721000  0.72819500  1
  O  O21  1  0.96470600  0.33279000  0.22819500  1
  O  O22  1  0.96470600  0.66721000  0.27180500  1
  O  O23  1  0.53529400  0.83279000  0.77180500  1
  O  O24  1  0.27152000  0.01442300  0.07355700  1
  O  O25  1  0.22848000  0.48557700  0.57355700  1
  O  O26  1  0.22848000  0.51442300  0.92644300  1
  O  O27  1  0.27152000  0.98557700  0.42644300  1
  O  O28  1  0.72848000  0.98557700  0.92644300  1
  O  O29  1  0.77152000  0.51442300  0.42644300  1
  O  O30  1  0.77152000  0.48557700  0.07355700  1
  O  O31  1  0.72848000  0.01442300  0.57355700  1
  O  O32  1  0.47149100  0.50000000  0.25000000  1
  O  O33  1  0.02850900  0.00000000  0.75000000  1
  O  O34  1  0.52850900  0.50000000  0.75000000  1
  O  O35  1  0.97149100  0.00000000  0.25000000  1
loop_
_geom_bond_atom_site_label_1
_geom_bond_atom_site_label_2
_geom_bond_distance
_geom_bond_site_symmetry_2
Ca0 O22 2.316857 1_455
Ca0 O8 2.417875 1_555
Ca0 O30 2.426311 1_455
Ca0 O3 2.429354 1_555
Ca0 O14 2.489278 1_455
Ca0 O32 2.508830 1_555
Ca0 O21 2.650667 1_455
Ca1 O23 2.316857 1_555
Ca1 O9 2.417875 1_555
Ca1 O31 2.426311 1_565
Ca1 O2 2.429354 1_565
Ca1 O15 2.489278 1_555
Ca1 O33 2.508830 1_565
Ca1 O20 2.650667 1_565
Ca2 O20 2.316857 1_555
Ca2 O10 2.417875 1_555
Ca2 O28 2.426311 1_545
Ca2 O1 2.429354 1_545
Ca2 O12 2.489278 1_555
Ca2 O33 2.508830 1_555
Ca2 O23 2.650667 1_545
Ca3 O21 2.316857 1_455
Ca3 O11 2.417875 1_555
Ca3 O29 2.426311 1_455
Ca3 O0 2.429354 1_555
Ca3 O13 2.489278 1_455
Ca3 O32 2.508830 1_555
Ca3 O22 2.650667 1_455
Ca4 O18 2.316857 1_655
Ca4 O12 2.417875 1_555
Ca4 O26 2.426311 1_655
Ca4 O7 2.429354 1_555
Ca4 O10 2.489278 1_655
Ca4 O34 2.508830 1_555
Ca4 O17 2.650667 1_655
Ca5 O19 2.316857 1_555
Ca5 O13 2.417875 1_555
Ca5 O27 2.426311 1_545
Ca5 O6 2.429354 1_545
Ca5 O11 2.489278 1_555
Ca5 O35 2.508830 1_555
Ca5 O16 2.650667 1_545
Ca6 O16 2.316857 1_555
Ca6 O14 2.417875 1_555
Ca6 O24 2.426311 1_565
Ca6 O5 2.429354 1_565
Ca6 O8 2.489278 1_555
Ca6 O35 2.508830 1_565
Ca6 O19 2.650667 1_565
Ca7 O17 2.316857 1_655
Ca7 O15 2.417875 1_555
Ca7 O25 2.426311 1_655
Ca7 O4 2.429354 1_555
Ca7 O9 2.489278 1_655
Ca7 O34 2.508830 1_555
Ca7 O18 2.650667 1_655
Al0 O24 1.759101 1_565
Al0 O14 1.762165 1_455
Al0 O8 1.777193 1_555
Al0 O1 1.793067 1_554
Al1 O25 1.759101 1_555
Al1 O15 1.762165 1_555
Al1 O9 1.777193 1_555
Al1 O0 1.793067 1_555
Al2 O26 1.759101 1_555
Al2 O12 1.762165 1_555
Al2 O10 1.777193 1_555
Al2 O3 1.793067 1_556
Al3 O27 1.759101 1_545
Al3 O13 1.762165 1_455
Al3 O11 1.777193 1_555
Al3 O2 1.793067 1_555
Al4 O28 1.759101 1_545
Al4 O10 1.762165 1_655
Al4 O12 1.777193 1_555
Al4 O5 1.793067 1_556
Al5 O29 1.759101 1_555
Al5 O11 1.762165 1_555
Al5 O13 1.777193 1_555
Al5 O4 1.793067 1_555
Al6 O30 1.759101 1_555
Al6 O8 1.762165 1_555
Al6 O14 1.777193 1_555
Al6 O7 1.793067 1_554
Al7 O31 1.759101 1_565
Al7 O9 1.762165 1_655
Al7 O15 1.777193 1_555
Al7 O6 1.793067 1_555
O0 Sn6 2.143456 1_555
O0 Sn0 2.243118 1_555
O1 Sn7 2.143456 1_455
O1 Sn1 2.243118 1_555
O2 Sn4 2.143456 1_455
O2 Sn2 2.243118 1_555
O3 Sn5 2.143456 1_555
O3 Sn3 2.243118 1_555
O4 Sn2 2.143456 1_555
O4 Sn4 2.243118 1_555
O5 Sn3 2.143456 1_655
O5 Sn5 2.243118 1_555
O6 Sn0 2.143456 1_655
O6 Sn6 2.243118 1_555
O7 Sn1 2.143456 1_555
O7 Sn7 2.243118 1_555
O16 Sn0 2.068376 1_555
O16 Sn6 2.093113 1_555
O17 Sn1 2.068376 1_555
O17 Sn7 2.093113 1_455
O18 Sn2 2.068376 1_555
O18 Sn4 2.093113 1_455
O19 Sn3 2.068376 1_555
O19 Sn5 2.093113 1_555
O20 Sn4 2.068376 1_555
O20 Sn2 2.093113 1_555
O21 Sn5 2.068376 1_555
O21 Sn3 2.093113 1_655
O22 Sn6 2.068376 1_555
O22 Sn0 2.093113 1_655
O23 Sn7 2.068376 1_555
O23 Sn1 2.093113 1_555
O24 Sn3 2.041395 1_555
O25 Sn2 2.041395 1_555
O26 Sn1 2.041395 1_555
O27 Sn0 2.041395 1_555
O28 Sn7 2.041395 1_555
O29 Sn6 2.041395 1_555
O30 Sn5 2.041395 1_555
O31 Sn4 2.041395 1_555
O32 Sn5 2.101825 1_555
O32 Sn6 2.101825 1_555
O33 Sn7 2.101825 1_445
O33 Sn4 2.101825 1_455
O34 Sn1 2.101825 1_555
O34 Sn2 2.101825 1_555
O35 Sn0 2.101825 1_645
O35 Sn3 2.101825 1_655
