# generated using pymatgen
data_Ba3(AlPt)4
_symmetry_space_group_name_H-M   'P 1'
_cell_length_a   6.82679599
_cell_length_b   6.82679599
_cell_length_c   11.96657100
_cell_angle_alpha   90.00000000
_cell_angle_beta   90.00000000
_cell_angle_gamma   105.86408832
_symmetry_Int_Tables_number   1
_chemical_formula_structural   Ba3(AlPt)4
_chemical_formula_sum   'Ba6 Al8 Pt8'
_cell_volume   536.46240137
_cell_formula_units_Z   2
loop_
 _symmetry_equiv_pos_site_id
 _symmetry_equiv_pos_as_xyz
  1  'x, y, z'
loop_
 _atom_site_type_symbol
 _atom_site_label
 _atom_site_symmetry_multiplicity
 _atom_site_fract_x
 _atom_site_fract_y
 _atom_site_fract_z
 _atom_site_occupancy
  Ba  Ba0  1  0.21874200  0.78125800  0.50000000  1
  Ba  Ba1  1  0.21874200  0.78125800  0.00000000  1
  Ba  Ba2  1  0.78125800  0.21874200  0.50000000  1
  Ba  Ba3  1  0.78125800  0.21874200  0.00000000  1
  Ba  Ba4  1  0.02338900  0.02338900  0.25000000  1
  Ba  Ba5  1  0.97661100  0.97661100  0.75000000  1
  Al  Al0  1  0.51354300  0.78406100  0.25000000  1
  Al  Al1  1  0.21593900  0.48645700  0.75000000  1
  Al  Al2  1  0.48645700  0.21593900  0.75000000  1
  Al  Al3  1  0.78406100  0.51354300  0.25000000  1
  Al  Al4  1  0.39734400  0.39734400  0.37542100  1
  Al  Al5  1  0.60265600  0.60265600  0.62457900  1
  Al  Al6  1  0.39734400  0.39734400  0.12457900  1
  Al  Al7  1  0.60265600  0.60265600  0.87542100  1
  Pt  Pt0  1  0.53271900  0.16055200  0.25000000  1
  Pt  Pt1  1  0.83944800  0.46728100  0.75000000  1
  Pt  Pt2  1  0.46728100  0.83944800  0.75000000  1
  Pt  Pt3  1  0.16055200  0.53271900  0.25000000  1
  Pt  Pt4  1  0.30044900  0.30044900  0.92610000  1
  Pt  Pt5  1  0.69955100  0.69955100  0.07390000  1
  Pt  Pt6  1  0.30044900  0.30044900  0.57390000  1
  Pt  Pt7  1  0.69955100  0.69955100  0.42610000  1
loop_
_geom_bond_atom_site_label_1
_geom_bond_atom_site_label_2
_geom_bond_distance
_geom_bond_site_symmetry_2
Ba0 Pt3 3.408535 1_555
Ba0 Pt2 3.408535 1_555
Ba0 Pt6 3.546145 1_565
Ba0 Pt7 3.546145 1_455
Ba0 Pt6 3.587228 1_555
Ba0 Pt7 3.587228 1_555
Ba1 Pt3 3.408535 1_555
Ba1 Pt2 3.408535 1_554
Ba1 Pt4 3.546145 1_564
Ba1 Pt5 3.546145 1_455
Ba1 Pt4 3.587228 1_554
Ba1 Pt5 3.587228 1_555
Ba2 Pt0 3.408535 1_555
Ba2 Pt1 3.408535 1_555
Ba2 Pt6 3.546145 1_655
Ba2 Pt7 3.546145 1_545
Ba2 Pt6 3.587228 1_555
Ba2 Pt7 3.587228 1_555
Ba3 Pt0 3.408535 1_555
Ba3 Pt1 3.408535 1_554
Ba3 Pt5 3.546145 1_545
Ba3 Pt4 3.546145 1_654
Ba3 Pt5 3.587228 1_555
Ba3 Pt4 3.587228 1_554
Ba4 Pt3 3.344689 1_555
Ba4 Pt0 3.344689 1_555
Ba4 Pt7 3.397610 1_445
Ba4 Pt5 3.397610 1_445
Ba4 Pt0 3.716471 1_455
Ba4 Pt3 3.716471 1_545
Ba5 Pt2 3.344689 1_555
Ba5 Pt1 3.344689 1_555
Ba5 Pt6 3.397610 1_665
Ba5 Pt4 3.397610 1_665
Ba5 Pt2 3.716471 1_655
Ba5 Pt1 3.716471 1_565
Al0 Pt0 2.537568 1_565
Al0 Pt3 2.547688 1_555
Al0 Pt7 2.605118 1_555
Al0 Pt5 2.605118 1_555
Al0 Ba4 3.416883 1_665
Al0 Ba1 3.602718 1_555
Al0 Ba0 3.602718 1_555
Al1 Pt1 2.537568 1_455
Al1 Pt2 2.547688 1_555
Al1 Pt4 2.605118 1_555
Al1 Pt6 2.605118 1_555
Al1 Ba5 3.416883 1_445
Al1 Ba0 3.602718 1_555
Al1 Ba1 3.602718 1_556
Al2 Pt2 2.537568 1_545
Al2 Pt1 2.547688 1_555
Al2 Pt4 2.605118 1_555
Al2 Pt6 2.605118 1_555
Al2 Ba5 3.416883 1_445
Al2 Ba3 3.602718 1_556
Al2 Ba2 3.602718 1_555
Al3 Pt3 2.537568 1_655
Al3 Pt0 2.547688 1_555
Al3 Pt7 2.605118 1_555
Al3 Pt5 2.605118 1_555
Al3 Ba4 3.416883 1_665
Al3 Ba2 3.602718 1_555
Al3 Ba3 3.602718 1_555
Al4 Pt6 2.505406 1_555
Al4 Pt3 2.556682 1_555
Al4 Pt0 2.556682 1_555
Al4 Pt7 2.559993 1_555
Al4 Ba4 3.424061 1_555
Al4 Ba0 3.510739 1_555
Al4 Ba2 3.510739 1_555
Al5 Pt7 2.505406 1_555
Al5 Pt1 2.556682 1_555
Al5 Pt2 2.556682 1_555
Al5 Pt6 2.559993 1_555
Al5 Ba5 3.424061 1_555
Al5 Ba2 3.510739 1_555
Al5 Ba0 3.510739 1_555
Al6 Pt4 2.505406 1_554
Al6 Pt3 2.556682 1_555
Al6 Pt0 2.556682 1_555
Al6 Pt5 2.559993 1_555
Al6 Ba4 3.424061 1_555
Al6 Ba3 3.510739 1_555
Al6 Ba1 3.510739 1_555
Al7 Pt5 2.505406 1_556
Al7 Pt1 2.556682 1_555
Al7 Pt2 2.556682 1_555
Al7 Pt4 2.559993 1_555
Al7 Ba5 3.424061 1_555
Al7 Ba3 3.510739 1_556
Al7 Ba1 3.510739 1_556
