# generated using pymatgen
data_Dy3(Si3Pd10)2
_symmetry_space_group_name_H-M   'P 1'
_cell_length_a   8.64072228
_cell_length_b   8.64071305
_cell_length_c   8.64078843
_cell_angle_alpha   59.99995013
_cell_angle_beta   59.99987908
_cell_angle_gamma   59.99998487
_symmetry_Int_Tables_number   1
_chemical_formula_structural   Dy3(Si3Pd10)2
_chemical_formula_sum   'Dy3 Si6 Pd20'
_cell_volume   456.18121076
_cell_formula_units_Z   1
loop_
 _symmetry_equiv_pos_site_id
 _symmetry_equiv_pos_as_xyz
  1  'x, y, z'
loop_
 _atom_site_type_symbol
 _atom_site_label
 _atom_site_symmetry_multiplicity
 _atom_site_fract_x
 _atom_site_fract_y
 _atom_site_fract_z
 _atom_site_occupancy
  Dy  Dy0  1  0.25000248  0.25001846  0.24998530  1
  Dy  Dy1  1  0.74999730  0.74998430  0.75001269  1
  Dy  Dy2  1  -0.00000387  0.00000442  -0.00000430  1
  Si  Si0  1  0.73302030  0.26699092  0.26697294  1
  Si  Si1  1  0.26698647  0.73300108  0.73303486  1
  Si  Si2  1  0.26698609  0.73300553  0.26697896  1
  Si  Si3  1  0.73301190  0.26699292  0.73302193  1
  Si  Si4  1  0.26697291  0.26698455  0.73302763  1
  Si  Si5  1  0.73303394  0.73300833  0.26697877  1
  Pd  Pd0  1  0.38362285  0.38366796  0.38362155  1
  Pd  Pd1  1  0.61636745  0.61636632  0.61636120  1
  Pd  Pd2  1  0.38360644  0.38365565  0.84910277  1
  Pd  Pd3  1  0.38363282  0.84908376  0.38362616  1
  Pd  Pd4  1  0.61636264  0.61635798  0.15090868  1
  Pd  Pd5  1  0.61635991  0.15090436  0.61636116  1
  Pd  Pd6  1  0.84911647  0.38365363  0.38359998  1
  Pd  Pd7  1  0.15089531  0.61636157  0.61636495  1
  Pd  Pd8  1  0.34573229  -0.00001479  0.00001828  1
  Pd  Pd9  1  0.65425776  0.99998182  0.00001628  1
  Pd  Pd10  1  0.00000377  0.34575990  0.65425741  1
  Pd  Pd11  1  0.00001929  0.65425113  0.34573287  1
  Pd  Pd12  1  -0.00000814  0.34575813  -0.00000401  1
  Pd  Pd13  1  0.65426535  -0.00000073  0.34572986  1
  Pd  Pd14  1  0.00000326  0.65424418  0.00000731  1
  Pd  Pd15  1  0.34573348  -0.00000312  0.65426808  1
  Pd  Pd16  1  0.00001714  -0.00001227  0.34572607  1
  Pd  Pd17  1  0.00001282  -0.00001711  0.65426414  1
  Pd  Pd18  1  0.65424898  0.34576591  0.00000660  1
  Pd  Pd19  1  0.34574258  0.65424419  0.00001988  1
loop_
_geom_bond_atom_site_label_1
_geom_bond_atom_site_label_2
_geom_bond_distance
_geom_bond_site_symmetry_2
Dy0 Pd2 2.828293 1_554
Dy0 Pd6 2.828296 1_455
Dy0 Pd0 2.828448 1_555
Dy0 Pd3 2.828639 1_545
Dy1 Pd7 2.828381 1_655
Dy1 Pd4 2.828388 1_556
Dy1 Pd1 2.828400 1_555
Dy1 Pd5 2.828536 1_565
Dy2 Pd13 2.987384 1_455
Dy2 Pd15 2.987384 1_554
Dy2 Pd16 2.987402 1_555
Dy2 Pd17 2.987414 1_554
Dy2 Pd8 2.987425 1_555
Dy2 Pd9 2.987438 1_445
Dy2 Pd11 2.987496 1_545
Dy2 Pd10 2.987510 1_554
Dy2 Pd14 2.987534 1_545
Dy2 Pd12 2.987541 1_555
Dy2 Pd19 2.987556 1_545
Dy2 Pd18 2.987565 1_455
Pd0 Si2 2.464617 1_555
Pd0 Si0 2.465041 1_555
Pd0 Si4 2.465119 1_555
Pd1 Si3 2.464870 1_555
Pd1 Si1 2.464924 1_555
Pd1 Si5 2.464953 1_555
Pd2 Si1 2.464673 1_555
Pd2 Si4 2.464924 1_555
Pd2 Si3 2.465097 1_555
Pd3 Si2 2.464871 1_555
Pd3 Si5 2.465066 1_555
Pd3 Si1 2.465138 1_555
Pd4 Si0 2.464825 1_555
Pd4 Si2 2.464893 1_555
Pd4 Si5 2.465009 1_555
Pd5 Si4 2.464967 1_555
Pd5 Si0 2.464993 1_555
Pd5 Si3 2.465077 1_555
Pd6 Si5 2.464738 1_555
Pd6 Si0 2.464968 1_555
Pd6 Si3 2.465231 1_555
Pd7 Si4 2.464895 1_555
Pd7 Si2 2.464978 1_555
Pd7 Si1 2.465071 1_555
Pd8 Si2 2.405097 1_545
Pd8 Si4 2.405309 1_554
Pd9 Si5 2.405124 1_555
Pd9 Si3 2.405384 1_564
Pd10 Si4 2.405112 1_555
Pd10 Si3 2.405307 1_455
Pd11 Si2 2.405062 1_555
Pd11 Si5 2.405213 1_455
Pd12 Si0 2.405152 1_455
Pd12 Si4 2.405168 1_554
Pd13 Si5 2.405206 1_545
Pd13 Si0 2.405261 1_555
Pd14 Si5 2.405128 1_455
Pd14 Si1 2.405176 1_554
Pd15 Si1 2.405224 1_545
Pd15 Si4 2.405248 1_555
Pd16 Si2 2.405134 1_545
Pd16 Si0 2.405330 1_455
Pd17 Si1 2.405186 1_545
Pd17 Si3 2.405403 1_455
Pd18 Si0 2.405109 1_555
Pd18 Si3 2.405303 1_554
Pd19 Si2 2.405047 1_555
Pd19 Si1 2.405235 1_554
