# generated using pymatgen
data_Li6MnV3(PO4)6
_symmetry_space_group_name_H-M   'P 1'
_cell_length_a   9.84316700
_cell_length_b   9.84847221
_cell_length_c   9.89396781
_cell_angle_alpha   86.98584670
_cell_angle_beta   86.96458691
_cell_angle_gamma   87.50298340
_symmetry_Int_Tables_number   1
_chemical_formula_structural   Li6MnV3(PO4)6
_chemical_formula_sum   'Li12 Mn2 V6 P12 O48'
_cell_volume   955.65193262
_cell_formula_units_Z   2
loop_
 _symmetry_equiv_pos_site_id
 _symmetry_equiv_pos_as_xyz
  1  'x, y, z'
loop_
 _atom_site_type_symbol
 _atom_site_label
 _atom_site_symmetry_multiplicity
 _atom_site_fract_x
 _atom_site_fract_y
 _atom_site_fract_z
 _atom_site_occupancy
  Li  Li0  1  0.01609500  0.95323400  0.99843100  1
  Li  Li1  1  0.85582800  0.26677500  0.94727000  1
  Li  Li2  1  0.26564100  0.92881700  0.86741800  1
  Li  Li3  1  0.35209500  0.44466000  0.77133200  1
  Li  Li4  1  0.05015300  0.15037300  0.72832400  1
  Li  Li5  1  0.57561700  0.23360100  0.63505800  1
  Li  Li6  1  0.23640800  0.64037800  0.55716000  1
  Li  Li7  1  0.54888300  0.48288800  0.50344100  1
  Li  Li8  1  0.45299200  0.76382000  0.35415500  1
  Li  Li9  1  0.65255500  0.53801100  0.22829500  1
  Li  Li10  1  0.95510600  0.85476100  0.26679700  1
  Li  Li11  1  0.73191400  0.04978900  0.14809300  1
  Mn  Mn0  1  0.75473900  0.97798900  0.52930300  1
  Mn  Mn1  1  0.46875200  0.24779500  0.02874900  1
  V  V0  1  0.52440900  0.74517400  0.96711500  1
  V  V1  1  0.74834000  0.75325100  0.74887500  1
  V  V2  1  0.96372300  0.53390900  0.74837400  1
  V  V3  1  0.25264200  0.03919000  0.46504600  1
  V  V4  1  0.02837900  0.46859500  0.25009800  1
  V  V5  1  0.24968600  0.25242100  0.24765700  1
  P  P0  1  0.14153400  0.33008300  0.94780800  1
  P  P1  1  0.66835800  0.05022700  0.86007700  1
  P  P2  1  0.64459100  0.44995800  0.82542700  1
  P  P3  1  0.04813200  0.85664000  0.67200500  1
  P  P4  1  0.45382000  0.83498600  0.64298100  1
  P  P5  1  0.17026500  0.35351800  0.55068300  1
  P  P6  1  0.82448800  0.65144400  0.45034600  1
  P  P7  1  0.55238300  0.17941400  0.35619000  1
  P  P8  1  0.95122300  0.14760600  0.32590500  1
  P  P9  1  0.35223400  0.54587700  0.16849400  1
  P  P10  1  0.32552100  0.95208600  0.14844200  1
  P  P11  1  0.84490600  0.67650800  0.04727500  1
  O  O0  1  0.59814900  0.38274500  0.96514400  1
  O  O1  1  0.77619400  0.09289600  0.95316200  1
  O  O2  1  0.87631700  0.67130200  0.88676200  1
  O  O3  1  0.66328900  0.88892600  0.87914200  1
  O  O4  1  0.29400600  0.30728500  0.90758000  1
  O  O5  1  0.52430800  0.11161800  0.90288700  1
  O  O6  1  0.05010800  0.21830100  0.90695000  1
  O  O7  1  0.09536100  0.47019000  0.88298900  1
  O  O8  1  0.61929900  0.60996400  0.82852800  1
  O  O9  1  0.79906800  0.41202600  0.80880100  1
  O  O10  1  0.41874300  0.80956300  0.79802800  1
  O  O11  1  0.08977300  0.93897400  0.79007500  1
  O  O12  1  0.88695700  0.88374800  0.66813700  1
  O  O13  1  0.55687800  0.40717000  0.71247500  1
  O  O14  1  0.69469000  0.09253900  0.70937100  1
  O  O15  1  0.08427100  0.70136600  0.68482400  1
  O  O16  1  0.61553100  0.84012100  0.61840600  1
  O  O17  1  0.82718200  0.62263800  0.61251900  1
  O  O18  1  0.38800000  0.97421700  0.60191100  1
  O  O19  1  0.03090400  0.39218100  0.62166200  1
  O  O20  1  0.28140800  0.44378900  0.59434800  1
  O  O21  1  0.41019600  0.72182500  0.55612000  1
  O  O22  1  0.19501400  0.19800500  0.58761500  1
  O  O23  1  0.11376000  0.91008800  0.53613600  1
  O  O24  1  0.88751100  0.10993700  0.46998000  1
  O  O25  1  0.82504700  0.80598800  0.41557400  1
  O  O26  1  0.69827000  0.58557200  0.40630000  1
  O  O27  1  0.58764600  0.29356500  0.44349200  1
  O  O28  1  0.96083800  0.59078900  0.39022000  1
  O  O29  1  0.61533700  0.03825300  0.40692900  1
  O  O30  1  0.16415100  0.37559900  0.39179000  1
  O  O31  1  0.38922700  0.17049000  0.37600200  1
  O  O32  1  0.31000400  0.91612400  0.30474000  1
  O  O33  1  0.92073600  0.29929400  0.29060400  1
  O  O34  1  0.44584900  0.59038000  0.27527800  1
  O  O35  1  0.11295400  0.12103900  0.32979400  1
  O  O36  1  0.90653500  0.05127500  0.22224500  1
  O  O37  1  0.19960300  0.57310400  0.20112200  1
  O  O38  1  0.59402000  0.19375200  0.20411400  1
  O  O39  1  0.38255800  0.38358800  0.16270100  1
  O  O40  1  0.89136900  0.53978300  0.11676300  1
  O  O41  1  0.91324200  0.80045100  0.09194000  1
  O  O42  1  0.46245500  0.88256600  0.10195500  1
  O  O43  1  0.68678000  0.68369300  0.07610900  1
  O  O44  1  0.33789800  0.11401600  0.12314200  1
  O  O45  1  0.20787800  0.91632000  0.06517600  1
  O  O46  1  0.12268400  0.33495900  0.10827500  1
  O  O47  1  0.39332500  0.60746900  0.02555400  1
loop_
_geom_bond_atom_site_label_1
_geom_bond_atom_site_label_2
_geom_bond_distance
_geom_bond_site_symmetry_2
Li0 O41 2.008009 1_456
Li0 O45 2.044222 1_556
Li0 O11 2.158370 1_555
Li1 O1 1.910995 1_555
Li1 O6 1.975789 1_655
Li1 O9 2.010154 1_555
Li2 O11 1.925990 1_555
Li2 O10 1.985647 1_555
Li2 O45 2.007412 1_556
Li3 O20 1.918745 1_555
Li3 O4 1.941270 1_555
Li3 O13 2.090928 1_555
Li4 O6 1.922289 1_555
Li4 O22 1.992669 1_555
Li4 O11 2.163476 1_545
Li4 O19 2.557029 1_555
Li5 O13 1.907352 1_555
Li5 O14 1.919967 1_555
Li5 O27 1.954413 1_555
Li6 O21 1.920047 1_555
Li6 O20 1.986878 1_555
Li6 O15 1.999955 1_555
Li7 O26 1.996572 1_555
Li7 O27 2.001063 1_555
Li7 O13 2.165538 1_555
Li8 O34 1.920446 1_555
Li8 O21 2.044644 1_555
Li8 O32 2.069214 1_555
Li9 O26 1.926830 1_555
Li9 O43 2.049485 1_555
Li9 O34 2.110797 1_555
Li9 O40 2.543730 1_555
Li10 O41 1.908118 1_555
Li10 O25 1.953468 1_555
Li10 O36 2.005114 1_565
Li11 O36 1.905176 1_555
Li11 O1 1.982637 1_554
Li11 O38 1.998750 1_555
Mn0 O24 1.930718 1_565
Mn0 O29 1.931433 1_565
Mn0 O12 2.095713 1_555
Mn0 O16 2.099204 1_555
Mn0 O25 2.151830 1_555
Mn0 O14 2.199515 1_565
Mn1 O5 1.920418 1_554
Mn1 O0 1.938894 1_554
Mn1 O44 2.039148 1_555
Mn1 O39 2.057485 1_555
Mn1 O4 2.189927 1_554
Mn1 O38 2.210508 1_555
O0 P2 1.556041 1_555
O1 P1 1.527927 1_555
O2 P11 1.604836 1_556
O2 V1 2.019161 1_555
O2 V2 2.101067 1_555
O3 P1 1.592488 1_565
O3 V1 2.028986 1_555
O3 V0 2.131592 1_555
O4 P0 1.542084 1_555
O5 P1 1.563345 1_555
O6 P0 1.535210 1_555
O7 P0 1.550796 1_555
O7 V2 1.967395 1_455
O8 P2 1.586254 1_555
O8 V1 2.039361 1_555
O8 V0 2.115115 1_555
O9 P2 1.552142 1_555
O9 V2 2.101544 1_555
O10 P4 1.564031 1_555
O10 V0 2.073133 1_555
O11 P3 1.539296 1_555
O12 P3 1.599401 1_655
O12 V1 2.020126 1_555
O13 P2 1.534700 1_555
O14 P1 1.538598 1_555
O15 P3 1.555022 1_555
O15 V2 2.122638 1_455
O16 P4 1.600023 1_555
O16 V1 2.017995 1_555
O17 P6 1.616074 1_555
O17 V1 2.015352 1_555
O17 V2 2.083775 1_555
O18 P4 1.535240 1_555
O18 V3 2.010961 1_565
O19 P5 1.549340 1_555
O19 V2 1.993259 1_455
O20 P5 1.532660 1_555
O21 P4 1.531823 1_555
O22 P5 1.567361 1_555
O22 V3 2.070764 1_555
O23 P3 1.537765 1_555
O23 V3 1.983857 1_565
O24 P8 1.559767 1_555
O25 P6 1.542855 1_555
O26 P6 1.520393 1_555
O27 P7 1.516013 1_555
O28 P6 1.547565 1_555
O28 V4 1.954570 1_655
O29 P7 1.566269 1_555
O30 P5 1.579646 1_555
O30 V5 2.044479 1_555
O30 V4 2.132347 1_555
O31 P7 1.613208 1_555
O31 V5 2.032373 1_555
O31 V3 2.040099 1_555
O32 P10 1.569153 1_555
O32 V3 2.085919 1_565
O33 P8 1.536531 1_555
O33 V4 2.025345 1_655
O34 P9 1.531150 1_555
O35 P8 1.604170 1_455
O35 V5 2.017754 1_555
O35 V3 2.077473 1_555
O36 P8 1.527051 1_555
O37 P9 1.534886 1_555
O37 V4 2.036395 1_555
O38 P7 1.539229 1_555
O39 P9 1.616536 1_555
O39 V5 2.000603 1_555
O40 P11 1.541839 1_555
O40 V4 2.014789 1_655
O41 P11 1.515742 1_555
O42 P10 1.544054 1_555
O42 V0 2.003591 1_554
O43 P11 1.566673 1_555
O43 V0 2.028167 1_554
O44 P10 1.610121 1_545
O44 V5 2.022320 1_555
O45 P10 1.520125 1_555
O46 P0 1.591674 1_554
O46 V5 2.025195 1_555
O46 V4 2.124283 1_555
O47 P9 1.549905 1_555
O47 V0 1.956877 1_554
