# generated using pymatgen
data_SrMg14C
_symmetry_space_group_name_H-M   'P 1'
_cell_length_a   6.48887730
_cell_length_b   6.48887675
_cell_length_c   10.15728990
_cell_angle_alpha   90.00000000
_cell_angle_beta   90.00000000
_cell_angle_gamma   120.00000280
_symmetry_Int_Tables_number   1
_chemical_formula_structural   SrMg14C
_chemical_formula_sum   'Sr1 Mg14 C1'
_cell_volume   370.38002328
_cell_formula_units_Z   1
loop_
 _symmetry_equiv_pos_site_id
 _symmetry_equiv_pos_as_xyz
  1  'x, y, z'
loop_
 _atom_site_type_symbol
 _atom_site_label
 _atom_site_symmetry_multiplicity
 _atom_site_fract_x
 _atom_site_fract_y
 _atom_site_fract_z
 _atom_site_occupancy
  Sr  Sr0  1  0.16666700  0.33333300  0.12500000  1
  Mg  Mg0  1  0.18271753  0.84135827  0.12500000  1
  Mg  Mg1  1  0.14905462  0.82452681  0.62500000  1
  Mg  Mg2  1  0.65864173  0.31728247  0.12500000  1
  Mg  Mg3  1  0.67547319  0.35094538  0.62500000  1
  Mg  Mg4  1  0.65864173  0.84135827  0.12500000  1
  Mg  Mg5  1  0.67547319  0.82452681  0.62500000  1
  Mg  Mg6  1  0.32603738  0.17396262  0.40696119  1
  Mg  Mg7  1  0.32603738  0.17396262  0.84303881  1
  Mg  Mg8  1  0.32603738  0.65207577  0.40696119  1
  Mg  Mg9  1  0.32603738  0.65207577  0.84303881  1
  Mg  Mg10  1  0.84792423  0.17396262  0.40696119  1
  Mg  Mg11  1  0.84792423  0.17396262  0.84303881  1
  Mg  Mg12  1  0.83333300  0.66666700  0.36354524  1
  Mg  Mg13  1  0.83333300  0.66666700  0.88645476  1
  C  C0  1  0.16666700  0.33333300  0.62500000  1
loop_
_geom_bond_atom_site_label_1
_geom_bond_atom_site_label_2
_geom_bond_distance
_geom_bond_site_symmetry_2
Mg0 Mg2 3.088213 1_565
Mg0 Mg4 3.088214 1_555
Mg0 Mg13 3.118598 1_454
Mg0 Mg12 3.118598 1_455
Mg0 Sr0 3.245692 1_565
Mg0 Sr0 3.245692 1_555
Mg0 Mg2 3.400663 1_455
Mg0 Mg4 3.400664 1_455
Mg0 Mg9 3.423147 1_554
Mg0 Mg8 3.423147 1_555
Mg0 Mg6 3.423153 1_565
Mg0 Mg7 3.423153 1_564
Mg1 Mg8 2.959895 1_555
Mg1 Mg9 2.959895 1_555
Mg1 Mg7 2.959902 1_565
Mg1 Mg6 2.959902 1_565
Mg1 Mg3 3.073012 1_455
Mg1 Mg5 3.073012 1_455
Mg1 Mg13 3.193807 1_455
Mg1 Mg12 3.193807 1_455
Mg1 Mg3 3.415865 1_565
Mg1 Mg5 3.415866 1_555
Mg2 Mg4 3.088213 1_545
Mg2 Sr0 3.245692 1_555
Mg2 Sr0 3.245692 1_655
Mg2 Mg4 3.400663 1_555
Mg2 Mg6 3.423153 1_555
Mg2 Mg7 3.423153 1_554
Mg3 Mg6 2.959902 1_555
Mg3 Mg7 2.959902 1_555
Mg3 Mg5 3.073012 1_555
Mg3 Mg5 3.415865 1_545
Mg4 Sr0 3.245692 1_555
Mg4 Sr0 3.245692 1_665
Mg4 Mg8 3.423153 1_555
Mg4 Mg9 3.423153 1_554
Mg5 Mg8 2.959902 1_555
Mg5 Mg9 2.959902 1_555
Mg6 Sr0 3.377955 1_555
Mg7 Sr0 3.377955 1_556
Mg8 Sr0 3.377961 1_555
Mg9 Sr0 3.377961 1_556
Mg10 Mg3 2.959895 1_555
Mg10 Mg5 2.959902 1_545
Mg10 Mg12 3.275298 1_555
Mg10 Mg12 3.275298 1_545
Mg10 Sr0 3.377961 1_655
Mg10 Mg2 3.423147 1_555
Mg10 Mg4 3.423153 1_545
Mg11 Mg3 2.959895 1_555
Mg11 Mg5 2.959902 1_545
Mg11 Mg13 3.275298 1_555
Mg11 Mg13 3.275298 1_545
Mg11 Sr0 3.377961 1_656
Mg11 Mg2 3.423147 1_556
Mg11 Mg4 3.423153 1_546
Mg12 Mg4 3.118591 1_555
Mg12 Mg2 3.118597 1_555
Mg12 Mg5 3.193801 1_555
Mg12 Mg3 3.193807 1_555
Mg12 Mg6 3.275298 1_665
Mg12 Mg6 3.275298 1_555
Mg12 Mg8 3.275298 1_655
Mg12 Mg8 3.275298 1_555
Mg13 Mg4 3.118591 1_556
Mg13 Mg2 3.118597 1_556
Mg13 Mg5 3.193801 1_555
Mg13 Mg3 3.193807 1_555
Mg13 Mg7 3.275298 1_665
Mg13 Mg7 3.275298 1_555
Mg13 Mg9 3.275298 1_655
Mg13 Mg9 3.275298 1_555
C0 Mg6 2.848355 1_555
C0 Mg7 2.848355 1_555
C0 Mg8 2.848362 1_555
C0 Mg9 2.848362 1_555
C0 Mg11 2.848362 1_455
C0 Mg10 2.848362 1_455
