# generated using pymatgen
data_HfMg14C
_symmetry_space_group_name_H-M   'P 1'
_cell_length_a   6.28146245
_cell_length_b   6.28146196
_cell_length_c   9.84891772
_cell_angle_alpha   90.00000000
_cell_angle_beta   90.00000000
_cell_angle_gamma   120.00000261
_symmetry_Int_Tables_number   1
_chemical_formula_structural   HfMg14C
_chemical_formula_sum   'Hf1 Mg14 C1'
_cell_volume   336.54305424
_cell_formula_units_Z   1
loop_
 _symmetry_equiv_pos_site_id
 _symmetry_equiv_pos_as_xyz
  1  'x, y, z'
loop_
 _atom_site_type_symbol
 _atom_site_label
 _atom_site_symmetry_multiplicity
 _atom_site_fract_x
 _atom_site_fract_y
 _atom_site_fract_z
 _atom_site_occupancy
  Hf  Hf0  1  0.16666700  0.33333300  0.62500000  1
  Mg  Mg0  1  0.15880183  0.82940042  0.12500000  1
  Mg  Mg1  1  0.17925606  0.83962753  0.62500000  1
  Mg  Mg2  1  0.67059958  0.34119817  0.12500000  1
  Mg  Mg3  1  0.66037247  0.32074394  0.62500000  1
  Mg  Mg4  1  0.67059958  0.82940042  0.12500000  1
  Mg  Mg5  1  0.66037247  0.83962753  0.62500000  1
  Mg  Mg6  1  0.32224086  0.17775914  0.36049758  1
  Mg  Mg7  1  0.32224086  0.17775914  0.88950242  1
  Mg  Mg8  1  0.32224086  0.64448271  0.36049758  1
  Mg  Mg9  1  0.32224086  0.64448271  0.88950242  1
  Mg  Mg10  1  0.85551729  0.17775914  0.36049758  1
  Mg  Mg11  1  0.85551729  0.17775914  0.88950242  1
  Mg  Mg12  1  0.83333300  0.66666700  0.38567156  1
  Mg  Mg13  1  0.83333300  0.66666700  0.86432844  1
  C  C0  1  0.16666700  0.33333300  0.12500000  1
loop_
_geom_bond_atom_site_label_1
_geom_bond_atom_site_label_2
_geom_bond_distance
_geom_bond_site_symmetry_2
Hf0 Mg6 3.106653 1_555
Hf0 Mg7 3.106653 1_555
Hf0 Mg8 3.106659 1_555
Hf0 Mg9 3.106659 1_555
Hf0 Mg11 3.106659 1_455
Hf0 Mg10 3.106659 1_455
Hf0 Mg5 3.141478 1_555
Hf0 Mg1 3.141478 1_555
Hf0 Mg5 3.141478 1_445
Hf0 Mg1 3.141478 1_545
Hf0 Mg3 3.141478 1_455
Hf0 Mg3 3.141478 1_555
Mg0 Mg12 3.118644 1_455
Mg0 Mg13 3.118644 1_454
Mg1 Mg12 3.016152 1_455
Mg1 Mg13 3.016152 1_455
Mg1 Mg3 3.022114 1_565
Mg1 Mg5 3.022115 1_555
Mg1 Mg8 3.193205 1_555
Mg1 Mg9 3.193205 1_555
Mg1 Mg6 3.193211 1_565
Mg1 Mg7 3.193211 1_565
Mg1 Mg3 3.259348 1_455
Mg1 Mg5 3.259348 1_455
Mg3 Mg5 3.022114 1_545
Mg3 Mg6 3.193211 1_555
Mg3 Mg7 3.193211 1_555
Mg3 Mg5 3.259348 1_555
Mg5 Mg9 3.193211 1_555
Mg5 Mg8 3.193211 1_555
Mg10 Mg12 3.152813 1_545
Mg10 Mg12 3.152813 1_555
Mg10 Mg3 3.193205 1_555
Mg10 Mg5 3.193210 1_545
Mg11 Mg13 3.152813 1_545
Mg11 Mg13 3.152813 1_555
Mg11 Mg3 3.193205 1_555
Mg11 Mg5 3.193210 1_545
Mg12 Mg5 3.016145 1_555
Mg12 Mg3 3.016152 1_555
Mg12 Mg4 3.118637 1_555
Mg12 Mg2 3.118644 1_555
Mg12 Mg6 3.152813 1_665
Mg12 Mg6 3.152813 1_555
Mg12 Mg8 3.152813 1_555
Mg12 Mg8 3.152813 1_655
Mg13 Mg5 3.016145 1_555
Mg13 Mg3 3.016152 1_555
Mg13 Mg4 3.118637 1_556
Mg13 Mg2 3.118644 1_556
Mg13 Mg7 3.152813 1_665
Mg13 Mg7 3.152813 1_555
Mg13 Mg9 3.152813 1_555
Mg13 Mg9 3.152813 1_655
C0 Mg7 2.871331 1_554
C0 Mg6 2.871331 1_555
C0 Mg9 2.871337 1_554
C0 Mg8 2.871337 1_555
C0 Mg11 2.871337 1_454
C0 Mg10 2.871337 1_455
