# generated using pymatgen
data_ZrH6O3F4
_symmetry_space_group_name_H-M   'P 1'
_cell_length_a   6.87837793
_cell_length_b   7.74922940
_cell_length_c   10.76382100
_cell_angle_alpha   90.00000000
_cell_angle_beta   90.00000000
_cell_angle_gamma   100.12959711
_symmetry_Int_Tables_number   1
_chemical_formula_structural   ZrH6O3F4
_chemical_formula_sum   'Zr4 H24 O12 F16'
_cell_volume   564.79145910
_cell_formula_units_Z   4
loop_
 _symmetry_equiv_pos_site_id
 _symmetry_equiv_pos_as_xyz
  1  'x, y, z'
loop_
 _atom_site_type_symbol
 _atom_site_label
 _atom_site_symmetry_multiplicity
 _atom_site_fract_x
 _atom_site_fract_y
 _atom_site_fract_z
 _atom_site_occupancy
  Zr  Zr0  1  0.74324100  0.46092900  0.54536900  1
  Zr  Zr1  1  0.25675900  0.03907100  0.04536900  1
  Zr  Zr2  1  0.25675900  0.53907100  0.45463100  1
  Zr  Zr3  1  0.74324100  0.96092900  0.95463100  1
  H  H0  1  0.59739700  0.38240600  0.12285800  1
  H  H1  1  0.40260300  0.11759400  0.62285800  1
  H  H2  1  0.40260300  0.61759400  0.87714200  1
  H  H3  1  0.59739700  0.88240600  0.37714200  1
  H  H4  1  0.81361800  0.38255600  0.08248600  1
  H  H5  1  0.18638200  0.11744400  0.58248600  1
  H  H6  1  0.18638200  0.61744400  0.91751400  1
  H  H7  1  0.81361800  0.88255600  0.41751400  1
  H  H8  1  0.76328200  0.34221900  0.29341900  1
  H  H9  1  0.23671800  0.15778100  0.79341900  1
  H  H10  1  0.23671800  0.65778100  0.70658100  1
  H  H11  1  0.76328200  0.84221900  0.20658100  1
  H  H12  1  0.75355500  0.16243200  0.37485200  1
  H  H13  1  0.24644500  0.33756800  0.87485200  1
  H  H14  1  0.24644500  0.83756800  0.62514800  1
  H  H15  1  0.75355500  0.66243200  0.12514800  1
  H  H16  1  0.73557900  0.56959200  0.80005700  1
  H  H17  1  0.26442100  0.93040800  0.30005700  1
  H  H18  1  0.26442100  0.43040800  0.19994300  1
  H  H19  1  0.73557900  0.06959200  0.69994300  1
  H  H20  1  0.76347000  0.36806900  0.80435600  1
  H  H21  1  0.23653000  0.13193100  0.30435600  1
  H  H22  1  0.23653000  0.63193100  0.19564400  1
  H  H23  1  0.76347000  0.86806900  0.69564400  1
  O  O0  1  0.73544800  0.43780400  0.14170900  1
  O  O1  1  0.26455200  0.06219600  0.64170900  1
  O  O2  1  0.26455200  0.56219600  0.85829100  1
  O  O3  1  0.73544800  0.93780400  0.35829100  1
  O  O4  1  0.75610500  0.29199000  0.37856700  1
  O  O5  1  0.24389500  0.20801000  0.87856700  1
  O  O6  1  0.24389500  0.70801000  0.62143300  1
  O  O7  1  0.75610500  0.79199000  0.12143300  1
  O  O8  1  0.77673900  0.47402300  0.75019000  1
  O  O9  1  0.22326100  0.02597700  0.25019000  1
  O  O10  1  0.22326100  0.52597700  0.24981000  1
  O  O11  1  0.77673900  0.97402300  0.74981000  1
  F  F0  1  0.03010000  0.39329100  0.57811800  1
  F  F1  1  0.96990000  0.10670900  0.07811800  1
  F  F2  1  0.96990000  0.60670900  0.42188200  1
  F  F3  1  0.03010000  0.89329100  0.92188200  1
  F  F4  1  0.43415200  0.44324500  0.59808000  1
  F  F5  1  0.56584800  0.05675500  0.09808000  1
  F  F6  1  0.56584800  0.55675500  0.40192000  1
  F  F7  1  0.43415200  0.94324500  0.90192000  1
  F  F8  1  0.76298900  0.71851900  0.59554800  1
  F  F9  1  0.23701100  0.78148100  0.09554800  1
  F  F10  1  0.23701100  0.28148100  0.40445200  1
  F  F11  1  0.76298900  0.21851900  0.90445200  1
  F  F12  1  0.65728000  0.20222500  0.60592300  1
  F  F13  1  0.34272000  0.29777500  0.10592300  1
  F  F14  1  0.34272000  0.79777500  0.39407700  1
  F  F15  1  0.65728000  0.70222500  0.89407700  1
loop_
_geom_bond_atom_site_label_1
_geom_bond_atom_site_label_2
_geom_bond_distance
_geom_bond_site_symmetry_2
H0 O0 0.991843 1_555
H1 O1 0.991843 1_555
H2 O2 0.991843 1_555
H3 O3 0.991843 1_555
H4 O0 0.979659 1_555
H5 O1 0.979659 1_555
H6 O2 0.979659 1_555
H7 O3 0.979659 1_555
H8 O4 0.993573 1_555
H9 O5 0.993573 1_555
H10 O6 0.993573 1_555
H11 O7 0.993573 1_555
H12 O4 1.001837 1_555
H13 O5 1.001837 1_555
H14 O6 1.001837 1_555
H15 O7 1.001837 1_555
H16 O8 0.995230 1_555
H17 O9 0.995230 1_565
H18 O10 0.995230 1_555
H19 O11 0.995230 1_545
H20 O8 0.998018 1_555
H21 O9 0.998018 1_555
H22 O10 0.998018 1_555
H23 O11 0.998018 1_555
O4 Zr0 2.232935 1_555
O5 Zr1 2.232935 1_556
O6 Zr2 2.232935 1_555
O7 Zr3 2.232935 1_554
O8 Zr0 2.217132 1_555
O9 Zr1 2.217132 1_555
O10 Zr2 2.217132 1_555
O11 Zr3 2.217132 1_555
F0 Zr0 2.157773 1_455
F0 Zr2 2.203190 1_555
F1 Zr1 2.157773 1_655
F1 Zr3 2.203190 1_544
F2 Zr2 2.157773 1_655
F2 Zr0 2.203190 1_555
F3 Zr3 2.157773 1_455
F3 Zr1 2.203190 1_566
F4 Zr2 2.177862 1_555
F4 Zr0 2.181334 1_555
F5 Zr3 2.177862 1_544
F5 Zr1 2.181334 1_555
F6 Zr0 2.177862 1_555
F6 Zr2 2.181334 1_555
F7 Zr1 2.177862 1_566
F7 Zr3 2.181334 1_555
F8 H23 1.581938 1_555
F8 Zr0 2.049223 1_555
F9 H22 1.581938 1_555
F9 Zr1 2.049223 1_565
F10 H21 1.581938 1_555
F10 Zr2 2.049223 1_555
F11 H20 1.581938 1_555
F11 Zr3 2.049223 1_545
F12 H19 1.601662 1_555
F12 Zr0 2.092017 1_555
F13 H18 1.601662 1_555
F13 Zr1 2.092017 1_555
F14 H17 1.601662 1_555
F14 Zr2 2.092017 1_555
F15 H16 1.601662 1_555
F15 Zr3 2.092017 1_555
