# generated using pymatgen
data_Mg6CrC
_symmetry_space_group_name_H-M   'P 1'
_cell_length_a   6.22230400
_cell_length_b   19.40794200
_cell_length_c   20.68831800
_cell_angle_alpha   90.00000000
_cell_angle_beta   90.00000000
_cell_angle_gamma   90.00000000
_symmetry_Int_Tables_number   1
_chemical_formula_structural   Mg6CrC
_chemical_formula_sum   'Mg96 Cr16 C16'
_cell_volume   2498.36504034
_cell_formula_units_Z   16
loop_
 _symmetry_equiv_pos_site_id
 _symmetry_equiv_pos_as_xyz
  1  'x, y, z'
loop_
 _atom_site_type_symbol
 _atom_site_label
 _atom_site_symmetry_multiplicity
 _atom_site_fract_x
 _atom_site_fract_y
 _atom_site_fract_z
 _atom_site_occupancy
  Mg  Mg0_0  1  0.00000000  0.33004950  0.06045400  1
  Mg  Mg0_1  1  0.00000000  0.33004950  0.56045400  1
  Mg  Mg0_2  1  0.00000000  0.83004950  0.06045400  1
  Mg  Mg0_3  1  0.00000000  0.83004950  0.56045400  1
  Mg  Mg0_4  1  0.50000000  0.33004950  0.06045400  1
  Mg  Mg0_5  1  0.50000000  0.33004950  0.56045400  1
  Mg  Mg0_6  1  0.50000000  0.83004950  0.06045400  1
  Mg  Mg0_7  1  0.50000000  0.83004950  0.56045400  1
  Mg  Mg1_0  1  0.00000000  0.16995050  0.06045400  1
  Mg  Mg1_1  1  0.00000000  0.16995050  0.56045400  1
  Mg  Mg1_2  1  0.00000000  0.66995050  0.06045400  1
  Mg  Mg1_3  1  0.00000000  0.66995050  0.56045400  1
  Mg  Mg1_4  1  0.50000000  0.16995050  0.06045400  1
  Mg  Mg1_5  1  0.50000000  0.16995050  0.56045400  1
  Mg  Mg1_6  1  0.50000000  0.66995050  0.06045400  1
  Mg  Mg1_7  1  0.50000000  0.66995050  0.56045400  1
  Mg  Mg2_0  1  0.00000000  0.25000000  0.42348750  1
  Mg  Mg2_1  1  0.00000000  0.25000000  0.92348750  1
  Mg  Mg2_2  1  0.00000000  0.75000000  0.42348750  1
  Mg  Mg2_3  1  0.00000000  0.75000000  0.92348750  1
  Mg  Mg2_4  1  0.50000000  0.25000000  0.42348750  1
  Mg  Mg2_5  1  0.50000000  0.25000000  0.92348750  1
  Mg  Mg2_6  1  0.50000000  0.75000000  0.42348750  1
  Mg  Mg2_7  1  0.50000000  0.75000000  0.92348750  1
  Mg  Mg3_0  1  0.25000000  0.38377300  0.43867300  1
  Mg  Mg3_1  1  0.25000000  0.38377300  0.93867300  1
  Mg  Mg3_2  1  0.25000000  0.88377300  0.43867300  1
  Mg  Mg3_3  1  0.25000000  0.88377300  0.93867300  1
  Mg  Mg3_4  1  0.75000000  0.38377300  0.43867300  1
  Mg  Mg3_5  1  0.75000000  0.38377300  0.93867300  1
  Mg  Mg3_6  1  0.75000000  0.88377300  0.43867300  1
  Mg  Mg3_7  1  0.75000000  0.88377300  0.93867300  1
  Mg  Mg4_0  1  0.25000000  0.11622700  0.43867300  1
  Mg  Mg4_1  1  0.25000000  0.11622700  0.93867300  1
  Mg  Mg4_2  1  0.25000000  0.61622700  0.43867300  1
  Mg  Mg4_3  1  0.25000000  0.61622700  0.93867300  1
  Mg  Mg4_4  1  0.75000000  0.11622700  0.43867300  1
  Mg  Mg4_5  1  0.75000000  0.11622700  0.93867300  1
  Mg  Mg4_6  1  0.75000000  0.61622700  0.43867300  1
  Mg  Mg4_7  1  0.75000000  0.61622700  0.93867300  1
  Mg  Mg5_0  1  0.25000000  0.25000000  0.29211550  1
  Mg  Mg5_1  1  0.25000000  0.25000000  0.79211550  1
  Mg  Mg5_2  1  0.25000000  0.75000000  0.29211550  1
  Mg  Mg5_3  1  0.25000000  0.75000000  0.79211550  1
  Mg  Mg5_4  1  0.75000000  0.25000000  0.29211550  1
  Mg  Mg5_5  1  0.75000000  0.25000000  0.79211550  1
  Mg  Mg5_6  1  0.75000000  0.75000000  0.29211550  1
  Mg  Mg5_7  1  0.75000000  0.75000000  0.79211550  1
  Mg  Mg6_0  1  0.00000000  0.08004950  0.31045400  1
  Mg  Mg6_1  1  0.00000000  0.08004950  0.81045400  1
  Mg  Mg6_2  1  0.00000000  0.58004950  0.31045400  1
  Mg  Mg6_3  1  0.00000000  0.58004950  0.81045400  1
  Mg  Mg6_4  1  0.50000000  0.08004950  0.31045400  1
  Mg  Mg6_5  1  0.50000000  0.08004950  0.81045400  1
  Mg  Mg6_6  1  0.50000000  0.58004950  0.31045400  1
  Mg  Mg6_7  1  0.50000000  0.58004950  0.81045400  1
  Mg  Mg7_0  1  0.00000000  0.41995050  0.31045400  1
  Mg  Mg7_1  1  0.00000000  0.41995050  0.81045400  1
  Mg  Mg7_2  1  0.00000000  0.91995050  0.31045400  1
  Mg  Mg7_3  1  0.00000000  0.91995050  0.81045400  1
  Mg  Mg7_4  1  0.50000000  0.41995050  0.31045400  1
  Mg  Mg7_5  1  0.50000000  0.41995050  0.81045400  1
  Mg  Mg7_6  1  0.50000000  0.91995050  0.31045400  1
  Mg  Mg7_7  1  0.50000000  0.91995050  0.81045400  1
  Mg  Mg8_0  1  0.00000000  0.00000000  0.17348750  1
  Mg  Mg8_1  1  0.00000000  0.00000000  0.67348750  1
  Mg  Mg8_2  1  0.00000000  0.50000000  0.17348750  1
  Mg  Mg8_3  1  0.00000000  0.50000000  0.67348750  1
  Mg  Mg8_4  1  0.50000000  0.00000000  0.17348750  1
  Mg  Mg8_5  1  0.50000000  0.00000000  0.67348750  1
  Mg  Mg8_6  1  0.50000000  0.50000000  0.17348750  1
  Mg  Mg8_7  1  0.50000000  0.50000000  0.67348750  1
  Mg  Mg9_0  1  0.25000000  0.13377300  0.18867300  1
  Mg  Mg9_1  1  0.25000000  0.13377300  0.68867300  1
  Mg  Mg9_2  1  0.25000000  0.63377300  0.18867300  1
  Mg  Mg9_3  1  0.25000000  0.63377300  0.68867300  1
  Mg  Mg9_4  1  0.75000000  0.13377300  0.18867300  1
  Mg  Mg9_5  1  0.75000000  0.13377300  0.68867300  1
  Mg  Mg9_6  1  0.75000000  0.63377300  0.18867300  1
  Mg  Mg9_7  1  0.75000000  0.63377300  0.68867300  1
  Mg  Mg10_0  1  0.25000000  0.36622700  0.18867300  1
  Mg  Mg10_1  1  0.25000000  0.36622700  0.68867300  1
  Mg  Mg10_2  1  0.25000000  0.86622700  0.18867300  1
  Mg  Mg10_3  1  0.25000000  0.86622700  0.68867300  1
  Mg  Mg10_4  1  0.75000000  0.36622700  0.18867300  1
  Mg  Mg10_5  1  0.75000000  0.36622700  0.68867300  1
  Mg  Mg10_6  1  0.75000000  0.86622700  0.18867300  1
  Mg  Mg10_7  1  0.75000000  0.86622700  0.68867300  1
  Mg  Mg11_0  1  0.25000000  0.00000000  0.04211550  1
  Mg  Mg11_1  1  0.25000000  0.00000000  0.54211550  1
  Mg  Mg11_2  1  0.25000000  0.50000000  0.04211550  1
  Mg  Mg11_3  1  0.25000000  0.50000000  0.54211550  1
  Mg  Mg11_4  1  0.75000000  0.00000000  0.04211550  1
  Mg  Mg11_5  1  0.75000000  0.00000000  0.54211550  1
  Mg  Mg11_6  1  0.75000000  0.50000000  0.04211550  1
  Mg  Mg11_7  1  0.75000000  0.50000000  0.54211550  1
  Cr  Cr0_0  1  0.00000000  0.25000000  0.16947900  1
  Cr  Cr0_1  1  0.00000000  0.25000000  0.66947900  1
  Cr  Cr0_2  1  0.00000000  0.75000000  0.16947900  1
  Cr  Cr0_3  1  0.00000000  0.75000000  0.66947900  1
  Cr  Cr0_4  1  0.50000000  0.25000000  0.16947900  1
  Cr  Cr0_5  1  0.50000000  0.25000000  0.66947900  1
  Cr  Cr0_6  1  0.50000000  0.75000000  0.16947900  1
  Cr  Cr0_7  1  0.50000000  0.75000000  0.66947900  1
  Cr  Cr1_0  1  0.00000000  0.00000000  0.41947900  1
  Cr  Cr1_1  1  0.00000000  0.00000000  0.91947900  1
  Cr  Cr1_2  1  0.00000000  0.50000000  0.41947900  1
  Cr  Cr1_3  1  0.00000000  0.50000000  0.91947900  1
  Cr  Cr1_4  1  0.50000000  0.00000000  0.41947900  1
  Cr  Cr1_5  1  0.50000000  0.00000000  0.91947900  1
  Cr  Cr1_6  1  0.50000000  0.50000000  0.41947900  1
  Cr  Cr1_7  1  0.50000000  0.50000000  0.91947900  1
  C  C0_0  1  0.25000000  0.25000000  0.11666400  1
  C  C0_1  1  0.25000000  0.25000000  0.61666400  1
  C  C0_2  1  0.25000000  0.75000000  0.11666400  1
  C  C0_3  1  0.25000000  0.75000000  0.61666400  1
  C  C0_4  1  0.75000000  0.25000000  0.11666400  1
  C  C0_5  1  0.75000000  0.25000000  0.61666400  1
  C  C0_6  1  0.75000000  0.75000000  0.11666400  1
  C  C0_7  1  0.75000000  0.75000000  0.61666400  1
  C  C1_0  1  0.25000000  0.00000000  0.36666400  1
  C  C1_1  1  0.25000000  0.00000000  0.86666400  1
  C  C1_2  1  0.25000000  0.50000000  0.36666400  1
  C  C1_3  1  0.25000000  0.50000000  0.86666400  1
  C  C1_4  1  0.75000000  0.00000000  0.36666400  1
  C  C1_5  1  0.75000000  0.00000000  0.86666400  1
  C  C1_6  1  0.75000000  0.50000000  0.36666400  1
  C  C1_7  1  0.75000000  0.50000000  0.86666400  1
loop_
_geom_bond_atom_site_label_1
_geom_bond_atom_site_label_2
_geom_bond_distance
_geom_bond_site_symmetry_2
Mg0_0 Mg2_1 3.231561 1_554
Mg0_1 Mg2_0 3.231561 1_555
Mg0_2 Mg2_3 3.231561 1_554
Mg0_3 Mg2_2 3.231561 1_555
Mg0_4 Mg2_5 3.231561 1_554
Mg0_5 Mg2_4 3.231561 1_555
Mg0_6 Mg2_7 3.231561 1_554
Mg0_7 Mg2_6 3.231561 1_555
Mg1_0 Mg2_1 3.231561 1_554
Mg1_1 Mg2_0 3.231561 1_555
Mg1_2 Mg2_3 3.231561 1_554
Mg1_3 Mg2_2 3.231561 1_555
Mg1_4 Mg2_5 3.231561 1_554
Mg1_5 Mg2_4 3.231561 1_555
Mg1_6 Mg2_7 3.231561 1_554
Mg1_7 Mg2_6 3.231561 1_555
Mg2_0 Mg4_0 3.042873 1_555
Mg2_0 Mg4_4 3.042873 1_455
Mg2_0 Mg3_0 3.042873 1_555
Mg2_0 Mg3_4 3.042873 1_455
Mg2_0 Mg2_4 3.111152 1_455
Mg2_0 Mg2_4 3.111152 1_555
Mg2_0 Mg5_0 3.131551 1_555
Mg2_0 Mg5_4 3.131551 1_455
Mg2_1 Mg4_1 3.042873 1_555
Mg2_1 Mg4_5 3.042873 1_455
Mg2_1 Mg3_1 3.042873 1_555
Mg2_1 Mg3_5 3.042873 1_455
Mg2_1 Mg2_5 3.111152 1_455
Mg2_1 Mg2_5 3.111152 1_555
Mg2_1 Mg5_1 3.131551 1_555
Mg2_1 Mg5_5 3.131551 1_455
Mg2_2 Mg3_6 3.042873 1_455
Mg2_2 Mg3_2 3.042873 1_555
Mg2_2 Mg4_2 3.042873 1_555
Mg2_2 Mg4_6 3.042873 1_455
Mg2_2 Mg2_6 3.111152 1_555
Mg2_2 Mg2_6 3.111152 1_455
Mg2_2 Mg5_2 3.131551 1_555
Mg2_2 Mg5_6 3.131551 1_455
Mg2_3 Mg3_3 3.042873 1_555
Mg2_3 Mg3_7 3.042873 1_455
Mg2_3 Mg4_3 3.042873 1_555
Mg2_3 Mg4_7 3.042873 1_455
Mg2_3 Mg2_7 3.111152 1_555
Mg2_3 Mg2_7 3.111152 1_455
Mg2_3 Mg5_3 3.131551 1_555
Mg2_3 Mg5_7 3.131551 1_455
Mg2_4 Mg4_4 3.042873 1_555
Mg2_4 Mg3_4 3.042873 1_555
Mg2_4 Mg4_0 3.042873 1_555
Mg2_4 Mg3_0 3.042873 1_555
Mg2_4 Mg5_4 3.131551 1_555
Mg2_4 Mg5_0 3.131551 1_555
Mg2_5 Mg4_1 3.042873 1_555
Mg2_5 Mg4_5 3.042873 1_555
Mg2_5 Mg3_5 3.042873 1_555
Mg2_5 Mg3_1 3.042873 1_555
Mg2_5 Mg5_5 3.131551 1_555
Mg2_5 Mg5_1 3.131551 1_555
Mg2_6 Mg3_6 3.042873 1_555
Mg2_6 Mg3_2 3.042873 1_555
Mg2_6 Mg4_2 3.042873 1_555
Mg2_6 Mg4_6 3.042873 1_555
Mg2_6 Mg5_6 3.131551 1_555
Mg2_6 Mg5_2 3.131551 1_555
Mg2_7 Mg3_3 3.042873 1_555
Mg2_7 Mg3_7 3.042873 1_555
Mg2_7 Mg4_7 3.042873 1_555
Mg2_7 Mg4_3 3.042873 1_555
Mg2_7 Mg5_7 3.131551 1_555
Mg2_7 Mg5_3 3.131551 1_555
Mg5_0 Mg9_0 3.109361 1_555
Mg5_0 Mg5_4 3.111152 1_555
Mg5_0 Mg5_4 3.111152 1_455
Mg5_1 Mg9_1 3.109361 1_555
Mg5_1 Mg5_5 3.111152 1_555
Mg5_1 Mg5_5 3.111152 1_455
Mg5_2 Mg9_2 3.109361 1_555
Mg5_2 Mg5_6 3.111152 1_555
Mg5_2 Mg5_6 3.111152 1_455
Mg5_3 Mg9_3 3.109361 1_555
Mg5_3 Mg5_7 3.111152 1_555
Mg5_3 Mg5_7 3.111152 1_455
Mg5_4 Mg9_4 3.109361 1_555
Mg5_5 Mg9_5 3.109361 1_555
Mg5_6 Mg9_6 3.109361 1_555
Mg5_7 Mg9_7 3.109361 1_555
Mg6_0 Mg8_0 3.231561 1_555
Mg6_1 Mg8_1 3.231561 1_555
Mg6_2 Mg8_2 3.231561 1_555
Mg6_3 Mg8_3 3.231561 1_555
Mg6_4 Mg8_4 3.231561 1_555
Mg6_5 Mg8_5 3.231561 1_555
Mg6_6 Mg8_6 3.231561 1_555
Mg6_7 Mg8_7 3.231561 1_555
Mg7_0 Mg8_2 3.231561 1_555
Mg7_1 Mg8_3 3.231561 1_555
Mg7_2 Mg8_0 3.231561 1_565
Mg7_3 Mg8_1 3.231561 1_565
Mg7_4 Mg8_6 3.231561 1_555
Mg7_5 Mg8_7 3.231561 1_555
Mg7_6 Mg8_4 3.231561 1_565
Mg7_7 Mg8_5 3.231561 1_565
Mg8_0 Mg9_0 3.042873 1_555
Mg8_0 Mg9_4 3.042873 1_455
Mg8_0 Mg8_4 3.111152 1_455
Mg8_0 Mg8_4 3.111152 1_555
Mg8_1 Mg9_1 3.042873 1_555
Mg8_1 Mg9_5 3.042873 1_455
Mg8_1 Mg8_5 3.111152 1_455
Mg8_1 Mg8_5 3.111152 1_555
Mg8_2 Mg9_2 3.042873 1_555
Mg8_2 Mg9_6 3.042873 1_455
Mg8_2 Mg8_6 3.111152 1_455
Mg8_2 Mg8_6 3.111152 1_555
Mg8_3 Mg9_3 3.042873 1_555
Mg8_3 Mg9_7 3.042873 1_455
Mg8_3 Mg8_7 3.111152 1_555
Mg8_3 Mg8_7 3.111152 1_455
Mg8_4 Mg9_4 3.042873 1_555
Mg8_4 Mg9_0 3.042873 1_555
Mg8_5 Mg9_1 3.042873 1_555
Mg8_5 Mg9_5 3.042873 1_555
Mg8_6 Mg9_6 3.042873 1_555
Mg8_6 Mg9_2 3.042873 1_555
Mg8_7 Mg9_3 3.042873 1_555
Mg8_7 Mg9_7 3.042873 1_555
Mg10_0 Mg8_2 3.042873 1_555
Mg10_0 Mg8_6 3.042873 1_555
Mg10_0 Mg5_0 3.109361 1_555
Mg10_1 Mg8_7 3.042873 1_555
Mg10_1 Mg8_3 3.042873 1_555
Mg10_1 Mg5_1 3.109361 1_555
Mg10_2 Mg8_4 3.042873 1_565
Mg10_2 Mg8_0 3.042873 1_565
Mg10_2 Mg5_2 3.109361 1_555
Mg10_3 Mg8_1 3.042873 1_565
Mg10_3 Mg8_5 3.042873 1_565
Mg10_3 Mg5_3 3.109361 1_555
Mg10_4 Mg8_6 3.042873 1_555
Mg10_4 Mg8_2 3.042873 1_655
Mg10_4 Mg5_4 3.109361 1_555
Mg10_5 Mg8_7 3.042873 1_555
Mg10_5 Mg8_3 3.042873 1_655
Mg10_5 Mg5_5 3.109361 1_555
Mg10_6 Mg8_4 3.042873 1_565
Mg10_6 Mg8_0 3.042873 1_665
Mg10_6 Mg5_6 3.109361 1_555
Mg10_7 Mg8_5 3.042873 1_565
Mg10_7 Mg8_1 3.042873 1_665
Mg10_7 Mg5_7 3.109361 1_555
Mg11_0 Mg4_1 3.109361 1_554
Mg11_0 Mg3_3 3.109361 1_544
Mg11_0 Mg11_4 3.111152 1_555
Mg11_0 Mg11_4 3.111152 1_455
Mg11_0 Mg8_0 3.131551 1_555
Mg11_0 Mg8_4 3.131551 1_555
Mg11_1 Mg4_0 3.109361 1_555
Mg11_1 Mg3_2 3.109361 1_545
Mg11_1 Mg11_5 3.111152 1_555
Mg11_1 Mg11_5 3.111152 1_455
Mg11_1 Mg8_1 3.131551 1_555
Mg11_1 Mg8_5 3.131551 1_555
Mg11_2 Mg3_1 3.109361 1_554
Mg11_2 Mg4_3 3.109361 1_554
Mg11_2 Mg11_6 3.111152 1_555
Mg11_2 Mg11_6 3.111152 1_455
Mg11_2 Mg8_6 3.131551 1_555
Mg11_2 Mg8_2 3.131551 1_555
Mg11_3 Mg3_0 3.109361 1_555
Mg11_3 Mg4_2 3.109361 1_555
Mg11_3 Mg11_7 3.111152 1_555
Mg11_3 Mg11_7 3.111152 1_455
Mg11_3 Mg8_7 3.131551 1_555
Mg11_3 Mg8_3 3.131551 1_555
Mg11_4 Mg4_5 3.109361 1_554
Mg11_4 Mg3_7 3.109361 1_544
Mg11_4 Mg8_4 3.131551 1_555
Mg11_4 Mg8_0 3.131551 1_655
Mg11_5 Mg4_4 3.109361 1_555
Mg11_5 Mg3_6 3.109361 1_545
Mg11_5 Mg8_5 3.131551 1_555
Mg11_5 Mg8_1 3.131551 1_655
Mg11_6 Mg3_5 3.109361 1_554
Mg11_6 Mg4_7 3.109361 1_554
Mg11_6 Mg8_6 3.131551 1_555
Mg11_6 Mg8_2 3.131551 1_655
Mg11_7 Mg3_4 3.109361 1_555
Mg11_7 Mg4_6 3.109361 1_555
Mg11_7 Mg8_7 3.131551 1_555
Mg11_7 Mg8_3 3.131551 1_655
Cr0_0 Mg10_0 2.768719 1_555
Cr0_0 Mg10_4 2.768719 1_455
Cr0_0 Mg9_0 2.768719 1_555
Cr0_0 Mg9_4 2.768719 1_455
Cr0_0 Mg5_0 2.976056 1_555
Cr0_0 Mg5_4 2.976056 1_455
Cr0_1 Mg10_1 2.768719 1_555
Cr0_1 Mg10_5 2.768719 1_455
Cr0_1 Mg9_5 2.768719 1_455
Cr0_1 Mg9_1 2.768719 1_555
Cr0_1 Mg5_1 2.976056 1_555
Cr0_1 Mg5_5 2.976056 1_455
Cr0_2 Mg10_2 2.768719 1_555
Cr0_2 Mg10_6 2.768719 1_455
Cr0_2 Mg9_2 2.768719 1_555
Cr0_2 Mg9_6 2.768719 1_455
Cr0_2 Mg5_2 2.976056 1_555
Cr0_2 Mg5_6 2.976056 1_455
Cr0_3 Mg10_3 2.768719 1_555
Cr0_3 Mg10_7 2.768719 1_455
Cr0_3 Mg9_3 2.768719 1_555
Cr0_3 Mg9_7 2.768719 1_455
Cr0_3 Mg5_7 2.976056 1_455
Cr0_3 Mg5_3 2.976056 1_555
Cr0_4 Mg10_4 2.768719 1_555
Cr0_4 Mg10_0 2.768719 1_555
Cr0_4 Mg9_4 2.768719 1_555
Cr0_4 Mg9_0 2.768719 1_555
Cr0_4 Mg5_4 2.976056 1_555
Cr0_4 Mg5_0 2.976056 1_555
Cr0_5 Mg10_1 2.768719 1_555
Cr0_5 Mg10_5 2.768719 1_555
Cr0_5 Mg9_5 2.768719 1_555
Cr0_5 Mg9_1 2.768719 1_555
Cr0_5 Mg5_5 2.976056 1_555
Cr0_5 Mg5_1 2.976056 1_555
Cr0_6 Mg10_6 2.768719 1_555
Cr0_6 Mg10_2 2.768719 1_555
Cr0_6 Mg9_6 2.768719 1_555
Cr0_6 Mg9_2 2.768719 1_555
Cr0_6 Mg5_6 2.976056 1_555
Cr0_6 Mg5_2 2.976056 1_555
Cr0_7 Mg10_7 2.768719 1_555
Cr0_7 Mg10_3 2.768719 1_555
Cr0_7 Mg9_7 2.768719 1_555
Cr0_7 Mg9_3 2.768719 1_555
Cr0_7 Mg5_7 2.976056 1_555
Cr0_7 Mg5_3 2.976056 1_555
Cr1_0 Mg4_0 2.768719 1_555
Cr1_0 Mg4_4 2.768719 1_455
Cr1_0 Mg3_2 2.768719 1_545
Cr1_0 Mg3_6 2.768719 1_445
Cr1_0 Mg11_1 2.976056 1_555
Cr1_0 Mg11_5 2.976056 1_455
Cr1_1 Mg4_1 2.768719 1_555
Cr1_1 Mg4_5 2.768719 1_455
Cr1_1 Mg3_3 2.768719 1_545
Cr1_1 Mg3_7 2.768719 1_445
Cr1_1 Mg11_0 2.976056 1_556
Cr1_1 Mg11_4 2.976056 1_456
Cr1_2 Mg3_0 2.768719 1_555
Cr1_2 Mg3_4 2.768719 1_455
Cr1_2 Mg4_2 2.768719 1_555
Cr1_2 Mg4_6 2.768719 1_455
Cr1_2 Mg11_3 2.976056 1_555
Cr1_2 Mg11_7 2.976056 1_455
Cr1_3 Mg3_1 2.768719 1_555
Cr1_3 Mg3_5 2.768719 1_455
Cr1_3 Mg4_3 2.768719 1_555
Cr1_3 Mg4_7 2.768719 1_455
Cr1_3 Mg11_6 2.976056 1_456
Cr1_3 Mg11_2 2.976056 1_556
Cr1_4 Mg4_4 2.768719 1_555
Cr1_4 Mg4_0 2.768719 1_555
Cr1_4 Mg3_6 2.768719 1_545
Cr1_4 Mg3_2 2.768719 1_545
Cr1_4 Mg11_5 2.976056 1_555
Cr1_4 Mg11_1 2.976056 1_555
Cr1_5 Mg4_1 2.768719 1_555
Cr1_5 Mg4_5 2.768719 1_555
Cr1_5 Mg3_7 2.768719 1_545
Cr1_5 Mg3_3 2.768719 1_545
Cr1_5 Mg11_4 2.976056 1_556
Cr1_5 Mg11_0 2.976056 1_556
Cr1_6 Mg3_4 2.768719 1_555
Cr1_6 Mg3_0 2.768719 1_555
Cr1_6 Mg4_2 2.768719 1_555
Cr1_6 Mg4_6 2.768719 1_555
Cr1_6 Mg11_7 2.976056 1_555
Cr1_6 Mg11_3 2.976056 1_555
Cr1_7 Mg3_5 2.768719 1_555
Cr1_7 Mg3_1 2.768719 1_555
Cr1_7 Mg4_7 2.768719 1_555
Cr1_7 Mg4_3 2.768719 1_555
Cr1_7 Mg11_6 2.976056 1_556
Cr1_7 Mg11_2 2.976056 1_556
C0_0 Cr0_0 1.900976 1_555
C0_0 Cr0_4 1.900976 1_555
C0_0 Mg1_4 2.487125 1_555
C0_0 Mg0_0 2.487125 1_555
C0_0 Mg0_4 2.487125 1_555
C0_0 Mg1_0 2.487125 1_555
C0_0 Mg10_0 2.703265 1_555
C0_0 Mg9_0 2.703265 1_555
C0_1 Cr0_1 1.900976 1_555
C0_1 Cr0_5 1.900976 1_555
C0_1 Mg0_1 2.487125 1_555
C0_1 Mg0_5 2.487125 1_555
C0_1 Mg1_1 2.487125 1_555
C0_1 Mg1_5 2.487125 1_555
C0_1 Mg10_1 2.703265 1_555
C0_1 Mg9_1 2.703265 1_555
C0_2 Cr0_6 1.900976 1_555
C0_2 Cr0_2 1.900976 1_555
C0_2 Mg0_2 2.487125 1_555
C0_2 Mg0_6 2.487125 1_555
C0_2 Mg1_2 2.487125 1_555
C0_2 Mg1_6 2.487125 1_555
C0_2 Mg10_2 2.703265 1_555
C0_2 Mg9_2 2.703265 1_555
C0_3 Cr0_3 1.900976 1_555
C0_3 Cr0_7 1.900976 1_555
C0_3 Mg0_3 2.487125 1_555
C0_3 Mg0_7 2.487125 1_555
C0_3 Mg1_3 2.487125 1_555
C0_3 Mg1_7 2.487125 1_555
C0_3 Mg10_3 2.703265 1_555
C0_3 Mg9_3 2.703265 1_555
C0_4 Cr0_4 1.900976 1_555
C0_4 Cr0_0 1.900976 1_655
C0_4 Mg0_4 2.487125 1_555
C0_4 Mg1_4 2.487125 1_555
C0_4 Mg0_0 2.487125 1_655
C0_4 Mg1_0 2.487125 1_655
C0_4 Mg10_4 2.703265 1_555
C0_4 Mg9_4 2.703265 1_555
C0_5 Cr0_5 1.900976 1_555
C0_5 Cr0_1 1.900976 1_655
C0_5 Mg1_5 2.487125 1_555
C0_5 Mg0_5 2.487125 1_555
C0_5 Mg0_1 2.487125 1_655
C0_5 Mg1_1 2.487125 1_655
C0_5 Mg10_5 2.703265 1_555
C0_5 Mg9_5 2.703265 1_555
C0_6 Cr0_6 1.900976 1_555
C0_6 Cr0_2 1.900976 1_655
C0_6 Mg0_6 2.487125 1_555
C0_6 Mg0_2 2.487125 1_655
C0_6 Mg1_6 2.487125 1_555
C0_6 Mg1_2 2.487125 1_655
C0_6 Mg10_6 2.703265 1_555
C0_6 Mg9_6 2.703265 1_555
C0_7 Cr0_7 1.900976 1_555
C0_7 Cr0_3 1.900976 1_655
C0_7 Mg0_7 2.487125 1_555
C0_7 Mg1_7 2.487125 1_555
C0_7 Mg0_3 2.487125 1_655
C0_7 Mg1_3 2.487125 1_655
C0_7 Mg10_7 2.703265 1_555
C0_7 Mg9_7 2.703265 1_555
C1_0 Cr1_4 1.900976 1_555
C1_0 Cr1_0 1.900976 1_555
C1_0 Mg7_6 2.487125 1_545
C1_0 Mg6_0 2.487125 1_555
C1_0 Mg6_4 2.487125 1_555
C1_0 Mg7_2 2.487125 1_545
C1_0 Mg4_0 2.703265 1_555
C1_0 Mg3_2 2.703265 1_545
C1_1 Cr1_1 1.900976 1_555
C1_1 Cr1_5 1.900976 1_555
C1_1 Mg7_7 2.487125 1_545
C1_1 Mg7_3 2.487125 1_545
C1_1 Mg6_1 2.487125 1_555
C1_1 Mg6_5 2.487125 1_555
C1_1 Mg4_1 2.703265 1_555
C1_1 Mg3_3 2.703265 1_545
C1_2 Cr1_2 1.900976 1_555
C1_2 Cr1_6 1.900976 1_555
C1_2 Mg7_0 2.487125 1_555
C1_2 Mg7_4 2.487125 1_555
C1_2 Mg6_2 2.487125 1_555
C1_2 Mg6_6 2.487125 1_555
C1_2 Mg3_0 2.703265 1_555
C1_2 Mg4_2 2.703265 1_555
C1_3 Cr1_3 1.900976 1_555
C1_3 Cr1_7 1.900976 1_555
C1_3 Mg7_5 2.487125 1_555
C1_3 Mg7_1 2.487125 1_555
C1_3 Mg6_3 2.487125 1_555
C1_3 Mg6_7 2.487125 1_555
C1_3 Mg3_1 2.703265 1_555
C1_3 Mg4_3 2.703265 1_555
C1_4 Cr1_4 1.900976 1_555
C1_4 Cr1_0 1.900976 1_655
C1_4 Mg7_6 2.487125 1_545
C1_4 Mg6_4 2.487125 1_555
C1_4 Mg6_0 2.487125 1_655
C1_4 Mg7_2 2.487125 1_645
C1_4 Mg4_4 2.703265 1_555
C1_4 Mg3_6 2.703265 1_545
C1_5 Cr1_5 1.900976 1_555
C1_5 Cr1_1 1.900976 1_655
C1_5 Mg6_5 2.487125 1_555
C1_5 Mg7_7 2.487125 1_545
C1_5 Mg6_1 2.487125 1_655
C1_5 Mg7_3 2.487125 1_645
C1_5 Mg4_5 2.703265 1_555
C1_5 Mg3_7 2.703265 1_545
C1_6 Cr1_6 1.900976 1_555
C1_6 Cr1_2 1.900976 1_655
C1_6 Mg7_4 2.487125 1_555
C1_6 Mg6_6 2.487125 1_555
C1_6 Mg7_0 2.487125 1_655
C1_6 Mg6_2 2.487125 1_655
C1_6 Mg3_4 2.703265 1_555
C1_6 Mg4_6 2.703265 1_555
C1_7 Cr1_7 1.900976 1_555
C1_7 Cr1_3 1.900976 1_655
C1_7 Mg7_5 2.487125 1_555
C1_7 Mg6_7 2.487125 1_555
C1_7 Mg7_1 2.487125 1_655
C1_7 Mg6_3 2.487125 1_655
C1_7 Mg3_5 2.703265 1_555
C1_7 Mg4_7 2.703265 1_555
