# generated using pymatgen
data_Y2(CN2)3
_symmetry_space_group_name_H-M   'P 1'
_cell_length_a   10.64477438
_cell_length_b   10.64477438
_cell_length_c   10.64477366
_cell_angle_alpha   35.64622887
_cell_angle_beta   35.64622887
_cell_angle_gamma   35.64622820
_symmetry_Int_Tables_number   1
_chemical_formula_structural   Y2(CN2)3
_chemical_formula_sum   'Y4 C6 N12'
_cell_volume   366.17932214
_cell_formula_units_Z   2
loop_
 _symmetry_equiv_pos_site_id
 _symmetry_equiv_pos_as_xyz
  1  'x, y, z'
loop_
 _atom_site_type_symbol
 _atom_site_label
 _atom_site_symmetry_multiplicity
 _atom_site_fract_x
 _atom_site_fract_y
 _atom_site_fract_z
 _atom_site_occupancy
  Y  Y0  1  0.66347500  0.66347500  0.66347500  1
  Y  Y1  1  0.16347500  0.16347500  0.16347500  1
  Y  Y2  1  0.33652500  0.33652500  0.33652500  1
  Y  Y3  1  0.83652500  0.83652500  0.83652500  1
  C  C0  1  0.75000000  0.45732500  0.04267500  1
  C  C1  1  0.45732500  0.04267500  0.75000000  1
  C  C2  1  0.04267500  0.75000000  0.45732500  1
  C  C3  1  0.54267500  0.95732500  0.25000000  1
  C  C4  1  0.95732500  0.25000000  0.54267500  1
  C  C5  1  0.25000000  0.54267500  0.95732500  1
  N  N0  1  0.53853100  0.95912000  0.13621000  1
  N  N1  1  0.95912000  0.13621000  0.53853100  1
  N  N2  1  0.13621000  0.53853100  0.95912000  1
  N  N3  1  0.63621000  0.45912000  0.03853100  1
  N  N4  1  0.45912000  0.03853100  0.63621000  1
  N  N5  1  0.03853100  0.63621000  0.45912000  1
  N  N6  1  0.46146900  0.04088000  0.86379000  1
  N  N7  1  0.04088000  0.86379000  0.46146900  1
  N  N8  1  0.86379000  0.46146900  0.04088000  1
  N  N9  1  0.36379000  0.54088000  0.96146900  1
  N  N10  1  0.54088000  0.96146900  0.36379000  1
  N  N11  1  0.96146900  0.36379000  0.54088000  1
loop_
_geom_bond_atom_site_label_1
_geom_bond_atom_site_label_2
_geom_bond_distance
_geom_bond_site_symmetry_2
C0 N3 1.231803 1_555
C0 N8 1.231803 1_555
C1 N6 1.231803 1_555
C1 N4 1.231803 1_555
C2 N7 1.231803 1_555
C2 N5 1.231803 1_555
C3 N10 1.231803 1_555
C3 N0 1.231803 1_555
C4 N1 1.231803 1_555
C4 N11 1.231803 1_555
C5 N9 1.231803 1_555
C5 N2 1.231803 1_555
N0 Y3 2.352352 1_554
N0 Y1 2.404863 1_565
N1 Y3 2.352353 1_545
N1 Y1 2.404862 1_655
N2 Y3 2.352353 1_455
N2 Y1 2.404863 1_556
N3 Y2 2.352353 1_555
N3 Y0 2.404862 1_554
N4 Y2 2.352352 1_555
N4 Y0 2.404863 1_545
N5 Y2 2.352353 1_555
N5 Y0 2.404863 1_455
N6 Y1 2.352352 1_556
N6 Y3 2.404863 1_545
N7 Y1 2.352353 1_565
N7 Y3 2.404862 1_455
N8 Y1 2.352353 1_655
N8 Y3 2.404863 1_554
N9 Y0 2.352353 1_555
N9 Y2 2.404862 1_556
N10 Y0 2.352352 1_555
N10 Y2 2.404863 1_565
N11 Y0 2.352353 1_555
N11 Y2 2.404863 1_655
