# generated using pymatgen
data_MgFe3Co5O16
_symmetry_space_group_name_H-M   'P 1'
_cell_length_a   5.80565469
_cell_length_b   5.81103305
_cell_length_c   8.90558626
_cell_angle_alpha   90.03793824
_cell_angle_beta   92.08767628
_cell_angle_gamma   120.08319785
_symmetry_Int_Tables_number   1
_chemical_formula_structural   MgFe3Co5O16
_chemical_formula_sum   'Mg1 Fe3 Co5 O16'
_cell_volume   259.74107077
_cell_formula_units_Z   1
loop_
 _symmetry_equiv_pos_site_id
 _symmetry_equiv_pos_as_xyz
  1  'x, y, z'
loop_
 _atom_site_type_symbol
 _atom_site_label
 _atom_site_symmetry_multiplicity
 _atom_site_fract_x
 _atom_site_fract_y
 _atom_site_fract_z
 _atom_site_occupancy
  Mg  Mg0  1  0.64423700  0.82117100  0.95150700  1
  Fe  Fe0  1  0.68354900  0.84142900  0.24974500  1
  Fe  Fe1  1  0.82965200  0.65754600  0.69349100  1
  Fe  Fe2  1  0.82898200  0.17212500  0.69461300  1
  Co  Co0  1  0.18231800  0.84217400  0.20534400  1
  Co  Co1  1  0.31700700  0.65949700  0.48149200  1
  Co  Co2  1  0.18223800  0.34012800  0.20559600  1
  Co  Co3  1  0.32303800  0.16227100  0.70248900  1
  Co  Co4  1  0.68147600  0.34011900  0.98593000  1
  O  O0  1  0.16933700  0.82185900  0.59684500  1
  O  O1  1  0.05009200  0.52526000  0.32403600  1
  O  O2  1  0.34878800  0.67402200  0.10631900  1
  O  O3  1  0.04512100  0.02242000  0.31712300  1
  O  O4  1  0.97661100  0.99083300  0.80855100  1
  O  O5  1  0.16722200  0.34937200  0.59690300  1
  O  O6  1  0.46239900  0.95690700  0.35218300  1
  O  O7  1  0.46186400  0.50549000  0.35297600  1
  O  O8  1  0.34191200  0.17058500  0.10589100  1
  O  O9  1  0.64082600  0.82112600  0.59132100  1
  O  O10  1  0.52423300  0.47490500  0.84719600  1
  O  O11  1  0.52614300  0.04787700  0.84744800  1
  O  O12  1  0.65139200  0.32278100  0.58706800  1
  O  O13  1  0.83805500  0.67428800  0.10067200  1
  O  O14  1  0.95208700  0.47566300  0.84742800  1
  O  O15  1  0.83808900  0.16367900  0.10105200  1
loop_
_geom_bond_atom_site_label_1
_geom_bond_atom_site_label_2
_geom_bond_distance
_geom_bond_site_symmetry_2
Mg0 O11 1.981212 1_565
Mg0 O10 1.985475 1_555
Mg0 O2 2.068234 1_556
Mg0 O4 2.142375 1_555
Mg0 O13 2.148209 1_556
Mg0 O15 2.154838 1_566
Fe0 O3 1.888586 1_665
Fe0 O6 1.969582 1_555
Fe0 O7 1.970356 1_555
Fe0 O2 2.068122 1_555
Fe0 O13 2.113983 1_555
Fe0 O15 2.114388 1_565
Fe1 O12 1.913476 1_555
Fe1 O0 1.943874 1_655
Fe1 O4 1.950891 1_555
Fe1 O9 1.976465 1_555
Fe1 O14 2.045926 1_555
Fe1 O10 2.106262 1_555
Fe2 O12 1.892303 1_555
Fe2 O4 1.928025 1_545
Fe2 O5 1.942216 1_655
Fe2 O9 1.972389 1_545
Fe2 O14 2.033777 1_555
Fe2 O11 2.089996 1_555
Co0 O6 1.885653 1_555
Co0 O8 1.890583 1_565
Co0 O3 1.901375 1_565
Co0 O2 1.916836 1_555
Co0 O13 1.929681 1_455
Co0 O1 1.934555 1_555
Co1 O9 1.862199 1_555
Co1 O0 1.885280 1_555
Co1 O5 1.885948 1_555
Co1 O1 1.898547 1_555
Co1 O6 1.906953 1_555
Co1 O7 1.908241 1_555
Co2 O7 1.886983 1_555
Co2 O8 1.895482 1_555
Co2 O3 1.901401 1_555
Co2 O2 1.914419 1_555
Co2 O15 1.928625 1_455
Co2 O1 1.934784 1_555
Co3 O0 1.939389 1_545
Co3 O5 1.951924 1_555
Co3 O12 1.980418 1_555
Co3 O4 2.015110 1_445
Co3 O10 2.021252 1_555
Co3 O11 2.043253 1_555
Co4 O14 1.874019 1_555
Co4 O11 1.897115 1_555
Co4 O10 1.899806 1_555
Co4 O15 1.948618 1_556
Co4 O13 1.949715 1_556
Co4 O8 2.050867 1_556
