# generated using pymatgen
data_Mg14AlZn
_symmetry_space_group_name_H-M   'P 1'
_cell_length_a   6.27904535
_cell_length_b   6.27904485
_cell_length_c   10.29947357
_cell_angle_alpha   90.00000000
_cell_angle_beta   90.00000000
_cell_angle_gamma   120.00000258
_symmetry_Int_Tables_number   1
_chemical_formula_structural   Mg14AlZn
_chemical_formula_sum   'Mg14 Al1 Zn1'
_cell_volume   351.66800099
_cell_formula_units_Z   1
loop_
 _symmetry_equiv_pos_site_id
 _symmetry_equiv_pos_as_xyz
  1  'x, y, z'
loop_
 _atom_site_type_symbol
 _atom_site_label
 _atom_site_symmetry_multiplicity
 _atom_site_fract_x
 _atom_site_fract_y
 _atom_site_fract_z
 _atom_site_occupancy
  Mg  Mg0  1  0.16669771  0.83334835  0.12500000  1
  Mg  Mg1  1  0.16616791  0.83308346  0.62500000  1
  Mg  Mg2  1  0.66665165  0.33330229  0.12500000  1
  Mg  Mg3  1  0.66691654  0.33383209  0.62500000  1
  Mg  Mg4  1  0.66665165  0.83334835  0.12500000  1
  Mg  Mg5  1  0.66691654  0.83308346  0.62500000  1
  Mg  Mg6  1  0.33122568  0.16877432  0.37545810  1
  Mg  Mg7  1  0.33122568  0.16877432  0.87454190  1
  Mg  Mg8  1  0.33122568  0.66245235  0.37545810  1
  Mg  Mg9  1  0.33122568  0.66245235  0.87454190  1
  Mg  Mg10  1  0.83754765  0.16877432  0.37545810  1
  Mg  Mg11  1  0.83754765  0.16877432  0.87454190  1
  Mg  Mg12  1  0.83333300  0.66666700  0.37591395  1
  Mg  Mg13  1  0.83333300  0.66666700  0.87408605  1
  Al  Al0  1  0.16666700  0.33333300  0.12500000  1
  Zn  Zn0  1  0.16666700  0.33333300  0.62500000  1
loop_
_geom_bond_atom_site_label_1
_geom_bond_atom_site_label_2
_geom_bond_distance
_geom_bond_site_symmetry_2
Mg0 Mg2 3.139233 1_565
Mg0 Mg4 3.139233 1_555
Mg0 Mg2 3.139812 1_455
Mg0 Mg4 3.139812 1_455
Mg0 Mg13 3.156686 1_454
Mg0 Mg12 3.156686 1_455
Mg0 Mg8 3.159358 1_555
Mg0 Mg9 3.159358 1_554
Mg0 Mg6 3.159364 1_565
Mg0 Mg7 3.159364 1_564
Mg1 Mg3 3.134822 1_455
Mg1 Mg5 3.134822 1_455
Mg1 Zn0 3.139524 1_565
Mg1 Zn0 3.139524 1_555
Mg1 Mg12 3.139630 1_455
Mg1 Mg13 3.139630 1_455
Mg1 Mg3 3.144223 1_565
Mg1 Mg5 3.144223 1_555
Mg1 Mg9 3.152477 1_555
Mg1 Mg8 3.152477 1_555
Mg1 Mg7 3.152483 1_565
Mg1 Mg6 3.152483 1_565
Mg2 Mg4 3.139233 1_545
Mg2 Mg4 3.139812 1_555
Mg2 Mg6 3.159364 1_555
Mg2 Mg7 3.159364 1_554
Mg3 Mg5 3.134822 1_555
Mg3 Zn0 3.139524 1_555
Mg3 Zn0 3.139524 1_655
Mg3 Mg5 3.144223 1_545
Mg3 Mg7 3.152483 1_555
Mg3 Mg6 3.152483 1_555
Mg4 Mg8 3.159364 1_555
Mg4 Mg9 3.159364 1_554
Mg5 Zn0 3.139524 1_665
Mg5 Zn0 3.139524 1_555
Mg5 Mg9 3.152483 1_555
Mg5 Mg8 3.152483 1_555
Mg6 Mg8 3.099826 1_555
Mg6 Zn0 3.131872 1_555
Mg6 Mg8 3.179218 1_545
Mg7 Mg9 3.099826 1_555
Mg7 Zn0 3.131872 1_555
Mg7 Mg9 3.179218 1_545
Mg8 Zn0 3.131878 1_555
Mg9 Zn0 3.131878 1_555
Mg10 Mg8 3.099826 1_655
Mg10 Mg6 3.099827 1_655
Mg10 Zn0 3.131878 1_655
Mg10 Mg12 3.139610 1_545
Mg10 Mg12 3.139610 1_555
Mg10 Mg3 3.152477 1_555
Mg10 Mg5 3.152483 1_545
Mg10 Mg2 3.159358 1_555
Mg10 Mg4 3.159364 1_545
Mg10 Mg8 3.179218 1_545
Mg10 Mg6 3.179219 1_555
Mg11 Mg9 3.099826 1_655
Mg11 Mg7 3.099827 1_655
Mg11 Zn0 3.131878 1_655
Mg11 Mg13 3.139610 1_545
Mg11 Mg13 3.139610 1_555
Mg11 Mg3 3.152477 1_555
Mg11 Mg5 3.152483 1_545
Mg11 Mg2 3.159358 1_556
Mg11 Mg4 3.159364 1_546
Mg11 Mg9 3.179218 1_545
Mg11 Mg7 3.179219 1_555
Mg12 Mg6 3.139610 1_665
Mg12 Mg6 3.139610 1_555
Mg12 Mg8 3.139610 1_555
Mg12 Mg8 3.139610 1_655
Mg12 Mg5 3.139624 1_555
Mg12 Mg3 3.139630 1_555
Mg12 Mg4 3.156679 1_555
Mg12 Mg2 3.156686 1_555
Mg13 Mg7 3.139610 1_665
Mg13 Mg7 3.139610 1_555
Mg13 Mg9 3.139610 1_555
Mg13 Mg9 3.139610 1_655
Mg13 Mg5 3.139624 1_555
Mg13 Mg3 3.139630 1_555
Mg13 Mg4 3.156679 1_556
Mg13 Mg2 3.156686 1_556
Al0 Mg0 3.139522 1_555
Al0 Mg4 3.139522 1_555
Al0 Mg4 3.139522 1_445
Al0 Mg0 3.139522 1_545
Al0 Mg2 3.139523 1_455
Al0 Mg2 3.139523 1_555
Al0 Mg6 3.139620 1_555
Al0 Mg7 3.139620 1_554
Al0 Mg8 3.139626 1_555
Al0 Mg9 3.139626 1_554
Al0 Mg10 3.139627 1_455
Al0 Mg11 3.139627 1_454
