# generated using pymatgen
data_NaSr3CeP3O13
_symmetry_space_group_name_H-M   'P 1'
_cell_length_a   9.77434159
_cell_length_b   9.77434159
_cell_length_c   7.18271400
_cell_angle_alpha   90.00000000
_cell_angle_beta   90.00000000
_cell_angle_gamma   119.99999720
_symmetry_Int_Tables_number   1
_chemical_formula_structural   NaSr3CeP3O13
_chemical_formula_sum   'Na2 Sr6 Ce2 P6 O26'
_cell_volume   594.28428046
_cell_formula_units_Z   2
loop_
 _symmetry_equiv_pos_site_id
 _symmetry_equiv_pos_as_xyz
  1  'x, y, z'
loop_
 _atom_site_type_symbol
 _atom_site_label
 _atom_site_symmetry_multiplicity
 _atom_site_fract_x
 _atom_site_fract_y
 _atom_site_fract_z
 _atom_site_occupancy
  Na  Na0  1  0.66666700  0.33333300  0.02052700  1
  Na  Na1  1  0.33333300  0.66666700  0.97947300  1
  Sr  Sr0  1  0.76853300  0.01554600  0.24639400  1
  Sr  Sr1  1  0.98445400  0.75298700  0.24639400  1
  Sr  Sr2  1  0.24701300  0.23146700  0.24639400  1
  Sr  Sr3  1  0.23146700  0.98445400  0.75360600  1
  Sr  Sr4  1  0.01554600  0.24701300  0.75360600  1
  Sr  Sr5  1  0.75298700  0.76853300  0.75360600  1
  Ce  Ce0  1  0.66666700  0.33333300  0.52122800  1
  Ce  Ce1  1  0.33333300  0.66666700  0.47877200  1
  P  P0  1  0.62412300  0.03173500  0.74186500  1
  P  P1  1  0.96826500  0.59238800  0.74186500  1
  P  P2  1  0.40761200  0.37587700  0.74186500  1
  P  P3  1  0.37587700  0.96826500  0.25813500  1
  P  P4  1  0.03173500  0.40761200  0.25813500  1
  P  P5  1  0.59238800  0.62412300  0.25813500  1
  O  O0  1  0.50159600  0.85311200  0.71479600  1
  O  O1  1  0.14688800  0.64848400  0.71479600  1
  O  O2  1  0.35151600  0.49840400  0.71479600  1
  O  O3  1  0.49840400  0.14688800  0.28520400  1
  O  O4  1  0.85311200  0.35151600  0.28520400  1
  O  O5  1  0.64848400  0.50159600  0.28520400  1
  O  O6  1  0.54001400  0.12975700  0.77398000  1
  O  O7  1  0.87024300  0.41025700  0.77398000  1
  O  O8  1  0.58974300  0.45998600  0.77398000  1
  O  O9  1  0.45998600  0.87024300  0.22602000  1
  O  O10  1  0.12975700  0.58974300  0.22602000  1
  O  O11  1  0.41025700  0.54001400  0.22602000  1
  O  O12  1  0.73694700  0.04933300  0.90154300  1
  O  O13  1  0.95066700  0.68761500  0.90154300  1
  O  O14  1  0.31238500  0.26305300  0.90154300  1
  O  O15  1  0.26305300  0.95066700  0.09845700  1
  O  O16  1  0.04933300  0.31238500  0.09845700  1
  O  O17  1  0.68761500  0.73694700  0.09845700  1
  O  O18  1  0.72505900  0.10711100  0.56175800  1
  O  O19  1  0.89288900  0.61794800  0.56175800  1
  O  O20  1  0.38205200  0.27494100  0.56175800  1
  O  O21  1  0.27494100  0.89288900  0.43824200  1
  O  O22  1  0.10711100  0.38205200  0.43824200  1
  O  O23  1  0.61794800  0.72505900  0.43824200  1
  O  O24  1  0.00000000  0.00000000  0.31042300  1
  O  O25  1  0.00000000  0.00000000  0.68957700  1
loop_
_geom_bond_atom_site_label_1
_geom_bond_atom_site_label_2
_geom_bond_distance
_geom_bond_site_symmetry_2
Na0 O7 2.482863 1_554
Na0 O6 2.482864 1_554
Na0 O8 2.482869 1_554
Na0 O4 2.577390 1_555
Na0 O3 2.577393 1_555
Na0 O5 2.577396 1_555
Na1 O10 2.482863 1_556
Na1 O9 2.482864 1_556
Na1 O11 2.482869 1_556
Na1 O1 2.577390 1_555
Na1 O0 2.577393 1_555
Na1 O2 2.577396 1_555
Ce0 O4 2.429563 1_555
Ce0 O3 2.429566 1_555
Ce0 O5 2.429570 1_555
Ce0 O7 2.514845 1_555
Ce0 O6 2.514846 1_555
Ce0 O8 2.514852 1_555
Ce0 O18 2.561598 1_555
Ce0 O19 2.561605 1_555
Ce0 O20 2.561608 1_555
Ce1 O1 2.429563 1_555
Ce1 O0 2.429566 1_555
Ce1 O2 2.429570 1_555
Ce1 O10 2.514845 1_555
Ce1 O9 2.514846 1_555
Ce1 O11 2.514852 1_555
Ce1 O21 2.561598 1_555
Ce1 O22 2.561605 1_555
Ce1 O23 2.561608 1_555
O0 P0 1.558650 1_565
O0 Sr5 2.971574 1_555
O1 P1 1.558650 1_455
O1 Sr3 2.971574 1_555
O2 P2 1.558650 1_555
O2 Sr4 2.971574 1_555
O3 P3 1.558650 1_545
O3 Sr2 2.971574 1_555
O4 P4 1.558650 1_655
O4 Sr0 2.971574 1_555
O5 P5 1.558650 1_555
O5 Sr1 2.971574 1_555
O6 P0 1.560351 1_555
O6 Sr3 2.617363 1_545
O7 P1 1.560351 1_555
O7 Sr4 2.617363 1_655
O8 P2 1.560351 1_555
O8 Sr5 2.617363 1_555
O9 P3 1.560351 1_555
O9 Sr0 2.617363 1_565
O10 P4 1.560351 1_555
O10 Sr1 2.617363 1_455
O11 P5 1.560351 1_555
O11 Sr2 2.617363 1_555
O12 P0 1.539952 1_555
O12 Sr0 2.538050 1_556
O12 Sr4 2.648822 1_655
O12 Sr5 3.019438 1_545
O13 P1 1.539958 1_555
O13 Sr1 2.538048 1_556
O13 Sr5 2.648816 1_555
O13 Sr3 3.019433 1_655
O14 P2 1.539954 1_555
O14 Sr2 2.538048 1_556
O14 Sr3 2.648824 1_545
O14 Sr4 3.019428 1_555
O15 P3 1.539952 1_555
O15 Sr3 2.538050 1_554
O15 Sr1 2.648822 1_455
O15 Sr2 3.019438 1_565
O16 P4 1.539958 1_555
O16 Sr4 2.538048 1_554
O16 Sr2 2.648816 1_555
O16 Sr0 3.019433 1_455
O17 P5 1.539954 1_555
O17 Sr5 2.538048 1_554
O17 Sr0 2.648824 1_565
O17 Sr1 3.019428 1_555
O18 P0 1.569341 1_555
O18 Sr0 2.548111 1_555
O18 Sr4 2.819199 1_655
O19 P1 1.569341 1_555
O19 Sr1 2.548111 1_555
O19 Sr5 2.819199 1_555
O20 P2 1.569341 1_555
O20 Sr2 2.548111 1_555
O20 Sr3 2.819199 1_545
O21 P3 1.569341 1_555
O21 Sr3 2.548111 1_555
O21 Sr1 2.819199 1_455
O22 P4 1.569341 1_555
O22 Sr4 2.548111 1_555
O22 Sr2 2.819199 1_555
O23 P5 1.569341 1_555
O23 Sr5 2.548111 1_555
O23 Sr0 2.819199 1_565
O24 Sr0 2.386840 1_455
O24 Sr1 2.386840 1_445
O24 Sr2 2.386840 1_555
O25 Sr3 2.386840 1_545
O25 Sr4 2.386840 1_555
O25 Sr5 2.386840 1_445
