# generated using pymatgen
data_ZnH9C4NO6
_symmetry_space_group_name_H-M   'P 1'
_cell_length_a   8.26049300
_cell_length_b   8.51972500
_cell_length_c   11.88612900
_cell_angle_alpha   90.00000000
_cell_angle_beta   90.00000000
_cell_angle_gamma   90.00000000
_symmetry_Int_Tables_number   1
_chemical_formula_structural   ZnH9C4NO6
_chemical_formula_sum   'Zn4 H36 C16 N4 O24'
_cell_volume   836.51163067
_cell_formula_units_Z   4
loop_
 _symmetry_equiv_pos_site_id
 _symmetry_equiv_pos_as_xyz
  1  'x, y, z'
loop_
 _atom_site_type_symbol
 _atom_site_label
 _atom_site_symmetry_multiplicity
 _atom_site_fract_x
 _atom_site_fract_y
 _atom_site_fract_z
 _atom_site_occupancy
  Zn  Zn0  1  0.50000000  0.50000000  0.50000000  1
  Zn  Zn1  1  0.00000000  0.00000000  0.00000000  1
  Zn  Zn2  1  0.50000000  0.50000000  0.00000000  1
  Zn  Zn3  1  0.00000000  0.00000000  0.50000000  1
  H  H0  1  0.57241600  0.51624000  0.75000000  1
  H  H1  1  0.92758400  0.01624000  0.75000000  1
  H  H2  1  0.42758400  0.48376000  0.25000000  1
  H  H3  1  0.07241600  0.98376000  0.25000000  1
  H  H4  1  0.28456100  0.78563800  0.53480900  1
  H  H5  1  0.21543900  0.28563800  0.96519100  1
  H  H6  1  0.71543900  0.21436200  0.03480900  1
  H  H7  1  0.78456100  0.71436200  0.46519100  1
  H  H8  1  0.71543900  0.21436200  0.46519100  1
  H  H9  1  0.78456100  0.71436200  0.03480900  1
  H  H10  1  0.28456100  0.78563800  0.96519100  1
  H  H11  1  0.21543900  0.28563800  0.53480900  1
  H  H12  1  0.48892400  0.14609800  0.17880500  1
  H  H13  1  0.01107600  0.64609800  0.32119500  1
  H  H14  1  0.51107600  0.85390200  0.67880500  1
  H  H15  1  0.98892400  0.35390200  0.82119500  1
  H  H16  1  0.51107600  0.85390200  0.82119500  1
  H  H17  1  0.98892400  0.35390200  0.67880500  1
  H  H18  1  0.48892400  0.14609800  0.32119500  1
  H  H19  1  0.01107600  0.64609800  0.17880500  1
  H  H20  1  0.65764800  0.08893200  0.25000000  1
  H  H21  1  0.84235200  0.58893200  0.25000000  1
  H  H22  1  0.34235200  0.91106800  0.75000000  1
  H  H23  1  0.15764800  0.41106800  0.75000000  1
  H  H24  1  0.52827300  0.86194600  0.17486100  1
  H  H25  1  0.97172700  0.36194600  0.32513900  1
  H  H26  1  0.47172700  0.13805400  0.67486100  1
  H  H27  1  0.02827300  0.63805400  0.82513900  1
  H  H28  1  0.47172700  0.13805400  0.82513900  1
  H  H29  1  0.02827300  0.63805400  0.67486100  1
  H  H30  1  0.52827300  0.86194600  0.32513900  1
  H  H31  1  0.97172700  0.36194600  0.17486100  1
  H  H32  1  0.34807800  0.91260200  0.25000000  1
  H  H33  1  0.15192200  0.41260200  0.25000000  1
  H  H34  1  0.65192200  0.08739800  0.75000000  1
  H  H35  1  0.84807800  0.58739800  0.75000000  1
  C  C0  1  0.44223000  0.48691500  0.75000000  1
  C  C1  1  0.05777000  0.98691500  0.75000000  1
  C  C2  1  0.55777000  0.51308500  0.25000000  1
  C  C3  1  0.94223000  0.01308500  0.25000000  1
  C  C4  1  0.21901100  0.71906400  0.46937900  1
  C  C5  1  0.28098900  0.21906400  0.03062100  1
  C  C6  1  0.78098900  0.28093600  0.96937900  1
  C  C7  1  0.71901100  0.78093600  0.53062100  1
  C  C8  1  0.78098900  0.28093600  0.53062100  1
  C  C9  1  0.71901100  0.78093600  0.96937900  1
  C  C10  1  0.21901100  0.71906400  0.03062100  1
  C  C11  1  0.28098900  0.21906400  0.46937900  1
  C  C12  1  0.48006500  0.91942000  0.25000000  1
  C  C13  1  0.01993500  0.41942000  0.25000000  1
  C  C14  1  0.51993500  0.08058000  0.75000000  1
  C  C15  1  0.98006500  0.58058000  0.75000000  1
  N  N0  1  0.53180400  0.08610800  0.25000000  1
  N  N1  1  0.96819600  0.58610800  0.25000000  1
  N  N2  1  0.46819600  0.91389200  0.75000000  1
  N  N3  1  0.03180400  0.41389200  0.75000000  1
  O  O0  1  0.28230300  0.59552000  0.43015800  1
  O  O1  1  0.21769700  0.09552000  0.06984200  1
  O  O2  1  0.71769700  0.40448000  0.93015800  1
  O  O3  1  0.78230300  0.90448000  0.56984200  1
  O  O4  1  0.71769700  0.40448000  0.56984200  1
  O  O5  1  0.78230300  0.90448000  0.93015800  1
  O  O6  1  0.28230300  0.59552000  0.06984200  1
  O  O7  1  0.21769700  0.09552000  0.43015800  1
  O  O8  1  0.37058800  0.47028200  0.65592600  1
  O  O9  1  0.12941200  0.97028200  0.84407400  1
  O  O10  1  0.62941200  0.52971800  0.15592600  1
  O  O11  1  0.87058800  0.02971800  0.34407400  1
  O  O12  1  0.62941200  0.52971800  0.34407400  1
  O  O13  1  0.87058800  0.02971800  0.15592600  1
  O  O14  1  0.37058800  0.47028200  0.84407400  1
  O  O15  1  0.12941200  0.97028200  0.65592600  1
  O  O16  1  0.08169100  0.77281500  0.43748000  1
  O  O17  1  0.41830900  0.27281500  0.06252000  1
  O  O18  1  0.91830900  0.22718500  0.93748000  1
  O  O19  1  0.58169100  0.72718500  0.56252000  1
  O  O20  1  0.91830900  0.22718500  0.56252000  1
  O  O21  1  0.58169100  0.72718500  0.93748000  1
  O  O22  1  0.08169100  0.77281500  0.06252000  1
  O  O23  1  0.41830900  0.27281500  0.43748000  1
loop_
_geom_bond_atom_site_label_1
_geom_bond_atom_site_label_2
_geom_bond_distance
_geom_bond_site_symmetry_2
H12 N0 1.050141 1_555
H13 N1 1.050141 1_455
H14 N2 1.050141 1_555
H15 N3 1.050141 1_655
H16 N2 1.050141 1_555
H17 N3 1.050141 1_655
H18 N0 1.050141 1_555
H19 N1 1.050141 1_455
H20 N0 1.039812 1_555
H21 N1 1.039812 1_555
H22 N2 1.039812 1_555
H23 N3 1.039812 1_555
C0 H0 1.104041 1_555
C0 O14 1.273037 1_555
C0 O8 1.273037 1_555
C1 H1 1.104041 1_465
C1 O9 1.273037 1_555
C1 O15 1.273037 1_555
C2 H2 1.104041 1_555
C2 O10 1.273037 1_555
C2 O12 1.273037 1_555
C3 H3 1.104041 1_645
C3 O13 1.273037 1_555
C3 O11 1.273037 1_555
C4 H4 1.104416 1_555
C4 O0 1.264341 1_555
C4 O16 1.280694 1_555
C5 H5 1.104416 1_554
C5 O1 1.264341 1_555
C5 O17 1.280694 1_555
C6 H6 1.104416 1_556
C6 O2 1.264341 1_555
C6 O18 1.280694 1_555
C7 H7 1.104416 1_555
C7 O3 1.264341 1_555
C7 O19 1.280694 1_555
C8 H8 1.104416 1_555
C8 O4 1.264341 1_555
C8 O20 1.280694 1_555
C9 H9 1.104416 1_556
C9 O5 1.264341 1_555
C9 O21 1.280694 1_555
C10 H10 1.104416 1_554
C10 O6 1.264341 1_555
C10 O22 1.280694 1_555
C11 H11 1.104416 1_555
C11 O7 1.264341 1_555
C11 O23 1.280694 1_555
C12 H32 1.091824 1_555
C12 H24 1.093617 1_555
C12 H30 1.093617 1_555
C12 N0 1.483054 1_565
C13 H33 1.091824 1_555
C13 H31 1.093617 1_455
C13 H25 1.093617 1_455
C13 N1 1.483054 1_455
C14 H34 1.091824 1_555
C14 H28 1.093617 1_555
C14 H26 1.093617 1_555
C14 N2 1.483054 1_545
C15 H35 1.091824 1_555
C15 H29 1.093617 1_655
C15 H27 1.093617 1_655
C15 N3 1.483054 1_655
O0 Zn0 2.141321 1_555
O1 Zn1 2.141321 1_555
O2 Zn2 2.141321 1_556
O3 Zn3 2.141321 1_665
O4 Zn0 2.141321 1_555
O5 Zn1 2.141321 1_666
O6 Zn2 2.141321 1_555
O7 Zn3 2.141321 1_555
O8 Zn0 2.154486 1_555
O9 Zn1 2.154486 1_566
O10 Zn2 2.154486 1_555
O11 Zn3 2.154486 1_655
O12 Zn0 2.154486 1_555
O13 Zn1 2.154486 1_655
O14 Zn2 2.154486 1_556
O15 Zn3 2.154486 1_565
O16 Zn3 2.180358 1_565
O17 Zn2 2.180358 1_555
O18 Zn1 2.180358 1_656
O19 Zn0 2.180358 1_555
O20 Zn3 2.180358 1_655
O21 Zn2 2.180358 1_556
O22 Zn1 2.180358 1_565
O23 Zn0 2.180358 1_555
