# generated using pymatgen
data_CeTaTiO6
_symmetry_space_group_name_H-M   'P 1'
_cell_length_a   5.36751400
_cell_length_b   7.58220800
_cell_length_c   11.15673900
_cell_angle_alpha   90.00000000
_cell_angle_beta   90.00000000
_cell_angle_gamma   90.00000000
_symmetry_Int_Tables_number   1
_chemical_formula_structural   CeTaTiO6
_chemical_formula_sum   'Ce4 Ta4 Ti4 O24'
_cell_volume   454.05258582
_cell_formula_units_Z   4
loop_
 _symmetry_equiv_pos_site_id
 _symmetry_equiv_pos_as_xyz
  1  'x, y, z'
loop_
 _atom_site_type_symbol
 _atom_site_label
 _atom_site_symmetry_multiplicity
 _atom_site_fract_x
 _atom_site_fract_y
 _atom_site_fract_z
 _atom_site_occupancy
  Ce  Ce0  1  0.45283700  0.74846300  0.95727500  1
  Ce  Ce1  1  0.04716300  0.74846300  0.45727500  1
  Ce  Ce2  1  0.54716300  0.24846300  0.04272500  1
  Ce  Ce3  1  0.95283700  0.24846300  0.54272500  1
  Ta  Ta0  1  0.45990500  0.50581200  0.64440400  1
  Ta  Ta1  1  0.54009500  0.00581200  0.35559600  1
  Ta  Ta2  1  0.95990500  0.00581200  0.85559600  1
  Ta  Ta3  1  0.04009500  0.50581200  0.14440400  1
  Ti  Ti0  1  0.03617700  0.99416500  0.14234800  1
  Ti  Ti1  1  0.96382300  0.49416500  0.85765200  1
  Ti  Ti2  1  0.53617700  0.49416500  0.35765200  1
  Ti  Ti3  1  0.46382300  0.99416500  0.64234800  1
  O  O0  1  0.15807000  0.75138700  0.11965100  1
  O  O1  1  0.34193000  0.75138700  0.61965100  1
  O  O2  1  0.84193000  0.25138700  0.88034900  1
  O  O3  1  0.65807000  0.25138700  0.38034900  1
  O  O4  1  0.05221500  0.74941000  0.85730400  1
  O  O5  1  0.44778500  0.74941000  0.35730400  1
  O  O6  1  0.94778500  0.24941000  0.14269600  1
  O  O7  1  0.55221500  0.24941000  0.64269600  1
  O  O8  1  0.23722700  0.03776300  0.97304500  1
  O  O9  1  0.26611000  0.46248200  0.47563900  1
  O  O10  1  0.76277300  0.53776300  0.02695500  1
  O  O11  1  0.73389000  0.96248200  0.52436100  1
  O  O12  1  0.76611000  0.96248200  0.02436100  1
  O  O13  1  0.73722700  0.53776300  0.52695500  1
  O  O14  1  0.23389000  0.46248200  0.97563900  1
  O  O15  1  0.26277300  0.03776300  0.47304500  1
  O  O16  1  0.62761700  0.55992100  0.79021500  1
  O  O17  1  0.87652900  0.94059800  0.28780700  1
  O  O18  1  0.37238300  0.05992100  0.20978500  1
  O  O19  1  0.12347100  0.44059800  0.71219300  1
  O  O20  1  0.37652900  0.44059800  0.21219300  1
  O  O21  1  0.12761700  0.05992100  0.70978500  1
  O  O22  1  0.62347100  0.94059800  0.78780700  1
  O  O23  1  0.87238300  0.55992100  0.29021500  1
loop_
_geom_bond_atom_site_label_1
_geom_bond_atom_site_label_2
_geom_bond_distance
_geom_bond_site_symmetry_2
Ce0 O0 2.405325 1_556
Ce0 O4 2.422403 1_555
Ce0 O10 2.433948 1_556
Ce0 O12 2.453752 1_556
Ce0 O14 2.474852 1_555
Ce0 O8 2.486335 1_565
Ce0 O16 2.529361 1_555
Ce0 O22 2.556543 1_555
Ce1 O1 2.405325 1_555
Ce1 O5 2.422403 1_555
Ce1 O13 2.433948 1_455
Ce1 O11 2.453752 1_455
Ce1 O9 2.474852 1_555
Ce1 O15 2.486335 1_565
Ce1 O23 2.529361 1_455
Ce1 O17 2.556543 1_455
Ce2 O2 2.405325 1_554
Ce2 O6 2.422403 1_555
Ce2 O8 2.433948 1_554
Ce2 O14 2.453752 1_554
Ce2 O12 2.474852 1_545
Ce2 O10 2.486335 1_555
Ce2 O18 2.529361 1_555
Ce2 O20 2.556543 1_555
Ce3 O3 2.405325 1_555
Ce3 O7 2.422403 1_555
Ce3 O15 2.433948 1_655
Ce3 O9 2.453752 1_655
Ce3 O11 2.474852 1_545
Ce3 O13 2.486335 1_555
Ce3 O21 2.529361 1_655
Ce3 O19 2.556543 1_655
O0 Ti0 1.969950 1_555
O0 Ta3 1.986025 1_555
O1 Ti3 1.969950 1_555
O1 Ta0 1.986025 1_555
O2 Ti1 1.969950 1_555
O2 Ta2 1.986025 1_555
O3 Ti2 1.969950 1_555
O3 Ta1 1.986025 1_555
O4 Ti1 1.992631 1_455
O4 Ta2 2.006329 1_465
O5 Ti2 1.992631 1_555
O5 Ta1 2.006329 1_565
O6 Ti0 1.992631 1_645
O6 Ta3 2.006329 1_655
O7 Ti3 1.992631 1_545
O7 Ta0 2.006329 1_555
O8 Ta2 1.997854 1_455
O8 Ti0 2.200374 1_546
O9 Ti2 1.972763 1_555
O9 Ta0 2.176037 1_555
O10 Ta3 1.997854 1_655
O10 Ti1 2.200374 1_554
O11 Ti3 1.972763 1_555
O11 Ta1 2.176037 1_565
O12 Ti0 1.972763 1_655
O12 Ta2 2.176037 1_564
O13 Ta0 1.997854 1_555
O13 Ti2 2.200374 1_555
O14 Ti1 1.972763 1_455
O14 Ta3 2.176037 1_556
O15 Ta1 1.997854 1_555
O15 Ti3 2.200374 1_545
O16 Ta0 1.903962 1_555
O16 Ti1 2.017720 1_555
O17 Ti0 1.879601 1_655
O17 Ta1 2.019272 1_565
O18 Ta1 1.903962 1_555
O18 Ti0 2.017720 1_545
O19 Ti1 1.879601 1_455
O19 Ta0 2.019272 1_555
O20 Ti2 1.879601 1_555
O20 Ta3 2.019272 1_555
O21 Ta2 1.903962 1_455
O21 Ti3 2.017720 1_545
O22 Ti3 1.879601 1_555
O22 Ta2 2.019272 1_565
O23 Ta3 1.903962 1_655
O23 Ti2 2.017720 1_555
