# generated using pymatgen
data_DyB12
_symmetry_space_group_name_H-M   'P 1'
_cell_length_a   5.29419672
_cell_length_b   5.29419672
_cell_length_c   5.29419672
_cell_angle_alpha   60.00000000
_cell_angle_beta   60.00000000
_cell_angle_gamma   60.00000000
_symmetry_Int_Tables_number   1
_chemical_formula_structural   DyB12
_chemical_formula_sum   'Dy1 B12'
_cell_volume   104.92650943
_cell_formula_units_Z   1
loop_
 _symmetry_equiv_pos_site_id
 _symmetry_equiv_pos_as_xyz
  1  'x, y, z'
loop_
 _atom_site_type_symbol
 _atom_site_label
 _atom_site_symmetry_multiplicity
 _atom_site_fract_x
 _atom_site_fract_y
 _atom_site_fract_z
 _atom_site_occupancy
  Dy  Dy0  1  0.00000000  0.00000000  -0.00000000  1
  B  B0  1  0.16209356  0.50000000  0.50000000  1
  B  B1  1  0.16209356  0.50000000  0.83790644  1
  B  B2  1  0.16209356  0.83790644  0.50000000  1
  B  B3  1  0.50000000  0.16209356  0.83790644  1
  B  B4  1  0.50000000  0.16209356  0.50000000  1
  B  B5  1  0.83790644  0.16209356  0.50000000  1
  B  B6  1  0.50000000  0.83790644  0.16209356  1
  B  B7  1  0.83790644  0.50000000  0.16209356  1
  B  B8  1  0.50000000  0.50000000  0.16209356  1
  B  B9  1  0.83790644  0.50000000  0.50000000  1
  B  B10  1  0.50000000  0.83790644  0.50000000  1
  B  B11  1  0.50000000  0.50000000  0.83790644  1
loop_
_geom_bond_atom_site_label_1
_geom_bond_atom_site_label_2
_geom_bond_distance
_geom_bond_site_symmetry_2
B0 B9 1.716310 1_455
B0 B1 1.788943 1_555
B0 B4 1.788943 1_555
B0 B2 1.788943 1_555
B0 B8 1.788943 1_555
B0 Dy0 2.782725 1_556
B0 Dy0 2.782725 1_565
B1 B7 1.716310 1_456
B1 B2 1.788943 1_555
B1 B11 1.788943 1_555
B1 B3 1.788943 1_555
B1 Dy0 2.782725 1_556
B1 Dy0 2.782725 1_566
B2 B5 1.716310 1_465
B2 B6 1.788943 1_555
B2 Dy0 2.782725 1_565
B2 Dy0 2.782725 1_566
B3 B6 1.716310 1_546
B3 B4 1.788943 1_555
B3 B5 1.788943 1_555
B3 Dy0 2.782725 1_656
B3 Dy0 2.782725 1_556
B4 B5 1.788943 1_555
B4 B8 1.788943 1_555
B4 Dy0 2.782725 1_655
B4 Dy0 2.782725 1_556
B5 B7 1.788943 1_555
B5 B9 1.788943 1_555
B5 Dy0 2.782725 1_655
B5 Dy0 2.782725 1_656
B6 B7 1.788943 1_555
B6 B8 1.788943 1_555
B6 Dy0 2.782725 1_665
B6 Dy0 2.782725 1_565
B7 B8 1.788943 1_555
B7 B9 1.788943 1_555
B7 Dy0 2.782725 1_665
B7 Dy0 2.782725 1_655
B8 Dy0 2.782725 1_565
B8 Dy0 2.782725 1_655
B9 Dy0 2.782725 1_656
B9 Dy0 2.782725 1_665
B10 B4 1.716310 1_565
B10 B2 1.788943 1_555
B10 B11 1.788943 1_555
B10 B9 1.788943 1_555
B10 B6 1.788943 1_555
B10 Dy0 2.782725 1_665
B10 Dy0 2.782725 1_566
B11 B8 1.716310 1_556
B11 B3 1.788943 1_555
B11 B9 1.788943 1_555
B11 Dy0 2.782725 1_656
B11 Dy0 2.782725 1_566
