# generated using pymatgen
data_Li5Mn(CoO4)2
_symmetry_space_group_name_H-M   'P 1'
_cell_length_a   4.96552000
_cell_length_b   5.08368414
_cell_length_c   5.84093568
_cell_angle_alpha   106.94010294
_cell_angle_beta   89.94004524
_cell_angle_gamma   99.16107501
_symmetry_Int_Tables_number   1
_chemical_formula_structural   Li5Mn(CoO4)2
_chemical_formula_sum   'Li5 Mn1 Co2 O8'
_cell_volume   139.08626119
_cell_formula_units_Z   1
loop_
 _symmetry_equiv_pos_site_id
 _symmetry_equiv_pos_as_xyz
  1  'x, y, z'
loop_
 _atom_site_type_symbol
 _atom_site_label
 _atom_site_symmetry_multiplicity
 _atom_site_fract_x
 _atom_site_fract_y
 _atom_site_fract_z
 _atom_site_occupancy
  Li  Li0  1  0.25551300  0.50499800  0.37339700  1
  Li  Li1  1  0.74251200  0.49251900  0.61917500  1
  Li  Li2  1  0.25721900  0.50570500  0.87905600  1
  Li  Li3  1  0.74485200  0.49705000  0.12915900  1
  Li  Li4  1  0.49980800  0.99993300  0.25135600  1
  Mn  Mn0  1  0.00035800  0.00089600  0.00084600  1
  Co  Co0  1  0.00052200  0.99995500  0.48926000  1
  Co  Co1  1  0.50004700  0.99928700  0.75380300  1
  O  O0  1  0.36766900  0.21592400  0.57855600  1
  O  O1  1  0.85710500  0.22246000  0.81615800  1
  O  O2  1  0.36322400  0.21991600  0.03682600  1
  O  O3  1  0.89516700  0.23675400  0.29596600  1
  O  O4  1  0.10525800  0.76600100  0.17572400  1
  O  O5  1  0.63059900  0.77910600  0.46809800  1
  O  O6  1  0.14114500  0.77565300  0.70561000  1
  O  O7  1  0.63900200  0.78384200  0.92701000  1
loop_
_geom_bond_atom_site_label_1
_geom_bond_atom_site_label_2
_geom_bond_distance
_geom_bond_site_symmetry_2
Li0 O3 2.032508 1_455
Li0 O5 2.107893 1_555
Li0 O6 2.161389 1_555
Li0 O2 2.198971 1_555
Li0 O4 2.204558 1_555
Li0 O0 2.279023 1_555
Li1 O5 2.053807 1_555
Li1 O7 2.092642 1_555
Li1 O0 2.114477 1_555
Li1 O1 2.168649 1_555
Li1 O3 2.170149 1_555
Li1 O6 2.217243 1_655
Li2 O2 2.064415 1_556
Li2 O0 2.073684 1_555
Li2 O4 2.074136 1_556
Li2 O6 2.074874 1_555
Li2 O7 2.142054 1_555
Li2 O1 2.222149 1_455
Li3 O4 2.037460 1_655
Li3 O3 2.079599 1_555
Li3 O1 2.088089 1_554
Li3 O2 2.139148 1_555
Li3 O5 2.213510 1_555
Li3 O7 2.246003 1_554
Li4 O0 2.071857 1_565
Li4 O7 2.073600 1_554
Li4 O2 2.083427 1_565
Li4 O5 2.084900 1_555
Li4 O4 2.097967 1_555
Li4 O3 2.106421 1_565
Mn0 O4 1.910656 1_545
Mn0 O3 1.917027 1_455
Mn0 O7 1.927954 1_444
Mn0 O2 1.938055 1_555
Mn0 O6 1.968580 1_544
Mn0 O1 1.975646 1_454
Co0 O0 1.957551 1_565
Co0 O5 1.978074 1_455
Co0 O4 1.991112 1_555
Co0 O3 1.997826 1_465
Co0 O1 2.104150 1_465
Co0 O6 2.116556 1_555
Co1 O0 1.892510 1_565
Co1 O7 1.893934 1_555
Co1 O5 1.896905 1_555
Co1 O2 1.900575 1_566
Co1 O1 1.919201 1_565
Co1 O6 1.927994 1_555
