# generated using pymatgen
data_Mg14VB
_symmetry_space_group_name_H-M   'P 1'
_cell_length_a   6.21736016
_cell_length_b   6.16306447
_cell_length_c   10.04002083
_cell_angle_alpha   90.00000000
_cell_angle_beta   90.00000000
_cell_angle_gamma   119.71154045
_symmetry_Int_Tables_number   1
_chemical_formula_structural   Mg14VB
_chemical_formula_sum   'Mg14 V1 B1'
_cell_volume   334.13581242
_cell_formula_units_Z   1
loop_
 _symmetry_equiv_pos_site_id
 _symmetry_equiv_pos_as_xyz
  1  'x, y, z'
loop_
 _atom_site_type_symbol
 _atom_site_label
 _atom_site_symmetry_multiplicity
 _atom_site_fract_x
 _atom_site_fract_y
 _atom_site_fract_z
 _atom_site_occupancy
  Mg  Mg0  1  0.16969823  0.33484861  0.62500000  1
  Mg  Mg1  1  0.16779936  0.83389918  0.62500000  1
  Mg  Mg2  1  0.67038143  0.33099953  0.12500000  1
  Mg  Mg3  1  0.66420761  0.33377299  0.62500000  1
  Mg  Mg4  1  0.67038143  0.83938090  0.12500000  1
  Mg  Mg5  1  0.66420761  0.83043362  0.62500000  1
  Mg  Mg6  1  0.32410771  0.15709171  0.35612083  1
  Mg  Mg7  1  0.32410771  0.15709171  0.89387917  1
  Mg  Mg8  1  0.32410771  0.66701700  0.35612083  1
  Mg  Mg9  1  0.32410771  0.66701700  0.89387917  1
  Mg  Mg10  1  0.83858773  0.16929437  0.37412644  1
  Mg  Mg11  1  0.83858773  0.16929437  0.87587356  1
  Mg  Mg12  1  0.84413180  0.67206640  0.36332075  1
  Mg  Mg13  1  0.84413180  0.67206640  0.88667925  1
  V  V0  1  0.16065036  0.33032468  0.12500000  1
  B  B0  1  0.17080408  0.83540154  0.12500000  1
loop_
_geom_bond_atom_site_label_1
_geom_bond_atom_site_label_2
_geom_bond_distance
_geom_bond_site_symmetry_2
Mg0 Mg5 3.077834 1_555
Mg0 Mg3 3.077834 1_555
Mg0 Mg1 3.081549 1_545
Mg0 Mg1 3.081549 1_555
Mg0 Mg10 3.088872 1_455
Mg0 Mg11 3.088872 1_455
Mg0 Mg5 3.139537 1_445
Mg0 Mg3 3.139537 1_455
Mg0 Mg7 3.232947 1_555
Mg0 Mg6 3.232947 1_555
Mg0 Mg9 3.232953 1_555
Mg0 Mg8 3.232953 1_555
Mg1 Mg3 3.096990 1_565
Mg1 Mg5 3.096990 1_555
Mg1 Mg3 3.120480 1_455
Mg1 Mg5 3.120480 1_455
Mg1 Mg12 3.155521 1_455
Mg1 Mg13 3.155521 1_455
Mg1 Mg9 3.206345 1_555
Mg1 Mg8 3.206345 1_555
Mg1 Mg7 3.206351 1_565
Mg1 Mg6 3.206351 1_565
Mg2 Mg7 2.980094 1_554
Mg2 Mg6 2.980094 1_555
Mg2 Mg4 3.029877 1_545
Mg2 V0 3.050242 1_655
Mg2 Mg4 3.133187 1_555
Mg2 V0 3.167122 1_555
Mg3 Mg5 3.060951 1_555
Mg3 Mg5 3.102113 1_545
Mg3 Mg7 3.265287 1_555
Mg3 Mg6 3.265287 1_555
Mg4 Mg9 2.980094 1_554
Mg4 Mg8 2.980094 1_555
Mg4 V0 3.050242 1_665
Mg4 V0 3.167122 1_555
Mg5 Mg9 3.265287 1_555
Mg5 Mg8 3.265287 1_555
Mg6 V0 2.938154 1_555
Mg7 V0 2.938154 1_556
Mg8 V0 2.938161 1_555
Mg9 V0 2.938161 1_556
Mg10 V0 3.046432 1_655
Mg10 Mg8 3.061966 1_655
Mg10 Mg6 3.061966 1_655
Mg10 Mg2 3.062062 1_555
Mg10 Mg4 3.062068 1_545
Mg10 Mg12 3.083587 1_555
Mg10 Mg12 3.083587 1_545
Mg10 Mg3 3.104302 1_555
Mg10 Mg5 3.104308 1_545
Mg10 Mg8 3.167271 1_545
Mg10 Mg6 3.167271 1_555
Mg11 V0 3.046432 1_656
Mg11 Mg9 3.061966 1_655
Mg11 Mg7 3.061966 1_655
Mg11 Mg2 3.062062 1_556
Mg11 Mg4 3.062068 1_546
Mg11 Mg13 3.083587 1_555
Mg11 Mg13 3.083587 1_545
Mg11 Mg3 3.104302 1_555
Mg11 Mg5 3.104308 1_545
Mg11 Mg9 3.167271 1_545
Mg11 Mg7 3.167271 1_555
Mg12 Mg6 3.000600 1_665
Mg12 Mg8 3.000600 1_655
Mg12 Mg4 3.009939 1_555
Mg12 Mg2 3.009946 1_555
Mg12 Mg5 3.191996 1_555
Mg12 Mg3 3.192002 1_555
Mg12 Mg6 3.218678 1_555
Mg12 Mg8 3.218678 1_555
Mg13 Mg7 3.000600 1_665
Mg13 Mg9 3.000600 1_655
Mg13 Mg4 3.009939 1_556
Mg13 Mg2 3.009946 1_556
Mg13 Mg5 3.191996 1_555
Mg13 Mg3 3.192002 1_555
Mg13 Mg7 3.218678 1_555
Mg13 Mg9 3.218678 1_555
B0 Mg8 2.889717 1_555
B0 Mg9 2.889717 1_554
B0 Mg6 2.889724 1_565
B0 Mg7 2.889724 1_564
B0 Mg13 2.972710 1_454
B0 Mg12 2.972710 1_455
B0 V0 3.082020 1_555
B0 V0 3.082020 1_565
