# generated using pymatgen
data_ReH12C4NO4
_symmetry_space_group_name_H-M   'P 1'
_cell_length_a   6.15208800
_cell_length_b   13.32186100
_cell_length_c   12.67619820
_cell_angle_alpha   90.00000000
_cell_angle_beta   90.07949238
_cell_angle_gamma   90.00000000
_symmetry_Int_Tables_number   1
_chemical_formula_structural   ReH12C4NO4
_chemical_formula_sum   'Re4 H48 C16 N4 O16'
_cell_volume   1038.90548697
_cell_formula_units_Z   4
loop_
 _symmetry_equiv_pos_site_id
 _symmetry_equiv_pos_as_xyz
  1  'x, y, z'
loop_
 _atom_site_type_symbol
 _atom_site_label
 _atom_site_symmetry_multiplicity
 _atom_site_fract_x
 _atom_site_fract_y
 _atom_site_fract_z
 _atom_site_occupancy
  Re  Re0  1  0.05424900  0.25000000  0.01607900  1
  Re  Re1  1  0.94575100  0.75000000  0.98392100  1
  Re  Re2  1  0.05385300  0.75000000  0.48298600  1
  Re  Re3  1  0.94614700  0.25000000  0.51701400  1
  H  H0  1  0.71628700  0.96733800  0.36401000  1
  H  H1  1  0.28371300  0.46733800  0.63599000  1
  H  H2  1  0.28371300  0.03266200  0.63599000  1
  H  H3  1  0.71628700  0.53266200  0.36401000  1
  H  H4  1  0.51141000  0.87212600  0.34714400  1
  H  H5  1  0.48859000  0.37212600  0.65285600  1
  H  H6  1  0.48859000  0.12787400  0.65285600  1
  H  H7  1  0.51141000  0.62787400  0.34714400  1
  H  H8  1  0.71918400  0.88795200  0.24847700  1
  H  H9  1  0.28081600  0.38795200  0.75152300  1
  H  H10  1  0.28081600  0.11204800  0.75152300  1
  H  H11  1  0.71918400  0.61204800  0.24847700  1
  H  H12  1  0.71729000  0.11333800  0.25202200  1
  H  H13  1  0.28271000  0.61333800  0.74797800  1
  H  H14  1  0.28271000  0.88666200  0.74797800  1
  H  H15  1  0.71729000  0.38666200  0.25202200  1
  H  H16  1  0.71782600  0.03320800  0.13706300  1
  H  H17  1  0.28217400  0.53320800  0.86293700  1
  H  H18  1  0.28217400  0.96679200  0.86293700  1
  H  H19  1  0.71782600  0.46679200  0.13706300  1
  H  H20  1  0.51098800  0.12771800  0.15205800  1
  H  H21  1  0.48901200  0.62771800  0.84794200  1
  H  H22  1  0.48901200  0.87228200  0.84794200  1
  H  H23  1  0.51098800  0.37228200  0.15205800  1
  H  H24  1  0.23560700  0.89184600  0.21412000  1
  H  H25  1  0.76439300  0.39184600  0.78588000  1
  H  H26  1  0.76439300  0.10815400  0.78588000  1
  H  H27  1  0.23560700  0.60815400  0.21412000  1
  H  H28  1  0.23539600  0.00175700  0.13070400  1
  H  H29  1  0.76460400  0.50175700  0.86929600  1
  H  H30  1  0.76460400  0.99824300  0.86929600  1
  H  H31  1  0.23539600  0.49824300  0.13070400  1
  H  H32  1  0.44271300  0.90740800  0.11556800  1
  H  H33  1  0.55728700  0.40740800  0.88443200  1
  H  H34  1  0.55728700  0.09259200  0.88443200  1
  H  H35  1  0.44271300  0.59259200  0.11556800  1
  H  H36  1  0.44250200  0.09302600  0.38428700  1
  H  H37  1  0.55749800  0.59302600  0.61571300  1
  H  H38  1  0.55749800  0.90697400  0.61571300  1
  H  H39  1  0.44250200  0.40697400  0.38428700  1
  H  H40  1  0.23571900  0.10868600  0.28527300  1
  H  H41  1  0.76428100  0.60868600  0.71472700  1
  H  H42  1  0.76428100  0.89131400  0.71472700  1
  H  H43  1  0.23571900  0.39131400  0.28527300  1
  H  H44  1  0.23494400  0.99884400  0.36874500  1
  H  H45  1  0.76505600  0.49884400  0.63125500  1
  H  H46  1  0.76505600  0.00115600  0.63125500  1
  H  H47  1  0.23494400  0.50115600  0.36874500  1
  C  C0  1  0.61692600  0.92599800  0.30684300  1
  C  C1  1  0.38307400  0.42599800  0.69315700  1
  C  C2  1  0.38307400  0.07400200  0.69315700  1
  C  C3  1  0.61692600  0.57400200  0.30684300  1
  C  C4  1  0.61681000  0.07453600  0.19337900  1
  C  C5  1  0.38319000  0.57453600  0.80662100  1
  C  C6  1  0.38319000  0.92546400  0.80662100  1
  C  C7  1  0.61681000  0.42546400  0.19337900  1
  C  C8  1  0.33632300  0.94617900  0.17153700  1
  C  C9  1  0.66367700  0.44617900  0.82846300  1
  C  C10  1  0.66367700  0.05382100  0.82846300  1
  C  C11  1  0.33632300  0.55382100  0.17153700  1
  C  C12  1  0.33619900  0.05430900  0.32814800  1
  C  C13  1  0.66380100  0.55430900  0.67185200  1
  C  C14  1  0.66380100  0.94569100  0.67185200  1
  C  C15  1  0.33619900  0.44569100  0.32814800  1
  N  N0  1  0.47625800  0.00021900  0.24996400  1
  N  N1  1  0.52374200  0.50021900  0.75003600  1
  N  N2  1  0.52374200  0.99978100  0.75003600  1
  N  N3  1  0.47625800  0.49978100  0.24996400  1
  O  O0  1  0.77106700  0.25000000  0.00373000  1
  O  O1  1  0.22893300  0.75000000  0.99627000  1
  O  O2  1  0.76986400  0.75000000  0.49345400  1
  O  O3  1  0.23013600  0.25000000  0.50654600  1
  O  O4  1  0.12611000  0.75000000  0.34879400  1
  O  O5  1  0.87389000  0.25000000  0.65120600  1
  O  O6  1  0.15865400  0.85829700  0.54402800  1
  O  O7  1  0.84134600  0.35829700  0.45597200  1
  O  O8  1  0.84134600  0.14170300  0.45597200  1
  O  O9  1  0.15865400  0.64170300  0.54402800  1
  O  O10  1  0.16094600  0.14168600  0.95614600  1
  O  O11  1  0.83905400  0.64168600  0.04385400  1
  O  O12  1  0.83905400  0.85831400  0.04385400  1
  O  O13  1  0.16094600  0.35831400  0.95614600  1
  O  O14  1  0.12315000  0.25000000  0.15125900  1
  O  O15  1  0.87685000  0.75000000  0.84874100  1
loop_
_geom_bond_atom_site_label_1
_geom_bond_atom_site_label_2
_geom_bond_distance
_geom_bond_site_symmetry_2
C0 H4 1.094690 1_555
C0 H0 1.095839 1_555
C0 H8 1.096057 1_555
C0 N0 1.498230 1_565
C1 H5 1.094690 1_555
C1 H1 1.095839 1_555
C1 H9 1.096057 1_555
C1 N1 1.498230 1_555
C2 H6 1.094690 1_555
C2 H2 1.095839 1_555
C2 H10 1.096057 1_555
C2 N2 1.498230 1_545
C3 H7 1.094690 1_555
C3 H3 1.095839 1_555
C3 H11 1.096057 1_555
C3 N3 1.498230 1_555
C4 H20 1.095078 1_555
C4 H16 1.095527 1_555
C4 H12 1.095741 1_555
C4 N0 1.498026 1_555
C5 H21 1.095078 1_555
C5 H17 1.095527 1_555
C5 H13 1.095741 1_555
C5 N1 1.498026 1_555
C6 H22 1.095078 1_555
C6 H18 1.095527 1_555
C6 H14 1.095741 1_555
C6 N2 1.498026 1_555
C7 H23 1.095078 1_555
C7 H19 1.095527 1_555
C7 H15 1.095741 1_555
C7 N3 1.498026 1_555
C8 H32 1.095360 1_555
C8 H24 1.095506 1_555
C8 H28 1.095789 1_565
C8 N0 1.498460 1_565
C9 H33 1.095360 1_555
C9 H25 1.095506 1_555
C9 H29 1.095789 1_555
C9 N1 1.498460 1_555
C10 H34 1.095360 1_555
C10 H26 1.095506 1_555
C10 H30 1.095789 1_545
C10 N2 1.498460 1_545
C11 H35 1.095360 1_555
C11 H27 1.095506 1_555
C11 H31 1.095789 1_555
C11 N3 1.498460 1_555
C12 H36 1.094921 1_555
C12 H44 1.095321 1_545
C12 H40 1.096054 1_555
C12 N0 1.498761 1_555
C13 H37 1.094921 1_555
C13 H45 1.095321 1_555
C13 H41 1.096054 1_555
C13 N1 1.498761 1_555
C14 H38 1.094921 1_555
C14 H46 1.095321 1_565
C14 H42 1.096054 1_555
C14 N2 1.498761 1_555
C15 H39 1.094921 1_555
C15 H47 1.095321 1_555
C15 H43 1.096054 1_555
C15 N3 1.498761 1_555
O0 Re0 1.748963 1_655
O1 Re1 1.748963 1_455
O2 Re2 1.752341 1_655
O3 Re3 1.752341 1_455
O4 Re2 1.758766 1_555
O5 Re3 1.758766 1_555
O6 Re2 1.759114 1_555
O7 Re3 1.759114 1_555
O8 Re3 1.759114 1_555
O9 Re2 1.759114 1_555
O10 Re0 1.758273 1_556
O11 Re1 1.758273 1_554
O12 Re1 1.758273 1_554
O13 Re0 1.758273 1_556
O14 Re0 1.764647 1_555
O15 Re1 1.764647 1_555
