# generated using pymatgen
data_Ce5Sb3
_symmetry_space_group_name_H-M   'P 1'
_cell_length_a   9.28881800
_cell_length_b   9.28881769
_cell_length_c   6.34791500
_cell_angle_alpha   90.00000000
_cell_angle_beta   90.00000000
_cell_angle_gamma   120.00000111
_symmetry_Int_Tables_number   1
_chemical_formula_structural   Ce5Sb3
_chemical_formula_sum   'Ce10 Sb6'
_cell_volume   474.33221606
_cell_formula_units_Z   2
loop_
 _symmetry_equiv_pos_site_id
 _symmetry_equiv_pos_as_xyz
  1  'x, y, z'
loop_
 _atom_site_type_symbol
 _atom_site_label
 _atom_site_symmetry_multiplicity
 _atom_site_fract_x
 _atom_site_fract_y
 _atom_site_fract_z
 _atom_site_occupancy
  Ce  Ce0  1  0.66666700  0.33333300  0.00000000  1
  Ce  Ce1  1  0.33333300  0.66666700  0.00000000  1
  Ce  Ce2  1  0.33333300  0.66666700  0.50000000  1
  Ce  Ce3  1  0.66666700  0.33333300  0.50000000  1
  Ce  Ce4  1  0.74496000  0.74496000  0.75000000  1
  Ce  Ce5  1  0.25504000  0.00000000  0.75000000  1
  Ce  Ce6  1  0.00000000  0.25504000  0.75000000  1
  Ce  Ce7  1  0.25504000  0.25504000  0.25000000  1
  Ce  Ce8  1  0.74496000  0.00000000  0.25000000  1
  Ce  Ce9  1  0.00000000  0.74496000  0.25000000  1
  Sb  Sb0  1  0.38505500  0.38505500  0.75000000  1
  Sb  Sb1  1  0.61494500  0.00000000  0.75000000  1
  Sb  Sb2  1  0.00000000  0.61494500  0.75000000  1
  Sb  Sb3  1  0.61494500  0.61494500  0.25000000  1
  Sb  Sb4  1  0.38505500  0.00000000  0.25000000  1
  Sb  Sb5  1  0.00000000  0.38505500  0.25000000  1
loop_
_geom_bond_atom_site_label_1
_geom_bond_atom_site_label_2
_geom_bond_distance
_geom_bond_site_symmetry_2
Ce0 Sb1 3.293728 1_554
Ce0 Sb5 3.293728 1_655
Ce0 Sb4 3.293731 1_555
Ce0 Sb2 3.293731 1_654
Ce0 Sb3 3.293736 1_555
Ce0 Sb0 3.293736 1_554
Ce1 Sb4 3.293728 1_565
Ce1 Sb2 3.293728 1_554
Ce1 Sb1 3.293731 1_564
Ce1 Sb5 3.293731 1_555
Ce1 Sb0 3.293736 1_554
Ce1 Sb3 3.293736 1_555
Ce2 Sb4 3.293728 1_565
Ce2 Sb2 3.293728 1_555
Ce2 Sb1 3.293731 1_565
Ce2 Sb5 3.293731 1_555
Ce2 Sb0 3.293736 1_555
Ce2 Sb3 3.293736 1_555
Ce3 Sb1 3.293728 1_555
Ce3 Sb5 3.293728 1_655
Ce3 Sb4 3.293731 1_555
Ce3 Sb2 3.293731 1_655
Ce3 Sb3 3.293736 1_555
Ce3 Sb0 3.293736 1_555
Ce4 Sb1 3.151475 1_565
Ce4 Sb2 3.151475 1_655
Ce4 Sb0 3.343092 1_555
Ce4 Sb3 3.395955 1_556
Ce4 Sb3 3.395955 1_555
Ce5 Sb0 3.151475 1_555
Ce5 Sb2 3.151475 1_545
Ce5 Sb1 3.343092 1_555
Ce5 Sb4 3.395955 1_555
Ce5 Sb4 3.395955 1_556
Ce6 Sb1 3.151475 1_455
Ce6 Sb0 3.151475 1_555
Ce6 Sb2 3.343092 1_555
Ce6 Sb5 3.395955 1_555
Ce6 Sb5 3.395955 1_556
Ce7 Sb4 3.151475 1_555
Ce7 Sb5 3.151475 1_555
Ce7 Sb3 3.343092 1_555
Ce7 Sb0 3.395955 1_555
Ce7 Sb0 3.395955 1_554
Ce8 Sb5 3.151475 1_655
Ce8 Sb3 3.151475 1_545
Ce8 Sb4 3.343092 1_555
Ce8 Sb1 3.395955 1_555
Ce8 Sb1 3.395955 1_554
Ce9 Sb4 3.151475 1_565
Ce9 Sb3 3.151475 1_455
Ce9 Sb5 3.343092 1_555
Ce9 Sb2 3.395955 1_555
Ce9 Sb2 3.395955 1_554
