# generated using pymatgen
data_Lu4V5B18
_symmetry_space_group_name_H-M   'P 1'
_cell_length_a   3.35944600
_cell_length_b   8.94153600
_cell_length_c   33.81458130
_cell_angle_alpha   89.99234296
_cell_angle_beta   90.00000000
_cell_angle_gamma   90.00000000
_symmetry_Int_Tables_number   1
_chemical_formula_structural   Lu4V5B18
_chemical_formula_sum   'Lu16 V20 B72'
_cell_volume   1015.74292133
_cell_formula_units_Z   4
loop_
 _symmetry_equiv_pos_site_id
 _symmetry_equiv_pos_as_xyz
  1  'x, y, z'
loop_
 _atom_site_type_symbol
 _atom_site_label
 _atom_site_symmetry_multiplicity
 _atom_site_fract_x
 _atom_site_fract_y
 _atom_site_fract_z
 _atom_site_occupancy
  Lu  Lu0  1  0.00000000  0.67661300  0.86218700  1
  Lu  Lu1  1  0.00000000  0.67726300  0.52826100  1
  Lu  Lu2  1  0.00000000  0.67761600  0.19496300  1
  Lu  Lu3  1  0.00000000  0.32344300  0.80453900  1
  Lu  Lu4  1  0.00000000  0.32313200  0.47098500  1
  Lu  Lu5  1  0.00000000  0.32324900  0.13765800  1
  Lu  Lu6  1  0.00000000  0.18117900  0.97250700  1
  Lu  Lu7  1  0.00000000  0.18152000  0.63827000  1
  Lu  Lu8  1  0.00000000  0.18101800  0.30547100  1
  Lu  Lu9  1  0.00000000  0.81820700  0.69453400  1
  Lu  Lu10  1  0.00000000  0.81944800  0.36199400  1
  Lu  Lu11  1  0.00000000  0.81953900  0.02892500  1
  Lu  Lu12  1  0.00000000  0.05558400  0.87723900  1
  Lu  Lu13  1  0.00000000  0.05403200  0.54207900  1
  Lu  Lu14  1  0.00000000  0.05377100  0.20886800  1
  Lu  Lu15  1  0.00000000  0.94415600  0.78958100  1
  V  V0  1  0.00000000  0.36469200  0.89620300  1
  V  V1  1  0.00000000  0.36337000  0.56196700  1
  V  V2  1  0.00000000  0.36325300  0.22882700  1
  V  V3  1  0.00000000  0.63512900  0.77054700  1
  V  V4  1  0.00000000  0.64347800  0.43779100  1
  V  V5  1  0.00000000  0.64330700  0.10451000  1
  V  V6  1  0.00000000  0.84924100  0.94132900  1
  V  V7  1  0.00000000  0.84915500  0.60671100  1
  V  V8  1  0.00000000  0.84922500  0.27370900  1
  V  V9  1  0.00000000  0.15080800  0.72556100  1
  V  V10  1  0.00000000  0.14501100  0.39433200  1
  V  V11  1  0.00000000  0.14509300  0.06107900  1
  V  V12  1  0.00000000  0.94439100  0.45584600  1
  V  V13  1  0.00000000  0.94436500  0.12246400  1
  V  V14  1  0.00000000  0.55494800  0.95744900  1
  V  V15  1  0.00000000  0.55499700  0.62403100  1
  V  V16  1  0.00000000  0.55496200  0.29061400  1
  V  V17  1  0.00000000  0.44491700  0.70919200  1
  V  V18  1  0.00000000  0.44531900  0.37651700  1
  V  V19  1  0.00000000  0.44559300  0.04321800  1
  B  B0  1  0.50000000  0.40616200  0.99214700  1
  B  B1  1  0.50000000  0.40678700  0.65808300  1
  B  B2  1  0.50000000  0.40597000  0.32528200  1
  B  B3  1  0.50000000  0.59317600  0.67494400  1
  B  B4  1  0.50000000  0.59326200  0.34196500  1
  B  B5  1  0.50000000  0.59310900  0.00882300  1
  B  B6  1  0.50000000  0.89558200  0.84256100  1
  B  B7  1  0.50000000  0.90009100  0.50637000  1
  B  B8  1  0.50000000  0.90024400  0.17308200  1
  B  B9  1  0.50000000  0.10445600  0.82416200  1
  B  B10  1  0.50000000  0.09487600  0.48939900  1
  B  B11  1  0.50000000  0.09497100  0.15608000  1
  B  B12  1  0.50000000  0.20663200  0.91366300  1
  B  B13  1  0.50000000  0.20588600  0.57983700  1
  B  B14  1  0.50000000  0.20573400  0.24656400  1
  B  B15  1  0.50000000  0.79312800  0.75310900  1
  B  B16  1  0.50000000  0.79886300  0.42060300  1
  B  B17  1  0.50000000  0.79890900  0.08730200  1
  B  B18  1  0.50000000  0.69897700  0.92230700  1
  B  B19  1  0.50000000  0.69867300  0.58848600  1
  B  B20  1  0.50000000  0.69888200  0.25527300  1
  B  B21  1  0.50000000  0.30101000  0.74441700  1
  B  B22  1  0.50000000  0.29939800  0.41199500  1
  B  B23  1  0.50000000  0.29935800  0.07872200  1
  B  B24  1  0.50000000  0.44839300  0.85584400  1
  B  B25  1  0.50000000  0.44962900  0.52200500  1
  B  B26  1  0.50000000  0.44951700  0.18874800  1
  B  B27  1  0.50000000  0.55145000  0.81091100  1
  B  B28  1  0.50000000  0.55565400  0.47749900  1
  B  B29  1  0.50000000  0.55560100  0.14422800  1
  B  B30  1  0.50000000  0.94429500  0.97907000  1
  B  B31  1  0.50000000  0.94486000  0.64486900  1
  B  B32  1  0.50000000  0.94440100  0.31190700  1
  B  B33  1  0.50000000  0.05511900  0.68787600  1
  B  B34  1  0.50000000  0.05393800  0.35549300  1
  B  B35  1  0.50000000  0.05398600  0.02233000  1
  B  B36  1  0.50000000  0.01702000  0.93048100  1
  B  B37  1  0.50000000  0.01704000  0.59641500  1
  B  B38  1  0.50000000  0.01720800  0.26324400  1
  B  B39  1  0.50000000  0.98312100  0.73631300  1
  B  B40  1  0.50000000  0.98003100  0.40459400  1
  B  B41  1  0.50000000  0.97999300  0.07135900  1
  B  B42  1  0.50000000  0.52250400  0.90553900  1
  B  B43  1  0.50000000  0.52188000  0.57181900  1
  B  B44  1  0.50000000  0.52158600  0.23864000  1
  B  B45  1  0.50000000  0.47737400  0.76127300  1
  B  B46  1  0.50000000  0.47943500  0.42816400  1
  B  B47  1  0.50000000  0.47938500  0.09487500  1
  B  B48  1  0.50000000  0.37548300  0.94113200  1
  B  B49  1  0.50000000  0.37473000  0.60722400  1
  B  B50  1  0.50000000  0.37485800  0.27413700  1
  B  B51  1  0.50000000  0.62445400  0.72574100  1
  B  B52  1  0.50000000  0.62658000  0.39280700  1
  B  B53  1  0.50000000  0.62658000  0.05953000  1
  B  B54  1  0.50000000  0.86464000  0.89519900  1
  B  B55  1  0.50000000  0.86525700  0.56101000  1
  B  B56  1  0.50000000  0.86531200  0.22783000  1
  B  B57  1  0.50000000  0.13542400  0.77160200  1
  B  B58  1  0.50000000  0.12761100  0.43938500  1
  B  B59  1  0.50000000  0.12772800  0.10612700  1
  B  B60  1  0.50000000  0.25154400  0.86080800  1
  B  B61  1  0.50000000  0.25049100  0.52689100  1
  B  B62  1  0.50000000  0.25054300  0.19359800  1
  B  B63  1  0.50000000  0.74833600  0.80595400  1
  B  B64  1  0.50000000  0.75782600  0.47208800  1
  B  B65  1  0.50000000  0.75780200  0.13880800  1
  B  B66  1  0.50000000  0.73788900  0.97415200  1
  B  B67  1  0.50000000  0.73863900  0.64027600  1
  B  B68  1  0.50000000  0.73814300  0.30713900  1
  B  B69  1  0.50000000  0.26171600  0.69265400  1
  B  B70  1  0.50000000  0.25991000  0.36024800  1
  B  B71  1  0.50000000  0.25992800  0.02703000  1
loop_
_geom_bond_atom_site_label_1
_geom_bond_atom_site_label_2
_geom_bond_distance
_geom_bond_site_symmetry_2
B0 B48 1.746762 1_555
B0 B71 1.760863 1_556
B0 B5 1.764214 1_556
B0 V19 2.434805 1_656
B0 V19 2.434805 1_556
B0 V14 2.442863 1_555
B0 V14 2.442863 1_655
B0 Lu6 2.703662 1_555
B0 Lu6 2.703662 1_655
B1 B49 1.743537 1_555
B1 B69 1.746076 1_555
B1 B3 1.761503 1_555
B1 V15 2.429636 1_555
B1 V15 2.429636 1_655
B1 V17 2.434059 1_655
B1 V17 2.434059 1_555
B1 Lu7 2.706995 1_655
B1 Lu7 2.706995 1_555
B2 B50 1.751715 1_555
B2 B70 1.761591 1_555
B2 B4 1.767213 1_555
B2 V18 2.438636 1_655
B2 V18 2.438636 1_555
B2 V16 2.443380 1_555
B2 V16 2.443380 1_655
B2 Lu8 2.704883 1_655
B2 Lu8 2.704883 1_555
B3 B51 1.740336 1_555
B3 B67 1.750876 1_555
B3 V15 2.429419 1_655
B3 V15 2.429419 1_555
B3 V17 2.433022 1_555
B3 V17 2.433022 1_655
B3 Lu9 2.703567 1_655
B3 Lu9 2.703567 1_555
B4 B52 1.744861 1_555
B4 B68 1.750603 1_555
B4 V18 2.436396 1_655
B4 V18 2.436396 1_555
B4 V16 2.440089 1_555
B4 V16 2.440089 1_655
B4 Lu10 2.714929 1_655
B4 Lu10 2.714929 1_555
B5 B53 1.740599 1_555
B5 B66 1.746412 1_554
B5 V19 2.431782 1_655
B5 V19 2.431782 1_555
B5 V14 2.440469 1_554
B5 V14 2.440469 1_654
B5 Lu11 2.717171 1_555
B5 Lu11 2.717171 1_655
B6 B63 1.807252 1_555
B6 B9 1.968476 1_565
B6 Lu15 2.493865 1_655
B6 Lu15 2.493865 1_555
B6 Lu12 2.498751 1_665
B6 Lu12 2.498751 1_565
B6 Lu0 2.663643 1_555
B6 Lu0 2.663643 1_655
B7 V12 2.428371 1_555
B7 V12 2.428371 1_655
B7 Lu13 2.484874 1_665
B7 Lu13 2.484874 1_565
B7 Lu1 2.709018 1_655
B7 Lu1 2.709018 1_555
B8 V13 2.430348 1_555
B8 V13 2.430348 1_655
B8 Lu14 2.484093 1_565
B8 Lu14 2.484093 1_665
B8 Lu2 2.707611 1_555
B8 Lu2 2.707611 1_655
B9 Lu12 2.496686 1_555
B9 Lu12 2.496686 1_655
B9 Lu15 2.498741 1_545
B9 Lu15 2.498741 1_645
B9 Lu3 2.663736 1_655
B9 Lu3 2.663736 1_555
B10 B58 1.716306 1_555
B10 B7 1.833711 1_545
B10 B61 1.882505 1_555
B10 V12 2.433044 1_545
B10 V12 2.433044 1_645
B10 Lu13 2.475457 1_655
B10 Lu13 2.475457 1_555
B10 Lu4 2.715576 1_555
B10 Lu4 2.715576 1_655
B11 B59 1.714307 1_555
B11 B8 1.833547 1_545
B11 B62 1.882813 1_555
B11 V13 2.434636 1_645
B11 V13 2.434636 1_545
B11 Lu14 2.478557 1_555
B11 Lu14 2.478557 1_655
B11 Lu5 2.715786 1_555
B11 Lu5 2.715786 1_655
B12 B48 1.772738 1_555
B12 B36 1.788187 1_555
B12 B60 1.831778 1_555
B12 V0 2.273156 1_555
B12 V0 2.273156 1_655
B12 Lu12 2.482545 1_555
B12 Lu12 2.482545 1_655
B12 Lu6 2.613884 1_555
B12 Lu6 2.613884 1_655
B13 B49 1.771233 1_555
B13 B37 1.779122 1_555
B13 B61 1.834182 1_555
B13 V1 2.273601 1_555
B13 V1 2.273601 1_655
B13 Lu13 2.509127 1_655
B13 Lu13 2.509127 1_555
B13 Lu7 2.602490 1_655
B13 Lu7 2.602490 1_555
B14 B50 1.776661 1_555
B14 B38 1.777498 1_555
B14 B62 1.835239 1_555
B14 V2 2.272605 1_655
B14 V2 2.272605 1_555
B14 Lu14 2.508589 1_555
B14 Lu14 2.508589 1_655
B14 Lu8 2.614942 1_655
B14 Lu8 2.614942 1_555
B15 B51 1.769601 1_555
B15 B39 1.791181 1_555
B15 B63 1.831213 1_555
B15 V3 2.272623 1_655
B15 V3 2.272623 1_555
B15 Lu15 2.483253 1_655
B15 Lu15 2.483253 1_555
B15 Lu9 2.606677 1_655
B15 Lu9 2.606677 1_555
B16 B40 1.707909 1_555
B16 B64 1.779144 1_555
B16 B52 1.804683 1_555
B16 V4 2.255977 1_655
B16 V4 2.255977 1_555
B16 V12 2.436254 1_555
B16 V12 2.436254 1_655
B16 Lu10 2.604407 1_555
B16 Lu10 2.604407 1_655
B17 B41 1.706491 1_555
B17 B65 1.779968 1_555
B17 B53 1.804611 1_555
B17 V5 2.257346 1_555
B17 V5 2.257346 1_655
B17 V13 2.434571 1_655
B17 V13 2.434571 1_555
B17 Lu11 2.598471 1_555
B17 Lu11 2.598471 1_655
B18 B42 1.676790 1_555
B18 B54 1.741859 1_555
B18 B66 1.787355 1_555
B18 V6 2.245144 1_655
B18 V6 2.245144 1_555
B18 V14 2.427278 1_655
B18 V14 2.427278 1_555
B18 Lu0 2.644689 1_555
B18 Lu0 2.644689 1_655
B19 B43 1.678333 1_555
B19 B55 1.755420 1_555
B19 B67 1.787393 1_555
B19 V7 2.238741 1_655
B19 V7 2.238741 1_555
B19 V15 2.432309 1_655
B19 V15 2.432309 1_555
B19 Lu1 2.646788 1_655
B19 Lu1 2.646788 1_555
B20 B44 1.682185 1_555
B20 B56 1.753661 1_555
B20 B68 1.788662 1_555
B20 V8 2.239969 1_555
B20 V8 2.239969 1_655
B20 V16 2.430063 1_555
B20 V16 2.430063 1_655
B20 Lu2 2.648907 1_555
B20 Lu2 2.648907 1_655
B21 B45 1.676882 1_555
B21 B57 1.742645 1_555
B21 B69 1.785305 1_555
B21 V9 2.243210 1_655
B21 V9 2.243210 1_555
B21 V17 2.428075 1_555
B21 V17 2.428075 1_655
B21 Lu3 2.644788 1_655
B21 Lu3 2.644788 1_555
B22 B46 1.700191 1_555
B22 B70 1.785117 1_555
B22 B58 1.793558 1_555
B22 V10 2.254790 1_555
B22 V10 2.254790 1_655
B22 V18 2.441856 1_555
B22 V18 2.441856 1_655
B22 Lu4 2.616397 1_655
B22 Lu4 2.616397 1_555
B23 B47 1.699932 1_555
B23 B71 1.783192 1_555
B23 B59 1.792618 1_555
B23 V11 2.253943 1_555
B23 V11 2.253943 1_655
B23 V19 2.443789 1_655
B23 V19 2.443789 1_555
B23 Lu5 2.615120 1_555
B23 Lu5 2.615120 1_655
B24 B60 1.768096 1_555
B24 B27 1.776883 1_555
B24 B42 1.806439 1_555
B24 V0 2.289932 1_555
B24 V0 2.289932 1_655
B24 Lu0 2.651752 1_555
B24 Lu0 2.651752 1_655
B24 Lu3 2.660818 1_655
B24 Lu3 2.660818 1_555
B25 B28 1.778553 1_555
B25 B61 1.788226 1_555
B25 B43 1.804159 1_555
B25 V1 2.289560 1_555
B25 V1 2.289560 1_655
B25 Lu1 2.647485 1_655
B25 Lu1 2.647485 1_555
B25 Lu4 2.660397 1_555
B25 Lu4 2.660397 1_655
B26 B29 1.779235 1_555
B26 B62 1.786654 1_555
B26 B44 1.806040 1_555
B26 V2 2.291912 1_555
B26 V2 2.291912 1_655
B26 Lu2 2.650573 1_555
B26 Lu2 2.650573 1_655
B26 Lu5 2.661063 1_555
B26 Lu5 2.661063 1_655
B27 B63 1.768403 1_555
B27 B45 1.804531 1_555
B27 V3 2.289969 1_655
B27 V3 2.289969 1_555
B27 Lu3 2.650367 1_555
B27 Lu3 2.650367 1_655
B27 Lu0 2.660979 1_555
B27 Lu0 2.660979 1_655
B28 B46 1.802165 1_555
B28 B64 1.816940 1_555
B28 V4 2.289263 1_655
B28 V4 2.289263 1_555
B28 Lu1 2.636418 1_555
B28 Lu1 2.636418 1_655
B28 Lu4 2.681936 1_655
B28 Lu4 2.681936 1_555
B29 B47 1.802718 1_555
B29 B65 1.817229 1_555
B29 V5 2.289099 1_555
B29 V5 2.289099 1_655
B29 Lu2 2.637324 1_555
B29 Lu2 2.637324 1_655
B29 Lu5 2.680915 1_555
B29 Lu5 2.680915 1_655
B30 B35 1.761307 1_566
B30 B36 1.766939 1_565
B30 B66 1.853086 1_555
B30 V6 2.274382 1_655
B30 V6 2.274382 1_555
B30 Lu11 2.628182 1_656
B30 Lu11 2.628182 1_556
B30 Lu6 2.712374 1_565
B30 Lu6 2.712374 1_665
B31 B33 1.757053 1_565
B31 B37 1.760904 1_565
B31 B67 1.850482 1_555
B31 V7 2.284499 1_555
B31 V7 2.284499 1_655
B31 Lu9 2.631320 1_555
B31 Lu9 2.631320 1_655
B31 Lu7 2.710910 1_565
B31 Lu7 2.710910 1_665
B32 B38 1.769535 1_565
B32 B34 1.769711 1_565
B32 B68 1.851319 1_555
B32 V8 2.283496 1_555
B32 V8 2.283496 1_655
B32 Lu10 2.633967 1_555
B32 Lu10 2.633967 1_655
B32 Lu8 2.710162 1_565
B32 Lu8 2.710162 1_665
B33 B39 1.759773 1_545
B33 B69 1.854368 1_555
B33 V9 2.275449 1_655
B33 V9 2.275449 1_555
B33 Lu7 2.629078 1_555
B33 Lu7 2.629078 1_655
B33 Lu9 2.712834 1_545
B33 Lu9 2.712834 1_645
B34 B40 1.786929 1_545
B34 B70 1.848733 1_555
B34 V10 2.282480 1_655
B34 V10 2.282480 1_555
B34 Lu8 2.640680 1_655
B34 Lu8 2.640680 1_555
B34 Lu10 2.695519 1_545
B34 Lu10 2.695519 1_645
B35 B41 1.784952 1_545
B35 B71 1.848305 1_555
B35 V11 2.280838 1_655
B35 V11 2.280838 1_555
B35 Lu6 2.636811 1_554
B35 Lu6 2.636811 1_654
B35 Lu11 2.695481 1_545
B35 Lu11 2.695481 1_645
B36 B54 1.811141 1_545
B36 V6 2.281772 1_645
B36 V6 2.281772 1_545
B36 Lu12 2.486260 1_655
B36 Lu12 2.486260 1_555
B36 Lu6 2.645007 1_555
B36 Lu6 2.645007 1_655
B37 B55 1.809877 1_545
B37 V7 2.279472 1_545
B37 V7 2.279472 1_645
B37 Lu13 2.511287 1_555
B37 Lu13 2.511287 1_655
B37 Lu7 2.643501 1_655
B37 Lu7 2.643501 1_555
B38 B56 1.810836 1_545
B38 V8 2.280928 1_645
B38 V8 2.280928 1_545
B38 Lu14 2.511775 1_655
B38 Lu14 2.511775 1_555
B38 Lu8 2.646937 1_655
B38 Lu8 2.646937 1_555
B39 B57 1.810779 1_565
B39 V9 2.280712 1_565
B39 V9 2.280712 1_665
B39 Lu15 2.487396 1_655
B39 Lu15 2.487396 1_555
B39 Lu9 2.644288 1_655
B39 Lu9 2.644288 1_555
B40 B58 1.767981 1_565
B40 V10 2.262274 1_565
B40 V10 2.262274 1_665
B40 V12 2.434418 1_655
B40 V12 2.434418 1_555
B40 Lu10 2.637945 1_655
B40 Lu10 2.637945 1_555
B41 B59 1.768498 1_565
B41 V11 2.263068 1_565
B41 V11 2.263068 1_665
B41 V13 2.430868 1_555
B41 V13 2.430868 1_655
B41 Lu11 2.634256 1_555
B41 Lu11 2.634256 1_655
B42 B48 1.782217 1_555
B42 V0 2.216394 1_655
B42 V0 2.216394 1_555
B42 V14 2.446813 1_655
B42 V14 2.446813 1_555
B42 Lu0 2.620817 1_655
B42 Lu0 2.620817 1_555
B43 B49 1.778783 1_555
B43 V1 2.222922 1_655
B43 V1 2.222922 1_555
B43 V15 2.454869 1_555
B43 V15 2.454869 1_655
B43 Lu1 2.630717 1_655
B43 Lu1 2.630717 1_555
B44 B50 1.778093 1_555
B44 V2 2.221716 1_555
B44 V2 2.221716 1_655
B44 V16 2.449368 1_655
B44 V16 2.449368 1_555
B44 Lu2 2.636029 1_555
B44 Lu2 2.636029 1_655
B45 B51 1.781214 1_555
B45 V3 2.215772 1_655
B45 V3 2.215772 1_555
B45 V17 2.450978 1_555
B45 V17 2.450978 1_655
B45 Lu3 2.618355 1_555
B45 Lu3 2.618355 1_655
B46 B52 1.777658 1_555
B46 V4 2.253677 1_655
B46 V4 2.253677 1_555
B46 V18 2.442264 1_655
B46 V18 2.442264 1_555
B46 Lu4 2.621223 1_655
B46 Lu4 2.621223 1_555
B47 B53 1.777716 1_555
B47 V5 2.253012 1_655
B47 V5 2.253012 1_555
B47 V19 2.442146 1_655
B47 V19 2.442146 1_555
B47 Lu5 2.619718 1_555
B47 Lu5 2.619718 1_655
B48 V0 2.266926 1_555
B48 V0 2.266926 1_655
B48 V14 2.387713 1_655
B48 V14 2.387713 1_555
B48 Lu6 2.639134 1_655
B48 Lu6 2.639134 1_555
B49 V1 2.274596 1_555
B49 V1 2.274596 1_655
B49 V15 2.396416 1_655
B49 V15 2.396416 1_555
B49 Lu7 2.628243 1_655
B49 Lu7 2.628243 1_555
B50 V2 2.275902 1_555
B50 V2 2.275902 1_655
B50 V16 2.392812 1_555
B50 V16 2.392812 1_655
B50 Lu8 2.635848 1_655
B50 Lu8 2.635848 1_555
B51 V3 2.264097 1_655
B51 V3 2.264097 1_555
B51 V17 2.389972 1_555
B51 V17 2.389972 1_655
B51 Lu9 2.633613 1_655
B51 Lu9 2.633613 1_555
B52 V4 2.271156 1_655
B52 V4 2.271156 1_555
B52 V18 2.398326 1_655
B52 V18 2.398326 1_555
B52 Lu10 2.623095 1_555
B52 Lu10 2.623095 1_655
B53 V5 2.270964 1_655
B53 V5 2.270964 1_555
B53 V19 2.396842 1_555
B53 V19 2.396842 1_655
B53 Lu11 2.620846 1_555
B53 Lu11 2.620846 1_655
B54 B6 1.801269 1_555
B54 V6 2.296422 1_655
B54 V6 2.296422 1_555
B54 Lu12 2.470830 1_565
B54 Lu12 2.470830 1_665
B54 Lu0 2.625770 1_555
B54 Lu0 2.625770 1_655
B55 B7 1.873657 1_555
B55 V7 2.286980 1_655
B55 V7 2.286980 1_555
B55 Lu13 2.465786 1_665
B55 Lu13 2.465786 1_565
B55 Lu1 2.621812 1_555
B55 Lu1 2.621812 1_655
B56 B8 1.877404 1_555
B56 V8 2.291043 1_655
B56 V8 2.291043 1_555
B56 Lu14 2.464125 1_665
B56 Lu14 2.464125 1_565
B56 Lu2 2.621793 1_555
B56 Lu2 2.621793 1_655
B57 B9 1.798699 1_555
B57 V9 2.294371 1_655
B57 V9 2.294371 1_555
B57 Lu15 2.472991 1_645
B57 Lu15 2.472991 1_545
B57 Lu3 2.624647 1_555
B57 Lu3 2.624647 1_655
B58 V10 2.272995 1_655
B58 V10 2.272995 1_555
B58 V12 2.411426 1_545
B58 V12 2.411426 1_645
B58 Lu4 2.649557 1_555
B58 Lu4 2.649557 1_655
B59 V11 2.272860 1_655
B59 V11 2.272860 1_555
B59 V13 2.411331 1_645
B59 V13 2.411331 1_545
B59 Lu5 2.648617 1_655
B59 Lu5 2.648617 1_555
B60 B9 1.807127 1_555
B60 V0 2.297358 1_655
B60 V0 2.297358 1_555
B60 Lu12 2.489991 1_655
B60 Lu12 2.489991 1_555
B60 Lu3 2.618160 1_655
B60 Lu3 2.618160 1_555
B61 V1 2.290695 1_555
B61 V1 2.290695 1_655
B61 Lu13 2.484108 1_655
B61 Lu13 2.484108 1_555
B61 Lu4 2.610896 1_555
B61 Lu4 2.610896 1_655
B62 V2 2.292714 1_655
B62 V2 2.292714 1_555
B62 Lu14 2.486661 1_555
B62 Lu14 2.486661 1_655
B62 Lu5 2.611873 1_555
B62 Lu5 2.611873 1_655
B63 V3 2.297802 1_555
B63 V3 2.297802 1_655
B63 Lu15 2.488673 1_555
B63 Lu15 2.488673 1_655
B63 Lu0 2.616890 1_555
B63 Lu0 2.616890 1_655
B64 B7 1.721153 1_555
B64 V4 2.283019 1_555
B64 V4 2.283019 1_655
B64 V12 2.430160 1_555
B64 V12 2.430160 1_655
B64 Lu1 2.635904 1_555
B64 Lu1 2.635904 1_655
B65 B8 1.722141 1_555
B65 V5 2.283626 1_555
B65 V5 2.283626 1_655
B65 V13 2.430930 1_555
B65 V13 2.430930 1_655
B65 Lu2 2.634547 1_555
B65 Lu2 2.634547 1_655
B66 V6 2.245969 1_555
B66 V6 2.245969 1_655
B66 V14 2.411737 1_655
B66 V14 2.411737 1_555
B66 Lu11 2.604844 1_656
B66 Lu11 2.604844 1_556
B67 V7 2.255187 1_655
B67 V7 2.255187 1_555
B67 V15 2.412418 1_555
B67 V15 2.412418 1_655
B67 Lu9 2.587308 1_555
B67 Lu9 2.587308 1_655
B68 V8 2.255118 1_555
B68 V8 2.255118 1_655
B68 V16 2.411791 1_555
B68 V16 2.411791 1_655
B68 Lu10 2.605954 1_555
B68 Lu10 2.605954 1_655
B69 V9 2.245618 1_555
B69 V9 2.245618 1_655
B69 V17 2.412014 1_555
B69 V17 2.412014 1_655
B69 Lu7 2.591879 1_655
B69 Lu7 2.591879 1_555
B70 V10 2.281444 1_555
B70 V10 2.281444 1_655
B70 V18 2.423385 1_655
B70 V18 2.423385 1_555
B70 Lu8 2.598134 1_555
B70 Lu8 2.598134 1_655
B71 V11 2.280589 1_655
B71 V11 2.280589 1_555
B71 V19 2.424331 1_555
B71 V19 2.424331 1_655
B71 Lu6 2.591670 1_654
B71 Lu6 2.591670 1_554
