# generated using pymatgen
data_SrRuN2
_symmetry_space_group_name_H-M   'P 1'
_cell_length_a   6.14965298
_cell_length_b   8.18006900
_cell_length_c   5.38123149
_cell_angle_alpha   90.00000000
_cell_angle_beta   111.36237654
_cell_angle_gamma   90.00000000
_symmetry_Int_Tables_number   1
_chemical_formula_structural   SrRuN2
_chemical_formula_sum   'Sr4 Ru4 N8'
_cell_volume   252.10219218
_cell_formula_units_Z   4
loop_
 _symmetry_equiv_pos_site_id
 _symmetry_equiv_pos_as_xyz
  1  'x, y, z'
loop_
 _atom_site_type_symbol
 _atom_site_label
 _atom_site_symmetry_multiplicity
 _atom_site_fract_x
 _atom_site_fract_y
 _atom_site_fract_z
 _atom_site_occupancy
  Sr  Sr0  1  0.33625700  0.89832300  0.65623200  1
  Sr  Sr1  1  0.66374300  0.39832300  0.84376800  1
  Sr  Sr2  1  0.66374300  0.10167700  0.34376800  1
  Sr  Sr3  1  0.33625700  0.60167700  0.15623200  1
  Ru  Ru0  1  0.11064700  0.35706200  0.57373200  1
  Ru  Ru1  1  0.88935300  0.85706200  0.92626800  1
  Ru  Ru2  1  0.88935300  0.64293800  0.42626800  1
  Ru  Ru3  1  0.11064700  0.14293800  0.07373200  1
  N  N0  1  0.23258400  0.91593200  0.07799200  1
  N  N1  1  0.76741600  0.41593200  0.42200800  1
  N  N2  1  0.76741600  0.08406800  0.92200800  1
  N  N3  1  0.23258400  0.58406800  0.57799200  1
  N  N4  1  0.24915500  0.31536300  0.95357400  1
  N  N5  1  0.75084500  0.81536300  0.54642600  1
  N  N6  1  0.75084500  0.68463700  0.04642600  1
  N  N7  1  0.24915500  0.18463700  0.45357400  1
loop_
_geom_bond_atom_site_label_1
_geom_bond_atom_site_label_2
_geom_bond_distance
_geom_bond_site_symmetry_2
N0 Ru3 1.999619 1_565
N0 Ru1 2.024419 1_454
N0 Sr0 2.575349 1_554
N0 Sr3 2.645053 1_555
N0 Sr2 2.936276 1_565
N0 Sr0 2.943511 1_555
N1 Ru2 1.999619 1_555
N1 Ru0 2.024419 1_655
N1 Sr1 2.575349 1_555
N1 Sr2 2.645053 1_555
N1 Sr3 2.936276 1_555
N1 Sr1 2.943511 1_554
N2 Ru1 1.999619 1_545
N2 Ru3 2.024419 1_656
N2 Sr2 2.575349 1_556
N2 Sr1 2.645053 1_555
N2 Sr0 2.936276 1_545
N2 Sr2 2.943511 1_555
N3 Ru0 1.999619 1_555
N3 Ru2 2.024419 1_455
N3 Sr3 2.575349 1_555
N3 Sr0 2.645053 1_555
N3 Sr1 2.936276 1_555
N3 Sr3 2.943511 1_556
N4 Ru3 1.879952 1_556
N4 Ru0 1.936873 1_555
N4 Sr3 2.556546 1_556
N4 Sr1 2.899576 1_555
N4 Sr2 3.172449 1_556
N5 Ru2 1.879952 1_555
N5 Ru1 1.936873 1_555
N5 Sr2 2.556546 1_565
N5 Sr0 2.899576 1_555
N5 Sr3 3.172449 1_555
N6 Ru1 1.879952 1_554
N6 Ru2 1.936873 1_555
N6 Sr1 2.556546 1_554
N6 Sr3 2.899576 1_555
N6 Sr0 3.172449 1_554
N7 Ru0 1.879952 1_555
N7 Ru3 1.936873 1_555
N7 Sr0 2.556546 1_545
N7 Sr2 2.899576 1_555
N7 Sr1 3.172449 1_555
