# generated using pymatgen
data_ScTiRh2
_symmetry_space_group_name_H-M   'P 1'
_cell_length_a   10.22714326
_cell_length_b   10.22714326
_cell_length_c   10.22714326
_cell_angle_alpha   127.38037095
_cell_angle_beta   115.23665461
_cell_angle_gamma   88.08242751
_symmetry_Int_Tables_number   1
_chemical_formula_structural   ScTiRh2
_chemical_formula_sum   'Sc1 Ti1 Rh2'
_cell_volume   730.10388264
_cell_formula_units_Z   1
loop_
 _symmetry_equiv_pos_site_id
 _symmetry_equiv_pos_as_xyz
  1  'x, y, z'
loop_
 _atom_site_type_symbol
 _atom_site_label
 _atom_site_symmetry_multiplicity
 _atom_site_fract_x
 _atom_site_fract_y
 _atom_site_fract_z
 _atom_site_occupancy
  Sc  Sc0  1  0.00000000  0.00000000  0.00000000  1
  Ti  Ti0  1  0.00000000  0.50000000  0.50000000  1
  Rh  Rh0  1  0.00000000  0.26184400  0.26184400  1
  Rh  Rh1  1  0.00000000  0.73815600  0.73815600  1
loop_
_geom_bond_atom_site_label_1
_geom_bond_atom_site_label_2
_geom_bond_distance
_geom_bond_site_symmetry_2
Rh0 Ti0 2.159086 1_555
Rh0 Sc0 2.373837 1_555
Rh1 Ti0 2.159086 1_555
Rh1 Sc0 2.373837 1_566
