# generated using pymatgen
data_KTl(CN)4
_symmetry_space_group_name_H-M   'P 1'
_cell_length_a   9.48355033
_cell_length_b   9.48355033
_cell_length_c   9.48355033
_cell_angle_alpha   131.48864108
_cell_angle_beta   131.48864108
_cell_angle_gamma   71.03787173
_symmetry_Int_Tables_number   1
_chemical_formula_structural   KTl(CN)4
_chemical_formula_sum   'K2 Tl2 C8 N8'
_cell_volume   468.63729996
_cell_formula_units_Z   2
loop_
 _symmetry_equiv_pos_site_id
 _symmetry_equiv_pos_as_xyz
  1  'x, y, z'
loop_
 _atom_site_type_symbol
 _atom_site_label
 _atom_site_symmetry_multiplicity
 _atom_site_fract_x
 _atom_site_fract_y
 _atom_site_fract_z
 _atom_site_occupancy
  K  K0  1  0.25000000  0.75000000  0.50000000  1
  K  K1  1  0.50000000  0.50000000  0.00000000  1
  Tl  Tl0  1  0.00000000  0.00000000  0.00000000  1
  Tl  Tl1  1  0.75000000  0.25000000  0.50000000  1
  C  C0  1  0.09998000  0.04542000  0.31626100  1
  C  C1  1  0.53372000  0.34998000  0.55456000  1
  C  C2  1  0.79542000  0.97915900  0.44544000  1
  C  C3  1  0.72915900  0.78372000  0.68373900  1
  C  C4  1  0.95458000  0.27084100  0.05456000  1
  C  C5  1  0.02084100  0.46628000  0.81626100  1
  C  C6  1  0.65002000  0.20458000  0.18373900  1
  C  C7  1  0.21628000  0.90002000  0.94544000  1
  N  N0  1  0.58421000  0.67203400  0.52368700  1
  N  N1  1  0.81052200  0.83421000  0.41217600  1
  N  N2  1  0.42203400  0.39834700  0.58782400  1
  N  N3  1  0.14834700  0.06052200  0.47631300  1
  N  N4  1  0.93947800  0.41579000  0.08782400  1
  N  N5  1  0.16579000  0.57796600  0.97631300  1
  N  N6  1  0.60165300  0.18947800  0.02368700  1
  N  N7  1  0.32796600  0.85165300  0.91217600  1
loop_
_geom_bond_atom_site_label_1
_geom_bond_atom_site_label_2
_geom_bond_distance
_geom_bond_site_symmetry_2
K0 N3 2.897678 1_565
K0 N4 2.897683 1_455
K0 N7 2.897687 1_555
K0 N0 2.897687 1_555
K1 N6 2.897678 1_555
K1 N1 2.897683 1_555
K1 N2 2.897687 1_554
K1 N5 2.897687 1_554
C0 N3 1.169194 1_555
C0 Tl0 2.205910 1_555
C1 N2 1.169197 1_555
C1 Tl1 2.205901 1_555
C2 N1 1.169189 1_555
C2 Tl1 2.205910 1_565
C3 N0 1.169192 1_555
C3 Tl0 2.205906 1_666
C4 N4 1.169189 1_555
C4 Tl0 2.205910 1_655
C5 N5 1.169192 1_555
C5 Tl1 2.205906 1_455
C6 N6 1.169194 1_555
C6 Tl1 2.205910 1_555
C7 N7 1.169197 1_555
C7 Tl0 2.205901 1_566
