# generated using pymatgen
data_Tm2B6Ru
_symmetry_space_group_name_H-M   'P 1'
_cell_length_a   3.62158100
_cell_length_b   9.06457600
_cell_length_c   11.43116700
_cell_angle_alpha   90.00000000
_cell_angle_beta   90.00000000
_cell_angle_gamma   90.00000000
_symmetry_Int_Tables_number   1
_chemical_formula_structural   Tm2B6Ru
_chemical_formula_sum   'Tm8 B24 Ru4'
_cell_volume   375.26345012
_cell_formula_units_Z   4
loop_
 _symmetry_equiv_pos_site_id
 _symmetry_equiv_pos_as_xyz
  1  'x, y, z'
loop_
 _atom_site_type_symbol
 _atom_site_label
 _atom_site_symmetry_multiplicity
 _atom_site_fract_x
 _atom_site_fract_y
 _atom_site_fract_z
 _atom_site_occupancy
  Tm  Tm0  1  0.00000000  0.32157900  0.41419900  1
  Tm  Tm1  1  0.00000000  0.67842100  0.58580100  1
  Tm  Tm2  1  0.00000000  0.82157900  0.08580100  1
  Tm  Tm3  1  0.00000000  0.17842100  0.91419900  1
  Tm  Tm4  1  0.00000000  0.94436900  0.37282700  1
  Tm  Tm5  1  0.00000000  0.05563100  0.62717300  1
  Tm  Tm6  1  0.00000000  0.44436900  0.12717300  1
  Tm  Tm7  1  0.00000000  0.55563100  0.87282700  1
  B  B0  1  0.50000000  0.55398500  0.43346100  1
  B  B1  1  0.50000000  0.44601500  0.56653900  1
  B  B2  1  0.50000000  0.05398500  0.06653900  1
  B  B3  1  0.50000000  0.94601500  0.93346100  1
  B  B4  1  0.50000000  0.74920100  0.42037400  1
  B  B5  1  0.50000000  0.25079900  0.57962600  1
  B  B6  1  0.50000000  0.24920100  0.07962600  1
  B  B7  1  0.50000000  0.75079900  0.92037400  1
  B  B8  1  0.50000000  0.79211000  0.26605200  1
  B  B9  1  0.50000000  0.20789000  0.73394800  1
  B  B10  1  0.50000000  0.29211000  0.23394800  1
  B  B11  1  0.50000000  0.70789000  0.76605200  1
  B  B12  1  0.50000000  0.63207700  0.18460700  1
  B  B13  1  0.50000000  0.36792300  0.81539300  1
  B  B14  1  0.50000000  0.13207700  0.31539300  1
  B  B15  1  0.50000000  0.86792300  0.68460700  1
  B  B16  1  0.50000000  0.98322400  0.21292500  1
  B  B17  1  0.50000000  0.01677600  0.78707500  1
  B  B18  1  0.50000000  0.48322400  0.28707500  1
  B  B19  1  0.50000000  0.51677600  0.71292500  1
  B  B20  1  0.50000000  0.60855100  0.02979200  1
  B  B21  1  0.50000000  0.39144900  0.97020800  1
  B  B22  1  0.50000000  0.10855100  0.47020800  1
  B  B23  1  0.50000000  0.89144900  0.52979200  1
  Ru  Ru0  1  0.00000000  0.63848300  0.32088900  1
  Ru  Ru1  1  0.00000000  0.36151700  0.67911100  1
  Ru  Ru2  1  0.00000000  0.13848300  0.17911100  1
  Ru  Ru3  1  0.00000000  0.86151700  0.82088900  1
loop_
_geom_bond_atom_site_label_1
_geom_bond_atom_site_label_2
_geom_bond_distance
_geom_bond_site_symmetry_2
B0 B4 1.775863 1_555
B0 B18 1.792083 1_555
B0 B1 1.808872 1_555
B0 Ru0 2.349799 1_655
B0 Ru0 2.349799 1_555
B0 Tm1 2.753872 1_655
B0 Tm1 2.753872 1_555
B0 Tm0 2.786659 1_555
B0 Tm0 2.786659 1_655
B1 B5 1.775863 1_555
B1 B19 1.792083 1_555
B1 Ru1 2.349799 1_555
B1 Ru1 2.349799 1_655
B1 Tm0 2.753872 1_555
B1 Tm0 2.753872 1_655
B1 Tm1 2.786659 1_655
B1 Tm1 2.786659 1_555
B2 B6 1.775863 1_555
B2 B3 1.808872 1_544
B2 Ru2 2.349799 1_655
B2 Ru2 2.349799 1_555
B2 Tm3 2.753872 1_654
B2 Tm3 2.753872 1_554
B2 Tm2 2.786659 1_545
B2 Tm2 2.786659 1_645
B3 B7 1.775863 1_555
B3 Ru3 2.349799 1_655
B3 Ru3 2.349799 1_555
B3 Tm2 2.753872 1_656
B3 Tm2 2.753872 1_556
B3 Tm3 2.786659 1_565
B3 Tm3 2.786659 1_665
B4 B8 1.806451 1_555
B4 Ru0 2.362094 1_555
B4 Ru0 2.362094 1_655
B4 Tm4 2.589236 1_655
B4 Tm4 2.589236 1_555
B4 Tm1 2.695658 1_655
B4 Tm1 2.695658 1_555
B5 B9 1.806451 1_555
B5 Ru1 2.362094 1_555
B5 Ru1 2.362094 1_655
B5 Tm5 2.589236 1_655
B5 Tm5 2.589236 1_555
B5 Tm0 2.695658 1_655
B5 Tm0 2.695658 1_555
B6 Ru2 2.362094 1_655
B6 Ru2 2.362094 1_555
B6 Tm6 2.589236 1_655
B6 Tm6 2.589236 1_555
B6 Tm3 2.695658 1_654
B6 Tm3 2.695658 1_554
B7 Ru3 2.362094 1_555
B7 Ru3 2.362094 1_655
B7 Tm7 2.589236 1_655
B7 Tm7 2.589236 1_555
B7 Tm2 2.695658 1_556
B7 Tm2 2.695658 1_656
B8 Ru0 2.368784 1_555
B8 Ru0 2.368784 1_655
B8 Tm4 2.583329 1_655
B8 Tm4 2.583329 1_555
B8 Tm2 2.756065 1_655
B8 Tm2 2.756065 1_555
B9 Ru1 2.368784 1_655
B9 Ru1 2.368784 1_555
B9 Tm5 2.583329 1_555
B9 Tm5 2.583329 1_655
B9 Tm3 2.756065 1_655
B9 Tm3 2.756065 1_555
B10 B14 1.723692 1_555
B10 B6 1.806451 1_555
B10 B18 1.835733 1_555
B10 Ru2 2.368784 1_555
B10 Ru2 2.368784 1_655
B10 Tm6 2.583329 1_555
B10 Tm6 2.583329 1_655
B10 Tm0 2.756065 1_555
B10 Tm0 2.756065 1_655
B11 B15 1.723692 1_555
B11 B7 1.806451 1_555
B11 B19 1.835733 1_555
B11 Ru3 2.368784 1_655
B11 Ru3 2.368784 1_555
B11 Tm7 2.583329 1_655
B11 Tm7 2.583329 1_555
B11 Tm1 2.756065 1_655
B11 Tm1 2.756065 1_555
B12 B8 1.723692 1_555
B12 B20 1.782518 1_555
B12 B18 1.786783 1_555
B12 Ru0 2.389408 1_655
B12 Ru0 2.389408 1_555
B12 Tm6 2.570036 1_655
B12 Tm6 2.570036 1_555
B12 Tm2 2.739588 1_655
B12 Tm2 2.739588 1_555
B13 B9 1.723692 1_555
B13 B21 1.782518 1_555
B13 B19 1.786783 1_555
B13 Ru1 2.389408 1_555
B13 Ru1 2.389408 1_655
B13 Tm7 2.570036 1_555
B13 Tm7 2.570036 1_655
B13 Tm3 2.739588 1_555
B13 Tm3 2.739588 1_655
B14 B22 1.782518 1_555
B14 B16 1.786783 1_545
B14 Ru2 2.389408 1_555
B14 Ru2 2.389408 1_655
B14 Tm4 2.570036 1_545
B14 Tm4 2.570036 1_645
B14 Tm0 2.739588 1_555
B14 Tm0 2.739588 1_655
B15 B23 1.782518 1_555
B15 B17 1.786783 1_565
B15 Ru3 2.389408 1_555
B15 Ru3 2.389408 1_655
B15 Tm5 2.570036 1_565
B15 Tm5 2.570036 1_665
B15 Tm1 2.739588 1_655
B15 Tm1 2.739588 1_555
B16 B2 1.792083 1_565
B16 B8 1.835733 1_555
B16 Ru2 2.325731 1_665
B16 Ru2 2.325731 1_565
B16 Tm4 2.596942 1_655
B16 Tm4 2.596942 1_555
B16 Tm2 2.745473 1_655
B16 Tm2 2.745473 1_555
B17 B3 1.792083 1_545
B17 B9 1.835733 1_555
B17 Ru3 2.325731 1_545
B17 Ru3 2.325731 1_645
B17 Tm5 2.596942 1_655
B17 Tm5 2.596942 1_555
B17 Tm3 2.745473 1_555
B17 Tm3 2.745473 1_655
B18 Ru0 2.325731 1_555
B18 Ru0 2.325731 1_655
B18 Tm6 2.596942 1_555
B18 Tm6 2.596942 1_655
B18 Tm0 2.745473 1_555
B18 Tm0 2.745473 1_655
B19 Ru1 2.325731 1_555
B19 Ru1 2.325731 1_655
B19 Tm7 2.596942 1_555
B19 Tm7 2.596942 1_655
B19 Tm1 2.745473 1_655
B19 Tm1 2.745473 1_555
B20 B7 1.796396 1_554
B20 B21 2.082473 1_554
B20 Tm7 2.593947 1_654
B20 Tm7 2.593947 1_554
B20 Tm6 2.594800 1_655
B20 Tm6 2.594800 1_555
B20 Tm2 2.723541 1_655
B20 Tm2 2.723541 1_555
B21 B6 1.796396 1_556
B21 Tm6 2.593947 1_656
B21 Tm6 2.593947 1_556
B21 Tm7 2.594800 1_655
B21 Tm7 2.594800 1_555
B21 Tm3 2.723541 1_655
B21 Tm3 2.723541 1_555
B22 B5 1.796396 1_555
B22 B23 2.082473 1_545
B22 Tm5 2.593947 1_555
B22 Tm5 2.593947 1_655
B22 Tm4 2.594800 1_545
B22 Tm4 2.594800 1_645
B22 Tm0 2.723541 1_555
B22 Tm0 2.723541 1_655
B23 B4 1.796396 1_555
B23 Tm4 2.593947 1_655
B23 Tm4 2.593947 1_555
B23 Tm5 2.594800 1_665
B23 Tm5 2.594800 1_565
B23 Tm1 2.723541 1_655
B23 Tm1 2.723541 1_555
Ru0 Tm6 2.828360 1_555
Ru0 Tm4 2.835579 1_555
Ru0 Tm1 3.049816 1_555
Ru0 Tm0 3.064239 1_555
Ru0 Tm2 3.158529 1_555
Ru1 Tm7 2.828360 1_555
Ru1 Tm5 2.835579 1_555
Ru1 Tm0 3.049816 1_555
Ru1 Tm1 3.064239 1_555
Ru1 Tm3 3.158529 1_555
Ru2 Tm4 2.828360 1_545
Ru2 Tm6 2.835579 1_555
Ru2 Tm3 3.049816 1_554
Ru2 Tm2 3.064239 1_545
Ru2 Tm0 3.158529 1_555
Ru3 Tm5 2.828360 1_565
Ru3 Tm7 2.835579 1_555
Ru3 Tm2 3.049816 1_556
Ru3 Tm3 3.064239 1_565
Ru3 Tm1 3.158529 1_555
