# generated using pymatgen
data_Cd5Bi6(Cl3O2)4
_symmetry_space_group_name_H-M   'P 1'
_cell_length_a   12.42387076
_cell_length_b   12.42387076
_cell_length_c   12.42387076
_cell_angle_alpha   154.15880494
_cell_angle_beta   126.86063621
_cell_angle_gamma   60.00818424
_symmetry_Int_Tables_number   1
_chemical_formula_structural   Cd5Bi6(Cl3O2)4
_chemical_formula_sum   'Cd5 Bi6 Cl12 O8'
_cell_volume   664.35696825
_cell_formula_units_Z   1
loop_
 _symmetry_equiv_pos_site_id
 _symmetry_equiv_pos_as_xyz
  1  'x, y, z'
loop_
 _atom_site_type_symbol
 _atom_site_label
 _atom_site_symmetry_multiplicity
 _atom_site_fract_x
 _atom_site_fract_y
 _atom_site_fract_z
 _atom_site_occupancy
  Cd  Cd0  1  0.80475900  0.30475900  0.50000000  1
  Cd  Cd1  1  0.19524100  0.69524100  0.50000000  1
  Cd  Cd2  1  0.73096300  0.50000000  0.23096300  1
  Cd  Cd3  1  0.00000000  0.00000000  0.00000000  1
  Cd  Cd4  1  0.26903700  0.50000000  0.76903700  1
  Bi  Bi0  1  0.06102800  0.80683000  0.25419800  1
  Bi  Bi1  1  0.30530600  0.30530600  0.00000000  1
  Bi  Bi2  1  0.55263100  0.80683000  0.74580200  1
  Bi  Bi3  1  0.44736900  0.19317000  0.25419800  1
  Bi  Bi4  1  0.69469400  0.69469400  0.00000000  1
  Bi  Bi5  1  0.93897200  0.19317000  0.74580200  1
  Cl  Cl0  1  0.62744600  0.12744600  0.50000000  1
  Cl  Cl1  1  0.88229700  0.61891500  0.26338200  1
  Cl  Cl2  1  0.12401100  0.12401100  0.00000000  1
  Cl  Cl3  1  0.35553300  0.61891500  0.73661800  1
  Cl  Cl4  1  0.64446700  0.38108500  0.26338200  1
  Cl  Cl5  1  0.87598900  0.87598900  0.00000000  1
  Cl  Cl6  1  0.11770300  0.38108500  0.73661800  1
  Cl  Cl7  1  0.37255400  0.87255400  0.50000000  1
  Cl  Cl8  1  0.23358500  0.00000000  0.23358500  1
  Cl  Cl9  1  0.50000000  0.50000000  0.00000000  1
  Cl  Cl10  1  0.76641500  0.00000000  0.76641500  1
  Cl  Cl11  1  0.00000000  0.50000000  0.50000000  1
  O  O0  1  0.62189800  0.99386800  0.11571200  1
  O  O1  1  0.87815600  0.50618600  0.88428800  1
  O  O2  1  0.12184400  0.00613200  0.62803000  1
  O  O3  1  0.37810200  0.49381400  0.37197000  1
  O  O4  1  0.62189800  0.50618600  0.62803000  1
  O  O5  1  0.87815600  0.99386800  0.37197000  1
  O  O6  1  0.12184400  0.49381400  0.11571200  1
  O  O7  1  0.37810200  0.00613200  0.88428800  1
loop_
_geom_bond_atom_site_label_1
_geom_bond_atom_site_label_2
_geom_bond_distance
_geom_bond_site_symmetry_2
Cd0 O0 2.332469 1_545
Cd0 O5 2.332469 1_545
Cd0 O4 2.332469 1_555
Cd0 O1 2.332469 1_555
Cd1 O2 2.332469 1_565
Cd1 O7 2.332469 1_565
Cd1 O6 2.332469 1_555
Cd1 O3 2.332469 1_555
Cd2 Cl9 2.566933 1_555
Cd2 Cl4 2.584043 1_555
Cd2 Cl1 2.584043 1_555
Cd2 Cl10 2.805787 1_565
Cd2 Cl10 2.805787 1_554
Cd2 Cl11 2.990089 1_655
Cd3 Cl8 2.596074 1_555
Cd3 Cl10 2.596074 1_454
Cd3 Cl2 2.668455 1_555
Cd3 Cl5 2.668455 1_445
Cd3 Cl11 2.777984 1_544
Cd3 Cl11 2.777984 1_555
Cd4 Cl9 2.566933 1_556
Cd4 Cl6 2.584043 1_555
Cd4 Cl3 2.584043 1_555
Cd4 Cl8 2.805787 1_566
Cd4 Cl8 2.805787 1_555
Cd4 Cl11 2.990089 1_555
Bi0 O6 2.287519 1_555
Bi0 O2 2.287519 1_565
Bi0 O1 2.300557 1_454
Bi0 O5 2.300557 1_455
Bi0 Cl7 3.076216 1_555
Bi1 O6 2.298025 1_555
Bi1 O3 2.298025 1_555
Bi1 O2 2.298025 1_554
Bi1 O7 2.298025 1_554
Bi1 Cl7 3.132268 1_555
Bi1 Cl7 3.132268 1_544
Bi2 O7 2.287508 1_565
Bi2 O3 2.287512 1_555
Bi2 O0 2.300553 1_556
Bi2 O4 2.300556 1_555
Bi2 Cl7 3.076216 1_555
Bi3 O0 2.287508 1_545
Bi3 O4 2.287512 1_555
Bi3 O7 2.300553 1_554
Bi3 O3 2.300556 1_555
Bi3 Cl0 3.076216 1_555
Bi4 O1 2.298025 1_554
Bi4 O5 2.298025 1_555
Bi4 O4 2.298025 1_554
Bi4 O0 2.298025 1_555
Bi4 Cl0 3.132268 1_554
Bi4 Cl0 3.132268 1_565
Bi5 O5 2.287519 1_545
Bi5 O1 2.287519 1_555
Bi5 O6 2.300557 1_656
Bi5 O2 2.300557 1_655
Bi5 Cl0 3.076216 1_555
