# generated using pymatgen
data_BaSr2Tm6O12
_symmetry_space_group_name_H-M   'P 1'
_cell_length_a   3.40787700
_cell_length_b   10.28239857
_cell_length_c   10.28238787
_cell_angle_alpha   120.00011723
_cell_angle_beta   90.00000000
_cell_angle_gamma   90.00000000
_symmetry_Int_Tables_number   1
_chemical_formula_structural   BaSr2Tm6O12
_chemical_formula_sum   'Ba1 Sr2 Tm6 O12'
_cell_volume   312.03437940
_cell_formula_units_Z   1
loop_
 _symmetry_equiv_pos_site_id
 _symmetry_equiv_pos_as_xyz
  1  'x, y, z'
loop_
 _atom_site_type_symbol
 _atom_site_label
 _atom_site_symmetry_multiplicity
 _atom_site_fract_x
 _atom_site_fract_y
 _atom_site_fract_z
 _atom_site_occupancy
  Ba  Ba0  1  0.75000000  0.00000300  0.00000400  1
  Sr  Sr0  1  0.75000000  0.66667100  0.33333700  1
  Sr  Sr1  1  0.25000000  0.33333700  0.66667100  1
  Tm  Tm0  1  0.25000000  0.34716500  0.00088800  1
  Tm  Tm1  1  0.25000000  0.99911000  0.34627500  1
  Tm  Tm2  1  0.25000000  0.65372200  0.65283600  1
  Tm  Tm3  1  0.75000000  0.65081800  0.99985800  1
  Tm  Tm4  1  0.75000000  0.00014400  0.65096300  1
  Tm  Tm5  1  0.75000000  0.34904000  0.34917900  1
  O  O0  1  0.75000000  0.30772300  0.11424700  1
  O  O1  1  0.75000000  0.88575100  0.19347300  1
  O  O2  1  0.75000000  0.80652600  0.69228000  1
  O  O3  1  0.25000000  0.70992800  0.89461100  1
  O  O4  1  0.25000000  0.10538800  0.81532400  1
  O  O5  1  0.25000000  0.18467400  0.29005500  1
  O  O6  1  0.75000000  0.39599600  0.87514100  1
  O  O7  1  0.75000000  0.12485900  0.52085700  1
  O  O8  1  0.75000000  0.47914300  0.60400100  1
  O  O9  1  0.25000000  0.60167500  0.12194100  1
  O  O10  1  0.25000000  0.87806200  0.47973600  1
  O  O11  1  0.25000000  0.52026400  0.39832400  1
loop_
_geom_bond_atom_site_label_1
_geom_bond_atom_site_label_2
_geom_bond_distance
_geom_bond_site_symmetry_2
Ba0 O1 2.770300 1_545
Ba0 O0 2.770302 1_555
Ba0 O2 2.770330 1_544
Ba0 O5 3.121005 1_655
Ba0 O5 3.121005 1_555
Ba0 O4 3.121116 1_654
Ba0 O4 3.121116 1_554
Ba0 O3 3.121184 1_644
Ba0 O3 3.121184 1_544
O0 Tm0 2.213421 1_655
O0 Tm0 2.213421 1_555
O0 Tm5 2.233751 1_555
O1 Tm1 2.213423 1_555
O1 Tm1 2.213423 1_655
O1 Tm3 2.233756 1_554
O2 Tm2 2.213436 1_555
O2 Tm2 2.213436 1_655
O2 Tm4 2.233785 1_565
O3 Tm2 2.253345 1_555
O3 Tm3 2.258695 1_455
O3 Tm3 2.258695 1_555
O4 Tm0 2.253343 1_556
O4 Tm4 2.258711 1_555
O4 Tm4 2.258711 1_455
O5 Tm1 2.253397 1_545
O5 Tm5 2.258736 1_455
O5 Tm5 2.258736 1_555
O6 Tm3 2.269310 1_555
O6 Tm0 2.340195 1_556
O6 Tm0 2.340195 1_656
O6 Sr1 2.555841 1_555
O6 Sr1 2.555841 1_655
O7 Tm4 2.269304 1_555
O7 Tm1 2.340217 1_645
O7 Tm1 2.340217 1_545
O7 Sr1 2.555891 1_555
O7 Sr1 2.555891 1_655
O8 Tm5 2.269307 1_555
O8 Tm2 2.340195 1_655
O8 Tm2 2.340195 1_555
O8 Sr1 2.555869 1_555
O8 Sr1 2.555869 1_655
O9 Tm0 2.267260 1_555
O9 Tm3 2.317078 1_554
O9 Tm3 2.317078 1_454
O9 Sr0 2.573352 1_555
O9 Sr0 2.573352 1_455
O10 Tm1 2.267255 1_555
O10 Tm4 2.317079 1_565
O10 Tm4 2.317079 1_465
O10 Sr0 2.573322 1_555
O10 Sr0 2.573322 1_455
O11 Tm2 2.267275 1_555
O11 Tm5 2.317061 1_455
O11 Tm5 2.317061 1_555
O11 Sr0 2.573355 1_555
O11 Sr0 2.573355 1_455
