# generated using pymatgen
data_BaCu9Sn4
_symmetry_space_group_name_H-M   'P 1'
_cell_length_a   8.83019560
_cell_length_b   8.83019560
_cell_length_c   8.83019560
_cell_angle_alpha   120.73478645
_cell_angle_beta   120.73478645
_cell_angle_gamma   88.73195546
_symmetry_Int_Tables_number   1
_chemical_formula_structural   BaCu9Sn4
_chemical_formula_sum   'Ba2 Cu18 Sn8'
_cell_volume   481.31591643
_cell_formula_units_Z   2
loop_
 _symmetry_equiv_pos_site_id
 _symmetry_equiv_pos_as_xyz
  1  'x, y, z'
loop_
 _atom_site_type_symbol
 _atom_site_label
 _atom_site_symmetry_multiplicity
 _atom_site_fract_x
 _atom_site_fract_y
 _atom_site_fract_z
 _atom_site_occupancy
  Ba  Ba0  1  0.75000000  0.75000000  0.00000000  1
  Ba  Ba1  1  0.25000000  0.25000000  0.00000000  1
  Cu  Cu0  1  0.43464400  0.93464400  0.71720900  1
  Cu  Cu1  1  0.21743500  0.71743500  0.28279100  1
  Cu  Cu2  1  0.93464400  0.21743500  0.50000000  1
  Cu  Cu3  1  0.71743500  0.43464400  0.50000000  1
  Cu  Cu4  1  0.56535600  0.06535600  0.28279100  1
  Cu  Cu5  1  0.78256500  0.28256500  0.71720900  1
  Cu  Cu6  1  0.06535600  0.78256500  0.50000000  1
  Cu  Cu7  1  0.28256500  0.56535600  0.50000000  1
  Cu  Cu8  1  0.05613600  0.20360200  0.25973800  1
  Cu  Cu9  1  0.94386400  0.79639800  0.74026200  1
  Cu  Cu10  1  0.55613600  0.29639800  0.85253400  1
  Cu  Cu11  1  0.44386400  0.70360200  0.14746600  1
  Cu  Cu12  1  0.79639800  0.05613600  0.85253400  1
  Cu  Cu13  1  0.20360200  0.94386400  0.14746600  1
  Cu  Cu14  1  0.70360200  0.55613600  0.25973800  1
  Cu  Cu15  1  0.29639800  0.44386400  0.74026200  1
  Cu  Cu16  1  0.00000000  0.50000000  0.50000000  1
  Cu  Cu17  1  0.50000000  0.00000000  0.50000000  1
  Sn  Sn0  1  0.05931400  0.55931400  0.86747900  1
  Sn  Sn1  1  0.69183500  0.19183500  0.13252100  1
  Sn  Sn2  1  0.55931400  0.69183500  0.50000000  1
  Sn  Sn3  1  0.19183500  0.05931400  0.50000000  1
  Sn  Sn4  1  0.94068600  0.44068600  0.13252100  1
  Sn  Sn5  1  0.30816500  0.80816500  0.86747900  1
  Sn  Sn6  1  0.44068600  0.30816500  0.50000000  1
  Sn  Sn7  1  0.80816500  0.94068600  0.50000000  1
loop_
_geom_bond_atom_site_label_1
_geom_bond_atom_site_label_2
_geom_bond_distance
_geom_bond_site_symmetry_2
Ba0 Sn7 3.565652 1_555
Ba0 Sn6 3.565652 1_554
Ba0 Sn5 3.565652 1_554
Ba0 Sn1 3.565652 1_565
Ba0 Sn3 3.565652 1_665
Ba0 Sn2 3.565652 1_554
Ba0 Sn4 3.565652 1_555
Ba0 Sn0 3.565652 1_654
Ba0 Cu8 3.655575 1_665
Ba0 Cu12 3.655575 1_564
Ba0 Cu15 3.655575 1_554
Ba0 Cu10 3.655575 1_554
Ba0 Cu13 3.655575 1_655
Ba0 Cu14 3.655575 1_555
Ba0 Cu9 3.655575 1_554
Ba0 Cu11 3.655575 1_555
Ba0 Cu5 3.674404 1_554
Ba0 Cu6 3.674404 1_655
Ba0 Cu7 3.674404 1_554
Ba0 Cu3 3.674404 1_554
Ba0 Cu2 3.674404 1_565
Ba0 Cu4 3.674404 1_565
Ba0 Cu0 3.674404 1_554
Ba0 Cu1 3.674404 1_655
Ba1 Sn1 3.565652 1_555
Ba1 Sn0 3.565652 1_554
Ba1 Sn4 3.565652 1_455
Ba1 Sn3 3.565652 1_554
Ba1 Sn6 3.565652 1_555
Ba1 Sn2 3.565652 1_555
Ba1 Sn7 3.565652 1_444
Ba1 Sn5 3.565652 1_544
Ba1 Cu11 3.655575 1_555
Ba1 Cu10 3.655575 1_554
Ba1 Cu14 3.655575 1_555
Ba1 Cu9 3.655575 1_444
Ba1 Cu13 3.655575 1_545
Ba1 Cu12 3.655575 1_454
Ba1 Cu15 3.655575 1_554
Ba1 Cu8 3.655575 1_555
Ba1 Cu7 3.674404 1_555
Ba1 Cu2 3.674404 1_454
Ba1 Cu0 3.674404 1_544
Ba1 Cu4 3.674404 1_555
Ba1 Cu6 3.674404 1_544
Ba1 Cu5 3.674404 1_454
Ba1 Cu3 3.674404 1_555
Ba1 Cu1 3.674404 1_555
Cu0 Cu17 2.573388 1_565
Cu0 Sn1 2.639469 1_566
Cu0 Cu1 2.682278 1_555
Cu0 Cu6 2.698854 1_555
Cu0 Cu7 2.698854 1_555
Cu0 Sn2 2.708871 1_555
Cu0 Sn3 2.708871 1_565
Cu0 Sn5 2.709247 1_555
Cu0 Cu10 2.778944 1_565
Cu0 Cu12 2.778944 1_565
Cu1 Cu17 2.573388 1_565
Cu1 Sn0 2.639469 1_554
Cu1 Cu6 2.698854 1_555
Cu1 Cu7 2.698854 1_555
Cu1 Sn2 2.708871 1_555
Cu1 Sn3 2.708871 1_565
Cu1 Sn4 2.709247 1_455
Cu1 Cu11 2.778944 1_555
Cu1 Cu13 2.778944 1_555
Cu2 Sn3 2.639469 1_655
Cu2 Cu3 2.682278 1_555
Cu2 Cu5 2.698854 1_555
Cu2 Cu4 2.698854 1_555
Cu2 Sn0 2.708871 1_655
Cu2 Sn1 2.708871 1_555
Cu2 Sn7 2.709247 1_545
Cu2 Cu8 2.778944 1_655
Cu3 Sn2 2.639469 1_555
Cu3 Cu5 2.698854 1_555
Cu3 Cu4 2.698854 1_555
Cu3 Sn1 2.708871 1_555
Cu3 Sn0 2.708871 1_655
Cu3 Sn6 2.709247 1_555
Cu3 Cu9 2.778944 1_555
Cu4 Sn5 2.639469 1_544
Cu4 Cu5 2.682278 1_555
Cu4 Sn6 2.708871 1_555
Cu4 Sn7 2.708871 1_545
Cu4 Sn1 2.709247 1_555
Cu5 Sn4 2.639469 1_556
Cu5 Sn6 2.708871 1_555
Cu5 Sn7 2.708871 1_545
Cu5 Sn0 2.709247 1_655
Cu6 Sn7 2.639469 1_455
Cu6 Cu7 2.682278 1_555
Cu6 Sn5 2.708871 1_555
Cu6 Sn4 2.708871 1_455
Cu6 Sn3 2.709247 1_565
Cu6 Cu9 2.778944 1_455
Cu7 Sn6 2.639469 1_555
Cu7 Sn5 2.708871 1_555
Cu7 Sn4 2.708871 1_455
Cu7 Sn2 2.709247 1_555
Cu7 Cu8 2.778944 1_555
Cu8 Sn6 2.767133 1_555
Cu8 Sn3 2.767133 1_555
Cu8 Sn4 2.796909 1_455
Cu8 Sn1 2.796909 1_455
Cu9 Sn7 2.767133 1_555
Cu9 Sn2 2.767133 1_555
Cu9 Sn5 2.796909 1_655
Cu9 Sn0 2.796909 1_655
Cu10 Cu15 2.608062 1_555
Cu10 Cu14 2.608062 1_556
Cu10 Cu17 2.634140 1_555
Cu10 Sn4 2.767133 1_556
Cu10 Sn1 2.767133 1_556
Cu10 Cu5 2.778944 1_555
Cu10 Sn3 2.796909 1_555
Cu10 Sn6 2.796909 1_555
Cu10 Cu12 2.966955 1_555
Cu11 Cu14 2.608062 1_555
Cu11 Cu15 2.608062 1_554
Cu11 Cu17 2.634140 1_565
Cu11 Sn0 2.767133 1_554
Cu11 Sn5 2.767133 1_554
Cu11 Cu4 2.778944 1_565
Cu11 Sn2 2.796909 1_555
Cu11 Sn7 2.796909 1_555
Cu11 Cu13 2.966955 1_555
Cu12 Cu8 2.608062 1_656
Cu12 Cu9 2.608062 1_545
Cu12 Cu17 2.634140 1_555
Cu12 Sn4 2.767133 1_556
Cu12 Sn1 2.767133 1_556
Cu12 Cu5 2.778944 1_555
Cu12 Sn7 2.796909 1_545
Cu12 Sn2 2.796909 1_545
Cu13 Cu9 2.608062 1_454
Cu13 Cu8 2.608062 1_565
Cu13 Cu17 2.634140 1_565
Cu13 Sn0 2.767133 1_554
Cu13 Sn5 2.767133 1_554
Cu13 Cu4 2.778944 1_565
Cu13 Sn3 2.796909 1_565
Cu13 Sn6 2.796909 1_565
Cu14 Cu16 2.634140 1_655
Cu14 Sn2 2.767133 1_555
Cu14 Sn7 2.767133 1_555
Cu14 Cu3 2.778944 1_555
Cu14 Cu6 2.778944 1_655
Cu14 Sn1 2.796909 1_555
Cu14 Sn4 2.796909 1_555
Cu14 Cu9 2.966955 1_555
Cu15 Cu16 2.634140 1_555
Cu15 Sn6 2.767133 1_555
Cu15 Sn3 2.767133 1_555
Cu15 Cu2 2.778944 1_455
Cu15 Cu7 2.778944 1_555
Cu15 Sn0 2.796909 1_555
Cu15 Sn5 2.796909 1_555
Cu15 Cu8 2.966955 1_555
Cu16 Cu6 2.573388 1_555
Cu16 Cu3 2.573388 1_455
Cu16 Cu7 2.573388 1_555
Cu16 Cu2 2.573388 1_455
Cu16 Cu8 2.634140 1_555
Cu16 Cu9 2.634140 1_455
Cu16 Sn4 2.759698 1_455
Cu16 Sn1 2.759698 1_455
Cu16 Sn0 2.759698 1_555
Cu16 Sn5 2.759698 1_555
Cu17 Cu4 2.573388 1_555
Cu17 Cu5 2.573388 1_555
Cu17 Sn6 2.759698 1_555
Cu17 Sn7 2.759698 1_545
Cu17 Sn2 2.759698 1_545
Cu17 Sn3 2.759698 1_555
