# generated using pymatgen
data_YbMg2
_symmetry_space_group_name_H-M   'P 1'
_cell_length_a   5.95008516
_cell_length_b   5.95008516
_cell_length_c   5.95008516
_cell_angle_alpha   60.00000000
_cell_angle_beta   60.00000000
_cell_angle_gamma   60.00000000
_symmetry_Int_Tables_number   1
_chemical_formula_structural   YbMg2
_chemical_formula_sum   'Yb2 Mg4'
_cell_volume   148.95481510
_cell_formula_units_Z   2
loop_
 _symmetry_equiv_pos_site_id
 _symmetry_equiv_pos_as_xyz
  1  'x, y, z'
loop_
 _atom_site_type_symbol
 _atom_site_label
 _atom_site_symmetry_multiplicity
 _atom_site_fract_x
 _atom_site_fract_y
 _atom_site_fract_z
 _atom_site_occupancy
  Yb  Yb0  1  0.25000000  0.25000000  0.25000000  1
  Yb  Yb1  1  0.00000000  0.00000000  0.00000000  1
  Mg  Mg0  1  0.62500000  0.12500000  0.62500000  1
  Mg  Mg1  1  0.62500000  0.62500000  0.62500000  1
  Mg  Mg2  1  0.12500000  0.62500000  0.62500000  1
  Mg  Mg3  1  0.62500000  0.62500000  0.12500000  1
loop_
_geom_bond_atom_site_label_1
_geom_bond_atom_site_label_2
_geom_bond_distance
_geom_bond_site_symmetry_2
Yb0 Yb1 3.643668 1_555
Yb0 Yb1 3.643668 1_556
Yb0 Yb1 3.643668 1_655
Yb0 Yb1 3.643668 1_565
Mg0 Mg2 2.975043 1_555
Mg0 Mg2 2.975043 1_645
Mg0 Mg1 2.975043 1_555
Mg0 Mg3 2.975043 1_546
Mg0 Mg1 2.975043 1_545
Mg0 Mg3 2.975043 1_555
Mg0 Yb1 3.488547 1_556
Mg0 Yb0 3.488547 1_655
Mg0 Yb0 3.488547 1_555
Mg0 Yb0 3.488547 1_556
Mg0 Yb1 3.488547 1_655
Mg0 Yb1 3.488547 1_656
Mg1 Mg2 2.975043 1_555
Mg1 Mg3 2.975043 1_556
Mg1 Mg2 2.975043 1_655
Mg1 Mg3 2.975043 1_555
Mg1 Yb0 3.488547 1_556
Mg1 Yb1 3.488547 1_566
Mg1 Yb0 3.488547 1_655
Mg1 Yb0 3.488547 1_565
Mg1 Yb1 3.488547 1_665
Mg1 Yb1 3.488547 1_656
Mg2 Mg3 2.975043 1_456
Mg2 Mg3 2.975043 1_555
Mg2 Yb0 3.488547 1_555
Mg2 Yb0 3.488547 1_556
Mg2 Yb1 3.488547 1_556
Mg2 Yb1 3.488547 1_566
Mg2 Yb1 3.488547 1_565
Mg2 Yb0 3.488547 1_565
Mg3 Yb0 3.488547 1_655
Mg3 Yb1 3.488547 1_565
Mg3 Yb0 3.488547 1_555
Mg3 Yb1 3.488547 1_655
Mg3 Yb1 3.488547 1_665
Mg3 Yb0 3.488547 1_565
