# generated using pymatgen
data_CaH36W6C12S6O25
_symmetry_space_group_name_H-M   'P 1'
_cell_length_a   8.70346600
_cell_length_b   11.93359793
_cell_length_c   11.95108994
_cell_angle_alpha   83.82770518
_cell_angle_beta   73.13879322
_cell_angle_gamma   74.18097320
_symmetry_Int_Tables_number   1
_chemical_formula_structural   CaH36W6C12S6O25
_chemical_formula_sum   'Ca1 H36 W6 C12 S6 O25'
_cell_volume   1142.38619308
_cell_formula_units_Z   1
loop_
 _symmetry_equiv_pos_site_id
 _symmetry_equiv_pos_as_xyz
  1  'x, y, z'
loop_
 _atom_site_type_symbol
 _atom_site_label
 _atom_site_symmetry_multiplicity
 _atom_site_fract_x
 _atom_site_fract_y
 _atom_site_fract_z
 _atom_site_occupancy
  Ca  Ca0  1  0.00000000  0.50000000  0.50000000  1
  H  H0  1  0.18940200  0.49804200  0.81782300  1
  H  H1  1  0.81059800  0.50195800  0.18217700  1
  H  H2  1  0.12996800  0.65104900  0.84997000  1
  H  H3  1  0.87003200  0.34895100  0.15003000  1
  H  H4  1  0.00344800  0.59096000  0.78791000  1
  H  H5  1  0.99655200  0.40904000  0.21209000  1
  H  H6  1  0.19342900  0.79263500  0.54101600  1
  H  H7  1  0.80657100  0.20736500  0.45898400  1
  H  H8  1  0.00453000  0.75897200  0.63037100  1
  H  H9  1  0.99547000  0.24102800  0.36962900  1
  H  H10  1  0.13088600  0.81348000  0.69688900  1
  H  H11  1  0.86911400  0.18652000  0.30311100  1
  H  H12  1  0.93944000  0.91399600  0.27900200  1
  H  H13  1  0.06056000  0.08600400  0.72099800  1
  H  H14  1  0.71964500  0.97245700  0.32490000  1
  H  H15  1  0.28035500  0.02754300  0.67510000  1
  H  H16  1  0.83749500  0.94198300  0.43275900  1
  H  H17  1  0.16250500  0.05801700  0.56724100  1
  H  H18  1  0.57551700  0.71296000  0.50211100  1
  H  H19  1  0.42448300  0.28704000  0.49788900  1
  H  H20  1  0.62585600  0.82799100  0.55959500  1
  H  H21  1  0.37414400  0.17200900  0.44040500  1
  H  H22  1  0.51151400  0.86069300  0.44942500  1
  H  H23  1  0.48848600  0.13930700  0.55057500  1
  H  H24  1  0.76089200  0.52591300  0.93799100  1
  H  H25  1  0.23910800  0.47408700  0.06200900  1
  H  H26  1  0.65376000  0.41252500  0.95919400  1
  H  H27  1  0.34624000  0.58747500  0.04080600  1
  H  H28  1  0.86064600  0.39058700  0.86257600  1
  H  H29  1  0.13935400  0.60941300  0.13742400  1
  H  H30  1  0.57117800  0.41789900  0.66007300  1
  H  H31  1  0.42882200  0.58210100  0.33992700  1
  H  H32  1  0.75029700  0.32889500  0.70248200  1
  H  H33  1  0.24970300  0.67110500  0.29751800  1
  H  H34  1  0.54641300  0.35139800  0.80514600  1
  H  H35  1  0.45358700  0.64860200  0.19485400  1
  W  W0  1  0.69696700  0.82586800  0.02881000  1
  W  W1  1  0.30303300  0.17413200  0.97119000  1
  W  W2  1  0.64958900  0.00682500  0.80051000  1
  W  W3  1  0.35041100  0.99317500  0.19949000  1
  W  W4  1  0.33849500  0.88937100  0.95340500  1
  W  W5  1  0.66150500  0.11062900  0.04659500  1
  C  C0  1  0.12957200  0.58615300  0.79157300  1
  C  C1  1  0.87042800  0.41384700  0.20842700  1
  C  C2  1  0.13115800  0.76076500  0.62700700  1
  C  C3  1  0.86884200  0.23923500  0.37299300  1
  C  C4  1  0.82695800  0.91522500  0.35073000  1
  C  C5  1  0.17304200  0.08477500  0.64927000  1
  C  C6  1  0.60699700  0.79709500  0.48248200  1
  C  C7  1  0.39300300  0.20290500  0.51751800  1
  C  C8  1  0.74258100  0.45478200  0.89661100  1
  C  C9  1  0.25741900  0.54521800  0.10338900  1
  C  C10  1  0.62793800  0.38988100  0.73240100  1
  C  C11  1  0.37206200  0.61011900  0.26759900  1
  S  S0  1  0.24820100  0.61457200  0.64666300  1
  S  S1  1  0.75179900  0.38542800  0.35333700  1
  S  S2  1  0.79800100  0.76997100  0.36736700  1
  S  S3  1  0.20199900  0.23002900  0.63263300  1
  S  S4  1  0.65504900  0.51977600  0.77853800  1
  S  S5  1  0.34495100  0.48022400  0.22146200  1
  O  O0  1  0.21188900  0.54005800  0.56625100  1
  O  O1  1  0.78811100  0.45994200  0.43374900  1
  O  O2  1  0.92938600  0.69495000  0.42415200  1
  O  O3  1  0.07061400  0.30505000  0.57584800  1
  O  O4  1  0.79504400  0.55269100  0.68200000  1
  O  O5  1  0.20495600  0.44730900  0.31800000  1
  O  O6  1  0.50000000  0.00000000  0.00000000  1
  O  O7  1  0.52785800  0.77073600  0.98681300  1
  O  O8  1  0.47214200  0.22926400  0.01318700  1
  O  O9  1  0.83834900  0.69582400  0.04995000  1
  O  O10  1  0.16165100  0.30417600  0.95005000  1
  O  O11  1  0.77786900  0.86506500  0.86251200  1
  O  O12  1  0.22213100  0.13493500  0.13748800  1
  O  O13  1  0.49069100  0.91680200  0.80183500  1
  O  O14  1  0.50930900  0.08319800  0.19816500  1
  O  O15  1  0.22351000  0.80683700  0.91697100  1
  O  O16  1  0.77649000  0.19316300  0.08302900  1
  O  O17  1  0.78656500  0.94880000  0.06114700  1
  O  O18  1  0.21343500  0.05120000  0.93885300  1
  O  O19  1  0.53751900  0.85450300  0.18431600  1
  O  O20  1  0.46248100  0.14549700  0.81568400  1
  O  O21  1  0.75758900  0.01180500  0.65247200  1
  O  O22  1  0.24241100  0.98819500  0.34752800  1
  O  O23  1  0.75008800  0.09465900  0.87627500  1
  O  O24  1  0.24991200  0.90534100  0.12372500  1
loop_
_geom_bond_atom_site_label_1
_geom_bond_atom_site_label_2
_geom_bond_distance
_geom_bond_site_symmetry_2
Ca0 O0 2.380222 1_555
Ca0 O1 2.380222 1_455
Ca0 O3 2.387877 1_555
Ca0 O2 2.387877 1_455
Ca0 O4 2.395877 1_455
Ca0 O5 2.395877 1_555
C0 H0 1.095676 1_555
C0 H4 1.096902 1_555
C0 H2 1.098146 1_555
C0 S0 1.790978 1_555
C1 H1 1.095676 1_555
C1 H5 1.096902 1_555
C1 H3 1.098146 1_555
C1 S1 1.790978 1_555
C2 H6 1.095328 1_555
C2 H8 1.097120 1_555
C2 H10 1.097391 1_555
C2 S0 1.793966 1_555
C3 H7 1.095328 1_555
C3 H9 1.097120 1_555
C3 H11 1.097391 1_555
C3 S1 1.793966 1_555
C4 H12 1.096132 1_555
C4 H16 1.098576 1_555
C4 H14 1.099201 1_555
C4 S2 1.800758 1_555
C5 H13 1.096132 1_555
C5 H17 1.098576 1_555
C5 H15 1.099201 1_555
C5 S3 1.800758 1_555
C6 H18 1.095549 1_555
C6 H22 1.097643 1_555
C6 H20 1.098186 1_555
C6 S2 1.799078 1_555
C7 H19 1.095549 1_555
C7 H23 1.097643 1_555
C7 H21 1.098186 1_555
C7 S3 1.799078 1_555
C8 H24 1.095561 1_555
C8 H28 1.097083 1_555
C8 H26 1.098785 1_555
C8 S4 1.799804 1_555
C9 H25 1.095561 1_555
C9 H29 1.097083 1_555
C9 H27 1.098785 1_555
C9 S5 1.799804 1_555
C10 H30 1.094778 1_555
C10 H32 1.097332 1_555
C10 H34 1.097332 1_555
C10 S4 1.794783 1_555
C11 H31 1.094778 1_555
C11 H33 1.097332 1_555
C11 H35 1.097332 1_555
C11 S5 1.794783 1_555
O0 S0 1.525550 1_555
O1 S1 1.525550 1_555
O2 S2 1.526779 1_555
O3 S3 1.526779 1_555
O4 S4 1.522491 1_555
O5 S5 1.522491 1_555
O6 W2 2.366672 1_554
O6 W3 2.366672 1_545
O6 W1 2.371054 1_554
O6 W0 2.371054 1_545
O6 W5 2.377564 1_555
O6 W4 2.377564 1_544
O7 W4 1.966743 1_555
O7 W0 1.969409 1_556
O8 W5 1.966743 1_555
O8 W1 1.969409 1_554
O9 W0 1.743925 1_555
O10 W1 1.743925 1_555
O11 W0 1.957644 1_556
O11 W2 1.959104 1_565
O12 W1 1.957644 1_554
O12 W3 1.959104 1_545
O13 W4 1.964693 1_555
O13 W2 1.964842 1_565
O14 W5 1.964693 1_555
O14 W3 1.964842 1_545
O15 W4 1.744597 1_555
O16 W5 1.744597 1_555
O17 W0 1.957055 1_555
O17 W5 1.958593 1_565
O18 W1 1.957055 1_555
O18 W4 1.958593 1_545
O19 W3 1.961468 1_555
O19 W0 1.969362 1_555
O20 W2 1.961468 1_555
O20 W1 1.969362 1_555
O21 W2 1.749378 1_555
O22 W3 1.749378 1_555
O23 W2 1.961386 1_555
O23 W5 1.966457 1_556
O24 W3 1.961386 1_555
O24 W4 1.966457 1_554
