# generated using pymatgen
data_Ca2TeO5
_symmetry_space_group_name_H-M   'P 1'
_cell_length_a   9.22919776
_cell_length_b   9.22919776
_cell_length_c   9.22919776
_cell_angle_alpha   149.22303820
_cell_angle_beta   143.55639200
_cell_angle_gamma   48.42440518
_symmetry_Int_Tables_number   1
_chemical_formula_structural   Ca2TeO5
_chemical_formula_sum   'Ca4 Te2 O10'
_cell_volume   237.97119537
_cell_formula_units_Z   2
loop_
 _symmetry_equiv_pos_site_id
 _symmetry_equiv_pos_as_xyz
  1  'x, y, z'
loop_
 _atom_site_type_symbol
 _atom_site_label
 _atom_site_symmetry_multiplicity
 _atom_site_fract_x
 _atom_site_fract_y
 _atom_site_fract_z
 _atom_site_occupancy
  Ca  Ca0  1  0.80518700  0.92994200  0.05046200  1
  Ca  Ca1  1  0.62052000  0.74527500  0.05046200  1
  Ca  Ca2  1  0.12052000  0.07005800  0.87524400  1
  Ca  Ca3  1  0.30518700  0.25472500  0.87524400  1
  Te  Te0  1  0.50280200  0.00000000  0.50280200  1
  Te  Te1  1  0.00280200  0.50000000  0.50280200  1
  O  O0  1  0.46900500  0.01464100  0.98364700  1
  O  O1  1  0.96900500  0.98535900  0.45436400  1
  O  O2  1  0.41345300  0.75838700  0.37944500  1
  O  O3  1  0.62105800  0.24161300  0.65506600  1
  O  O4  1  0.91345300  0.53400800  0.65506600  1
  O  O5  1  0.12105800  0.46599200  0.37944500  1
  O  O6  1  0.79333300  0.78701900  0.49332700  1
  O  O7  1  0.70630800  0.21298100  0.00631300  1
  O  O8  1  0.20630800  0.19999500  0.49332700  1
  O  O9  1  0.29333300  0.80000500  0.00631300  1
loop_
_geom_bond_atom_site_label_1
_geom_bond_atom_site_label_2
_geom_bond_distance
_geom_bond_site_symmetry_2
Ca0 O1 2.264024 1_555
Ca0 O0 2.269155 1_564
Ca0 O4 2.403096 1_554
Ca0 O7 2.426799 1_565
Ca0 O8 2.649469 1_665
Ca0 O4 2.860727 1_565
Ca0 O2 2.942147 1_554
Ca1 O1 2.264024 1_555
Ca1 O0 2.269143 1_564
Ca1 O3 2.403096 1_554
Ca1 O9 2.426790 1_555
Ca1 O6 2.649464 1_555
Ca1 O3 2.860727 1_565
Ca1 O5 2.942147 1_554
Ca2 O0 2.264015 1_555
Ca2 O1 2.269142 1_445
Ca2 O5 2.403101 1_556
Ca2 O6 2.426796 1_445
Ca2 O9 2.649473 1_546
Ca2 O5 2.860728 1_545
Ca2 O3 2.942148 1_455
Ca3 O0 2.264038 1_555
Ca3 O1 2.269153 1_445
Ca3 O2 2.403095 1_556
Ca3 O8 2.426790 1_555
Ca3 O7 2.649464 1_556
Ca3 O2 2.860723 1_545
Ca3 O4 2.942143 1_455
O2 Te0 1.875179 1_565
O3 Te0 1.875179 1_555
O4 Te1 1.875179 1_655
O5 Te1 1.875179 1_555
O6 Te1 2.022700 1_655
O6 Te0 2.036610 1_565
O7 Te1 2.022701 1_655
O7 Te0 2.036604 1_554
O8 Te0 2.022701 1_555
O8 Te1 2.036604 1_555
O9 Te0 2.022703 1_565
O9 Te1 2.036607 1_554
