# generated using pymatgen
data_Sr2YW2O7
_symmetry_space_group_name_H-M   'P 1'
_cell_length_a   13.95164749
_cell_length_b   13.95164749
_cell_length_c   13.95164749
_cell_angle_alpha   156.94024457
_cell_angle_beta   155.77661611
_cell_angle_gamma   33.69014048
_symmetry_Int_Tables_number   1
_chemical_formula_structural   Sr2YW2O7
_chemical_formula_sum   'Sr4 Y2 W4 O14'
_cell_volume   436.01353659
_cell_formula_units_Z   2
loop_
 _symmetry_equiv_pos_site_id
 _symmetry_equiv_pos_as_xyz
  1  'x, y, z'
loop_
 _atom_site_type_symbol
 _atom_site_label
 _atom_site_symmetry_multiplicity
 _atom_site_fract_x
 _atom_site_fract_y
 _atom_site_fract_z
 _atom_site_occupancy
  Sr  Sr0  1  0.77003600  0.71064200  0.85401500  1
  Sr  Sr1  1  0.14337300  0.28935800  0.05939400  1
  Sr  Sr2  1  0.64337300  0.58397900  0.85401500  1
  Sr  Sr3  1  0.27003600  0.41602100  0.05939400  1
  Y  Y0  1  0.51769600  0.50000000  0.01769600  1
  Y  Y1  1  0.01769600  0.00000000  0.01769600  1
  W  W0  1  0.45021800  0.92883300  0.52312500  1
  W  W1  1  0.59429200  0.07116700  0.52138500  1
  W  W2  1  0.09429200  0.57290700  0.52312500  1
  W  W3  1  0.95021800  0.42709300  0.52138500  1
  O  O0  1  0.97927500  0.54550000  0.02477500  1
  O  O1  1  0.47927500  0.45450000  0.43377500  1
  O  O2  1  0.21127700  0.19764500  0.51536800  1
  O  O3  1  0.31772300  0.80235500  0.01363100  1
  O  O4  1  0.81772300  0.80409200  0.51536800  1
  O  O5  1  0.71127700  0.19590800  0.01363100  1
  O  O6  1  0.72694100  0.69138600  0.52554500  1
  O  O7  1  0.83415900  0.30861400  0.03555500  1
  O  O8  1  0.33415900  0.29860400  0.52554500  1
  O  O9  1  0.22694100  0.70139600  0.03555500  1
  O  O10  1  0.92088200  0.38688500  0.59577900  1
  O  O11  1  0.20889400  0.61311500  0.53399700  1
  O  O12  1  0.70889400  0.17489700  0.59577900  1
  O  O13  1  0.42088200  0.82510300  0.53399700  1
loop_
_geom_bond_atom_site_label_1
_geom_bond_atom_site_label_2
_geom_bond_distance
_geom_bond_site_symmetry_2
O0 Sr0 2.393657 1_554
O0 Sr2 2.393657 1_554
O0 Sr1 2.406226 1_655
O0 Sr3 2.406226 1_655
O1 Sr1 2.393657 1_555
O1 Sr3 2.393657 1_555
O1 Sr0 2.406226 1_555
O1 Sr2 2.406226 1_555
O2 W3 2.044769 1_455
O2 W0 2.115136 1_545
O2 Y1 2.462888 1_555
O2 Y0 2.479589 1_556
O3 W2 2.044762 1_554
O3 W1 2.115137 1_565
O3 Y1 2.462895 1_565
O3 Y0 2.479597 1_555
O4 W1 2.044762 1_565
O4 W2 2.115137 1_655
O4 Y0 2.462895 1_555
O4 Y1 2.479597 1_666
O5 W0 2.044765 1_544
O5 W3 2.115140 1_555
O5 Y0 2.462891 1_555
O5 Y1 2.479586 1_655
O6 W3 2.031017 1_555
O6 W0 2.136722 1_555
O6 Y1 2.449514 1_666
O6 Y0 2.506995 1_555
O7 W2 2.031017 1_655
O7 W1 2.136722 1_554
O7 Y1 2.449514 1_655
O7 Y0 2.506995 1_555
O8 W1 2.031017 1_555
O8 W2 2.136722 1_555
O8 Y0 2.449514 1_556
O8 Y1 2.506995 1_555
O9 W0 2.031017 1_555
O9 W3 2.136722 1_454
O9 Y0 2.449514 1_555
O9 Y1 2.506995 1_565
O10 W3 1.946223 1_555
O10 Sr0 2.423978 1_555
O10 Sr3 2.592412 1_656
O11 W2 1.946223 1_555
O11 Sr1 2.423978 1_555
O11 Sr2 2.592412 1_555
O12 W1 1.946223 1_555
O12 Sr2 2.423978 1_555
O12 Sr1 2.592412 1_656
O13 W0 1.946223 1_555
O13 Sr3 2.423978 1_555
O13 Sr0 2.592412 1_555
