# generated using pymatgen
data_Y6Cu15P16
_symmetry_space_group_name_H-M   'P 1'
_cell_length_a   4.10436800
_cell_length_b   7.15742900
_cell_length_c   19.60059647
_cell_angle_alpha   83.08874219
_cell_angle_beta   90.00000000
_cell_angle_gamma   90.00000000
_symmetry_Int_Tables_number   1
_chemical_formula_structural   Y6Cu15P16
_chemical_formula_sum   'Y6 Cu15 P16'
_cell_volume   571.61734955
_cell_formula_units_Z   1
loop_
 _symmetry_equiv_pos_site_id
 _symmetry_equiv_pos_as_xyz
  1  'x, y, z'
loop_
 _atom_site_type_symbol
 _atom_site_label
 _atom_site_symmetry_multiplicity
 _atom_site_fract_x
 _atom_site_fract_y
 _atom_site_fract_z
 _atom_site_occupancy
  Y  Y0  1  0.50000000  0.39211300  0.31922600  1
  Y  Y1  1  0.00000000  0.89352100  0.31668100  1
  Y  Y2  1  0.50000000  0.60535500  0.68296500  1
  Y  Y3  1  0.00000000  0.11139100  0.68185400  1
  Y  Y4  1  0.00000000  0.99992000  0.00020700  1
  Y  Y5  1  0.50000000  0.49998000  0.00056800  1
  Cu  Cu0  1  0.00000000  0.63426700  0.10075500  1
  Cu  Cu1  1  0.50000000  0.13352700  0.10079600  1
  Cu  Cu2  1  0.00000000  0.36578100  0.89917300  1
  Cu  Cu3  1  0.50000000  0.86630200  0.89935600  1
  Cu  Cu4  1  0.00000000  0.51983600  0.42905400  1
  Cu  Cu5  1  0.50000000  0.02927800  0.42269400  1
  Cu  Cu6  1  0.00000000  0.48281100  0.57792300  1
  Cu  Cu7  1  0.50000000  0.97045000  0.57108100  1
  Cu  Cu8  1  0.50000000  0.24014500  0.78412200  1
  Cu  Cu9  1  0.00000000  0.74145200  0.78220000  1
  Cu  Cu10  1  0.50000000  0.75894000  0.21708400  1
  Cu  Cu11  1  0.00000000  0.26062100  0.21749700  1
  Cu  Cu12  1  0.00000000  0.84539700  0.48042900  1
  Cu  Cu13  1  0.50000000  0.61779000  0.51765400  1
  Cu  Cu14  1  0.00000000  0.18671700  0.52140200  1
  P  P0  1  0.50000000  0.30381000  0.58737800  1
  P  P1  1  0.00000000  0.80248200  0.59755600  1
  P  P2  1  0.50000000  0.70289500  0.40346800  1
  P  P3  1  0.00000000  0.19615900  0.40555100  1
  P  P4  1  0.50000000  0.19423800  0.91457500  1
  P  P5  1  0.00000000  0.69462800  0.91374600  1
  P  P6  1  0.50000000  0.80521900  0.08633400  1
  P  P7  1  0.00000000  0.30543200  0.08654700  1
  P  P8  1  0.00000000  0.58680000  0.23360900  1
  P  P9  1  0.50000000  0.08883400  0.23211500  1
  P  P10  1  0.00000000  0.41221600  0.76709900  1
  P  P11  1  0.50000000  0.91410100  0.76632300  1
  P  P12  1  0.50000000  0.45567400  0.16162600  1
  P  P13  1  0.00000000  0.95573600  0.15862500  1
  P  P14  1  0.50000000  0.54594500  0.84157600  1
  P  P15  1  0.00000000  0.04094600  0.83902100  1
loop_
_geom_bond_atom_site_label_1
_geom_bond_atom_site_label_2
_geom_bond_distance
_geom_bond_site_symmetry_2
Cu0 P6 2.388569 1_455
Cu0 P6 2.388569 1_555
Cu0 P7 2.403080 1_555
Cu0 P8 2.585231 1_555
Cu0 P12 2.627145 1_555
Cu0 P12 2.627145 1_455
Cu0 P13 2.684923 1_555
Cu0 Y5 3.073389 1_455
Cu0 Y5 3.073389 1_555
Cu0 Y4 3.080932 1_555
Cu1 P7 2.391786 1_655
Cu1 P7 2.391786 1_555
Cu1 P6 2.400502 1_545
Cu1 P9 2.555248 1_555
Cu1 P13 2.601622 1_545
Cu1 P13 2.601622 1_645
Cu1 P12 2.720233 1_555
Cu1 Y4 3.076834 1_645
Cu1 Y4 3.076834 1_545
Cu1 Y5 3.081998 1_555
Cu2 P4 2.391840 1_555
Cu2 P4 2.391840 1_455
Cu2 P5 2.404847 1_555
Cu2 P10 2.570003 1_555
Cu2 P14 2.607382 1_555
Cu2 P14 2.607382 1_455
Cu2 P15 2.730445 1_555
Cu2 Y4 3.087210 1_546
Cu2 Y5 3.089213 1_556
Cu2 Y5 3.089213 1_456
Cu3 P5 2.391112 1_555
Cu3 P5 2.391112 1_655
Cu3 P4 2.401403 1_565
Cu3 P11 2.588734 1_555
Cu3 P15 2.610891 1_565
Cu3 P15 2.610891 1_665
Cu3 P14 2.676771 1_555
Cu3 Y4 3.080350 1_656
Cu3 Y4 3.080350 1_556
Cu3 Y5 3.091637 1_556
Cu4 P3 2.415811 1_555
Cu4 P2 2.453881 1_555
Cu4 P2 2.453881 1_455
Cu4 Y0 3.186670 1_455
Cu4 Y0 3.186670 1_555
Cu4 Y1 3.253797 1_555
Cu5 P3 2.377911 1_655
Cu5 P3 2.377911 1_555
Cu5 P2 2.410615 1_545
Cu5 Y0 3.096715 1_555
Cu5 Y1 3.155830 1_645
Cu5 Y1 3.155830 1_545
Cu6 P1 2.365382 1_555
Cu6 P0 2.414560 1_455
Cu6 P0 2.414560 1_555
Cu6 Y2 3.107149 1_455
Cu6 Y2 3.107149 1_555
Cu6 Y3 3.148597 1_555
Cu7 P1 2.403317 1_655
Cu7 P1 2.403317 1_555
Cu7 P0 2.445089 1_565
Cu7 Y2 3.202902 1_555
Cu7 Y3 3.235798 1_565
Cu7 Y3 3.235798 1_665
Cu8 P10 2.395975 1_655
Cu8 P10 2.395975 1_555
Cu8 P11 2.400730 1_545
Cu8 P4 2.538463 1_555
Cu8 P14 2.579139 1_555
Cu8 P15 2.651961 1_655
Cu8 P15 2.651961 1_555
Cu8 Y2 3.084922 1_555
Cu8 Y3 3.085993 1_655
Cu8 Y3 3.085993 1_555
Cu9 P11 2.396407 1_555
Cu9 P11 2.396407 1_455
Cu9 P10 2.410080 1_555
Cu9 P15 2.531797 1_565
Cu9 P5 2.559766 1_555
Cu9 P14 2.670597 1_555
Cu9 P14 2.670597 1_455
Cu9 Y2 3.065877 1_555
Cu9 Y2 3.065877 1_455
Cu9 Y3 3.102586 1_565
Cu10 P8 2.395485 1_555
Cu10 P8 2.395485 1_655
Cu10 P9 2.414425 1_565
Cu10 P12 2.541841 1_555
Cu10 P6 2.544259 1_555
Cu10 P13 2.668331 1_655
Cu10 P13 2.668331 1_555
Cu10 Y1 3.066398 1_655
Cu10 Y1 3.066398 1_555
Cu10 Y0 3.104287 1_555
Cu11 P9 2.391771 1_555
Cu11 P9 2.391771 1_455
Cu11 P8 2.393228 1_555
Cu11 P7 2.548075 1_555
Cu11 P13 2.588344 1_545
Cu11 P12 2.644203 1_555
Cu11 P12 2.644203 1_455
Cu11 Y1 3.074702 1_545
Cu11 Y0 3.086207 1_455
Cu11 Y0 3.086207 1_555
Cu12 P1 2.279287 1_555
Cu12 P3 2.751387 1_565
Cu12 P2 2.810258 1_555
Cu12 P2 2.810258 1_455
Cu12 Y1 3.186511 1_555
Cu13 P2 2.247687 1_555
Cu13 P0 2.485732 1_555
Cu13 Y2 3.230693 1_555
Cu14 P3 2.263611 1_555
Cu14 P0 2.616669 1_455
Cu14 P0 2.616669 1_555
Cu14 Y3 3.126236 1_555
P0 Y3 2.987231 1_555
P0 Y3 2.987231 1_655
P0 Y2 3.023509 1_555
P1 Y2 2.904517 1_455
P1 Y2 2.904517 1_555
P1 Y3 2.915091 1_565
P2 Y1 2.899676 1_555
P2 Y1 2.899676 1_655
P2 Y0 2.925463 1_555
P3 Y0 2.910388 1_455
P3 Y0 2.910388 1_555
P3 Y1 2.938423 1_545
P4 Y4 2.898479 1_546
P4 Y4 2.898479 1_646
P4 Y5 2.918460 1_556
P5 Y5 2.911670 1_556
P5 Y5 2.911670 1_456
P5 Y4 2.921959 1_556
P6 Y4 2.904671 1_555
P6 Y4 2.904671 1_655
P6 Y5 2.912540 1_555
P7 Y5 2.902705 1_455
P7 Y5 2.902705 1_555
P7 Y4 2.921659 1_545
P8 Y1 2.886346 1_555
P8 Y0 2.899410 1_455
P8 Y0 2.899410 1_555
P9 Y1 2.890587 1_545
P9 Y1 2.890587 1_645
P9 Y0 2.918769 1_555
P10 Y2 2.879801 1_455
P10 Y2 2.879801 1_555
P10 Y3 2.879850 1_555
P11 Y3 2.895506 1_665
P11 Y3 2.895506 1_565
P11 Y2 2.902032 1_555
P12 P8 2.720595 1_655
P12 P8 2.720595 1_555
P12 P6 2.747462 1_555
P12 P7 2.813229 1_555
P12 P7 2.813229 1_655
P12 P9 2.815988 1_555
P12 Y0 3.067737 1_555
P12 Y5 3.134523 1_555
P13 Y1 3.076336 1_555
P13 Y4 3.083059 1_555
P14 Y2 3.086704 1_555
P14 Y5 3.094036 1_556
P15 Y3 3.061096 1_555
P15 Y4 3.137578 1_546
