# generated using pymatgen
data_Ce2ZnBi4
_symmetry_space_group_name_H-M   'P 1'
_cell_length_a   4.58043793
_cell_length_b   4.58234926
_cell_length_c   10.04059460
_cell_angle_alpha   90.00000000
_cell_angle_beta   90.00000000
_cell_angle_gamma   90.00000000
_symmetry_Int_Tables_number   1
_chemical_formula_structural   Ce2ZnBi4
_chemical_formula_sum   'Ce2 Zn1 Bi4'
_cell_volume   210.74371040
_cell_formula_units_Z   1
loop_
 _symmetry_equiv_pos_site_id
 _symmetry_equiv_pos_as_xyz
  1  'x, y, z'
loop_
 _atom_site_type_symbol
 _atom_site_label
 _atom_site_symmetry_multiplicity
 _atom_site_fract_x
 _atom_site_fract_y
 _atom_site_fract_z
 _atom_site_occupancy
  Ce  Ce0  1  0.50000000  0.00000000  0.74148814  1
  Ce  Ce1  1  0.00000000  0.50000000  0.25841276  1
  Zn  Zn0  1  0.50000000  0.50000000  0.49990245  1
  Bi  Bi0  1  0.50000000  -0.00000000  0.34381919  1
  Bi  Bi1  1  0.00000000  0.50000000  0.65638713  1
  Bi  Bi2  1  0.50000000  0.50000000  0.99997837  1
  Bi  Bi3  1  0.00000000  -0.00000000  0.00001296  1
loop_
_geom_bond_atom_site_label_1
_geom_bond_atom_site_label_2
_geom_bond_distance
_geom_bond_site_symmetry_2
Ce0 Zn0 3.336664 1_545
Ce0 Zn0 3.336664 1_555
Ce1 Zn0 3.335307 1_455
Ce1 Zn0 3.335307 1_555
Bi0 Zn0 2.775878 1_545
Bi0 Zn0 2.775878 1_555
Bi0 Ce1 3.351111 1_645
Bi0 Ce1 3.351111 1_555
Bi0 Ce1 3.351111 1_545
Bi0 Ce1 3.351111 1_655
Bi1 Zn0 2.777367 1_555
Bi1 Zn0 2.777367 1_455
Bi1 Ce0 3.350327 1_455
Bi1 Ce0 3.350327 1_555
Bi1 Ce0 3.350327 1_465
Bi1 Ce0 3.350327 1_565
Bi2 Bi3 3.239535 1_656
Bi2 Bi3 3.239535 1_566
Bi2 Bi3 3.239535 1_556
Bi2 Bi3 3.239535 1_666
Bi2 Ce1 3.460964 1_656
Bi2 Ce1 3.460964 1_556
Bi2 Ce0 3.462017 1_565
Bi2 Ce0 3.462017 1_555
Bi3 Ce1 3.461336 1_555
Bi3 Ce1 3.461336 1_545
Bi3 Ce0 3.461645 1_554
Bi3 Ce0 3.461645 1_454
