# generated using pymatgen
data_Tb3(GeRh)2
_symmetry_space_group_name_H-M   'P 1'
_cell_length_a   5.55992552
_cell_length_b   7.81126454
_cell_length_c   13.25471857
_cell_angle_alpha   90.00000000
_cell_angle_beta   90.00000000
_cell_angle_gamma   90.00000000
_symmetry_Int_Tables_number   1
_chemical_formula_structural   Tb3(GeRh)2
_chemical_formula_sum   'Tb12 Ge8 Rh8'
_cell_volume   575.65307776
_cell_formula_units_Z   4
loop_
 _symmetry_equiv_pos_site_id
 _symmetry_equiv_pos_as_xyz
  1  'x, y, z'
loop_
 _atom_site_type_symbol
 _atom_site_label
 _atom_site_symmetry_multiplicity
 _atom_site_fract_x
 _atom_site_fract_y
 _atom_site_fract_z
 _atom_site_occupancy
  Tb  Tb0  1  0.63088889  0.26108110  0.25000000  1
  Tb  Tb1  1  0.36911111  0.73891890  0.75000000  1
  Tb  Tb2  1  0.36911111  0.76108110  0.25000000  1
  Tb  Tb3  1  0.63088889  0.23891890  0.75000000  1
  Tb  Tb4  1  0.14619643  0.39643343  0.09977939  1
  Tb  Tb5  1  0.85380357  0.60356657  0.90022061  1
  Tb  Tb6  1  0.85380357  0.60356657  0.59977939  1
  Tb  Tb7  1  0.85380357  0.89643343  0.40022061  1
  Tb  Tb8  1  0.14619643  0.39643343  0.40022061  1
  Tb  Tb9  1  0.14619643  0.10356657  0.59977939  1
  Tb  Tb10  1  0.14619643  0.10356657  0.90022061  1
  Tb  Tb11  1  0.85380357  0.89643343  0.09977939  1
  Ge  Ge0  1  0.13151745  0.11292485  0.25000000  1
  Ge  Ge1  1  0.86848255  0.88707515  0.75000000  1
  Ge  Ge2  1  0.86848255  0.61292485  0.25000000  1
  Ge  Ge3  1  0.13151745  0.38707515  0.75000000  1
  Ge  Ge4  1  0.66058518  0.25000000  -0.00000000  1
  Ge  Ge5  1  0.33941482  0.75000000  -0.00000000  1
  Ge  Ge6  1  0.33941482  0.75000000  0.50000000  1
  Ge  Ge7  1  0.66058518  0.25000000  0.50000000  1
  Rh  Rh0  1  0.37422722  0.04273464  0.09236390  1
  Rh  Rh1  1  0.62577278  0.95726536  0.90763610  1
  Rh  Rh2  1  0.62577278  0.95726536  0.59236390  1
  Rh  Rh3  1  0.62577278  0.54273464  0.40763610  1
  Rh  Rh4  1  0.37422722  0.04273464  0.40763610  1
  Rh  Rh5  1  0.37422722  0.45726536  0.59236390  1
  Rh  Rh6  1  0.37422722  0.45726536  0.90763610  1
  Rh  Rh7  1  0.62577278  0.54273464  0.09236390  1
loop_
_geom_bond_atom_site_label_1
_geom_bond_atom_site_label_2
_geom_bond_distance
_geom_bond_site_symmetry_2
Ge0 Rh4 2.547018 1_555
Ge0 Rh0 2.547018 1_555
Ge0 Tb4 2.979185 1_555
Ge0 Tb8 2.979185 1_555
Ge0 Tb0 3.008004 1_555
Ge0 Tb0 3.014457 1_455
Ge0 Tb11 3.034547 1_445
Ge0 Tb7 3.034547 1_445
Ge0 Tb2 3.049336 1_545
Ge1 Rh1 2.547018 1_555
Ge1 Rh2 2.547018 1_555
Ge1 Tb6 2.979185 1_555
Ge1 Tb5 2.979185 1_555
Ge1 Tb1 3.008004 1_555
Ge1 Tb1 3.014457 1_655
Ge1 Tb10 3.034547 1_665
Ge1 Tb9 3.034547 1_665
Ge1 Tb3 3.049336 1_565
Ge2 Rh3 2.547018 1_555
Ge2 Rh7 2.547018 1_555
Ge2 Tb11 2.979185 1_555
Ge2 Tb7 2.979185 1_555
Ge2 Tb2 3.008004 1_555
Ge2 Tb2 3.014457 1_655
Ge2 Tb4 3.034547 1_655
Ge2 Tb8 3.034547 1_655
Ge2 Tb0 3.049336 1_555
Ge3 Rh6 2.547018 1_555
Ge3 Rh5 2.547018 1_555
Ge3 Tb9 2.979185 1_555
Ge3 Tb10 2.979185 1_555
Ge3 Tb3 3.008004 1_555
Ge3 Tb3 3.014457 1_455
Ge3 Tb5 3.034547 1_455
Ge3 Tb6 3.034547 1_455
Ge3 Tb1 3.049336 1_555
Ge4 Rh0 2.579701 1_555
Ge4 Rh6 2.579701 1_554
Ge4 Rh1 2.600949 1_544
Ge4 Rh7 2.600949 1_555
Ge4 Tb10 3.216718 1_654
Ge4 Tb4 3.216718 1_655
Ge4 Tb5 3.245113 1_554
Ge4 Tb11 3.245113 1_545
Ge4 Tb0 3.318919 1_555
Ge4 Tb3 3.318919 1_554
Ge4 Tb4 3.352144 1_555
Ge4 Tb10 3.352144 1_554
Ge5 Rh7 2.579701 1_555
Ge5 Rh1 2.579701 1_554
Ge5 Rh0 2.600949 1_565
Ge5 Rh6 2.600949 1_554
Ge5 Tb11 3.216718 1_455
Ge5 Tb5 3.216718 1_454
Ge5 Tb4 3.245113 1_555
Ge5 Tb10 3.245113 1_564
Ge5 Tb2 3.318919 1_555
Ge5 Tb1 3.318919 1_554
Ge5 Tb5 3.352144 1_554
Ge5 Tb11 3.352144 1_555
Ge6 Rh2 2.579701 1_555
Ge6 Rh3 2.579701 1_555
Ge6 Rh5 2.600949 1_555
Ge6 Rh4 2.600949 1_565
Ge6 Tb7 3.216718 1_455
Ge6 Tb6 3.216718 1_455
Ge6 Tb9 3.245113 1_565
Ge6 Tb8 3.245113 1_555
Ge6 Tb2 3.318919 1_555
Ge6 Tb1 3.318919 1_555
Ge6 Tb7 3.352144 1_555
Ge6 Tb6 3.352144 1_555
Ge7 Rh5 2.579701 1_555
Ge7 Rh4 2.579701 1_555
Ge7 Rh2 2.600949 1_545
Ge7 Rh3 2.600949 1_555
Ge7 Tb9 3.216718 1_655
Ge7 Tb8 3.216718 1_655
Ge7 Tb7 3.245113 1_545
Ge7 Tb6 3.245113 1_555
Ge7 Tb0 3.318919 1_555
Ge7 Tb3 3.318919 1_555
Ge7 Tb8 3.352144 1_555
Ge7 Tb9 3.352144 1_555
Rh0 Tb10 2.884339 1_554
Rh0 Tb11 2.902651 1_545
Rh0 Tb2 3.034271 1_545
Rh0 Tb4 3.041434 1_555
Rh0 Tb0 3.051395 1_555
Rh0 Tb11 3.112569 1_445
Rh1 Tb11 2.884339 1_556
Rh1 Tb10 2.902651 1_565
Rh1 Tb3 3.034271 1_565
Rh1 Tb5 3.041434 1_555
Rh1 Tb1 3.051395 1_555
Rh1 Tb10 3.112569 1_665
Rh2 Tb7 2.884339 1_555
Rh2 Tb9 2.902651 1_565
Rh2 Tb3 3.034271 1_565
Rh2 Tb6 3.041434 1_555
Rh2 Tb1 3.051395 1_555
Rh2 Tb9 3.112569 1_665
Rh3 Tb6 2.884339 1_555
Rh3 Tb8 2.902651 1_555
Rh3 Tb0 3.034271 1_555
Rh3 Tb7 3.041434 1_555
Rh3 Tb2 3.051395 1_555
Rh3 Tb8 3.112569 1_655
Rh4 Tb9 2.884339 1_555
Rh4 Tb7 2.902651 1_545
Rh4 Tb2 3.034271 1_545
Rh4 Tb8 3.041434 1_555
Rh4 Tb0 3.051395 1_555
Rh4 Tb7 3.112569 1_445
Rh5 Tb8 2.884339 1_555
Rh5 Tb6 2.902651 1_555
Rh5 Tb1 3.034271 1_555
Rh5 Tb9 3.041434 1_555
Rh5 Tb3 3.051395 1_555
Rh5 Tb6 3.112569 1_455
Rh6 Tb4 2.884339 1_556
Rh6 Tb5 2.902651 1_555
Rh6 Tb1 3.034271 1_555
Rh6 Tb10 3.041434 1_555
Rh6 Tb3 3.051395 1_555
Rh6 Tb5 3.112569 1_455
Rh7 Tb5 2.884339 1_554
Rh7 Tb4 2.902651 1_555
Rh7 Tb0 3.034271 1_555
Rh7 Tb11 3.041434 1_555
Rh7 Tb2 3.051395 1_555
Rh7 Tb4 3.112569 1_655
