# generated using pymatgen
data_Ho6GaCo2
_symmetry_space_group_name_H-M   'P 1'
_cell_length_a   8.17878945
_cell_length_b   8.17878966
_cell_length_c   8.17878938
_cell_angle_alpha   107.45186884
_cell_angle_beta   109.10104265
_cell_angle_gamma   111.89213104
_symmetry_Int_Tables_number   1
_chemical_formula_structural   Ho6GaCo2
_chemical_formula_sum   'Ho12 Ga2 Co4'
_cell_volume   420.50824735
_cell_formula_units_Z   2
loop_
 _symmetry_equiv_pos_site_id
 _symmetry_equiv_pos_as_xyz
  1  'x, y, z'
loop_
 _atom_site_type_symbol
 _atom_site_label
 _atom_site_symmetry_multiplicity
 _atom_site_fract_x
 _atom_site_fract_y
 _atom_site_fract_z
 _atom_site_occupancy
  Ho  Ho0  1  0.69740459  0.26240480  0.95981039  1
  Ho  Ho1  1  0.30259541  0.73759520  0.04018961  1
  Ho  Ho2  1  0.81260338  0.48592534  0.67332196  1
  Ho  Ho3  1  0.81260438  0.13928143  0.32667804  1
  Ho  Ho4  1  0.18739662  0.51407466  0.32667804  1
  Ho  Ho5  1  0.18739562  0.86071857  0.67332196  1
  Ho  Ho6  1  0.30259441  0.26240480  0.56499921  1
  Ho  Ho7  1  0.69740559  0.73759520  0.43500079  1
  Ho  Ho8  1  0.39967327  0.21940252  0.18027275  1
  Ho  Ho9  1  0.03912977  0.21940252  0.81972725  1
  Ho  Ho10  1  0.96087023  0.78059748  0.18027275  1
  Ho  Ho11  1  0.60032673  0.78059748  0.81972725  1
  Ga  Ga0  1  0.50000000  0.50000000  -0.00000000  1
  Ga  Ga1  1  0.50000000  0.00000000  0.50000000  1
  Co  Co0  1  -0.00000000  0.11365145  0.11365145  1
  Co  Co1  1  0.00000000  0.88634855  0.88634855  1
  Co  Co2  1  0.16278410  0.50000000  0.66278310  1
  Co  Co3  1  0.83721590  0.50000000  0.33721690  1
loop_
_geom_bond_atom_site_label_1
_geom_bond_atom_site_label_2
_geom_bond_distance
_geom_bond_site_symmetry_2
Ga0 Ho0 2.965600 1_554
Ga0 Ho1 2.965600 1_555
Ga0 Ho7 2.965606 1_555
Ga0 Ho6 2.965606 1_554
Ga0 Ho10 3.087241 1_555
Ga0 Ho9 3.087241 1_554
Ga0 Ho11 3.087243 1_554
Ga0 Ho8 3.087243 1_555
Ga1 Ho7 3.155422 1_545
Ga1 Ho6 3.155422 1_555
Ga1 Ho1 3.155423 1_545
Ga1 Ho0 3.155423 1_555
Ga1 Ho4 3.318530 1_545
Ga1 Ho2 3.318530 1_555
Ga1 Ho3 3.318537 1_555
Ga1 Ho5 3.318537 1_545
Ga1 Ho10 3.638645 1_445
Ga1 Ho9 3.638645 1_655
Ga1 Ho8 3.638648 1_555
Ga1 Ho11 3.638648 1_545
Co0 Co1 2.199823 1_544
Co0 Ho3 2.682689 1_455
Co0 Ho4 2.682696 1_555
Co0 Ho8 2.858948 1_555
Co0 Ho11 2.858955 1_444
Co0 Ho9 2.858964 1_554
Co0 Ho10 2.858964 1_445
Co0 Ho6 3.211506 1_555
Co0 Ho0 3.211513 1_454
Co1 Ho5 2.682689 1_555
Co1 Ho2 2.682696 1_455
Co1 Ho11 2.858948 1_455
Co1 Ho8 2.858955 1_566
Co1 Ho10 2.858964 1_456
Co1 Ho9 2.858964 1_565
Co1 Ho7 3.211506 1_455
Co1 Ho1 3.211513 1_556
Co2 Ho6 2.654564 1_555
Co2 Ho1 2.654571 1_556
Co2 Ho4 2.853960 1_555
Co2 Ho3 2.853963 1_455
Co2 Ho5 2.853968 1_555
Co2 Ho2 2.853971 1_455
Co2 Ho9 2.970355 1_555
Co2 Ho11 2.970360 1_555
Co3 Ho7 2.654564 1_555
Co3 Ho0 2.654571 1_554
Co3 Ho2 2.853960 1_555
Co3 Ho5 2.853963 1_655
Co3 Ho3 2.853968 1_555
Co3 Ho4 2.853971 1_655
Co3 Ho10 2.970355 1_555
Co3 Ho8 2.970360 1_555
