# generated using pymatgen
data_Er(Al5Ru)2
_symmetry_space_group_name_H-M   'P 1'
_cell_length_a   6.79603582
_cell_length_b   6.79603582
_cell_length_c   9.05640197
_cell_angle_alpha   90.00000000
_cell_angle_beta   90.00000000
_cell_angle_gamma   96.97441558
_symmetry_Int_Tables_number   1
_chemical_formula_structural   Er(Al5Ru)2
_chemical_formula_sum   'Er2 Al20 Ru4'
_cell_volume   415.18483885
_cell_formula_units_Z   2
loop_
 _symmetry_equiv_pos_site_id
 _symmetry_equiv_pos_as_xyz
  1  'x, y, z'
loop_
 _atom_site_type_symbol
 _atom_site_label
 _atom_site_symmetry_multiplicity
 _atom_site_fract_x
 _atom_site_fract_y
 _atom_site_fract_z
 _atom_site_occupancy
  Er  Er0  1  0.87221387  0.12778613  0.75000000  1
  Er  Er1  1  0.12778613  0.87221387  0.25000000  1
  Al  Al0  1  0.62364675  0.37635325  0.54978217  1
  Al  Al1  1  0.37635325  0.62364675  0.45021783  1
  Al  Al2  1  0.37635325  0.62364675  0.04978217  1
  Al  Al3  1  0.62364675  0.37635325  0.95021783  1
  Al  Al4  1  0.22639380  0.22639380  0.50000000  1
  Al  Al5  1  0.77360620  0.77360620  0.50000000  1
  Al  Al6  1  0.77360620  0.77360620  -0.00000000  1
  Al  Al7  1  0.22639380  0.22639380  -0.00000000  1
  Al  Al8  1  0.84323754  0.15676246  0.10018492  1
  Al  Al9  1  0.15676246  0.84323754  0.89981508  1
  Al  Al10  1  0.15676246  0.84323754  0.60018492  1
  Al  Al11  1  0.84323754  0.15676246  0.39981508  1
  Al  Al12  1  0.85951871  0.58817804  0.75000000  1
  Al  Al13  1  0.14048129  0.41182196  0.25000000  1
  Al  Al14  1  0.41182196  0.14048129  0.75000000  1
  Al  Al15  1  0.58817804  0.85951871  0.25000000  1
  Al  Al16  1  0.21939321  0.48037615  0.75000000  1
  Al  Al17  1  0.78060679  0.51962385  0.25000000  1
  Al  Al18  1  0.51962385  0.78060679  0.75000000  1
  Al  Al19  1  0.48037615  0.21939321  0.25000000  1
  Ru  Ru0  1  -0.00000000  0.50000000  0.50000000  1
  Ru  Ru1  1  -0.00000000  0.50000000  -0.00000000  1
  Ru  Ru2  1  0.50000000  0.00000000  -0.00000000  1
  Ru  Ru3  1  0.50000000  0.00000000  0.50000000  1
loop_
_geom_bond_atom_site_label_1
_geom_bond_atom_site_label_2
_geom_bond_distance
_geom_bond_site_symmetry_2
Er0 Ru0 3.427187 1_655
Er0 Ru1 3.427187 1_656
Er0 Ru2 3.427187 1_556
Er0 Ru3 3.427187 1_555
Er1 Ru1 3.427187 1_555
Er1 Ru2 3.427187 1_565
Er1 Ru3 3.427187 1_565
Er1 Ru0 3.427187 1_555
Al0 Ru0 2.632358 1_655
Al0 Ru3 2.632358 1_555
Al0 Er0 3.112583 1_555
Al1 Ru3 2.632358 1_565
Al1 Ru0 2.632358 1_555
Al1 Er1 3.112583 1_555
Al2 Ru2 2.632358 1_565
Al2 Ru1 2.632358 1_555
Al2 Er1 3.112583 1_555
Al3 Ru1 2.632358 1_656
Al3 Ru2 2.632358 1_556
Al3 Er0 3.112583 1_555
Al4 Ru3 2.553334 1_555
Al4 Ru0 2.553334 1_555
Al4 Er1 3.313194 1_545
Al4 Er0 3.313194 1_455
Al5 Ru0 2.553334 1_655
Al5 Ru3 2.553334 1_565
Al5 Er1 3.313194 1_655
Al5 Er0 3.313194 1_565
Al6 Ru2 2.553334 1_565
Al6 Ru1 2.553334 1_655
Al6 Er1 3.313194 1_655
Al6 Er0 3.313194 1_564
Al7 Ru1 2.553334 1_555
Al7 Ru2 2.553334 1_555
Al7 Er1 3.313194 1_545
Al7 Er0 3.313194 1_454
Al8 Ru1 2.606910 1_655
Al8 Ru2 2.606910 1_555
Al8 Er0 3.185098 1_554
Al8 Er1 3.198159 1_645
Al9 Ru2 2.606910 1_566
Al9 Ru1 2.606910 1_556
Al9 Er1 3.185098 1_556
Al9 Er0 3.198159 1_465
Al10 Ru3 2.606910 1_565
Al10 Ru0 2.606910 1_555
Al10 Er1 3.185098 1_555
Al10 Er0 3.198159 1_465
Al11 Ru0 2.606910 1_655
Al11 Ru3 2.606910 1_555
Al11 Er0 3.185098 1_555
Al11 Er1 3.198159 1_645
Al12 Ru1 2.556499 1_656
Al12 Ru0 2.556499 1_655
Al12 Er0 3.140484 1_555
Al13 Ru0 2.556499 1_555
Al13 Ru1 2.556499 1_555
Al13 Er1 3.140484 1_555
Al14 Ru3 2.556499 1_555
Al14 Ru2 2.556499 1_556
Al14 Er0 3.140484 1_555
Al15 Ru3 2.556499 1_565
Al15 Ru2 2.556499 1_565
Al15 Er1 3.140484 1_555
Al16 Ru0 2.723109 1_555
Al16 Ru1 2.723109 1_556
Al16 Er0 3.152110 1_455
Al17 Ru0 2.723109 1_655
Al17 Ru1 2.723109 1_655
Al17 Er1 3.152110 1_655
Al18 Ru2 2.723109 1_566
Al18 Ru3 2.723109 1_565
Al18 Er0 3.152110 1_565
Al19 Ru2 2.723109 1_555
Al19 Ru3 2.723109 1_555
Al19 Er1 3.152110 1_545
