# generated using pymatgen
data_Ba3Er
_symmetry_space_group_name_H-M   'P 1'
_cell_length_a   8.41995978
_cell_length_b   8.41995978
_cell_length_c   6.72719800
_cell_angle_alpha   90.00000000
_cell_angle_beta   90.00000000
_cell_angle_gamma   119.99999824
_symmetry_Int_Tables_number   1
_chemical_formula_structural   Ba3Er
_chemical_formula_sum   'Ba6 Er2'
_cell_volume   413.03312511
_cell_formula_units_Z   2
loop_
 _symmetry_equiv_pos_site_id
 _symmetry_equiv_pos_as_xyz
  1  'x, y, z'
loop_
 _atom_site_type_symbol
 _atom_site_label
 _atom_site_symmetry_multiplicity
 _atom_site_fract_x
 _atom_site_fract_y
 _atom_site_fract_z
 _atom_site_occupancy
  Ba  Ba0  1  0.17219000  0.34438100  0.25000000  1
  Ba  Ba1  1  0.65561900  0.82781000  0.25000000  1
  Ba  Ba2  1  0.17219000  0.82781000  0.25000000  1
  Ba  Ba3  1  0.82781000  0.65561900  0.75000000  1
  Ba  Ba4  1  0.34438100  0.17219000  0.75000000  1
  Ba  Ba5  1  0.82781000  0.17219000  0.75000000  1
  Er  Er0  1  0.33333300  0.66666700  0.75000000  1
  Er  Er1  1  0.66666700  0.33333300  0.25000000  1
loop_
_geom_bond_atom_site_label_1
_geom_bond_atom_site_label_2
_geom_bond_distance
_geom_bond_site_symmetry_2
Ba0 Ba2 4.070453 1_555
Ba0 Ba1 4.070453 1_555
Ba0 Er0 4.103250 1_554
Ba0 Er0 4.103250 1_555
Ba0 Ba5 4.197600 1_455
Ba0 Ba5 4.197600 1_454
Ba0 Ba4 4.197609 1_554
Ba0 Ba4 4.197609 1_555
Ba0 Er1 4.210742 1_455
Ba0 Er1 4.210759 1_555
Ba0 Ba2 4.349507 1_545
Ba0 Ba1 4.349507 1_445
Ba1 Ba2 4.070453 1_555
Ba1 Er0 4.103250 1_554
Ba1 Er0 4.103250 1_555
Ba1 Ba5 4.197600 1_565
Ba1 Ba5 4.197600 1_564
Ba1 Ba3 4.197609 1_555
Ba1 Ba3 4.197609 1_554
Ba1 Er1 4.210742 1_565
Ba1 Er1 4.210759 1_555
Ba1 Ba2 4.349507 1_655
Ba2 Er0 4.103250 1_555
Ba2 Er0 4.103250 1_554
Ba2 Ba3 4.197600 1_455
Ba2 Ba3 4.197600 1_454
Ba2 Ba4 4.197600 1_565
Ba2 Ba4 4.197600 1_564
Ba2 Er1 4.210750 1_565
Ba2 Er1 4.210750 1_455
Ba3 Ba5 4.070453 1_555
Ba3 Ba4 4.070453 1_555
Ba3 Er1 4.103250 1_555
Ba3 Er1 4.103250 1_556
Ba3 Er0 4.210742 1_655
Ba3 Er0 4.210759 1_555
Ba3 Ba5 4.349507 1_565
Ba3 Ba4 4.349507 1_665
Ba4 Ba5 4.070453 1_555
Ba4 Er1 4.103250 1_555
Ba4 Er1 4.103250 1_556
Ba4 Er0 4.210742 1_545
Ba4 Er0 4.210759 1_555
Ba4 Ba5 4.349507 1_455
Ba5 Er1 4.103250 1_555
Ba5 Er1 4.103250 1_556
Ba5 Er0 4.210750 1_545
Ba5 Er0 4.210750 1_655
