# generated using pymatgen
data_Ag3AsO4
_symmetry_space_group_name_H-M   'P 1'
_cell_length_a   6.14178751
_cell_length_b   6.14178751
_cell_length_c   6.14178662
_cell_angle_alpha   89.86669459
_cell_angle_beta   89.86669459
_cell_angle_gamma   89.86668280
_symmetry_Int_Tables_number   1
_chemical_formula_structural   Ag3AsO4
_chemical_formula_sum   'Ag6 As2 O8'
_cell_volume   231.67585648
_cell_formula_units_Z   2
loop_
 _symmetry_equiv_pos_site_id
 _symmetry_equiv_pos_as_xyz
  1  'x, y, z'
loop_
 _atom_site_type_symbol
 _atom_site_label
 _atom_site_symmetry_multiplicity
 _atom_site_fract_x
 _atom_site_fract_y
 _atom_site_fract_z
 _atom_site_occupancy
  Ag  Ag0  1  0.71268391  0.00369851  0.50161653  1
  Ag  Ag1  1  0.00369851  0.50161653  0.71268391  1
  Ag  Ag2  1  0.50161653  0.71268391  0.00369851  1
  Ag  Ag3  1  0.21268391  0.00161653  0.50369851  1
  Ag  Ag4  1  0.50369851  0.21268391  0.00161653  1
  Ag  Ag5  1  0.00161653  0.50369851  0.21268391  1
  As  As0  1  0.50128953  0.50128953  0.50128953  1
  As  As1  1  0.00128953  0.00128953  0.00128953  1
  O  O0  1  0.67429723  0.34266056  0.65277162  1
  O  O1  1  0.65277162  0.67429723  0.34266056  1
  O  O2  1  0.34208209  0.34208209  0.34208209  1
  O  O3  1  0.34266056  0.65277162  0.67429723  1
  O  O4  1  0.84208209  0.84208209  0.84208209  1
  O  O5  1  0.17429723  0.15277162  0.84266056  1
  O  O6  1  0.15277162  0.84266056  0.17429723  1
  O  O7  1  0.84266056  0.17429723  0.15277162  1
loop_
_geom_bond_atom_site_label_1
_geom_bond_atom_site_label_2
_geom_bond_distance
_geom_bond_site_symmetry_2
Ag0 O1 2.279435 1_545
Ag0 O0 2.292850 1_555
Ag0 O4 2.446191 1_545
Ag0 O7 2.512178 1_555
Ag1 O0 2.279435 1_455
Ag1 O3 2.292850 1_555
Ag1 O4 2.446191 1_455
Ag1 O5 2.512178 1_555
Ag2 O3 2.279434 1_554
Ag2 O1 2.292849 1_555
Ag2 O4 2.446192 1_554
Ag2 O6 2.512178 1_555
Ag3 O6 2.279434 1_545
Ag3 O5 2.292849 1_555
Ag3 O2 2.446192 1_555
Ag3 O3 2.512178 1_545
Ag4 O5 2.279435 1_554
Ag4 O7 2.292850 1_555
Ag4 O2 2.446191 1_555
Ag4 O0 2.512178 1_554
Ag5 O7 2.279435 1_455
Ag5 O6 2.292850 1_555
Ag5 O2 2.446191 1_555
Ag5 O1 2.512178 1_455
As0 O2 1.697567 1_555
As0 O3 1.714473 1_555
As0 O0 1.714473 1_555
As0 O1 1.714473 1_555
As1 O4 1.697567 1_444
As1 O6 1.714473 1_545
As1 O7 1.714473 1_455
As1 O5 1.714473 1_554
