# generated using pymatgen
data_Na2CoO3
_symmetry_space_group_name_H-M   'P 1'
_cell_length_a   5.41832798
_cell_length_b   8.52230446
_cell_length_c   6.39377525
_cell_angle_alpha   79.85262469
_cell_angle_beta   73.02286886
_cell_angle_gamma   85.22833601
_symmetry_Int_Tables_number   1
_chemical_formula_structural   Na2CoO3
_chemical_formula_sum   'Na8 Co4 O12'
_cell_volume   277.80176318
_cell_formula_units_Z   4
loop_
 _symmetry_equiv_pos_site_id
 _symmetry_equiv_pos_as_xyz
  1  'x, y, z'
loop_
 _atom_site_type_symbol
 _atom_site_label
 _atom_site_symmetry_multiplicity
 _atom_site_fract_x
 _atom_site_fract_y
 _atom_site_fract_z
 _atom_site_occupancy
  Na  Na0  1  0.50313900  0.50033800  0.00030300  1
  Na  Na1  1  0.99645300  0.99949800  0.49967800  1
  Na  Na2  1  0.99812300  0.00009500  0.99931100  1
  Na  Na3  1  0.50210800  0.49969200  0.50062800  1
  Na  Na4  1  0.00059200  0.31885100  0.16609100  1
  Na  Na5  1  0.49802600  0.82002000  0.66472200  1
  Na  Na6  1  0.00167200  0.67993900  0.83526500  1
  Na  Na7  1  0.49946800  0.18106300  0.33394100  1
  Co  Co0  1  0.47650500  0.85717400  0.16614300  1
  Co  Co1  1  0.51999900  0.14502600  0.83310400  1
  Co  Co2  1  0.98024800  0.35498200  0.66697300  1
  Co  Co3  1  0.02344900  0.64279500  0.33381400  1
  O  O0  1  0.27399600  0.74072100  0.05695900  1
  O  O1  1  0.77405000  0.24134900  0.55707300  1
  O  O2  1  0.72626000  0.25860900  0.94305400  1
  O  O3  1  0.22598800  0.75931500  0.44296800  1
  O  O4  1  0.18319300  0.40844400  0.80656300  1
  O  O5  1  0.67907500  0.91083300  0.30561100  1
  O  O6  1  0.80702300  0.57994700  0.62233000  1
  O  O7  1  0.30259800  0.08128200  0.12148700  1
  O  O8  1  0.82088800  0.58919800  0.19437800  1
  O  O9  1  0.31671500  0.09204400  0.69351900  1
  O  O10  1  0.19749000  0.41872400  0.37851600  1
  O  O11  1  0.69294200  0.92006200  0.87757000  1
loop_
_geom_bond_atom_site_label_1
_geom_bond_atom_site_label_2
_geom_bond_distance
_geom_bond_site_symmetry_2
Na0 O2 2.330756 1_554
Na0 O0 2.333502 1_555
Na0 O6 2.509201 1_554
Na0 O10 2.516833 1_555
Na0 O8 2.621645 1_555
Na0 O4 2.640985 1_554
Na1 O1 2.330260 1_565
Na1 O3 2.332968 1_655
Na1 O11 2.507795 1_555
Na1 O7 2.518045 1_665
Na1 O5 2.619253 1_555
Na1 O9 2.645260 1_665
Na2 O11 2.220755 1_545
Na2 O7 2.223409 1_656
Na2 O5 2.262579 1_546
Na2 O9 2.265135 1_655
Na2 O2 2.577461 1_555
Na2 O0 2.596401 1_646
Na3 O6 2.220159 1_555
Na3 O10 2.223018 1_555
Na3 O8 2.262125 1_555
Na3 O4 2.265080 1_555
Na3 O1 2.576740 1_555
Na3 O3 2.598796 1_555
Na4 O4 2.241684 1_554
Na4 O10 2.260960 1_555
Na4 O1 2.439948 1_455
Na4 O8 2.441285 1_455
Na4 O2 2.475772 1_454
Na4 O7 2.497582 1_555
Na5 O5 2.240103 1_555
Na5 O11 2.256620 1_555
Na5 O0 2.445638 1_556
Na5 O9 2.457492 1_565
Na5 O3 2.460969 1_555
Na5 O6 2.534380 1_555
Na6 O8 2.239750 1_456
Na6 O6 2.255869 1_455
Na6 O3 2.446388 1_555
Na6 O4 2.453596 1_555
Na6 O0 2.462120 1_556
Na6 O11 2.533864 1_455
Na7 O9 2.241135 1_555
Na7 O7 2.260598 1_555
Na7 O2 2.439801 1_554
Na7 O5 2.440241 1_545
Na7 O1 2.477449 1_555
Na7 O10 2.498094 1_555
Co0 O5 1.734292 1_555
Co0 O0 1.883852 1_555
Co0 O11 1.886624 1_554
Co0 O3 1.983925 1_555
Co0 O7 2.069482 1_565
Co1 O9 1.735628 1_555
Co1 O2 1.886474 1_555
Co1 O7 1.888813 1_556
Co1 O1 1.985518 1_555
Co1 O11 2.073461 1_545
Co2 O4 1.735827 1_655
Co2 O1 1.886284 1_555
Co2 O10 1.888850 1_655
Co2 O2 1.985688 1_555
Co2 O6 2.074224 1_555
Co3 O8 1.733885 1_455
Co3 O3 1.884215 1_555
Co3 O6 1.886275 1_455
Co3 O0 1.984301 1_555
Co3 O10 2.069547 1_555
