# generated using pymatgen
data_Ce3IrI3
_symmetry_space_group_name_H-M   'P 1'
_cell_length_a   10.80815639
_cell_length_b   10.80815639
_cell_length_c   10.80815639
_cell_angle_alpha   109.47122063
_cell_angle_beta   109.47122063
_cell_angle_gamma   109.47122063
_symmetry_Int_Tables_number   1
_chemical_formula_structural   Ce3IrI3
_chemical_formula_sum   'Ce12 Ir4 I12'
_cell_volume   971.92548374
_cell_formula_units_Z   4
loop_
 _symmetry_equiv_pos_site_id
 _symmetry_equiv_pos_as_xyz
  1  'x, y, z'
loop_
 _atom_site_type_symbol
 _atom_site_label
 _atom_site_symmetry_multiplicity
 _atom_site_fract_x
 _atom_site_fract_y
 _atom_site_fract_z
 _atom_site_occupancy
  Ce  Ce0  1  0.27255900  0.75000000  0.22744100  1
  Ce  Ce1  1  0.47744100  0.75000000  0.02255900  1
  Ce  Ce2  1  0.22744100  0.45488200  0.47744100  1
  Ce  Ce3  1  0.02255900  0.04511800  0.27255900  1
  Ce  Ce4  1  0.22744100  0.27255900  0.75000000  1
  Ce  Ce5  1  0.02255900  0.47744100  0.75000000  1
  Ce  Ce6  1  0.47744100  0.22744100  0.45488200  1
  Ce  Ce7  1  0.27255900  0.02255900  0.04511800  1
  Ce  Ce8  1  0.75000000  0.22744100  0.27255900  1
  Ce  Ce9  1  0.75000000  0.02255900  0.47744100  1
  Ce  Ce10  1  0.45488200  0.47744100  0.22744100  1
  Ce  Ce11  1  0.04511800  0.27255900  0.02255900  1
  Ir  Ir0  1  0.50000000  0.00000000  0.25000000  1
  Ir  Ir1  1  0.25000000  0.50000000  0.00000000  1
  Ir  Ir2  1  0.00000000  0.25000000  0.50000000  1
  Ir  Ir3  1  0.25000000  0.25000000  0.25000000  1
  I  I0  1  0.25000000  0.98996100  0.51003900  1
  I  I1  1  0.52007800  0.51003900  0.76003900  1
  I  I2  1  0.25000000  0.76003900  0.73996100  1
  I  I3  1  0.97992200  0.73996100  0.98996100  1
  I  I4  1  0.98996100  0.51003900  0.25000000  1
  I  I5  1  0.73996100  0.98996100  0.97992200  1
  I  I6  1  0.76003900  0.73996100  0.25000000  1
  I  I7  1  0.51003900  0.76003900  0.52007800  1
  I  I8  1  0.51003900  0.25000000  0.98996100  1
  I  I9  1  0.76003900  0.52007800  0.51003900  1
  I  I10  1  0.73996100  0.25000000  0.76003900  1
  I  I11  1  0.98996100  0.97992200  0.73996100  1
loop_
_geom_bond_atom_site_label_1
_geom_bond_atom_site_label_2
_geom_bond_distance
_geom_bond_site_symmetry_2
Ce0 Ir1 2.852434 1_555
Ce0 Ir0 2.852434 1_565
Ce0 I3 3.282830 1_454
Ce0 I7 3.282830 1_555
Ce0 I4 3.428119 1_455
Ce0 I0 3.428119 1_555
Ce1 Ir0 2.852434 1_565
Ce1 Ir1 2.852434 1_555
Ce1 I2 3.282830 1_554
Ce1 I6 3.282830 1_555
Ce1 I1 3.428119 1_554
Ce1 I5 3.428119 1_554
Ce2 Ir2 2.852434 1_555
Ce2 Ir3 2.852434 1_555
Ce2 I1 3.282830 1_555
Ce2 I4 3.282830 1_455
Ce2 I2 3.428119 1_555
Ce2 I7 3.428119 1_555
Ce3 Ir2 2.852434 1_555
Ce3 Ir3 2.852434 1_555
Ce3 I0 3.282830 1_545
Ce3 I5 3.282830 1_444
Ce3 I6 3.428119 1_445
Ce3 I3 3.428119 1_444
Ce4 Ir2 2.852434 1_555
Ce4 Ir1 2.852434 1_556
Ce4 I11 3.282830 1_445
Ce4 I1 3.282830 1_555
Ce4 I0 3.428119 1_545
Ce4 I8 3.428119 1_555
Ce5 Ir1 2.852434 1_556
Ce5 Ir2 2.852434 1_555
Ce5 I10 3.282830 1_455
Ce5 I2 3.282830 1_555
Ce5 I9 3.428119 1_455
Ce5 I3 3.428119 1_455
Ce6 Ir0 2.852434 1_555
Ce6 Ir3 2.852434 1_555
Ce6 I9 3.282830 1_555
Ce6 I0 3.282830 1_545
Ce6 I10 3.428119 1_555
Ce6 I1 3.428119 1_555
Ce7 Ir3 2.852434 1_555
Ce7 Ir0 2.852434 1_555
Ce7 I3 3.282830 1_444
Ce7 I8 3.282830 1_554
Ce7 I11 3.428119 1_444
Ce7 I2 3.428119 1_544
Ce8 Ir0 2.852434 1_555
Ce8 Ir2 2.852434 1_655
Ce8 I5 3.282830 1_544
Ce8 I9 3.282830 1_555
Ce8 I8 3.428119 1_554
Ce8 I4 3.428119 1_555
Ce9 Ir2 2.852434 1_655
Ce9 Ir0 2.852434 1_555
Ce9 I10 3.282830 1_555
Ce9 I6 3.282830 1_545
Ce9 I7 3.428119 1_545
Ce9 I11 3.428119 1_545
Ce10 Ir1 2.852434 1_555
Ce10 Ir3 2.852434 1_555
Ce10 I7 3.282830 1_555
Ce10 I8 3.282830 1_554
Ce10 I6 3.428119 1_555
Ce10 I9 3.428119 1_555
Ce11 Ir1 2.852434 1_555
Ce11 Ir3 2.852434 1_555
Ce11 I11 3.282830 1_444
Ce11 I4 3.282830 1_455
Ce11 I5 3.428119 1_444
Ce11 I10 3.428119 1_454
