# generated using pymatgen
data_Pm2MgS4
_symmetry_space_group_name_H-M   'P 1'
_cell_length_a   8.19281200
_cell_length_b   7.23096800
_cell_length_c   11.66625500
_cell_angle_alpha   90.00000000
_cell_angle_beta   90.00000000
_cell_angle_gamma   90.00000000
_symmetry_Int_Tables_number   1
_chemical_formula_structural   Pm2MgS4
_chemical_formula_sum   'Pm8 Mg4 S16'
_cell_volume   691.13182842
_cell_formula_units_Z   4
loop_
 _symmetry_equiv_pos_site_id
 _symmetry_equiv_pos_as_xyz
  1  'x, y, z'
loop_
 _atom_site_type_symbol
 _atom_site_label
 _atom_site_symmetry_multiplicity
 _atom_site_fract_x
 _atom_site_fract_y
 _atom_site_fract_z
 _atom_site_occupancy
  Pm  Pm0  1  0.02937400  0.75000000  0.31282900  1
  Pm  Pm1  1  0.97062600  0.25000000  0.68717100  1
  Pm  Pm2  1  0.47062600  0.25000000  0.81282900  1
  Pm  Pm3  1  0.52937400  0.75000000  0.18717100  1
  Pm  Pm4  1  0.08598800  0.25000000  0.03155300  1
  Pm  Pm5  1  0.91401200  0.75000000  0.96844700  1
  Pm  Pm6  1  0.41401200  0.75000000  0.53155300  1
  Pm  Pm7  1  0.58598800  0.25000000  0.46844700  1
  Mg  Mg0  1  0.19021400  0.25000000  0.41453000  1
  Mg  Mg1  1  0.80978600  0.75000000  0.58547000  1
  Mg  Mg2  1  0.30978600  0.75000000  0.91453000  1
  Mg  Mg3  1  0.69021400  0.25000000  0.08547000  1
  S  S0  1  0.14161500  0.49649800  0.84512800  1
  S  S1  1  0.85838500  0.50350200  0.15487200  1
  S  S2  1  0.35838500  0.50350200  0.34512800  1
  S  S3  1  0.64161500  0.49649800  0.65487200  1
  S  S4  1  0.64161500  0.00350200  0.65487200  1
  S  S5  1  0.35838500  0.99649800  0.34512800  1
  S  S6  1  0.85838500  0.99649800  0.15487200  1
  S  S7  1  0.14161500  0.00350200  0.84512800  1
  S  S8  1  0.90979700  0.25000000  0.44636200  1
  S  S9  1  0.09020300  0.75000000  0.55363800  1
  S  S10  1  0.59020300  0.75000000  0.94636200  1
  S  S11  1  0.40979700  0.25000000  0.05363800  1
  S  S12  1  0.20591100  0.75000000  0.10901400  1
  S  S13  1  0.79408900  0.25000000  0.89098600  1
  S  S14  1  0.29408900  0.25000000  0.60901400  1
  S  S15  1  0.70591100  0.75000000  0.39098600  1
loop_
_geom_bond_atom_site_label_1
_geom_bond_atom_site_label_2
_geom_bond_distance
_geom_bond_site_symmetry_2
Pm0 S12 2.783095 1_555
Pm0 S15 2.802545 1_455
Pm0 S9 2.853200 1_555
Pm0 S1 2.921519 1_455
Pm0 S6 2.921519 1_455
Pm0 S5 3.253438 1_555
Pm0 S2 3.253438 1_555
Pm1 S13 2.783095 1_555
Pm1 S14 2.802545 1_655
Pm1 S8 2.853200 1_555
Pm1 S0 2.921519 1_655
Pm1 S7 2.921519 1_655
Pm1 S3 3.253438 1_555
Pm1 S4 3.253438 1_555
Pm2 S14 2.783095 1_555
Pm2 S13 2.802545 1_555
Pm2 S11 2.853200 1_556
Pm2 S3 2.921519 1_555
Pm2 S4 2.921519 1_555
Pm2 S0 3.253438 1_555
Pm2 S7 3.253438 1_555
Pm3 S15 2.783095 1_555
Pm3 S12 2.802545 1_555
Pm3 S10 2.853200 1_554
Pm3 S5 2.921519 1_555
Pm3 S2 2.921519 1_555
Pm3 S6 3.253438 1_555
Pm3 S1 3.253438 1_555
Pm4 S11 2.665388 1_555
Pm4 S7 2.848654 1_554
Pm4 S0 2.848654 1_554
Pm4 S13 2.899722 1_454
Pm4 S6 2.984466 1_445
Pm4 S1 2.984466 1_455
Pm5 S10 2.665388 1_555
Pm5 S6 2.848654 1_556
Pm5 S1 2.848654 1_556
Pm5 S12 2.899722 1_656
Pm5 S7 2.984466 1_665
Pm5 S0 2.984466 1_655
Pm6 S9 2.665388 1_555
Pm6 S5 2.848654 1_555
Pm6 S2 2.848654 1_555
Pm6 S15 2.899722 1_555
Pm6 S4 2.984466 1_565
Pm6 S3 2.984466 1_555
Pm7 S8 2.665388 1_555
Pm7 S3 2.848654 1_555
Pm7 S4 2.848654 1_555
Pm7 S14 2.899722 1_555
Pm7 S2 2.984466 1_555
Pm7 S5 2.984466 1_545
Mg0 S8 2.327224 1_455
Mg0 S14 2.423253 1_555
Mg0 S2 2.431870 1_555
Mg0 S5 2.431870 1_545
Mg1 S9 2.327224 1_655
Mg1 S15 2.423253 1_555
Mg1 S4 2.431870 1_565
Mg1 S3 2.431870 1_555
Mg2 S10 2.327224 1_555
Mg2 S12 2.423253 1_556
Mg2 S7 2.431870 1_565
Mg2 S0 2.431870 1_555
Mg3 S11 2.327224 1_555
Mg3 S13 2.423253 1_554
Mg3 S1 2.431870 1_555
Mg3 S6 2.431870 1_545
