# generated using pymatgen
data_Cs2AlTlF6
_symmetry_space_group_name_H-M   'P 1'
_cell_length_a   6.51009030
_cell_length_b   6.51009030
_cell_length_c   6.51009030
_cell_angle_alpha   60.00000000
_cell_angle_beta   60.00000000
_cell_angle_gamma   60.00000000
_symmetry_Int_Tables_number   1
_chemical_formula_structural   Cs2AlTlF6
_chemical_formula_sum   'Cs2 Al1 Tl1 F6'
_cell_volume   195.09495578
_cell_formula_units_Z   1
loop_
 _symmetry_equiv_pos_site_id
 _symmetry_equiv_pos_as_xyz
  1  'x, y, z'
loop_
 _atom_site_type_symbol
 _atom_site_label
 _atom_site_symmetry_multiplicity
 _atom_site_fract_x
 _atom_site_fract_y
 _atom_site_fract_z
 _atom_site_occupancy
  Cs  Cs0  1  0.75000000  0.75000000  0.75000000  1
  Cs  Cs1  1  0.25000000  0.25000000  0.25000000  1
  Al  Al0  1  0.00000000  0.00000000  0.00000000  1
  Tl  Tl0  1  0.50000000  0.50000000  0.50000000  1
  F  F0  1  0.79903700  0.20096300  0.20096300  1
  F  F1  1  0.20096300  0.20096300  0.79903700  1
  F  F2  1  0.20096300  0.79903700  0.79903700  1
  F  F3  1  0.20096300  0.79903700  0.20096300  1
  F  F4  1  0.79903700  0.20096300  0.79903700  1
  F  F5  1  0.79903700  0.79903700  0.20096300  1
loop_
_geom_bond_atom_site_label_1
_geom_bond_atom_site_label_2
_geom_bond_distance
_geom_bond_site_symmetry_2
Cs0 F3 3.286205 1_556
Cs0 F1 3.286205 1_565
Cs0 F4 3.286205 1_555
Cs0 F1 3.286205 1_655
Cs0 F0 3.286205 1_565
Cs0 F5 3.286205 1_555
Cs0 F2 3.286205 1_555
Cs0 F4 3.286205 1_565
Cs0 F5 3.286205 1_556
Cs0 F0 3.286205 1_556
Cs0 F3 3.286205 1_655
Cs0 F2 3.286205 1_655
Cs1 F3 3.286205 1_545
Cs1 F1 3.286205 1_555
Cs1 F1 3.286205 1_554
Cs1 F5 3.286205 1_545
Cs1 F2 3.286205 1_554
Cs1 F2 3.286205 1_545
Cs1 F5 3.286205 1_455
Cs1 F4 3.286205 1_554
Cs1 F0 3.286205 1_455
Cs1 F0 3.286205 1_555
Cs1 F4 3.286205 1_455
Cs1 F3 3.286205 1_555
Al0 F2 1.850198 1_544
Al0 F0 1.850198 1_455
Al0 F5 1.850198 1_445
Al0 F4 1.850198 1_454
Al0 F1 1.850198 1_554
Al0 F3 1.850198 1_545
F0 Tl0 2.753131 1_555
F1 Tl0 2.753131 1_555
F2 Tl0 2.753131 1_555
F3 Tl0 2.753131 1_555
F4 Tl0 2.753131 1_555
F5 Tl0 2.753131 1_555
