# generated using pymatgen
data_Cs2Pb2O3
_symmetry_space_group_name_H-M   'P 1'
_cell_length_a   7.90302169
_cell_length_b   7.90302169
_cell_length_c   7.90302169
_cell_angle_alpha   109.47122063
_cell_angle_beta   109.47122063
_cell_angle_gamma   109.47122063
_symmetry_Int_Tables_number   1
_chemical_formula_structural   Cs2Pb2O3
_chemical_formula_sum   'Cs4 Pb4 O6'
_cell_volume   379.97728107
_cell_formula_units_Z   2
loop_
 _symmetry_equiv_pos_site_id
 _symmetry_equiv_pos_as_xyz
  1  'x, y, z'
loop_
 _atom_site_type_symbol
 _atom_site_label
 _atom_site_symmetry_multiplicity
 _atom_site_fract_x
 _atom_site_fract_y
 _atom_site_fract_z
 _atom_site_occupancy
  Cs  Cs0  1  0.48725462  0.48725462  0.48725462  1
  Cs  Cs1  1  0.01274538  0.50000000  0.00000000  1
  Cs  Cs2  1  0.00000000  0.01274538  0.50000000  1
  Cs  Cs3  1  0.50000000  -0.00000000  0.01274538  1
  Pb  Pb0  1  0.02352125  0.02352125  0.02352125  1
  Pb  Pb1  1  0.47647875  0.50000000  -0.00000000  1
  Pb  Pb2  1  -0.00000000  0.47647875  0.50000000  1
  Pb  Pb3  1  0.50000000  0.00000000  0.47647875  1
  O  O0  1  0.24261896  0.99261896  0.25000000  1
  O  O1  1  0.25738104  0.50738104  0.75000000  1
  O  O2  1  0.99261896  0.25000000  0.24261896  1
  O  O3  1  0.50738104  0.75000000  0.25738104  1
  O  O4  1  0.25000000  0.24261896  0.99261896  1
  O  O5  1  0.75000000  0.25738104  0.50738104  1
loop_
_geom_bond_atom_site_label_1
_geom_bond_atom_site_label_2
_geom_bond_distance
_geom_bond_site_symmetry_2
Cs0 O1 3.181950 1_555
Cs0 O3 3.181950 1_555
Cs0 O5 3.181950 1_555
Cs0 O4 3.192665 1_554
Cs0 O0 3.192665 1_545
Cs0 O2 3.192665 1_455
Cs1 O5 3.181950 1_454
Cs1 O2 3.181950 1_455
Cs1 O0 3.181950 1_555
Cs1 O1 3.192665 1_554
Cs1 O4 3.192665 1_554
Cs1 O3 3.192665 1_555
Cs2 O3 3.181950 1_445
Cs2 O0 3.181950 1_545
Cs2 O4 3.181950 1_555
Cs2 O5 3.192665 1_455
Cs2 O2 3.192665 1_455
Cs2 O1 3.192665 1_555
Cs3 O1 3.181950 1_544
Cs3 O4 3.181950 1_554
Cs3 O2 3.181950 1_555
Cs3 O0 3.192665 1_545
Cs3 O5 3.192665 1_555
Cs3 O3 3.192665 1_545
O0 Pb3 2.183728 1_565
O0 Pb0 2.183728 1_565
O1 Pb2 2.183728 1_555
O1 Pb1 2.183728 1_556
O2 Pb0 2.183728 1_655
O2 Pb2 2.183728 1_655
O3 Pb1 2.183728 1_555
O3 Pb3 2.183728 1_565
O4 Pb0 2.183728 1_556
O4 Pb1 2.183728 1_556
O5 Pb3 2.183728 1_555
O5 Pb2 2.183728 1_655
