# generated using pymatgen
data_Ca3Si6W7O15
_symmetry_space_group_name_H-M   'P 1'
_cell_length_a   7.46950956
_cell_length_b   7.81570382
_cell_length_c   10.10187473
_cell_angle_alpha   82.82743225
_cell_angle_beta   69.64015987
_cell_angle_gamma   77.98264079
_symmetry_Int_Tables_number   1
_chemical_formula_structural   Ca3Si6W7O15
_chemical_formula_sum   'Ca3 Si6 W7 O15'
_cell_volume   539.89729191
_cell_formula_units_Z   1
loop_
 _symmetry_equiv_pos_site_id
 _symmetry_equiv_pos_as_xyz
  1  'x, y, z'
loop_
 _atom_site_type_symbol
 _atom_site_label
 _atom_site_symmetry_multiplicity
 _atom_site_fract_x
 _atom_site_fract_y
 _atom_site_fract_z
 _atom_site_occupancy
  Ca  Ca0  1  0.60003600  0.41575500  0.12420300  1
  Ca  Ca1  1  0.19840600  0.43229500  0.44504500  1
  Ca  Ca2  1  0.04690400  0.42891800  0.15188800  1
  Si  Si0  1  0.13844900  0.10373900  0.68032100  1
  Si  Si1  1  0.55328700  0.08776100  0.42420300  1
  Si  Si2  1  0.97478900  0.08742900  0.43519700  1
  Si  Si3  1  0.65273200  0.82453700  0.18422100  1
  Si  Si4  1  0.98363400  0.03414400  0.01426300  1
  Si  Si5  1  0.22717000  0.81211300  0.20357500  1
  W  W0  1  0.44857400  0.13417100  0.99044300  1
  W  W1  1  0.74118600  0.34935500  0.77253000  1
  W  W2  1  0.31389100  0.71494000  0.59854200  1
  W  W3  1  0.72976800  0.90160100  0.76132000  1
  W  W4  1  0.48055600  0.64774900  0.80897400  1
  W  W5  1  0.29457500  0.38270400  0.78800600  1
  W  W6  1  0.75403200  0.65485700  0.54482600  1
  O  O0  1  0.12660300  0.88844700  0.08359100  1
  O  O1  1  0.09111700  0.01116000  0.83988700  1
  O  O2  1  0.44393400  0.87696200  0.14633200  1
  O  O3  1  0.74316300  0.08579900  0.47104400  1
  O  O4  1  0.07720400  0.31699900  0.69069000  1
  O  O5  1  0.60278200  0.90530800  0.33995100  1
  O  O6  1  0.36419500  0.05723400  0.57050600  1
  O  O7  1  0.74051000  0.61847900  0.18247500  1
  O  O8  1  0.00650100  0.04300000  0.59518200  1
  O  O9  1  0.78702600  0.94386700  0.06071600  1
  O  O10  1  0.03953600  0.26987300  0.36343600  1
  O  O11  1  0.25330100  0.60018300  0.22777300  1
  O  O12  1  0.49460400  0.26552500  0.33935000  1
  O  O13  1  0.10214200  0.91336800  0.34919700  1
  O  O14  1  0.91889400  0.23012800  0.06981400  1
loop_
_geom_bond_atom_site_label_1
_geom_bond_atom_site_label_2
_geom_bond_distance
_geom_bond_site_symmetry_2
Ca0 O12 2.297666 1_555
Ca0 O7 2.304971 1_555
Ca0 O14 2.434930 1_555
Ca0 O11 2.610877 1_555
Ca0 W4 3.753186 1_554
Ca1 O12 2.288412 1_555
Ca1 O10 2.295366 1_555
Ca1 O11 2.363456 1_555
Ca1 O4 2.451011 1_555
Ca1 W2 3.257008 1_555
Ca1 W6 3.280968 1_455
Ca2 O10 2.323445 1_555
Ca2 O14 2.346813 1_455
Ca2 O7 2.395524 1_455
Ca2 O11 2.587293 1_555
W1 W4 2.681330 1_555
W1 W6 3.093829 1_555
W2 W4 2.763121 1_555
W2 W6 3.082682 1_555
W3 W4 2.882561 1_555
W3 W6 3.027651 1_555
W4 W6 2.741085 1_555
W4 W5 2.789000 1_555
O0 Si5 1.629620 1_555
O0 Si4 1.656044 1_465
O1 Si0 1.632651 1_555
O1 Si4 1.677706 1_456
O2 Si5 1.682223 1_555
O2 Si3 1.690236 1_555
O2 W0 2.392236 1_564
O3 Si1 1.640659 1_555
O3 Si2 1.642172 1_555
O4 Si0 1.640467 1_555
O4 W1 2.321860 1_455
O4 W5 2.334597 1_555
O5 Si3 1.659539 1_555
O5 Si1 1.661061 1_565
O5 W6 3.014259 1_555
O6 Si0 1.658288 1_555
O6 Si1 1.684015 1_555
O6 W2 2.744776 1_545
O7 Si3 1.607237 1_555
O8 Si0 1.680199 1_555
O8 Si2 1.697236 1_455
O8 W3 2.526838 1_445
O9 Si3 1.631201 1_555
O9 Si4 1.656505 1_565
O10 Si2 1.605542 1_455
O11 Si5 1.624474 1_555
O12 Si1 1.602384 1_555
O13 Si5 1.639957 1_555
O13 Si2 1.640597 1_465
O14 Si4 1.616292 1_555
