# generated using pymatgen
data_MgCu3
_symmetry_space_group_name_H-M   'P 1'
_cell_length_a   4.56165337
_cell_length_b   4.56165337
_cell_length_c   4.56165337
_cell_angle_alpha   131.89993803
_cell_angle_beta   131.89993803
_cell_angle_gamma   70.38710986
_symmetry_Int_Tables_number   1
_chemical_formula_structural   MgCu3
_chemical_formula_sum   'Mg1 Cu3'
_cell_volume   51.53336338
_cell_formula_units_Z   1
loop_
 _symmetry_equiv_pos_site_id
 _symmetry_equiv_pos_as_xyz
  1  'x, y, z'
loop_
 _atom_site_type_symbol
 _atom_site_label
 _atom_site_symmetry_multiplicity
 _atom_site_fract_x
 _atom_site_fract_y
 _atom_site_fract_z
 _atom_site_occupancy
  Mg  Mg0  1  0.00000000  -0.00000000  0.00000000  1
  Cu  Cu0  1  0.50000000  0.50000000  0.00000000  1
  Cu  Cu1  1  0.75000000  0.25000000  0.50000000  1
  Cu  Cu2  1  0.25000000  0.75000000  0.50000000  1
loop_
_geom_bond_atom_site_label_1
_geom_bond_atom_site_label_2
_geom_bond_distance
_geom_bond_site_symmetry_2
Cu0 Mg0 2.629065 1_554
Cu0 Mg0 2.629065 1_565
Cu0 Mg0 2.629065 1_666
Cu0 Mg0 2.629065 1_655
Cu0 Cu2 2.632521 1_655
Cu0 Cu2 2.632521 1_544
Cu0 Cu1 2.632521 1_555
Cu0 Cu2 2.632521 1_555
Cu0 Cu1 2.632521 1_565
Cu0 Cu1 2.632521 1_454
Cu0 Cu1 2.632521 1_554
Cu0 Cu2 2.632521 1_554
Cu1 Cu2 2.629065 1_656
Cu1 Cu2 2.629065 1_544
Cu1 Cu2 2.629065 1_555
Cu1 Cu2 2.629065 1_645
Cu1 Mg0 2.632521 1_656
Cu1 Mg0 2.632521 1_555
Cu1 Mg0 2.632521 1_666
Cu1 Mg0 2.632521 1_655
Cu2 Mg0 2.632521 1_565
Cu2 Mg0 2.632521 1_555
Cu2 Mg0 2.632521 1_666
Cu2 Mg0 2.632521 1_566
