# generated using pymatgen
data_Tm5BiPt2
_symmetry_space_group_name_H-M   'P 1'
_cell_length_a   8.69580874
_cell_length_b   8.69580874
_cell_length_c   8.69580874
_cell_angle_alpha   127.82703642
_cell_angle_beta   127.82703642
_cell_angle_gamma   76.90539014
_symmetry_Int_Tables_number   1
_chemical_formula_structural   Tm5BiPt2
_chemical_formula_sum   'Tm10 Bi2 Pt4'
_cell_volume   398.27779175
_cell_formula_units_Z   2
loop_
 _symmetry_equiv_pos_site_id
 _symmetry_equiv_pos_as_xyz
  1  'x, y, z'
loop_
 _atom_site_type_symbol
 _atom_site_label
 _atom_site_symmetry_multiplicity
 _atom_site_fract_x
 _atom_site_fract_y
 _atom_site_fract_z
 _atom_site_occupancy
  Tm  Tm0  1  0.00000000  0.00000000  0.00000000  1
  Tm  Tm1  1  0.50000000  0.50000000  0.00000000  1
  Tm  Tm2  1  0.79094570  0.29094570  0.80997197  1
  Tm  Tm3  1  0.20905430  0.70905430  0.19002803  1
  Tm  Tm4  1  0.48097373  0.98097373  0.19002803  1
  Tm  Tm5  1  0.29094570  0.48097373  0.50000000  1
  Tm  Tm6  1  0.01902627  0.20905430  0.50000000  1
  Tm  Tm7  1  0.51902627  0.01902627  0.80997197  1
  Tm  Tm8  1  0.70905430  0.51902627  0.50000000  1
  Tm  Tm9  1  0.98097373  0.79094570  0.50000000  1
  Bi  Bi0  1  0.25000000  0.25000000  0.00000000  1
  Bi  Bi1  1  0.75000000  0.75000000  0.00000000  1
  Pt  Pt0  1  0.14070922  0.64070922  0.78141845  1
  Pt  Pt1  1  0.85929078  0.35929078  0.21858155  1
  Pt  Pt2  1  0.64070922  0.85929078  0.50000000  1
  Pt  Pt3  1  0.35929078  0.14070922  0.50000000  1
loop_
_geom_bond_atom_site_label_1
_geom_bond_atom_site_label_2
_geom_bond_distance
_geom_bond_site_symmetry_2
Bi0 Tm6 3.283149 1_554
Bi0 Tm3 3.283149 1_555
Bi0 Tm4 3.283149 1_545
Bi0 Tm7 3.283149 1_554
Bi0 Tm5 3.283149 1_555
Bi0 Tm9 3.283149 1_444
Bi0 Tm2 3.283149 1_454
Bi0 Tm8 3.283149 1_555
Bi0 Tm1 3.404939 1_555
Bi0 Tm0 3.404939 1_555
Bi1 Tm7 3.283149 1_564
Bi1 Tm4 3.283149 1_555
Bi1 Tm6 3.283149 1_665
Bi1 Tm9 3.283149 1_555
Bi1 Tm5 3.283149 1_554
Bi1 Tm8 3.283149 1_554
Bi1 Tm2 3.283149 1_554
Bi1 Tm3 3.283149 1_655
Bi1 Tm1 3.404939 1_555
Bi1 Tm0 3.404939 1_665
Pt0 Tm3 2.882939 1_556
Pt0 Tm4 2.882939 1_556
Pt0 Tm8 2.924817 1_455
Pt0 Tm6 2.924817 1_555
Pt0 Tm9 2.924817 1_455
Pt0 Tm5 2.924817 1_555
Pt0 Tm1 2.950901 1_556
Pt0 Tm0 2.950901 1_566
Pt1 Tm2 2.882939 1_554
Pt1 Tm7 2.882939 1_554
Pt1 Tm5 2.924817 1_655
Pt1 Tm9 2.924817 1_555
Pt1 Tm8 2.924817 1_555
Pt1 Tm6 2.924817 1_655
Pt1 Tm0 2.950901 1_655
Pt1 Tm1 2.950901 1_555
Pt2 Tm8 2.882939 1_555
Pt2 Tm9 2.882939 1_555
Pt2 Tm3 2.924817 1_555
Pt2 Tm7 2.924817 1_565
Pt2 Tm2 2.924817 1_565
Pt2 Tm4 2.924817 1_555
Pt2 Tm1 2.950901 1_555
Pt2 Tm0 2.950901 1_666
Pt3 Tm6 2.882939 1_555
Pt3 Tm5 2.882939 1_555
Pt3 Tm2 2.924817 1_555
Pt3 Tm3 2.924817 1_545
Pt3 Tm4 2.924817 1_545
Pt3 Tm7 2.924817 1_555
Pt3 Tm1 2.950901 1_556
Pt3 Tm0 2.950901 1_555
