# generated using pymatgen
data_Cs3P3HO9
_symmetry_space_group_name_H-M   'P 1'
_cell_length_a   8.04772300
_cell_length_b   8.31695519
_cell_length_c   10.72185691
_cell_angle_alpha   68.60263135
_cell_angle_beta   85.45930411
_cell_angle_gamma   84.94491975
_symmetry_Int_Tables_number   1
_chemical_formula_structural   Cs3P3HO9
_chemical_formula_sum   'Cs6 P6 H2 O18'
_cell_volume   664.72124270
_cell_formula_units_Z   2
loop_
 _symmetry_equiv_pos_site_id
 _symmetry_equiv_pos_as_xyz
  1  'x, y, z'
loop_
 _atom_site_type_symbol
 _atom_site_label
 _atom_site_symmetry_multiplicity
 _atom_site_fract_x
 _atom_site_fract_y
 _atom_site_fract_z
 _atom_site_occupancy
  Cs  Cs0  1  0.62988500  0.29316700  0.36930500  1
  Cs  Cs1  1  0.37011500  0.70683300  0.63069500  1
  Cs  Cs2  1  0.75976200  0.24142200  0.98109500  1
  Cs  Cs3  1  0.24023800  0.75857800  0.01890500  1
  Cs  Cs4  1  0.11123100  0.21246100  0.66642800  1
  Cs  Cs5  1  0.88876900  0.78753900  0.33357200  1
  P  P0  1  0.74283800  0.72803800  0.00189100  1
  P  P1  1  0.25716200  0.27196200  0.99810900  1
  P  P2  1  0.07931900  0.26912700  0.25223700  1
  P  P3  1  0.92068100  0.73087300  0.74776300  1
  P  P4  1  0.35773700  0.01096800  0.26004700  1
  P  P5  1  0.64226300  0.98903200  0.73995300  1
  H  H0  1  0.29156400  0.52061800  0.41076400  1
  H  H1  1  0.70843600  0.47938200  0.58923600  1
  O  O0  1  0.38840200  0.13584200  0.10305600  1
  O  O1  1  0.61159800  0.86415800  0.89694400  1
  O  O2  1  0.15162400  0.36035600  0.09729000  1
  O  O3  1  0.84837600  0.63964400  0.90271000  1
  O  O4  1  0.25975800  0.86036500  0.27247100  1
  O  O5  1  0.74024200  0.13963500  0.72752900  1
  O  O6  1  0.47677900  0.01913400  0.67684700  1
  O  O7  1  0.52322100  0.98086600  0.32315300  1
  O  O8  1  0.14512700  0.17242000  0.95213900  1
  O  O9  1  0.85487300  0.82758000  0.04786100  1
  O  O10  1  0.05193400  0.40407200  0.31503000  1
  O  O11  1  0.94806600  0.59592800  0.68497000  1
  O  O12  1  0.93737600  0.16143000  0.25535600  1
  O  O13  1  0.06262400  0.83857000  0.74464400  1
  O  O14  1  0.64121700  0.59034100  0.10052000  1
  O  O15  1  0.35878300  0.40965900  0.89948000  1
  O  O16  1  0.24383200  0.14500000  0.31857400  1
  O  O17  1  0.75616800  0.85500000  0.68142600  1
loop_
_geom_bond_atom_site_label_1
_geom_bond_atom_site_label_2
_geom_bond_distance
_geom_bond_site_symmetry_2
Cs0 O12 2.972710 1_555
Cs0 O7 3.020955 1_545
Cs0 O14 3.036951 1_555
Cs0 H0 3.271631 1_555
Cs0 H1 3.381131 1_555
Cs0 O6 3.457390 1_555
Cs0 O10 3.545896 1_655
Cs0 O16 3.591417 1_555
Cs0 O5 3.732677 1_555
Cs1 O13 2.972710 1_555
Cs1 O6 3.020955 1_565
Cs1 O15 3.036951 1_555
Cs1 H1 3.271631 1_555
Cs1 H0 3.381131 1_555
Cs1 O7 3.457390 1_555
Cs1 O11 3.545896 1_455
Cs1 O17 3.591417 1_555
Cs1 O4 3.732677 1_555
Cs2 O8 3.115729 1_655
Cs2 O5 3.146915 1_555
Cs2 O12 3.194255 1_556
Cs2 O0 3.227787 1_556
Cs2 O3 3.236434 1_555
Cs2 O9 3.281720 1_546
Cs2 O15 3.448893 1_555
Cs2 O14 3.605691 1_556
Cs3 O9 3.115729 1_455
Cs3 O4 3.146915 1_555
Cs3 O13 3.194255 1_554
Cs3 O1 3.227787 1_554
Cs3 O2 3.236434 1_555
Cs3 O8 3.281720 1_564
Cs3 O14 3.448893 1_555
Cs3 O15 3.605691 1_554
Cs4 O13 2.964072 1_545
Cs4 O8 2.990212 1_555
Cs4 O5 3.070734 1_455
Cs4 O6 3.215517 1_555
Cs4 H0 3.329901 1_555
Cs4 O11 3.408601 1_455
Cs4 O10 3.568200 1_555
Cs5 O12 2.964072 1_565
Cs5 O9 2.990212 1_555
Cs5 O4 3.070734 1_655
Cs5 O7 3.215517 1_555
Cs5 H1 3.329901 1_555
Cs5 O10 3.408601 1_655
Cs5 O11 3.568200 1_555
O0 P4 1.636042 1_555
O0 P1 1.646593 1_554
O1 P5 1.636042 1_555
O1 P0 1.646593 1_556
O2 P2 1.636844 1_555
O2 P1 1.646232 1_554
O3 P3 1.636844 1_555
O3 P0 1.646232 1_556
O4 P4 1.498021 1_565
O5 P5 1.498021 1_545
O6 P5 1.501469 1_545
O7 P4 1.501469 1_565
O8 P1 1.496967 1_555
O9 P0 1.496967 1_555
O10 P2 1.498580 1_555
O11 P3 1.498580 1_555
O12 P2 1.503567 1_655
O13 P3 1.503567 1_455
O14 P0 1.497692 1_555
O15 P1 1.497692 1_555
O16 P2 1.642244 1_555
O16 P4 1.648021 1_555
O17 P3 1.642244 1_555
O17 P5 1.648021 1_555
