# generated using pymatgen
data_Er2ReB6
_symmetry_space_group_name_H-M   'P 1'
_cell_length_a   3.64951580
_cell_length_b   9.11086909
_cell_length_c   11.47171638
_cell_angle_alpha   89.99830956
_cell_angle_beta   90.00000276
_cell_angle_gamma   90.00000182
_symmetry_Int_Tables_number   1
_chemical_formula_structural   Er2ReB6
_chemical_formula_sum   'Er8 Re4 B24'
_cell_volume   381.43756018
_cell_formula_units_Z   4
loop_
 _symmetry_equiv_pos_site_id
 _symmetry_equiv_pos_as_xyz
  1  'x, y, z'
loop_
 _atom_site_type_symbol
 _atom_site_label
 _atom_site_symmetry_multiplicity
 _atom_site_fract_x
 _atom_site_fract_y
 _atom_site_fract_z
 _atom_site_occupancy
  Er  Er0  1  0.00000051  0.32353779  0.41399610  1
  Er  Er1  1  0.00000006  0.67646053  0.58601629  1
  Er  Er2  1  -0.00000024  0.82358950  0.08600763  1
  Er  Er3  1  0.00000022  0.17640641  0.91398088  1
  Er  Er4  1  -0.00000011  0.94287493  0.36983136  1
  Er  Er5  1  0.00000013  0.05712354  0.63018227  1
  Er  Er6  1  0.00000004  0.44277939  0.13020630  1
  Er  Er7  1  -0.00000020  0.55722097  0.86978343  1
  Re  Re0  1  0.00000010  0.63855348  0.32059361  1
  Re  Re1  1  0.00000023  0.36144883  0.67940117  1
  Re  Re2  1  0.00000031  0.13854771  0.17938038  1
  Re  Re3  1  -0.00000001  0.86145966  0.82062316  1
  B  B0  1  0.49999969  0.55318675  0.43308266  1
  B  B1  1  0.50000014  0.44681757  0.56690918  1
  B  B2  1  0.50000007  0.05315852  0.06689943  1
  B  B3  1  0.50000000  0.94683895  0.93310743  1
  B  B4  1  0.49999971  0.74953168  0.41889392  1
  B  B5  1  0.50000003  0.25046571  0.58110186  1
  B  B6  1  0.49999981  0.24948731  0.08111603  1
  B  B7  1  0.50000009  0.75050899  0.91888914  1
  B  B8  1  0.49999963  0.79221620  0.26484454  1
  B  B9  1  0.49999996  0.20778082  0.73515887  1
  B  B10  1  0.49999983  0.29215319  0.23515091  1
  B  B11  1  0.50000015  0.70784357  0.76484563  1
  B  B12  1  0.49999978  0.63063321  0.18515225  1
  B  B13  1  0.50000028  0.36936943  0.81485086  1
  B  B14  1  0.50000007  0.13062130  0.31482429  1
  B  B15  1  0.50000003  0.86937799  0.68517209  1
  B  B16  1  0.49999977  0.98179071  0.21184527  1
  B  B17  1  0.49999985  0.01820877  0.78815607  1
  B  B18  1  0.49999967  0.48178486  0.28815663  1
  B  B19  1  0.50000015  0.51822036  0.71184307  1
  B  B20  1  0.50000024  0.59961258  0.02779107  1
  B  B21  1  0.50000013  0.40039014  0.97221243  1
  B  B22  1  0.49999995  0.09958680  0.47220654  1
  B  B23  1  0.49999997  0.90041184  0.52778924  1
loop_
_geom_bond_atom_site_label_1
_geom_bond_atom_site_label_2
_geom_bond_distance
_geom_bond_site_symmetry_2
Er0 Re0 3.063525 1_555
Er0 Re1 3.064191 1_555
Er0 Re2 3.175655 1_555
Er1 Re1 3.063420 1_555
Er1 Re0 3.064388 1_555
Er1 Re3 3.175613 1_555
Er2 Re2 3.062974 1_565
Er2 Re3 3.063894 1_554
Er2 Re0 3.175504 1_555
Er3 Re3 3.062816 1_545
Er3 Re2 3.064054 1_556
Er3 Re1 3.175474 1_555
Er4 Re2 2.819807 1_565
Er4 Re0 2.829599 1_555
Er5 Re3 2.819666 1_545
Er5 Re1 2.829590 1_555
Er6 Re0 2.819907 1_555
Er6 Re2 2.828619 1_555
Er7 Re1 2.819851 1_555
Er7 Re3 2.828650 1_555
B0 B18 1.785310 1_555
B0 B4 1.796258 1_555
B0 B1 1.815488 1_555
B0 Re0 2.366397 1_555
B0 Re0 2.366400 1_655
B0 Er1 2.769339 1_555
B0 Er1 2.769340 1_655
B0 Er0 2.784856 1_555
B0 Er0 2.784860 1_655
B1 B19 1.785397 1_555
B1 B5 1.796325 1_555
B1 Re1 2.366423 1_555
B1 Re1 2.366423 1_655
B1 Er0 2.769211 1_555
B1 Er0 2.769213 1_655
B1 Er1 2.784836 1_655
B1 Er1 2.784836 1_555
B2 B6 1.796150 1_555
B2 B3 1.814960 1_544
B2 Re2 2.366440 1_555
B2 Re2 2.366441 1_655
B2 Er3 2.769092 1_554
B2 Er3 2.769092 1_654
B2 Er2 2.784320 1_645
B2 Er2 2.784322 1_545
B3 B7 1.796163 1_555
B3 Re3 2.366431 1_555
B3 Re3 2.366431 1_655
B3 Er2 2.768964 1_656
B3 Er2 2.768965 1_556
B3 Er3 2.784326 1_565
B3 Er3 2.784327 1_665
B4 B8 1.809484 1_555
B4 Re0 2.371453 1_555
B4 Re0 2.371455 1_655
B4 Er4 2.597967 1_555
B4 Er4 2.597968 1_655
B4 Er1 2.729186 1_555
B4 Er1 2.729187 1_655
B5 B9 1.809570 1_555
B5 Re1 2.371467 1_555
B5 Re1 2.371468 1_655
B5 Er5 2.598005 1_555
B5 Er5 2.598005 1_655
B5 Er0 2.729053 1_555
B5 Er0 2.729056 1_655
B6 Re2 2.371078 1_555
B6 Re2 2.371081 1_655
B6 Er6 2.597742 1_555
B6 Er6 2.597743 1_655
B6 Er3 2.729338 1_554
B6 Er3 2.729340 1_654
B7 Re3 2.371131 1_655
B7 Re3 2.371132 1_555
B7 Er7 2.597755 1_655
B7 Er7 2.597756 1_555
B7 Er2 2.729203 1_656
B7 Er2 2.729204 1_556
B8 Re0 2.387194 1_555
B8 Re0 2.387196 1_655
B8 Er4 2.581566 1_555
B8 Er4 2.581567 1_655
B8 Er2 2.760495 1_555
B8 Er2 2.760496 1_655
B9 Re1 2.387249 1_555
B9 Re1 2.387250 1_655
B9 Er5 2.581504 1_555
B9 Er5 2.581505 1_655
B9 Er3 2.760369 1_555
B9 Er3 2.760370 1_655
B10 B14 1.732394 1_555
B10 B6 1.809307 1_555
B10 B18 1.831608 1_555
B10 Re2 2.386976 1_555
B10 Re2 2.386979 1_655
B10 Er6 2.581145 1_555
B10 Er6 2.581146 1_655
B10 Er0 2.760588 1_555
B10 Er0 2.760591 1_655
B11 B15 1.732414 1_555
B11 B7 1.809403 1_555
B11 B19 1.831523 1_555
B11 Re3 2.387055 1_655
B11 Re3 2.387056 1_555
B11 Er7 2.581091 1_655
B11 Er7 2.581092 1_555
B11 Er1 2.760452 1_655
B11 Er1 2.760453 1_555
B12 B8 1.732949 1_555
B12 B18 1.798689 1_555
B12 B20 1.827201 1_555
B12 Re0 2.397723 1_555
B12 Re0 2.397724 1_655
B12 Er6 2.579996 1_555
B12 Er6 2.579998 1_655
B12 Er2 2.777368 1_655
B12 Er2 2.777368 1_555
B13 B9 1.732991 1_555
B13 B19 1.798732 1_555
B13 B21 1.827206 1_555
B13 Re1 2.397785 1_655
B13 Re1 2.397786 1_555
B13 Er7 2.579945 1_655
B13 Er7 2.579947 1_555
B13 Er3 2.777338 1_655
B13 Er3 2.777338 1_555
B14 B16 1.798428 1_545
B14 B22 1.827443 1_555
B14 Re2 2.397741 1_555
B14 Re2 2.397742 1_655
B14 Er4 2.579494 1_645
B14 Er4 2.579495 1_545
B14 Er0 2.777307 1_555
B14 Er0 2.777309 1_655
B15 B17 1.798467 1_565
B15 B23 1.827449 1_555
B15 Re3 2.397792 1_655
B15 Re3 2.397793 1_555
B15 Er5 2.579441 1_565
B15 Er5 2.579442 1_665
B15 Er1 2.777239 1_555
B15 Er1 2.777239 1_655
B16 B2 1.785373 1_565
B16 B8 1.831058 1_555
B16 Re2 2.346943 1_565
B16 Re2 2.346946 1_665
B16 Er4 2.596171 1_555
B16 Er4 2.596171 1_655
B16 Er2 2.737017 1_555
B16 Er2 2.737017 1_655
B17 B3 1.785438 1_545
B17 B9 1.831029 1_555
B17 Re3 2.346904 1_545
B17 Re3 2.346905 1_645
B17 Er5 2.596071 1_555
B17 Er5 2.596072 1_655
B17 Er3 2.736921 1_555
B17 Er3 2.736923 1_655
B18 Re0 2.346970 1_555
B18 Re0 2.346972 1_655
B18 Er6 2.596010 1_555
B18 Er6 2.596012 1_655
B18 Er0 2.737201 1_555
B18 Er0 2.737205 1_655
B19 Re1 2.346996 1_555
B19 Re1 2.346996 1_655
B19 Er7 2.595924 1_655
B19 Er7 2.595926 1_555
B19 Er1 2.737093 1_655
B19 Er1 2.737093 1_555
B20 B7 1.857605 1_554
B20 B21 1.923832 1_554
B20 Er6 2.598403 1_655
B20 Er6 2.598404 1_555
B20 Er7 2.600872 1_654
B20 Er7 2.600874 1_554
B20 Er2 2.817797 1_655
B20 Er2 2.817799 1_555
B21 B6 1.857661 1_556
B21 Er7 2.598462 1_655
B21 Er7 2.598464 1_555
B21 Er6 2.600759 1_656
B21 Er6 2.600760 1_556
B21 Er3 2.817883 1_555
B21 Er3 2.817884 1_655
B22 B5 1.857491 1_555
B22 B23 1.923404 1_545
B22 Er4 2.597626 1_645
B22 Er4 2.597626 1_545
B22 Er5 2.600698 1_555
B22 Er5 2.600699 1_655
B22 Er0 2.817580 1_555
B22 Er0 2.817583 1_655
B23 B4 1.857499 1_555
B23 Er5 2.597717 1_565
B23 Er5 2.597718 1_665
B23 Er4 2.600556 1_655
B23 Er4 2.600556 1_555
B23 Er1 2.817629 1_555
B23 Er1 2.817629 1_655
