# generated using pymatgen
data_Li3Mo
_symmetry_space_group_name_H-M   'P 1'
_cell_length_a   4.01520700
_cell_length_b   4.01520700
_cell_length_c   4.01520700
_cell_angle_alpha   90.00000000
_cell_angle_beta   90.00000000
_cell_angle_gamma   90.00000000
_symmetry_Int_Tables_number   1
_chemical_formula_structural   Li3Mo
_chemical_formula_sum   'Li3 Mo1'
_cell_volume   64.73271455
_cell_formula_units_Z   1
loop_
 _symmetry_equiv_pos_site_id
 _symmetry_equiv_pos_as_xyz
  1  'x, y, z'
loop_
 _atom_site_type_symbol
 _atom_site_label
 _atom_site_symmetry_multiplicity
 _atom_site_fract_x
 _atom_site_fract_y
 _atom_site_fract_z
 _atom_site_occupancy
  Li  Li0  1  0.00000000  0.50000000  0.50000000  1
  Li  Li1  1  0.50000000  0.00000000  0.50000000  1
  Li  Li2  1  0.50000000  0.50000000  0.00000000  1
  Mo  Mo0  1  0.00000000  0.00000000  0.00000000  1
loop_
_geom_bond_atom_site_label_1
_geom_bond_atom_site_label_2
_geom_bond_distance
_geom_bond_site_symmetry_2
Li0 Mo0 2.839180 1_565
Li0 Mo0 2.839180 1_555
Li0 Mo0 2.839180 1_556
Li0 Mo0 2.839180 1_566
Li1 Mo0 2.839180 1_656
Li1 Mo0 2.839180 1_556
Li1 Mo0 2.839180 1_555
Li1 Mo0 2.839180 1_655
Li2 Mo0 2.839180 1_565
Li2 Mo0 2.839180 1_555
Li2 Mo0 2.839180 1_655
Li2 Mo0 2.839180 1_665
