# generated using pymatgen
data_HfMg14Si
_symmetry_space_group_name_H-M   'P 1'
_cell_length_a   6.31820740
_cell_length_b   6.15441719
_cell_length_c   10.22373601
_cell_angle_alpha   90.00000000
_cell_angle_beta   90.00000000
_cell_angle_gamma   119.14610377
_symmetry_Int_Tables_number   1
_chemical_formula_structural   HfMg14Si
_chemical_formula_sum   'Hf1 Mg14 Si1'
_cell_volume   347.21140372
_cell_formula_units_Z   1
loop_
 _symmetry_equiv_pos_site_id
 _symmetry_equiv_pos_as_xyz
  1  'x, y, z'
loop_
 _atom_site_type_symbol
 _atom_site_label
 _atom_site_symmetry_multiplicity
 _atom_site_fract_x
 _atom_site_fract_y
 _atom_site_fract_z
 _atom_site_occupancy
  Hf  Hf0  1  0.15978606  0.82989253  0.12500000  1
  Mg  Mg0  1  0.16509442  0.33254671  0.62500000  1
  Mg  Mg1  1  0.16686047  0.83342973  0.62500000  1
  Mg  Mg2  1  0.66508221  0.33529082  0.12500000  1
  Mg  Mg3  1  0.66515645  0.33120162  0.62500000  1
  Mg  Mg4  1  0.66508221  0.82979040  0.12500000  1
  Mg  Mg5  1  0.66515645  0.83395383  0.62500000  1
  Mg  Mg6  1  0.33238383  0.16705484  0.37113235  1
  Mg  Mg7  1  0.33238383  0.16705484  0.87886765  1
  Mg  Mg8  1  0.33238383  0.66532999  0.37113235  1
  Mg  Mg9  1  0.33238383  0.66532999  0.87886765  1
  Mg  Mg10  1  0.83884073  0.16942086  0.36993714  1
  Mg  Mg11  1  0.83884073  0.16942086  0.88006286  1
  Mg  Mg12  1  0.83724056  0.66862078  0.37546110  1
  Mg  Mg13  1  0.83724056  0.66862078  0.87453890  1
  Si  Si0  1  0.16608382  0.33304141  0.12500000  1
loop_
_geom_bond_atom_site_label_1
_geom_bond_atom_site_label_2
_geom_bond_distance
_geom_bond_site_symmetry_2
Hf0 Si0 3.077405 1_565
Hf0 Si0 3.077405 1_555
Hf0 Mg9 3.102095 1_554
Hf0 Mg8 3.102095 1_555
Hf0 Mg6 3.102101 1_565
Hf0 Mg7 3.102101 1_564
Hf0 Mg12 3.118470 1_455
Hf0 Mg13 3.118470 1_454
Hf0 Mg2 3.125335 1_455
Hf0 Mg4 3.125335 1_455
Hf0 Mg2 3.192872 1_565
Hf0 Mg4 3.192872 1_555
Mg0 Mg1 3.077224 1_555
Mg0 Mg1 3.077224 1_545
Mg0 Mg6 3.152722 1_555
Mg0 Mg7 3.152722 1_555
Mg0 Mg8 3.152728 1_555
Mg0 Mg9 3.152728 1_555
Mg0 Mg5 3.154688 1_445
Mg0 Mg3 3.154688 1_455
Mg0 Mg5 3.163535 1_555
Mg0 Mg3 3.163536 1_555
Mg0 Mg10 3.168797 1_455
Mg0 Mg11 3.168797 1_455
Mg1 Mg12 3.133233 1_455
Mg1 Mg13 3.133233 1_455
Mg1 Mg3 3.146767 1_565
Mg1 Mg5 3.146768 1_555
Mg1 Mg8 3.155063 1_555
Mg1 Mg9 3.155063 1_555
Mg1 Mg6 3.155069 1_565
Mg1 Mg7 3.155069 1_565
Mg1 Mg3 3.171442 1_455
Mg1 Mg5 3.171442 1_455
Mg2 Mg4 3.043357 1_555
Mg2 Mg4 3.111060 1_545
Mg2 Mg7 3.114944 1_554
Mg2 Mg6 3.114944 1_555
Mg2 Si0 3.146056 1_555
Mg2 Si0 3.172198 1_655
Mg3 Mg5 3.060270 1_545
Mg3 Mg5 3.094147 1_555
Mg3 Mg6 3.179419 1_555
Mg3 Mg7 3.179419 1_555
Mg4 Mg8 3.114945 1_555
Mg4 Mg9 3.114945 1_554
Mg4 Si0 3.146056 1_555
Mg4 Si0 3.172197 1_665
Mg5 Mg8 3.179419 1_555
Mg5 Mg9 3.179419 1_555
Mg6 Mg8 3.066593 1_555
Mg6 Si0 3.086315 1_555
Mg6 Mg8 3.087824 1_545
Mg7 Mg9 3.066593 1_555
Mg7 Si0 3.086315 1_556
Mg7 Mg9 3.087824 1_545
Mg8 Si0 3.086321 1_555
Mg9 Si0 3.086321 1_556
Mg10 Mg12 3.077739 1_545
Mg10 Mg12 3.077739 1_555
Mg10 Si0 3.087356 1_655
Mg10 Mg2 3.099984 1_555
Mg10 Mg4 3.099990 1_545
Mg10 Mg8 3.125449 1_655
Mg10 Mg6 3.125449 1_655
Mg10 Mg3 3.171742 1_555
Mg10 Mg5 3.171748 1_545
Mg10 Mg8 3.192856 1_545
Mg10 Mg6 3.192856 1_555
Mg11 Mg13 3.077739 1_545
Mg11 Mg13 3.077739 1_555
Mg11 Si0 3.087356 1_656
Mg11 Mg2 3.099984 1_556
Mg11 Mg4 3.099990 1_546
Mg11 Mg9 3.125449 1_655
Mg11 Mg7 3.125449 1_655
Mg11 Mg3 3.171742 1_555
Mg11 Mg5 3.171748 1_545
Mg11 Mg9 3.192856 1_545
Mg11 Mg7 3.192856 1_555
Mg12 Mg4 3.126486 1_555
Mg12 Mg2 3.126492 1_555
Mg12 Mg5 3.131113 1_555
Mg12 Mg3 3.131119 1_555
Mg12 Mg6 3.138643 1_665
Mg12 Mg8 3.138644 1_655
Mg12 Mg6 3.180282 1_555
Mg12 Mg8 3.180283 1_555
Mg13 Mg4 3.126486 1_556
Mg13 Mg2 3.126492 1_556
Mg13 Mg5 3.131113 1_555
Mg13 Mg3 3.131119 1_555
Mg13 Mg7 3.138643 1_665
Mg13 Mg9 3.138644 1_655
Mg13 Mg7 3.180282 1_555
Mg13 Mg9 3.180283 1_555
