# generated using pymatgen
data_AlSbO3
_symmetry_space_group_name_H-M   'P 1'
_cell_length_a   5.67946391
_cell_length_b   5.67946391
_cell_length_c   13.10194900
_cell_angle_alpha   90.00000000
_cell_angle_beta   90.00000000
_cell_angle_gamma   119.99999895
_symmetry_Int_Tables_number   1
_chemical_formula_structural   AlSbO3
_chemical_formula_sum   'Al6 Sb6 O18'
_cell_volume   366.00012121
_cell_formula_units_Z   6
loop_
 _symmetry_equiv_pos_site_id
 _symmetry_equiv_pos_as_xyz
  1  'x, y, z'
loop_
 _atom_site_type_symbol
 _atom_site_label
 _atom_site_symmetry_multiplicity
 _atom_site_fract_x
 _atom_site_fract_y
 _atom_site_fract_z
 _atom_site_occupancy
  Al  Al0  1  0.66666700  0.33333300  0.26609400  1
  Al  Al1  1  0.33333300  0.66666700  0.76609400  1
  Al  Al2  1  0.66666700  0.33333300  0.76609400  1
  Al  Al3  1  0.33333300  0.66666700  0.26609400  1
  Al  Al4  1  0.00000000  0.00000000  0.72990200  1
  Al  Al5  1  0.00000000  0.00000000  0.22990200  1
  Sb  Sb0  1  0.70323200  0.00000000  0.48394600  1
  Sb  Sb1  1  0.70323200  0.70323200  0.98394600  1
  Sb  Sb2  1  0.00000000  0.29676800  0.98394600  1
  Sb  Sb3  1  0.00000000  0.70323200  0.48394600  1
  Sb  Sb4  1  0.29676800  0.29676800  0.48394600  1
  Sb  Sb5  1  0.29676800  0.00000000  0.98394600  1
  O  O0  1  0.66666700  0.33333300  0.02714100  1
  O  O1  1  0.33333300  0.66666700  0.52714100  1
  O  O2  1  0.66666700  0.33333300  0.52714100  1
  O  O3  1  0.33333300  0.66666700  0.02714100  1
  O  O4  1  0.00000000  0.00000000  0.86428900  1
  O  O5  1  0.00000000  0.00000000  0.36428900  1
  O  O6  1  0.47346100  0.00000000  0.85179000  1
  O  O7  1  0.47346100  0.47346100  0.35179000  1
  O  O8  1  0.00000000  0.52653900  0.35179000  1
  O  O9  1  0.00000000  0.47346100  0.85179000  1
  O  O10  1  0.52653900  0.52653900  0.85179000  1
  O  O11  1  0.52653900  0.00000000  0.35179000  1
  O  O12  1  0.31561200  0.00000000  0.19571000  1
  O  O13  1  0.31561200  0.31561200  0.69571000  1
  O  O14  1  0.00000000  0.68438800  0.69571000  1
  O  O15  1  0.00000000  0.31561200  0.19571000  1
  O  O16  1  0.68438800  0.68438800  0.19571000  1
  O  O17  1  0.68438800  0.00000000  0.69571000  1
loop_
_geom_bond_atom_site_label_1
_geom_bond_atom_site_label_2
_geom_bond_distance
_geom_bond_site_symmetry_2
Al0 O11 1.992833 1_555
Al0 O8 1.992834 1_655
Al0 O7 1.992837 1_555
Al0 O15 2.152925 1_655
Al0 O12 2.152928 1_555
Al0 O16 2.152931 1_555
Al1 O6 1.992833 1_565
Al1 O9 1.992834 1_555
Al1 O10 1.992837 1_555
Al1 O14 2.152925 1_555
Al1 O17 2.152928 1_565
Al1 O13 2.152931 1_555
Al2 O9 1.992833 1_655
Al2 O6 1.992834 1_555
Al2 O10 1.992837 1_555
Al2 O17 2.152925 1_555
Al2 O14 2.152928 1_655
Al2 O13 2.152931 1_555
Al3 O8 1.992833 1_555
Al3 O11 1.992834 1_565
Al3 O7 1.992837 1_555
Al3 O12 2.152925 1_565
Al3 O15 2.152928 1_555
Al3 O16 2.152931 1_555
Al4 O4 1.760732 1_555
Al4 O14 1.847639 1_545
Al4 O17 1.847639 1_455
Al4 O13 1.847639 1_555
Al5 O5 1.760732 1_555
Al5 O12 1.847639 1_555
Al5 O15 1.847639 1_555
Al5 O16 1.847639 1_445
O0 Sb2 2.083408 1_654
O0 Sb5 2.083412 1_554
O0 Sb1 2.083414 1_554
O1 Sb3 2.083408 1_555
O1 Sb0 2.083412 1_565
O1 Sb4 2.083414 1_555
O2 Sb0 2.083408 1_555
O2 Sb3 2.083412 1_655
O2 Sb4 2.083414 1_555
O3 Sb5 2.083408 1_564
O3 Sb2 2.083412 1_554
O3 Sb1 2.083414 1_554
O4 Sb5 2.301882 1_555
O4 Sb2 2.301882 1_555
O4 Sb1 2.301882 1_445
O5 Sb3 2.301882 1_545
O5 Sb0 2.301882 1_455
O5 Sb4 2.301882 1_555
O6 Sb5 2.001288 1_555
O7 Sb4 2.001288 1_555
O8 Sb3 2.001288 1_555
O9 Sb2 2.001288 1_555
O10 Sb1 2.001288 1_555
O11 Sb0 2.001288 1_555
