# generated using pymatgen
data_V6AgO15
_symmetry_space_group_name_H-M   'P 1'
_cell_length_a   11.93280210
_cell_length_b   7.82764080
_cell_length_c   9.07168510
_cell_angle_alpha   85.16266737
_cell_angle_beta   89.00660822
_cell_angle_gamma   91.90482012
_symmetry_Int_Tables_number   1
_chemical_formula_structural   V6AgO15
_chemical_formula_sum   'V12 Ag2 O30'
_cell_volume   843.68971352
_cell_formula_units_Z   2
loop_
 _symmetry_equiv_pos_site_id
 _symmetry_equiv_pos_as_xyz
  1  'x, y, z'
loop_
 _atom_site_type_symbol
 _atom_site_label
 _atom_site_symmetry_multiplicity
 _atom_site_fract_x
 _atom_site_fract_y
 _atom_site_fract_z
 _atom_site_occupancy
  V  V0  1  0.02951700  0.20419900  0.10255700  1
  V  V1  1  0.19546400  0.61851200  0.41854000  1
  V  V2  1  0.21977100  0.72697100  0.06867500  1
  V  V3  1  0.28022900  0.27302900  0.93132500  1
  V  V4  1  0.30453600  0.38148800  0.58146000  1
  V  V5  1  0.47048300  0.79580100  0.89744300  1
  V  V6  1  0.51484000  0.17006800  0.12010000  1
  V  V7  1  0.68895300  0.62491200  0.43362300  1
  V  V8  1  0.63826600  0.79281900  0.10388100  1
  V  V9  1  0.86173400  0.20718100  0.89611900  1
  V  V10  1  0.81104700  0.37508800  0.56637700  1
  V  V11  1  0.98516000  0.82993200  0.87990000  1
  Ag  Ag0  1  0.50681100  0.01815400  0.51099600  1
  Ag  Ag1  1  0.99318900  0.98184600  0.48900400  1
  O  O0  1  0.98187400  0.06293800  0.93647300  1
  O  O1  1  0.03886100  0.10937100  0.27263700  1
  O  O2  1  0.14755900  0.33138100  0.00503200  1
  O  O3  1  0.15880900  0.42931500  0.54348700  1
  O  O4  1  0.16371300  0.59003300  0.23034800  1
  O  O5  1  0.12326100  0.74163600  0.92383700  1
  O  O6  1  0.15654200  0.79753200  0.48061900  1
  O  O7  1  0.23624000  0.91161800  0.13616900  1
  O  O8  1  0.26376000  0.08838200  0.86383100  1
  O  O9  1  0.34345800  0.20246800  0.51938100  1
  O  O10  1  0.37673900  0.25836400  0.07616300  1
  O  O11  1  0.33628700  0.40996700  0.76965200  1
  O  O12  1  0.34119100  0.57068500  0.45651300  1
  O  O13  1  0.35244100  0.66861900  0.99496800  1
  O  O14  1  0.46113900  0.89062900  0.72736300  1
  O  O15  1  0.51812600  0.93706200  0.06352700  1
  O  O16  1  0.54540300  0.16091100  0.30119100  1
  O  O17  1  0.60658600  0.29233100  0.02338100  1
  O  O18  1  0.66325500  0.43051500  0.55689400  1
  O  O19  1  0.61999400  0.63004600  0.25908700  1
  O  O20  1  0.61666300  0.70552600  0.93370300  1
  O  O21  1  0.66006200  0.79813200  0.51239900  1
  O  O22  1  0.75192200  0.90361300  0.13181100  1
  O  O23  1  0.74807800  0.09638700  0.86818900  1
  O  O24  1  0.83993800  0.20186800  0.48760100  1
  O  O25  1  0.88333700  0.29447400  0.06629700  1
  O  O26  1  0.88000600  0.36995400  0.74091300  1
  O  O27  1  0.83674500  0.56948500  0.44310600  1
  O  O28  1  0.89341400  0.70766900  0.97661900  1
  O  O29  1  0.95459700  0.83908900  0.69880900  1
loop_
_geom_bond_atom_site_label_1
_geom_bond_atom_site_label_2
_geom_bond_distance
_geom_bond_site_symmetry_2
Ag0 O16 2.158694 1_555
Ag0 O14 2.177704 1_545
Ag0 O9 2.467231 1_555
Ag0 O21 2.552841 1_545
Ag1 O29 2.158694 1_555
Ag1 O1 2.177704 1_665
Ag1 O6 2.467231 1_655
Ag1 O24 2.552841 1_565
O0 V9 1.876210 1_555
O0 V11 1.937373 1_545
O0 V0 2.021085 1_656
O1 V0 1.662017 1_555
O2 V3 1.795794 1_554
O2 V0 1.863575 1_555
O3 V4 1.823459 1_555
O3 V1 1.823729 1_555
O4 V1 1.785732 1_555
O4 V2 1.844089 1_555
O5 V2 1.761152 1_556
O5 V11 1.845065 1_455
O6 V1 1.632118 1_555
O7 V2 1.623913 1_555
O8 V3 1.623913 1_555
O9 V4 1.632118 1_555
O10 V3 1.761152 1_554
O10 V6 1.845065 1_555
O11 V4 1.785732 1_555
O11 V3 1.844089 1_555
O12 V1 1.823459 1_555
O12 V4 1.823729 1_555
O13 V2 1.795794 1_556
O13 V5 1.863575 1_555
O14 V5 1.662017 1_555
O15 V8 1.876210 1_555
O15 V6 1.937373 1_565
O15 V5 2.021085 1_554
O16 V6 1.685109 1_555
O17 V6 1.624723 1_555
O18 V7 1.824871 1_555
O18 V10 1.831845 1_555
O19 V7 1.795086 1_555
O19 V8 1.822548 1_555
O20 V8 1.759736 1_556
O20 V5 1.926886 1_555
O21 V7 1.629104 1_555
O22 V8 1.620643 1_555
O23 V9 1.620643 1_555
O24 V10 1.629104 1_555
O25 V9 1.759736 1_554
O25 V0 1.926886 1_655
O26 V10 1.795086 1_555
O26 V9 1.822548 1_555
O27 V10 1.824871 1_555
O27 V7 1.831845 1_555
O28 V11 1.624723 1_555
O29 V11 1.685109 1_555
