# generated using pymatgen
data_Mg14MnCd
_symmetry_space_group_name_H-M   'P 1'
_cell_length_a   6.29047347
_cell_length_b   6.29047297
_cell_length_c   9.92964903
_cell_angle_alpha   90.00000000
_cell_angle_beta   90.00000000
_cell_angle_gamma   120.00000267
_symmetry_Int_Tables_number   1
_chemical_formula_structural   Mg14MnCd
_chemical_formula_sum   'Mg14 Mn1 Cd1'
_cell_volume   340.27587088
_cell_formula_units_Z   1
loop_
 _symmetry_equiv_pos_site_id
 _symmetry_equiv_pos_as_xyz
  1  'x, y, z'
loop_
 _atom_site_type_symbol
 _atom_site_label
 _atom_site_symmetry_multiplicity
 _atom_site_fract_x
 _atom_site_fract_y
 _atom_site_fract_z
 _atom_site_occupancy
  Mg  Mg0  1  0.16535831  0.83267866  0.12500000  1
  Mg  Mg1  1  0.16731728  0.83365814  0.62500000  1
  Mg  Mg2  1  0.66732134  0.33464169  0.12500000  1
  Mg  Mg3  1  0.66634186  0.33268272  0.62500000  1
  Mg  Mg4  1  0.66732134  0.83267866  0.12500000  1
  Mg  Mg5  1  0.66634186  0.83365814  0.62500000  1
  Mg  Mg6  1  0.32577546  0.17422454  0.36444495  1
  Mg  Mg7  1  0.32577546  0.17422454  0.88555505  1
  Mg  Mg8  1  0.32577546  0.65155192  0.36444495  1
  Mg  Mg9  1  0.32577546  0.65155192  0.88555505  1
  Mg  Mg10  1  0.84844808  0.17422454  0.36444495  1
  Mg  Mg11  1  0.84844808  0.17422454  0.88555505  1
  Mg  Mg12  1  0.83333300  0.66666700  0.37536608  1
  Mg  Mg13  1  0.83333300  0.66666700  0.87463392  1
  Mn  Mn0  1  0.16666700  0.33333300  0.12500000  1
  Cd  Cd0  1  0.16666700  0.33333300  0.62500000  1
loop_
_geom_bond_atom_site_label_1
_geom_bond_atom_site_label_2
_geom_bond_distance
_geom_bond_site_symmetry_2
Mg0 Mg8 3.019801 1_555
Mg0 Mg9 3.019801 1_554
Mg0 Mg7 3.019807 1_564
Mg0 Mg6 3.019807 1_565
Mg0 Mg13 3.074428 1_454
Mg0 Mg12 3.074428 1_455
Mg0 Mg2 3.132888 1_455
Mg0 Mg4 3.132888 1_455
Mg0 Mn0 3.145245 1_565
Mg0 Mn0 3.145245 1_555
Mg0 Mg2 3.157585 1_565
Mg0 Mg4 3.157585 1_555
Mg1 Mg12 3.074855 1_455
Mg1 Mg13 3.074855 1_455
Mg1 Mg3 3.139101 1_565
Mg1 Mg5 3.139101 1_555
Mg1 Mg3 3.151372 1_455
Mg1 Mg5 3.151373 1_455
Mg1 Mg8 3.184551 1_555
Mg1 Mg9 3.184551 1_555
Mg1 Mg6 3.184557 1_565
Mg1 Mg7 3.184557 1_565
Mg2 Mg7 3.019808 1_554
Mg2 Mg6 3.019808 1_555
Mg2 Mg4 3.132888 1_555
Mg2 Mn0 3.145245 1_555
Mg2 Mn0 3.145245 1_655
Mg2 Mg4 3.157585 1_545
Mg3 Mg5 3.139101 1_545
Mg3 Mg5 3.151372 1_555
Mg3 Mg6 3.184557 1_555
Mg3 Mg7 3.184557 1_555
Mg4 Mg9 3.019807 1_554
Mg4 Mg8 3.019807 1_555
Mg4 Mn0 3.145245 1_665
Mg4 Mn0 3.145245 1_555
Mg5 Mg8 3.184557 1_555
Mg5 Mg9 3.184557 1_555
Mg6 Mn0 2.942484 1_555
Mg6 Mg8 3.002615 1_555
Mg6 Mg8 3.287858 1_545
Mg7 Mn0 2.942484 1_556
Mg7 Mg9 3.002615 1_555
Mg7 Mg9 3.287858 1_545
Mg8 Mn0 2.942490 1_555
Mg9 Mn0 2.942490 1_556
Mg10 Mn0 2.942490 1_655
Mg10 Mg8 3.002615 1_655
Mg10 Mg6 3.002615 1_655
Mg10 Mg2 3.019801 1_555
Mg10 Mg4 3.019807 1_545
Mg10 Mg12 3.148182 1_545
Mg10 Mg12 3.148182 1_555
Mg10 Mg3 3.184551 1_555
Mg10 Mg5 3.184557 1_545
Mg10 Mg8 3.287858 1_545
Mg10 Mg6 3.287858 1_555
Mg11 Mn0 2.942490 1_656
Mg11 Mg9 3.002615 1_655
Mg11 Mg7 3.002615 1_655
Mg11 Mg2 3.019801 1_556
Mg11 Mg4 3.019807 1_546
Mg11 Mg13 3.148182 1_545
Mg11 Mg13 3.148182 1_555
Mg11 Mg3 3.184551 1_555
Mg11 Mg5 3.184557 1_545
Mg11 Mg9 3.287858 1_545
Mg11 Mg7 3.287858 1_555
Mg12 Mg4 3.074422 1_555
Mg12 Mg2 3.074428 1_555
Mg12 Mg5 3.074848 1_555
Mg12 Mg3 3.074855 1_555
Mg12 Mg6 3.148182 1_665
Mg12 Mg6 3.148182 1_555
Mg12 Mg8 3.148183 1_555
Mg12 Mg8 3.148183 1_655
Mg13 Mg4 3.074422 1_556
Mg13 Mg2 3.074428 1_556
Mg13 Mg5 3.074848 1_555
Mg13 Mg3 3.074855 1_555
Mg13 Mg7 3.148182 1_665
Mg13 Mg7 3.148182 1_555
Mg13 Mg9 3.148183 1_555
Mg13 Mg9 3.148183 1_655
Cd0 Mg7 3.114308 1_555
Cd0 Mg6 3.114308 1_555
Cd0 Mg9 3.114314 1_555
Cd0 Mg8 3.114314 1_555
Cd0 Mg11 3.114314 1_455
Cd0 Mg10 3.114314 1_455
Cd0 Mg5 3.145238 1_555
Cd0 Mg5 3.145238 1_445
Cd0 Mg1 3.145238 1_555
Cd0 Mg1 3.145238 1_545
Cd0 Mg3 3.145239 1_455
Cd0 Mg3 3.145239 1_555
