# generated using pymatgen
data_Pr2Co7
_symmetry_space_group_name_H-M   'P 1'
_cell_length_a   5.05035189
_cell_length_b   5.05035200
_cell_length_c   12.65243989
_cell_angle_alpha   78.48759088
_cell_angle_beta   78.48759097
_cell_angle_gamma   59.99999926
_symmetry_Int_Tables_number   1
_chemical_formula_structural   Pr2Co7
_chemical_formula_sum   'Pr4 Co14'
_cell_volume   271.95562321
_cell_formula_units_Z   2
loop_
 _symmetry_equiv_pos_site_id
 _symmetry_equiv_pos_as_xyz
  1  'x, y, z'
loop_
 _atom_site_type_symbol
 _atom_site_label
 _atom_site_symmetry_multiplicity
 _atom_site_fract_x
 _atom_site_fract_y
 _atom_site_fract_z
 _atom_site_occupancy
  Pr  Pr0  1  0.94881000  0.94881000  0.15357100  1
  Pr  Pr1  1  0.05119000  0.05119000  0.84642900  1
  Pr  Pr2  1  0.85180500  0.85180500  0.44458500  1
  Pr  Pr3  1  0.14819500  0.14819500  0.55541500  1
  Co  Co0  1  0.50000000  0.50000000  0.50000000  1
  Co  Co1  1  0.72104200  0.72104200  0.83687300  1
  Co  Co2  1  0.27895800  0.27895800  0.16312700  1
  Co  Co3  1  0.61314300  0.61314300  0.16057100  1
  Co  Co4  1  0.38685700  0.38685700  0.83942900  1
  Co  Co5  1  0.00000000  0.50000000  0.00000000  1
  Co  Co6  1  0.50000000  0.00000000  0.00000000  1
  Co  Co7  1  0.50000000  0.50000000  0.00000000  1
  Co  Co8  1  0.39535600  0.39535600  0.32148000  1
  Co  Co9  1  0.88780900  0.39535600  0.32148000  1
  Co  Co10  1  0.39535600  0.88780900  0.32148000  1
  Co  Co11  1  0.60464400  0.60464400  0.67852000  1
  Co  Co12  1  0.11219100  0.60464400  0.67852000  1
  Co  Co13  1  0.60464400  0.11219100  0.67852000  1
loop_
_geom_bond_atom_site_label_1
_geom_bond_atom_site_label_2
_geom_bond_distance
_geom_bond_site_symmetry_2
Co0 Co11 2.625385 1_555
Co0 Co8 2.625385 1_555
Co0 Co12 2.625388 1_555
Co0 Co9 2.625388 1_555
Co0 Co10 2.625388 1_555
Co0 Co13 2.625388 1_555
Co0 Pr2 2.994578 1_455
Co0 Pr3 2.994578 1_655
Co0 Pr2 2.994578 1_545
Co0 Pr3 2.994578 1_565
Co0 Pr2 2.994578 1_555
Co0 Pr3 2.994578 1_555
Co1 Co12 2.447689 1_655
Co1 Co13 2.447689 1_565
Co1 Co11 2.447689 1_555
Co1 Co7 2.481766 1_556
Co1 Co5 2.481769 1_656
Co1 Co6 2.481769 1_566
Co1 Pr1 2.918195 1_565
Co1 Pr1 2.918195 1_655
Co1 Pr1 2.918195 1_665
Co2 Co9 2.447689 1_455
Co2 Co8 2.447689 1_555
Co2 Co7 2.481766 1_555
Co2 Co5 2.481769 1_555
Co2 Co6 2.481769 1_555
Co2 Pr0 2.918195 1_545
Co2 Pr0 2.918195 1_445
Co2 Pr0 2.918195 1_455
Co3 Co8 2.446740 1_555
Co3 Co9 2.446743 1_555
Co3 Co5 2.456370 1_655
Co3 Co7 2.456370 1_555
Co3 Co6 2.456370 1_565
Co3 Pr0 2.917094 1_455
Co3 Pr0 2.917094 1_545
Co3 Pr0 2.917098 1_555
Co4 Co5 2.456370 1_556
Co4 Co7 2.456370 1_556
Co4 Co6 2.456370 1_556
Co4 Pr1 2.917094 1_655
Co4 Pr1 2.917094 1_565
Co4 Pr1 2.917098 1_555
Co5 Co6 2.525176 1_465
Co5 Co6 2.525176 1_555
Co5 Co7 2.525176 1_455
Co5 Co7 2.525176 1_555
Co5 Pr0 3.154588 1_445
Co5 Pr1 3.154588 1_564
Co5 Pr1 3.154592 1_554
Co5 Pr0 3.154592 1_455
Co6 Co7 2.525176 1_545
Co6 Co7 2.525176 1_555
Co6 Pr0 3.154588 1_445
Co6 Pr1 3.154588 1_654
Co6 Pr1 3.154592 1_554
Co6 Pr0 3.154592 1_545
Co7 Pr1 3.154590 1_564
Co7 Pr0 3.154590 1_545
Co7 Pr0 3.154590 1_455
Co7 Pr1 3.154590 1_654
Co8 Co9 2.487061 1_555
Co8 Co9 2.563291 1_455
Co8 Pr2 2.945200 1_455
Co8 Pr2 2.945200 1_545
Co8 Pr3 3.238146 1_555
Co8 Pr0 3.263529 1_455
Co8 Pr0 3.263529 1_545
Co9 Pr2 2.945198 1_555
Co9 Pr2 2.945202 1_545
Co9 Pr3 3.238144 1_655
Co9 Pr0 3.263529 1_545
Co9 Pr0 3.263529 1_555
Co10 Co3 2.446743 1_555
Co10 Co2 2.447689 1_565
Co10 Co9 2.487061 1_555
Co10 Co8 2.487061 1_555
Co10 Co9 2.563291 1_465
Co10 Co8 2.563291 1_565
Co10 Pr2 2.945198 1_555
Co10 Pr2 2.945202 1_455
Co10 Pr3 3.238144 1_565
Co10 Pr0 3.263529 1_455
Co10 Pr0 3.263529 1_555
Co11 Co4 2.446740 1_555
Co11 Co12 2.487061 1_555
Co11 Co13 2.487061 1_555
Co11 Co12 2.563291 1_655
Co11 Co13 2.563291 1_565
Co11 Pr3 2.945200 1_655
Co11 Pr3 2.945200 1_565
Co11 Pr2 3.238146 1_555
Co11 Pr1 3.263529 1_655
Co11 Pr1 3.263529 1_565
Co12 Co4 2.446743 1_555
Co12 Co13 2.487061 1_555
Co12 Co13 2.563291 1_465
Co12 Pr3 2.945198 1_555
Co12 Pr3 2.945202 1_565
Co12 Pr2 3.238144 1_455
Co12 Pr1 3.263529 1_555
Co12 Pr1 3.263529 1_565
Co13 Co4 2.446743 1_555
Co13 Pr3 2.945198 1_555
Co13 Pr3 2.945202 1_655
Co13 Pr2 3.238144 1_545
Co13 Pr1 3.263529 1_655
Co13 Pr1 3.263529 1_555
