# generated using pymatgen
data_LaLuS3
_symmetry_space_group_name_H-M   'P 1'
_cell_length_a   6.70515075
_cell_length_b   7.33021724
_cell_length_c   9.86327545
_cell_angle_alpha   90.00000000
_cell_angle_beta   90.00000000
_cell_angle_gamma   90.00000000
_symmetry_Int_Tables_number   1
_chemical_formula_structural   LaLuS3
_chemical_formula_sum   'La4 Lu4 S12'
_cell_volume   484.78207568
_cell_formula_units_Z   4
loop_
 _symmetry_equiv_pos_site_id
 _symmetry_equiv_pos_as_xyz
  1  'x, y, z'
loop_
 _atom_site_type_symbol
 _atom_site_label
 _atom_site_symmetry_multiplicity
 _atom_site_fract_x
 _atom_site_fract_y
 _atom_site_fract_z
 _atom_site_occupancy
  La  La0  1  0.53456267  0.40758403  0.75000000  1
  La  La1  1  0.46543733  0.59241597  0.25000000  1
  La  La2  1  0.03456267  0.09241597  0.25000000  1
  La  La3  1  0.96543733  0.90758403  0.75000000  1
  Lu  Lu0  1  0.00000000  0.50000000  0.00000000  1
  Lu  Lu1  1  0.00000000  0.50000000  0.50000000  1
  Lu  Lu2  1  0.50000000  -0.00000000  0.50000000  1
  Lu  Lu3  1  0.50000000  -0.00000000  0.00000000  1
  S  S0  1  0.81977752  0.18803704  0.56526154  1
  S  S1  1  0.18022248  0.81196296  0.06526154  1
  S  S2  1  0.31977752  0.31196296  0.06526154  1
  S  S3  1  0.68022248  0.68803704  0.56526154  1
  S  S4  1  0.81977752  0.18803704  0.93473846  1
  S  S5  1  0.18022248  0.81196296  0.43473846  1
  S  S6  1  0.31977752  0.31196296  0.43473846  1
  S  S7  1  0.68022248  0.68803704  0.93473846  1
  S  S8  1  0.86870483  0.45594737  0.25000000  1
  S  S9  1  0.13129517  0.54405263  0.75000000  1
  S  S10  1  0.36870483  0.04405263  0.75000000  1
  S  S11  1  0.63129517  0.95594737  0.25000000  1
loop_
_geom_bond_atom_site_label_1
_geom_bond_atom_site_label_2
_geom_bond_distance
_geom_bond_site_symmetry_2
La0 S9 2.883078 1_555
La0 S10 2.887514 1_555
La0 S3 2.915522 1_555
La0 S7 2.915522 1_555
La0 S0 3.093119 1_555
La0 S4 3.093119 1_555
La0 S6 3.497776 1_555
La0 S2 3.497776 1_556
La1 S8 2.883078 1_555
La1 S11 2.887514 1_555
La1 S2 2.915522 1_555
La1 S6 2.915522 1_555
La1 S5 3.093119 1_555
La1 S1 3.093119 1_555
La1 S7 3.497776 1_554
La1 S3 3.497776 1_555
La2 S11 2.883078 1_445
La2 S8 2.887514 1_455
La2 S1 2.915522 1_545
La2 S5 2.915522 1_545
La2 S6 3.093119 1_555
La2 S2 3.093119 1_555
La2 S4 3.497776 1_454
La2 S0 3.497776 1_455
La3 S10 2.883078 1_665
La3 S9 2.887514 1_655
La3 S0 2.915522 1_565
La3 S4 2.915522 1_565
La3 S3 3.093119 1_555
La3 S7 3.093119 1_555
La3 S1 3.497776 1_656
La3 S5 3.497776 1_655
Lu0 S2 2.628993 1_555
Lu0 S7 2.628993 1_454
Lu0 S9 2.638098 1_554
Lu0 S8 2.638098 1_455
Lu0 S4 2.665309 1_454
Lu0 S1 2.665309 1_555
Lu1 S6 2.628993 1_555
Lu1 S3 2.628993 1_455
Lu1 S9 2.638098 1_555
Lu1 S8 2.638098 1_455
Lu1 S0 2.665309 1_455
Lu1 S5 2.665309 1_555
Lu2 S5 2.628993 1_545
Lu2 S0 2.628993 1_555
Lu2 S11 2.638098 1_545
Lu2 S10 2.638098 1_555
Lu2 S6 2.665309 1_555
Lu2 S3 2.665309 1_545
Lu3 S4 2.628993 1_554
Lu3 S1 2.628993 1_545
Lu3 S11 2.638098 1_545
Lu3 S10 2.638098 1_554
Lu3 S2 2.665309 1_555
Lu3 S7 2.665309 1_544
