# generated using pymatgen
data_GaSiNi6
_symmetry_space_group_name_H-M   'P 1'
_cell_length_a   3.50307526
_cell_length_b   3.50308027
_cell_length_c   6.99187030
_cell_angle_alpha   90.00000000
_cell_angle_beta   90.00000000
_cell_angle_gamma   90.00000000
_symmetry_Int_Tables_number   1
_chemical_formula_structural   GaSiNi6
_chemical_formula_sum   'Ga1 Si1 Ni6'
_cell_volume   85.80111274
_cell_formula_units_Z   1
loop_
 _symmetry_equiv_pos_site_id
 _symmetry_equiv_pos_as_xyz
  1  'x, y, z'
loop_
 _atom_site_type_symbol
 _atom_site_label
 _atom_site_symmetry_multiplicity
 _atom_site_fract_x
 _atom_site_fract_y
 _atom_site_fract_z
 _atom_site_occupancy
  Ga  Ga0  1  -0.00000000  0.00000000  0.00000000  1
  Si  Si0  1  -0.00000000  0.00000000  0.50000000  1
  Ni  Ni0  1  0.50000000  0.50000000  0.00000000  1
  Ni  Ni1  1  0.50000000  0.50000000  0.50000000  1
  Ni  Ni2  1  0.50000000  0.00000000  0.25841975  1
  Ni  Ni3  1  0.50000000  -0.00000000  0.74158025  1
  Ni  Ni4  1  -0.00000000  0.50000000  0.25842075  1
  Ni  Ni5  1  0.00000000  0.50000000  0.74157925  1
loop_
_geom_bond_atom_site_label_1
_geom_bond_atom_site_label_2
_geom_bond_distance
_geom_bond_site_symmetry_2
Ga0 Ni0 2.477050 1_455
Ga0 Ni0 2.477050 1_555
Ga0 Ni0 2.477050 1_445
Ga0 Ni0 2.477050 1_545
Ga0 Ni3 2.516455 1_454
Ga0 Ni2 2.516455 1_455
Ga0 Ni2 2.516455 1_555
Ga0 Ni3 2.516455 1_554
Ga0 Ni4 2.516462 1_555
Ga0 Ni5 2.516462 1_544
Ga0 Ni5 2.516462 1_554
Ga0 Ni4 2.516462 1_545
Ni0 Ni3 2.516457 1_564
Ni0 Ni3 2.516457 1_554
Ni0 Ni2 2.516457 1_555
Ni0 Ni2 2.516457 1_565
Ni0 Ni5 2.516460 1_554
Ni0 Ni4 2.516460 1_555
Ni0 Ni4 2.516460 1_655
Ni0 Ni5 2.516460 1_654
Ni1 Ni5 2.433292 1_655
Ni1 Ni4 2.433292 1_555
Ni1 Ni5 2.433292 1_555
Ni1 Ni4 2.433292 1_655
Ni1 Ni3 2.433299 1_555
Ni1 Ni3 2.433299 1_565
Ni1 Ni2 2.433299 1_555
Ni1 Ni2 2.433299 1_565
Ni1 Si0 2.477050 1_565
Ni1 Si0 2.477050 1_665
Ni1 Si0 2.477050 1_555
Ni1 Si0 2.477050 1_655
Ni2 Si0 2.433297 1_655
Ni2 Si0 2.433297 1_555
Ni2 Ni4 2.477050 1_545
Ni2 Ni4 2.477050 1_655
Ni2 Ni4 2.477050 1_645
Ni2 Ni4 2.477050 1_555
Ni3 Si0 2.433297 1_655
Ni3 Si0 2.433297 1_555
Ni3 Ni5 2.477050 1_645
Ni3 Ni5 2.477050 1_655
Ni3 Ni5 2.477050 1_555
Ni3 Ni5 2.477050 1_545
Ni4 Si0 2.433294 1_565
Ni4 Si0 2.433294 1_555
Ni5 Si0 2.433294 1_565
Ni5 Si0 2.433294 1_555
