# generated using pymatgen
data_TaTiSbO6
_symmetry_space_group_name_H-M   'P 1'
_cell_length_a   4.89873100
_cell_length_b   5.56348994
_cell_length_c   8.69563782
_cell_angle_alpha   91.30547352
_cell_angle_beta   106.29305931
_cell_angle_gamma   90.37934920
_symmetry_Int_Tables_number   1
_chemical_formula_structural   TaTiSbO6
_chemical_formula_sum   'Ta2 Ti2 Sb2 O12'
_cell_volume   227.39357362
_cell_formula_units_Z   2
loop_
 _symmetry_equiv_pos_site_id
 _symmetry_equiv_pos_as_xyz
  1  'x, y, z'
loop_
 _atom_site_type_symbol
 _atom_site_label
 _atom_site_symmetry_multiplicity
 _atom_site_fract_x
 _atom_site_fract_y
 _atom_site_fract_z
 _atom_site_occupancy
  Ta  Ta0  1  0.58535900  0.82194900  0.65100300  1
  Ta  Ta1  1  0.41464100  0.17805100  0.34899700  1
  Ti  Ti0  1  0.93795100  0.67517900  0.34668100  1
  Ti  Ti1  1  0.06204900  0.32482100  0.65331900  1
  Sb  Sb0  1  0.30065600  0.74258800  0.99986700  1
  Sb  Sb1  1  0.69934400  0.25741200  0.00013300  1
  O  O0  1  0.09217300  0.92953200  0.27745700  1
  O  O1  1  0.82094400  0.56350500  0.72546900  1
  O  O2  1  0.90782700  0.07046800  0.72254300  1
  O  O3  1  0.17905600  0.43649500  0.27453100  1
  O  O4  1  0.65563800  0.84698800  0.43682300  1
  O  O5  1  0.21969400  0.65525400  0.56086800  1
  O  O6  1  0.34436200  0.15301200  0.56317700  1
  O  O7  1  0.78030600  0.34474600  0.43913200  1
  O  O8  1  0.65460400  0.58395100  0.13699700  1
  O  O9  1  0.51828900  0.91348200  0.86386700  1
  O  O10  1  0.34539600  0.41604900  0.86300300  1
  O  O11  1  0.48171100  0.08651800  0.13613300  1
loop_
_geom_bond_atom_site_label_1
_geom_bond_atom_site_label_2
_geom_bond_distance
_geom_bond_site_symmetry_2
O0 Ti0 1.793158 1_455
O0 Ta1 2.043174 1_565
O1 Ta0 1.861094 1_555
O1 Ti1 1.987609 1_655
O2 Ti1 1.793158 1_655
O2 Ta0 2.043174 1_545
O3 Ta1 1.861094 1_555
O3 Ti0 1.987609 1_455
O4 Ta0 1.994379 1_555
O4 Ti0 2.008062 1_555
O4 Ta1 2.226314 1_565
O5 Ta0 1.959652 1_555
O5 Ti0 1.988756 1_455
O5 Ti1 2.240343 1_555
O6 Ta1 1.994379 1_555
O6 Ti1 2.008062 1_555
O6 Ta0 2.226314 1_545
O7 Ta1 1.959652 1_555
O7 Ti1 1.988756 1_655
O7 Ti0 2.240343 1_555
O8 Ti0 2.009290 1_555
O8 Sb0 2.028630 1_554
O8 Sb1 2.194976 1_555
O9 Ta0 2.023348 1_555
O9 Sb0 2.045579 1_555
O9 Sb1 2.266389 1_566
O10 Ti1 2.009290 1_555
O10 Sb1 2.028630 1_556
O10 Sb0 2.194976 1_555
O11 Ta1 2.023348 1_555
O11 Sb1 2.045579 1_555
O11 Sb0 2.266389 1_544
