# generated using pymatgen
data_CaZrSi3H4O11
_symmetry_space_group_name_H-M   'P 1'
_cell_length_a   7.41641400
_cell_length_b   10.31299400
_cell_length_c   12.91969800
_cell_angle_alpha   90.00000000
_cell_angle_beta   90.00000000
_cell_angle_gamma   90.00000000
_symmetry_Int_Tables_number   1
_chemical_formula_structural   CaZrSi3H4O11
_chemical_formula_sum   'Ca4 Zr4 Si12 H16 O44'
_cell_volume   988.16869684
_cell_formula_units_Z   4
loop_
 _symmetry_equiv_pos_site_id
 _symmetry_equiv_pos_as_xyz
  1  'x, y, z'
loop_
 _atom_site_type_symbol
 _atom_site_label
 _atom_site_symmetry_multiplicity
 _atom_site_fract_x
 _atom_site_fract_y
 _atom_site_fract_z
 _atom_site_occupancy
  Ca  Ca0  1  0.00000000  0.50000000  0.00000000  1
  Ca  Ca1  1  0.00000000  0.50000000  0.50000000  1
  Ca  Ca2  1  0.50000000  0.00000000  0.00000000  1
  Ca  Ca3  1  0.50000000  0.00000000  0.50000000  1
  Zr  Zr0  1  0.75751500  0.50000000  0.75000000  1
  Zr  Zr1  1  0.74248500  0.00000000  0.75000000  1
  Zr  Zr2  1  0.24248500  0.50000000  0.25000000  1
  Zr  Zr3  1  0.25751500  0.00000000  0.25000000  1
  Si  Si0  1  0.04625200  0.24764800  0.84807100  1
  Si  Si1  1  0.04625200  0.75235200  0.65192900  1
  Si  Si2  1  0.45374800  0.25235200  0.84807100  1
  Si  Si3  1  0.45374800  0.74764800  0.65192900  1
  Si  Si4  1  0.95374800  0.75235200  0.15192900  1
  Si  Si5  1  0.95374800  0.24764800  0.34807100  1
  Si  Si6  1  0.54625200  0.74764800  0.15192900  1
  Si  Si7  1  0.54625200  0.25235200  0.34807100  1
  Si  Si8  1  0.25000000  0.25000000  0.05445100  1
  Si  Si9  1  0.25000000  0.75000000  0.44554900  1
  Si  Si10  1  0.75000000  0.75000000  0.94554900  1
  Si  Si11  1  0.75000000  0.25000000  0.55445100  1
  H  H0  1  0.62983900  0.37802800  0.04234100  1
  H  H1  1  0.62983900  0.62197200  0.45765900  1
  H  H2  1  0.87016100  0.12197200  0.04234100  1
  H  H3  1  0.87016100  0.87802800  0.45765900  1
  H  H4  1  0.37016100  0.62197200  0.95765900  1
  H  H5  1  0.37016100  0.37802800  0.54234100  1
  H  H6  1  0.12984000  0.87802800  0.95765900  1
  H  H7  1  0.12984000  0.12197200  0.54234100  1
  H  H8  1  0.64186700  0.48223100  0.12937800  1
  H  H9  1  0.64186700  0.51776900  0.37062200  1
  H  H10  1  0.85813300  0.01776900  0.12937800  1
  H  H11  1  0.85813300  0.98223100  0.37062200  1
  H  H12  1  0.35813300  0.51776900  0.87062200  1
  H  H13  1  0.35813300  0.48223100  0.62937800  1
  H  H14  1  0.14186700  0.98223100  0.87062200  1
  H  H15  1  0.14186700  0.01776900  0.62937800  1
  O  O0  1  0.94236600  0.12046700  0.80755200  1
  O  O1  1  0.94236600  0.87953300  0.69244800  1
  O  O2  1  0.55763400  0.37953300  0.80755200  1
  O  O3  1  0.55763400  0.62046700  0.69244800  1
  O  O4  1  0.05763400  0.87953300  0.19244800  1
  O  O5  1  0.05763400  0.12046700  0.30755200  1
  O  O6  1  0.44236600  0.62046700  0.19244800  1
  O  O7  1  0.44236600  0.37953300  0.30755200  1
  O  O8  1  0.94941100  0.38768400  0.83454300  1
  O  O9  1  0.94941100  0.61231600  0.66545700  1
  O  O10  1  0.55058900  0.11231600  0.83454300  1
  O  O11  1  0.55058900  0.88768400  0.66545700  1
  O  O12  1  0.05058900  0.61231600  0.16545700  1
  O  O13  1  0.05058900  0.38768400  0.33454300  1
  O  O14  1  0.44941100  0.88768400  0.16545700  1
  O  O15  1  0.44941100  0.11231600  0.33454300  1
  O  O16  1  0.21135600  0.38185400  0.11774800  1
  O  O17  1  0.21135600  0.61814600  0.38225200  1
  O  O18  1  0.28864400  0.11814600  0.11774800  1
  O  O19  1  0.28864400  0.88185400  0.38225200  1
  O  O20  1  0.78864400  0.61814600  0.88225200  1
  O  O21  1  0.78864400  0.38185400  0.61774800  1
  O  O22  1  0.71135600  0.88185400  0.88225200  1
  O  O23  1  0.71135600  0.11814600  0.61774800  1
  O  O24  1  0.06981500  0.23627100  0.97783000  1
  O  O25  1  0.06981500  0.76372900  0.52217000  1
  O  O26  1  0.43018500  0.26372900  0.97783000  1
  O  O27  1  0.43018500  0.73627100  0.52217000  1
  O  O28  1  0.93018500  0.76372900  0.02217000  1
  O  O29  1  0.93018500  0.23627100  0.47783000  1
  O  O30  1  0.56981500  0.73627100  0.02217000  1
  O  O31  1  0.56981500  0.26372900  0.47783000  1
  O  O32  1  0.71447000  0.43693900  0.07732100  1
  O  O33  1  0.71447000  0.56306100  0.42267900  1
  O  O34  1  0.78553000  0.06306100  0.07732100  1
  O  O35  1  0.78553000  0.93693900  0.42267900  1
  O  O36  1  0.28553000  0.56306100  0.92267900  1
  O  O37  1  0.28553000  0.43693900  0.57732100  1
  O  O38  1  0.21447000  0.93693900  0.92267900  1
  O  O39  1  0.21447000  0.06306100  0.57732100  1
  O  O40  1  0.25000000  0.25000000  0.79900800  1
  O  O41  1  0.25000000  0.75000000  0.70099200  1
  O  O42  1  0.75000000  0.75000000  0.20099200  1
  O  O43  1  0.75000000  0.25000000  0.29900800  1
loop_
_geom_bond_atom_site_label_1
_geom_bond_atom_site_label_2
_geom_bond_distance
_geom_bond_site_symmetry_2
Ca0 O32 2.430051 1_455
Ca0 O36 2.430051 1_554
Ca0 O8 2.460086 1_454
Ca0 O12 2.460086 1_555
Ca0 O16 2.501184 1_555
Ca0 O20 2.501184 1_454
Ca0 O24 2.783458 1_554
Ca0 O28 2.783458 1_455
Ca1 O37 2.430051 1_555
Ca1 O33 2.430051 1_455
Ca1 O9 2.460086 1_455
Ca1 O13 2.460086 1_555
Ca1 O21 2.501184 1_455
Ca1 O17 2.501184 1_555
Ca1 O29 2.783458 1_455
Ca1 O25 2.783458 1_555
Ca2 O38 2.430051 1_544
Ca2 O34 2.430051 1_555
Ca2 O10 2.460086 1_554
Ca2 O14 2.460086 1_545
Ca2 O22 2.501184 1_544
Ca2 O18 2.501184 1_555
Ca2 O30 2.783458 1_545
Ca2 O26 2.783458 1_554
Ca3 O39 2.430051 1_555
Ca3 O35 2.430051 1_545
Ca3 O11 2.460086 1_545
Ca3 O15 2.460086 1_555
Ca3 O23 2.501184 1_555
Ca3 O19 2.501184 1_545
Ca3 O31 2.783458 1_555
Ca3 O27 2.783458 1_545
H0 O32 0.983520 1_555
H1 O33 0.983520 1_555
H2 O34 0.983520 1_555
H3 O35 0.983520 1_555
H4 O36 0.983520 1_555
H5 O37 0.983520 1_555
H6 O38 0.983516 1_555
H7 O39 0.983516 1_555
H8 O32 0.980025 1_555
H9 O33 0.980025 1_555
H10 O34 0.980025 1_555
H11 O35 0.980025 1_555
H12 O36 0.980025 1_555
H13 O37 0.980025 1_555
H14 O38 0.980025 1_555
H15 O39 0.980025 1_555
O0 Si0 1.608725 1_655
O0 Zr1 2.072168 1_555
O1 Si1 1.608725 1_655
O1 Zr1 2.072168 1_565
O2 Si2 1.608725 1_555
O2 Zr0 2.072168 1_555
O3 Si3 1.608725 1_555
O3 Zr0 2.072168 1_555
O4 Si4 1.608725 1_455
O4 Zr3 2.072168 1_565
O5 Si5 1.608725 1_455
O5 Zr3 2.072168 1_555
O6 Si6 1.608725 1_555
O6 Zr2 2.072168 1_555
O7 Si7 1.608725 1_555
O7 Zr2 2.072168 1_555
O8 Si0 1.622363 1_655
O8 Zr0 2.135460 1_555
O9 Si1 1.622363 1_655
O9 Zr0 2.135460 1_555
O10 Si2 1.622363 1_555
O10 Zr1 2.135460 1_555
O11 Si3 1.622363 1_555
O11 Zr1 2.135460 1_565
O12 Si4 1.622363 1_455
O12 Zr2 2.135460 1_555
O13 Si5 1.622363 1_455
O13 Zr2 2.135460 1_555
O14 Si6 1.622363 1_555
O14 Zr3 2.135460 1_565
O15 Si7 1.622363 1_555
O15 Zr3 2.135460 1_555
O16 Si8 1.612446 1_555
O16 Zr2 2.111255 1_555
O17 Si9 1.612446 1_555
O17 Zr2 2.111255 1_555
O18 Si8 1.612446 1_555
O18 Zr3 2.111255 1_555
O19 Si9 1.612446 1_555
O19 Zr3 2.111255 1_565
O20 Si10 1.612446 1_555
O20 Zr0 2.111255 1_555
O21 Si11 1.612446 1_555
O21 Zr0 2.111255 1_555
O22 Si10 1.612446 1_555
O22 Zr1 2.111255 1_565
O23 Si11 1.612446 1_555
O23 Zr1 2.111255 1_555
O24 Si8 1.669059 1_556
O24 Si0 1.689609 1_555
O25 Si9 1.669059 1_555
O25 Si1 1.689609 1_555
O26 Si8 1.669059 1_556
O26 Si2 1.689609 1_555
O27 Si9 1.669059 1_555
O27 Si3 1.689609 1_555
O28 Si10 1.669059 1_554
O28 Si4 1.689609 1_555
O29 Si11 1.669059 1_555
O29 Si5 1.689609 1_555
O30 Si10 1.669059 1_554
O30 Si6 1.689609 1_555
O31 Si11 1.669059 1_555
O31 Si7 1.689609 1_555
O40 Si0 1.638827 1_555
O40 Si2 1.638827 1_555
O41 Si3 1.638827 1_555
O41 Si1 1.638827 1_555
O42 Si6 1.638827 1_555
O42 Si4 1.638827 1_555
O43 Si5 1.638827 1_555
O43 Si7 1.638827 1_555
