# generated using pymatgen
data_Nd2Ni12P5
_symmetry_space_group_name_H-M   'P 1'
_cell_length_a   3.65022368
_cell_length_b   10.77311393
_cell_length_c   13.02822797
_cell_angle_alpha   72.09380992
_cell_angle_beta   90.00000000
_cell_angle_gamma   90.00000000
_symmetry_Int_Tables_number   1
_chemical_formula_structural   Nd2Ni12P5
_chemical_formula_sum   'Nd4 Ni24 P10'
_cell_volume   487.50918457
_cell_formula_units_Z   2
loop_
 _symmetry_equiv_pos_site_id
 _symmetry_equiv_pos_as_xyz
  1  'x, y, z'
loop_
 _atom_site_type_symbol
 _atom_site_label
 _atom_site_symmetry_multiplicity
 _atom_site_fract_x
 _atom_site_fract_y
 _atom_site_fract_z
 _atom_site_occupancy
  Nd  Nd0  1  0.25000000  0.27944557  0.68302608  1
  Nd  Nd1  1  0.75000000  0.72055443  0.31697392  1
  Nd  Nd2  1  0.25000000  0.24648337  0.18801879  1
  Nd  Nd3  1  0.75000000  0.75351663  0.81198121  1
  Ni  Ni0  1  0.25000000  0.84305981  0.13560759  1
  Ni  Ni1  1  0.75000000  0.15694019  0.86439241  1
  Ni  Ni2  1  0.25000000  0.28667382  0.43861593  1
  Ni  Ni3  1  0.75000000  0.71332618  0.56138407  1
  Ni  Ni4  1  0.25000000  0.07136998  0.01420719  1
  Ni  Ni5  1  0.75000000  0.92863002  0.98579281  1
  Ni  Ni6  1  0.25000000  0.06454872  0.44823951  1
  Ni  Ni7  1  0.75000000  0.93545128  0.55176049  1
  Ni  Ni8  1  0.25000000  0.59584556  0.69556636  1
  Ni  Ni9  1  0.75000000  0.40415444  0.30443364  1
  Ni  Ni10  1  0.25000000  0.58224332  0.00852387  1
  Ni  Ni11  1  0.75000000  0.41775668  0.99147613  1
  Ni  Ni12  1  0.25000000  0.57820187  0.51006252  1
  Ni  Ni13  1  0.75000000  0.42179813  0.48993748  1
  Ni  Ni14  1  0.25000000  0.29818514  0.91782318  1
  Ni  Ni15  1  0.75000000  0.70181486  0.08217682  1
  Ni  Ni16  1  0.25000000  0.99361307  0.65921890  1
  Ni  Ni17  1  0.75000000  0.00638693  0.34078110  1
  Ni  Ni18  1  0.25000000  0.84246852  0.43829731  1
  Ni  Ni19  1  0.75000000  0.15753148  0.56170269  1
  Ni  Ni20  1  0.25000000  0.98902735  0.84966997  1
  Ni  Ni21  1  0.75000000  0.01097265  0.15033003  1
  Ni  Ni22  1  0.25000000  0.56153729  0.20374435  1
  Ni  Ni23  1  0.75000000  0.43846271  0.79625565  1
  P  P0  1  0.25000000  0.50786979  0.87105197  1
  P  P1  1  0.75000000  0.49213021  0.12894803  1
  P  P2  1  0.25000000  0.80009673  0.98373035  1
  P  P3  1  0.75000000  0.19990327  0.01626965  1
  P  P4  1  0.25000000  0.49299364  0.37866908  1
  P  P5  1  0.75000000  0.50700636  0.62133092  1
  P  P6  1  0.25000000  0.81164213  0.61181347  1
  P  P7  1  0.75000000  0.18835787  0.38818653  1
  P  P8  1  0.25000000  0.95035632  0.25955367  1
  P  P9  1  0.75000000  0.04964368  0.74044633  1
loop_
_geom_bond_atom_site_label_1
_geom_bond_atom_site_label_2
_geom_bond_distance
_geom_bond_site_symmetry_2
Nd0 Ni1 2.956084 1_455
Nd0 Ni1 2.956084 1_555
Nd0 P5 2.962337 1_455
Nd0 P5 2.962337 1_555
Nd0 Ni19 2.971698 1_555
Nd0 Ni19 2.971698 1_455
Nd0 P9 2.980071 1_455
Nd0 P9 2.980071 1_555
Nd0 Ni13 3.104654 1_455
Nd0 Ni13 3.104654 1_555
Nd0 Ni14 3.126968 1_555
Nd0 Ni2 3.161158 1_555
Nd0 Ni23 3.161633 1_555
Nd0 Ni23 3.161633 1_455
Nd0 Ni16 3.188359 1_545
Nd0 Ni20 3.213323 1_545
Nd0 Ni12 3.313158 1_555
Nd0 Ni8 3.462337 1_555
Nd1 Ni0 2.956084 1_555
Nd1 Ni0 2.956084 1_655
Nd1 P4 2.962337 1_655
Nd1 P4 2.962337 1_555
Nd1 Ni18 2.971698 1_655
Nd1 Ni18 2.971698 1_555
Nd1 P8 2.980071 1_655
Nd1 P8 2.980071 1_555
Nd1 Ni12 3.104654 1_655
Nd1 Ni12 3.104654 1_555
Nd1 Ni15 3.126968 1_555
Nd1 Ni3 3.161158 1_555
Nd1 Ni22 3.161633 1_655
Nd1 Ni22 3.161633 1_555
Nd1 Ni17 3.188359 1_565
Nd1 Ni21 3.213323 1_565
Nd1 Ni13 3.313158 1_555
Nd1 Ni9 3.462337 1_555
Nd2 P8 3.036074 1_545
Nd2 P3 3.046327 1_555
Nd2 P3 3.046327 1_455
Nd2 P7 3.085412 1_455
Nd2 P7 3.085412 1_555
Nd2 P1 3.110350 1_455
Nd2 P1 3.110350 1_555
Nd3 P9 3.036074 1_565
Nd3 P2 3.046327 1_655
Nd3 P2 3.046327 1_555
Nd3 P6 3.085412 1_655
Nd3 P6 3.085412 1_555
Nd3 P0 3.110350 1_555
Nd3 P0 3.110350 1_655
Ni0 P2 2.166243 1_554
Ni0 P8 2.256437 1_555
Ni1 P3 2.166243 1_556
Ni1 P9 2.256437 1_555
Ni2 P4 2.117293 1_555
Ni2 P7 2.304873 1_455
Ni2 P7 2.304873 1_555
Ni3 P5 2.117293 1_555
Ni3 P6 2.304873 1_555
Ni3 P6 2.304873 1_655
Ni4 P3 2.296092 1_555
Ni4 P3 2.296092 1_455
Ni5 P2 2.296092 1_655
Ni5 P2 2.296092 1_555
Ni6 P7 2.253998 1_555
Ni6 P7 2.253998 1_455
Ni7 P6 2.253998 1_655
Ni7 P6 2.253998 1_555
Ni8 P0 2.189257 1_555
Ni8 P6 2.243979 1_555
Ni8 P5 2.398252 1_455
Ni8 P5 2.398252 1_555
Ni9 P1 2.189257 1_555
Ni9 P7 2.243979 1_555
Ni9 P4 2.398252 1_555
Ni9 P4 2.398252 1_655
Ni10 P0 2.175347 1_554
Ni10 P2 2.268565 1_554
Ni10 P1 2.407985 1_455
Ni10 P1 2.407985 1_555
Ni11 P1 2.175347 1_556
Ni11 P3 2.268565 1_556
Ni11 P0 2.407985 1_555
Ni11 P0 2.407985 1_655
Ni12 P4 2.176984 1_555
Ni12 P5 2.310204 1_455
Ni12 P5 2.310204 1_555
Ni13 P5 2.176984 1_555
Ni13 P4 2.310204 1_655
Ni13 P4 2.310204 1_555
Ni14 P0 2.151223 1_555
Ni14 P3 2.293917 1_556
Ni14 P3 2.293917 1_456
Ni15 P1 2.151223 1_555
Ni15 P2 2.293917 1_554
Ni15 P2 2.293917 1_654
Ni16 P6 2.229148 1_555
Ni16 P9 2.282124 1_565
Ni16 P9 2.282124 1_465
Ni17 P7 2.229148 1_555
Ni17 P8 2.282124 1_645
Ni17 P8 2.282124 1_545
Ni18 P6 2.181512 1_555
Ni18 P8 2.260411 1_555
Ni19 P7 2.181512 1_555
Ni19 P9 2.260411 1_555
Ni20 P2 2.237690 1_555
Ni20 P9 2.282754 1_465
Ni20 P9 2.282754 1_565
Ni21 P3 2.237690 1_555
Ni21 P8 2.282754 1_545
Ni21 P8 2.282754 1_645
Ni22 P4 2.168898 1_555
Ni22 P1 2.299514 1_455
Ni22 P1 2.299514 1_555
Ni23 P5 2.168898 1_555
Ni23 P0 2.299514 1_655
Ni23 P0 2.299514 1_555
