# generated using pymatgen
data_Ca3Er3Ge2BO13
_symmetry_space_group_name_H-M   'P 1'
_cell_length_a   7.38909614
_cell_length_b   7.38909614
_cell_length_c   7.39243213
_cell_angle_alpha   60.27557046
_cell_angle_beta   60.27557046
_cell_angle_gamma   90.37171350
_symmetry_Int_Tables_number   1
_chemical_formula_structural   Ca3Er3Ge2BO13
_chemical_formula_sum   'Ca3 Er3 Ge2 B1 O13'
_cell_volume   286.84548817
_cell_formula_units_Z   1
loop_
 _symmetry_equiv_pos_site_id
 _symmetry_equiv_pos_as_xyz
  1  'x, y, z'
loop_
 _atom_site_type_symbol
 _atom_site_label
 _atom_site_symmetry_multiplicity
 _atom_site_fract_x
 _atom_site_fract_y
 _atom_site_fract_z
 _atom_site_occupancy
  Ca  Ca0  1  0.77070600  0.76695000  0.46177400  1
  Ca  Ca1  1  0.23094800  0.76905200  0.00000000  1
  Ca  Ca2  1  0.23305000  0.22929400  0.53822600  1
  Er  Er0  1  0.22936100  0.22373900  0.99902800  1
  Er  Er1  1  0.77373800  0.22626200  0.00000000  1
  Er  Er2  1  0.77626100  0.77063900  0.00097200  1
  Ge  Ge0  1  0.74734600  0.25265400  0.50000000  1
  Ge  Ge1  1  0.24714500  0.75285500  0.50000000  1
  B  B0  1  0.50253000  0.49747000  0.00000000  1
  O  O0  1  0.99176200  0.00823800  0.00000000  1
  O  O1  1  0.41526900  0.56868300  0.84286500  1
  O  O2  1  0.42467900  0.24960500  0.15659300  1
  O  O3  1  0.43131700  0.58473100  0.15713500  1
  O  O4  1  0.75039500  0.57532100  0.84340700  1
  O  O5  1  0.15409800  0.85839900  0.29750300  1
  O  O6  1  0.14622600  0.45305900  0.70564300  1
  O  O7  1  0.14160100  0.84590200  0.70249700  1
  O  O8  1  0.54694100  0.85377400  0.29435700  1
  O  O9  1  0.83796300  0.14868600  0.70403100  1
  O  O10  1  0.84233100  0.54498200  0.29820700  1
  O  O11  1  0.85131400  0.16203700  0.29596900  1
  O  O12  1  0.45501800  0.15766900  0.70179300  1
loop_
_geom_bond_atom_site_label_1
_geom_bond_atom_site_label_2
_geom_bond_distance
_geom_bond_site_symmetry_2
Ca0 O1 2.345344 1_555
Ca0 O4 2.366983 1_555
Ca0 O5 2.388861 1_655
Ca0 O10 2.403235 1_555
Ca0 O0 2.428399 1_565
Ca0 O8 2.435717 1_555
Ca0 O11 2.466723 1_565
Ca1 O3 2.357766 1_555
Ca1 O1 2.357766 1_554
Ca1 O5 2.408601 1_555
Ca1 O7 2.408601 1_554
Ca1 O12 2.426542 1_564
Ca1 O10 2.426542 1_455
Ca1 O0 2.507531 1_465
Ca2 O3 2.345344 1_555
Ca2 O2 2.366983 1_555
Ca2 O7 2.388861 1_545
Ca2 O12 2.403235 1_555
Ca2 O0 2.428399 1_456
Ca2 O6 2.435717 1_555
Ca2 O9 2.466723 1_455
Er0 O1 2.276033 1_555
Er0 O12 2.299515 1_555
Er0 O5 2.306985 1_546
Er0 O2 2.315247 1_556
Er0 O0 2.357499 1_456
Er0 O6 2.375443 1_555
Er0 O11 2.395810 1_456
Er1 O0 2.285677 1_555
Er1 O2 2.294598 1_555
Er1 O4 2.294598 1_554
Er1 O8 2.345979 1_545
Er1 O6 2.345979 1_654
Er1 O9 2.357626 1_554
Er1 O11 2.357626 1_555
Er2 O3 2.276033 1_555
Er2 O10 2.299515 1_555
Er2 O7 2.306985 1_654
Er2 O4 2.315247 1_554
Er2 O0 2.357499 1_565
Er2 O8 2.375443 1_555
Er2 O9 2.395810 1_564
Ge0 O12 1.769294 1_555
Ge0 O10 1.769294 1_555
Ge0 O11 1.781167 1_555
Ge0 O9 1.781167 1_555
Ge1 O7 1.786514 1_555
Ge1 O5 1.786514 1_555
Ge1 O6 1.813617 1_555
Ge1 O8 1.813617 1_555
B0 O3 1.477485 1_555
B0 O1 1.477485 1_554
B0 O4 1.499618 1_554
B0 O2 1.499618 1_555
