# generated using pymatgen
data_Zr8Bi13
_symmetry_space_group_name_H-M   'P 1'
_cell_length_a   7.03398600
_cell_length_b   7.03398600
_cell_length_c   45.67798100
_cell_angle_alpha   90.00000000
_cell_angle_beta   90.00000000
_cell_angle_gamma   90.00000000
_symmetry_Int_Tables_number   1
_chemical_formula_structural   Zr8Bi13
_chemical_formula_sum   'Zr32 Bi52'
_cell_volume   2260.00759534
_cell_formula_units_Z   4
loop_
 _symmetry_equiv_pos_site_id
 _symmetry_equiv_pos_as_xyz
  1  'x, y, z'
loop_
 _atom_site_type_symbol
 _atom_site_label
 _atom_site_symmetry_multiplicity
 _atom_site_fract_x
 _atom_site_fract_y
 _atom_site_fract_z
 _atom_site_occupancy
  Zr  Zr0  1  0.50000000  0.50000000  0.18887000  1
  Zr  Zr1  1  0.50000000  0.50000000  0.81113000  1
  Zr  Zr2  1  0.50000000  0.50000000  0.68887000  1
  Zr  Zr3  1  0.50000000  0.50000000  0.31113000  1
  Zr  Zr4  1  0.00000000  0.00000000  0.25000000  1
  Zr  Zr5  1  0.00000000  0.00000000  0.75000000  1
  Zr  Zr6  1  0.00000000  0.50000000  0.40785800  1
  Zr  Zr7  1  0.50000000  0.00000000  0.59214200  1
  Zr  Zr8  1  0.00000000  0.50000000  0.90785800  1
  Zr  Zr9  1  0.50000000  0.00000000  0.09214200  1
  Zr  Zr10  1  0.00000000  0.50000000  0.03323600  1
  Zr  Zr11  1  0.50000000  0.00000000  0.96676400  1
  Zr  Zr12  1  0.00000000  0.50000000  0.53323600  1
  Zr  Zr13  1  0.50000000  0.00000000  0.46676400  1
  Zr  Zr14  1  0.00000000  0.50000000  0.15552500  1
  Zr  Zr15  1  0.50000000  0.00000000  0.84447500  1
  Zr  Zr16  1  0.00000000  0.50000000  0.65552500  1
  Zr  Zr17  1  0.50000000  0.00000000  0.34447500  1
  Zr  Zr18  1  0.00000000  0.00000000  0.12241400  1
  Zr  Zr19  1  0.00000000  0.00000000  0.87758600  1
  Zr  Zr20  1  0.00000000  0.00000000  0.62241400  1
  Zr  Zr21  1  0.00000000  0.00000000  0.37758600  1
  Zr  Zr22  1  0.00000000  0.50000000  0.27834500  1
  Zr  Zr23  1  0.50000000  0.00000000  0.72165500  1
  Zr  Zr24  1  0.00000000  0.50000000  0.77834500  1
  Zr  Zr25  1  0.50000000  0.00000000  0.22165500  1
  Zr  Zr26  1  0.50000000  0.50000000  0.06513400  1
  Zr  Zr27  1  0.50000000  0.50000000  0.93486600  1
  Zr  Zr28  1  0.50000000  0.50000000  0.56513400  1
  Zr  Zr29  1  0.50000000  0.50000000  0.43486600  1
  Zr  Zr30  1  0.00000000  0.00000000  0.00000000  1
  Zr  Zr31  1  0.00000000  0.00000000  0.50000000  1
  Bi  Bi0  1  0.65508300  0.28638900  0.13393900  1
  Bi  Bi1  1  0.34491700  0.71361100  0.13393900  1
  Bi  Bi2  1  0.28638900  0.34491700  0.86606100  1
  Bi  Bi3  1  0.65508300  0.71361100  0.63393900  1
  Bi  Bi4  1  0.71361100  0.65508300  0.86606100  1
  Bi  Bi5  1  0.34491700  0.28638900  0.63393900  1
  Bi  Bi6  1  0.28638900  0.65508300  0.36606100  1
  Bi  Bi7  1  0.71361100  0.34491700  0.36606100  1
  Bi  Bi8  1  0.34532700  0.22808900  0.01989300  1
  Bi  Bi9  1  0.65467300  0.77191100  0.01989300  1
  Bi  Bi10  1  0.22808900  0.65467300  0.98010700  1
  Bi  Bi11  1  0.34532700  0.77191100  0.51989300  1
  Bi  Bi12  1  0.77191100  0.34532700  0.98010700  1
  Bi  Bi13  1  0.65467300  0.22808900  0.51989300  1
  Bi  Bi14  1  0.22808900  0.34532700  0.48010700  1
  Bi  Bi15  1  0.77191100  0.65467300  0.48010700  1
  Bi  Bi16  1  0.32987900  0.32987900  0.25000000  1
  Bi  Bi17  1  0.67012100  0.67012100  0.25000000  1
  Bi  Bi18  1  0.32987900  0.67012100  0.75000000  1
  Bi  Bi19  1  0.67012100  0.32987900  0.75000000  1
  Bi  Bi20  1  0.17737400  0.33530800  0.09608400  1
  Bi  Bi21  1  0.82262600  0.66469200  0.09608400  1
  Bi  Bi22  1  0.33530800  0.82262600  0.90391600  1
  Bi  Bi23  1  0.17737400  0.66469200  0.59608400  1
  Bi  Bi24  1  0.66469200  0.17737400  0.90391600  1
  Bi  Bi25  1  0.82262600  0.33530800  0.59608400  1
  Bi  Bi26  1  0.33530800  0.17737400  0.40391600  1
  Bi  Bi27  1  0.66469200  0.82262600  0.40391600  1
  Bi  Bi28  1  0.18729800  0.16031400  0.55789200  1
  Bi  Bi29  1  0.81270200  0.83968600  0.55789200  1
  Bi  Bi30  1  0.16031400  0.81270200  0.44210800  1
  Bi  Bi31  1  0.18729800  0.83968600  0.05789200  1
  Bi  Bi32  1  0.83968600  0.18729800  0.44210800  1
  Bi  Bi33  1  0.81270200  0.16031400  0.05789200  1
  Bi  Bi34  1  0.16031400  0.18729800  0.94210800  1
  Bi  Bi35  1  0.83968600  0.81270200  0.94210800  1
  Bi  Bi36  1  0.15702300  0.69975800  0.21198500  1
  Bi  Bi37  1  0.84297700  0.30024200  0.21198500  1
  Bi  Bi38  1  0.69975800  0.84297700  0.78801500  1
  Bi  Bi39  1  0.15702300  0.30024200  0.71198500  1
  Bi  Bi40  1  0.30024200  0.15702300  0.78801500  1
  Bi  Bi41  1  0.84297700  0.69975800  0.71198500  1
  Bi  Bi42  1  0.69975800  0.15702300  0.28801500  1
  Bi  Bi43  1  0.30024200  0.84297700  0.28801500  1
  Bi  Bi44  1  0.24271600  0.15510900  0.17335200  1
  Bi  Bi45  1  0.75728400  0.84489100  0.17335200  1
  Bi  Bi46  1  0.15510900  0.75728400  0.82664800  1
  Bi  Bi47  1  0.24271600  0.84489100  0.67335200  1
  Bi  Bi48  1  0.84489100  0.24271600  0.82664800  1
  Bi  Bi49  1  0.75728400  0.15510900  0.67335200  1
  Bi  Bi50  1  0.15510900  0.24271600  0.32664800  1
  Bi  Bi51  1  0.84489100  0.75728400  0.32664800  1
loop_
_geom_bond_atom_site_label_1
_geom_bond_atom_site_label_2
_geom_bond_distance
_geom_bond_site_symmetry_2
Bi0 Zr9 2.982121 1_555
Bi0 Zr14 3.019269 1_655
Bi0 Zr0 3.121433 1_555
Bi0 Zr18 3.197082 1_655
Bi1 Zr9 2.982121 1_565
Bi1 Zr14 3.019269 1_555
Bi1 Zr0 3.121433 1_555
Bi1 Zr18 3.197082 1_565
Bi2 Zr8 2.982121 1_555
Bi2 Zr15 3.019269 1_555
Bi2 Zr1 3.121433 1_555
Bi2 Zr19 3.197082 1_555
Bi3 Zr7 2.982121 1_565
Bi3 Zr16 3.019269 1_655
Bi3 Zr2 3.121433 1_555
Bi3 Zr20 3.197082 1_665
Bi4 Zr8 2.982121 1_655
Bi4 Zr15 3.019269 1_565
Bi4 Zr1 3.121433 1_555
Bi4 Zr19 3.197082 1_665
Bi5 Zr7 2.982121 1_555
Bi5 Zr16 3.019269 1_555
Bi5 Zr2 3.121433 1_555
Bi5 Zr20 3.197082 1_555
Bi6 Zr6 2.982121 1_555
Bi6 Zr17 3.019269 1_565
Bi6 Zr3 3.121433 1_555
Bi6 Zr21 3.197082 1_565
Bi7 Zr6 2.982121 1_655
Bi7 Zr17 3.019269 1_555
Bi7 Zr3 3.121433 1_555
Bi7 Zr21 3.197082 1_655
Bi8 Zr26 3.018655 1_555
Bi8 Zr30 3.049568 1_555
Bi8 Zr11 3.105990 1_554
Bi8 Zr10 3.151149 1_555
Bi9 Zr26 3.018655 1_555
Bi9 Zr30 3.049568 1_665
Bi9 Zr11 3.105990 1_564
Bi9 Zr10 3.151149 1_655
Bi10 Zr27 3.018655 1_555
Bi10 Zr30 3.049568 1_566
Bi10 Zr10 3.105990 1_556
Bi10 Zr11 3.151149 1_565
Bi11 Zr28 3.018655 1_555
Bi11 Zr31 3.049568 1_565
Bi11 Zr13 3.105990 1_565
Bi11 Zr12 3.151149 1_555
Bi12 Zr27 3.018655 1_555
Bi12 Zr30 3.049568 1_656
Bi12 Zr10 3.105990 1_656
Bi12 Zr11 3.151149 1_555
Bi13 Zr28 3.018655 1_555
Bi13 Zr31 3.049568 1_655
Bi13 Zr13 3.105990 1_555
Bi13 Zr12 3.151149 1_655
Bi14 Zr29 3.018655 1_555
Bi14 Zr31 3.049568 1_555
Bi14 Zr12 3.105990 1_555
Bi14 Zr13 3.151149 1_555
Bi15 Zr29 3.018655 1_555
Bi15 Zr31 3.049568 1_665
Bi15 Zr12 3.105990 1_655
Bi15 Zr13 3.151149 1_565
Bi16 Zr22 2.914167 1_555
Bi16 Zr25 2.914167 1_555
Bi16 Zr0 3.265081 1_555
Bi16 Zr3 3.265081 1_555
Bi16 Zr4 3.281491 1_555
Bi17 Zr25 2.914167 1_565
Bi17 Zr22 2.914167 1_655
Bi17 Zr0 3.265081 1_555
Bi17 Zr3 3.265081 1_555
Bi17 Zr4 3.281491 1_665
Bi18 Zr24 2.914167 1_555
Bi18 Zr23 2.914167 1_565
Bi18 Zr2 3.265081 1_555
Bi18 Zr1 3.265081 1_555
Bi18 Zr5 3.281491 1_565
Bi19 Zr24 2.914167 1_655
Bi19 Zr23 2.914167 1_555
Bi19 Zr2 3.265081 1_555
Bi19 Zr1 3.265081 1_555
Bi19 Zr5 3.281491 1_655
Bi20 Zr26 2.913857 1_555
Bi20 Zr18 2.926752 1_555
Bi20 Zr14 3.204781 1_555
Bi20 Zr9 3.277976 1_555
Bi20 Zr10 3.337653 1_555
Bi21 Zr26 2.913857 1_555
Bi21 Zr18 2.926752 1_665
Bi21 Zr14 3.204781 1_655
Bi21 Zr9 3.277976 1_565
Bi21 Zr10 3.337653 1_655
Bi22 Zr27 2.913857 1_555
Bi22 Zr19 2.926752 1_565
Bi22 Zr15 3.204781 1_565
Bi22 Zr8 3.277976 1_555
Bi22 Zr11 3.337653 1_565
Bi23 Zr28 2.913857 1_555
Bi23 Zr20 2.926752 1_565
Bi23 Zr16 3.204781 1_555
Bi23 Zr7 3.277976 1_565
Bi23 Zr12 3.337653 1_555
Bi24 Zr27 2.913857 1_555
Bi24 Zr19 2.926752 1_655
Bi24 Zr15 3.204781 1_555
Bi24 Zr8 3.277976 1_655
Bi24 Zr11 3.337653 1_555
Bi25 Zr28 2.913857 1_555
Bi25 Zr20 2.926752 1_655
Bi25 Zr16 3.204781 1_655
Bi25 Zr7 3.277976 1_555
Bi25 Zr12 3.337653 1_655
Bi26 Zr29 2.913857 1_555
Bi26 Zr21 2.926752 1_555
Bi26 Zr17 3.204781 1_555
Bi26 Zr6 3.277976 1_555
Bi26 Zr13 3.337653 1_555
Bi27 Zr29 2.913857 1_555
Bi27 Zr21 2.926752 1_665
Bi27 Zr17 3.204781 1_565
Bi27 Zr6 3.277976 1_655
Bi27 Zr13 3.337653 1_565
Bi28 Zr7 2.925259 1_555
Bi28 Zr12 2.951790 1_555
Bi28 Zr31 3.162287 1_555
Bi28 Zr28 3.264412 1_555
Bi28 Zr20 3.419570 1_555
Bi29 Zr7 2.925259 1_565
Bi29 Zr12 2.951790 1_655
Bi29 Zr31 3.162287 1_665
Bi29 Zr28 3.264412 1_555
Bi29 Zr20 3.419570 1_665
Bi30 Zr6 2.925259 1_555
Bi30 Zr13 2.951790 1_565
Bi30 Zr31 3.162287 1_565
Bi30 Zr29 3.264412 1_555
Bi30 Zr21 3.419570 1_565
Bi31 Zr9 2.925259 1_565
Bi31 Zr10 2.951790 1_555
Bi31 Zr30 3.162287 1_565
Bi31 Zr26 3.264412 1_555
Bi31 Zr18 3.419570 1_565
Bi32 Zr6 2.925259 1_655
Bi32 Zr13 2.951790 1_555
Bi32 Zr31 3.162287 1_655
Bi32 Zr29 3.264412 1_555
Bi32 Zr21 3.419570 1_655
Bi33 Zr9 2.925259 1_555
Bi33 Zr10 2.951790 1_655
Bi33 Zr30 3.162287 1_655
Bi33 Zr26 3.264412 1_555
Bi33 Zr18 3.419570 1_655
Bi34 Zr8 2.925259 1_555
Bi34 Zr11 2.951790 1_555
Bi34 Zr30 3.162287 1_556
Bi34 Zr27 3.264412 1_555
Bi34 Zr19 3.419570 1_555
Bi35 Zr8 2.925259 1_655
Bi35 Zr11 2.951790 1_565
Bi35 Zr30 3.162287 1_666
Bi35 Zr27 3.264412 1_555
Bi35 Zr19 3.419570 1_665
Bi36 Zr4 2.948776 1_565
Bi36 Zr0 2.984835 1_555
Bi36 Zr14 3.137728 1_555
Bi36 Zr25 3.236565 1_565
Bi36 Zr22 3.518853 1_555
Bi37 Zr4 2.948776 1_655
Bi37 Zr0 2.984835 1_555
Bi37 Zr14 3.137728 1_655
Bi37 Zr25 3.236565 1_555
Bi37 Zr22 3.518853 1_655
Bi38 Zr5 2.948776 1_665
Bi38 Zr1 2.984835 1_555
Bi38 Zr15 3.137728 1_565
Bi38 Zr24 3.236565 1_655
Bi38 Zr23 3.518853 1_565
Bi39 Zr5 2.948776 1_555
Bi39 Zr2 2.984835 1_555
Bi39 Zr16 3.137728 1_555
Bi39 Zr23 3.236565 1_555
Bi39 Zr24 3.518853 1_555
Bi40 Zr5 2.948776 1_555
Bi40 Zr1 2.984835 1_555
Bi40 Zr15 3.137728 1_555
Bi40 Zr24 3.236565 1_555
Bi40 Zr23 3.518853 1_555
Bi41 Zr5 2.948776 1_665
Bi41 Zr2 2.984835 1_555
Bi41 Zr16 3.137728 1_655
Bi41 Zr23 3.236565 1_565
Bi41 Zr24 3.518853 1_655
Bi42 Zr4 2.948776 1_655
Bi42 Zr3 2.984835 1_555
Bi42 Zr17 3.137728 1_555
Bi42 Zr22 3.236565 1_655
Bi42 Zr25 3.518853 1_555
Bi43 Zr4 2.948776 1_565
Bi43 Zr3 2.984835 1_555
Bi43 Zr17 3.137728 1_565
Bi43 Zr22 3.236565 1_555
Bi43 Zr25 3.518853 1_565
Bi44 Zr25 3.055097 1_555
Bi44 Zr14 3.076215 1_555
Bi44 Zr18 3.085262 1_555
Bi44 Zr0 3.108512 1_555
Bi45 Zr25 3.055097 1_565
Bi45 Zr14 3.076215 1_655
Bi45 Zr18 3.085262 1_665
Bi45 Zr0 3.108512 1_555
Bi46 Zr24 3.055097 1_555
Bi46 Zr15 3.076215 1_565
Bi46 Zr19 3.085262 1_565
Bi46 Zr1 3.108512 1_555
Bi47 Zr23 3.055097 1_565
Bi47 Zr16 3.076215 1_555
Bi47 Zr20 3.085262 1_565
Bi47 Zr2 3.108512 1_555
Bi48 Zr24 3.055097 1_655
Bi48 Zr15 3.076215 1_555
Bi48 Zr19 3.085262 1_655
Bi48 Zr1 3.108512 1_555
Bi49 Zr23 3.055097 1_555
Bi49 Zr16 3.076215 1_655
Bi49 Zr20 3.085262 1_655
Bi49 Zr2 3.108512 1_555
Bi50 Zr22 3.055097 1_555
Bi50 Zr17 3.076215 1_555
Bi50 Zr21 3.085262 1_555
Bi50 Zr3 3.108512 1_555
Bi51 Zr22 3.055097 1_655
Bi51 Zr17 3.076215 1_565
Bi51 Zr21 3.085262 1_665
Bi51 Zr3 3.108512 1_555
