# generated using pymatgen
data_Yb2SnGe2
_symmetry_space_group_name_H-M   'P 1'
_cell_length_a   7.35830038
_cell_length_b   7.35830038
_cell_length_c   4.06632241
_cell_angle_alpha   90.00000000
_cell_angle_beta   90.00000000
_cell_angle_gamma   90.00000000
_symmetry_Int_Tables_number   1
_chemical_formula_structural   Yb2SnGe2
_chemical_formula_sum   'Yb4 Sn2 Ge4'
_cell_volume   220.16933730
_cell_formula_units_Z   2
loop_
 _symmetry_equiv_pos_site_id
 _symmetry_equiv_pos_as_xyz
  1  'x, y, z'
loop_
 _atom_site_type_symbol
 _atom_site_label
 _atom_site_symmetry_multiplicity
 _atom_site_fract_x
 _atom_site_fract_y
 _atom_site_fract_z
 _atom_site_occupancy
  Yb  Yb0  1  0.67800292  0.17800292  0.50000000  1
  Yb  Yb1  1  0.32199708  0.82199708  0.50000000  1
  Yb  Yb2  1  0.17800292  0.32199708  0.50000000  1
  Yb  Yb3  1  0.82199708  0.67800292  0.50000000  1
  Sn  Sn0  1  0.50000000  0.50000000  0.00000000  1
  Sn  Sn1  1  0.00000000  0.00000000  0.00000000  1
  Ge  Ge0  1  0.12197695  0.62197695  0.00000000  1
  Ge  Ge1  1  0.87802305  0.37802305  0.00000000  1
  Ge  Ge2  1  0.62197695  0.87802305  0.00000000  1
  Ge  Ge3  1  0.37802305  0.12197695  0.00000000  1
loop_
_geom_bond_atom_site_label_1
_geom_bond_atom_site_label_2
_geom_bond_distance
_geom_bond_site_symmetry_2
Sn0 Yb3 3.385726 1_554
Sn0 Yb3 3.385726 1_555
Sn0 Yb1 3.385726 1_555
Sn0 Yb1 3.385726 1_554
Sn0 Yb0 3.385726 1_555
Sn0 Yb0 3.385726 1_554
Sn0 Yb2 3.385726 1_554
Sn0 Yb2 3.385726 1_555
Sn1 Yb2 3.385726 1_554
Sn1 Yb2 3.385726 1_555
Sn1 Yb1 3.385726 1_545
Sn1 Yb1 3.385726 1_544
Sn1 Yb0 3.385726 1_455
Sn1 Yb0 3.385726 1_454
Sn1 Yb3 3.385726 1_445
Sn1 Yb3 3.385726 1_444
Ge0 Ge1 2.538635 1_455
Ge0 Yb1 2.909671 1_554
Ge0 Yb1 2.909671 1_555
Ge0 Sn1 2.922828 1_565
Ge0 Sn0 2.922828 1_555
Ge0 Yb3 3.029201 1_455
Ge0 Yb3 3.029201 1_454
Ge0 Yb2 3.029201 1_554
Ge0 Yb2 3.029201 1_555
Ge1 Yb0 2.909671 1_555
Ge1 Yb0 2.909671 1_554
Ge1 Sn1 2.922828 1_655
Ge1 Sn0 2.922828 1_555
Ge1 Yb2 3.029201 1_655
Ge1 Yb2 3.029201 1_654
Ge1 Yb3 3.029201 1_555
Ge1 Yb3 3.029201 1_554
Ge2 Ge3 2.538635 1_565
Ge2 Yb3 2.909671 1_554
Ge2 Yb3 2.909671 1_555
Ge2 Sn0 2.922828 1_555
Ge2 Sn1 2.922828 1_665
Ge2 Yb0 3.029201 1_564
Ge2 Yb0 3.029201 1_565
Ge2 Yb1 3.029201 1_554
Ge2 Yb1 3.029201 1_555
Ge3 Yb2 2.909671 1_554
Ge3 Yb2 2.909671 1_555
Ge3 Sn1 2.922828 1_555
Ge3 Sn0 2.922828 1_555
Ge3 Yb1 3.029201 1_544
Ge3 Yb1 3.029201 1_545
Ge3 Yb0 3.029201 1_554
Ge3 Yb0 3.029201 1_555
