# generated using pymatgen
data_SrCrCu3Se4
_symmetry_space_group_name_H-M   'P 1'
_cell_length_a   6.04259801
_cell_length_b   6.03087225
_cell_length_c   6.01573724
_cell_angle_alpha   89.97147463
_cell_angle_beta   89.90670320
_cell_angle_gamma   89.98321761
_symmetry_Int_Tables_number   1
_chemical_formula_structural   SrCrCu3Se4
_chemical_formula_sum   'Sr1 Cr1 Cu3 Se4'
_cell_volume   219.22599140
_cell_formula_units_Z   1
loop_
 _symmetry_equiv_pos_site_id
 _symmetry_equiv_pos_as_xyz
  1  'x, y, z'
loop_
 _atom_site_type_symbol
 _atom_site_label
 _atom_site_symmetry_multiplicity
 _atom_site_fract_x
 _atom_site_fract_y
 _atom_site_fract_z
 _atom_site_occupancy
  Sr  Sr0  1  0.49904100  0.49936200  0.50017000  1
  Cr  Cr0  1  0.99982900  0.00106400  0.00045300  1
  Cu  Cu0  1  0.99992300  0.49965000  0.99992500  1
  Cu  Cu1  1  0.00034000  0.99971000  0.49970500  1
  Cu  Cu2  1  0.50032900  0.99991500  0.99983500  1
  Se  Se0  1  0.22633200  0.22590000  0.22545100  1
  Se  Se1  1  0.77410800  0.77375000  0.22579500  1
  Se  Se2  1  0.22574600  0.77465300  0.77501300  1
  Se  Se3  1  0.77435400  0.22599500  0.77365400  1
loop_
_geom_bond_atom_site_label_1
_geom_bond_atom_site_label_2
_geom_bond_distance
_geom_bond_site_symmetry_2
Cr0 Se0 2.356450 1_655
Cr0 Se3 2.358193 1_554
Cr0 Se2 2.358390 1_644
Cr0 Se1 2.360207 1_545
Cu0 Se1 2.536857 1_556
Cu0 Se2 2.537003 1_655
Cu0 Se0 2.537809 1_656
Cu0 Se3 2.538505 1_555
Cu1 Se3 2.537093 1_465
Cu1 Se0 2.537543 1_565
Cu1 Se2 2.538571 1_555
Cu1 Se1 2.540006 1_455
Cu2 Se0 2.536527 1_566
Cu2 Se2 2.537352 1_555
Cu2 Se3 2.538556 1_565
Cu2 Se1 2.539517 1_556
Se0 Sr0 2.860030 1_555
Se1 Sr0 2.866240 1_555
Se2 Sr0 2.865220 1_555
Se3 Sr0 2.863026 1_555
