# generated using pymatgen
data_DyAlCo
_symmetry_space_group_name_H-M   'P 1'
_cell_length_a   5.31071268
_cell_length_b   5.38520125
_cell_length_c   8.35304800
_cell_angle_alpha   90.00000000
_cell_angle_beta   90.00000000
_cell_angle_gamma   120.46798399
_symmetry_Int_Tables_number   1
_chemical_formula_structural   DyAlCo
_chemical_formula_sum   'Dy4 Al4 Co4'
_cell_volume   205.90313854
_cell_formula_units_Z   4
loop_
 _symmetry_equiv_pos_site_id
 _symmetry_equiv_pos_as_xyz
  1  'x, y, z'
loop_
 _atom_site_type_symbol
 _atom_site_label
 _atom_site_symmetry_multiplicity
 _atom_site_fract_x
 _atom_site_fract_y
 _atom_site_fract_z
 _atom_site_occupancy
  Dy  Dy0  1  0.66716600  0.33361700  0.54784500  1
  Dy  Dy1  1  0.34081700  0.67040900  0.42455500  1
  Dy  Dy2  1  0.34081700  0.67040900  0.07544500  1
  Dy  Dy3  1  0.66716600  0.33361700  0.95215500  1
  Al  Al0  1  0.99213400  0.99600000  0.48071200  1
  Al  Al1  1  0.99213400  0.99600000  0.01928800  1
  Al  Al2  1  0.17299700  0.33897500  0.75000000  1
  Al  Al3  1  0.17298200  0.83401500  0.75000000  1
  Co  Co0  1  0.66468600  0.83233300  0.75000000  1
  Co  Co1  1  0.82228600  0.65139900  0.25000000  1
  Co  Co2  1  0.82205500  0.17086700  0.25000000  1
  Co  Co3  1  0.34476000  0.17235800  0.25000000  1
loop_
_geom_bond_atom_site_label_1
_geom_bond_atom_site_label_2
_geom_bond_distance
_geom_bond_site_symmetry_2
Dy0 Dy1 3.246786 1_555
Dy0 Dy1 3.246959 1_545
Dy0 Dy1 3.250979 1_655
Dy1 Dy2 2.916133 1_555
Dy2 Dy3 3.246786 1_554
Dy2 Dy3 3.246959 1_564
Dy2 Dy3 3.250979 1_454
Al0 Co1 2.504753 1_555
Al0 Co2 2.505816 1_565
Al0 Co3 2.513806 1_665
Al0 Co0 2.703007 1_555
Al0 Al3 2.755485 1_655
Al0 Al2 2.755821 1_665
Al0 Dy1 3.017996 1_555
Al0 Dy0 3.126319 1_555
Al0 Dy0 3.127386 1_565
Al0 Dy0 3.140344 1_665
Al0 Dy1 3.164806 1_655
Al0 Dy1 3.165286 1_665
Al1 Co1 2.504753 1_555
Al1 Co2 2.505816 1_565
Al1 Co3 2.513806 1_665
Al1 Co0 2.703007 1_554
Al1 Al3 2.755485 1_654
Al1 Al2 2.755821 1_664
Al1 Dy2 3.017996 1_555
Al1 Dy3 3.126319 1_554
Al1 Dy3 3.127386 1_564
Al1 Dy3 3.140344 1_664
Al1 Dy2 3.164806 1_655
Al1 Dy2 3.165286 1_665
Al2 Co0 2.615671 1_555
Al2 Al3 2.665930 1_555
Al2 Co0 2.694828 1_445
Al2 Al3 2.719271 1_545
Al2 Dy1 3.123588 1_555
Al2 Dy2 3.123588 1_556
Al2 Dy3 3.133122 1_555
Al2 Dy0 3.133122 1_555
Al2 Dy3 3.160691 1_455
Al2 Dy0 3.160691 1_455
Al3 Co0 2.615903 1_555
Al3 Co0 2.694832 1_455
Al3 Dy1 3.123637 1_555
Al3 Dy2 3.123637 1_556
Al3 Dy0 3.133229 1_565
Al3 Dy3 3.133229 1_565
Al3 Dy0 3.160388 1_455
Al3 Dy3 3.160388 1_455
Co0 Dy1 3.096405 1_555
Co0 Dy2 3.096405 1_556
Co0 Dy3 3.178106 1_555
Co0 Dy0 3.178106 1_555
Co0 Dy3 3.178507 1_565
Co0 Dy0 3.178507 1_565
Co1 Co3 2.540037 1_555
Co1 Co2 2.587140 1_555
Co1 Co3 2.770459 1_665
Co1 Co2 2.798062 1_565
Co1 Dy0 2.892628 1_555
Co1 Dy3 2.892628 1_554
Co1 Dy2 2.989959 1_555
Co1 Dy1 2.989959 1_555
Co1 Dy2 3.071448 1_655
Co1 Dy1 3.071448 1_655
Co2 Co3 2.538857 1_555
Co2 Co3 2.771873 1_655
Co2 Dy3 2.892334 1_554
Co2 Dy0 2.892334 1_555
Co2 Dy1 2.989313 1_545
Co2 Dy2 2.989313 1_545
Co2 Dy2 3.071949 1_655
Co2 Dy1 3.071949 1_655
Co3 Dy0 2.892683 1_555
Co3 Dy3 2.892683 1_554
Co3 Dy2 3.061980 1_545
Co3 Dy1 3.061980 1_545
Co3 Dy1 3.062195 1_555
Co3 Dy2 3.062195 1_555
