# generated using pymatgen
data_BaSrGdBiO6
_symmetry_space_group_name_H-M   'P 1'
_cell_length_a   8.66827890
_cell_length_b   8.67581421
_cell_length_c   8.68453024
_cell_angle_alpha   90.00000000
_cell_angle_beta   90.00000000
_cell_angle_gamma   90.00000000
_symmetry_Int_Tables_number   1
_chemical_formula_structural   BaSrGdBiO6
_chemical_formula_sum   'Ba4 Sr4 Gd4 Bi4 O24'
_cell_volume   653.11468847
_cell_formula_units_Z   4
loop_
 _symmetry_equiv_pos_site_id
 _symmetry_equiv_pos_as_xyz
  1  'x, y, z'
loop_
 _atom_site_type_symbol
 _atom_site_label
 _atom_site_symmetry_multiplicity
 _atom_site_fract_x
 _atom_site_fract_y
 _atom_site_fract_z
 _atom_site_occupancy
  Ba  Ba0  1  0.00000000  0.00000000  -0.00000000  1
  Ba  Ba1  1  0.50000000  0.50000000  0.50000000  1
  Ba  Ba2  1  0.00000000  0.50000000  0.50000000  1
  Ba  Ba3  1  0.50000000  -0.00000000  -0.00000000  1
  Sr  Sr0  1  0.50000000  -0.00000000  0.50000000  1
  Sr  Sr1  1  0.50000000  0.50000000  -0.00000000  1
  Sr  Sr2  1  0.00000000  0.50000000  -0.00000000  1
  Sr  Sr3  1  0.00000000  0.00000000  0.50000000  1
  Gd  Gd0  1  0.25000000  0.25000000  0.25000000  1
  Gd  Gd1  1  0.75000000  0.75000000  0.25000000  1
  Gd  Gd2  1  0.75000000  0.25000000  0.75000000  1
  Gd  Gd3  1  0.25000000  0.75000000  0.75000000  1
  Bi  Bi0  1  0.75000000  0.75000000  0.75000000  1
  Bi  Bi1  1  0.25000000  0.25000000  0.75000000  1
  Bi  Bi2  1  0.25000000  0.75000000  0.25000000  1
  Bi  Bi3  1  0.75000000  0.25000000  0.25000000  1
  O  O0  1  0.99169134  0.21425901  0.28872320  1
  O  O1  1  0.00830866  0.78574099  0.28872320  1
  O  O2  1  0.00830866  0.21425901  0.71127680  1
  O  O3  1  0.99169134  0.78574099  0.71127680  1
  O  O4  1  0.27738239  0.99262752  0.22031642  1
  O  O5  1  0.27738239  0.00737248  0.77968358  1
  O  O6  1  0.72261761  0.00737248  0.22031642  1
  O  O7  1  0.72261761  0.99262752  0.77968358  1
  O  O8  1  0.20797511  0.28135124  0.99170143  1
  O  O9  1  0.79202489  0.28135124  0.00829857  1
  O  O10  1  0.20797511  0.71864876  0.00829857  1
  O  O11  1  0.79202489  0.71864876  0.99170143  1
  O  O12  1  0.50830866  0.28574099  0.21127680  1
  O  O13  1  0.49169134  0.71425901  0.21127680  1
  O  O14  1  0.49169134  0.28574099  0.78872320  1
  O  O15  1  0.50830866  0.71425901  0.78872320  1
  O  O16  1  0.22261761  0.50737248  0.27968358  1
  O  O17  1  0.22261761  0.49262752  0.72031642  1
  O  O18  1  0.77738239  0.49262752  0.27968358  1
  O  O19  1  0.77738239  0.50737248  0.72031642  1
  O  O20  1  0.29202489  0.21864876  0.50829857  1
  O  O21  1  0.70797511  0.21864876  0.49170143  1
  O  O22  1  0.29202489  0.78135124  0.49170143  1
  O  O23  1  0.70797511  0.78135124  0.50829857  1
loop_
_geom_bond_atom_site_label_1
_geom_bond_atom_site_label_2
_geom_bond_distance
_geom_bond_site_symmetry_2
Ba0 O8 3.035371 1_554
Ba0 O11 3.035371 1_444
Ba0 O9 3.035371 1_455
Ba0 O10 3.035371 1_545
Ba0 O5 3.073476 1_554
Ba0 O7 3.073476 1_444
Ba0 O6 3.073476 1_455
Ba0 O4 3.073476 1_545
Ba0 O2 3.122142 1_554
Ba0 O3 3.122142 1_444
Ba0 O1 3.122142 1_545
Ba0 O0 3.122142 1_455
Ba1 O20 3.035371 1_555
Ba1 O23 3.035371 1_555
Ba1 O21 3.035371 1_555
Ba1 O22 3.035371 1_555
Ba1 O19 3.073476 1_555
Ba1 O17 3.073476 1_555
Ba1 O18 3.073476 1_555
Ba1 O16 3.073476 1_555
Ba1 O14 3.122142 1_555
Ba1 O15 3.122142 1_555
Ba1 O12 3.122142 1_555
Ba1 O13 3.122142 1_555
Ba2 O17 2.718228 1_555
Ba2 O19 2.718228 1_455
Ba2 O16 2.718228 1_555
Ba2 O18 2.718228 1_455
Ba2 O1 3.085035 1_555
Ba2 O0 3.085035 1_455
Ba2 O3 3.085035 1_455
Ba2 O2 3.085035 1_555
Ba3 O5 2.718228 1_554
Ba3 O7 2.718228 1_544
Ba3 O4 2.718228 1_545
Ba3 O6 2.718228 1_555
Ba3 O13 3.085035 1_545
Ba3 O12 3.085035 1_555
Ba3 O15 3.085035 1_544
Ba3 O14 3.085035 1_554
Gd0 O16 2.260245 1_555
Gd0 O4 2.260245 1_545
Gd0 O0 2.285339 1_455
Gd0 O12 2.285339 1_555
Gd0 O20 2.288807 1_555
Gd0 O8 2.288807 1_554
Gd1 O6 2.260245 1_565
Gd1 O18 2.260245 1_555
Gd1 O1 2.285339 1_655
Gd1 O13 2.285339 1_555
Gd1 O11 2.288807 1_554
Gd1 O23 2.288807 1_555
Gd2 O7 2.260245 1_545
Gd2 O19 2.260245 1_555
Gd2 O14 2.285339 1_555
Gd2 O2 2.285339 1_655
Gd2 O21 2.288807 1_555
Gd2 O9 2.288807 1_556
Gd3 O5 2.260245 1_565
Gd3 O17 2.260245 1_555
Gd3 O15 2.285339 1_555
Gd3 O3 2.285339 1_455
Gd3 O22 2.288807 1_555
Gd3 O10 2.288807 1_556
Bi0 O19 2.133959 1_555
Bi0 O7 2.133959 1_555
Bi0 O15 2.144404 1_555
Bi0 O3 2.144404 1_555
Bi0 O23 2.147732 1_555
Bi0 O11 2.147732 1_555
Bi1 O17 2.133959 1_555
Bi1 O5 2.133959 1_555
Bi1 O14 2.144404 1_555
Bi1 O2 2.144404 1_555
Bi1 O8 2.147732 1_555
Bi1 O20 2.147732 1_555
Bi2 O4 2.133959 1_555
Bi2 O16 2.133959 1_555
Bi2 O13 2.144404 1_555
Bi2 O1 2.144404 1_555
Bi2 O22 2.147732 1_555
Bi2 O10 2.147732 1_555
Bi3 O18 2.133959 1_555
Bi3 O6 2.133959 1_555
Bi3 O12 2.144404 1_555
Bi3 O0 2.144404 1_555
Bi3 O21 2.147732 1_555
Bi3 O9 2.147732 1_555
O0 Sr3 2.612896 1_655
O1 Sr3 2.612896 1_565
O2 Sr3 2.612896 1_555
O3 Sr3 2.612896 1_665
O4 Sr0 3.102827 1_565
O5 Sr0 3.102827 1_555
O6 Sr0 3.102827 1_555
O7 Sr0 3.102827 1_565
O8 Sr2 2.617952 1_556
O9 Sr2 2.617952 1_655
O10 Sr2 2.617952 1_555
O11 Sr2 2.617952 1_656
O12 Sr1 2.612896 1_555
O13 Sr1 2.612896 1_555
O14 Sr1 2.612896 1_556
O15 Sr1 2.612896 1_556
O16 Sr2 3.102827 1_555
O17 Sr2 3.102827 1_556
O18 Sr2 3.102827 1_655
O19 Sr2 3.102827 1_656
O20 Sr0 2.617952 1_555
O21 Sr0 2.617952 1_555
O22 Sr0 2.617952 1_565
O23 Sr0 2.617952 1_565
