# generated using pymatgen
data_Mg2Sc
_symmetry_space_group_name_H-M   'P 1'
_cell_length_a   16.79549471
_cell_length_b   16.79549471
_cell_length_c   10.32316156
_cell_angle_alpha   90.00000000
_cell_angle_beta   90.00000000
_cell_angle_gamma   157.54839540
_symmetry_Int_Tables_number   1
_chemical_formula_structural   Mg2Sc
_chemical_formula_sum   'Mg32 Sc16'
_cell_volume   1112.11914853
_cell_formula_units_Z   16
loop_
 _symmetry_equiv_pos_site_id
 _symmetry_equiv_pos_as_xyz
  1  'x, y, z'
loop_
 _atom_site_type_symbol
 _atom_site_label
 _atom_site_symmetry_multiplicity
 _atom_site_fract_x
 _atom_site_fract_y
 _atom_site_fract_z
 _atom_site_occupancy
  Mg  Mg0_0  1  0.05521888  0.44478112  0.12500000  1
  Mg  Mg0_1  1  0.05521888  0.44478112  0.62500000  1
  Mg  Mg0_2  1  0.05521887  0.94478112  0.12500000  1
  Mg  Mg0_3  1  0.05521887  0.94478112  0.62500000  1
  Mg  Mg0_4  1  0.55521888  0.44478112  0.12500000  1
  Mg  Mg0_5  1  0.55521888  0.44478112  0.62500000  1
  Mg  Mg0_6  1  0.55521888  0.94478112  0.12500000  1
  Mg  Mg0_7  1  0.55521888  0.94478112  0.62500000  1
  Mg  Mg1_0  1  0.38760406  0.11239593  0.12500000  1
  Mg  Mg1_1  1  0.38760406  0.11239593  0.62500000  1
  Mg  Mg1_2  1  0.38760406  0.61239594  0.12500000  1
  Mg  Mg1_3  1  0.38760406  0.61239594  0.62500000  1
  Mg  Mg1_4  1  0.88760406  0.11239593  0.12500000  1
  Mg  Mg1_5  1  0.88760406  0.11239593  0.62500000  1
  Mg  Mg1_6  1  0.88760406  0.61239594  0.12500000  1
  Mg  Mg1_7  1  0.88760406  0.61239594  0.62500000  1
  Mg  Mg2_0  1  0.44478112  0.05521887  0.37500000  1
  Mg  Mg2_1  1  0.44478112  0.05521887  0.87500000  1
  Mg  Mg2_2  1  0.44478112  0.55521888  0.37500000  1
  Mg  Mg2_3  1  0.44478112  0.55521888  0.87500000  1
  Mg  Mg2_4  1  0.94478112  0.05521887  0.37500000  1
  Mg  Mg2_5  1  0.94478112  0.05521887  0.87500000  1
  Mg  Mg2_6  1  0.94478112  0.55521888  0.37500000  1
  Mg  Mg2_7  1  0.94478112  0.55521888  0.87500000  1
  Mg  Mg3_0  1  0.11239593  0.38760406  0.37500000  1
  Mg  Mg3_1  1  0.11239593  0.38760406  0.87500000  1
  Mg  Mg3_2  1  0.11239593  0.88760406  0.37500000  1
  Mg  Mg3_3  1  0.11239593  0.88760406  0.87500000  1
  Mg  Mg3_4  1  0.61239594  0.38760406  0.37500000  1
  Mg  Mg3_5  1  0.61239594  0.38760406  0.87500000  1
  Mg  Mg3_6  1  0.61239594  0.88760406  0.37500000  1
  Mg  Mg3_7  1  0.61239594  0.88760406  0.87500000  1
  Sc  Sc0_0  1  0.22134597  0.27865403  0.12500000  1
  Sc  Sc0_1  1  0.22134597  0.27865403  0.62500000  1
  Sc  Sc0_2  1  0.22134597  0.77865403  0.12500000  1
  Sc  Sc0_3  1  0.22134597  0.77865403  0.62500000  1
  Sc  Sc0_4  1  0.72134597  0.27865403  0.12500000  1
  Sc  Sc0_5  1  0.72134597  0.27865403  0.62500000  1
  Sc  Sc0_6  1  0.72134597  0.77865403  0.12500000  1
  Sc  Sc0_7  1  0.72134597  0.77865403  0.62500000  1
  Sc  Sc1_0  1  0.27865403  0.22134598  0.37500000  1
  Sc  Sc1_1  1  0.27865403  0.22134598  0.87500000  1
  Sc  Sc1_2  1  0.27865403  0.72134598  0.37500000  1
  Sc  Sc1_3  1  0.27865403  0.72134598  0.87500000  1
  Sc  Sc1_4  1  0.77865403  0.22134598  0.37500000  1
  Sc  Sc1_5  1  0.77865403  0.22134598  0.87500000  1
  Sc  Sc1_6  1  0.77865403  0.72134598  0.37500000  1
  Sc  Sc1_7  1  0.77865403  0.72134598  0.87500000  1
loop_
_geom_bond_atom_site_label_1
_geom_bond_atom_site_label_2
_geom_bond_distance
_geom_bond_site_symmetry_2
Mg0_0 Mg1_4 3.168747 1_455
Mg0_0 Mg1_2 3.168747 1_555
Mg0_0 Sc1_5 3.177936 1_454
Mg0_0 Sc1_4 3.177936 1_455
Mg0_0 Sc1_2 3.177936 1_555
Mg0_0 Sc1_3 3.177936 1_554
Mg0_0 Mg3_0 3.195233 1_555
Mg0_0 Mg3_1 3.195233 1_554
Mg0_0 Sc0_2 3.210837 1_555
Mg0_0 Sc0_4 3.210837 1_455
Mg0_0 Mg0_6 3.269681 1_555
Mg0_0 Mg0_6 3.269681 1_445
Mg0_1 Mg1_3 3.168747 1_555
Mg0_1 Mg1_5 3.168747 1_455
Mg0_1 Sc1_5 3.177936 1_455
Mg0_1 Sc1_4 3.177936 1_455
Mg0_1 Sc1_2 3.177936 1_555
Mg0_1 Sc1_3 3.177936 1_555
Mg0_1 Mg3_0 3.195233 1_555
Mg0_1 Mg3_1 3.195233 1_555
Mg0_1 Sc0_5 3.210837 1_455
Mg0_1 Sc0_3 3.210837 1_555
Mg0_1 Mg0_7 3.269681 1_555
Mg0_1 Mg0_7 3.269681 1_445
Mg0_2 Mg1_6 3.168747 1_455
Mg0_2 Mg1_0 3.168747 1_565
Mg0_2 Sc1_6 3.177936 1_455
Mg0_2 Sc1_7 3.177936 1_454
Mg0_2 Sc1_0 3.177936 1_565
Mg0_2 Sc1_1 3.177936 1_564
Mg0_2 Mg3_2 3.195233 1_555
Mg0_2 Mg3_3 3.195233 1_554
Mg0_2 Sc0_0 3.210837 1_565
Mg0_2 Sc0_6 3.210837 1_455
Mg0_2 Mg0_4 3.269681 1_455
Mg0_2 Mg0_4 3.269681 1_565
Mg0_3 Mg1_7 3.168747 1_455
Mg0_3 Mg1_1 3.168747 1_565
Mg0_3 Sc1_6 3.177936 1_455
Mg0_3 Sc1_7 3.177936 1_455
Mg0_3 Sc1_0 3.177936 1_565
Mg0_3 Sc1_1 3.177936 1_565
Mg0_3 Mg3_3 3.195233 1_555
Mg0_3 Mg3_2 3.195233 1_555
Mg0_3 Sc0_1 3.210837 1_565
Mg0_3 Sc0_7 3.210837 1_455
Mg0_3 Mg0_5 3.269681 1_565
Mg0_3 Mg0_5 3.269681 1_455
Mg0_4 Mg1_0 3.168747 1_555
Mg0_4 Mg1_6 3.168747 1_555
Mg0_4 Sc1_1 3.177936 1_554
Mg0_4 Sc1_0 3.177936 1_555
Mg0_4 Sc1_6 3.177936 1_555
Mg0_4 Sc1_7 3.177936 1_554
Mg0_4 Mg3_5 3.195233 1_554
Mg0_4 Mg3_4 3.195233 1_555
Mg0_4 Sc0_6 3.210837 1_555
Mg0_4 Sc0_0 3.210837 1_555
Mg0_5 Mg1_1 3.168747 1_555
Mg0_5 Mg1_7 3.168747 1_555
Mg0_5 Sc1_1 3.177936 1_555
Mg0_5 Sc1_0 3.177936 1_555
Mg0_5 Sc1_6 3.177936 1_555
Mg0_5 Sc1_7 3.177936 1_555
Mg0_5 Mg3_5 3.195233 1_555
Mg0_5 Mg3_4 3.195233 1_555
Mg0_5 Sc0_1 3.210837 1_555
Mg0_5 Sc0_7 3.210837 1_555
Mg0_6 Mg1_2 3.168747 1_555
Mg0_6 Mg1_4 3.168747 1_565
Mg0_6 Sc1_2 3.177936 1_555
Mg0_6 Sc1_3 3.177936 1_554
Mg0_6 Sc1_5 3.177936 1_564
Mg0_6 Sc1_4 3.177936 1_565
Mg0_6 Mg3_6 3.195233 1_555
Mg0_6 Mg3_7 3.195233 1_554
Mg0_6 Sc0_2 3.210837 1_555
Mg0_6 Sc0_4 3.210837 1_565
Mg0_7 Mg1_3 3.168747 1_555
Mg0_7 Mg1_5 3.168747 1_565
Mg0_7 Sc1_3 3.177936 1_555
Mg0_7 Sc1_2 3.177936 1_555
Mg0_7 Sc1_5 3.177936 1_565
Mg0_7 Sc1_4 3.177936 1_565
Mg0_7 Mg3_6 3.195233 1_555
Mg0_7 Mg3_7 3.195233 1_555
Mg0_7 Sc0_5 3.210837 1_565
Mg0_7 Sc0_3 3.210837 1_555
Mg1_0 Mg3_4 3.165916 1_555
Mg1_0 Mg3_5 3.165916 1_554
Mg1_0 Mg3_3 3.165916 1_544
Mg1_0 Mg3_2 3.165916 1_545
Mg1_0 Mg2_0 3.195233 1_555
Mg1_0 Mg2_1 3.195233 1_554
Mg1_0 Sc0_4 3.207123 1_555
Mg1_0 Sc0_2 3.207123 1_545
Mg1_0 Mg1_6 3.269681 1_445
Mg1_0 Mg1_6 3.269681 1_555
Mg1_1 Mg3_5 3.165916 1_555
Mg1_1 Mg3_4 3.165916 1_555
Mg1_1 Mg3_2 3.165916 1_545
Mg1_1 Mg3_3 3.165916 1_545
Mg1_1 Mg2_1 3.195233 1_555
Mg1_1 Mg2_0 3.195233 1_555
Mg1_1 Sc0_5 3.207123 1_555
Mg1_1 Sc0_3 3.207123 1_545
Mg1_1 Mg1_7 3.269681 1_555
Mg1_1 Mg1_7 3.269681 1_445
Mg1_2 Mg3_7 3.165916 1_554
Mg1_2 Mg3_6 3.165916 1_555
Mg1_2 Mg3_1 3.165916 1_554
Mg1_2 Mg3_0 3.165916 1_555
Mg1_2 Mg2_3 3.195233 1_554
Mg1_2 Mg2_2 3.195233 1_555
Mg1_2 Sc0_6 3.207123 1_555
Mg1_2 Sc0_0 3.207123 1_555
Mg1_2 Mg1_4 3.269681 1_565
Mg1_2 Mg1_4 3.269681 1_455
Mg1_3 Mg3_6 3.165916 1_555
Mg1_3 Mg3_7 3.165916 1_555
Mg1_3 Mg3_1 3.165916 1_555
Mg1_3 Mg3_0 3.165916 1_555
Mg1_3 Mg2_2 3.195233 1_555
Mg1_3 Mg2_3 3.195233 1_555
Mg1_3 Sc0_7 3.207123 1_555
Mg1_3 Sc0_1 3.207123 1_555
Mg1_3 Mg1_5 3.269681 1_565
Mg1_3 Mg1_5 3.269681 1_455
Mg1_4 Mg3_7 3.165916 1_544
Mg1_4 Mg3_6 3.165916 1_545
Mg1_4 Mg3_0 3.165916 1_655
Mg1_4 Mg3_1 3.165916 1_654
Mg1_4 Mg2_5 3.195233 1_554
Mg1_4 Mg2_4 3.195233 1_555
Mg1_4 Sc0_0 3.207123 1_655
Mg1_4 Sc0_6 3.207123 1_545
Mg1_5 Mg3_6 3.165916 1_545
Mg1_5 Mg3_0 3.165916 1_655
Mg1_5 Mg3_7 3.165916 1_545
Mg1_5 Mg3_1 3.165916 1_655
Mg1_5 Mg2_4 3.195233 1_555
Mg1_5 Mg2_5 3.195233 1_555
Mg1_5 Sc0_1 3.207123 1_655
Mg1_5 Sc0_7 3.207123 1_545
Mg1_6 Mg3_4 3.165916 1_555
Mg1_6 Mg3_3 3.165916 1_654
Mg1_6 Mg3_2 3.165916 1_655
Mg1_6 Mg3_5 3.165916 1_554
Mg1_6 Mg2_7 3.195233 1_554
Mg1_6 Mg2_6 3.195233 1_555
Mg1_6 Sc0_2 3.207123 1_655
Mg1_6 Sc0_4 3.207123 1_555
Mg1_7 Mg3_4 3.165916 1_555
Mg1_7 Mg3_3 3.165916 1_655
Mg1_7 Mg3_2 3.165916 1_655
Mg1_7 Mg3_5 3.165916 1_555
Mg1_7 Mg2_7 3.195233 1_555
Mg1_7 Mg2_6 3.195233 1_555
Mg1_7 Sc0_3 3.207123 1_655
Mg1_7 Sc0_5 3.207123 1_555
Mg2_0 Mg3_4 3.168747 1_555
Mg2_0 Mg3_2 3.168747 1_545
Mg2_0 Sc0_4 3.177936 1_555
Mg2_0 Sc0_3 3.177936 1_545
Mg2_0 Sc0_5 3.177936 1_555
Mg2_0 Sc0_2 3.177936 1_545
Mg2_0 Sc1_4 3.210837 1_555
Mg2_0 Sc1_2 3.210837 1_545
Mg2_0 Mg2_6 3.269681 1_445
Mg2_0 Mg2_6 3.269681 1_555
Mg2_1 Mg3_5 3.168747 1_555
Mg2_1 Mg3_3 3.168747 1_545
Mg2_1 Sc0_2 3.177936 1_546
Mg2_1 Sc0_4 3.177936 1_556
Mg2_1 Sc0_3 3.177936 1_545
Mg2_1 Sc0_5 3.177936 1_555
Mg2_1 Sc1_5 3.210837 1_555
Mg2_1 Sc1_3 3.210837 1_545
Mg2_1 Mg2_7 3.269681 1_445
Mg2_1 Mg2_7 3.269681 1_555
Mg2_2 Mg3_6 3.168747 1_555
Mg2_2 Mg3_0 3.168747 1_555
Mg2_2 Sc0_0 3.177936 1_555
Mg2_2 Sc0_7 3.177936 1_555
Mg2_2 Sc0_1 3.177936 1_555
Mg2_2 Sc0_6 3.177936 1_555
Mg2_2 Sc1_0 3.210837 1_555
Mg2_2 Sc1_6 3.210837 1_555
Mg2_2 Mg2_4 3.269681 1_565
Mg2_2 Mg2_4 3.269681 1_455
Mg2_3 Mg3_7 3.168747 1_555
Mg2_3 Mg3_1 3.168747 1_555
Mg2_3 Sc0_6 3.177936 1_556
Mg2_3 Sc0_1 3.177936 1_555
Mg2_3 Sc0_7 3.177936 1_555
Mg2_3 Sc0_0 3.177936 1_556
Mg2_3 Sc1_1 3.210837 1_555
Mg2_3 Sc1_7 3.210837 1_555
Mg2_3 Mg2_5 3.269681 1_455
Mg2_3 Mg2_5 3.269681 1_565
Mg2_4 Mg3_6 3.168747 1_545
Mg2_4 Mg3_0 3.168747 1_655
Mg2_4 Sc0_6 3.177936 1_545
Mg2_4 Sc0_0 3.177936 1_655
Mg2_4 Sc0_7 3.177936 1_545
Mg2_4 Sc0_1 3.177936 1_655
Mg2_4 Sc1_0 3.210837 1_655
Mg2_4 Sc1_6 3.210837 1_545
Mg2_5 Mg3_7 3.168747 1_545
Mg2_5 Mg3_1 3.168747 1_655
Mg2_5 Sc0_0 3.177936 1_656
Mg2_5 Sc0_6 3.177936 1_546
Mg2_5 Sc0_7 3.177936 1_545
Mg2_5 Sc0_1 3.177936 1_655
Mg2_5 Sc1_1 3.210837 1_655
Mg2_5 Sc1_7 3.210837 1_545
Mg2_6 Mg3_4 3.168747 1_555
Mg2_6 Mg3_2 3.168747 1_655
Mg2_6 Sc0_3 3.177936 1_655
Mg2_6 Sc0_2 3.177936 1_655
Mg2_6 Sc0_4 3.177936 1_555
Mg2_6 Sc0_5 3.177936 1_555
Mg2_6 Sc1_4 3.210837 1_555
Mg2_6 Sc1_2 3.210837 1_655
Mg2_7 Mg3_5 3.168747 1_555
Mg2_7 Mg3_3 3.168747 1_655
Mg2_7 Sc0_3 3.177936 1_655
Mg2_7 Sc0_4 3.177936 1_556
Mg2_7 Sc0_5 3.177936 1_555
Mg2_7 Sc0_2 3.177936 1_656
Mg2_7 Sc1_5 3.210837 1_555
Mg2_7 Sc1_3 3.210837 1_655
Mg3_0 Sc1_4 3.207123 1_455
Mg3_0 Sc1_2 3.207123 1_555
Mg3_0 Mg3_6 3.269681 1_445
Mg3_0 Mg3_6 3.269681 1_555
Mg3_1 Sc1_5 3.207123 1_455
Mg3_1 Sc1_3 3.207123 1_555
Mg3_1 Mg3_7 3.269681 1_555
Mg3_1 Mg3_7 3.269681 1_445
Mg3_2 Sc1_6 3.207123 1_455
Mg3_2 Sc1_0 3.207123 1_565
Mg3_2 Mg3_4 3.269681 1_455
Mg3_2 Mg3_4 3.269681 1_565
Mg3_3 Sc1_7 3.207123 1_455
Mg3_3 Sc1_1 3.207123 1_565
Mg3_3 Mg3_5 3.269681 1_455
Mg3_3 Mg3_5 3.269681 1_565
Mg3_4 Sc1_0 3.207123 1_555
Mg3_4 Sc1_6 3.207123 1_555
Mg3_5 Sc1_1 3.207123 1_555
Mg3_5 Sc1_7 3.207123 1_555
Mg3_6 Sc1_2 3.207123 1_555
Mg3_6 Sc1_4 3.207123 1_565
Mg3_7 Sc1_3 3.207123 1_555
Mg3_7 Sc1_5 3.207123 1_565
Sc0_0 Sc1_1 3.197779 1_554
Sc0_0 Sc1_0 3.197779 1_555
Sc0_0 Sc0_6 3.269681 1_555
Sc0_0 Sc0_6 3.269681 1_445
Sc0_1 Sc1_1 3.197779 1_555
Sc0_1 Sc1_0 3.197779 1_555
Sc0_1 Sc0_7 3.269681 1_555
Sc0_1 Sc0_7 3.269681 1_445
Sc0_2 Sc1_2 3.197779 1_555
Sc0_2 Sc1_3 3.197779 1_554
Sc0_2 Sc0_4 3.269681 1_455
Sc0_2 Sc0_4 3.269681 1_565
Sc0_3 Sc1_3 3.197779 1_555
Sc0_3 Sc1_2 3.197779 1_555
Sc0_3 Sc0_5 3.269681 1_565
Sc0_3 Sc0_5 3.269681 1_455
Sc0_4 Sc1_4 3.197779 1_555
Sc0_4 Sc1_5 3.197779 1_554
Sc0_5 Sc1_4 3.197779 1_555
Sc0_5 Sc1_5 3.197779 1_555
Sc0_6 Sc1_6 3.197779 1_555
Sc0_6 Sc1_7 3.197779 1_554
Sc0_7 Sc1_6 3.197779 1_555
Sc0_7 Sc1_7 3.197779 1_555
Sc1_0 Sc1_6 3.269681 1_445
Sc1_0 Sc1_6 3.269681 1_555
Sc1_1 Sc1_7 3.269681 1_445
Sc1_1 Sc1_7 3.269681 1_555
Sc1_2 Sc1_4 3.269681 1_455
Sc1_2 Sc1_4 3.269681 1_565
Sc1_3 Sc1_5 3.269681 1_455
Sc1_3 Sc1_5 3.269681 1_565
