# generated using pymatgen
data_Mg5Si6
_symmetry_space_group_name_H-M   'P 1'
_cell_length_a   5.10751300
_cell_length_b   6.76179269
_cell_length_c   12.26149527
_cell_angle_alpha   83.64490135
_cell_angle_beta   87.45560683
_cell_angle_gamma   88.35382088
_symmetry_Int_Tables_number   1
_chemical_formula_structural   Mg5Si6
_chemical_formula_sum   'Mg10 Si12'
_cell_volume   420.32426359
_cell_formula_units_Z   2
loop_
 _symmetry_equiv_pos_site_id
 _symmetry_equiv_pos_as_xyz
  1  'x, y, z'
loop_
 _atom_site_type_symbol
 _atom_site_label
 _atom_site_symmetry_multiplicity
 _atom_site_fract_x
 _atom_site_fract_y
 _atom_site_fract_z
 _atom_site_occupancy
  Mg  Mg0  1  0.92275000  0.11713100  0.98926500  1
  Mg  Mg1  1  0.50847500  0.29061400  0.59456600  1
  Mg  Mg2  1  0.00515100  0.09536900  0.41855700  1
  Mg  Mg3  1  0.06719400  0.64777100  0.52696300  1
  Mg  Mg4  1  0.53406300  0.91283500  0.83786500  1
  Mg  Mg5  1  0.63638100  0.22902700  0.21196200  1
  Mg  Mg6  1  0.46052700  0.81178400  0.33833200  1
  Mg  Mg7  1  0.00376300  0.00269600  0.67153900  1
  Mg  Mg8  1  0.38318900  0.40564900  0.97527500  1
  Mg  Mg9  1  0.40456300  0.79214700  0.08369800  1
  Si  Si0  1  0.84045700  0.53409600  0.04230100  1
  Si  Si1  1  0.05306800  0.76486500  0.90938400  1
  Si  Si2  1  0.58224000  0.91211600  0.53939600  1
  Si  Si3  1  0.83516400  0.49529500  0.35622100  1
  Si  Si4  1  0.13654800  0.05923000  0.19809300  1
  Si  Si5  1  0.20533300  0.25832900  0.79951300  1
  Si  Si6  1  0.64724100  0.64663100  0.69074200  1
  Si  Si7  1  0.36366100  0.40734400  0.38847800  1
  Si  Si8  1  0.14581900  0.43949300  0.19983800  1
  Si  Si9  1  0.16472100  0.60647900  0.74513000  1
  Si  Si10  1  0.71967800  0.31786800  0.79205200  1
  Si  Si11  1  0.88001100  0.75686100  0.19446100  1
loop_
_geom_bond_atom_site_label_1
_geom_bond_atom_site_label_2
_geom_bond_distance
_geom_bond_site_symmetry_2
Mg0 Si1 2.728290 1_645
Mg0 Si5 2.774379 1_655
Mg0 Si4 2.811376 1_656
Mg0 Si10 2.860185 1_555
Mg0 Si0 2.976959 1_556
Mg1 Si7 2.691911 1_555
Mg1 Si10 2.720895 1_555
Mg1 Si2 2.730374 1_545
Mg1 Si5 2.883117 1_555
Mg1 Si6 2.913562 1_555
Mg2 Si4 2.791637 1_555
Mg2 Si2 2.803503 1_445
Mg2 Si7 2.815794 1_555
Mg2 Si3 2.849076 1_455
Mg3 Si9 2.725245 1_555
Mg3 Si3 2.760204 1_455
Mg3 Si7 2.839103 1_555
Mg3 Si6 2.872033 1_455
Mg3 Si2 3.020879 1_455
Mg4 Si6 2.719360 1_555
Mg4 Si1 2.749748 1_555
Mg4 Si5 2.845932 1_565
Mg4 Si10 2.911420 1_565
Mg4 Si1 2.942232 1_655
Mg5 Si4 2.776561 1_655
Mg5 Si8 2.847200 1_555
Mg5 Si4 2.848616 1_555
Mg5 Si7 2.879586 1_555
Mg5 Si3 2.893214 1_555
Mg5 Si0 2.941136 1_555
Mg5 Si8 2.991515 1_655
Mg6 Si2 2.730423 1_555
Mg6 Si11 2.757537 1_555
Mg6 Si7 2.789284 1_555
Mg6 Si4 2.819768 1_565
Mg6 Si3 2.826177 1_555
Mg7 Si5 2.712219 1_555
Mg7 Si9 2.841120 1_545
Mg7 Si2 2.870664 1_445
Mg7 Si10 3.026491 1_455
Mg7 Si6 3.042418 1_445
Mg7 Si1 3.187208 1_545
Mg8 Si5 2.676387 1_555
Mg8 Si0 2.707272 1_556
Mg8 Si10 2.871744 1_555
Mg8 Si1 2.974331 1_555
Mg8 Si8 2.988481 1_556
Mg8 Si0 2.988517 1_456
Mg9 Si4 2.711284 1_565
Mg9 Si11 2.825974 1_555
Mg9 Si0 2.851559 1_555
Mg9 Si1 2.876156 1_554
Mg9 Si11 2.953172 1_455
Mg9 Si8 2.953436 1_555
Si0 Si1 2.376436 1_654
Si0 Si11 2.542379 1_555
Si0 Si8 2.551377 1_655
Si1 Si9 2.422566 1_555
Si2 Si6 2.461605 1_555
Si3 Si8 2.488437 1_655
Si3 Si7 2.501044 1_555
Si3 Si7 2.783316 1_655
Si4 Si8 2.575527 1_555
Si5 Si9 2.380389 1_555
Si6 Si9 2.538607 1_555
Si6 Si9 2.753046 1_655
Si7 Si8 2.595862 1_555
Si10 Si6 2.450314 1_555
Si10 Si5 2.505573 1_655
Si10 Si5 2.665141 1_555
Si11 Si4 2.465410 1_665
Si11 Si8 2.502384 1_655
Si11 Si3 2.514140 1_555
