# generated using pymatgen
data_LaY
_symmetry_space_group_name_H-M   'P 1'
_cell_length_a   36.34800747
_cell_length_b   36.34800747
_cell_length_c   36.34800840
_cell_angle_alpha   11.60659671
_cell_angle_beta   11.60659671
_cell_angle_gamma   11.60659424
_symmetry_Int_Tables_number   1
_chemical_formula_structural   LaY
_chemical_formula_sum   'La24 Y24'
_cell_volume   1689.15998044
_cell_formula_units_Z   24
loop_
 _symmetry_equiv_pos_site_id
 _symmetry_equiv_pos_as_xyz
  1  'x, y, z'
loop_
 _atom_site_type_symbol
 _atom_site_label
 _atom_site_symmetry_multiplicity
 _atom_site_fract_x
 _atom_site_fract_y
 _atom_site_fract_z
 _atom_site_occupancy
  La  La0_0  1  0.19393400  0.19393400  0.19393400  1
  La  La0_1  1  0.19393400  0.19393400  0.69393400  1
  La  La0_2  1  0.19393400  0.69393400  0.19393400  1
  La  La0_3  1  0.19393400  0.69393400  0.69393400  1
  La  La0_4  1  0.69393400  0.19393400  0.19393400  1
  La  La0_5  1  0.69393400  0.19393400  0.69393400  1
  La  La0_6  1  0.69393400  0.69393400  0.19393400  1
  La  La0_7  1  0.69393400  0.69393400  0.69393400  1
  La  La1_0  1  0.44444150  0.44444150  0.44444150  1
  La  La1_1  1  0.44444150  0.44444150  0.94444150  1
  La  La1_2  1  0.44444150  0.94444150  0.44444150  1
  La  La1_3  1  0.44444150  0.94444150  0.94444150  1
  La  La1_4  1  0.94444150  0.44444150  0.44444150  1
  La  La1_5  1  0.94444150  0.44444150  0.94444150  1
  La  La1_6  1  0.94444150  0.94444150  0.44444150  1
  La  La1_7  1  0.94444150  0.94444150  0.94444150  1
  La  La2_0  1  0.05606200  0.05606200  0.05606200  1
  La  La2_1  1  0.05606200  0.05606200  0.55606200  1
  La  La2_2  1  0.05606200  0.55606200  0.05606200  1
  La  La2_3  1  0.05606200  0.55606200  0.55606200  1
  La  La2_4  1  0.55606200  0.05606200  0.05606200  1
  La  La2_5  1  0.55606200  0.05606200  0.55606200  1
  La  La2_6  1  0.55606200  0.55606200  0.05606200  1
  La  La2_7  1  0.55606200  0.55606200  0.55606200  1
  Y  Y0_0  1  0.30614550  0.30614550  0.30614550  1
  Y  Y0_1  1  0.30614550  0.30614550  0.80614550  1
  Y  Y0_2  1  0.30614550  0.80614550  0.30614550  1
  Y  Y0_3  1  0.30614550  0.80614550  0.80614550  1
  Y  Y0_4  1  0.80614550  0.30614550  0.30614550  1
  Y  Y0_5  1  0.80614550  0.30614550  0.80614550  1
  Y  Y0_6  1  0.80614550  0.80614550  0.30614550  1
  Y  Y0_7  1  0.80614550  0.80614550  0.80614550  1
  Y  Y1_0  1  0.49924100  0.49924100  0.49924100  1
  Y  Y1_1  1  0.49924100  0.49924100  0.99924100  1
  Y  Y1_2  1  0.49924100  0.99924100  0.49924100  1
  Y  Y1_3  1  0.49924100  0.99924100  0.99924100  1
  Y  Y1_4  1  0.99924100  0.49924100  0.49924100  1
  Y  Y1_5  1  0.99924100  0.49924100  0.99924100  1
  Y  Y1_6  1  0.99924100  0.99924100  0.49924100  1
  Y  Y1_7  1  0.99924100  0.99924100  0.99924100  1
  Y  Y2_0  1  0.25017600  0.25017600  0.25017600  1
  Y  Y2_1  1  0.25017600  0.25017600  0.75017600  1
  Y  Y2_2  1  0.25017600  0.75017600  0.25017600  1
  Y  Y2_3  1  0.25017600  0.75017600  0.75017600  1
  Y  Y2_4  1  0.75017600  0.25017600  0.25017600  1
  Y  Y2_5  1  0.75017600  0.25017600  0.75017600  1
  Y  Y2_6  1  0.75017600  0.75017600  0.25017600  1
  Y  Y2_7  1  0.75017600  0.75017600  0.75017600  1
loop_
_geom_bond_atom_site_label_1
_geom_bond_atom_site_label_2
_geom_bond_distance
_geom_bond_site_symmetry_2
La0_0 La0_6 3.675276 1_455
La0_0 La0_6 3.675276 1_545
La0_0 La0_3 3.675277 1_554
La0_0 La0_5 3.675277 1_554
La0_0 La0_5 3.675277 1_455
La0_0 La0_3 3.675277 1_545
La0_0 Y1_6 3.703378 1_445
La0_0 Y1_5 3.703378 1_454
La0_0 Y1_3 3.703378 1_544
La0_0 La2_4 3.771875 1_555
La0_0 La2_2 3.771875 1_555
La0_0 La2_1 3.771876 1_555
La0_1 La0_7 3.675276 1_455
La0_1 La0_7 3.675276 1_545
La0_1 La0_2 3.675277 1_546
La0_1 La0_4 3.675277 1_456
La0_1 La0_2 3.675277 1_555
La0_1 La0_4 3.675277 1_555
La0_1 Y1_7 3.703378 1_445
La0_1 Y1_4 3.703378 1_455
La0_1 Y1_2 3.703378 1_545
La0_1 La2_5 3.771875 1_555
La0_1 La2_3 3.771875 1_555
La0_1 La2_0 3.771876 1_556
La0_2 La0_4 3.675276 1_465
La0_2 La0_4 3.675276 1_555
La0_2 La0_7 3.675277 1_554
La0_2 La0_7 3.675277 1_455
La0_2 Y1_4 3.703378 1_455
La0_2 Y1_7 3.703378 1_454
La0_2 Y1_1 3.703378 1_554
La0_2 La2_6 3.771875 1_555
La0_2 La2_0 3.771875 1_565
La0_2 La2_3 3.771876 1_555
La0_3 La0_5 3.675276 1_555
La0_3 La0_5 3.675276 1_465
La0_3 La0_6 3.675277 1_456
La0_3 La0_6 3.675277 1_555
La0_3 Y1_5 3.703378 1_455
La0_3 Y1_0 3.703378 1_555
La0_3 Y1_6 3.703378 1_455
La0_3 La2_7 3.771875 1_555
La0_3 La2_1 3.771875 1_565
La0_3 La2_2 3.771876 1_556
La0_4 La0_7 3.675277 1_554
La0_4 La0_7 3.675277 1_545
La0_4 Y1_2 3.703378 1_545
La0_4 Y1_7 3.703378 1_544
La0_4 Y1_1 3.703378 1_554
La0_4 La2_6 3.771875 1_555
La0_4 La2_0 3.771875 1_655
La0_4 La2_5 3.771876 1_555
La0_5 La0_6 3.675277 1_546
La0_5 La0_6 3.675277 1_555
La0_5 Y1_3 3.703378 1_545
La0_5 Y1_0 3.703378 1_555
La0_5 Y1_6 3.703378 1_545
La0_5 La2_7 3.771875 1_555
La0_5 La2_1 3.771875 1_655
La0_5 La2_4 3.771876 1_556
La0_6 Y1_0 3.703378 1_555
La0_6 Y1_3 3.703378 1_554
La0_6 Y1_5 3.703378 1_554
La0_6 La2_2 3.771875 1_655
La0_6 La2_4 3.771875 1_565
La0_6 La2_7 3.771876 1_555
La0_7 Y1_1 3.703378 1_555
La0_7 Y1_4 3.703378 1_555
La0_7 Y1_2 3.703378 1_555
La0_7 La2_3 3.771875 1_655
La0_7 La2_5 3.771875 1_565
La0_7 La2_6 3.771876 1_556
La1_0 Y2_1 3.665529 1_555
La1_0 Y2_4 3.665529 1_555
La1_0 Y2_2 3.665529 1_555
La1_0 La1_6 3.675276 1_545
La1_0 La1_6 3.675276 1_455
La1_0 La1_5 3.675277 1_554
La1_0 La1_3 3.675277 1_545
La1_0 La1_3 3.675277 1_554
La1_0 La1_5 3.675277 1_455
La1_0 Y0_4 3.734001 1_555
La1_0 Y0_2 3.734001 1_555
La1_0 Y0_1 3.734002 1_555
La1_1 Y2_0 3.665529 1_556
La1_1 Y2_5 3.665529 1_555
La1_1 Y2_3 3.665529 1_555
La1_1 La1_7 3.675276 1_545
La1_1 La1_7 3.675276 1_455
La1_1 La1_2 3.675277 1_546
La1_1 La1_4 3.675277 1_555
La1_1 La1_4 3.675277 1_456
La1_1 La1_2 3.675277 1_555
La1_1 Y0_5 3.734001 1_555
La1_1 Y0_3 3.734001 1_555
La1_1 Y0_0 3.734002 1_556
La1_2 Y2_3 3.665529 1_555
La1_2 Y2_6 3.665529 1_555
La1_2 Y2_0 3.665529 1_565
La1_2 La1_4 3.675276 1_465
La1_2 La1_4 3.675276 1_555
La1_2 La1_7 3.675277 1_554
La1_2 La1_7 3.675277 1_455
La1_2 Y0_0 3.734001 1_565
La1_2 Y0_6 3.734001 1_555
La1_2 Y0_3 3.734002 1_555
La1_3 Y2_2 3.665529 1_556
La1_3 Y2_1 3.665529 1_565
La1_3 Y2_7 3.665529 1_555
La1_3 La1_5 3.675276 1_555
La1_3 La1_5 3.675276 1_465
La1_3 La1_6 3.675277 1_456
La1_3 La1_6 3.675277 1_555
La1_3 Y0_1 3.734001 1_565
La1_3 Y0_7 3.734001 1_555
La1_3 Y0_2 3.734002 1_556
La1_4 Y2_5 3.665529 1_555
La1_4 Y2_6 3.665529 1_555
La1_4 Y2_0 3.665529 1_655
La1_4 La1_7 3.675277 1_545
La1_4 La1_7 3.675277 1_554
La1_4 Y0_0 3.734001 1_655
La1_4 Y0_6 3.734001 1_555
La1_4 Y0_5 3.734002 1_555
La1_5 Y2_4 3.665529 1_556
La1_5 Y2_1 3.665529 1_655
La1_5 Y2_7 3.665529 1_555
La1_5 La1_6 3.675277 1_555
La1_5 La1_6 3.675277 1_546
La1_5 Y0_1 3.734001 1_655
La1_5 Y0_7 3.734001 1_555
La1_5 Y0_4 3.734002 1_556
La1_6 Y2_7 3.665529 1_555
La1_6 Y2_4 3.665529 1_565
La1_6 Y2_2 3.665529 1_655
La1_6 Y0_2 3.734001 1_655
La1_6 Y0_4 3.734001 1_565
La1_6 Y0_7 3.734002 1_555
La1_7 Y2_6 3.665529 1_556
La1_7 Y2_5 3.665529 1_565
La1_7 Y2_3 3.665529 1_655
La1_7 Y0_5 3.734001 1_565
La1_7 Y0_3 3.734001 1_655
La1_7 Y0_6 3.734002 1_556
La2_0 Y2_1 3.652163 1_554
La2_0 Y2_4 3.652163 1_455
La2_0 Y2_2 3.652163 1_545
La2_0 La2_6 3.675276 1_545
La2_0 La2_6 3.675276 1_455
La2_0 La2_5 3.675277 1_554
La2_0 La2_3 3.675277 1_554
La2_0 La2_5 3.675277 1_455
La2_0 La2_3 3.675277 1_545
La2_1 Y2_0 3.652163 1_555
La2_1 Y2_3 3.652163 1_545
La2_1 Y2_5 3.652163 1_455
La2_1 La2_7 3.675276 1_455
La2_1 La2_7 3.675276 1_545
La2_1 La2_2 3.675277 1_555
La2_1 La2_4 3.675277 1_456
La2_1 La2_4 3.675277 1_555
La2_1 La2_2 3.675277 1_546
La2_2 Y2_3 3.652163 1_554
La2_2 Y2_0 3.652163 1_555
La2_2 Y2_6 3.652163 1_455
La2_2 La2_4 3.675276 1_555
La2_2 La2_4 3.675276 1_465
La2_2 La2_7 3.675277 1_554
La2_2 La2_7 3.675277 1_455
La2_3 Y2_2 3.652163 1_555
La2_3 Y2_7 3.652163 1_455
La2_3 Y2_1 3.652163 1_555
La2_3 La2_5 3.675276 1_465
La2_3 La2_5 3.675276 1_555
La2_3 La2_6 3.675277 1_456
La2_3 La2_6 3.675277 1_555
La2_4 Y2_5 3.652163 1_554
La2_4 Y2_0 3.652163 1_555
La2_4 Y2_6 3.652163 1_545
La2_4 La2_7 3.675277 1_554
La2_4 La2_7 3.675277 1_545
La2_5 Y2_4 3.652163 1_555
La2_5 Y2_7 3.652163 1_545
La2_5 Y2_1 3.652163 1_555
La2_5 La2_6 3.675277 1_555
La2_5 La2_6 3.675277 1_546
La2_6 Y2_7 3.652163 1_554
La2_6 Y2_2 3.652163 1_555
La2_6 Y2_4 3.652163 1_555
La2_7 Y2_6 3.652163 1_555
La2_7 Y2_3 3.652163 1_555
La2_7 Y2_5 3.652163 1_555
Y0_0 Y1_1 3.562965 1_554
Y0_0 Y1_2 3.562965 1_545
Y0_0 Y1_4 3.562965 1_455
Y0_0 Y0_6 3.675276 1_545
Y0_0 Y0_6 3.675276 1_455
Y0_0 Y0_3 3.675277 1_545
Y0_0 Y0_5 3.675277 1_455
Y0_0 Y0_5 3.675277 1_554
Y0_0 Y0_3 3.675277 1_554
Y0_1 Y1_0 3.562965 1_555
Y0_1 Y1_3 3.562965 1_545
Y0_1 Y1_5 3.562965 1_455
Y0_1 Y0_7 3.675276 1_455
Y0_1 Y0_7 3.675276 1_545
Y0_1 Y0_4 3.675277 1_555
Y0_1 Y0_2 3.675277 1_555
Y0_1 Y0_4 3.675277 1_456
Y0_1 Y0_2 3.675277 1_546
Y0_2 Y1_3 3.562965 1_554
Y0_2 Y1_6 3.562965 1_455
Y0_2 Y1_0 3.562965 1_555
Y0_2 Y0_4 3.675276 1_465
Y0_2 Y0_4 3.675276 1_555
Y0_2 Y0_7 3.675277 1_455
Y0_2 Y0_7 3.675277 1_554
Y0_3 Y1_2 3.562965 1_555
Y0_3 Y1_1 3.562965 1_555
Y0_3 Y1_7 3.562965 1_455
Y0_3 Y0_5 3.675276 1_555
Y0_3 Y0_5 3.675276 1_465
Y0_3 Y0_6 3.675277 1_555
Y0_3 Y0_6 3.675277 1_456
Y0_4 Y1_5 3.562965 1_554
Y0_4 Y1_6 3.562965 1_545
Y0_4 Y1_0 3.562965 1_555
Y0_4 Y0_7 3.675277 1_545
Y0_4 Y0_7 3.675277 1_554
Y0_5 Y1_4 3.562965 1_555
Y0_5 Y1_1 3.562965 1_555
Y0_5 Y1_7 3.562965 1_545
Y0_5 Y0_6 3.675277 1_555
Y0_5 Y0_6 3.675277 1_546
Y0_6 Y1_7 3.562965 1_554
Y0_6 Y1_2 3.562965 1_555
Y0_6 Y1_4 3.562965 1_555
Y0_7 Y1_6 3.562965 1_555
Y0_7 Y1_5 3.562965 1_555
Y0_7 Y1_3 3.562965 1_555
Y1_0 Y1_6 3.675276 1_455
Y1_0 Y1_6 3.675276 1_545
Y1_0 Y1_5 3.675277 1_554
Y1_0 Y1_3 3.675277 1_554
Y1_0 Y1_5 3.675277 1_455
Y1_0 Y1_3 3.675277 1_545
Y1_1 Y1_7 3.675276 1_455
Y1_1 Y1_7 3.675276 1_545
Y1_1 Y1_2 3.675277 1_555
Y1_1 Y1_4 3.675277 1_456
Y1_1 Y1_4 3.675277 1_555
Y1_1 Y1_2 3.675277 1_546
Y1_2 Y1_4 3.675276 1_555
Y1_2 Y1_4 3.675276 1_465
Y1_2 Y1_7 3.675277 1_554
Y1_2 Y1_7 3.675277 1_455
Y1_3 Y1_5 3.675276 1_555
Y1_3 Y1_5 3.675276 1_465
Y1_3 Y1_6 3.675277 1_555
Y1_3 Y1_6 3.675277 1_456
Y1_4 Y1_7 3.675277 1_554
Y1_4 Y1_7 3.675277 1_545
Y1_5 Y1_6 3.675277 1_555
Y1_5 Y1_6 3.675277 1_546
Y2_0 Y2_6 3.675276 1_545
Y2_0 Y2_6 3.675276 1_455
Y2_0 Y2_3 3.675277 1_554
Y2_0 Y2_5 3.675277 1_554
Y2_0 Y2_5 3.675277 1_455
Y2_0 Y2_3 3.675277 1_545
Y2_1 Y2_7 3.675276 1_545
Y2_1 Y2_7 3.675276 1_455
Y2_1 Y2_2 3.675277 1_546
Y2_1 Y2_4 3.675277 1_456
Y2_1 Y2_2 3.675277 1_555
Y2_1 Y2_4 3.675277 1_555
Y2_2 Y2_4 3.675276 1_465
Y2_2 Y2_4 3.675276 1_555
Y2_2 Y2_7 3.675277 1_554
Y2_2 Y2_7 3.675277 1_455
Y2_3 Y2_5 3.675276 1_555
Y2_3 Y2_5 3.675276 1_465
Y2_3 Y2_6 3.675277 1_456
Y2_3 Y2_6 3.675277 1_555
Y2_4 Y2_7 3.675277 1_554
Y2_4 Y2_7 3.675277 1_545
Y2_5 Y2_6 3.675277 1_546
Y2_5 Y2_6 3.675277 1_555
