# generated using pymatgen
data_Ca2Ni3O8
_symmetry_space_group_name_H-M   'P 1'
_cell_length_a   6.20025906
_cell_length_b   6.20025906
_cell_length_c   4.93153396
_cell_angle_alpha   72.89553755
_cell_angle_beta   72.89553755
_cell_angle_gamma   56.03442915
_symmetry_Int_Tables_number   1
_chemical_formula_structural   Ca2Ni3O8
_chemical_formula_sum   'Ca2 Ni3 O8'
_cell_volume   148.25316581
_cell_formula_units_Z   1
loop_
 _symmetry_equiv_pos_site_id
 _symmetry_equiv_pos_as_xyz
  1  'x, y, z'
loop_
 _atom_site_type_symbol
 _atom_site_label
 _atom_site_symmetry_multiplicity
 _atom_site_fract_x
 _atom_site_fract_y
 _atom_site_fract_z
 _atom_site_occupancy
  Ca  Ca0  1  0.72173600  0.72173600  0.33735000  1
  Ca  Ca1  1  0.27826400  0.27826400  0.66265000  1
  Ni  Ni0  1  0.00000000  0.00000000  0.50000000  1
  Ni  Ni1  1  0.74743800  0.25256200  0.00000000  1
  Ni  Ni2  1  0.25256200  0.74743800  0.00000000  1
  O  O0  1  0.39930500  0.39930500  0.96191900  1
  O  O1  1  0.60069500  0.60069500  0.03808100  1
  O  O2  1  0.90615700  0.90615700  0.90001000  1
  O  O3  1  0.09384300  0.09384300  0.09999000  1
  O  O4  1  0.32046600  0.87858000  0.61172100  1
  O  O5  1  0.87858000  0.32046600  0.61172100  1
  O  O6  1  0.12142000  0.67953400  0.38827900  1
  O  O7  1  0.67953400  0.12142000  0.38827900  1
loop_
_geom_bond_atom_site_label_1
_geom_bond_atom_site_label_2
_geom_bond_distance
_geom_bond_site_symmetry_2
Ca0 O5 2.248735 1_555
Ca0 O4 2.248735 1_555
Ca0 O1 2.288451 1_555
Ca0 O2 2.413760 1_554
Ca0 O7 2.423974 1_565
Ca0 O6 2.423974 1_655
Ca1 O6 2.248735 1_555
Ca1 O7 2.248735 1_555
Ca1 O0 2.288451 1_555
Ca1 O3 2.413760 1_556
Ca1 O4 2.423974 1_545
Ca1 O5 2.423974 1_455
Ni0 O5 1.883316 1_455
Ni0 O4 1.883316 1_545
Ni0 O7 1.883316 1_455
Ni0 O6 1.883316 1_545
Ni0 O2 1.896433 1_445
Ni0 O3 1.896433 1_555
Ni1 O1 1.861654 1_555
Ni1 O0 1.861654 1_554
Ni1 O7 1.870127 1_555
Ni1 O5 1.870127 1_554
Ni1 O3 1.949468 1_655
Ni1 O2 1.949468 1_544
Ni2 O1 1.861654 1_555
Ni2 O0 1.861654 1_554
Ni2 O6 1.870127 1_555
Ni2 O4 1.870127 1_554
Ni2 O3 1.949468 1_565
Ni2 O2 1.949468 1_454
