# generated using pymatgen
data_Mn(Si2O5)2
_symmetry_space_group_name_H-M   'P 1'
_cell_length_a   7.45135400
_cell_length_b   7.45135400
_cell_length_c   15.61167400
_cell_angle_alpha   90.00000000
_cell_angle_beta   90.00000000
_cell_angle_gamma   90.00000000
_symmetry_Int_Tables_number   1
_chemical_formula_structural   Mn(Si2O5)2
_chemical_formula_sum   'Mn4 Si16 O40'
_cell_volume   866.80192408
_cell_formula_units_Z   4
loop_
 _symmetry_equiv_pos_site_id
 _symmetry_equiv_pos_as_xyz
  1  'x, y, z'
loop_
 _atom_site_type_symbol
 _atom_site_label
 _atom_site_symmetry_multiplicity
 _atom_site_fract_x
 _atom_site_fract_y
 _atom_site_fract_z
 _atom_site_occupancy
  Mn  Mn0  1  0.50000000  0.00000000  0.58375900  1
  Mn  Mn1  1  0.00000000  0.50000000  0.91624100  1
  Mn  Mn2  1  0.00000000  0.50000000  0.41624100  1
  Mn  Mn3  1  0.50000000  0.00000000  0.08375900  1
  Si  Si0  1  0.17342400  0.25650800  0.64939800  1
  Si  Si1  1  0.82657600  0.74349200  0.64939800  1
  Si  Si2  1  0.25650800  0.17342400  0.85060200  1
  Si  Si3  1  0.75650800  0.32657600  0.64939800  1
  Si  Si4  1  0.24349200  0.67342400  0.64939800  1
  Si  Si5  1  0.32657600  0.75650800  0.85060200  1
  Si  Si6  1  0.67342400  0.24349200  0.85060200  1
  Si  Si7  1  0.74349200  0.82657600  0.85060200  1
  Si  Si8  1  0.32657600  0.24349200  0.35060200  1
  Si  Si9  1  0.67342400  0.75650800  0.35060200  1
  Si  Si10  1  0.24349200  0.32657600  0.14939800  1
  Si  Si11  1  0.74349200  0.17342400  0.35060200  1
  Si  Si12  1  0.25650800  0.82657600  0.35060200  1
  Si  Si13  1  0.17342400  0.74349200  0.14939800  1
  Si  Si14  1  0.82657600  0.25650800  0.14939800  1
  Si  Si15  1  0.75650800  0.67342400  0.14939800  1
  O  O0  1  0.27271700  0.10842900  0.58986700  1
  O  O1  1  0.72728300  0.89157100  0.58986700  1
  O  O2  1  0.10842900  0.27271700  0.91013300  1
  O  O3  1  0.60842900  0.22728300  0.58986700  1
  O  O4  1  0.39157100  0.77271700  0.58986700  1
  O  O5  1  0.22728300  0.60842900  0.91013300  1
  O  O6  1  0.77271700  0.39157100  0.91013300  1
  O  O7  1  0.89157100  0.72728300  0.91013300  1
  O  O8  1  0.22728300  0.39157100  0.41013300  1
  O  O9  1  0.77271700  0.60842900  0.41013300  1
  O  O10  1  0.39157100  0.22728300  0.08986700  1
  O  O11  1  0.89157100  0.27271700  0.41013300  1
  O  O12  1  0.10842900  0.72728300  0.41013300  1
  O  O13  1  0.27271700  0.89157100  0.08986700  1
  O  O14  1  0.72728300  0.10842900  0.08986700  1
  O  O15  1  0.25407500  0.04112400  0.37016300  1
  O  O16  1  0.60842900  0.77271700  0.08986700  1
  O  O17  1  0.75407500  0.54112400  0.62983700  1
  O  O18  1  0.45887600  0.24592500  0.87016300  1
  O  O19  1  0.95887600  0.25407500  0.62983700  1
  O  O20  1  0.04112400  0.74592500  0.62983700  1
  O  O21  1  0.25407500  0.95887600  0.87016300  1
  O  O22  1  0.74592500  0.04112400  0.87016300  1
  O  O23  1  0.54112400  0.75407500  0.87016300  1
  O  O24  1  0.70757600  0.70757600  0.25000000  1
  O  O25  1  0.79242400  0.20757600  0.25000000  1
  O  O26  1  0.20757600  0.79242400  0.25000000  1
  O  O27  1  0.29242400  0.29242400  0.25000000  1
  O  O28  1  0.79242400  0.79242400  0.75000000  1
  O  O29  1  0.70757600  0.29242400  0.75000000  1
  O  O30  1  0.29242400  0.70757600  0.75000000  1
  O  O31  1  0.20757600  0.20757600  0.75000000  1
  O  O32  1  0.95887600  0.74592500  0.12983700  1
  O  O33  1  0.75407500  0.45887600  0.12983700  1
  O  O34  1  0.24592500  0.54112400  0.12983700  1
  O  O35  1  0.45887600  0.75407500  0.37016300  1
  O  O36  1  0.54112400  0.24592500  0.37016300  1
  O  O37  1  0.04112400  0.25407500  0.12983700  1
  O  O38  1  0.74592500  0.95887600  0.37016300  1
  O  O39  1  0.24592500  0.45887600  0.62983700  1
loop_
_geom_bond_atom_site_label_1
_geom_bond_atom_site_label_2
_geom_bond_distance
_geom_bond_site_symmetry_2
Mn0 O3 1.878838 1_555
Mn0 O4 1.878838 1_545
Mn0 O0 1.878838 1_555
Mn0 O1 1.878838 1_545
Mn1 O2 1.878838 1_555
Mn1 O7 1.878838 1_455
Mn1 O6 1.878838 1_455
Mn1 O5 1.878838 1_555
Mn2 O12 1.878838 1_555
Mn2 O11 1.878838 1_455
Mn2 O8 1.878838 1_555
Mn2 O9 1.878838 1_455
Mn3 O10 1.878838 1_555
Mn3 O16 1.878838 1_545
Mn3 O13 1.878838 1_545
Mn3 O14 1.878838 1_555
O0 Si0 1.621301 1_555
O1 Si1 1.621301 1_555
O2 Si2 1.621301 1_555
O3 Si3 1.621301 1_555
O4 Si4 1.621301 1_555
O5 Si5 1.621301 1_555
O6 Si6 1.621301 1_555
O7 Si7 1.621301 1_555
O8 Si8 1.621301 1_555
O9 Si9 1.621301 1_555
O10 Si10 1.621301 1_555
O11 Si11 1.621301 1_555
O12 Si12 1.621301 1_555
O13 Si13 1.621301 1_555
O14 Si14 1.621301 1_555
O15 Si12 1.627680 1_545
O15 Si8 1.630618 1_555
O16 Si15 1.621301 1_555
O17 Si3 1.627680 1_555
O17 Si1 1.630618 1_555
O18 Si6 1.627680 1_555
O18 Si2 1.630618 1_555
O19 Si0 1.627680 1_655
O19 Si3 1.630618 1_555
O20 Si1 1.627680 1_455
O20 Si4 1.630618 1_555
O21 Si2 1.627680 1_565
O21 Si5 1.630618 1_555
O22 Si7 1.627680 1_545
O22 Si6 1.630618 1_555
O23 Si5 1.627680 1_555
O23 Si7 1.630618 1_555
O24 Si15 1.632292 1_555
O24 Si9 1.632292 1_555
O25 Si14 1.632292 1_555
O25 Si11 1.632292 1_555
O26 Si13 1.632292 1_555
O26 Si12 1.632292 1_555
O27 Si10 1.632292 1_555
O27 Si8 1.632292 1_555
O28 Si1 1.632292 1_555
O28 Si7 1.632292 1_555
O29 Si3 1.632292 1_555
O29 Si6 1.632292 1_555
O30 Si5 1.632292 1_555
O30 Si4 1.632292 1_555
O31 Si0 1.632292 1_555
O31 Si2 1.632292 1_555
O32 Si13 1.627680 1_655
O32 Si15 1.630618 1_555
O33 Si15 1.627680 1_555
O33 Si14 1.630618 1_555
O34 Si10 1.627680 1_555
O34 Si13 1.630618 1_555
O35 Si9 1.627680 1_555
O35 Si12 1.630618 1_555
O36 Si8 1.627680 1_555
O36 Si11 1.630618 1_555
O37 Si14 1.627680 1_455
O37 Si10 1.630618 1_555
O38 Si11 1.627680 1_565
O38 Si9 1.630618 1_555
O39 Si4 1.627680 1_555
O39 Si0 1.630618 1_555
