# generated using pymatgen
data_YHfMg14O16
_symmetry_space_group_name_H-M   'P 1'
_cell_length_a   4.39294300
_cell_length_b   8.77116400
_cell_length_c   8.79525700
_cell_angle_alpha   90.00000000
_cell_angle_beta   90.00000000
_cell_angle_gamma   90.00000000
_symmetry_Int_Tables_number   1
_chemical_formula_structural   YHfMg14O16
_chemical_formula_sum   'Y1 Hf1 Mg14 O16'
_cell_volume   338.89201317
_cell_formula_units_Z   1
loop_
 _symmetry_equiv_pos_site_id
 _symmetry_equiv_pos_as_xyz
  1  'x, y, z'
loop_
 _atom_site_type_symbol
 _atom_site_label
 _atom_site_symmetry_multiplicity
 _atom_site_fract_x
 _atom_site_fract_y
 _atom_site_fract_z
 _atom_site_occupancy
  Y  Y0  1  0.00000000  0.00000000  0.00000000  1
  Hf  Hf0  1  0.00000000  0.00000000  0.50000000  1
  Mg  Mg0  1  0.00000000  0.50000000  0.00000000  1
  Mg  Mg1  1  0.00000000  0.50000000  0.50000000  1
  Mg  Mg2  1  0.50000000  0.00000000  0.25515700  1
  Mg  Mg3  1  0.50000000  0.00000000  0.74484300  1
  Mg  Mg4  1  0.50000000  0.50000000  0.25151100  1
  Mg  Mg5  1  0.50000000  0.50000000  0.74848900  1
  Mg  Mg6  1  0.50000000  0.26351000  0.00000000  1
  Mg  Mg7  1  0.50000000  0.25860100  0.50000000  1
  Mg  Mg8  1  0.50000000  0.73649000  0.00000000  1
  Mg  Mg9  1  0.50000000  0.74139900  0.50000000  1
  Mg  Mg10  1  0.00000000  0.26062000  0.25321500  1
  Mg  Mg11  1  0.00000000  0.26062000  0.74678500  1
  Mg  Mg12  1  0.00000000  0.73938000  0.25321500  1
  Mg  Mg13  1  0.00000000  0.73938000  0.74678500  1
  O  O0  1  0.00000000  0.26227100  0.00000000  1
  O  O1  1  0.00000000  0.26035000  0.50000000  1
  O  O2  1  0.00000000  0.73772900  0.00000000  1
  O  O3  1  0.00000000  0.73965000  0.50000000  1
  O  O4  1  0.50000000  0.25157300  0.24859400  1
  O  O5  1  0.50000000  0.25157300  0.75140600  1
  O  O6  1  0.50000000  0.74842700  0.24859400  1
  O  O7  1  0.50000000  0.74842700  0.75140600  1
  O  O8  1  0.50000000  0.00000000  0.00000000  1
  O  O9  1  0.50000000  0.00000000  0.50000000  1
  O  O10  1  0.50000000  0.50000000  0.00000000  1
  O  O11  1  0.50000000  0.50000000  0.50000000  1
  O  O12  1  0.00000000  0.00000000  0.25392600  1
  O  O13  1  0.00000000  0.00000000  0.74607400  1
  O  O14  1  0.00000000  0.50000000  0.25024200  1
  O  O15  1  0.00000000  0.50000000  0.74975800  1
loop_
_geom_bond_atom_site_label_1
_geom_bond_atom_site_label_2
_geom_bond_distance
_geom_bond_site_symmetry_2
Hf0 O12 2.164284 1_555
Hf0 O13 2.164284 1_555
Hf0 O9 2.196471 1_455
Hf0 O9 2.196471 1_555
Hf0 O3 2.283573 1_545
Hf0 O1 2.283573 1_555
Mg0 O2 2.085160 1_555
Mg0 O0 2.085160 1_555
Mg0 O10 2.196471 1_455
Mg0 O10 2.196471 1_555
Mg0 O15 2.200943 1_554
Mg0 O14 2.200943 1_555
Mg1 O1 2.102009 1_555
Mg1 O3 2.102009 1_555
Mg1 O11 2.196471 1_455
Mg1 O11 2.196471 1_555
Mg1 O14 2.196686 1_555
Mg1 O15 2.196686 1_555
Mg2 O9 2.153457 1_555
Mg2 O12 2.196498 1_655
Mg2 O12 2.196498 1_555
Mg2 O4 2.207343 1_555
Mg2 O6 2.207343 1_545
Mg2 O8 2.244171 1_555
Mg3 O9 2.153457 1_555
Mg3 O13 2.196498 1_555
Mg3 O13 2.196498 1_655
Mg3 O5 2.207343 1_555
Mg3 O7 2.207343 1_545
Mg3 O8 2.244171 1_556
Mg4 O6 2.179145 1_555
Mg4 O4 2.179145 1_555
Mg4 O11 2.185525 1_555
Mg4 O14 2.196500 1_555
Mg4 O14 2.196500 1_655
Mg4 O10 2.212104 1_555
Mg5 O7 2.179145 1_555
Mg5 O5 2.179145 1_555
Mg5 O11 2.185525 1_555
Mg5 O15 2.196500 1_555
Mg5 O15 2.196500 1_655
Mg5 O10 2.212104 1_556
Mg6 O10 2.074293 1_555
Mg6 O4 2.188954 1_555
Mg6 O5 2.188954 1_554
Mg6 O0 2.196498 1_655
Mg6 O0 2.196498 1_555
Mg6 O8 2.311289 1_555
Mg7 O11 2.117350 1_555
Mg7 O1 2.196525 1_655
Mg7 O1 2.196525 1_555
Mg7 O4 2.212039 1_555
Mg7 O5 2.212039 1_555
Mg7 O9 2.268232 1_555
Mg8 O10 2.074293 1_555
Mg8 O7 2.188954 1_554
Mg8 O6 2.188954 1_555
Mg8 O2 2.196498 1_555
Mg8 O2 2.196498 1_655
Mg8 O8 2.311289 1_565
Mg9 O11 2.117350 1_555
Mg9 O3 2.196525 1_655
Mg9 O3 2.196525 1_555
Mg9 O6 2.212039 1_555
Mg9 O7 2.212039 1_555
Mg9 O9 2.268232 1_565
Mg10 O14 2.099804 1_555
Mg10 O1 2.170539 1_555
Mg10 O4 2.198280 1_555
Mg10 O4 2.198280 1_455
Mg10 O0 2.227138 1_555
Mg10 O12 2.285949 1_555
Mg11 O15 2.099804 1_555
Mg11 O1 2.170539 1_555
Mg11 O5 2.198280 1_455
Mg11 O5 2.198280 1_555
Mg11 O0 2.227138 1_556
Mg11 O13 2.285949 1_555
Mg12 O14 2.099804 1_555
Mg12 O3 2.170539 1_555
Mg12 O6 2.198280 1_555
Mg12 O6 2.198280 1_455
Mg12 O2 2.227138 1_555
Mg12 O12 2.285949 1_565
Mg13 O15 2.099804 1_555
Mg13 O3 2.170539 1_555
Mg13 O7 2.198280 1_555
Mg13 O7 2.198280 1_455
Mg13 O2 2.227138 1_556
Mg13 O13 2.285949 1_565
O0 Y0 2.300422 1_555
O2 Y0 2.300422 1_565
O8 Y0 2.196471 1_555
O8 Y0 2.196471 1_655
O12 Y0 2.233344 1_555
O13 Y0 2.233344 1_556
