# generated using pymatgen
data_KMnO2
_symmetry_space_group_name_H-M   'P 1'
_cell_length_a   7.02351179
_cell_length_b   7.02351179
_cell_length_c   7.02351179
_cell_angle_alpha   125.65595454
_cell_angle_beta   125.65595454
_cell_angle_gamma   80.45434134
_symmetry_Int_Tables_number   1
_chemical_formula_structural   KMnO2
_chemical_formula_sum   'K4 Mn4 O8'
_cell_volume   220.65763195
_cell_formula_units_Z   4
loop_
 _symmetry_equiv_pos_site_id
 _symmetry_equiv_pos_as_xyz
  1  'x, y, z'
loop_
 _atom_site_type_symbol
 _atom_site_label
 _atom_site_symmetry_multiplicity
 _atom_site_fract_x
 _atom_site_fract_y
 _atom_site_fract_z
 _atom_site_occupancy
  K  K0  1  0.37500000  0.12500000  0.25000000  1
  K  K1  1  0.87500000  0.12500000  0.75000000  1
  K  K2  1  0.87500000  0.62500000  0.75000000  1
  K  K3  1  0.87500000  0.12500000  0.25000000  1
  Mn  Mn0  1  0.37500000  0.62500000  0.75000000  1
  Mn  Mn1  1  0.37500000  0.12500000  0.75000000  1
  Mn  Mn2  1  0.37500000  0.62500000  0.25000000  1
  Mn  Mn3  1  0.87500000  0.62500000  0.25000000  1
  O  O0  1  0.18819600  0.37965400  0.80854200  1
  O  O1  1  0.62034600  0.42888800  0.80854200  1
  O  O2  1  0.62034600  0.81180400  0.19145800  1
  O  O3  1  0.57111200  0.37965400  0.19145800  1
  O  O4  1  0.12965400  0.82111200  0.69145800  1
  O  O5  1  0.56180400  0.87034600  0.69145800  1
  O  O6  1  0.17888800  0.87034600  0.30854200  1
  O  O7  1  0.12965400  0.43819600  0.30854200  1
loop_
_geom_bond_atom_site_label_1
_geom_bond_atom_site_label_2
_geom_bond_distance
_geom_bond_site_symmetry_2
K0 O2 2.547871 1_545
K0 O1 2.547871 1_555
K0 O7 2.547871 1_555
K0 O4 2.547871 1_544
K0 O3 2.756800 1_555
K0 O6 2.756800 1_545
K1 O4 2.547871 1_645
K1 O2 2.547871 1_545
K1 O1 2.547871 1_555
K1 O7 2.547871 1_656
K1 O5 2.756800 1_545
K1 O0 2.756800 1_655
K2 O3 2.547871 1_555
K2 O0 2.547871 1_655
K2 O5 2.547871 1_555
K2 O6 2.547871 1_656
K2 O4 2.756800 1_655
K2 O1 2.756800 1_555
K3 O3 2.547871 1_555
K3 O0 2.547871 1_655
K3 O5 2.547871 1_544
K3 O6 2.547871 1_645
K3 O7 2.756800 1_655
K3 O2 2.756800 1_545
Mn0 O2 2.020566 1_556
Mn0 O7 2.020566 1_555
Mn0 O4 2.020566 1_555
Mn0 O1 2.020566 1_555
Mn0 O5 2.657940 1_555
Mn0 O0 2.657940 1_555
Mn1 O3 2.020566 1_556
Mn1 O6 2.020566 1_545
Mn1 O0 2.020566 1_555
Mn1 O5 2.020566 1_545
Mn1 O1 2.657940 1_555
Mn1 O4 2.657940 1_545
Mn2 O5 2.020566 1_555
Mn2 O3 2.020566 1_555
Mn2 O0 2.020566 1_554
Mn2 O6 2.020566 1_555
Mn2 O2 2.657940 1_555
Mn2 O7 2.657940 1_555
Mn3 O7 2.020566 1_655
Mn3 O4 2.020566 1_655
Mn3 O1 2.020566 1_554
Mn3 O2 2.020566 1_555
Mn3 O6 2.657940 1_655
Mn3 O3 2.657940 1_555
