# generated using pymatgen
data_Nd4Ti3Co2(Si2O11)2
_symmetry_space_group_name_H-M   'P 1'
_cell_length_a   5.77251200
_cell_length_b   11.05436400
_cell_length_c   13.47440968
_cell_angle_alpha   79.20769922
_cell_angle_beta   90.00000000
_cell_angle_gamma   90.00000000
_symmetry_Int_Tables_number   1
_chemical_formula_structural   Nd4Ti3Co2(Si2O11)2
_chemical_formula_sum   'Nd8 Ti6 Co4 Si8 O44'
_cell_volume   844.61344179
_cell_formula_units_Z   2
loop_
 _symmetry_equiv_pos_site_id
 _symmetry_equiv_pos_as_xyz
  1  'x, y, z'
loop_
 _atom_site_type_symbol
 _atom_site_label
 _atom_site_symmetry_multiplicity
 _atom_site_fract_x
 _atom_site_fract_y
 _atom_site_fract_z
 _atom_site_occupancy
  Nd  Nd0  1  0.01646900  0.76813000  0.36047700  1
  Nd  Nd1  1  0.03374400  0.24593900  0.93466200  1
  Nd  Nd2  1  0.46625600  0.24593900  0.43466200  1
  Nd  Nd3  1  0.48353100  0.76813000  0.86047700  1
  Nd  Nd4  1  0.51646900  0.23187000  0.13952300  1
  Nd  Nd5  1  0.53374400  0.75406100  0.56533800  1
  Nd  Nd6  1  0.96625600  0.75406100  0.06533800  1
  Nd  Nd7  1  0.98353100  0.23187000  0.63952300  1
  Ti  Ti0  1  0.00000000  0.50000000  0.50000000  1
  Ti  Ti1  1  0.24542000  0.50000000  0.23880900  1
  Ti  Ti2  1  0.25458000  0.50000000  0.73880900  1
  Ti  Ti3  1  0.50000000  0.50000000  0.00000000  1
  Ti  Ti4  1  0.74542000  0.50000000  0.26119100  1
  Ti  Ti5  1  0.75458000  0.50000000  0.76119100  1
  Co  Co0  1  0.00000000  0.50000000  0.00000000  1
  Co  Co1  1  0.00000000  0.00000000  0.50000000  1
  Co  Co2  1  0.50000000  0.00000000  0.00000000  1
  Co  Co3  1  0.50000000  0.50000000  0.50000000  1
  Si  Si0  1  0.00374800  0.95623500  0.85727700  1
  Si  Si1  1  0.00167400  0.77103000  0.69931800  1
  Si  Si2  1  0.49832600  0.77103000  0.19931800  1
  Si  Si3  1  0.49625200  0.95623500  0.35727700  1
  Si  Si4  1  0.50374800  0.04376500  0.64272300  1
  Si  Si5  1  0.50167400  0.22897000  0.80068200  1
  Si  Si6  1  0.99832600  0.22897000  0.30068200  1
  Si  Si7  1  0.99625200  0.04376500  0.14272300  1
  O  O0  1  0.99506600  0.49221200  0.65373100  1
  O  O1  1  0.98628100  0.89762000  0.18310200  1
  O  O2  1  0.01664700  0.47662100  0.84725200  1
  O  O3  1  0.04637200  0.17341400  0.41749600  1
  O  O4  1  0.04314800  0.87912800  0.76513900  1
  O  O5  1  0.21509500  0.90288500  0.93725000  1
  O  O6  1  0.22636400  0.31508600  0.25951700  1
  O  O7  1  0.23956600  0.68585200  0.71881800  1
  O  O8  1  0.23123700  0.36934300  0.52482000  1
  O  O9  1  0.23785700  0.09526100  0.08530100  1
  O  O10  1  0.24146000  0.62917500  0.47979300  1
  O  O11  1  0.25854000  0.62917500  0.97979300  1
  O  O12  1  0.26214300  0.09526100  0.58530100  1
  O  O13  1  0.26876300  0.36934300  0.02482000  1
  O  O14  1  0.26043400  0.68585200  0.21881800  1
  O  O15  1  0.27363600  0.31508600  0.75951700  1
  O  O16  1  0.28490500  0.90288500  0.43725000  1
  O  O17  1  0.45685200  0.87912800  0.26513900  1
  O  O18  1  0.45362800  0.17341400  0.91749600  1
  O  O19  1  0.48335300  0.47662100  0.34725200  1
  O  O20  1  0.51371900  0.89762000  0.68310200  1
  O  O21  1  0.50493400  0.49221200  0.15373100  1
  O  O22  1  0.49506600  0.50778800  0.84626900  1
  O  O23  1  0.48628100  0.10238000  0.31689800  1
  O  O24  1  0.51664700  0.52337900  0.65274800  1
  O  O25  1  0.54637200  0.82658600  0.08250400  1
  O  O26  1  0.54314800  0.12087200  0.73486100  1
  O  O27  1  0.71509500  0.09711500  0.56275000  1
  O  O28  1  0.72636400  0.68491400  0.24048300  1
  O  O29  1  0.73956600  0.31414800  0.78118200  1
  O  O30  1  0.73123700  0.63065700  0.97518000  1
  O  O31  1  0.73785700  0.90473900  0.41469900  1
  O  O32  1  0.74146000  0.37082500  0.02020700  1
  O  O33  1  0.75854000  0.37082500  0.52020700  1
  O  O34  1  0.76214300  0.90473900  0.91469900  1
  O  O35  1  0.76876300  0.63065700  0.47518000  1
  O  O36  1  0.76043400  0.31414800  0.28118200  1
  O  O37  1  0.77363600  0.68491400  0.74048300  1
  O  O38  1  0.78490500  0.09711500  0.06275000  1
  O  O39  1  0.95685200  0.12087200  0.23486100  1
  O  O40  1  0.95362800  0.82658600  0.58250400  1
  O  O41  1  0.98335300  0.52337900  0.15274800  1
  O  O42  1  0.01371900  0.10238000  0.81689800  1
  O  O43  1  0.00493400  0.50778800  0.34626900  1
loop_
_geom_bond_atom_site_label_1
_geom_bond_atom_site_label_2
_geom_bond_distance
_geom_bond_site_symmetry_2
Nd0 O10 2.388758 1_555
Nd0 O31 2.411236 1_455
Nd0 O35 2.421390 1_455
Nd0 O16 2.503464 1_555
Nd0 O1 2.551539 1_455
Nd0 O28 2.611862 1_455
Nd0 O14 2.665352 1_555
Nd1 O13 2.407870 1_556
Nd1 O42 2.448014 1_555
Nd1 O18 2.576904 1_555
Nd1 O32 2.584018 1_456
Nd1 O38 2.585589 1_456
Nd1 O2 2.602861 1_555
Nd1 O9 2.648865 1_556
Nd1 O29 2.673032 1_455
Nd1 O15 2.719523 1_555
Nd2 O8 2.407870 1_555
Nd2 O23 2.448014 1_555
Nd2 O3 2.576904 1_555
Nd2 O33 2.584018 1_555
Nd2 O27 2.585589 1_555
Nd2 O19 2.602861 1_555
Nd2 O12 2.648865 1_555
Nd2 O36 2.673032 1_555
Nd2 O6 2.719523 1_555
Nd3 O11 2.388758 1_555
Nd3 O34 2.411236 1_555
Nd3 O30 2.421390 1_555
Nd3 O5 2.503464 1_555
Nd3 O20 2.551539 1_555
Nd3 O37 2.611862 1_555
Nd3 O7 2.665352 1_555
Nd4 O32 2.388758 1_555
Nd4 O9 2.411236 1_555
Nd4 O13 2.421390 1_555
Nd4 O38 2.503464 1_555
Nd4 O23 2.551539 1_555
Nd4 O6 2.611862 1_555
Nd4 O36 2.665352 1_555
Nd5 O35 2.407870 1_555
Nd5 O20 2.448014 1_555
Nd5 O40 2.576904 1_555
Nd5 O10 2.584018 1_555
Nd5 O16 2.585589 1_555
Nd5 O24 2.602861 1_555
Nd5 O31 2.648865 1_555
Nd5 O7 2.673032 1_555
Nd5 O37 2.719523 1_555
Nd6 O30 2.407870 1_554
Nd6 O1 2.448014 1_555
Nd6 O25 2.576904 1_555
Nd6 O11 2.584018 1_654
Nd6 O5 2.585589 1_654
Nd6 O41 2.602861 1_555
Nd6 O34 2.648865 1_554
Nd6 O14 2.673032 1_655
Nd6 O28 2.719523 1_555
Nd7 O33 2.388758 1_555
Nd7 O12 2.411236 1_655
Nd7 O8 2.421390 1_655
Nd7 O27 2.503464 1_555
Nd7 O42 2.551539 1_655
Nd7 O15 2.611862 1_655
Nd7 O29 2.665352 1_555
Co0 O32 2.048145 1_455
Co0 O11 2.048145 1_554
Co0 O30 2.103330 1_454
Co0 O13 2.103330 1_555
Co0 O2 2.123999 1_554
Co0 O41 2.123999 1_455
Co1 O3 2.045542 1_555
Co1 O40 2.045542 1_445
Co1 O16 2.216326 1_545
Co1 O27 2.216326 1_455
Co1 O12 2.274448 1_555
Co1 O31 2.274448 1_445
Co2 O25 2.045542 1_545
Co2 O18 2.045542 1_554
Co2 O5 2.216326 1_544
Co2 O38 2.216326 1_555
Co2 O9 2.274448 1_555
Co2 O34 2.274448 1_544
Co3 O33 2.048145 1_555
Co3 O10 2.048145 1_555
Co3 O8 2.103330 1_555
Co3 O35 2.103330 1_555
Co3 O19 2.123999 1_555
Co3 O24 2.123999 1_555
O0 Ti2 1.898077 1_655
O0 Ti5 2.019358 1_555
O0 Ti0 2.057250 1_655
O1 Si7 1.606278 1_565
O2 Ti5 1.894148 1_455
O2 Ti2 1.986684 1_555
O3 Si6 1.602982 1_455
O4 Si1 1.633621 1_555
O4 Si0 1.647998 1_555
O5 Si0 1.661148 1_555
O6 Si6 1.657988 1_455
O6 Ti1 2.013636 1_555
O7 Si1 1.657935 1_555
O7 Ti2 2.023287 1_555
O8 Ti0 1.949046 1_555
O9 Si7 1.644037 1_455
O10 Ti0 1.977455 1_555
O11 Ti3 1.977455 1_556
O12 Si4 1.644037 1_555
O13 Ti3 1.949046 1_555
O14 Si2 1.657935 1_555
O14 Ti1 2.023287 1_555
O15 Si5 1.657988 1_555
O15 Ti2 2.013636 1_555
O16 Si3 1.661148 1_555
O17 Si2 1.633621 1_555
O17 Si3 1.647998 1_555
O18 Si5 1.602982 1_555
O19 Ti4 1.894148 1_555
O19 Ti1 1.986684 1_555
O20 Si4 1.606278 1_565
O21 Ti1 1.898077 1_555
O21 Ti4 2.019358 1_555
O21 Ti3 2.057250 1_555
O22 Ti5 1.898077 1_555
O22 Ti2 2.019358 1_555
O22 Ti3 2.057250 1_556
O23 Si3 1.606278 1_545
O24 Ti2 1.894148 1_555
O24 Ti5 1.986684 1_555
O25 Si2 1.602982 1_555
O26 Si5 1.633621 1_555
O26 Si4 1.647998 1_555
O27 Si4 1.661148 1_555
O28 Si2 1.657988 1_555
O28 Ti4 2.013636 1_555
O29 Si5 1.657935 1_555
O29 Ti5 2.023287 1_555
O30 Ti3 1.949046 1_556
O31 Si3 1.644037 1_555
O32 Ti3 1.977455 1_555
O33 Ti0 1.977455 1_655
O34 Si0 1.644037 1_655
O35 Ti0 1.949046 1_655
O36 Si6 1.657935 1_555
O36 Ti4 2.023287 1_555
O37 Si1 1.657988 1_655
O37 Ti5 2.013636 1_555
O38 Si7 1.661148 1_555
O39 Si6 1.633621 1_555
O39 Si7 1.647998 1_555
O40 Si1 1.602982 1_655
O41 Ti1 1.894148 1_655
O41 Ti4 1.986684 1_555
O42 Si0 1.606278 1_545
O43 Ti4 1.898077 1_455
O43 Ti1 2.019358 1_555
O43 Ti0 2.057250 1_555
