# generated using pymatgen
data_YTh9MgO20
_symmetry_space_group_name_H-M   'P 1'
_cell_length_a   7.98294728
_cell_length_b   20.03955104
_cell_length_c   10.57379508
_cell_angle_alpha   19.11405916
_cell_angle_beta   55.32988710
_cell_angle_gamma   59.81661132
_symmetry_Int_Tables_number   1
_chemical_formula_structural   YTh9MgO20
_chemical_formula_sum   'Y1 Th9 Mg1 O20'
_cell_volume   451.74359167
_cell_formula_units_Z   1
loop_
 _symmetry_equiv_pos_site_id
 _symmetry_equiv_pos_as_xyz
  1  'x, y, z'
loop_
 _atom_site_type_symbol
 _atom_site_label
 _atom_site_symmetry_multiplicity
 _atom_site_fract_x
 _atom_site_fract_y
 _atom_site_fract_z
 _atom_site_occupancy
  Y  Y0  1  0.03057751  0.05360101  0.91282120  1
  Th  Th0  1  0.99309236  0.19782119  0.00776832  1
  Th  Th1  1  0.49136890  0.00108232  0.99844806  1
  Th  Th2  1  0.00524998  0.37574114  0.04311354  1
  Th  Th3  1  0.50348782  0.19420778  0.00681174  1
  Th  Th4  1  0.99441772  0.60686041  0.98326509  1
  Th  Th5  1  0.50444075  0.40537419  0.98908154  1
  Th  Th6  1  0.00022881  0.79237485  0.00287718  1
  Th  Th7  1  0.48854272  0.59039401  0.02507421  1
  Th  Th8  1  0.48664816  0.79697803  0.01002190  1
  Mg  Mg0  1  0.81183971  0.76016792  0.39869286  1
  O  O0  1  0.12316442  0.13978752  0.26864387  1
  O  O1  1  0.12511721  0.35663958  0.23768382  1
  O  O2  1  0.61958290  0.14370609  0.26086994  1
  O  O3  1  0.37339617  0.05635303  0.73903907  1
  O  O4  1  0.12235835  0.54770702  0.25379271  1
  O  O5  1  0.62162542  0.33629256  0.27891297  1
  O  O6  1  0.37135870  0.24566653  0.76108985  1
  O  O7  1  0.11541997  0.73758289  0.27380938  1
  O  O8  1  0.87808613  0.03402281  0.78063209  1
  O  O9  1  0.12408247  0.95904631  0.23493192  1
  O  O10  1  0.61785375  0.54750441  0.25511551  1
  O  O11  1  0.37155555  0.44035812  0.76628326  1
  O  O12  1  0.87493266  0.26081883  0.73262677  1
  O  O13  1  0.35959416  0.64931696  0.75636187  1
  O  O14  1  0.61680740  0.74913197  0.24427357  1
  O  O15  1  0.63578747  0.94397227  0.25284378  1
  O  O16  1  0.87519274  0.43659249  0.76916661  1
  O  O17  1  0.37087602  0.84487832  0.75681622  1
  O  O18  1  0.87156154  0.64869608  0.74747470  1
  O  O19  1  0.87175252  0.84732337  0.75165644  1
loop_
_geom_bond_atom_site_label_1
_geom_bond_atom_site_label_2
_geom_bond_distance
_geom_bond_site_symmetry_2
Mg0 O18 2.044396 1_555
Mg0 O7 2.051186 1_655
Mg0 O8 2.077841 1_564
Mg0 O15 2.108722 1_555
O0 Th2 2.387590 1_555
O0 Th6 2.401552 1_546
O0 Th0 2.453946 1_455
O0 Th3 2.476450 1_555
O1 Y0 2.228237 1_555
O1 Th2 2.382869 1_555
O1 Th4 2.431094 1_454
O1 Th5 2.469723 1_554
O2 Th3 2.418974 1_555
O2 Th0 2.432532 1_555
O2 Th8 2.447974 1_546
O2 Th5 2.506298 1_554
O3 Y0 2.260116 1_555
O3 Th1 2.405471 1_555
O3 Th5 2.450468 1_554
O3 Th8 2.474224 1_546
O4 Th6 2.362859 1_555
O4 Th7 2.384890 1_555
O4 Th0 2.463197 1_456
O4 Th4 2.515834 1_454
O5 Th1 2.352245 1_555
O5 Th5 2.474997 1_554
O5 Th7 2.497747 1_555
O5 Th2 2.498540 1_655
O6 Th7 2.404776 1_555
O6 Th3 2.426454 1_556
O6 Th1 2.451069 1_555
O6 Th0 2.462839 1_456
O7 Th8 2.418232 1_555
O7 Th6 2.509135 1_555
O7 Th2 2.516115 1_556
O7 Y0 2.842854 1_564
O8 Th2 2.409512 1_655
O8 Th6 2.505448 1_646
O8 Th1 2.521425 1_555
O8 Y0 2.653653 1_655
O9 Y0 2.241072 1_564
O9 Th1 2.391834 1_564
O9 Th0 2.421894 1_465
O9 Th4 2.446993 1_455
O10 Th7 2.394734 1_555
O10 Th4 2.453056 1_554
O10 Th3 2.456865 1_556
O10 Th8 2.479084 1_555
O11 Th2 2.387970 1_556
O11 Th3 2.454685 1_556
O11 Th8 2.472171 1_555
O11 Th5 2.478120 1_555
O12 Y0 2.229670 1_655
O12 Th3 2.421973 1_556
O12 Th0 2.435471 1_556
O12 Th4 2.449309 1_554
O13 Th4 2.378588 1_455
O13 Th5 2.471996 1_555
O13 Th1 2.476239 1_564
O13 Th7 2.508434 1_556
O14 Th8 2.360605 1_555
O14 Th5 2.436504 1_555
O14 Th6 2.496690 1_655
O14 Th1 2.515563 1_564
O15 Th3 2.485438 1_565
O15 Th1 2.501708 1_564
O15 Th7 2.526328 1_556
O15 Y0 2.613393 1_664
O16 Th0 2.346577 1_556
O16 Th5 2.416847 1_555
O16 Th6 2.503446 1_655
O16 Th2 2.535544 1_656
O17 Th7 2.411235 1_556
O17 Th6 2.414554 1_556
O17 Th3 2.451001 1_565
O17 Th8 2.451576 1_556
O18 Th4 2.426099 1_555
O18 Th7 2.496105 1_556
O18 Th2 2.538446 1_656
O18 Y0 2.761303 1_664
O19 Th6 2.399388 1_656
O19 Th4 2.420646 1_555
O19 Th0 2.431425 1_565
O19 Th8 2.507485 1_556
