# generated using pymatgen
data_K2MoS4
_symmetry_space_group_name_H-M   'P 1'
_cell_length_a   6.89954580
_cell_length_b   9.42208559
_cell_length_c   12.23262277
_cell_angle_alpha   90.00000000
_cell_angle_beta   90.00000000
_cell_angle_gamma   90.00000000
_symmetry_Int_Tables_number   1
_chemical_formula_structural   K2MoS4
_chemical_formula_sum   'K8 Mo4 S16'
_cell_volume   795.21969958
_cell_formula_units_Z   4
loop_
 _symmetry_equiv_pos_site_id
 _symmetry_equiv_pos_as_xyz
  1  'x, y, z'
loop_
 _atom_site_type_symbol
 _atom_site_label
 _atom_site_symmetry_multiplicity
 _atom_site_fract_x
 _atom_site_fract_y
 _atom_site_fract_z
 _atom_site_occupancy
  K  K0  1  0.75000000  0.04549235  0.83586944  1
  K  K1  1  0.25000000  0.95450765  0.16413056  1
  K  K2  1  0.75000000  0.54549235  0.66413056  1
  K  K3  1  0.25000000  0.45450765  0.33586944  1
  K  K4  1  0.25000000  0.15621443  0.61089998  1
  K  K5  1  0.75000000  0.84378557  0.38910002  1
  K  K6  1  0.25000000  0.65621443  0.88910002  1
  K  K7  1  0.75000000  0.34378557  0.11089998  1
  Mo  Mo0  1  0.75000000  0.75357236  0.06715027  1
  Mo  Mo1  1  0.25000000  0.24642764  0.93284973  1
  Mo  Mo2  1  0.75000000  0.25357236  0.43284973  1
  Mo  Mo3  1  0.25000000  0.74642764  0.56715027  1
  S  S0  1  0.25000000  0.77993014  0.39016232  1
  S  S1  1  0.75000000  0.22006986  0.60983768  1
  S  S2  1  0.25000000  0.27993014  0.10983768  1
  S  S3  1  0.75000000  0.72006986  0.89016232  1
  S  S4  1  0.49523144  0.15169588  0.36303808  1
  S  S5  1  0.99523144  0.84830412  0.63696192  1
  S  S6  1  0.00476856  0.65169588  0.13696192  1
  S  S7  1  0.50476856  0.34830412  0.86303808  1
  S  S8  1  0.50476856  0.84830412  0.63696192  1
  S  S9  1  0.00476856  0.15169588  0.36303808  1
  S  S10  1  0.99523144  0.34830412  0.86303808  1
  S  S11  1  0.49523144  0.65169588  0.13696192  1
  S  S12  1  0.75000000  0.98113622  0.10759266  1
  S  S13  1  0.25000000  0.01886378  0.89240734  1
  S  S14  1  0.75000000  0.48113622  0.39240734  1
  S  S15  1  0.25000000  0.51886378  0.60759266  1
loop_
_geom_bond_atom_site_label_1
_geom_bond_atom_site_label_2
_geom_bond_distance
_geom_bond_site_symmetry_2
K0 S3 3.137262 1_545
K0 S1 3.217243 1_555
K0 S10 3.333699 1_555
K0 S7 3.333699 1_555
K0 S12 3.378744 1_546
K0 S8 3.497852 1_545
K0 S5 3.497852 1_545
K0 S13 3.527351 1_555
K0 S13 3.527351 1_655
K1 S2 3.137262 1_565
K1 S0 3.217243 1_555
K1 S6 3.333699 1_555
K1 S11 3.333699 1_555
K1 S13 3.378744 1_564
K1 S4 3.497852 1_565
K1 S9 3.497852 1_565
K1 S12 3.527351 1_455
K1 S12 3.527351 1_555
K2 S1 3.137262 1_555
K2 S3 3.217243 1_555
K2 S5 3.333699 1_555
K2 S8 3.333699 1_555
K2 S14 3.378744 1_555
K2 S10 3.497852 1_555
K2 S7 3.497852 1_555
K2 S15 3.527351 1_655
K2 S15 3.527351 1_555
K3 S0 3.137262 1_555
K3 S2 3.217243 1_555
K3 S4 3.333699 1_555
K3 S9 3.333699 1_555
K3 S15 3.378744 1_555
K3 S11 3.497852 1_555
K3 S6 3.497852 1_555
K3 S14 3.527351 1_555
K3 S14 3.527351 1_455
K4 S5 3.407076 1_445
K4 S8 3.407076 1_545
K4 S15 3.417153 1_555
K4 S4 3.472414 1_555
K4 S9 3.472414 1_555
K4 S1 3.501869 1_555
K4 S1 3.501869 1_455
K4 S13 3.678718 1_555
K5 S4 3.407076 1_565
K5 S9 3.407076 1_665
K5 S14 3.417153 1_555
K5 S5 3.472414 1_555
K5 S8 3.472414 1_555
K5 S0 3.501869 1_655
K5 S0 3.501869 1_555
K5 S12 3.678718 1_555
K6 S7 3.407076 1_555
K6 S10 3.407076 1_455
K6 S13 3.417153 1_565
K6 S6 3.472414 1_556
K6 S11 3.472414 1_556
K6 S3 3.501869 1_455
K6 S3 3.501869 1_555
K6 S15 3.678718 1_555
K7 S11 3.407076 1_555
K7 S6 3.407076 1_655
K7 S12 3.417153 1_545
K7 S7 3.472414 1_554
K7 S10 3.472414 1_554
K7 S2 3.501869 1_555
K7 S2 3.501869 1_655
K7 S14 3.678718 1_555
Mo0 S11 2.177265 1_555
Mo0 S6 2.177265 1_655
Mo0 S3 2.187918 1_554
Mo0 S12 2.200459 1_555
Mo1 S7 2.177265 1_555
Mo1 S10 2.177265 1_455
Mo1 S2 2.187918 1_556
Mo1 S13 2.200459 1_555
Mo2 S4 2.177265 1_555
Mo2 S9 2.177265 1_655
Mo2 S1 2.187918 1_555
Mo2 S14 2.200459 1_555
Mo3 S5 2.177265 1_455
Mo3 S8 2.177265 1_555
Mo3 S0 2.187918 1_555
Mo3 S15 2.200459 1_555
