# generated using pymatgen
data_Ba2CePbO6
_symmetry_space_group_name_H-M   'P 1'
_cell_length_a   6.21166042
_cell_length_b   6.21166042
_cell_length_c   6.21166040
_cell_angle_alpha   60.33716780
_cell_angle_beta   60.33716780
_cell_angle_gamma   60.33716882
_symmetry_Int_Tables_number   1
_chemical_formula_structural   Ba2CePbO6
_chemical_formula_sum   'Ba2 Ce1 Pb1 O6'
_cell_volume   170.76873247
_cell_formula_units_Z   1
loop_
 _symmetry_equiv_pos_site_id
 _symmetry_equiv_pos_as_xyz
  1  'x, y, z'
loop_
 _atom_site_type_symbol
 _atom_site_label
 _atom_site_symmetry_multiplicity
 _atom_site_fract_x
 _atom_site_fract_y
 _atom_site_fract_z
 _atom_site_occupancy
  Ba  Ba0  1  0.24987000  0.24987000  0.24987000  1
  Ba  Ba1  1  0.75013000  0.75013000  0.75013000  1
  Ce  Ce0  1  0.50000000  0.50000000  0.50000000  1
  Pb  Pb0  1  0.00000000  0.00000000  0.00000000  1
  O  O0  1  0.24836100  0.80088700  0.70195300  1
  O  O1  1  0.70195300  0.24836100  0.80088700  1
  O  O2  1  0.80088700  0.70195300  0.24836100  1
  O  O3  1  0.75163900  0.19911300  0.29804700  1
  O  O4  1  0.29804700  0.75163900  0.19911300  1
  O  O5  1  0.19911300  0.29804700  0.75163900  1
loop_
_geom_bond_atom_site_label_1
_geom_bond_atom_site_label_2
_geom_bond_distance
_geom_bond_site_symmetry_2
Ba0 O0 2.812841 1_545
Ba0 O1 2.812841 1_554
Ba0 O2 2.812841 1_455
Ba0 O5 3.118126 1_554
Ba0 O3 3.118126 1_455
Ba0 O4 3.118126 1_545
Ba0 O5 3.124210 1_555
Ba0 O4 3.124210 1_555
Ba0 O3 3.124210 1_555
Ba1 O3 2.812841 1_565
Ba1 O4 2.812841 1_556
Ba1 O5 2.812841 1_655
Ba1 O2 3.118126 1_556
Ba1 O0 3.118126 1_655
Ba1 O1 3.118126 1_565
Ba1 O2 3.124210 1_555
Ba1 O1 3.124210 1_555
Ba1 O0 3.124210 1_555
Ce0 O2 2.235702 1_555
Ce0 O5 2.235702 1_555
Ce0 O1 2.235702 1_555
Ce0 O4 2.235702 1_555
Ce0 O0 2.235702 1_555
Ce0 O3 2.235702 1_555
O0 Pb0 2.210913 1_566
O1 Pb0 2.210913 1_656
O2 Pb0 2.210913 1_665
O3 Pb0 2.210913 1_655
O4 Pb0 2.210913 1_565
O5 Pb0 2.210913 1_556
