# generated using pymatgen
data_Zn11Cu(MoO4)12
_symmetry_space_group_name_H-M   'P 1'
_cell_length_a   9.88088600
_cell_length_b   10.34488369
_cell_length_c   12.09085174
_cell_angle_alpha   114.35772015
_cell_angle_beta   101.01482902
_cell_angle_gamma   93.98616650
_symmetry_Int_Tables_number   1
_chemical_formula_structural   Zn11Cu(MoO4)12
_chemical_formula_sum   'Zn11 Cu1 Mo12 O48'
_cell_volume   1089.82883442
_cell_formula_units_Z   1
loop_
 _symmetry_equiv_pos_site_id
 _symmetry_equiv_pos_as_xyz
  1  'x, y, z'
loop_
 _atom_site_type_symbol
 _atom_site_label
 _atom_site_symmetry_multiplicity
 _atom_site_fract_x
 _atom_site_fract_y
 _atom_site_fract_z
 _atom_site_occupancy
  Zn  Zn0  1  0.48243100  0.90982100  0.17566700  1
  Zn  Zn1  1  0.98279100  0.90989300  0.67601500  1
  Zn  Zn2  1  0.01798500  0.09042800  0.32381300  1
  Zn  Zn3  1  0.51715400  0.09185200  0.82534900  1
  Zn  Zn4  1  0.12841100  0.48705100  0.82497400  1
  Zn  Zn5  1  0.62453800  0.48703900  0.32159200  1
  Zn  Zn6  1  0.37188400  0.51201900  0.67595000  1
  Zn  Zn7  1  0.87157500  0.51125700  0.17571000  1
  Zn  Zn8  1  0.92984300  0.71353000  0.81689700  1
  Zn  Zn9  1  0.07093700  0.28621000  0.18276500  1
  Zn  Zn10  1  0.57019500  0.28636600  0.68323300  1
  Cu  Cu0  1  0.43313600  0.73109000  0.32891100  1
  Mo  Mo0  1  0.84499600  0.37698900  0.55054000  1
  Mo  Mo1  1  0.34573800  0.37568600  0.05027200  1
  Mo  Mo2  1  0.65460100  0.62377100  0.94916500  1
  Mo  Mo3  1  0.15507400  0.62336100  0.44851400  1
  Mo  Mo4  1  0.26857300  0.83935900  0.87157800  1
  Mo  Mo5  1  0.76895600  0.83858100  0.37085100  1
  Mo  Mo6  1  0.23121300  0.16037200  0.62853600  1
  Mo  Mo7  1  0.73145300  0.16019900  0.12860300  1
  Mo  Mo8  1  0.13412700  0.75533200  0.12180400  1
  Mo  Mo9  1  0.63033500  0.75643800  0.61847200  1
  Mo  Mo10  1  0.36844700  0.24347000  0.37989300  1
  Mo  Mo11  1  0.86854000  0.24349600  0.87963900  1
  O  O0  1  0.08790700  0.68341200  0.94870500  1
  O  O1  1  0.57996000  0.68529600  0.44357600  1
  O  O2  1  0.41368000  0.31697900  0.55302900  1
  O  O3  1  0.91325800  0.31684800  0.05264500  1
  O  O4  1  0.23990000  0.53556000  0.53427700  1
  O  O5  1  0.73971400  0.53586400  0.03457000  1
  O  O6  1  0.26099400  0.46626000  0.96616100  1
  O  O7  1  0.75939500  0.46530900  0.46533700  1
  O  O8  1  0.31983200  0.76511800  0.19224400  1
  O  O9  1  0.81524300  0.76463300  0.68398600  1
  O  O10  1  0.18304700  0.23433200  0.31469700  1
  O  O11  1  0.68324500  0.23442000  0.81410500  1
  O  O12  1  0.32837600  0.92030300  0.03812300  1
  O  O13  1  0.82765100  0.92076600  0.53719800  1
  O  O14  1  0.17102300  0.07812100  0.46227300  1
  O  O15  1  0.67165800  0.07798800  0.96237600  1
  O  O16  1  0.93711500  0.24937600  0.45791700  1
  O  O17  1  0.43707200  0.24722200  0.95630600  1
  O  O18  1  0.56263200  0.75129400  0.04182800  1
  O  O19  1  0.06335600  0.75145700  0.54158500  1
  O  O20  1  0.08579000  0.85731700  0.81931500  1
  O  O21  1  0.58547400  0.85501300  0.31707700  1
  O  O22  1  0.41365000  0.14157700  0.67984500  1
  O  O23  1  0.91402800  0.14185900  0.18043500  1
  O  O24  1  0.37103100  0.92819600  0.81148500  1
  O  O25  1  0.87064300  0.92874900  0.31121200  1
  O  O26  1  0.12875800  0.07128600  0.68860100  1
  O  O27  1  0.62898000  0.07124100  0.18882700  1
  O  O28  1  0.96406600  0.51656900  0.69485800  1
  O  O29  1  0.46632600  0.51094900  0.19108700  1
  O  O30  1  0.53577500  0.48382800  0.80504100  1
  O  O31  1  0.03555400  0.48351300  0.30499000  1
  O  O32  1  0.96714400  0.35536100  0.83612600  1
  O  O33  1  0.46749300  0.35545900  0.33698000  1
  O  O34  1  0.53243400  0.64499600  0.66269900  1
  O  O35  1  0.03201500  0.64474900  0.16382000  1
  O  O36  1  0.71489500  0.28643200  0.59121100  1
  O  O37  1  0.21477900  0.28592200  0.09167300  1
  O  O38  1  0.78517400  0.71369700  0.90833500  1
  O  O39  1  0.28511300  0.71158800  0.40599800  1
  O  O40  1  0.58478500  0.92801500  0.68354000  1
  O  O41  1  0.08591500  0.92639500  0.18310200  1
  O  O42  1  0.91510900  0.07165200  0.81682700  1
  O  O43  1  0.41534400  0.07179200  0.31705700  1
  O  O44  1  0.28762100  0.65038700  0.80722000  1
  O  O45  1  0.78851900  0.64997800  0.30811400  1
  O  O46  1  0.21230100  0.34969200  0.69216100  1
  O  O47  1  0.71329100  0.34961800  0.19268100  1
loop_
_geom_bond_atom_site_label_1
_geom_bond_atom_site_label_2
_geom_bond_distance
_geom_bond_site_symmetry_2
Cu0 O39 1.919273 1_555
Cu0 O21 1.973567 1_555
Cu0 O8 1.983801 1_555
Cu0 O1 2.029762 1_555
Cu0 O29 2.291952 1_555
Mo0 O7 1.778288 1_555
Mo0 O16 1.778346 1_555
Mo0 O36 1.796128 1_555
Mo0 O28 1.847959 1_555
Mo1 O6 1.784092 1_554
Mo1 O17 1.784499 1_554
Mo1 O37 1.803098 1_555
Mo1 O29 1.817777 1_555
Mo2 O5 1.774719 1_556
Mo2 O18 1.777054 1_556
Mo2 O38 1.796944 1_555
Mo2 O30 1.847130 1_555
Mo3 O4 1.775778 1_555
Mo3 O19 1.780517 1_555
Mo3 O39 1.795717 1_555
Mo3 O31 1.845948 1_555
Mo4 O24 1.760655 1_555
Mo4 O12 1.786301 1_556
Mo4 O44 1.820682 1_555
Mo4 O20 1.844732 1_555
Mo5 O25 1.760950 1_555
Mo5 O13 1.783152 1_555
Mo5 O45 1.818553 1_555
Mo5 O21 1.849877 1_555
Mo6 O26 1.762068 1_555
Mo6 O14 1.783456 1_555
Mo6 O46 1.823583 1_555
Mo6 O22 1.842027 1_555
Mo7 O27 1.762732 1_555
Mo7 O15 1.782756 1_554
Mo7 O47 1.822612 1_555
Mo7 O23 1.843044 1_555
Mo8 O41 1.754446 1_555
Mo8 O35 1.760536 1_555
Mo8 O8 1.846199 1_555
Mo8 O0 1.856203 1_554
Mo9 O40 1.751133 1_555
Mo9 O34 1.761226 1_555
Mo9 O9 1.828336 1_555
Mo9 O1 1.877293 1_555
Mo10 O43 1.755571 1_555
Mo10 O33 1.761072 1_555
Mo10 O10 1.829994 1_555
Mo10 O2 1.855352 1_555
Mo11 O42 1.755667 1_555
Mo11 O32 1.762539 1_555
Mo11 O11 1.830067 1_555
Mo11 O3 1.854057 1_556
O0 Zn4 2.087983 1_555
O0 Zn8 2.145281 1_455
O1 Zn5 2.110542 1_555
O2 Zn6 2.080205 1_555
O2 Zn10 2.125869 1_555
O3 Zn7 2.075880 1_555
O3 Zn9 2.132208 1_655
O4 Zn6 2.056415 1_555
O5 Zn7 2.056531 1_555
O6 Zn4 2.040593 1_555
O7 Zn5 2.079831 1_555
O8 Zn0 2.213230 1_555
O9 Zn8 2.057378 1_555
O9 Zn1 2.200613 1_555
O10 Zn9 2.042856 1_555
O10 Zn2 2.180548 1_555
O11 Zn10 2.037108 1_555
O11 Zn3 2.191139 1_555
O12 Zn0 2.073370 1_555
O13 Zn1 2.091915 1_555
O14 Zn2 2.083421 1_555
O15 Zn3 2.087108 1_555
O16 Zn2 2.109467 1_655
O17 Zn3 2.067109 1_555
O18 Zn0 2.101844 1_555
O19 Zn1 2.107193 1_455
O20 Zn8 2.053290 1_455
O20 Zn1 2.124620 1_455
O21 Zn0 2.120400 1_555
O22 Zn10 2.059326 1_555
O22 Zn3 2.130177 1_555
O23 Zn9 2.064264 1_655
O23 Zn2 2.121264 1_655
O24 Zn3 2.076671 1_565
O25 Zn2 2.075258 1_665
O26 Zn1 2.064617 1_445
O27 Zn0 2.065719 1_545
O28 Zn8 2.061475 1_555
O28 Zn4 2.166610 1_655
O29 Zn5 2.104264 1_555
O30 Zn10 2.064907 1_555
O30 Zn6 2.149163 1_555
O31 Zn9 2.068991 1_555
O31 Zn7 2.148914 1_455
O32 Zn4 2.084472 1_655
O33 Zn5 2.078676 1_555
O34 Zn6 2.100033 1_555
O35 Zn7 2.094596 1_455
O36 Zn10 1.972443 1_555
O37 Zn9 1.956823 1_555
O38 Zn8 1.966796 1_555
O40 Zn3 2.111213 1_565
O41 Zn2 2.106617 1_565
O42 Zn1 2.094446 1_545
O43 Zn0 2.096213 1_545
O44 Zn6 2.014420 1_555
O44 Zn4 2.331215 1_555
O45 Zn7 2.016544 1_555
O45 Zn5 2.332556 1_555
O46 Zn4 2.018687 1_555
O46 Zn6 2.316493 1_555
O47 Zn5 2.021711 1_555
O47 Zn7 2.307869 1_555
