# generated using pymatgen
data_SbH3NF6
_symmetry_space_group_name_H-M   'P 1'
_cell_length_a   7.26514237
_cell_length_b   7.26514237
_cell_length_c   10.90749944
_cell_angle_alpha   88.49696479
_cell_angle_beta   88.49696479
_cell_angle_gamma   117.40825694
_symmetry_Int_Tables_number   1
_chemical_formula_structural   SbH3NF6
_chemical_formula_sum   'Sb4 H12 N4 F24'
_cell_volume   510.44541183
_cell_formula_units_Z   4
loop_
 _symmetry_equiv_pos_site_id
 _symmetry_equiv_pos_as_xyz
  1  'x, y, z'
loop_
 _atom_site_type_symbol
 _atom_site_label
 _atom_site_symmetry_multiplicity
 _atom_site_fract_x
 _atom_site_fract_y
 _atom_site_fract_z
 _atom_site_occupancy
  Sb  Sb0  1  0.50000000  0.50000000  0.50000000  1
  Sb  Sb1  1  0.50000000  0.50000000  0.00000000  1
  Sb  Sb2  1  0.15340800  0.84659200  0.75000000  1
  Sb  Sb3  1  0.84659200  0.15340800  0.25000000  1
  H  H0  1  0.25084800  0.00381300  0.33412900  1
  H  H1  1  0.99618700  0.74915200  0.16587100  1
  H  H2  1  0.74915200  0.99618700  0.66587100  1
  H  H3  1  0.00381300  0.25084800  0.83412900  1
  H  H4  1  0.02849900  0.77678500  0.36069200  1
  H  H5  1  0.22321500  0.97150100  0.13930800  1
  H  H6  1  0.97150100  0.22321500  0.63930800  1
  H  H7  1  0.77678500  0.02849900  0.86069200  1
  H  H8  1  0.26281400  0.77447500  0.34765600  1
  H  H9  1  0.22552500  0.73718600  0.15234400  1
  H  H10  1  0.73718600  0.22552500  0.65234400  1
  H  H11  1  0.77447500  0.26281400  0.84765600  1
  N  N0  1  0.17584300  0.84674900  0.31608100  1
  N  N1  1  0.15325100  0.82415700  0.18391900  1
  N  N2  1  0.82415700  0.15325100  0.68391900  1
  N  N3  1  0.84674900  0.17584300  0.81608100  1
  F  F0  1  0.47345200  0.29659600  0.38535800  1
  F  F1  1  0.70340400  0.52654800  0.11464200  1
  F  F2  1  0.52654800  0.70340400  0.61464200  1
  F  F3  1  0.29659600  0.47345200  0.88535800  1
  F  F4  1  0.21572600  0.33043700  0.55725900  1
  F  F5  1  0.66956300  0.78427400  0.94274100  1
  F  F6  1  0.78427400  0.66956300  0.44274100  1
  F  F7  1  0.33043700  0.21572600  0.05725900  1
  F  F8  1  0.40270600  0.63841800  0.38417100  1
  F  F9  1  0.36158200  0.59729400  0.11582900  1
  F  F10  1  0.59729400  0.36158200  0.61582900  1
  F  F11  1  0.63841800  0.40270600  0.88417100  1
  F  F12  1  0.87684800  0.79827700  0.71737600  1
  F  F13  1  0.20172300  0.12315200  0.78262400  1
  F  F14  1  0.12315200  0.20172300  0.28262400  1
  F  F15  1  0.79827700  0.87684800  0.21737600  1
  F  F16  1  0.07369500  0.56201000  0.71791000  1
  F  F17  1  0.43799000  0.92630500  0.78209000  1
  F  F18  1  0.92630500  0.43799000  0.28209000  1
  F  F19  1  0.56201000  0.07369500  0.21791000  1
  F  F20  1  0.22972300  0.91372300  0.57852500  1
  F  F21  1  0.08627700  0.77027700  0.92147500  1
  F  F22  1  0.77027700  0.08627700  0.42147500  1
  F  F23  1  0.91372300  0.22972300  0.07852500  1
loop_
_geom_bond_atom_site_label_1
_geom_bond_atom_site_label_2
_geom_bond_distance
_geom_bond_site_symmetry_2
H0 N0 1.040542 1_545
H1 N1 1.040542 1_655
H2 N2 1.040542 1_565
H3 N3 1.040542 1_455
H4 N0 1.048718 1_555
H5 N1 1.048718 1_555
H6 N2 1.048718 1_555
H7 N3 1.048718 1_555
H8 N0 1.049260 1_555
H9 N1 1.049260 1_555
H10 N2 1.049260 1_555
H11 N3 1.049260 1_555
F0 Sb0 1.905728 1_555
F1 Sb1 1.905728 1_555
F2 Sb0 1.905728 1_555
F3 Sb1 1.905728 1_556
F4 Sb0 1.929425 1_555
F5 Sb1 1.929425 1_556
F6 Sb0 1.929425 1_555
F7 Sb1 1.929425 1_555
F8 Sb0 1.934360 1_555
F9 Sb1 1.934360 1_555
F10 Sb0 1.934360 1_555
F11 Sb1 1.934360 1_556
F12 Sb2 1.918765 1_655
F13 Sb2 1.918765 1_545
F14 Sb3 1.918765 1_455
F15 Sb3 1.918765 1_565
F16 Sb2 1.918025 1_555
F17 Sb2 1.918025 1_555
F18 Sb3 1.918025 1_555
F19 Sb3 1.918025 1_555
F20 Sb2 1.921541 1_555
F21 Sb2 1.921541 1_555
F22 Sb3 1.921541 1_555
F23 Sb3 1.921541 1_555
