# generated using pymatgen
data_SrCaTiMnO6
_symmetry_space_group_name_H-M   'P 1'
_cell_length_a   3.88533751
_cell_length_b   7.74191628
_cell_length_c   7.73573000
_cell_angle_alpha   89.99965695
_cell_angle_beta   89.99932040
_cell_angle_gamma   89.99935761
_symmetry_Int_Tables_number   1
_chemical_formula_structural   SrCaTiMnO6
_chemical_formula_sum   'Sr2 Ca2 Ti2 Mn2 O12'
_cell_volume   232.69043125
_cell_formula_units_Z   2
loop_
 _symmetry_equiv_pos_site_id
 _symmetry_equiv_pos_as_xyz
  1  'x, y, z'
loop_
 _atom_site_type_symbol
 _atom_site_label
 _atom_site_symmetry_multiplicity
 _atom_site_fract_x
 _atom_site_fract_y
 _atom_site_fract_z
 _atom_site_occupancy
  Sr  Sr0  1  0.50000600  0.25117100  0.25001600  1
  Sr  Sr1  1  0.50000700  0.25117000  0.74999100  1
  Ca  Ca0  1  0.49999900  0.73590200  0.24998200  1
  Ca  Ca1  1  0.50000000  0.73590200  0.75001800  1
  Ti  Ti0  1  0.00000200  0.99068600  0.00000100  1
  Ti  Ti1  1  0.99999900  0.99073700  0.50000200  1
  Mn  Mn0  1  0.99999600  0.49941300  0.50000200  1
  Mn  Mn1  1  0.00000200  0.49937500  0.00000300  1
  O  O0  1  0.99999700  0.25701400  0.99999800  1
  O  O1  1  0.99999900  0.25702900  0.50000400  1
  O  O2  1  0.00000400  0.74673400  0.99999600  1
  O  O3  1  0.99999900  0.74676700  0.49999900  1
  O  O4  1  0.50000100  0.99770400  0.99999500  1
  O  O5  1  0.50000000  0.99776100  0.49999900  1
  O  O6  1  0.99999400  0.99767100  0.24999900  1
  O  O7  1  0.99999500  0.99767100  0.74999900  1
  O  O8  1  0.50000400  0.51361300  0.99999500  1
  O  O9  1  0.50000100  0.51360300  0.50000000  1
  O  O10  1  0.99999600  0.51003700  0.24999700  1
  O  O11  1  0.99999600  0.51003900  0.75000500  1
loop_
_geom_bond_atom_site_label_1
_geom_bond_atom_site_label_2
_geom_bond_distance
_geom_bond_site_symmetry_2
Ca0 O8 2.588704 1_554
Ca0 O9 2.588920 1_555
Ca0 O10 2.613721 1_555
Ca0 O10 2.613768 1_455
Ca0 O2 2.742382 1_654
Ca0 O2 2.742386 1_554
Ca0 O3 2.742544 1_455
Ca0 O3 2.742578 1_555
Ca0 O4 2.801388 1_554
Ca0 O5 2.801885 1_555
Ca0 O6 2.807317 1_455
Ca0 O6 2.807322 1_555
Ca1 O8 2.588631 1_555
Ca1 O9 2.588935 1_555
Ca1 O11 2.613708 1_555
Ca1 O11 2.613760 1_455
Ca1 O2 2.742313 1_555
Ca1 O2 2.742369 1_655
Ca1 O3 2.742553 1_555
Ca1 O3 2.742590 1_455
Ca1 O4 2.801352 1_555
Ca1 O5 2.801878 1_555
Ca1 O7 2.807317 1_455
Ca1 O7 2.807322 1_555
Mn0 O1 1.876517 1_555
Mn0 O3 1.914994 1_555
Mn0 O11 1.935705 1_555
Mn0 O10 1.935719 1_555
Mn0 O9 1.945752 1_555
Mn0 O9 1.945793 1_655
Mn1 O0 1.876339 1_454
Mn1 O2 1.915033 1_554
Mn1 O10 1.935647 1_455
Mn1 O11 1.935678 1_454
Mn1 O8 1.945785 1_454
Mn1 O8 1.945803 1_554
O0 Ti0 2.061889 1_646
O0 Sr1 2.741579 1_555
O0 Sr1 2.741601 1_655
O0 Sr0 2.741609 1_556
O0 Sr0 2.741690 1_656
O1 Ti1 2.061610 1_545
O1 Sr1 2.741444 1_555
O1 Sr0 2.741485 1_555
O1 Sr0 2.741491 1_655
O1 Sr1 2.741520 1_655
O2 Ti0 1.888656 1_556
O3 Ti1 1.888795 1_555
O4 Ti0 1.943425 1_556
O4 Ti0 1.943432 1_656
O4 Sr1 2.755148 1_565
O4 Sr0 2.755262 1_566
O5 Ti1 1.943425 1_555
O5 Ti1 1.943434 1_455
O5 Sr0 2.754725 1_565
O5 Sr1 2.754785 1_565
O6 Ti0 1.934673 1_655
O6 Ti1 1.934700 1_555
O6 Sr0 2.761412 1_565
O6 Sr0 2.761509 1_665
O7 Ti1 1.934655 1_555
O7 Ti0 1.934704 1_656
O7 Sr1 2.761407 1_565
O7 Sr1 2.761504 1_665
O8 Sr1 2.805088 1_555
O8 Sr0 2.805157 1_556
O9 Sr0 2.804920 1_555
O9 Sr1 2.804946 1_555
O10 Sr0 2.791127 1_555
O10 Sr0 2.791150 1_655
O11 Sr1 2.791141 1_555
O11 Sr1 2.791169 1_655
