# generated using pymatgen
data_K3ScV2O8
_symmetry_space_group_name_H-M   'P 1'
_cell_length_a   5.83392230
_cell_length_b   5.83392230
_cell_length_c   7.48686100
_cell_angle_alpha   90.00000000
_cell_angle_beta   90.00000000
_cell_angle_gamma   120.00000338
_symmetry_Int_Tables_number   1
_chemical_formula_structural   K3ScV2O8
_chemical_formula_sum   'K3 Sc1 V2 O8'
_cell_volume   220.67425445
_cell_formula_units_Z   1
loop_
 _symmetry_equiv_pos_site_id
 _symmetry_equiv_pos_as_xyz
  1  'x, y, z'
loop_
 _atom_site_type_symbol
 _atom_site_label
 _atom_site_symmetry_multiplicity
 _atom_site_fract_x
 _atom_site_fract_y
 _atom_site_fract_z
 _atom_site_occupancy
  K  K0  1  0.33333300  0.66666700  0.67646100  1
  K  K1  1  0.66666700  0.33333300  0.32353900  1
  K  K2  1  0.00000000  0.00000000  0.00000000  1
  Sc  Sc0  1  0.00000000  0.00000000  0.50000000  1
  V  V0  1  0.33333300  0.66666700  0.24619500  1
  V  V1  1  0.66666700  0.33333300  0.75380500  1
  O  O0  1  0.33333300  0.66666700  0.02169200  1
  O  O1  1  0.66666700  0.33333300  0.97830800  1
  O  O2  1  0.16955200  0.83044800  0.33020900  1
  O  O3  1  0.83044800  0.16955200  0.66979100  1
  O  O4  1  0.16955200  0.33910400  0.33020900  1
  O  O5  1  0.83044800  0.66089600  0.66979100  1
  O  O6  1  0.66089600  0.83044800  0.33020900  1
  O  O7  1  0.33910400  0.16955200  0.66979100  1
loop_
_geom_bond_atom_site_label_1
_geom_bond_atom_site_label_2
_geom_bond_distance
_geom_bond_site_symmetry_2
K0 O0 2.584697 1_556
K0 O7 2.917531 1_565
K0 O5 2.917531 1_455
K0 O3 2.917534 1_565
K0 O3 2.917534 1_455
K0 O5 2.917537 1_555
K0 O7 2.917537 1_555
K0 O2 3.075563 1_555
K0 O4 3.075566 1_555
K0 O6 3.075566 1_555
K1 O1 2.584697 1_554
K1 O4 2.917531 1_655
K1 O6 2.917531 1_545
K1 O2 2.917534 1_655
K1 O2 2.917534 1_545
K1 O6 2.917537 1_555
K1 O4 2.917537 1_555
K1 O3 3.075563 1_555
K1 O7 3.075566 1_555
K1 O5 3.075566 1_555
K2 O5 3.007854 1_444
K2 O6 3.007854 1_445
K2 O7 3.007854 1_554
K2 O4 3.007854 1_555
K2 O2 3.007854 1_545
K2 O3 3.007854 1_454
K2 O0 3.372126 1_545
K2 O1 3.372126 1_454
K2 O0 3.372131 1_555
K2 O1 3.372131 1_554
K2 O0 3.372131 1_445
K2 O1 3.372131 1_444
O0 V0 1.680823 1_555
O1 V1 1.680823 1_555
O2 V0 1.770452 1_555
O2 Sc0 2.133360 1_565
O3 V1 1.770452 1_555
O3 Sc0 2.133360 1_655
O4 V0 1.770457 1_555
O4 Sc0 2.133360 1_555
O5 V1 1.770457 1_555
O5 Sc0 2.133360 1_665
O6 V0 1.770457 1_555
O6 Sc0 2.133360 1_665
O7 V1 1.770457 1_555
O7 Sc0 2.133360 1_555
