# generated using pymatgen
data_KMg14W
_symmetry_space_group_name_H-M   'P 1'
_cell_length_a   6.40625412
_cell_length_b   6.63183141
_cell_length_c   10.23226496
_cell_angle_alpha   90.00000000
_cell_angle_beta   90.00000000
_cell_angle_gamma   121.17181025
_symmetry_Int_Tables_number   1
_chemical_formula_structural   KMg14W
_chemical_formula_sum   'K1 Mg14 W1'
_cell_volume   371.95452874
_cell_formula_units_Z   1
loop_
 _symmetry_equiv_pos_site_id
 _symmetry_equiv_pos_as_xyz
  1  'x, y, z'
loop_
 _atom_site_type_symbol
 _atom_site_label
 _atom_site_symmetry_multiplicity
 _atom_site_fract_x
 _atom_site_fract_y
 _atom_site_fract_z
 _atom_site_occupancy
  K  K0  1  0.16368850  0.33184375  0.12500000  1
  Mg  Mg0  1  0.17294439  0.33647169  0.62500000  1
  Mg  Mg1  1  0.16773863  0.83386882  0.62500000  1
  Mg  Mg2  1  0.66343531  0.32701747  0.12500000  1
  Mg  Mg3  1  0.66702294  0.34023025  0.62500000  1
  Mg  Mg4  1  0.66343531  0.83641684  0.12500000  1
  Mg  Mg5  1  0.66702294  0.82679168  0.62500000  1
  Mg  Mg6  1  0.32821629  0.14565947  0.37303338  1
  Mg  Mg7  1  0.32821629  0.14565947  0.87696662  1
  Mg  Mg8  1  0.32821629  0.68255781  0.37303338  1
  Mg  Mg9  1  0.32821629  0.68255781  0.87696662  1
  Mg  Mg10  1  0.81902964  0.15951532  0.38945422  1
  Mg  Mg11  1  0.81902964  0.15951532  0.86054578  1
  Mg  Mg12  1  0.84469581  0.67234840  0.35939615  1
  Mg  Mg13  1  0.84469581  0.67234840  0.89060385  1
  W  W0  1  0.19439595  0.84719747  0.12500000  1
loop_
_geom_bond_atom_site_label_1
_geom_bond_atom_site_label_2
_geom_bond_distance
_geom_bond_site_symmetry_2
K0 Mg4 3.188299 1_445
K0 Mg2 3.188300 1_455
K0 Mg4 3.218188 1_555
K0 Mg2 3.218189 1_555
K0 Mg7 3.228611 1_554
K0 Mg6 3.228611 1_555
K0 Mg9 3.228618 1_554
K0 Mg8 3.228618 1_555
K0 Mg10 3.300191 1_455
K0 Mg11 3.300191 1_454
K0 W0 3.320185 1_555
K0 W0 3.320185 1_545
Mg0 Mg10 3.093895 1_455
Mg0 Mg11 3.093895 1_455
Mg0 Mg5 3.152363 1_555
Mg0 Mg3 3.152363 1_555
Mg0 Mg6 3.246675 1_555
Mg0 Mg7 3.246675 1_555
Mg0 Mg8 3.246682 1_555
Mg0 Mg9 3.246682 1_555
Mg0 Mg5 3.254033 1_445
Mg0 Mg3 3.254033 1_455
Mg0 Mg1 3.316038 1_545
Mg0 Mg1 3.316039 1_555
Mg1 Mg8 3.127119 1_555
Mg1 Mg9 3.127119 1_555
Mg1 Mg6 3.127125 1_565
Mg1 Mg7 3.127125 1_565
Mg1 Mg3 3.183671 1_455
Mg1 Mg5 3.183672 1_455
Mg1 Mg3 3.223086 1_565
Mg1 Mg5 3.223086 1_555
Mg1 Mg12 3.243675 1_455
Mg1 Mg13 3.243675 1_455
Mg2 W0 3.042407 1_545
Mg2 W0 3.365018 1_655
Mg3 Mg6 3.181785 1_555
Mg3 Mg7 3.181785 1_555
Mg3 Mg5 3.226793 1_555
Mg3 Mg5 3.405038 1_545
Mg4 W0 3.042407 1_555
Mg4 W0 3.365018 1_655
Mg5 Mg8 3.181786 1_555
Mg5 Mg9 3.181786 1_555
Mg6 W0 3.055700 1_545
Mg7 W0 3.055700 1_546
Mg8 W0 3.055693 1_555
Mg9 W0 3.055693 1_556
Mg10 Mg3 3.066214 1_555
Mg10 Mg5 3.066221 1_545
Mg10 Mg8 3.102264 1_545
Mg10 Mg6 3.102264 1_555
Mg10 Mg2 3.270481 1_555
Mg10 Mg4 3.270488 1_545
Mg10 Mg8 3.314736 1_655
Mg10 Mg6 3.314737 1_655
Mg10 Mg12 3.333119 1_555
Mg10 Mg12 3.333119 1_545
Mg11 Mg3 3.066214 1_555
Mg11 Mg5 3.066221 1_545
Mg11 Mg9 3.102264 1_545
Mg11 Mg7 3.102264 1_555
Mg11 Mg2 3.270481 1_556
Mg11 Mg4 3.270488 1_546
Mg11 Mg9 3.314736 1_655
Mg11 Mg7 3.314737 1_655
Mg11 Mg13 3.333119 1_555
Mg11 Mg13 3.333119 1_545
Mg12 W0 3.070264 1_655
Mg12 Mg5 3.307192 1_555
Mg12 Mg3 3.307199 1_555
Mg13 W0 3.070264 1_656
Mg13 Mg5 3.307192 1_555
Mg13 Mg3 3.307199 1_555
