# generated using pymatgen
data_BaMg14MnO16
_symmetry_space_group_name_H-M   'P 1'
_cell_length_a   4.51967400
_cell_length_b   8.76275300
_cell_length_c   8.79814600
_cell_angle_alpha   90.00000000
_cell_angle_beta   90.00000000
_cell_angle_gamma   90.00000000
_symmetry_Int_Tables_number   1
_chemical_formula_structural   BaMg14MnO16
_chemical_formula_sum   'Ba1 Mg14 Mn1 O16'
_cell_volume   348.44869747
_cell_formula_units_Z   1
loop_
 _symmetry_equiv_pos_site_id
 _symmetry_equiv_pos_as_xyz
  1  'x, y, z'
loop_
 _atom_site_type_symbol
 _atom_site_label
 _atom_site_symmetry_multiplicity
 _atom_site_fract_x
 _atom_site_fract_y
 _atom_site_fract_z
 _atom_site_occupancy
  Ba  Ba0  1  0.00000000  0.00000000  0.50000000  1
  Mg  Mg0  1  0.00000000  0.50000000  0.00000000  1
  Mg  Mg1  1  0.00000000  0.50000000  0.50000000  1
  Mg  Mg2  1  0.50000000  0.00000000  0.23671700  1
  Mg  Mg3  1  0.50000000  0.00000000  0.76328300  1
  Mg  Mg4  1  0.50000000  0.50000000  0.24758000  1
  Mg  Mg5  1  0.50000000  0.50000000  0.75242000  1
  Mg  Mg6  1  0.50000000  0.25414500  0.00000000  1
  Mg  Mg7  1  0.50000000  0.26445500  0.50000000  1
  Mg  Mg8  1  0.50000000  0.74585500  0.00000000  1
  Mg  Mg9  1  0.50000000  0.73554500  0.50000000  1
  Mg  Mg10  1  0.00000000  0.26063400  0.24213600  1
  Mg  Mg11  1  0.00000000  0.26063400  0.75786400  1
  Mg  Mg12  1  0.00000000  0.73936600  0.24213600  1
  Mg  Mg13  1  0.00000000  0.73936600  0.75786400  1
  Mn  Mn0  1  0.00000000  0.00000000  0.00000000  1
  O  O0  1  0.00000000  0.26466500  0.00000000  1
  O  O1  1  0.00000000  0.28102200  0.50000000  1
  O  O2  1  0.00000000  0.73533500  0.00000000  1
  O  O3  1  0.00000000  0.71897800  0.50000000  1
  O  O4  1  0.50000000  0.25053700  0.24930300  1
  O  O5  1  0.50000000  0.25053700  0.75069700  1
  O  O6  1  0.50000000  0.74946300  0.24930300  1
  O  O7  1  0.50000000  0.74946300  0.75069700  1
  O  O8  1  0.50000000  0.00000000  0.00000000  1
  O  O9  1  0.50000000  0.00000000  0.50000000  1
  O  O10  1  0.50000000  0.50000000  0.00000000  1
  O  O11  1  0.50000000  0.50000000  0.50000000  1
  O  O12  1  0.00000000  0.00000000  0.22461300  1
  O  O13  1  0.00000000  0.00000000  0.77538700  1
  O  O14  1  0.00000000  0.50000000  0.24435900  1
  O  O15  1  0.00000000  0.50000000  0.75564100  1
loop_
_geom_bond_atom_site_label_1
_geom_bond_atom_site_label_2
_geom_bond_distance
_geom_bond_site_symmetry_2
Ba0 O9 2.259837 1_555
Ba0 O9 2.259837 1_455
Ba0 O12 2.422895 1_555
Ba0 O13 2.422895 1_555
Ba0 O1 2.462526 1_555
Ba0 O3 2.462526 1_545
Mg0 O2 2.062182 1_555
Mg0 O0 2.062182 1_555
Mg0 O15 2.149906 1_554
Mg0 O14 2.149906 1_555
Mg0 O10 2.259837 1_455
Mg0 O10 2.259837 1_555
Mg1 O3 1.918850 1_555
Mg1 O1 1.918850 1_555
Mg1 O14 2.249167 1_555
Mg1 O15 2.249167 1_555
Mg1 O11 2.259837 1_455
Mg1 O11 2.259837 1_555
Mg2 O8 2.082671 1_555
Mg2 O4 2.198185 1_555
Mg2 O6 2.198185 1_545
Mg2 O12 2.262345 1_655
Mg2 O12 2.262345 1_555
Mg2 O9 2.316402 1_555
Mg3 O8 2.082671 1_556
Mg3 O5 2.198185 1_555
Mg3 O7 2.198185 1_545
Mg3 O13 2.262345 1_655
Mg3 O13 2.262345 1_555
Mg3 O9 2.316402 1_555
Mg4 O10 2.178245 1_555
Mg4 O4 2.186035 1_555
Mg4 O6 2.186035 1_555
Mg4 O11 2.220828 1_555
Mg4 O14 2.260015 1_555
Mg4 O14 2.260015 1_655
Mg5 O10 2.178245 1_556
Mg5 O7 2.186035 1_555
Mg5 O5 2.186035 1_555
Mg5 O11 2.220828 1_555
Mg5 O15 2.260015 1_555
Mg5 O15 2.260015 1_655
Mg6 O10 2.154367 1_555
Mg6 O4 2.193632 1_555
Mg6 O5 2.193632 1_554
Mg6 O8 2.227010 1_555
Mg6 O0 2.261716 1_555
Mg6 O0 2.261716 1_655
Mg7 O11 2.064023 1_555
Mg7 O5 2.209038 1_555
Mg7 O4 2.209038 1_555
Mg7 O1 2.264495 1_655
Mg7 O1 2.264495 1_555
Mg7 O9 2.317354 1_555
Mg8 O10 2.154367 1_555
Mg8 O6 2.193632 1_555
Mg8 O7 2.193632 1_554
Mg8 O8 2.227010 1_565
Mg8 O2 2.261716 1_555
Mg8 O2 2.261716 1_655
Mg9 O11 2.064023 1_555
Mg9 O7 2.209038 1_555
Mg9 O6 2.209038 1_555
Mg9 O3 2.264495 1_555
Mg9 O3 2.264495 1_655
Mg9 O9 2.317354 1_565
Mg10 O14 2.097596 1_555
Mg10 O0 2.130641 1_555
Mg10 O4 2.262447 1_555
Mg10 O4 2.262447 1_455
Mg10 O1 2.275749 1_555
Mg10 O12 2.289069 1_555
Mg11 O15 2.097596 1_555
Mg11 O0 2.130641 1_556
Mg11 O5 2.262447 1_455
Mg11 O5 2.262447 1_555
Mg11 O1 2.275749 1_555
Mg11 O13 2.289069 1_555
Mg12 O14 2.097596 1_555
Mg12 O2 2.130641 1_555
Mg12 O6 2.262447 1_455
Mg12 O6 2.262447 1_555
Mg12 O3 2.275749 1_555
Mg12 O12 2.289069 1_565
Mg13 O15 2.097596 1_555
Mg13 O2 2.130641 1_556
Mg13 O7 2.262447 1_555
Mg13 O7 2.262447 1_455
Mg13 O3 2.275749 1_555
Mg13 O13 2.289069 1_565
Mn0 O13 1.976178 1_554
Mn0 O12 1.976178 1_555
Mn0 O8 2.259837 1_455
Mn0 O8 2.259837 1_555
Mn0 O0 2.319194 1_555
Mn0 O2 2.319194 1_545
