# generated using pymatgen
data_Ba2BiSbO6
_symmetry_space_group_name_H-M   'P 1'
_cell_length_a   8.66803589
_cell_length_b   8.66803589
_cell_length_c   8.66803589
_cell_angle_alpha   90.00000000
_cell_angle_beta   90.00000000
_cell_angle_gamma   90.00000000
_symmetry_Int_Tables_number   1
_chemical_formula_structural   Ba2BiSbO6
_chemical_formula_sum   'Ba8 Bi4 Sb4 O24'
_cell_volume   651.27154337
_cell_formula_units_Z   4
loop_
 _symmetry_equiv_pos_site_id
 _symmetry_equiv_pos_as_xyz
  1  'x, y, z'
loop_
 _atom_site_type_symbol
 _atom_site_label
 _atom_site_symmetry_multiplicity
 _atom_site_fract_x
 _atom_site_fract_y
 _atom_site_fract_z
 _atom_site_occupancy
  Ba  Ba0  1  0.50000000  0.50000000  0.50000000  1
  Ba  Ba1  1  -0.00000000  -0.00000000  0.00000000  1
  Ba  Ba2  1  -0.00000000  -0.00000000  0.50000000  1
  Ba  Ba3  1  -0.00000000  0.50000000  0.00000000  1
  Ba  Ba4  1  0.50000000  -0.00000000  0.00000000  1
  Ba  Ba5  1  0.50000000  0.50000000  0.00000000  1
  Ba  Ba6  1  0.50000000  -0.00000000  0.50000000  1
  Ba  Ba7  1  -0.00000000  0.50000000  0.50000000  1
  Bi  Bi0  1  0.75000000  0.75000000  0.75000000  1
  Bi  Bi1  1  0.75000000  0.25000000  0.25000000  1
  Bi  Bi2  1  0.25000000  0.75000000  0.25000000  1
  Bi  Bi3  1  0.25000000  0.25000000  0.75000000  1
  Sb  Sb0  1  0.25000000  0.25000000  0.25000000  1
  Sb  Sb1  1  0.25000000  0.75000000  0.75000000  1
  Sb  Sb2  1  0.75000000  0.25000000  0.75000000  1
  Sb  Sb3  1  0.75000000  0.75000000  0.25000000  1
  O  O0  1  0.22983330  0.27245458  0.48198744  1
  O  O1  1  0.22983330  0.72754542  0.51801256  1
  O  O2  1  0.77016670  0.27245458  0.51801256  1
  O  O3  1  0.77016670  0.72754542  0.48198744  1
  O  O4  1  0.27245458  0.48198744  0.22983330  1
  O  O5  1  0.72754542  0.51801256  0.22983330  1
  O  O6  1  0.27245458  0.51801256  0.77016670  1
  O  O7  1  0.72754542  0.48198744  0.77016670  1
  O  O8  1  0.48198744  0.22983330  0.27245458  1
  O  O9  1  0.51801256  0.22983330  0.72754542  1
  O  O10  1  0.51801256  0.77016670  0.27245458  1
  O  O11  1  0.48198744  0.77016670  0.72754542  1
  O  O12  1  0.27016670  0.22754542  0.01801256  1
  O  O13  1  0.27016670  0.77245458  0.98198744  1
  O  O14  1  0.72983330  0.22754542  0.98198744  1
  O  O15  1  0.72983330  0.77245458  0.01801256  1
  O  O16  1  0.22754542  0.01801256  0.27016670  1
  O  O17  1  0.77245458  0.98198744  0.27016670  1
  O  O18  1  0.22754542  0.98198744  0.72983330  1
  O  O19  1  0.77245458  0.01801256  0.72983330  1
  O  O20  1  0.01801256  0.27016670  0.22754542  1
  O  O21  1  0.98198744  0.27016670  0.77245458  1
  O  O22  1  0.98198744  0.72983330  0.22754542  1
  O  O23  1  0.01801256  0.72983330  0.77245458  1
loop_
_geom_bond_atom_site_label_1
_geom_bond_atom_site_label_2
_geom_bond_distance
_geom_bond_site_symmetry_2
Ba0 O1 3.065734 1_555
Ba0 O8 3.065734 1_555
Ba0 O5 3.065734 1_555
Ba0 O4 3.065734 1_555
Ba0 O6 3.065734 1_555
Ba0 O7 3.065734 1_555
Ba0 O0 3.065734 1_555
Ba0 O9 3.065734 1_555
Ba0 O10 3.065734 1_555
Ba0 O2 3.065734 1_555
Ba0 O3 3.065734 1_555
Ba0 O11 3.065734 1_555
Ba1 O13 3.065734 1_544
Ba1 O14 3.065734 1_454
Ba1 O17 3.065734 1_445
Ba1 O23 3.065734 1_544
Ba1 O19 3.065734 1_454
Ba1 O21 3.065734 1_454
Ba1 O15 3.065734 1_445
Ba1 O12 3.065734 1_555
Ba1 O16 3.065734 1_555
Ba1 O18 3.065734 1_544
Ba1 O20 3.065734 1_555
Ba1 O22 3.065734 1_445
Ba2 O16 2.807758 1_555
Ba2 O18 2.807758 1_545
Ba2 O17 2.807758 1_445
Ba2 O19 2.807758 1_455
Ba2 O1 3.093642 1_545
Ba2 O0 3.093642 1_555
Ba2 O2 3.093642 1_455
Ba2 O3 3.093642 1_445
Ba2 O21 3.329541 1_455
Ba2 O22 3.329541 1_445
Ba2 O23 3.329541 1_545
Ba2 O20 3.329541 1_555
Ba3 O21 2.807758 1_454
Ba3 O23 2.807758 1_554
Ba3 O20 2.807758 1_555
Ba3 O22 2.807758 1_455
Ba3 O4 3.093642 1_555
Ba3 O5 3.093642 1_455
Ba3 O6 3.093642 1_554
Ba3 O7 3.093642 1_454
Ba3 O15 3.329541 1_455
Ba3 O14 3.329541 1_454
Ba3 O12 3.329541 1_555
Ba3 O13 3.329541 1_554
Ba4 O12 2.807758 1_555
Ba4 O13 2.807758 1_544
Ba4 O14 2.807758 1_554
Ba4 O15 2.807758 1_545
Ba4 O9 3.093642 1_554
Ba4 O8 3.093642 1_555
Ba4 O10 3.093642 1_545
Ba4 O11 3.093642 1_544
Ba4 O17 3.329541 1_545
Ba4 O19 3.329541 1_554
Ba4 O18 3.329541 1_544
Ba4 O16 3.329541 1_555
Ba5 O6 2.807758 1_554
Ba5 O7 2.807758 1_554
Ba5 O4 2.807758 1_555
Ba5 O5 2.807758 1_555
Ba5 O12 3.093642 1_555
Ba5 O13 3.093642 1_554
Ba5 O14 3.093642 1_554
Ba5 O15 3.093642 1_555
Ba5 O9 3.329541 1_554
Ba5 O8 3.329541 1_555
Ba5 O10 3.329541 1_555
Ba5 O11 3.329541 1_554
Ba6 O10 2.807758 1_545
Ba6 O9 2.807758 1_555
Ba6 O11 2.807758 1_545
Ba6 O8 2.807758 1_555
Ba6 O19 3.093642 1_555
Ba6 O16 3.093642 1_555
Ba6 O17 3.093642 1_545
Ba6 O18 3.093642 1_545
Ba6 O3 3.329541 1_545
Ba6 O1 3.329541 1_545
Ba6 O0 3.329541 1_555
Ba6 O2 3.329541 1_555
Ba7 O0 2.807758 1_555
Ba7 O2 2.807758 1_455
Ba7 O1 2.807758 1_555
Ba7 O3 2.807758 1_455
Ba7 O21 3.093642 1_455
Ba7 O22 3.093642 1_455
Ba7 O20 3.093642 1_555
Ba7 O23 3.093642 1_555
Ba7 O4 3.329541 1_555
Ba7 O5 3.329541 1_455
Ba7 O6 3.329541 1_555
Ba7 O7 3.329541 1_455
Bi0 O7 2.337826 1_555
Bi0 O3 2.337826 1_555
Bi0 O11 2.337826 1_555
Bi0 O23 2.337826 1_655
Bi0 O15 2.337826 1_556
Bi0 O19 2.337826 1_565
Bi1 O14 2.337826 1_554
Bi1 O5 2.337826 1_555
Bi1 O17 2.337826 1_545
Bi1 O2 2.337826 1_555
Bi1 O8 2.337826 1_555
Bi1 O20 2.337826 1_655
Bi2 O1 2.337826 1_555
Bi2 O22 2.337826 1_455
Bi2 O13 2.337826 1_554
Bi2 O10 2.337826 1_555
Bi2 O4 2.337826 1_555
Bi2 O16 2.337826 1_565
Bi3 O21 2.337826 1_455
Bi3 O6 2.337826 1_555
Bi3 O9 2.337826 1_555
Bi3 O18 2.337826 1_545
Bi3 O0 2.337826 1_555
Bi3 O12 2.337826 1_556
O0 Sb0 2.027822 1_555
O1 Sb1 2.027822 1_555
O2 Sb2 2.027822 1_555
O3 Sb3 2.027822 1_555
O4 Sb0 2.027822 1_555
O5 Sb3 2.027822 1_555
O6 Sb1 2.027822 1_555
O7 Sb2 2.027822 1_555
O8 Sb0 2.027822 1_555
O9 Sb2 2.027822 1_555
O10 Sb3 2.027822 1_555
O11 Sb1 2.027822 1_555
O12 Sb0 2.027822 1_555
O13 Sb1 2.027822 1_555
O14 Sb2 2.027822 1_555
O15 Sb3 2.027822 1_555
O16 Sb0 2.027822 1_555
O17 Sb3 2.027822 1_555
O18 Sb1 2.027822 1_555
O19 Sb2 2.027822 1_555
O20 Sb0 2.027822 1_555
O21 Sb2 2.027822 1_555
O22 Sb3 2.027822 1_555
O23 Sb1 2.027822 1_555
