# generated using pymatgen
data_Rb2PdCl4
_symmetry_space_group_name_H-M   'P 1'
_cell_length_a   4.34642365
_cell_length_b   7.25051461
_cell_length_c   7.25051461
_cell_angle_alpha   90.00000000
_cell_angle_beta   90.00000000
_cell_angle_gamma   90.00000000
_symmetry_Int_Tables_number   1
_chemical_formula_structural   Rb2PdCl4
_chemical_formula_sum   'Rb2 Pd1 Cl4'
_cell_volume   228.49132659
_cell_formula_units_Z   1
loop_
 _symmetry_equiv_pos_site_id
 _symmetry_equiv_pos_as_xyz
  1  'x, y, z'
loop_
 _atom_site_type_symbol
 _atom_site_label
 _atom_site_symmetry_multiplicity
 _atom_site_fract_x
 _atom_site_fract_y
 _atom_site_fract_z
 _atom_site_occupancy
  Rb  Rb0  1  0.50000000  0.00000000  0.50000000  1
  Rb  Rb1  1  0.50000000  0.50000000  -0.00000000  1
  Pd  Pd0  1  0.00000000  0.00000000  -0.00000000  1
  Cl  Cl0  1  0.00000000  0.22636879  0.22636879  1
  Cl  Cl1  1  -0.00000000  0.77363121  0.77363121  1
  Cl  Cl2  1  -0.00000000  0.77363121  0.22636879  1
  Cl  Cl3  1  0.00000000  0.22636879  0.77363121  1
loop_
_geom_bond_atom_site_label_1
_geom_bond_atom_site_label_2
_geom_bond_distance
_geom_bond_site_symmetry_2
Cl0 Pd0 2.321135 1_555
Cl0 Rb1 3.369393 1_455
Cl0 Rb0 3.369393 1_455
Cl0 Rb0 3.369393 1_555
Cl0 Rb1 3.369393 1_555
Cl1 Pd0 2.321135 1_566
Cl1 Rb1 3.369393 1_556
Cl1 Rb0 3.369393 1_565
Cl1 Rb0 3.369393 1_465
Cl1 Rb1 3.369393 1_456
Cl2 Pd0 2.321135 1_565
Cl2 Rb1 3.369393 1_455
Cl2 Rb0 3.369393 1_565
Cl2 Rb0 3.369393 1_465
Cl2 Rb1 3.369393 1_555
Cl3 Pd0 2.321135 1_556
Cl3 Rb1 3.369393 1_556
Cl3 Rb0 3.369393 1_455
Cl3 Rb0 3.369393 1_555
Cl3 Rb1 3.369393 1_456
