# generated using pymatgen
data_LiMg14Zn
_symmetry_space_group_name_H-M   'P 1'
_cell_length_a   6.32435267
_cell_length_b   6.34051792
_cell_length_c   10.15608974
_cell_angle_alpha   90.00000000
_cell_angle_beta   90.00000000
_cell_angle_gamma   120.08459417
_symmetry_Int_Tables_number   1
_chemical_formula_structural   LiMg14Zn
_chemical_formula_sum   'Li1 Mg14 Zn1'
_cell_volume   352.39289220
_cell_formula_units_Z   1
loop_
 _symmetry_equiv_pos_site_id
 _symmetry_equiv_pos_as_xyz
  1  'x, y, z'
loop_
 _atom_site_type_symbol
 _atom_site_label
 _atom_site_symmetry_multiplicity
 _atom_site_fract_x
 _atom_site_fract_y
 _atom_site_fract_z
 _atom_site_occupancy
  Li  Li0  1  0.16465482  0.83232691  0.12500000  1
  Mg  Mg0  1  0.16776354  0.33388127  0.62500000  1
  Mg  Mg1  1  0.16793737  0.83396819  0.62500000  1
  Mg  Mg2  1  0.66937456  0.33703579  0.12500000  1
  Mg  Mg3  1  0.66582678  0.33270714  0.62500000  1
  Mg  Mg4  1  0.66937456  0.83233777  0.12500000  1
  Mg  Mg5  1  0.66582678  0.83311865  0.62500000  1
  Mg  Mg6  1  0.32915115  0.16656697  0.36768643  1
  Mg  Mg7  1  0.32915115  0.16656697  0.88231357  1
  Mg  Mg8  1  0.32915115  0.66258518  0.36768643  1
  Mg  Mg9  1  0.32915115  0.66258518  0.88231357  1
  Mg  Mg10  1  0.83727838  0.16863969  0.36978368  1
  Mg  Mg11  1  0.83727838  0.16863969  0.88021632  1
  Mg  Mg12  1  0.83436570  0.66718335  0.37514166  1
  Mg  Mg13  1  0.83436570  0.66718335  0.87485834  1
  Zn  Zn0  1  0.16934880  0.33467390  0.12500000  1
loop_
_geom_bond_atom_site_label_1
_geom_bond_atom_site_label_2
_geom_bond_distance
_geom_bond_site_symmetry_2
Li0 Mg9 3.072149 1_554
Li0 Mg8 3.072149 1_555
Li0 Mg7 3.072155 1_564
Li0 Mg6 3.072155 1_565
Li0 Mg12 3.117832 1_455
Li0 Mg13 3.117832 1_454
Li0 Mg2 3.132361 1_455
Li0 Mg4 3.132362 1_455
Li0 Zn0 3.170363 1_565
Li0 Zn0 3.170363 1_555
Li0 Mg2 3.191991 1_565
Li0 Mg4 3.191991 1_555
Mg0 Mg5 3.153666 1_555
Mg0 Mg3 3.153666 1_555
Mg0 Mg10 3.160582 1_455
Mg0 Mg11 3.160582 1_455
Mg0 Mg1 3.170259 1_545
Mg0 Mg1 3.170259 1_555
Mg0 Mg5 3.170700 1_445
Mg0 Mg3 3.170700 1_455
Mg0 Mg6 3.175230 1_555
Mg0 Mg7 3.175230 1_555
Mg0 Mg9 3.175236 1_555
Mg0 Mg8 3.175236 1_555
Mg1 Mg13 3.125944 1_455
Mg1 Mg12 3.125944 1_455
Mg1 Mg3 3.151532 1_565
Mg1 Mg5 3.151532 1_555
Mg1 Mg3 3.172827 1_455
Mg1 Mg5 3.172828 1_455
Mg1 Mg8 3.187545 1_555
Mg1 Mg9 3.187545 1_555
Mg1 Mg6 3.187552 1_565
Mg1 Mg7 3.187552 1_565
Mg2 Mg7 3.088913 1_554
Mg2 Mg6 3.088913 1_555
Mg2 Mg4 3.140471 1_555
Mg2 Zn0 3.154859 1_555
Mg2 Zn0 3.169547 1_655
Mg2 Mg4 3.200047 1_545
Mg3 Mg5 3.167650 1_545
Mg3 Mg5 3.172868 1_555
Mg3 Mg6 3.197503 1_555
Mg3 Mg7 3.197503 1_555
Mg4 Mg8 3.088913 1_555
Mg4 Mg9 3.088913 1_554
Mg4 Zn0 3.154859 1_555
Mg4 Zn0 3.169547 1_665
Mg5 Mg8 3.197503 1_555
Mg5 Mg9 3.197503 1_555
Mg6 Zn0 3.051634 1_555
Mg6 Mg8 3.145012 1_555
Mg6 Mg8 3.195506 1_545
Mg7 Zn0 3.051634 1_556
Mg7 Mg9 3.145012 1_555
Mg7 Mg9 3.195506 1_545
Mg8 Zn0 3.051641 1_555
Mg9 Zn0 3.051641 1_556
Mg10 Zn0 3.079397 1_655
Mg10 Mg2 3.095921 1_555
Mg10 Mg4 3.095928 1_545
Mg10 Mg8 3.117458 1_655
Mg10 Mg6 3.117458 1_655
Mg10 Mg12 3.170766 1_545
Mg10 Mg12 3.170766 1_555
Mg10 Mg3 3.179191 1_555
Mg10 Mg5 3.179197 1_545
Mg10 Mg8 3.207079 1_545
Mg10 Mg6 3.207079 1_555
Mg11 Zn0 3.079397 1_656
Mg11 Mg2 3.095921 1_556
Mg11 Mg4 3.095928 1_546
Mg11 Mg9 3.117458 1_655
Mg11 Mg7 3.117458 1_655
Mg11 Mg13 3.170766 1_545
Mg11 Mg13 3.170766 1_555
Mg11 Mg3 3.179191 1_555
Mg11 Mg5 3.179197 1_545
Mg11 Mg9 3.207079 1_545
Mg11 Mg7 3.207079 1_555
Mg12 Mg4 3.120061 1_555
Mg12 Mg2 3.120067 1_555
Mg12 Mg5 3.131571 1_555
Mg12 Mg3 3.131577 1_555
Mg12 Mg6 3.144825 1_665
Mg12 Mg8 3.144825 1_655
Mg12 Mg6 3.181541 1_555
Mg12 Mg8 3.181541 1_555
Mg13 Mg4 3.120061 1_556
Mg13 Mg2 3.120067 1_556
Mg13 Mg5 3.131571 1_555
Mg13 Mg3 3.131577 1_555
Mg13 Mg7 3.144825 1_665
Mg13 Mg9 3.144825 1_655
Mg13 Mg7 3.181541 1_555
Mg13 Mg9 3.181541 1_555
