# generated using pymatgen
data_CaMg30NbO32
_symmetry_space_group_name_H-M   'P 1'
_cell_length_a   8.58991020
_cell_length_b   8.59776736
_cell_length_c   8.59776736
_cell_angle_alpha   90.00000000
_cell_angle_beta   90.00000000
_cell_angle_gamma   90.00000000
_symmetry_Int_Tables_number   1
_chemical_formula_structural   CaMg30NbO32
_chemical_formula_sum   'Ca1 Mg30 Nb1 O32'
_cell_volume   634.97993656
_cell_formula_units_Z   1
loop_
 _symmetry_equiv_pos_site_id
 _symmetry_equiv_pos_as_xyz
  1  'x, y, z'
loop_
 _atom_site_type_symbol
 _atom_site_label
 _atom_site_symmetry_multiplicity
 _atom_site_fract_x
 _atom_site_fract_y
 _atom_site_fract_z
 _atom_site_occupancy
  Ca  Ca0  1  -0.00000000  -0.00000000  0.00000000  1
  Mg  Mg0  1  -0.00000000  -0.00000000  0.50000000  1
  Mg  Mg1  1  -0.00000000  0.50000000  0.00000000  1
  Mg  Mg2  1  0.50000000  -0.00000000  0.00000000  1
  Mg  Mg3  1  0.50000000  -0.00000000  0.50000000  1
  Mg  Mg4  1  0.50000000  0.50000000  0.00000000  1
  Mg  Mg5  1  0.50000000  0.50000000  0.50000000  1
  Mg  Mg6  1  -0.00000000  0.25110550  0.25110550  1
  Mg  Mg7  1  -0.00000000  0.25110550  0.74889450  1
  Mg  Mg8  1  -0.00000000  0.74889450  0.25110550  1
  Mg  Mg9  1  -0.00000000  0.74889450  0.74889450  1
  Mg  Mg10  1  0.50000000  0.25008160  0.25008160  1
  Mg  Mg11  1  0.50000000  0.25008160  0.74991840  1
  Mg  Mg12  1  0.50000000  0.74991840  0.25008160  1
  Mg  Mg13  1  0.50000000  0.74991840  0.74991840  1
  Mg  Mg14  1  0.25288847  0.00000000  0.25290160  1
  Mg  Mg15  1  0.25288847  0.00000000  0.74709840  1
  Mg  Mg16  1  0.25187460  0.50000000  0.24830560  1
  Mg  Mg17  1  0.25187460  0.50000000  0.75169440  1
  Mg  Mg18  1  0.74711153  -0.00000000  0.25290160  1
  Mg  Mg19  1  0.74711153  -0.00000000  0.74709840  1
  Mg  Mg20  1  0.74812540  0.50000000  0.24830560  1
  Mg  Mg21  1  0.74812540  0.50000000  0.75169440  1
  Mg  Mg22  1  0.25288847  0.25290160  0.00000000  1
  Mg  Mg23  1  0.25187460  0.24830560  0.50000000  1
  Mg  Mg24  1  0.25288847  0.74709840  0.00000000  1
  Mg  Mg25  1  0.25187460  0.75169440  0.50000000  1
  Mg  Mg26  1  0.74711153  0.25290160  0.00000000  1
  Mg  Mg27  1  0.74812540  0.24830560  0.50000000  1
  Mg  Mg28  1  0.74711153  0.74709840  0.00000000  1
  Mg  Mg29  1  0.74812540  0.75169440  0.50000000  1
  Nb  Nb0  1  -0.00000000  0.50000000  0.50000000  1
  O  O0  1  0.26248313  0.00000000  0.00000000  1
  O  O1  1  0.25363561  0.00000000  0.50000000  1
  O  O2  1  0.25363561  0.50000000  0.00000000  1
  O  O3  1  0.26235538  0.50000000  0.50000000  1
  O  O4  1  0.73751687  -0.00000000  0.00000000  1
  O  O5  1  0.74636439  -0.00000000  0.50000000  1
  O  O6  1  0.74636439  0.50000000  0.00000000  1
  O  O7  1  0.73764462  0.50000000  0.50000000  1
  O  O8  1  0.24961042  0.25008968  0.25008968  1
  O  O9  1  0.24961042  0.25008968  0.74991032  1
  O  O10  1  0.24961042  0.74991032  0.25008968  1
  O  O11  1  0.24961042  0.74991032  0.74991032  1
  O  O12  1  0.75038958  0.25008968  0.25008968  1
  O  O13  1  0.75038958  0.25008968  0.74991032  1
  O  O14  1  0.75038958  0.74991032  0.25008968  1
  O  O15  1  0.75038958  0.74991032  0.74991032  1
  O  O16  1  -0.00000000  0.00000000  0.26117039  1
  O  O17  1  -0.00000000  0.00000000  0.73882961  1
  O  O18  1  -0.00000000  0.50000000  0.23919854  1
  O  O19  1  -0.00000000  0.50000000  0.76080146  1
  O  O20  1  0.50000000  0.00000000  0.25184339  1
  O  O21  1  0.50000000  -0.00000000  0.74815661  1
  O  O22  1  0.50000000  0.50000000  0.24890341  1
  O  O23  1  0.50000000  0.50000000  0.75109659  1
  O  O24  1  -0.00000000  0.26117039  0.00000000  1
  O  O25  1  -0.00000000  0.23919854  0.50000000  1
  O  O26  1  -0.00000000  0.73882961  0.00000000  1
  O  O27  1  -0.00000000  0.76080146  0.50000000  1
  O  O28  1  0.50000000  0.25184339  0.00000000  1
  O  O29  1  0.50000000  0.24890341  0.50000000  1
  O  O30  1  0.50000000  0.74815661  0.00000000  1
  O  O31  1  0.50000000  0.75109659  0.50000000  1
loop_
_geom_bond_atom_site_label_1
_geom_bond_atom_site_label_2
_geom_bond_distance
_geom_bond_site_symmetry_2
Ca0 O17 2.245482 1_554
Ca0 O26 2.245482 1_545
Ca0 O16 2.245482 1_555
Ca0 O24 2.245482 1_555
Ca0 O0 2.254707 1_555
Ca0 O4 2.254707 1_455
Mg0 O16 2.053401 1_555
Mg0 O17 2.053401 1_555
Mg0 O27 2.056573 1_545
Mg0 O25 2.056573 1_555
Mg0 O1 2.178707 1_555
Mg0 O5 2.178707 1_455
Mg1 O24 2.053401 1_555
Mg1 O26 2.053401 1_555
Mg1 O19 2.056573 1_554
Mg1 O18 2.056573 1_555
Mg1 O2 2.178707 1_555
Mg1 O6 2.178707 1_455
Mg2 O4 2.040249 1_555
Mg2 O0 2.040249 1_555
Mg2 O20 2.165291 1_555
Mg2 O21 2.165291 1_554
Mg2 O28 2.165291 1_555
Mg2 O30 2.165291 1_545
Mg3 O1 2.116248 1_555
Mg3 O5 2.116248 1_555
Mg3 O20 2.133593 1_555
Mg3 O21 2.133593 1_555
Mg3 O31 2.140014 1_545
Mg3 O29 2.140014 1_555
Mg4 O2 2.116248 1_555
Mg4 O6 2.116248 1_555
Mg4 O28 2.133593 1_555
Mg4 O30 2.133593 1_555
Mg4 O23 2.140014 1_554
Mg4 O22 2.140014 1_555
Mg5 O7 2.041346 1_555
Mg5 O3 2.041346 1_555
Mg5 O22 2.158870 1_555
Mg5 O29 2.158870 1_555
Mg5 O23 2.158870 1_555
Mg5 O31 2.158870 1_555
Mg6 O25 2.142384 1_555
Mg6 O18 2.142384 1_555
Mg6 O12 2.144167 1_455
Mg6 O8 2.144167 1_555
Mg6 O24 2.160680 1_555
Mg6 O16 2.160680 1_555
Mg7 O25 2.142384 1_555
Mg7 O19 2.142384 1_555
Mg7 O9 2.144167 1_555
Mg7 O13 2.144167 1_455
Mg7 O17 2.160680 1_555
Mg7 O24 2.160680 1_556
Mg8 O27 2.142384 1_555
Mg8 O18 2.142384 1_555
Mg8 O10 2.144167 1_555
Mg8 O14 2.144167 1_455
Mg8 O16 2.160680 1_565
Mg8 O26 2.160680 1_555
Mg9 O27 2.142384 1_555
Mg9 O19 2.142384 1_555
Mg9 O11 2.144167 1_555
Mg9 O15 2.144167 1_455
Mg9 O26 2.160680 1_556
Mg9 O17 2.160680 1_565
Mg10 O22 2.148764 1_555
Mg10 O29 2.148764 1_555
Mg10 O20 2.150197 1_555
Mg10 O28 2.150197 1_555
Mg10 O12 2.150824 1_555
Mg10 O8 2.150824 1_555
Mg11 O23 2.148764 1_555
Mg11 O29 2.148764 1_555
Mg11 O21 2.150197 1_555
Mg11 O28 2.150197 1_556
Mg11 O9 2.150824 1_555
Mg11 O13 2.150824 1_555
Mg12 O22 2.148764 1_555
Mg12 O31 2.148764 1_555
Mg12 O30 2.150197 1_555
Mg12 O20 2.150197 1_565
Mg12 O10 2.150824 1_555
Mg12 O14 2.150824 1_555
Mg13 O23 2.148764 1_555
Mg13 O31 2.148764 1_555
Mg13 O30 2.150197 1_556
Mg13 O21 2.150197 1_565
Mg13 O15 2.150824 1_555
Mg13 O11 2.150824 1_555
Mg14 O20 2.122685 1_555
Mg14 O1 2.124504 1_555
Mg14 O8 2.150533 1_555
Mg14 O10 2.150533 1_545
Mg14 O16 2.173452 1_555
Mg14 O0 2.175951 1_555
Mg15 O21 2.122685 1_555
Mg15 O1 2.124504 1_555
Mg15 O9 2.150533 1_555
Mg15 O11 2.150533 1_545
Mg15 O17 2.173452 1_555
Mg15 O0 2.175951 1_556
Mg16 O22 2.131381 1_555
Mg16 O2 2.134927 1_555
Mg16 O10 2.148814 1_555
Mg16 O8 2.148814 1_555
Mg16 O18 2.164997 1_555
Mg16 O3 2.165882 1_555
Mg17 O23 2.131381 1_555
Mg17 O2 2.134927 1_556
Mg17 O11 2.148814 1_555
Mg17 O9 2.148814 1_555
Mg17 O19 2.164997 1_555
Mg17 O3 2.165882 1_555
Mg18 O20 2.122685 1_555
Mg18 O5 2.124504 1_555
Mg18 O12 2.150533 1_555
Mg18 O14 2.150533 1_545
Mg18 O16 2.173452 1_655
Mg18 O4 2.175951 1_555
Mg19 O21 2.122685 1_555
Mg19 O5 2.124504 1_555
Mg19 O13 2.150533 1_555
Mg19 O15 2.150533 1_545
Mg19 O17 2.173452 1_655
Mg19 O4 2.175951 1_556
Mg20 O22 2.131381 1_555
Mg20 O6 2.134927 1_555
Mg20 O12 2.148814 1_555
Mg20 O14 2.148814 1_555
Mg20 O18 2.164997 1_655
Mg20 O7 2.165882 1_555
Mg21 O23 2.131381 1_555
Mg21 O6 2.134927 1_556
Mg21 O13 2.148814 1_555
Mg21 O15 2.148814 1_555
Mg21 O19 2.164997 1_655
Mg21 O7 2.165882 1_555
Mg22 O28 2.122685 1_555
Mg22 O2 2.124504 1_555
Mg22 O8 2.150533 1_555
Mg22 O9 2.150533 1_554
Mg22 O24 2.173452 1_555
Mg22 O0 2.175951 1_555
Mg23 O29 2.131381 1_555
Mg23 O1 2.134927 1_555
Mg23 O8 2.148814 1_555
Mg23 O9 2.148814 1_555
Mg23 O25 2.164997 1_555
Mg23 O3 2.165882 1_555
Mg24 O30 2.122685 1_555
Mg24 O2 2.124504 1_555
Mg24 O11 2.150533 1_554
Mg24 O10 2.150533 1_555
Mg24 O26 2.173452 1_555
Mg24 O0 2.175951 1_565
Mg25 O31 2.131381 1_555
Mg25 O1 2.134927 1_565
Mg25 O10 2.148814 1_555
Mg25 O11 2.148814 1_555
Mg25 O27 2.164997 1_555
Mg25 O3 2.165882 1_555
Mg26 O28 2.122685 1_555
Mg26 O6 2.124504 1_555
Mg26 O13 2.150533 1_554
Mg26 O12 2.150533 1_555
Mg26 O24 2.173452 1_655
Mg26 O4 2.175951 1_555
Mg27 O29 2.131381 1_555
Mg27 O5 2.134927 1_555
Mg27 O13 2.148814 1_555
Mg27 O12 2.148814 1_555
Mg27 O25 2.164997 1_655
Mg27 O7 2.165882 1_555
Mg28 O30 2.122685 1_555
Mg28 O6 2.124504 1_555
Mg28 O14 2.150533 1_555
Mg28 O15 2.150533 1_554
Mg28 O26 2.173452 1_655
Mg28 O4 2.175951 1_565
Mg29 O31 2.131381 1_555
Mg29 O5 2.134927 1_565
Mg29 O14 2.148814 1_555
Mg29 O15 2.148814 1_555
Mg29 O27 2.164997 1_655
Mg29 O7 2.165882 1_555
Nb0 O25 2.242310 1_555
Nb0 O18 2.242310 1_555
Nb0 O19 2.242310 1_555
Nb0 O27 2.242310 1_555
Nb0 O3 2.253609 1_555
Nb0 O7 2.253609 1_455
