# generated using pymatgen
data_K2PdO4
_symmetry_space_group_name_H-M   'P 1'
_cell_length_a   5.33599300
_cell_length_b   6.92474956
_cell_length_c   7.33242841
_cell_angle_alpha   87.69886162
_cell_angle_beta   73.29519025
_cell_angle_gamma   87.24054444
_symmetry_Int_Tables_number   1
_chemical_formula_structural   K2PdO4
_chemical_formula_sum   'K4 Pd2 O8'
_cell_volume   259.10335432
_cell_formula_units_Z   2
loop_
 _symmetry_equiv_pos_site_id
 _symmetry_equiv_pos_as_xyz
  1  'x, y, z'
loop_
 _atom_site_type_symbol
 _atom_site_label
 _atom_site_symmetry_multiplicity
 _atom_site_fract_x
 _atom_site_fract_y
 _atom_site_fract_z
 _atom_site_occupancy
  K  K0  1  0.81554900  0.12972400  0.58203000  1
  K  K1  1  0.16667400  0.63052900  0.41684100  1
  K  K2  1  0.83426100  0.50314300  0.08846900  1
  K  K3  1  0.17801900  0.00915900  0.91524000  1
  Pd  Pd0  1  0.51015200  0.57850900  0.75718100  1
  Pd  Pd1  1  0.49455300  0.06982000  0.24805400  1
  O  O0  1  0.33276900  0.63123400  0.01351600  1
  O  O1  1  0.66101200  0.14076600  0.99062700  1
  O  O2  1  0.64365200  0.50199700  0.49641000  1
  O  O3  1  0.34216900  0.99676500  0.50693700  1
  O  O4  1  0.25131400  0.39645500  0.75033000  1
  O  O5  1  0.78219400  0.89227100  0.24407500  1
  O  O6  1  0.78131300  0.74780800  0.73574900  1
  O  O7  1  0.20636700  0.24422000  0.25454300  1
loop_
_geom_bond_atom_site_label_1
_geom_bond_atom_site_label_2
_geom_bond_distance
_geom_bond_site_symmetry_2
K0 O2 2.802575 1_555
K0 O7 2.805560 1_655
K0 O3 2.819454 1_645
K0 O6 2.826105 1_545
K0 O1 2.872969 1_555
K0 O3 2.931811 1_545
K0 O5 3.079769 1_545
K1 O6 2.753779 1_455
K1 O0 2.832651 1_555
K1 O2 2.860558 1_455
K1 O2 2.864301 1_555
K1 O3 2.909288 1_555
K1 O7 2.945057 1_555
K1 O4 3.009458 1_555
K1 O5 3.170263 1_455
K2 O0 2.740840 1_655
K2 O2 2.869094 1_555
K2 O1 2.900940 1_554
K2 O4 2.909008 1_654
K2 O5 2.938115 1_555
K2 O0 2.971084 1_555
K2 O7 3.084140 1_655
K2 O6 3.108265 1_554
K3 O1 2.769204 1_455
K3 O5 2.830214 1_446
K3 O0 2.834177 1_546
K3 O3 2.871166 1_545
K3 O4 2.894226 1_555
K3 O1 2.977231 1_555
K3 O7 3.070406 1_556
O0 Pd0 1.887070 1_554
O1 Pd1 1.896554 1_556
O2 Pd0 1.925152 1_555
O3 Pd1 1.896198 1_565
O4 Pd0 1.926669 1_555
O5 Pd1 1.914075 1_565
O6 Pd0 1.873628 1_555
O7 Pd1 1.899786 1_555
