# generated using pymatgen
data_PrMgPt
_symmetry_space_group_name_H-M   'P 1'
_cell_length_a   7.58508170
_cell_length_b   7.58508054
_cell_length_c   4.14184921
_cell_angle_alpha   90.00000000
_cell_angle_beta   90.00000000
_cell_angle_gamma   119.99999591
_symmetry_Int_Tables_number   1
_chemical_formula_structural   PrMgPt
_chemical_formula_sum   'Pr3 Mg3 Pt3'
_cell_volume   206.36944349
_cell_formula_units_Z   3
loop_
 _symmetry_equiv_pos_site_id
 _symmetry_equiv_pos_as_xyz
  1  'x, y, z'
loop_
 _atom_site_type_symbol
 _atom_site_label
 _atom_site_symmetry_multiplicity
 _atom_site_fract_x
 _atom_site_fract_y
 _atom_site_fract_z
 _atom_site_occupancy
  Pr  Pr0  1  0.41362197  0.41362197  -0.00000000  1
  Pr  Pr1  1  0.58637803  -0.00000000  0.00000000  1
  Pr  Pr2  1  0.00000000  0.58637803  0.00000000  1
  Mg  Mg0  1  0.00000000  0.23725764  0.50000000  1
  Mg  Mg1  1  0.76274236  0.76274236  0.50000000  1
  Mg  Mg2  1  0.23725764  -0.00000000  0.50000000  1
  Pt  Pt0  1  -0.00000000  -0.00000000  -0.00000000  1
  Pt  Pt1  1  0.66666700  0.33333300  0.50000000  1
  Pt  Pt2  1  0.33333300  0.66666700  0.50000000  1
loop_
_geom_bond_atom_site_label_1
_geom_bond_atom_site_label_2
_geom_bond_distance
_geom_bond_site_symmetry_2
Pr0 Pt2 3.084229 1_555
Pr0 Pt2 3.084229 1_554
Pr0 Pt1 3.084229 1_555
Pr0 Pt1 3.084229 1_554
Pr0 Pt0 3.137356 1_555
Pr1 Pt1 3.084224 1_555
Pr1 Pt1 3.084224 1_554
Pr1 Pt2 3.084225 1_544
Pr1 Pt2 3.084225 1_545
Pr1 Pt0 3.137356 1_655
Pr2 Pt2 3.084224 1_555
Pr2 Pt2 3.084224 1_554
Pr2 Pt1 3.084225 1_454
Pr2 Pt1 3.084225 1_455
Pr2 Pt0 3.137356 1_565
Mg0 Pt0 2.743603 1_556
Mg0 Pt0 2.743603 1_555
Mg0 Pt1 2.960772 1_455
Mg0 Pt2 2.960777 1_555
Mg1 Pt0 2.743603 1_665
Mg1 Pt0 2.743603 1_666
Mg1 Pt1 2.960779 1_555
Mg1 Pt2 2.960779 1_555
Mg2 Pt0 2.743603 1_555
Mg2 Pt0 2.743603 1_556
Mg2 Pt2 2.960771 1_545
Mg2 Pt1 2.960777 1_555
