# generated using pymatgen
data_Li9Mn2Co5O16
_symmetry_space_group_name_H-M   'P 1'
_cell_length_a   5.90180100
_cell_length_b   6.43328807
_cell_length_c   8.11388593
_cell_angle_alpha   88.95253884
_cell_angle_beta   89.22707288
_cell_angle_gamma   65.98931461
_symmetry_Int_Tables_number   1
_chemical_formula_structural   Li9Mn2Co5O16
_chemical_formula_sum   'Li9 Mn2 Co5 O16'
_cell_volume   281.35746337
_cell_formula_units_Z   1
loop_
 _symmetry_equiv_pos_site_id
 _symmetry_equiv_pos_as_xyz
  1  'x, y, z'
loop_
 _atom_site_type_symbol
 _atom_site_label
 _atom_site_symmetry_multiplicity
 _atom_site_fract_x
 _atom_site_fract_y
 _atom_site_fract_z
 _atom_site_occupancy
  Li  Li0  1  0.74935100  0.50044400  0.00173100  1
  Li  Li1  1  0.12272800  0.24986300  0.25414400  1
  Li  Li2  1  0.37543300  0.74877200  0.74599100  1
  Li  Li3  1  0.00840600  0.99839900  0.49846600  1
  Li  Li4  1  0.62686600  0.25240500  0.25305500  1
  Li  Li5  1  0.25052700  0.50279000  0.00337600  1
  Li  Li6  1  0.87541200  0.74776100  0.74661400  1
  Li  Li7  1  0.49366000  0.99593500  0.49657000  1
  Li  Li8  1  0.37440300  0.74965800  0.25365300  1
  Mn  Mn0  1  0.00980300  0.99753400  0.99996800  1
  Mn  Mn1  1  0.87589800  0.74686100  0.25167300  1
  Co  Co0  1  0.73691500  0.50668900  0.49819800  1
  Co  Co1  1  0.12548200  0.25085500  0.74924000  1
  Co  Co2  1  0.50351700  0.99778500  0.00118200  1
  Co  Co3  1  0.24941100  0.50339200  0.49944300  1
  Co  Co4  1  0.62665100  0.24938100  0.74855300  1
  O  O0  1  0.11678300  0.24213300  0.98973000  1
  O  O1  1  0.52969400  0.97969700  0.23364900  1
  O  O2  1  0.74307700  0.48711700  0.73983100  1
  O  O3  1  0.36820600  0.73233800  0.50071100  1
  O  O4  1  0.99203300  0.99218000  0.23644500  1
  O  O5  1  0.65041400  0.22228900  0.99007500  1
  O  O6  1  0.24609900  0.48477100  0.74142600  1
  O  O7  1  0.85633200  0.74733400  0.48746200  1
  O  O8  1  0.35046800  0.78334500  0.99820700  1
  O  O9  1  0.75690300  0.50842100  0.25991700  1
  O  O10  1  0.00660400  0.01109600  0.76067900  1
  O  O11  1  0.63235600  0.25959100  0.51157000  1
  O  O12  1  0.21727800  0.51956400  0.26147900  1
  O  O13  1  0.89203500  0.75374400  0.00998300  1
  O  O14  1  0.50649500  0.01325300  0.76464000  1
  O  O15  1  0.13076000  0.26460200  0.51234000  1
loop_
_geom_bond_atom_site_label_1
_geom_bond_atom_site_label_2
_geom_bond_distance
_geom_bond_site_symmetry_2
Li0 O9 2.097976 1_555
Li0 O5 2.100009 1_554
Li0 O13 2.119268 1_555
Li0 O2 2.129748 1_554
Li0 O0 2.130966 1_654
Li0 O8 2.316943 1_554
Li1 O12 2.029278 1_555
Li1 O15 2.100893 1_555
Li1 O4 2.101432 1_445
Li1 O9 2.123183 1_455
Li1 O0 2.148000 1_554
Li1 O1 2.328046 1_545
Li2 O3 1.996858 1_555
Li2 O8 2.059364 1_555
Li2 O6 2.127588 1_555
Li2 O2 2.138147 1_555
Li2 O14 2.144732 1_565
Li2 O10 2.147390 1_565
Li3 O3 2.116879 1_555
Li3 O15 2.117221 1_565
Li3 O10 2.130343 1_565
Li3 O4 2.131349 1_455
Li3 O7 2.146963 1_455
Li3 O11 2.173855 1_465
Li4 O1 2.064698 1_545
Li4 O9 2.082775 1_555
Li4 O11 2.099892 1_555
Li4 O4 2.128298 1_545
Li4 O5 2.143621 1_554
Li4 O12 2.328247 1_555
Li5 O13 2.075098 1_455
Li5 O12 2.101391 1_555
Li5 O8 2.114292 1_554
Li5 O0 2.129215 1_554
Li5 O6 2.131796 1_554
Li5 O5 2.317809 1_554
Li6 O7 2.107371 1_555
Li6 O2 2.120135 1_555
Li6 O10 2.135288 1_665
Li6 O13 2.142284 1_556
Li6 O6 2.153664 1_655
Li6 O14 2.157151 1_565
Li7 O7 2.087791 1_555
Li7 O3 2.108103 1_555
Li7 O15 2.139861 1_565
Li7 O1 2.141257 1_555
Li7 O11 2.168410 1_565
Li7 O14 2.183881 1_565
Li8 O3 2.006327 1_555
Li8 O1 2.036527 1_555
Li8 O12 2.041374 1_555
Li8 O8 2.080722 1_554
Li8 O9 2.157829 1_555
Li8 O4 2.163681 1_455
Mn0 O0 1.919380 1_565
Mn0 O8 1.920036 1_555
Mn0 O4 1.920643 1_456
Mn0 O10 1.941930 1_565
Mn0 O13 1.957146 1_456
Mn0 O5 2.024954 1_465
Mn1 O7 1.915075 1_555
Mn1 O9 1.929345 1_555
Mn1 O12 1.950970 1_655
Mn1 O4 1.961297 1_555
Mn1 O13 1.962638 1_555
Mn1 O1 1.987261 1_555
Co0 O11 1.926075 1_555
Co0 O9 1.935496 1_555
Co0 O7 1.944836 1_555
Co0 O2 1.962201 1_555
Co0 O3 2.066897 1_555
Co0 O15 2.212722 1_655
Co1 O6 1.908511 1_555
Co1 O15 1.923013 1_555
Co1 O10 1.937436 1_555
Co1 O0 1.951673 1_555
Co1 O14 2.147543 1_555
Co1 O2 2.149026 1_455
Co2 O1 1.892196 1_555
Co2 O14 1.920249 1_564
Co2 O8 1.932755 1_554
Co2 O5 1.964149 1_564
Co2 O0 2.183959 1_564
Co2 O13 2.190494 1_555
Co3 O3 1.871401 1_555
Co3 O15 1.931017 1_555
Co3 O12 1.939408 1_555
Co3 O6 1.965205 1_555
Co3 O11 2.166368 1_555
Co3 O7 2.211737 1_455
Co4 O2 1.914747 1_555
Co4 O14 1.922092 1_555
Co4 O11 1.923083 1_555
Co4 O5 1.966071 1_555
Co4 O6 2.138513 1_555
Co4 O10 2.142654 1_655
