# generated using pymatgen
data_Er3(AlNi3)2
_symmetry_space_group_name_H-M   'P 1'
_cell_length_a   7.61776046
_cell_length_b   7.61776245
_cell_length_c   7.61775797
_cell_angle_alpha   109.46939244
_cell_angle_beta   109.46934896
_cell_angle_gamma   109.46926087
_symmetry_Int_Tables_number   1
_chemical_formula_structural   Er3(AlNi3)2
_chemical_formula_sum   'Er6 Al4 Ni12'
_cell_volume   340.32225341
_cell_formula_units_Z   2
loop_
 _symmetry_equiv_pos_site_id
 _symmetry_equiv_pos_as_xyz
  1  'x, y, z'
loop_
 _atom_site_type_symbol
 _atom_site_label
 _atom_site_symmetry_multiplicity
 _atom_site_fract_x
 _atom_site_fract_y
 _atom_site_fract_z
 _atom_site_occupancy
  Er  Er0  1  0.29438732  0.29439054  0.00000633  1
  Er  Er1  1  0.70561109  0.70561461  -0.00000342  1
  Er  Er2  1  0.29439026  0.00000446  0.29438608  1
  Er  Er3  1  0.70561291  -0.00000519  0.70560953  1
  Er  Er4  1  -0.00000518  0.70561003  0.70561341  1
  Er  Er5  1  0.00000407  0.29438666  0.29438938  1
  Al  Al0  1  0.50000018  0.50000011  0.49999972  1
  Al  Al1  1  -0.00000163  0.00000015  0.49999962  1
  Al  Al2  1  0.50000014  -0.00000070  0.00000154  1
  Al  Al3  1  0.00000090  0.49999989  -0.00000097  1
  Ni  Ni0  1  0.66606615  0.00000102  0.33393445  1
  Ni  Ni1  1  0.33391616  0.33392632  0.66783899  1
  Ni  Ni2  1  0.66784190  0.33391710  0.33392696  1
  Ni  Ni3  1  -0.00000021  0.33393454  0.66606365  1
  Ni  Ni4  1  0.00000435  0.66606732  0.33393807  1
  Ni  Ni5  1  0.33392447  0.66784166  0.33391997  1
  Ni  Ni6  1  0.66607569  0.66608344  0.33216222  1
  Ni  Ni7  1  0.66608226  0.33215827  0.66607273  1
  Ni  Ni8  1  0.33215729  0.66607531  0.66608008  1
  Ni  Ni9  1  0.66606549  0.33393264  0.00000021  1
  Ni  Ni10  1  0.33393259  -0.00000394  0.66606319  1
  Ni  Ni11  1  0.33393379  0.66606576  -0.00000175  1
loop_
_geom_bond_atom_site_label_1
_geom_bond_atom_site_label_2
_geom_bond_distance
_geom_bond_site_symmetry_2
Er0 Ni11 2.745679 1_555
Er0 Ni9 2.745702 1_555
Er0 Ni1 2.745838 1_554
Er0 Ni6 2.746035 1_555
Er0 Ni5 2.957792 1_555
Er0 Ni2 2.957878 1_555
Er0 Ni3 2.957961 1_554
Er0 Ni10 2.957995 1_554
Er1 Ni11 2.745671 1_555
Er1 Ni9 2.745718 1_555
Er1 Ni6 2.745831 1_555
Er1 Ni1 2.746044 1_554
Er1 Ni8 2.957809 1_554
Er1 Ni7 2.957889 1_554
Er1 Ni0 2.957937 1_565
Er1 Ni4 2.957993 1_655
Er2 Ni0 2.745666 1_555
Er2 Ni10 2.745699 1_555
Er2 Ni5 2.745815 1_545
Er2 Ni7 2.746023 1_555
Er2 Ni2 2.957782 1_555
Er2 Ni1 2.957876 1_555
Er2 Ni11 2.957940 1_545
Er2 Ni4 2.957971 1_545
Er3 Ni0 2.745670 1_555
Er3 Ni10 2.745697 1_555
Er3 Ni7 2.745818 1_555
Er3 Ni5 2.746020 1_545
Er3 Ni6 2.957764 1_545
Er3 Ni8 2.957871 1_545
Er3 Ni3 2.957957 1_655
Er3 Ni9 2.957965 1_556
Er4 Ni3 2.745665 1_555
Er4 Ni4 2.745688 1_555
Er4 Ni8 2.745811 1_555
Er4 Ni2 2.746024 1_455
Er4 Ni7 2.957783 1_455
Er4 Ni6 2.957855 1_455
Er4 Ni11 2.957934 1_556
Er4 Ni10 2.957966 1_565
Er5 Ni3 2.745656 1_555
Er5 Ni4 2.745691 1_555
Er5 Ni2 2.745809 1_455
Er5 Ni8 2.746024 1_555
Er5 Ni1 2.957770 1_555
Er5 Ni5 2.957868 1_555
Er5 Ni0 2.957940 1_455
Er5 Ni9 2.957957 1_455
Al0 Ni6 2.434230 1_555
Al0 Ni1 2.434238 1_555
Al0 Ni5 2.434242 1_555
Al0 Ni7 2.434243 1_555
Al0 Ni2 2.434243 1_555
Al0 Ni8 2.434250 1_555
Al0 Er0 3.134448 1_555
Al0 Er4 3.134460 1_655
Al0 Er3 3.134461 1_565
Al0 Er2 3.134467 1_555
Al0 Er5 3.134469 1_555
Al0 Er1 3.134470 1_556
Al1 Ni0 2.434377 1_455
Al1 Ni3 2.434380 1_555
Al1 Ni4 2.434396 1_545
Al1 Ni10 2.434401 1_555
Al1 Ni6 2.434439 1_445
Al1 Ni1 2.434455 1_555
Al1 Er3 3.134285 1_455
Al1 Er5 3.134295 1_555
Al1 Er4 3.134341 1_545
Al1 Er2 3.134349 1_555
Al1 Er1 3.134584 1_445
Al1 Er0 3.134608 1_556
Al2 Ni0 2.434372 1_555
Al2 Ni11 2.434373 1_545
Al2 Ni9 2.434389 1_555
Al2 Ni10 2.434404 1_554
Al2 Ni2 2.434446 1_555
Al2 Ni8 2.434453 1_544
Al2 Er2 3.134279 1_555
Al2 Er1 3.134285 1_545
Al2 Er0 3.134340 1_555
Al2 Er3 3.134345 1_554
Al2 Er5 3.134594 1_655
Al2 Er4 3.134603 1_544
Al3 Ni11 2.434384 1_555
Al3 Ni3 2.434389 1_554
Al3 Ni9 2.434404 1_455
Al3 Ni4 2.434406 1_555
Al3 Ni5 2.434451 1_555
Al3 Ni7 2.434453 1_454
Al3 Er0 3.134286 1_555
Al3 Er4 3.134288 1_554
Al3 Er5 3.134339 1_555
Al3 Er1 3.134342 1_455
Al3 Er2 3.134598 1_565
Al3 Er3 3.134601 1_454
Ni0 Ni2 2.539236 1_555
Ni0 Ni6 2.539261 1_545
Ni0 Ni3 2.539514 1_655
Ni0 Ni11 2.539533 1_545
Ni1 Ni8 2.539195 1_555
Ni1 Ni3 2.539240 1_555
Ni1 Ni10 2.539367 1_555
Ni1 Ni7 2.539367 1_555
Ni2 Ni7 2.539171 1_555
Ni2 Ni9 2.539335 1_555
Ni2 Ni6 2.539361 1_555
Ni3 Ni7 2.539249 1_455
Ni4 Ni5 2.539297 1_555
Ni4 Ni6 2.539353 1_455
Ni4 Ni9 2.539552 1_455
Ni5 Ni6 2.539207 1_555
Ni5 Ni8 2.539319 1_555
Ni7 Ni9 2.539348 1_556
Ni10 Ni8 2.539297 1_545
Ni10 Ni4 2.539477 1_545
Ni10 Ni9 2.539539 1_556
Ni11 Ni8 2.539254 1_554
Ni11 Ni5 2.539282 1_555
Ni11 Ni3 2.539522 1_554
