# generated using pymatgen
data_Ni6Ge2P
_symmetry_space_group_name_H-M   'P 1'
_cell_length_a   6.07266471
_cell_length_b   6.07266471
_cell_length_c   3.23164721
_cell_angle_alpha   90.00000000
_cell_angle_beta   90.00000000
_cell_angle_gamma   120.00000425
_symmetry_Int_Tables_number   1
_chemical_formula_structural   Ni6Ge2P
_chemical_formula_sum   'Ni6 Ge2 P1'
_cell_volume   103.20795271
_cell_formula_units_Z   1
loop_
 _symmetry_equiv_pos_site_id
 _symmetry_equiv_pos_as_xyz
  1  'x, y, z'
loop_
 _atom_site_type_symbol
 _atom_site_label
 _atom_site_symmetry_multiplicity
 _atom_site_fract_x
 _atom_site_fract_y
 _atom_site_fract_z
 _atom_site_occupancy
  Ni  Ni0  1  0.74934211  0.00000000  0.00000000  1
  Ni  Ni1  1  0.00000000  0.74934211  -0.00000000  1
  Ni  Ni2  1  0.25065789  0.25065789  0.00000000  1
  Ni  Ni3  1  0.38418940  0.00000000  0.50000000  1
  Ni  Ni4  1  0.00000000  0.38418940  0.50000000  1
  Ni  Ni5  1  0.61581060  0.61581060  0.50000000  1
  Ge  Ge0  1  0.33333300  0.66666700  -0.00000000  1
  Ge  Ge1  1  0.66666700  0.33333300  0.00000000  1
  P  P0  1  0.00000000  -0.00000000  0.50000000  1
loop_
_geom_bond_atom_site_label_1
_geom_bond_atom_site_label_2
_geom_bond_distance
_geom_bond_site_symmetry_2
Ni0 P0 2.219879 1_655
Ni0 P0 2.219879 1_654
Ni1 P0 2.219879 1_565
Ni1 P0 2.219879 1_564
Ni2 P0 2.219879 1_555
Ni2 P0 2.219879 1_554
Ni3 P0 2.333053 1_555
Ni4 P0 2.333053 1_555
Ni5 P0 2.333053 1_665
Ge0 Ni1 2.316420 1_555
Ge0 Ni0 2.316424 1_565
Ge0 Ni2 2.316426 1_555
Ge0 Ni3 2.485675 1_565
Ge0 Ni3 2.485675 1_564
Ge0 Ni4 2.485677 1_555
Ge0 Ni4 2.485677 1_554
Ge0 Ni5 2.485680 1_554
Ge0 Ni5 2.485680 1_555
Ge1 Ni0 2.316420 1_555
Ge1 Ni1 2.316424 1_655
Ge1 Ni2 2.316426 1_555
Ge1 Ni4 2.485675 1_655
Ge1 Ni4 2.485675 1_654
Ge1 Ni3 2.485677 1_555
Ge1 Ni3 2.485677 1_554
Ge1 Ni5 2.485680 1_554
Ge1 Ni5 2.485680 1_555
