# generated using pymatgen
data_Sn4P2O9
_symmetry_space_group_name_H-M   'P 1'
_cell_length_a   7.02746500
_cell_length_b   9.01068332
_cell_length_c   9.20339215
_cell_angle_alpha   76.77166378
_cell_angle_beta   79.59564835
_cell_angle_gamma   68.38093030
_symmetry_Int_Tables_number   1
_chemical_formula_structural   Sn4P2O9
_chemical_formula_sum   'Sn8 P4 O18'
_cell_volume   524.41409643
_cell_formula_units_Z   2
loop_
 _symmetry_equiv_pos_site_id
 _symmetry_equiv_pos_as_xyz
  1  'x, y, z'
loop_
 _atom_site_type_symbol
 _atom_site_label
 _atom_site_symmetry_multiplicity
 _atom_site_fract_x
 _atom_site_fract_y
 _atom_site_fract_z
 _atom_site_occupancy
  Sn  Sn0  1  0.36464800  0.75534800  0.09055700  1
  Sn  Sn1  1  0.87989500  0.71808900  0.08588600  1
  Sn  Sn2  1  0.22908300  0.43965200  0.35538900  1
  Sn  Sn3  1  0.86502100  0.98231400  0.37233200  1
  Sn  Sn4  1  0.13497900  0.01768600  0.62766800  1
  Sn  Sn5  1  0.77091700  0.56034800  0.64461100  1
  Sn  Sn6  1  0.12010500  0.28191100  0.91411400  1
  Sn  Sn7  1  0.63535200  0.24465200  0.90944300  1
  P  P0  1  0.38484800  0.09591700  0.25776800  1
  P  P1  1  0.75502300  0.38375500  0.23815700  1
  P  P2  1  0.24497700  0.61624500  0.76184300  1
  P  P3  1  0.61515200  0.90408300  0.74223200  1
  O  O0  1  0.82251100  0.32245500  0.08415700  1
  O  O1  1  0.33747600  0.28133300  0.18565100  1
  O  O2  1  0.27585900  0.01902000  0.18266400  1
  O  O3  1  0.89609000  0.47871300  0.25032200  1
  O  O4  1  0.76169200  0.24550400  0.37405200  1
  O  O5  1  0.62564700  0.00687500  0.23624900  1
  O  O6  1  0.31279000  0.09473000  0.42815300  1
  O  O7  1  0.52611500  0.50513000  0.23857200  1
  O  O8  1  0.11394600  0.68550800  0.21905200  1
  O  O9  1  0.88605400  0.31449200  0.78094800  1
  O  O10  1  0.47388500  0.49487000  0.76142800  1
  O  O11  1  0.68721000  0.90527000  0.57184700  1
  O  O12  1  0.37435300  0.99312500  0.76375100  1
  O  O13  1  0.23830800  0.75449600  0.62594800  1
  O  O14  1  0.10391000  0.52128700  0.74967800  1
  O  O15  1  0.72414100  0.98098000  0.81733600  1
  O  O16  1  0.66252400  0.71866700  0.81434900  1
  O  O17  1  0.17748900  0.67754500  0.91584300  1
loop_
_geom_bond_atom_site_label_1
_geom_bond_atom_site_label_2
_geom_bond_distance
_geom_bond_site_symmetry_2
O0 P1 1.568853 1_555
O0 Sn6 2.339407 1_654
O0 Sn7 2.601180 1_554
O1 P0 1.582762 1_555
O1 Sn2 2.201153 1_555
O2 P0 1.531655 1_555
O2 Sn0 2.528039 1_545
O3 P1 1.560889 1_555
O3 Sn1 2.311499 1_555
O3 Sn2 2.567021 1_655
O4 P1 1.543822 1_555
O4 Sn3 2.212633 1_545
O5 P0 1.580425 1_555
O5 Sn3 2.192509 1_545
O6 P0 1.557256 1_555
O6 Sn4 2.154554 1_555
O7 P1 1.577075 1_555
O7 Sn0 2.343954 1_555
O7 Sn2 2.380705 1_555
O8 Sn1 2.121593 1_455
O8 Sn0 2.149960 1_555
O8 Sn2 2.215965 1_555
O9 Sn6 2.121593 1_655
O9 Sn7 2.149960 1_555
O9 Sn5 2.215965 1_555
O10 P2 1.577075 1_555
O10 Sn7 2.343954 1_555
O10 Sn5 2.380705 1_555
O11 P3 1.557256 1_555
O11 Sn3 2.154554 1_555
O12 P3 1.580425 1_555
O12 Sn4 2.192509 1_565
O13 P2 1.543822 1_555
O13 Sn4 2.212633 1_565
O14 P2 1.560889 1_555
O14 Sn6 2.311499 1_555
O14 Sn5 2.567021 1_455
O15 P3 1.531655 1_555
O15 Sn7 2.528039 1_565
O16 P3 1.582762 1_555
O16 Sn5 2.201153 1_555
O17 P2 1.568853 1_555
O17 Sn1 2.339407 1_456
O17 Sn0 2.601180 1_556
