# generated using pymatgen
data_Mn2Fe3(SiO4)3
_symmetry_space_group_name_H-M   'P 1'
_cell_length_a   10.30157690
_cell_length_b   10.30157806
_cell_length_c   10.30157809
_cell_angle_alpha   111.54451316
_cell_angle_beta   108.44462035
_cell_angle_gamma   108.44462863
_symmetry_Int_Tables_number   1
_chemical_formula_structural   Mn2Fe3(SiO4)3
_chemical_formula_sum   'Mn8 Fe12 Si12 O48'
_cell_volume   840.73849868
_cell_formula_units_Z   4
loop_
 _symmetry_equiv_pos_site_id
 _symmetry_equiv_pos_as_xyz
  1  'x, y, z'
loop_
 _atom_site_type_symbol
 _atom_site_label
 _atom_site_symmetry_multiplicity
 _atom_site_fract_x
 _atom_site_fract_y
 _atom_site_fract_z
 _atom_site_occupancy
  Mn  Mn0  1  0.00000000  0.00000000  0.50000000  1
  Mn  Mn1  1  0.50000000  0.50000000  0.50000000  1
  Mn  Mn2  1  0.00000000  0.00000000  0.00000000  1
  Mn  Mn3  1  0.50000000  0.00000000  0.00000000  1
  Mn  Mn4  1  0.50000000  0.00000000  0.50000000  1
  Mn  Mn5  1  0.00000000  0.50000000  0.50000000  1
  Mn  Mn6  1  0.50000000  0.50000000  0.00000000  1
  Mn  Mn7  1  0.00000000  0.50000000  0.00000000  1
  Fe  Fe0  1  0.37173400  0.12173400  0.25000000  1
  Fe  Fe1  1  0.37173400  0.75000000  0.12173400  1
  Fe  Fe2  1  0.62826600  0.25000000  0.87826600  1
  Fe  Fe3  1  0.12826600  0.37826600  0.75000000  1
  Fe  Fe4  1  0.25000000  0.87500000  0.62500000  1
  Fe  Fe5  1  0.87173400  0.75000000  0.62173400  1
  Fe  Fe6  1  0.87173400  0.62173400  0.25000000  1
  Fe  Fe7  1  0.62826600  0.87826600  0.75000000  1
  Fe  Fe8  1  0.75000000  0.12500000  0.37500000  1
  Fe  Fe9  1  0.75000000  0.62500000  0.87500000  1
  Fe  Fe10  1  0.25000000  0.37500000  0.12500000  1
  Fe  Fe11  1  0.12826600  0.25000000  0.37826600  1
  Si  Si0  1  0.12564500  0.87564500  0.25000000  1
  Si  Si1  1  0.87435500  0.12435500  0.75000000  1
  Si  Si2  1  0.62564500  0.75000000  0.37564500  1
  Si  Si3  1  0.75000000  0.37500000  0.62500000  1
  Si  Si4  1  0.25000000  0.62500000  0.37500000  1
  Si  Si5  1  0.37435500  0.62435500  0.75000000  1
  Si  Si6  1  0.75000000  0.87500000  0.12500000  1
  Si  Si7  1  0.37435500  0.25000000  0.62435500  1
  Si  Si8  1  0.87435500  0.25000000  0.12435500  1
  Si  Si9  1  0.25000000  0.12500000  0.87500000  1
  Si  Si10  1  0.62564500  0.37564500  0.25000000  1
  Si  Si11  1  0.12564500  0.75000000  0.87564500  1
  O  O0  1  0.62161400  0.40692000  0.10336800  1
  O  O1  1  0.80355200  0.51824600  0.39663200  1
  O  O2  1  0.41544000  0.10467000  0.61906000  1
  O  O3  1  0.58456000  0.89533000  0.38094000  1
  O  O4  1  0.37838600  0.28530500  0.48175400  1
  O  O5  1  0.37838600  0.59308000  0.89663200  1
  O  O6  1  0.19644800  0.21469500  0.59308000  1
  O  O7  1  0.89461400  0.02229400  0.30675700  1
  O  O8  1  0.28446300  0.47770600  0.37232000  1
  O  O9  1  0.98561000  0.68923000  0.10467000  1
  O  O10  1  0.48561000  0.38094000  0.29637900  1
  O  O11  1  0.21553700  0.12768000  0.02229400  1
  O  O12  1  0.01439000  0.20362100  0.11906000  1
  O  O13  1  0.08456000  0.88094000  0.39533000  1
  O  O14  1  0.91544000  0.29637900  0.31077000  1
  O  O15  1  0.78446300  0.41214400  0.80675700  1
  O  O16  1  0.87838600  0.39663200  0.09308000  1
  O  O17  1  0.28446300  0.30675700  0.91214400  1
  O  O18  1  0.62161400  0.71469500  0.51824600  1
  O  O19  1  0.30355200  0.89663200  0.01824600  1
  O  O20  1  0.10538600  0.62768000  0.41214400  1
  O  O21  1  0.30355200  0.90692000  0.28530500  1
  O  O22  1  0.12161400  0.01824600  0.21469500  1
  O  O23  1  0.78446300  0.87232000  0.97770600  1
  O  O24  1  0.60538600  0.19324300  0.47770600  1
  O  O25  1  0.41544000  0.81077000  0.79637900  1
  O  O26  1  0.51439000  0.61906000  0.70362100  1
  O  O27  1  0.51439000  0.39533000  0.81077000  1
  O  O28  1  0.69644800  0.09308000  0.71469500  1
  O  O29  1  0.08456000  0.70362100  0.68923000  1
  O  O30  1  0.39461400  0.80675700  0.52229400  1
  O  O31  1  0.87838600  0.98175400  0.78530500  1
  O  O32  1  0.69644800  0.10336800  0.98175400  1
  O  O33  1  0.80355200  0.78530500  0.40692000  1
  O  O34  1  0.71553700  0.52229400  0.62768000  1
  O  O35  1  0.19644800  0.48175400  0.60336800  1
  O  O36  1  0.48561000  0.60467000  0.18923000  1
  O  O37  1  0.89461400  0.37232000  0.58785600  1
  O  O38  1  0.58456000  0.18923000  0.20362100  1
  O  O39  1  0.21553700  0.58785600  0.19324300  1
  O  O40  1  0.98561000  0.79637900  0.88094000  1
  O  O41  1  0.91544000  0.11906000  0.60467000  1
  O  O42  1  0.71553700  0.69324300  0.08785600  1
  O  O43  1  0.12161400  0.60336800  0.90692000  1
  O  O44  1  0.60538600  0.91214400  0.12768000  1
  O  O45  1  0.01439000  0.31077000  0.89533000  1
  O  O46  1  0.39461400  0.08785600  0.87232000  1
  O  O47  1  0.10538600  0.97770600  0.69324300  1
loop_
_geom_bond_atom_site_label_1
_geom_bond_atom_site_label_2
_geom_bond_distance
_geom_bond_site_symmetry_2
Mn0 O13 1.930001 1_545
Mn0 O41 1.930001 1_455
Mn0 O6 2.070945 1_555
Mn0 O33 2.070945 1_445
Mn0 O47 2.078529 1_545
Mn0 O7 2.078529 1_455
Mn1 O26 1.930009 1_555
Mn1 O10 1.930009 1_555
Mn1 O4 2.070948 1_555
Mn1 O18 2.070948 1_555
Mn1 O8 2.078529 1_555
Mn1 O34 2.078529 1_555
Mn2 O12 1.930009 1_555
Mn2 O40 1.930009 1_444
Mn2 O22 2.070948 1_555
Mn2 O31 2.070948 1_444
Mn2 O11 2.078529 1_555
Mn2 O23 2.078529 1_444
Mn3 O25 1.930007 1_544
Mn3 O38 1.930007 1_555
Mn3 O19 2.070939 1_545
Mn3 O32 2.070939 1_554
Mn3 O46 2.078521 1_554
Mn3 O44 2.078521 1_545
Mn4 O3 1.930001 1_545
Mn4 O2 1.930001 1_555
Mn4 O28 2.070946 1_555
Mn4 O21 2.070946 1_545
Mn4 O30 2.078529 1_545
Mn4 O24 2.078529 1_555
Mn5 O29 1.930007 1_555
Mn5 O14 1.930007 1_455
Mn5 O35 2.070939 1_555
Mn5 O1 2.070939 1_455
Mn5 O37 2.078521 1_455
Mn5 O20 2.078521 1_555
Mn6 O27 1.930001 1_554
Mn6 O36 1.930001 1_555
Mn6 O0 2.070939 1_555
Mn6 O5 2.070939 1_554
Mn6 O42 2.078532 1_555
Mn6 O17 2.078532 1_554
Mn7 O9 1.930001 1_455
Mn7 O45 1.930001 1_554
Mn7 O43 2.070939 1_554
Mn7 O16 2.070939 1_455
Mn7 O39 2.078532 1_555
Mn7 O15 2.078532 1_454
Fe0 O21 2.300405 1_545
Fe0 O22 2.300415 1_555
Fe0 O4 2.326515 1_555
Fe0 O19 2.326519 1_545
Fe0 O38 2.336821 1_555
Fe0 O10 2.336832 1_555
Fe0 O24 2.423807 1_555
Fe0 O11 2.423807 1_555
Fe1 O19 2.300412 1_555
Fe1 O43 2.300412 1_554
Fe1 O21 2.326513 1_555
Fe1 O5 2.326519 1_554
Fe1 O36 2.336828 1_555
Fe1 O3 2.336828 1_555
Fe1 O44 2.423810 1_555
Fe1 O39 2.423813 1_555
Fe2 O32 2.300412 1_555
Fe2 O16 2.300412 1_556
Fe2 O28 2.326513 1_555
Fe2 O0 2.326519 1_556
Fe2 O27 2.336828 1_555
Fe2 O2 2.336828 1_555
Fe2 O46 2.423810 1_555
Fe2 O15 2.423813 1_555
Fe3 O35 2.300411 1_555
Fe3 O5 2.300412 1_555
Fe3 O6 2.326513 1_555
Fe3 O43 2.326519 1_555
Fe3 O45 2.336828 1_555
Fe3 O41 2.336828 1_455
Fe3 O37 2.423810 1_455
Fe3 O17 2.423813 1_555
Fe4 O20 2.224144 1_555
Fe4 O46 2.224144 1_565
Fe4 O30 2.224148 1_555
Fe4 O47 2.224148 1_555
Fe4 O29 2.475256 1_555
Fe4 O25 2.475256 1_555
Fe4 O2 2.475262 1_565
Fe4 O13 2.475263 1_555
Fe5 O33 2.300405 1_555
Fe5 O18 2.300415 1_555
Fe5 O31 2.326515 1_555
Fe5 O1 2.326519 1_555
Fe5 O29 2.336821 1_655
Fe5 O40 2.336832 1_555
Fe5 O47 2.423807 1_655
Fe5 O34 2.423807 1_555
Fe6 O1 2.300411 1_555
Fe6 O0 2.300412 1_555
Fe6 O33 2.326513 1_555
Fe6 O16 2.326519 1_555
Fe6 O9 2.336828 1_555
Fe6 O13 2.336828 1_655
Fe6 O20 2.423810 1_655
Fe6 O42 2.423813 1_555
Fe7 O28 2.300405 1_565
Fe7 O31 2.300415 1_555
Fe7 O18 2.326515 1_555
Fe7 O32 2.326519 1_565
Fe7 O25 2.336821 1_555
Fe7 O26 2.336832 1_555
Fe7 O30 2.423807 1_555
Fe7 O23 2.423807 1_555
Fe8 O37 2.224144 1_555
Fe8 O44 2.224144 1_545
Fe8 O24 2.224148 1_555
Fe8 O7 2.224148 1_555
Fe8 O14 2.475256 1_555
Fe8 O38 2.475256 1_555
Fe8 O3 2.475262 1_545
Fe8 O41 2.475263 1_555
Fe9 O42 2.224138 1_556
Fe9 O15 2.224138 1_555
Fe9 O23 2.224148 1_555
Fe9 O34 2.224148 1_555
Fe9 O40 2.475258 1_555
Fe9 O26 2.475258 1_555
Fe9 O27 2.475262 1_555
Fe9 O9 2.475263 1_556
Fe10 O17 2.224138 1_554
Fe10 O39 2.224138 1_555
Fe10 O11 2.224148 1_555
Fe10 O8 2.224148 1_555
Fe10 O12 2.475258 1_555
Fe10 O10 2.475258 1_555
Fe10 O36 2.475262 1_555
Fe10 O45 2.475263 1_554
Fe11 O6 2.300405 1_555
Fe11 O4 2.300415 1_555
Fe11 O22 2.326515 1_555
Fe11 O35 2.326519 1_555
Fe11 O14 2.336821 1_455
Fe11 O12 2.336832 1_555
Fe11 O7 2.423807 1_455
Fe11 O8 2.423807 1_555
O0 Si10 1.647260 1_555
O1 Si10 1.647260 1_555
O2 Si7 1.667059 1_555
O3 Si2 1.667059 1_555
O4 Si7 1.647255 1_555
O5 Si5 1.647260 1_555
O6 Si7 1.647262 1_555
O7 Si6 1.656954 1_545
O8 Si4 1.656954 1_555
O9 Si0 1.667060 1_655
O10 Si10 1.667054 1_555
O11 Si9 1.656954 1_554
O12 Si8 1.667054 1_455
O13 Si0 1.667059 1_555
O14 Si8 1.667062 1_555
O15 Si3 1.656952 1_555
O16 Si8 1.647260 1_555
O17 Si9 1.656952 1_555
O18 Si2 1.647255 1_555
O19 Si11 1.647260 1_554
O20 Si4 1.656959 1_555
O21 Si0 1.647262 1_555
O22 Si0 1.647255 1_545
O23 Si6 1.656954 1_556
O24 Si3 1.656954 1_555
O25 Si5 1.667062 1_555
O26 Si5 1.667054 1_555
O27 Si7 1.667060 1_555
O28 Si1 1.647262 1_555
O29 Si11 1.667062 1_555
O30 Si4 1.656954 1_555
O31 Si1 1.647255 1_565
O32 Si8 1.647260 1_556
O33 Si2 1.647262 1_555
O34 Si3 1.656954 1_555
O35 Si5 1.647260 1_555
O36 Si2 1.667060 1_555
O37 Si3 1.656959 1_555
O38 Si10 1.667062 1_555
O39 Si4 1.656952 1_555
O40 Si11 1.667054 1_655
O41 Si1 1.667059 1_555
O42 Si6 1.656952 1_555
O43 Si11 1.647260 1_555
O44 Si6 1.656959 1_555
O45 Si1 1.667060 1_455
O46 Si9 1.656959 1_555
O47 Si9 1.656954 1_565
