# generated using pymatgen
data_BaZnNiF7
_symmetry_space_group_name_H-M   'P 1'
_cell_length_a   10.00391100
_cell_length_b   5.61615500
_cell_length_c   9.57620546
_cell_angle_alpha   87.31468718
_cell_angle_beta   90.00000000
_cell_angle_gamma   90.00000000
_symmetry_Int_Tables_number   1
_chemical_formula_structural   BaZnNiF7
_chemical_formula_sum   'Ba4 Zn4 Ni4 F28'
_cell_volume   537.43408552
_cell_formula_units_Z   4
loop_
 _symmetry_equiv_pos_site_id
 _symmetry_equiv_pos_as_xyz
  1  'x, y, z'
loop_
 _atom_site_type_symbol
 _atom_site_label
 _atom_site_symmetry_multiplicity
 _atom_site_fract_x
 _atom_site_fract_y
 _atom_site_fract_z
 _atom_site_occupancy
  Ba  Ba0  1  0.31467800  0.74021300  0.50026700  1
  Ba  Ba1  1  0.81467800  0.25978700  0.99973300  1
  Ba  Ba2  1  0.68532200  0.25978700  0.49973300  1
  Ba  Ba3  1  0.18532200  0.74021300  0.00026700  1
  Zn  Zn0  1  0.39926900  0.30198600  0.80967500  1
  Zn  Zn1  1  0.89926900  0.69801400  0.69032500  1
  Zn  Zn2  1  0.10073100  0.30198600  0.30967500  1
  Zn  Zn3  1  0.60073100  0.69801400  0.19032500  1
  Ni  Ni0  1  0.61248000  0.80478500  0.81125300  1
  Ni  Ni1  1  0.38752000  0.19521500  0.18874700  1
  Ni  Ni2  1  0.88752000  0.80478500  0.31125300  1
  Ni  Ni3  1  0.11248000  0.19521500  0.68874700  1
  F  F0  1  0.44258900  0.89444700  0.12238400  1
  F  F1  1  0.05180300  0.63500100  0.37090700  1
  F  F2  1  0.70537100  0.52705700  0.74999900  1
  F  F3  1  0.29462900  0.47294300  0.25000100  1
  F  F4  1  0.45516700  0.11662000  0.36336800  1
  F  F5  1  0.80998300  0.74211800  0.49198800  1
  F  F6  1  0.77962500  0.98031700  0.75012900  1
  F  F7  1  0.95516700  0.88338000  0.13663200  1
  F  F8  1  0.44819700  0.63500100  0.87090700  1
  F  F9  1  0.20537100  0.47294300  0.75000100  1
  F  F10  1  0.05741100  0.89444700  0.62238400  1
  F  F11  1  0.55741100  0.10555300  0.87761600  1
  F  F12  1  0.27962500  0.01968300  0.74987100  1
  F  F13  1  0.95728200  0.61785900  0.88076000  1
  F  F14  1  0.54483300  0.88338000  0.63663200  1
  F  F15  1  0.04483300  0.11662000  0.86336800  1
  F  F16  1  0.22037500  0.01968300  0.24987100  1
  F  F17  1  0.94258900  0.10555300  0.37761600  1
  F  F18  1  0.45728200  0.38214100  0.61924000  1
  F  F19  1  0.94819700  0.36499900  0.62909300  1
  F  F20  1  0.04271800  0.38214100  0.11924000  1
  F  F21  1  0.72037500  0.98031700  0.25012900  1
  F  F22  1  0.54271800  0.61785900  0.38076000  1
  F  F23  1  0.30998300  0.25788200  0.00801200  1
  F  F24  1  0.19001700  0.25788200  0.50801200  1
  F  F25  1  0.69001700  0.74211800  0.99198800  1
  F  F26  1  0.55180300  0.36499900  0.12909300  1
  F  F27  1  0.79462900  0.52705700  0.24999900  1
loop_
_geom_bond_atom_site_label_1
_geom_bond_atom_site_label_2
_geom_bond_distance
_geom_bond_site_symmetry_2
Ba0 F22 2.657042 1_555
Ba0 F18 2.676303 1_555
Ba0 F14 2.784138 1_555
Ba0 F4 2.811238 1_565
Ba0 F3 2.893800 1_555
Ba0 F12 2.941312 1_565
Ba0 F16 2.958122 1_565
Ba0 F9 2.971828 1_555
Ba0 F10 2.972636 1_555
Ba0 F1 2.977925 1_555
Ba0 F24 2.979895 1_555
Ba0 F24 3.167555 1_565
Ba1 F20 2.657042 1_656
Ba1 F13 2.676303 1_555
Ba1 F15 2.784138 1_655
Ba1 F7 2.811238 1_546
Ba1 F27 2.893800 1_556
Ba1 F6 2.941312 1_545
Ba1 F21 2.958122 1_546
Ba1 F2 2.971828 1_555
Ba1 F11 2.972636 1_555
Ba1 F26 2.977925 1_556
Ba1 F25 2.979895 1_555
Ba1 F25 3.167555 1_545
Ba2 F18 2.657042 1_555
Ba2 F22 2.676303 1_555
Ba2 F4 2.784138 1_555
Ba2 F14 2.811238 1_545
Ba2 F2 2.893800 1_555
Ba2 F21 2.941312 1_545
Ba2 F6 2.958122 1_545
Ba2 F27 2.971828 1_555
Ba2 F17 2.972636 1_555
Ba2 F19 2.977925 1_555
Ba2 F5 2.979895 1_555
Ba2 F5 3.167555 1_545
Ba3 F13 2.657042 1_454
Ba3 F20 2.676303 1_555
Ba3 F7 2.784138 1_455
Ba3 F15 2.811238 1_564
Ba3 F9 2.893800 1_554
Ba3 F16 2.941312 1_565
Ba3 F12 2.958122 1_564
Ba3 F3 2.971828 1_555
Ba3 F0 2.972636 1_555
Ba3 F8 2.977925 1_554
Ba3 F23 2.979895 1_555
Ba3 F23 3.167555 1_565
F0 Ni1 1.913429 1_565
F0 Zn3 2.018896 1_555
F1 Ni2 1.971173 1_455
F1 Zn2 2.045497 1_555
F2 Ni0 1.930341 1_555
F2 Zn1 2.227008 1_555
F3 Ni1 1.930341 1_555
F3 Zn2 2.227008 1_555
F4 Ni1 1.838455 1_555
F5 Ni2 1.914151 1_555
F5 Zn1 2.102973 1_555
F6 Ni0 2.014029 1_555
F6 Zn1 2.087899 1_555
F7 Ni2 1.838455 1_555
F8 Ni0 1.971173 1_555
F8 Zn0 2.045497 1_555
F9 Ni3 1.930341 1_555
F9 Zn0 2.227008 1_555
F10 Ni3 1.913429 1_565
F10 Zn1 2.018896 1_455
F11 Ni0 1.913429 1_545
F11 Zn0 2.018896 1_555
F12 Ni3 2.014029 1_555
F12 Zn0 2.087899 1_555
F13 Zn1 1.946335 1_555
F14 Ni0 1.838455 1_555
F15 Ni3 1.838455 1_555
F16 Ni1 2.014029 1_555
F16 Zn2 2.087899 1_555
F17 Ni2 1.913429 1_545
F17 Zn2 2.018896 1_655
F18 Zn0 1.946335 1_555
F19 Ni3 1.971173 1_655
F19 Zn1 2.045497 1_555
F20 Zn2 1.946335 1_555
F21 Ni2 2.014029 1_555
F21 Zn3 2.087899 1_555
F22 Zn3 1.946335 1_555
F23 Ni1 1.914151 1_555
F23 Zn0 2.102973 1_554
F24 Ni3 1.914151 1_555
F24 Zn2 2.102973 1_555
F25 Ni0 1.914151 1_555
F25 Zn3 2.102973 1_556
F26 Ni1 1.971173 1_555
F26 Zn3 2.045497 1_555
F27 Ni2 1.930341 1_555
F27 Zn3 2.227008 1_555
