# generated using pymatgen
data_Li7Mn4CoO12
_symmetry_space_group_name_H-M   'P 1'
_cell_length_a   3.03657400
_cell_length_b   5.06628957
_cell_length_c   14.63803711
_cell_angle_alpha   82.22516870
_cell_angle_beta   86.49626983
_cell_angle_gamma   86.68554570
_symmetry_Int_Tables_number   1
_chemical_formula_structural   Li7Mn4CoO12
_chemical_formula_sum   'Li7 Mn4 Co1 O12'
_cell_volume   222.42707335
_cell_formula_units_Z   1
loop_
 _symmetry_equiv_pos_site_id
 _symmetry_equiv_pos_as_xyz
  1  'x, y, z'
loop_
 _atom_site_type_symbol
 _atom_site_label
 _atom_site_symmetry_multiplicity
 _atom_site_fract_x
 _atom_site_fract_y
 _atom_site_fract_z
 _atom_site_occupancy
  Li  Li0  1  0.74873400  0.24875300  0.50024100  1
  Li  Li1  1  0.42705000  0.58008800  0.15409000  1
  Li  Li2  1  0.05736200  0.90869000  0.84493300  1
  Li  Li3  1  0.25126600  0.75124700  0.49975900  1
  Li  Li4  1  0.94263800  0.09131000  0.15506700  1
  Li  Li5  1  0.57295000  0.41991200  0.84591000  1
  Li  Li6  1  0.00000000  0.50000000  0.00000000  1
  Mn  Mn0  1  0.66261400  0.83343300  0.66993400  1
  Mn  Mn1  1  0.33738600  0.16656700  0.33006600  1
  Mn  Mn2  1  0.16300500  0.33372300  0.66968600  1
  Mn  Mn3  1  0.83699500  0.66627700  0.33031400  1
  Co  Co0  1  0.50000000  0.00000000  0.00000000  1
  O  O0  1  0.23613900  0.04735000  0.59063500  1
  O  O1  1  0.90270700  0.37860700  0.25212100  1
  O  O2  1  0.54274500  0.74431900  0.92592100  1
  O  O3  1  0.73364800  0.54785700  0.59089300  1
  O  O4  1  0.39754100  0.87422700  0.25525500  1
  O  O5  1  0.01609600  0.18500000  0.92819000  1
  O  O6  1  0.26635200  0.45214300  0.40910700  1
  O  O7  1  0.98390400  0.81500000  0.07181000  1
  O  O8  1  0.60245900  0.12577300  0.74474500  1
  O  O9  1  0.76386100  0.95265000  0.40936500  1
  O  O10  1  0.45725500  0.25568100  0.07407900  1
  O  O11  1  0.09729300  0.62139300  0.74787900  1
loop_
_geom_bond_atom_site_label_1
_geom_bond_atom_site_label_2
_geom_bond_distance
_geom_bond_site_symmetry_2
Li0 O9 2.132271 1_545
Li0 O3 2.141917 1_555
Li0 O6 2.163193 1_555
Li0 O0 2.163781 1_655
Li0 O0 2.186640 1_555
Li0 O6 2.207033 1_655
Li1 O7 2.074340 1_455
Li1 O10 2.138130 1_555
Li1 O1 2.207683 1_555
Li1 O4 2.233170 1_555
Li1 O1 2.269054 1_455
Li1 O7 2.306995 1_555
Li2 O5 1.970595 1_565
Li2 O2 2.018866 1_555
Li2 O2 2.048848 1_455
Li2 O11 2.160929 1_555
Li2 O8 2.214503 1_465
Li2 O8 2.361681 1_565
Li3 O0 2.132271 1_565
Li3 O6 2.141917 1_555
Li3 O3 2.163193 1_555
Li3 O9 2.163781 1_455
Li3 O9 2.186640 1_555
Li3 O3 2.207033 1_455
Li4 O7 1.970595 1_545
Li4 O10 2.018866 1_555
Li4 O10 2.048848 1_655
Li4 O1 2.160929 1_555
Li4 O4 2.214503 1_645
Li4 O4 2.361681 1_545
Li5 O5 2.074340 1_655
Li5 O2 2.138130 1_555
Li5 O11 2.207683 1_555
Li5 O8 2.233170 1_555
Li5 O11 2.269054 1_655
Li5 O5 2.306995 1_555
Li6 O5 2.023050 1_554
Li6 O7 2.023050 1_455
Li6 O10 2.063500 1_555
Li6 O2 2.063500 1_454
Li6 O10 2.253546 1_455
Li6 O2 2.253546 1_554
Mn0 O8 1.951735 1_565
Mn0 O3 1.965901 1_555
Mn0 O0 1.969803 1_565
Mn0 O11 1.971431 1_655
Mn0 O11 2.246083 1_555
Mn0 O0 2.277224 1_665
Mn1 O4 1.951735 1_545
Mn1 O6 1.965901 1_555
Mn1 O9 1.969803 1_545
Mn1 O1 1.971431 1_455
Mn1 O1 2.246083 1_555
Mn1 O9 2.277224 1_445
Mn2 O8 1.949689 1_555
Mn2 O11 1.965648 1_555
Mn2 O0 1.969478 1_555
Mn2 O3 1.971988 1_455
Mn2 O8 2.209068 1_455
Mn2 O3 2.268116 1_555
Mn3 O4 1.949689 1_555
Mn3 O1 1.965648 1_555
Mn3 O9 1.969478 1_555
Mn3 O6 1.971988 1_655
Mn3 O4 2.209068 1_655
Mn3 O6 2.268116 1_555
Co0 O10 1.792776 1_555
Co0 O2 1.792776 1_544
Co0 O5 1.976244 1_554
Co0 O7 1.976244 1_545
Co0 O5 2.035027 1_654
Co0 O7 2.035027 1_445
