# generated using pymatgen
data_La2Mg
_symmetry_space_group_name_H-M   'P 1'
_cell_length_a   13.80427450
_cell_length_b   13.80427450
_cell_length_c   15.93657649
_cell_angle_alpha   74.12253473
_cell_angle_beta   74.12253473
_cell_angle_gamma   33.11119996
_symmetry_Int_Tables_number   1
_chemical_formula_structural   La2Mg
_chemical_formula_sum   'La32 Mg16'
_cell_volume   1589.91909097
_cell_formula_units_Z   16
loop_
 _symmetry_equiv_pos_site_id
 _symmetry_equiv_pos_as_xyz
  1  'x, y, z'
loop_
 _atom_site_type_symbol
 _atom_site_label
 _atom_site_symmetry_multiplicity
 _atom_site_fract_x
 _atom_site_fract_y
 _atom_site_fract_z
 _atom_site_occupancy
  La  La0_0  1  0.42714850  0.42714850  0.27828900  1
  La  La0_1  1  0.42714850  0.42714850  0.77828900  1
  La  La0_2  1  0.42714850  0.92714850  0.27828900  1
  La  La0_3  1  0.42714850  0.92714850  0.77828900  1
  La  La0_4  1  0.92714850  0.42714850  0.27828900  1
  La  La0_5  1  0.92714850  0.42714850  0.77828900  1
  La  La0_6  1  0.92714850  0.92714850  0.27828900  1
  La  La0_7  1  0.92714850  0.92714850  0.77828900  1
  La  La1_0  1  0.07285150  0.07285150  0.22171100  1
  La  La1_1  1  0.07285150  0.07285150  0.72171100  1
  La  La1_2  1  0.07285150  0.57285150  0.22171100  1
  La  La1_3  1  0.07285150  0.57285150  0.72171100  1
  La  La1_4  1  0.57285150  0.07285150  0.22171100  1
  La  La1_5  1  0.57285150  0.07285150  0.72171100  1
  La  La1_6  1  0.57285150  0.57285150  0.22171100  1
  La  La1_7  1  0.57285150  0.57285150  0.72171100  1
  La  La2_0  1  0.41646600  0.41646600  0.04864500  1
  La  La2_1  1  0.41646600  0.41646600  0.54864500  1
  La  La2_2  1  0.41646600  0.91646600  0.04864500  1
  La  La2_3  1  0.41646600  0.91646600  0.54864500  1
  La  La2_4  1  0.91646600  0.41646600  0.04864500  1
  La  La2_5  1  0.91646600  0.41646600  0.54864500  1
  La  La2_6  1  0.91646600  0.91646600  0.04864500  1
  La  La2_7  1  0.91646600  0.91646600  0.54864500  1
  La  La3_0  1  0.08353400  0.08353400  0.45135500  1
  La  La3_1  1  0.08353400  0.08353400  0.95135500  1
  La  La3_2  1  0.08353400  0.58353400  0.45135500  1
  La  La3_3  1  0.08353400  0.58353400  0.95135500  1
  La  La3_4  1  0.58353400  0.08353400  0.45135500  1
  La  La3_5  1  0.58353400  0.08353400  0.95135500  1
  La  La3_6  1  0.58353400  0.58353400  0.45135500  1
  La  La3_7  1  0.58353400  0.58353400  0.95135500  1
  Mg  Mg0_0  1  0.24402150  0.24402150  0.38806000  1
  Mg  Mg0_1  1  0.24402150  0.24402150  0.88806000  1
  Mg  Mg0_2  1  0.24402150  0.74402150  0.38806000  1
  Mg  Mg0_3  1  0.24402150  0.74402150  0.88806000  1
  Mg  Mg0_4  1  0.74402150  0.24402150  0.38806000  1
  Mg  Mg0_5  1  0.74402150  0.24402150  0.88806000  1
  Mg  Mg0_6  1  0.74402150  0.74402150  0.38806000  1
  Mg  Mg0_7  1  0.74402150  0.74402150  0.88806000  1
  Mg  Mg1_0  1  0.25597850  0.25597850  0.11194000  1
  Mg  Mg1_1  1  0.25597850  0.25597850  0.61194000  1
  Mg  Mg1_2  1  0.25597850  0.75597850  0.11194000  1
  Mg  Mg1_3  1  0.25597850  0.75597850  0.61194000  1
  Mg  Mg1_4  1  0.75597850  0.25597850  0.11194000  1
  Mg  Mg1_5  1  0.75597850  0.25597850  0.61194000  1
  Mg  Mg1_6  1  0.75597850  0.75597850  0.11194000  1
  Mg  Mg1_7  1  0.75597850  0.75597850  0.61194000  1
loop_
_geom_bond_atom_site_label_1
_geom_bond_atom_site_label_2
_geom_bond_distance
_geom_bond_site_symmetry_2
La0_0 Mg0_2 3.439115 1_555
La0_0 Mg0_4 3.439115 1_555
La0_0 Mg1_4 3.477231 1_555
La0_0 Mg1_2 3.477231 1_555
La0_0 La1_6 3.700844 1_555
La0_0 La3_4 3.703002 1_555
La0_0 La3_2 3.703002 1_555
La0_0 La1_4 3.704035 1_555
La0_0 La1_2 3.704035 1_555
La0_0 La2_0 3.750226 1_555
La0_0 La0_6 3.933468 1_455
La0_0 La0_6 3.933468 1_545
La0_1 Mg0_5 3.439115 1_555
La0_1 Mg0_3 3.439115 1_555
La0_1 Mg1_5 3.477231 1_555
La0_1 Mg1_3 3.477231 1_555
La0_1 La1_7 3.700844 1_555
La0_1 La3_3 3.703002 1_555
La0_1 La3_5 3.703002 1_555
La0_1 La1_5 3.704035 1_555
La0_1 La1_3 3.704035 1_555
La0_1 La2_1 3.750226 1_555
La0_1 La0_7 3.933468 1_545
La0_1 La0_7 3.933468 1_455
La0_2 Mg0_6 3.439115 1_555
La0_2 Mg0_0 3.439115 1_565
La0_2 Mg1_0 3.477231 1_565
La0_2 Mg1_6 3.477231 1_555
La0_2 La1_4 3.700844 1_565
La0_2 La3_0 3.703002 1_565
La0_2 La3_6 3.703002 1_555
La0_2 La1_6 3.704035 1_555
La0_2 La1_0 3.704035 1_565
La0_2 La2_2 3.750226 1_555
La0_2 La0_4 3.933468 1_465
La0_2 La0_4 3.933468 1_555
La0_3 Mg0_7 3.439115 1_555
La0_3 Mg0_1 3.439115 1_565
La0_3 Mg1_1 3.477231 1_565
La0_3 Mg1_7 3.477231 1_555
La0_3 La1_5 3.700844 1_565
La0_3 La3_1 3.703002 1_565
La0_3 La3_7 3.703002 1_555
La0_3 La1_7 3.704035 1_555
La0_3 La1_1 3.704035 1_565
La0_3 La2_3 3.750226 1_555
La0_3 La0_5 3.933468 1_555
La0_3 La0_5 3.933468 1_465
La0_4 Mg0_6 3.439115 1_555
La0_4 Mg0_0 3.439115 1_655
La0_4 Mg1_0 3.477231 1_655
La0_4 Mg1_6 3.477231 1_555
La0_4 La1_2 3.700844 1_655
La0_4 La3_0 3.703002 1_655
La0_4 La3_6 3.703002 1_555
La0_4 La1_6 3.704035 1_555
La0_4 La1_0 3.704035 1_655
La0_4 La2_4 3.750226 1_555
La0_5 Mg0_7 3.439115 1_555
La0_5 Mg0_1 3.439115 1_655
La0_5 Mg1_1 3.477231 1_655
La0_5 Mg1_7 3.477231 1_555
La0_5 La1_3 3.700844 1_655
La0_5 La3_1 3.703002 1_655
La0_5 La3_7 3.703002 1_555
La0_5 La1_7 3.704035 1_555
La0_5 La1_1 3.704035 1_655
La0_5 La2_5 3.750226 1_555
La0_6 Mg0_2 3.439115 1_655
La0_6 Mg0_4 3.439115 1_565
La0_6 Mg1_4 3.477231 1_565
La0_6 Mg1_2 3.477231 1_655
La0_6 La1_0 3.700844 1_665
La0_6 La3_2 3.703002 1_655
La0_6 La3_4 3.703002 1_565
La0_6 La1_2 3.704035 1_655
La0_6 La1_4 3.704035 1_565
La0_6 La2_6 3.750226 1_555
La0_7 Mg0_5 3.439115 1_565
La0_7 Mg0_3 3.439115 1_655
La0_7 Mg1_3 3.477231 1_655
La0_7 Mg1_5 3.477231 1_565
La0_7 La1_1 3.700844 1_665
La0_7 La3_3 3.703002 1_655
La0_7 La3_5 3.703002 1_565
La0_7 La1_3 3.704035 1_655
La0_7 La1_5 3.704035 1_565
La0_7 La2_7 3.750226 1_555
La1_0 Mg1_4 3.439115 1_455
La1_0 Mg1_2 3.439115 1_545
La1_0 Mg0_4 3.477231 1_455
La1_0 Mg0_2 3.477231 1_545
La1_0 La2_2 3.703002 1_545
La1_0 La2_4 3.703002 1_455
La1_0 La3_0 3.750226 1_555
La1_0 La1_6 3.933468 1_455
La1_0 La1_6 3.933468 1_545
La1_1 Mg1_5 3.439115 1_455
La1_1 Mg1_3 3.439115 1_545
La1_1 Mg0_3 3.477231 1_545
La1_1 Mg0_5 3.477231 1_455
La1_1 La2_3 3.703002 1_545
La1_1 La2_5 3.703002 1_455
La1_1 La3_1 3.750226 1_555
La1_1 La1_7 3.933468 1_455
La1_1 La1_7 3.933468 1_545
La1_2 Mg1_6 3.439115 1_455
La1_2 Mg1_0 3.439115 1_555
La1_2 Mg0_0 3.477231 1_555
La1_2 Mg0_6 3.477231 1_455
La1_2 La2_6 3.703002 1_455
La1_2 La2_0 3.703002 1_555
La1_2 La3_2 3.750226 1_555
La1_2 La1_4 3.933468 1_465
La1_2 La1_4 3.933468 1_555
La1_3 Mg1_1 3.439115 1_555
La1_3 Mg1_7 3.439115 1_455
La1_3 Mg0_1 3.477231 1_555
La1_3 Mg0_7 3.477231 1_455
La1_3 La2_1 3.703002 1_555
La1_3 La2_7 3.703002 1_455
La1_3 La3_3 3.750226 1_555
La1_3 La1_5 3.933468 1_555
La1_3 La1_5 3.933468 1_465
La1_4 Mg1_6 3.439115 1_545
La1_4 Mg1_0 3.439115 1_555
La1_4 Mg0_0 3.477231 1_555
La1_4 Mg0_6 3.477231 1_545
La1_4 La2_6 3.703002 1_545
La1_4 La2_0 3.703002 1_555
La1_4 La3_4 3.750226 1_555
La1_5 Mg1_1 3.439115 1_555
La1_5 Mg1_7 3.439115 1_545
La1_5 Mg0_1 3.477231 1_555
La1_5 Mg0_7 3.477231 1_545
La1_5 La2_1 3.703002 1_555
La1_5 La2_7 3.703002 1_545
La1_5 La3_5 3.750226 1_555
La1_6 Mg1_2 3.439115 1_555
La1_6 Mg1_4 3.439115 1_555
La1_6 Mg0_4 3.477231 1_555
La1_6 Mg0_2 3.477231 1_555
La1_6 La2_2 3.703002 1_555
La1_6 La2_4 3.703002 1_555
La1_6 La3_6 3.750226 1_555
La1_7 Mg1_3 3.439115 1_555
La1_7 Mg1_5 3.439115 1_555
La1_7 Mg0_5 3.477231 1_555
La1_7 Mg0_3 3.477231 1_555
La1_7 La2_3 3.703002 1_555
La1_7 La2_5 3.703002 1_555
La1_7 La3_7 3.750226 1_555
La2_0 Mg0_3 3.410514 1_554
La2_0 Mg0_5 3.410514 1_554
La2_0 Mg1_4 3.443980 1_555
La2_0 Mg1_2 3.443980 1_555
La2_0 La3_3 3.609874 1_554
La2_0 La3_5 3.609874 1_554
La2_1 Mg0_4 3.410514 1_555
La2_1 Mg0_2 3.410514 1_555
La2_1 Mg1_3 3.443980 1_555
La2_1 Mg1_5 3.443980 1_555
La2_1 La3_4 3.609874 1_555
La2_1 La3_2 3.609874 1_555
La2_2 Mg0_7 3.410514 1_554
La2_2 Mg0_1 3.410514 1_564
La2_2 Mg1_0 3.443980 1_565
La2_2 Mg1_6 3.443980 1_555
La2_2 La3_1 3.609874 1_564
La2_2 La3_7 3.609874 1_554
La2_3 Mg0_6 3.410514 1_555
La2_3 Mg0_0 3.410514 1_565
La2_3 Mg1_1 3.443980 1_565
La2_3 Mg1_7 3.443980 1_555
La2_3 La3_0 3.609874 1_565
La2_3 La3_6 3.609874 1_555
La2_4 Mg0_7 3.410514 1_554
La2_4 Mg0_1 3.410514 1_654
La2_4 Mg1_0 3.443980 1_655
La2_4 Mg1_6 3.443980 1_555
La2_4 La3_1 3.609874 1_654
La2_4 La3_7 3.609874 1_554
La2_5 Mg0_6 3.410514 1_555
La2_5 Mg0_0 3.410514 1_655
La2_5 Mg1_1 3.443980 1_655
La2_5 Mg1_7 3.443980 1_555
La2_5 La3_0 3.609874 1_655
La2_5 La3_6 3.609874 1_555
La2_6 Mg0_5 3.410514 1_564
La2_6 Mg0_3 3.410514 1_654
La2_6 Mg1_4 3.443980 1_565
La2_6 Mg1_2 3.443980 1_655
La2_6 La3_5 3.609874 1_564
La2_6 La3_3 3.609874 1_654
La2_7 Mg0_2 3.410514 1_655
La2_7 Mg0_4 3.410514 1_565
La2_7 Mg1_5 3.443980 1_565
La2_7 Mg1_3 3.443980 1_655
La2_7 La3_4 3.609874 1_565
La2_7 La3_2 3.609874 1_655
La3_0 Mg1_5 3.410514 1_455
La3_0 Mg1_3 3.410514 1_545
La3_0 Mg0_2 3.443980 1_545
La3_0 Mg0_4 3.443980 1_455
La3_1 Mg1_2 3.410514 1_546
La3_1 Mg1_4 3.410514 1_456
La3_1 Mg0_3 3.443980 1_545
La3_1 Mg0_5 3.443980 1_455
La3_2 Mg1_1 3.410514 1_555
La3_2 Mg1_7 3.410514 1_455
La3_2 Mg0_0 3.443980 1_555
La3_2 Mg0_6 3.443980 1_455
La3_3 Mg1_0 3.410514 1_556
La3_3 Mg1_6 3.410514 1_456
La3_3 Mg0_1 3.443980 1_555
La3_3 Mg0_7 3.443980 1_455
La3_4 Mg1_1 3.410514 1_555
La3_4 Mg1_7 3.410514 1_545
La3_4 Mg0_0 3.443980 1_555
La3_4 Mg0_6 3.443980 1_545
La3_5 Mg1_6 3.410514 1_546
La3_5 Mg1_0 3.410514 1_556
La3_5 Mg0_1 3.443980 1_555
La3_5 Mg0_7 3.443980 1_545
La3_6 Mg1_5 3.410514 1_555
La3_6 Mg1_3 3.410514 1_555
La3_6 Mg0_4 3.443980 1_555
La3_6 Mg0_2 3.443980 1_555
La3_7 Mg1_4 3.410514 1_556
La3_7 Mg1_2 3.410514 1_556
La3_7 Mg0_3 3.443980 1_555
La3_7 Mg0_5 3.443980 1_555
