# generated using pymatgen
data_RbSbWO6
_symmetry_space_group_name_H-M   'P 1'
_cell_length_a   7.37603668
_cell_length_b   7.41059220
_cell_length_c   7.29168230
_cell_angle_alpha   90.00000000
_cell_angle_beta   60.37759330
_cell_angle_gamma   120.15509453
_symmetry_Int_Tables_number   1
_chemical_formula_structural   RbSbWO6
_chemical_formula_sum   'Rb2 Sb2 W2 O12'
_cell_volume   282.77003123
_cell_formula_units_Z   2
loop_
 _symmetry_equiv_pos_site_id
 _symmetry_equiv_pos_as_xyz
  1  'x, y, z'
loop_
 _atom_site_type_symbol
 _atom_site_label
 _atom_site_symmetry_multiplicity
 _atom_site_fract_x
 _atom_site_fract_y
 _atom_site_fract_z
 _atom_site_occupancy
  Rb  Rb0  1  0.73148100  0.36113500  0.38425900  1
  Rb  Rb1  1  0.26851900  0.62965400  0.61574100  1
  Sb  Sb0  1  0.00000000  0.99583000  0.50000000  1
  Sb  Sb1  1  0.00000000  0.99583000  0.00000000  1
  W  W0  1  0.50005100  0.49579200  0.99997500  1
  W  W1  1  0.49994900  0.99574100  0.00002500  1
  O  O0  1  0.84984700  0.92078300  0.32507600  1
  O  O1  1  0.61734600  0.30448800  0.94132700  1
  O  O2  1  0.25380700  0.92910300  0.93392300  1
  O  O3  1  0.25380500  0.31637000  0.31227000  1
  O  O4  1  0.25380500  0.31637000  0.93392500  1
  O  O5  1  0.25380700  0.92910300  0.31227000  1
  O  O6  1  0.15015300  0.07093500  0.67492400  1
  O  O7  1  0.38265400  0.68714200  0.05867300  1
  O  O8  1  0.74619500  0.06256500  0.06607500  1
  O  O9  1  0.74619300  0.67529800  0.68773000  1
  O  O10  1  0.74619300  0.67529800  0.06607700  1
  O  O11  1  0.74619500  0.06256500  0.68773000  1
loop_
_geom_bond_atom_site_label_1
_geom_bond_atom_site_label_2
_geom_bond_distance
_geom_bond_site_symmetry_2
O0 Sb1 1.985053 1_655
O0 Sb0 1.985060 1_655
O0 Rb1 3.042105 1_555
O1 W0 1.951341 1_555
O1 W1 1.952192 1_546
O1 Rb1 3.407605 1_655
O2 W1 1.933061 1_556
O2 Sb1 2.004934 1_556
O2 Rb1 3.211228 1_555
O3 W0 1.933204 1_554
O3 Sb0 2.004966 1_545
O3 Rb1 3.206635 1_555
O4 W0 1.933209 1_555
O4 Sb1 2.004966 1_546
O4 Rb1 3.206630 1_555
O5 W1 1.933066 1_555
O5 Sb0 2.004934 1_555
O5 Rb1 3.211233 1_555
O6 Sb1 1.985053 1_546
O6 Sb0 1.985060 1_545
O6 Rb0 3.042105 1_555
O7 W1 1.951341 1_555
O7 W0 1.952192 1_554
O7 Rb0 3.407605 1_455
O8 W1 1.933209 1_545
O8 Sb1 2.004966 1_645
O8 Rb0 3.206630 1_555
O9 W0 1.933069 1_555
O9 Sb0 2.004923 1_655
O9 Rb0 3.211244 1_555
O10 W0 1.933064 1_554
O10 Sb1 2.004923 1_655
O10 Rb0 3.211238 1_555
O11 W1 1.933204 1_546
O11 Sb0 2.004966 1_645
O11 Rb0 3.206635 1_555
