# generated using pymatgen
data_RbHfMg6O7
_symmetry_space_group_name_H-M   'P 1'
_cell_length_a   4.23246200
_cell_length_b   4.23246200
_cell_length_c   12.65823100
_cell_angle_alpha   90.00000000
_cell_angle_beta   90.00000000
_cell_angle_gamma   90.00000000
_symmetry_Int_Tables_number   1
_chemical_formula_structural   RbHfMg6O7
_chemical_formula_sum   'Rb1 Hf1 Mg6 O7'
_cell_volume   226.75619040
_cell_formula_units_Z   1
loop_
 _symmetry_equiv_pos_site_id
 _symmetry_equiv_pos_as_xyz
  1  'x, y, z'
loop_
 _atom_site_type_symbol
 _atom_site_label
 _atom_site_symmetry_multiplicity
 _atom_site_fract_x
 _atom_site_fract_y
 _atom_site_fract_z
 _atom_site_occupancy
  Rb  Rb0  1  0.00000000  0.00000000  0.03193200  1
  Hf  Hf0  1  0.00000000  0.00000000  0.52797800  1
  Mg  Mg0  1  0.50000000  0.50000000  0.90387100  1
  Mg  Mg1  1  0.50000000  0.50000000  0.55305400  1
  Mg  Mg2  1  0.00000000  0.50000000  0.31626600  1
  Mg  Mg3  1  0.00000000  0.50000000  0.74740200  1
  Mg  Mg4  1  0.50000000  0.00000000  0.31626600  1
  Mg  Mg5  1  0.50000000  0.00000000  0.74740200  1
  O  O0  1  0.00000000  0.00000000  0.35789100  1
  O  O1  1  0.00000000  0.00000000  0.68827500  1
  O  O2  1  0.50000000  0.50000000  0.71188600  1
  O  O3  1  0.00000000  0.50000000  0.89904300  1
  O  O4  1  0.00000000  0.50000000  0.52484500  1
  O  O5  1  0.50000000  0.00000000  0.89904300  1
  O  O6  1  0.50000000  0.00000000  0.52484500  1
loop_
_geom_bond_atom_site_label_1
_geom_bond_atom_site_label_2
_geom_bond_distance
_geom_bond_site_symmetry_2
Hf0 O1 2.029076 1_555
Hf0 O6 2.116603 1_455
Hf0 O4 2.116603 1_545
Hf0 O6 2.116603 1_555
Hf0 O4 2.116603 1_555
Hf0 O0 2.153001 1_555
Mg0 O5 2.117113 1_555
Mg0 O5 2.117113 1_565
Mg0 O3 2.117113 1_555
Mg0 O3 2.117113 1_655
Mg0 O2 2.430190 1_555
Mg1 O2 2.010532 1_555
Mg1 O6 2.146145 1_555
Mg1 O6 2.146145 1_565
Mg1 O4 2.146145 1_555
Mg1 O4 2.146145 1_655
Mg2 O0 2.180838 1_555
Mg2 O0 2.180838 1_565
Mg2 O4 2.640241 1_555
Mg3 O3 1.919507 1_555
Mg3 O2 2.163457 1_555
Mg3 O2 2.163457 1_455
Mg3 O1 2.244683 1_555
Mg3 O1 2.244683 1_565
Mg4 O0 2.180838 1_555
Mg4 O0 2.180838 1_655
Mg4 O6 2.640241 1_555
Mg5 O5 1.919507 1_555
Mg5 O2 2.163457 1_555
Mg5 O2 2.163457 1_545
Mg5 O1 2.244683 1_555
Mg5 O1 2.244683 1_655
O3 Rb0 2.703336 1_566
O3 Rb0 2.703336 1_556
O5 Rb0 2.703336 1_556
O5 Rb0 2.703336 1_656
