# generated using pymatgen
data_Ho2CoSi2
_symmetry_space_group_name_H-M   'P 1'
_cell_length_a   5.55038104
_cell_length_b   5.55038104
_cell_length_c   9.91108403
_cell_angle_alpha   63.13875655
_cell_angle_beta   63.13875655
_cell_angle_gamma   43.70492919
_symmetry_Int_Tables_number   1
_chemical_formula_structural   Ho2CoSi2
_chemical_formula_sum   'Ho4 Co2 Si4'
_cell_volume   184.27929572
_cell_formula_units_Z   2
loop_
 _symmetry_equiv_pos_site_id
 _symmetry_equiv_pos_as_xyz
  1  'x, y, z'
loop_
 _atom_site_type_symbol
 _atom_site_label
 _atom_site_symmetry_multiplicity
 _atom_site_fract_x
 _atom_site_fract_y
 _atom_site_fract_z
 _atom_site_occupancy
  Ho  Ho0  1  -0.00115343  -0.00115343  0.32795188  1
  Ho  Ho1  1  0.00115343  0.00115343  0.67204812  1
  Ho  Ho2  1  0.81261683  0.81261683  0.10318962  1
  Ho  Ho3  1  0.18738317  0.18738317  0.89681038  1
  Co  Co0  1  0.72884949  0.72884949  0.62578349  1
  Co  Co1  1  0.27115051  0.27115051  0.37421651  1
  Si  Si0  1  0.65254626  0.65254626  0.43524544  1
  Si  Si1  1  0.34745374  0.34745374  0.56475456  1
  Si  Si2  1  0.50267175  0.50267175  0.12599550  1
  Si  Si3  1  0.49732825  0.49732825  0.87400450  1
loop_
_geom_bond_atom_site_label_1
_geom_bond_atom_site_label_2
_geom_bond_distance
_geom_bond_site_symmetry_2
Ho0 Si2 2.863447 1_545
Ho0 Si2 2.863447 1_455
Ho0 Si1 2.940268 1_545
Ho0 Si1 2.940268 1_455
Ho0 Si0 3.089704 1_545
Ho0 Si0 3.089704 1_455
Ho0 Si0 3.188599 1_445
Ho1 Si3 2.863447 1_545
Ho1 Si3 2.863447 1_455
Ho1 Si0 2.940268 1_455
Ho1 Si0 2.940268 1_545
Ho1 Si1 3.089704 1_455
Ho1 Si1 3.089704 1_545
Ho1 Si1 3.188599 1_555
Ho2 Si0 2.875128 1_555
Ho2 Si2 2.929942 1_655
Ho2 Si2 2.929942 1_565
Ho2 Si3 2.973336 1_654
Ho2 Si3 2.973336 1_564
Ho2 Si2 3.089682 1_555
Ho3 Si1 2.875128 1_555
Ho3 Si3 2.929942 1_545
Ho3 Si3 2.929942 1_455
Ho3 Si2 2.973336 1_456
Ho3 Si2 2.973336 1_546
Ho3 Si3 3.089682 1_555
Co0 Si1 2.325433 1_565
Co0 Si1 2.325433 1_655
Co0 Si0 2.372700 1_555
Co0 Si3 2.455357 1_555
Co0 Ho0 2.908085 1_665
Co0 Ho1 2.989096 1_565
Co0 Ho1 2.989096 1_655
Co0 Ho1 3.055168 1_665
Co0 Ho3 3.247899 1_655
Co0 Ho3 3.247899 1_565
Co1 Si0 2.325433 1_545
Co1 Si0 2.325433 1_455
Co1 Si1 2.372700 1_555
Co1 Si2 2.455357 1_555
Co1 Ho1 2.908085 1_555
Co1 Ho0 2.989096 1_565
Co1 Ho0 2.989096 1_655
Co1 Ho0 3.055168 1_555
Co1 Ho2 3.247899 1_455
Co1 Ho2 3.247899 1_545
Si0 Si1 2.756845 1_555
Si2 Si3 2.524763 1_554
