# generated using pymatgen
data_MgCr4O8
_symmetry_space_group_name_H-M   'P 1'
_cell_length_a   7.23135519
_cell_length_b   7.23135519
_cell_length_c   9.37983744
_cell_angle_alpha   50.43911118
_cell_angle_beta   50.43911118
_cell_angle_gamma   23.77401318
_symmetry_Int_Tables_number   1
_chemical_formula_structural   MgCr4O8
_chemical_formula_sum   'Mg1 Cr4 O8'
_cell_volume   150.11963219
_cell_formula_units_Z   1
loop_
 _symmetry_equiv_pos_site_id
 _symmetry_equiv_pos_as_xyz
  1  'x, y, z'
loop_
 _atom_site_type_symbol
 _atom_site_label
 _atom_site_symmetry_multiplicity
 _atom_site_fract_x
 _atom_site_fract_y
 _atom_site_fract_z
 _atom_site_occupancy
  Mg  Mg0  1  0.66575600  0.66575600  0.80112400  1
  Cr  Cr0  1  0.36619400  0.36619400  0.43637200  1
  Cr  Cr1  1  0.85923400  0.85923400  0.79322100  1
  Cr  Cr2  1  0.15897300  0.15897300  0.16344500  1
  Cr  Cr3  1  0.65048800  0.65048800  0.50407200  1
  O  O0  1  0.14248700  0.14248700  0.38333900  1
  O  O1  1  0.54409800  0.54409800  0.24447900  1
  O  O2  1  0.46691000  0.46691000  0.71574700  1
  O  O3  1  0.85831000  0.85831000  0.58814600  1
  O  O4  1  0.83240800  0.83240800  0.34115000  1
  O  O5  1  0.21410200  0.21410200  0.90072200  1
  O  O6  1  0.16561900  0.16561900  0.64829500  1
  O  O7  1  0.78000900  0.78000900  0.04924300  1
loop_
_geom_bond_atom_site_label_1
_geom_bond_atom_site_label_2
_geom_bond_distance
_geom_bond_site_symmetry_2
Mg0 O6 2.068158 1_565
Mg0 O6 2.068158 1_655
Mg0 O3 2.081021 1_555
Mg0 O5 2.095633 1_655
Mg0 O5 2.095633 1_565
Cr0 O1 1.918303 1_555
Cr0 O4 1.949619 1_545
Cr0 O4 1.949619 1_455
Cr0 O3 2.012725 1_455
Cr0 O3 2.012725 1_545
Cr0 O6 2.159669 1_555
Cr1 O7 1.875937 1_556
Cr1 O2 1.904604 1_565
Cr1 O2 1.904604 1_655
Cr1 O3 1.932107 1_555
Cr1 O5 2.181360 1_565
Cr1 O5 2.181360 1_655
Cr2 O0 1.918906 1_555
Cr2 O1 1.957299 1_455
Cr2 O1 1.957299 1_545
Cr2 O7 1.977849 1_545
Cr2 O7 1.977849 1_455
Cr2 O5 2.044193 1_554
Cr3 O0 1.918568 1_565
Cr3 O0 1.918568 1_655
Cr3 O4 1.960228 1_555
Cr3 O2 1.994345 1_555
Cr3 O6 2.114636 1_655
Cr3 O6 2.114636 1_565
