# generated using pymatgen
data_SrMg6Al
_symmetry_space_group_name_H-M   'P 1'
_cell_length_a   6.84338789
_cell_length_b   6.84338789
_cell_length_c   5.17192100
_cell_angle_alpha   90.00000000
_cell_angle_beta   90.00000000
_cell_angle_gamma   122.74632587
_symmetry_Int_Tables_number   1
_chemical_formula_structural   SrMg6Al
_chemical_formula_sum   'Sr1 Mg6 Al1'
_cell_volume   203.71745892
_cell_formula_units_Z   1
loop_
 _symmetry_equiv_pos_site_id
 _symmetry_equiv_pos_as_xyz
  1  'x, y, z'
loop_
 _atom_site_type_symbol
 _atom_site_label
 _atom_site_symmetry_multiplicity
 _atom_site_fract_x
 _atom_site_fract_y
 _atom_site_fract_z
 _atom_site_occupancy
  Sr  Sr0  1  0.33004200  0.66995800  0.50000000  1
  Mg  Mg0  1  0.32516800  0.16476600  0.50000000  1
  Mg  Mg1  1  0.83523400  0.67483200  0.50000000  1
  Mg  Mg2  1  0.14849800  0.31079500  0.00000000  1
  Mg  Mg3  1  0.68920500  0.85150200  0.00000000  1
  Mg  Mg4  1  0.67309400  0.32690600  0.00000000  1
  Mg  Mg5  1  0.15651600  0.84348400  0.00000000  1
  Al  Al0  1  0.84224700  0.15775300  0.50000000  1
loop_
_geom_bond_atom_site_label_1
_geom_bond_atom_site_label_2
_geom_bond_distance
_geom_bond_site_symmetry_2
Mg0 Mg5 3.179322 1_545
Mg0 Mg5 3.179322 1_546
Mg0 Mg1 3.212681 1_445
Mg0 Mg2 3.233371 1_556
Mg0 Mg2 3.233371 1_555
Mg0 Mg4 3.275571 1_556
Mg0 Mg4 3.275571 1_555
Mg0 Mg1 3.344695 1_555
Mg0 Sr0 3.404321 1_545
Mg0 Sr0 3.439297 1_555
Mg1 Mg5 3.179322 1_656
Mg1 Mg5 3.179322 1_655
Mg1 Mg3 3.233371 1_555
Mg1 Mg3 3.233371 1_556
Mg1 Mg4 3.275571 1_556
Mg1 Mg4 3.275571 1_555
Mg1 Sr0 3.404321 1_655
Mg1 Sr0 3.439297 1_555
Mg2 Mg3 3.011757 1_445
Mg2 Mg5 3.228001 1_545
Mg2 Sr0 3.311855 1_555
Mg2 Sr0 3.311855 1_554
Mg2 Mg4 3.314310 1_455
Mg2 Mg4 3.531593 1_555
Mg3 Mg5 3.228001 1_655
Mg3 Sr0 3.311855 1_555
Mg3 Sr0 3.311855 1_554
Mg3 Mg4 3.314310 1_565
Mg3 Mg4 3.531593 1_555
Mg4 Mg5 3.284731 1_655
Mg4 Mg5 3.284731 1_545
Mg5 Sr0 3.321613 1_555
Mg5 Sr0 3.321613 1_554
Al0 Mg3 3.130786 1_545
Al0 Mg2 3.130786 1_656
Al0 Mg3 3.130786 1_546
Al0 Mg2 3.130786 1_655
Al0 Mg1 3.279104 1_545
Al0 Mg0 3.279104 1_655
Al0 Sr0 3.281965 1_655
Al0 Sr0 3.281965 1_545
Al0 Mg4 3.288895 1_556
Al0 Mg4 3.288895 1_555
