# generated using pymatgen
data_Nd2AlCo2
_symmetry_space_group_name_H-M   'P 1'
_cell_length_a   4.02085200
_cell_length_b   5.61126123
_cell_length_c   5.61126123
_cell_angle_alpha   60.01566749
_cell_angle_beta   69.00514242
_cell_angle_gamma   69.00514242
_symmetry_Int_Tables_number   1
_chemical_formula_structural   Nd2AlCo2
_chemical_formula_sum   'Nd2 Al1 Co2'
_cell_volume   99.83144733
_cell_formula_units_Z   1
loop_
 _symmetry_equiv_pos_site_id
 _symmetry_equiv_pos_as_xyz
  1  'x, y, z'
loop_
 _atom_site_type_symbol
 _atom_site_label
 _atom_site_symmetry_multiplicity
 _atom_site_fract_x
 _atom_site_fract_y
 _atom_site_fract_z
 _atom_site_occupancy
  Nd  Nd0  1  0.19915100  0.30084900  0.30084900  1
  Nd  Nd1  1  0.80084900  0.69915100  0.69915100  1
  Al  Al0  1  0.00000000  0.00000000  0.00000000  1
  Co  Co0  1  0.50000000  0.27024200  0.72975800  1
  Co  Co1  1  0.50000000  0.72975800  0.27024200  1
loop_
_geom_bond_atom_site_label_1
_geom_bond_atom_site_label_2
_geom_bond_distance
_geom_bond_site_symmetry_2
Al0 Co0 2.518405 1_454
Al0 Co0 2.518405 1_554
Al0 Co1 2.518405 1_545
Al0 Co1 2.518405 1_445
Co0 Co1 2.579075 1_555
Co0 Nd1 2.968039 1_555
Co0 Nd0 2.968039 1_555
Co0 Nd0 2.968039 1_655
Co0 Nd1 2.968039 1_455
Co0 Co1 3.033515 1_546
Co0 Nd0 3.063556 1_556
Co0 Nd1 3.063556 1_545
Co1 Nd1 2.968039 1_555
Co1 Nd0 2.968039 1_555
Co1 Nd0 2.968039 1_655
Co1 Nd1 2.968039 1_455
Co1 Nd0 3.063556 1_565
Co1 Nd1 3.063556 1_554
