# generated using pymatgen
data_Te4Mo(WSe)2
_symmetry_space_group_name_H-M   'P 1'
_cell_length_a   3.47497780
_cell_length_b   3.47497780
_cell_length_c   32.09874200
_cell_angle_alpha   90.00000000
_cell_angle_beta   90.00000000
_cell_angle_gamma   119.99999628
_symmetry_Int_Tables_number   1
_chemical_formula_structural   Te4Mo(WSe)2
_chemical_formula_sum   'Te4 Mo1 W2 Se2'
_cell_volume   335.67788491
_cell_formula_units_Z   1
loop_
 _symmetry_equiv_pos_site_id
 _symmetry_equiv_pos_as_xyz
  1  'x, y, z'
loop_
 _atom_site_type_symbol
 _atom_site_label
 _atom_site_symmetry_multiplicity
 _atom_site_fract_x
 _atom_site_fract_y
 _atom_site_fract_z
 _atom_site_occupancy
  Te  Te0  1  0.00000000  0.00000000  0.40467800  1
  Te  Te1  1  0.33333300  0.66666700  0.05829200  1
  Te  Te2  1  0.33333300  0.66666700  0.17297100  1
  Te  Te3  1  0.00000000  0.00000000  0.28934900  1
  Mo  Mo0  1  0.00000000  0.00000000  0.11561700  1
  W  W0  1  0.00000000  0.00000000  0.57830800  1
  W  W1  1  0.33333300  0.66666700  0.34702300  1
  Se  Se0  1  0.33333300  0.66666700  0.52754200  1
  Se  Se1  1  0.33333300  0.66666700  0.62906200  1
loop_
_geom_bond_atom_site_label_1
_geom_bond_atom_site_label_2
_geom_bond_distance
_geom_bond_site_symmetry_2
Te0 W1 2.729481 1_545
Te0 W1 2.729483 1_555
Te0 W1 2.729483 1_445
Te3 W1 2.729894 1_545
Te3 W1 2.729897 1_555
Te3 W1 2.729897 1_445
Mo0 Te1 2.722310 1_545
Mo0 Te1 2.722312 1_555
Mo0 Te1 2.722312 1_445
Mo0 Te2 2.722939 1_545
Mo0 Te2 2.722941 1_555
Mo0 Te2 2.722941 1_445
Se0 W0 2.584666 1_565
Se0 W0 2.584669 1_555
Se0 W0 2.584669 1_665
Se1 W0 2.584423 1_565
Se1 W0 2.584426 1_555
Se1 W0 2.584426 1_665
