# generated using pymatgen
data_Al2PH3O7
_symmetry_space_group_name_H-M   'P 1'
_cell_length_a   7.78221364
_cell_length_b   7.78221364
_cell_length_c   5.16073489
_cell_angle_alpha   71.15108698
_cell_angle_beta   71.15108698
_cell_angle_gamma   62.96459268
_symmetry_Int_Tables_number   1
_chemical_formula_structural   Al2PH3O7
_chemical_formula_sum   'Al4 P2 H6 O14'
_cell_volume   257.64452730
_cell_formula_units_Z   2
loop_
 _symmetry_equiv_pos_site_id
 _symmetry_equiv_pos_as_xyz
  1  'x, y, z'
loop_
 _atom_site_type_symbol
 _atom_site_label
 _atom_site_symmetry_multiplicity
 _atom_site_fract_x
 _atom_site_fract_y
 _atom_site_fract_z
 _atom_site_occupancy
  Al  Al0  1  0.80098000  0.19902000  0.00000000  1
  Al  Al1  1  0.19902000  0.80098000  0.00000000  1
  Al  Al2  1  0.18943400  0.18943400  0.01909400  1
  Al  Al3  1  0.81056600  0.81056600  0.98090600  1
  P  P0  1  0.35245500  0.35245500  0.37168400  1
  P  P1  1  0.64754500  0.64754500  0.62831600  1
  H  H0  1  0.12598700  0.12598700  0.60245400  1
  H  H1  1  0.87401300  0.87401300  0.39754600  1
  H  H2  1  0.85844400  0.36435000  0.29862700  1
  H  H3  1  0.36435000  0.85844400  0.29862700  1
  H  H4  1  0.14155600  0.63565000  0.70137300  1
  H  H5  1  0.63565000  0.14155600  0.70137300  1
  O  O0  1  0.25777600  0.25777600  0.26662800  1
  O  O1  1  0.74222400  0.74222400  0.73337200  1
  O  O2  1  0.30385500  0.30385500  0.69662400  1
  O  O3  1  0.69614500  0.69614500  0.30337600  1
  O  O4  1  0.26476900  0.57843700  0.28330500  1
  O  O5  1  0.57843700  0.26476900  0.28330500  1
  O  O6  1  0.73523100  0.42156300  0.71669500  1
  O  O7  1  0.42156300  0.73523100  0.71669500  1
  O  O8  1  0.08477200  0.08477200  0.80436800  1
  O  O9  1  0.91522800  0.91522800  0.19563200  1
  O  O10  1  0.92787600  0.28792300  0.15223100  1
  O  O11  1  0.28792300  0.92787600  0.15223100  1
  O  O12  1  0.07212400  0.71207700  0.84776900  1
  O  O13  1  0.71207700  0.07212400  0.84776900  1
loop_
_geom_bond_atom_site_label_1
_geom_bond_atom_site_label_2
_geom_bond_distance
_geom_bond_site_symmetry_2
Al0 O6 1.854861 1_554
Al0 O5 1.854861 1_555
Al0 O10 1.882744 1_555
Al0 O13 1.882744 1_554
Al0 O8 2.010372 1_654
Al0 O9 2.010372 1_545
Al1 O7 1.854861 1_554
Al1 O4 1.854861 1_555
Al1 O11 1.882744 1_555
Al1 O12 1.882744 1_554
Al1 O8 2.010372 1_564
Al1 O9 2.010372 1_455
Al2 O2 1.777948 1_554
Al2 O10 1.794748 1_455
Al2 O11 1.794748 1_545
Al2 O0 1.825593 1_555
Al2 O8 2.079499 1_554
Al3 O3 1.777948 1_556
Al3 O12 1.794748 1_655
Al3 O13 1.794748 1_565
Al3 O1 1.825593 1_555
Al3 O9 2.079499 1_556
H0 O8 0.976308 1_555
H1 O9 0.976308 1_555
H2 O10 0.975156 1_555
H3 O11 0.975156 1_555
H4 O12 0.975156 1_555
H5 O13 0.975156 1_555
O0 P0 1.545801 1_555
O1 P1 1.545801 1_555
O2 P0 1.551967 1_555
O3 P1 1.551967 1_555
O4 P0 1.535692 1_555
O5 P0 1.535692 1_555
O6 P1 1.535692 1_555
O7 P1 1.535692 1_555
