# generated using pymatgen
data_Ga16Rh3
_symmetry_space_group_name_H-M   'P 1'
_cell_length_a   15.65893914
_cell_length_b   15.65893914
_cell_length_c   6.58349000
_cell_angle_alpha   90.00000000
_cell_angle_beta   90.00000000
_cell_angle_gamma   155.72901714
_symmetry_Int_Tables_number   1
_chemical_formula_structural   Ga16Rh3
_chemical_formula_sum   'Ga32 Rh6'
_cell_volume   663.55723705
_cell_formula_units_Z   2
loop_
 _symmetry_equiv_pos_site_id
 _symmetry_equiv_pos_as_xyz
  1  'x, y, z'
loop_
 _atom_site_type_symbol
 _atom_site_label
 _atom_site_symmetry_multiplicity
 _atom_site_fract_x
 _atom_site_fract_y
 _atom_site_fract_z
 _atom_site_occupancy
  Ga  Ga0  1  0.92028800  0.07971200  0.50000000  1
  Ga  Ga1  1  0.07971200  0.92028800  0.50000000  1
  Ga  Ga2  1  0.57971200  0.42028800  0.00000000  1
  Ga  Ga3  1  0.42028800  0.57971200  0.00000000  1
  Ga  Ga4  1  0.75908700  0.24091300  0.50000000  1
  Ga  Ga5  1  0.24091300  0.75908700  0.50000000  1
  Ga  Ga6  1  0.74091300  0.25908700  0.00000000  1
  Ga  Ga7  1  0.25908700  0.74091300  0.00000000  1
  Ga  Ga8  1  0.11587200  0.18321600  0.15084500  1
  Ga  Ga9  1  0.88412800  0.81678400  0.15084500  1
  Ga  Ga10  1  0.18321600  0.11587200  0.84915500  1
  Ga  Ga11  1  0.81678400  0.88412800  0.84915500  1
  Ga  Ga12  1  0.38412800  0.31678400  0.34915500  1
  Ga  Ga13  1  0.61587200  0.68321600  0.34915500  1
  Ga  Ga14  1  0.31678400  0.38412800  0.65084500  1
  Ga  Ga15  1  0.68321600  0.61587200  0.65084500  1
  Ga  Ga16  1  0.97222400  0.35178500  0.83811900  1
  Ga  Ga17  1  0.02777600  0.64821500  0.83811900  1
  Ga  Ga18  1  0.35178500  0.97222400  0.16188100  1
  Ga  Ga19  1  0.64821500  0.02777600  0.16188100  1
  Ga  Ga20  1  0.52777600  0.14821500  0.66188100  1
  Ga  Ga21  1  0.47222400  0.85178500  0.66188100  1
  Ga  Ga22  1  0.14821500  0.52777600  0.33811900  1
  Ga  Ga23  1  0.85178500  0.47222400  0.33811900  1
  Ga  Ga24  1  0.23290600  0.47723400  0.64635500  1
  Ga  Ga25  1  0.76709400  0.52276600  0.64635500  1
  Ga  Ga26  1  0.47723400  0.23290600  0.35364500  1
  Ga  Ga27  1  0.52276600  0.76709400  0.35364500  1
  Ga  Ga28  1  0.26709400  0.02276600  0.85364500  1
  Ga  Ga29  1  0.73290600  0.97723400  0.85364500  1
  Ga  Ga30  1  0.02276600  0.26709400  0.14635500  1
  Ga  Ga31  1  0.97723400  0.73290600  0.14635500  1
  Rh  Rh0  1  0.00000000  0.00000000  0.50000000  1
  Rh  Rh1  1  0.50000000  0.50000000  0.00000000  1
  Rh  Rh2  1  0.84016100  0.15983900  0.50000000  1
  Rh  Rh3  1  0.15983900  0.84016100  0.50000000  1
  Rh  Rh4  1  0.65983900  0.34016100  0.00000000  1
  Rh  Rh5  1  0.34016100  0.65983900  0.00000000  1
loop_
_geom_bond_atom_site_label_1
_geom_bond_atom_site_label_2
_geom_bond_distance
_geom_bond_site_symmetry_2
Ga0 Rh0 2.440624 1_655
Ga0 Rh2 2.453330 1_555
Ga0 Ga29 2.832056 1_545
Ga0 Ga30 2.832056 1_655
Ga0 Ga27 2.843009 1_545
Ga0 Ga24 2.843009 1_655
Ga0 Ga8 2.870596 1_655
Ga0 Ga11 2.870596 1_545
Ga0 Ga13 2.880467 1_545
Ga0 Ga14 2.880467 1_655
Ga1 Rh0 2.440624 1_565
Ga1 Rh3 2.453330 1_555
Ga1 Ga31 2.832056 1_455
Ga1 Ga28 2.832056 1_565
Ga1 Ga25 2.843009 1_455
Ga1 Ga26 2.843009 1_565
Ga1 Ga10 2.870596 1_565
Ga1 Ga9 2.870596 1_455
Ga1 Ga15 2.880467 1_455
Ga1 Ga12 2.880467 1_565
Ga2 Rh1 2.440624 1_555
Ga2 Rh4 2.453330 1_555
Ga2 Ga25 2.832056 1_554
Ga2 Ga26 2.832056 1_555
Ga2 Ga31 2.843009 1_555
Ga2 Ga28 2.843009 1_554
Ga2 Ga9 2.880467 1_555
Ga3 Rh1 2.440624 1_555
Ga3 Rh5 2.453330 1_555
Ga3 Ga30 2.843009 1_555
Ga3 Ga8 2.880467 1_555
Ga4 Rh2 2.482326 1_555
Ga5 Rh3 2.482326 1_555
Ga6 Rh4 2.482326 1_555
Ga7 Rh5 2.482326 1_555
Ga8 Rh0 2.704828 1_555
Ga8 Rh1 2.715302 1_555
Ga8 Ga9 2.851151 1_445
Ga9 Rh0 2.704828 1_665
Ga9 Rh1 2.715302 1_555
Ga10 Rh0 2.704828 1_555
Ga10 Ga28 2.709782 1_555
Ga10 Rh1 2.715302 1_556
Ga10 Ga14 2.775934 1_555
Ga10 Ga9 2.796846 1_446
Ga10 Ga11 2.851151 1_445
Ga10 Ga8 2.862950 1_556
Ga10 Ga2 2.880467 1_556
Ga11 Rh0 2.704828 1_665
Ga11 Ga29 2.709782 1_555
Ga11 Rh1 2.715302 1_556
Ga11 Ga15 2.775934 1_555
Ga11 Ga8 2.796846 1_666
Ga11 Ga9 2.862950 1_556
Ga11 Ga3 2.880467 1_556
Ga12 Rh1 2.704828 1_555
Ga12 Ga26 2.709782 1_555
Ga12 Rh0 2.715302 1_555
Ga12 Ga8 2.775934 1_555
Ga12 Ga15 2.796846 1_555
Ga12 Ga13 2.851151 1_555
Ga12 Ga14 2.862950 1_555
Ga12 Ga2 2.870596 1_555
Ga13 Rh1 2.704828 1_555
Ga13 Ga27 2.709782 1_555
Ga13 Rh0 2.715302 1_665
Ga13 Ga9 2.775934 1_555
Ga13 Ga14 2.796846 1_555
Ga13 Ga15 2.862950 1_555
Ga13 Ga3 2.870596 1_555
Ga14 Rh1 2.704828 1_556
Ga14 Ga24 2.709782 1_555
Ga14 Rh0 2.715302 1_555
Ga14 Ga15 2.851151 1_555
Ga14 Ga3 2.870596 1_556
Ga15 Rh1 2.704828 1_556
Ga15 Ga25 2.709782 1_555
Ga15 Rh0 2.715302 1_665
Ga15 Ga2 2.870596 1_556
Ga16 Rh5 2.632135 1_656
Ga16 Rh2 2.633089 1_555
Ga16 Ga24 2.737812 1_655
Ga16 Ga29 2.894841 1_545
Ga16 Ga30 2.901145 1_656
Ga17 Rh4 2.632135 1_456
Ga17 Rh3 2.633089 1_555
Ga17 Ga25 2.737812 1_455
Ga17 Ga28 2.894841 1_565
Ga17 Ga31 2.901145 1_456
Ga18 Rh4 2.632135 1_565
Ga18 Rh3 2.633089 1_555
Ga18 Ga26 2.737812 1_565
Ga18 Ga31 2.894841 1_455
Ga18 Ga28 2.901145 1_564
Ga19 Rh5 2.632135 1_545
Ga19 Rh2 2.633089 1_555
Ga19 Ga27 2.737812 1_545
Ga19 Ga30 2.894841 1_655
Ga19 Ga29 2.901145 1_544
Ga20 Rh3 2.632135 1_545
Ga20 Rh4 2.633089 1_556
Ga20 Ga28 2.737812 1_555
Ga20 Ga25 2.894841 1_555
Ga20 Ga26 2.901145 1_555
Ga21 Rh2 2.632135 1_565
Ga21 Rh5 2.633089 1_556
Ga21 Ga29 2.737812 1_555
Ga21 Ga24 2.894841 1_555
Ga21 Ga27 2.901145 1_555
Ga22 Rh2 2.632135 1_455
Ga22 Rh5 2.633089 1_555
Ga22 Ga30 2.737812 1_555
Ga22 Ga27 2.894841 1_555
Ga22 Ga24 2.901145 1_555
Ga23 Rh3 2.632135 1_655
Ga23 Rh4 2.633089 1_555
Ga23 Ga31 2.737812 1_555
Ga23 Ga26 2.894841 1_555
Ga23 Ga25 2.901145 1_555
Ga24 Ga27 2.712088 1_555
Ga24 Rh5 2.767980 1_556
Ga24 Rh2 2.779186 1_455
Ga24 Ga3 2.832056 1_556
Ga25 Ga26 2.712088 1_555
Ga25 Rh4 2.767980 1_556
Ga25 Rh3 2.779186 1_655
Ga26 Rh4 2.767980 1_555
Ga26 Rh3 2.779186 1_545
Ga27 Rh5 2.767980 1_555
Ga27 Rh2 2.779186 1_565
Ga27 Ga3 2.832056 1_555
Ga28 Ga31 2.712088 1_446
Ga28 Rh3 2.767980 1_545
Ga28 Rh4 2.779186 1_556
Ga29 Ga30 2.712088 1_666
Ga29 Rh2 2.767980 1_565
Ga29 Rh5 2.779186 1_556
Ga29 Ga3 2.843009 1_556
Ga30 Ga8 2.709782 1_555
Ga30 Rh2 2.767980 1_455
Ga30 Rh5 2.779186 1_555
Ga31 Ga9 2.709782 1_555
Ga31 Rh3 2.767980 1_655
Ga31 Rh4 2.779186 1_555
