# generated using pymatgen
data_Li6V3P8O29
_symmetry_space_group_name_H-M   'P 1'
_cell_length_a   9.82220533
_cell_length_b   9.79938857
_cell_length_c   14.01086660
_cell_angle_alpha   89.42404880
_cell_angle_beta   90.09827885
_cell_angle_gamma   60.00545082
_symmetry_Int_Tables_number   1
_chemical_formula_structural   Li6V3P8O29
_chemical_formula_sum   'Li12 V6 P16 O58'
_cell_volume   1167.86426945
_cell_formula_units_Z   2
loop_
 _symmetry_equiv_pos_site_id
 _symmetry_equiv_pos_as_xyz
  1  'x, y, z'
loop_
 _atom_site_type_symbol
 _atom_site_label
 _atom_site_symmetry_multiplicity
 _atom_site_fract_x
 _atom_site_fract_y
 _atom_site_fract_z
 _atom_site_occupancy
  Li  Li0  1  0.89618199  0.75917767  0.06216226  1
  Li  Li1  1  0.76594690  0.90331164  0.56085516  1
  Li  Li2  1  0.90555887  0.32836929  0.55656121  1
  Li  Li3  1  0.76645436  0.32633481  0.05628613  1
  Li  Li4  1  0.32981905  0.90353234  0.06106132  1
  Li  Li5  1  0.68577647  0.22871906  0.43795894  1
  Li  Li6  1  0.34443151  0.75794972  0.56199244  1
  Li  Li7  1  0.32331177  0.34121070  0.60723466  1
  Li  Li8  1  0.33510520  0.34144232  0.10713858  1
  Li  Li9  1  0.08481113  0.22835816  0.93935865  1
  Li  Li10  1  0.97930944  0.96975006  0.99724658  1
  Li  Li11  1  0.05169340  0.96948791  0.49858542  1
  V  V0  1  0.56026458  0.44147084  0.24782089  1
  V  V1  1  0.43373965  0.56548124  0.75737385  1
  V  V2  1  0.56594938  0.99892976  0.74893576  1
  V  V3  1  0.43680896  0.99862825  0.24956340  1
  V  V4  1  0.00186416  0.56506115  0.25689308  1
  V  V5  1  0.99855196  0.44024358  0.74754491  1
  P  P0  1  0.91270832  0.77225414  0.84373215  1
  P  P1  1  0.77277634  0.91419463  0.34459293  1
  P  P2  1  0.91415824  0.30914539  0.34342488  1
  P  P3  1  0.67017717  0.66599253  0.12932125  1
  P  P4  1  0.66445086  0.66463804  0.62949595  1
  P  P5  1  0.77761650  0.30775016  0.84348039  1
  P  P6  1  0.67949390  0.23034460  0.65850778  1
  P  P7  1  0.31317038  0.91575597  0.84554197  1
  P  P8  1  0.69249988  0.08821241  0.15942277  1
  P  P9  1  0.31410960  0.77360916  0.34444449  1
  P  P10  1  0.21373964  0.69799022  0.16118907  1
  P  P11  1  0.33726387  0.32914786  0.36787511  1
  P  P12  1  0.33304667  0.33065238  0.86745917  1
  P  P13  1  0.08819225  0.69813073  0.66100451  1
  P  P14  1  0.22033307  0.08759525  0.65956035  1
  P  P15  1  0.09075961  0.22918001  0.15900893  1
  O  O0  1  0.98986379  0.80524611  0.58139385  1
  O  O1  1  0.91735872  0.75098872  0.33795115  1
  O  O2  1  0.79946948  0.98766092  0.08189380  1
  O  O3  1  0.74550969  0.91324755  0.82520700  1
  O  O4  1  0.91070384  0.61789584  0.83035918  1
  O  O5  1  0.81719146  0.66500854  0.17492777  1
  O  O6  1  0.91160015  0.46711691  0.33378188  1
  O  O7  1  0.99577798  0.23949645  0.07140395  1
  O  O8  1  0.92086904  0.33223657  0.83547852  1
  O  O9  1  0.66990447  0.81331547  0.66307984  1
  O  O10  1  0.62417889  0.90407500  0.32496521  1
  O  O11  1  0.81631573  0.51425408  0.67215289  1
  O  O12  1  0.68267555  0.65592476  0.02332908  1
  O  O13  1  0.66206228  0.65237311  0.52371688  1
  O  O14  1  0.66727289  0.51619618  0.17163347  1
  O  O15  1  0.46833156  0.91368785  0.82893020  1
  O  O16  1  0.51748263  0.81489743  0.16358574  1
  O  O17  1  0.74691538  0.33273203  0.33453832  1
  O  O18  1  0.78788845  0.20460026  0.75062902  1
  O  O19  1  0.76364868  0.23975038  0.57074719  1
  O  O20  1  0.79357761  0.21534705  0.93310321  1
  O  O21  1  0.62201998  0.46534729  0.83449184  1
  O  O22  1  0.51815644  0.66547043  0.67570008  1
  O  O23  1  0.65659646  0.26051045  0.15247534  1
  O  O24  1  0.46887560  0.61719068  0.33148835  1
  O  O25  1  0.34292432  0.91341314  0.32826934  1
  O  O26  1  0.78277821  0.02222105  0.25984115  1
  O  O27  1  0.76764940  0.99829832  0.43564560  1
  O  O28  1  0.21537161  0.98638621  0.58179240  1
  O  O29  1  0.65761689  0.08468936  0.65401180  1
  O  O30  1  0.51578764  0.37796171  0.67172234  1
  O  O31  1  0.33609760  0.75057581  0.83850824  1
  O  O32  1  0.48644973  0.32935075  0.32590136  1
  O  O33  1  0.36759675  0.53296592  0.16799195  1
  O  O34  1  0.20710312  0.80233884  0.08050046  1
  O  O35  1  0.23643330  0.78576033  0.43824227  1
  O  O36  1  0.19614518  0.78708414  0.26066765  1
  O  O37  1  0.25792637  0.66665969  0.65870881  1
  O  O38  1  0.47778671  0.19110444  0.82186714  1
  O  O39  1  0.53140128  0.09318963  0.16585558  1
  O  O40  1  0.32837973  0.48333108  0.82701454  1
  O  O41  1  0.32685657  0.32820372  0.97406680  1
  O  O42  1  0.34496590  0.32705798  0.47453546  1
  O  O43  1  0.18921792  0.48109451  0.32690754  1
  O  O44  1  0.37538466  0.09435252  0.66674133  1
  O  O45  1  0.33286933  0.18803404  0.32332587  1
  O  O46  1  0.07487639  0.66739746  0.15865614  1
  O  O47  1  0.01917847  0.78508867  0.76144520  1
  O  O48  1  0.97548194  0.78572325  0.93829560  1
  O  O49  1  0.09698880  0.53403533  0.66649588  1
  O  O50  1  0.18292958  0.33168953  0.82528171  1
  O  O51  1  0.10751285  0.37681948  0.17178447  1
  O  O52  1  0.25659586  0.08226396  0.15494156  1
  O  O53  1  0.23015247  0.99850291  0.93598707  1
  O  O54  1  0.19605194  0.02146881  0.75979096  1
  O  O55  1  0.08306842  0.25937688  0.65230200  1
  O  O56  1  0.98960960  0.21823250  0.43368354  1
  O  O57  1  0.00829368  0.20466496  0.25152352  1
loop_
_geom_bond_atom_site_label_1
_geom_bond_atom_site_label_2
_geom_bond_distance
_geom_bond_site_symmetry_2
Li0 O2 1.969443 1_555
Li0 O48 1.970884 1_554
Li0 O46 2.026432 1_655
Li0 O5 2.154177 1_555
Li1 O0 1.929389 1_555
Li1 O27 1.981684 1_555
Li1 O29 2.038470 1_565
Li1 O9 2.128397 1_555
Li2 O19 1.986014 1_555
Li2 O56 1.990412 1_555
Li2 O55 2.022758 1_655
Li2 O11 2.275319 1_555
Li3 O7 1.980123 1_555
Li3 O20 1.995549 1_554
Li3 O23 2.019931 1_555
Li3 O14 2.296971 1_555
Li4 O34 1.923830 1_555
Li4 O53 1.986396 1_554
Li4 O52 2.026106 1_565
Li4 O16 2.140223 1_555
Li5 O27 1.982998 1_545
Li5 O17 2.020999 1_555
Li5 O19 2.034683 1_555
Li5 O32 2.301845 1_555
Li6 O28 1.967594 1_555
Li6 O35 1.975069 1_555
Li6 O37 2.024358 1_555
Li6 O22 2.164850 1_555
Li7 O42 1.870363 1_555
Li7 O49 2.244910 1_555
Li7 O30 2.280705 1_555
Li7 O44 2.351486 1_555
Li8 O41 1.874680 1_554
Li8 O33 2.231888 1_555
Li8 O51 2.275136 1_555
Li8 O39 2.361571 1_555
Li9 O53 1.975111 1_545
Li9 O8 2.017623 1_455
Li9 O7 2.028201 1_456
Li9 O50 2.336063 1_555
Li10 O48 2.008310 1_555
Li10 O2 2.063735 1_556
Li10 O34 2.310992 1_656
Li10 O20 2.342864 1_565
Li11 O35 2.004585 1_555
Li11 O28 2.057858 1_555
Li11 O0 2.290734 1_455
Li11 O56 2.368065 1_465
O0 P13 1.495956 1_655
O1 P1 1.521779 1_555
O1 V4 1.957329 1_655
O2 P8 1.498361 1_565
O3 P0 1.547906 1_555
O3 V2 1.858065 1_555
O4 P0 1.535892 1_555
O4 V5 1.914067 1_555
O5 P3 1.573638 1_555
O5 V4 1.939659 1_655
O6 P2 1.540181 1_555
O6 V4 1.923817 1_655
O7 P15 1.512091 1_655
O8 P5 1.545161 1_555
O8 V5 2.001189 1_555
O9 P4 1.561634 1_555
O9 V2 1.997320 1_555
O10 P1 1.536114 1_555
O10 V3 1.905338 1_555
O11 P4 1.592268 1_555
O11 V5 1.877735 1_555
O12 P3 1.490508 1_555
O13 P4 1.489217 1_555
O14 P3 1.591056 1_555
O14 V0 1.880968 1_555
O15 P7 1.532209 1_555
O15 V2 1.912832 1_555
O16 P3 1.561251 1_555
O16 V3 1.985212 1_555
O17 P2 1.544819 1_555
O17 V0 1.996453 1_555
O18 P6 1.607254 1_555
O18 P5 1.627649 1_555
O19 P6 1.510312 1_555
O20 P5 1.501930 1_555
O21 P5 1.540187 1_555
O21 V1 1.925565 1_555
O22 P4 1.573372 1_555
O22 V1 1.936508 1_555
O23 P8 1.544616 1_555
O23 V0 2.049095 1_555
O24 P9 1.539520 1_555
O24 V0 1.908873 1_555
O25 P9 1.545963 1_555
O25 V3 1.875798 1_555
O26 P8 1.608752 1_555
O26 P1 1.618458 1_545
O27 P1 1.512985 1_555
O28 P14 1.497699 1_565
O29 P6 1.547849 1_555
O29 V2 2.005974 1_545
O30 P6 1.546971 1_555
O30 V1 2.008303 1_555
O31 P7 1.522934 1_555
O31 V1 1.951376 1_555
O32 P11 1.580792 1_555
O32 V0 1.924738 1_555
O33 P10 1.568744 1_555
O33 V0 1.977941 1_555
O34 P10 1.495926 1_555
O35 P9 1.496368 1_555
O36 P9 1.605295 1_555
O36 P10 1.615293 1_555
O37 P13 1.536846 1_555
O37 V1 2.031868 1_555
O38 P12 1.541455 1_555
O38 V2 1.936923 1_545
O39 P8 1.561322 1_555
O39 V3 1.984970 1_545
O40 P12 1.573529 1_555
O40 V1 1.868603 1_555
O41 P12 1.495446 1_555
O42 P11 1.495605 1_555
O43 P11 1.573588 1_555
O43 V4 1.867996 1_555
O44 P14 1.560230 1_555
O44 V2 1.981185 1_545
O45 P11 1.542923 1_555
O45 V3 1.924297 1_545
O46 P10 1.536344 1_555
O46 V4 2.027090 1_555
O47 P0 1.603555 1_455
O47 P13 1.617363 1_555
O48 P0 1.495015 1_555
O49 P13 1.567717 1_555
O49 V5 1.985039 1_455
O50 P12 1.582819 1_555
O50 V5 1.908233 1_455
O51 P15 1.547714 1_555
O51 V4 2.009000 1_555
O52 P15 1.544820 1_555
O52 V3 2.020424 1_545
O53 P7 1.513725 1_555
O54 P14 1.608186 1_555
O54 P7 1.618235 1_545
O55 P14 1.545534 1_555
O55 V5 2.047305 1_455
O56 P2 1.502045 1_555
O57 P15 1.608062 1_555
O57 P2 1.626411 1_455
