# generated using pymatgen
data_ZrVCu
_symmetry_space_group_name_H-M   'P 1'
_cell_length_a   5.19380768
_cell_length_b   5.19380768
_cell_length_c   8.46191400
_cell_angle_alpha   90.00000000
_cell_angle_beta   90.00000000
_cell_angle_gamma   121.11865860
_symmetry_Int_Tables_number   1
_chemical_formula_structural   ZrVCu
_chemical_formula_sum   'Zr4 V4 Cu4'
_cell_volume   195.41785340
_cell_formula_units_Z   4
loop_
 _symmetry_equiv_pos_site_id
 _symmetry_equiv_pos_as_xyz
  1  'x, y, z'
loop_
 _atom_site_type_symbol
 _atom_site_label
 _atom_site_symmetry_multiplicity
 _atom_site_fract_x
 _atom_site_fract_y
 _atom_site_fract_z
 _atom_site_occupancy
  Zr  Zr0  1  0.32834600  0.67165400  0.18483000  1
  Zr  Zr1  1  0.66449300  0.33550700  0.31121500  1
  Zr  Zr2  1  0.66449300  0.33550700  0.68878500  1
  Zr  Zr3  1  0.32834600  0.67165400  0.81517000  1
  V  V0  1  0.83538200  0.16461800  0.00000000  1
  V  V1  1  0.17633300  0.34643600  0.50000000  1
  V  V2  1  0.65356400  0.82366700  0.50000000  1
  V  V3  1  0.17731400  0.82268600  0.50000000  1
  Cu  Cu0  1  0.00022000  0.99978000  0.24706700  1
  Cu  Cu1  1  0.00022000  0.99978000  0.75293300  1
  Cu  Cu2  1  0.83219500  0.66086400  0.00000000  1
  Cu  Cu3  1  0.33913600  0.16780500  0.00000000  1
loop_
_geom_bond_atom_site_label_1
_geom_bond_atom_site_label_2
_geom_bond_distance
_geom_bond_site_symmetry_2
Zr0 Zr3 3.128031 1_554
Zr0 Zr1 3.139738 1_565
Zr0 Zr1 3.139738 1_455
Zr0 Zr1 3.223438 1_555
Zr1 Zr2 3.194965 1_555
Zr2 Zr3 3.139738 1_655
Zr2 Zr3 3.139738 1_545
Zr2 Zr3 3.223438 1_555
V0 Zr3 2.994553 1_544
V0 Zr0 2.994553 1_655
V0 Zr3 2.994553 1_654
V0 Zr0 2.994553 1_545
V0 Zr2 3.053685 1_554
V0 Zr1 3.053685 1_555
V1 V2 2.436618 1_555
V1 V3 2.470922 1_555
V1 V2 2.669124 1_445
V1 V3 2.722893 1_545
V1 Zr2 3.021958 1_555
V1 Zr1 3.021958 1_555
V1 Zr3 3.034898 1_555
V1 Zr0 3.034898 1_555
V1 Zr2 3.076732 1_455
V1 Zr1 3.076732 1_455
V2 V3 2.470922 1_555
V2 V3 2.722893 1_655
V2 Zr2 3.021958 1_555
V2 Zr1 3.021958 1_555
V2 Zr3 3.034898 1_555
V2 Zr0 3.034898 1_555
V2 Zr2 3.076732 1_565
V2 Zr1 3.076732 1_565
V3 Zr3 2.996542 1_555
V3 Zr0 2.996542 1_555
V3 Zr2 3.013727 1_455
V3 Zr1 3.013727 1_565
V3 Zr1 3.013727 1_455
V3 Zr2 3.013727 1_565
Cu0 V0 2.567959 1_465
Cu0 Cu2 2.577433 1_455
Cu0 Cu3 2.577433 1_565
Cu0 V1 2.637605 1_565
Cu0 V2 2.637605 1_455
Cu0 V3 2.673457 1_555
Cu0 Zr1 3.003354 1_455
Cu0 Zr1 3.003354 1_565
Cu0 Zr0 3.014655 1_555
Cu0 Zr0 3.035117 1_565
Cu0 Zr0 3.035117 1_455
Cu0 Zr1 3.085185 1_465
Cu1 V0 2.567959 1_466
Cu1 Cu2 2.577433 1_456
Cu1 Cu3 2.577433 1_566
Cu1 V1 2.637605 1_565
Cu1 V2 2.637605 1_455
Cu1 V3 2.673457 1_555
Cu1 Zr2 3.003354 1_565
Cu1 Zr2 3.003354 1_455
Cu1 Zr3 3.014655 1_555
Cu1 Zr3 3.035117 1_565
Cu1 Zr3 3.035117 1_455
Cu1 Zr2 3.085185 1_465
Cu2 Cu3 2.517432 1_555
Cu2 V0 2.586000 1_555
Cu2 Cu3 2.588310 1_665
Cu2 V0 2.607885 1_565
Cu2 Zr0 2.990066 1_655
Cu2 Zr3 2.990066 1_654
Cu2 Zr2 3.004672 1_554
Cu2 Zr1 3.004672 1_555
Cu2 Zr0 3.073924 1_555
Cu2 Zr3 3.073924 1_554
Cu3 V0 2.586000 1_555
Cu3 V0 2.607885 1_455
Cu3 Zr0 2.990066 1_545
Cu3 Zr3 2.990066 1_544
Cu3 Zr2 3.004672 1_554
Cu3 Zr1 3.004672 1_555
Cu3 Zr0 3.073924 1_555
Cu3 Zr3 3.073924 1_554
