# generated using pymatgen
data_Mg2Ti
_symmetry_space_group_name_H-M   'P 1'
_cell_length_a   11.91999122
_cell_length_b   11.91999122
_cell_length_c   14.67276298
_cell_angle_alpha   77.49855897
_cell_angle_beta   77.49855897
_cell_angle_gamma   28.75778737
_symmetry_Int_Tables_number   1
_chemical_formula_structural   Mg2Ti
_chemical_formula_sum   'Mg32 Ti16'
_cell_volume   977.64830856
_cell_formula_units_Z   16
loop_
 _symmetry_equiv_pos_site_id
 _symmetry_equiv_pos_as_xyz
  1  'x, y, z'
loop_
 _atom_site_type_symbol
 _atom_site_label
 _atom_site_symmetry_multiplicity
 _atom_site_fract_x
 _atom_site_fract_y
 _atom_site_fract_z
 _atom_site_occupancy
  Mg  Mg0_0  1  0.07086600  0.07086600  0.48843400  1
  Mg  Mg0_1  1  0.07086600  0.07086600  0.98843400  1
  Mg  Mg0_2  1  0.07086600  0.57086600  0.48843400  1
  Mg  Mg0_3  1  0.07086600  0.57086600  0.98843400  1
  Mg  Mg0_4  1  0.57086600  0.07086600  0.48843400  1
  Mg  Mg0_5  1  0.57086600  0.07086600  0.98843400  1
  Mg  Mg0_6  1  0.57086600  0.57086600  0.48843400  1
  Mg  Mg0_7  1  0.57086600  0.57086600  0.98843400  1
  Mg  Mg1_0  1  0.26471400  0.26471400  0.34400700  1
  Mg  Mg1_1  1  0.26471400  0.26471400  0.84400700  1
  Mg  Mg1_2  1  0.26471400  0.76471400  0.34400700  1
  Mg  Mg1_3  1  0.26471400  0.76471400  0.84400700  1
  Mg  Mg1_4  1  0.76471400  0.26471400  0.34400700  1
  Mg  Mg1_5  1  0.76471400  0.26471400  0.84400700  1
  Mg  Mg1_6  1  0.76471400  0.76471400  0.34400700  1
  Mg  Mg1_7  1  0.76471400  0.76471400  0.84400700  1
  Mg  Mg2_0  1  0.23528600  0.23528600  0.15599300  1
  Mg  Mg2_1  1  0.23528600  0.23528600  0.65599300  1
  Mg  Mg2_2  1  0.23528600  0.73528600  0.15599300  1
  Mg  Mg2_3  1  0.23528600  0.73528600  0.65599300  1
  Mg  Mg2_4  1  0.73528600  0.23528600  0.15599300  1
  Mg  Mg2_5  1  0.73528600  0.23528600  0.65599300  1
  Mg  Mg2_6  1  0.73528600  0.73528600  0.15599300  1
  Mg  Mg2_7  1  0.73528600  0.73528600  0.65599300  1
  Mg  Mg3_0  1  0.42913400  0.42913400  0.01156600  1
  Mg  Mg3_1  1  0.42913400  0.42913400  0.51156600  1
  Mg  Mg3_2  1  0.42913400  0.92913400  0.01156600  1
  Mg  Mg3_3  1  0.42913400  0.92913400  0.51156600  1
  Mg  Mg3_4  1  0.92913400  0.42913400  0.01156600  1
  Mg  Mg3_5  1  0.92913400  0.42913400  0.51156600  1
  Mg  Mg3_6  1  0.92913400  0.92913400  0.01156600  1
  Mg  Mg3_7  1  0.92913400  0.92913400  0.51156600  1
  Ti  Ti0_0  1  0.39926800  0.39926800  0.30958400  1
  Ti  Ti0_1  1  0.39926800  0.39926800  0.80958400  1
  Ti  Ti0_2  1  0.39926800  0.89926800  0.30958400  1
  Ti  Ti0_3  1  0.39926800  0.89926800  0.80958400  1
  Ti  Ti0_4  1  0.89926800  0.39926800  0.30958400  1
  Ti  Ti0_5  1  0.89926800  0.39926800  0.80958400  1
  Ti  Ti0_6  1  0.89926800  0.89926800  0.30958400  1
  Ti  Ti0_7  1  0.89926800  0.89926800  0.80958400  1
  Ti  Ti1_0  1  0.10073200  0.10073200  0.19041600  1
  Ti  Ti1_1  1  0.10073200  0.10073200  0.69041600  1
  Ti  Ti1_2  1  0.10073200  0.60073200  0.19041600  1
  Ti  Ti1_3  1  0.10073200  0.60073200  0.69041600  1
  Ti  Ti1_4  1  0.60073200  0.10073200  0.19041600  1
  Ti  Ti1_5  1  0.60073200  0.10073200  0.69041600  1
  Ti  Ti1_6  1  0.60073200  0.60073200  0.19041600  1
  Ti  Ti1_7  1  0.60073200  0.60073200  0.69041600  1
loop_
_geom_bond_atom_site_label_1
_geom_bond_atom_site_label_2
_geom_bond_distance
_geom_bond_site_symmetry_2
Mg0_0 Mg0_6 2.960128 1_545
Mg0_0 Mg0_6 2.960128 1_455
Mg0_0 Mg3_5 2.989369 1_455
Mg0_0 Mg3_3 2.989369 1_545
Mg0_0 Mg1_4 3.096934 1_455
Mg0_0 Mg1_2 3.096934 1_545
Mg0_0 Mg2_5 3.157424 1_455
Mg0_0 Mg2_3 3.157424 1_545
Mg0_0 Ti1_1 3.189412 1_555
Mg0_0 Ti0_2 3.198711 1_545
Mg0_0 Ti0_4 3.198711 1_455
Mg0_0 Mg3_7 3.214268 1_445
Mg0_1 Mg0_7 2.960128 1_455
Mg0_1 Mg0_7 2.960128 1_545
Mg0_1 Mg3_4 2.989369 1_456
Mg0_1 Mg3_2 2.989369 1_546
Mg0_1 Mg1_5 3.096934 1_455
Mg0_1 Mg1_3 3.096934 1_545
Mg0_1 Mg2_2 3.157424 1_546
Mg0_1 Mg2_4 3.157424 1_456
Mg0_1 Ti1_0 3.189412 1_556
Mg0_1 Ti0_3 3.198711 1_545
Mg0_1 Ti0_5 3.198711 1_455
Mg0_1 Mg3_6 3.214268 1_446
Mg0_2 Mg0_4 2.960128 1_555
Mg0_2 Mg0_4 2.960128 1_465
Mg0_2 Mg3_7 2.989369 1_455
Mg0_2 Mg3_1 2.989369 1_555
Mg0_2 Mg1_6 3.096934 1_455
Mg0_2 Mg1_0 3.096934 1_555
Mg0_2 Mg2_7 3.157424 1_455
Mg0_2 Mg2_1 3.157424 1_555
Mg0_2 Ti1_3 3.189412 1_555
Mg0_2 Ti0_0 3.198711 1_555
Mg0_2 Ti0_6 3.198711 1_455
Mg0_2 Mg3_5 3.214268 1_455
Mg0_3 Mg0_5 2.960128 1_555
Mg0_3 Mg0_5 2.960128 1_465
Mg0_3 Mg3_6 2.989369 1_456
Mg0_3 Mg3_0 2.989369 1_556
Mg0_3 Mg1_7 3.096934 1_455
Mg0_3 Mg1_1 3.096934 1_555
Mg0_3 Mg2_6 3.157424 1_456
Mg0_3 Mg2_0 3.157424 1_556
Mg0_3 Ti1_2 3.189412 1_556
Mg0_3 Ti0_7 3.198711 1_455
Mg0_3 Ti0_1 3.198711 1_555
Mg0_3 Mg3_4 3.214268 1_456
Mg0_4 Mg3_1 2.989369 1_555
Mg0_4 Mg3_7 2.989369 1_545
Mg0_4 Mg1_6 3.096934 1_545
Mg0_4 Mg1_0 3.096934 1_555
Mg0_4 Mg2_7 3.157424 1_545
Mg0_4 Mg2_1 3.157424 1_555
Mg0_4 Ti1_5 3.189412 1_555
Mg0_4 Ti0_0 3.198711 1_555
Mg0_4 Ti0_6 3.198711 1_545
Mg0_4 Mg3_3 3.214268 1_545
Mg0_5 Mg3_6 2.989369 1_546
Mg0_5 Mg3_0 2.989369 1_556
Mg0_5 Mg1_1 3.096934 1_555
Mg0_5 Mg1_7 3.096934 1_545
Mg0_5 Mg2_6 3.157424 1_546
Mg0_5 Mg2_0 3.157424 1_556
Mg0_5 Ti1_4 3.189412 1_556
Mg0_5 Ti0_7 3.198711 1_545
Mg0_5 Ti0_1 3.198711 1_555
Mg0_5 Mg3_2 3.214268 1_546
Mg0_6 Mg3_5 2.989369 1_555
Mg0_6 Mg3_3 2.989369 1_555
Mg0_6 Mg1_2 3.096934 1_555
Mg0_6 Mg1_4 3.096934 1_555
Mg0_6 Mg2_3 3.157424 1_555
Mg0_6 Mg2_5 3.157424 1_555
Mg0_6 Ti1_7 3.189412 1_555
Mg0_6 Ti0_4 3.198711 1_555
Mg0_6 Ti0_2 3.198711 1_555
Mg0_6 Mg3_1 3.214268 1_555
Mg0_7 Mg3_4 2.989369 1_556
Mg0_7 Mg3_2 2.989369 1_556
Mg0_7 Mg1_5 3.096934 1_555
Mg0_7 Mg1_3 3.096934 1_555
Mg0_7 Mg2_4 3.157424 1_556
Mg0_7 Mg2_2 3.157424 1_556
Mg0_7 Ti1_6 3.189412 1_556
Mg0_7 Ti0_5 3.198711 1_555
Mg0_7 Ti0_3 3.198711 1_555
Mg0_7 Mg3_0 3.214268 1_556
Mg1_0 Mg1_6 2.960128 1_455
Mg1_0 Mg1_6 2.960128 1_545
Mg1_0 Mg2_0 2.984973 1_555
Mg1_0 Ti0_0 3.034613 1_555
Mg1_0 Ti1_4 3.035538 1_555
Mg1_0 Ti1_2 3.035538 1_555
Mg1_0 Mg3_3 3.157424 1_545
Mg1_0 Mg3_5 3.157424 1_455
Mg1_0 Ti0_2 3.186715 1_545
Mg1_0 Ti0_4 3.186715 1_455
Mg1_1 Mg1_7 2.960128 1_545
Mg1_1 Mg1_7 2.960128 1_455
Mg1_1 Mg2_1 2.984973 1_555
Mg1_1 Ti0_1 3.034613 1_555
Mg1_1 Ti1_3 3.035538 1_555
Mg1_1 Ti1_5 3.035538 1_555
Mg1_1 Mg3_4 3.157424 1_456
Mg1_1 Mg3_2 3.157424 1_546
Mg1_1 Ti0_3 3.186715 1_545
Mg1_1 Ti0_5 3.186715 1_455
Mg1_2 Mg1_4 2.960128 1_465
Mg1_2 Mg1_4 2.960128 1_555
Mg1_2 Mg2_2 2.984973 1_555
Mg1_2 Ti0_2 3.034613 1_555
Mg1_2 Ti1_0 3.035538 1_565
Mg1_2 Ti1_6 3.035538 1_555
Mg1_2 Mg3_7 3.157424 1_455
Mg1_2 Mg3_1 3.157424 1_555
Mg1_2 Ti0_6 3.186715 1_455
Mg1_2 Ti0_0 3.186715 1_555
Mg1_3 Mg1_5 2.960128 1_555
Mg1_3 Mg1_5 2.960128 1_465
Mg1_3 Mg2_3 2.984973 1_555
Mg1_3 Ti0_3 3.034613 1_555
Mg1_3 Ti1_1 3.035538 1_565
Mg1_3 Ti1_7 3.035538 1_555
Mg1_3 Mg3_0 3.157424 1_556
Mg1_3 Mg3_6 3.157424 1_456
Mg1_3 Ti0_1 3.186715 1_555
Mg1_3 Ti0_7 3.186715 1_455
Mg1_4 Mg2_4 2.984973 1_555
Mg1_4 Ti0_4 3.034613 1_555
Mg1_4 Ti1_6 3.035538 1_555
Mg1_4 Ti1_0 3.035538 1_655
Mg1_4 Mg3_1 3.157424 1_555
Mg1_4 Mg3_7 3.157424 1_545
Mg1_4 Ti0_6 3.186715 1_545
Mg1_4 Ti0_0 3.186715 1_555
Mg1_5 Mg2_5 2.984973 1_555
Mg1_5 Ti0_5 3.034613 1_555
Mg1_5 Ti1_1 3.035538 1_655
Mg1_5 Ti1_7 3.035538 1_555
Mg1_5 Mg3_0 3.157424 1_556
Mg1_5 Mg3_6 3.157424 1_546
Mg1_5 Ti0_1 3.186715 1_555
Mg1_5 Ti0_7 3.186715 1_545
Mg1_6 Mg2_6 2.984973 1_555
Mg1_6 Ti0_6 3.034613 1_555
Mg1_6 Ti1_2 3.035538 1_655
Mg1_6 Ti1_4 3.035538 1_565
Mg1_6 Mg3_5 3.157424 1_555
Mg1_6 Mg3_3 3.157424 1_555
Mg1_6 Ti0_4 3.186715 1_555
Mg1_6 Ti0_2 3.186715 1_555
Mg1_7 Mg2_7 2.984973 1_555
Mg1_7 Ti0_7 3.034613 1_555
Mg1_7 Ti1_5 3.035538 1_565
Mg1_7 Ti1_3 3.035538 1_655
Mg1_7 Mg3_4 3.157424 1_556
Mg1_7 Mg3_2 3.157424 1_556
Mg1_7 Ti0_3 3.186715 1_555
Mg1_7 Ti0_5 3.186715 1_555
Mg2_0 Mg2_6 2.960128 1_455
Mg2_0 Mg2_6 2.960128 1_545
Mg2_0 Ti1_0 3.034613 1_555
Mg2_0 Ti0_2 3.035538 1_545
Mg2_0 Ti0_4 3.035538 1_455
Mg2_0 Mg3_2 3.096934 1_545
Mg2_0 Mg3_4 3.096934 1_455
Mg2_0 Ti1_2 3.186715 1_555
Mg2_0 Ti1_4 3.186715 1_555
Mg2_1 Mg2_7 2.960128 1_455
Mg2_1 Mg2_7 2.960128 1_545
Mg2_1 Ti1_1 3.034613 1_555
Mg2_1 Ti0_5 3.035538 1_455
Mg2_1 Ti0_3 3.035538 1_545
Mg2_1 Mg3_3 3.096934 1_545
Mg2_1 Mg3_5 3.096934 1_455
Mg2_1 Ti1_3 3.186715 1_555
Mg2_1 Ti1_5 3.186715 1_555
Mg2_2 Mg2_4 2.960128 1_555
Mg2_2 Mg2_4 2.960128 1_465
Mg2_2 Ti1_2 3.034613 1_555
Mg2_2 Ti0_6 3.035538 1_455
Mg2_2 Ti0_0 3.035538 1_555
Mg2_2 Mg3_0 3.096934 1_555
Mg2_2 Mg3_6 3.096934 1_455
Mg2_2 Ti1_0 3.186715 1_565
Mg2_2 Ti1_6 3.186715 1_555
Mg2_3 Mg2_5 2.960128 1_465
Mg2_3 Mg2_5 2.960128 1_555
Mg2_3 Ti1_3 3.034613 1_555
Mg2_3 Ti0_1 3.035538 1_555
Mg2_3 Ti0_7 3.035538 1_455
Mg2_3 Mg3_7 3.096934 1_455
Mg2_3 Mg3_1 3.096934 1_555
Mg2_3 Ti1_1 3.186715 1_565
Mg2_3 Ti1_7 3.186715 1_555
Mg2_4 Ti1_4 3.034613 1_555
Mg2_4 Ti0_6 3.035538 1_545
Mg2_4 Ti0_0 3.035538 1_555
Mg2_4 Mg3_0 3.096934 1_555
Mg2_4 Mg3_6 3.096934 1_545
Mg2_4 Ti1_0 3.186715 1_655
Mg2_4 Ti1_6 3.186715 1_555
Mg2_5 Ti1_5 3.034613 1_555
Mg2_5 Ti0_1 3.035538 1_555
Mg2_5 Ti0_7 3.035538 1_545
Mg2_5 Mg3_1 3.096934 1_555
Mg2_5 Mg3_7 3.096934 1_545
Mg2_5 Ti1_1 3.186715 1_655
Mg2_5 Ti1_7 3.186715 1_555
Mg2_6 Ti1_6 3.034613 1_555
Mg2_6 Ti0_4 3.035538 1_555
Mg2_6 Ti0_2 3.035538 1_555
Mg2_6 Mg3_4 3.096934 1_555
Mg2_6 Mg3_2 3.096934 1_555
Mg2_6 Ti1_2 3.186715 1_655
Mg2_6 Ti1_4 3.186715 1_565
Mg2_7 Ti1_7 3.034613 1_555
Mg2_7 Ti0_5 3.035538 1_555
Mg2_7 Ti0_3 3.035538 1_555
Mg2_7 Mg3_5 3.096934 1_555
Mg2_7 Mg3_3 3.096934 1_555
Mg2_7 Ti1_3 3.186715 1_655
Mg2_7 Ti1_5 3.186715 1_565
Mg3_0 Mg3_6 2.960128 1_545
Mg3_0 Mg3_6 2.960128 1_455
Mg3_0 Ti0_1 3.189412 1_554
Mg3_0 Ti1_4 3.198711 1_555
Mg3_0 Ti1_2 3.198711 1_555
Mg3_1 Mg3_7 2.960128 1_455
Mg3_1 Mg3_7 2.960128 1_545
Mg3_1 Ti0_0 3.189412 1_555
Mg3_1 Ti1_3 3.198711 1_555
Mg3_1 Ti1_5 3.198711 1_555
Mg3_2 Mg3_4 2.960128 1_555
Mg3_2 Mg3_4 2.960128 1_465
Mg3_2 Ti0_3 3.189412 1_554
Mg3_2 Ti1_6 3.198711 1_555
Mg3_2 Ti1_0 3.198711 1_565
Mg3_3 Mg3_5 2.960128 1_465
Mg3_3 Mg3_5 2.960128 1_555
Mg3_3 Ti0_2 3.189412 1_555
Mg3_3 Ti1_1 3.198711 1_565
Mg3_3 Ti1_7 3.198711 1_555
Mg3_4 Ti0_5 3.189412 1_554
Mg3_4 Ti1_6 3.198711 1_555
Mg3_4 Ti1_0 3.198711 1_655
Mg3_5 Ti0_4 3.189412 1_555
Mg3_5 Ti1_1 3.198711 1_655
Mg3_5 Ti1_7 3.198711 1_555
Mg3_6 Ti0_7 3.189412 1_554
Mg3_6 Ti1_2 3.198711 1_655
Mg3_6 Ti1_4 3.198711 1_565
Mg3_7 Ti0_6 3.189412 1_555
Mg3_7 Ti1_3 3.198711 1_655
Mg3_7 Ti1_5 3.198711 1_565
Ti0_0 Ti1_4 2.716641 1_555
Ti0_0 Ti1_2 2.716641 1_555
Ti0_0 Ti0_6 2.960128 1_545
Ti0_0 Ti0_6 2.960128 1_455
Ti0_1 Ti1_3 2.716641 1_555
Ti0_1 Ti1_5 2.716641 1_555
Ti0_1 Ti0_7 2.960128 1_455
Ti0_1 Ti0_7 2.960128 1_545
Ti0_2 Ti1_6 2.716641 1_555
Ti0_2 Ti1_0 2.716641 1_565
Ti0_2 Ti0_4 2.960128 1_555
Ti0_2 Ti0_4 2.960128 1_465
Ti0_3 Ti1_7 2.716641 1_555
Ti0_3 Ti1_1 2.716641 1_565
Ti0_3 Ti0_5 2.960128 1_555
Ti0_3 Ti0_5 2.960128 1_465
Ti0_4 Ti1_6 2.716641 1_555
Ti0_4 Ti1_0 2.716641 1_655
Ti0_5 Ti1_1 2.716641 1_655
Ti0_5 Ti1_7 2.716641 1_555
Ti0_6 Ti1_4 2.716641 1_565
Ti0_6 Ti1_2 2.716641 1_655
Ti0_7 Ti1_5 2.716641 1_565
Ti0_7 Ti1_3 2.716641 1_655
Ti1_0 Ti1_6 2.960128 1_545
Ti1_0 Ti1_6 2.960128 1_455
Ti1_1 Ti1_7 2.960128 1_455
Ti1_1 Ti1_7 2.960128 1_545
Ti1_2 Ti1_4 2.960128 1_555
Ti1_2 Ti1_4 2.960128 1_465
Ti1_3 Ti1_5 2.960128 1_555
Ti1_3 Ti1_5 2.960128 1_465
