# generated using pymatgen
data_BaTmCo4O7
_symmetry_space_group_name_H-M   'P 1'
_cell_length_a   6.36302229
_cell_length_b   6.36302229
_cell_length_c   10.23533963
_cell_angle_alpha   89.74877675
_cell_angle_beta   89.74877675
_cell_angle_gamma   119.58124852
_symmetry_Int_Tables_number   1
_chemical_formula_structural   BaTmCo4O7
_chemical_formula_sum   'Ba2 Tm2 Co8 O14'
_cell_volume   360.37978654
_cell_formula_units_Z   2
loop_
 _symmetry_equiv_pos_site_id
 _symmetry_equiv_pos_as_xyz
  1  'x, y, z'
loop_
 _atom_site_type_symbol
 _atom_site_label
 _atom_site_symmetry_multiplicity
 _atom_site_fract_x
 _atom_site_fract_y
 _atom_site_fract_z
 _atom_site_occupancy
  Ba  Ba0  1  0.33193800  0.66451100  0.99830300  1
  Ba  Ba1  1  0.66451100  0.33193800  0.49830300  1
  Tm  Tm0  1  0.33212100  0.66687900  0.37216800  1
  Tm  Tm1  1  0.66687900  0.33212100  0.87216800  1
  Co  Co0  1  0.33583600  0.15467400  0.19197000  1
  Co  Co1  1  0.81798300  0.66342100  0.18979000  1
  Co  Co2  1  0.84461100  0.18464300  0.19002900  1
  Co  Co3  1  0.15467400  0.33583600  0.69197000  1
  Co  Co4  1  0.66342100  0.81798300  0.68979000  1
  Co  Co5  1  0.18464300  0.84461100  0.69002900  1
  Co  Co6  1  0.99833600  0.99611100  0.94904200  1
  Co  Co7  1  0.99611100  0.99833600  0.44904200  1
  O  O0  1  0.99792700  0.99545800  0.75916500  1
  O  O1  1  0.99545800  0.99792700  0.25916500  1
  O  O2  1  0.32355600  0.12200900  0.99879900  1
  O  O3  1  0.78626200  0.67499400  0.99577800  1
  O  O4  1  0.89153600  0.21621600  0.99825300  1
  O  O5  1  0.12200900  0.32355600  0.49879900  1
  O  O6  1  0.67499400  0.78626200  0.49577800  1
  O  O7  1  0.21621600  0.89153600  0.49825300  1
  O  O8  1  0.00297300  0.51747300  0.25373700  1
  O  O9  1  0.51369300  0.99679700  0.25219400  1
  O  O10  1  0.48392200  0.48632100  0.25177200  1
  O  O11  1  0.51747300  0.00297300  0.75373700  1
  O  O12  1  0.99679700  0.51369300  0.75219400  1
  O  O13  1  0.48632100  0.48392200  0.75177200  1
loop_
_geom_bond_atom_site_label_1
_geom_bond_atom_site_label_2
_geom_bond_distance
_geom_bond_site_symmetry_2
Ba0 O4 2.845612 1_455
Ba0 O3 2.858533 1_555
Ba0 O2 2.937791 1_565
Ba0 O11 3.116816 1_565
Ba0 O13 3.125823 1_555
Ba0 O12 3.140340 1_455
Ba0 O10 3.167050 1_556
Ba0 O8 3.176357 1_556
Ba0 O9 3.197076 1_556
Ba1 O7 2.845612 1_545
Ba1 O6 2.858533 1_555
Ba1 O5 2.937791 1_655
Ba1 O8 3.116816 1_655
Ba1 O10 3.125823 1_555
Ba1 O9 3.140340 1_545
Ba1 O13 3.167050 1_555
Ba1 O11 3.176357 1_555
Ba1 O12 3.197076 1_555
Co0 O10 1.941381 1_555
Co0 O9 1.947575 1_545
Co0 O2 1.986815 1_554
Co0 O1 2.001695 1_445
Co1 O8 1.938316 1_655
Co1 O10 1.951312 1_555
Co1 O1 1.989221 1_555
Co1 O3 2.001596 1_554
Co2 O9 1.940087 1_545
Co2 O8 1.958722 1_655
Co2 O4 1.978544 1_554
Co2 O1 1.989486 1_545
Co3 O13 1.941381 1_555
Co3 O12 1.947575 1_455
Co3 O5 1.986815 1_555
Co3 O0 2.001695 1_445
Co4 O11 1.938316 1_565
Co4 O13 1.951312 1_555
Co4 O0 1.989221 1_555
Co4 O6 2.001596 1_555
Co5 O12 1.940087 1_455
Co5 O11 1.958722 1_565
Co5 O7 1.978544 1_555
Co5 O0 1.989486 1_455
Co6 O3 1.867686 1_555
Co6 O2 1.886674 1_665
Co6 O4 1.902600 1_565
Co6 O0 1.943489 1_555
Co7 O6 1.867686 1_555
Co7 O5 1.886674 1_665
Co7 O7 1.902600 1_655
Co7 O1 1.943489 1_555
O2 Tm1 2.305657 1_555
O3 Tm1 2.309536 1_555
O4 Tm1 2.302509 1_555
O5 Tm0 2.305657 1_555
O6 Tm0 2.309536 1_555
O7 Tm0 2.302509 1_555
O8 Tm0 2.196846 1_555
O9 Tm0 2.195458 1_555
O10 Tm0 2.206610 1_555
O11 Tm1 2.196846 1_555
O12 Tm1 2.195458 1_555
O13 Tm1 2.206610 1_555
