# generated using pymatgen
data_Na2Sr3Zr(C2O7)3
_symmetry_space_group_name_H-M   'P 1'
_cell_length_a   7.05087600
_cell_length_b   8.91490870
_cell_length_c   8.95066155
_cell_angle_alpha   109.94693633
_cell_angle_beta   102.13141433
_cell_angle_gamma   111.77931621
_symmetry_Int_Tables_number   1
_chemical_formula_structural   Na2Sr3Zr(C2O7)3
_chemical_formula_sum   'Na2 Sr3 Zr1 C6 O21'
_cell_volume   453.10466795
_cell_formula_units_Z   1
loop_
 _symmetry_equiv_pos_site_id
 _symmetry_equiv_pos_as_xyz
  1  'x, y, z'
loop_
 _atom_site_type_symbol
 _atom_site_label
 _atom_site_symmetry_multiplicity
 _atom_site_fract_x
 _atom_site_fract_y
 _atom_site_fract_z
 _atom_site_occupancy
  Na  Na0  1  0.68050200  0.43036900  0.98812900  1
  Na  Na1  1  0.99701700  0.81618500  0.63511000  1
  Sr  Sr0  1  0.61617800  0.99997900  0.64166500  1
  Sr  Sr1  1  0.93914500  0.35279800  0.31649800  1
  Sr  Sr2  1  0.18963900  0.68953600  0.96631200  1
  Zr  Zr0  1  0.32988900  0.15150900  0.31210200  1
  C  C0  1  0.10363700  0.10885400  0.51657400  1
  C  C1  1  0.49901600  0.05086300  0.98288400  1
  C  C2  1  0.81566300  0.38158600  0.63385800  1
  C  C3  1  0.51854200  0.51575400  0.40414200  1
  C  C4  1  0.99638700  0.00732800  0.00211900  1
  C  C5  1  0.17878700  0.73501800  0.31437100  1
  O  O0  1  0.67661100  0.23561300  0.48652600  1
  O  O1  1  0.81937500  0.37616000  0.77608400  1
  O  O2  1  0.65940200  0.17985900  0.98212800  1
  O  O3  1  0.10378900  0.18132600  0.11275700  1
  O  O4  1  0.99176200  0.07055700  0.60333000  1
  O  O5  1  0.85760500  0.93764900  0.85186900  1
  O  O6  1  0.31812800  0.87459000  0.30467800  1
  O  O7  1  0.49825000  0.05981500  0.13261000  1
  O  O8  1  0.34910300  0.91120600  0.84261800  1
  O  O9  1  0.53738700  0.60165900  0.91445300  1
  O  O10  1  0.59452800  0.74732900  0.05817100  1
  O  O11  1  0.95544600  0.52389300  0.63273600  1
  O  O12  1  0.33808300  0.45821800  0.86561100  1
  O  O13  1  0.05623700  0.91030800  0.06536800  1
  O  O14  1  0.18893500  0.74118600  0.46090000  1
  O  O15  1  0.57002700  0.40500600  0.30110400  1
  O  O16  1  0.03936200  0.58675200  0.17334300  1
  O  O17  1  0.61151000  0.68527100  0.45755400  1
  O  O18  1  0.31170400  0.14538800  0.55740800  1
  O  O19  1  0.02280800  0.11106700  0.37068300  1
  O  O20  1  0.36044500  0.42896700  0.44810500  1
loop_
_geom_bond_atom_site_label_1
_geom_bond_atom_site_label_2
_geom_bond_distance
_geom_bond_site_symmetry_2
Na0 O2 2.163510 1_555
Na0 O16 2.266392 1_656
Na0 O1 2.302383 1_555
Na0 O9 2.309936 1_555
Na0 O12 2.571198 1_555
Na1 O14 2.357217 1_655
Na1 O4 2.392238 1_565
Na1 O8 2.399613 1_655
Na1 O17 2.416803 1_555
Na1 O5 2.461897 1_555
Na1 O11 2.503830 1_555
C0 O4 1.257092 1_455
C0 O18 1.315581 1_555
C0 O19 1.320411 1_555
C1 O8 1.281698 1_545
C1 O2 1.282518 1_555
C1 O7 1.316351 1_556
C2 O1 1.285514 1_555
C2 O11 1.290724 1_555
C2 O0 1.316301 1_555
C3 O17 1.257890 1_555
C3 O15 1.320048 1_555
C3 O20 1.322174 1_555
C4 O5 1.256114 1_544
C4 O3 1.313512 1_655
C4 O13 1.323326 1_645
C5 O14 1.279332 1_555
C5 O16 1.297189 1_555
C5 O6 1.312756 1_555
O0 Zr0 2.283204 1_555
O0 Sr1 2.769081 1_555
O0 Sr0 2.845564 1_545
O1 Sr2 2.644518 1_655
O1 Sr0 2.775611 1_545
O2 Sr1 2.708967 1_556
O2 Sr0 2.804216 1_545
O3 Zr0 2.288725 1_555
O3 Sr1 2.704561 1_455
O4 Sr0 2.611385 1_545
O5 Sr0 2.610649 1_555
O6 Zr0 2.416537 1_565
O6 Sr2 2.653950 1_554
O6 Sr0 2.838273 1_555
O7 Zr0 2.298718 1_555
O7 Sr2 2.793400 1_544
O7 Sr1 2.843598 1_555
O8 Sr2 2.600461 1_555
O8 Sr0 2.948995 1_555
O10 O9 1.325759 1_554
O10 Sr2 2.593146 1_554
O11 Sr2 2.632854 1_655
O11 Sr1 2.671908 1_555
O12 O9 1.352033 1_555
O12 Sr2 2.624972 1_555
O13 Zr0 2.261406 1_565
O13 Sr2 2.465388 1_554
O14 Sr0 2.694900 1_555
O14 Sr1 2.868023 1_455
O15 Zr0 2.316485 1_555
O15 Sr1 2.793041 1_555
O16 Sr2 2.580603 1_554
O16 Sr1 2.757081 1_455
O17 Sr0 2.709651 1_555
O18 Zr0 2.243922 1_555
O18 Sr0 2.984895 1_545
O19 Zr0 2.262708 1_555
O19 Sr1 2.600667 1_455
O20 Zr0 2.255309 1_555
O20 Sr1 2.675714 1_455
