# generated using pymatgen
data_Te2Mo3W(Se2S)2
_symmetry_space_group_name_H-M   'P 1'
_cell_length_a   3.34409369
_cell_length_b   3.34409369
_cell_length_c   38.08102300
_cell_angle_alpha   90.00000000
_cell_angle_beta   90.00000000
_cell_angle_gamma   119.99999389
_symmetry_Int_Tables_number   1
_chemical_formula_structural   Te2Mo3W(Se2S)2
_chemical_formula_sum   'Te2 Mo3 W1 Se4 S2'
_cell_volume   368.80443771
_cell_formula_units_Z   1
loop_
 _symmetry_equiv_pos_site_id
 _symmetry_equiv_pos_as_xyz
  1  'x, y, z'
loop_
 _atom_site_type_symbol
 _atom_site_label
 _atom_site_symmetry_multiplicity
 _atom_site_fract_x
 _atom_site_fract_y
 _atom_site_fract_z
 _atom_site_occupancy
  Te  Te0  1  0.00000000  0.00000000  0.70737200  1
  Te  Te1  1  0.00000000  0.00000000  0.60777500  1
  Mo  Mo0  1  0.00000000  0.00000000  0.09391900  1
  Mo  Mo1  1  0.33333300  0.66666700  0.28179000  1
  Mo  Mo2  1  0.33333300  0.66666700  0.65759400  1
  W  W0  1  0.00000000  0.00000000  0.46963500  1
  Se  Se0  1  0.00000000  0.00000000  0.32558800  1
  Se  Se1  1  0.33333300  0.66666700  0.42560800  1
  Se  Se2  1  0.33333300  0.66666700  0.51366800  1
  Se  Se3  1  0.00000000  0.00000000  0.23796300  1
  S  S0  1  0.33333300  0.66666700  0.05409000  1
  S  S1  1  0.33333300  0.66666700  0.13374600  1
loop_
_geom_bond_atom_site_label_1
_geom_bond_atom_site_label_2
_geom_bond_distance
_geom_bond_site_symmetry_2
Mo0 S1 2.455175 1_545
Mo0 S1 2.455177 1_555
Mo0 S1 2.455177 1_445
Mo0 S0 2.455222 1_545
Mo0 S0 2.455224 1_445
Mo0 S0 2.455224 1_555
Mo1 Se0 2.551362 1_565
Mo1 Se0 2.551364 1_665
Mo1 Se0 2.551364 1_555
Mo1 Se3 2.552084 1_565
Mo1 Se3 2.552086 1_665
Mo1 Se3 2.552086 1_555
Mo2 Te0 2.705723 1_565
Mo2 Te0 2.705725 1_665
Mo2 Te0 2.705725 1_555
Mo2 Te1 2.706817 1_565
Mo2 Te1 2.706819 1_665
Mo2 Te1 2.706819 1_555
Se1 W0 2.557071 1_565
Se1 W0 2.557073 1_555
Se1 W0 2.557073 1_665
Se2 W0 2.557221 1_565
Se2 W0 2.557223 1_665
Se2 W0 2.557223 1_555
