# generated using pymatgen
data_Rb2B2Se7
_symmetry_space_group_name_H-M   'P 1'
_cell_length_a   8.85201869
_cell_length_b   8.85230180
_cell_length_c   12.74810045
_cell_angle_alpha   60.70599558
_cell_angle_beta   60.70498598
_cell_angle_gamma   49.19368521
_symmetry_Int_Tables_number   1
_chemical_formula_structural   Rb2B2Se7
_chemical_formula_sum   'Rb4 B4 Se14'
_cell_volume   637.31242043
_cell_formula_units_Z   2
loop_
 _symmetry_equiv_pos_site_id
 _symmetry_equiv_pos_as_xyz
  1  'x, y, z'
loop_
 _atom_site_type_symbol
 _atom_site_label
 _atom_site_symmetry_multiplicity
 _atom_site_fract_x
 _atom_site_fract_y
 _atom_site_fract_z
 _atom_site_occupancy
  Rb  Rb0  1  0.12219734  0.67271073  0.52152216  1
  Rb  Rb1  1  0.32729132  0.87779784  0.97847809  1
  Rb  Rb2  1  0.87779915  0.32728904  0.47848069  1
  Rb  Rb3  1  0.67270385  0.12220863  0.02152344  1
  B  B0  1  0.61354007  0.15476564  0.34903583  1
  B  B1  1  0.84522961  0.38647578  0.15096421  1
  B  B2  1  0.38646288  0.84523451  0.65095895  1
  B  B3  1  0.15478318  0.61352219  0.84903833  1
  Se  Se0  1  0.16388160  0.57230706  0.01887359  1
  Se  Se1  1  0.42765868  0.83616370  0.48112890  1
  Se  Se2  1  0.83613509  0.42766760  0.98114506  1
  Se  Se3  1  0.57231137  0.16386260  0.51886841  1
  Se  Se4  1  0.15161253  0.39506657  0.83559902  1
  Se  Se5  1  0.60493863  0.84836811  0.66439979  1
  Se  Se6  1  0.84837503  0.60496476  0.16439719  1
  Se  Se7  1  0.39504840  0.15163392  0.33560013  1
  Se  Se8  1  0.93590303  0.90214036  0.76973346  1
  Se  Se9  1  0.09784854  0.06409000  0.73026557  1
  Se  Se10  1  0.06411734  0.09783816  0.23025413  1
  Se  Se11  1  0.90216562  0.93589352  0.26974208  1
  Se  Se12  1  0.45020711  0.54979901  0.74996893  1
  Se  Se13  1  0.54978962  0.45020126  0.25002105  1
loop_
_geom_bond_atom_site_label_1
_geom_bond_atom_site_label_2
_geom_bond_distance
_geom_bond_site_symmetry_2
Rb0 Se5 3.464838 1_455
Rb0 Se11 3.520379 1_455
Rb0 Se1 3.562584 1_555
Rb0 Se4 3.562791 1_555
Rb0 Se3 3.567414 1_555
Rb0 Se8 3.696151 1_455
Rb0 Se10 3.725485 1_565
Rb0 Se13 3.780541 1_555
Rb0 Se3 3.867123 1_465
Rb1 Se4 3.465048 1_565
Rb1 Se10 3.520375 1_566
Rb1 Se0 3.562549 1_556
Rb1 Se5 3.562778 1_555
Rb1 Se2 3.567409 1_555
Rb1 Se9 3.696237 1_565
Rb1 Se11 3.725326 1_456
Rb1 Se13 3.780968 1_556
Rb1 Se2 3.867111 1_465
Rb2 Se7 3.464780 1_655
Rb2 Se9 3.520499 1_655
Rb2 Se3 3.562642 1_555
Rb2 Se6 3.562900 1_555
Rb2 Se1 3.567602 1_555
Rb2 Se10 3.696384 1_655
Rb2 Se8 3.725448 1_545
Rb2 Se12 3.780430 1_555
Rb2 Se1 3.866924 1_645
Rb3 Se6 3.464882 1_545
Rb3 Se8 3.520636 1_544
Rb3 Se2 3.562532 1_554
Rb3 Se7 3.562761 1_555
Rb3 Se0 3.567208 1_555
Rb3 Se11 3.696354 1_545
Rb3 Se9 3.725347 1_654
Rb3 Se12 3.781052 1_554
Rb3 Se0 3.867300 1_645
B0 Se7 2.041992 1_555
B0 Se3 2.045982 1_555
B0 Se11 2.054906 1_545
B0 Se13 2.071021 1_555
B1 Se6 2.042089 1_555
B1 Se2 2.045924 1_554
B1 Se10 2.055024 1_655
B1 Se13 2.071075 1_555
B2 Se5 2.041899 1_555
B2 Se1 2.045954 1_555
B2 Se9 2.054869 1_565
B2 Se12 2.071027 1_555
B3 Se4 2.041990 1_555
B3 Se0 2.046067 1_556
B3 Se8 2.054998 1_455
B3 Se12 2.070988 1_555
