# generated using pymatgen
data_CsYMg14O16
_symmetry_space_group_name_H-M   'P 1'
_cell_length_a   4.52752900
_cell_length_b   8.80739000
_cell_length_c   9.11200100
_cell_angle_alpha   90.00000000
_cell_angle_beta   90.00000000
_cell_angle_gamma   90.00000000
_symmetry_Int_Tables_number   1
_chemical_formula_structural   CsYMg14O16
_chemical_formula_sum   'Cs1 Y1 Mg14 O16'
_cell_volume   363.34754256
_cell_formula_units_Z   1
loop_
 _symmetry_equiv_pos_site_id
 _symmetry_equiv_pos_as_xyz
  1  'x, y, z'
loop_
 _atom_site_type_symbol
 _atom_site_label
 _atom_site_symmetry_multiplicity
 _atom_site_fract_x
 _atom_site_fract_y
 _atom_site_fract_z
 _atom_site_occupancy
  Cs  Cs0  1  0.00000000  0.00000000  0.50000000  1
  Y  Y0  1  0.00000000  0.00000000  0.00000000  1
  Mg  Mg0  1  0.00000000  0.50000000  0.00000000  1
  Mg  Mg1  1  0.00000000  0.50000000  0.50000000  1
  Mg  Mg2  1  0.50000000  0.00000000  0.25504300  1
  Mg  Mg3  1  0.50000000  0.00000000  0.74495700  1
  Mg  Mg4  1  0.50000000  0.50000000  0.25140200  1
  Mg  Mg5  1  0.50000000  0.50000000  0.74859800  1
  Mg  Mg6  1  0.50000000  0.26346500  0.00000000  1
  Mg  Mg7  1  0.50000000  0.26263300  0.50000000  1
  Mg  Mg8  1  0.50000000  0.73653500  0.00000000  1
  Mg  Mg9  1  0.50000000  0.73736700  0.50000000  1
  Mg  Mg10  1  0.00000000  0.26183200  0.25474500  1
  Mg  Mg11  1  0.00000000  0.26183200  0.74525500  1
  Mg  Mg12  1  0.00000000  0.73816800  0.25474500  1
  Mg  Mg13  1  0.00000000  0.73816800  0.74525500  1
  O  O0  1  0.00000000  0.26287700  0.00000000  1
  O  O1  1  0.00000000  0.28758300  0.50000000  1
  O  O2  1  0.00000000  0.73712300  0.00000000  1
  O  O3  1  0.00000000  0.71241700  0.50000000  1
  O  O4  1  0.50000000  0.24990200  0.24993900  1
  O  O5  1  0.50000000  0.24990200  0.75006100  1
  O  O6  1  0.50000000  0.75009800  0.24993900  1
  O  O7  1  0.50000000  0.75009800  0.75006100  1
  O  O8  1  0.50000000  0.00000000  0.00000000  1
  O  O9  1  0.50000000  0.00000000  0.50000000  1
  O  O10  1  0.50000000  0.50000000  0.00000000  1
  O  O11  1  0.50000000  0.50000000  0.50000000  1
  O  O12  1  0.00000000  0.00000000  0.22858500  1
  O  O13  1  0.00000000  0.00000000  0.77141500  1
  O  O14  1  0.00000000  0.50000000  0.24086300  1
  O  O15  1  0.00000000  0.50000000  0.75913700  1
loop_
_geom_bond_atom_site_label_1
_geom_bond_atom_site_label_2
_geom_bond_distance
_geom_bond_site_symmetry_2
Cs0 O9 2.263765 1_455
Cs0 O9 2.263765 1_555
Cs0 O13 2.473134 1_555
Cs0 O12 2.473134 1_555
Cs0 O1 2.532856 1_555
Cs0 O3 2.532856 1_545
Mg0 O0 2.088435 1_555
Mg0 O2 2.088435 1_555
Mg0 O14 2.194744 1_555
Mg0 O15 2.194744 1_554
Mg0 O10 2.263765 1_455
Mg0 O10 2.263765 1_555
Mg1 O3 1.870839 1_555
Mg1 O1 1.870839 1_555
Mg1 O11 2.263765 1_555
Mg1 O11 2.263765 1_455
Mg1 O15 2.361257 1_555
Mg1 O14 2.361257 1_555
Mg2 O6 2.201476 1_545
Mg2 O4 2.201476 1_555
Mg2 O9 2.232048 1_555
Mg2 O12 2.276566 1_655
Mg2 O12 2.276566 1_555
Mg2 O8 2.323952 1_555
Mg3 O7 2.201476 1_545
Mg3 O5 2.201476 1_555
Mg3 O9 2.232048 1_555
Mg3 O13 2.276566 1_655
Mg3 O13 2.276566 1_555
Mg3 O8 2.323952 1_556
Mg4 O4 2.202751 1_555
Mg4 O6 2.202751 1_555
Mg4 O11 2.265225 1_555
Mg4 O14 2.265800 1_655
Mg4 O14 2.265800 1_555
Mg4 O10 2.290775 1_555
Mg5 O5 2.202751 1_555
Mg5 O7 2.202751 1_555
Mg5 O11 2.265225 1_555
Mg5 O15 2.265800 1_555
Mg5 O15 2.265800 1_655
Mg5 O10 2.290775 1_556
Mg6 O10 2.083256 1_555
Mg6 O0 2.263770 1_555
Mg6 O0 2.263770 1_655
Mg6 O5 2.280575 1_554
Mg6 O4 2.280575 1_555
Mg6 O8 2.320439 1_555
Mg7 O11 2.090584 1_555
Mg7 O1 2.274405 1_655
Mg7 O1 2.274405 1_555
Mg7 O4 2.281313 1_555
Mg7 O5 2.281313 1_555
Mg7 O9 2.313111 1_555
Mg8 O10 2.083256 1_555
Mg8 O2 2.263770 1_655
Mg8 O2 2.263770 1_555
Mg8 O6 2.280575 1_555
Mg8 O7 2.280575 1_554
Mg8 O8 2.320439 1_565
Mg9 O11 2.090584 1_555
Mg9 O3 2.274405 1_655
Mg9 O3 2.274405 1_555
Mg9 O7 2.281313 1_555
Mg9 O6 2.281313 1_555
Mg9 O9 2.313111 1_565
Mg10 O14 2.101449 1_555
Mg10 O1 2.246243 1_555
Mg10 O4 2.266625 1_555
Mg10 O4 2.266625 1_455
Mg10 O12 2.318344 1_555
Mg10 O0 2.321255 1_555
Mg11 O15 2.101449 1_555
Mg11 O1 2.246243 1_555
Mg11 O5 2.266625 1_455
Mg11 O5 2.266625 1_555
Mg11 O13 2.318344 1_555
Mg11 O0 2.321255 1_556
Mg12 O14 2.101449 1_555
Mg12 O3 2.246243 1_555
Mg12 O6 2.266625 1_455
Mg12 O6 2.266625 1_555
Mg12 O12 2.318344 1_565
Mg12 O2 2.321255 1_555
Mg13 O15 2.101449 1_555
Mg13 O3 2.246243 1_555
Mg13 O7 2.266625 1_455
Mg13 O7 2.266625 1_555
Mg13 O13 2.318344 1_565
Mg13 O2 2.321255 1_556
O0 Y0 2.315260 1_555
O2 Y0 2.315260 1_565
O8 Y0 2.263765 1_655
O8 Y0 2.263765 1_555
O12 Y0 2.082867 1_555
O13 Y0 2.082867 1_556
