# generated using pymatgen
data_Cr(PO3)4
_symmetry_space_group_name_H-M   'P 1'
_cell_length_a   10.45357900
_cell_length_b   9.06033300
_cell_length_c   9.34007362
_cell_angle_alpha   88.33537950
_cell_angle_beta   90.00000000
_cell_angle_gamma   90.00000000
_symmetry_Int_Tables_number   1
_chemical_formula_structural   Cr(PO3)4
_chemical_formula_sum   'Cr4 P16 O48'
_cell_volume   884.25219982
_cell_formula_units_Z   4
loop_
 _symmetry_equiv_pos_site_id
 _symmetry_equiv_pos_as_xyz
  1  'x, y, z'
loop_
 _atom_site_type_symbol
 _atom_site_label
 _atom_site_symmetry_multiplicity
 _atom_site_fract_x
 _atom_site_fract_y
 _atom_site_fract_z
 _atom_site_occupancy
  Cr  Cr0  1  0.21049900  0.74482700  0.01530800  1
  Cr  Cr1  1  0.71049900  0.25517300  0.48469200  1
  Cr  Cr2  1  0.28950100  0.74482700  0.51530800  1
  Cr  Cr3  1  0.78950100  0.25517300  0.98469200  1
  P  P0  1  0.39344300  0.26446200  0.19584200  1
  P  P1  1  0.61402000  0.06177100  0.21096700  1
  P  P2  1  0.60700300  0.46426800  0.20780700  1
  P  P3  1  0.47932100  0.75645500  0.23686200  1
  P  P4  1  0.97932100  0.24354500  0.26313800  1
  P  P5  1  0.10700300  0.53573200  0.29219300  1
  P  P6  1  0.11402000  0.93822900  0.28903300  1
  P  P7  1  0.89344300  0.73553800  0.30415800  1
  P  P8  1  0.10655700  0.26446200  0.69584200  1
  P  P9  1  0.88598000  0.06177100  0.71096700  1
  P  P10  1  0.89299700  0.46426800  0.70780700  1
  P  P11  1  0.02067900  0.75645500  0.73686200  1
  P  P12  1  0.52067900  0.24354500  0.76313800  1
  P  P13  1  0.39299700  0.53573200  0.79219300  1
  P  P14  1  0.38598000  0.93822900  0.78903300  1
  P  P15  1  0.60655700  0.73553800  0.80415800  1
  O  O0  1  0.27023200  0.25213500  0.11366600  1
  O  O1  1  0.72503300  0.08695500  0.11113800  1
  O  O2  1  0.70234000  0.41642700  0.09875000  1
  O  O3  1  0.94991800  0.25705400  0.10562300  1
  O  O4  1  0.49559700  0.15037600  0.13820800  1
  O  O5  1  0.12836900  0.58511700  0.13885800  1
  O  O6  1  0.46227300  0.41826100  0.16010300  1
  O  O7  1  0.12835100  0.90059800  0.13417000  1
  O  O8  1  0.86034700  0.75875900  0.14739000  1
  O  O9  1  0.58739800  0.63800100  0.19299200  1
  O  O10  1  0.36953500  0.74982400  0.13503900  1
  O  O11  1  0.56454200  0.89819400  0.19698800  1
  O  O12  1  0.06454200  0.10180600  0.30301200  1
  O  O13  1  0.86953500  0.25017600  0.36496100  1
  O  O14  1  0.08739800  0.36199900  0.30700800  1
  O  O15  1  0.36034700  0.24124100  0.35261000  1
  O  O16  1  0.62835100  0.09940200  0.36583000  1
  O  O17  1  0.96227300  0.58173900  0.33989700  1
  O  O18  1  0.62836900  0.41488300  0.36114200  1
  O  O19  1  0.99559700  0.84962400  0.36179200  1
  O  O20  1  0.44991800  0.74294600  0.39437700  1
  O  O21  1  0.20234000  0.58357300  0.40125000  1
  O  O22  1  0.22503300  0.91304500  0.38886200  1
  O  O23  1  0.77023200  0.74786500  0.38633400  1
  O  O24  1  0.22976800  0.25213500  0.61366600  1
  O  O25  1  0.77496700  0.08695500  0.61113800  1
  O  O26  1  0.79766000  0.41642700  0.59875000  1
  O  O27  1  0.55008200  0.25705400  0.60562300  1
  O  O28  1  0.00440300  0.15037600  0.63820800  1
  O  O29  1  0.37163100  0.58511700  0.63885800  1
  O  O30  1  0.03772700  0.41826100  0.66010300  1
  O  O31  1  0.37164900  0.90059800  0.63417000  1
  O  O32  1  0.63965300  0.75875900  0.64739000  1
  O  O33  1  0.91260200  0.63800100  0.69299200  1
  O  O34  1  0.13046500  0.74982400  0.63503900  1
  O  O35  1  0.93545800  0.89819400  0.69698800  1
  O  O36  1  0.43545800  0.10180600  0.80301200  1
  O  O37  1  0.63046500  0.25017600  0.86496100  1
  O  O38  1  0.41260200  0.36199900  0.80700800  1
  O  O39  1  0.13965300  0.24124100  0.85261000  1
  O  O40  1  0.87164900  0.09940200  0.86583000  1
  O  O41  1  0.53772700  0.58173900  0.83989700  1
  O  O42  1  0.87163100  0.41488300  0.86114200  1
  O  O43  1  0.50440300  0.84962400  0.86179200  1
  O  O44  1  0.05008200  0.74294600  0.89437700  1
  O  O45  1  0.29766000  0.58357300  0.90125000  1
  O  O46  1  0.27496700  0.91304500  0.88886200  1
  O  O47  1  0.72976800  0.74786500  0.88633400  1
loop_
_geom_bond_atom_site_label_1
_geom_bond_atom_site_label_2
_geom_bond_distance
_geom_bond_site_symmetry_2
Cr0 O10 2.004861 1_555
Cr0 O7 2.013166 1_555
Cr0 O5 2.016338 1_555
Cr0 O46 2.016756 1_554
Cr0 O44 2.022199 1_554
Cr0 O45 2.046964 1_554
Cr1 O13 2.004861 1_555
Cr1 O16 2.013166 1_555
Cr1 O18 2.016338 1_555
Cr1 O25 2.016756 1_555
Cr1 O27 2.022199 1_555
Cr1 O26 2.046964 1_555
Cr2 O34 2.004861 1_555
Cr2 O31 2.013166 1_555
Cr2 O29 2.016338 1_555
Cr2 O22 2.016756 1_555
Cr2 O20 2.022199 1_555
Cr2 O21 2.046964 1_555
Cr3 O37 2.004861 1_555
Cr3 O40 2.013166 1_555
Cr3 O42 2.016338 1_555
Cr3 O1 2.016756 1_556
Cr3 O3 2.022199 1_556
Cr3 O2 2.046964 1_556
O0 P0 1.505154 1_555
O1 P1 1.501937 1_555
O2 P2 1.498105 1_555
O3 P4 1.504469 1_555
O4 P0 1.590882 1_555
O4 P1 1.614653 1_555
O5 P5 1.504641 1_555
O6 P0 1.594951 1_555
O6 P2 1.634648 1_555
O7 P6 1.503165 1_555
O8 P7 1.513280 1_555
O9 P2 1.589408 1_555
O9 P3 1.619167 1_555
O10 P3 1.492820 1_555
O11 P1 1.578707 1_565
O11 P3 1.598040 1_555
O12 P6 1.578707 1_545
O12 P4 1.598040 1_455
O13 P4 1.492820 1_555
O14 P5 1.589408 1_555
O14 P4 1.619167 1_455
O15 P0 1.513280 1_555
O16 P1 1.503165 1_555
O17 P7 1.594951 1_555
O17 P5 1.634648 1_655
O18 P2 1.504641 1_555
O19 P7 1.590882 1_555
O19 P6 1.614653 1_655
O20 P3 1.504469 1_555
O21 P5 1.498105 1_555
O22 P6 1.501937 1_555
O23 P7 1.505154 1_555
O24 P8 1.505154 1_555
O25 P9 1.501937 1_555
O26 P10 1.498105 1_555
O27 P12 1.504469 1_555
O28 P8 1.590882 1_555
O28 P9 1.614653 1_455
O29 P13 1.504641 1_555
O30 P8 1.594951 1_555
O30 P10 1.634648 1_455
O31 P14 1.503165 1_555
O32 P15 1.513280 1_555
O33 P10 1.589408 1_555
O33 P11 1.619167 1_655
O34 P11 1.492820 1_555
O35 P9 1.578707 1_565
O35 P11 1.598040 1_655
O36 P14 1.578707 1_545
O36 P12 1.598040 1_555
O37 P12 1.492820 1_555
O38 P13 1.589408 1_555
O38 P12 1.619167 1_555
O39 P8 1.513280 1_555
O40 P9 1.503165 1_555
O41 P15 1.594951 1_555
O41 P13 1.634648 1_555
O42 P10 1.504641 1_555
O43 P15 1.590882 1_555
O43 P14 1.614653 1_555
O44 P11 1.504469 1_555
O45 P13 1.498105 1_555
O46 P14 1.501937 1_555
O47 P15 1.505154 1_555
