# generated using pymatgen
data_CoCu2SiS4
_symmetry_space_group_name_H-M   'P 1'
_cell_length_a   6.39952932
_cell_length_b   6.39952932
_cell_length_c   6.39952932
_cell_angle_alpha   132.04119911
_cell_angle_beta   132.04119911
_cell_angle_gamma   70.16396516
_symmetry_Int_Tables_number   1
_chemical_formula_structural   CoCu2SiS4
_chemical_formula_sum   'Co1 Cu2 Si1 S4'
_cell_volume   141.69603133
_cell_formula_units_Z   1
loop_
 _symmetry_equiv_pos_site_id
 _symmetry_equiv_pos_as_xyz
  1  'x, y, z'
loop_
 _atom_site_type_symbol
 _atom_site_label
 _atom_site_symmetry_multiplicity
 _atom_site_fract_x
 _atom_site_fract_y
 _atom_site_fract_z
 _atom_site_occupancy
  Co  Co0  1  0.00000000  0.00000000  0.00000000  1
  Cu  Cu0  1  0.25000000  0.75000000  0.50000000  1
  Cu  Cu1  1  0.75000000  0.25000000  0.50000000  1
  Si  Si0  1  0.50000000  0.50000000  0.00000000  1
  S  S0  1  0.62073000  0.13881800  0.00000000  1
  S  S1  1  0.13881800  0.62073000  0.00000000  1
  S  S2  1  0.86118200  0.86118200  0.48191200  1
  S  S3  1  0.37927000  0.37927000  0.51808800  1
loop_
_geom_bond_atom_site_label_1
_geom_bond_atom_site_label_2
_geom_bond_distance
_geom_bond_site_symmetry_2
Co0 S1 2.284059 1_545
Co0 S0 2.284059 1_455
Co0 S2 2.284059 1_444
Co0 S3 2.284059 1_555
Cu0 S2 2.287811 1_455
Cu0 S3 2.287811 1_555
Cu0 S1 2.287811 1_555
Cu0 S0 2.287811 1_566
Cu1 S3 2.287811 1_555
Cu1 S0 2.287811 1_555
Cu1 S2 2.287811 1_545
Cu1 S1 2.287811 1_656
S0 Si0 2.174286 1_555
S1 Si0 2.174286 1_555
S2 Si0 2.174286 1_555
S3 Si0 2.174286 1_556
