# generated using pymatgen
data_Cd(FeO2)2
_symmetry_space_group_name_H-M   'P 1'
_cell_length_a   6.15467213
_cell_length_b   6.15396728
_cell_length_c   6.06556774
_cell_angle_alpha   59.91400070
_cell_angle_beta   59.92401299
_cell_angle_gamma   59.24028449
_symmetry_Int_Tables_number   1
_chemical_formula_structural   Cd(FeO2)2
_chemical_formula_sum   'Cd2 Fe4 O8'
_cell_volume   161.29990955
_cell_formula_units_Z   2
loop_
 _symmetry_equiv_pos_site_id
 _symmetry_equiv_pos_as_xyz
  1  'x, y, z'
loop_
 _atom_site_type_symbol
 _atom_site_label
 _atom_site_symmetry_multiplicity
 _atom_site_fract_x
 _atom_site_fract_y
 _atom_site_fract_z
 _atom_site_occupancy
  Cd  Cd0  1  0.12416100  0.12418100  0.12882600  1
  Cd  Cd1  1  0.87584600  0.87581800  0.87116200  1
  Fe  Fe0  1  0.50001400  0.00000300  0.49999100  1
  Fe  Fe1  1  0.99998800  0.50000800  0.49997800  1
  Fe  Fe2  1  0.50001700  0.49998100  0.00003600  1
  Fe  Fe3  1  0.49999800  0.50000200  0.50001100  1
  O  O0  1  0.72601600  0.72557900  0.73936500  1
  O  O1  1  0.25809600  0.25777500  0.69524400  1
  O  O2  1  0.26719200  0.69023600  0.27329000  1
  O  O3  1  0.69047100  0.26684300  0.27370600  1
  O  O4  1  0.73279000  0.30977200  0.72672100  1
  O  O5  1  0.30954600  0.73313800  0.72632600  1
  O  O6  1  0.27398700  0.27441000  0.26063500  1
  O  O7  1  0.74187700  0.74225400  0.30470800  1
loop_
_geom_bond_atom_site_label_1
_geom_bond_atom_site_label_2
_geom_bond_distance
_geom_bond_site_symmetry_2
Cd0 O1 2.150455 1_554
Cd0 O3 2.166384 1_455
Cd0 O6 2.167080 1_555
Cd0 O2 2.167177 1_545
Cd1 O7 2.150271 1_556
Cd1 O5 2.166434 1_655
Cd1 O0 2.167093 1_555
Cd1 O4 2.167221 1_565
Fe0 O7 1.958609 1_545
Fe0 O1 1.958611 1_555
Fe0 O3 2.012735 1_555
Fe0 O5 2.012893 1_545
Fe0 O0 2.014445 1_545
Fe0 O6 2.014457 1_555
Fe1 O1 1.960085 1_655
Fe1 O7 1.960117 1_555
Fe1 O6 2.012711 1_655
Fe1 O0 2.012760 1_555
Fe1 O4 2.013597 1_555
Fe1 O2 2.013599 1_655
Fe2 O6 1.982970 1_555
Fe2 O0 1.982995 1_554
Fe2 O2 2.005068 1_555
Fe2 O4 2.005170 1_554
Fe2 O3 2.007526 1_555
Fe2 O5 2.007777 1_554
Fe3 O5 1.989569 1_555
Fe3 O3 1.989616 1_555
Fe3 O4 1.989804 1_555
Fe3 O2 1.989917 1_555
Fe3 O7 2.138677 1_555
Fe3 O1 2.138728 1_555
