# generated using pymatgen
data_VO2
_symmetry_space_group_name_H-M   'P 1'
_cell_length_a   5.10012240
_cell_length_b   5.31825975
_cell_length_c   9.05784611
_cell_angle_alpha   89.99935489
_cell_angle_beta   89.99986850
_cell_angle_gamma   90.00018577
_symmetry_Int_Tables_number   1
_chemical_formula_structural   VO2
_chemical_formula_sum   'V8 O16'
_cell_volume   245.68298605
_cell_formula_units_Z   8
loop_
 _symmetry_equiv_pos_site_id
 _symmetry_equiv_pos_as_xyz
  1  'x, y, z'
loop_
 _atom_site_type_symbol
 _atom_site_label
 _atom_site_symmetry_multiplicity
 _atom_site_fract_x
 _atom_site_fract_y
 _atom_site_fract_z
 _atom_site_occupancy
  V  V0  1  0.64664441  0.09408180  0.62878347  1
  V  V1  1  0.35335539  0.40591452  0.12882682  1
  V  V2  1  0.85334951  0.59408660  0.37118107  1
  V  V3  1  0.14664088  0.90593799  0.87121129  1
  V  V4  1  0.35335379  0.90589090  0.37116235  1
  V  V5  1  0.64664571  0.59406098  0.87122709  1
  V  V6  1  0.14664848  0.40593034  0.62877624  1
  V  V7  1  0.85336819  0.09408199  0.12882913  1
  O  O0  1  0.31156266  0.14178079  0.50710432  1
  O  O1  1  0.68843112  0.35820683  0.00711879  1
  O  O2  1  0.18842462  0.64179007  0.49287705  1
  O  O3  1  0.81155516  0.85823511  0.99290790  1
  O  O4  1  0.68844529  0.85817773  0.49287525  1
  O  O5  1  0.31156496  0.64174262  0.99290635  1
  O  O6  1  0.81157547  0.35822434  0.50708617  1
  O  O7  1  0.18844522  0.14178003  0.00712471  1
  O  O8  1  0.96938585  0.11437134  0.72655675  1
  O  O9  1  0.03062690  0.38564801  0.22656470  1
  O  O10  1  0.53061586  0.61436586  0.27344150  1
  O  O11  1  0.46936180  0.88565453  0.77344054  1
  O  O12  1  0.03062377  0.88563092  0.27344947  1
  O  O13  1  0.96938502  0.61436158  0.77343173  1
  O  O14  1  0.46937233  0.38565842  0.72654377  1
  O  O15  1  0.53061861  0.11438969  0.22657355  1
loop_
_geom_bond_atom_site_label_1
_geom_bond_atom_site_label_2
_geom_bond_distance
_geom_bond_site_symmetry_2
O0 V4 1.770733 1_545
O0 V6 1.973717 1_555
O0 V0 2.049300 1_555
O1 V5 1.770259 1_554
O1 V7 1.973852 1_555
O1 V1 2.049420 1_555
O2 V6 1.770320 1_555
O2 V4 1.973760 1_555
O2 V2 2.049358 1_455
O3 V7 1.770453 1_566
O3 V5 1.973843 1_555
O3 V3 2.049399 1_655
O4 V0 1.770580 1_565
O4 V2 1.973587 1_555
O4 V4 2.049515 1_555
O5 V1 1.770345 1_556
O5 V3 1.974013 1_555
O5 V5 2.049284 1_555
O6 V2 1.770366 1_555
O6 V0 1.973834 1_555
O6 V6 2.049322 1_655
O7 V3 1.770381 1_544
O7 V1 1.973802 1_555
O7 V7 2.049397 1_455
O8 V0 1.872258 1_555
O8 V3 1.939792 1_645
O8 V6 2.001507 1_655
O9 V1 1.872037 1_555
O9 V2 1.939641 1_455
O9 V7 2.001364 1_455
O10 V2 1.872075 1_555
O10 V1 1.939629 1_555
O10 V4 2.001147 1_555
O11 V3 1.872150 1_555
O11 V0 1.939848 1_565
O11 V5 2.001729 1_555
O12 V4 1.871939 1_555
O12 V7 1.939638 1_465
O12 V2 2.001278 1_455
O13 V5 1.872342 1_555
O13 V6 1.939825 1_655
O13 V3 2.001577 1_655
O14 V6 1.872149 1_555
O14 V5 1.939931 1_555
O14 V0 2.001541 1_555
O15 V7 1.872174 1_555
O15 V4 1.939605 1_545
O15 V1 2.001239 1_555
