# generated using pymatgen
data_Ce3In4Ge
_symmetry_space_group_name_H-M   'P 1'
_cell_length_a   8.50718585
_cell_length_b   8.50038205
_cell_length_c   8.50038205
_cell_angle_alpha   90.76281089
_cell_angle_beta   119.53460471
_cell_angle_gamma   119.53460471
_symmetry_Int_Tables_number   1
_chemical_formula_structural   Ce3In4Ge
_chemical_formula_sum   'Ce6 In8 Ge2'
_cell_volume   437.84332917
_cell_formula_units_Z   2
loop_
 _symmetry_equiv_pos_site_id
 _symmetry_equiv_pos_as_xyz
  1  'x, y, z'
loop_
 _atom_site_type_symbol
 _atom_site_label
 _atom_site_symmetry_multiplicity
 _atom_site_fract_x
 _atom_site_fract_y
 _atom_site_fract_z
 _atom_site_occupancy
  Ce  Ce0  1  0.17072570  0.33536285  0.83536285  1
  Ce  Ce1  1  0.82927430  0.66463715  0.16463715  1
  Ce  Ce2  1  0.50000000  0.16436869  0.33563131  1
  Ce  Ce3  1  0.50000000  0.83563131  0.66436869  1
  Ce  Ce4  1  0.00000000  0.75000000  0.75000000  1
  Ce  Ce5  1  0.00000000  0.25000000  0.25000000  1
  In  In0  1  0.21313902  0.67369044  0.17369044  1
  In  In1  1  0.78686098  0.32630956  0.82630956  1
  In  In2  1  0.78686098  0.96055042  0.46055042  1
  In  In3  1  0.50000000  0.46033268  0.67364565  1
  In  In4  1  0.50000000  0.82635435  0.03966732  1
  In  In5  1  0.21313902  0.03944958  0.53944958  1
  In  In6  1  0.50000000  0.53966732  0.32635435  1
  In  In7  1  0.50000000  0.17364565  0.96033268  1
  Ge  Ge0  1  0.00000000  0.00000000  0.00000000  1
  Ge  Ge1  1  0.00000000  0.50000000  0.50000000  1
loop_
_geom_bond_atom_site_label_1
_geom_bond_atom_site_label_2
_geom_bond_distance
_geom_bond_site_symmetry_2
Ce0 In1 3.190667 1_455
Ce0 In2 3.190673 1_445
Ce0 Ge0 3.197302 1_556
Ce0 Ge1 3.197302 1_555
Ce0 In6 3.430217 1_556
Ce0 In4 3.430217 1_556
Ce0 In3 3.430219 1_555
Ce0 In7 3.430219 1_555
Ce1 In0 3.190667 1_655
Ce1 In5 3.190673 1_665
Ce1 Ge0 3.197302 1_665
Ce1 Ge1 3.197302 1_655
Ce1 In3 3.430217 1_554
Ce1 In7 3.430217 1_554
Ce1 In4 3.430219 1_555
Ce1 In6 3.430219 1_555
Ce2 In7 3.192206 1_554
Ce2 In6 3.192206 1_555
Ce2 Ge0 3.202344 1_555
Ce2 Ge1 3.202344 1_655
Ce2 In1 3.427421 1_555
Ce2 In0 3.427421 1_545
Ce2 In5 3.427429 1_555
Ce2 In2 3.427429 1_545
Ce3 In4 3.192206 1_556
Ce3 In3 3.192206 1_555
Ce3 Ge0 3.202344 1_666
Ce3 Ge1 3.202344 1_555
Ce3 In1 3.427421 1_565
Ce3 In0 3.427421 1_555
Ce3 In2 3.427429 1_555
Ce3 In5 3.427429 1_565
Ce4 Ge0 2.985267 1_566
Ce4 Ge1 2.985267 1_555
Ce4 In2 3.385710 1_455
Ce4 In5 3.385710 1_565
Ce4 In1 3.385712 1_455
Ce4 In0 3.385712 1_556
Ce4 In6 3.389234 1_455
Ce4 In7 3.389234 1_565
Ce4 In4 3.389235 1_556
Ce4 In3 3.389235 1_455
Ce5 Ge0 2.985267 1_555
Ce5 Ge1 2.985267 1_555
Ce5 In2 3.385710 1_445
Ce5 In5 3.385710 1_555
Ce5 In0 3.385712 1_555
Ce5 In1 3.385712 1_454
Ce5 In3 3.389234 1_555
Ce5 In4 3.389234 1_445
Ce5 In6 3.389235 1_555
Ce5 In7 3.389235 1_454
In0 In6 2.931808 1_555
In0 In4 2.931808 1_555
In0 In1 3.040225 1_454
In1 In3 2.931808 1_555
In1 In7 2.931808 1_555
In2 In6 2.931800 1_555
In2 In4 2.931800 1_555
In2 In5 3.040214 1_665
In3 In5 2.931800 1_555
In3 In6 3.036896 1_555
In4 In7 3.036896 1_564
In5 In7 2.931800 1_555
