# generated using pymatgen
data_Cs2Li3I5
_symmetry_space_group_name_H-M   'P 1'
_cell_length_a   4.71841827
_cell_length_b   8.73774837
_cell_length_c   10.83985247
_cell_angle_alpha   67.29995139
_cell_angle_beta   77.41023237
_cell_angle_gamma   74.39038752
_symmetry_Int_Tables_number   1
_chemical_formula_structural   Cs2Li3I5
_chemical_formula_sum   'Cs2 Li3 I5'
_cell_volume   393.79491534
_cell_formula_units_Z   1
loop_
 _symmetry_equiv_pos_site_id
 _symmetry_equiv_pos_as_xyz
  1  'x, y, z'
loop_
 _atom_site_type_symbol
 _atom_site_label
 _atom_site_symmetry_multiplicity
 _atom_site_fract_x
 _atom_site_fract_y
 _atom_site_fract_z
 _atom_site_occupancy
  Cs  Cs0  1  0.68193066  0.86069708  0.77262199  1
  Cs  Cs1  1  0.31314295  0.14410615  0.22710939  1
  Li  Li0  1  0.04766718  0.69375648  0.20672189  1
  Li  Li1  1  0.50549753  0.50160368  0.49803287  1
  Li  Li2  1  0.94504704  0.31166714  0.79331763  1
  I  I0  1  0.35763688  0.47872931  0.80317544  1
  I  I1  1  0.09795903  0.23955717  0.56157777  1
  I  I2  1  0.89521879  0.76658293  0.43834041  1
  I  I3  1  0.63511141  0.52678670  0.19828028  1
  I  I4  1  0.99796952  0.00196137  0.99965632  1
loop_
_geom_bond_atom_site_label_1
_geom_bond_atom_site_label_2
_geom_bond_distance
_geom_bond_site_symmetry_2
Cs0 I4 3.838435 1_465
Cs0 I4 3.839118 1_565
Cs0 I2 3.883816 1_555
Cs0 I0 3.906984 1_555
Cs0 I0 3.910818 1_655
Cs0 I1 3.967357 1_665
Cs0 I1 3.972225 1_565
Cs0 I3 4.400371 1_556
Cs1 I4 3.845654 1_454
Cs1 I4 3.846228 1_554
Cs1 I1 3.891624 1_555
Cs1 I3 3.912370 1_555
Cs1 I3 3.922485 1_455
Cs1 I2 3.962776 1_545
Cs1 I2 3.964282 1_445
Cs1 I0 4.387486 1_554
I0 Li2 2.763735 1_555
I0 Li2 2.769950 1_455
I0 Li1 3.166442 1_555
I1 Li2 2.722992 1_455
I1 Li1 3.115985 1_455
I1 Li1 3.160641 1_555
I2 Li0 2.724973 1_655
I2 Li1 3.126837 1_555
I2 Li1 3.184210 1_655
I3 Li0 2.763194 1_655
I3 Li0 2.763329 1_555
I3 Li1 3.103954 1_555
I4 Li0 2.751299 1_646
I4 Li2 2.756168 1_555
