# generated using pymatgen
data_Li4Mn2Ni3Sn3O16
_symmetry_space_group_name_H-M   'P 1'
_cell_length_a   6.03544694
_cell_length_b   6.03544694
_cell_length_c   9.53802986
_cell_angle_alpha   89.87409019
_cell_angle_beta   89.87409019
_cell_angle_gamma   60.49918437
_symmetry_Int_Tables_number   1
_chemical_formula_structural   Li4Mn2Ni3Sn3O16
_chemical_formula_sum   'Li4 Mn2 Ni3 Sn3 O16'
_cell_volume   302.39139138
_cell_formula_units_Z   1
loop_
 _symmetry_equiv_pos_site_id
 _symmetry_equiv_pos_as_xyz
  1  'x, y, z'
loop_
 _atom_site_type_symbol
 _atom_site_label
 _atom_site_symmetry_multiplicity
 _atom_site_fract_x
 _atom_site_fract_y
 _atom_site_fract_z
 _atom_site_occupancy
  Li  Li0  1  0.32849800  0.32849800  0.10924500  1
  Li  Li1  1  0.01785800  0.01785800  0.01158400  1
  Li  Li2  1  0.01255100  0.01255100  0.50008500  1
  Li  Li3  1  0.66518800  0.66518800  0.60035700  1
  Mn  Mn0  1  0.32889700  0.32889700  0.51120900  1
  Mn  Mn1  1  0.65740600  0.65740600  0.01942600  1
  Ni  Ni0  1  0.16954100  0.16954100  0.78648200  1
  Ni  Ni1  1  0.82662000  0.34083300  0.28772700  1
  Ni  Ni2  1  0.34083300  0.82662000  0.28772700  1
  Sn  Sn0  1  0.65916500  0.16882800  0.78817400  1
  Sn  Sn1  1  0.16882800  0.65916500  0.78817400  1
  Sn  Sn2  1  0.82935200  0.82935200  0.28798500  1
  O  O0  1  0.66375900  0.16917100  0.40504100  1
  O  O1  1  0.48035000  0.48035000  0.64885700  1
  O  O2  1  0.32977100  0.32977100  0.90304500  1
  O  O3  1  0.00270900  0.00270900  0.68789500  1
  O  O4  1  0.00930200  0.00930200  0.19958000  1
  O  O5  1  0.16917100  0.66375900  0.40504100  1
  O  O6  1  0.47853400  0.04147000  0.64657600  1
  O  O7  1  0.04147000  0.47853400  0.64657600  1
  O  O8  1  0.83202900  0.83202900  0.90878200  1
  O  O9  1  0.17423100  0.17423100  0.40072100  1
  O  O10  1  0.95237400  0.51740100  0.15023100  1
  O  O11  1  0.51740100  0.95237400  0.15023100  1
  O  O12  1  0.65753200  0.65753200  0.39330300  1
  O  O13  1  0.82650100  0.33979600  0.90710100  1
  O  O14  1  0.51912800  0.51912800  0.15388600  1
  O  O15  1  0.33979600  0.82650100  0.90710100  1
loop_
_geom_bond_atom_site_label_1
_geom_bond_atom_site_label_2
_geom_bond_distance
_geom_bond_site_symmetry_2
Li0 O2 1.966753 1_554
Li0 O11 2.013702 1_545
Li0 O10 2.013702 1_455
Li0 O14 2.033908 1_555
Li1 O4 1.795103 1_555
Li1 O13 1.972010 1_454
Li1 O15 1.972010 1_544
Li1 O8 2.173884 1_444
Li2 O3 1.794014 1_555
Li2 O9 1.931914 1_555
Li2 O5 2.047357 1_545
Li2 O0 2.047357 1_455
Li3 O12 1.976703 1_555
Li3 O1 1.980956 1_555
Li3 O7 2.025715 1_655
Li3 O6 2.025715 1_565
Mn0 O9 1.928778 1_555
Mn0 O7 1.986028 1_555
Mn0 O6 1.986028 1_555
Mn0 O5 2.028748 1_555
Mn0 O0 2.028748 1_555
Mn0 O1 2.056272 1_555
Mn1 O14 1.927262 1_555
Mn1 O13 1.985300 1_554
Mn1 O15 1.985300 1_554
Mn1 O10 1.990851 1_555
Mn1 O11 1.990851 1_555
Mn1 O8 2.102243 1_554
Ni0 O3 1.979590 1_555
Ni0 O2 2.009222 1_555
Ni0 O6 2.104746 1_555
Ni0 O7 2.104746 1_555
Ni0 O15 2.136694 1_545
Ni0 O13 2.136694 1_455
Ni1 O4 1.938244 1_655
Ni1 O12 1.947260 1_555
Ni1 O10 2.053690 1_555
Ni1 O14 2.066237 1_555
Ni1 O0 2.069943 1_555
Ni1 O9 2.121713 1_655
Ni2 O4 1.938244 1_565
Ni2 O12 1.947260 1_555
Ni2 O11 2.053690 1_555
Ni2 O14 2.066237 1_555
Ni2 O5 2.069943 1_555
Ni2 O9 2.121713 1_565
O0 Sn2 2.106706 1_545
O1 Sn0 2.112441 1_555
O1 Sn1 2.112441 1_555
O2 Sn1 2.046825 1_555
O2 Sn0 2.046825 1_555
O3 Sn1 2.041398 1_545
O3 Sn0 2.041398 1_455
O4 Sn2 2.055191 1_445
O5 Sn2 2.106706 1_455
O6 Sn0 2.107066 1_555
O7 Sn1 2.107066 1_555
O8 Sn0 2.109536 1_565
O8 Sn1 2.109536 1_655
O10 Sn2 2.110030 1_555
O11 Sn2 2.110030 1_555
O12 Sn2 2.051785 1_555
O13 Sn0 2.099523 1_555
O15 Sn1 2.099523 1_555
