# generated using pymatgen
data_Zr5Re24
_symmetry_space_group_name_H-M   'P 1'
_cell_length_a   8.45166511
_cell_length_b   8.45166716
_cell_length_c   8.45166633
_cell_angle_alpha   109.47122110
_cell_angle_beta   109.47122600
_cell_angle_gamma   109.47122067
_symmetry_Int_Tables_number   1
_chemical_formula_structural   Zr5Re24
_chemical_formula_sum   'Zr5 Re24'
_cell_volume   464.73468440
_cell_formula_units_Z   1
loop_
 _symmetry_equiv_pos_site_id
 _symmetry_equiv_pos_as_xyz
  1  'x, y, z'
loop_
 _atom_site_type_symbol
 _atom_site_label
 _atom_site_symmetry_multiplicity
 _atom_site_fract_x
 _atom_site_fract_y
 _atom_site_fract_z
 _atom_site_occupancy
  Zr  Zr0  1  0.00000000  -0.00000000  -0.00000000  1
  Zr  Zr1  1  0.62756112  0.62756112  0.62756112  1
  Zr  Zr2  1  0.37243888  -0.00000000  -0.00000000  1
  Zr  Zr3  1  0.00000000  0.37243888  0.00000000  1
  Zr  Zr4  1  -0.00000000  -0.00000000  0.37243888  1
  Re  Re0  1  0.39610627  0.39610627  0.71957717  1
  Re  Re1  1  0.60389373  0.32347091  -0.00000000  1
  Re  Re2  1  0.32347091  0.60389373  -0.00000000  1
  Re  Re3  1  0.00000000  0.32347091  0.60389373  1
  Re  Re4  1  0.28042283  0.67652909  0.67652909  1
  Re  Re5  1  0.67652909  0.28042283  0.67652909  1
  Re  Re6  1  0.32347091  -0.00000000  0.60389373  1
  Re  Re7  1  0.60389373  -0.00000000  0.32347091  1
  Re  Re8  1  0.00000000  0.60389373  0.32347091  1
  Re  Re9  1  0.71957717  0.39610627  0.39610627  1
  Re  Re10  1  0.39610627  0.71957717  0.39610627  1
  Re  Re11  1  0.67652909  0.67652909  0.28042283  1
  Re  Re12  1  0.37654275  0.37654275  0.18234981  1
  Re  Re13  1  0.62345725  0.80580706  0.00000000  1
  Re  Re14  1  0.80580706  0.62345725  -0.00000000  1
  Re  Re15  1  0.00000000  0.80580706  0.62345725  1
  Re  Re16  1  0.81765019  0.19419294  0.19419294  1
  Re  Re17  1  0.19419294  0.81765019  0.19419294  1
  Re  Re18  1  0.80580706  0.00000000  0.62345725  1
  Re  Re19  1  0.62345725  0.00000000  0.80580706  1
  Re  Re20  1  -0.00000000  0.62345725  0.80580706  1
  Re  Re21  1  0.18234981  0.37654275  0.37654275  1
  Re  Re22  1  0.37654275  0.18234981  0.37654275  1
  Re  Re23  1  0.19419294  0.19419294  0.81765019  1
loop_
_geom_bond_atom_site_label_1
_geom_bond_atom_site_label_2
_geom_bond_distance
_geom_bond_site_symmetry_2
Zr0 Zr2 3.147729 1_555
Zr0 Zr1 3.147729 1_444
Zr0 Zr4 3.147729 1_555
Zr0 Zr3 3.147729 1_555
Re0 Re23 2.540847 1_555
Re0 Re21 2.772371 1_555
Re0 Re22 2.772371 1_555
Re0 Zr1 2.781255 1_555
Re0 Re1 2.827001 1_556
Re0 Re2 2.827001 1_556
Re0 Re14 2.890754 1_556
Re0 Re13 2.890754 1_556
Re0 Re3 2.930515 1_555
Re0 Re5 2.930516 1_555
Re0 Re4 2.930516 1_555
Re0 Re6 2.930516 1_555
Re0 Zr4 3.233433 1_555
Re1 Re14 2.540847 1_555
Re1 Re16 2.772371 1_555
Re1 Re19 2.772371 1_554
Re1 Zr2 2.781255 1_555
Re1 Re11 2.827001 1_555
Re1 Re23 2.890754 1_554
Re1 Re12 2.890754 1_555
Re1 Re8 2.930516 1_655
Re1 Re6 2.930516 1_554
Re1 Re9 2.930516 1_555
Re1 Re5 2.930516 1_554
Re1 Zr3 3.233433 1_655
Re2 Re20 2.772371 1_554
Re2 Zr3 2.781255 1_555
Re2 Re23 2.890754 1_554
Re2 Re3 2.930516 1_554
Re2 Re7 2.930516 1_565
Re2 Re4 2.930516 1_554
Re2 Zr2 3.233434 1_565
Re3 Zr4 2.781256 1_555
Re3 Re9 2.827001 1_455
Re3 Re4 2.827001 1_555
Re3 Re7 2.930516 1_455
Re3 Re5 2.930516 1_455
Re3 Zr3 3.233434 1_556
Re4 Zr2 2.781256 1_566
Re4 Re8 2.827001 1_555
Re4 Re6 2.930516 1_565
Re4 Zr1 3.233433 1_555
Re5 Zr3 2.781255 1_656
Re5 Re6 2.827001 1_555
Re5 Re7 2.827001 1_555
Re5 Re9 2.930516 1_555
Re5 Zr1 3.233434 1_555
Re6 Zr4 2.781255 1_555
Re6 Re8 2.930516 1_545
Re6 Zr2 3.233434 1_556
Re7 Zr2 2.781255 1_555
Re7 Re9 2.930516 1_555
Re7 Zr4 3.233433 1_655
Re8 Zr3 2.781255 1_555
Re8 Re9 2.827001 1_455
Re8 Zr4 3.233434 1_565
Re9 Zr1 2.781255 1_555
Re9 Zr2 3.233433 1_555
Re10 Re17 2.540846 1_555
Re10 Re21 2.772371 1_555
Re10 Re12 2.772371 1_555
Re10 Zr1 2.781255 1_555
Re10 Re7 2.827001 1_565
Re10 Re6 2.827001 1_565
Re10 Re18 2.890754 1_565
Re10 Re19 2.890754 1_565
Re10 Re8 2.930516 1_555
Re10 Re11 2.930516 1_555
Re10 Re4 2.930516 1_555
Re10 Re2 2.930516 1_555
Re10 Zr3 3.233433 1_555
Re11 Re12 2.540846 1_555
Re11 Re15 2.772371 1_655
Re11 Re18 2.772371 1_565
Re11 Zr4 2.781255 1_665
Re11 Re2 2.827000 1_555
Re11 Re14 2.890754 1_555
Re11 Re13 2.890754 1_555
Re11 Re8 2.930516 1_655
Re11 Re9 2.930516 1_555
Re11 Re7 2.930516 1_565
Re11 Zr1 3.233434 1_555
Re12 Re23 2.516703 1_554
Re12 Re21 2.680156 1_555
Re12 Re22 2.680157 1_555
Re12 Re9 2.772371 1_555
Re12 Re2 2.890754 1_555
Re12 Zr3 3.020789 1_555
Re12 Zr2 3.020790 1_555
Re12 Zr0 3.056038 1_555
Re12 Zr1 3.084782 1_555
Re13 Re14 2.516703 1_555
Re13 Re2 2.540846 1_555
Re13 Re19 2.680157 1_564
Re13 Re16 2.680157 1_565
Re13 Re4 2.772371 1_554
Re13 Re7 2.772371 1_565
Re13 Zr4 3.020789 1_665
Re13 Zr1 3.020790 1_554
Re13 Zr0 3.056038 1_665
Re13 Zr2 3.084782 1_565
Re14 Re17 2.680156 1_655
Re14 Re20 2.680156 1_654
Re14 Re8 2.772371 1_655
Re14 Re5 2.772371 1_554
Re14 Zr1 3.020790 1_554
Re14 Zr4 3.020790 1_665
Re14 Zr0 3.056039 1_665
Re14 Zr3 3.084782 1_655
Re15 Re20 2.516703 1_555
Re15 Re8 2.540847 1_555
Re15 Re18 2.680156 1_465
Re15 Re23 2.680157 1_565
Re15 Re6 2.772371 1_565
Re15 Re4 2.890754 1_555
Re15 Re9 2.890754 1_455
Re15 Zr2 3.020789 1_566
Re15 Zr1 3.020789 1_455
Re15 Zr0 3.056039 1_566
Re15 Zr4 3.084783 1_565
Re16 Re21 2.516703 1_655
Re16 Re9 2.540847 1_555
Re16 Re19 2.680156 1_554
Re16 Re7 2.772371 1_555
Re16 Re3 2.890754 1_655
Re16 Re8 2.890754 1_655
Re16 Zr4 3.020790 1_655
Re16 Zr3 3.020790 1_655
Re16 Zr0 3.056039 1_655
Re16 Zr2 3.084782 1_555
Re17 Re22 2.516703 1_565
Re17 Re20 2.680156 1_554
Re17 Re2 2.772371 1_555
Re17 Re8 2.772371 1_555
Re17 Re7 2.890754 1_565
Re17 Re6 2.890754 1_565
Re17 Zr4 3.020790 1_565
Re17 Zr2 3.020790 1_565
Re17 Zr0 3.056039 1_565
Re17 Zr3 3.084783 1_555
Re18 Re19 2.516703 1_555
Re18 Re7 2.540846 1_555
Re18 Re23 2.680156 1_655
Re18 Re3 2.772371 1_655
Re18 Re5 2.890754 1_555
Re18 Zr3 3.020790 1_656
Re18 Zr1 3.020790 1_545
Re18 Zr0 3.056038 1_656
Re18 Zr4 3.084782 1_655
Re19 Re6 2.540846 1_555
Re19 Re4 2.772371 1_545
Re19 Re5 2.890754 1_555
Re19 Zr3 3.020790 1_656
Re19 Zr1 3.020790 1_545
Re19 Zr0 3.056038 1_656
Re19 Zr2 3.084782 1_556
Re20 Re3 2.540847 1_555
Re20 Re5 2.772371 1_455
Re20 Re9 2.890754 1_455
Re20 Re4 2.890754 1_555
Re20 Zr1 3.020789 1_455
Re20 Zr2 3.020790 1_566
Re20 Zr0 3.056039 1_566
Re20 Zr3 3.084783 1_556
Re21 Re4 2.540847 1_555
Re21 Re22 2.680156 1_555
Re21 Re3 2.890754 1_555
Re21 Re8 2.890754 1_555
Re21 Zr3 3.020790 1_555
Re21 Zr4 3.020790 1_555
Re21 Zr0 3.056039 1_555
Re21 Zr1 3.084782 1_555
Re22 Re5 2.540846 1_555
Re22 Re9 2.772371 1_555
Re22 Re7 2.890754 1_555
Re22 Re6 2.890754 1_555
Re22 Zr4 3.020789 1_555
Re22 Zr2 3.020790 1_555
Re22 Zr0 3.056038 1_555
Re22 Zr1 3.084782 1_555
Re23 Re3 2.772371 1_555
Re23 Re6 2.772371 1_555
Re23 Zr3 3.020790 1_556
Re23 Zr2 3.020790 1_556
Re23 Zr0 3.056039 1_556
Re23 Zr4 3.084782 1_555
