# generated using pymatgen
data_K(SeO3)2
_symmetry_space_group_name_H-M   'P 1'
_cell_length_a   6.30000359
_cell_length_b   6.14781163
_cell_length_c   16.80303900
_cell_angle_alpha   90.00000000
_cell_angle_beta   90.00000000
_cell_angle_gamma   78.66740660
_symmetry_Int_Tables_number   1
_chemical_formula_structural   K(SeO3)2
_chemical_formula_sum   'K4 Se8 O24'
_cell_volume   638.11378461
_cell_formula_units_Z   4
loop_
 _symmetry_equiv_pos_site_id
 _symmetry_equiv_pos_as_xyz
  1  'x, y, z'
loop_
 _atom_site_type_symbol
 _atom_site_label
 _atom_site_symmetry_multiplicity
 _atom_site_fract_x
 _atom_site_fract_y
 _atom_site_fract_z
 _atom_site_occupancy
  K  K0  1  0.22573300  0.24177300  0.00282900  1
  K  K1  1  0.77426700  0.75822700  0.99717100  1
  K  K2  1  0.27426700  0.75822700  0.50282900  1
  K  K3  1  0.72573300  0.24177300  0.49717100  1
  Se  Se0  1  0.19734500  0.28654100  0.35682100  1
  Se  Se1  1  0.80265500  0.71345900  0.64317900  1
  Se  Se2  1  0.30265500  0.71345900  0.85682100  1
  Se  Se3  1  0.69734500  0.28654100  0.14317900  1
  Se  Se4  1  0.20011400  0.23520100  0.67295800  1
  Se  Se5  1  0.79988600  0.76479900  0.32704200  1
  Se  Se6  1  0.29988600  0.76479900  0.17295800  1
  Se  Se7  1  0.70011400  0.23520100  0.82704200  1
  O  O0  1  0.35358400  0.13089900  0.59626500  1
  O  O1  1  0.64641600  0.86910100  0.40373500  1
  O  O2  1  0.14641600  0.86910100  0.09626500  1
  O  O3  1  0.85358400  0.13089900  0.90373500  1
  O  O4  1  0.15524600  0.67229100  0.24396300  1
  O  O5  1  0.84475400  0.32770900  0.75603700  1
  O  O6  1  0.34475400  0.32770900  0.74396300  1
  O  O7  1  0.65524600  0.67229100  0.25603700  1
  O  O8  1  0.10304700  0.09887400  0.41029100  1
  O  O9  1  0.89695300  0.90112600  0.58970900  1
  O  O10  1  0.39695300  0.90112600  0.91029100  1
  O  O11  1  0.60304700  0.09887400  0.08970900  1
  O  O12  1  0.38613900  0.39228200  0.40197600  1
  O  O13  1  0.61386100  0.60771800  0.59802400  1
  O  O14  1  0.11386100  0.60771800  0.90197600  1
  O  O15  1  0.88613900  0.39228200  0.09802400  1
  O  O16  1  0.04845300  0.48752400  0.62230400  1
  O  O17  1  0.95154700  0.51247600  0.37769600  1
  O  O18  1  0.45154700  0.51247600  0.12230400  1
  O  O19  1  0.54845300  0.48752400  0.87769600  1
  O  O20  1  0.24097500  0.21471500  0.26361400  1
  O  O21  1  0.75902500  0.78528500  0.73638600  1
  O  O22  1  0.25902500  0.78528500  0.76361400  1
  O  O23  1  0.74097500  0.21471500  0.23638600  1
loop_
_geom_bond_atom_site_label_1
_geom_bond_atom_site_label_2
_geom_bond_distance
_geom_bond_site_symmetry_2
K0 O10 2.660703 1_544
K0 O15 2.685889 1_455
K0 O11 2.780779 1_555
K0 O14 2.794064 1_554
K0 O2 2.900652 1_545
K0 O3 3.059748 1_454
K0 O18 3.123179 1_555
K1 O11 2.660703 1_566
K1 O14 2.685889 1_655
K1 O10 2.780779 1_555
K1 O15 2.794064 1_556
K1 O3 2.900652 1_565
K1 O2 3.059748 1_656
K1 O19 3.123179 1_555
K2 O8 2.660703 1_565
K2 O13 2.685889 1_555
K2 O9 2.780779 1_455
K2 O12 2.794064 1_555
K2 O0 2.900652 1_565
K2 O1 3.059748 1_555
K2 O16 3.123179 1_555
K3 O9 2.660703 1_545
K3 O12 2.685889 1_555
K3 O8 2.780779 1_655
K3 O13 2.794064 1_555
K3 O1 2.900652 1_545
K3 O0 3.059748 1_555
K3 O17 3.123179 1_555
O0 Se4 1.662234 1_555
O1 Se5 1.662234 1_555
O2 Se6 1.662234 1_555
O3 Se7 1.662234 1_555
O4 Se6 1.667617 1_555
O5 Se7 1.667617 1_555
O6 Se4 1.667617 1_555
O7 Se5 1.667617 1_555
O8 Se0 1.661520 1_555
O9 Se1 1.661520 1_555
O10 Se2 1.661520 1_555
O11 Se3 1.661520 1_555
O12 Se0 1.648284 1_555
O13 Se1 1.648284 1_555
O14 Se2 1.648284 1_555
O15 Se3 1.648284 1_555
O16 Se4 1.860426 1_555
O16 Se1 1.898680 1_455
O17 Se5 1.860426 1_555
O17 Se0 1.898680 1_655
O18 Se6 1.860426 1_555
O18 Se3 1.898680 1_555
O19 Se7 1.860426 1_555
O19 Se2 1.898680 1_555
O20 Se0 1.635756 1_555
O21 Se1 1.635756 1_555
O22 Se2 1.635756 1_555
O23 Se3 1.635756 1_555
