# generated using pymatgen
data_SrLa2Mn3O9
_symmetry_space_group_name_H-M   'P 1'
_cell_length_a   5.53647300
_cell_length_b   9.60299300
_cell_length_c   13.64001263
_cell_angle_alpha   89.05795532
_cell_angle_beta   90.00000000
_cell_angle_gamma   90.00000000
_symmetry_Int_Tables_number   1
_chemical_formula_structural   SrLa2Mn3O9
_chemical_formula_sum   'Sr4 La8 Mn12 O36'
_cell_volume   725.09659612
_cell_formula_units_Z   4
loop_
 _symmetry_equiv_pos_site_id
 _symmetry_equiv_pos_as_xyz
  1  'x, y, z'
loop_
 _atom_site_type_symbol
 _atom_site_label
 _atom_site_symmetry_multiplicity
 _atom_site_fract_x
 _atom_site_fract_y
 _atom_site_fract_z
 _atom_site_occupancy
  Sr  Sr0  1  0.49226500  0.49629800  0.75021600  1
  Sr  Sr1  1  0.99226500  0.00370200  0.24978400  1
  Sr  Sr2  1  0.50773500  0.50370200  0.24978400  1
  Sr  Sr3  1  0.00773500  0.99629800  0.75021600  1
  La  La0  1  0.49071300  0.16978800  0.41714300  1
  La  La1  1  0.49154400  0.83697600  0.08454400  1
  La  La2  1  0.99154400  0.66302400  0.91545600  1
  La  La3  1  0.99071300  0.33021200  0.58285700  1
  La  La4  1  0.50928700  0.83021200  0.58285700  1
  La  La5  1  0.50845600  0.16302400  0.91545600  1
  La  La6  1  0.00928700  0.66978800  0.41714300  1
  La  La7  1  0.00845600  0.33697600  0.08454400  1
  Mn  Mn0  1  0.50000000  0.50000000  0.00000000  1
  Mn  Mn1  1  0.49929400  0.16550400  0.66799300  1
  Mn  Mn2  1  0.50070600  0.83449600  0.33200700  1
  Mn  Mn3  1  0.00000000  0.00000000  0.00000000  1
  Mn  Mn4  1  0.00070600  0.66550400  0.66799300  1
  Mn  Mn5  1  0.99929400  0.33449600  0.33200700  1
  Mn  Mn6  1  0.49947200  0.83267600  0.83282000  1
  Mn  Mn7  1  0.50000000  0.50000000  0.50000000  1
  Mn  Mn8  1  0.50052800  0.16732400  0.16718000  1
  Mn  Mn9  1  0.99947200  0.66732400  0.16718000  1
  Mn  Mn10  1  0.00052800  0.33267600  0.83282000  1
  Mn  Mn11  1  0.00000000  0.00000000  0.50000000  1
  O  O0  1  0.50347200  0.02332000  0.27243200  1
  O  O1  1  0.50190800  0.68920300  0.94030200  1
  O  O2  1  0.50245000  0.34923300  0.59962100  1
  O  O3  1  0.00190800  0.81079700  0.05969800  1
  O  O4  1  0.00347200  0.47668000  0.72756800  1
  O  O5  1  0.00245000  0.15076700  0.40037900  1
  O  O6  1  0.49652800  0.97668000  0.72756800  1
  O  O7  1  0.49755000  0.65076700  0.40037900  1
  O  O8  1  0.49809200  0.31079700  0.05969800  1
  O  O9  1  0.99809200  0.18920300  0.94030200  1
  O  O10  1  0.99755000  0.84923300  0.59962100  1
  O  O11  1  0.99652800  0.52332000  0.27243200  1
  O  O12  1  0.73630200  0.76779400  0.23421500  1
  O  O13  1  0.74519500  0.43592600  0.90619700  1
  O  O14  1  0.73456900  0.09991800  0.56641500  1
  O  O15  1  0.24519500  0.06407400  0.09380300  1
  O  O16  1  0.23630200  0.73220600  0.76578500  1
  O  O17  1  0.23456900  0.40008200  0.43358500  1
  O  O18  1  0.26583900  0.94259100  0.91394800  1
  O  O19  1  0.26226700  0.60973000  0.57310000  1
  O  O20  1  0.25803100  0.27326200  0.24176100  1
  O  O21  1  0.75803100  0.22673800  0.75823900  1
  O  O22  1  0.76226700  0.89027000  0.42690000  1
  O  O23  1  0.76583900  0.55740900  0.08605200  1
  O  O24  1  0.26369800  0.23220600  0.76578500  1
  O  O25  1  0.26543100  0.90008200  0.43358500  1
  O  O26  1  0.25480500  0.56407400  0.09380300  1
  O  O27  1  0.75480500  0.93592600  0.90619700  1
  O  O28  1  0.76543100  0.59991800  0.56641500  1
  O  O29  1  0.76369800  0.26779400  0.23421500  1
  O  O30  1  0.73416100  0.05740900  0.08605200  1
  O  O31  1  0.74196900  0.72673800  0.75823900  1
  O  O32  1  0.73773300  0.39027000  0.42690000  1
  O  O33  1  0.24196900  0.77326200  0.24176100  1
  O  O34  1  0.23416100  0.44259100  0.91394800  1
  O  O35  1  0.23773300  0.10973000  0.57310000  1
loop_
_geom_bond_atom_site_label_1
_geom_bond_atom_site_label_2
_geom_bond_distance
_geom_bond_site_symmetry_2
La0 O0 2.443508 1_555
La0 O14 2.524605 1_555
La0 O32 2.525919 1_555
La0 O35 2.603695 1_555
La0 O17 2.639791 1_555
La0 O5 2.719303 1_555
La0 O5 2.848534 1_655
La0 O20 2.879485 1_555
La0 O25 2.880086 1_545
La0 O2 3.051203 1_555
La0 O29 3.052626 1_555
La0 O22 3.077550 1_545
La1 O1 2.445352 1_554
La1 O30 2.507403 1_565
La1 O12 2.529987 1_555
La1 O15 2.577056 1_565
La1 O33 2.615171 1_555
La1 O3 2.744011 1_555
La1 O18 2.815524 1_554
La1 O3 2.857440 1_655
La1 O26 2.931031 1_555
La1 O27 2.978108 1_554
La1 O23 3.084208 1_555
La1 O0 3.150435 1_565
La2 O3 2.445352 1_656
La2 O34 2.507403 1_655
La2 O16 2.529987 1_655
La2 O13 2.577056 1_555
La2 O31 2.615171 1_555
La2 O1 2.744011 1_555
La2 O23 2.815524 1_556
La2 O1 2.857440 1_655
La2 O27 2.931031 1_555
La2 O26 2.978108 1_656
La2 O18 3.084208 1_655
La2 O4 3.150435 1_655
La3 O4 2.443508 1_655
La3 O17 2.524605 1_655
La3 O35 2.525919 1_655
La3 O32 2.603695 1_555
La3 O14 2.639791 1_555
La3 O2 2.719303 1_555
La3 O2 2.848534 1_655
La3 O21 2.879485 1_555
La3 O28 2.880086 1_555
La3 O5 3.051203 1_655
La3 O24 3.052626 1_655
La3 O19 3.077550 1_655
La4 O6 2.443508 1_555
La4 O25 2.524605 1_555
La4 O19 2.525919 1_555
La4 O22 2.603695 1_555
La4 O28 2.639791 1_555
La4 O10 2.719303 1_555
La4 O10 2.848534 1_455
La4 O31 2.879485 1_555
La4 O14 2.880086 1_565
La4 O7 3.051203 1_555
La4 O16 3.052626 1_555
La4 O35 3.077550 1_565
La5 O8 2.445352 1_556
La5 O18 2.507403 1_545
La5 O24 2.529987 1_555
La5 O27 2.577056 1_545
La5 O21 2.615171 1_555
La5 O9 2.744011 1_555
La5 O30 2.815524 1_556
La5 O9 2.857440 1_455
La5 O13 2.931031 1_555
La5 O15 2.978108 1_556
La5 O34 3.084208 1_555
La5 O6 3.150435 1_545
La6 O11 2.443508 1_455
La6 O28 2.524605 1_455
La6 O22 2.525919 1_455
La6 O19 2.603695 1_555
La6 O25 2.639791 1_555
La6 O7 2.719303 1_555
La6 O7 2.848534 1_455
La6 O33 2.879485 1_555
La6 O17 2.880086 1_555
La6 O10 3.051203 1_455
La6 O12 3.052626 1_455
La6 O32 3.077550 1_455
La7 O9 2.445352 1_454
La7 O23 2.507403 1_455
La7 O29 2.529987 1_455
La7 O26 2.577056 1_555
La7 O20 2.615171 1_555
La7 O8 2.744011 1_555
La7 O34 2.815524 1_554
La7 O8 2.857440 1_455
La7 O15 2.931031 1_555
La7 O13 2.978108 1_454
La7 O30 3.084208 1_455
La7 O11 3.150435 1_455
Mn0 O23 1.967009 1_555
Mn0 O34 1.967009 1_554
Mn0 O26 1.970885 1_555
Mn0 O13 1.970885 1_554
Mn0 O8 1.978812 1_555
Mn0 O1 1.978812 1_554
Mn1 O6 1.974861 1_545
Mn1 O24 1.979650 1_555
Mn1 O2 1.982135 1_555
Mn1 O21 1.984153 1_555
Mn1 O14 2.010423 1_555
Mn1 O35 2.020408 1_555
Mn2 O0 1.974861 1_565
Mn2 O12 1.979650 1_555
Mn2 O7 1.982135 1_555
Mn2 O33 1.984153 1_555
Mn2 O25 2.010423 1_555
Mn2 O22 2.020408 1_555
Mn3 O30 1.967009 1_455
Mn3 O18 1.967009 1_544
Mn3 O15 1.970885 1_555
Mn3 O27 1.970885 1_444
Mn3 O9 1.978812 1_454
Mn3 O3 1.978812 1_545
Mn4 O4 1.974861 1_555
Mn4 O16 1.979650 1_555
Mn4 O10 1.982135 1_455
Mn4 O31 1.984153 1_455
Mn4 O28 2.010423 1_455
Mn4 O19 2.020408 1_555
Mn5 O11 1.974861 1_555
Mn5 O29 1.979650 1_555
Mn5 O5 1.982135 1_655
Mn5 O20 1.984153 1_655
Mn5 O17 2.010423 1_655
Mn5 O32 2.020408 1_555
Mn6 O31 1.976451 1_555
Mn6 O6 1.976960 1_555
Mn6 O16 1.979613 1_555
Mn6 O1 1.995328 1_555
Mn6 O27 2.003956 1_555
Mn6 O18 2.012511 1_555
Mn7 O32 1.967607 1_555
Mn7 O19 1.967607 1_555
Mn7 O7 1.969285 1_555
Mn7 O2 1.969285 1_555
Mn7 O28 1.982293 1_555
Mn7 O17 1.982293 1_555
Mn8 O20 1.976451 1_555
Mn8 O0 1.976960 1_555
Mn8 O29 1.979613 1_555
Mn8 O8 1.995328 1_555
Mn8 O15 2.003956 1_555
Mn8 O30 2.012511 1_555
Mn9 O33 1.976451 1_655
Mn9 O11 1.976960 1_555
Mn9 O12 1.979613 1_555
Mn9 O3 1.995328 1_655
Mn9 O26 2.003956 1_655
Mn9 O23 2.012511 1_555
Mn10 O21 1.976451 1_455
Mn10 O4 1.976960 1_555
Mn10 O24 1.979613 1_555
Mn10 O9 1.995328 1_455
Mn10 O13 2.003956 1_455
Mn10 O34 2.012511 1_555
Mn11 O35 1.967607 1_555
Mn11 O22 1.967607 1_445
Mn11 O5 1.969285 1_555
Mn11 O10 1.969285 1_445
Mn11 O14 1.982293 1_455
Mn11 O25 1.982293 1_545
O0 Sr1 2.730622 1_555
O0 Sr1 2.853654 1_455
O1 Sr0 3.211681 1_555
O2 Sr0 2.512461 1_555
O3 Sr1 3.211681 1_465
O4 Sr0 2.730622 1_555
O4 Sr0 2.853654 1_455
O5 Sr1 2.512461 1_455
O6 Sr3 2.730622 1_555
O6 Sr3 2.853654 1_655
O7 Sr2 2.512461 1_555
O8 Sr2 3.211681 1_555
O9 Sr3 3.211681 1_645
O10 Sr3 2.512461 1_655
O11 Sr2 2.730622 1_555
O11 Sr2 2.853654 1_655
O12 Sr1 2.683528 1_565
O12 Sr2 2.839090 1_555
O13 Sr0 2.604441 1_555
O14 Sr3 3.079073 1_645
O15 Sr1 2.604441 1_455
O16 Sr0 2.683528 1_555
O16 Sr3 2.839090 1_555
O17 Sr2 3.079073 1_555
O18 Sr3 2.694027 1_555
O19 Sr0 2.925390 1_555
O20 Sr2 2.613078 1_555
O20 Sr1 2.977996 1_455
O21 Sr3 2.613078 1_645
O21 Sr0 2.977996 1_555
O22 Sr1 2.925390 1_565
O23 Sr2 2.694027 1_555
O24 Sr3 2.683528 1_545
O24 Sr0 2.839090 1_555
O25 Sr1 3.079073 1_465
O26 Sr2 2.604441 1_555
O27 Sr3 2.604441 1_655
O28 Sr0 3.079073 1_555
O29 Sr2 2.683528 1_555
O29 Sr1 2.839090 1_555
O30 Sr1 2.694027 1_555
O31 Sr0 2.613078 1_555
O31 Sr3 2.977996 1_655
O32 Sr2 2.925390 1_555
O33 Sr1 2.613078 1_465
O33 Sr2 2.977996 1_555
O34 Sr0 2.694027 1_555
O35 Sr3 2.925390 1_545
