# generated using pymatgen
data_Yb4SmS5
_symmetry_space_group_name_H-M   'P 1'
_cell_length_a   10.61752177
_cell_length_b   10.61752177
_cell_length_c   10.61752177
_cell_angle_alpha   158.39878246
_cell_angle_beta   149.16999574
_cell_angle_gamma   37.95814403
_symmetry_Int_Tables_number   1
_chemical_formula_structural   Yb4SmS5
_chemical_formula_sum   'Yb4 Sm1 S5'
_cell_volume   225.51401242
_cell_formula_units_Z   1
loop_
 _symmetry_equiv_pos_site_id
 _symmetry_equiv_pos_as_xyz
  1  'x, y, z'
loop_
 _atom_site_type_symbol
 _atom_site_label
 _atom_site_symmetry_multiplicity
 _atom_site_fract_x
 _atom_site_fract_y
 _atom_site_fract_z
 _atom_site_occupancy
  Yb  Yb0  1  0.10110300  0.60110300  0.50000000  1
  Yb  Yb1  1  0.70070600  0.20070600  0.50000000  1
  Yb  Yb2  1  0.29929400  0.79929400  0.50000000  1
  Yb  Yb3  1  0.89889700  0.39889700  0.50000000  1
  Sm  Sm0  1  0.50000000  0.00000000  0.50000000  1
  S  S0  1  0.80037700  0.80037700  0.00000000  1
  S  S1  1  0.39899200  0.39899200  0.00000000  1
  S  S2  1  0.00000000  0.00000000  0.00000000  1
  S  S3  1  0.60100900  0.60100800  0.00000000  1
  S  S4  1  0.19962300  0.19962300  0.00000000  1
loop_
_geom_bond_atom_site_label_1
_geom_bond_atom_site_label_2
_geom_bond_distance
_geom_bond_site_symmetry_2
S0 Yb3 2.805798 1_554
S0 Yb3 2.805798 1_565
S0 Yb1 2.822142 1_565
S0 Yb1 2.822142 1_554
S0 Yb2 2.822312 1_554
S0 Yb2 2.822312 1_655
S1 Yb3 2.822229 1_454
S1 Yb3 2.822229 1_555
S1 Yb2 2.822527 1_555
S1 Yb2 2.822527 1_544
S1 Sm0 2.841246 1_565
S1 Sm0 2.841246 1_554
S2 Sm0 2.822228 1_555
S2 Sm0 2.822228 1_454
S2 Yb3 2.842608 1_444
S2 Yb3 2.842608 1_455
S2 Yb0 2.842608 1_544
S2 Yb0 2.842608 1_555
S3 Yb0 2.822226 1_655
S3 Yb0 2.822231 1_554
S3 Yb1 2.822518 1_554
S3 Yb1 2.822521 1_565
S3 Sm0 2.841252 1_554
S3 Sm0 2.841255 1_565
S4 Yb0 2.805798 1_555
S4 Yb0 2.805798 1_544
S4 Yb2 2.822142 1_544
S4 Yb2 2.822142 1_555
S4 Yb1 2.822312 1_555
S4 Yb1 2.822312 1_454
