# generated using pymatgen
data_In5(GeN3)2
_symmetry_space_group_name_H-M   'P 1'
_cell_length_a   6.06351754
_cell_length_b   6.01773510
_cell_length_c   13.06220925
_cell_angle_alpha   90.00000060
_cell_angle_beta   93.61084832
_cell_angle_gamma   119.75054840
_symmetry_Int_Tables_number   1
_chemical_formula_structural   In5(GeN3)2
_chemical_formula_sum   'In10 Ge4 N12'
_cell_volume   412.71045604
_cell_formula_units_Z   2
loop_
 _symmetry_equiv_pos_site_id
 _symmetry_equiv_pos_as_xyz
  1  'x, y, z'
loop_
 _atom_site_type_symbol
 _atom_site_label
 _atom_site_symmetry_multiplicity
 _atom_site_fract_x
 _atom_site_fract_y
 _atom_site_fract_z
 _atom_site_occupancy
  In  In0  1  0.00000000  0.46055051  0.75000000  1
  In  In1  1  1.00000000  0.53944949  0.25000000  1
  In  In2  1  0.14019840  0.72267756  0.94879077  1
  In  In3  1  0.85980160  0.58247916  0.55120923  1
  In  In4  1  0.85980160  0.27732244  0.05120923  1
  In  In5  1  0.14019840  0.41752084  0.44879077  1
  In  In6  1  0.29049471  0.12317588  0.69451641  1
  In  In7  1  0.70950529  0.83268117  0.80548359  1
  In  In8  1  0.70950529  0.87682412  0.30548359  1
  In  In9  1  0.29049471  0.16731883  0.19451641  1
  Ge  Ge0  1  0.60725038  0.94555886  0.58767937  1
  Ge  Ge1  1  0.39274962  0.33830848  0.91232063  1
  Ge  Ge2  1  0.39274962  0.05444114  0.41232063  1
  Ge  Ge3  1  0.60725038  0.66169152  0.08767937  1
  N  N0  1  0.42492693  0.84916726  0.70339058  1
  N  N1  1  0.57507307  0.42424033  0.79660942  1
  N  N2  1  0.57507307  0.15083274  0.29660942  1
  N  N3  1  0.42492693  0.57575967  0.20339058  1
  N  N4  1  0.51228617  0.20804297  0.54517931  1
  N  N5  1  0.48771383  0.69575680  0.95482069  1
  N  N6  1  0.48771383  0.79195703  0.45482069  1
  N  N7  1  0.51228617  0.30424320  0.04517931  1
  N  N8  1  0.89220451  0.91529605  0.62986087  1
  N  N9  1  0.10779549  0.02309055  0.87013913  1
  N  N10  1  0.10779549  0.08470395  0.37013913  1
  N  N11  1  0.89220451  0.97690945  0.12986087  1
loop_
_geom_bond_atom_site_label_1
_geom_bond_atom_site_label_2
_geom_bond_distance
_geom_bond_site_symmetry_2
In0 N0 2.587639 1_555
In0 N1 2.587639 1_455
In1 N2 2.587639 1_555
In1 N3 2.587639 1_655
In2 N9 2.165485 1_565
In2 N5 2.188716 1_555
In3 N8 2.165490 1_555
In3 N4 2.188716 1_555
In4 N11 2.165485 1_545
In4 N7 2.188716 1_555
In5 N10 2.165490 1_555
In5 N6 2.188716 1_555
In6 N1 2.155408 1_555
In6 N0 2.172284 1_545
In6 N8 2.203488 1_445
In6 N4 2.350177 1_555
In6 N9 2.551554 1_555
In7 N0 2.155408 1_555
In7 N1 2.172284 1_555
In7 N9 2.203488 1_665
In7 N5 2.350177 1_555
In7 N8 2.551554 1_555
In8 N3 2.155408 1_555
In8 N2 2.172284 1_565
In8 N10 2.203488 1_665
In8 N6 2.350177 1_555
In8 N11 2.551554 1_555
In9 N2 2.155408 1_555
In9 N3 2.172284 1_555
In9 N11 2.203488 1_445
In9 N7 2.350177 1_555
In9 N10 2.551554 1_555
Ge0 N0 1.848554 1_555
Ge0 N8 1.874699 1_555
Ge0 N6 1.888944 1_555
Ge0 N4 1.999291 1_565
Ge1 N1 1.848554 1_555
Ge1 N9 1.874702 1_555
Ge1 N7 1.888944 1_556
Ge1 N5 1.999291 1_555
Ge2 N2 1.848554 1_555
Ge2 N10 1.874699 1_555
Ge2 N4 1.888944 1_555
Ge2 N6 1.999291 1_545
Ge3 N3 1.848554 1_555
Ge3 N11 1.874702 1_555
Ge3 N5 1.888944 1_554
Ge3 N7 1.999291 1_555
