# generated using pymatgen
data_TiZnAg(PO4)3
_symmetry_space_group_name_H-M   'P 1'
_cell_length_a   8.58546197
_cell_length_b   8.58546469
_cell_length_c   8.58546481
_cell_angle_alpha   61.73343720
_cell_angle_beta   61.73338471
_cell_angle_gamma   61.73337154
_symmetry_Int_Tables_number   1
_chemical_formula_structural   TiZnAg(PO4)3
_chemical_formula_sum   'Ti2 Zn2 Ag2 P6 O24'
_cell_volume   464.86576133
_cell_formula_units_Z   2
loop_
 _symmetry_equiv_pos_site_id
 _symmetry_equiv_pos_as_xyz
  1  'x, y, z'
loop_
 _atom_site_type_symbol
 _atom_site_label
 _atom_site_symmetry_multiplicity
 _atom_site_fract_x
 _atom_site_fract_y
 _atom_site_fract_z
 _atom_site_occupancy
  Ti  Ti0  1  0.14541600  0.14541900  0.14541800  1
  Ti  Ti1  1  0.64540900  0.64540800  0.64540900  1
  Zn  Zn0  1  0.99575100  0.99575100  0.99575100  1
  Zn  Zn1  1  0.49576300  0.49576300  0.49576300  1
  Ag  Ag0  1  0.35083000  0.35082900  0.35083000  1
  Ag  Ag1  1  0.85077500  0.85077400  0.85077400  1
  P  P0  1  0.04769900  0.44506700  0.75620400  1
  P  P1  1  0.44506700  0.75620300  0.04769900  1
  P  P2  1  0.75620200  0.04769900  0.44506600  1
  P  P3  1  0.25623600  0.94514000  0.54766700  1
  P  P4  1  0.54766800  0.25623600  0.94514000  1
  P  P5  1  0.94513900  0.54766800  0.25623700  1
  O  O0  1  0.09115400  0.53138100  0.32015300  1
  O  O1  1  0.32015300  0.09115400  0.53138000  1
  O  O2  1  0.05115500  0.25343800  0.91702300  1
  O  O3  1  0.53138000  0.32015300  0.09115300  1
  O  O4  1  0.03149400  0.59103200  0.82012100  1
  O  O5  1  0.24078800  0.42698200  0.60048900  1
  O  O6  1  0.25343900  0.91702200  0.05115500  1
  O  O7  1  0.42698200  0.60049000  0.24078700  1
  O  O8  1  0.19289600  0.00563500  0.37789200  1
  O  O9  1  0.60048900  0.24078800  0.42698200  1
  O  O10  1  0.10060200  0.92699100  0.74074400  1
  O  O11  1  0.37789200  0.19289600  0.00563600  1
  O  O12  1  0.59103400  0.82012100  0.03149300  1
  O  O13  1  0.91702100  0.05115500  0.25343900  1
  O  O14  1  0.41703200  0.75346000  0.55115100  1
  O  O15  1  0.82012100  0.03149400  0.59103300  1
  O  O16  1  0.55115100  0.41703200  0.75346000  1
  O  O17  1  0.74074400  0.10060300  0.92699100  1
  O  O18  1  0.75346000  0.55115100  0.41703200  1
  O  O19  1  0.00563600  0.37789200  0.19289600  1
  O  O20  1  0.50563000  0.69289500  0.87789400  1
  O  O21  1  0.92699200  0.74074400  0.10060300  1
  O  O22  1  0.69289500  0.87789500  0.50563000  1
  O  O23  1  0.87789500  0.50563000  0.69289500  1
loop_
_geom_bond_atom_site_label_1
_geom_bond_atom_site_label_2
_geom_bond_distance
_geom_bond_site_symmetry_2
Ag0 O1 2.082981 1_555
Ag0 O0 2.082989 1_555
Ag0 O3 2.082991 1_555
Ag0 O9 2.176838 1_555
Ag0 O5 2.176841 1_555
Ag0 O7 2.176852 1_555
Ag1 O12 2.083620 1_556
Ag1 O15 2.083626 1_565
Ag1 O4 2.083627 1_655
Ag1 O10 2.178497 1_655
Ag1 O17 2.178511 1_565
Ag1 O21 2.178514 1_556
O0 P5 1.518242 1_455
O1 P3 1.518240 1_545
O2 P0 1.566858 1_555
O2 Ti0 2.104709 1_556
O2 Zn0 2.203077 1_445
O3 P4 1.518228 1_554
O4 P0 1.518170 1_555
O5 P0 1.553460 1_555
O5 Zn1 2.192362 1_555
O6 P1 1.566850 1_555
O6 Ti0 2.104727 1_565
O6 Zn0 2.203082 1_454
O7 P1 1.553450 1_555
O7 Zn1 2.192369 1_555
O8 P3 1.567251 1_545
O8 Ti0 1.904885 1_555
O9 P2 1.553454 1_555
O9 Zn1 2.192362 1_555
O10 P3 1.553119 1_555
O10 Zn0 2.192315 1_455
O11 P4 1.567256 1_554
O11 Ti0 1.904887 1_555
O12 P1 1.518188 1_555
O13 P2 1.566846 1_555
O13 Ti0 2.104721 1_655
O13 Zn0 2.203080 1_544
O14 P3 1.567037 1_555
O14 Ti1 2.104500 1_555
O14 Zn1 2.203076 1_555
O15 P2 1.518199 1_555
O16 P4 1.567039 1_555
O16 Ti1 2.104495 1_555
O16 Zn1 2.203077 1_555
O17 P4 1.553110 1_555
O17 Zn0 2.192313 1_545
O18 P5 1.567029 1_555
O18 Ti1 2.104496 1_555
O18 Zn1 2.203076 1_555
O19 P5 1.567259 1_455
O19 Ti0 1.904868 1_555
O20 P1 1.567159 1_556
O20 Ti1 1.904987 1_555
O21 P5 1.553115 1_555
O21 Zn0 2.192310 1_554
O22 P2 1.567144 1_565
O22 Ti1 1.905000 1_555
O23 P0 1.567156 1_655
O23 Ti1 1.904990 1_555
