# generated using pymatgen
data_BaMg6Zn
_symmetry_space_group_name_H-M   'P 1'
_cell_length_a   7.78733568
_cell_length_b   7.78733568
_cell_length_c   5.02102500
_cell_angle_alpha   90.00000000
_cell_angle_beta   90.00000000
_cell_angle_gamma   133.80537244
_symmetry_Int_Tables_number   1
_chemical_formula_structural   BaMg6Zn
_chemical_formula_sum   'Ba1 Mg6 Zn1'
_cell_volume   219.74756296
_cell_formula_units_Z   1
loop_
 _symmetry_equiv_pos_site_id
 _symmetry_equiv_pos_as_xyz
  1  'x, y, z'
loop_
 _atom_site_type_symbol
 _atom_site_label
 _atom_site_symmetry_multiplicity
 _atom_site_fract_x
 _atom_site_fract_y
 _atom_site_fract_z
 _atom_site_occupancy
  Ba  Ba0  1  0.29276600  0.70723400  0.50000000  1
  Mg  Mg0  1  0.32341400  0.19766000  0.50000000  1
  Mg  Mg1  1  0.80234000  0.67658600  0.50000000  1
  Mg  Mg2  1  0.17434800  0.31886000  0.00000000  1
  Mg  Mg3  1  0.68114000  0.82565200  0.00000000  1
  Mg  Mg4  1  0.70284700  0.29715300  0.00000000  1
  Mg  Mg5  1  0.12514200  0.87485800  0.00000000  1
  Zn  Zn0  1  0.89801200  0.10198800  0.50000000  1
loop_
_geom_bond_atom_site_label_1
_geom_bond_atom_site_label_2
_geom_bond_distance
_geom_bond_site_symmetry_2
Ba0 Zn0 3.406751 1_565
Ba0 Zn0 3.406751 1_455
Ba0 Mg5 3.474114 1_556
Ba0 Mg5 3.474114 1_555
Ba0 Mg3 3.526884 1_555
Ba0 Mg3 3.526884 1_556
Ba0 Mg2 3.526884 1_555
Ba0 Mg2 3.526884 1_556
Ba0 Mg0 3.657962 1_565
Ba0 Mg1 3.657962 1_455
Mg0 Zn0 2.848242 1_455
Mg0 Mg5 3.103600 1_546
Mg0 Mg5 3.103600 1_545
Mg1 Zn0 2.848242 1_565
Mg1 Mg5 3.103600 1_655
Mg1 Mg5 3.103600 1_656
Mg2 Zn0 2.958765 1_455
Mg2 Zn0 2.958765 1_454
Mg2 Mg5 3.204304 1_545
Mg3 Zn0 2.958765 1_564
Mg3 Zn0 2.958765 1_565
Mg3 Mg5 3.204304 1_655
Mg4 Mg5 3.251434 1_545
Mg4 Mg5 3.251434 1_655
