# generated using pymatgen
data_Sr4Mn2Nb4Bi4O23
_symmetry_space_group_name_H-M   'P 1'
_cell_length_a   5.60957713
_cell_length_b   5.61004213
_cell_length_c   16.53841936
_cell_angle_alpha   89.95958602
_cell_angle_beta   80.23588643
_cell_angle_gamma   89.76169849
_symmetry_Int_Tables_number   1
_chemical_formula_structural   Sr4Mn2Nb4Bi4O23
_chemical_formula_sum   'Sr4 Mn2 Nb4 Bi4 O23'
_cell_volume   512.91975540
_cell_formula_units_Z   1
loop_
 _symmetry_equiv_pos_site_id
 _symmetry_equiv_pos_as_xyz
  1  'x, y, z'
loop_
 _atom_site_type_symbol
 _atom_site_label
 _atom_site_symmetry_multiplicity
 _atom_site_fract_x
 _atom_site_fract_y
 _atom_site_fract_z
 _atom_site_occupancy
  Sr  Sr0  1  0.43173700  0.49062400  0.11776200  1
  Sr  Sr1  1  0.95050100  0.00937600  0.11776200  1
  Sr  Sr2  1  0.06826300  0.00937600  0.88223800  1
  Sr  Sr3  1  0.54949900  0.49062400  0.88223800  1
  Mn  Mn0  1  0.49489200  0.00510900  0.00000000  1
  Mn  Mn1  1  0.00510800  0.49489100  0.00000000  1
  Nb  Nb0  1  0.12360600  0.50173000  0.74930700  1
  Nb  Nb1  1  0.62708700  0.99827000  0.74930700  1
  Nb  Nb2  1  0.37639400  0.99827000  0.25069300  1
  Nb  Nb3  1  0.87291300  0.50173000  0.25069300  1
  Bi  Bi0  1  0.28677000  0.49947100  0.42487400  1
  Bi  Bi1  1  0.78835500  0.00052900  0.42487400  1
  Bi  Bi2  1  0.21323000  0.00052900  0.57512600  1
  Bi  Bi3  1  0.71164500  0.49947100  0.57512600  1
  O  O0  1  0.18812900  0.49562200  0.63241900  1
  O  O1  1  0.67945200  0.00437800  0.63241900  1
  O  O2  1  0.31187100  0.00437800  0.36758100  1
  O  O3  1  0.82054800  0.49562200  0.36758100  1
  O  O4  1  0.13484000  0.25000000  0.23032100  1
  O  O5  1  0.62808400  0.75000000  0.24383300  1
  O  O6  1  0.86921000  0.25000000  0.76157900  1
  O  O7  1  0.36921500  0.75000000  0.76157100  1
  O  O8  1  0.36516000  0.25000000  0.76967900  1
  O  O9  1  0.87191600  0.75000000  0.75616700  1
  O  O10  1  0.63079000  0.25000000  0.23842100  1
  O  O11  1  0.13078500  0.75000000  0.23842900  1
  O  O12  1  0.03355900  0.52544200  0.88202500  1
  O  O13  1  0.58441600  0.97455800  0.88202500  1
  O  O14  1  0.46644100  0.97455800  0.11797500  1
  O  O15  1  0.91558400  0.52544200  0.11797500  1
  O  O16  1  0.99999700  0.25000000  0.50000500  1
  O  O17  1  0.50012400  0.75000000  0.49975200  1
  O  O18  1  0.50000300  0.25000000  0.49999500  1
  O  O19  1  0.99987600  0.75000000  0.50024800  1
  O  O20  1  0.25000000  0.25000000  0.00000000  1
  O  O21  1  0.25000000  0.75000000  0.00000000  1
  O  O22  1  0.75000000  0.25000000  0.00000000  1
loop_
_geom_bond_atom_site_label_1
_geom_bond_atom_site_label_2
_geom_bond_distance
_geom_bond_site_symmetry_2
Mn0 O14 1.938002 1_545
Mn0 O13 1.938002 1_544
Mn0 O20 1.938795 1_555
Mn0 O22 1.987892 1_555
Mn0 O21 1.987906 1_545
Mn1 O12 1.938002 1_554
Mn1 O15 1.938002 1_455
Mn1 O20 1.938795 1_555
Mn1 O22 1.987892 1_455
Mn1 O21 1.987906 1_555
Nb0 O0 1.905751 1_555
Nb0 O9 1.968680 1_455
Nb0 O6 1.997536 1_455
Nb0 O7 1.997604 1_555
Nb0 O8 2.020445 1_555
Nb0 O12 2.171273 1_555
Nb1 O1 1.905751 1_565
Nb1 O9 1.968676 1_555
Nb1 O6 1.997532 1_565
Nb1 O7 1.997600 1_555
Nb1 O8 2.020449 1_565
Nb1 O13 2.171273 1_555
Nb2 O2 1.905751 1_565
Nb2 O5 1.968680 1_555
Nb2 O10 1.997536 1_565
Nb2 O11 1.997604 1_555
Nb2 O4 2.020445 1_565
Nb2 O14 2.171273 1_555
Nb3 O3 1.905751 1_555
Nb3 O5 1.968676 1_555
Nb3 O10 1.997532 1_555
Nb3 O11 1.997600 1_655
Nb3 O4 2.020449 1_655
Nb3 O15 2.171273 1_555
Bi0 O18 2.328235 1_555
Bi0 O19 2.328629 1_455
Bi0 O16 2.329973 1_455
Bi0 O17 2.336763 1_555
Bi1 O18 2.328228 1_555
Bi1 O19 2.328632 1_545
Bi1 O16 2.329973 1_555
Bi1 O17 2.336760 1_545
Bi2 O16 2.328235 1_455
Bi2 O17 2.328629 1_545
Bi2 O18 2.329973 1_555
Bi2 O19 2.336763 1_445
Bi3 O16 2.328228 1_555
Bi3 O17 2.328632 1_555
Bi3 O18 2.329973 1_555
Bi3 O19 2.336760 1_555
O4 Sr0 2.650465 1_555
O4 Sr1 2.650468 1_455
O5 Sr1 2.911064 1_565
O5 Sr0 2.911067 1_555
O6 Sr3 2.791153 1_555
O6 Sr2 2.791155 1_655
O7 Sr3 2.791220 1_555
O7 Sr2 2.791222 1_565
O8 Sr2 2.650465 1_555
O8 Sr3 2.650468 1_555
O9 Sr3 2.911064 1_555
O9 Sr2 2.911067 1_665
O10 Sr1 2.791153 1_555
O10 Sr0 2.791155 1_555
O11 Sr1 2.791220 1_465
O11 Sr0 2.791222 1_555
O12 Sr3 2.722605 1_455
O12 Sr2 2.722716 1_565
O12 Sr3 2.900577 1_555
O12 Sr2 2.900922 1_555
O13 Sr2 2.722605 1_665
O13 Sr3 2.722716 1_555
O13 Sr2 2.900577 1_565
O13 Sr3 2.900922 1_565
O14 Sr1 2.722605 1_565
O14 Sr0 2.722716 1_555
O14 Sr1 2.900577 1_465
O14 Sr0 2.900922 1_565
O15 Sr0 2.722605 1_555
O15 Sr1 2.722716 1_565
O15 Sr0 2.900577 1_655
O15 Sr1 2.900922 1_555
O20 Sr0 2.709856 1_555
O20 Sr2 2.709856 1_554
O20 Sr1 2.709856 1_455
O20 Sr3 2.709856 1_554
O21 Sr0 2.758063 1_555
O21 Sr2 2.758063 1_564
O21 Sr1 2.758063 1_465
O21 Sr3 2.758063 1_554
O22 Sr1 2.758089 1_555
O22 Sr3 2.758089 1_554
O22 Sr0 2.758089 1_555
O22 Sr2 2.758089 1_654
