# generated using pymatgen
data_Fe5NiO8
_symmetry_space_group_name_H-M   'P 1'
_cell_length_a   6.03426756
_cell_length_b   6.03426756
_cell_length_c   6.03426825
_cell_angle_alpha   59.96159212
_cell_angle_beta   59.96159212
_cell_angle_gamma   59.96159082
_symmetry_Int_Tables_number   1
_chemical_formula_structural   Fe5NiO8
_chemical_formula_sum   'Fe5 Ni1 O8'
_cell_volume   155.23165786
_cell_formula_units_Z   1
loop_
 _symmetry_equiv_pos_site_id
 _symmetry_equiv_pos_as_xyz
  1  'x, y, z'
loop_
 _atom_site_type_symbol
 _atom_site_label
 _atom_site_symmetry_multiplicity
 _atom_site_fract_x
 _atom_site_fract_y
 _atom_site_fract_z
 _atom_site_occupancy
  Fe  Fe0  1  0.12420600  0.12420600  0.12420600  1
  Fe  Fe1  1  0.87579400  0.87579300  0.87579300  1
  Fe  Fe2  1  0.00000000  0.50000000  0.50000000  1
  Fe  Fe3  1  0.50000000  0.50000000  0.00000000  1
  Fe  Fe4  1  0.50000000  0.00000000  0.50000000  1
  Ni  Ni0  1  0.50000000  0.50000000  0.50000000  1
  O  O0  1  0.25600800  0.25600800  0.25600800  1
  O  O1  1  0.73047100  0.25509600  0.25509600  1
  O  O2  1  0.25509600  0.25509600  0.73047100  1
  O  O3  1  0.25509600  0.73047100  0.25509600  1
  O  O4  1  0.74399200  0.74399200  0.74399200  1
  O  O5  1  0.26952900  0.74490400  0.74490400  1
  O  O6  1  0.74490400  0.74490400  0.26952900  1
  O  O7  1  0.74490400  0.26952900  0.74490400  1
loop_
_geom_bond_atom_site_label_1
_geom_bond_atom_site_label_2
_geom_bond_distance
_geom_bond_site_symmetry_2
Fe0 O1 1.938983 1_455
Fe0 O3 1.938983 1_545
Fe0 O2 1.938983 1_554
Fe0 O0 1.948714 1_555
Fe1 O5 1.938983 1_655
Fe1 O7 1.938988 1_565
Fe1 O6 1.938988 1_556
Fe1 O4 1.948705 1_555
Fe2 O3 2.072610 1_555
Fe2 O7 2.072610 1_455
Fe2 O2 2.072610 1_555
Fe2 O6 2.072610 1_455
Fe2 O4 2.082764 1_455
Fe2 O0 2.082764 1_555
Fe3 O1 2.072610 1_555
Fe3 O3 2.072610 1_555
Fe3 O7 2.072610 1_554
Fe3 O5 2.072610 1_554
Fe3 O0 2.082764 1_555
Fe3 O4 2.082764 1_554
Fe4 O1 2.072610 1_555
Fe4 O5 2.072610 1_545
Fe4 O2 2.072610 1_555
Fe4 O6 2.072610 1_545
Fe4 O0 2.082764 1_555
Fe4 O4 2.082764 1_545
Ni0 O6 2.091227 1_555
Ni0 O2 2.091227 1_555
Ni0 O7 2.091227 1_555
Ni0 O5 2.091227 1_555
Ni0 O3 2.091227 1_555
Ni0 O1 2.091227 1_555
