# generated using pymatgen
data_La3Ir2
_symmetry_space_group_name_H-M   'P 1'
_cell_length_a   7.77655753
_cell_length_b   7.77655731
_cell_length_c   7.77655777
_cell_angle_alpha   69.79921718
_cell_angle_beta   69.79921173
_cell_angle_gamma   69.79920825
_symmetry_Int_Tables_number   1
_chemical_formula_structural   La3Ir2
_chemical_formula_sum   'La9 Ir6'
_cell_volume   400.33211417
_cell_formula_units_Z   3
loop_
 _symmetry_equiv_pos_site_id
 _symmetry_equiv_pos_as_xyz
  1  'x, y, z'
loop_
 _atom_site_type_symbol
 _atom_site_label
 _atom_site_symmetry_multiplicity
 _atom_site_fract_x
 _atom_site_fract_y
 _atom_site_fract_z
 _atom_site_occupancy
  La  La0  1  -0.00000000  -0.00000000  0.00000000  1
  La  La1  1  0.80321868  0.80321868  0.80321868  1
  La  La2  1  0.19678132  0.19678132  0.19678132  1
  La  La3  1  0.39497616  0.15240650  0.67289882  1
  La  La4  1  0.15240650  0.67289882  0.39497616  1
  La  La5  1  0.67289882  0.39497616  0.15240650  1
  La  La6  1  0.60502384  0.84759350  0.32710118  1
  La  La7  1  0.84759350  0.32710118  0.60502384  1
  La  La8  1  0.32710118  0.60502384  0.84759350  1
  Ir  Ir0  1  0.17239400  0.95341622  0.58867273  1
  Ir  Ir1  1  0.95341622  0.58867273  0.17239400  1
  Ir  Ir2  1  0.58867273  0.17239400  0.95341622  1
  Ir  Ir3  1  0.82760600  0.04658378  0.41132727  1
  Ir  Ir4  1  0.04658378  0.41132727  0.82760600  1
  Ir  Ir5  1  0.41132727  0.82760600  0.04658378  1
loop_
_geom_bond_atom_site_label_1
_geom_bond_atom_site_label_2
_geom_bond_distance
_geom_bond_site_symmetry_2
La0 La2 3.446317 1_555
La0 La1 3.446317 1_444
La0 La5 3.513652 1_455
La0 La8 3.513652 1_544
La0 La6 3.513652 1_445
La0 La3 3.513652 1_554
La0 La7 3.513652 1_454
La0 La4 3.513652 1_545
Ir0 La8 2.914848 1_555
Ir0 La2 2.961553 1_565
Ir0 La3 3.025321 1_565
Ir0 La0 3.108625 1_566
Ir0 La4 3.117216 1_555
Ir0 La7 3.131281 1_465
Ir0 La1 3.170496 1_455
Ir0 Ir3 3.184058 1_465
Ir0 La6 3.263670 1_555
Ir1 La6 2.914847 1_555
Ir1 La2 2.961553 1_655
Ir1 La4 3.025321 1_655
Ir1 La0 3.108625 1_665
Ir1 La5 3.117216 1_555
Ir1 La8 3.131282 1_654
Ir1 La1 3.170496 1_554
Ir1 Ir4 3.184057 1_654
Ir1 La7 3.263671 1_555
Ir2 La7 2.914848 1_555
Ir2 La2 2.961553 1_556
Ir2 La5 3.025321 1_556
Ir2 La0 3.108625 1_656
Ir2 La3 3.117216 1_555
Ir2 La6 3.131282 1_546
Ir2 La1 3.170495 1_545
Ir2 Ir5 3.184058 1_546
Ir2 La8 3.263670 1_555
Ir3 La5 2.914848 1_555
Ir3 La1 2.961553 1_545
Ir3 La6 3.025321 1_545
Ir3 La0 3.108625 1_655
Ir3 La7 3.117216 1_555
Ir3 La4 3.131281 1_645
Ir3 La2 3.170496 1_655
Ir3 La3 3.263670 1_555
Ir4 La3 2.914847 1_555
Ir4 La1 2.961553 1_455
Ir4 La7 3.025321 1_455
Ir4 La0 3.108625 1_556
Ir4 La8 3.117216 1_555
Ir4 La5 3.131282 1_456
Ir4 La2 3.170496 1_556
Ir4 La4 3.263671 1_555
Ir5 La4 2.914848 1_555
Ir5 La1 2.961553 1_554
Ir5 La8 3.025321 1_554
Ir5 La0 3.108625 1_565
Ir5 La6 3.117216 1_555
Ir5 La3 3.131282 1_564
Ir5 La2 3.170495 1_565
Ir5 La5 3.263670 1_555
