# generated using pymatgen
data_K2ScSn(AsO4)3
_symmetry_space_group_name_H-M   'P 1'
_cell_length_a   10.57720700
_cell_length_b   10.57720700
_cell_length_c   10.57720700
_cell_angle_alpha   90.00000000
_cell_angle_beta   90.00000000
_cell_angle_gamma   90.00000000
_symmetry_Int_Tables_number   1
_chemical_formula_structural   K2ScSn(AsO4)3
_chemical_formula_sum   'K8 Sc4 Sn4 As12 O48'
_cell_volume   1183.34944448
_cell_formula_units_Z   4
loop_
 _symmetry_equiv_pos_site_id
 _symmetry_equiv_pos_as_xyz
  1  'x, y, z'
loop_
 _atom_site_type_symbol
 _atom_site_label
 _atom_site_symmetry_multiplicity
 _atom_site_fract_x
 _atom_site_fract_y
 _atom_site_fract_z
 _atom_site_occupancy
  K  K0  1  0.81855900  0.81855900  0.81855900  1
  K  K1  1  0.68144100  0.18144100  0.31855900  1
  K  K2  1  0.18144100  0.31855900  0.68144100  1
  K  K3  1  0.31855900  0.68144100  0.18144100  1
  K  K4  1  0.04592400  0.04592400  0.04592400  1
  K  K5  1  0.45407600  0.95407600  0.54592400  1
  K  K6  1  0.95407600  0.54592400  0.45407600  1
  K  K7  1  0.54592400  0.45407600  0.95407600  1
  Sc  Sc0  1  0.61061000  0.61061000  0.61061000  1
  Sc  Sc1  1  0.88939000  0.38939000  0.11061000  1
  Sc  Sc2  1  0.38939000  0.11061000  0.88939000  1
  Sc  Sc3  1  0.11061000  0.88939000  0.38939000  1
  Sn  Sn0  1  0.33736100  0.33736100  0.33736100  1
  Sn  Sn1  1  0.16263900  0.66263900  0.83736100  1
  Sn  Sn2  1  0.66263900  0.83736100  0.16263900  1
  Sn  Sn3  1  0.83736100  0.16263900  0.66263900  1
  As  As0  1  0.02588700  0.20588200  0.37895400  1
  As  As1  1  0.47411300  0.79411800  0.87895400  1
  As  As2  1  0.97411300  0.70588200  0.12104600  1
  As  As3  1  0.37895400  0.02588700  0.20588200  1
  As  As4  1  0.52588700  0.29411800  0.62104600  1
  As  As5  1  0.87895400  0.47411300  0.79411800  1
  As  As6  1  0.12104600  0.97411300  0.70588200  1
  As  As7  1  0.62104600  0.52588700  0.29411800  1
  As  As8  1  0.20588200  0.37895400  0.02588700  1
  As  As9  1  0.70588200  0.12104600  0.97411300  1
  As  As10  1  0.29411800  0.62104600  0.52588700  1
  As  As11  1  0.79411800  0.87895400  0.47411300  1
  O  O0  1  0.05337100  0.80428600  0.22066000  1
  O  O1  1  0.44662900  0.19571400  0.72066000  1
  O  O2  1  0.94662900  0.30428600  0.27934000  1
  O  O3  1  0.22066000  0.05337100  0.80428600  1
  O  O4  1  0.55337100  0.69571400  0.77934000  1
  O  O5  1  0.72066000  0.44662900  0.19571400  1
  O  O6  1  0.27934000  0.94662900  0.30428600  1
  O  O7  1  0.77934000  0.55337100  0.69571400  1
  O  O8  1  0.80428600  0.22066000  0.05337100  1
  O  O9  1  0.30428600  0.27934000  0.94662900  1
  O  O10  1  0.69571400  0.77934000  0.55337100  1
  O  O11  1  0.19571400  0.72066000  0.44662900  1
  O  O12  1  0.18161100  0.24396800  0.40982000  1
  O  O13  1  0.31838900  0.75603200  0.90982000  1
  O  O14  1  0.81838900  0.74396800  0.09018000  1
  O  O15  1  0.40982000  0.18161100  0.24396800  1
  O  O16  1  0.68161100  0.25603200  0.59018000  1
  O  O17  1  0.90982000  0.31838900  0.75603200  1
  O  O18  1  0.09018000  0.81838900  0.74396800  1
  O  O19  1  0.59018000  0.68161100  0.25603200  1
  O  O20  1  0.24396800  0.40982000  0.18161100  1
  O  O21  1  0.74396800  0.09018000  0.81838900  1
  O  O22  1  0.25603200  0.59018000  0.68161100  1
  O  O23  1  0.75603200  0.90982000  0.31838900  1
  O  O24  1  0.01635900  0.05467200  0.32434300  1
  O  O25  1  0.48364100  0.94532800  0.82434300  1
  O  O26  1  0.98364100  0.55467200  0.17565700  1
  O  O27  1  0.32434300  0.01635900  0.05467200  1
  O  O28  1  0.51635900  0.44532800  0.67565700  1
  O  O29  1  0.82434300  0.48364100  0.94532800  1
  O  O30  1  0.17565700  0.98364100  0.55467200  1
  O  O31  1  0.67565700  0.51635900  0.44532800  1
  O  O32  1  0.05467200  0.32434300  0.01635900  1
  O  O33  1  0.55467200  0.17565700  0.98364100  1
  O  O34  1  0.44532800  0.67565700  0.51635900  1
  O  O35  1  0.94532800  0.82434300  0.48364100  1
  O  O36  1  0.26427000  0.47587300  0.45625300  1
  O  O37  1  0.23573000  0.52412700  0.95625300  1
  O  O38  1  0.73573000  0.97587300  0.04374700  1
  O  O39  1  0.45625300  0.26427000  0.47587300  1
  O  O40  1  0.76427000  0.02412700  0.54374700  1
  O  O41  1  0.95625300  0.23573000  0.52412700  1
  O  O42  1  0.04374700  0.73573000  0.97587300  1
  O  O43  1  0.54374700  0.76427000  0.02412700  1
  O  O44  1  0.47587300  0.45625300  0.26427000  1
  O  O45  1  0.97587300  0.04374700  0.73573000  1
  O  O46  1  0.02412700  0.54374700  0.76427000  1
  O  O47  1  0.52412700  0.95625300  0.23573000  1
loop_
_geom_bond_atom_site_label_1
_geom_bond_atom_site_label_2
_geom_bond_distance
_geom_bond_site_symmetry_2
K0 O14 2.979354 1_556
K0 O21 2.979354 1_565
K0 O18 2.979354 1_655
K0 O38 3.034718 1_556
K0 O45 3.034718 1_565
K0 O42 3.034718 1_655
K0 O10 3.118998 1_555
K0 O7 3.118998 1_555
K0 O4 3.118998 1_555
K1 O15 2.979354 1_555
K1 O23 2.979354 1_545
K1 O16 2.979354 1_555
K1 O39 3.034718 1_555
K1 O47 3.034718 1_545
K1 O40 3.034718 1_555
K1 O8 3.118998 1_555
K1 O5 3.118998 1_555
K1 O2 3.118998 1_555
K2 O12 2.979354 1_555
K2 O17 2.979354 1_455
K2 O22 2.979354 1_555
K2 O36 3.034718 1_555
K2 O41 3.034718 1_455
K2 O46 3.034718 1_555
K2 O3 3.118998 1_555
K2 O1 3.118998 1_555
K2 O9 3.118998 1_555
K3 O20 2.979354 1_555
K3 O13 2.979354 1_554
K3 O19 2.979354 1_555
K3 O44 3.034718 1_555
K3 O37 3.034718 1_554
K3 O43 3.034718 1_555
K3 O0 3.118998 1_555
K3 O11 3.118998 1_555
K3 O6 3.118998 1_555
K4 O32 2.962897 1_555
K4 O27 2.962897 1_555
K4 O24 2.962897 1_555
K4 O3 3.155077 1_554
K4 O0 3.155077 1_545
K4 O8 3.155077 1_455
K4 O45 3.363688 1_454
K4 O42 3.363688 1_544
K4 O38 3.363688 1_445
K5 O30 2.962897 1_555
K5 O25 2.962897 1_555
K5 O34 2.962897 1_555
K5 O1 3.155077 1_565
K5 O6 3.155077 1_555
K5 O10 3.155077 1_555
K5 O39 3.363688 1_565
K5 O47 3.363688 1_555
K5 O40 3.363688 1_565
K6 O26 2.962897 1_555
K6 O35 2.962897 1_555
K6 O31 2.962897 1_555
K6 O11 3.155077 1_655
K6 O2 3.155077 1_555
K6 O7 3.155077 1_555
K6 O41 3.363688 1_555
K6 O36 3.363688 1_655
K6 O46 3.363688 1_655
K7 O33 2.962897 1_555
K7 O29 2.962897 1_555
K7 O28 2.962897 1_555
K7 O5 3.155077 1_556
K7 O9 3.155077 1_555
K7 O4 3.155077 1_555
K7 O37 3.363688 1_555
K7 O44 3.363688 1_556
K7 O43 3.363688 1_556
As0 O2 1.701850 1_455
As0 O24 1.703476 1_555
As0 O12 1.726815 1_555
As0 O41 1.732048 1_455
As1 O4 1.701850 1_555
As1 O25 1.703476 1_555
As1 O13 1.726815 1_555
As1 O43 1.732048 1_556
As2 O0 1.701850 1_655
As2 O26 1.703476 1_555
As2 O14 1.726815 1_555
As2 O42 1.732048 1_654
As3 O6 1.701850 1_545
As3 O27 1.703476 1_555
As3 O15 1.726815 1_555
As3 O47 1.732048 1_545
As4 O1 1.701850 1_555
As4 O28 1.703476 1_555
As4 O16 1.726815 1_555
As4 O39 1.732048 1_555
As5 O7 1.701850 1_555
As5 O29 1.703476 1_555
As5 O17 1.726815 1_555
As5 O46 1.732048 1_655
As6 O3 1.701850 1_565
As6 O30 1.703476 1_555
As6 O18 1.726815 1_555
As6 O45 1.732048 1_465
As7 O5 1.701850 1_555
As7 O31 1.703476 1_555
As7 O19 1.726815 1_555
As7 O44 1.732048 1_555
As8 O9 1.701850 1_554
As8 O32 1.703476 1_555
As8 O20 1.726815 1_555
As8 O37 1.732048 1_554
As9 O8 1.701850 1_556
As9 O33 1.703476 1_555
As9 O21 1.726815 1_555
As9 O38 1.732048 1_546
As10 O11 1.701850 1_555
As10 O34 1.703476 1_555
As10 O22 1.726815 1_555
As10 O36 1.732048 1_555
As11 O10 1.701850 1_555
As11 O35 1.703476 1_555
As11 O23 1.726815 1_555
As11 O40 1.732048 1_565
O0 Sc3 2.088531 1_555
O1 Sc2 2.088531 1_555
O2 Sc1 2.088531 1_555
O3 Sc2 2.088531 1_555
O4 Sc0 2.088531 1_555
O5 Sc1 2.088531 1_555
O6 Sc3 2.088531 1_555
O7 Sc0 2.088531 1_555
O8 Sc1 2.088531 1_555
O9 Sc2 2.088531 1_555
O10 Sc0 2.088531 1_555
O11 Sc3 2.088531 1_555
O12 Sn0 2.068125 1_555
O13 Sn1 2.068125 1_555
O14 Sn2 2.068125 1_555
O15 Sn0 2.068125 1_555
O16 Sn3 2.068125 1_555
O17 Sn3 2.068125 1_555
O18 Sn1 2.068125 1_555
O19 Sn2 2.068125 1_555
O20 Sn0 2.068125 1_555
O21 Sn3 2.068125 1_555
O22 Sn1 2.068125 1_555
O23 Sn2 2.068125 1_555
O24 Sc3 2.126847 1_545
O25 Sc2 2.126847 1_565
O26 Sc1 2.126847 1_555
O27 Sc2 2.126847 1_554
O28 Sc0 2.126847 1_555
O29 Sc1 2.126847 1_556
O30 Sc3 2.126847 1_555
O31 Sc0 2.126847 1_555
O32 Sc1 2.126847 1_455
O33 Sc2 2.126847 1_555
O34 Sc0 2.126847 1_555
O35 Sc3 2.126847 1_655
O36 Sn0 2.079791 1_555
O37 Sn1 2.079791 1_555
O38 Sn2 2.079791 1_555
O39 Sn0 2.079791 1_555
O40 Sn3 2.079791 1_555
O41 Sn3 2.079791 1_555
O42 Sn1 2.079791 1_555
O43 Sn2 2.079791 1_555
O44 Sn0 2.079791 1_555
O45 Sn3 2.079791 1_555
O46 Sn1 2.079791 1_555
O47 Sn2 2.079791 1_555
