# generated using pymatgen
data_Ho2Si3
_symmetry_space_group_name_H-M   'P 1'
_cell_length_a   3.97289600
_cell_length_b   3.88153700
_cell_length_c   7.37046764
_cell_angle_alpha   74.73303084
_cell_angle_beta   74.36462038
_cell_angle_gamma   90.00000000
_symmetry_Int_Tables_number   1
_chemical_formula_structural   Ho2Si3
_chemical_formula_sum   'Ho2 Si3'
_cell_volume   105.28250851
_cell_formula_units_Z   1
loop_
 _symmetry_equiv_pos_site_id
 _symmetry_equiv_pos_as_xyz
  1  'x, y, z'
loop_
 _atom_site_type_symbol
 _atom_site_label
 _atom_site_symmetry_multiplicity
 _atom_site_fract_x
 _atom_site_fract_y
 _atom_site_fract_z
 _atom_site_occupancy
  Ho  Ho0  1  0.87255200  0.62255200  0.75489600  1
  Ho  Ho1  1  0.11775700  0.36775700  0.26448500  1
  Si  Si0  1  0.71391100  0.96391100  0.07217700  1
  Si  Si1  1  0.44233700  0.19233700  0.61532600  1
  Si  Si2  1  0.54344200  0.79344200  0.41311500  1
loop_
_geom_bond_atom_site_label_1
_geom_bond_atom_site_label_2
_geom_bond_distance
_geom_bond_site_symmetry_2
Ho0 Si0 2.908402 1_556
Ho0 Si0 2.908404 1_546
Ho0 Si1 2.936075 1_665
Ho0 Si1 2.936075 1_565
Ho0 Si1 2.936075 1_555
Ho0 Si1 2.936075 1_655
Ho0 Si2 3.064445 1_655
Ho0 Si2 3.064448 1_555
Ho1 Si2 2.956728 1_445
Ho1 Si2 2.956728 1_545
Ho1 Si2 2.956728 1_555
Ho1 Si2 2.956728 1_455
Ho1 Si0 3.071864 1_555
Ho1 Si0 3.071864 1_455
Ho1 Si0 3.071865 1_545
Ho1 Si0 3.071865 1_445
Ho1 Si1 3.111803 1_455
Ho1 Si1 3.111805 1_555
Si0 Si2 2.327666 1_555
Si1 Si2 2.381696 1_555
Si1 Si2 2.381699 1_545
