# generated using pymatgen
data_CCl
_symmetry_space_group_name_H-M   'P 1'
_cell_length_a   8.85910315
_cell_length_b   10.28176547
_cell_length_c   15.00147860
_cell_angle_alpha   98.97974670
_cell_angle_beta   100.12364226
_cell_angle_gamma   96.38241547
_symmetry_Int_Tables_number   1
_chemical_formula_structural   CCl
_chemical_formula_sum   'C32 Cl32'
_cell_volume   1315.11469365
_cell_formula_units_Z   32
loop_
 _symmetry_equiv_pos_site_id
 _symmetry_equiv_pos_as_xyz
  1  'x, y, z'
loop_
 _atom_site_type_symbol
 _atom_site_label
 _atom_site_symmetry_multiplicity
 _atom_site_fract_x
 _atom_site_fract_y
 _atom_site_fract_z
 _atom_site_occupancy
  C  C0  1  0.14132508  0.28840095  0.11670922  1
  C  C1  1  0.85867492  0.71159905  0.88329078  1
  C  C2  1  0.02570630  0.23479388  0.24904910  1
  C  C3  1  0.97429370  0.76520612  0.75095090  1
  C  C4  1  0.59962454  0.38370923  0.43471057  1
  C  C5  1  0.40037546  0.61629077  0.56528943  1
  C  C6  1  0.27011079  0.26419508  0.08390872  1
  C  C7  1  0.72988921  0.73580492  0.91609128  1
  C  C8  1  0.49522985  0.14885665  0.13403001  1
  C  C9  1  0.50477015  0.85114335  0.86596999  1
  C  C10  1  0.32551420  0.74442631  0.35507883  1
  C  C11  1  0.67448580  0.25557369  0.64492117  1
  C  C12  1  0.07936605  0.19505992  0.17128890  1
  C  C13  1  0.92063395  0.80494008  0.82871110  1
  C  C14  1  0.59335139  0.28916790  0.48820922  1
  C  C15  1  0.40664861  0.71083210  0.51179078  1
  C  C16  1  0.44832435  0.28255451  0.72097576  1
  C  C17  1  0.55167565  0.71744549  0.27902424  1
  C  C18  1  0.34093002  0.14733575  0.10603554  1
  C  C19  1  0.65906998  0.85266425  0.89396446  1
  C  C20  1  0.45634731  0.18979067  0.48010895  1
  C  C21  1  0.54365269  0.81020933  0.51989105  1
  C  C22  1  0.41338443  0.16329198  0.55839005  1
  C  C23  1  0.58661557  0.83670802  0.44160995  1
  C  C24  1  0.22408239  0.03244309  0.10352645  1
  C  C25  1  0.77591761  0.96755691  0.89647355  1
  C  C26  1  0.28361239  0.71742378  0.43343418  1
  C  C27  1  0.71638761  0.28257622  0.56656582  1
  C  C28  1  0.50781451  0.23379595  0.64716079  1
  C  C29  1  0.49218549  0.76620405  0.35283921  1
  C  C30  1  0.09502312  0.05592537  0.13636116  1
  C  C31  1  0.90497688  0.94407463  0.86363884  1
  Cl  Cl0  1  0.33586649  0.35088789  0.00620541  1
  Cl  Cl1  1  0.66413351  0.64911211  0.99379459  1
  Cl  Cl2  1  0.36797016  0.09908927  0.37462474  1
  Cl  Cl3  1  0.63202984  0.90091073  0.62537526  1
  Cl  Cl4  1  0.19143837  0.77233959  0.26567173  1
  Cl  Cl5  1  0.80856163  0.22766041  0.73432827  1
  Cl  Cl6  1  0.96047208  0.12861478  0.31466907  1
  Cl  Cl7  1  0.03952792  0.87138522  0.68533093  1
  Cl  Cl8  1  0.24278775  0.87844021  0.04806662  1
  Cl  Cl9  1  0.75721225  0.12155979  0.95193338  1
  Cl  Cl10  1  0.24652994  0.49447232  0.54982536  1
  Cl  Cl11  1  0.75347006  0.50552768  0.45017464  1
  Cl  Cl12  1  0.02595030  0.39778580  0.29380034  1
  Cl  Cl13  1  0.97404970  0.60221420  0.70619966  1
  Cl  Cl14  1  0.05455684  0.06972296  0.87385760  1
  Cl  Cl15  1  0.94544316  0.93027704  0.12614240  1
  Cl  Cl16  1  0.26515968  0.03905313  0.55440356  1
  Cl  Cl17  1  0.73484032  0.96094687  0.44559644  1
  Cl  Cl18  1  0.62811623  0.28684355  0.14581447  1
  Cl  Cl19  1  0.37188377  0.71315645  0.85418553  1
  Cl  Cl20  1  0.09494884  0.71160793  0.44685516  1
  Cl  Cl21  1  0.90505116  0.28839207  0.55314484  1
  Cl  Cl22  1  0.57376455  0.01602146  0.16686887  1
  Cl  Cl23  1  0.42623545  0.98397854  0.83313113  1
  Cl  Cl24  1  0.03875127  0.41070305  0.08444388  1
  Cl  Cl25  1  0.96124873  0.58929695  0.91555612  1
  Cl  Cl26  1  0.25521076  0.26445325  0.72282375  1
  Cl  Cl27  1  0.74478924  0.73554675  0.27717625  1
  Cl  Cl28  1  0.45039436  0.39816152  0.34968660  1
  Cl  Cl29  1  0.54960564  0.60183848  0.65031340  1
  Cl  Cl30  1  0.44167466  0.62388081  0.18070911  1
  Cl  Cl31  1  0.55832534  0.37611919  0.81929089  1
loop_
_geom_bond_atom_site_label_1
_geom_bond_atom_site_label_2
_geom_bond_distance
_geom_bond_site_symmetry_2
C0 C6 1.352047 1_555
C0 C12 1.476112 1_555
C0 Cl24 1.711938 1_555
C1 C7 1.352047 1_555
C1 C13 1.476112 1_555
C1 Cl25 1.711938 1_555
C2 Cl6 1.700017 1_455
C2 Cl12 1.704883 1_555
C3 Cl7 1.700017 1_655
C3 Cl13 1.704883 1_555
C4 Cl11 1.702584 1_555
C4 Cl28 1.704933 1_555
C5 Cl10 1.702584 1_555
C5 Cl29 1.704933 1_555
C6 Cl0 1.714719 1_555
C7 Cl1 1.714719 1_555
C8 Cl22 1.700857 1_555
C8 Cl18 1.705060 1_555
C9 Cl23 1.700857 1_555
C9 Cl19 1.705060 1_555
C10 C26 1.352371 1_555
C10 C29 1.475728 1_555
C10 Cl4 1.711152 1_555
C11 C27 1.352371 1_555
C11 C28 1.475728 1_555
C11 Cl5 1.711152 1_555
C12 C2 1.357572 1_555
C12 C30 1.475102 1_555
C13 C3 1.357572 1_555
C13 C31 1.475102 1_555
C14 C4 1.356199 1_555
C14 C27 1.471485 1_555
C14 C20 1.471599 1_555
C15 C5 1.356199 1_555
C15 C26 1.471485 1_555
C15 C21 1.471599 1_555
C16 C28 1.358632 1_555
C16 Cl31 1.701106 1_555
C16 Cl26 1.705808 1_555
C17 C29 1.358632 1_555
C17 Cl30 1.701106 1_555
C17 Cl27 1.705808 1_555
C18 C8 1.355202 1_555
C18 C6 1.471851 1_555
C18 C24 1.472753 1_555
C19 C9 1.355202 1_555
C19 C7 1.471851 1_555
C19 C25 1.472753 1_555
C20 C22 1.353553 1_555
C20 Cl2 1.711194 1_555
C21 C23 1.353553 1_555
C21 Cl3 1.711194 1_555
C22 C28 1.473402 1_555
C22 Cl16 1.713260 1_555
C23 C29 1.473402 1_555
C23 Cl17 1.713260 1_555
C24 C30 1.352922 1_555
C24 Cl8 1.709513 1_545
C25 C31 1.352922 1_555
C25 Cl9 1.709513 1_565
C26 Cl20 1.713911 1_555
C27 Cl21 1.713911 1_555
C30 Cl15 1.713077 1_445
C31 Cl14 1.713077 1_665
