# generated using pymatgen
data_CaGe2WO6
_symmetry_space_group_name_H-M   'P 1'
_cell_length_a   8.85345400
_cell_length_b   5.64981200
_cell_length_c   12.58667075
_cell_angle_alpha   78.40402702
_cell_angle_beta   90.00000000
_cell_angle_gamma   90.00000000
_symmetry_Int_Tables_number   1
_chemical_formula_structural   CaGe2WO6
_chemical_formula_sum   'Ca4 Ge8 W4 O24'
_cell_volume   616.73936882
_cell_formula_units_Z   4
loop_
 _symmetry_equiv_pos_site_id
 _symmetry_equiv_pos_as_xyz
  1  'x, y, z'
loop_
 _atom_site_type_symbol
 _atom_site_label
 _atom_site_symmetry_multiplicity
 _atom_site_fract_x
 _atom_site_fract_y
 _atom_site_fract_z
 _atom_site_occupancy
  Ca  Ca0  1  0.58291100  0.22222300  0.24596400  1
  Ca  Ca1  1  0.08291100  0.27777700  0.75403600  1
  Ca  Ca2  1  0.41708900  0.77777700  0.75403600  1
  Ca  Ca3  1  0.91708900  0.72222300  0.24596400  1
  Ge  Ge0  1  0.62855600  0.74964900  0.07700200  1
  Ge  Ge1  1  0.12855600  0.75035100  0.92299800  1
  Ge  Ge2  1  0.37144400  0.25035100  0.92299800  1
  Ge  Ge3  1  0.87144400  0.24964900  0.07700200  1
  Ge  Ge4  1  0.65470700  0.72051600  0.46676700  1
  Ge  Ge5  1  0.15470700  0.77948400  0.53323300  1
  Ge  Ge6  1  0.34529300  0.27948400  0.53323300  1
  Ge  Ge7  1  0.84529300  0.22051600  0.46676700  1
  W  W0  1  0.33848700  0.70265900  0.29256800  1
  W  W1  1  0.83848700  0.79734100  0.70743200  1
  W  W2  1  0.66151300  0.29734100  0.70743200  1
  W  W3  1  0.16151300  0.20265900  0.29256800  1
  O  O0  1  0.74902400  0.00133700  0.40367300  1
  O  O1  1  0.24902400  0.49866300  0.59632700  1
  O  O2  1  0.25097600  0.99866300  0.59632700  1
  O  O3  1  0.75097600  0.50133700  0.40367300  1
  O  O4  1  0.72483100  0.98642600  0.14600300  1
  O  O5  1  0.22483100  0.51357400  0.85399700  1
  O  O6  1  0.27516900  0.01357400  0.85399700  1
  O  O7  1  0.77516900  0.48642600  0.14600300  1
  O  O8  1  0.02785700  0.27502300  0.41867900  1
  O  O9  1  0.52785700  0.22497700  0.58132100  1
  O  O10  1  0.97214300  0.72497700  0.58132100  1
  O  O11  1  0.47214300  0.77502300  0.41867900  1
  O  O12  1  0.99562100  0.11967500  0.20135100  1
  O  O13  1  0.49562100  0.38032500  0.79864900  1
  O  O14  1  0.00437900  0.88032500  0.79864900  1
  O  O15  1  0.50437900  0.61967500  0.20135100  1
  O  O16  1  0.65884300  0.92861000  0.77282200  1
  O  O17  1  0.15884300  0.57139000  0.22717800  1
  O  O18  1  0.34115700  0.07139000  0.22717800  1
  O  O19  1  0.84115700  0.42861000  0.77282200  1
  O  O20  1  0.66216100  0.67022000  0.60942500  1
  O  O21  1  0.16216100  0.82978000  0.39057500  1
  O  O22  1  0.33783900  0.32978000  0.39057500  1
  O  O23  1  0.83783900  0.17022000  0.60942500  1
loop_
_geom_bond_atom_site_label_1
_geom_bond_atom_site_label_2
_geom_bond_distance
_geom_bond_site_symmetry_2
Ca0 O15 2.309591 1_555
Ca0 O18 2.333293 1_555
Ca0 O4 2.368624 1_545
Ca0 O7 2.439967 1_555
Ca0 O0 2.581617 1_555
Ca1 O14 2.309591 1_545
Ca1 O19 2.333293 1_455
Ca1 O5 2.368624 1_555
Ca1 O6 2.439967 1_555
Ca1 O1 2.581617 1_555
Ca2 O13 2.309591 1_555
Ca2 O16 2.333293 1_555
Ca2 O6 2.368624 1_565
Ca2 O5 2.439967 1_555
Ca2 O2 2.581617 1_555
Ca3 O12 2.309591 1_565
Ca3 O17 2.333293 1_655
Ca3 O7 2.368624 1_555
Ca3 O4 2.439967 1_555
Ca3 O3 2.581617 1_555
Ge0 O15 1.932750 1_555
Ge0 O4 1.933247 1_555
Ge0 O7 2.032626 1_555
Ge1 O14 1.932750 1_555
Ge1 O5 1.933247 1_555
Ge1 O6 2.032626 1_565
Ge2 O13 1.932750 1_555
Ge2 O6 1.933247 1_555
Ge2 O5 2.032626 1_555
Ge3 O12 1.932750 1_555
Ge3 O7 1.933247 1_555
Ge3 O4 2.032626 1_545
Ge4 O11 1.731689 1_555
Ge4 O20 1.761851 1_555
Ge4 O3 1.812701 1_555
Ge4 O0 1.827201 1_565
Ge5 O10 1.731689 1_455
Ge5 O21 1.761851 1_555
Ge5 O2 1.812701 1_555
Ge5 O1 1.827201 1_555
Ge6 O9 1.731689 1_555
Ge6 O22 1.761851 1_555
Ge6 O1 1.812701 1_555
Ge6 O2 1.827201 1_545
Ge7 O8 1.731689 1_655
Ge7 O23 1.761851 1_555
Ge7 O0 1.812701 1_555
Ge7 O3 1.827201 1_555
O8 W3 2.085153 1_555
O9 W2 2.085153 1_555
O10 W1 2.085153 1_555
O11 W0 2.085153 1_555
O12 W3 1.977757 1_655
O13 W2 1.977757 1_555
O14 W1 1.977757 1_455
O15 W0 1.977757 1_555
O16 W1 2.000606 1_555
O16 W2 2.080536 1_565
O17 W0 2.000606 1_555
O17 W3 2.080536 1_555
O18 W3 2.000606 1_555
O18 W0 2.080536 1_545
O19 W2 2.000606 1_555
O19 W1 2.080536 1_555
O20 W1 2.197895 1_555
O20 W2 2.217018 1_555
O21 W0 2.197895 1_555
O21 W3 2.217018 1_565
O22 W3 2.197895 1_555
O22 W0 2.217018 1_555
O23 W2 2.197895 1_555
O23 W1 2.217018 1_545
