# generated using pymatgen
data_Li3Dy3(TeO6)2
_symmetry_space_group_name_H-M   'P 1'
_cell_length_a   10.74683140
_cell_length_b   10.74683140
_cell_length_c   10.74683140
_cell_angle_alpha   109.47122063
_cell_angle_beta   109.47122063
_cell_angle_gamma   109.47122063
_symmetry_Int_Tables_number   1
_chemical_formula_structural   Li3Dy3(TeO6)2
_chemical_formula_sum   'Li12 Dy12 Te8 O48'
_cell_volume   955.47519221
_cell_formula_units_Z   4
loop_
 _symmetry_equiv_pos_site_id
 _symmetry_equiv_pos_as_xyz
  1  'x, y, z'
loop_
 _atom_site_type_symbol
 _atom_site_label
 _atom_site_symmetry_multiplicity
 _atom_site_fract_x
 _atom_site_fract_y
 _atom_site_fract_z
 _atom_site_occupancy
  Li  Li0  1  0.25000000  0.62500000  0.37500000  1
  Li  Li1  1  0.75000000  0.37500000  0.62500000  1
  Li  Li2  1  0.75000000  0.87500000  0.12500000  1
  Li  Li3  1  0.37500000  0.25000000  0.62500000  1
  Li  Li4  1  0.62500000  0.75000000  0.37500000  1
  Li  Li5  1  0.25000000  0.12500000  0.87500000  1
  Li  Li6  1  0.12500000  0.75000000  0.87500000  1
  Li  Li7  1  0.87500000  0.25000000  0.12500000  1
  Li  Li8  1  0.62500000  0.37500000  0.25000000  1
  Li  Li9  1  0.37500000  0.62500000  0.75000000  1
  Li  Li10  1  0.87500000  0.12500000  0.75000000  1
  Li  Li11  1  0.12500000  0.87500000  0.25000000  1
  Dy  Dy0  1  0.25000000  0.37500000  0.12500000  1
  Dy  Dy1  1  0.75000000  0.62500000  0.87500000  1
  Dy  Dy2  1  0.75000000  0.12500000  0.37500000  1
  Dy  Dy3  1  0.12500000  0.25000000  0.37500000  1
  Dy  Dy4  1  0.37500000  0.75000000  0.12500000  1
  Dy  Dy5  1  0.25000000  0.87500000  0.62500000  1
  Dy  Dy6  1  0.87500000  0.75000000  0.62500000  1
  Dy  Dy7  1  0.62500000  0.25000000  0.87500000  1
  Dy  Dy8  1  0.37500000  0.12500000  0.25000000  1
  Dy  Dy9  1  0.62500000  0.87500000  0.75000000  1
  Dy  Dy10  1  0.12500000  0.37500000  0.75000000  1
  Dy  Dy11  1  0.87500000  0.62500000  0.25000000  1
  Te  Te0  1  0.00000000  0.00000000  0.00000000  1
  Te  Te1  1  0.50000000  0.00000000  0.50000000  1
  Te  Te2  1  0.00000000  0.50000000  0.50000000  1
  Te  Te3  1  0.50000000  0.00000000  0.00000000  1
  Te  Te4  1  0.50000000  0.50000000  0.00000000  1
  Te  Te5  1  0.50000000  0.50000000  0.50000000  1
  Te  Te6  1  0.00000000  0.00000000  0.50000000  1
  Te  Te7  1  0.00000000  0.50000000  0.00000000  1
  O  O0  1  0.47256600  0.37946200  0.30058800  1
  O  O1  1  0.52743400  0.62053800  0.69941200  1
  O  O2  1  0.57887300  0.17197700  0.19941200  1
  O  O3  1  0.92112700  0.12053800  0.59310400  1
  O  O4  1  0.30058800  0.47256600  0.37946200  1
  O  O5  1  0.32802300  0.92112700  0.30058800  1
  O  O6  1  0.42112700  0.82802300  0.80058800  1
  O  O7  1  0.07887300  0.87946200  0.40689600  1
  O  O8  1  0.69941200  0.52743400  0.62053800  1
  O  O9  1  0.67197700  0.07887300  0.69941200  1
  O  O10  1  0.02743400  0.32802300  0.90689600  1
  O  O11  1  0.19941200  0.57887300  0.17197700  1
  O  O12  1  0.12053800  0.02743400  0.19941200  1
  O  O13  1  0.97256600  0.67197700  0.09310400  1
  O  O14  1  0.80058800  0.42112700  0.82802300  1
  O  O15  1  0.87946200  0.97256600  0.80058800  1
  O  O16  1  0.59310400  0.92112700  0.12053800  1
  O  O17  1  0.17197700  0.47256600  0.59310400  1
  O  O18  1  0.40689600  0.07887300  0.87946200  1
  O  O19  1  0.82802300  0.52743400  0.40689600  1
  O  O20  1  0.90689600  0.02743400  0.32802300  1
  O  O21  1  0.37946200  0.57887300  0.90689600  1
  O  O22  1  0.09310400  0.97256600  0.67197700  1
  O  O23  1  0.62053800  0.42112700  0.09310400  1
  O  O24  1  0.37946200  0.30058800  0.47256600  1
  O  O25  1  0.57887300  0.90689600  0.37946200  1
  O  O26  1  0.62053800  0.69941200  0.52743400  1
  O  O27  1  0.42112700  0.09310400  0.62053800  1
  O  O28  1  0.12053800  0.59310400  0.92112700  1
  O  O29  1  0.02743400  0.19941200  0.12053800  1
  O  O30  1  0.87946200  0.40689600  0.07887300  1
  O  O31  1  0.97256600  0.80058800  0.87946200  1
  O  O32  1  0.32802300  0.90689600  0.02743400  1
  O  O33  1  0.92112700  0.30058800  0.32802300  1
  O  O34  1  0.67197700  0.09310400  0.97256600  1
  O  O35  1  0.07887300  0.69941200  0.67197700  1
  O  O36  1  0.17197700  0.19941200  0.57887300  1
  O  O37  1  0.47256600  0.59310400  0.17197700  1
  O  O38  1  0.82802300  0.80058800  0.42112700  1
  O  O39  1  0.52743400  0.40689600  0.82802300  1
  O  O40  1  0.30058800  0.32802300  0.92112700  1
  O  O41  1  0.69941200  0.67197700  0.07887300  1
  O  O42  1  0.19941200  0.12053800  0.02743400  1
  O  O43  1  0.80058800  0.87946200  0.97256600  1
  O  O44  1  0.90689600  0.37946200  0.57887300  1
  O  O45  1  0.09310400  0.62053800  0.42112700  1
  O  O46  1  0.59310400  0.17197700  0.47256600  1
  O  O47  1  0.40689600  0.82802300  0.52743400  1
loop_
_geom_bond_atom_site_label_1
_geom_bond_atom_site_label_2
_geom_bond_distance
_geom_bond_site_symmetry_2
Li0 O4 1.900064 1_555
Li0 O47 1.900070 1_555
Li0 O45 1.900070 1_555
Li0 O11 1.900072 1_555
Li1 O8 1.900064 1_555
Li1 O46 1.900070 1_555
Li1 O44 1.900070 1_555
Li1 O14 1.900072 1_555
Li2 O43 1.900064 1_554
Li2 O20 1.900070 1_565
Li2 O16 1.900070 1_555
Li2 O41 1.900072 1_555
Li3 O24 1.900064 1_555
Li3 O27 1.900070 1_555
Li3 O39 1.900070 1_555
Li3 O36 1.900072 1_555
Li4 O26 1.900064 1_555
Li4 O37 1.900070 1_555
Li4 O25 1.900070 1_555
Li4 O38 1.900072 1_555
Li5 O42 1.900064 1_556
Li5 O22 1.900070 1_545
Li5 O18 1.900070 1_555
Li5 O40 1.900072 1_555
Li6 O31 1.900064 1_455
Li6 O32 1.900070 1_556
Li6 O28 1.900070 1_555
Li6 O35 1.900072 1_555
Li7 O29 1.900064 1_655
Li7 O34 1.900070 1_554
Li7 O30 1.900070 1_555
Li7 O33 1.900072 1_555
Li8 O0 1.900064 1_555
Li8 O23 1.900070 1_555
Li8 O19 1.900070 1_555
Li8 O2 1.900072 1_555
Li9 O1 1.900064 1_555
Li9 O17 1.900070 1_555
Li9 O21 1.900070 1_555
Li9 O6 1.900072 1_555
Li10 O15 1.900064 1_545
Li10 O10 1.900070 1_655
Li10 O3 1.900070 1_555
Li10 O9 1.900072 1_555
Li11 O12 1.900064 1_565
Li11 O13 1.900070 1_455
Li11 O7 1.900070 1_555
Li11 O5 1.900072 1_555
Dy0 O11 2.364432 1_555
Dy0 O40 2.364432 1_554
Dy0 O42 2.364442 1_555
Dy0 O4 2.364442 1_555
Dy0 O0 2.477582 1_555
Dy0 O29 2.477582 1_555
Dy0 O37 2.477587 1_555
Dy0 O10 2.477587 1_554
Dy1 O41 2.364432 1_556
Dy1 O14 2.364432 1_555
Dy1 O8 2.364442 1_555
Dy1 O43 2.364442 1_555
Dy1 O31 2.477582 1_555
Dy1 O1 2.477582 1_555
Dy1 O39 2.477587 1_555
Dy1 O13 2.477587 1_556
Dy2 O16 2.364439 1_545
Dy2 O20 2.364439 1_555
Dy2 O46 2.364439 1_555
Dy2 O44 2.364439 1_555
Dy2 O2 2.477581 1_555
Dy2 O33 2.477581 1_555
Dy2 O25 2.477587 1_545
Dy2 O3 2.477587 1_555
Dy3 O33 2.364432 1_455
Dy3 O36 2.364432 1_555
Dy3 O29 2.364442 1_555
Dy3 O24 2.364442 1_555
Dy3 O12 2.477582 1_555
Dy3 O4 2.477582 1_555
Dy3 O20 2.477587 1_455
Dy3 O17 2.477587 1_555
Dy4 O28 2.364439 1_554
Dy4 O37 2.364439 1_555
Dy4 O25 2.364439 1_555
Dy4 O32 2.364439 1_555
Dy4 O5 2.477581 1_555
Dy4 O11 2.477581 1_555
Dy4 O16 2.477587 1_555
Dy4 O21 2.477587 1_554
Dy5 O18 2.364439 1_565
Dy5 O45 2.364439 1_555
Dy5 O47 2.364439 1_555
Dy5 O22 2.364439 1_555
Dy5 O35 2.477581 1_555
Dy5 O6 2.477581 1_555
Dy5 O7 2.477587 1_555
Dy5 O27 2.477587 1_565
Dy6 O35 2.364432 1_655
Dy6 O38 2.364432 1_555
Dy6 O26 2.364442 1_555
Dy6 O31 2.364442 1_555
Dy6 O8 2.477582 1_555
Dy6 O15 2.477582 1_555
Dy6 O19 2.477587 1_555
Dy6 O22 2.477587 1_655
Dy7 O27 2.364439 1_555
Dy7 O30 2.364439 1_556
Dy7 O34 2.364439 1_555
Dy7 O39 2.364439 1_555
Dy7 O14 2.477581 1_555
Dy7 O9 2.477581 1_555
Dy7 O23 2.477587 1_556
Dy7 O18 2.477587 1_555
Dy8 O2 2.364432 1_555
Dy8 O5 2.364432 1_545
Dy8 O12 2.364442 1_555
Dy8 O0 2.364442 1_555
Dy8 O42 2.477582 1_555
Dy8 O24 2.477582 1_555
Dy8 O46 2.477587 1_555
Dy8 O32 2.477587 1_545
Dy9 O9 2.364432 1_565
Dy9 O6 2.364432 1_555
Dy9 O15 2.364442 1_555
Dy9 O1 2.364442 1_555
Dy9 O26 2.477582 1_555
Dy9 O43 2.477582 1_555
Dy9 O47 2.477587 1_555
Dy9 O34 2.477587 1_565
Dy10 O3 2.364439 1_455
Dy10 O17 2.364439 1_555
Dy10 O21 2.364439 1_555
Dy10 O10 2.364439 1_555
Dy10 O36 2.477581 1_555
Dy10 O40 2.477581 1_555
Dy10 O44 2.477587 1_455
Dy10 O28 2.477587 1_555
Dy11 O23 2.364439 1_555
Dy11 O7 2.364439 1_655
Dy11 O19 2.364439 1_555
Dy11 O13 2.364439 1_555
Dy11 O38 2.477581 1_555
Dy11 O41 2.477581 1_555
Dy11 O30 2.477587 1_555
Dy11 O45 2.477587 1_655
O0 Te5 1.957311 1_555
O1 Te5 1.957311 1_555
O2 Te3 1.957309 1_555
O3 Te6 1.957302 1_655
O4 Te5 1.957311 1_555
O5 Te1 1.957309 1_565
O6 Te3 1.957309 1_566
O7 Te6 1.957302 1_565
O8 Te5 1.957311 1_555
O9 Te1 1.957309 1_555
O10 Te7 1.957302 1_556
O11 Te7 1.957309 1_555
O12 Te0 1.957311 1_555
O13 Te7 1.957302 1_655
O14 Te7 1.957309 1_656
O15 Te0 1.957311 1_666
O16 Te3 1.957302 1_565
O17 Te2 1.957302 1_555
O18 Te3 1.957302 1_556
O19 Te2 1.957302 1_655
O20 Te6 1.957302 1_655
O21 Te4 1.957302 1_556
O22 Te6 1.957302 1_565
O23 Te4 1.957302 1_555
O24 Te5 1.957311 1_555
O25 Te1 1.957302 1_565
O26 Te5 1.957311 1_555
O27 Te1 1.957302 1_555
O28 Te7 1.957302 1_556
O29 Te0 1.957311 1_555
O30 Te7 1.957302 1_655
O31 Te0 1.957311 1_666
O32 Te3 1.957302 1_565
O33 Te2 1.957309 1_655
O34 Te3 1.957302 1_556
O35 Te2 1.957309 1_555
O36 Te6 1.957309 1_555
O37 Te4 1.957302 1_555
O38 Te6 1.957309 1_665
O39 Te4 1.957302 1_556
O40 Te4 1.957309 1_556
O41 Te4 1.957309 1_555
O42 Te0 1.957311 1_555
O43 Te0 1.957311 1_666
O44 Te2 1.957302 1_655
O45 Te2 1.957302 1_555
O46 Te1 1.957302 1_555
O47 Te1 1.957302 1_565
