# generated using pymatgen
data_YbEu3
_symmetry_space_group_name_H-M   'P 1'
_cell_length_a   6.89541042
_cell_length_b   6.89541042
_cell_length_c   6.89541042
_cell_angle_alpha   133.24913465
_cell_angle_beta   133.24913465
_cell_angle_gamma   68.26316707
_symmetry_Int_Tables_number   1
_chemical_formula_structural   YbEu3
_chemical_formula_sum   'Yb1 Eu3'
_cell_volume   170.87696538
_cell_formula_units_Z   1
loop_
 _symmetry_equiv_pos_site_id
 _symmetry_equiv_pos_as_xyz
  1  'x, y, z'
loop_
 _atom_site_type_symbol
 _atom_site_label
 _atom_site_symmetry_multiplicity
 _atom_site_fract_x
 _atom_site_fract_y
 _atom_site_fract_z
 _atom_site_occupancy
  Yb  Yb0  1  0.00000000  0.00000000  0.00000000  1
  Eu  Eu0  1  0.75000000  0.25000000  0.50000000  1
  Eu  Eu1  1  0.25000000  0.75000000  0.50000000  1
  Eu  Eu2  1  0.50000000  0.50000000  0.00000000  1
loop_
_geom_bond_atom_site_label_1
_geom_bond_atom_site_label_2
_geom_bond_distance
_geom_bond_site_symmetry_2
Eu0 Eu1 3.868983 1_544
Eu0 Eu1 3.868983 1_645
Eu0 Eu1 3.868983 1_656
Eu0 Eu1 3.868983 1_555
Eu0 Eu2 3.953344 1_555
Eu0 Yb0 3.953344 1_555
Eu0 Eu2 3.953344 1_556
Eu0 Eu2 3.953344 1_656
Eu0 Yb0 3.953344 1_655
Eu0 Yb0 3.953344 1_656
Eu0 Yb0 3.953344 1_666
Eu0 Eu2 3.953344 1_545
Eu1 Eu2 3.953344 1_566
Eu1 Eu2 3.953344 1_555
Eu1 Yb0 3.953344 1_555
Eu1 Eu2 3.953344 1_556
Eu1 Eu2 3.953344 1_455
Eu1 Yb0 3.953344 1_565
Eu1 Yb0 3.953344 1_566
Eu1 Yb0 3.953344 1_666
Eu2 Yb0 3.868983 1_554
Eu2 Yb0 3.868983 1_655
Eu2 Yb0 3.868983 1_565
Eu2 Yb0 3.868983 1_666
