# generated using pymatgen
data_Y2Ge6Pt
_symmetry_space_group_name_H-M   'P 1'
_cell_length_a   4.03483765
_cell_length_b   4.10103619
_cell_length_c   11.12723674
_cell_angle_alpha   90.00000000
_cell_angle_beta   100.44575632
_cell_angle_gamma   90.00000000
_symmetry_Int_Tables_number   1
_chemical_formula_structural   Y2Ge6Pt
_chemical_formula_sum   'Y2 Ge6 Pt1'
_cell_volume   181.07109170
_cell_formula_units_Z   1
loop_
 _symmetry_equiv_pos_site_id
 _symmetry_equiv_pos_as_xyz
  1  'x, y, z'
loop_
 _atom_site_type_symbol
 _atom_site_label
 _atom_site_symmetry_multiplicity
 _atom_site_fract_x
 _atom_site_fract_y
 _atom_site_fract_z
 _atom_site_occupancy
  Y  Y0  1  0.77918578  0.50000000  0.55837056  1
  Y  Y1  1  0.11555963  0.50000000  0.23111925  1
  Ge  Ge0  1  0.49381223  0.50000000  0.98762347  1
  Ge  Ge1  1  0.38110989  0.50000000  0.76221879  1
  Ge  Ge2  1  0.99239751  0.00000000  0.98479501  1
  Ge  Ge3  1  0.87945368  0.00000000  0.75890835  1
  Ge  Ge4  1  0.66870584  0.00000000  0.33741068  1
  Ge  Ge5  1  0.23835764  0.00000000  0.47671629  1
  Pt  Pt0  1  0.55841880  0.00000000  0.11683760  1
loop_
_geom_bond_atom_site_label_1
_geom_bond_atom_site_label_2
_geom_bond_distance
_geom_bond_site_symmetry_2
Ge0 Ge1 2.466564 1_555
Ge0 Pt0 2.490769 1_556
Ge0 Pt0 2.490769 1_566
Ge0 Ge2 2.876726 1_565
Ge0 Ge2 2.876726 1_555
Ge0 Ge2 2.876729 1_455
Ge0 Ge2 2.876729 1_465
Ge0 Y1 3.342110 1_656
Ge0 Y1 3.342112 1_556
Ge1 Ge3 2.876786 1_555
Ge1 Ge3 2.876786 1_565
Ge1 Ge3 2.876792 1_455
Ge1 Ge3 2.876792 1_465
Ge1 Y0 3.007639 1_455
Ge1 Y0 3.007639 1_555
Ge2 Ge3 2.471838 1_555
Ge2 Pt0 2.481485 1_656
Ge2 Pt0 2.481485 1_556
Ge2 Y1 3.386776 1_656
Ge2 Y1 3.386776 1_646
Ge3 Y0 3.003371 1_555
Ge3 Y0 3.003371 1_545
Ge4 Pt0 2.413693 1_555
Ge4 Ge5 2.528586 1_655
Ge4 Ge5 2.528593 1_555
Ge4 Y1 3.102815 1_655
Ge4 Y1 3.102815 1_645
Ge4 Y1 3.102818 1_555
Ge4 Y1 3.102818 1_545
Ge4 Y0 3.170329 1_555
Ge4 Y0 3.170329 1_545
Ge5 Y0 3.012139 1_445
Ge5 Y0 3.012139 1_455
Ge5 Y0 3.012144 1_555
Ge5 Y0 3.012144 1_545
Ge5 Y1 3.380446 1_545
Ge5 Y1 3.380446 1_555
Pt0 Y1 3.136641 1_555
Pt0 Y1 3.136641 1_545
Pt0 Y1 3.136641 1_655
Pt0 Y1 3.136641 1_645
