# generated using pymatgen
data_Cu2GeTe3
_symmetry_space_group_name_H-M   'P 1'
_cell_length_a   14.15784819
_cell_length_b   13.50038208
_cell_length_c   7.39990093
_cell_angle_alpha   79.45246296
_cell_angle_beta   69.62759203
_cell_angle_gamma   30.91994501
_symmetry_Int_Tables_number   1
_chemical_formula_structural   Cu2GeTe3
_chemical_formula_sum   'Cu8 Ge4 Te12'
_cell_volume   661.40162306
_cell_formula_units_Z   4
loop_
 _symmetry_equiv_pos_site_id
 _symmetry_equiv_pos_as_xyz
  1  'x, y, z'
loop_
 _atom_site_type_symbol
 _atom_site_label
 _atom_site_symmetry_multiplicity
 _atom_site_fract_x
 _atom_site_fract_y
 _atom_site_fract_z
 _atom_site_occupancy
  Cu  Cu0  1  0.58002600  0.25338300  0.25814500  1
  Cu  Cu1  1  0.91147100  0.58852900  0.91147100  1
  Cu  Cu2  1  0.25814500  0.90844500  0.58002600  1
  Cu  Cu3  1  0.99661700  0.66997400  0.34155500  1
  Cu  Cu4  1  0.34155500  0.99185500  0.99661700  1
  Cu  Cu5  1  0.66147100  0.33852900  0.66147100  1
  Cu  Cu6  1  0.41694700  0.08305300  0.41694700  1
  Cu  Cu7  1  0.16694700  0.83305300  0.16694700  1
  Ge  Ge0  1  0.73954200  0.42420900  0.09436300  1
  Ge  Ge1  1  0.09436300  0.74188500  0.73954200  1
  Ge  Ge2  1  0.50811500  0.15563700  0.82579100  1
  Ge  Ge3  1  0.82579100  0.51045800  0.50811500  1
  Te  Te0  1  0.97421000  0.36631400  0.11196900  1
  Te  Te1  1  0.29481600  0.70918400  0.79699000  1
  Te  Te2  1  0.62731200  0.03903600  0.44421700  1
  Te  Te3  1  0.44421700  0.88943500  0.62731200  1
  Te  Te4  1  0.79699000  0.19901100  0.29481600  1
  Te  Te5  1  0.11196900  0.54750600  0.97421000  1
  Te  Te6  1  0.54081600  0.95518400  0.05098900  1
  Te  Te7  1  0.88368600  0.27579000  0.70249400  1
  Te  Te8  1  0.21096400  0.62268800  0.36056500  1
  Te  Te9  1  0.70249400  0.13803100  0.88368600  1
  Te  Te10  1  0.05098900  0.45301000  0.54081600  1
  Te  Te11  1  0.36056500  0.80578300  0.21096400  1
loop_
_geom_bond_atom_site_label_1
_geom_bond_atom_site_label_2
_geom_bond_distance
_geom_bond_site_symmetry_2
Cu0 Te2 2.564585 1_555
Cu0 Te8 2.581159 1_555
Cu0 Te4 2.585882 1_555
Cu0 Te9 2.590669 1_554
Cu1 Te6 2.576129 1_556
Cu1 Te10 2.576132 1_655
Cu1 Te5 2.589610 1_655
Cu1 Te0 2.589620 1_556
Cu2 Te3 2.564596 1_555
Cu2 Te11 2.581155 1_555
Cu2 Te1 2.585862 1_555
Cu2 Te7 2.590675 1_465
Cu3 Te8 2.564582 1_655
Cu3 Te2 2.581159 1_565
Cu3 Te10 2.585875 1_655
Cu3 Te5 2.590683 1_654
Cu4 Te11 2.564593 1_556
Cu4 Te3 2.581162 1_555
Cu4 Te6 2.585854 1_556
Cu4 Te0 2.590675 1_466
Cu5 Te4 2.576126 1_555
Cu5 Te1 2.576129 1_555
Cu5 Te9 2.589613 1_555
Cu5 Te7 2.589623 1_555
Cu6 Te10 2.568983 1_555
Cu6 Te6 2.568987 1_545
Cu6 Te2 2.569454 1_555
Cu6 Te3 2.569454 1_545
Cu7 Te1 2.568980 1_554
Cu7 Te4 2.568983 1_465
Cu7 Te11 2.569454 1_555
Cu7 Te8 2.569454 1_555
Ge0 Te11 2.655241 1_555
Ge0 Te4 2.655416 1_555
Ge0 Te0 2.734000 1_555
Ge0 Te7 2.753066 1_554
Ge1 Te8 2.655237 1_555
Ge1 Te1 2.655438 1_555
Ge1 Te5 2.734000 1_555
Ge1 Te9 2.753073 1_465
Ge2 Te2 2.655244 1_555
Ge2 Te6 2.655430 1_546
Ge2 Te9 2.734000 1_555
Ge2 Te5 2.753073 1_555
Ge3 Te3 2.655241 1_555
Ge3 Te10 2.655410 1_655
Ge3 Te7 2.734000 1_555
Ge3 Te0 2.753079 1_555
