# generated using pymatgen
data_HfMg14BiO16
_symmetry_space_group_name_H-M   'P 1'
_cell_length_a   8.59866871
_cell_length_b   9.58115537
_cell_length_c   4.34806035
_cell_angle_alpha   90.00000000
_cell_angle_beta   90.00000000
_cell_angle_gamma   90.00000000
_symmetry_Int_Tables_number   1
_chemical_formula_structural   HfMg14BiO16
_chemical_formula_sum   'Hf1 Mg14 Bi1 O16'
_cell_volume   358.21573844
_cell_formula_units_Z   1
loop_
 _symmetry_equiv_pos_site_id
 _symmetry_equiv_pos_as_xyz
  1  'x, y, z'
loop_
 _atom_site_type_symbol
 _atom_site_label
 _atom_site_symmetry_multiplicity
 _atom_site_fract_x
 _atom_site_fract_y
 _atom_site_fract_z
 _atom_site_occupancy
  Hf  Hf0  1  -0.00000000  0.50000000  0.00000000  1
  Mg  Mg0  1  0.50000000  0.00000000  0.00000000  1
  Mg  Mg1  1  0.50000000  0.50000000  0.00000000  1
  Mg  Mg2  1  -0.00000000  0.24150223  0.50000000  1
  Mg  Mg3  1  -0.00000000  0.75849777  0.50000000  1
  Mg  Mg4  1  0.50000000  0.25333334  0.50000000  1
  Mg  Mg5  1  0.50000000  0.74666666  0.50000000  1
  Mg  Mg6  1  0.26457335  0.00000000  0.50000000  1
  Mg  Mg7  1  0.25935968  0.50000000  0.50000000  1
  Mg  Mg8  1  0.73542665  0.00000000  0.50000000  1
  Mg  Mg9  1  0.74064032  0.50000000  0.50000000  1
  Mg  Mg10  1  0.25478543  0.24523336  0.00000000  1
  Mg  Mg11  1  0.25478543  0.75476664  0.00000000  1
  Mg  Mg12  1  0.74521457  0.24523336  -0.00000000  1
  Mg  Mg13  1  0.74521457  0.75476664  -0.00000000  1
  Bi  Bi0  1  -0.00000000  0.00000000  0.00000000  1
  O  O0  1  0.27669649  0.00000000  0.00000000  1
  O  O1  1  0.25321963  0.50000000  -0.00000000  1
  O  O2  1  0.72330351  0.00000000  -0.00000000  1
  O  O3  1  0.74678037  0.50000000  0.00000000  1
  O  O4  1  0.24906066  0.24740624  0.50000000  1
  O  O5  1  0.24906066  0.75259376  0.50000000  1
  O  O6  1  0.75093934  0.24740624  0.50000000  1
  O  O7  1  0.75093934  0.75259376  0.50000000  1
  O  O8  1  -0.00000000  0.00000000  0.50000000  1
  O  O9  1  -0.00000000  0.50000000  0.50000000  1
  O  O10  1  0.50000000  0.00000000  0.50000000  1
  O  O11  1  0.50000000  0.50000000  0.50000000  1
  O  O12  1  -0.00000000  0.29304914  -0.00000000  1
  O  O13  1  -0.00000000  0.70695086  0.00000000  1
  O  O14  1  0.50000000  0.26192855  -0.00000000  1
  O  O15  1  0.50000000  0.73807145  0.00000000  1
loop_
_geom_bond_atom_site_label_1
_geom_bond_atom_site_label_2
_geom_bond_distance
_geom_bond_site_symmetry_2
Hf0 O12 1.982828 1_555
Hf0 O13 1.982828 1_555
Hf0 O9 2.174030 1_554
Hf0 O9 2.174030 1_555
Hf0 O3 2.177352 1_455
Hf0 O1 2.177352 1_555
Mg0 O0 1.920113 1_555
Mg0 O2 1.920113 1_555
Mg0 O10 2.174030 1_554
Mg0 O10 2.174030 1_555
Mg0 O14 2.509578 1_555
Mg0 O15 2.509578 1_545
Mg1 O3 2.121983 1_555
Mg1 O1 2.121983 1_555
Mg1 O11 2.174030 1_554
Mg1 O11 2.174030 1_555
Mg1 O15 2.281000 1_555
Mg1 O14 2.281000 1_555
Mg2 O6 2.142337 1_455
Mg2 O4 2.142337 1_555
Mg2 O12 2.229422 1_555
Mg2 O12 2.229422 1_556
Mg2 O8 2.313870 1_555
Mg2 O9 2.476707 1_555
Mg3 O7 2.142337 1_455
Mg3 O5 2.142337 1_555
Mg3 O13 2.229422 1_555
Mg3 O13 2.229422 1_556
Mg3 O8 2.313870 1_565
Mg3 O9 2.476707 1_555
Mg4 O4 2.158491 1_555
Mg4 O6 2.158491 1_555
Mg4 O14 2.175589 1_556
Mg4 O14 2.175589 1_555
Mg4 O11 2.363352 1_555
Mg4 O10 2.427226 1_555
Mg5 O5 2.158491 1_555
Mg5 O7 2.158491 1_555
Mg5 O15 2.175589 1_556
Mg5 O15 2.175589 1_555
Mg5 O11 2.363352 1_555
Mg5 O10 2.427226 1_565
Mg6 O10 2.024356 1_555
Mg6 O0 2.176528 1_555
Mg6 O0 2.176528 1_556
Mg6 O8 2.274979 1_555
Mg6 O5 2.374188 1_545
Mg6 O4 2.374188 1_555
Mg7 O11 2.069186 1_555
Mg7 O1 2.174671 1_556
Mg7 O1 2.174671 1_555
Mg7 O9 2.230148 1_555
Mg7 O4 2.421760 1_555
Mg7 O5 2.421760 1_555
Mg8 O10 2.024356 1_555
Mg8 O2 2.176528 1_555
Mg8 O2 2.176528 1_556
Mg8 O8 2.274979 1_655
Mg8 O6 2.374188 1_555
Mg8 O7 2.374188 1_545
Mg9 O11 2.069186 1_555
Mg9 O3 2.174671 1_556
Mg9 O3 2.174671 1_555
Mg9 O9 2.230148 1_655
Mg9 O6 2.421760 1_555
Mg9 O7 2.421760 1_555
Mg10 O14 2.114578 1_555
Mg10 O4 2.174687 1_555
Mg10 O4 2.174687 1_554
Mg10 O12 2.238204 1_555
Mg10 O0 2.357161 1_555
Mg10 O1 2.440996 1_555
Mg11 O15 2.114578 1_555
Mg11 O5 2.174687 1_554
Mg11 O5 2.174687 1_555
Mg11 O13 2.238204 1_555
Mg11 O0 2.357161 1_565
Mg11 O1 2.440996 1_555
Mg12 O14 2.114578 1_555
Mg12 O6 2.174687 1_555
Mg12 O6 2.174687 1_554
Mg12 O12 2.238204 1_655
Mg12 O2 2.357161 1_555
Mg12 O3 2.440996 1_555
Mg13 O15 2.114578 1_555
Mg13 O7 2.174687 1_555
Mg13 O7 2.174687 1_554
Mg13 O13 2.238204 1_655
Mg13 O2 2.357161 1_565
Mg13 O3 2.440996 1_555
Bi0 O8 2.174030 1_555
Bi0 O8 2.174030 1_554
Bi0 O2 2.379221 1_455
Bi0 O0 2.379221 1_555
