# generated using pymatgen
data_Zr4TaGe4
_symmetry_space_group_name_H-M   'P 1'
_cell_length_a   7.14948609
_cell_length_b   7.14948609
_cell_length_c   13.11153663
_cell_angle_alpha   90.00000000
_cell_angle_beta   90.00000000
_cell_angle_gamma   90.00000000
_symmetry_Int_Tables_number   1
_chemical_formula_structural   Zr4TaGe4
_chemical_formula_sum   'Zr16 Ta4 Ge16'
_cell_volume   670.19817929
_cell_formula_units_Z   4
loop_
 _symmetry_equiv_pos_site_id
 _symmetry_equiv_pos_as_xyz
  1  'x, y, z'
loop_
 _atom_site_type_symbol
 _atom_site_label
 _atom_site_symmetry_multiplicity
 _atom_site_fract_x
 _atom_site_fract_y
 _atom_site_fract_z
 _atom_site_occupancy
  Zr  Zr0  1  0.99797940  0.83716200  0.52802117  1
  Zr  Zr1  1  0.00202060  0.16283800  0.02802117  1
  Zr  Zr2  1  0.83716200  0.00202060  0.27802117  1
  Zr  Zr3  1  0.16283800  0.99797940  0.77802117  1
  Zr  Zr4  1  0.65599424  0.50296495  0.97196661  1
  Zr  Zr5  1  0.34400576  0.49703505  0.47196661  1
  Zr  Zr6  1  0.50296495  0.34400576  0.72196661  1
  Zr  Zr7  1  0.49703505  0.65599424  0.22196661  1
  Zr  Zr8  1  0.65595590  0.00177619  0.87827788  1
  Zr  Zr9  1  0.34404410  0.99822381  0.37827788  1
  Zr  Zr10  1  0.00177619  0.34404410  0.62827788  1
  Zr  Zr11  1  0.99822381  0.65595590  0.12827788  1
  Zr  Zr12  1  0.83236293  0.67064497  0.74942748  1
  Zr  Zr13  1  0.16763707  0.32935503  0.24942748  1
  Zr  Zr14  1  0.67064497  0.16763707  0.49942748  1
  Zr  Zr15  1  0.32935503  0.83236293  0.99942748  1
  Ta  Ta0  1  0.50696448  0.84152301  0.62199052  1
  Ta  Ta1  1  0.49303552  0.15847699  0.12199052  1
  Ta  Ta2  1  0.84152301  0.49303552  0.37199052  1
  Ta  Ta3  1  0.15847699  0.50696448  0.87199052  1
  Ge  Ge0  1  0.70107575  0.54006355  0.56405721  1
  Ge  Ge1  1  0.29892425  0.45993645  0.06405721  1
  Ge  Ge2  1  0.54006355  0.29892425  0.31405721  1
  Ge  Ge3  1  0.45993645  0.70107575  0.81405721  1
  Ge  Ge4  1  0.96260686  0.80033645  0.93345883  1
  Ge  Ge5  1  0.03739314  0.19966355  0.43345883  1
  Ge  Ge6  1  0.80033645  0.03739314  0.68345883  1
  Ge  Ge7  1  0.19966355  0.96260686  0.18345883  1
  Ge  Ge8  1  0.63985427  0.79109906  0.42252632  1
  Ge  Ge9  1  0.36014573  0.20890094  0.92252632  1
  Ge  Ge10  1  0.79109906  0.36014573  0.17252632  1
  Ge  Ge11  1  0.20890094  0.63985427  0.67252632  1
  Ge  Ge12  1  0.69693297  0.86792582  0.08027599  1
  Ge  Ge13  1  0.30306703  0.13207418  0.58027599  1
  Ge  Ge14  1  0.86792582  0.30306703  0.83027599  1
  Ge  Ge15  1  0.13207418  0.69693297  0.33027599  1
loop_
_geom_bond_atom_site_label_1
_geom_bond_atom_site_label_2
_geom_bond_distance
_geom_bond_site_symmetry_2
Ge0 Ge8 2.618468 1_555
Ge0 Ta0 2.673611 1_555
Ge0 Zr10 2.700910 1_655
Ge0 Ta2 2.731867 1_555
Ge0 Zr12 2.767653 1_555
Ge0 Zr14 2.802706 1_555
Ge0 Zr5 2.840722 1_555
Ge0 Zr6 2.873614 1_555
Ge0 Zr0 3.039892 1_555
Ge1 Ge9 2.618468 1_554
Ge1 Ta1 2.673611 1_555
Ge1 Zr11 2.700910 1_455
Ge1 Ta3 2.731867 1_554
Ge1 Zr13 2.767653 1_555
Ge1 Zr15 2.802706 1_554
Ge1 Zr4 2.840722 1_554
Ge1 Zr7 2.873614 1_555
Ge1 Zr1 3.039892 1_555
Ge2 Ta2 2.673611 1_555
Ge2 Zr9 2.700910 1_545
Ge2 Ta1 2.731867 1_555
Ge2 Zr14 2.767653 1_555
Ge2 Zr13 2.802706 1_555
Ge2 Zr7 2.840722 1_555
Ge2 Zr5 2.873614 1_555
Ge2 Zr2 3.039892 1_555
Ge3 Ta3 2.673611 1_555
Ge3 Zr8 2.700910 1_565
Ge3 Ta0 2.731867 1_555
Ge3 Zr15 2.767653 1_555
Ge3 Zr12 2.802706 1_555
Ge3 Zr6 2.840722 1_555
Ge3 Zr4 2.873614 1_555
Ge3 Zr3 3.039892 1_555
Ge4 Ta3 2.647625 1_655
Ge4 Zr8 2.721069 1_565
Ge4 Zr12 2.747561 1_555
Ge4 Zr11 2.766807 1_556
Ge4 Zr15 2.770518 1_655
Ge4 Zr3 2.863492 1_655
Ge4 Zr1 2.886790 1_666
Ge4 Zr4 3.095226 1_555
Ge5 Ta2 2.647625 1_455
Ge5 Zr9 2.721069 1_545
Ge5 Zr13 2.747561 1_555
Ge5 Zr10 2.766807 1_555
Ge5 Zr14 2.770518 1_455
Ge5 Zr2 2.863492 1_455
Ge5 Zr0 2.886790 1_445
Ge5 Zr5 3.095226 1_555
Ge6 Ta0 2.647625 1_545
Ge6 Zr10 2.721069 1_655
Ge6 Zr14 2.747561 1_555
Ge6 Zr8 2.766807 1_555
Ge6 Zr12 2.770518 1_545
Ge6 Zr0 2.863492 1_545
Ge6 Zr3 2.886790 1_645
Ge6 Zr6 3.095226 1_555
Ge7 Ta1 2.647625 1_565
Ge7 Zr11 2.721069 1_455
Ge7 Zr15 2.747561 1_554
Ge7 Zr9 2.766807 1_555
Ge7 Zr13 2.770518 1_565
Ge7 Zr1 2.863492 1_565
Ge7 Zr2 2.886790 1_465
Ge7 Zr7 3.095226 1_555
Ge8 Zr9 2.646172 1_555
Ge8 Ta2 2.656892 1_555
Ge8 Zr2 2.802457 1_565
Ge8 Ta0 2.805770 1_555
Ge8 Zr14 2.883100 1_565
Ge8 Zr0 2.928720 1_555
Ge8 Zr7 2.981723 1_555
Ge8 Zr5 3.051925 1_555
Ge9 Zr8 2.646172 1_555
Ge9 Ta3 2.656892 1_555
Ge9 Zr3 2.802457 1_545
Ge9 Ta1 2.805770 1_556
Ge9 Zr15 2.883100 1_545
Ge9 Zr1 2.928720 1_556
Ge9 Zr6 2.981723 1_555
Ge9 Zr4 3.051925 1_555
Ge10 Ge2 2.618468 1_555
Ge10 Zr11 2.646172 1_555
Ge10 Ta1 2.656892 1_555
Ge10 Zr1 2.802457 1_655
Ge10 Ta2 2.805770 1_555
Ge10 Zr13 2.883100 1_655
Ge10 Zr2 2.928720 1_555
Ge10 Zr4 2.981723 1_554
Ge10 Zr7 3.051925 1_555
Ge11 Ge3 2.618468 1_555
Ge11 Zr10 2.646172 1_555
Ge11 Ta0 2.656892 1_555
Ge11 Zr0 2.802457 1_455
Ge11 Ta3 2.805770 1_555
Ge11 Zr12 2.883100 1_455
Ge11 Zr3 2.928720 1_555
Ge11 Zr5 2.981723 1_555
Ge11 Zr6 3.051925 1_555
Ge12 Ta1 2.596027 1_565
Ge12 Zr11 2.707918 1_555
Ge12 Ge4 2.747175 1_554
Ge12 Zr7 2.791005 1_555
Ge12 Zr8 2.831287 1_564
Ge12 Zr15 2.845118 1_554
Ge12 Zr2 2.940506 1_565
Ge12 Zr4 2.985082 1_554
Ge12 Zr1 3.110110 1_665
Ge13 Ta0 2.596027 1_545
Ge13 Zr10 2.707918 1_555
Ge13 Ge5 2.747175 1_555
Ge13 Zr6 2.791005 1_555
Ge13 Zr9 2.831287 1_545
Ge13 Zr14 2.845118 1_555
Ge13 Zr3 2.940506 1_545
Ge13 Zr5 2.985082 1_555
Ge13 Zr0 3.110110 1_445
Ge14 Ta3 2.596027 1_655
Ge14 Zr8 2.707918 1_555
Ge14 Ge6 2.747175 1_555
Ge14 Zr4 2.791005 1_555
Ge14 Zr10 2.831287 1_655
Ge14 Zr12 2.845118 1_555
Ge14 Zr1 2.940506 1_656
Ge14 Zr6 2.985082 1_555
Ge14 Zr3 3.110110 1_645
Ge15 Ta2 2.596027 1_455
Ge15 Zr9 2.707918 1_555
Ge15 Ge7 2.747175 1_555
Ge15 Zr5 2.791005 1_555
Ge15 Zr11 2.831287 1_455
Ge15 Zr13 2.845118 1_555
Ge15 Zr0 2.940506 1_455
Ge15 Zr7 2.985082 1_555
Ge15 Zr2 3.110110 1_465
