# generated using pymatgen
data_CoAsSe
_symmetry_space_group_name_H-M   'P 1'
_cell_length_a   5.77229600
_cell_length_b   5.77229600
_cell_length_c   5.77229600
_cell_angle_alpha   90.00000000
_cell_angle_beta   90.00000000
_cell_angle_gamma   90.00000000
_symmetry_Int_Tables_number   1
_chemical_formula_structural   CoAsSe
_chemical_formula_sum   'Co4 As4 Se4'
_cell_volume   192.32944576
_cell_formula_units_Z   4
loop_
 _symmetry_equiv_pos_site_id
 _symmetry_equiv_pos_as_xyz
  1  'x, y, z'
loop_
 _atom_site_type_symbol
 _atom_site_label
 _atom_site_symmetry_multiplicity
 _atom_site_fract_x
 _atom_site_fract_y
 _atom_site_fract_z
 _atom_site_occupancy
  Co  Co0  1  0.50175400  0.49824600  0.99824600  1
  Co  Co1  1  0.49824600  0.99824600  0.50175400  1
  Co  Co2  1  0.99824600  0.50175400  0.49824600  1
  Co  Co3  1  0.00175400  0.00175400  0.00175400  1
  As  As0  1  0.12395400  0.87604600  0.37604600  1
  As  As1  1  0.87604600  0.37604600  0.12395400  1
  As  As2  1  0.37604600  0.12395400  0.87604600  1
  As  As3  1  0.62395400  0.62395400  0.62395400  1
  Se  Se0  1  0.87687100  0.12312900  0.62312900  1
  Se  Se1  1  0.12312900  0.62312900  0.87687100  1
  Se  Se2  1  0.62312900  0.87687100  0.12312900  1
  Se  Se3  1  0.37687100  0.37687100  0.37687100  1
loop_
_geom_bond_atom_site_label_1
_geom_bond_atom_site_label_2
_geom_bond_distance
_geom_bond_site_symmetry_2
Co0 Se3 2.405632 1_556
Co0 Se1 2.405632 1_555
Co0 Se2 2.405632 1_556
Co1 Se3 2.405632 1_565
Co1 Se2 2.405632 1_555
Co1 Se0 2.405632 1_565
Co2 Se3 2.405632 1_655
Co2 Se0 2.405632 1_555
Co2 Se1 2.405632 1_655
Co3 Se2 2.405632 1_445
Co3 Se0 2.405632 1_454
Co3 Se1 2.405632 1_544
As0 Co1 2.385780 1_555
As0 Co3 2.385780 1_565
As0 Co2 2.385780 1_455
As0 Se0 2.470314 1_465
As1 Co2 2.385780 1_555
As1 Co3 2.385780 1_655
As1 Co0 2.385780 1_554
As1 Se1 2.470314 1_654
As2 Co0 2.385780 1_555
As2 Co3 2.385780 1_556
As2 Co1 2.385780 1_545
As2 Se2 2.470314 1_546
As3 Co0 2.385780 1_555
As3 Co1 2.385780 1_555
As3 Co2 2.385780 1_555
As3 Se3 2.470314 1_555
