# generated using pymatgen
data_Er2Al3Si2
_symmetry_space_group_name_H-M   'P 1'
_cell_length_a   4.00982324
_cell_length_b   5.40031056
_cell_length_c   6.54396469
_cell_angle_alpha   99.96601905
_cell_angle_beta   90.08875263
_cell_angle_gamma   111.77648934
_symmetry_Int_Tables_number   1
_chemical_formula_structural   Er2Al3Si2
_chemical_formula_sum   'Er2 Al3 Si2'
_cell_volume   129.27156949
_cell_formula_units_Z   1
loop_
 _symmetry_equiv_pos_site_id
 _symmetry_equiv_pos_as_xyz
  1  'x, y, z'
loop_
 _atom_site_type_symbol
 _atom_site_label
 _atom_site_symmetry_multiplicity
 _atom_site_fract_x
 _atom_site_fract_y
 _atom_site_fract_z
 _atom_site_occupancy
  Er  Er0  1  0.38038606  0.76118102  0.67753763  1
  Er  Er1  1  0.61961394  0.23881898  0.32246237  1
  Al  Al0  1  0.69538763  0.39033807  0.86769917  1
  Al  Al1  1  0.00000000  -0.00000000  0.00000000  1
  Al  Al2  1  0.30461237  0.60966193  0.13230083  1
  Si  Si0  1  0.90687082  0.81400007  0.35977621  1
  Si  Si1  1  0.09312918  0.18599993  0.64022379  1
loop_
_geom_bond_atom_site_label_1
_geom_bond_atom_site_label_2
_geom_bond_distance
_geom_bond_site_symmetry_2
Er0 Si1 2.848954 1_555
Er0 Si0 2.933491 1_455
Er0 Si0 2.938408 1_555
Er0 Si1 2.967024 1_565
Er0 Si1 2.970184 1_665
Er1 Si0 2.848954 1_555
Er1 Si1 2.933491 1_655
Er1 Si1 2.938408 1_555
Er1 Si0 2.967024 1_545
Er1 Si0 2.970184 1_445
Al0 Si1 2.590098 1_555
Al0 Si1 2.592647 1_655
Al0 Er0 3.144719 1_555
Al0 Er0 3.145708 1_655
Al0 Er0 3.167872 1_545
Al0 Er1 3.206141 1_556
Al1 Si1 2.689678 1_554
Al1 Si0 2.689678 1_445
Al1 Er0 2.992223 1_444
Al1 Er1 2.992223 1_555
Al1 Er0 2.995034 1_544
Al1 Er1 2.995034 1_455
Al2 Si0 2.590098 1_555
Al2 Si0 2.592647 1_455
Al2 Er1 3.144719 1_555
Al2 Er1 3.145708 1_455
Al2 Er1 3.167872 1_565
Al2 Er0 3.206141 1_554
Si0 Si1 2.359668 1_665
