# generated using pymatgen
data_Ba3MgGeN4
_symmetry_space_group_name_H-M   'P 1'
_cell_length_a   6.29723500
_cell_length_b   10.25436300
_cell_length_c   10.70242700
_cell_angle_alpha   90.00000000
_cell_angle_beta   90.00000000
_cell_angle_gamma   90.00000000
_symmetry_Int_Tables_number   1
_chemical_formula_structural   Ba3MgGeN4
_chemical_formula_sum   'Ba12 Mg4 Ge4 N16'
_cell_volume   691.09995080
_cell_formula_units_Z   4
loop_
 _symmetry_equiv_pos_site_id
 _symmetry_equiv_pos_as_xyz
  1  'x, y, z'
loop_
 _atom_site_type_symbol
 _atom_site_label
 _atom_site_symmetry_multiplicity
 _atom_site_fract_x
 _atom_site_fract_y
 _atom_site_fract_z
 _atom_site_occupancy
  Ba  Ba0  1  0.11450300  0.58974000  0.34441700  1
  Ba  Ba1  1  0.38549700  0.58974000  0.65558300  1
  Ba  Ba2  1  0.11450300  0.91026000  0.15558300  1
  Ba  Ba3  1  0.38549700  0.91026000  0.84441700  1
  Ba  Ba4  1  0.88549700  0.41026000  0.65558300  1
  Ba  Ba5  1  0.61450300  0.41026000  0.34441700  1
  Ba  Ba6  1  0.88549700  0.08974000  0.84441700  1
  Ba  Ba7  1  0.61450300  0.08974000  0.15558300  1
  Ba  Ba8  1  0.75000000  0.09114500  0.50000000  1
  Ba  Ba9  1  0.75000000  0.40885500  0.00000000  1
  Ba  Ba10  1  0.25000000  0.90885500  0.50000000  1
  Ba  Ba11  1  0.25000000  0.59114500  0.00000000  1
  Mg  Mg0  1  0.66187200  0.75000000  0.25000000  1
  Mg  Mg1  1  0.83812800  0.75000000  0.75000000  1
  Mg  Mg2  1  0.33812800  0.25000000  0.75000000  1
  Mg  Mg3  1  0.16187200  0.25000000  0.25000000  1
  Ge  Ge0  1  0.75000000  0.76726800  0.50000000  1
  Ge  Ge1  1  0.75000000  0.73273200  0.00000000  1
  Ge  Ge2  1  0.25000000  0.23273200  0.50000000  1
  Ge  Ge3  1  0.25000000  0.26726800  0.00000000  1
  N  N0  1  0.52724100  0.66706100  0.41639300  1
  N  N1  1  0.97275900  0.66706100  0.58360700  1
  N  N2  1  0.52724100  0.83293900  0.08360700  1
  N  N3  1  0.97275900  0.83293900  0.91639300  1
  N  N4  1  0.47275900  0.33293900  0.58360700  1
  N  N5  1  0.02724100  0.33293900  0.41639300  1
  N  N6  1  0.47275900  0.16706100  0.91639300  1
  N  N7  1  0.02724100  0.16706100  0.08360700  1
  N  N8  1  0.86823800  0.63328300  0.13527200  1
  N  N9  1  0.63176200  0.63328300  0.86472800  1
  N  N10  1  0.86823800  0.86671700  0.36472800  1
  N  N11  1  0.63176200  0.86671700  0.63527200  1
  N  N12  1  0.13176200  0.36671700  0.86472800  1
  N  N13  1  0.36823800  0.36671700  0.13527200  1
  N  N14  1  0.13176200  0.13328400  0.63527200  1
  N  N15  1  0.36823800  0.13328400  0.36472800  1
loop_
_geom_bond_atom_site_label_1
_geom_bond_atom_site_label_2
_geom_bond_distance
_geom_bond_site_symmetry_2
Ba0 N8 2.759450 1_455
Ba0 N5 2.798175 1_555
Ba0 N0 2.824431 1_555
Ba0 N1 2.824631 1_455
Ba1 N9 2.759450 1_555
Ba1 N4 2.798175 1_555
Ba1 N1 2.824431 1_455
Ba1 N0 2.824631 1_555
Ba2 N10 2.759450 1_455
Ba2 N7 2.798175 1_565
Ba2 N2 2.824431 1_555
Ba2 N3 2.824631 1_454
Ba3 N11 2.759450 1_555
Ba3 N6 2.798175 1_565
Ba3 N3 2.824431 1_455
Ba3 N2 2.824631 1_556
Ba4 N12 2.759450 1_655
Ba4 N1 2.798175 1_555
Ba4 N4 2.824431 1_555
Ba4 N5 2.824631 1_655
Ba5 N13 2.759450 1_555
Ba5 N0 2.798175 1_555
Ba5 N5 2.824431 1_655
Ba5 N4 2.824631 1_555
Ba6 N14 2.759452 1_655
Ba6 N3 2.798175 1_545
Ba6 N6 2.824431 1_555
Ba6 N7 2.824631 1_656
Ba7 N15 2.759452 1_555
Ba7 N2 2.798175 1_545
Ba7 N7 2.824431 1_655
Ba7 N6 2.824631 1_554
Ba8 N11 2.818975 1_545
Ba8 N10 2.818975 1_545
Ba8 N14 2.839383 1_655
Ba8 N15 2.839383 1_555
Ba8 N4 3.161693 1_555
Ba8 N5 3.161693 1_655
Ba9 N9 2.818975 1_554
Ba9 N8 2.818975 1_555
Ba9 N12 2.839382 1_654
Ba9 N13 2.839382 1_555
Ba9 N7 3.161693 1_655
Ba9 N6 3.161693 1_554
Ba10 N14 2.818984 1_565
Ba10 N15 2.818984 1_565
Ba10 N11 2.839382 1_555
Ba10 N10 2.839382 1_455
Ba10 N0 3.161693 1_555
Ba10 N1 3.161693 1_455
Ba11 N12 2.818975 1_554
Ba11 N13 2.818975 1_555
Ba11 N9 2.839382 1_554
Ba11 N8 2.839382 1_455
Ba11 N3 3.161693 1_454
Ba11 N2 3.161693 1_555
Mg0 N0 2.147878 1_555
Mg0 N2 2.147878 1_555
Mg0 N10 2.151493 1_555
Mg0 N8 2.151493 1_555
Mg1 N1 2.147878 1_555
Mg1 N3 2.147878 1_555
Mg1 N9 2.151493 1_555
Mg1 N11 2.151493 1_555
Mg2 N6 2.147878 1_555
Mg2 N4 2.147878 1_555
Mg2 N14 2.151487 1_555
Mg2 N12 2.151493 1_555
Mg3 N7 2.147878 1_555
Mg3 N5 2.147878 1_555
Mg3 N15 2.151487 1_555
Mg3 N13 2.151493 1_555
Ge0 N11 1.921015 1_555
Ge0 N10 1.921015 1_555
Ge0 N0 1.955580 1_555
Ge0 N1 1.955580 1_555
Ge1 N9 1.921015 1_554
Ge1 N8 1.921015 1_555
Ge1 N3 1.955580 1_554
Ge1 N2 1.955580 1_555
Ge2 N14 1.921010 1_555
Ge2 N15 1.921010 1_555
Ge2 N5 1.955580 1_555
Ge2 N4 1.955580 1_555
Ge3 N12 1.921015 1_554
Ge3 N13 1.921015 1_555
Ge3 N7 1.955580 1_555
Ge3 N6 1.955580 1_554
