# generated using pymatgen
data_Na2TlCd
_symmetry_space_group_name_H-M   'P 1'
_cell_length_a   12.86833541
_cell_length_b   13.08955407
_cell_length_c   13.08955364
_cell_angle_alpha   60.36758831
_cell_angle_beta   60.55750290
_cell_angle_gamma   60.55750064
_symmetry_Int_Tables_number   1
_chemical_formula_structural   Na2TlCd
_chemical_formula_sum   'Na2 Tl1 Cd1'
_cell_volume   1576.44120345
_cell_formula_units_Z   1
loop_
 _symmetry_equiv_pos_site_id
 _symmetry_equiv_pos_as_xyz
  1  'x, y, z'
loop_
 _atom_site_type_symbol
 _atom_site_label
 _atom_site_symmetry_multiplicity
 _atom_site_fract_x
 _atom_site_fract_y
 _atom_site_fract_z
 _atom_site_occupancy
  Na  Na0  1  0.74999680  0.00000000  0.00000000  1
  Na  Na1  1  0.25000320  0.00000000  0.00000000  1
  Tl  Tl0  1  0.50000000  0.00000000  0.00000000  1
  Cd  Cd0  1  0.00000000  0.00000000  0.00000000  1
loop_
_geom_bond_atom_site_label_1
_geom_bond_atom_site_label_2
_geom_bond_distance
_geom_bond_site_symmetry_2
Na0 Tl0 3.217043 1_555
Na1 Tl0 3.217043 1_555
Cd0 Na1 3.217125 1_555
Cd0 Na0 3.217125 1_455
