# generated using pymatgen
data_Sr15Al6(OF24)2
_symmetry_space_group_name_H-M   'P 1'
_cell_length_a   7.40055857
_cell_length_b   7.40055857
_cell_length_c   42.70831929
_cell_angle_alpha   90.00000000
_cell_angle_beta   90.00000000
_cell_angle_gamma   118.22698118
_symmetry_Int_Tables_number   1
_chemical_formula_structural   Sr15Al6(OF24)2
_chemical_formula_sum   'Sr30 Al12 O4 F96'
_cell_volume   2060.90147866
_cell_formula_units_Z   2
loop_
 _symmetry_equiv_pos_site_id
 _symmetry_equiv_pos_as_xyz
  1  'x, y, z'
loop_
 _atom_site_type_symbol
 _atom_site_label
 _atom_site_symmetry_multiplicity
 _atom_site_fract_x
 _atom_site_fract_y
 _atom_site_fract_z
 _atom_site_occupancy
  Sr  Sr0  1  0.25000000  0.75000000  0.01185494  1
  Sr  Sr1  1  0.25000000  0.75000000  0.34472454  1
  Sr  Sr2  1  0.25000000  0.75000000  0.67805661  1
  Sr  Sr3  1  0.75000000  0.25000000  0.17851902  1
  Sr  Sr4  1  0.75000000  0.25000000  0.51178486  1
  Sr  Sr5  1  0.75000000  0.25000000  0.84511463  1
  Sr  Sr6  1  0.75000000  0.25000000  0.32155237  1
  Sr  Sr7  1  0.75000000  0.25000000  0.65488214  1
  Sr  Sr8  1  0.75000000  0.25000000  0.98814698  1
  Sr  Sr9  1  0.25000000  0.75000000  0.15481206  1
  Sr  Sr10  1  0.25000000  0.75000000  0.48860939  1
  Sr  Sr11  1  0.25000000  0.75000000  0.82194246  1
  Sr  Sr12  1  0.75000000  0.75000000  0.04057145  1
  Sr  Sr13  1  0.75000000  0.75000000  0.37400667  1
  Sr  Sr14  1  0.75000000  0.75000000  0.70733718  1
  Sr  Sr15  1  0.75000000  0.75000000  0.20723802  1
  Sr  Sr16  1  0.75000000  0.75000000  0.54054033  1
  Sr  Sr17  1  0.75000000  0.75000000  0.87386822  1
  Sr  Sr18  1  0.25000000  0.25000000  0.29279878  1
  Sr  Sr19  1  0.25000000  0.25000000  0.62612667  1
  Sr  Sr20  1  0.25000000  0.25000000  0.95942798  1
  Sr  Sr21  1  0.25000000  0.25000000  0.12609555  1
  Sr  Sr22  1  0.25000000  0.25000000  0.45932882  1
  Sr  Sr23  1  0.25000000  0.25000000  0.79266033  1
  Sr  Sr24  1  0.75000000  0.25000000  0.08333300  1
  Sr  Sr25  1  0.75000000  0.25000000  0.41666589  1
  Sr  Sr26  1  0.75000000  0.25000000  0.75000111  1
  Sr  Sr27  1  0.25000000  0.75000000  0.24997818  1
  Sr  Sr28  1  0.25000000  0.75000000  0.58333300  1
  Sr  Sr29  1  0.25000000  0.75000000  0.91668882  1
  Al  Al0  1  0.25000000  0.25000000  0.04300853  1
  Al  Al1  1  0.25000000  0.25000000  0.37636894  1
  Al  Al2  1  0.25000000  0.25000000  0.70969745  1
  Al  Al3  1  0.25000000  0.25000000  0.20967616  1
  Al  Al4  1  0.25000000  0.25000000  0.54301239  1
  Al  Al5  1  0.25000000  0.25000000  0.87633338  1
  Al  Al6  1  0.75000000  0.75000000  0.29033362  1
  Al  Al7  1  0.75000000  0.75000000  0.62365461  1
  Al  Al8  1  0.75000000  0.75000000  0.95698984  1
  Al  Al9  1  0.75000000  0.75000000  0.12365847  1
  Al  Al10  1  0.75000000  0.75000000  0.45696855  1
  Al  Al11  1  0.75000000  0.75000000  0.79029806  1
  O  O0  1  0.75000000  0.25000000  0.24999817  1
  O  O1  1  0.75000000  0.25000000  0.58333300  1
  O  O2  1  0.75000000  0.25000000  0.91666883  1
  O  O3  1  0.25000000  0.75000000  0.08333300  1
  F  F0  1  0.37221452  0.53277706  0.04255875  1
  F  F1  1  0.37110704  0.53405333  0.37594648  1
  F  F2  1  0.37111598  0.53407770  0.70928415  1
  F  F3  1  0.96723368  0.12779503  0.20922162  1
  F  F4  1  0.96723094  0.12779124  0.54256831  1
  F  F5  1  0.96724654  0.12779505  0.87589621  1
  F  F6  1  0.53276632  0.37220497  0.20922162  1
  F  F7  1  0.53276906  0.37220876  0.54256831  1
  F  F8  1  0.53275346  0.37220495  0.87589621  1
  F  F9  1  0.12778548  0.96722294  0.04255875  1
  F  F10  1  0.12889296  0.96594667  0.37594648  1
  F  F11  1  0.12888402  0.96592230  0.70928415  1
  F  F12  1  0.62779505  0.46724654  0.29076979  1
  F  F13  1  0.62779124  0.46723094  0.62409869  1
  F  F14  1  0.62779503  0.46723368  0.95744538  1
  F  F15  1  0.03277706  0.87221452  0.12410825  1
  F  F16  1  0.03407770  0.87111598  0.45738285  1
  F  F17  1  0.03405333  0.87110704  0.79071952  1
  F  F18  1  0.46722294  0.62778548  0.12410825  1
  F  F19  1  0.46592230  0.62888402  0.45738285  1
  F  F20  1  0.46594667  0.62889296  0.79071952  1
  F  F21  1  0.87220495  0.03275346  0.29076979  1
  F  F22  1  0.87220876  0.03276906  0.62409869  1
  F  F23  1  0.87220497  0.03276632  0.95744538  1
  F  F24  1  0.88491760  0.49188754  0.03448689  1
  F  F25  1  0.88589596  0.49253219  0.36780271  1
  F  F26  1  0.88588157  0.49252466  0.70113375  1
  F  F27  1  0.00812146  0.61508251  0.20115365  1
  F  F28  1  0.00846111  0.61527633  0.53447046  1
  F  F29  1  0.00845291  0.61526902  0.86780525  1
  F  F30  1  0.49187854  0.88491749  0.20115365  1
  F  F31  1  0.49153889  0.88472367  0.53447046  1
  F  F32  1  0.49154709  0.88473098  0.86780525  1
  F  F33  1  0.61508240  0.00811246  0.03448689  1
  F  F34  1  0.61410404  0.00746781  0.36780271  1
  F  F35  1  0.61411843  0.00747534  0.70113375  1
  F  F36  1  0.11526902  0.50845291  0.29886175  1
  F  F37  1  0.11527633  0.50846111  0.63219554  1
  F  F38  1  0.11508251  0.50812146  0.96551335  1
  F  F39  1  0.99188754  0.38491760  0.13217911  1
  F  F40  1  0.99252466  0.38588157  0.46553325  1
  F  F41  1  0.99253219  0.38589596  0.79886429  1
  F  F42  1  0.50811246  0.11508240  0.13217911  1
  F  F43  1  0.50747534  0.11411843  0.46553325  1
  F  F44  1  0.50746781  0.11410404  0.79886429  1
  F  F45  1  0.38473098  0.99154709  0.29886175  1
  F  F46  1  0.38472367  0.99153889  0.63219554  1
  F  F47  1  0.38491749  0.99187854  0.96551335  1
  F  F48  1  0.08232272  0.25154484  0.07362140  1
  F  F49  1  0.08218255  0.25135560  0.40692892  1
  F  F50  1  0.08217161  0.25134127  0.74026255  1
  F  F51  1  0.24845813  0.41772110  0.24028851  1
  F  F52  1  0.24843486  0.41769616  0.57362520  1
  F  F53  1  0.24844957  0.41771783  0.90695589  1
  F  F54  1  0.25154187  0.08227890  0.24028851  1
  F  F55  1  0.25156514  0.08230384  0.57362520  1
  F  F56  1  0.25155043  0.08228217  0.90695589  1
  F  F57  1  0.41767728  0.24845516  0.07362140  1
  F  F58  1  0.41781745  0.24864440  0.40692892  1
  F  F59  1  0.41782839  0.24865873  0.74026255  1
  F  F60  1  0.91771783  0.74844957  0.25971111  1
  F  F61  1  0.91769616  0.74843486  0.59304080  1
  F  F62  1  0.91772110  0.74845813  0.92637849  1
  F  F63  1  0.75154484  0.58232272  0.09304460  1
  F  F64  1  0.75134127  0.58217161  0.42640445  1
  F  F65  1  0.75135560  0.58218255  0.75973808  1
  F  F66  1  0.74845516  0.91767728  0.09304460  1
  F  F67  1  0.74865873  0.91782839  0.42640445  1
  F  F68  1  0.74864440  0.91781745  0.75973808  1
  F  F69  1  0.58228217  0.75155043  0.25971111  1
  F  F70  1  0.58230384  0.75156514  0.59304080  1
  F  F71  1  0.58227890  0.75154187  0.92637849  1
  F  F72  1  0.07006417  0.23443953  0.01264810  1
  F  F73  1  0.07020062  0.23441842  0.34597617  1
  F  F74  1  0.07017518  0.23443482  0.67931234  1
  F  F75  1  0.26556713  0.42994237  0.17931544  1
  F  F76  1  0.26555312  0.43005526  0.51266913  1
  F  F77  1  0.26556781  0.43002693  0.84600302  1
  F  F78  1  0.23443287  0.07005763  0.17931544  1
  F  F79  1  0.23444688  0.06994474  0.51266913  1
  F  F80  1  0.23443219  0.06997307  0.84600302  1
  F  F81  1  0.42993583  0.26556047  0.01264810  1
  F  F82  1  0.42979938  0.26558158  0.34597617  1
  F  F83  1  0.42982482  0.26556518  0.67931234  1
  F  F84  1  0.93002693  0.76556781  0.32066298  1
  F  F85  1  0.93005526  0.76555312  0.65399787  1
  F  F86  1  0.92994237  0.76556713  0.98735156  1
  F  F87  1  0.73443953  0.57006417  0.15401890  1
  F  F88  1  0.73443482  0.57017518  0.48735466  1
  F  F89  1  0.73441842  0.57020062  0.82068983  1
  F  F90  1  0.76556047  0.92993583  0.15401890  1
  F  F91  1  0.76556518  0.92982482  0.48735466  1
  F  F92  1  0.76558158  0.92979938  0.82068983  1
  F  F93  1  0.56997307  0.73443219  0.32066298  1
  F  F94  1  0.56994474  0.73444688  0.65399787  1
  F  F95  1  0.57005763  0.73443287  0.98735156  1
loop_
_geom_bond_atom_site_label_1
_geom_bond_atom_site_label_2
_geom_bond_distance
_geom_bond_site_symmetry_2
Al0 F48 1.806310 1_555
Al0 F57 1.806310 1_555
Al0 F81 1.822832 1_555
Al0 F72 1.822832 1_555
Al0 F0 1.845918 1_555
Al0 F9 1.845918 1_545
Al1 F58 1.804928 1_555
Al1 F49 1.804928 1_555
Al1 F73 1.823064 1_555
Al1 F82 1.823064 1_555
Al1 F10 1.854845 1_545
Al1 F1 1.854845 1_555
Al2 F59 1.805107 1_555
Al2 F50 1.805107 1_555
Al2 F74 1.822997 1_555
Al2 F83 1.822997 1_555
Al2 F11 1.855001 1_545
Al2 F2 1.855001 1_555
Al3 F51 1.806510 1_555
Al3 F54 1.806510 1_555
Al3 F78 1.822861 1_555
Al3 F75 1.822861 1_555
Al3 F3 1.845852 1_455
Al3 F6 1.845852 1_555
Al4 F52 1.806454 1_555
Al4 F55 1.806454 1_555
Al4 F76 1.822945 1_555
Al4 F79 1.822945 1_555
Al4 F4 1.845864 1_455
Al4 F7 1.845864 1_555
Al5 F53 1.806829 1_555
Al5 F56 1.806829 1_555
Al5 F77 1.822376 1_555
Al5 F80 1.822376 1_555
Al5 F5 1.845758 1_455
Al5 F8 1.845758 1_555
Al6 F60 1.806829 1_555
Al6 F69 1.806829 1_555
Al6 F84 1.822346 1_555
Al6 F93 1.822346 1_555
Al6 F21 1.845758 1_565
Al6 F12 1.845758 1_555
Al7 F61 1.806485 1_555
Al7 F70 1.806485 1_555
Al7 F94 1.822945 1_555
Al7 F85 1.822945 1_555
Al7 F22 1.845864 1_565
Al7 F13 1.845864 1_555
Al8 F62 1.806479 1_555
Al8 F71 1.806479 1_555
Al8 F95 1.822891 1_555
Al8 F86 1.822891 1_555
Al8 F23 1.845852 1_565
Al8 F14 1.845852 1_555
Al9 F63 1.806341 1_555
Al9 F66 1.806341 1_555
Al9 F90 1.822832 1_555
Al9 F87 1.822832 1_555
Al9 F15 1.845918 1_655
Al9 F18 1.845918 1_555
Al10 F67 1.805076 1_555
Al10 F64 1.805076 1_555
Al10 F88 1.823027 1_555
Al10 F91 1.823027 1_555
Al10 F19 1.855001 1_555
Al10 F16 1.855001 1_655
Al11 F65 1.804928 1_555
Al11 F68 1.804928 1_555
Al11 F92 1.823033 1_555
Al11 F89 1.823033 1_555
Al11 F20 1.854844 1_555
Al11 F17 1.854844 1_655
O0 Sr3 3.052754 1_555
O0 Sr6 3.055960 1_555
O1 Sr4 3.055701 1_555
O1 Sr7 3.055744 1_555
O2 Sr8 3.052712 1_555
O2 Sr5 3.055960 1_555
O3 Sr0 3.052708 1_555
O3 Sr9 3.052751 1_555
F0 Sr12 2.481258 1_555
F0 Sr0 2.548964 1_555
F1 Sr13 2.486867 1_555
F1 Sr1 2.547594 1_555
F2 Sr14 2.486803 1_555
F2 Sr2 2.547619 1_555
F3 Sr15 2.481320 1_545
F3 Sr3 2.548955 1_555
F4 Sr16 2.481360 1_545
F4 Sr4 2.550735 1_555
F5 Sr17 2.481397 1_545
F5 Sr5 2.550767 1_555
F6 Sr15 2.481320 1_555
F6 Sr3 2.548955 1_555
F7 Sr16 2.481360 1_555
F7 Sr4 2.550735 1_555
F8 Sr17 2.481397 1_555
F8 Sr5 2.550767 1_555
F9 Sr12 2.481258 1_455
F9 Sr0 2.548964 1_555
F10 Sr13 2.486867 1_455
F10 Sr1 2.547594 1_555
F11 Sr14 2.486803 1_455
F11 Sr2 2.547619 1_555
F12 Sr18 2.481398 1_555
F12 Sr6 2.550789 1_555
F13 Sr19 2.481360 1_555
F13 Sr7 2.550735 1_555
F14 Sr20 2.481319 1_555
F14 Sr8 2.548933 1_555
F15 Sr21 2.481258 1_565
F15 Sr9 2.548964 1_555
F16 Sr22 2.486802 1_565
F16 Sr10 2.547596 1_555
F17 Sr23 2.486869 1_565
F17 Sr11 2.547616 1_555
F18 Sr21 2.481258 1_555
F18 Sr9 2.548964 1_555
F19 Sr22 2.486802 1_555
F19 Sr10 2.547596 1_555
F20 Sr23 2.486869 1_555
F20 Sr11 2.547616 1_555
F21 Sr18 2.481398 1_655
F21 Sr6 2.550789 1_555
F22 Sr19 2.481360 1_655
F22 Sr7 2.550735 1_555
F23 Sr20 2.481319 1_655
F23 Sr8 2.548933 1_555
F24 Sr8 2.535256 1_554
F24 Sr12 2.552912 1_555
F24 Sr24 2.619665 1_555
F24 Sr0 2.645928 1_655
F25 Sr6 2.535194 1_555
F25 Sr13 2.554386 1_555
F25 Sr25 2.623071 1_555
F25 Sr1 2.646905 1_655
F26 Sr7 2.535201 1_555
F26 Sr14 2.554356 1_555
F26 Sr26 2.623179 1_555
F26 Sr2 2.646975 1_655
F27 Sr9 2.535277 1_555
F27 Sr15 2.552973 1_455
F27 Sr27 2.618898 1_555
F27 Sr3 2.645987 1_455
F28 Sr10 2.517888 1_555
F28 Sr16 2.554187 1_455
F28 Sr28 2.618844 1_555
F28 Sr4 2.648358 1_455
F29 Sr11 2.517980 1_555
F29 Sr17 2.554141 1_455
F29 Sr29 2.619593 1_555
F29 Sr5 2.648386 1_455
F30 Sr9 2.535277 1_555
F30 Sr15 2.552973 1_555
F30 Sr27 2.618898 1_555
F30 Sr3 2.645987 1_565
F31 Sr10 2.517888 1_555
F31 Sr16 2.554187 1_555
F31 Sr28 2.618844 1_555
F31 Sr4 2.648358 1_565
F32 Sr11 2.517980 1_555
F32 Sr17 2.554141 1_555
F32 Sr29 2.619593 1_555
F32 Sr5 2.648386 1_565
F33 Sr8 2.535256 1_554
F33 Sr12 2.552912 1_545
F33 Sr24 2.619665 1_555
F33 Sr0 2.645928 1_545
F34 Sr6 2.535194 1_555
F34 Sr13 2.554386 1_545
F34 Sr25 2.623071 1_555
F34 Sr1 2.646905 1_545
F35 Sr7 2.535201 1_555
F35 Sr14 2.554356 1_545
F35 Sr26 2.623179 1_555
F35 Sr2 2.646975 1_545
F36 Sr1 2.517980 1_555
F36 Sr18 2.554141 1_555
F36 Sr27 2.619593 1_555
F36 Sr6 2.648386 1_455
F37 Sr2 2.517888 1_555
F37 Sr19 2.554183 1_555
F37 Sr28 2.618844 1_555
F37 Sr7 2.648374 1_455
F38 Sr0 2.535277 1_556
F38 Sr20 2.552977 1_555
F38 Sr29 2.618898 1_555
F38 Sr8 2.645971 1_455
F39 Sr3 2.535256 1_555
F39 Sr21 2.552907 1_655
F39 Sr24 2.619665 1_555
F39 Sr9 2.645944 1_655
F40 Sr4 2.535201 1_555
F40 Sr22 2.554360 1_655
F40 Sr25 2.623179 1_555
F40 Sr10 2.646959 1_655
F41 Sr5 2.535194 1_555
F41 Sr23 2.554386 1_655
F41 Sr26 2.623071 1_555
F41 Sr11 2.646905 1_655
F42 Sr3 2.535256 1_555
F42 Sr21 2.552907 1_555
F42 Sr24 2.619665 1_555
F42 Sr9 2.645944 1_545
F43 Sr4 2.535201 1_555
F43 Sr22 2.554360 1_555
F43 Sr25 2.623179 1_555
F43 Sr10 2.646959 1_545
F44 Sr5 2.535194 1_555
F44 Sr23 2.554386 1_555
F44 Sr26 2.623071 1_555
F44 Sr11 2.646905 1_545
F45 Sr1 2.517980 1_555
F45 Sr18 2.554141 1_565
F45 Sr27 2.619593 1_555
F45 Sr6 2.648386 1_565
F46 Sr2 2.517888 1_555
F46 Sr19 2.554183 1_565
F46 Sr28 2.618844 1_555
F46 Sr7 2.648374 1_565
F47 Sr0 2.535277 1_556
F47 Sr20 2.552977 1_565
F47 Sr29 2.618898 1_555
F47 Sr8 2.645971 1_565
F48 Sr24 2.488792 1_455
F48 Sr21 2.564342 1_555
F49 Sr25 2.488598 1_455
F49 Sr22 2.561749 1_555
F50 Sr26 2.488579 1_455
F50 Sr23 2.561684 1_555
F51 Sr27 2.488326 1_555
F51 Sr18 2.565843 1_555
F52 Sr28 2.488557 1_555
F52 Sr19 2.565465 1_555
F53 Sr29 2.488629 1_555
F53 Sr20 2.564420 1_555
F54 Sr27 2.488326 1_545
F54 Sr18 2.565843 1_555
F55 Sr28 2.488557 1_545
F55 Sr19 2.565465 1_555
F56 Sr29 2.488629 1_545
F56 Sr20 2.564420 1_555
F57 Sr24 2.488792 1_555
F57 Sr21 2.564342 1_555
F58 Sr25 2.488598 1_555
F58 Sr22 2.561749 1_555
F59 Sr26 2.488579 1_555
F59 Sr23 2.561684 1_555
F60 Sr27 2.488629 1_655
F60 Sr15 2.564458 1_555
F61 Sr28 2.488557 1_655
F61 Sr16 2.565427 1_555
F62 Sr29 2.488326 1_655
F62 Sr17 2.565843 1_555
F63 Sr24 2.488792 1_555
F63 Sr12 2.564304 1_555
F64 Sr25 2.488579 1_555
F64 Sr13 2.561684 1_555
F65 Sr26 2.488598 1_555
F65 Sr14 2.561786 1_555
F66 Sr24 2.488792 1_565
F66 Sr12 2.564304 1_555
F67 Sr25 2.488579 1_565
F67 Sr13 2.561684 1_555
F68 Sr26 2.488598 1_565
F68 Sr14 2.561786 1_555
F69 Sr27 2.488629 1_555
F69 Sr15 2.564458 1_555
F70 Sr28 2.488557 1_555
F70 Sr16 2.565427 1_555
F71 Sr29 2.488326 1_555
F71 Sr17 2.565843 1_555
F72 Sr20 2.609157 1_554
F72 Sr8 2.641355 1_454
F73 Sr18 2.607042 1_555
F73 Sr6 2.641048 1_455
F74 Sr19 2.607466 1_555
F74 Sr7 2.640927 1_455
F75 Sr21 2.609162 1_555
F75 Sr9 2.641372 1_555
F76 Sr22 2.614072 1_555
F76 Sr10 2.633105 1_555
F77 Sr23 2.614037 1_555
F77 Sr11 2.633363 1_555
F78 Sr21 2.609162 1_555
F78 Sr9 2.641372 1_545
F79 Sr22 2.614072 1_555
F79 Sr10 2.633105 1_545
F80 Sr23 2.614037 1_555
F80 Sr11 2.633363 1_545
F81 Sr20 2.609157 1_554
F81 Sr8 2.641355 1_554
F82 Sr18 2.607042 1_555
F82 Sr6 2.641048 1_555
F83 Sr19 2.607466 1_555
F83 Sr7 2.640927 1_555
F84 Sr13 2.614074 1_555
F84 Sr1 2.633379 1_655
F85 Sr14 2.614035 1_555
F85 Sr2 2.633088 1_655
F86 Sr12 2.609162 1_556
F86 Sr0 2.641372 1_656
F87 Sr15 2.609120 1_555
F87 Sr3 2.641338 1_555
F88 Sr16 2.607466 1_555
F88 Sr4 2.640927 1_555
F89 Sr17 2.607079 1_555
F89 Sr5 2.641065 1_555
F90 Sr15 2.609120 1_555
F90 Sr3 2.641338 1_565
F91 Sr16 2.607466 1_555
F91 Sr4 2.640927 1_565
F92 Sr17 2.607079 1_555
F92 Sr5 2.641065 1_565
F93 Sr13 2.614074 1_555
F93 Sr1 2.633379 1_555
F94 Sr14 2.614035 1_555
F94 Sr2 2.633088 1_555
F95 Sr12 2.609162 1_556
F95 Sr0 2.641372 1_556
