# generated using pymatgen
data_Ba(WO2)4
_symmetry_space_group_name_H-M   'P 1'
_cell_length_a   6.08974176
_cell_length_b   6.08974176
_cell_length_c   7.28220600
_cell_angle_alpha   90.00000000
_cell_angle_beta   90.00000000
_cell_angle_gamma   119.99999742
_symmetry_Int_Tables_number   1
_chemical_formula_structural   Ba(WO2)4
_chemical_formula_sum   'Ba1 W4 O8'
_cell_volume   233.87906899
_cell_formula_units_Z   1
loop_
 _symmetry_equiv_pos_site_id
 _symmetry_equiv_pos_as_xyz
  1  'x, y, z'
loop_
 _atom_site_type_symbol
 _atom_site_label
 _atom_site_symmetry_multiplicity
 _atom_site_fract_x
 _atom_site_fract_y
 _atom_site_fract_z
 _atom_site_occupancy
  Ba  Ba0  1  0.00000000  0.00000000  0.00000000  1
  W  W0  1  0.33333300  0.66666700  0.71973500  1
  W  W1  1  0.66666700  0.33333300  0.71973500  1
  W  W2  1  0.33333300  0.66666700  0.28026500  1
  W  W3  1  0.66666700  0.33333300  0.28026500  1
  O  O0  1  0.34498300  0.34498300  0.71411600  1
  O  O1  1  0.65501700  0.00000000  0.71411600  1
  O  O2  1  0.00000000  0.65501700  0.71411600  1
  O  O3  1  0.65501700  0.65501700  0.28588400  1
  O  O4  1  0.00000000  0.34498300  0.28588400  1
  O  O5  1  0.34498300  0.00000000  0.28588400  1
  O  O6  1  0.33333300  0.66666700  0.00000000  1
  O  O7  1  0.66666700  0.33333300  0.00000000  1
loop_
_geom_bond_atom_site_label_1
_geom_bond_atom_site_label_2
_geom_bond_distance
_geom_bond_site_symmetry_2
Ba0 O5 2.957663 1_555
Ba0 O4 2.957663 1_555
Ba0 O2 2.957663 1_544
Ba0 O1 2.957663 1_454
Ba0 O3 2.957663 1_445
Ba0 O0 2.957663 1_554
O0 W0 1.995811 1_555
O0 W1 1.995811 1_555
O1 W1 1.995805 1_555
O1 W0 1.995808 1_545
O2 W0 1.995805 1_555
O2 W1 1.995808 1_455
O3 W3 1.995811 1_555
O3 W2 1.995811 1_555
O4 W3 1.995805 1_455
O4 W2 1.995808 1_555
O5 W2 1.995805 1_545
O5 W3 1.995808 1_555
O6 W2 2.040947 1_555
O6 W0 2.040947 1_554
O7 W1 2.040947 1_554
O7 W3 2.040947 1_555
