# generated using pymatgen
data_Pr2Si2PbSe8
_symmetry_space_group_name_H-M   'P 1'
_cell_length_a   9.44488245
_cell_length_b   9.44488245
_cell_length_c   10.73949194
_cell_angle_alpha   65.48630052
_cell_angle_beta   65.48630052
_cell_angle_gamma   60.34519965
_symmetry_Int_Tables_number   1
_chemical_formula_structural   Pr2Si2PbSe8
_chemical_formula_sum   'Pr4 Si4 Pb2 Se16'
_cell_volume   730.39519971
_cell_formula_units_Z   2
loop_
 _symmetry_equiv_pos_site_id
 _symmetry_equiv_pos_as_xyz
  1  'x, y, z'
loop_
 _atom_site_type_symbol
 _atom_site_label
 _atom_site_symmetry_multiplicity
 _atom_site_fract_x
 _atom_site_fract_y
 _atom_site_fract_z
 _atom_site_occupancy
  Pr  Pr0  1  0.24670400  0.44002800  0.25244900  1
  Pr  Pr1  1  0.94482400  0.05781300  0.24469100  1
  Pr  Pr2  1  0.44002800  0.24670400  0.75244900  1
  Pr  Pr3  1  0.05781300  0.94482400  0.74469100  1
  Si  Si0  1  0.32903600  0.84890500  0.97895000  1
  Si  Si1  1  0.84890500  0.32903600  0.47895000  1
  Si  Si2  1  0.65195800  0.16861900  0.02210800  1
  Si  Si3  1  0.16861900  0.65195800  0.52210800  1
  Pb  Pb0  1  0.57433200  0.75003800  0.25017500  1
  Pb  Pb1  1  0.75003800  0.57433200  0.75017500  1
  Se  Se0  1  0.40540200  0.93196500  0.73566200  1
  Se  Se1  1  0.93196500  0.40540200  0.23566200  1
  Se  Se2  1  0.58511400  0.09765200  0.26471900  1
  Se  Se3  1  0.09765200  0.58511400  0.76471900  1
  Se  Se4  1  0.52806400  0.60865200  0.07693500  1
  Se  Se5  1  0.09237900  0.78918300  0.05713700  1
  Se  Se6  1  0.27317500  0.07138300  0.05137200  1
  Se  Se7  1  0.78918300  0.09237900  0.55713700  1
  Se  Se8  1  0.60865200  0.52806400  0.57693500  1
  Se  Se9  1  0.07138300  0.27317500  0.55137200  1
  Se  Se10  1  0.42466300  0.39787600  0.95358300  1
  Se  Se11  1  0.89254300  0.22157200  0.93145900  1
  Se  Se12  1  0.70909700  0.95902200  0.93075900  1
  Se  Se13  1  0.22157200  0.89254300  0.43145900  1
  Se  Se14  1  0.39787600  0.42466300  0.45358300  1
  Se  Se15  1  0.95902200  0.70909700  0.43075900  1
loop_
_geom_bond_atom_site_label_1
_geom_bond_atom_site_label_2
_geom_bond_distance
_geom_bond_site_symmetry_2
Pr0 Se14 2.969807 1_555
Pr0 Se10 3.034311 1_554
Pr0 Se5 3.072437 1_555
Pr0 Se9 3.082892 1_555
Pr0 Se15 3.224266 1_455
Pr0 Se1 3.229846 1_455
Pr0 Se2 3.233946 1_555
Pr0 Se4 3.269800 1_555
Pr1 Se6 2.962108 1_655
Pr1 Se15 3.030285 1_545
Pr1 Se7 3.141324 1_555
Pr1 Se2 3.150566 1_555
Pr1 Se1 3.186360 1_555
Pr1 Se11 3.202709 1_554
Pr1 Se5 3.293793 1_645
Pr1 Se13 3.317688 1_645
Pr2 Se10 2.969807 1_555
Pr2 Se14 3.034311 1_555
Pr2 Se7 3.072437 1_555
Pr2 Se6 3.082892 1_556
Pr2 Se12 3.224266 1_545
Pr2 Se0 3.229846 1_545
Pr2 Se3 3.233946 1_555
Pr2 Se8 3.269800 1_555
Pr3 Se9 2.962108 1_565
Pr3 Se12 3.030285 1_455
Pr3 Se5 3.141324 1_556
Pr3 Se3 3.150566 1_555
Pr3 Se0 3.186360 1_555
Pr3 Se13 3.202709 1_555
Pr3 Se7 3.293793 1_465
Pr3 Se11 3.317688 1_465
Pb0 Se4 2.957953 1_555
Pb0 Se13 3.009475 1_555
Pb0 Se12 3.244641 1_554
Pb0 Se8 3.313836 1_555
Pb0 Se1 3.336663 1_555
Pb0 Se2 3.403467 1_565
Pb1 Se8 2.957953 1_555
Pb1 Se11 3.009475 1_555
Pb1 Se15 3.244641 1_555
Pb1 Se4 3.313836 1_556
Pb1 Se0 3.336663 1_555
Pb1 Se3 3.403467 1_655
Se0 Si0 2.292930 1_555
Se1 Si1 2.292930 1_555
Se2 Si2 2.289344 1_555
Se3 Si3 2.289344 1_555
Se4 Si0 2.286724 1_554
Se5 Si0 2.305748 1_554
Se6 Si0 2.284140 1_544
Se7 Si1 2.305748 1_555
Se8 Si1 2.286724 1_555
Se9 Si1 2.284140 1_455
Se10 Si2 2.286400 1_556
Se11 Si2 2.290432 1_556
Se12 Si2 2.299489 1_566
Se13 Si3 2.290432 1_555
Se14 Si3 2.286400 1_555
Se15 Si3 2.299489 1_655
