# generated using pymatgen
data_MgCo4(P2O7)4
_symmetry_space_group_name_H-M   'P 1'
_cell_length_a   7.01004462
_cell_length_b   8.20324462
_cell_length_c   9.52176951
_cell_angle_alpha   90.88376842
_cell_angle_beta   108.67885249
_cell_angle_gamma   90.22187162
_symmetry_Int_Tables_number   1
_chemical_formula_structural   MgCo4(P2O7)4
_chemical_formula_sum   'Mg1 Co4 P8 O28'
_cell_volume   518.62598707
_cell_formula_units_Z   1
loop_
 _symmetry_equiv_pos_site_id
 _symmetry_equiv_pos_as_xyz
  1  'x, y, z'
loop_
 _atom_site_type_symbol
 _atom_site_label
 _atom_site_symmetry_multiplicity
 _atom_site_fract_x
 _atom_site_fract_y
 _atom_site_fract_z
 _atom_site_occupancy
  Mg  Mg0  1  0.08408100  0.06505200  0.58063600  1
  Co  Co0  1  0.73319100  0.77677500  0.01574200  1
  Co  Co1  1  0.70955700  0.72738200  0.50946700  1
  Co  Co2  1  0.29306200  0.31169100  0.47520600  1
  Co  Co3  1  0.28266800  0.22992800  0.99749500  1
  P  P0  1  0.52569600  0.06919200  0.80470500  1
  P  P1  1  0.46896200  0.92289400  0.22291600  1
  P  P2  1  0.53895700  0.42391700  0.28324900  1
  P  P3  1  0.92370900  0.96661500  0.79977000  1
  P  P4  1  0.07808100  0.45917700  0.70408200  1
  P  P5  1  0.07353400  0.04568900  0.21308100  1
  P  P6  1  0.48251200  0.57373800  0.71504300  1
  P  P7  1  0.93161800  0.55227900  0.30072900  1
  O  O0  1  0.51980900  0.59177900  0.35007500  1
  O  O1  1  0.88509500  0.61860000  0.14460200  1
  O  O2  1  0.87096100  0.96062000  0.16086400  1
  O  O3  1  0.91416500  0.68516700  0.41138400  1
  O  O4  1  0.11492800  0.39950100  0.86128700  1
  O  O5  1  0.11892400  0.06710300  0.83510200  1
  O  O6  1  0.09261300  0.31645000  0.59788200  1
  O  O7  1  0.24558500  0.59423900  0.69957300  1
  O  O8  1  0.11461700  0.11576100  0.37454500  1
  O  O9  1  0.13776100  0.47102100  0.34701000  1
  O  O10  1  0.10272100  0.17932800  0.11032900  1
  O  O11  1  0.48233400  0.21263300  0.89621100  1
  O  O12  1  0.38195500  0.06575300  0.64568500  1
  O  O13  1  0.52923700  0.90556500  0.88093500  1
  O  O14  1  0.24000800  0.90537100  0.22412700  1
  O  O15  1  0.48908100  0.40602100  0.63944500  1
  O  O16  1  0.60786600  0.58247200  0.87578800  1
  O  O17  1  0.89441500  0.91131000  0.63629700  1
  O  O18  1  0.49342600  0.28479400  0.37484400  1
  O  O19  1  0.41035000  0.41519600  0.12043600  1
  O  O20  1  0.77391500  0.40562900  0.29545000  1
  O  O21  1  0.74956900  0.09819400  0.79596500  1
  O  O22  1  0.48296200  0.08642800  0.14978300  1
  O  O23  1  0.60547100  0.91558900  0.38323900  1
  O  O24  1  0.50576500  0.78581600  0.12250200  1
  O  O25  1  0.91722600  0.82866400  0.90066800  1
  O  O26  1  0.87744000  0.54615400  0.65166700  1
  O  O27  1  0.52913400  0.71218100  0.62075200  1
loop_
_geom_bond_atom_site_label_1
_geom_bond_atom_site_label_2
_geom_bond_distance
_geom_bond_site_symmetry_2
Mg0 O12 1.978699 1_555
Mg0 O17 2.024403 1_445
Mg0 O6 2.065392 1_555
Mg0 O8 2.088835 1_555
Mg0 O5 2.355918 1_555
Co0 O1 1.883068 1_555
Co0 O13 1.919889 1_554
Co0 O25 1.990393 1_554
Co0 O2 2.046025 1_555
Co0 O16 2.064455 1_554
Co0 O24 2.148768 1_555
Co1 O27 1.897182 1_555
Co1 O23 1.965929 1_555
Co1 O3 1.975162 1_555
Co1 O0 1.988334 1_555
Co1 O17 2.083369 1_555
Co1 O26 2.117417 1_555
Co2 O15 1.873652 1_555
Co2 O9 1.895402 1_555
Co2 O18 1.946875 1_555
Co2 O8 2.058074 1_555
Co2 O6 2.095418 1_555
Co2 O12 2.560548 1_555
Co3 O19 1.935127 1_556
Co3 O11 1.941957 1_555
Co3 O10 1.948228 1_556
Co3 O4 2.022679 1_555
Co3 O22 2.054542 1_556
Co3 O5 2.068850 1_555
O0 P2 1.532375 1_555
O1 P7 1.525819 1_555
O2 P5 1.510000 1_665
O3 P7 1.536758 1_555
O4 P4 1.524111 1_555
O5 P3 1.534020 1_445
O6 P4 1.560173 1_555
O7 P4 1.622295 1_555
O7 P6 1.629322 1_555
O8 P5 1.569993 1_555
O9 P7 1.528196 1_455
O10 P5 1.536384 1_555
O11 P0 1.541728 1_555
O12 P0 1.526427 1_555
O13 P0 1.532297 1_565
O14 P1 1.614580 1_555
O14 P5 1.622773 1_565
O15 P6 1.550591 1_555
O16 P6 1.501538 1_555
O17 P3 1.563204 1_555
O18 P2 1.539861 1_555
O19 P2 1.523839 1_555
O20 P7 1.619917 1_555
O20 P2 1.621332 1_555
O21 P0 1.614865 1_555
O21 P3 1.624692 1_545
O22 P1 1.538103 1_545
O23 P1 1.522258 1_555
O24 P1 1.540217 1_555
O25 P3 1.505587 1_555
O26 P4 1.518400 1_655
O27 P6 1.555374 1_555
