# generated using pymatgen
data_Ca4AlSiH24SO16F13
_symmetry_space_group_name_H-M   'P 1'
_cell_length_a   11.95981743
_cell_length_b   11.95981743
_cell_length_c   11.94876753
_cell_angle_alpha   60.03142635
_cell_angle_beta   60.03142635
_cell_angle_gamma   89.99662602
_symmetry_Int_Tables_number   1
_chemical_formula_structural   Ca4AlSiH24SO16F13
_chemical_formula_sum   'Ca8 Al2 Si2 H48 S2 O32 F26'
_cell_volume   1209.71207725
_cell_formula_units_Z   2
loop_
 _symmetry_equiv_pos_site_id
 _symmetry_equiv_pos_as_xyz
  1  'x, y, z'
loop_
 _atom_site_type_symbol
 _atom_site_label
 _atom_site_symmetry_multiplicity
 _atom_site_fract_x
 _atom_site_fract_y
 _atom_site_fract_z
 _atom_site_occupancy
  Ca  Ca0  1  0.20504900  0.79436600  0.07962500  1
  Ca  Ca1  1  0.20563400  0.79495100  0.42037500  1
  Ca  Ca2  1  0.20187900  0.12532700  0.08580000  1
  Ca  Ca3  1  0.87467300  0.79812100  0.41420000  1
  Ca  Ca4  1  0.79495100  0.20563400  0.92037500  1
  Ca  Ca5  1  0.79436600  0.20504900  0.57962500  1
  Ca  Ca6  1  0.79812100  0.87467300  0.91420000  1
  Ca  Ca7  1  0.12532700  0.20187900  0.58580000  1
  Al  Al0  1  0.00000000  0.00000000  0.50000000  1
  Al  Al1  1  0.00000000  0.00000000  0.00000000  1
  Si  Si0  1  0.00000000  0.50000000  0.50000000  1
  Si  Si1  1  0.50000000  0.00000000  0.00000000  1
  H  H0  1  0.48995900  0.75776200  0.96096300  1
  H  H1  1  0.24223800  0.51004100  0.53903700  1
  H  H2  1  0.04975000  0.27923500  0.96048800  1
  H  H3  1  0.72076500  0.95025000  0.53951200  1
  H  H4  1  0.49013600  0.28138100  0.76771800  1
  H  H5  1  0.23977600  0.95031900  0.77070700  1
  H  H6  1  0.04968100  0.76022400  0.72929300  1
  H  H7  1  0.71861900  0.50986400  0.73228200  1
  H  H8  1  0.49044700  0.95091100  0.29108500  1
  H  H9  1  0.23994000  0.27889100  0.21026200  1
  H  H10  1  0.04908900  0.50955300  0.20891500  1
  H  H11  1  0.72110900  0.76006000  0.28973800  1
  H  H12  1  0.51004100  0.24223800  0.03903700  1
  H  H13  1  0.75776200  0.48995900  0.46096300  1
  H  H14  1  0.95025000  0.72076500  0.03951200  1
  H  H15  1  0.27923500  0.04975000  0.46048800  1
  H  H16  1  0.50986400  0.71861900  0.23228200  1
  H  H17  1  0.76022400  0.04968100  0.22929300  1
  H  H18  1  0.95031900  0.23977600  0.27070700  1
  H  H19  1  0.28138100  0.49013600  0.26771800  1
  H  H20  1  0.50955300  0.04908900  0.70891500  1
  H  H21  1  0.76006000  0.72110900  0.78973800  1
  H  H22  1  0.95091100  0.49044700  0.79108500  1
  H  H23  1  0.27889100  0.23994000  0.71026200  1
  H  H24  1  0.41598400  0.66624200  0.94221600  1
  H  H25  1  0.33375800  0.58401600  0.55778400  1
  H  H26  1  0.14163800  0.39271200  0.94082500  1
  H  H27  1  0.60728800  0.85836200  0.55917500  1
  H  H28  1  0.41649400  0.39211000  0.74984200  1
  H  H29  1  0.33362300  0.85850800  0.74934000  1
  H  H30  1  0.14149200  0.66637700  0.75066000  1
  H  H31  1  0.60789000  0.58350600  0.75015800  1
  H  H32  1  0.41653400  0.85795100  0.47589100  1
  H  H33  1  0.33342500  0.39178800  0.02519000  1
  H  H34  1  0.14204900  0.58346600  0.02410900  1
  H  H35  1  0.60821200  0.66657500  0.47481000  1
  H  H36  1  0.58401600  0.33375800  0.05778400  1
  H  H37  1  0.66624200  0.41598400  0.44221600  1
  H  H38  1  0.85836200  0.60728800  0.05917500  1
  H  H39  1  0.39271200  0.14163800  0.44082500  1
  H  H40  1  0.58350600  0.60789000  0.25015800  1
  H  H41  1  0.66637700  0.14149200  0.25066000  1
  H  H42  1  0.85850800  0.33362300  0.24934000  1
  H  H43  1  0.39211000  0.41649400  0.24984200  1
  H  H44  1  0.58346600  0.14204900  0.52410900  1
  H  H45  1  0.66657500  0.60821200  0.97481000  1
  H  H46  1  0.85795100  0.41653400  0.97589100  1
  H  H47  1  0.39178800  0.33342500  0.52519000  1
  S  S0  1  0.37493500  0.62506500  0.75000000  1
  S  S1  1  0.62506500  0.37493500  0.25000000  1
  O  O0  1  0.39941500  0.70971200  0.99841300  1
  O  O1  1  0.29028800  0.60058500  0.50158700  1
  O  O2  1  0.10169200  0.29320700  0.99777900  1
  O  O3  1  0.70679300  0.89830800  0.50222100  1
  O  O4  1  0.40013300  0.29266400  0.81010600  1
  O  O5  1  0.29147700  0.89887300  0.80868800  1
  O  O6  1  0.10112700  0.70852300  0.69131200  1
  O  O7  1  0.70733600  0.59986700  0.68989400  1
  O  O8  1  0.40044900  0.89708100  0.39243600  1
  O  O9  1  0.29170600  0.29215900  0.10726500  1
  O  O10  1  0.10291900  0.59955100  0.10756400  1
  O  O11  1  0.70784100  0.70829400  0.39273500  1
  O  O12  1  0.60058500  0.29028800  0.00158700  1
  O  O13  1  0.70971200  0.39941500  0.49841300  1
  O  O14  1  0.89830800  0.70679300  0.00222100  1
  O  O15  1  0.29320700  0.10169200  0.49777900  1
  O  O16  1  0.59986700  0.70733600  0.18989400  1
  O  O17  1  0.70852300  0.10112700  0.19131200  1
  O  O18  1  0.89887300  0.29147700  0.30868800  1
  O  O19  1  0.29266400  0.40013300  0.31010600  1
  O  O20  1  0.59955100  0.10291900  0.60756400  1
  O  O21  1  0.70829400  0.70784100  0.89273500  1
  O  O22  1  0.89708100  0.40044900  0.89243600  1
  O  O23  1  0.29215900  0.29170600  0.60726500  1
  O  O24  1  0.42569400  0.57377100  0.64784400  1
  O  O25  1  0.42622900  0.57430600  0.85215600  1
  O  O26  1  0.42579400  0.77841000  0.64762900  1
  O  O27  1  0.22159000  0.57420600  0.85237100  1
  O  O28  1  0.57430600  0.42622900  0.35215600  1
  O  O29  1  0.57377100  0.42569400  0.14784400  1
  O  O30  1  0.57420600  0.22159000  0.35237100  1
  O  O31  1  0.77841000  0.42579400  0.14762900  1
  F  F0  1  0.12770400  0.87229600  0.25000000  1
  F  F1  1  0.87229600  0.12770400  0.75000000  1
  F  F2  1  0.39681300  0.83799800  0.16958000  1
  F  F3  1  0.16200200  0.60318700  0.33042000  1
  F  F4  1  0.92988300  0.99139000  0.17931400  1
  F  F5  1  0.00861000  0.07011700  0.32068600  1
  F  F6  1  0.39789700  0.99261600  0.94039100  1
  F  F7  1  0.17178000  0.06906600  0.93956900  1
  F  F8  1  0.93093400  0.82822000  0.56043100  1
  F  F9  1  0.00738400  0.60210300  0.55960900  1
  F  F10  1  0.39767500  0.06649400  0.09490300  1
  F  F11  1  0.17216800  0.99141500  0.39777400  1
  F  F12  1  0.93350600  0.60232500  0.40509700  1
  F  F13  1  0.00858500  0.82783200  0.10222600  1
  F  F14  1  0.60318700  0.16200200  0.83042000  1
  F  F15  1  0.83799800  0.39681300  0.66958000  1
  F  F16  1  0.07011700  0.00861000  0.82068600  1
  F  F17  1  0.99139000  0.92988300  0.67931400  1
  F  F18  1  0.60210300  0.00738400  0.05960900  1
  F  F19  1  0.82822000  0.93093400  0.06043100  1
  F  F20  1  0.06906600  0.17178000  0.43956900  1
  F  F21  1  0.99261600  0.39789700  0.44039100  1
  F  F22  1  0.60232500  0.93350600  0.90509700  1
  F  F23  1  0.82783200  0.00858500  0.60222600  1
  F  F24  1  0.06649400  0.39767500  0.59490300  1
  F  F25  1  0.99141500  0.17216800  0.89777400  1
loop_
_geom_bond_atom_site_label_1
_geom_bond_atom_site_label_2
_geom_bond_distance
_geom_bond_site_symmetry_2
Ca0 F13 2.286489 1_555
Ca0 O5 2.392842 1_554
Ca0 O10 2.418253 1_555
Ca0 F0 2.425460 1_555
Ca0 F6 2.436285 1_554
Ca0 F3 2.467108 1_555
Ca0 O0 2.469419 1_554
Ca1 F11 2.286489 1_555
Ca1 O6 2.392842 1_555
Ca1 O8 2.418253 1_555
Ca1 F0 2.425460 1_555
Ca1 F9 2.436285 1_555
Ca1 F2 2.467108 1_555
Ca1 O1 2.469419 1_555
Ca2 F5 2.307251 1_555
Ca2 F7 2.332021 1_554
Ca2 O2 2.392122 1_554
Ca2 O9 2.447013 1_555
Ca2 O4 2.467742 1_554
Ca2 F0 2.474673 1_545
Ca2 F10 2.483590 1_555
Ca3 F4 2.307251 1_555
Ca3 F8 2.332021 1_555
Ca3 O3 2.392122 1_555
Ca3 O11 2.447013 1_555
Ca3 O7 2.467742 1_555
Ca3 F0 2.474673 1_655
Ca3 F12 2.483590 1_555
Ca4 F25 2.286489 1_555
Ca4 O17 2.392842 1_556
Ca4 O22 2.418253 1_555
Ca4 F1 2.425460 1_555
Ca4 F18 2.436285 1_556
Ca4 F15 2.467108 1_555
Ca4 O12 2.469419 1_556
Ca5 F23 2.286489 1_555
Ca5 O18 2.392842 1_555
Ca5 O20 2.418253 1_555
Ca5 F1 2.425460 1_555
Ca5 F21 2.436285 1_555
Ca5 F14 2.467108 1_555
Ca5 O13 2.469419 1_555
Ca6 F17 2.307251 1_555
Ca6 F19 2.332021 1_556
Ca6 O14 2.392122 1_556
Ca6 O21 2.447013 1_555
Ca6 O16 2.467742 1_556
Ca6 F1 2.474673 1_565
Ca6 F22 2.483590 1_555
Ca7 F16 2.307251 1_555
Ca7 F20 2.332021 1_555
Ca7 O15 2.392122 1_555
Ca7 O23 2.447013 1_555
Ca7 O19 2.467742 1_555
Ca7 F1 2.474673 1_455
Ca7 F24 2.483590 1_555
Al0 F17 1.813572 1_445
Al0 F5 1.813572 1_555
Al0 F20 1.829412 1_555
Al0 F8 1.829412 1_445
Al0 F23 1.831653 1_455
Al0 F11 1.831653 1_545
Al1 F4 1.813572 1_445
Al1 F16 1.813572 1_554
Al1 F7 1.829412 1_554
Al1 F19 1.829412 1_445
Al1 F13 1.831653 1_545
Al1 F25 1.831653 1_454
H0 O0 0.980911 1_555
H1 O1 0.980911 1_555
H2 O2 0.981486 1_555
H3 O3 0.981486 1_555
H4 O4 0.978268 1_555
H5 O5 0.983976 1_555
H6 O6 0.983976 1_555
H7 O7 0.978268 1_555
H8 O8 0.979036 1_555
H9 O9 0.983245 1_555
H10 O10 0.979036 1_555
H11 O11 0.983245 1_555
H12 O12 0.980911 1_555
H13 O13 0.980911 1_555
H14 O14 0.981486 1_555
H15 O15 0.981486 1_555
H16 O16 0.978268 1_555
H17 O17 0.983976 1_555
H18 O18 0.983976 1_555
H19 O19 0.978268 1_555
H20 O20 0.979036 1_555
H21 O21 0.983245 1_555
H22 O22 0.979036 1_555
H23 O23 0.983245 1_555
H24 O0 0.988063 1_555
H25 O1 0.988063 1_555
H26 O2 0.986794 1_555
H27 O3 0.986794 1_555
H28 O4 0.987428 1_555
H29 O5 0.987362 1_555
H30 O6 0.987362 1_555
H31 O7 0.987428 1_555
H32 O8 0.987831 1_555
H33 O9 0.987055 1_555
H34 O10 0.987831 1_555
H35 O11 0.987055 1_555
H36 O12 0.988063 1_555
H37 O13 0.988063 1_555
H38 O14 0.986794 1_555
H39 O15 0.986794 1_555
H40 O16 0.987428 1_555
H41 O17 0.987362 1_555
H42 O18 0.987362 1_555
H43 O19 0.987428 1_555
H44 O20 0.987831 1_555
H45 O21 0.987055 1_555
H46 O22 0.987831 1_555
H47 O23 0.987055 1_555
O24 S0 1.497528 1_555
O25 S0 1.497528 1_555
O26 S0 1.498432 1_555
O27 S0 1.498432 1_555
O28 S1 1.497528 1_555
O29 S1 1.497528 1_555
O30 S1 1.498432 1_555
O31 S1 1.498432 1_555
F2 Si1 1.721214 1_565
F3 Si0 1.721214 1_555
F6 Si1 1.714076 1_566
F9 Si0 1.714076 1_555
F10 Si1 1.711838 1_555
F12 Si0 1.711838 1_655
F14 Si1 1.721214 1_556
F15 Si0 1.721214 1_655
F18 Si1 1.714076 1_555
F21 Si0 1.714076 1_655
F22 Si1 1.711838 1_566
F24 Si0 1.711838 1_555
