# generated using pymatgen
data_Sr3Y2N4
_symmetry_space_group_name_H-M   'P 1'
_cell_length_a   6.35804293
_cell_length_b   12.49463901
_cell_length_c   10.23311732
_cell_angle_alpha   90.00000000
_cell_angle_beta   90.00000000
_cell_angle_gamma   90.00000000
_symmetry_Int_Tables_number   1
_chemical_formula_structural   Sr3Y2N4
_chemical_formula_sum   'Sr12 Y8 N16'
_cell_volume   812.93369041
_cell_formula_units_Z   4
loop_
 _symmetry_equiv_pos_site_id
 _symmetry_equiv_pos_as_xyz
  1  'x, y, z'
loop_
 _atom_site_type_symbol
 _atom_site_label
 _atom_site_symmetry_multiplicity
 _atom_site_fract_x
 _atom_site_fract_y
 _atom_site_fract_z
 _atom_site_occupancy
  Sr  Sr0  1  0.68260487  0.17266133  0.39616827  1
  Sr  Sr1  1  0.81739513  0.82733867  0.39616827  1
  Sr  Sr2  1  0.68260487  0.32733867  0.10383173  1
  Sr  Sr3  1  0.81739513  0.67266133  0.10383173  1
  Sr  Sr4  1  0.31739513  0.82733867  0.60383173  1
  Sr  Sr5  1  0.18260487  0.17266133  0.60383173  1
  Sr  Sr6  1  0.31739513  0.67266133  0.89616827  1
  Sr  Sr7  1  0.18260487  0.32733867  0.89616827  1
  Sr  Sr8  1  0.75000000  0.50000000  0.43774083  1
  Sr  Sr9  1  0.75000000  -0.00000000  0.06225917  1
  Sr  Sr10  1  0.25000000  0.50000000  0.56225917  1
  Sr  Sr11  1  0.25000000  -0.00000000  0.93774083  1
  Y  Y0  1  0.75000000  0.50000000  0.79035802  1
  Y  Y1  1  0.75000000  -0.00000000  0.70964198  1
  Y  Y2  1  0.25000000  0.50000000  0.20964198  1
  Y  Y3  1  0.25000000  -0.00000000  0.29035802  1
  Y  Y4  1  0.73152481  0.25000000  0.75000000  1
  Y  Y5  1  0.76847519  0.75000000  0.75000000  1
  Y  Y6  1  0.26847519  0.75000000  0.25000000  1
  Y  Y7  1  0.23152481  0.25000000  0.25000000  1
  N  N0  1  0.95579467  0.38456167  0.66659846  1
  N  N1  1  0.54420533  0.61543833  0.66659846  1
  N  N2  1  0.95579467  0.11543833  0.83340154  1
  N  N3  1  0.54420533  0.88456167  0.83340154  1
  N  N4  1  0.04420533  0.61543833  0.33340154  1
  N  N5  1  0.45579467  0.38456167  0.33340154  1
  N  N6  1  0.04420533  0.88456167  0.16659846  1
  N  N7  1  0.45579467  0.11543833  0.16659846  1
  N  N8  1  0.56134713  0.36378339  0.88068178  1
  N  N9  1  0.93865287  0.63621661  0.88068178  1
  N  N10  1  0.56134713  0.13621661  0.61931822  1
  N  N11  1  0.93865287  0.86378339  0.61931822  1
  N  N12  1  0.43865287  0.63621661  0.11931822  1
  N  N13  1  0.06134713  0.36378339  0.11931822  1
  N  N14  1  0.43865287  0.86378339  0.38068178  1
  N  N15  1  0.06134713  0.13621661  0.38068178  1
loop_
_geom_bond_atom_site_label_1
_geom_bond_atom_site_label_2
_geom_bond_distance
_geom_bond_site_symmetry_2
N0 Y0 2.323001 1_555
N0 Y4 2.363979 1_555
N0 Sr10 2.592191 1_655
N0 Sr7 2.847731 1_655
N0 Sr8 3.045828 1_555
N0 Sr5 3.082530 1_655
N1 Y0 2.323001 1_555
N1 Y5 2.363979 1_555
N1 Sr10 2.592191 1_555
N1 Sr6 2.847731 1_555
N1 Sr8 3.045828 1_555
N1 Sr4 3.082530 1_555
N2 Y1 2.323001 1_555
N2 Y4 2.363979 1_555
N2 Sr11 2.592191 1_655
N2 Sr5 2.847731 1_655
N2 Sr9 3.045828 1_556
N2 Sr7 3.082530 1_655
N3 Y1 2.323001 1_565
N3 Y5 2.363979 1_555
N3 Sr11 2.592191 1_565
N3 Sr4 2.847731 1_555
N3 Sr9 3.045828 1_566
N3 Sr6 3.082530 1_555
N4 Y2 2.323001 1_555
N4 Y6 2.363979 1_555
N4 Sr8 2.592191 1_455
N4 Sr3 2.847731 1_455
N4 Sr10 3.045828 1_555
N4 Sr1 3.082530 1_455
N5 Y2 2.323001 1_555
N5 Y7 2.363979 1_555
N5 Sr8 2.592191 1_555
N5 Sr2 2.847731 1_555
N5 Sr10 3.045828 1_555
N5 Sr0 3.082530 1_555
N6 Y3 2.323001 1_565
N6 Y6 2.363979 1_555
N6 Sr9 2.592191 1_465
N6 Sr1 2.847731 1_455
N6 Sr11 3.045828 1_564
N6 Sr3 3.082530 1_455
N7 Y3 2.323001 1_555
N7 Y7 2.363979 1_555
N7 Sr9 2.592191 1_555
N7 Sr0 2.847731 1_555
N7 Sr11 3.045828 1_554
N7 Sr2 3.082530 1_555
N8 Y4 2.231641 1_555
N8 Y0 2.278104 1_555
N8 Sr2 2.452794 1_556
N8 Sr7 2.455854 1_555
N9 Y5 2.231641 1_555
N9 Y0 2.278104 1_555
N9 Sr3 2.452794 1_556
N9 Sr6 2.455854 1_655
N10 Y4 2.231641 1_555
N10 Y1 2.278104 1_555
N10 Sr0 2.452794 1_555
N10 Sr5 2.455854 1_555
N11 Y5 2.231641 1_555
N11 Y1 2.278104 1_565
N11 Sr1 2.452794 1_555
N11 Sr4 2.455854 1_655
N12 Y6 2.231641 1_555
N12 Y2 2.278104 1_555
N12 Sr6 2.452794 1_554
N12 Sr3 2.455854 1_555
N13 Y7 2.231641 1_555
N13 Y2 2.278104 1_555
N13 Sr7 2.452794 1_554
N13 Sr2 2.455854 1_455
N14 Y6 2.231641 1_555
N14 Y3 2.278104 1_565
N14 Sr4 2.452794 1_555
N14 Sr1 2.455854 1_555
N15 Y7 2.231641 1_555
N15 Y3 2.278104 1_555
N15 Sr5 2.452794 1_555
N15 Sr0 2.455854 1_455
