# generated using pymatgen
data_RuO2
_symmetry_space_group_name_H-M   'P 1'
_cell_length_a   3.43453926
_cell_length_b   3.43453926
_cell_length_c   3.43453926
_cell_angle_alpha   60.00000000
_cell_angle_beta   60.00000000
_cell_angle_gamma   60.00000000
_symmetry_Int_Tables_number   1
_chemical_formula_structural   RuO2
_chemical_formula_sum   'Ru1 O2'
_cell_volume   28.64774597
_cell_formula_units_Z   1
loop_
 _symmetry_equiv_pos_site_id
 _symmetry_equiv_pos_as_xyz
  1  'x, y, z'
loop_
 _atom_site_type_symbol
 _atom_site_label
 _atom_site_symmetry_multiplicity
 _atom_site_fract_x
 _atom_site_fract_y
 _atom_site_fract_z
 _atom_site_occupancy
  Ru  Ru0  1  0.00000000  0.00000000  0.00000000  1
  O  O0  1  0.75000000  0.75000000  0.75000000  1
  O  O1  1  0.25000000  0.25000000  0.25000000  1
loop_
_geom_bond_atom_site_label_1
_geom_bond_atom_site_label_2
_geom_bond_distance
_geom_bond_site_symmetry_2
O0 Ru0 2.103217 1_665
O0 Ru0 2.103217 1_666
O0 Ru0 2.103217 1_566
O0 Ru0 2.103217 1_656
O1 Ru0 2.103217 1_555
O1 Ru0 2.103217 1_655
O1 Ru0 2.103217 1_565
O1 Ru0 2.103217 1_556
