# generated using pymatgen
data_Ho2PbS4
_symmetry_space_group_name_H-M   'P 1'
_cell_length_a   14.93165628
_cell_length_b   14.93165628
_cell_length_c   12.14436000
_cell_angle_alpha   90.00000000
_cell_angle_beta   90.00000000
_cell_angle_gamma   149.09869131
_symmetry_Int_Tables_number   1
_chemical_formula_structural   Ho2PbS4
_chemical_formula_sum   'Ho16 Pb8 S32'
_cell_volume   1390.53687565
_cell_formula_units_Z   8
loop_
 _symmetry_equiv_pos_site_id
 _symmetry_equiv_pos_as_xyz
  1  'x, y, z'
loop_
 _atom_site_type_symbol
 _atom_site_label
 _atom_site_symmetry_multiplicity
 _atom_site_fract_x
 _atom_site_fract_y
 _atom_site_fract_z
 _atom_site_occupancy
  Ho  Ho0  1  0.43056800  0.06969300  0.78505300  1
  Ho  Ho1  1  0.93030700  0.56943200  0.78505300  1
  Ho  Ho2  1  0.56943200  0.93030700  0.28505300  1
  Ho  Ho3  1  0.06969300  0.43056800  0.28505300  1
  Ho  Ho4  1  0.06885600  0.93114400  0.91460300  1
  Ho  Ho5  1  0.93114400  0.06885600  0.41460300  1
  Ho  Ho6  1  0.56940200  0.43059800  0.92467200  1
  Ho  Ho7  1  0.43059800  0.56940200  0.42467200  1
  Ho  Ho8  1  0.17656700  0.82343300  0.42935200  1
  Ho  Ho9  1  0.82343300  0.17656700  0.92935200  1
  Ho  Ho10  1  0.67382200  0.32617800  0.43274900  1
  Ho  Ho11  1  0.32617800  0.67382200  0.93274900  1
  Ho  Ho12  1  0.32574800  0.17183400  0.26801000  1
  Ho  Ho13  1  0.82816600  0.67425200  0.26801000  1
  Ho  Ho14  1  0.67425200  0.82816600  0.76801000  1
  Ho  Ho15  1  0.17183400  0.32574800  0.76801000  1
  Pb  Pb0  1  0.04808400  0.95191600  0.56207900  1
  Pb  Pb1  1  0.95191600  0.04808400  0.06207900  1
  Pb  Pb2  1  0.53746300  0.46253700  0.62843600  1
  Pb  Pb3  1  0.46253700  0.53746300  0.12843600  1
  Pb  Pb4  1  0.46036500  0.04078800  0.09487100  1
  Pb  Pb5  1  0.95921200  0.53963500  0.09487100  1
  Pb  Pb6  1  0.53963500  0.95921200  0.59487100  1
  Pb  Pb7  1  0.04078800  0.46036500  0.59487100  1
  S  S0  1  0.13994800  0.86005200  0.22228400  1
  S  S1  1  0.86005200  0.13994800  0.72228400  1
  S  S2  1  0.35936100  0.13360300  0.47781400  1
  S  S3  1  0.86639700  0.64063900  0.47781400  1
  S  S4  1  0.64063900  0.86639700  0.97781400  1
  S  S5  1  0.13360300  0.35936100  0.97781400  1
  S  S6  1  0.63885200  0.36114800  0.22385900  1
  S  S7  1  0.36114800  0.63885200  0.72385900  1
  S  S8  1  0.51637900  0.48362100  0.32091500  1
  S  S9  1  0.48362100  0.51637900  0.82091500  1
  S  S10  1  0.28665300  0.20733400  0.05949900  1
  S  S11  1  0.79266600  0.71334700  0.05949900  1
  S  S12  1  0.71334700  0.79266600  0.55949900  1
  S  S13  1  0.20733400  0.28665300  0.55949900  1
  S  S14  1  0.34057400  0.16665500  0.76971200  1
  S  S15  1  0.83334500  0.65942600  0.76971200  1
  S  S16  1  0.65942600  0.83334500  0.26971200  1
  S  S17  1  0.16665500  0.34057400  0.26971200  1
  S  S18  1  0.01976700  0.98023300  0.33701100  1
  S  S19  1  0.98023300  0.01976700  0.83701100  1
  S  S20  1  0.70948600  0.29051400  0.64475500  1
  S  S21  1  0.29051400  0.70948600  0.14475500  1
  S  S22  1  0.48880600  0.02001900  0.38000000  1
  S  S23  1  0.97998100  0.51119400  0.38000000  1
  S  S24  1  0.51119400  0.97998100  0.88000000  1
  S  S25  1  0.02001900  0.48880600  0.88000000  1
  S  S26  1  0.66373600  0.33626400  0.93901700  1
  S  S27  1  0.33626400  0.66373600  0.43901700  1
  S  S28  1  0.16273200  0.83726800  0.93573200  1
  S  S29  1  0.83726800  0.16273200  0.43573200  1
  S  S30  1  0.21105200  0.78894800  0.64382000  1
  S  S31  1  0.78894800  0.21105200  0.14382000  1
loop_
_geom_bond_atom_site_label_1
_geom_bond_atom_site_label_2
_geom_bond_distance
_geom_bond_site_symmetry_2
Ho0 S14 2.697261 1_555
Ho0 S24 2.709387 1_545
Ho0 S20 2.748451 1_555
Ho0 S28 2.751064 1_545
Ho0 S30 2.771006 1_545
Ho0 S26 2.771113 1_555
Ho1 S15 2.697261 1_555
Ho1 S25 2.709387 1_655
Ho1 S20 2.748451 1_555
Ho1 S28 2.751064 1_655
Ho1 S30 2.771006 1_655
Ho1 S26 2.771113 1_555
Ho2 S16 2.697261 1_555
Ho2 S22 2.709387 1_565
Ho2 S21 2.748451 1_555
Ho2 S29 2.751064 1_565
Ho2 S31 2.771006 1_565
Ho2 S27 2.771113 1_555
Ho3 S17 2.697261 1_555
Ho3 S23 2.709387 1_455
Ho3 S21 2.748451 1_555
Ho3 S29 2.751064 1_455
Ho3 S31 2.771006 1_455
Ho3 S27 2.771113 1_555
Ho4 S28 2.714289 1_555
Ho4 S19 2.719408 1_465
Ho4 S15 2.727441 1_455
Ho4 S14 2.727441 1_565
Ho4 S10 2.768407 1_566
Ho4 S11 2.768407 1_456
Ho5 S29 2.714289 1_555
Ho5 S18 2.719408 1_645
Ho5 S17 2.727441 1_655
Ho5 S16 2.727441 1_545
Ho5 S13 2.768407 1_655
Ho5 S12 2.768407 1_545
Ho6 S26 2.720898 1_555
Ho6 S10 2.732333 1_556
Ho6 S11 2.732333 1_556
Ho6 S14 2.763930 1_555
Ho6 S15 2.763930 1_555
Ho6 S9 2.772064 1_555
Ho7 S27 2.720898 1_555
Ho7 S13 2.732333 1_555
Ho7 S12 2.732333 1_555
Ho7 S17 2.763930 1_555
Ho7 S16 2.763930 1_555
Ho7 S8 2.772064 1_555
Ho8 S22 2.688225 1_565
Ho8 S23 2.688225 1_455
Ho8 S0 2.726677 1_555
Ho8 S2 2.748164 1_565
Ho8 S3 2.748164 1_455
Ho8 S30 2.787312 1_555
Ho9 S25 2.688225 1_655
Ho9 S24 2.688225 1_545
Ho9 S1 2.726677 1_555
Ho9 S5 2.748164 1_655
Ho9 S4 2.748164 1_545
Ho9 S31 2.787312 1_556
Ho10 S22 2.695865 1_555
Ho10 S23 2.695865 1_555
Ho10 S2 2.728511 1_555
Ho10 S3 2.728511 1_555
Ho10 S6 2.729237 1_555
Ho10 S20 2.771782 1_555
Ho11 S25 2.695865 1_555
Ho11 S24 2.695865 1_555
Ho11 S5 2.728511 1_555
Ho11 S4 2.728511 1_555
Ho11 S7 2.729237 1_555
Ho11 S21 2.771782 1_556
Ho12 S18 2.707366 1_545
Ho12 S8 2.729018 1_555
Ho12 S6 2.730544 1_555
Ho12 S0 2.741099 1_545
Ho12 S2 2.749805 1_555
Ho12 S10 2.750448 1_555
Ho13 S18 2.707366 1_655
Ho13 S8 2.729018 1_555
Ho13 S6 2.730544 1_555
Ho13 S0 2.741099 1_655
Ho13 S3 2.749805 1_555
Ho13 S11 2.750448 1_555
Ho14 S19 2.707366 1_565
Ho14 S9 2.729018 1_555
Ho14 S7 2.730544 1_555
Ho14 S1 2.741099 1_565
Ho14 S4 2.749805 1_555
Ho14 S12 2.750448 1_555
Ho15 S19 2.707366 1_455
Ho15 S9 2.729018 1_555
Ho15 S7 2.730544 1_555
Ho15 S1 2.741099 1_455
Ho15 S5 2.749805 1_555
Ho15 S13 2.750448 1_555
Pb0 S18 2.852248 1_555
Pb0 S3 2.893285 1_455
Pb0 S2 2.893285 1_565
Pb0 S12 3.200170 1_455
Pb0 S13 3.200170 1_565
Pb1 S19 2.852248 1_554
Pb1 S4 2.893285 1_544
Pb1 S5 2.893285 1_654
Pb1 S11 3.200170 1_545
Pb1 S10 3.200170 1_655
Pb2 S9 2.804625 1_555
Pb2 S15 2.969148 1_555
Pb2 S14 2.969148 1_555
Pb2 S13 3.111354 1_555
Pb2 S12 3.111354 1_555
Pb3 S8 2.804625 1_555
Pb3 S17 2.969148 1_555
Pb3 S16 2.969148 1_555
Pb3 S11 3.111354 1_555
Pb3 S10 3.111354 1_555
Pb4 S26 3.045880 1_554
Pb4 S24 3.064686 1_544
Pb4 S31 3.079418 1_555
Pb4 S28 3.089326 1_544
Pb4 S21 3.120958 1_545
Pb4 S0 3.226421 1_545
Pb4 S6 3.249722 1_555
Pb5 S26 3.045880 1_554
Pb5 S25 3.064686 1_654
Pb5 S31 3.079418 1_555
Pb5 S28 3.089326 1_654
Pb5 S21 3.120958 1_655
Pb5 S0 3.226421 1_655
Pb5 S6 3.249722 1_555
Pb6 S27 3.045880 1_555
Pb6 S22 3.064686 1_565
Pb6 S30 3.079418 1_555
Pb6 S29 3.089326 1_565
Pb6 S20 3.120958 1_565
Pb6 S1 3.226421 1_565
Pb6 S7 3.249722 1_555
Pb7 S27 3.045880 1_555
Pb7 S23 3.064686 1_455
Pb7 S30 3.079418 1_555
Pb7 S29 3.089326 1_455
Pb7 S20 3.120958 1_455
Pb7 S1 3.226421 1_455
Pb7 S7 3.249722 1_555
