# generated using pymatgen
data_Dy5SbAu2
_symmetry_space_group_name_H-M   'P 1'
_cell_length_a   8.62232927
_cell_length_b   8.62232927
_cell_length_c   8.62232927
_cell_angle_alpha   124.38448777
_cell_angle_beta   124.38448777
_cell_angle_gamma   82.56004035
_symmetry_Int_Tables_number   1
_chemical_formula_structural   Dy5SbAu2
_chemical_formula_sum   'Dy10 Sb2 Au4'
_cell_volume   419.34805875
_cell_formula_units_Z   2
loop_
 _symmetry_equiv_pos_site_id
 _symmetry_equiv_pos_as_xyz
  1  'x, y, z'
loop_
 _atom_site_type_symbol
 _atom_site_label
 _atom_site_symmetry_multiplicity
 _atom_site_fract_x
 _atom_site_fract_y
 _atom_site_fract_z
 _atom_site_occupancy
  Dy  Dy0  1  0.50000000  0.50000000  0.00000000  1
  Dy  Dy1  1  -0.00000000  -0.00000000  0.00000000  1
  Dy  Dy2  1  0.51392170  0.01392170  0.81143583  1
  Dy  Dy3  1  0.20248687  0.70248687  0.18856417  1
  Dy  Dy4  1  0.01392170  0.20248687  0.50000000  1
  Dy  Dy5  1  0.70248687  0.51392170  0.50000000  1
  Dy  Dy6  1  0.48607830  0.98607830  0.18856417  1
  Dy  Dy7  1  0.79751313  0.29751313  0.81143583  1
  Dy  Dy8  1  0.98607830  0.79751313  0.50000000  1
  Dy  Dy9  1  0.29751313  0.48607830  0.50000000  1
  Sb  Sb0  1  0.25000000  0.25000000  0.00000000  1
  Sb  Sb1  1  0.75000000  0.75000000  0.00000000  1
  Au  Au0  1  0.13709220  0.63709220  0.77418441  1
  Au  Au1  1  0.86290780  0.36290780  0.22581559  1
  Au  Au2  1  0.63709220  0.86290780  0.50000000  1
  Au  Au3  1  0.36290780  0.13709220  0.50000000  1
loop_
_geom_bond_atom_site_label_1
_geom_bond_atom_site_label_2
_geom_bond_distance
_geom_bond_site_symmetry_2
Dy0 Sb0 3.239815 1_555
Dy0 Sb1 3.239815 1_555
Dy1 Sb1 3.239815 1_445
Dy1 Sb0 3.239815 1_555
Dy2 Sb1 3.347624 1_546
Dy2 Sb0 3.347624 1_556
Dy3 Sb0 3.347629 1_555
Dy3 Sb1 3.347629 1_455
Dy4 Sb0 3.347628 1_556
Dy4 Sb1 3.347628 1_445
Dy5 Sb0 3.347628 1_555
Dy5 Sb1 3.347628 1_556
Dy6 Sb0 3.347624 1_565
Dy6 Sb1 3.347624 1_555
Dy7 Sb0 3.347629 1_656
Dy7 Sb1 3.347629 1_556
Dy8 Sb1 3.347628 1_555
Dy8 Sb0 3.347628 1_666
Dy9 Sb0 3.347628 1_555
Dy9 Sb1 3.347628 1_556
Au0 Dy3 2.988813 1_556
Au0 Dy6 2.988821 1_556
Au0 Dy4 2.991296 1_555
Au0 Dy5 2.991296 1_455
Au0 Dy9 2.991297 1_555
Au0 Dy8 2.991297 1_455
Au0 Dy0 3.120866 1_556
Au0 Dy1 3.120866 1_566
Au1 Dy7 2.988813 1_554
Au1 Dy2 2.988821 1_554
Au1 Dy9 2.991296 1_655
Au1 Dy8 2.991296 1_555
Au1 Dy5 2.991297 1_555
Au1 Dy4 2.991297 1_655
Au1 Dy0 3.120866 1_555
Au1 Dy1 3.120866 1_655
Au2 Dy8 2.988822 1_555
Au2 Dy5 2.988822 1_555
Au2 Dy7 2.991296 1_565
Au2 Dy3 2.991296 1_555
Au2 Dy6 2.991304 1_555
Au2 Dy2 2.991304 1_565
Au2 Dy0 3.120866 1_555
Au2 Dy1 3.120866 1_666
Au3 Dy9 2.988822 1_555
Au3 Dy4 2.988822 1_555
Au3 Dy3 2.991296 1_545
Au3 Dy7 2.991296 1_555
Au3 Dy6 2.991304 1_545
Au3 Dy2 2.991304 1_555
Au3 Dy1 3.120866 1_555
Au3 Dy0 3.120866 1_556
