# generated using pymatgen
data_Lu2FeS4
_symmetry_space_group_name_H-M   'P 1'
_cell_length_a   7.56059600
_cell_length_b   7.68210998
_cell_length_c   31.03877959
_cell_angle_alpha   96.46261671
_cell_angle_beta   90.21349289
_cell_angle_gamma   119.31407989
_symmetry_Int_Tables_number   1
_chemical_formula_structural   Lu2FeS4
_chemical_formula_sum   'Lu20 Fe10 S40'
_cell_volume   1558.33262851
_cell_formula_units_Z   10
loop_
 _symmetry_equiv_pos_site_id
 _symmetry_equiv_pos_as_xyz
  1  'x, y, z'
loop_
 _atom_site_type_symbol
 _atom_site_label
 _atom_site_symmetry_multiplicity
 _atom_site_fract_x
 _atom_site_fract_y
 _atom_site_fract_z
 _atom_site_occupancy
  Lu  Lu0  1  0.75574800  0.63385700  0.12294200  1
  Lu  Lu1  1  0.64691200  0.32651200  0.02131400  1
  Lu  Lu2  1  0.23783600  0.12551100  0.12292500  1
  Lu  Lu3  1  0.76435300  0.12602600  0.12262000  1
  Lu  Lu4  1  0.33464800  0.89002200  0.22141100  1
  Lu  Lu5  1  0.95132800  0.22981900  0.32729300  1
  Lu  Lu6  1  0.85597200  0.93467800  0.22284800  1
  Lu  Lu7  1  0.43884000  0.72378200  0.32807400  1
  Lu  Lu8  1  0.95673600  0.72387800  0.32805900  1
  Lu  Lu9  1  0.14901100  0.82507000  0.52582600  1
  Lu  Lu10  1  0.53415300  0.49061200  0.42260400  1
  Lu  Lu11  1  0.64708300  0.32199500  0.52614900  1
  Lu  Lu12  1  0.14783300  0.32151900  0.52639200  1
  Lu  Lu13  1  0.74173900  0.12495300  0.62692400  1
  Lu  Lu14  1  0.35009000  0.42003700  0.72146400  1
  Lu  Lu15  1  0.86031000  0.92839100  0.72217000  1
  Lu  Lu16  1  0.95137200  0.72423900  0.82455300  1
  Lu  Lu17  1  0.55353000  0.03125800  0.92777000  1
  Lu  Lu18  1  0.45045700  0.72634000  0.82506200  1
  Lu  Lu19  1  0.04604600  0.51692800  0.92846900  1
  Fe  Fe0  1  0.30418400  0.65785000  0.04965800  1
  Fe  Fe1  1  0.51676400  0.28608800  0.25200100  1
  Fe  Fe2  1  0.71206200  0.88109100  0.45618500  1
  Fe  Fe3  1  0.05697900  0.53390500  0.42029600  1
  Fe  Fe4  1  0.91177800  0.49462700  0.65954200  1
  Fe  Fe5  1  0.58297300  0.75766900  0.59361700  1
  Fe  Fe6  1  0.78377800  0.34791600  0.79637600  1
  Fe  Fe7  1  0.11517800  0.09949600  0.85368600  1
  Fe  Fe8  1  0.34943300  0.93164100  0.72229600  1
  Fe  Fe9  1  0.54649000  0.50620800  0.93287300  1
  S  S0  1  0.45358300  0.47644100  0.07514700  1
  S  S1  1  0.54064400  0.25815700  0.17654700  1
  S  S2  1  0.94550400  0.47689800  0.07413600  1
  S  S3  1  0.45133200  0.98111800  0.07467800  1
  S  S4  1  0.04302500  0.26119100  0.17383400  1
  S  S5  1  0.63919200  0.06994300  0.27537700  1
  S  S6  1  0.74366300  0.86522000  0.37769500  1
  S  S7  1  0.15566100  0.07020700  0.27535700  1
  S  S8  1  0.55782700  0.77699100  0.17490000  1
  S  S9  1  0.94500000  0.96750900  0.07675400  1
  S  S10  1  0.04396600  0.77633000  0.17507200  1
  S  S11  1  0.65956000  0.59755100  0.27809000  1
  S  S12  1  0.23260400  0.84447100  0.37926400  1
  S  S13  1  0.84725000  0.66806500  0.47303900  1
  S  S14  1  0.94873000  0.47651700  0.57738600  1
  S  S15  1  0.34747700  0.66804300  0.47311300  1
  S  S16  1  0.76189700  0.37677100  0.37591600  1
  S  S17  1  0.14574900  0.56943400  0.27770400  1
  S  S18  1  0.23923800  0.37652100  0.37595300  1
  S  S19  1  0.87180500  0.21592300  0.47200600  1
  S  S20  1  0.04192200  0.28159500  0.67532200  1
  S  S21  1  0.43768600  0.44944800  0.57412000  1
  S  S22  1  0.15379000  0.07730500  0.77519000  1
  S  S23  1  0.56039800  0.27763300  0.67728600  1
  S  S24  1  0.93525100  0.96794000  0.57422000  1
  S  S25  1  0.34538000  0.16994500  0.47830400  1
  S  S26  1  0.45718700  0.96763400  0.57368800  1
  S  S27  1  0.08708900  0.80448400  0.67983200  1
  S  S28  1  0.61960900  0.04338600  0.76892500  1
  S  S29  1  0.24663600  0.87791400  0.87401100  1
  S  S30  1  0.36173900  0.67485100  0.97290600  1
  S  S31  1  0.14855000  0.57309600  0.77423800  1
  S  S32  1  0.75832200  0.88031200  0.87326900  1
  S  S33  1  0.54825000  0.77526000  0.67372300  1
  S  S34  1  0.65156400  0.57426400  0.77415300  1
  S  S35  1  0.28350800  0.40651400  0.87927400  1
  S  S36  1  0.82579500  0.65696400  0.96839000  1
  S  S37  1  0.36382800  0.19562300  0.96963900  1
  S  S38  1  0.75283600  0.37561800  0.87157700  1
  S  S39  1  0.84333400  0.17999400  0.97356700  1
loop_
_geom_bond_atom_site_label_1
_geom_bond_atom_site_label_2
_geom_bond_distance
_geom_bond_site_symmetry_2
Lu0 S0 2.397501 1_555
Lu0 S10 2.409183 1_655
Lu0 S2 2.665696 1_555
Lu0 S8 2.697977 1_555
Lu0 S9 2.814896 1_555
Lu0 S1 3.201284 1_555
Lu1 S37 2.380866 1_554
Lu1 S2 2.472125 1_555
Lu1 S39 2.635590 1_554
Lu1 S0 2.736513 1_555
Lu1 S36 2.926660 1_554
Lu1 S3 3.022591 1_545
Lu2 S9 2.319967 1_445
Lu2 S1 2.520973 1_555
Lu2 S4 2.627268 1_555
Lu2 S3 2.734196 1_545
Lu2 S0 2.956308 1_555
Lu2 S10 3.018081 1_545
Lu3 S4 2.346374 1_655
Lu3 S3 2.464874 1_545
Lu3 S9 2.574460 1_545
Lu3 S1 2.830635 1_555
Lu3 S2 2.952877 1_555
Lu3 S8 3.026468 1_545
Lu4 S10 2.340014 1_555
Lu4 S5 2.520242 1_565
Lu4 S8 2.618385 1_555
Lu4 S7 2.807188 1_565
Lu4 S17 2.949769 1_555
Lu4 S1 2.992061 1_565
Lu5 S18 2.340889 1_655
Lu5 S5 2.522376 1_555
Lu5 S16 2.611339 1_555
Lu5 S7 2.813754 1_655
Lu5 S17 2.915833 1_655
Lu5 S6 3.075076 1_545
Lu6 S8 2.378839 1_555
Lu6 S7 2.480883 1_665
Lu6 S10 2.646062 1_655
Lu6 S5 2.780390 1_565
Lu6 S4 2.829779 1_665
Lu6 S11 3.017490 1_555
Lu7 S17 2.396807 1_555
Lu7 S6 2.451314 1_555
Lu7 S12 2.630186 1_555
Lu7 S11 2.719805 1_555
Lu7 S18 2.927389 1_555
Lu7 S5 3.015750 1_565
Lu8 S12 2.342287 1_655
Lu8 S11 2.428101 1_555
Lu8 S17 2.674348 1_655
Lu8 S6 2.739060 1_555
Lu8 S16 2.923770 1_555
Lu8 S7 3.015988 1_665
Lu9 S26 2.438138 1_555
Lu9 S13 2.485402 1_455
Lu9 S24 2.730694 1_455
Lu9 S15 2.780308 1_555
Lu9 S25 2.905773 1_565
Lu9 S14 3.006032 1_455
Lu10 S18 2.369221 1_555
Lu10 S13 2.498945 1_555
Lu10 S16 2.652833 1_555
Lu10 S15 2.779729 1_555
Lu10 S25 2.937465 1_555
Lu10 S6 3.031435 1_555
Lu11 S25 2.397551 1_555
Lu11 S14 2.456957 1_555
Lu11 S21 2.624748 1_555
Lu11 S19 2.728290 1_555
Lu11 S26 2.956704 1_545
Lu11 S13 3.023427 1_555
Lu12 S21 2.345661 1_555
Lu12 S19 2.422960 1_455
Lu12 S25 2.672594 1_555
Lu12 S14 2.745486 1_455
Lu12 S24 2.969115 1_445
Lu12 S15 3.028964 1_555
Lu13 S20 2.397713 1_655
Lu13 S26 2.407782 1_545
Lu13 S23 2.622380 1_555
Lu13 S24 2.751944 1_545
Lu13 S33 2.917676 1_545
Lu13 S14 2.986887 1_555
Lu14 S20 2.411786 1_555
Lu14 S34 2.483002 1_555
Lu14 S23 2.643319 1_555
Lu14 S31 2.779746 1_555
Lu14 S33 2.968265 1_555
Lu14 S22 3.015996 1_555
Lu15 S22 2.450272 1_665
Lu15 S33 2.463588 1_555
Lu15 S27 2.627940 1_655
Lu15 S28 2.739263 1_565
Lu15 S20 2.935467 1_665
Lu15 S34 3.049245 1_555
Lu16 S29 2.391583 1_655
Lu16 S34 2.433780 1_555
Lu16 S32 2.678842 1_555
Lu16 S31 2.704372 1_655
Lu16 S38 2.918189 1_555
Lu16 S22 2.989084 1_665
Lu17 S39 2.299292 1_555
Lu17 S29 2.531398 1_545
Lu17 S37 2.599639 1_555
Lu17 S32 2.817749 1_545
Lu17 S30 2.924518 1_545
Lu17 S38 3.076664 1_555
Lu18 S32 2.436307 1_555
Lu18 S31 2.451235 1_555
Lu18 S29 2.723070 1_555
Lu18 S34 2.741410 1_555
Lu18 S35 2.893260 1_555
Lu18 S28 2.919856 1_565
Lu19 S30 2.415476 1_555
Lu19 S38 2.528625 1_455
Lu19 S36 2.633454 1_455
Lu19 S35 2.737586 1_555
Lu19 S39 2.820481 1_455
Lu19 S29 3.131063 1_555
Fe0 S3 2.205009 1_555
Fe0 S0 2.372096 1_555
Fe0 S30 2.429779 1_554
Fe0 S2 2.534854 1_455
Fe1 S11 2.138729 1_555
Fe1 S1 2.343409 1_555
Fe1 S5 2.431358 1_555
Fe1 S7 2.565442 1_555
Fe1 Lu4 2.700486 1_545
Fe2 S19 2.232797 1_565
Fe2 S13 2.413097 1_555
Fe2 S6 2.444009 1_555
Fe2 S15 2.517882 1_555
Fe2 Lu10 2.688623 1_555
Fe3 S16 2.301679 1_455
Fe3 S15 2.439270 1_555
Fe3 S18 2.554582 1_555
Fe3 S12 2.582978 1_555
Fe3 S13 2.737951 1_455
Fe3 S19 2.837927 1_455
Fe4 S27 2.094386 1_655
Fe4 S20 2.374863 1_655
Fe4 S23 2.453781 1_555
Fe4 Lu13 2.551619 1_555
Fe4 S14 2.561938 1_555
Fe5 S21 2.074835 1_555
Fe5 S26 2.368759 1_555
Fe5 S24 2.466516 1_555
Fe5 S33 2.496657 1_555
Fe5 Lu13 2.547221 1_565
Fe6 S28 2.107042 1_555
Fe6 S38 2.342917 1_555
Fe6 S34 2.542717 1_555
Fe6 Lu16 2.561975 1_555
Fe6 S31 2.584713 1_655
Fe7 S35 2.108272 1_555
Fe7 S22 2.451726 1_555
Fe7 S29 2.485371 1_545
Fe7 S32 2.505644 1_445
Fe7 Lu16 2.563344 1_445
Fe8 S27 2.102157 1_555
Fe8 S28 2.232812 1_565
Fe8 S33 2.711671 1_555
Fe8 S22 2.713088 1_565
Fe8 S23 2.874331 1_565
Fe8 S31 3.068254 1_555
Fe9 S36 2.077591 1_555
Fe9 S35 2.346286 1_555
Fe9 S37 2.510065 1_555
Fe9 S30 2.568281 1_555
Fe9 S38 2.860951 1_555
