# generated using pymatgen
data_ZrTi(PbO3)2
_symmetry_space_group_name_H-M   'P 1'
_cell_length_a   4.19376400
_cell_length_b   5.77536849
_cell_length_c   5.85453653
_cell_angle_alpha   88.52136135
_cell_angle_beta   88.90629516
_cell_angle_gamma   89.29799271
_symmetry_Int_Tables_number   1
_chemical_formula_structural   ZrTi(PbO3)2
_chemical_formula_sum   'Zr1 Ti1 Pb2 O6'
_cell_volume   141.71713996
_cell_formula_units_Z   1
loop_
 _symmetry_equiv_pos_site_id
 _symmetry_equiv_pos_as_xyz
  1  'x, y, z'
loop_
 _atom_site_type_symbol
 _atom_site_label
 _atom_site_symmetry_multiplicity
 _atom_site_fract_x
 _atom_site_fract_y
 _atom_site_fract_z
 _atom_site_occupancy
  Zr  Zr0  1  0.77185300  0.64295500  0.91859600  1
  Ti  Ti0  1  0.74488500  0.13767200  0.41118600  1
  Pb  Pb0  1  0.22410900  0.62221200  0.38493400  1
  Pb  Pb1  1  0.22942900  0.13573300  0.86202700  1
  O  O0  1  0.81109600  0.39176600  0.68537400  1
  O  O1  1  0.79959600  0.90562900  0.20295300  1
  O  O2  1  0.28326700  0.65888400  0.96023700  1
  O  O3  1  0.30971000  0.15657300  0.44550500  1
  O  O4  1  0.80618700  0.40438400  0.20949700  1
  O  O5  1  0.80986800  0.92119200  0.68668900  1
loop_
_geom_bond_atom_site_label_1
_geom_bond_atom_site_label_2
_geom_bond_distance
_geom_bond_site_symmetry_2
O0 Zr0 2.020835 1_555
O0 Ti0 2.226208 1_555
O0 Pb1 2.502155 1_655
O0 Pb0 2.772120 1_655
O1 Ti0 1.844161 1_565
O1 Zr0 2.286589 1_554
O1 Pb0 2.625803 1_655
O2 Zr0 2.060055 1_555
O2 Zr0 2.166518 1_455
O2 Pb0 2.497834 1_556
O3 Ti0 1.834459 1_555
O3 Ti0 2.385134 1_455
O3 Pb1 2.455369 1_555
O3 Pb0 2.723712 1_555
O4 Ti0 1.933217 1_555
O4 Zr0 2.168658 1_554
O4 Pb0 2.428759 1_655
O5 Ti0 2.035520 1_565
O5 Zr0 2.082403 1_555
O5 Pb1 2.423427 1_665
