# generated using pymatgen
data_P6N7ClO19
_symmetry_space_group_name_H-M   'P 1'
_cell_length_a   6.27855184
_cell_length_b   10.15926555
_cell_length_c   19.95214007
_cell_angle_alpha   99.48971630
_cell_angle_beta   88.37362960
_cell_angle_gamma   110.71259603
_symmetry_Int_Tables_number   1
_chemical_formula_structural   P6N7ClO19
_chemical_formula_sum   'P12 N14 Cl2 O38'
_cell_volume   1173.49182292
_cell_formula_units_Z   2
loop_
 _symmetry_equiv_pos_site_id
 _symmetry_equiv_pos_as_xyz
  1  'x, y, z'
loop_
 _atom_site_type_symbol
 _atom_site_label
 _atom_site_symmetry_multiplicity
 _atom_site_fract_x
 _atom_site_fract_y
 _atom_site_fract_z
 _atom_site_occupancy
  P  P0  1  0.46796700  0.10145100  0.64971100  1
  P  P1  1  0.53203300  0.89854900  0.35028900  1
  P  P2  1  0.51344300  0.17876800  0.42720300  1
  P  P3  1  0.48655700  0.82123200  0.57279700  1
  P  P4  1  0.97153400  0.13398500  0.14511100  1
  P  P5  1  0.02846600  0.86601500  0.85488900  1
  P  P6  1  0.01325300  0.85023900  0.09520700  1
  P  P7  1  0.98674700  0.14976100  0.90479300  1
  P  P8  1  0.24445900  0.29252700  0.03779800  1
  P  P9  1  0.75554100  0.70747300  0.96220200  1
  P  P10  1  0.24849500  0.68888100  0.44261900  1
  P  P11  1  0.75150500  0.31111900  0.55738100  1
  N  N0  1  0.86789700  0.29091900  0.74603300  1
  N  N1  1  0.13210300  0.70908100  0.25396700  1
  N  N2  1  0.63840600  0.70759400  0.15564500  1
  N  N3  1  0.36159400  0.29240600  0.84435500  1
  N  N4  1  0.50000000  0.00000000  0.00000000  1
  N  N5  1  0.99801900  0.44638100  0.09123200  1
  N  N6  1  0.00198100  0.55361900  0.90876800  1
  N  N7  1  0.88057400  0.25680500  0.35362200  1
  N  N8  1  0.11942600  0.74319500  0.64637800  1
  N  N9  1  0.17421600  0.39336100  0.59947600  1
  N  N10  1  0.82578400  0.60663900  0.40052400  1
  N  N11  1  0.30139200  0.14479000  0.22799300  1
  N  N12  1  0.69860800  0.85521000  0.77200700  1
  N  N13  1  0.00000000  0.00000000  0.50000000  1
  Cl  Cl0  1  0.57624600  0.57716700  0.20390900  1
  Cl  Cl1  1  0.42375400  0.42283300  0.79609100  1
  O  O0  1  0.14512900  0.28524300  0.87180900  1
  O  O1  1  0.85487100  0.71475700  0.12819100  1
  O  O2  1  0.57439600  0.23839800  0.61045500  1
  O  O3  1  0.42560400  0.76160200  0.38954500  1
  O  O4  1  0.21949000  0.05828500  0.65323400  1
  O  O5  1  0.78051000  0.94171500  0.34676600  1
  O  O6  1  0.25345000  0.89270500  0.11413200  1
  O  O7  1  0.74655000  0.10729500  0.88586800  1
  O  O8  1  0.78566400  0.18874000  0.14976900  1
  O  O9  1  0.21433600  0.81126000  0.85023100  1
  O  O10  1  0.03563900  0.19695100  0.98573300  1
  O  O11  1  0.96436100  0.80304900  0.01426700  1
  O  O12  1  0.19083400  0.43880600  0.06317700  1
  O  O13  1  0.80916600  0.56119400  0.93682300  1
  O  O14  1  0.10634800  0.03277300  0.88708500  1
  O  O15  1  0.89365200  0.96722700  0.11291500  1
  O  O16  1  0.22095800  0.54162400  0.44501800  1
  O  O17  1  0.77904200  0.45837600  0.55498200  1
  O  O18  1  0.01528000  0.71648500  0.41950200  1
  O  O19  1  0.98472000  0.28351500  0.58049800  1
  O  O20  1  0.44285500  0.01340000  0.39901800  1
  O  O21  1  0.55714500  0.98660000  0.60098200  1
  O  O22  1  0.32642900  0.22992900  0.44491000  1
  O  O23  1  0.67357100  0.77007100  0.55509000  1
  O  O24  1  0.11648900  0.60582900  0.27242300  1
  O  O25  1  0.88351100  0.39417100  0.72757700  1
  O  O26  1  0.67595400  0.26397700  0.37118700  1
  O  O27  1  0.32404600  0.73602300  0.62881300  1
  O  O28  1  0.61057200  0.13929900  0.71663600  1
  O  O29  1  0.38942800  0.86070100  0.28336400  1
  O  O30  1  0.18688800  0.20667700  0.10041200  1
  O  O31  1  0.81311200  0.79332300  0.89958800  1
  O  O32  1  0.09417200  0.15191900  0.21827700  1
  O  O33  1  0.90582800  0.84808100  0.78172300  1
  O  O34  1  0.68956500  0.19554500  0.48892700  1
  O  O35  1  0.31043500  0.80445500  0.51107300  1
  O  O36  1  0.47550600  0.32406600  0.01400300  1
  O  O37  1  0.52449400  0.67593400  0.98599700  1
loop_
_geom_bond_atom_site_label_1
_geom_bond_atom_site_label_2
_geom_bond_distance
_geom_bond_site_symmetry_2
N0 O25 1.139348 1_555
N0 O28 1.822764 1_555
N1 O24 1.139348 1_555
N1 O29 1.822764 1_555
N2 O1 1.432964 1_555
N3 O0 1.432964 1_555
N5 O12 1.340907 1_655
N6 O13 1.340907 1_455
N7 O26 1.345684 1_555
N8 O27 1.345684 1_555
N9 O19 1.323376 1_455
N10 O18 1.323376 1_655
N11 O32 1.349494 1_555
N12 O33 1.349494 1_555
Cl0 N2 1.693805 1_555
Cl1 N3 1.693805 1_555
O0 P7 1.615483 1_455
O1 P6 1.615483 1_655
O2 P11 1.585464 1_555
O2 P0 1.633291 1_555
O3 P10 1.585464 1_555
O3 P1 1.633291 1_555
O4 P0 1.466660 1_555
O5 P1 1.466660 1_555
O6 P6 1.456509 1_555
O7 P7 1.456509 1_555
O8 P4 1.454627 1_555
O9 P5 1.454627 1_555
O10 P8 1.607821 1_556
O10 P7 1.612701 1_455
O11 P9 1.607821 1_554
O11 P6 1.612701 1_655
O12 P8 1.635340 1_555
O13 P9 1.635340 1_555
O14 P7 1.605943 1_455
O14 P5 1.610857 1_545
O15 P6 1.605943 1_655
O15 P4 1.610857 1_565
O16 P10 1.452739 1_555
O17 P11 1.452739 1_555
O18 P10 1.675371 1_555
O19 P11 1.675371 1_555
O20 P2 1.584632 1_555
O20 P1 1.636260 1_545
O21 P3 1.584632 1_555
O21 P0 1.636260 1_565
O22 P2 1.456452 1_555
O23 P3 1.456452 1_555
O26 P2 1.633730 1_555
O27 P3 1.633730 1_555
O28 P0 1.545174 1_555
O29 P1 1.545174 1_555
O30 P8 1.600843 1_555
O30 P4 1.615972 1_455
O31 P9 1.600843 1_555
O31 P5 1.615972 1_655
O32 P4 1.622965 1_455
O33 P5 1.622965 1_655
O34 P11 1.604258 1_555
O34 P2 1.625807 1_555
O35 P10 1.604258 1_555
O35 P3 1.625807 1_555
O36 P8 1.454202 1_555
O37 P9 1.454202 1_555
