# generated using pymatgen
data_TmFe5P3
_symmetry_space_group_name_H-M   'P 1'
_cell_length_a   3.63065400
_cell_length_b   10.22445700
_cell_length_c   11.74241800
_cell_angle_alpha   90.00000000
_cell_angle_beta   90.00000000
_cell_angle_gamma   90.00000000
_symmetry_Int_Tables_number   1
_chemical_formula_structural   TmFe5P3
_chemical_formula_sum   'Tm4 Fe20 P12'
_cell_volume   435.89576708
_cell_formula_units_Z   4
loop_
 _symmetry_equiv_pos_site_id
 _symmetry_equiv_pos_as_xyz
  1  'x, y, z'
loop_
 _atom_site_type_symbol
 _atom_site_label
 _atom_site_symmetry_multiplicity
 _atom_site_fract_x
 _atom_site_fract_y
 _atom_site_fract_z
 _atom_site_occupancy
  Tm  Tm0  1  0.25000000  0.58132200  0.70483400  1
  Tm  Tm1  1  0.25000000  0.91867800  0.20483400  1
  Tm  Tm2  1  0.75000000  0.41867800  0.29516600  1
  Tm  Tm3  1  0.75000000  0.08132200  0.79516600  1
  Fe  Fe0  1  0.25000000  0.70693400  0.98759400  1
  Fe  Fe1  1  0.25000000  0.79306600  0.48759400  1
  Fe  Fe2  1  0.75000000  0.29306600  0.01240600  1
  Fe  Fe3  1  0.75000000  0.20693400  0.51240600  1
  Fe  Fe4  1  0.25000000  0.40550800  0.48985100  1
  Fe  Fe5  1  0.25000000  0.09449200  0.98985100  1
  Fe  Fe6  1  0.75000000  0.59449200  0.51014900  1
  Fe  Fe7  1  0.75000000  0.90550800  0.01014900  1
  Fe  Fe8  1  0.25000000  0.21941600  0.17625300  1
  Fe  Fe9  1  0.25000000  0.28058400  0.67625300  1
  Fe  Fe10  1  0.75000000  0.78058400  0.82374700  1
  Fe  Fe11  1  0.75000000  0.71941600  0.32374700  1
  Fe  Fe12  1  0.25000000  0.87725900  0.70011200  1
  Fe  Fe13  1  0.25000000  0.62274100  0.20011200  1
  Fe  Fe14  1  0.75000000  0.12274100  0.29988800  1
  Fe  Fe15  1  0.75000000  0.37725900  0.79988800  1
  Fe  Fe16  1  0.25000000  0.46333100  0.93282500  1
  Fe  Fe17  1  0.25000000  0.03666900  0.43282500  1
  Fe  Fe18  1  0.75000000  0.53666900  0.06717500  1
  Fe  Fe19  1  0.75000000  0.96333100  0.56717500  1
  P  P0  1  0.25000000  0.42125700  0.11355900  1
  P  P1  1  0.25000000  0.07874300  0.61355900  1
  P  P2  1  0.75000000  0.57874300  0.88644100  1
  P  P3  1  0.75000000  0.92125700  0.38644100  1
  P  P4  1  0.25000000  0.26575100  0.87048600  1
  P  P5  1  0.25000000  0.23424900  0.37048600  1
  P  P6  1  0.75000000  0.73424900  0.12951400  1
  P  P7  1  0.75000000  0.76575100  0.62951400  1
  P  P8  1  0.25000000  0.60084100  0.39458000  1
  P  P9  1  0.25000000  0.89915900  0.89458000  1
  P  P10  1  0.75000000  0.39915900  0.60542000  1
  P  P11  1  0.75000000  0.10084100  0.10542000  1
loop_
_geom_bond_atom_site_label_1
_geom_bond_atom_site_label_2
_geom_bond_distance
_geom_bond_site_symmetry_2
Fe0 P9 2.248489 1_555
Fe0 P6 2.480036 1_456
Fe0 P6 2.480036 1_556
Fe0 P2 2.534586 1_555
Fe0 P2 2.534586 1_455
Fe1 P8 2.248489 1_555
Fe1 P7 2.480036 1_455
Fe1 P7 2.480036 1_555
Fe1 P3 2.534586 1_455
Fe1 P3 2.534586 1_555
Fe2 P11 2.248489 1_555
Fe2 P4 2.480036 1_554
Fe2 P4 2.480036 1_654
Fe2 P0 2.534586 1_555
Fe2 P0 2.534586 1_655
Fe3 P10 2.248489 1_555
Fe3 P5 2.480036 1_555
Fe3 P5 2.480036 1_655
Fe3 P1 2.534586 1_655
Fe3 P1 2.534586 1_555
Fe4 P5 2.242919 1_555
Fe4 P10 2.267430 1_555
Fe4 P10 2.267430 1_455
Fe4 P8 2.289153 1_555
Fe4 Tm2 2.922272 1_555
Fe4 Tm2 2.922272 1_455
Fe4 Tm0 3.099044 1_555
Fe5 P4 2.242919 1_555
Fe5 P11 2.267430 1_556
Fe5 P11 2.267430 1_456
Fe5 P9 2.289153 1_545
Fe5 Tm3 2.922272 1_555
Fe5 Tm3 2.922272 1_455
Fe5 Tm1 3.099044 1_546
Fe6 P7 2.242919 1_555
Fe6 P8 2.267430 1_655
Fe6 P8 2.267430 1_555
Fe6 P10 2.289153 1_555
Fe6 Tm0 2.922272 1_555
Fe6 Tm0 2.922272 1_655
Fe6 Tm2 3.099044 1_555
Fe7 P6 2.242919 1_555
Fe7 P9 2.267430 1_554
Fe7 P9 2.267430 1_654
Fe7 P11 2.289153 1_565
Fe7 Tm1 2.922272 1_655
Fe7 Tm1 2.922272 1_555
Fe7 Tm3 3.099044 1_564
Fe8 P0 2.191091 1_555
Fe8 P5 2.285802 1_555
Fe8 P11 2.336033 1_555
Fe8 P11 2.336033 1_455
Fe8 Tm2 3.065276 1_555
Fe8 Tm2 3.065276 1_455
Fe8 Tm1 3.093144 1_545
Fe9 P1 2.191091 1_555
Fe9 P4 2.285802 1_555
Fe9 P10 2.336033 1_555
Fe9 P10 2.336033 1_455
Fe9 Tm3 3.065276 1_555
Fe9 Tm3 3.065276 1_455
Fe9 Tm0 3.093144 1_555
Fe10 P2 2.191091 1_555
Fe10 P7 2.285802 1_555
Fe10 P9 2.336033 1_655
Fe10 P9 2.336033 1_555
Fe10 Tm0 3.065276 1_555
Fe10 Tm0 3.065276 1_655
Fe10 Tm3 3.093144 1_565
Fe11 P3 2.191091 1_555
Fe11 P6 2.285802 1_555
Fe11 P8 2.336033 1_655
Fe11 P8 2.336033 1_555
Fe11 Tm1 3.065276 1_655
Fe11 Tm1 3.065276 1_555
Fe11 Tm2 3.093144 1_555
Fe12 P9 2.294477 1_555
Fe12 P1 2.297132 1_565
Fe12 P7 2.298366 1_455
Fe12 P7 2.298366 1_555
Fe12 Tm3 2.982354 1_565
Fe12 Tm3 2.982354 1_465
Fe12 Tm0 3.026303 1_555
Fe13 P8 2.294477 1_555
Fe13 P0 2.297132 1_555
Fe13 P6 2.298366 1_455
Fe13 P6 2.298366 1_555
Fe13 Tm2 2.982354 1_555
Fe13 Tm2 2.982354 1_455
Fe13 Tm1 3.026303 1_555
Fe14 P11 2.294477 1_555
Fe14 P3 2.297132 1_545
Fe14 P5 2.298366 1_655
Fe14 P5 2.298366 1_555
Fe14 Tm1 2.982354 1_645
Fe14 Tm1 2.982354 1_545
Fe14 Tm2 3.026303 1_555
Fe15 P10 2.294477 1_555
Fe15 P2 2.297132 1_555
Fe15 P4 2.298366 1_655
Fe15 P4 2.298366 1_555
Fe15 Tm0 2.982354 1_555
Fe15 Tm0 2.982354 1_655
Fe15 Tm3 3.026303 1_555
Fe16 P4 2.148683 1_555
Fe16 P0 2.165415 1_556
Fe16 P2 2.232605 1_555
Fe16 P2 2.232605 1_455
Fe16 Tm0 2.936427 1_555
Fe17 P5 2.148683 1_555
Fe17 P1 2.165415 1_555
Fe17 P3 2.232605 1_445
Fe17 P3 2.232605 1_545
Fe17 Tm1 2.936427 1_545
Fe18 P6 2.148683 1_555
Fe18 P2 2.165415 1_554
Fe18 P0 2.232605 1_555
Fe18 P0 2.232605 1_655
Fe18 Tm2 2.936427 1_555
Fe19 P7 2.148683 1_555
Fe19 P3 2.165415 1_555
Fe19 P1 2.232605 1_665
Fe19 P1 2.232605 1_565
Fe19 Tm3 2.936427 1_565
P0 Tm2 2.800658 1_555
P0 Tm2 2.800658 1_455
P1 Tm3 2.800658 1_455
P1 Tm3 2.800658 1_555
P2 Tm0 2.800658 1_555
P2 Tm0 2.800658 1_655
P3 Tm1 2.800658 1_655
P3 Tm1 2.800658 1_555
P4 Tm3 2.762871 1_455
P4 Tm3 2.762871 1_555
P5 Tm2 2.762871 1_455
P5 Tm2 2.762871 1_555
P6 Tm1 2.762871 1_655
P6 Tm1 2.762871 1_555
P7 Tm0 2.762871 1_555
P7 Tm0 2.762871 1_655
P8 Tm2 2.850810 1_455
P8 Tm2 2.850810 1_555
P9 Tm3 2.850810 1_565
P9 Tm3 2.850810 1_465
P10 Tm0 2.850810 1_555
P10 Tm0 2.850810 1_655
P11 Tm1 2.850810 1_645
P11 Tm1 2.850810 1_545
