# generated using pymatgen
data_Gd4B4O11F2
_symmetry_space_group_name_H-M   'P 1'
_cell_length_a   7.24530943
_cell_length_b   7.24530943
_cell_length_c   13.82864214
_cell_angle_alpha   88.83342918
_cell_angle_beta   88.83342918
_cell_angle_gamma   37.63683029
_symmetry_Int_Tables_number   1
_chemical_formula_structural   Gd4B4O11F2
_chemical_formula_sum   'Gd8 B8 O22 F4'
_cell_volume   443.18838687
_cell_formula_units_Z   2
loop_
 _symmetry_equiv_pos_site_id
 _symmetry_equiv_pos_as_xyz
  1  'x, y, z'
loop_
 _atom_site_type_symbol
 _atom_site_label
 _atom_site_symmetry_multiplicity
 _atom_site_fract_x
 _atom_site_fract_y
 _atom_site_fract_z
 _atom_site_occupancy
  Gd  Gd0  1  0.46079800  0.42207000  0.37041700  1
  Gd  Gd1  1  0.57793000  0.53920200  0.12958300  1
  Gd  Gd2  1  0.53920200  0.57793000  0.62958300  1
  Gd  Gd3  1  0.42207000  0.46079800  0.87041700  1
  Gd  Gd4  1  0.73748100  0.70234300  0.37016800  1
  Gd  Gd5  1  0.29765700  0.26251900  0.12983200  1
  Gd  Gd6  1  0.26251900  0.29765700  0.62983200  1
  Gd  Gd7  1  0.70234300  0.73748100  0.87016800  1
  B  B0  1  0.07050000  0.11560000  0.28617400  1
  B  B1  1  0.88440000  0.92950000  0.21382600  1
  B  B2  1  0.92950000  0.88440000  0.71382600  1
  B  B3  1  0.11560000  0.07050000  0.78617400  1
  B  B4  1  0.86072200  0.94859100  0.52408200  1
  B  B5  1  0.05140900  0.13927800  0.97591800  1
  B  B6  1  0.13927800  0.05140900  0.47591800  1
  B  B7  1  0.94859100  0.86072200  0.02408200  1
  O  O0  1  0.95467400  0.22016800  0.39453100  1
  O  O1  1  0.77983200  0.04532600  0.10546900  1
  O  O2  1  0.04532600  0.77983200  0.60546900  1
  O  O3  1  0.22016800  0.95467400  0.89453100  1
  O  O4  1  0.64295800  0.00842300  0.25670900  1
  O  O5  1  0.99157700  0.35704200  0.24329100  1
  O  O6  1  0.35704200  0.99157700  0.74329100  1
  O  O7  1  0.00842300  0.64295800  0.75670900  1
  O  O8  1  0.58753300  0.25363600  0.53416200  1
  O  O9  1  0.74636400  0.41246700  0.96583800  1
  O  O10  1  0.41246700  0.74636400  0.46583800  1
  O  O11  1  0.25363600  0.58753300  0.03416200  1
  O  O12  1  0.84700600  0.15299400  0.25000000  1
  O  O13  1  0.15299400  0.84700600  0.75000000  1
  O  O14  1  0.94753300  0.82346300  0.43388000  1
  O  O15  1  0.17653700  0.05246700  0.06612000  1
  O  O16  1  0.05246700  0.17653700  0.56612000  1
  O  O17  1  0.82346300  0.94753300  0.93388000  1
  O  O18  1  0.37862600  0.81812300  0.27615400  1
  O  O19  1  0.18187700  0.62137400  0.22384600  1
  O  O20  1  0.62137400  0.18187700  0.72384600  1
  O  O21  1  0.81812300  0.37862600  0.77615400  1
  F  F0  1  0.29378500  0.24414900  0.42360500  1
  F  F1  1  0.75585100  0.70621500  0.07639500  1
  F  F2  1  0.70621500  0.75585100  0.57639500  1
  F  F3  1  0.24414900  0.29378500  0.92360500  1
loop_
_geom_bond_atom_site_label_1
_geom_bond_atom_site_label_2
_geom_bond_distance
_geom_bond_site_symmetry_2
Gd0 O8 2.378484 1_555
Gd0 O19 2.388128 1_555
Gd0 O12 2.388736 1_555
Gd0 O14 2.428882 1_455
Gd0 O10 2.487733 1_555
Gd0 O0 2.606459 1_555
Gd0 O4 2.653145 1_555
Gd0 O18 2.731548 1_555
Gd0 O14 2.786406 1_545
Gd1 O9 2.378484 1_554
Gd1 O18 2.388128 1_555
Gd1 O12 2.388736 1_555
Gd1 O15 2.428882 1_565
Gd1 O11 2.487733 1_555
Gd1 O1 2.606459 1_555
Gd1 O5 2.653145 1_555
Gd1 O19 2.731548 1_555
Gd1 O15 2.786406 1_655
Gd2 O10 2.378484 1_555
Gd2 O21 2.388128 1_555
Gd2 O13 2.388736 1_555
Gd2 O16 2.428882 1_655
Gd2 O8 2.487733 1_555
Gd2 O2 2.606459 1_555
Gd2 O6 2.653145 1_555
Gd2 O20 2.731548 1_555
Gd2 O16 2.786406 1_565
Gd3 O11 2.378484 1_556
Gd3 O20 2.388128 1_555
Gd3 O13 2.388736 1_555
Gd3 O17 2.428882 1_545
Gd3 O9 2.487733 1_555
Gd3 O3 2.606459 1_555
Gd3 O7 2.653145 1_555
Gd3 O21 2.731548 1_555
Gd3 O17 2.786406 1_455
Gd4 O4 2.312004 1_565
Gd4 O5 2.340781 1_555
Gd4 O18 2.406841 1_555
Gd4 O0 2.461946 1_555
Gd4 O14 2.462479 1_555
Gd4 O10 2.469419 1_555
Gd5 O5 2.312004 1_455
Gd5 O4 2.340781 1_555
Gd5 O19 2.406841 1_555
Gd5 O1 2.461946 1_555
Gd5 O15 2.462479 1_555
Gd5 O11 2.469419 1_555
Gd6 O6 2.312004 1_545
Gd6 O7 2.340781 1_555
Gd6 O20 2.406841 1_555
Gd6 O2 2.461946 1_555
Gd6 O16 2.462479 1_555
Gd6 O8 2.469419 1_555
Gd7 O7 2.312004 1_655
Gd7 O6 2.340781 1_555
Gd7 O21 2.406841 1_555
Gd7 O3 2.461946 1_555
Gd7 O17 2.462479 1_555
Gd7 O9 2.469419 1_555
B0 O18 1.423854 1_545
B0 O5 1.458105 1_455
B0 O12 1.509420 1_455
B0 O0 1.584800 1_455
B1 O19 1.423854 1_655
B1 O4 1.458105 1_565
B1 O12 1.509420 1_565
B1 O1 1.584800 1_565
B2 O20 1.423854 1_565
B2 O7 1.458105 1_655
B2 O13 1.509420 1_655
B2 O2 1.584800 1_655
B3 O21 1.423854 1_455
B3 O6 1.458105 1_545
B3 O13 1.509420 1_545
B3 O3 1.584800 1_545
B4 O14 1.372748 1_555
B4 O8 1.376501 1_565
B4 O2 1.402065 1_655
B5 O15 1.372748 1_556
B5 O9 1.376501 1_455
B5 O3 1.402065 1_545
B6 O16 1.372748 1_555
B6 O10 1.376501 1_545
B6 O0 1.402065 1_455
B7 O17 1.372748 1_554
B7 O11 1.376501 1_655
B7 O1 1.402065 1_565
F0 Gd0 2.462250 1_555
F0 Gd4 2.514967 1_545
F0 Gd4 2.577173 1_455
F0 Gd6 2.866046 1_555
F1 Gd1 2.462250 1_555
F1 Gd5 2.514967 1_655
F1 Gd5 2.577173 1_565
F1 Gd7 2.866046 1_554
F2 Gd2 2.462250 1_555
F2 Gd6 2.514967 1_565
F2 Gd6 2.577173 1_655
F2 Gd4 2.866046 1_555
F3 Gd3 2.462250 1_555
F3 Gd7 2.514967 1_455
F3 Gd7 2.577173 1_545
F3 Gd5 2.866046 1_556
