# generated using pymatgen
data_Ca5Sb3
_symmetry_space_group_name_H-M   'P 1'
_cell_length_a   8.30052293
_cell_length_b   9.57487106
_cell_length_c   12.60834371
_cell_angle_alpha   90.00000000
_cell_angle_beta   90.00000000
_cell_angle_gamma   90.00000000
_symmetry_Int_Tables_number   1
_chemical_formula_structural   Ca5Sb3
_chemical_formula_sum   'Ca20 Sb12'
_cell_volume   1002.06623184
_cell_formula_units_Z   4
loop_
 _symmetry_equiv_pos_site_id
 _symmetry_equiv_pos_as_xyz
  1  'x, y, z'
loop_
 _atom_site_type_symbol
 _atom_site_label
 _atom_site_symmetry_multiplicity
 _atom_site_fract_x
 _atom_site_fract_y
 _atom_site_fract_z
 _atom_site_occupancy
  Ca  Ca0  1  0.30836044  0.95790213  0.92219901  1
  Ca  Ca1  1  0.80836044  0.04209787  0.57780099  1
  Ca  Ca2  1  0.69163956  0.45790213  0.07780099  1
  Ca  Ca3  1  0.19163956  0.54209787  0.42219901  1
  Ca  Ca4  1  0.69163956  0.04209787  0.07780099  1
  Ca  Ca5  1  0.19163956  0.95790213  0.42219901  1
  Ca  Ca6  1  0.30836044  0.54209787  0.92219901  1
  Ca  Ca7  1  0.80836044  0.45790213  0.57780099  1
  Ca  Ca8  1  0.68151047  0.75000000  0.77227773  1
  Ca  Ca9  1  0.18151047  0.25000000  0.72772227  1
  Ca  Ca10  1  0.31848953  0.25000000  0.22772227  1
  Ca  Ca11  1  0.81848953  0.75000000  0.27227773  1
  Ca  Ca12  1  0.15369614  0.75000000  0.70776139  1
  Ca  Ca13  1  0.65369614  0.25000000  0.79223861  1
  Ca  Ca14  1  0.84630386  0.25000000  0.29223861  1
  Ca  Ca15  1  0.34630386  0.75000000  0.20776139  1
  Ca  Ca16  1  0.53497488  0.75000000  0.49488509  1
  Ca  Ca17  1  0.03497488  0.25000000  0.00511491  1
  Ca  Ca18  1  0.46502512  0.25000000  0.50511491  1
  Ca  Ca19  1  0.96502512  0.75000000  0.99488509  1
  Sb  Sb0  1  0.93823616  0.01201250  0.82900171  1
  Sb  Sb1  1  0.43823616  0.98798750  0.67099829  1
  Sb  Sb2  1  0.06176384  0.51201250  0.17099829  1
  Sb  Sb3  1  0.56176384  0.48798750  0.32900171  1
  Sb  Sb4  1  0.06176384  0.98798750  0.17099829  1
  Sb  Sb5  1  0.56176384  0.01201250  0.32900171  1
  Sb  Sb6  1  0.93823616  0.48798750  0.82900171  1
  Sb  Sb7  1  0.43823616  0.51201250  0.67099829  1
  Sb  Sb8  1  0.57691063  0.75000000  0.01558178  1
  Sb  Sb9  1  0.07691063  0.25000000  0.48441822  1
  Sb  Sb10  1  0.42308937  0.25000000  0.98441822  1
  Sb  Sb11  1  0.92308937  0.75000000  0.51558178  1
loop_
_geom_bond_atom_site_label_1
_geom_bond_atom_site_label_2
_geom_bond_distance
_geom_bond_site_symmetry_2
Ca0 Sb10 3.056860 1_565
Ca0 Sb8 3.212137 1_556
Ca0 Sb0 3.329830 1_465
Ca0 Sb1 3.358044 1_555
Ca0 Sb4 3.756746 1_556
Ca1 Sb11 3.056860 1_545
Ca1 Sb9 3.212137 1_655
Ca1 Sb1 3.329830 1_545
Ca1 Sb0 3.358044 1_555
Ca1 Sb5 3.756746 1_555
Ca2 Sb8 3.056860 1_555
Ca2 Sb10 3.212137 1_554
Ca2 Sb2 3.329830 1_655
Ca2 Sb3 3.358044 1_555
Ca2 Sb6 3.756746 1_554
Ca3 Sb9 3.056860 1_555
Ca3 Sb11 3.212137 1_455
Ca3 Sb3 3.329830 1_555
Ca3 Sb2 3.358044 1_555
Ca3 Sb7 3.756746 1_555
Ca4 Sb8 3.056860 1_545
Ca4 Sb10 3.212137 1_554
Ca4 Sb4 3.329830 1_645
Ca4 Sb5 3.358044 1_555
Ca4 Sb0 3.756746 1_554
Ca5 Sb9 3.056860 1_565
Ca5 Sb11 3.212137 1_455
Ca5 Sb5 3.329830 1_565
Ca5 Sb4 3.358044 1_555
Ca5 Sb1 3.756746 1_555
Ca6 Sb10 3.056860 1_555
Ca6 Sb8 3.212137 1_556
Ca6 Sb6 3.329830 1_455
Ca6 Sb7 3.358044 1_555
Ca6 Sb2 3.756746 1_556
Ca7 Sb11 3.056860 1_555
Ca7 Sb9 3.212137 1_655
Ca7 Sb7 3.329830 1_555
Ca7 Sb6 3.358044 1_555
Ca7 Sb3 3.756746 1_555
Ca8 Sb8 3.188161 1_556
Ca8 Sb7 3.301621 1_555
Ca8 Sb1 3.301621 1_555
Ca8 Sb6 3.368418 1_555
Ca8 Sb0 3.368418 1_565
Ca9 Sb9 3.188161 1_555
Ca9 Sb6 3.301621 1_455
Ca9 Sb0 3.301621 1_455
Ca9 Sb1 3.368418 1_545
Ca9 Sb7 3.368418 1_555
Ca10 Sb10 3.188161 1_554
Ca10 Sb5 3.301621 1_555
Ca10 Sb3 3.301621 1_555
Ca10 Sb2 3.368418 1_555
Ca10 Sb4 3.368418 1_545
Ca11 Sb11 3.188161 1_555
Ca11 Sb4 3.301621 1_655
Ca11 Sb2 3.301621 1_655
Ca11 Sb5 3.368418 1_565
Ca11 Sb3 3.368418 1_555
Ca12 Sb11 3.087920 1_455
Ca12 Sb7 3.314449 1_555
Ca12 Sb1 3.314449 1_555
Ca12 Sb0 3.439328 1_465
Ca12 Sb6 3.439328 1_455
Ca13 Sb10 3.087920 1_555
Ca13 Sb0 3.314449 1_555
Ca13 Sb6 3.314449 1_555
Ca13 Sb7 3.439328 1_555
Ca13 Sb1 3.439328 1_545
Ca14 Sb9 3.087920 1_655
Ca14 Sb5 3.314449 1_555
Ca14 Sb3 3.314449 1_555
Ca14 Sb2 3.439328 1_655
Ca14 Sb4 3.439328 1_645
Ca15 Sb8 3.087920 1_555
Ca15 Sb4 3.314449 1_555
Ca15 Sb2 3.314449 1_555
Ca15 Sb5 3.439328 1_565
Ca15 Sb3 3.439328 1_555
Ca16 Sb11 3.232105 1_555
Ca16 Sb5 3.273780 1_565
Ca16 Sb3 3.273780 1_555
Ca16 Sb1 3.281441 1_555
Ca16 Sb7 3.281441 1_555
Ca17 Sb10 3.232105 1_554
Ca17 Sb4 3.273780 1_545
Ca17 Sb2 3.273780 1_555
Ca17 Sb0 3.281441 1_454
Ca17 Sb6 3.281441 1_454
Ca18 Sb9 3.232105 1_555
Ca18 Sb7 3.273780 1_555
Ca18 Sb1 3.273780 1_545
Ca18 Sb3 3.281441 1_555
Ca18 Sb5 3.281441 1_555
Ca19 Sb8 3.232105 1_556
Ca19 Sb6 3.273780 1_555
Ca19 Sb0 3.273780 1_565
Ca19 Sb2 3.281441 1_656
Ca19 Sb4 3.281441 1_656
