# generated using pymatgen
data_Na6Np2H10S4O25
_symmetry_space_group_name_H-M   'P 1'
_cell_length_a   7.10548751
_cell_length_b   7.93815780
_cell_length_c   10.81729178
_cell_angle_alpha   89.05252822
_cell_angle_beta   90.08500190
_cell_angle_gamma   90.29443870
_symmetry_Int_Tables_number   1
_chemical_formula_structural   Na6Np2H10S4O25
_chemical_formula_sum   'Na6 Np2 H10 S4 O25'
_cell_volume   610.05165517
_cell_formula_units_Z   1
loop_
 _symmetry_equiv_pos_site_id
 _symmetry_equiv_pos_as_xyz
  1  'x, y, z'
loop_
 _atom_site_type_symbol
 _atom_site_label
 _atom_site_symmetry_multiplicity
 _atom_site_fract_x
 _atom_site_fract_y
 _atom_site_fract_z
 _atom_site_occupancy
  Na  Na0  1  0.00175900  0.99947500  0.49888300  1
  Na  Na1  1  0.25228300  0.99598000  0.77884800  1
  Na  Na2  1  0.44873600  0.68242600  0.04914200  1
  Na  Na3  1  0.50235300  0.00056300  0.50007200  1
  Na  Na4  1  0.75201900  0.01136700  0.21967800  1
  Na  Na5  1  0.96568200  0.30326600  0.96817300  1
  Np  Np0  1  0.25303900  0.36397800  0.30933900  1
  Np  Np1  1  0.75269700  0.63316000  0.69005600  1
  H  H0  1  0.98152700  0.71559400  0.33019500  1
  H  H1  1  0.08593400  0.84575100  0.24524800  1
  H  H2  1  0.40268200  0.85289800  0.25632900  1
  H  H3  1  0.50641900  0.71610300  0.33685000  1
  H  H4  1  0.48653100  0.28331000  0.66991900  1
  H  H5  1  0.58798200  0.15375800  0.75574000  1
  H  H6  1  0.71176700  0.48044600  0.96686800  1
  H  H7  1  0.79290900  0.58900900  0.07344500  1
  H  H8  1  0.90153600  0.14633100  0.74687200  1
  H  H9  1  0.00238600  0.28288300  0.66451800  1
  S  S0  1  0.25294700  0.63904500  0.59789200  1
  S  S1  1  0.25302000  0.08869100  0.09987300  1
  S  S2  1  0.75285300  0.36194000  0.40603600  1
  S  S3  1  0.74951200  0.90353200  0.90359500  1
  O  O0  1  0.00824000  0.16446200  0.68977200  1
  O  O1  1  0.08143400  0.16344500  0.16153300  1
  O  O2  1  0.08243600  0.57116400  0.66255500  1
  O  O3  1  0.25585200  0.58195700  0.46800800  1
  O  O4  1  0.25247300  0.82644600  0.59950800  1
  O  O5  1  0.25151600  0.19386200  0.42929400  1
  O  O6  1  0.25330600  0.52687500  0.18511000  1
  O  O7  1  0.24525000  0.13193400  0.96702500  1
  O  O8  1  0.25423400  0.90228600  0.12015500  1
  O  O9  1  0.42048700  0.57228000  0.66602000  1
  O  O10  1  0.41991200  0.16502800  0.16283000  1
  O  O11  1  0.49577700  0.16263800  0.68793700  1
  O  O12  1  0.51142500  0.83482400  0.31169600  1
  O  O13  1  0.57696900  0.82886900  0.84265900  1
  O  O14  1  0.58230800  0.43048300  0.34341600  1
  O  O15  1  0.72428000  0.48415200  0.05854600  1
  O  O16  1  0.75215700  0.17464000  0.40237000  1
  O  O17  1  0.75548600  0.41528500  0.53733000  1
  O  O18  1  0.75470400  0.08989300  0.88488200  1
  O  O19  1  0.75903800  0.46487700  0.81284600  1
  O  O20  1  0.74999600  0.80381300  0.57099400  1
  O  O21  1  0.74496600  0.85864400  0.03691200  1
  O  O22  1  0.92191200  0.43102500  0.34058600  1
  O  O23  1  0.91527900  0.82666000  0.84031000  1
  O  O24  1  0.99159000  0.83595100  0.31213400  1
loop_
_geom_bond_atom_site_label_1
_geom_bond_atom_site_label_2
_geom_bond_distance
_geom_bond_site_symmetry_2
Na0 O24 2.420007 1_455
Na0 O5 2.456523 1_565
Na0 O0 2.463691 1_565
Na0 O16 2.478046 1_465
Na0 O20 2.481242 1_455
Na0 O4 2.492969 1_555
Na1 O7 2.320400 1_565
Na1 O11 2.376806 1_565
Na1 O4 2.379288 1_555
Na1 O0 2.387542 1_565
Na1 O13 2.748662 1_555
Na1 O23 2.815084 1_455
Na2 O6 2.354703 1_555
Na2 O8 2.370314 1_555
Na2 O15 2.519258 1_555
Na2 O21 2.523717 1_555
Na2 O13 2.660785 1_554
Na3 O11 2.423763 1_555
Na3 O12 2.444860 1_545
Na3 O5 2.470334 1_555
Na3 O20 2.471595 1_545
Na3 O16 2.471659 1_555
Na3 O4 2.480143 1_545
Na4 O21 2.336512 1_545
Na4 O16 2.381182 1_555
Na4 O24 2.410440 1_545
Na4 O12 2.410726 1_545
Na4 O1 2.698492 1_655
Na4 O10 2.726733 1_555
Na5 O7 2.413373 1_655
Na5 O18 2.438926 1_555
Na5 O15 2.456907 1_556
Na5 O1 2.492150 1_656
Na5 O19 2.562347 1_555
Np0 O6 1.849456 1_555
Np0 O5 1.857255 1_555
Np0 O14 2.424784 1_555
Np0 O22 2.440175 1_455
Np0 O3 2.457275 1_555
Np0 O10 2.553308 1_555
Np0 O1 2.575967 1_555
Np1 O20 1.853848 1_555
Np1 O19 1.868841 1_555
Np1 O17 2.411633 1_555
Np1 O2 2.416381 1_655
Np1 O9 2.421527 1_555
Np1 O23 2.528722 1_555
Np1 O13 2.609312 1_555
H0 O24 0.974301 1_555
H1 O24 0.988921 1_455
H2 O12 0.986528 1_555
H2 Na2 2.658635 1_555
H3 O12 0.977074 1_555
H4 O11 0.976902 1_555
H5 O11 0.984625 1_555
H6 O15 0.996459 1_556
H6 Na5 2.293217 1_555
H6 Na2 2.634150 1_556
H7 O15 0.978082 1_555
H7 Na2 2.570965 1_555
H8 O0 0.987116 1_655
H9 O0 0.975662 1_555
O1 S1 1.518686 1_555
O2 S0 1.493605 1_555
O3 S0 1.483589 1_555
O4 S0 1.488032 1_555
O7 S1 1.472975 1_556
O8 S1 1.492363 1_565
O9 S0 1.494036 1_555
O10 S1 1.497032 1_555
O13 S3 1.513905 1_555
O14 S2 1.488461 1_555
O16 S2 1.487984 1_555
O17 S2 1.488790 1_555
O18 S3 1.490104 1_545
O21 S3 1.480126 1_554
O22 S2 1.492618 1_555
O23 S3 1.500649 1_555
