# generated using pymatgen
data_Ba2ZnCuSb2F14
_symmetry_space_group_name_H-M   'P 1'
_cell_length_a   7.70643283
_cell_length_b   7.70643283
_cell_length_c   16.27210661
_cell_angle_alpha   89.87279084
_cell_angle_beta   89.87279084
_cell_angle_gamma   40.64716556
_symmetry_Int_Tables_number   1
_chemical_formula_structural   Ba2ZnCuSb2F14
_chemical_formula_sum   'Ba4 Zn2 Cu2 Sb4 F28'
_cell_volume   629.50105441
_cell_formula_units_Z   2
loop_
 _symmetry_equiv_pos_site_id
 _symmetry_equiv_pos_as_xyz
  1  'x, y, z'
loop_
 _atom_site_type_symbol
 _atom_site_label
 _atom_site_symmetry_multiplicity
 _atom_site_fract_x
 _atom_site_fract_y
 _atom_site_fract_z
 _atom_site_occupancy
  Ba  Ba0  1  0.73658500  0.90975100  0.12832700  1
  Ba  Ba1  1  0.90975100  0.73658500  0.62832700  1
  Ba  Ba2  1  0.26341500  0.09024900  0.87167300  1
  Ba  Ba3  1  0.09024900  0.26341500  0.37167300  1
  Zn  Zn0  1  0.44981400  0.55018600  0.25000000  1
  Zn  Zn1  1  0.55018600  0.44981400  0.75000000  1
  Cu  Cu0  1  0.50000000  0.50000000  0.50000000  1
  Cu  Cu1  1  0.50000000  0.50000000  0.00000000  1
  Sb  Sb0  1  0.84597800  0.92921900  0.37810000  1
  Sb  Sb1  1  0.15402200  0.07078100  0.62190000  1
  Sb  Sb2  1  0.92921900  0.84597800  0.87810000  1
  Sb  Sb3  1  0.07078100  0.15402200  0.12190000  1
  F  F0  1  0.85187600  0.17891000  0.82999600  1
  F  F1  1  0.58722900  0.11259800  0.95183200  1
  F  F2  1  0.41277100  0.88740200  0.04816800  1
  F  F3  1  0.12351000  0.38240000  0.10346500  1
  F  F4  1  0.59278400  0.34671000  0.10925200  1
  F  F5  1  0.65329000  0.40721600  0.39074800  1
  F  F6  1  0.11259800  0.58722900  0.45183200  1
  F  F7  1  0.82109000  0.14812400  0.67000400  1
  F  F8  1  0.98458200  0.66135200  0.28563200  1
  F  F9  1  0.87649000  0.61760000  0.89653500  1
  F  F10  1  0.55337000  0.22605800  0.26530500  1
  F  F11  1  0.61760000  0.87649000  0.39653500  1
  F  F12  1  0.22605800  0.55337000  0.76530500  1
  F  F13  1  0.44663000  0.77394200  0.73469500  1
  F  F14  1  0.34671000  0.59278400  0.60925200  1
  F  F15  1  0.01541800  0.33864800  0.71436800  1
  F  F16  1  0.29108400  0.86879400  0.48957800  1
  F  F17  1  0.14812400  0.82109000  0.17000400  1
  F  F18  1  0.70891600  0.13120600  0.51042200  1
  F  F19  1  0.86879400  0.29108400  0.98957800  1
  F  F20  1  0.88740200  0.41277100  0.54816800  1
  F  F21  1  0.77394200  0.44663000  0.23469500  1
  F  F22  1  0.66135200  0.98458200  0.78563200  1
  F  F23  1  0.13120600  0.70891600  0.01042200  1
  F  F24  1  0.40721600  0.65329000  0.89074800  1
  F  F25  1  0.17891000  0.85187600  0.32999600  1
  F  F26  1  0.33864800  0.01541800  0.21436800  1
  F  F27  1  0.38240000  0.12351000  0.60346500  1
loop_
_geom_bond_atom_site_label_1
_geom_bond_atom_site_label_2
_geom_bond_distance
_geom_bond_site_symmetry_2
Ba0 F4 2.645352 1_565
Ba0 F3 2.680309 1_655
Ba0 F10 2.773258 1_565
Ba0 F17 2.775673 1_655
Ba0 F23 2.858246 1_655
Ba0 F26 2.867804 1_565
Ba0 F8 2.883971 1_555
Ba0 F2 2.936994 1_555
Ba0 F1 3.046465 1_564
Ba0 F3 3.104939 1_565
Ba1 F14 2.645352 1_655
Ba1 F27 2.680309 1_565
Ba1 F12 2.773258 1_655
Ba1 F7 2.775673 1_565
Ba1 F18 2.858246 1_565
Ba1 F15 2.867804 1_655
Ba1 F22 2.883971 1_555
Ba1 F20 2.936994 1_555
Ba1 F6 3.046465 1_655
Ba1 F27 3.104939 1_655
Ba2 F24 2.645352 1_545
Ba2 F9 2.680309 1_455
Ba2 F13 2.773258 1_545
Ba2 F0 2.775673 1_455
Ba2 F19 2.858246 1_455
Ba2 F22 2.867804 1_545
Ba2 F15 2.883971 1_555
Ba2 F1 2.936994 1_555
Ba2 F2 3.046465 1_546
Ba2 F9 3.104939 1_545
Ba3 F5 2.645352 1_455
Ba3 F11 2.680309 1_545
Ba3 F21 2.773258 1_455
Ba3 F25 2.775673 1_545
Ba3 F16 2.858246 1_545
Ba3 F8 2.867804 1_455
Ba3 F26 2.883971 1_555
Ba3 F6 2.936994 1_555
Ba3 F20 3.046465 1_455
Ba3 F11 3.104939 1_455
Cu0 F18 1.937475 1_555
Cu0 F16 1.937475 1_555
Cu0 F5 1.944674 1_555
Cu0 F14 1.944674 1_555
Cu1 F23 1.937475 1_555
Cu1 F19 1.937475 1_554
Cu1 F24 1.944674 1_554
Cu1 F4 1.944674 1_555
F0 Zn1 2.023413 1_555
F0 Sb2 2.285478 1_545
F1 Sb2 2.094449 1_545
F2 Sb3 2.094449 1_565
F3 Sb3 2.105945 1_555
F6 Sb0 2.094449 1_455
F7 Zn1 2.023413 1_555
F7 Sb1 2.285478 1_655
F8 Sb0 2.080123 1_555
F9 Sb2 2.105945 1_555
F10 Zn0 1.977733 1_555
F10 Sb0 2.420456 1_545
F11 Sb0 2.105945 1_555
F12 Zn1 1.977733 1_555
F12 Sb2 2.420456 1_455
F13 Zn1 1.977733 1_555
F13 Sb1 2.420456 1_565
F15 Sb1 2.080123 1_555
F16 Sb1 2.384234 1_565
F17 Zn0 2.023413 1_555
F17 Sb3 2.285478 1_565
F18 Sb0 2.384234 1_545
F19 Sb3 2.384234 1_656
F20 Sb1 2.094449 1_655
F21 Zn0 1.977733 1_555
F21 Sb3 2.420456 1_655
F22 Sb2 2.080123 1_555
F23 Sb2 2.384234 1_454
F25 Zn0 2.023413 1_555
F25 Sb0 2.285478 1_455
F26 Sb3 2.080123 1_555
F27 Sb1 2.105945 1_555
