# generated using pymatgen
data_TaAu
_symmetry_space_group_name_H-M   'P 1'
_cell_length_a   5.82728588
_cell_length_b   5.82728588
_cell_length_c   8.19731296
_cell_angle_alpha   90.00000000
_cell_angle_beta   90.00000000
_cell_angle_gamma   90.00000000
_symmetry_Int_Tables_number   1
_chemical_formula_structural   TaAu
_chemical_formula_sum   'Ta8 Au8'
_cell_volume   278.35829345
_cell_formula_units_Z   8
loop_
 _symmetry_equiv_pos_site_id
 _symmetry_equiv_pos_as_xyz
  1  'x, y, z'
loop_
 _atom_site_type_symbol
 _atom_site_label
 _atom_site_symmetry_multiplicity
 _atom_site_fract_x
 _atom_site_fract_y
 _atom_site_fract_z
 _atom_site_occupancy
  Ta  Ta0_0  1  0.25000000  0.25000000  0.25000000  1
  Ta  Ta0_1  1  0.25000000  0.25000000  0.75000000  1
  Ta  Ta0_2  1  0.25000000  0.75000000  0.25000000  1
  Ta  Ta0_3  1  0.25000000  0.75000000  0.75000000  1
  Ta  Ta0_4  1  0.75000000  0.25000000  0.25000000  1
  Ta  Ta0_5  1  0.75000000  0.25000000  0.75000000  1
  Ta  Ta0_6  1  0.75000000  0.75000000  0.25000000  1
  Ta  Ta0_7  1  0.75000000  0.75000000  0.75000000  1
  Au  Au0_0  1  0.00000000  0.00000000  0.00000000  1
  Au  Au0_1  1  0.00000000  0.00000000  0.50000000  1
  Au  Au0_2  1  0.00000000  0.50000000  0.00000000  1
  Au  Au0_3  1  0.00000000  0.50000000  0.50000000  1
  Au  Au0_4  1  0.50000000  0.00000000  0.00000000  1
  Au  Au0_5  1  0.50000000  0.00000000  0.50000000  1
  Au  Au0_6  1  0.50000000  0.50000000  0.00000000  1
  Au  Au0_7  1  0.50000000  0.50000000  0.50000000  1
loop_
_geom_bond_atom_site_label_1
_geom_bond_atom_site_label_2
_geom_bond_distance
_geom_bond_site_symmetry_2
Ta0_0 Ta0_2 2.913643 1_545
Ta0_0 Ta0_4 2.913643 1_455
Ta0_0 Ta0_4 2.913643 1_555
Ta0_0 Ta0_2 2.913643 1_555
Ta0_1 Ta0_3 2.913643 1_545
Ta0_1 Ta0_5 2.913643 1_455
Ta0_1 Ta0_5 2.913643 1_555
Ta0_1 Ta0_3 2.913643 1_555
Ta0_2 Ta0_6 2.913643 1_455
Ta0_2 Ta0_6 2.913643 1_555
Ta0_3 Ta0_7 2.913643 1_455
Ta0_3 Ta0_7 2.913643 1_555
Ta0_4 Ta0_6 2.913643 1_545
Ta0_4 Ta0_6 2.913643 1_555
Ta0_5 Ta0_7 2.913643 1_545
Ta0_5 Ta0_7 2.913643 1_555
Au0_0 Ta0_7 2.905926 1_444
Au0_0 Ta0_5 2.905926 1_454
Au0_0 Ta0_3 2.905926 1_544
Au0_0 Ta0_1 2.905926 1_554
Au0_0 Ta0_6 2.905926 1_445
Au0_0 Ta0_2 2.905926 1_545
Au0_0 Ta0_0 2.905926 1_555
Au0_0 Ta0_4 2.905926 1_455
Au0_0 Au0_4 2.913643 1_555
Au0_0 Au0_2 2.913643 1_555
Au0_0 Au0_2 2.913643 1_545
Au0_0 Au0_4 2.913643 1_455
Au0_1 Ta0_6 2.905926 1_445
Au0_1 Ta0_2 2.905926 1_545
Au0_1 Ta0_0 2.905926 1_555
Au0_1 Ta0_4 2.905926 1_455
Au0_1 Ta0_7 2.905926 1_445
Au0_1 Ta0_5 2.905926 1_455
Au0_1 Ta0_3 2.905926 1_545
Au0_1 Ta0_1 2.905926 1_555
Au0_1 Au0_5 2.913643 1_555
Au0_1 Au0_3 2.913643 1_555
Au0_1 Au0_5 2.913643 1_455
Au0_1 Au0_3 2.913643 1_545
Au0_2 Ta0_5 2.905926 1_454
Au0_2 Ta0_7 2.905926 1_454
Au0_2 Ta0_1 2.905926 1_554
Au0_2 Ta0_6 2.905926 1_455
Au0_2 Ta0_0 2.905926 1_555
Au0_2 Ta0_4 2.905926 1_455
Au0_2 Ta0_3 2.905926 1_554
Au0_2 Ta0_2 2.905926 1_555
Au0_2 Au0_6 2.913643 1_455
Au0_2 Au0_6 2.913643 1_555
Au0_3 Ta0_6 2.905926 1_455
Au0_3 Ta0_0 2.905926 1_555
Au0_3 Ta0_4 2.905926 1_455
Au0_3 Ta0_5 2.905926 1_455
Au0_3 Ta0_2 2.905926 1_555
Au0_3 Ta0_7 2.905926 1_455
Au0_3 Ta0_1 2.905926 1_555
Au0_3 Ta0_3 2.905926 1_555
Au0_3 Au0_7 2.913643 1_555
Au0_3 Au0_7 2.913643 1_455
Au0_4 Ta0_3 2.905926 1_544
Au0_4 Ta0_7 2.905926 1_544
Au0_4 Ta0_1 2.905926 1_554
Au0_4 Ta0_2 2.905926 1_545
Au0_4 Ta0_6 2.905926 1_545
Au0_4 Ta0_0 2.905926 1_555
Au0_4 Ta0_5 2.905926 1_554
Au0_4 Ta0_4 2.905926 1_555
Au0_4 Au0_6 2.913643 1_555
Au0_4 Au0_6 2.913643 1_545
Au0_5 Ta0_2 2.905926 1_545
Au0_5 Ta0_6 2.905926 1_545
Au0_5 Ta0_0 2.905926 1_555
Au0_5 Ta0_3 2.905926 1_545
Au0_5 Ta0_4 2.905926 1_555
Au0_5 Ta0_7 2.905926 1_545
Au0_5 Ta0_1 2.905926 1_555
Au0_5 Ta0_5 2.905926 1_555
Au0_5 Au0_7 2.913643 1_555
Au0_5 Au0_7 2.913643 1_545
Au0_6 Ta0_1 2.905926 1_554
Au0_6 Ta0_7 2.905926 1_554
Au0_6 Ta0_0 2.905926 1_555
Au0_6 Ta0_3 2.905926 1_554
Au0_6 Ta0_5 2.905926 1_554
Au0_6 Ta0_2 2.905926 1_555
Au0_6 Ta0_4 2.905926 1_555
Au0_6 Ta0_6 2.905926 1_555
Au0_7 Ta0_0 2.905926 1_555
Au0_7 Ta0_2 2.905926 1_555
Au0_7 Ta0_4 2.905926 1_555
Au0_7 Ta0_6 2.905926 1_555
Au0_7 Ta0_1 2.905926 1_555
Au0_7 Ta0_5 2.905926 1_555
Au0_7 Ta0_3 2.905926 1_555
Au0_7 Ta0_7 2.905926 1_555
