# generated using pymatgen
data_Ho2SiGe
_symmetry_space_group_name_H-M   'P 1'
_cell_length_a   5.68242095
_cell_length_b   5.68242095
_cell_length_c   3.86374321
_cell_angle_alpha   90.00000000
_cell_angle_beta   90.00000000
_cell_angle_gamma   136.13280168
_symmetry_Int_Tables_number   1
_chemical_formula_structural   Ho2SiGe
_chemical_formula_sum   'Ho2 Si1 Ge1'
_cell_volume   86.45727197
_cell_formula_units_Z   1
loop_
 _symmetry_equiv_pos_site_id
 _symmetry_equiv_pos_as_xyz
  1  'x, y, z'
loop_
 _atom_site_type_symbol
 _atom_site_label
 _atom_site_symmetry_multiplicity
 _atom_site_fract_x
 _atom_site_fract_y
 _atom_site_fract_z
 _atom_site_occupancy
  Ho  Ho0  1  0.13914145  0.86085855  -0.00000000  1
  Ho  Ho1  1  0.85974295  0.14025705  0.50000000  1
  Si  Si0  1  0.58157993  0.41842007  0.50000000  1
  Ge  Ge0  1  0.41953467  0.58046533  0.00000000  1
loop_
_geom_bond_atom_site_label_1
_geom_bond_atom_site_label_2
_geom_bond_distance
_geom_bond_site_symmetry_2
Ho0 Si0 2.933539 1_455
Ho0 Si0 2.933539 1_454
Ho0 Si0 2.933539 1_565
Ho0 Si0 2.933539 1_564
Ho1 Si0 2.932457 1_555
Ho1 Si0 3.158258 1_545
Ho1 Si0 3.158258 1_655
Ge0 Si0 2.578852 1_555
Ge0 Si0 2.578852 1_554
Ge0 Ho1 2.938492 1_565
Ge0 Ho1 2.938492 1_564
Ge0 Ho1 2.938492 1_455
Ge0 Ho1 2.938492 1_454
Ge0 Ho0 2.955968 1_555
Ge0 Ho0 3.140887 1_655
Ge0 Ho0 3.140887 1_545
