# generated using pymatgen
data_AsH5C2(OF3)2
_symmetry_space_group_name_H-M   'P 1'
_cell_length_a   11.73537300
_cell_length_b   6.55816200
_cell_length_c   10.80110301
_cell_angle_alpha   70.43946748
_cell_angle_beta   90.00000000
_cell_angle_gamma   90.00000000
_symmetry_Int_Tables_number   1
_chemical_formula_structural   AsH5C2(OF3)2
_chemical_formula_sum   'As4 H20 C8 O8 F24'
_cell_volume   783.30508387
_cell_formula_units_Z   4
loop_
 _symmetry_equiv_pos_site_id
 _symmetry_equiv_pos_as_xyz
  1  'x, y, z'
loop_
 _atom_site_type_symbol
 _atom_site_label
 _atom_site_symmetry_multiplicity
 _atom_site_fract_x
 _atom_site_fract_y
 _atom_site_fract_z
 _atom_site_occupancy
  As  As0  1  0.08386600  0.85714300  0.29934300  1
  As  As1  1  0.58386600  0.14285700  0.20065700  1
  As  As2  1  0.91613400  0.14285700  0.70065700  1
  As  As3  1  0.41613400  0.85714300  0.79934300  1
  H  H0  1  0.85613700  0.64907300  0.90194900  1
  H  H1  1  0.35613700  0.35092700  0.59805100  1
  H  H2  1  0.14386300  0.35092700  0.09805100  1
  H  H3  1  0.64386300  0.64907300  0.40194900  1
  H  H4  1  0.83038300  0.85277300  0.05090800  1
  H  H5  1  0.33038300  0.14722700  0.44909200  1
  H  H6  1  0.16961700  0.14722700  0.94909200  1
  H  H7  1  0.66961700  0.85277300  0.55090800  1
  H  H8  1  0.71137600  0.67285500  0.04893400  1
  H  H9  1  0.21137600  0.32714500  0.45106600  1
  H  H10  1  0.28862400  0.32714500  0.95106600  1
  H  H11  1  0.78862400  0.67285500  0.54893400  1
  H  H12  1  0.91418900  0.33135800  0.17725900  1
  H  H13  1  0.41418900  0.66864200  0.32274100  1
  H  H14  1  0.08581100  0.66864200  0.82274100  1
  H  H15  1  0.58581100  0.33135800  0.67725900  1
  H  H16  1  0.88521100  0.33464400  0.35307300  1
  H  H17  1  0.38521100  0.66535600  0.14692700  1
  H  H18  1  0.11478900  0.66535600  0.64692700  1
  H  H19  1  0.61478900  0.33464400  0.85307300  1
  C  C0  1  0.80360600  0.68687200  0.06224500  1
  C  C1  1  0.30360600  0.31312800  0.43775500  1
  C  C2  1  0.19639400  0.31312800  0.93775500  1
  C  C3  1  0.69639400  0.68687200  0.56224500  1
  C  C4  1  0.87714400  0.40228700  0.24642000  1
  C  C5  1  0.37714400  0.59771300  0.25358000  1
  C  C6  1  0.12285600  0.59771300  0.75358000  1
  C  C7  1  0.62285600  0.40228700  0.74642000  1
  O  O0  1  0.81934200  0.57380600  0.20502000  1
  O  O1  1  0.31934200  0.42619400  0.29498000  1
  O  O2  1  0.18065800  0.42619400  0.79498000  1
  O  O3  1  0.68065800  0.57380600  0.70502000  1
  O  O4  1  0.87055900  0.58467100  0.99607500  1
  O  O5  1  0.37055900  0.41532900  0.50392500  1
  O  O6  1  0.12944100  0.41532900  0.00392500  1
  O  O7  1  0.62944100  0.58467100  0.49607500  1
  F  F0  1  0.09811400  0.11528900  0.31861700  1
  F  F1  1  0.59811400  0.88471100  0.18138300  1
  F  F2  1  0.90188600  0.88471100  0.68138300  1
  F  F3  1  0.40188600  0.11528900  0.81861700  1
  F  F4  1  0.07321100  0.60295600  0.27360600  1
  F  F5  1  0.57321100  0.39704400  0.22639400  1
  F  F6  1  0.92678900  0.39704400  0.72639400  1
  F  F7  1  0.42678900  0.60295600  0.77360600  1
  F  F8  1  0.20860000  0.91587500  0.19849700  1
  F  F9  1  0.70860000  0.08412500  0.30150300  1
  F  F10  1  0.79140000  0.08412500  0.80150300  1
  F  F11  1  0.29140000  0.91587500  0.69849700  1
  F  F12  1  0.99728900  0.97900400  0.15965600  1
  F  F13  1  0.49728900  0.02099600  0.34034400  1
  F  F14  1  0.00271100  0.02099600  0.84034400  1
  F  F15  1  0.50271100  0.97900400  0.65965600  1
  F  F16  1  0.17162400  0.73703400  0.43867500  1
  F  F17  1  0.67162400  0.26296600  0.06132500  1
  F  F18  1  0.82837600  0.26296600  0.56132500  1
  F  F19  1  0.32837600  0.73703400  0.93867500  1
  F  F20  1  0.96223200  0.79587700  0.40114600  1
  F  F21  1  0.46223200  0.20412300  0.09885400  1
  F  F22  1  0.03776800  0.20412300  0.59885400  1
  F  F23  1  0.53776800  0.79587700  0.90114600  1
loop_
_geom_bond_atom_site_label_1
_geom_bond_atom_site_label_2
_geom_bond_distance
_geom_bond_site_symmetry_2
As0 F20 1.764148 1_455
As0 F12 1.771997 1_455
As0 F16 1.775436 1_555
As0 F0 1.781409 1_565
As0 F4 1.783844 1_555
As0 F8 1.787903 1_555
As1 F21 1.764148 1_555
As1 F13 1.771997 1_555
As1 F17 1.775436 1_555
As1 F1 1.781409 1_545
As1 F5 1.783844 1_555
As1 F9 1.787903 1_555
As2 F22 1.764148 1_655
As2 F14 1.771997 1_655
As2 F18 1.775436 1_555
As2 F2 1.781409 1_545
As2 F6 1.783844 1_555
As2 F10 1.787903 1_555
As3 F23 1.764148 1_555
As3 F15 1.771997 1_555
As3 F19 1.775436 1_555
As3 F3 1.781409 1_565
As3 F7 1.783844 1_555
As3 F11 1.787903 1_555
H0 O4 0.976275 1_555
H1 O5 0.976275 1_555
H2 O6 0.976275 1_555
H3 O7 0.976275 1_555
C0 H4 1.099221 1_555
C0 H8 1.099755 1_555
C0 O4 1.377738 1_554
C0 O0 1.482025 1_555
C1 H5 1.099221 1_555
C1 H9 1.099755 1_555
C1 O5 1.377738 1_555
C1 O1 1.482025 1_555
C2 H6 1.099221 1_555
C2 H10 1.099755 1_555
C2 O6 1.377738 1_556
C2 O2 1.482025 1_555
C3 H7 1.099221 1_555
C3 H11 1.099755 1_555
C3 O7 1.377738 1_555
C3 O3 1.482025 1_555
C4 H16 1.091147 1_555
C4 H12 1.093656 1_555
C4 O0 1.260383 1_555
C5 H17 1.091147 1_555
C5 H13 1.093656 1_555
C5 O1 1.260383 1_555
C6 H18 1.091147 1_555
C6 H14 1.093656 1_555
C6 O2 1.260383 1_555
C7 H19 1.091147 1_555
C7 H15 1.093656 1_555
C7 O3 1.260383 1_555
