# generated using pymatgen
data_Ca2Hg
_symmetry_space_group_name_H-M   'P 1'
_cell_length_a   5.00652613
_cell_length_b   7.74146232
_cell_length_c   9.74295320
_cell_angle_alpha   89.99948856
_cell_angle_beta   90.00000000
_cell_angle_gamma   90.00000000
_symmetry_Int_Tables_number   1
_chemical_formula_structural   Ca2Hg
_chemical_formula_sum   'Ca8 Hg4'
_cell_volume   377.61575684
_cell_formula_units_Z   4
loop_
 _symmetry_equiv_pos_site_id
 _symmetry_equiv_pos_as_xyz
  1  'x, y, z'
loop_
 _atom_site_type_symbol
 _atom_site_label
 _atom_site_symmetry_multiplicity
 _atom_site_fract_x
 _atom_site_fract_y
 _atom_site_fract_z
 _atom_site_occupancy
  Ca  Ca0  1  0.75000000  0.47459668  0.67547834  1
  Ca  Ca1  1  0.75000000  0.97458644  0.82464472  1
  Ca  Ca2  1  0.25000000  0.52541616  0.32450612  1
  Ca  Ca3  1  0.25000000  0.02541285  0.17538658  1
  Ca  Ca4  1  0.75000000  0.34940836  0.06961059  1
  Ca  Ca5  1  0.75000000  0.84940360  0.43032565  1
  Ca  Ca6  1  0.25000000  0.65057451  0.93046815  1
  Ca  Ca7  1  0.25000000  0.15058961  0.56957986  1
  Hg  Hg0  1  0.75000000  0.75318846  0.11745555  1
  Hg  Hg1  1  0.75000000  0.25321546  0.38249203  1
  Hg  Hg2  1  0.25000000  0.24679924  0.88257057  1
  Hg  Hg3  1  0.25000000  0.74680764  0.61748284  1
loop_
_geom_bond_atom_site_label_1
_geom_bond_atom_site_label_2
_geom_bond_distance
_geom_bond_site_symmetry_2
Ca0 Hg3 3.320594 1_555
Ca0 Hg3 3.320594 1_655
Ca0 Hg1 3.329522 1_555
Ca0 Hg2 3.667045 1_655
Ca0 Hg2 3.667045 1_555
Ca1 Hg2 3.320494 1_665
Ca1 Hg2 3.320494 1_565
Ca1 Hg0 3.328096 1_556
Ca1 Hg3 3.667366 1_655
Ca1 Hg3 3.667366 1_555
Ca2 Hg1 3.320527 1_555
Ca2 Hg1 3.320527 1_455
Ca2 Hg3 3.329482 1_555
Ca2 Hg0 3.666728 1_455
Ca2 Hg0 3.666728 1_555
Ca3 Hg0 3.320559 1_445
Ca3 Hg0 3.320559 1_545
Ca3 Hg2 3.328093 1_554
Ca3 Hg1 3.667152 1_555
Ca3 Hg1 3.667152 1_455
Ca4 Hg1 3.138021 1_555
Ca4 Hg0 3.160419 1_555
Ca4 Hg2 3.196591 1_654
Ca4 Hg2 3.196591 1_554
Ca5 Hg0 3.137967 1_555
Ca5 Hg1 3.160638 1_565
Ca5 Hg3 3.197208 1_555
Ca5 Hg3 3.197208 1_655
Ca6 Hg3 3.139078 1_555
Ca6 Hg2 3.160458 1_555
Ca6 Hg0 3.196308 1_556
Ca6 Hg0 3.196308 1_456
Ca7 Hg2 3.139099 1_555
Ca7 Hg3 3.160509 1_545
Ca7 Hg1 3.196881 1_455
Ca7 Hg1 3.196881 1_555
