# generated using pymatgen
data_Dy2CuGe6
_symmetry_space_group_name_H-M   'P 1'
_cell_length_a   10.88523962
_cell_length_b   10.88523962
_cell_length_c   4.07883000
_cell_angle_alpha   90.00000000
_cell_angle_beta   90.00000000
_cell_angle_gamma   158.54225778
_symmetry_Int_Tables_number   1
_chemical_formula_structural   Dy2CuGe6
_chemical_formula_sum   'Dy2 Cu1 Ge6'
_cell_volume   176.79622772
_cell_formula_units_Z   1
loop_
 _symmetry_equiv_pos_site_id
 _symmetry_equiv_pos_as_xyz
  1  'x, y, z'
loop_
 _atom_site_type_symbol
 _atom_site_label
 _atom_site_symmetry_multiplicity
 _atom_site_fract_x
 _atom_site_fract_y
 _atom_site_fract_z
 _atom_site_occupancy
  Dy  Dy0  1  0.00459200  0.99540800  0.00000000  1
  Dy  Dy1  1  0.66933300  0.33066700  0.00000000  1
  Cu  Cu0  1  0.22412900  0.77587100  0.50000000  1
  Ge  Ge0  1  0.28523900  0.71476100  0.00000000  1
  Ge  Ge1  1  0.40166100  0.59833900  0.00000000  1
  Ge  Ge2  1  0.54317700  0.45682300  0.50000000  1
  Ge  Ge3  1  0.11557100  0.88442900  0.50000000  1
  Ge  Ge4  1  0.90227400  0.09772600  0.50000000  1
  Ge  Ge5  1  0.78502500  0.21497500  0.50000000  1
loop_
_geom_bond_atom_site_label_1
_geom_bond_atom_site_label_2
_geom_bond_distance
_geom_bond_site_symmetry_2
Dy0 Ge2 2.991110 1_455
Dy0 Ge2 2.991110 1_454
Dy0 Ge2 2.991110 1_565
Dy0 Ge2 2.991110 1_564
Dy0 Ge4 2.991499 1_465
Dy0 Ge4 2.991499 1_464
Dy0 Ge1 2.992286 1_565
Dy0 Ge1 2.992286 1_455
Dy0 Ge3 3.129583 1_555
Dy0 Ge3 3.129583 1_554
Dy1 Ge3 3.096448 1_655
Dy1 Ge3 3.096448 1_654
Dy1 Ge3 3.096448 1_544
Dy1 Ge3 3.096448 1_545
Dy1 Ge0 3.202013 1_655
Dy1 Ge0 3.202013 1_545
Dy1 Ge5 3.206722 1_554
Dy1 Ge5 3.206722 1_555
Dy1 Ge2 3.382445 1_555
Dy1 Ge2 3.382445 1_554
Cu0 Ge3 2.322046 1_555
Cu0 Ge5 2.408946 1_455
Cu0 Ge5 2.408946 1_565
Cu0 Ge0 2.422359 1_555
Cu0 Ge0 2.422359 1_556
Cu0 Dy1 3.104730 1_456
Cu0 Dy1 3.104730 1_455
Cu0 Dy1 3.104730 1_565
Cu0 Dy1 3.104730 1_566
Ge0 Ge1 2.490256 1_555
Ge0 Ge5 2.874994 1_455
Ge0 Ge5 2.874994 1_454
Ge0 Ge5 2.874994 1_564
Ge0 Ge5 2.874994 1_565
Ge1 Ge4 2.875021 1_565
Ge1 Ge4 2.875021 1_564
Ge1 Ge4 2.875021 1_455
Ge1 Ge4 2.875021 1_454
Ge2 Ge3 2.550336 1_655
Ge2 Ge3 2.550336 1_545
Ge4 Ge5 2.507946 1_555
