# generated using pymatgen
data_Sm4MgV4O12
_symmetry_space_group_name_H-M   'P 1'
_cell_length_a   5.88975527
_cell_length_b   5.84251975
_cell_length_c   7.82805657
_cell_angle_alpha   91.68448313
_cell_angle_beta   89.14302679
_cell_angle_gamma   96.18568314
_symmetry_Int_Tables_number   1
_chemical_formula_structural   Sm4MgV4O12
_chemical_formula_sum   'Sm4 Mg1 V4 O12'
_cell_volume   267.66847673
_cell_formula_units_Z   1
loop_
 _symmetry_equiv_pos_site_id
 _symmetry_equiv_pos_as_xyz
  1  'x, y, z'
loop_
 _atom_site_type_symbol
 _atom_site_label
 _atom_site_symmetry_multiplicity
 _atom_site_fract_x
 _atom_site_fract_y
 _atom_site_fract_z
 _atom_site_occupancy
  Sm  Sm0  1  0.97882700  0.41553900  0.75244000  1
  Sm  Sm1  1  0.03014100  0.57692200  0.25449400  1
  Sm  Sm2  1  0.53554200  0.05617500  0.23275100  1
  Sm  Sm3  1  0.40746500  0.04130400  0.68710200  1
  Mg  Mg0  1  0.75847000  0.83887400  0.78605300  1
  V  V0  1  0.99034800  0.01801800  0.48742800  1
  V  V1  1  0.51707900  0.53049300  0.49257600  1
  V  V2  1  0.03921300  0.99752800  0.01923600  1
  V  V3  1  0.49156400  0.51827800  0.00559100  1
  O  O0  1  0.31843700  0.82659200  0.44038700  1
  O  O1  1  0.70162100  0.22604600  0.53841500  1
  O  O2  1  0.82736600  0.69010700  0.55660400  1
  O  O3  1  0.21761200  0.33160900  0.48864500  1
  O  O4  1  0.83899200  0.65059400  0.96651100  1
  O  O5  1  0.19738900  0.33225500  0.03847300  1
  O  O6  1  0.30420500  0.79213600  0.08210500  1
  O  O7  1  0.66987000  0.14372800  0.91768400  1
  O  O8  1  0.88573800  0.94318100  0.24828500  1
  O  O9  1  0.04918600  0.04159400  0.75397000  1
  O  O10  1  0.44509300  0.62955800  0.75587200  1
  O  O11  1  0.60536400  0.46196900  0.24538100  1
loop_
_geom_bond_atom_site_label_1
_geom_bond_atom_site_label_2
_geom_bond_distance
_geom_bond_site_symmetry_2
Mg0 O4 1.911634 1_555
Mg0 O9 1.991293 1_665
Mg0 O2 2.026983 1_555
Mg0 O10 2.113687 1_555
Mg0 O7 2.140736 1_565
O0 V1 2.240645 1_555
O0 Sm3 2.307517 1_565
O0 V0 2.353872 1_465
O0 Sm2 2.402609 1_565
O0 Sm1 2.558103 1_555
O1 V0 2.219214 1_555
O1 V1 2.222579 1_555
O1 Sm3 2.265365 1_555
O1 Sm0 2.506300 1_555
O1 Sm2 2.718138 1_555
O2 V1 2.023196 1_555
O2 V0 2.129368 1_565
O2 Sm0 2.492620 1_555
O2 Sm1 2.729527 1_655
O3 V1 2.004981 1_555
O3 V0 2.149285 1_455
O3 Sm0 2.546532 1_455
O3 Sm3 2.675107 1_555
O3 Sm1 2.681246 1_555
O4 V3 2.129012 1_556
O4 V2 2.262708 1_656
O4 Sm0 2.332301 1_555
O4 Sm1 2.602349 1_656
O5 V3 1.961313 1_555
O5 V2 2.075911 1_545
O5 Sm1 2.446382 1_555
O5 Sm0 2.681902 1_454
O6 V3 2.107346 1_555
O6 V2 2.139961 1_555
O6 Sm2 2.261648 1_565
O6 Sm1 2.367458 1_555
O7 Sm3 2.413580 1_555
O7 V2 2.566272 1_646
O7 V3 2.598122 1_556
O7 Sm2 2.626619 1_556
O7 Sm0 2.633255 1_555
O8 V0 2.000898 1_565
O8 V2 2.013933 1_655
O8 Sm2 2.238406 1_565
O8 Sm1 2.388375 1_655
O9 V2 2.099091 1_546
O9 V0 2.118258 1_455
O9 Sm3 2.166684 1_555
O9 Sm0 2.267583 1_455
O10 V3 2.109025 1_556
O10 V1 2.172437 1_555
O10 Sm3 2.514079 1_565
O10 Sm0 2.892412 1_455
O11 V1 2.035760 1_555
O11 V3 2.049975 1_555
O11 Sm2 2.361607 1_555
O11 Sm1 2.521060 1_655
