# generated using pymatgen
data_BaMg14Cr
_symmetry_space_group_name_H-M   'P 1'
_cell_length_a   6.58758812
_cell_length_b   6.58758756
_cell_length_c   10.52438320
_cell_angle_alpha   90.00000000
_cell_angle_beta   90.00000000
_cell_angle_gamma   120.00000283
_symmetry_Int_Tables_number   1
_chemical_formula_structural   BaMg14Cr
_chemical_formula_sum   'Ba1 Mg14 Cr1'
_cell_volume   395.53062006
_cell_formula_units_Z   1
loop_
 _symmetry_equiv_pos_site_id
 _symmetry_equiv_pos_as_xyz
  1  'x, y, z'
loop_
 _atom_site_type_symbol
 _atom_site_label
 _atom_site_symmetry_multiplicity
 _atom_site_fract_x
 _atom_site_fract_y
 _atom_site_fract_z
 _atom_site_occupancy
  Ba  Ba0  1  0.16666700  0.33333300  0.12500000  1
  Mg  Mg0  1  0.17930439  0.83965170  0.12500000  1
  Mg  Mg1  1  0.16197807  0.83098853  0.62500000  1
  Mg  Mg2  1  0.66034830  0.32069561  0.12500000  1
  Mg  Mg3  1  0.66901147  0.33802193  0.62500000  1
  Mg  Mg4  1  0.66034830  0.83965170  0.12500000  1
  Mg  Mg5  1  0.66901147  0.83098853  0.62500000  1
  Mg  Mg6  1  0.33617454  0.16382546  0.39329680  1
  Mg  Mg7  1  0.33617454  0.16382546  0.85670320  1
  Mg  Mg8  1  0.33617454  0.67235008  0.39329680  1
  Mg  Mg9  1  0.33617454  0.67235008  0.85670320  1
  Mg  Mg10  1  0.82764992  0.16382546  0.39329680  1
  Mg  Mg11  1  0.82764992  0.16382546  0.85670320  1
  Mg  Mg12  1  0.83333300  0.66666700  0.36774210  1
  Mg  Mg13  1  0.83333300  0.66666700  0.88225790  1
  Cr  Cr0  1  0.16666700  0.33333300  0.62500000  1
loop_
_geom_bond_atom_site_label_1
_geom_bond_atom_site_label_2
_geom_bond_distance
_geom_bond_site_symmetry_2
Ba0 Mg0 3.294583 1_545
Ba0 Mg4 3.294583 1_555
Ba0 Mg4 3.294583 1_445
Ba0 Mg0 3.294583 1_555
Ba0 Mg2 3.294583 1_555
Ba0 Mg2 3.294583 1_455
Ba0 Mg7 3.422534 1_554
Ba0 Mg6 3.422534 1_555
Ba0 Mg9 3.422541 1_554
Ba0 Mg8 3.422541 1_555
Ba0 Mg11 3.422541 1_454
Ba0 Mg10 3.422541 1_455
Mg0 Mg2 3.168919 1_565
Mg0 Mg4 3.168919 1_555
Mg0 Mg13 3.228363 1_454
Mg0 Mg12 3.228363 1_455
Mg0 Mg9 3.375578 1_554
Mg0 Mg8 3.375578 1_555
Mg0 Mg7 3.375585 1_564
Mg0 Mg6 3.375585 1_565
Mg0 Mg2 3.418669 1_455
Mg0 Mg4 3.418669 1_455
Mg1 Mg8 3.091055 1_555
Mg1 Mg9 3.091055 1_555
Mg1 Mg6 3.091062 1_565
Mg1 Mg7 3.091062 1_565
Mg1 Mg3 3.247461 1_455
Mg1 Mg5 3.247461 1_455
Mg1 Mg12 3.293296 1_455
Mg1 Mg13 3.293296 1_455
Mg1 Mg3 3.340127 1_565
Mg1 Mg5 3.340127 1_555
Mg2 Mg4 3.168919 1_545
Mg2 Mg7 3.375585 1_554
Mg2 Mg6 3.375585 1_555
Mg2 Mg4 3.418669 1_555
Mg3 Mg6 3.091062 1_555
Mg3 Mg7 3.091062 1_555
Mg3 Mg5 3.247461 1_555
Mg3 Mg5 3.340127 1_545
Mg4 Mg8 3.375585 1_555
Mg4 Mg9 3.375585 1_554
Mg5 Mg9 3.091063 1_555
Mg5 Mg8 3.091063 1_555
Mg6 Mg8 3.237637 1_545
Mg6 Mg8 3.349950 1_555
Mg7 Mg9 3.237637 1_545
Mg7 Mg9 3.349950 1_555
Mg10 Mg3 3.091055 1_555
Mg10 Mg5 3.091062 1_545
Mg10 Mg8 3.237637 1_545
Mg10 Mg6 3.237637 1_555
Mg10 Mg12 3.304915 1_555
Mg10 Mg12 3.304915 1_545
Mg10 Mg8 3.349950 1_655
Mg10 Mg6 3.349951 1_655
Mg10 Mg2 3.375578 1_555
Mg10 Mg4 3.375584 1_545
Mg11 Mg3 3.091055 1_555
Mg11 Mg5 3.091062 1_545
Mg11 Mg9 3.237637 1_545
Mg11 Mg7 3.237637 1_555
Mg11 Mg13 3.304915 1_555
Mg11 Mg13 3.304915 1_545
Mg11 Mg9 3.349950 1_655
Mg11 Mg7 3.349951 1_655
Mg11 Mg2 3.375578 1_556
Mg11 Mg4 3.375584 1_546
Mg12 Mg4 3.228356 1_555
Mg12 Mg2 3.228363 1_555
Mg12 Mg5 3.293290 1_555
Mg12 Mg3 3.293296 1_555
Mg12 Mg6 3.304915 1_555
Mg12 Mg6 3.304915 1_665
Mg12 Mg8 3.304915 1_555
Mg12 Mg8 3.304915 1_655
Mg13 Mg4 3.228356 1_556
Mg13 Mg2 3.228363 1_556
Mg13 Mg5 3.293290 1_555
Mg13 Mg3 3.293296 1_555
Mg13 Mg7 3.304915 1_555
Mg13 Mg7 3.304915 1_665
Mg13 Mg9 3.304915 1_555
Mg13 Mg9 3.304915 1_655
Cr0 Mg6 3.112417 1_555
Cr0 Mg7 3.112417 1_555
Cr0 Mg9 3.112424 1_555
Cr0 Mg8 3.112424 1_555
Cr0 Mg10 3.112424 1_455
Cr0 Mg11 3.112424 1_455
Cr0 Mg1 3.293902 1_555
Cr0 Mg5 3.293902 1_445
Cr0 Mg5 3.293902 1_555
Cr0 Mg1 3.293902 1_545
Cr0 Mg3 3.293903 1_455
Cr0 Mg3 3.293903 1_555
