# generated using pymatgen
data_K2MnP2
_symmetry_space_group_name_H-M   'P 1'
_cell_length_a   3.21409800
_cell_length_b   3.21409800
_cell_length_c   14.58687300
_cell_angle_alpha   90.00000000
_cell_angle_beta   90.00000000
_cell_angle_gamma   90.00000000
_symmetry_Int_Tables_number   1
_chemical_formula_structural   K2MnP2
_chemical_formula_sum   'K2 Mn1 P2'
_cell_volume   150.68861142
_cell_formula_units_Z   1
loop_
 _symmetry_equiv_pos_site_id
 _symmetry_equiv_pos_as_xyz
  1  'x, y, z'
loop_
 _atom_site_type_symbol
 _atom_site_label
 _atom_site_symmetry_multiplicity
 _atom_site_fract_x
 _atom_site_fract_y
 _atom_site_fract_z
 _atom_site_occupancy
  K  K0  1  0.50000000  0.50000000  0.64323000  1
  K  K1  1  0.50000000  0.50000000  0.35677000  1
  Mn  Mn0  1  0.50000000  0.50000000  0.00000000  1
  P  P0  1  0.50000000  0.50000000  0.15366400  1
  P  P1  1  0.50000000  0.50000000  0.84633600  1
loop_
_geom_bond_atom_site_label_1
_geom_bond_atom_site_label_2
_geom_bond_distance
_geom_bond_site_symmetry_2
K0 P1 2.962681 1_555
K1 P0 2.962681 1_555
Mn0 P0 2.241477 1_555
Mn0 P1 2.241477 1_554
