# generated using pymatgen
data_BaMgTi4O8
_symmetry_space_group_name_H-M   'P 1'
_cell_length_a   5.39185217
_cell_length_b   5.39185217
_cell_length_c   7.51218300
_cell_angle_alpha   90.00000000
_cell_angle_beta   90.00000000
_cell_angle_gamma   120.00000207
_symmetry_Int_Tables_number   1
_chemical_formula_structural   BaMgTi4O8
_chemical_formula_sum   'Ba1 Mg1 Ti4 O8'
_cell_volume   189.13536174
_cell_formula_units_Z   1
loop_
 _symmetry_equiv_pos_site_id
 _symmetry_equiv_pos_as_xyz
  1  'x, y, z'
loop_
 _atom_site_type_symbol
 _atom_site_label
 _atom_site_symmetry_multiplicity
 _atom_site_fract_x
 _atom_site_fract_y
 _atom_site_fract_z
 _atom_site_occupancy
  Ba  Ba0  1  0.00000000  0.00000000  0.00000000  1
  Mg  Mg0  1  0.00000000  0.00000000  0.50000000  1
  Ti  Ti0  1  0.33333300  0.66666700  0.74809400  1
  Ti  Ti1  1  0.66666700  0.33333300  0.74809400  1
  Ti  Ti2  1  0.33333300  0.66666700  0.25190600  1
  Ti  Ti3  1  0.66666700  0.33333300  0.25190600  1
  O  O0  1  0.31490200  0.31490200  0.67410200  1
  O  O1  1  0.68509800  0.00000000  0.67410200  1
  O  O2  1  0.00000000  0.68509800  0.67410200  1
  O  O3  1  0.68509800  0.68509800  0.32589800  1
  O  O4  1  0.00000000  0.31490200  0.32589800  1
  O  O5  1  0.31490200  0.00000000  0.32589800  1
  O  O6  1  0.33333300  0.66666700  0.00000000  1
  O  O7  1  0.66666700  0.33333300  0.00000000  1
loop_
_geom_bond_atom_site_label_1
_geom_bond_atom_site_label_2
_geom_bond_distance
_geom_bond_site_symmetry_2
Ba0 O3 2.979361 1_445
Ba0 O0 2.979361 1_554
Ba0 O4 2.979361 1_555
Ba0 O5 2.979361 1_555
Ba0 O2 2.979361 1_544
Ba0 O1 2.979361 1_454
Ba0 O7 3.112984 1_455
Ba0 O6 3.112984 1_545
Ba0 O6 3.112989 1_555
Ba0 O6 3.112989 1_445
Ba0 O7 3.112989 1_555
Ba0 O7 3.112989 1_445
Mg0 O0 2.143233 1_555
Mg0 O3 2.143233 1_445
Mg0 O2 2.143233 1_545
Mg0 O1 2.143233 1_455
Mg0 O4 2.143233 1_555
Mg0 O5 2.143233 1_555
O0 Ti0 1.930722 1_555
O0 Ti1 1.930722 1_555
O1 Ti1 1.930717 1_555
O1 Ti0 1.930720 1_545
O2 Ti0 1.930717 1_555
O2 Ti1 1.930720 1_455
O3 Ti3 1.930722 1_555
O3 Ti2 1.930722 1_555
O4 Ti3 1.930717 1_455
O4 Ti2 1.930720 1_555
O5 Ti2 1.930717 1_545
O5 Ti3 1.930720 1_555
O6 Ti2 1.892364 1_555
O6 Ti0 1.892364 1_554
O7 Ti3 1.892364 1_555
O7 Ti1 1.892364 1_554
