# generated using pymatgen
data_La3BeAlS7
_symmetry_space_group_name_H-M   'P 1'
_cell_length_a   10.25754787
_cell_length_b   10.25754787
_cell_length_c   5.87409400
_cell_angle_alpha   90.00000000
_cell_angle_beta   90.00000000
_cell_angle_gamma   119.99999917
_symmetry_Int_Tables_number   1
_chemical_formula_structural   La3BeAlS7
_chemical_formula_sum   'La6 Be2 Al2 S14'
_cell_volume   535.25241110
_cell_formula_units_Z   2
loop_
 _symmetry_equiv_pos_site_id
 _symmetry_equiv_pos_as_xyz
  1  'x, y, z'
loop_
 _atom_site_type_symbol
 _atom_site_label
 _atom_site_symmetry_multiplicity
 _atom_site_fract_x
 _atom_site_fract_y
 _atom_site_fract_z
 _atom_site_occupancy
  La  La0  1  0.36930600  0.13015900  0.73203500  1
  La  La1  1  0.86984100  0.23914700  0.73203500  1
  La  La2  1  0.63069400  0.86984100  0.23203500  1
  La  La3  1  0.76085300  0.63069400  0.73203500  1
  La  La4  1  0.13015900  0.76085300  0.23203500  1
  La  La5  1  0.23914700  0.36930600  0.23203500  1
  Be  Be0  1  0.00000000  0.00000000  0.50026100  1
  Be  Be1  1  0.00000000  0.00000000  0.00026100  1
  Al  Al0  1  0.33333300  0.66666700  0.65103600  1
  Al  Al1  1  0.66666700  0.33333300  0.15103600  1
  S  S0  1  0.33333300  0.66666700  0.02619000  1
  S  S1  1  0.66666700  0.33333300  0.52619000  1
  S  S2  1  0.10284700  0.51471000  0.50441900  1
  S  S3  1  0.48529000  0.58813600  0.50441900  1
  S  S4  1  0.89715300  0.48529000  0.00441900  1
  S  S5  1  0.41186400  0.89715300  0.50441900  1
  S  S6  1  0.51471000  0.41186400  0.00441900  1
  S  S7  1  0.58813600  0.10284700  0.00441900  1
  S  S8  1  0.13953900  0.21448400  0.74805000  1
  S  S9  1  0.78551600  0.92505500  0.74805000  1
  S  S10  1  0.86046100  0.78551600  0.24805000  1
  S  S11  1  0.07494500  0.86046100  0.74805000  1
  S  S12  1  0.21448400  0.07494500  0.24805000  1
  S  S13  1  0.92505500  0.13953900  0.24805000  1
loop_
_geom_bond_atom_site_label_1
_geom_bond_atom_site_label_2
_geom_bond_distance
_geom_bond_site_symmetry_2
La0 S7 2.881989 1_556
La0 S8 2.889695 1_555
La0 S11 2.902740 1_545
La0 S5 2.955340 1_545
La0 S1 2.958423 1_555
La0 S6 2.970616 1_556
La0 S12 3.166366 1_555
La0 S12 3.336325 1_556
La1 S4 2.881998 1_556
La1 S9 2.889695 1_545
La1 S8 2.902740 1_655
La1 S2 2.955335 1_655
La1 S1 2.958416 1_555
La1 S7 2.970616 1_556
La1 S13 3.166366 1_555
La1 S13 3.336325 1_556
La2 S5 2.881989 1_555
La2 S10 2.889695 1_555
La2 S13 2.902740 1_565
La2 S7 2.955340 1_565
La2 S0 2.958423 1_555
La2 S3 2.970616 1_555
La2 S9 3.166366 1_554
La2 S9 3.336325 1_555
La3 S6 2.881994 1_556
La3 S11 2.889695 1_655
La3 S9 2.902740 1_555
La3 S3 2.955331 1_555
La3 S1 2.958424 1_555
La3 S4 2.970609 1_556
La3 S10 3.166366 1_555
La3 S10 3.336325 1_556
La4 S2 2.881998 1_555
La4 S12 2.889695 1_565
La4 S10 2.902740 1_455
La4 S4 2.955335 1_455
La4 S0 2.958416 1_555
La4 S5 2.970616 1_555
La4 S11 3.166366 1_554
La4 S11 3.336325 1_555
La5 S3 2.881994 1_555
La5 S13 2.889695 1_455
La5 S12 2.902740 1_555
La5 S6 2.955331 1_555
La5 S0 2.958424 1_555
La5 S2 2.970609 1_555
La5 S8 3.166366 1_554
La5 S8 3.336325 1_555
Be0 S11 2.420455 1_545
Be0 S9 2.420455 1_445
Be0 S8 2.420455 1_555
Be0 S13 2.436163 1_455
Be0 S12 2.436163 1_555
Be0 S10 2.436163 1_445
Be1 S13 2.420455 1_455
Be1 S12 2.420455 1_555
Be1 S10 2.420455 1_445
Be1 S11 2.436163 1_544
Be1 S9 2.436163 1_444
Be1 S8 2.436163 1_554
Al0 S0 2.203690 1_556
Al0 S5 2.252932 1_555
Al0 S2 2.252936 1_555
Al0 S3 2.252950 1_555
Al1 S1 2.203690 1_555
Al1 S7 2.252932 1_555
Al1 S4 2.252936 1_555
Al1 S6 2.252950 1_555
