# generated using pymatgen
data_U5PS4
_symmetry_space_group_name_H-M   'P 1'
_cell_length_a   16.01896734
_cell_length_b   16.01896734
_cell_length_c   16.01896661
_cell_angle_alpha   13.89680709
_cell_angle_beta   13.89680709
_cell_angle_gamma   13.89680537
_symmetry_Int_Tables_number   1
_chemical_formula_structural   U5PS4
_chemical_formula_sum   'U5 P1 S4'
_cell_volume   206.35245463
_cell_formula_units_Z   1
loop_
 _symmetry_equiv_pos_site_id
 _symmetry_equiv_pos_as_xyz
  1  'x, y, z'
loop_
 _atom_site_type_symbol
 _atom_site_label
 _atom_site_symmetry_multiplicity
 _atom_site_fract_x
 _atom_site_fract_y
 _atom_site_fract_z
 _atom_site_occupancy
  U  U0  1  0.60000000  0.60000000  0.60000000  1
  U  U1  1  0.40000000  0.40000000  0.40000000  1
  U  U2  1  0.00000000  0.00000000  0.00000000  1
  U  U3  1  0.20012200  0.20012200  0.20012200  1
  U  U4  1  0.79987800  0.79987800  0.79987800  1
  P  P0  1  0.50000000  0.50000000  0.50000000  1
  S  S0  1  0.09967400  0.09967400  0.09967400  1
  S  S1  1  0.69996000  0.69996000  0.69996000  1
  S  S2  1  0.30004000  0.30004000  0.30004000  1
  S  S3  1  0.90032600  0.90032600  0.90032600  1
loop_
_geom_bond_atom_site_label_1
_geom_bond_atom_site_label_2
_geom_bond_distance
_geom_bond_site_symmetry_2
P0 U3 2.746222 1_556
P0 U4 2.746222 1_554
P0 U3 2.746222 1_565
P0 U3 2.746222 1_655
P0 U4 2.746222 1_455
P0 U4 2.746222 1_545
S0 U1 2.733919 1_554
S0 U1 2.733919 1_545
S0 U1 2.733919 1_455
S0 U4 2.748486 1_445
S0 U4 2.748486 1_454
S0 U4 2.748486 1_544
S1 U2 2.741761 1_665
S1 U2 2.741761 1_656
S1 U2 2.741761 1_566
S1 U1 2.743962 1_556
S1 U1 2.743962 1_565
S1 U1 2.743962 1_655
S2 U2 2.741761 1_556
S2 U2 2.741761 1_565
S2 U2 2.741761 1_655
S2 U0 2.743962 1_554
S2 U0 2.743962 1_545
S2 U0 2.743962 1_455
S3 U0 2.733919 1_556
S3 U0 2.733919 1_655
S3 U0 2.733919 1_565
S3 U3 2.748486 1_665
S3 U3 2.748486 1_566
S3 U3 2.748486 1_656
