# generated using pymatgen
data_Y2Pt
_symmetry_space_group_name_H-M   'P 1'
_cell_length_a   4.78605662
_cell_length_b   7.16519034
_cell_length_c   8.81546572
_cell_angle_alpha   89.99928493
_cell_angle_beta   90.00000275
_cell_angle_gamma   89.99999832
_symmetry_Int_Tables_number   1
_chemical_formula_structural   Y2Pt
_chemical_formula_sum   'Y8 Pt4'
_cell_volume   302.30882464
_cell_formula_units_Z   4
loop_
 _symmetry_equiv_pos_site_id
 _symmetry_equiv_pos_as_xyz
  1  'x, y, z'
loop_
 _atom_site_type_symbol
 _atom_site_label
 _atom_site_symmetry_multiplicity
 _atom_site_fract_x
 _atom_site_fract_y
 _atom_site_fract_z
 _atom_site_occupancy
  Y  Y0  1  0.74999999  0.64264474  0.58194763  1
  Y  Y1  1  0.74999997  0.14267411  0.91802998  1
  Y  Y2  1  0.25000007  0.35740248  0.41806370  1
  Y  Y3  1  0.24999995  0.85741858  0.08195526  1
  Y  Y4  1  0.75000007  0.50884132  0.16605521  1
  Y  Y5  1  0.74999993  0.00888659  0.33397166  1
  Y  Y6  1  0.25000001  0.49107435  0.83403844  1
  Y  Y7  1  0.25000002  0.99111094  0.66593688  1
  Pt  Pt0  1  0.74999996  0.24070270  0.59235713  1
  Pt  Pt1  1  0.75000000  0.74071554  0.90762580  1
  Pt  Pt2  1  0.25000005  0.75926644  0.40769572  1
  Pt  Pt3  1  0.24999997  0.25926221  0.09232259  1
loop_
_geom_bond_atom_site_label_1
_geom_bond_atom_site_label_2
_geom_bond_distance
_geom_bond_site_symmetry_2
Pt0 Y5 2.819106 1_555
Pt0 Y0 2.881452 1_555
Pt0 Y1 2.955623 1_555
Pt0 Y2 2.964204 1_555
Pt0 Y2 2.964205 1_655
Pt0 Y7 3.057052 1_545
Pt0 Y7 3.057052 1_645
Pt1 Y4 2.819630 1_556
Pt1 Y1 2.881571 1_565
Pt1 Y0 2.955757 1_555
Pt1 Y3 2.964386 1_656
Pt1 Y3 2.964387 1_556
Pt1 Y6 3.057283 1_555
Pt1 Y6 3.057283 1_655
Pt2 Y7 2.818198 1_555
Pt2 Y2 2.880881 1_555
Pt2 Y3 2.956412 1_555
Pt2 Y0 2.963856 1_555
Pt2 Y0 2.963857 1_455
Pt2 Y5 3.057440 1_565
Pt2 Y5 3.057441 1_465
Pt3 Y6 2.818334 1_554
Pt3 Y3 2.880737 1_545
Pt3 Y2 2.956414 1_555
Pt3 Y1 2.963986 1_454
Pt3 Y1 2.963986 1_554
Pt3 Y4 3.057294 1_455
Pt3 Y4 3.057295 1_555
