# generated using pymatgen
data_CaP2WO7
_symmetry_space_group_name_H-M   'P 1'
_cell_length_a   6.00058800
_cell_length_b   6.79292758
_cell_length_c   7.91180006
_cell_angle_alpha   80.26216654
_cell_angle_beta   86.58688486
_cell_angle_gamma   69.76297338
_symmetry_Int_Tables_number   1
_chemical_formula_structural   CaP2WO7
_chemical_formula_sum   'Ca2 P4 W2 O14'
_cell_volume   298.22955502
_cell_formula_units_Z   2
loop_
 _symmetry_equiv_pos_site_id
 _symmetry_equiv_pos_as_xyz
  1  'x, y, z'
loop_
 _atom_site_type_symbol
 _atom_site_label
 _atom_site_symmetry_multiplicity
 _atom_site_fract_x
 _atom_site_fract_y
 _atom_site_fract_z
 _atom_site_occupancy
  Ca  Ca0  1  0.31076600  0.67697900  0.65335500  1
  Ca  Ca1  1  0.68923400  0.32302100  0.34664500  1
  P  P0  1  0.16338500  0.66014800  0.11900900  1
  P  P1  1  0.83661500  0.33985200  0.88099100  1
  P  P2  1  0.22059600  0.22017600  0.61691500  1
  P  P3  1  0.77940400  0.77982400  0.38308500  1
  W  W0  1  0.28418600  0.12682600  0.16578200  1
  W  W1  1  0.71581400  0.87317400  0.83421800  1
  O  O0  1  0.08232000  0.71659000  0.92975500  1
  O  O1  1  0.91768000  0.28341000  0.07024500  1
  O  O2  1  0.25741800  0.81554200  0.17895900  1
  O  O3  1  0.74258200  0.18445800  0.82104100  1
  O  O4  1  0.34341200  0.43153600  0.15734900  1
  O  O5  1  0.65658800  0.56846400  0.84265100  1
  O  O6  1  0.62397600  0.64632800  0.44940500  1
  O  O7  1  0.37602400  0.35367200  0.55059500  1
  O  O8  1  0.05150800  0.20646400  0.48892800  1
  O  O9  1  0.94849200  0.79353600  0.51107200  1
  O  O10  1  0.07302300  0.34567100  0.77101400  1
  O  O11  1  0.62981000  0.00677800  0.29471000  1
  O  O12  1  0.37019000  0.99322200  0.70529000  1
  O  O13  1  0.92697700  0.65432900  0.22898600  1
loop_
_geom_bond_atom_site_label_1
_geom_bond_atom_site_label_2
_geom_bond_distance
_geom_bond_site_symmetry_2
Ca0 O9 2.327857 1_455
Ca0 O7 2.368287 1_555
Ca0 O6 2.379335 1_555
Ca0 O12 2.399332 1_555
Ca0 O5 2.455798 1_555
Ca0 O0 2.514090 1_555
Ca1 O8 2.327857 1_655
Ca1 O6 2.368287 1_555
Ca1 O7 2.379335 1_555
Ca1 O11 2.399332 1_555
Ca1 O4 2.455798 1_555
Ca1 O1 2.514090 1_555
O0 P0 1.545686 1_556
O0 W1 2.201605 1_455
O1 P1 1.545686 1_554
O1 W0 2.201605 1_655
O2 P0 1.506947 1_555
O2 W0 2.160163 1_565
O3 P1 1.506947 1_555
O3 W1 2.160163 1_545
O4 P0 1.545871 1_555
O4 W0 2.207825 1_555
O5 P1 1.545871 1_555
O5 W1 2.207825 1_555
O6 P3 1.527543 1_555
O7 P2 1.527543 1_555
O8 P2 1.511006 1_555
O8 W0 2.880780 1_555
O9 P3 1.511006 1_555
O9 W1 2.880780 1_555
O10 P1 1.628263 1_455
O10 P2 1.642596 1_555
O11 P3 1.556966 1_545
O11 W0 2.192543 1_555
O12 P2 1.556966 1_565
O12 W1 2.192543 1_555
O13 P0 1.628263 1_655
O13 P3 1.642596 1_555
