# generated using pymatgen
data_SrCa7Ti3Mn5O22
_symmetry_space_group_name_H-M   'P 1'
_cell_length_a   11.00537813
_cell_length_b   15.73719693
_cell_length_c   10.95309020
_cell_angle_alpha   89.94061259
_cell_angle_beta   91.07706556
_cell_angle_gamma   90.26507876
_symmetry_Int_Tables_number   1
_chemical_formula_structural   SrCa7Ti3Mn5O22
_chemical_formula_sum   'Sr4 Ca28 Ti12 Mn20 O88'
_cell_volume   1896.65102167
_cell_formula_units_Z   4
loop_
 _symmetry_equiv_pos_site_id
 _symmetry_equiv_pos_as_xyz
  1  'x, y, z'
loop_
 _atom_site_type_symbol
 _atom_site_label
 _atom_site_symmetry_multiplicity
 _atom_site_fract_x
 _atom_site_fract_y
 _atom_site_fract_z
 _atom_site_occupancy
  Sr  Sr0  1  0.98906025  0.11879952  0.51058539  1
  Sr  Sr1  1  0.50216380  0.39019655  0.99890635  1
  Sr  Sr2  1  0.24381674  0.39252986  0.25207238  1
  Sr  Sr3  1  0.22622215  0.11824078  0.23161419  1
  Ca  Ca0  1  0.98700517  0.11439955  0.01127993  1
  Ca  Ca1  1  0.00875539  0.62605806  0.50409061  1
  Ca  Ca2  1  0.00346715  0.62599845  0.98911838  1
  Ca  Ca3  1  0.54669264  0.12497401  0.48273461  1
  Ca  Ca4  1  0.54867100  0.12401982  0.98232200  1
  Ca  Ca5  1  0.52471203  0.62481847  0.50170364  1
  Ca  Ca6  1  0.53015745  0.62481676  0.99981733  1
  Ca  Ca7  1  0.49335298  0.39468754  0.50772903  1
  Ca  Ca8  1  0.50243388  0.85509062  0.99748864  1
  Ca  Ca9  1  0.49792488  0.85444782  0.49743732  1
  Ca  Ca10  1  0.96670306  0.39131953  0.99729021  1
  Ca  Ca11  1  0.96137777  0.38953603  0.50336425  1
  Ca  Ca12  1  0.96629979  0.86466141  0.00700491  1
  Ca  Ca13  1  0.96544921  0.86567841  0.50976702  1
  Ca  Ca14  1  0.23561595  0.39926800  0.74176823  1
  Ca  Ca15  1  0.23200996  0.85737476  0.25925896  1
  Ca  Ca16  1  0.22858051  0.86146293  0.75394560  1
  Ca  Ca17  1  0.73606277  0.39527321  0.25409467  1
  Ca  Ca18  1  0.73101674  0.39245474  0.75243672  1
  Ca  Ca19  1  0.72869610  0.85908120  0.24676815  1
  Ca  Ca20  1  0.72937216  0.85935583  0.74661918  1
  Ca  Ca21  1  0.22685324  0.11306135  0.73930855  1
  Ca  Ca22  1  0.27647830  0.62888414  0.26997664  1
  Ca  Ca23  1  0.26972049  0.62859909  0.75129272  1
  Ca  Ca24  1  0.77139338  0.11777337  0.24757862  1
  Ca  Ca25  1  0.77776987  0.12294215  0.75507289  1
  Ca  Ca26  1  0.75677931  0.62386933  0.25140931  1
  Ca  Ca27  1  0.76812270  0.62431370  0.75546778  1
  Ti  Ti0  1  0.98610818  0.98553335  0.26121074  1
  Ti  Ti1  1  0.98660464  0.98966618  0.76002868  1
  Ti  Ti2  1  0.99978067  0.50374074  0.25116064  1
  Ti  Ti3  1  0.23253727  0.98386347  0.01125283  1
  Ti  Ti4  1  0.23186744  0.98983428  0.51596087  1
  Ti  Ti5  1  0.24869129  0.51696053  0.00790696  1
  Ti  Ti6  1  0.26619669  0.23812859  0.93461204  1
  Ti  Ti7  1  0.26860164  0.23492785  0.45525626  1
  Ti  Ti8  1  0.25190368  0.74678584  0.00532778  1
  Ti  Ti9  1  0.97721439  0.25733098  0.26791576  1
  Ti  Ti10  1  0.99544754  0.25798938  0.77109668  1
  Ti  Ti11  1  0.99986224  0.74301237  0.25061855  1
  Mn  Mn0  1  0.00142500  0.50314861  0.74841357  1
  Mn  Mn1  1  0.50599094  0.98897728  0.22998499  1
  Mn  Mn2  1  0.50679192  0.98857454  0.73381347  1
  Mn  Mn3  1  0.49907216  0.50568823  0.25353593  1
  Mn  Mn4  1  0.49572422  0.50650706  0.75029969  1
  Mn  Mn5  1  0.24702901  0.51188766  0.50515734  1
  Mn  Mn6  1  0.74416887  0.99549041  0.99145580  1
  Mn  Mn7  1  0.73912869  0.99521025  0.49213987  1
  Mn  Mn8  1  0.75084136  0.50344484  0.00095747  1
  Mn  Mn9  1  0.74704938  0.50409379  0.50428821  1
  Mn  Mn10  1  0.25007770  0.75034394  0.50694802  1
  Mn  Mn11  1  0.75148381  0.25213693  0.00273940  1
  Mn  Mn12  1  0.74230668  0.25332655  0.50509108  1
  Mn  Mn13  1  0.75192061  0.74706447  0.99858223  1
  Mn  Mn14  1  0.74998887  0.74643517  0.50064224  1
  Mn  Mn15  1  0.00125955  0.74813014  0.74989867  1
  Mn  Mn16  1  0.51826089  0.25782901  0.25584937  1
  Mn  Mn17  1  0.51485952  0.25599773  0.74895668  1
  Mn  Mn18  1  0.49986107  0.74639174  0.25410694  1
  Mn  Mn19  1  0.49967281  0.74574137  0.75308266  1
  O  O0  1  0.11016253  0.77789096  0.11049174  1
  O  O1  1  0.10838964  0.77762956  0.60710461  1
  O  O2  1  0.56694766  0.24885069  0.09491855  1
  O  O3  1  0.57910103  0.25859789  0.58075116  1
  O  O4  1  0.61105946  0.76174332  0.11301593  1
  O  O5  1  0.61276440  0.76181664  0.60995644  1
  O  O6  1  0.39633532  0.19555264  0.36136762  1
  O  O7  1  0.39715856  0.18529119  0.85727239  1
  O  O8  1  0.39617299  0.72889089  0.40243738  1
  O  O9  1  0.39121132  0.72741874  0.90759818  1
  O  O10  1  0.89948827  0.24357526  0.40789894  1
  O  O11  1  0.92970167  0.24053806  0.91727640  1
  O  O12  1  0.89736512  0.73028013  0.38951500  1
  O  O13  1  0.89561778  0.73359846  0.89276664  1
  O  O14  1  0.15574332  0.24928074  0.33158807  1
  O  O15  1  0.17789645  0.25377838  0.78998662  1
  O  O16  1  0.14865831  0.73724685  0.35471133  1
  O  O17  1  0.14811741  0.73403755  0.85949309  1
  O  O18  1  0.65376519  0.21994856  0.34198719  1
  O  O19  1  0.66224204  0.22749634  0.85114944  1
  O  O20  1  0.64423058  0.72650413  0.35713332  1
  O  O21  1  0.64516317  0.72599422  0.86111779  1
  O  O22  1  0.35595633  0.76691400  0.14999646  1
  O  O23  1  0.35266860  0.76989386  0.64795480  1
  O  O24  1  0.85487693  0.27685903  0.15313953  1
  O  O25  1  0.87579459  0.27099972  0.65286934  1
  O  O26  1  0.86232781  0.77077103  0.14248671  1
  O  O27  1  0.86125862  0.77122828  0.64243658  1
  O  O28  1  0.36052882  0.49334973  0.13966899  1
  O  O29  1  0.35055922  0.49476046  0.64404627  1
  O  O30  1  0.35951179  0.01794198  0.12009160  1
  O  O31  1  0.35173329  0.01285671  0.64105838  1
  O  O32  1  0.86452562  0.48234598  0.13851193  1
  O  O33  1  0.85998723  0.47910962  0.64245472  1
  O  O34  1  0.85920340  0.97692914  0.14551744  1
  O  O35  1  0.85781888  0.97978369  0.64741033  1
  O  O36  1  0.14484191  0.01641278  0.36963543  1
  O  O37  1  0.15791420  0.01358366  0.86607675  1
  O  O38  1  0.14366752  0.51912565  0.35599848  1
  O  O39  1  0.14575649  0.51880288  0.85763987  1
  O  O40  1  0.63252349  0.02976981  0.34620945  1
  O  O41  1  0.63890535  0.02892480  0.84475951  1
  O  O42  1  0.64099997  0.52138046  0.36202629  1
  O  O43  1  0.64089160  0.51994656  0.86272889  1
  O  O44  1  0.38607028  0.51602610  0.40030654  1
  O  O45  1  0.38292227  0.51963849  0.89973754  1
  O  O46  1  0.88484204  0.01266722  0.38983984  1
  O  O47  1  0.89174215  0.01355830  0.89516411  1
  O  O48  1  0.89424878  0.51597970  0.38577631  1
  O  O49  1  0.89592927  0.51603145  0.88844242  1
  O  O50  1  0.11227093  0.47487074  0.10374095  1
  O  O51  1  0.10579431  0.47719070  0.60263729  1
  O  O52  1  0.10797818  0.97830629  0.11701562  1
  O  O53  1  0.10613065  0.97421166  0.61577992  1
  O  O54  1  0.61878781  0.49208237  0.11987316  1
  O  O55  1  0.61089360  0.49029341  0.61310179  1
  O  O56  1  0.60029114  0.98504976  0.07937364  1
  O  O57  1  0.59375257  0.98495434  0.57876263  1
  O  O58  1  0.01003293  0.37690160  0.28346125  1
  O  O59  1  0.01874653  0.37685842  0.78814764  1
  O  O60  1  0.00854280  0.87454343  0.29645424  1
  O  O61  1  0.01244189  0.87795545  0.79816475  1
  O  O62  1  0.49487696  0.37965881  0.28089532  1
  O  O63  1  0.49172621  0.38165226  0.76897634  1
  O  O64  1  0.50681253  0.86836373  0.28402994  1
  O  O65  1  0.50702456  0.86740618  0.78607773  1
  O  O66  1  0.48777436  0.62638481  0.21500587  1
  O  O67  1  0.48535890  0.62679878  0.71435005  1
  O  O68  1  0.99426086  0.13501950  0.22415451  1
  O  O69  1  0.00604883  0.12632049  0.73521842  1
  O  O70  1  0.99626587  0.62572245  0.20987238  1
  O  O71  1  0.99261910  0.62289882  0.71584248  1
  O  O72  1  0.19403570  0.15633627  0.02272435  1
  O  O73  1  0.21918573  0.14157460  0.53907890  1
  O  O74  1  0.22605310  0.62881602  0.04894454  1
  O  O75  1  0.22716680  0.63364466  0.53872871  1
  O  O76  1  0.75819463  0.12567745  0.03604552  1
  O  O77  1  0.74958282  0.12981881  0.54191597  1
  O  O78  1  0.75603633  0.62473276  0.03702670  1
  O  O79  1  0.75245734  0.62453901  0.53929021  1
  O  O80  1  0.29287236  0.33535923  0.52802757  1
  O  O81  1  0.28419793  0.33864423  0.00913189  1
  O  O82  1  0.28065026  0.88463419  0.46780488  1
  O  O83  1  0.27717472  0.87735342  0.96916030  1
  O  O84  1  0.74685475  0.37753063  0.46814009  1
  O  O85  1  0.74905934  0.37733422  0.96544296  1
  O  O86  1  0.74964474  0.86902508  0.46173855  1
  O  O87  1  0.74909767  0.87151886  0.96047699  1
loop_
_geom_bond_atom_site_label_1
_geom_bond_atom_site_label_2
_geom_bond_distance
_geom_bond_site_symmetry_2
Ca0 O47 2.274598 1_554
Ca0 O11 2.319758 1_554
Ca0 O68 2.354257 1_555
Ca0 O72 2.370257 1_655
Ca0 O76 2.544810 1_555
Ca0 O52 2.768401 1_645
Ca0 O37 2.954620 1_654
Ca0 O34 2.977143 1_545
Ca0 O69 3.040448 1_654
Ca1 O71 2.329914 1_455
Ca1 O12 2.392564 1_455
Ca1 O75 2.428811 1_555
Ca1 O48 2.488264 1_455
Ca1 O51 2.787234 1_555
Ca1 O38 2.790484 1_555
Ca1 O1 2.846054 1_555
Ca1 O79 2.854043 1_455
Ca1 O16 2.858900 1_555
Ca2 O13 2.314669 1_455
Ca2 O49 2.355304 1_455
Ca2 O70 2.420724 1_456
Ca2 O74 2.524048 1_556
Ca2 O39 2.736084 1_555
Ca2 O17 2.737843 1_555
Ca2 O78 2.782815 1_456
Ca2 O50 2.937707 1_556
Ca2 O0 2.963427 1_556
Ca2 O71 2.993791 1_455
Ca3 O77 2.314278 1_555
Ca3 O40 2.333238 1_555
Ca3 O6 2.381227 1_555
Ca3 O3 2.384362 1_555
Ca3 O18 2.458923 1_555
Ca3 O57 2.493048 1_545
Ca4 O2 2.326519 1_556
Ca4 O7 2.347862 1_555
Ca4 O41 2.360233 1_555
Ca4 O76 2.369075 1_556
Ca4 O56 2.493928 1_546
Ca4 O19 2.514375 1_555
Ca5 O67 2.377312 1_555
Ca5 O8 2.413639 1_555
Ca5 O44 2.531569 1_555
Ca5 O79 2.532384 1_555
Ca5 O42 2.593515 1_555
Ca5 O55 2.615332 1_555
Ca5 O20 2.617623 1_555
Ca5 O5 2.633612 1_555
Ca6 O66 2.411449 1_556
Ca6 O9 2.434571 1_555
Ca6 O78 2.511505 1_556
Ca6 O45 2.545415 1_555
Ca6 O21 2.548287 1_555
Ca6 O43 2.560474 1_555
Ca6 O4 2.630522 1_556
Ca6 O54 2.647434 1_556
Ca7 O55 2.280047 1_555
Ca7 O80 2.405858 1_555
Ca7 O3 2.470583 1_555
Ca7 O62 2.496383 1_555
Ca7 O44 2.527589 1_555
Ca7 O29 2.700951 1_555
Ca7 O84 2.845535 1_555
Ca7 O63 2.868983 1_555
Ca7 O42 3.036995 1_555
Ca8 O4 2.268014 1_556
Ca8 O65 2.324975 1_555
Ca8 O56 2.468638 1_556
Ca8 O83 2.518664 1_555
Ca8 O9 2.537833 1_555
Ca8 O22 2.718516 1_556
Ca8 O87 2.763160 1_555
Ca9 O5 2.279480 1_555
Ca9 O64 2.351304 1_555
Ca9 O82 2.455568 1_555
Ca9 O57 2.464191 1_555
Ca9 O8 2.486150 1_555
Ca9 O23 2.668139 1_555
Ca9 O86 2.813287 1_555
Ca10 O50 2.359724 1_656
Ca10 O59 2.383071 1_655
Ca10 O32 2.407091 1_556
Ca10 O49 2.419567 1_555
Ca10 O85 2.423060 1_555
Ca10 O11 2.558593 1_555
Ca10 O24 2.779439 1_556
Ca11 O51 2.351401 1_655
Ca11 O33 2.374038 1_555
Ca11 O84 2.391696 1_555
Ca11 O48 2.477239 1_555
Ca11 O58 2.485591 1_655
Ca11 O10 2.607160 1_555
Ca11 O25 2.661559 1_555
Ca12 O61 2.361301 1_654
Ca12 O0 2.367600 1_655
Ca12 O26 2.395467 1_555
Ca12 O87 2.437583 1_554
Ca12 O13 2.525636 1_554
Ca12 O34 2.627633 1_555
Ca12 O52 2.643803 1_655
Ca12 O47 2.763809 1_564
Ca13 O1 2.342096 1_655
Ca13 O27 2.382890 1_555
Ca13 O60 2.396598 1_655
Ca13 O86 2.423698 1_555
Ca13 O53 2.564127 1_655
Ca13 O12 2.605854 1_555
Ca13 O35 2.644418 1_555
Ca13 O46 2.798603 1_565
Ca14 O29 2.243705 1_555
Ca14 O51 2.407874 1_555
Ca14 O15 2.433383 1_555
Ca14 O59 2.473123 1_555
Ca14 O39 2.489336 1_555
Ca14 O80 2.637354 1_555
Ca14 O63 2.843518 1_555
Ca14 O45 3.013837 1_555
Ca14 O81 3.116409 1_556
Ca15 O22 2.324317 1_555
Ca15 O16 2.350394 1_555
Ca15 O82 2.375330 1_555
Ca15 O0 2.434040 1_555
Ca15 O60 2.516223 1_555
Ca15 O52 2.801868 1_555
Ca15 O36 2.952633 1_565
Ca15 O64 3.035516 1_555
Ca16 O23 2.317454 1_555
Ca16 O83 2.420297 1_555
Ca16 O1 2.446491 1_555
Ca16 O61 2.451404 1_555
Ca16 O17 2.481775 1_555
Ca16 O53 2.682247 1_555
Ca16 O37 2.811318 1_565
Ca16 O31 3.011509 1_565
Ca16 O65 3.078948 1_555
Ca17 O32 2.350520 1_555
Ca17 O84 2.361575 1_555
Ca17 O54 2.467871 1_555
Ca17 O24 2.546835 1_555
Ca17 O42 2.549747 1_555
Ca17 O62 2.686110 1_555
Ca17 O48 2.932594 1_555
Ca18 O33 2.316987 1_555
Ca18 O85 2.349716 1_555
Ca18 O55 2.526979 1_555
Ca18 O43 2.556781 1_555
Ca18 O63 2.647769 1_555
Ca18 O25 2.734811 1_555
Ca18 O19 2.913381 1_555
Ca19 O26 2.341851 1_555
Ca19 O86 2.366803 1_555
Ca19 O4 2.466535 1_555
Ca19 O64 2.488321 1_555
Ca19 O20 2.587954 1_555
Ca19 O34 2.600635 1_555
Ca20 O27 2.327339 1_555
Ca20 O87 2.356279 1_555
Ca20 O5 2.481544 1_555
Ca20 O65 2.496695 1_555
Ca20 O35 2.607592 1_555
Ca20 O21 2.618513 1_555
Ca21 O37 2.231248 1_555
Ca21 O73 2.238226 1_555
Ca21 O15 2.351002 1_555
Ca21 O31 2.369144 1_555
Ca21 O69 2.439508 1_555
Ca21 O7 2.523234 1_555
Ca21 O53 2.877882 1_545
Ca22 O16 2.413069 1_555
Ca22 O66 2.413515 1_555
Ca22 O38 2.456154 1_555
Ca22 O74 2.473586 1_555
Ca22 O8 2.496167 1_555
Ca22 O44 2.568412 1_555
Ca22 O22 2.688914 1_555
Ca22 O28 2.741595 1_555
Ca23 O75 2.367544 1_555
Ca23 O67 2.415217 1_555
Ca23 O17 2.456235 1_555
Ca23 O39 2.497480 1_555
Ca23 O29 2.582517 1_555
Ca23 O9 2.652818 1_555
Ca23 O23 2.659631 1_555
Ca23 O45 2.659677 1_555
Ca24 O76 2.322005 1_555
Ca24 O18 2.324580 1_555
Ca24 O40 2.336715 1_555
Ca24 O68 2.484508 1_555
Ca24 O46 2.581365 1_555
Ca24 O34 2.676187 1_545
Ca24 O24 2.861996 1_555
Ca24 O10 2.979714 1_555
Ca25 O19 2.346165 1_555
Ca25 O41 2.349936 1_555
Ca25 O77 2.351904 1_555
Ca25 O69 2.526070 1_655
Ca25 O47 2.614023 1_555
Ca25 O35 2.702823 1_545
Ca25 O25 2.804042 1_555
Ca26 O78 2.348038 1_555
Ca26 O20 2.358037 1_555
Ca26 O42 2.393308 1_555
Ca26 O70 2.683054 1_555
Ca26 O48 2.696768 1_555
Ca26 O12 2.716550 1_555
Ca26 O26 2.852842 1_555
Ca26 O54 2.928837 1_555
Ca27 O79 2.370846 1_555
Ca27 O21 2.411134 1_555
Ca27 O43 2.464767 1_555
Ca27 O71 2.516726 1_555
Ca27 O49 2.635069 1_555
Ca27 O13 2.663057 1_555
Ca27 O33 2.801852 1_555
Ca27 O27 2.819337 1_555
Mn0 O71 1.920189 1_455
Mn0 O49 1.952236 1_455
Mn0 O33 1.959727 1_455
Mn0 O39 1.985098 1_555
Mn0 O51 2.027390 1_555
Mn0 O59 2.043114 1_555
Mn1 O56 1.966574 1_555
Mn1 O40 1.974494 1_565
Mn1 O64 1.987708 1_555
Mn1 O30 2.046472 1_565
Mn2 O57 1.965997 1_555
Mn2 O41 1.980042 1_565
Mn2 O65 1.990356 1_555
Mn2 O31 2.007564 1_565
Mn3 O66 1.949342 1_555
Mn3 O42 1.959607 1_555
Mn3 O28 1.960675 1_555
Mn3 O54 2.000206 1_555
Mn3 O62 2.006004 1_555
Mn3 O44 2.057913 1_555
Mn4 O67 1.936615 1_555
Mn4 O29 1.966911 1_555
Mn4 O63 1.975647 1_555
Mn4 O55 2.001310 1_555
Mn4 O43 2.009239 1_555
Mn4 O45 2.083854 1_555
Mn5 O29 1.903136 1_555
Mn5 O44 1.931234 1_555
Mn5 O75 1.965412 1_555
Mn5 O38 1.976624 1_555
Mn5 O51 1.976729 1_555
Mn6 O56 1.875139 1_556
Mn6 O47 1.972416 1_565
Mn6 O87 1.981763 1_555
Mn6 O41 2.033355 1_565
Mn6 O76 2.110963 1_566
Mn6 O34 2.111316 1_556
Mn7 O57 1.881581 1_555
Mn7 O46 1.991348 1_565
Mn7 O86 2.018075 1_555
Mn7 O40 2.039783 1_565
Mn7 O35 2.139180 1_555
Mn7 O77 2.189913 1_565
Mn8 O43 1.938334 1_554
Mn8 O78 1.949951 1_555
Mn8 O32 1.969142 1_555
Mn8 O54 1.977074 1_555
Mn8 O85 2.022721 1_554
Mn8 O49 2.044055 1_554
Mn9 O79 1.934666 1_555
Mn9 O55 1.943346 1_555
Mn9 O42 1.948811 1_555
Mn9 O33 1.980468 1_555
Mn9 O84 2.031107 1_555
Mn9 O48 2.102398 1_555
Mn10 O75 1.885535 1_555
Mn10 O23 1.920152 1_555
Mn10 O1 1.972521 1_555
Mn10 O16 1.999334 1_555
Mn10 O8 2.021014 1_555
Mn10 O82 2.181799 1_555
Mn11 O19 1.951494 1_554
Mn11 O85 2.011940 1_554
Mn11 O24 2.021546 1_555
Mn11 O76 2.024339 1_555
Mn11 O11 2.197538 1_554
Mn11 O2 2.285297 1_555
Mn12 O77 1.986338 1_555
Mn12 O3 1.994303 1_555
Mn12 O84 1.996267 1_555
Mn12 O10 2.054558 1_555
Mn12 O18 2.085366 1_555
Mn12 O25 2.182494 1_555
Mn13 O21 1.920493 1_555
Mn13 O78 1.970789 1_556
Mn13 O13 1.990398 1_555
Mn13 O87 2.002377 1_555
Mn13 O26 2.006244 1_556
Mn13 O4 2.025971 1_556
Mn14 O5 1.960836 1_555
Mn14 O20 1.962829 1_555
Mn14 O79 1.964227 1_555
Mn14 O86 1.975294 1_555
Mn14 O27 1.997301 1_555
Mn14 O12 2.062890 1_555
Mn15 O27 1.956432 1_455
Mn15 O13 1.979378 1_455
Mn15 O71 2.007649 1_455
Mn15 O17 2.008022 1_555
Mn15 O1 2.028433 1_555
Mn15 O61 2.113362 1_555
Mn16 O18 1.850294 1_555
Mn16 O2 1.857650 1_555
Mn16 O62 1.955935 1_555
Mn16 O6 2.034842 1_555
Mn17 O3 1.986051 1_555
Mn17 O19 2.005591 1_555
Mn17 O63 2.007701 1_555
Mn17 O7 2.089328 1_555
Mn18 O66 1.940369 1_555
Mn18 O64 1.948524 1_555
Mn18 O20 1.957613 1_555
Mn18 O22 1.961867 1_555
Mn18 O4 2.002948 1_555
Mn18 O8 2.020757 1_555
Mn19 O67 1.924818 1_555
Mn19 O65 1.949870 1_555
Mn19 O21 1.998298 1_555
Mn19 O23 2.005619 1_555
Mn19 O5 2.034770 1_555
Mn19 O9 2.108083 1_555
O0 Ti8 2.018797 1_555
O0 Ti11 2.047592 1_455
O2 Sr1 2.558084 1_554
O6 Ti7 1.865852 1_555
O6 Sr3 2.624417 1_555
O7 Ti6 1.882752 1_555
O9 Ti8 1.912049 1_556
O10 Ti9 1.782228 1_555
O10 Sr0 2.462566 1_555
O11 Ti10 1.789790 1_555
O12 Ti11 1.920641 1_555
O14 Ti7 1.834998 1_555
O14 Ti9 2.076870 1_455
O14 Sr3 2.470787 1_555
O14 Sr2 2.605291 1_555
O15 Ti6 1.859543 1_555
O15 Ti10 2.016067 1_455
O16 Ti11 1.980078 1_455
O17 Ti8 1.956102 1_556
O22 Ti8 1.962653 1_555
O24 Ti9 1.851213 1_555
O25 Ti10 1.841385 1_555
O25 Sr0 3.134965 1_555
O26 Ti11 1.955064 1_555
O28 Ti5 1.916282 1_555
O28 Sr2 2.391552 1_555
O28 Sr1 2.749724 1_554
O30 Ti3 1.895592 1_545
O30 Sr3 2.495618 1_555
O31 Ti4 1.917704 1_545
O32 Ti2 1.943877 1_555
O34 Ti0 1.872642 1_555
O35 Ti1 1.867412 1_555
O35 Sr0 3.027145 1_565
O36 Ti4 1.898826 1_545
O36 Ti0 2.147930 1_445
O36 Sr3 2.384977 1_555
O36 Sr0 2.837106 1_455
O37 Ti3 1.837018 1_546
O37 Ti1 2.226510 1_445
O38 Ti2 1.952804 1_455
O38 Sr2 2.559659 1_555
O39 Ti5 1.980712 1_556
O43 Sr1 2.962355 1_555
O44 Sr2 2.957544 1_555
O45 Ti5 1.911263 1_556
O45 Sr1 2.649172 1_555
O46 Ti0 1.863874 1_545
O46 Sr0 2.405016 1_555
O47 Ti1 1.866823 1_545
O48 Ti2 1.904482 1_555
O50 Ti5 1.960419 1_555
O50 Ti2 2.104327 1_455
O50 Sr2 2.517773 1_555
O52 Ti3 1.813046 1_555
O52 Ti0 2.094681 1_455
O52 Sr3 2.834849 1_565
O53 Ti4 1.795503 1_555
O53 Ti1 2.089904 1_455
O53 Sr0 2.851477 1_465
O54 Sr1 2.428000 1_554
O58 Ti9 1.921543 1_455
O58 Ti2 2.030124 1_455
O58 Sr2 2.612589 1_555
O59 Ti10 1.895917 1_455
O60 Ti0 1.805503 1_455
O60 Ti11 2.131738 1_455
O61 Ti1 1.828820 1_455
O62 Sr2 2.783377 1_555
O62 Sr1 3.095452 1_554
O63 Sr1 2.522602 1_555
O68 Ti9 1.994639 1_555
O68 Ti0 2.388399 1_545
O68 Sr3 2.567420 1_655
O68 Sr0 3.148977 1_555
O69 Ti10 2.113596 1_455
O69 Ti1 2.177440 1_445
O69 Sr0 2.466934 1_455
O70 Ti11 1.899512 1_555
O70 Ti2 1.972130 1_555
O72 Ti6 1.798813 1_554
O72 Sr3 2.385045 1_555
O73 Ti7 1.818129 1_555
O73 Ti4 2.406585 1_545
O73 Sr0 2.569462 1_455
O74 Ti5 1.836477 1_555
O74 Ti8 1.937576 1_555
O77 Sr0 2.670629 1_555
O80 Ti7 1.787562 1_555
O80 Sr2 3.189722 1_555
O81 Ti6 1.789236 1_554
O81 Sr1 2.533153 1_554
O81 Sr2 2.837233 1_555
O82 Ti4 1.824277 1_555
O83 Ti3 1.811400 1_556
O83 Ti8 2.110336 1_556
O85 Sr1 2.757002 1_555
