# generated using pymatgen
data_BaMg30BiO32
_symmetry_space_group_name_H-M   'P 1'
_cell_length_a   8.76459978
_cell_length_b   8.77334833
_cell_length_c   8.77334833
_cell_angle_alpha   90.00000000
_cell_angle_beta   90.00000000
_cell_angle_gamma   90.00000000
_symmetry_Int_Tables_number   1
_chemical_formula_structural   BaMg30BiO32
_chemical_formula_sum   'Ba1 Mg30 Bi1 O32'
_cell_volume   674.62562707
_cell_formula_units_Z   1
loop_
 _symmetry_equiv_pos_site_id
 _symmetry_equiv_pos_as_xyz
  1  'x, y, z'
loop_
 _atom_site_type_symbol
 _atom_site_label
 _atom_site_symmetry_multiplicity
 _atom_site_fract_x
 _atom_site_fract_y
 _atom_site_fract_z
 _atom_site_occupancy
  Ba  Ba0  1  -0.00000000  -0.00000000  0.00000000  1
  Mg  Mg0  1  -0.00000000  -0.00000000  0.50000000  1
  Mg  Mg1  1  -0.00000000  0.50000000  0.00000000  1
  Mg  Mg2  1  0.50000000  -0.00000000  0.00000000  1
  Mg  Mg3  1  0.50000000  -0.00000000  0.50000000  1
  Mg  Mg4  1  0.50000000  0.50000000  0.00000000  1
  Mg  Mg5  1  0.50000000  0.50000000  0.50000000  1
  Mg  Mg6  1  -0.00000000  0.25023058  0.25023058  1
  Mg  Mg7  1  -0.00000000  0.25023058  0.74976942  1
  Mg  Mg8  1  -0.00000000  0.74976942  0.25023058  1
  Mg  Mg9  1  -0.00000000  0.74976942  0.74976942  1
  Mg  Mg10  1  0.50000000  0.24974705  0.24974705  1
  Mg  Mg11  1  0.50000000  0.24974705  0.75025295  1
  Mg  Mg12  1  0.50000000  0.75025295  0.24974705  1
  Mg  Mg13  1  0.50000000  0.75025295  0.75025295  1
  Mg  Mg14  1  0.25870557  -0.00000000  0.25675450  1
  Mg  Mg15  1  0.25870557  -0.00000000  0.74324550  1
  Mg  Mg16  1  0.25809141  0.50000000  0.24328093  1
  Mg  Mg17  1  0.25809141  0.50000000  0.75671907  1
  Mg  Mg18  1  0.74129443  -0.00000000  0.25675450  1
  Mg  Mg19  1  0.74129443  -0.00000000  0.74324550  1
  Mg  Mg20  1  0.74190859  0.50000000  0.24328093  1
  Mg  Mg21  1  0.74190859  0.50000000  0.75671907  1
  Mg  Mg22  1  0.25870557  0.25675450  0.00000000  1
  Mg  Mg23  1  0.25809141  0.24328093  0.50000000  1
  Mg  Mg24  1  0.25870557  0.74324550  0.00000000  1
  Mg  Mg25  1  0.25809141  0.75671907  0.50000000  1
  Mg  Mg26  1  0.74129443  0.25675450  0.00000000  1
  Mg  Mg27  1  0.74190859  0.24328093  0.50000000  1
  Mg  Mg28  1  0.74129443  0.74324550  0.00000000  1
  Mg  Mg29  1  0.74190859  0.75671907  0.50000000  1
  Bi  Bi0  1  -0.00000000  0.50000000  0.50000000  1
  O  O0  1  0.27882327  -0.00000000  0.00000000  1
  O  O1  1  0.25868431  -0.00000000  0.50000000  1
  O  O2  1  0.25868431  0.50000000  0.00000000  1
  O  O3  1  0.26838752  0.50000000  0.50000000  1
  O  O4  1  0.72117673  -0.00000000  0.00000000  1
  O  O5  1  0.74131569  -0.00000000  0.50000000  1
  O  O6  1  0.74131569  0.50000000  0.00000000  1
  O  O7  1  0.73161248  0.50000000  0.50000000  1
  O  O8  1  0.24897871  0.25043590  0.25043590  1
  O  O9  1  0.24897871  0.25043590  0.74956410  1
  O  O10  1  0.24897871  0.74956410  0.25043590  1
  O  O11  1  0.24897871  0.74956410  0.74956410  1
  O  O12  1  0.75102129  0.25043590  0.25043590  1
  O  O13  1  0.75102129  0.25043590  0.74956410  1
  O  O14  1  0.75102129  0.74956410  0.25043590  1
  O  O15  1  0.75102129  0.74956410  0.74956410  1
  O  O16  1  -0.00000000  -0.00000000  0.27719938  1
  O  O17  1  -0.00000000  -0.00000000  0.72280062  1
  O  O18  1  -0.00000000  0.50000000  0.23602166  1
  O  O19  1  -0.00000000  0.50000000  0.76397834  1
  O  O20  1  0.50000000  -0.00000000  0.25592057  1
  O  O21  1  0.50000000  -0.00000000  0.74407943  1
  O  O22  1  0.50000000  0.50000000  0.24871958  1
  O  O23  1  0.50000000  0.50000000  0.75128042  1
  O  O24  1  -0.00000000  0.27719938  0.00000000  1
  O  O25  1  -0.00000000  0.23602166  0.50000000  1
  O  O26  1  -0.00000000  0.72280062  0.00000000  1
  O  O27  1  -0.00000000  0.76397834  0.50000000  1
  O  O28  1  0.50000000  0.25592057  0.00000000  1
  O  O29  1  0.50000000  0.24871958  0.50000000  1
  O  O30  1  0.50000000  0.74407943  0.00000000  1
  O  O31  1  0.50000000  0.75128042  0.50000000  1
loop_
_geom_bond_atom_site_label_1
_geom_bond_atom_site_label_2
_geom_bond_distance
_geom_bond_site_symmetry_2
Ba0 O17 2.431967 1_554
Ba0 O26 2.431967 1_545
Ba0 O24 2.431967 1_555
Ba0 O16 2.431967 1_555
Ba0 O4 2.443774 1_455
Ba0 O0 2.443774 1_555
Mg0 O17 1.954707 1_555
Mg0 O16 1.954707 1_555
Mg0 O25 2.070700 1_555
Mg0 O27 2.070700 1_545
Mg0 O1 2.267264 1_555
Mg0 O5 2.267264 1_455
Mg1 O24 1.954707 1_555
Mg1 O26 1.954707 1_555
Mg1 O18 2.070700 1_555
Mg1 O19 2.070700 1_554
Mg1 O2 2.267264 1_555
Mg1 O6 2.267264 1_455
Mg2 O0 1.938526 1_555
Mg2 O4 1.938526 1_555
Mg2 O21 2.245280 1_554
Mg2 O20 2.245280 1_555
Mg2 O28 2.245280 1_555
Mg2 O30 2.245280 1_545
Mg3 O5 2.115035 1_555
Mg3 O1 2.115035 1_555
Mg3 O21 2.141394 1_555
Mg3 O20 2.141394 1_555
Mg3 O29 2.182104 1_555
Mg3 O31 2.182104 1_545
Mg4 O6 2.115035 1_555
Mg4 O2 2.115035 1_555
Mg4 O30 2.141394 1_555
Mg4 O28 2.141394 1_555
Mg4 O22 2.182104 1_555
Mg4 O23 2.182104 1_554
Mg5 O3 2.029991 1_555
Mg5 O7 2.029991 1_555
Mg5 O31 2.204571 1_555
Mg5 O23 2.204571 1_555
Mg5 O22 2.204571 1_555
Mg5 O29 2.204571 1_555
Mg6 O12 2.182200 1_455
Mg6 O8 2.182200 1_555
Mg6 O25 2.194857 1_555
Mg6 O18 2.194857 1_555
Mg6 O24 2.208073 1_555
Mg6 O16 2.208073 1_555
Mg7 O13 2.182200 1_455
Mg7 O9 2.182200 1_555
Mg7 O25 2.194857 1_555
Mg7 O19 2.194857 1_555
Mg7 O24 2.208073 1_556
Mg7 O17 2.208073 1_555
Mg8 O14 2.182200 1_455
Mg8 O10 2.182200 1_555
Mg8 O27 2.194857 1_555
Mg8 O18 2.194857 1_555
Mg8 O26 2.208073 1_555
Mg8 O16 2.208073 1_565
Mg9 O11 2.182200 1_555
Mg9 O15 2.182200 1_455
Mg9 O27 2.194857 1_555
Mg9 O19 2.194857 1_555
Mg9 O26 2.208073 1_556
Mg9 O17 2.208073 1_565
Mg10 O20 2.191787 1_555
Mg10 O28 2.191787 1_555
Mg10 O22 2.195575 1_555
Mg10 O29 2.195575 1_555
Mg10 O12 2.200118 1_555
Mg10 O8 2.200118 1_555
Mg11 O28 2.191787 1_556
Mg11 O21 2.191787 1_555
Mg11 O23 2.195575 1_555
Mg11 O29 2.195575 1_555
Mg11 O9 2.200118 1_555
Mg11 O13 2.200118 1_555
Mg12 O20 2.191787 1_565
Mg12 O30 2.191787 1_555
Mg12 O22 2.195575 1_555
Mg12 O31 2.195575 1_555
Mg12 O14 2.200118 1_555
Mg12 O10 2.200118 1_555
Mg13 O21 2.191787 1_565
Mg13 O30 2.191787 1_556
Mg13 O23 2.195575 1_555
Mg13 O31 2.195575 1_555
Mg13 O11 2.200118 1_555
Mg13 O15 2.200118 1_555
Mg14 O20 2.114862 1_555
Mg14 O1 2.134078 1_555
Mg14 O8 2.199513 1_555
Mg14 O10 2.199513 1_545
Mg14 O0 2.259487 1_555
Mg14 O16 2.274534 1_555
Mg15 O21 2.114862 1_555
Mg15 O1 2.134078 1_555
Mg15 O9 2.199513 1_555
Mg15 O11 2.199513 1_545
Mg15 O0 2.259487 1_556
Mg15 O17 2.274534 1_555
Mg16 O22 2.120769 1_555
Mg16 O2 2.134395 1_555
Mg16 O10 2.191868 1_555
Mg16 O8 2.191868 1_555
Mg16 O3 2.254093 1_555
Mg16 O18 2.262964 1_555
Mg17 O23 2.120769 1_555
Mg17 O2 2.134395 1_556
Mg17 O9 2.191868 1_555
Mg17 O11 2.191868 1_555
Mg17 O3 2.254093 1_555
Mg17 O19 2.262964 1_555
Mg18 O20 2.114862 1_555
Mg18 O5 2.134078 1_555
Mg18 O12 2.199513 1_555
Mg18 O14 2.199513 1_545
Mg18 O4 2.259487 1_555
Mg18 O16 2.274534 1_655
Mg19 O21 2.114862 1_555
Mg19 O5 2.134078 1_555
Mg19 O13 2.199513 1_555
Mg19 O15 2.199513 1_545
Mg19 O4 2.259487 1_556
Mg19 O17 2.274534 1_655
Mg20 O22 2.120769 1_555
Mg20 O6 2.134395 1_555
Mg20 O12 2.191868 1_555
Mg20 O14 2.191868 1_555
Mg20 O7 2.254093 1_555
Mg20 O18 2.262964 1_655
Mg21 O23 2.120769 1_555
Mg21 O6 2.134395 1_556
Mg21 O15 2.191868 1_555
Mg21 O13 2.191868 1_555
Mg21 O7 2.254093 1_555
Mg21 O19 2.262964 1_655
Mg22 O28 2.114862 1_555
Mg22 O2 2.134078 1_555
Mg22 O8 2.199513 1_555
Mg22 O9 2.199513 1_554
Mg22 O0 2.259487 1_555
Mg22 O24 2.274534 1_555
Mg23 O29 2.120769 1_555
Mg23 O1 2.134395 1_555
Mg23 O9 2.191868 1_555
Mg23 O8 2.191868 1_555
Mg23 O3 2.254093 1_555
Mg23 O25 2.262964 1_555
Mg24 O30 2.114862 1_555
Mg24 O2 2.134078 1_555
Mg24 O10 2.199513 1_555
Mg24 O11 2.199513 1_554
Mg24 O0 2.259487 1_565
Mg24 O26 2.274534 1_555
Mg25 O31 2.120769 1_555
Mg25 O1 2.134395 1_565
Mg25 O11 2.191868 1_555
Mg25 O10 2.191868 1_555
Mg25 O3 2.254093 1_555
Mg25 O27 2.262964 1_555
Mg26 O28 2.114862 1_555
Mg26 O6 2.134078 1_555
Mg26 O12 2.199513 1_555
Mg26 O13 2.199513 1_554
Mg26 O4 2.259487 1_555
Mg26 O24 2.274534 1_655
Mg27 O29 2.120769 1_555
Mg27 O5 2.134395 1_555
Mg27 O13 2.191868 1_555
Mg27 O12 2.191868 1_555
Mg27 O7 2.254093 1_555
Mg27 O25 2.262964 1_655
Mg28 O30 2.114862 1_555
Mg28 O6 2.134078 1_555
Mg28 O14 2.199513 1_555
Mg28 O15 2.199513 1_554
Mg28 O4 2.259487 1_565
Mg28 O26 2.274534 1_655
Mg29 O31 2.120769 1_555
Mg29 O5 2.134395 1_565
Mg29 O15 2.191868 1_555
Mg29 O14 2.191868 1_555
Mg29 O7 2.254093 1_555
Mg29 O27 2.262964 1_655
Bi0 O27 2.315974 1_555
Bi0 O25 2.315974 1_555
Bi0 O18 2.315974 1_555
Bi0 O19 2.315974 1_555
Bi0 O3 2.352309 1_555
Bi0 O7 2.352309 1_455
