# generated using pymatgen
data_RbLaMg14
_symmetry_space_group_name_H-M   'P 1'
_cell_length_a   6.72475466
_cell_length_b   6.66466315
_cell_length_c   10.72865893
_cell_angle_alpha   90.00000000
_cell_angle_beta   90.00000000
_cell_angle_gamma   119.70484748
_symmetry_Int_Tables_number   1
_chemical_formula_structural   RbLaMg14
_chemical_formula_sum   'Rb1 La1 Mg14'
_cell_volume   417.65213815
_cell_formula_units_Z   1
loop_
 _symmetry_equiv_pos_site_id
 _symmetry_equiv_pos_as_xyz
  1  'x, y, z'
loop_
 _atom_site_type_symbol
 _atom_site_label
 _atom_site_symmetry_multiplicity
 _atom_site_fract_x
 _atom_site_fract_y
 _atom_site_fract_z
 _atom_site_occupancy
  Rb  Rb0  1  0.16885090  0.83442495  0.12500000  1
  La  La0  1  0.17333856  0.33666878  0.12500000  1
  Mg  Mg0  1  0.16231943  0.33115921  0.62500000  1
  Mg  Mg1  1  0.16451679  0.83225789  0.62500000  1
  Mg  Mg2  1  0.66524238  0.32956838  0.12500000  1
  Mg  Mg3  1  0.66832149  0.33361666  0.62500000  1
  Mg  Mg4  1  0.66524238  0.83567300  0.12500000  1
  Mg  Mg5  1  0.66832149  0.83470382  0.62500000  1
  Mg  Mg6  1  0.34079791  0.17656213  0.39387427  1
  Mg  Mg7  1  0.34079791  0.17656213  0.85612573  1
  Mg  Mg8  1  0.34079791  0.66423678  0.39387427  1
  Mg  Mg9  1  0.34079791  0.66423678  0.85612573  1
  Mg  Mg10  1  0.82964296  0.16482198  0.37946338  1
  Mg  Mg11  1  0.82964296  0.16482198  0.87053662  1
  Mg  Mg12  1  0.82068451  0.66034275  0.38482794  1
  Mg  Mg13  1  0.82068451  0.66034275  0.86517206  1
loop_
_geom_bond_atom_site_label_1
_geom_bond_atom_site_label_2
_geom_bond_distance
_geom_bond_site_symmetry_2
La0 Mg4 3.331635 1_555
La0 Mg2 3.331636 1_555
La0 Rb0 3.332435 1_545
La0 Rb0 3.332435 1_555
La0 Mg11 3.388718 1_454
La0 Mg10 3.388718 1_455
La0 Mg4 3.393621 1_445
La0 Mg2 3.393622 1_455
La0 Mg7 3.452380 1_554
La0 Mg6 3.452380 1_555
La0 Mg9 3.452386 1_554
La0 Mg8 3.452386 1_555
Mg0 Mg7 3.142686 1_555
Mg0 Mg6 3.142686 1_555
Mg0 Mg8 3.142693 1_555
Mg0 Mg9 3.142693 1_555
Mg0 Mg10 3.273435 1_455
Mg0 Mg11 3.273435 1_455
Mg0 Mg5 3.330161 1_445
Mg0 Mg3 3.330161 1_455
Mg0 Mg1 3.332356 1_555
Mg0 Mg1 3.332356 1_545
Mg0 Mg5 3.394653 1_555
Mg0 Mg3 3.394654 1_555
Mg1 Mg8 3.181762 1_555
Mg1 Mg9 3.181762 1_555
Mg1 Mg7 3.181770 1_565
Mg1 Mg6 3.181770 1_565
Mg1 Mg13 3.266947 1_455
Mg1 Mg12 3.266947 1_455
Mg1 Mg3 3.344899 1_455
Mg1 Mg5 3.344899 1_455
Mg1 Mg3 3.379915 1_565
Mg1 Mg5 3.379915 1_555
Mg2 Mg4 3.291646 1_545
Mg2 Rb0 3.333997 1_545
Mg2 Mg4 3.373017 1_555
Mg2 Rb0 3.390773 1_655
Mg2 Mg7 3.452018 1_554
Mg2 Mg6 3.452018 1_555
Mg3 Mg6 3.132194 1_555
Mg3 Mg7 3.132194 1_555
Mg3 Mg5 3.325086 1_545
Mg3 Mg5 3.339577 1_555
Mg4 Rb0 3.333997 1_555
Mg4 Rb0 3.390773 1_655
Mg4 Mg8 3.452018 1_555
Mg4 Mg9 3.452018 1_554
Mg5 Mg8 3.132194 1_555
Mg5 Mg9 3.132194 1_555
Mg6 Mg8 3.250187 1_555
Mg6 Mg8 3.414476 1_545
Mg6 Rb0 3.499239 1_545
Mg7 Mg9 3.250187 1_555
Mg7 Mg9 3.414476 1_545
Mg7 Rb0 3.499239 1_546
Mg8 Rb0 3.499232 1_555
Mg9 Rb0 3.499232 1_556
Mg10 Mg3 3.254436 1_555
Mg10 Mg5 3.254443 1_545
Mg10 Mg2 3.329266 1_555
Mg10 Mg4 3.329273 1_545
Mg10 Mg8 3.330420 1_545
Mg10 Mg6 3.330420 1_555
Mg10 Mg12 3.333239 1_555
Mg10 Mg12 3.333239 1_545
Mg10 Mg8 3.402813 1_655
Mg10 Mg6 3.402813 1_655
Mg11 Mg3 3.254436 1_555
Mg11 Mg5 3.254443 1_545
Mg11 Mg2 3.329266 1_556
Mg11 Mg4 3.329273 1_546
Mg11 Mg9 3.330420 1_545
Mg11 Mg7 3.330420 1_555
Mg11 Mg13 3.333239 1_555
Mg11 Mg13 3.333239 1_545
Mg11 Mg9 3.402813 1_655
Mg11 Mg7 3.402813 1_655
Mg12 Mg5 3.196828 1_555
Mg12 Mg3 3.196835 1_555
Mg12 Mg6 3.241511 1_555
Mg12 Mg8 3.241512 1_555
Mg12 Mg4 3.382218 1_555
Mg12 Mg2 3.382224 1_555
Mg12 Rb0 3.450581 1_655
Mg12 Mg6 3.486199 1_665
Mg12 Mg8 3.486199 1_655
Mg13 Mg5 3.196828 1_555
Mg13 Mg3 3.196835 1_555
Mg13 Mg7 3.241511 1_555
Mg13 Mg9 3.241512 1_555
Mg13 Mg4 3.382218 1_556
Mg13 Mg2 3.382224 1_556
Mg13 Rb0 3.450581 1_656
Mg13 Mg7 3.486199 1_665
Mg13 Mg9 3.486199 1_655
