# generated using pymatgen
data_Cu41Sn11
_symmetry_space_group_name_H-M   'P 1'
_cell_length_a   12.73533961
_cell_length_b   12.73533961
_cell_length_c   12.73533961
_cell_angle_alpha   60.00000000
_cell_angle_beta   60.00000000
_cell_angle_gamma   60.00000000
_symmetry_Int_Tables_number   1
_chemical_formula_structural   Cu41Sn11
_chemical_formula_sum   'Cu82 Sn22'
_cell_volume   1460.55055583
_cell_formula_units_Z   2
loop_
 _symmetry_equiv_pos_site_id
 _symmetry_equiv_pos_as_xyz
  1  'x, y, z'
loop_
 _atom_site_type_symbol
 _atom_site_label
 _atom_site_symmetry_multiplicity
 _atom_site_fract_x
 _atom_site_fract_y
 _atom_site_fract_z
 _atom_site_occupancy
  Cu  Cu0  1  0.91723900  0.91723900  0.91723900  1
  Cu  Cu1  1  0.91723900  0.91723900  0.24828200  1
  Cu  Cu2  1  0.91723900  0.24828200  0.91723900  1
  Cu  Cu3  1  0.24828200  0.91723900  0.91723900  1
  Cu  Cu4  1  0.55695500  0.55695500  0.55695500  1
  Cu  Cu5  1  0.55695500  0.55695500  0.32913400  1
  Cu  Cu6  1  0.55695500  0.32913400  0.55695500  1
  Cu  Cu7  1  0.32913400  0.55695500  0.55695500  1
  Cu  Cu8  1  0.16623700  0.16623700  0.16623700  1
  Cu  Cu9  1  0.16623700  0.16623700  0.50128800  1
  Cu  Cu10  1  0.16623700  0.50128800  0.16623700  1
  Cu  Cu11  1  0.50128800  0.16623700  0.16623700  1
  Cu  Cu12  1  0.66545000  0.66545000  0.66545000  1
  Cu  Cu13  1  0.66545000  0.66545000  0.00365100  1
  Cu  Cu14  1  0.66545000  0.00365100  0.66545000  1
  Cu  Cu15  1  0.00365100  0.66545000  0.66545000  1
  Cu  Cu16  1  0.02878700  0.02878700  0.26246300  1
  Cu  Cu17  1  0.02878700  0.02878700  0.67996200  1
  Cu  Cu18  1  0.26246300  0.67996200  0.02878700  1
  Cu  Cu19  1  0.26246300  0.02878700  0.02878700  1
  Cu  Cu20  1  0.67996200  0.26246300  0.02878700  1
  Cu  Cu21  1  0.67996200  0.02878700  0.02878700  1
  Cu  Cu22  1  0.02878700  0.26246300  0.67996200  1
  Cu  Cu23  1  0.02878700  0.67996200  0.26246300  1
  Cu  Cu24  1  0.02878700  0.26246300  0.02878700  1
  Cu  Cu25  1  0.67996200  0.02878700  0.26246300  1
  Cu  Cu26  1  0.26246300  0.02878700  0.67996200  1
  Cu  Cu27  1  0.02878700  0.67996200  0.02878700  1
  Cu  Cu28  1  0.51891500  0.51891500  0.79357300  1
  Cu  Cu29  1  0.51891500  0.51891500  0.16859700  1
  Cu  Cu30  1  0.79357300  0.16859700  0.51891500  1
  Cu  Cu31  1  0.79357300  0.51891500  0.51891500  1
  Cu  Cu32  1  0.16859700  0.79357300  0.51891500  1
  Cu  Cu33  1  0.16859700  0.51891500  0.51891500  1
  Cu  Cu34  1  0.51891500  0.79357300  0.16859700  1
  Cu  Cu35  1  0.51891500  0.16859700  0.79357300  1
  Cu  Cu36  1  0.51891500  0.79357300  0.51891500  1
  Cu  Cu37  1  0.16859700  0.51891500  0.79357300  1
  Cu  Cu38  1  0.79357300  0.51891500  0.16859700  1
  Cu  Cu39  1  0.51891500  0.16859700  0.51891500  1
  Cu  Cu40  1  0.26232600  0.26232600  0.91980900  1
  Cu  Cu41  1  0.26232600  0.26232600  0.55553900  1
  Cu  Cu42  1  0.91980900  0.55553900  0.26232600  1
  Cu  Cu43  1  0.91980900  0.26232600  0.26232600  1
  Cu  Cu44  1  0.55553900  0.91980900  0.26232600  1
  Cu  Cu45  1  0.55553900  0.26232600  0.26232600  1
  Cu  Cu46  1  0.26232600  0.91980900  0.55553900  1
  Cu  Cu47  1  0.26232600  0.55553900  0.91980900  1
  Cu  Cu48  1  0.26232600  0.91980900  0.26232600  1
  Cu  Cu49  1  0.55553900  0.26232600  0.91980900  1
  Cu  Cu50  1  0.91980900  0.26232600  0.55553900  1
  Cu  Cu51  1  0.26232600  0.55553900  0.26232600  1
  Cu  Cu52  1  0.82572900  0.17427100  0.17427100  1
  Cu  Cu53  1  0.17427100  0.82572900  0.82572900  1
  Cu  Cu54  1  0.17427100  0.82572900  0.17427100  1
  Cu  Cu55  1  0.82572900  0.17427100  0.82572900  1
  Cu  Cu56  1  0.17427100  0.17427100  0.82572900  1
  Cu  Cu57  1  0.82572900  0.82572900  0.17427100  1
  Cu  Cu58  1  0.04964300  0.04964300  0.04964300  1
  Cu  Cu59  1  0.04964300  0.04964300  0.85107200  1
  Cu  Cu60  1  0.04964300  0.85107200  0.04964300  1
  Cu  Cu61  1  0.85107200  0.04964300  0.04964300  1
  Cu  Cu62  1  0.67751200  0.32248800  0.32248800  1
  Cu  Cu63  1  0.32248800  0.67751200  0.67751200  1
  Cu  Cu64  1  0.32248800  0.67751200  0.32248800  1
  Cu  Cu65  1  0.67751200  0.32248800  0.67751200  1
  Cu  Cu66  1  0.32248800  0.32248800  0.67751200  1
  Cu  Cu67  1  0.67751200  0.67751200  0.32248800  1
  Cu  Cu68  1  0.30544700  0.30544700  0.30544700  1
  Cu  Cu69  1  0.30544700  0.30544700  0.08366000  1
  Cu  Cu70  1  0.30544700  0.08366000  0.30544700  1
  Cu  Cu71  1  0.08366000  0.30544700  0.30544700  1
  Cu  Cu72  1  0.92363900  0.57636100  0.57636100  1
  Cu  Cu73  1  0.57636100  0.92363900  0.92363900  1
  Cu  Cu74  1  0.57636100  0.92363900  0.57636100  1
  Cu  Cu75  1  0.92363900  0.57636100  0.92363900  1
  Cu  Cu76  1  0.57636100  0.57636100  0.92363900  1
  Cu  Cu77  1  0.92363900  0.92363900  0.57636100  1
  Cu  Cu78  1  0.80054200  0.80054200  0.80054200  1
  Cu  Cu79  1  0.80054200  0.80054200  0.59837500  1
  Cu  Cu80  1  0.80054200  0.59837500  0.80054200  1
  Cu  Cu81  1  0.59837500  0.80054200  0.80054200  1
  Sn  Sn0  1  0.41199000  0.41199000  0.41199000  1
  Sn  Sn1  1  0.41199000  0.41199000  0.76403100  1
  Sn  Sn2  1  0.41199000  0.76403100  0.41199000  1
  Sn  Sn3  1  0.76403100  0.41199000  0.41199000  1
  Sn  Sn4  1  0.76767700  0.76767700  0.41502600  1
  Sn  Sn5  1  0.76767700  0.76767700  0.04962000  1
  Sn  Sn6  1  0.41502600  0.04962000  0.76767700  1
  Sn  Sn7  1  0.41502600  0.76767700  0.76767700  1
  Sn  Sn8  1  0.04962000  0.41502600  0.76767700  1
  Sn  Sn9  1  0.04962000  0.76767700  0.76767700  1
  Sn  Sn10  1  0.76767700  0.41502600  0.04962000  1
  Sn  Sn11  1  0.76767700  0.04962000  0.41502600  1
  Sn  Sn12  1  0.76767700  0.41502600  0.76767700  1
  Sn  Sn13  1  0.04962000  0.76767700  0.41502600  1
  Sn  Sn14  1  0.41502600  0.76767700  0.04962000  1
  Sn  Sn15  1  0.76767700  0.04962000  0.76767700  1
  Sn  Sn16  1  0.43154000  0.06846000  0.06846000  1
  Sn  Sn17  1  0.06846000  0.43154000  0.43154000  1
  Sn  Sn18  1  0.06846000  0.43154000  0.06846000  1
  Sn  Sn19  1  0.43154000  0.06846000  0.43154000  1
  Sn  Sn20  1  0.06846000  0.06846000  0.43154000  1
  Sn  Sn21  1  0.43154000  0.43154000  0.06846000  1
loop_
_geom_bond_atom_site_label_1
_geom_bond_atom_site_label_2
_geom_bond_distance
_geom_bond_site_symmetry_2
Cu0 Cu60 2.529463 1_656
Cu0 Cu59 2.529463 1_665
Cu0 Cu61 2.529463 1_566
Cu0 Cu21 2.569059 1_566
Cu0 Cu17 2.569059 1_665
Cu0 Cu27 2.569059 1_656
Cu0 Cu53 2.675806 1_655
Cu0 Cu57 2.675806 1_556
Cu0 Cu55 2.675806 1_565
Cu0 Sn9 2.702557 1_655
Cu0 Sn5 2.702557 1_556
Cu0 Sn15 2.702557 1_565
Cu1 Cu61 2.529442 1_565
Cu1 Cu60 2.529442 1_655
Cu1 Cu58 2.529455 1_665
Cu1 Cu16 2.569059 1_665
Cu1 Cu25 2.569059 1_565
Cu1 Cu23 2.569059 1_655
Cu1 Cu57 2.675796 1_555
Cu1 Cu54 2.675807 1_655
Cu1 Cu52 2.675807 1_565
Cu1 Sn4 2.702558 1_555
Cu1 Sn13 2.702566 1_655
Cu1 Sn11 2.702566 1_565
Cu2 Cu59 2.529442 1_655
Cu2 Cu61 2.529442 1_556
Cu2 Cu58 2.529455 1_656
Cu2 Cu24 2.569059 1_656
Cu2 Cu20 2.569059 1_556
Cu2 Cu22 2.569059 1_655
Cu2 Cu55 2.675796 1_555
Cu2 Cu56 2.675807 1_655
Cu2 Cu52 2.675807 1_556
Cu2 Sn12 2.702558 1_555
Cu2 Sn8 2.702566 1_655
Cu2 Sn10 2.702566 1_556
Cu3 Cu59 2.529442 1_565
Cu3 Cu60 2.529442 1_556
Cu3 Cu58 2.529455 1_566
Cu3 Cu53 2.675796 1_555
Cu3 Cu54 2.675807 1_556
Cu3 Cu56 2.675807 1_565
Cu3 Sn7 2.702558 1_555
Cu3 Sn14 2.702566 1_556
Cu3 Sn6 2.702566 1_565
Cu4 Cu63 2.611318 1_555
Cu4 Cu65 2.611318 1_555
Cu4 Cu67 2.611318 1_555
Cu4 Sn2 2.728083 1_555
Cu4 Sn3 2.728083 1_555
Cu4 Sn1 2.728083 1_555
Cu4 Cu5 2.901378 1_555
Cu4 Cu6 2.901378 1_555
Cu4 Cu7 2.901378 1_555
Cu5 Cu64 2.611314 1_555
Cu5 Cu62 2.611314 1_555
Cu5 Cu67 2.611325 1_555
Cu5 Sn0 2.728076 1_555
Cu5 Sn3 2.728097 1_555
Cu5 Sn2 2.728097 1_555
Cu5 Cu7 2.901378 1_555
Cu5 Cu6 2.901378 1_555
Cu6 Cu62 2.611314 1_555
Cu6 Cu66 2.611314 1_555
Cu6 Cu65 2.611325 1_555
Cu6 Sn0 2.728076 1_555
Cu6 Sn1 2.728097 1_555
Cu6 Sn3 2.728097 1_555
Cu6 Cu7 2.901378 1_555
Cu7 Sn0 2.728076 1_555
Cu7 Sn1 2.728097 1_555
Cu7 Sn2 2.728097 1_555
Cu8 Sn18 2.766403 1_555
Cu8 Sn16 2.766403 1_555
Cu8 Sn20 2.766403 1_555
Cu9 Sn20 2.766393 1_555
Cu9 Sn17 2.766404 1_555
Cu9 Sn19 2.766404 1_555
Cu10 Cu27 2.530600 1_555
Cu10 Cu18 2.530600 1_555
Cu10 Cu23 2.530600 1_555
Cu10 Cu47 2.580846 1_554
Cu10 Cu42 2.580846 1_455
Cu10 Cu51 2.580857 1_555
Cu10 Cu71 2.608895 1_555
Cu10 Cu69 2.608895 1_555
Cu10 Cu68 2.608909 1_555
Cu10 Sn18 2.766393 1_555
Cu10 Sn17 2.766404 1_555
Cu10 Sn21 2.766404 1_555
Cu11 Cu20 2.530600 1_555
Cu11 Cu21 2.530600 1_555
Cu11 Cu25 2.530600 1_555
Cu11 Cu49 2.580846 1_554
Cu11 Cu44 2.580846 1_545
Cu11 Cu45 2.580857 1_555
Cu11 Cu70 2.608895 1_555
Cu11 Cu69 2.608895 1_555
Cu11 Cu68 2.608909 1_555
Cu11 Sn16 2.766393 1_555
Cu11 Sn19 2.766404 1_555
Cu11 Sn21 2.766404 1_555
Cu12 Cu79 2.582669 1_555
Cu12 Cu80 2.582669 1_555
Cu12 Cu81 2.582669 1_555
Cu12 Sn12 2.636648 1_555
Cu12 Sn4 2.636648 1_555
Cu12 Sn7 2.636648 1_555
Cu12 Cu36 2.649563 1_555
Cu12 Cu28 2.649563 1_555
Cu12 Cu31 2.649563 1_555
Cu12 Cu72 2.685572 1_555
Cu12 Cu74 2.685572 1_555
Cu12 Cu76 2.685572 1_555
Cu13 Cu80 2.582669 1_554
Cu13 Cu78 2.582669 1_554
Cu13 Cu81 2.582669 1_554
Cu13 Sn5 2.636639 1_555
Cu13 Sn10 2.636650 1_555
Cu13 Sn14 2.636650 1_555
Cu13 Cu38 2.649554 1_555
Cu13 Cu34 2.649554 1_555
Cu13 Cu29 2.649562 1_555
Cu13 Cu73 2.685572 1_554
Cu13 Cu75 2.685572 1_554
Cu13 Cu76 2.685582 1_554
Cu14 Cu78 2.582669 1_545
Cu14 Cu81 2.582669 1_545
Cu14 Cu79 2.582669 1_545
Cu14 Sn15 2.636639 1_555
Cu14 Sn6 2.636650 1_555
Cu14 Sn11 2.636650 1_555
Cu14 Cu30 2.649554 1_555
Cu14 Cu35 2.649554 1_555
Cu14 Cu39 2.649562 1_555
Cu14 Cu77 2.685572 1_545
Cu14 Cu73 2.685572 1_545
Cu14 Cu74 2.685582 1_545
Cu15 Cu80 2.582669 1_455
Cu15 Cu78 2.582669 1_455
Cu15 Cu79 2.582669 1_455
Cu15 Sn9 2.636639 1_555
Cu15 Sn8 2.636650 1_555
Cu15 Sn13 2.636650 1_555
Cu15 Cu37 2.649554 1_555
Cu15 Cu32 2.649554 1_555
Cu15 Cu33 2.649562 1_555
Cu15 Cu75 2.685572 1_455
Cu15 Cu77 2.685572 1_455
Cu15 Cu72 2.685582 1_455
Cu16 Cu58 2.473416 1_555
Cu16 Cu8 2.530600 1_555
Cu16 Cu43 2.577106 1_455
Cu16 Cu48 2.577106 1_545
Cu16 Cu54 2.722858 1_545
Cu16 Cu52 2.722858 1_455
Cu16 Sn20 2.752851 1_555
Cu16 Sn13 2.841746 1_545
Cu16 Sn11 2.841746 1_455
Cu17 Cu59 2.473441 1_555
Cu17 Cu9 2.530600 1_555
Cu17 Cu50 2.577102 1_455
Cu17 Cu46 2.577102 1_545
Cu17 Cu55 2.722865 1_455
Cu17 Cu53 2.722865 1_545
Cu17 Sn20 2.752838 1_555
Cu17 Sn15 2.841744 1_455
Cu17 Sn9 2.841744 1_545
Cu18 Cu60 2.473425 1_555
Cu18 Cu3 2.569059 1_554
Cu18 Cu47 2.577094 1_554
Cu18 Cu51 2.577105 1_555
Cu18 Cu53 2.722858 1_554
Cu18 Cu54 2.722868 1_555
Cu18 Sn21 2.752842 1_555
Cu18 Sn7 2.841748 1_554
Cu18 Sn14 2.841756 1_555
Cu19 Cu58 2.473416 1_555
Cu19 Cu8 2.530600 1_555
Cu19 Cu3 2.569059 1_544
Cu19 Cu48 2.577106 1_545
Cu19 Cu40 2.577106 1_554
Cu19 Cu54 2.722858 1_545
Cu19 Cu56 2.722858 1_554
Cu19 Sn16 2.752851 1_555
Cu19 Sn6 2.841746 1_554
Cu19 Sn14 2.841746 1_545
Cu20 Cu61 2.473425 1_555
Cu20 Cu49 2.577094 1_554
Cu20 Cu45 2.577105 1_555
Cu20 Cu55 2.722858 1_554
Cu20 Cu52 2.722868 1_555
Cu20 Sn21 2.752842 1_555
Cu20 Sn12 2.841748 1_554
Cu20 Sn10 2.841756 1_555
Cu21 Cu61 2.473441 1_555
Cu21 Cu49 2.577102 1_554
Cu21 Cu44 2.577102 1_545
Cu21 Cu55 2.722865 1_554
Cu21 Cu57 2.722865 1_545
Cu21 Sn16 2.752838 1_555
Cu21 Sn5 2.841744 1_545
Cu21 Sn15 2.841744 1_554
Cu22 Cu59 2.473425 1_555
Cu22 Cu9 2.530600 1_555
Cu22 Cu50 2.577094 1_455
Cu22 Cu41 2.577105 1_555
Cu22 Cu55 2.722858 1_455
Cu22 Cu56 2.722868 1_555
Cu22 Sn17 2.752842 1_555
Cu22 Sn12 2.841748 1_455
Cu22 Sn8 2.841756 1_555
Cu23 Cu60 2.473425 1_555
Cu23 Cu42 2.577094 1_455
Cu23 Cu51 2.577105 1_555
Cu23 Cu57 2.722858 1_455
Cu23 Cu54 2.722868 1_555
Cu23 Sn17 2.752842 1_555
Cu23 Sn4 2.841748 1_455
Cu23 Sn13 2.841756 1_555
Cu24 Cu58 2.473416 1_555
Cu24 Cu8 2.530600 1_555
Cu24 Cu43 2.577106 1_455
Cu24 Cu40 2.577106 1_554
Cu24 Cu56 2.722858 1_554
Cu24 Cu52 2.722858 1_455
Cu24 Sn18 2.752851 1_555
Cu24 Sn10 2.841746 1_455
Cu24 Sn8 2.841746 1_554
Cu25 Cu61 2.473425 1_555
Cu25 Cu44 2.577094 1_545
Cu25 Cu45 2.577105 1_555
Cu25 Cu57 2.722858 1_545
Cu25 Cu52 2.722868 1_555
Cu25 Sn19 2.752842 1_555
Cu25 Sn4 2.841748 1_545
Cu25 Sn11 2.841756 1_555
Cu26 Cu59 2.473425 1_555
Cu26 Cu9 2.530600 1_555
Cu26 Cu3 2.569059 1_545
Cu26 Cu46 2.577094 1_545
Cu26 Cu41 2.577105 1_555
Cu26 Cu53 2.722858 1_545
Cu26 Cu56 2.722868 1_555
Cu26 Sn19 2.752842 1_555
Cu26 Sn7 2.841748 1_545
Cu26 Sn6 2.841756 1_555
Cu27 Cu60 2.473441 1_555
Cu27 Cu42 2.577102 1_455
Cu27 Cu47 2.577102 1_554
Cu27 Cu53 2.722865 1_554
Cu27 Cu57 2.722865 1_455
Cu27 Sn18 2.752838 1_555
Cu27 Sn5 2.841744 1_455
Cu27 Sn9 2.841744 1_554
Cu28 Sn1 2.594047 1_555
Cu28 Cu76 2.602526 1_555
Cu28 Cu4 2.620118 1_555
Cu28 Sn7 2.663812 1_555
Cu28 Sn12 2.663812 1_555
Cu28 Cu47 2.729939 1_555
Cu28 Cu49 2.729939 1_555
Cu28 Sn21 2.859914 1_556
Cu28 Cu63 2.860341 1_555
Cu28 Cu65 2.860341 1_555
Cu29 Sn0 2.594055 1_555
Cu29 Cu76 2.602526 1_554
Cu29 Cu5 2.620106 1_555
Cu29 Sn10 2.663812 1_555
Cu29 Sn14 2.663812 1_555
Cu29 Cu51 2.729939 1_555
Cu29 Cu45 2.729939 1_555
Cu29 Sn21 2.859914 1_555
Cu29 Cu64 2.860341 1_555
Cu29 Cu62 2.860341 1_555
Cu30 Sn3 2.594058 1_555
Cu30 Cu77 2.602526 1_545
Cu30 Cu6 2.620114 1_555
Cu30 Sn11 2.663812 1_555
Cu30 Sn15 2.663812 1_555
Cu30 Cu43 2.729939 1_555
Cu30 Cu50 2.729939 1_555
Cu30 Sn20 2.859914 1_655
Cu30 Cu62 2.860341 1_555
Cu30 Cu65 2.860341 1_555
Cu31 Sn3 2.594047 1_555
Cu31 Cu72 2.602526 1_555
Cu31 Cu4 2.620118 1_555
Cu31 Sn12 2.663812 1_555
Cu31 Sn4 2.663812 1_555
Cu31 Cu42 2.729939 1_555
Cu31 Cu50 2.729939 1_555
Cu31 Sn17 2.859914 1_655
Cu31 Cu67 2.860341 1_555
Cu31 Cu65 2.860341 1_555
Cu32 Sn2 2.594058 1_555
Cu32 Cu77 2.602526 1_455
Cu32 Cu7 2.620114 1_555
Cu32 Sn13 2.663812 1_555
Cu32 Sn9 2.663812 1_555
Cu32 Cu48 2.729939 1_555
Cu32 Cu46 2.729939 1_555
Cu32 Sn20 2.859914 1_565
Cu32 Cu64 2.860341 1_555
Cu32 Cu63 2.860341 1_555
Cu33 Sn0 2.594055 1_555
Cu33 Cu72 2.602526 1_455
Cu33 Cu7 2.620106 1_555
Cu33 Sn8 2.663812 1_555
Cu33 Sn13 2.663812 1_555
Cu33 Cu51 2.729939 1_555
Cu33 Cu41 2.729939 1_555
Cu33 Sn17 2.859914 1_555
Cu33 Cu64 2.860341 1_555
Cu33 Cu66 2.860341 1_555
Cu34 Sn2 2.594058 1_555
Cu34 Cu73 2.602526 1_554
Cu34 Cu5 2.620114 1_555
Cu34 Sn14 2.663812 1_555
Cu34 Sn5 2.663812 1_555
Cu34 Cu44 2.729939 1_555
Cu34 Cu48 2.729939 1_555
Cu34 Sn16 2.859914 1_565
Cu34 Cu67 2.860341 1_555
Cu34 Cu64 2.860341 1_555
Cu35 Sn1 2.594058 1_555
Cu35 Cu73 2.602526 1_545
Cu35 Cu6 2.620114 1_555
Cu35 Sn6 2.663812 1_555
Cu35 Sn15 2.663812 1_555
Cu35 Cu49 2.729939 1_555
Cu35 Cu40 2.729939 1_555
Cu35 Sn16 2.859914 1_556
Cu35 Cu66 2.860341 1_555
Cu35 Cu65 2.860341 1_555
Cu36 Sn2 2.594047 1_555
Cu36 Cu74 2.602526 1_555
Cu36 Cu4 2.620118 1_555
Cu36 Sn7 2.663812 1_555
Cu36 Sn4 2.663812 1_555
Cu36 Cu44 2.729939 1_555
Cu36 Cu46 2.729939 1_555
Cu36 Sn19 2.859914 1_565
Cu36 Cu67 2.860341 1_555
Cu36 Cu63 2.860341 1_555
Cu37 Sn1 2.594058 1_555
Cu37 Cu75 2.602526 1_455
Cu37 Cu7 2.620114 1_555
Cu37 Sn8 2.663812 1_555
Cu37 Sn9 2.663812 1_555
Cu37 Cu47 2.729939 1_555
Cu37 Cu40 2.729939 1_555
Cu37 Sn18 2.859914 1_556
Cu37 Cu66 2.860341 1_555
Cu37 Cu63 2.860341 1_555
Cu38 Sn3 2.594058 1_555
Cu38 Cu75 2.602526 1_554
Cu38 Cu5 2.620114 1_555
Cu38 Sn10 2.663812 1_555
Cu38 Sn5 2.663812 1_555
Cu38 Cu43 2.729939 1_555
Cu38 Cu42 2.729939 1_555
Cu38 Sn18 2.859914 1_655
Cu38 Cu67 2.860341 1_555
Cu38 Cu62 2.860341 1_555
Cu39 Sn0 2.594055 1_555
Cu39 Cu74 2.602526 1_545
Cu39 Cu6 2.620106 1_555
Cu39 Sn6 2.663812 1_555
Cu39 Sn11 2.663812 1_555
Cu39 Cu45 2.729939 1_555
Cu39 Cu41 2.729939 1_555
Cu39 Sn19 2.859914 1_555
Cu39 Cu62 2.860341 1_555
Cu39 Cu66 2.860341 1_555
Cu40 Cu66 2.560155 1_555
Cu40 Cu8 2.580847 1_556
Cu40 Sn1 2.696646 1_555
Cu40 Cu69 2.747891 1_556
Cu40 Cu56 2.809882 1_555
Cu40 Sn18 2.899777 1_556
Cu40 Sn16 2.899777 1_556
Cu41 Cu66 2.560155 1_555
Cu41 Cu9 2.580857 1_555
Cu41 Sn0 2.696647 1_555
Cu41 Cu68 2.747879 1_555
Cu41 Cu56 2.809882 1_555
Cu41 Sn17 2.899777 1_555
Cu41 Sn19 2.899777 1_555
Cu42 Cu67 2.560155 1_555
Cu42 Sn3 2.696638 1_555
Cu42 Cu71 2.747883 1_655
Cu42 Cu57 2.809882 1_555
Cu42 Sn17 2.899777 1_655
Cu42 Sn18 2.899777 1_655
Cu43 Cu62 2.560155 1_555
Cu43 Cu8 2.580847 1_655
Cu43 Sn3 2.696646 1_555
Cu43 Cu71 2.747891 1_655
Cu43 Cu52 2.809882 1_555
Cu43 Sn20 2.899777 1_655
Cu43 Sn18 2.899777 1_655
Cu44 Cu67 2.560155 1_555
Cu44 Sn2 2.696638 1_555
Cu44 Cu70 2.747883 1_565
Cu44 Cu57 2.809882 1_555
Cu44 Sn19 2.899777 1_565
Cu44 Sn16 2.899777 1_565
Cu45 Cu62 2.560155 1_555
Cu45 Sn0 2.696647 1_555
Cu45 Cu68 2.747879 1_555
Cu45 Cu52 2.809882 1_555
Cu45 Sn19 2.899777 1_555
Cu45 Sn21 2.899777 1_555
Cu46 Cu63 2.560155 1_555
Cu46 Cu9 2.580846 1_565
Cu46 Sn2 2.696638 1_555
Cu46 Cu70 2.747883 1_565
Cu46 Cu53 2.809882 1_555
Cu46 Sn19 2.899777 1_565
Cu46 Sn20 2.899777 1_565
Cu47 Cu63 2.560155 1_555
Cu47 Sn1 2.696638 1_555
Cu47 Cu69 2.747883 1_556
Cu47 Cu53 2.809882 1_555
Cu47 Sn21 2.899777 1_556
Cu47 Sn18 2.899777 1_556
Cu48 Cu64 2.560155 1_555
Cu48 Cu8 2.580847 1_565
Cu48 Sn2 2.696646 1_555
Cu48 Cu70 2.747891 1_565
Cu48 Cu54 2.809882 1_555
Cu48 Sn16 2.899777 1_565
Cu48 Sn20 2.899777 1_565
Cu49 Cu65 2.560155 1_555
Cu49 Sn1 2.696638 1_555
Cu49 Cu69 2.747883 1_556
Cu49 Cu55 2.809882 1_555
Cu49 Sn21 2.899777 1_556
Cu49 Sn16 2.899777 1_556
Cu50 Cu65 2.560155 1_555
Cu50 Cu9 2.580846 1_655
Cu50 Sn3 2.696638 1_555
Cu50 Cu71 2.747883 1_655
Cu50 Cu55 2.809882 1_555
Cu50 Sn17 2.899777 1_655
Cu50 Sn20 2.899777 1_655
Cu51 Cu64 2.560155 1_555
Cu51 Sn0 2.696647 1_555
Cu51 Cu68 2.747879 1_555
Cu51 Cu54 2.809882 1_555
Cu51 Sn17 2.899777 1_555
Cu51 Sn21 2.899777 1_555
Cu52 Sn11 2.550900 1_555
Cu52 Sn10 2.550900 1_555
Cu52 Cu61 2.576249 1_555
Cu52 Cu58 2.576255 1_655
Cu52 Cu62 2.669461 1_555
Cu53 Sn9 2.550900 1_555
Cu53 Sn7 2.550900 1_555
Cu53 Cu60 2.576260 1_556
Cu53 Cu59 2.576260 1_565
Cu53 Cu63 2.669461 1_555
Cu54 Sn13 2.550900 1_555
Cu54 Sn14 2.550900 1_555
Cu54 Cu60 2.576249 1_555
Cu54 Cu58 2.576255 1_565
Cu54 Cu64 2.669461 1_555
Cu55 Sn12 2.550900 1_555
Cu55 Sn15 2.550900 1_555
Cu55 Cu61 2.576260 1_556
Cu55 Cu59 2.576260 1_655
Cu55 Cu65 2.669461 1_555
Cu56 Sn8 2.550900 1_555
Cu56 Sn6 2.550900 1_555
Cu56 Cu59 2.576249 1_555
Cu56 Cu58 2.576255 1_556
Cu56 Cu66 2.669461 1_555
Cu57 Sn4 2.550900 1_555
Cu57 Sn5 2.550900 1_555
Cu57 Cu61 2.576260 1_565
Cu57 Cu60 2.576260 1_655
Cu57 Cu67 2.669461 1_555
Cu58 Cu61 2.528869 1_455
Cu58 Cu60 2.528869 1_545
Cu58 Cu59 2.528869 1_554
Cu59 Cu60 2.528869 1_546
Cu59 Cu61 2.528869 1_456
Cu60 Cu61 2.528869 1_465
Cu62 Sn0 2.761081 1_555
Cu62 Sn3 2.761091 1_555
Cu62 Sn10 2.837434 1_555
Cu62 Sn11 2.837434 1_555
Cu63 Cu7 2.611325 1_555
Cu63 Sn2 2.761081 1_555
Cu63 Sn1 2.761081 1_555
Cu63 Sn9 2.837434 1_555
Cu63 Sn7 2.837434 1_555
Cu64 Cu7 2.611314 1_555
Cu64 Sn0 2.761081 1_555
Cu64 Sn2 2.761091 1_555
Cu64 Sn14 2.837434 1_555
Cu64 Sn13 2.837434 1_555
Cu65 Sn3 2.761081 1_555
Cu65 Sn1 2.761081 1_555
Cu65 Sn15 2.837434 1_555
Cu65 Sn12 2.837434 1_555
Cu66 Cu7 2.611314 1_555
Cu66 Sn0 2.761081 1_555
Cu66 Sn1 2.761091 1_555
Cu66 Sn8 2.837434 1_555
Cu66 Sn6 2.837434 1_555
Cu67 Sn3 2.761081 1_555
Cu67 Sn2 2.761081 1_555
Cu67 Sn5 2.837434 1_555
Cu67 Sn4 2.837434 1_555
Cu68 Cu9 2.608909 1_555
Cu68 Sn17 2.674311 1_555
Cu68 Sn19 2.674311 1_555
Cu68 Sn21 2.674311 1_555
Cu68 Cu71 2.824533 1_555
Cu68 Cu70 2.824533 1_555
Cu68 Cu69 2.824533 1_555
Cu69 Cu8 2.608916 1_555
Cu69 Sn21 2.674304 1_555
Cu69 Sn18 2.674315 1_555
Cu69 Sn16 2.674315 1_555
Cu69 Cu71 2.824533 1_555
Cu69 Cu70 2.824533 1_555
Cu70 Cu9 2.608895 1_555
Cu70 Cu8 2.608916 1_555
Cu70 Sn19 2.674304 1_555
Cu70 Sn16 2.674315 1_555
Cu70 Sn20 2.674315 1_555
Cu70 Cu71 2.824533 1_555
Cu71 Cu9 2.608895 1_555
Cu71 Cu8 2.608916 1_555
Cu71 Sn17 2.674304 1_555
Cu71 Sn18 2.674315 1_555
Cu71 Sn20 2.674315 1_555
Cu72 Cu79 2.563693 1_555
Cu72 Cu80 2.563693 1_555
Cu72 Sn17 2.608297 1_655
Cu72 Sn12 2.887668 1_555
Cu72 Sn4 2.887668 1_555
Cu72 Sn13 2.887668 1_655
Cu72 Sn8 2.887668 1_655
Cu73 Cu81 2.563682 1_555
Cu73 Cu78 2.563688 1_555
Cu73 Sn16 2.608297 1_566
Cu73 Sn14 2.887668 1_556
Cu73 Sn6 2.887668 1_565
Cu73 Sn5 2.887668 1_556
Cu73 Sn15 2.887668 1_565
Cu74 Cu79 2.563693 1_555
Cu74 Cu81 2.563693 1_555
Cu74 Sn19 2.608297 1_565
Cu74 Sn4 2.887668 1_555
Cu74 Sn7 2.887668 1_555
Cu74 Sn11 2.887668 1_565
Cu74 Sn6 2.887668 1_565
Cu75 Cu80 2.563682 1_555
Cu75 Cu78 2.563688 1_555
Cu75 Sn18 2.608297 1_656
Cu75 Sn10 2.887668 1_556
Cu75 Sn8 2.887668 1_655
Cu75 Sn5 2.887668 1_556
Cu75 Sn9 2.887668 1_655
Cu76 Cu80 2.563693 1_555
Cu76 Cu81 2.563693 1_555
Cu76 Sn21 2.608297 1_556
Cu76 Sn12 2.887668 1_555
Cu76 Sn7 2.887668 1_555
Cu76 Sn10 2.887668 1_556
Cu76 Sn14 2.887668 1_556
Cu77 Cu79 2.563682 1_555
Cu77 Cu78 2.563688 1_555
Cu77 Sn20 2.608297 1_665
Cu77 Sn13 2.887668 1_655
Cu77 Sn11 2.887668 1_565
Cu77 Sn15 2.887668 1_565
Cu77 Sn9 2.887668 1_655
Cu78 Cu80 2.574665 1_555
Cu78 Cu79 2.574665 1_555
Cu78 Cu81 2.574665 1_555
Cu78 Sn5 2.816448 1_556
Cu78 Sn15 2.816448 1_565
Cu78 Sn9 2.816448 1_655
Cu79 Cu80 2.574665 1_555
Cu79 Cu81 2.574665 1_555
Cu79 Sn13 2.816452 1_655
Cu79 Sn11 2.816452 1_565
Cu79 Sn4 2.816460 1_555
Cu80 Cu81 2.574665 1_555
Cu80 Sn8 2.816452 1_655
Cu80 Sn10 2.816452 1_556
Cu80 Sn12 2.816460 1_555
Cu81 Sn6 2.816452 1_565
Cu81 Sn14 2.816452 1_556
Cu81 Sn7 2.816460 1_555
