# generated using pymatgen
data_Li4MnCo3O8
_symmetry_space_group_name_H-M   'P 1'
_cell_length_a   2.94144200
_cell_length_b   5.06163686
_cell_length_c   9.85288270
_cell_angle_alpha   79.57760858
_cell_angle_beta   88.35490089
_cell_angle_gamma   88.79742903
_symmetry_Int_Tables_number   1
_chemical_formula_structural   Li4MnCo3O8
_chemical_formula_sum   'Li4 Mn1 Co3 O8'
_cell_volume   144.19633805
_cell_formula_units_Z   1
loop_
 _symmetry_equiv_pos_site_id
 _symmetry_equiv_pos_as_xyz
  1  'x, y, z'
loop_
 _atom_site_type_symbol
 _atom_site_label
 _atom_site_symmetry_multiplicity
 _atom_site_fract_x
 _atom_site_fract_y
 _atom_site_fract_z
 _atom_site_occupancy
  Li  Li0  1  0.99854200  0.75021200  0.74889000  1
  Li  Li1  1  0.49654300  0.75158200  0.24603900  1
  Li  Li2  1  0.50345700  0.24841800  0.75396100  1
  Li  Li3  1  0.00145800  0.24978800  0.25111000  1
  Mn  Mn0  1  0.00000000  0.50000000  0.50000000  1
  Co  Co0  1  0.00000000  0.00000000  0.00000000  1
  Co  Co1  1  0.50000000  0.00000000  0.50000000  1
  Co  Co2  1  0.50000000  0.50000000  0.00000000  1
  O  O0  1  0.49078500  0.86879800  0.88419700  1
  O  O1  1  0.01964800  0.87781300  0.39444400  1
  O  O2  1  0.99588600  0.36939900  0.88292000  1
  O  O3  1  0.46408600  0.36142600  0.38628500  1
  O  O4  1  0.53591400  0.63857400  0.61371500  1
  O  O5  1  0.00411400  0.63060100  0.11708000  1
  O  O6  1  0.98035200  0.12218700  0.60555600  1
  O  O7  1  0.50921500  0.13120200  0.11580300  1
loop_
_geom_bond_atom_site_label_1
_geom_bond_atom_site_label_2
_geom_bond_distance
_geom_bond_site_symmetry_2
Li0 O4 2.086518 1_555
Li0 O0 2.122696 1_555
Li0 O2 2.130368 1_555
Li0 O6 2.140171 1_565
Li0 O0 2.161221 1_655
Li0 O4 2.169227 1_655
Li1 O5 2.086312 1_655
Li1 O7 2.109102 1_565
Li1 O5 2.124120 1_555
Li1 O1 2.167183 1_555
Li1 O3 2.198072 1_555
Li1 O1 2.328590 1_655
Li2 O2 2.086312 1_455
Li2 O0 2.109102 1_545
Li2 O2 2.124120 1_555
Li2 O6 2.167183 1_555
Li2 O4 2.198072 1_555
Li2 O6 2.328590 1_455
Li3 O3 2.086518 1_555
Li3 O7 2.122696 1_555
Li3 O5 2.130368 1_555
Li3 O1 2.140171 1_545
Li3 O7 2.161221 1_455
Li3 O3 2.169227 1_455
Mn0 O4 1.940901 1_455
Mn0 O3 1.940901 1_555
Mn0 O1 2.005912 1_555
Mn0 O6 2.005912 1_455
Mn0 O4 2.159719 1_555
Mn0 O3 2.159719 1_455
Co0 O7 1.991545 1_455
Co0 O0 1.991545 1_544
Co0 O2 2.011558 1_454
Co0 O5 2.011558 1_545
Co0 O7 2.097714 1_555
Co0 O0 2.097714 1_444
Co1 O6 1.953025 1_555
Co1 O1 1.953025 1_545
Co1 O3 1.967313 1_555
Co1 O4 1.967313 1_545
Co1 O6 1.975421 1_455
Co1 O1 1.975421 1_645
Co2 O0 2.004067 1_554
Co2 O7 2.004067 1_555
Co2 O2 2.008513 1_554
Co2 O5 2.008513 1_555
Co2 O5 2.093264 1_655
Co2 O2 2.093264 1_454
