# generated using pymatgen
data_WO2
_symmetry_space_group_name_H-M   'P 1'
_cell_length_a   7.70852812
_cell_length_b   7.70852812
_cell_length_c   7.70852812
_cell_angle_alpha   92.62955398
_cell_angle_beta   92.62955398
_cell_angle_gamma   155.26372954
_symmetry_Int_Tables_number   1
_chemical_formula_structural   WO2
_chemical_formula_sum   'W4 O8'
_cell_volume   187.21975084
_cell_formula_units_Z   4
loop_
 _symmetry_equiv_pos_site_id
 _symmetry_equiv_pos_as_xyz
  1  'x, y, z'
loop_
 _atom_site_type_symbol
 _atom_site_label
 _atom_site_symmetry_multiplicity
 _atom_site_fract_x
 _atom_site_fract_y
 _atom_site_fract_z
 _atom_site_occupancy
  W  W0  1  0.65341900  0.83838800  0.49180800  1
  W  W1  1  0.16161200  0.65341900  0.81503100  1
  W  W2  1  0.83838800  0.34658100  0.18496900  1
  W  W3  1  0.34658100  0.16161200  0.50819200  1
  O  O0  1  0.83680500  0.53731500  0.37412000  1
  O  O1  1  0.46268500  0.83680500  0.29949000  1
  O  O2  1  0.53731500  0.16319500  0.70051000  1
  O  O3  1  0.16319500  0.46268500  0.62587900  1
  O  O4  1  0.15882200  0.21267600  0.37149800  1
  O  O5  1  0.78732400  0.15882200  0.94614700  1
  O  O6  1  0.84117800  0.78732400  0.62850200  1
  O  O7  1  0.21267600  0.84117800  0.05385300  1
loop_
_geom_bond_atom_site_label_1
_geom_bond_atom_site_label_2
_geom_bond_distance
_geom_bond_site_symmetry_2
O0 W2 2.031101 1_555
O0 W3 2.118684 1_555
O0 W3 2.118686 1_665
O1 W0 2.031106 1_555
O1 W2 2.118689 1_455
O1 W2 2.118689 1_565
O2 W3 2.031106 1_555
O2 W1 2.118689 1_545
O2 W1 2.118689 1_655
O3 W1 2.031106 1_555
O3 W0 2.118679 1_555
O3 W0 2.118684 1_445
O4 W3 2.071970 1_555
O4 W0 2.126367 1_555
O4 W0 2.126370 1_445
O5 W2 2.071967 1_556
O5 W1 2.126367 1_545
O5 W1 2.126370 1_655
O6 W0 2.071970 1_555
O6 W3 2.126367 1_555
O6 W3 2.126370 1_665
O7 W1 2.071967 1_554
O7 W2 2.126367 1_565
O7 W2 2.126370 1_455
