# generated using pymatgen
data_K5Na3Ta2Nb6O24
_symmetry_space_group_name_H-M   'P 1'
_cell_length_a   8.05972401
_cell_length_b   8.05972401
_cell_length_c   8.05815500
_cell_angle_alpha   90.00000000
_cell_angle_beta   90.00000000
_cell_angle_gamma   90.00320707
_symmetry_Int_Tables_number   1
_chemical_formula_structural   K5Na3Ta2Nb6O24
_chemical_formula_sum   'K5 Na3 Ta2 Nb6 O24'
_cell_volume   523.45090760
_cell_formula_units_Z   1
loop_
 _symmetry_equiv_pos_site_id
 _symmetry_equiv_pos_as_xyz
  1  'x, y, z'
loop_
 _atom_site_type_symbol
 _atom_site_label
 _atom_site_symmetry_multiplicity
 _atom_site_fract_x
 _atom_site_fract_y
 _atom_site_fract_z
 _atom_site_occupancy
  K  K0  1  0.74990200  0.25009800  0.00000000  1
  K  K1  1  0.25008000  0.25008200  0.00000000  1
  K  K2  1  0.74991800  0.74992000  0.00000000  1
  K  K3  1  0.25009200  0.74990800  0.00000000  1
  K  K4  1  0.25008700  0.74991300  0.50000000  1
  Na  Na0  1  0.75000200  0.24999800  0.50000000  1
  Na  Na1  1  0.25000300  0.25000400  0.50000000  1
  Na  Na2  1  0.74999600  0.74999700  0.50000000  1
  Ta  Ta0  1  0.99976600  0.00023400  0.74930500  1
  Ta  Ta1  1  0.99976600  0.00023400  0.25069500  1
  Nb  Nb0  1  0.50021700  0.00021800  0.74933400  1
  Nb  Nb1  1  0.50021700  0.00021800  0.25066600  1
  Nb  Nb2  1  0.99978200  0.49978300  0.74933400  1
  Nb  Nb3  1  0.99978200  0.49978300  0.25066600  1
  Nb  Nb4  1  0.50022200  0.49977800  0.74933800  1
  Nb  Nb5  1  0.50022200  0.49977800  0.25066200  1
  O  O0  1  0.99991600  0.24882000  0.74835100  1
  O  O1  1  0.99991600  0.24882000  0.25164900  1
  O  O2  1  0.50008200  0.24989400  0.74836200  1
  O  O3  1  0.50008200  0.24989400  0.25163800  1
  O  O4  1  0.99921100  0.75119700  0.74903400  1
  O  O5  1  0.99921100  0.75119700  0.25096600  1
  O  O6  1  0.50078500  0.75010600  0.74905100  1
  O  O7  1  0.50078500  0.75010600  0.25094900  1
  O  O8  1  0.75118000  0.00008400  0.74835100  1
  O  O9  1  0.75118000  0.00008400  0.25164900  1
  O  O10  1  0.24880300  0.00078900  0.74903400  1
  O  O11  1  0.24880300  0.00078900  0.25096600  1
  O  O12  1  0.75010600  0.49991800  0.74836200  1
  O  O13  1  0.75010600  0.49991800  0.25163800  1
  O  O14  1  0.24989400  0.49921500  0.74905100  1
  O  O15  1  0.24989400  0.49921500  0.25094900  1
  O  O16  1  0.99990800  0.00009200  0.00000000  1
  O  O17  1  0.99922400  0.00077600  0.50000000  1
  O  O18  1  0.50008900  0.00008400  0.00000000  1
  O  O19  1  0.50076700  0.00076400  0.50000000  1
  O  O20  1  0.99991600  0.49991100  0.00000000  1
  O  O21  1  0.99923600  0.49923300  0.50000000  1
  O  O22  1  0.50008300  0.49991700  0.00000000  1
  O  O23  1  0.50077200  0.49922800  0.50000000  1
loop_
_geom_bond_atom_site_label_1
_geom_bond_atom_site_label_2
_geom_bond_distance
_geom_bond_site_symmetry_2
K0 O22 2.847559 1_555
K0 O20 2.848477 1_555
K0 O18 2.848477 1_555
K0 O16 2.849691 1_555
K0 O3 2.857591 1_555
K0 O2 2.857591 1_554
K0 O13 2.857591 1_555
K0 O12 2.857591 1_554
K0 O1 2.858774 1_555
K0 O0 2.858774 1_554
K0 O9 2.858774 1_555
K0 O8 2.858774 1_554
K1 O22 2.848540 1_555
K1 O20 2.849583 1_455
K1 O18 2.849662 1_555
K1 O15 2.849750 1_555
K1 O14 2.849750 1_554
K1 O16 2.850386 1_455
K1 O11 2.850774 1_555
K1 O10 2.850774 1_554
K1 O3 2.858625 1_555
K1 O2 2.858625 1_554
K1 O1 2.859625 1_455
K1 O0 2.859625 1_454
K2 O22 2.848540 1_555
K2 O18 2.849583 1_565
K2 O20 2.849662 1_555
K2 O7 2.849750 1_555
K2 O6 2.849750 1_554
K2 O16 2.850386 1_565
K2 O5 2.850774 1_555
K2 O4 2.850774 1_554
K2 O12 2.858625 1_554
K2 O13 2.858625 1_555
K2 O8 2.859625 1_564
K2 O9 2.859625 1_565
K3 O22 2.849520 1_555
K3 O18 2.850449 1_565
K3 O20 2.850449 1_455
K3 O16 2.851720 1_465
K3 O7 2.858623 1_555
K3 O6 2.858623 1_554
K3 O15 2.858623 1_555
K3 O14 2.858623 1_554
K3 O11 2.859810 1_565
K3 O5 2.859810 1_455
K3 O10 2.859810 1_564
K3 O4 2.859810 1_454
K4 O6 2.847853 1_555
K4 O14 2.847853 1_555
K4 O7 2.847853 1_555
K4 O15 2.847853 1_555
K4 O4 2.848793 1_455
K4 O10 2.848793 1_565
K4 O5 2.848793 1_455
K4 O11 2.848793 1_565
K4 O23 2.857430 1_555
K4 O19 2.858188 1_565
K4 O21 2.858188 1_455
K4 O17 2.859459 1_465
Na0 O0 2.839410 1_555
Na0 O1 2.839410 1_555
Na0 O8 2.839410 1_555
Na0 O9 2.839410 1_555
Na0 O2 2.839491 1_555
Na0 O3 2.839491 1_555
Na0 O12 2.839491 1_555
Na0 O13 2.839491 1_555
Na0 O21 2.840738 1_555
Na0 O19 2.840738 1_555
Na0 O17 2.840754 1_555
Na0 O23 2.840846 1_555
Na1 O10 2.839304 1_555
Na1 O11 2.839304 1_555
Na1 O14 2.839362 1_555
Na1 O15 2.839362 1_555
Na1 O0 2.840399 1_455
Na1 O1 2.840399 1_455
Na1 O2 2.840400 1_555
Na1 O3 2.840400 1_555
Na1 O23 2.849437 1_555
Na1 O17 2.849517 1_455
Na1 O21 2.849613 1_455
Na1 O19 2.849659 1_555
Na2 O4 2.839304 1_555
Na2 O5 2.839304 1_555
Na2 O6 2.839362 1_555
Na2 O7 2.839362 1_555
Na2 O8 2.840399 1_565
Na2 O9 2.840399 1_565
Na2 O12 2.840400 1_555
Na2 O13 2.840400 1_555
Na2 O23 2.849437 1_555
Na2 O17 2.849517 1_565
Na2 O19 2.849613 1_565
Na2 O21 2.849659 1_555
Nb0 O19 2.009182 1_555
Nb0 O2 2.012335 1_555
Nb0 O6 2.015840 1_545
Nb0 O18 2.019906 1_556
Nb0 O8 2.022708 1_555
Nb0 O10 2.026334 1_555
Nb1 O19 2.009182 1_555
Nb1 O3 2.012335 1_555
Nb1 O7 2.015840 1_545
Nb1 O18 2.019906 1_555
Nb1 O9 2.022708 1_555
Nb1 O11 2.026334 1_555
Nb2 O21 2.009182 1_555
Nb2 O12 2.012335 1_555
Nb2 O14 2.015840 1_655
Nb2 O20 2.019906 1_556
Nb2 O0 2.022708 1_555
Nb2 O4 2.026334 1_555
Nb3 O21 2.009182 1_555
Nb3 O13 2.012335 1_555
Nb3 O15 2.015840 1_655
Nb3 O20 2.019906 1_555
Nb3 O1 2.022708 1_555
Nb3 O5 2.026334 1_555
Nb4 O23 2.009214 1_555
Nb4 O12 2.014012 1_555
Nb4 O2 2.014012 1_555
Nb4 O6 2.017581 1_555
Nb4 O14 2.017581 1_555
Nb4 O22 2.019874 1_556
Nb5 O23 2.009214 1_555
Nb5 O13 2.014012 1_555
Nb5 O3 2.014012 1_555
Nb5 O7 2.017581 1_555
Nb5 O15 2.017581 1_555
Nb5 O22 2.019874 1_555
O0 Ta0 2.003550 1_555
O1 Ta1 2.003550 1_555
O4 Ta0 2.007175 1_565
O5 Ta1 2.007175 1_565
O8 Ta0 2.003550 1_555
O9 Ta1 2.003550 1_555
O10 Ta0 2.007175 1_455
O11 Ta1 2.007175 1_455
O16 Ta1 2.020140 1_555
O16 Ta0 2.020140 1_554
O17 Ta0 2.008948 1_555
O17 Ta1 2.008948 1_555
