# generated using pymatgen
data_LiCrO2
_symmetry_space_group_name_H-M   'P 1'
_cell_length_a   3.53613636
_cell_length_b   3.53613636
_cell_length_c   3.53613636
_cell_angle_alpha   60.00000000
_cell_angle_beta   60.00000000
_cell_angle_gamma   60.00000000
_symmetry_Int_Tables_number   1
_chemical_formula_structural   LiCrO2
_chemical_formula_sum   'Li1 Cr1 O2'
_cell_volume   31.26597772
_cell_formula_units_Z   1
loop_
 _symmetry_equiv_pos_site_id
 _symmetry_equiv_pos_as_xyz
  1  'x, y, z'
loop_
 _atom_site_type_symbol
 _atom_site_label
 _atom_site_symmetry_multiplicity
 _atom_site_fract_x
 _atom_site_fract_y
 _atom_site_fract_z
 _atom_site_occupancy
  Li  Li0  1  0.50000000  0.50000000  0.50000000  1
  Cr  Cr0  1  0.00000000  0.00000000  0.00000000  1
  O  O0  1  0.25000000  0.25000000  0.25000000  1
  O  O1  1  0.75000000  0.75000000  0.75000000  1
loop_
_geom_bond_atom_site_label_1
_geom_bond_atom_site_label_2
_geom_bond_distance
_geom_bond_site_symmetry_2
Li0 O1 2.165432 1_555
Li0 O1 2.165432 1_455
Li0 O0 2.165432 1_555
Li0 O1 2.165432 1_554
Li0 O0 2.165432 1_655
Li0 O0 2.165432 1_565
Li0 O1 2.165432 1_545
Li0 O0 2.165432 1_556
Cr0 O1 2.165432 1_454
Cr0 O0 2.165432 1_555
Cr0 O0 2.165432 1_545
Cr0 O1 2.165432 1_544
Cr0 O0 2.165432 1_455
Cr0 O1 2.165432 1_444
Cr0 O1 2.165432 1_445
Cr0 O0 2.165432 1_554
