# generated using pymatgen
data_SmCrGe3
_symmetry_space_group_name_H-M   'P 1'
_cell_length_a   6.13334065
_cell_length_b   6.13334065
_cell_length_c   5.71397200
_cell_angle_alpha   90.00000000
_cell_angle_beta   90.00000000
_cell_angle_gamma   120.00000701
_symmetry_Int_Tables_number   1
_chemical_formula_structural   SmCrGe3
_chemical_formula_sum   'Sm2 Cr2 Ge6'
_cell_volume   186.14993187
_cell_formula_units_Z   2
loop_
 _symmetry_equiv_pos_site_id
 _symmetry_equiv_pos_as_xyz
  1  'x, y, z'
loop_
 _atom_site_type_symbol
 _atom_site_label
 _atom_site_symmetry_multiplicity
 _atom_site_fract_x
 _atom_site_fract_y
 _atom_site_fract_z
 _atom_site_occupancy
  Sm  Sm0  1  0.66666700  0.33333300  0.25000000  1
  Sm  Sm1  1  0.33333300  0.66666700  0.75000000  1
  Cr  Cr0  1  0.00000000  0.00000000  0.50000000  1
  Cr  Cr1  1  0.00000000  0.00000000  0.00000000  1
  Ge  Ge0  1  0.19239100  0.38478300  0.25000000  1
  Ge  Ge1  1  0.80760900  0.19239100  0.75000000  1
  Ge  Ge2  1  0.38478300  0.19239100  0.75000000  1
  Ge  Ge3  1  0.61521700  0.80760900  0.25000000  1
  Ge  Ge4  1  0.19239100  0.80760900  0.25000000  1
  Ge  Ge5  1  0.80760900  0.61521700  0.75000000  1
loop_
_geom_bond_atom_site_label_1
_geom_bond_atom_site_label_2
_geom_bond_distance
_geom_bond_site_symmetry_2
Cr0 Ge1 2.493550 1_455
Cr0 Ge4 2.493550 1_545
Cr0 Ge2 2.493554 1_555
Cr0 Ge5 2.493554 1_445
Cr0 Ge0 2.493554 1_555
Cr0 Ge3 2.493554 1_445
Cr1 Ge1 2.493550 1_454
Cr1 Ge4 2.493550 1_545
Cr1 Ge2 2.493554 1_554
Cr1 Ge5 2.493554 1_444
Cr1 Ge0 2.493554 1_555
Cr1 Ge3 2.493554 1_445
Ge0 Ge3 2.593336 1_555
Ge0 Ge4 2.593336 1_555
Ge0 Sm0 3.078817 1_455
Ge0 Sm0 3.078829 1_555
Ge0 Sm1 3.225549 1_554
Ge0 Sm1 3.225549 1_555
Ge1 Ge5 2.593336 1_555
Ge1 Ge2 2.593336 1_555
Ge1 Sm1 3.078822 1_545
Ge1 Sm1 3.078822 1_655
Ge1 Sm0 3.225549 1_556
Ge1 Sm0 3.225549 1_555
Ge2 Ge5 2.593336 1_555
Ge2 Sm1 3.078817 1_545
Ge2 Sm1 3.078829 1_555
Ge2 Sm0 3.225549 1_556
Ge2 Sm0 3.225549 1_555
Ge3 Ge4 2.593336 1_555
Ge3 Sm0 3.078817 1_565
Ge3 Sm0 3.078829 1_555
Ge3 Sm1 3.225549 1_554
Ge3 Sm1 3.225549 1_555
Ge4 Sm0 3.078822 1_455
Ge4 Sm0 3.078822 1_565
Ge4 Sm1 3.225549 1_555
Ge4 Sm1 3.225549 1_554
Ge5 Sm1 3.078817 1_655
Ge5 Sm1 3.078829 1_555
Ge5 Sm0 3.225549 1_556
Ge5 Sm0 3.225549 1_555
