# generated using pymatgen
data_Ba6Nb9CoO30
_symmetry_space_group_name_H-M   'P 1'
_cell_length_a   12.79869855
_cell_length_b   12.79869855
_cell_length_c   4.05897100
_cell_angle_alpha   90.00000000
_cell_angle_beta   90.00000000
_cell_angle_gamma   90.27222028
_symmetry_Int_Tables_number   1
_chemical_formula_structural   Ba6Nb9CoO30
_chemical_formula_sum   'Ba6 Nb9 Co1 O30'
_cell_volume   664.87907812
_cell_formula_units_Z   1
loop_
 _symmetry_equiv_pos_site_id
 _symmetry_equiv_pos_as_xyz
  1  'x, y, z'
loop_
 _atom_site_type_symbol
 _atom_site_label
 _atom_site_symmetry_multiplicity
 _atom_site_fract_x
 _atom_site_fract_y
 _atom_site_fract_z
 _atom_site_occupancy
  Ba  Ba0  1  0.34335600  0.34335600  0.00243300  1
  Ba  Ba1  1  0.65664400  0.65664400  0.00243300  1
  Ba  Ba2  1  0.82437600  0.17562400  0.99480700  1
  Ba  Ba3  1  0.17562400  0.82437600  0.99480700  1
  Ba  Ba4  1  0.50000000  0.00000000  0.00505600  1
  Ba  Ba5  1  0.00000000  0.50000000  0.00505600  1
  Nb  Nb0  1  0.42748900  0.78103000  0.51244200  1
  Nb  Nb1  1  0.57251100  0.21897000  0.51244200  1
  Nb  Nb2  1  0.92440900  0.71272500  0.52618400  1
  Nb  Nb3  1  0.07559100  0.28727500  0.52618400  1
  Nb  Nb4  1  0.71272500  0.92440900  0.52618400  1
  Nb  Nb5  1  0.28727500  0.07559100  0.52618400  1
  Nb  Nb6  1  0.78103000  0.42748900  0.51244200  1
  Nb  Nb7  1  0.21897000  0.57251100  0.51244200  1
  Nb  Nb8  1  0.00000000  0.00000000  0.45120100  1
  Co  Co0  1  0.50000000  0.50000000  0.49678800  1
  O  O0  1  0.15527600  0.99416900  0.49970800  1
  O  O1  1  0.84472400  0.00583100  0.49970800  1
  O  O2  1  0.65706300  0.50538800  0.49653300  1
  O  O3  1  0.34293700  0.49461200  0.49653300  1
  O  O4  1  0.50538800  0.65706300  0.49653300  1
  O  O5  1  0.49461200  0.34293700  0.49653300  1
  O  O6  1  0.99416900  0.15527600  0.49970800  1
  O  O7  1  0.00583100  0.84472400  0.49970800  1
  O  O8  1  0.21824600  0.21824600  0.49146100  1
  O  O9  1  0.78175400  0.78175400  0.49146100  1
  O  O10  1  0.71899600  0.28100400  0.49175400  1
  O  O11  1  0.28100400  0.71899600  0.49175400  1
  O  O12  1  0.41794200  0.79473400  0.99235400  1
  O  O13  1  0.58205800  0.20526600  0.99235400  1
  O  O14  1  0.91919800  0.70498500  0.99268500  1
  O  O15  1  0.08080200  0.29501500  0.99268500  1
  O  O16  1  0.70498500  0.91919800  0.99268500  1
  O  O17  1  0.29501500  0.08080200  0.99268500  1
  O  O18  1  0.79473400  0.41794200  0.99235400  1
  O  O19  1  0.20526600  0.58205800  0.99235400  1
  O  O20  1  0.50000000  0.50000000  0.99798600  1
  O  O21  1  0.00000000  0.00000000  0.99478800  1
  O  O22  1  0.35702700  0.93501300  0.49295400  1
  O  O23  1  0.64297300  0.06498700  0.49295400  1
  O  O24  1  0.85984200  0.56585100  0.49309400  1
  O  O25  1  0.14015800  0.43414900  0.49309400  1
  O  O26  1  0.56585100  0.85984200  0.49309400  1
  O  O27  1  0.43414900  0.14015800  0.49309400  1
  O  O28  1  0.93501300  0.35702700  0.49295400  1
  O  O29  1  0.06498700  0.64297300  0.49295400  1
loop_
_geom_bond_atom_site_label_1
_geom_bond_atom_site_label_2
_geom_bond_distance
_geom_bond_site_symmetry_2
Ba0 O5 2.787461 1_555
Ba0 O3 2.787461 1_555
Ba0 O5 2.822118 1_554
Ba0 O3 2.822118 1_554
Ba0 O20 2.828585 1_554
Ba0 O8 3.007264 1_555
Ba0 O8 3.066785 1_554
Ba1 O4 2.787461 1_555
Ba1 O2 2.787461 1_555
Ba1 O2 2.822118 1_554
Ba1 O4 2.822118 1_554
Ba1 O20 2.828585 1_554
Ba1 O9 3.007264 1_555
Ba1 O9 3.066785 1_554
Ba2 O10 2.779223 1_556
Ba2 O10 2.797262 1_555
Ba2 O6 2.972230 1_555
Ba2 O1 2.972230 1_555
Ba2 O6 2.999274 1_556
Ba2 O1 2.999274 1_556
Ba2 O18 3.126277 1_555
Ba2 O13 3.126277 1_555
Ba2 O21 3.186353 1_655
Ba2 O28 3.384166 1_556
Ba2 O23 3.384166 1_556
Ba2 O28 3.393175 1_555
Ba2 O23 3.393175 1_555
Ba3 O11 2.779223 1_556
Ba3 O11 2.797262 1_555
Ba3 O7 2.972230 1_555
Ba3 O0 2.972230 1_555
Ba3 O0 2.999274 1_556
Ba3 O7 2.999274 1_556
Ba3 O12 3.126277 1_555
Ba3 O19 3.126277 1_555
Ba3 O21 3.186353 1_565
Ba3 O22 3.384166 1_556
Ba3 O29 3.384166 1_556
Ba3 O22 3.393175 1_555
Ba3 O29 3.393175 1_555
Ba4 O27 2.804754 1_555
Ba4 O26 2.804754 1_545
Ba4 O23 2.819149 1_555
Ba4 O22 2.819149 1_545
Ba4 O16 2.825024 1_544
Ba4 O17 2.825024 1_554
Ba4 O12 2.825117 1_544
Ba4 O13 2.825117 1_554
Ba4 O27 2.874160 1_554
Ba4 O26 2.874160 1_544
Ba4 O22 2.889008 1_544
Ba4 O23 2.889008 1_554
Ba5 O25 2.804754 1_555
Ba5 O24 2.804754 1_455
Ba5 O29 2.819149 1_555
Ba5 O28 2.819149 1_455
Ba5 O14 2.825024 1_454
Ba5 O15 2.825024 1_554
Ba5 O19 2.825117 1_554
Ba5 O18 2.825117 1_454
Ba5 O24 2.874160 1_454
Ba5 O25 2.874160 1_554
Ba5 O28 2.889008 1_454
Ba5 O29 2.889008 1_554
Nb0 O4 1.878982 1_555
Nb0 O12 1.959694 1_555
Nb0 O11 2.034259 1_555
Nb0 O26 2.035331 1_555
Nb0 O12 2.121865 1_554
Nb0 O22 2.172650 1_555
Nb1 O5 1.878982 1_555
Nb1 O13 1.959694 1_555
Nb1 O10 2.034259 1_555
Nb1 O27 2.035331 1_555
Nb1 O13 2.121865 1_554
Nb1 O23 2.172650 1_555
Nb2 O14 1.897260 1_555
Nb2 O7 1.983660 1_655
Nb2 O29 2.016831 1_655
Nb2 O9 2.036976 1_555
Nb2 O24 2.054216 1_555
Nb2 O14 2.168733 1_554
Nb3 O15 1.897260 1_555
Nb3 O6 1.983660 1_455
Nb3 O28 2.016831 1_455
Nb3 O8 2.036976 1_555
Nb3 O25 2.054216 1_555
Nb3 O15 2.168733 1_554
Nb4 O16 1.897260 1_555
Nb4 O1 1.983660 1_565
Nb4 O23 2.016831 1_565
Nb4 O9 2.036976 1_555
Nb4 O26 2.054216 1_555
Nb4 O16 2.168733 1_554
Nb5 O17 1.897260 1_555
Nb5 O0 1.983660 1_545
Nb5 O22 2.016831 1_545
Nb5 O8 2.036976 1_555
Nb5 O27 2.054216 1_555
Nb5 O17 2.168733 1_554
Nb6 O2 1.878982 1_555
Nb6 O18 1.959694 1_555
Nb6 O10 2.034259 1_555
Nb6 O24 2.035331 1_555
Nb6 O18 2.121865 1_554
Nb6 O28 2.172650 1_555
Nb7 O3 1.878982 1_555
Nb7 O19 1.959694 1_555
Nb7 O11 2.034259 1_555
Nb7 O25 2.035331 1_555
Nb7 O19 2.121865 1_554
Nb7 O29 2.172650 1_555
Nb8 O21 1.852567 1_554
Nb8 O7 1.998806 1_545
Nb8 O1 1.998806 1_455
Nb8 O0 1.998806 1_545
Nb8 O6 1.998806 1_455
Nb8 O21 2.206404 1_555
Co0 O4 2.011057 1_555
Co0 O2 2.011057 1_555
Co0 O3 2.011057 1_555
Co0 O5 2.011057 1_555
Co0 O20 2.024623 1_554
Co0 O20 2.034348 1_555
