# generated using pymatgen
data_K2ErF5
_symmetry_space_group_name_H-M   'P 1'
_cell_length_a   6.52263281
_cell_length_b   7.15782682
_cell_length_c   10.68253297
_cell_angle_alpha   90.00000000
_cell_angle_beta   90.00000000
_cell_angle_gamma   90.00000000
_symmetry_Int_Tables_number   1
_chemical_formula_structural   K2ErF5
_chemical_formula_sum   'K8 Er4 F20'
_cell_volume   498.74477536
_cell_formula_units_Z   4
loop_
 _symmetry_equiv_pos_site_id
 _symmetry_equiv_pos_as_xyz
  1  'x, y, z'
loop_
 _atom_site_type_symbol
 _atom_site_label
 _atom_site_symmetry_multiplicity
 _atom_site_fract_x
 _atom_site_fract_y
 _atom_site_fract_z
 _atom_site_occupancy
  K  K0  1  0.53712589  0.99678779  0.82906260  1
  K  K1  1  0.46287411  0.49678779  0.17093740  1
  K  K2  1  0.96287411  0.99678779  0.32906260  1
  K  K3  1  0.03712589  0.49678779  0.67093740  1
  K  K4  1  0.53712589  0.50321221  0.82906260  1
  K  K5  1  0.46287411  0.00321221  0.17093740  1
  K  K6  1  0.96287411  0.50321221  0.32906260  1
  K  K7  1  0.03712589  0.00321221  0.67093740  1
  Er  Er0  1  0.56507673  0.25000000  0.50298163  1
  Er  Er1  1  0.43492327  0.75000000  0.49701837  1
  Er  Er2  1  0.93492327  0.25000000  0.00298163  1
  Er  Er3  1  0.06507673  0.75000000  0.99701837  1
  F  F0  1  0.87309308  0.75000000  0.83239352  1
  F  F1  1  0.12690692  0.25000000  0.16760648  1
  F  F2  1  0.62690692  0.75000000  0.33239352  1
  F  F3  1  0.37309308  0.25000000  0.66760648  1
  F  F4  1  0.84038563  0.25000000  0.80806801  1
  F  F5  1  0.15961437  0.75000000  0.19193199  1
  F  F6  1  0.65961437  0.25000000  0.30806801  1
  F  F7  1  0.34038563  0.75000000  0.69193199  1
  F  F8  1  0.64881403  0.96420903  0.57441838  1
  F  F9  1  0.35118597  0.46420903  0.42558162  1
  F  F10  1  0.85118597  0.96420903  0.07441838  1
  F  F11  1  0.14881403  0.46420903  0.92558162  1
  F  F12  1  0.39521694  0.75000000  0.98697358  1
  F  F13  1  0.60478306  0.25000000  0.01302642  1
  F  F14  1  0.10478306  0.75000000  0.48697358  1
  F  F15  1  0.89521694  0.25000000  0.51302642  1
  F  F16  1  0.14881403  0.03579097  0.92558162  1
  F  F17  1  0.85118597  0.53579097  0.07441838  1
  F  F18  1  0.35118597  0.03579097  0.42558162  1
  F  F19  1  0.64881403  0.53579097  0.57441838  1
loop_
_geom_bond_atom_site_label_1
_geom_bond_atom_site_label_2
_geom_bond_distance
_geom_bond_site_symmetry_2
Er0 F15 2.156055 1_555
Er0 F3 2.158892 1_555
Er0 F6 2.171560 1_555
Er0 F18 2.231805 1_555
Er0 F9 2.231805 1_555
Er0 F19 2.250630 1_555
Er0 F8 2.250630 1_545
Er1 F14 2.156055 1_555
Er1 F2 2.158892 1_555
Er1 F7 2.171560 1_555
Er1 F8 2.231805 1_555
Er1 F19 2.231805 1_555
Er1 F9 2.250630 1_555
Er1 F18 2.250630 1_565
Er2 F13 2.156055 1_555
Er2 F1 2.158892 1_655
Er2 F4 2.171560 1_554
Er2 F16 2.231805 1_654
Er2 F11 2.231805 1_654
Er2 F10 2.250630 1_545
Er2 F17 2.250630 1_555
Er3 F12 2.156055 1_555
Er3 F0 2.158892 1_455
Er3 F5 2.171560 1_556
Er3 F17 2.231805 1_456
Er3 F10 2.231805 1_456
Er3 F11 2.250630 1_555
Er3 F16 2.250630 1_565
F0 K3 2.721123 1_655
F0 K7 2.721123 1_665
F0 K4 2.814934 1_555
F0 K0 2.814934 1_555
F1 K2 2.721123 1_445
F1 K6 2.721123 1_455
F1 K1 2.814934 1_555
F1 K5 2.814934 1_555
F2 K1 2.721123 1_555
F2 K5 2.721123 1_565
F2 K6 2.814934 1_555
F2 K2 2.814934 1_555
F3 K0 2.721123 1_545
F3 K4 2.721123 1_555
F3 K3 2.814934 1_555
F3 K7 2.814934 1_555
F4 K3 2.629278 1_655
F4 K7 2.629278 1_655
F4 K0 2.692204 1_545
F4 K4 2.692204 1_555
F5 K6 2.629278 1_455
F5 K2 2.629278 1_455
F5 K5 2.692204 1_565
F5 K1 2.692204 1_555
F6 K5 2.629278 1_555
F6 K1 2.629278 1_555
F6 K2 2.692204 1_545
F6 K6 2.692204 1_555
F7 K4 2.629278 1_555
F7 K0 2.629278 1_555
F7 K7 2.692204 1_565
F7 K3 2.692204 1_555
F8 K7 2.748854 1_665
F8 K0 2.825744 1_555
F9 K6 2.748854 1_455
F9 K1 2.825744 1_555
F10 K5 2.748854 1_565
F10 K2 2.825744 1_555
F11 K4 2.748854 1_555
F11 K3 2.825744 1_555
F12 K4 2.612042 1_555
F12 K0 2.612042 1_555
F12 K1 2.709563 1_556
F12 K5 2.709563 1_566
F13 K5 2.612042 1_555
F13 K1 2.612042 1_555
F13 K0 2.709563 1_544
F13 K4 2.709563 1_554
F14 K6 2.612042 1_455
F14 K2 2.612042 1_455
F14 K3 2.709563 1_555
F14 K7 2.709563 1_565
F15 K3 2.612042 1_655
F15 K7 2.612042 1_655
F15 K2 2.709563 1_545
F15 K6 2.709563 1_555
F16 K0 2.748854 1_545
F16 K7 2.825744 1_555
F17 K1 2.748854 1_555
F17 K6 2.825744 1_555
F18 K2 2.748854 1_445
F18 K5 2.825744 1_555
F19 K3 2.748854 1_655
F19 K4 2.825744 1_555
