# generated using pymatgen
data_CsSmZnTe3
_symmetry_space_group_name_H-M   'P 1'
_cell_length_a   4.49403200
_cell_length_b   8.95908797
_cell_length_c   11.92241400
_cell_angle_alpha   90.00000000
_cell_angle_beta   90.00000000
_cell_angle_gamma   104.52536407
_symmetry_Int_Tables_number   1
_chemical_formula_structural   CsSmZnTe3
_chemical_formula_sum   'Cs2 Sm2 Zn2 Te6'
_cell_volume   464.68214428
_cell_formula_units_Z   2
loop_
 _symmetry_equiv_pos_site_id
 _symmetry_equiv_pos_as_xyz
  1  'x, y, z'
loop_
 _atom_site_type_symbol
 _atom_site_label
 _atom_site_symmetry_multiplicity
 _atom_site_fract_x
 _atom_site_fract_y
 _atom_site_fract_z
 _atom_site_occupancy
  Cs  Cs0  1  0.74705600  0.49411200  0.75000000  1
  Cs  Cs1  1  0.25294400  0.50588800  0.25000000  1
  Sm  Sm0  1  0.00000000  0.00000000  0.00000000  1
  Sm  Sm1  1  0.00000000  0.00000000  0.50000000  1
  Zn  Zn0  1  0.46486300  0.92972600  0.75000000  1
  Zn  Zn1  1  0.53513700  0.07027400  0.25000000  1
  Te  Te0  1  0.38016400  0.76032800  0.56302000  1
  Te  Te1  1  0.61983600  0.23967200  0.43698000  1
  Te  Te2  1  0.93938300  0.87876600  0.25000000  1
  Te  Te3  1  0.06061700  0.12123400  0.75000000  1
  Te  Te4  1  0.38016400  0.76032800  0.93698000  1
  Te  Te5  1  0.61983600  0.23967200  0.06302000  1
loop_
_geom_bond_atom_site_label_1
_geom_bond_atom_site_label_2
_geom_bond_distance
_geom_bond_site_symmetry_2
Cs0 Te4 3.917817 1_655
Cs0 Te0 3.917817 1_655
Cs0 Te0 3.917817 1_555
Cs0 Te4 3.917817 1_555
Cs0 Te3 3.937891 1_655
Cs0 Te3 3.937891 1_555
Cs0 Te1 4.335545 1_555
Cs0 Te5 4.335545 1_556
Cs1 Te1 3.917817 1_555
Cs1 Te5 3.917817 1_555
Cs1 Te5 3.917817 1_455
Cs1 Te1 3.917817 1_455
Cs1 Te2 3.937891 1_455
Cs1 Te2 3.937891 1_555
Cs1 Te4 4.335545 1_554
Cs1 Te0 4.335545 1_555
Sm0 Te4 3.151861 1_544
Sm0 Te4 3.151861 1_444
Sm0 Te5 3.151861 1_555
Sm0 Te5 3.151861 1_455
Sm0 Te2 3.160617 1_445
Sm0 Te3 3.160617 1_554
Sm1 Te0 3.151861 1_445
Sm1 Te0 3.151861 1_545
Sm1 Te1 3.151861 1_455
Sm1 Te1 3.151861 1_555
Sm1 Te3 3.160617 1_555
Sm1 Te2 3.160617 1_445
Te0 Zn0 2.669822 1_555
Te1 Zn1 2.669822 1_555
Te2 Zn1 2.794219 1_565
Te2 Zn1 2.794219 1_665
Te3 Zn0 2.794219 1_445
Te3 Zn0 2.794219 1_545
Te4 Zn0 2.669822 1_555
Te5 Zn1 2.669822 1_555
