# generated using pymatgen
data_Li6La3(SbO6)2
_symmetry_space_group_name_H-M   'P 1'
_cell_length_a   11.31386326
_cell_length_b   11.31386326
_cell_length_c   11.31386326
_cell_angle_alpha   109.47122063
_cell_angle_beta   109.47122063
_cell_angle_gamma   109.47122063
_symmetry_Int_Tables_number   1
_chemical_formula_structural   Li6La3(SbO6)2
_chemical_formula_sum   'Li24 La12 Sb8 O48'
_cell_volume   1114.83574764
_cell_formula_units_Z   4
loop_
 _symmetry_equiv_pos_site_id
 _symmetry_equiv_pos_as_xyz
  1  'x, y, z'
loop_
 _atom_site_type_symbol
 _atom_site_label
 _atom_site_symmetry_multiplicity
 _atom_site_fract_x
 _atom_site_fract_y
 _atom_site_fract_z
 _atom_site_occupancy
  Li  Li0  1  0.06962400  0.10885900  0.82151000  1
  Li  Li1  1  0.43037600  0.25188600  0.03923500  1
  Li  Li2  1  0.71265100  0.39114100  0.46076500  1
  Li  Li3  1  0.10885900  0.82151000  0.06962400  1
  Li  Li4  1  0.78734900  0.24811400  0.67849000  1
  Li  Li5  1  0.25188600  0.03923500  0.43037600  1
  Li  Li6  1  0.39114100  0.46076500  0.71265100  1
  Li  Li7  1  0.24811400  0.67849000  0.78734900  1
  Li  Li8  1  0.82151000  0.06962400  0.10885900  1
  Li  Li9  1  0.46076500  0.71265100  0.39114100  1
  Li  Li10  1  0.67849000  0.78734900  0.24811400  1
  Li  Li11  1  0.03923500  0.43037600  0.25188600  1
  Li  Li12  1  0.17849000  0.93037600  0.89114100  1
  Li  Li13  1  0.32151000  0.21265100  0.75188600  1
  Li  Li14  1  0.96076500  0.56962400  0.74811400  1
  Li  Li15  1  0.93037600  0.89114100  0.17849000  1
  Li  Li16  1  0.53923500  0.28734900  0.60885900  1
  Li  Li17  1  0.21265100  0.75188600  0.32151000  1
  Li  Li18  1  0.56962400  0.74811400  0.96076500  1
  Li  Li19  1  0.28734900  0.60885900  0.53923500  1
  Li  Li20  1  0.89114100  0.17849000  0.93037600  1
  Li  Li21  1  0.74811400  0.96076500  0.56962400  1
  Li  Li22  1  0.60885900  0.53923500  0.28734900  1
  Li  Li23  1  0.75188600  0.32151000  0.21265100  1
  La  La0  1  0.88025100  0.63025100  0.25000000  1
  La  La1  1  0.61974900  0.86974900  0.75000000  1
  La  La2  1  0.63025100  0.25000000  0.88025100  1
  La  La3  1  0.86974900  0.75000000  0.61974900  1
  La  La4  1  0.25000000  0.88025100  0.63025100  1
  La  La5  1  0.75000000  0.61974900  0.86974900  1
  La  La6  1  0.38025100  0.13025100  0.25000000  1
  La  La7  1  0.11974900  0.36974900  0.75000000  1
  La  La8  1  0.13025100  0.25000000  0.38025100  1
  La  La9  1  0.36974900  0.75000000  0.11974900  1
  La  La10  1  0.25000000  0.38025100  0.13025100  1
  La  La11  1  0.75000000  0.11974900  0.36974900  1
  Sb  Sb0  1  0.50000000  0.50000000  0.50000000  1
  Sb  Sb1  1  0.00000000  0.50000000  0.00000000  1
  Sb  Sb2  1  0.00000000  0.00000000  0.50000000  1
  Sb  Sb3  1  0.50000000  0.00000000  0.00000000  1
  Sb  Sb4  1  0.00000000  0.00000000  0.00000000  1
  Sb  Sb5  1  0.50000000  0.50000000  0.00000000  1
  Sb  Sb6  1  0.00000000  0.50000000  0.50000000  1
  Sb  Sb7  1  0.50000000  0.00000000  0.50000000  1
  O  O0  1  0.03057600  0.31792000  0.91247000  1
  O  O1  1  0.46942400  0.38189400  0.28734300  1
  O  O2  1  0.59455100  0.18208000  0.21265700  1
  O  O3  1  0.31792000  0.91247000  0.03057600  1
  O  O4  1  0.90544900  0.11810600  0.58753000  1
  O  O5  1  0.38189400  0.28734300  0.46942400  1
  O  O6  1  0.18208000  0.21265700  0.59455100  1
  O  O7  1  0.11810600  0.58753000  0.90544900  1
  O  O8  1  0.91247000  0.03057600  0.31792000  1
  O  O9  1  0.21265700  0.59455100  0.18208000  1
  O  O10  1  0.58753000  0.90544900  0.11810600  1
  O  O11  1  0.28734300  0.46942400  0.38189400  1
  O  O12  1  0.88416000  0.98527100  0.80940800  1
  O  O13  1  0.61584000  0.42524800  0.10111100  1
  O  O14  1  0.82413700  0.51472900  0.39888900  1
  O  O15  1  0.98527100  0.80940800  0.88416000  1
  O  O16  1  0.67586300  0.07475200  0.69059200  1
  O  O17  1  0.42524800  0.10111100  0.61584000  1
  O  O18  1  0.51472900  0.39888900  0.82413700  1
  O  O19  1  0.07475200  0.69059200  0.67586300  1
  O  O20  1  0.80940800  0.88416000  0.98527100  1
  O  O21  1  0.39888900  0.82413700  0.51472900  1
  O  O22  1  0.69059200  0.67586300  0.07475200  1
  O  O23  1  0.10111100  0.61584000  0.42524800  1
  O  O24  1  0.19059200  0.11584000  0.01472900  1
  O  O25  1  0.30940800  0.32413700  0.92524800  1
  O  O26  1  0.89888900  0.38416000  0.57475200  1
  O  O27  1  0.11584000  0.01472900  0.19059200  1
  O  O28  1  0.60111100  0.17586300  0.48527100  1
  O  O29  1  0.32413700  0.92524800  0.30940800  1
  O  O30  1  0.38416000  0.57475200  0.89888900  1
  O  O31  1  0.17586300  0.48527100  0.60111100  1
  O  O32  1  0.01472900  0.19059200  0.11584000  1
  O  O33  1  0.57475200  0.89888900  0.38416000  1
  O  O34  1  0.48527100  0.60111100  0.17586300  1
  O  O35  1  0.92524800  0.30940800  0.32413700  1
  O  O36  1  0.08753000  0.96942400  0.68208000  1
  O  O37  1  0.41247000  0.09455100  0.88189400  1
  O  O38  1  0.71265700  0.53057600  0.61810600  1
  O  O39  1  0.96942400  0.68208000  0.08753000  1
  O  O40  1  0.78734300  0.40544900  0.81792000  1
  O  O41  1  0.09455100  0.88189400  0.41247000  1
  O  O42  1  0.53057600  0.61810600  0.71265700  1
  O  O43  1  0.40544900  0.81792000  0.78734300  1
  O  O44  1  0.68208000  0.08753000  0.96942400  1
  O  O45  1  0.61810600  0.71265700  0.53057600  1
  O  O46  1  0.81792000  0.78734300  0.40544900  1
  O  O47  1  0.88189400  0.41247000  0.09455100  1
loop_
_geom_bond_atom_site_label_1
_geom_bond_atom_site_label_2
_geom_bond_distance
_geom_bond_site_symmetry_2
Li0 O36 1.945571 1_545
Li0 O12 2.025250 1_445
Li0 O24 2.115757 1_556
Li0 O0 2.495153 1_555
Li0 O25 2.497203 1_555
Li1 O37 1.945564 1_554
Li1 O13 2.025250 1_555
Li1 O25 2.115757 1_554
Li1 O1 2.495144 1_555
Li1 O24 2.497203 1_555
Li2 O38 1.945564 1_555
Li2 O14 2.025250 1_555
Li2 O26 2.115757 1_555
Li2 O2 2.495148 1_555
Li2 O28 2.497203 1_555
Li3 O39 1.945571 1_455
Li3 O15 2.025250 1_454
Li3 O27 2.115757 1_565
Li3 O3 2.495153 1_555
Li3 O29 2.497203 1_555
Li4 O40 1.945570 1_555
Li4 O16 2.025250 1_555
Li4 O28 2.115757 1_555
Li4 O4 2.495144 1_555
Li4 O26 2.497203 1_555
Li5 O41 1.945564 1_545
Li5 O17 2.025250 1_555
Li5 O29 2.115757 1_545
Li5 O5 2.495144 1_555
Li5 O27 2.497203 1_555
Li6 O42 1.945564 1_555
Li6 O18 2.025250 1_555
Li6 O30 2.115757 1_555
Li6 O6 2.495148 1_555
Li6 O31 2.497203 1_555
Li7 O43 1.945570 1_555
Li7 O19 2.025250 1_555
Li7 O31 2.115757 1_555
Li7 O7 2.495144 1_555
Li7 O30 2.497203 1_555
Li8 O44 1.945571 1_554
Li8 O20 2.025250 1_544
Li8 O32 2.115757 1_655
Li8 O8 2.495153 1_555
Li8 O35 2.497203 1_555
Li9 O45 1.945564 1_555
Li9 O21 2.025250 1_555
Li9 O33 2.115757 1_555
Li9 O9 2.495148 1_555
Li9 O34 2.497203 1_555
Li10 O46 1.945570 1_555
Li10 O22 2.025250 1_555
Li10 O34 2.115757 1_555
Li10 O10 2.495144 1_555
Li10 O33 2.497203 1_555
Li11 O47 1.945564 1_455
Li11 O23 2.025250 1_555
Li11 O35 2.115757 1_455
Li11 O11 2.495144 1_555
Li11 O32 2.497203 1_555
Li12 O3 1.945571 1_556
Li12 O24 2.025250 1_566
Li12 O15 2.115757 1_455
Li12 O36 2.495153 1_555
Li12 O19 2.497203 1_555
Li13 O6 1.945570 1_555
Li13 O25 2.025250 1_555
Li13 O18 2.115757 1_555
Li13 O37 2.495144 1_555
Li13 O17 2.497203 1_555
Li14 O7 1.945564 1_655
Li14 O26 2.025250 1_555
Li14 O19 2.115757 1_655
Li14 O38 2.495144 1_555
Li14 O15 2.497203 1_555
Li15 O8 1.945571 1_565
Li15 O27 2.025250 1_665
Li15 O20 2.115757 1_554
Li15 O39 2.495153 1_555
Li15 O22 2.497203 1_555
Li16 O5 1.945564 1_555
Li16 O28 2.025250 1_555
Li16 O17 2.115757 1_555
Li16 O40 2.495148 1_555
Li16 O18 2.497203 1_555
Li17 O9 1.945570 1_555
Li17 O29 2.025250 1_555
Li17 O21 2.115757 1_555
Li17 O41 2.495144 1_555
Li17 O23 2.497203 1_555
Li18 O10 1.945564 1_556
Li18 O30 2.025250 1_555
Li18 O22 2.115757 1_556
Li18 O42 2.495144 1_555
Li18 O20 2.497203 1_555
Li19 O11 1.945564 1_555
Li19 O31 2.025250 1_555
Li19 O23 2.115757 1_555
Li19 O43 2.495148 1_555
Li19 O21 2.497203 1_555
Li20 O0 1.945571 1_655
Li20 O32 2.025250 1_656
Li20 O12 2.115757 1_545
Li20 O44 2.495153 1_555
Li20 O16 2.497203 1_555
Li21 O4 1.945564 1_565
Li21 O33 2.025250 1_555
Li21 O16 2.115757 1_565
Li21 O45 2.495144 1_555
Li21 O12 2.497203 1_555
Li22 O1 1.945564 1_555
Li22 O34 2.025250 1_555
Li22 O13 2.115757 1_555
Li22 O46 2.495148 1_555
Li22 O14 2.497203 1_555
Li23 O2 1.945570 1_555
Li23 O35 2.025250 1_555
Li23 O14 2.115757 1_555
Li23 O47 2.495144 1_555
Li23 O13 2.497203 1_555
La0 O39 2.510194 1_555
La0 O41 2.510198 1_655
La0 O46 2.515520 1_555
La0 O47 2.515529 1_555
La0 O14 2.564454 1_555
La0 O13 2.564454 1_555
La0 O23 2.717700 1_655
La0 O22 2.717700 1_555
La1 O42 2.510198 1_555
La1 O43 2.510198 1_555
La1 O45 2.515529 1_555
La1 O44 2.515533 1_565
La1 O16 2.564454 1_565
La1 O12 2.564454 1_555
La1 O20 2.717700 1_555
La1 O21 2.717700 1_555
La2 O44 2.510194 1_555
La2 O47 2.510198 1_556
La2 O40 2.515520 1_555
La2 O37 2.515529 1_555
La2 O18 2.564454 1_555
La2 O17 2.564454 1_555
La2 O13 2.717700 1_556
La2 O16 2.717700 1_555
La3 O45 2.510198 1_555
La3 O46 2.510198 1_555
La3 O38 2.515529 1_555
La3 O36 2.515533 1_655
La3 O19 2.564454 1_655
La3 O15 2.564454 1_555
La3 O12 2.717700 1_555
La3 O14 2.717700 1_555
La4 O36 2.510194 1_555
La4 O37 2.510198 1_565
La4 O43 2.515520 1_555
La4 O41 2.515529 1_555
La4 O21 2.564454 1_555
La4 O23 2.564454 1_555
La4 O17 2.717700 1_565
La4 O19 2.717700 1_555
La5 O38 2.510198 1_555
La5 O40 2.510198 1_555
La5 O42 2.515529 1_555
La5 O39 2.515533 1_556
La5 O22 2.564454 1_556
La5 O20 2.564454 1_555
La5 O15 2.717700 1_555
La5 O18 2.717700 1_555
La6 O1 2.510198 1_555
La6 O2 2.510198 1_555
La6 O5 2.515529 1_555
La6 O3 2.515533 1_545
La6 O29 2.564454 1_545
La6 O27 2.564454 1_555
La6 O28 2.717700 1_555
La6 O24 2.717700 1_555
La7 O0 2.510194 1_555
La7 O4 2.510198 1_455
La7 O6 2.515520 1_555
La7 O7 2.515529 1_555
La7 O31 2.564454 1_555
La7 O30 2.564454 1_555
La7 O25 2.717700 1_555
La7 O26 2.717700 1_455
La8 O5 2.510198 1_555
La8 O6 2.510198 1_555
La8 O11 2.515529 1_555
La8 O8 2.515533 1_455
La8 O35 2.564454 1_455
La8 O32 2.564454 1_555
La8 O31 2.717700 1_555
La8 O27 2.717700 1_555
La9 O3 2.510194 1_555
La9 O7 2.510198 1_554
La9 O9 2.515520 1_555
La9 O10 2.515529 1_555
La9 O34 2.564454 1_555
La9 O33 2.564454 1_555
La9 O29 2.717700 1_555
La9 O30 2.717700 1_554
La10 O11 2.510198 1_555
La10 O9 2.510198 1_555
La10 O1 2.515529 1_555
La10 O0 2.515533 1_554
La10 O25 2.564454 1_554
La10 O24 2.564454 1_555
La10 O34 2.717700 1_555
La10 O32 2.717700 1_555
La11 O8 2.510194 1_555
La11 O10 2.510198 1_545
La11 O2 2.515520 1_555
La11 O4 2.515529 1_555
La11 O28 2.564454 1_555
La11 O26 2.564454 1_555
La11 O35 2.717700 1_555
La11 O33 2.717700 1_545
O0 Sb1 2.165069 1_556
O1 Sb0 2.165079 1_555
O2 Sb3 2.165074 1_555
O3 Sb3 2.165069 1_565
O4 Sb2 2.165079 1_655
O5 Sb0 2.165079 1_555
O6 Sb2 2.165074 1_555
O7 Sb1 2.165079 1_556
O8 Sb2 2.165069 1_655
O9 Sb1 2.165074 1_555
O10 Sb3 2.165079 1_565
O11 Sb0 2.165079 1_555
O12 Sb4 2.031253 1_666
O13 Sb5 2.031253 1_555
O14 Sb6 2.031253 1_655
O15 Sb4 2.031253 1_666
O16 Sb7 2.031253 1_555
O17 Sb7 2.031253 1_555
O18 Sb5 2.031253 1_556
O19 Sb6 2.031253 1_555
O20 Sb4 2.031253 1_666
O21 Sb7 2.031253 1_565
O22 Sb5 2.031253 1_555
O23 Sb6 2.031253 1_555
O24 Sb4 2.031253 1_555
O25 Sb5 2.031253 1_556
O26 Sb6 2.031253 1_655
O27 Sb4 2.031253 1_555
O28 Sb7 2.031253 1_555
O29 Sb7 2.031253 1_565
O30 Sb5 2.031253 1_556
O31 Sb6 2.031253 1_555
O32 Sb4 2.031253 1_555
O33 Sb7 2.031253 1_565
O34 Sb5 2.031253 1_555
O35 Sb6 2.031253 1_655
O36 Sb2 2.165069 1_565
O37 Sb3 2.165079 1_556
O38 Sb0 2.165079 1_555
O39 Sb1 2.165069 1_655
O40 Sb1 2.165074 1_656
O41 Sb2 2.165079 1_565
O42 Sb0 2.165079 1_555
O43 Sb3 2.165074 1_566
O44 Sb3 2.165069 1_556
O45 Sb0 2.165079 1_555
O46 Sb2 2.165074 1_665
O47 Sb1 2.165079 1_655
