# generated using pymatgen
data_Tm2MgNi2
_symmetry_space_group_name_H-M   'P 1'
_cell_length_a   7.22861113
_cell_length_b   7.22861215
_cell_length_c   3.65260393
_cell_angle_alpha   90.00000000
_cell_angle_beta   90.00000000
_cell_angle_gamma   90.00000000
_symmetry_Int_Tables_number   1
_chemical_formula_structural   Tm2MgNi2
_chemical_formula_sum   'Tm4 Mg2 Ni4'
_cell_volume   190.85887848
_cell_formula_units_Z   2
loop_
 _symmetry_equiv_pos_site_id
 _symmetry_equiv_pos_as_xyz
  1  'x, y, z'
loop_
 _atom_site_type_symbol
 _atom_site_label
 _atom_site_symmetry_multiplicity
 _atom_site_fract_x
 _atom_site_fract_y
 _atom_site_fract_z
 _atom_site_occupancy
  Tm  Tm0  1  0.67016089  0.17016089  0.50000000  1
  Tm  Tm1  1  0.32983911  0.82983911  0.50000000  1
  Tm  Tm2  1  0.17016089  0.32983911  0.50000000  1
  Tm  Tm3  1  0.82983911  0.67016089  0.50000000  1
  Mg  Mg0  1  0.00000000  0.00000000  0.00000000  1
  Mg  Mg1  1  0.50000000  0.50000000  0.00000000  1
  Ni  Ni0  1  0.12164552  0.62164552  -0.00000000  1
  Ni  Ni1  1  0.87835448  0.37835448  0.00000000  1
  Ni  Ni2  1  0.62164552  0.87835448  -0.00000000  1
  Ni  Ni3  1  0.37835448  0.12164552  0.00000000  1
loop_
_geom_bond_atom_site_label_1
_geom_bond_atom_site_label_2
_geom_bond_distance
_geom_bond_site_symmetry_2
Mg0 Ni3 2.872859 1_555
Mg0 Ni2 2.872859 1_445
Mg0 Ni1 2.872859 1_455
Mg0 Ni0 2.872859 1_545
Mg1 Ni0 2.872859 1_555
Mg1 Ni1 2.872859 1_555
Mg1 Ni3 2.872859 1_555
Mg1 Ni2 2.872859 1_555
Ni0 Ni1 2.487116 1_455
Ni0 Tm1 2.804484 1_555
Ni0 Tm1 2.804484 1_554
Ni0 Tm3 2.812072 1_455
Ni0 Tm3 2.812072 1_454
Ni0 Tm2 2.812072 1_555
Ni0 Tm2 2.812072 1_554
Ni1 Tm0 2.804484 1_555
Ni1 Tm0 2.804484 1_554
Ni1 Tm2 2.812072 1_655
Ni1 Tm2 2.812072 1_654
Ni1 Tm3 2.812072 1_554
Ni1 Tm3 2.812072 1_555
Ni2 Ni3 2.487116 1_565
Ni2 Tm3 2.804484 1_554
Ni2 Tm3 2.804484 1_555
Ni2 Tm1 2.812072 1_554
Ni2 Tm1 2.812072 1_555
Ni2 Tm0 2.812072 1_565
Ni2 Tm0 2.812072 1_564
Ni3 Tm2 2.804484 1_555
Ni3 Tm2 2.804484 1_554
Ni3 Tm0 2.812072 1_555
Ni3 Tm0 2.812072 1_554
Ni3 Tm1 2.812072 1_544
Ni3 Tm1 2.812072 1_545
