# generated using pymatgen
data_Ti2ZnO4
_symmetry_space_group_name_H-M   'P 1'
_cell_length_a   2.95133200
_cell_length_b   9.47097000
_cell_length_c   10.82969800
_cell_angle_alpha   90.00000000
_cell_angle_beta   90.00000000
_cell_angle_gamma   90.00000000
_symmetry_Int_Tables_number   1
_chemical_formula_structural   Ti2ZnO4
_chemical_formula_sum   'Ti8 Zn4 O16'
_cell_volume   302.71146759
_cell_formula_units_Z   4
loop_
 _symmetry_equiv_pos_site_id
 _symmetry_equiv_pos_as_xyz
  1  'x, y, z'
loop_
 _atom_site_type_symbol
 _atom_site_label
 _atom_site_symmetry_multiplicity
 _atom_site_fract_x
 _atom_site_fract_y
 _atom_site_fract_z
 _atom_site_occupancy
  Ti  Ti0  1  0.75000000  0.41330500  0.59925900  1
  Ti  Ti1  1  0.25000000  0.08669500  0.09925900  1
  Ti  Ti2  1  0.75000000  0.91330500  0.90074100  1
  Ti  Ti3  1  0.25000000  0.58669500  0.40074100  1
  Ti  Ti4  1  0.25000000  0.56317000  0.87972000  1
  Ti  Ti5  1  0.75000000  0.43683000  0.12028000  1
  Ti  Ti6  1  0.25000000  0.06317000  0.62028000  1
  Ti  Ti7  1  0.75000000  0.93683000  0.37972000  1
  Zn  Zn0  1  0.25000000  0.25463000  0.86221100  1
  Zn  Zn1  1  0.75000000  0.74537000  0.13778900  1
  Zn  Zn2  1  0.25000000  0.75463000  0.63778900  1
  Zn  Zn3  1  0.75000000  0.24537000  0.36221100  1
  O  O0  1  0.75000000  0.91751600  0.57010200  1
  O  O1  1  0.25000000  0.08248400  0.42989800  1
  O  O2  1  0.75000000  0.41751600  0.92989800  1
  O  O3  1  0.25000000  0.58248400  0.07010200  1
  O  O4  1  0.75000000  0.03619900  0.21889200  1
  O  O5  1  0.25000000  0.96380100  0.78110800  1
  O  O6  1  0.75000000  0.53619900  0.28110800  1
  O  O7  1  0.25000000  0.46380100  0.71889200  1
  O  O8  1  0.75000000  0.61559300  0.53221900  1
  O  O9  1  0.25000000  0.38440700  0.46778100  1
  O  O10  1  0.75000000  0.11559300  0.96778100  1
  O  O11  1  0.25000000  0.88440700  0.03221900  1
  O  O12  1  0.25000000  0.79508400  0.36220300  1
  O  O13  1  0.75000000  0.20491600  0.63779700  1
  O  O14  1  0.75000000  0.70491600  0.86220300  1
  O  O15  1  0.25000000  0.29508400  0.13779700  1
loop_
_geom_bond_atom_site_label_1
_geom_bond_atom_site_label_2
_geom_bond_distance
_geom_bond_site_symmetry_2
O0 Ti7 2.069878 1_555
O0 Ti6 2.091857 1_665
O0 Ti6 2.091857 1_565
O0 Zn2 2.257169 1_555
O0 Zn2 2.257169 1_655
O1 Ti6 2.069878 1_555
O1 Ti7 2.091857 1_545
O1 Ti7 2.091857 1_445
O1 Zn3 2.257169 1_455
O1 Zn3 2.257169 1_555
O2 Ti5 2.069878 1_556
O2 Ti4 2.091857 1_555
O2 Ti4 2.091857 1_655
O2 Zn0 2.257169 1_555
O2 Zn0 2.257169 1_655
O3 Ti4 2.069878 1_554
O3 Ti5 2.091857 1_555
O3 Ti5 2.091857 1_455
O3 Zn1 2.257169 1_555
O3 Zn1 2.257169 1_455
O4 Ti7 1.979720 1_545
O4 Ti1 2.021104 1_555
O4 Ti1 2.021104 1_655
O4 Zn3 2.516662 1_555
O5 Ti6 1.979720 1_565
O5 Ti2 2.021104 1_555
O5 Ti2 2.021104 1_455
O5 Zn2 2.516662 1_555
O6 Ti5 1.979720 1_555
O6 Ti3 2.021104 1_655
O6 Ti3 2.021104 1_555
O6 Zn1 2.516662 1_555
O7 Ti4 1.979720 1_555
O7 Ti0 2.021104 1_455
O7 Ti0 2.021104 1_555
O7 Zn0 2.516662 1_555
O8 Ti0 2.048815 1_555
O8 Ti3 2.068791 1_655
O8 Ti3 2.068791 1_555
O8 Zn2 2.284449 1_655
O8 Zn2 2.284449 1_555
O9 Ti3 2.048815 1_555
O9 Ti0 2.068791 1_455
O9 Ti0 2.068791 1_555
O9 Zn3 2.284449 1_455
O9 Zn3 2.284449 1_555
O10 Ti2 2.048815 1_545
O10 Ti1 2.068791 1_556
O10 Ti1 2.068791 1_656
O10 Zn0 2.284449 1_555
O10 Zn0 2.284449 1_655
O11 Ti1 2.048815 1_565
O11 Ti2 2.068791 1_554
O11 Ti2 2.068791 1_454
O11 Zn1 2.284449 1_455
O11 Zn1 2.284449 1_555
O12 Ti7 2.003948 1_555
O12 Ti7 2.003948 1_455
O12 Ti3 2.017291 1_555
O13 Ti6 2.003948 1_555
O13 Ti6 2.003948 1_655
O13 Ti0 2.017291 1_555
O14 Ti4 2.003948 1_555
O14 Ti4 2.003948 1_655
O14 Ti2 2.017291 1_555
O15 Ti5 2.003948 1_455
O15 Ti5 2.003948 1_555
O15 Ti1 2.017291 1_555
