# generated using pymatgen
data_Ti2ZnO5
_symmetry_space_group_name_H-M   'P 1'
_cell_length_a   3.38743900
_cell_length_b   4.82811800
_cell_length_c   12.12426900
_cell_angle_alpha   90.00000000
_cell_angle_beta   90.00000000
_cell_angle_gamma   90.00000000
_symmetry_Int_Tables_number   1
_chemical_formula_structural   Ti2ZnO5
_chemical_formula_sum   'Ti4 Zn2 O10'
_cell_volume   198.29187645
_cell_formula_units_Z   2
loop_
 _symmetry_equiv_pos_site_id
 _symmetry_equiv_pos_as_xyz
  1  'x, y, z'
loop_
 _atom_site_type_symbol
 _atom_site_label
 _atom_site_symmetry_multiplicity
 _atom_site_fract_x
 _atom_site_fract_y
 _atom_site_fract_z
 _atom_site_occupancy
  Ti  Ti0  1  0.00000000  0.59118900  0.85429000  1
  Ti  Ti1  1  0.50000000  0.40881100  0.64571000  1
  Ti  Ti2  1  0.50000000  0.40881100  0.35429000  1
  Ti  Ti3  1  0.00000000  0.59118900  0.14571000  1
  Zn  Zn0  1  0.50000000  0.10255100  0.00000000  1
  Zn  Zn1  1  0.00000000  0.89744900  0.50000000  1
  O  O0  1  0.50000000  0.56615200  0.50000000  1
  O  O1  1  0.00000000  0.43384800  0.00000000  1
  O  O2  1  0.50000000  0.43852200  0.82081000  1
  O  O3  1  0.00000000  0.56147800  0.67919000  1
  O  O4  1  0.50000000  0.43852200  0.17919000  1
  O  O5  1  0.00000000  0.56147800  0.32081000  1
  O  O6  1  0.00000000  0.94364800  0.10896000  1
  O  O7  1  0.50000000  0.05635200  0.39104000  1
  O  O8  1  0.50000000  0.05635200  0.60896000  1
  O  O9  1  0.00000000  0.94364800  0.89104000  1
loop_
_geom_bond_atom_site_label_1
_geom_bond_atom_site_label_2
_geom_bond_distance
_geom_bond_site_symmetry_2
O0 Ti2 1.923033 1_555
O0 Ti1 1.923033 1_555
O0 Zn1 2.329639 1_655
O0 Zn1 2.329639 1_555
O1 Ti0 1.923033 1_554
O1 Ti3 1.923033 1_555
O1 Zn0 2.329639 1_455
O1 Zn0 2.329639 1_555
O2 Ti0 1.891234 1_555
O2 Ti0 1.891234 1_655
O2 Ti1 2.127800 1_555
O3 Ti1 1.891234 1_555
O3 Ti1 1.891234 1_455
O3 Ti0 2.127800 1_555
O4 Ti3 1.891234 1_655
O4 Ti3 1.891234 1_555
O4 Ti2 2.127800 1_555
O5 Ti2 1.891234 1_555
O5 Ti2 1.891234 1_455
O5 Ti3 2.127800 1_555
O6 Ti3 1.759079 1_555
O6 Zn0 2.280896 1_565
O6 Zn0 2.280896 1_465
O7 Ti2 1.759079 1_555
O7 Zn1 2.280896 1_545
O7 Zn1 2.280896 1_645
O8 Ti1 1.759079 1_555
O8 Zn1 2.280896 1_545
O8 Zn1 2.280896 1_645
O9 Ti0 1.759079 1_555
O9 Zn0 2.280896 1_566
O9 Zn0 2.280896 1_466
