# generated using pymatgen
data_Li3MnCoO5
_symmetry_space_group_name_H-M   'P 1'
_cell_length_a   7.67066414
_cell_length_b   7.67066414
_cell_length_c   5.14208757
_cell_angle_alpha   83.24065820
_cell_angle_beta   83.24065820
_cell_angle_gamma   141.20642206
_symmetry_Int_Tables_number   1
_chemical_formula_structural   Li3MnCoO5
_chemical_formula_sum   'Li6 Mn2 Co2 O10'
_cell_volume   177.25277546
_cell_formula_units_Z   2
loop_
 _symmetry_equiv_pos_site_id
 _symmetry_equiv_pos_as_xyz
  1  'x, y, z'
loop_
 _atom_site_type_symbol
 _atom_site_label
 _atom_site_symmetry_multiplicity
 _atom_site_fract_x
 _atom_site_fract_y
 _atom_site_fract_z
 _atom_site_occupancy
  Li  Li0  1  0.90169300  0.09830700  0.50000000  1
  Li  Li1  1  0.29941700  0.70058300  0.50000000  1
  Li  Li2  1  0.69580600  0.30419400  0.50000000  1
  Li  Li3  1  0.10125100  0.89874900  0.50000000  1
  Li  Li4  1  0.50291000  0.49709000  0.50000000  1
  Li  Li5  1  0.60016500  0.39983500  0.00000000  1
  Mn  Mn0  1  0.99939300  0.00060700  0.00000000  1
  Mn  Mn1  1  0.79841200  0.20158800  0.00000000  1
  Co  Co0  1  0.40206700  0.59793300  0.00000000  1
  Co  Co1  1  0.19570600  0.80429400  0.00000000  1
  O  O0  1  0.67415700  0.87283000  0.23253300  1
  O  O1  1  0.05278000  0.44871300  0.21192600  1
  O  O2  1  0.46754200  0.04927400  0.23271100  1
  O  O3  1  0.87526800  0.68376500  0.23576500  1
  O  O4  1  0.24220700  0.25419400  0.21332600  1
  O  O5  1  0.12717000  0.32584300  0.76746700  1
  O  O6  1  0.55128700  0.94722000  0.78807400  1
  O  O7  1  0.95072600  0.53245800  0.76728900  1
  O  O8  1  0.31623500  0.12473200  0.76423500  1
  O  O9  1  0.74580600  0.75779300  0.78667400  1
loop_
_geom_bond_atom_site_label_1
_geom_bond_atom_site_label_2
_geom_bond_distance
_geom_bond_site_symmetry_2
Li0 O4 2.057981 1_655
Li0 O9 2.057981 1_545
Li0 O0 2.085333 1_545
Li0 O5 2.085333 1_655
Li0 O6 2.136531 1_545
Li0 O1 2.136531 1_655
Li1 O7 2.011624 1_455
Li1 O2 2.011624 1_565
Li1 O5 2.149735 1_555
Li1 O0 2.149735 1_555
Li1 O6 2.267557 1_555
Li1 O1 2.267557 1_555
Li2 O8 2.144528 1_555
Li2 O3 2.144528 1_555
Li2 O2 2.154184 1_555
Li2 O7 2.154184 1_555
Li2 O6 2.201801 1_545
Li2 O1 2.201801 1_655
Li3 O3 2.048476 1_455
Li3 O8 2.048476 1_565
Li3 O2 2.185624 1_565
Li3 O7 2.185624 1_455
Li3 O9 2.204361 1_455
Li3 O4 2.204361 1_565
Li4 O3 2.075489 1_555
Li4 O8 2.075489 1_555
Li4 O5 2.159623 1_555
Li4 O0 2.159623 1_555
Li4 O9 2.275059 1_555
Li4 O4 2.275059 1_555
Li5 O9 2.052193 1_554
Li5 O4 2.052193 1_555
Li5 O2 2.095103 1_555
Li5 O7 2.095103 1_554
Li5 O3 2.173870 1_555
Li5 O8 2.173870 1_554
Mn0 O3 1.926296 1_545
Mn0 O8 1.926296 1_654
Mn0 O4 1.947238 1_655
Mn0 O9 1.947238 1_544
Mn0 O5 1.955650 1_654
Mn0 O0 1.955650 1_545
Mn1 O7 1.889983 1_554
Mn1 O2 1.889983 1_555
Mn1 O1 1.951719 1_655
Mn1 O6 1.951719 1_544
Mn1 O0 1.993186 1_545
Mn1 O5 1.993186 1_654
Co0 O4 1.903070 1_555
Co0 O9 1.903070 1_554
Co0 O1 1.978573 1_555
Co0 O6 1.978573 1_554
Co0 O5 2.133724 1_554
Co0 O0 2.133724 1_555
Co1 O8 1.964291 1_564
Co1 O3 1.964291 1_455
Co1 O1 2.046149 1_555
Co1 O6 2.046149 1_554
Co1 O2 2.078396 1_565
Co1 O7 2.078396 1_454
