# generated using pymatgen
data_LuSi2
_symmetry_space_group_name_H-M   'P 1'
_cell_length_a   4.08933612
_cell_length_b   4.08933612
_cell_length_c   3.79621800
_cell_angle_alpha   90.00000000
_cell_angle_beta   90.00000000
_cell_angle_gamma   120.00000195
_symmetry_Int_Tables_number   1
_chemical_formula_structural   LuSi2
_chemical_formula_sum   'Lu1 Si2'
_cell_volume   54.97780347
_cell_formula_units_Z   1
loop_
 _symmetry_equiv_pos_site_id
 _symmetry_equiv_pos_as_xyz
  1  'x, y, z'
loop_
 _atom_site_type_symbol
 _atom_site_label
 _atom_site_symmetry_multiplicity
 _atom_site_fract_x
 _atom_site_fract_y
 _atom_site_fract_z
 _atom_site_occupancy
  Lu  Lu0  1  0.00000000  0.00000000  0.00000000  1
  Si  Si0  1  0.66666700  0.33333300  0.50000000  1
  Si  Si1  1  0.33333300  0.66666700  0.50000000  1
loop_
_geom_bond_atom_site_label_1
_geom_bond_atom_site_label_2
_geom_bond_distance
_geom_bond_site_symmetry_2
Lu0 Si0 3.029361 1_455
Lu0 Si0 3.029361 1_454
Lu0 Si1 3.029361 1_544
Lu0 Si1 3.029361 1_545
Lu0 Si1 3.029364 1_555
Lu0 Si0 3.029364 1_554
Lu0 Si1 3.029364 1_554
Lu0 Si0 3.029364 1_445
Lu0 Si1 3.029364 1_444
Lu0 Si0 3.029364 1_444
Lu0 Si0 3.029364 1_555
Lu0 Si1 3.029364 1_445
Si0 Si1 2.360977 1_545
Si0 Si1 2.360977 1_655
Si0 Si1 2.360984 1_555
