# generated using pymatgen
data_MgMn4(AgO4)4
_symmetry_space_group_name_H-M   'P 1'
_cell_length_a   6.18496781
_cell_length_b   8.04796905
_cell_length_c   6.97366178
_cell_angle_alpha   89.99808087
_cell_angle_beta   90.98821093
_cell_angle_gamma   92.99233379
_symmetry_Int_Tables_number   1
_chemical_formula_structural   MgMn4(AgO4)4
_chemical_formula_sum   'Mg1 Mn4 Ag4 O16'
_cell_volume   346.59900097
_cell_formula_units_Z   1
loop_
 _symmetry_equiv_pos_site_id
 _symmetry_equiv_pos_as_xyz
  1  'x, y, z'
loop_
 _atom_site_type_symbol
 _atom_site_label
 _atom_site_symmetry_multiplicity
 _atom_site_fract_x
 _atom_site_fract_y
 _atom_site_fract_z
 _atom_site_occupancy
  Mg  Mg0  1  0.50599500  0.99949800  0.89256700  1
  Mn  Mn0  1  0.74388100  0.35502400  0.00435800  1
  Mn  Mn1  1  0.25132200  0.86451700  0.49912200  1
  Mn  Mn2  1  0.25773100  0.64572400  0.00333400  1
  Mn  Mn3  1  0.74952900  0.13540600  0.49959600  1
  Ag  Ag0  1  0.77588200  0.72874500  0.73818000  1
  Ag  Ag1  1  0.22515000  0.26904300  0.74429800  1
  Ag  Ag2  1  0.24966200  0.25605200  0.25868900  1
  Ag  Ag3  1  0.75336400  0.74542500  0.25603400  1
  O  O0  1  0.53220700  0.24691600  0.50073700  1
  O  O1  1  0.74218400  0.46587000  0.80406200  1
  O  O2  1  0.97983600  0.25422100  0.50039200  1
  O  O3  1  0.02106600  0.74562100  0.49642300  1
  O  O4  1  0.50671800  0.22778000  0.99709100  1
  O  O5  1  0.49465200  0.77281000  0.00184500  1
  O  O6  1  0.46862000  0.75320300  0.50270800  1
  O  O7  1  0.25300400  0.98589700  0.30564000  1
  O  O8  1  0.03477600  0.75138000  0.00200400  1
  O  O9  1  0.74541900  0.00974000  0.70089500  1
  O  O10  1  0.74395800  0.01497900  0.30450700  1
  O  O11  1  0.25902400  0.98927400  0.70106000  1
  O  O12  1  0.26302900  0.52505100  0.19490100  1
  O  O13  1  0.25792600  0.53339000  0.80400400  1
  O  O14  1  0.96643000  0.24850500  0.00858900  1
  O  O15  1  0.73946900  0.47593000  0.19563200  1
loop_
_geom_bond_atom_site_label_1
_geom_bond_atom_site_label_2
_geom_bond_distance
_geom_bond_site_symmetry_2
Mg0 O5 1.975452 1_556
Mg0 O4 1.976306 1_565
Mg0 O11 2.010011 1_555
Mg0 O9 2.010429 1_565
Mn0 O15 1.652549 1_555
Mn0 O1 1.657515 1_554
Mn0 O14 1.658975 1_555
Mn0 O4 1.744564 1_554
Mn1 O6 1.653482 1_555
Mn1 O7 1.665609 1_555
Mn1 O3 1.673588 1_555
Mn1 O11 1.728096 1_555
Mn2 O12 1.652473 1_555
Mn2 O8 1.657305 1_555
Mn2 O13 1.658267 1_554
Mn2 O5 1.742840 1_555
Mn3 O0 1.654822 1_555
Mn3 O10 1.669259 1_555
Mn3 O2 1.673601 1_555
Mn3 O9 1.729904 1_555
Ag0 O1 2.165071 1_555
Ag0 O3 2.286289 1_655
Ag0 O9 2.293462 1_565
Ag0 O8 2.418693 1_656
Ag0 O6 2.505629 1_555
Ag0 O5 2.589767 1_556
Ag1 O13 2.166253 1_555
Ag1 O2 2.258656 1_455
Ag1 O11 2.292567 1_545
Ag1 O14 2.461484 1_456
Ag1 O4 2.491044 1_555
Ag1 O0 2.582629 1_555
Ag2 O7 2.199815 1_545
Ag2 O12 2.207715 1_555
Ag2 O2 2.391837 1_455
Ag2 O0 2.412498 1_555
Ag2 O14 2.449054 1_455
Ag2 O4 2.458739 1_554
Ag3 O10 2.199474 1_565
Ag3 O15 2.206409 1_555
Ag3 O3 2.335747 1_655
Ag3 O5 2.385401 1_555
Ag3 O6 2.486098 1_555
Ag3 O8 2.503526 1_655
