# generated using pymatgen
data_SrNd2(CuO3)2
_symmetry_space_group_name_H-M   'P 1'
_cell_length_a   10.19058665
_cell_length_b   10.19058665
_cell_length_c   10.19058665
_cell_angle_alpha   158.26129066
_cell_angle_beta   158.26129066
_cell_angle_gamma   30.93343156
_symmetry_Int_Tables_number   1
_chemical_formula_structural   SrNd2(CuO3)2
_chemical_formula_sum   'Sr1 Nd2 Cu2 O6'
_cell_volume   145.07216540
_cell_formula_units_Z   1
loop_
 _symmetry_equiv_pos_site_id
 _symmetry_equiv_pos_as_xyz
  1  'x, y, z'
loop_
 _atom_site_type_symbol
 _atom_site_label
 _atom_site_symmetry_multiplicity
 _atom_site_fract_x
 _atom_site_fract_y
 _atom_site_fract_z
 _atom_site_occupancy
  Sr  Sr0  1  0.00000000  0.00000000  0.00000000  1
  Nd  Nd0  1  0.82289200  0.82289200  0.00000000  1
  Nd  Nd1  1  0.17710800  0.17710800  0.00000000  1
  Cu  Cu0  1  0.41070400  0.41070400  0.00000000  1
  Cu  Cu1  1  0.58929600  0.58929600  0.00000000  1
  O  O0  1  0.29351700  0.29351700  0.00000000  1
  O  O1  1  0.70648300  0.70648300  0.00000000  1
  O  O2  1  0.90912100  0.40912100  0.50000000  1
  O  O3  1  0.40912100  0.90912100  0.50000000  1
  O  O4  1  0.09087900  0.59087900  0.50000000  1
  O  O5  1  0.59087900  0.09087900  0.50000000  1
loop_
_geom_bond_atom_site_label_1
_geom_bond_atom_site_label_2
_geom_bond_distance
_geom_bond_site_symmetry_2
Nd0 O1 2.286631 1_555
Nd0 O2 2.561576 1_565
Nd0 O3 2.561576 1_655
Nd0 O3 2.561576 1_554
Nd0 O2 2.561576 1_554
Nd0 O0 2.778193 1_655
Nd0 O0 2.778193 1_565
Nd0 O0 2.778193 1_666
Nd0 O0 2.778193 1_554
Nd1 O0 2.286631 1_555
Nd1 O5 2.561576 1_555
Nd1 O4 2.561576 1_555
Nd1 O4 2.561576 1_544
Nd1 O5 2.561576 1_454
Nd1 O1 2.778193 1_455
Nd1 O1 2.778193 1_545
Nd1 O1 2.778193 1_444
Nd1 O1 2.778193 1_556
Cu0 O3 1.921893 1_544
Cu0 O2 1.921893 1_454
Cu0 O3 1.921893 1_555
Cu0 O2 1.921893 1_555
Cu0 O0 2.301914 1_555
Cu1 O4 1.921893 1_554
Cu1 O5 1.921893 1_554
Cu1 O5 1.921893 1_565
Cu1 O4 1.921893 1_655
Cu1 O1 2.301914 1_555
O2 Sr0 2.622869 1_655
O2 Sr0 2.622869 1_666
O3 Sr0 2.622869 1_565
O3 Sr0 2.622869 1_666
O4 Sr0 2.622869 1_555
O4 Sr0 2.622869 1_566
O5 Sr0 2.622869 1_555
O5 Sr0 2.622869 1_656
