# generated using pymatgen
data_K9Li3Nd3(BO3)7
_symmetry_space_group_name_H-M   'P 1'
_cell_length_a   10.20875100
_cell_length_b   11.58421400
_cell_length_c   12.49377349
_cell_angle_alpha   58.10466084
_cell_angle_beta   90.00000000
_cell_angle_gamma   90.00000000
_symmetry_Int_Tables_number   1
_chemical_formula_structural   K9Li3Nd3(BO3)7
_chemical_formula_sum   'K18 Li6 Nd6 B14 O42'
_cell_volume   1254.43454818
_cell_formula_units_Z   2
loop_
 _symmetry_equiv_pos_site_id
 _symmetry_equiv_pos_as_xyz
  1  'x, y, z'
loop_
 _atom_site_type_symbol
 _atom_site_label
 _atom_site_symmetry_multiplicity
 _atom_site_fract_x
 _atom_site_fract_y
 _atom_site_fract_z
 _atom_site_occupancy
  K  K0  1  0.92837300  0.67045200  0.91248200  1
  K  K1  1  0.07162700  0.32954800  0.08751800  1
  K  K2  1  0.92837300  0.32954800  0.58751800  1
  K  K3  1  0.07162700  0.67045200  0.41248200  1
  K  K4  1  0.53946600  0.89036600  0.44375100  1
  K  K5  1  0.46053400  0.10963400  0.55624900  1
  K  K6  1  0.53946600  0.10963400  0.05624900  1
  K  K7  1  0.46053400  0.89036600  0.94375100  1
  K  K8  1  0.38973300  0.59093900  0.55289000  1
  K  K9  1  0.61026700  0.40906100  0.44711000  1
  K  K10  1  0.38973300  0.40906100  0.94711000  1
  K  K11  1  0.61026700  0.59093900  0.05289000  1
  K  K12  1  0.90264700  0.16492900  0.94499000  1
  K  K13  1  0.09735300  0.83507100  0.05501000  1
  K  K14  1  0.90264700  0.83507100  0.55501000  1
  K  K15  1  0.09735300  0.16492900  0.44499000  1
  K  K16  1  0.07889600  0.50000000  0.75000000  1
  K  K17  1  0.92110400  0.50000000  0.25000000  1
  Li  Li0  1  0.06758200  0.00000000  0.25000000  1
  Li  Li1  1  0.93241800  0.00000000  0.75000000  1
  Li  Li2  1  0.29018100  0.08802000  0.28436300  1
  Li  Li3  1  0.70981900  0.91198000  0.71563700  1
  Li  Li4  1  0.29018100  0.91198000  0.21563700  1
  Li  Li5  1  0.70981900  0.08802000  0.78436300  1
  Nd  Nd0  1  0.68611200  0.50000000  0.75000000  1
  Nd  Nd1  1  0.31388800  0.50000000  0.25000000  1
  Nd  Nd2  1  0.29660700  0.78646300  0.74491300  1
  Nd  Nd3  1  0.70339300  0.21353700  0.25508700  1
  Nd  Nd4  1  0.29660700  0.21353700  0.75508700  1
  Nd  Nd5  1  0.70339300  0.78646300  0.24491300  1
  B  B0  1  0.21815400  0.59700400  0.00243700  1
  B  B1  1  0.78184600  0.40299600  0.99756300  1
  B  B2  1  0.21815400  0.40299600  0.49756300  1
  B  B3  1  0.78184600  0.59700400  0.50243700  1
  B  B4  1  0.57788100  0.73444400  0.74554400  1
  B  B5  1  0.42211900  0.26555600  0.25445600  1
  B  B6  1  0.57788100  0.26555600  0.75445600  1
  B  B7  1  0.42211900  0.73444400  0.24554400  1
  B  B8  1  0.22812100  0.86630000  0.49495000  1
  B  B9  1  0.77187900  0.13370000  0.50505000  1
  B  B10  1  0.22812100  0.13370000  0.00505000  1
  B  B11  1  0.77187900  0.86630000  0.99495000  1
  B  B12  1  0.15197200  0.00000000  0.75000000  1
  B  B13  1  0.84802800  0.00000000  0.25000000  1
  O  O0  1  0.34649000  0.63764600  0.00610100  1
  O  O1  1  0.65351000  0.36235400  0.99389900  1
  O  O2  1  0.34649000  0.36235400  0.49389900  1
  O  O3  1  0.65351000  0.63764600  0.50610100  1
  O  O4  1  0.28829900  0.00000000  0.75000000  1
  O  O5  1  0.71170100  0.00000000  0.25000000  1
  O  O6  1  0.08569800  0.10412900  0.75111500  1
  O  O7  1  0.91430200  0.89587100  0.24888500  1
  O  O8  1  0.08569800  0.89587100  0.74888500  1
  O  O9  1  0.91430200  0.10412900  0.25111500  1
  O  O10  1  0.19718200  0.90875700  0.37280700  1
  O  O11  1  0.80281800  0.09124300  0.62719300  1
  O  O12  1  0.19718200  0.09124300  0.12719300  1
  O  O13  1  0.80281800  0.90875700  0.87280700  1
  O  O14  1  0.71287800  0.71724800  0.74460200  1
  O  O15  1  0.28712200  0.28275200  0.25539800  1
  O  O16  1  0.71287800  0.28275200  0.75539800  1
  O  O17  1  0.28712200  0.71724800  0.24460200  1
  O  O18  1  0.49237900  0.64356200  0.73918900  1
  O  O19  1  0.50762100  0.35643800  0.26081100  1
  O  O20  1  0.49237900  0.35643800  0.76081100  1
  O  O21  1  0.50762100  0.64356200  0.23918900  1
  O  O22  1  0.18107700  0.58500000  0.90172000  1
  O  O23  1  0.81892300  0.41500000  0.09828000  1
  O  O24  1  0.18107700  0.41500000  0.59828000  1
  O  O25  1  0.81892300  0.58500000  0.40172000  1
  O  O26  1  0.52708200  0.84176200  0.75161200  1
  O  O27  1  0.47291800  0.15823800  0.24838800  1
  O  O28  1  0.52708200  0.15823800  0.74838800  1
  O  O29  1  0.47291800  0.84176200  0.25161200  1
  O  O30  1  0.86607200  0.56941800  0.60057100  1
  O  O31  1  0.13392800  0.43058200  0.39942900  1
  O  O32  1  0.86607200  0.43058200  0.89942900  1
  O  O33  1  0.13392800  0.56941800  0.10057100  1
  O  O34  1  0.30178500  0.95154200  0.52008200  1
  O  O35  1  0.69821500  0.04845800  0.47991800  1
  O  O36  1  0.30178500  0.04845800  0.97991800  1
  O  O37  1  0.69821500  0.95154200  0.02008200  1
  O  O38  1  0.19174500  0.73924900  0.59715600  1
  O  O39  1  0.80825500  0.26075100  0.40284400  1
  O  O40  1  0.19174500  0.26075100  0.90284400  1
  O  O41  1  0.80825500  0.73924900  0.09715600  1
loop_
_geom_bond_atom_site_label_1
_geom_bond_atom_site_label_2
_geom_bond_distance
_geom_bond_site_symmetry_2
K0 O22 2.791764 1_655
K0 O8 2.817081 1_655
K0 O13 2.839607 1_555
K0 O23 2.852173 1_556
K0 O14 2.886410 1_555
K0 O33 2.896407 1_656
K0 O32 2.937887 1_555
K0 O41 3.066838 1_556
K1 O23 2.791764 1_455
K1 O9 2.817081 1_455
K1 O12 2.839607 1_555
K1 O22 2.852173 1_554
K1 O15 2.886410 1_555
K1 O32 2.896407 1_454
K1 O33 2.937887 1_555
K1 O40 3.066838 1_554
K2 O24 2.791764 1_655
K2 O6 2.817081 1_655
K2 O11 2.839607 1_555
K2 O25 2.852173 1_555
K2 O16 2.886410 1_555
K2 O31 2.896407 1_655
K2 O30 2.937887 1_555
K2 O39 3.066838 1_555
K3 O25 2.791764 1_455
K3 O7 2.817081 1_455
K3 O10 2.839607 1_555
K3 O24 2.852173 1_555
K3 O17 2.886410 1_555
K3 O30 2.896407 1_455
K3 O31 2.937887 1_555
K3 O38 3.066838 1_555
K4 O35 2.656882 1_565
K4 O5 2.704725 1_565
K4 O29 2.823020 1_555
K4 O34 2.830799 1_555
K4 O27 2.836279 1_565
K4 O3 2.850085 1_555
K5 O34 2.656882 1_545
K5 O4 2.704725 1_555
K5 O28 2.823020 1_555
K5 O35 2.830799 1_555
K5 O26 2.836279 1_545
K5 O2 2.850085 1_555
K6 O37 2.656882 1_545
K6 O5 2.704725 1_555
K6 O27 2.823020 1_555
K6 O36 2.830799 1_554
K6 O29 2.836279 1_545
K6 O1 2.850085 1_554
K7 O36 2.656882 1_565
K7 O4 2.704725 1_565
K7 O26 2.823020 1_555
K7 O37 2.830799 1_556
K7 O28 2.836279 1_565
K7 O0 2.850085 1_556
K8 O3 2.748016 1_555
K8 O20 2.787206 1_555
K8 O24 2.791331 1_555
K8 O38 2.889108 1_555
K8 O18 2.895977 1_555
K9 O2 2.748016 1_555
K9 O21 2.787206 1_555
K9 O25 2.791331 1_555
K9 O39 2.889108 1_555
K9 O19 2.895977 1_555
K10 O1 2.748016 1_555
K10 O18 2.787206 1_555
K10 O22 2.791331 1_555
K10 O40 2.889108 1_555
K10 O20 2.895977 1_555
K11 O0 2.748016 1_555
K11 O19 2.787206 1_555
K11 O23 2.791331 1_555
K11 O41 2.889108 1_555
K11 O21 2.895977 1_555
K12 O16 2.794714 1_555
K12 O32 2.842989 1_555
K12 O37 2.982521 1_546
K12 O40 3.098726 1_655
K13 O17 2.794714 1_555
K13 O33 2.842989 1_555
K13 O36 2.982521 1_564
K13 O41 3.098726 1_455
K14 O14 2.794714 1_555
K14 O30 2.842989 1_555
K14 O35 2.982521 1_565
K14 O38 3.098726 1_655
K15 O15 2.794714 1_555
K15 O31 2.842989 1_555
K15 O34 2.982521 1_545
K15 O39 3.098726 1_455
K16 O38 2.657498 1_555
K16 O40 2.657498 1_555
K16 O32 2.695570 1_455
K16 O30 2.695570 1_455
K16 O24 2.761014 1_555
K16 O22 2.761014 1_555
K17 O41 2.657498 1_555
K17 O39 2.657498 1_555
K17 O31 2.695570 1_655
K17 O33 2.695570 1_655
K17 O23 2.761014 1_555
K17 O25 2.761014 1_555
Li0 O12 1.872982 1_555
Li0 O10 1.872982 1_545
Li0 O9 1.980300 1_455
Li0 O7 1.980300 1_445
Li1 O11 1.872982 1_555
Li1 O13 1.872982 1_545
Li1 O6 1.980300 1_655
Li1 O8 1.980300 1_645
Li2 O27 1.989340 1_555
Li2 O10 2.002470 1_545
Li2 O15 2.087579 1_555
Li2 O12 2.163607 1_555
Li2 O34 2.503294 1_545
Li3 O26 1.989340 1_555
Li3 O11 2.002470 1_565
Li3 O14 2.087579 1_555
Li3 O13 2.163607 1_555
Li3 O35 2.503294 1_565
Li4 O29 1.989340 1_555
Li4 O12 2.002470 1_565
Li4 O17 2.087579 1_555
Li4 O10 2.163607 1_555
Li4 O36 2.503294 1_564
Li5 O28 1.989340 1_555
Li5 O13 2.002470 1_545
Li5 O16 2.087579 1_555
Li5 O11 2.163607 1_555
Li5 O37 2.503294 1_546
Nd0 O32 2.433269 1_555
Nd0 O30 2.433269 1_555
Nd0 O16 2.496672 1_555
Nd0 O14 2.496672 1_555
Nd0 O18 2.541298 1_555
Nd0 O20 2.541298 1_555
Nd0 O1 2.608500 1_555
Nd0 O3 2.608500 1_555
Nd1 O31 2.433269 1_555
Nd1 O33 2.433269 1_555
Nd1 O17 2.496672 1_555
Nd1 O15 2.496672 1_555
Nd1 O21 2.541298 1_555
Nd1 O19 2.541298 1_555
Nd1 O2 2.608500 1_555
Nd1 O0 2.608500 1_555
Nd2 O22 2.417467 1_555
Nd2 O34 2.423572 1_555
Nd2 O38 2.433097 1_555
Nd2 O26 2.451527 1_555
Nd2 O4 2.509254 1_565
Nd2 O8 2.512202 1_555
Nd2 O18 2.620096 1_555
Nd2 O0 2.816937 1_556
Nd3 O23 2.417467 1_555
Nd3 O35 2.423572 1_555
Nd3 O39 2.433097 1_555
Nd3 O27 2.451527 1_555
Nd3 O5 2.509254 1_555
Nd3 O9 2.512202 1_555
Nd3 O19 2.620096 1_555
Nd3 O1 2.816937 1_554
Nd4 O24 2.417467 1_555
Nd4 O36 2.423572 1_555
Nd4 O40 2.433097 1_555
Nd4 O28 2.451527 1_555
Nd4 O4 2.509254 1_555
Nd4 O6 2.512202 1_555
Nd4 O20 2.620096 1_555
Nd4 O2 2.816937 1_555
Nd5 O25 2.417467 1_555
Nd5 O37 2.423572 1_555
Nd5 O41 2.433097 1_555
Nd5 O29 2.451527 1_555
Nd5 O5 2.509254 1_565
Nd5 O7 2.512202 1_555
Nd5 O21 2.620096 1_555
Nd5 O3 2.816937 1_555
B0 O33 1.389477 1_555
B0 O22 1.389576 1_554
B0 O0 1.401079 1_555
B1 O32 1.389477 1_555
B1 O23 1.389576 1_556
B1 O1 1.401079 1_555
B2 O31 1.389477 1_555
B2 O24 1.389576 1_555
B2 O2 1.401079 1_555
B3 O30 1.389477 1_555
B3 O25 1.389576 1_555
B3 O3 1.401079 1_555
B4 O26 1.385575 1_555
B4 O14 1.393412 1_555
B4 O18 1.401755 1_555
B5 O27 1.385575 1_555
B5 O15 1.393412 1_555
B5 O19 1.401755 1_555
B6 O28 1.385575 1_555
B6 O16 1.393412 1_555
B6 O20 1.401755 1_555
B7 O29 1.385575 1_555
B7 O17 1.393412 1_555
B7 O21 1.401755 1_555
B8 O10 1.370140 1_555
B8 O38 1.395928 1_555
B8 O34 1.402445 1_555
B9 O11 1.370140 1_555
B9 O39 1.395928 1_555
B9 O35 1.402445 1_555
B10 O12 1.370140 1_555
B10 O40 1.395928 1_554
B10 O36 1.402445 1_554
B11 O13 1.370140 1_555
B11 O41 1.395928 1_556
B11 O37 1.402445 1_556
B12 O6 1.389514 1_555
B12 O8 1.389514 1_545
B12 O4 1.391728 1_555
B13 O9 1.389514 1_555
B13 O7 1.389514 1_545
B13 O5 1.391728 1_555
