# generated using pymatgen
data_BaCa2(CoN2)2
_symmetry_space_group_name_H-M   'P 1'
_cell_length_a   8.05967800
_cell_length_b   9.11057700
_cell_length_c   11.72581800
_cell_angle_alpha   90.00000000
_cell_angle_beta   90.00000000
_cell_angle_gamma   90.00000000
_symmetry_Int_Tables_number   1
_chemical_formula_structural   BaCa2(CoN2)2
_chemical_formula_sum   'Ba4 Ca8 Co8 N16'
_cell_volume   861.00708135
_cell_formula_units_Z   4
loop_
 _symmetry_equiv_pos_site_id
 _symmetry_equiv_pos_as_xyz
  1  'x, y, z'
loop_
 _atom_site_type_symbol
 _atom_site_label
 _atom_site_symmetry_multiplicity
 _atom_site_fract_x
 _atom_site_fract_y
 _atom_site_fract_z
 _atom_site_occupancy
  Ba  Ba0  1  0.28173100  0.27122600  0.39269700  1
  Ba  Ba1  1  0.78173100  0.77122600  0.10730300  1
  Ba  Ba2  1  0.21826900  0.27122600  0.89269700  1
  Ba  Ba3  1  0.71826900  0.77122600  0.60730300  1
  Ca  Ca0  1  0.36851400  0.86819300  0.33793500  1
  Ca  Ca1  1  0.13148600  0.86819300  0.83793500  1
  Ca  Ca2  1  0.85417600  0.09268800  0.35517000  1
  Ca  Ca3  1  0.35417600  0.59268800  0.14483000  1
  Ca  Ca4  1  0.14582400  0.59268800  0.64483000  1
  Ca  Ca5  1  0.64582400  0.09268800  0.85517000  1
  Ca  Ca6  1  0.63148600  0.36819300  0.66206500  1
  Ca  Ca7  1  0.86851400  0.36819300  0.16206500  1
  Co  Co0  1  0.42593800  0.56881300  0.48566100  1
  Co  Co1  1  0.92593800  0.06881300  0.01433900  1
  Co  Co2  1  0.42590400  0.89692200  0.00717200  1
  Co  Co3  1  0.57409600  0.39692200  0.99282800  1
  Co  Co4  1  0.57406200  0.06881300  0.51433900  1
  Co  Co5  1  0.92590400  0.39692200  0.49282800  1
  Co  Co6  1  0.07409600  0.89692200  0.50717200  1
  Co  Co7  1  0.07406200  0.56881300  0.98566100  1
  N  N0  1  0.54838800  0.07394200  0.37443700  1
  N  N1  1  0.55312300  0.33677800  0.86089000  1
  N  N2  1  0.61536800  0.09846000  0.64955400  1
  N  N3  1  0.94687700  0.33677800  0.36089000  1
  N  N4  1  0.62740800  0.49616300  0.10450800  1
  N  N5  1  0.37259200  0.99616300  0.89549200  1
  N  N6  1  0.04838800  0.57394200  0.12556300  1
  N  N7  1  0.05312300  0.83677800  0.63911000  1
  N  N8  1  0.45161200  0.57394200  0.62556300  1
  N  N9  1  0.44687700  0.83677800  0.13911000  1
  N  N10  1  0.95161200  0.07394200  0.87443700  1
  N  N11  1  0.12740800  0.99616300  0.39549200  1
  N  N12  1  0.11536800  0.59846000  0.85044600  1
  N  N13  1  0.38463200  0.59846000  0.35044600  1
  N  N14  1  0.87259200  0.49616300  0.60450800  1
  N  N15  1  0.88463200  0.09846000  0.14955400  1
loop_
_geom_bond_atom_site_label_1
_geom_bond_atom_site_label_2
_geom_bond_distance
_geom_bond_site_symmetry_2
Ba0 N3 2.789153 1_455
Ba0 N11 2.797865 1_545
Ba0 N0 2.809861 1_555
Ba0 N13 3.133905 1_555
Ba0 Co0 3.144785 1_555
Ba1 N9 2.789153 1_555
Ba1 N4 2.797865 1_555
Ba1 N6 2.809861 1_655
Ba1 N15 3.133905 1_565
Ba1 Co1 3.144785 1_565
Ba2 N1 2.789153 1_555
Ba2 N5 2.797865 1_545
Ba2 N10 2.809861 1_455
Ba2 N12 3.133905 1_555
Ba2 Co7 3.144785 1_555
Ba3 N7 2.789153 1_655
Ba3 N14 2.797865 1_555
Ba3 N8 2.809861 1_555
Ba3 N2 3.133905 1_565
Ba3 Co4 3.144785 1_565
Ca0 N11 2.364517 1_555
Ca0 N0 2.408033 1_565
Ca0 N9 2.432318 1_555
Ca0 N13 2.465223 1_555
Ca1 N5 2.364517 1_555
Ca1 N10 2.408033 1_465
Ca1 N7 2.432318 1_555
Ca1 N12 2.465223 1_555
Ca2 N3 2.346914 1_555
Ca2 N11 2.417934 1_645
Ca2 N15 2.424049 1_555
Ca2 N0 2.480772 1_555
Ca3 N9 2.346914 1_555
Ca3 N4 2.417934 1_555
Ca3 N13 2.424049 1_555
Ca3 N6 2.480772 1_555
Ca4 N7 2.346914 1_555
Ca4 N14 2.417934 1_455
Ca4 N12 2.424049 1_555
Ca4 N8 2.480772 1_555
Ca5 N1 2.346914 1_555
Ca5 N5 2.417934 1_545
Ca5 N2 2.424049 1_555
Ca5 N10 2.480772 1_555
Ca6 N14 2.364517 1_555
Ca6 N8 2.408033 1_555
Ca6 N1 2.432318 1_555
Ca6 N2 2.465223 1_555
Ca7 N4 2.364517 1_555
Ca7 N6 2.408033 1_655
Ca7 N3 2.432318 1_555
Ca7 N15 2.465223 1_555
Co0 N13 1.642442 1_555
Co0 N8 1.654124 1_555
Co1 N15 1.642442 1_555
Co1 N10 1.654124 1_554
Co2 N5 1.648330 1_554
Co2 N9 1.649933 1_555
Co3 N4 1.648330 1_556
Co3 N1 1.649933 1_555
Co4 N2 1.642442 1_555
Co4 N0 1.654124 1_555
Co5 N14 1.648330 1_555
Co5 N3 1.649933 1_555
Co6 N11 1.648330 1_555
Co6 N7 1.649933 1_555
Co7 N12 1.642442 1_555
Co7 N6 1.654124 1_556
