# generated using pymatgen
data_Y6Ga17Pd5
_symmetry_space_group_name_H-M   'P 1'
_cell_length_a   8.14833211
_cell_length_b   8.14833211
_cell_length_c   15.74186441
_cell_angle_alpha   75.98908485
_cell_angle_beta   75.98908485
_cell_angle_gamma   29.87784467
_symmetry_Int_Tables_number   1
_chemical_formula_structural   Y6Ga17Pd5
_chemical_formula_sum   'Y6 Ga17 Pd5'
_cell_volume   504.05133419
_cell_formula_units_Z   1
loop_
 _symmetry_equiv_pos_site_id
 _symmetry_equiv_pos_as_xyz
  1  'x, y, z'
loop_
 _atom_site_type_symbol
 _atom_site_label
 _atom_site_symmetry_multiplicity
 _atom_site_fract_x
 _atom_site_fract_y
 _atom_site_fract_z
 _atom_site_occupancy
  Y  Y0  1  0.74758874  0.74758874  0.74951403  1
  Y  Y1  1  0.25241126  0.25241126  0.25048597  1
  Y  Y2  1  0.59088172  0.59088172  0.59312656  1
  Y  Y3  1  0.09892118  0.09892118  0.09666810  1
  Y  Y4  1  0.90107882  0.90107882  0.90333190  1
  Y  Y5  1  0.40911828  0.40911828  0.40687344  1
  Ga  Ga0  1  0.82611026  0.82611026  0.54325537  1
  Ga  Ga1  1  0.32209830  0.32209830  0.04075689  1
  Ga  Ga2  1  0.67790170  0.67790170  0.95924311  1
  Ga  Ga3  1  0.17388974  0.17388974  0.45674463  1
  Ga  Ga4  1  0.53907553  0.53907553  0.82127342  1
  Ga  Ga5  1  0.04571680  0.04571680  0.32727849  1
  Ga  Ga6  1  0.95428320  0.95428320  0.67272151  1
  Ga  Ga7  1  0.46092447  0.46092447  0.17872658  1
  Ga  Ga8  1  0.26138413  0.26138413  0.89457046  1
  Ga  Ga9  1  0.76911786  0.76911786  0.39653328  1
  Ga  Ga10  1  0.23088214  0.23088214  0.60346672  1
  Ga  Ga11  1  0.73861587  0.73861587  0.10542954  1
  Ga  Ga12  1  0.39278009  0.39278009  0.76591905  1
  Ga  Ga13  1  0.89836476  0.89836476  0.26433198  1
  Ga  Ga14  1  0.10163524  0.10163524  0.73566802  1
  Ga  Ga15  1  0.60721991  0.60721991  0.23408095  1
  Ga  Ga16  1  0.50000000  0.50000000  -0.00000000  1
  Pd  Pd0  1  0.09569587  0.09569587  0.90258488  1
  Pd  Pd1  1  0.60832398  0.60832398  0.39410620  1
  Pd  Pd2  1  0.39167602  0.39167602  0.60589380  1
  Pd  Pd3  1  0.90430413  0.90430413  0.09741512  1
  Pd  Pd4  1  0.00000000  0.00000000  0.50000000  1
loop_
_geom_bond_atom_site_label_1
_geom_bond_atom_site_label_2
_geom_bond_distance
_geom_bond_site_symmetry_2
Ga0 Ga10 2.616641 1_565
Ga0 Ga10 2.616641 1_655
Ga0 Pd2 2.638294 1_655
Ga0 Pd2 2.638294 1_565
Ga0 Pd4 2.650696 1_665
Ga0 Ga9 2.679304 1_555
Ga0 Y5 3.053455 1_655
Ga0 Y5 3.053455 1_565
Ga0 Y0 3.171617 1_555
Ga1 Ga11 2.550692 1_545
Ga1 Ga11 2.550692 1_455
Ga1 Ga8 2.704107 1_554
Ga1 Ga16 2.712518 1_555
Ga1 Pd3 2.731641 1_545
Ga1 Pd3 2.731641 1_455
Ga1 Y4 3.048049 1_454
Ga1 Y4 3.048049 1_544
Ga1 Y1 3.207582 1_555
Ga1 Y3 3.402004 1_555
Ga2 Ga8 2.550692 1_565
Ga2 Ga8 2.550692 1_655
Ga2 Pd0 2.731641 1_655
Ga2 Pd0 2.731641 1_565
Ga2 Y3 3.048049 1_566
Ga2 Y3 3.048049 1_656
Ga2 Y0 3.207582 1_555
Ga2 Y4 3.402004 1_555
Ga3 Ga9 2.616641 1_455
Ga3 Ga9 2.616641 1_545
Ga3 Pd1 2.638294 1_455
Ga3 Pd1 2.638294 1_545
Ga3 Pd4 2.650696 1_555
Ga3 Y2 3.053455 1_545
Ga3 Y2 3.053455 1_455
Ga3 Y1 3.171617 1_555
Ga4 Pd0 2.723497 1_565
Ga4 Pd0 2.723497 1_655
Ga4 Y4 3.065240 1_455
Ga4 Y4 3.065240 1_545
Ga4 Y0 3.193259 1_555
Ga4 Y2 3.477898 1_555
Ga5 Pd4 2.632498 1_555
Ga5 Pd1 2.647743 1_545
Ga5 Pd1 2.647743 1_455
Ga5 Y5 3.042675 1_455
Ga5 Y5 3.042675 1_545
Ga5 Y1 3.175207 1_555
Ga6 Pd4 2.632498 1_665
Ga6 Pd2 2.647743 1_655
Ga6 Pd2 2.647743 1_565
Ga6 Y2 3.042675 1_655
Ga6 Y2 3.042675 1_565
Ga6 Y0 3.175207 1_555
Ga7 Pd3 2.723497 1_455
Ga7 Pd3 2.723497 1_545
Ga7 Y3 3.065240 1_655
Ga7 Y3 3.065240 1_565
Ga7 Y1 3.193259 1_555
Ga7 Y5 3.477898 1_555
Ga8 Pd0 2.580183 1_555
Ga8 Y4 3.069474 1_455
Ga8 Y4 3.069474 1_545
Ga8 Y0 3.149963 1_545
Ga8 Y0 3.149963 1_455
Ga9 Pd1 2.541680 1_555
Ga9 Y5 3.078658 1_655
Ga9 Y5 3.078658 1_565
Ga9 Y1 3.173369 1_565
Ga9 Y1 3.173369 1_655
Ga10 Ga14 2.519941 1_555
Ga10 Pd2 2.541680 1_555
Ga10 Ga3 2.679304 1_555
Ga10 Y2 3.078658 1_455
Ga10 Y2 3.078658 1_545
Ga10 Y0 3.173369 1_455
Ga10 Y0 3.173369 1_545
Ga11 Ga15 2.506423 1_555
Ga11 Pd3 2.580183 1_555
Ga11 Ga2 2.704107 1_554
Ga11 Y3 3.069474 1_565
Ga11 Y3 3.069474 1_655
Ga11 Y1 3.149963 1_655
Ga11 Y1 3.149963 1_565
Ga12 Ga8 2.506423 1_555
Ga12 Pd2 2.523508 1_555
Ga12 Ga6 2.605863 1_455
Ga12 Ga6 2.605863 1_545
Ga12 Ga4 2.659244 1_555
Ga12 Y4 3.041414 1_455
Ga12 Y4 3.041414 1_545
Ga12 Y0 3.162503 1_455
Ga12 Y0 3.162503 1_545
Ga13 Ga9 2.519941 1_555
Ga13 Ga7 2.556051 1_565
Ga13 Ga7 2.556051 1_655
Ga13 Pd3 2.605722 1_555
Ga13 Ga5 2.741771 1_665
Ga13 Y5 3.109074 1_655
Ga13 Y5 3.109074 1_565
Ga13 Y1 3.161078 1_565
Ga13 Y1 3.161078 1_655
Ga14 Ga4 2.556051 1_455
Ga14 Ga4 2.556051 1_545
Ga14 Pd0 2.605722 1_555
Ga14 Ga6 2.741771 1_445
Ga14 Y2 3.109074 1_545
Ga14 Y2 3.109074 1_455
Ga14 Y0 3.161078 1_545
Ga14 Y0 3.161078 1_455
Ga15 Pd1 2.523508 1_555
Ga15 Ga5 2.605863 1_655
Ga15 Ga5 2.605863 1_565
Ga15 Ga7 2.659244 1_555
Ga15 Y3 3.041414 1_565
Ga15 Y3 3.041414 1_655
Ga15 Y1 3.162503 1_655
Ga15 Y1 3.162503 1_565
Ga16 Ga2 2.712518 1_554
Ga16 Ga4 2.725208 1_554
Ga16 Ga7 2.725208 1_555
Ga16 Pd0 2.806494 1_654
Ga16 Pd0 2.806494 1_564
Ga16 Pd3 2.806494 1_455
Ga16 Pd3 2.806494 1_545
Ga16 Y3 3.215893 1_565
Ga16 Y3 3.215893 1_655
Ga16 Y4 3.215893 1_544
Ga16 Y4 3.215893 1_454
Pd0 Y4 3.061487 1_445
Pd0 Y3 3.068351 1_556
Pd1 Y2 3.075646 1_555
Pd1 Y5 3.092430 1_555
Pd2 Y5 3.075646 1_555
Pd2 Y2 3.092430 1_555
Pd3 Y3 3.061487 1_665
Pd3 Y4 3.068351 1_554
Pd4 Y2 3.108144 1_545
Pd4 Y5 3.108144 1_455
Pd4 Y2 3.108144 1_455
Pd4 Y5 3.108144 1_545
