# generated using pymatgen
data_US2O9
_symmetry_space_group_name_H-M   'P 1'
_cell_length_a   11.12717300
_cell_length_b   8.28793000
_cell_length_c   16.84126300
_cell_angle_alpha   90.00000000
_cell_angle_beta   90.00000000
_cell_angle_gamma   90.00000000
_symmetry_Int_Tables_number   1
_chemical_formula_structural   US2O9
_chemical_formula_sum   'U8 S16 O72'
_cell_volume   1553.12200414
_cell_formula_units_Z   8
loop_
 _symmetry_equiv_pos_site_id
 _symmetry_equiv_pos_as_xyz
  1  'x, y, z'
loop_
 _atom_site_type_symbol
 _atom_site_label
 _atom_site_symmetry_multiplicity
 _atom_site_fract_x
 _atom_site_fract_y
 _atom_site_fract_z
 _atom_site_occupancy
  U  U0  1  0.19363600  0.53275400  0.88175600  1
  U  U1  1  0.80636400  0.46724600  0.38175600  1
  U  U2  1  0.30636400  0.53275400  0.38175600  1
  U  U3  1  0.69363600  0.46724600  0.88175600  1
  U  U4  1  0.95358900  0.03677700  0.15393000  1
  U  U5  1  0.04641100  0.96322300  0.65393000  1
  U  U6  1  0.54641100  0.03677700  0.65393000  1
  U  U7  1  0.45358900  0.96322300  0.15393000  1
  S  S0  1  0.22310600  0.29728900  0.19302300  1
  S  S1  1  0.77689400  0.70271100  0.69302300  1
  S  S2  1  0.27689400  0.29728900  0.69302300  1
  S  S3  1  0.72310600  0.70271100  0.19302300  1
  S  S4  1  0.05480300  0.42962100  0.08099500  1
  S  S5  1  0.94519700  0.57037900  0.58099500  1
  S  S6  1  0.44519700  0.42962100  0.58099500  1
  S  S7  1  0.55480300  0.57037900  0.08099500  1
  S  S8  1  0.79605000  0.08089700  0.95868800  1
  S  S9  1  0.20395000  0.91910300  0.45868800  1
  S  S10  1  0.70395000  0.08089700  0.45868800  1
  S  S11  1  0.29605000  0.91910300  0.95868800  1
  S  S12  1  0.96003000  0.20321600  0.83934800  1
  S  S13  1  0.03997000  0.79678400  0.33934800  1
  S  S14  1  0.53997000  0.20321600  0.33934800  1
  S  S15  1  0.46003000  0.79678400  0.83934800  1
  O  O0  1  0.30867900  0.41253900  0.92533300  1
  O  O1  1  0.69132100  0.58746100  0.42533300  1
  O  O2  1  0.19132100  0.41253900  0.42533300  1
  O  O3  1  0.80867900  0.58746100  0.92533300  1
  O  O4  1  0.07765900  0.65506700  0.84067100  1
  O  O5  1  0.92234100  0.34493300  0.34067100  1
  O  O6  1  0.42234100  0.65506700  0.34067100  1
  O  O7  1  0.57765900  0.34493300  0.84067100  1
  O  O8  1  0.83751800  0.15131400  0.20013600  1
  O  O9  1  0.16248200  0.84868600  0.70013600  1
  O  O10  1  0.66248200  0.15131400  0.70013600  1
  O  O11  1  0.33751800  0.84868600  0.20013600  1
  O  O12  1  0.06874100  0.92509600  0.10520100  1
  O  O13  1  0.93125900  0.07490400  0.60520100  1
  O  O14  1  0.43125900  0.92509600  0.60520100  1
  O  O15  1  0.56874100  0.07490400  0.10520100  1
  O  O16  1  0.25102300  0.42269300  0.25061100  1
  O  O17  1  0.74897700  0.57730700  0.75061100  1
  O  O18  1  0.24897700  0.42269300  0.75061100  1
  O  O19  1  0.75102300  0.57730700  0.25061100  1
  O  O20  1  0.32681200  0.19788400  0.17312300  1
  O  O21  1  0.67318800  0.80211600  0.67312300  1
  O  O22  1  0.17318800  0.19788400  0.67312300  1
  O  O23  1  0.82681200  0.80211600  0.17312300  1
  O  O24  1  0.11447400  0.20663300  0.21297500  1
  O  O25  1  0.88552600  0.79336700  0.71297500  1
  O  O26  1  0.38552600  0.20663300  0.71297500  1
  O  O27  1  0.61447400  0.79336700  0.21297500  1
  O  O28  1  0.19767600  0.38913900  0.10994300  1
  O  O29  1  0.80232400  0.61086100  0.60994300  1
  O  O30  1  0.30232400  0.38913900  0.60994300  1
  O  O31  1  0.69767600  0.61086100  0.10994300  1
  O  O32  1  0.00183900  0.53058200  0.14001800  1
  O  O33  1  0.99816100  0.46941800  0.64001800  1
  O  O34  1  0.49816100  0.53058200  0.64001800  1
  O  O35  1  0.50183900  0.46941800  0.14001800  1
  O  O36  1  0.00085700  0.26843500  0.07132600  1
  O  O37  1  0.99914300  0.73156500  0.57132600  1
  O  O38  1  0.49914300  0.26843500  0.57132600  1
  O  O39  1  0.50085700  0.73156500  0.07132600  1
  O  O40  1  0.08061300  0.50201100  0.00377500  1
  O  O41  1  0.91938700  0.49798900  0.50377500  1
  O  O42  1  0.41938700  0.50201100  0.50377500  1
  O  O43  1  0.58061300  0.49798900  0.00377500  1
  O  O44  1  0.72865600  0.98078900  0.90614500  1
  O  O45  1  0.27134400  0.01921100  0.40614500  1
  O  O46  1  0.77134400  0.98078900  0.40614500  1
  O  O47  1  0.22865600  0.01921100  0.90614500  1
  O  O48  1  0.83243400  0.01109800  0.03456200  1
  O  O49  1  0.16756600  0.98890200  0.53456200  1
  O  O50  1  0.66756600  0.01109800  0.53456200  1
  O  O51  1  0.33243400  0.98890200  0.03456200  1
  O  O52  1  0.75345300  0.24801800  0.96825000  1
  O  O53  1  0.24654700  0.75198200  0.46825000  1
  O  O54  1  0.74654700  0.24801800  0.46825000  1
  O  O55  1  0.25345300  0.75198200  0.96825000  1
  O  O56  1  0.93600000  0.10193300  0.91897800  1
  O  O57  1  0.06400000  0.89806700  0.41897800  1
  O  O58  1  0.56400000  0.10193300  0.41897800  1
  O  O59  1  0.43600000  0.89806700  0.91897800  1
  O  O60  1  0.98671100  0.08275500  0.77898600  1
  O  O61  1  0.01328900  0.91724500  0.27898600  1
  O  O62  1  0.51328900  0.08275500  0.27898600  1
  O  O63  1  0.48671100  0.91724500  0.77898600  1
  O  O64  1  0.06462400  0.30095100  0.85967700  1
  O  O65  1  0.93537600  0.69904900  0.35967700  1
  O  O66  1  0.43537600  0.30095100  0.35967700  1
  O  O67  1  0.56462400  0.69904900  0.85967700  1
  O  O68  1  0.85165900  0.29613200  0.82184300  1
  O  O69  1  0.14834100  0.70386800  0.32184300  1
  O  O70  1  0.64834100  0.29613200  0.32184300  1
  O  O71  1  0.35165900  0.70386800  0.82184300  1
loop_
_geom_bond_atom_site_label_1
_geom_bond_atom_site_label_2
_geom_bond_distance
_geom_bond_site_symmetry_2
O0 U0 1.780433 1_555
O1 U1 1.780433 1_555
O2 U2 1.780433 1_555
O3 U3 1.780433 1_555
O4 U0 1.780946 1_555
O5 U1 1.780946 1_555
O6 U2 1.780946 1_555
O7 U3 1.780946 1_555
O8 U4 1.781782 1_555
O9 U5 1.781782 1_555
O10 U6 1.781782 1_555
O11 U7 1.781782 1_555
O12 U4 1.781009 1_465
O13 U5 1.781009 1_645
O14 U6 1.781009 1_565
O15 U7 1.781009 1_545
O16 S0 1.455108 1_555
O16 U2 2.467669 1_555
O17 S1 1.455108 1_555
O17 U3 2.467669 1_555
O18 S2 1.455108 1_555
O18 U0 2.467669 1_555
O19 S3 1.455108 1_555
O19 U1 2.467669 1_555
O20 S0 1.456942 1_555
O20 U7 2.424237 1_545
O21 S1 1.456942 1_555
O21 U6 2.424237 1_565
O22 S2 1.456942 1_555
O22 U5 2.424237 1_545
O23 S3 1.456942 1_555
O23 U4 2.424237 1_565
O24 S0 1.462379 1_555
O24 U4 2.485033 1_455
O25 S1 1.462379 1_555
O25 U5 2.485033 1_655
O26 S2 1.462379 1_555
O26 U6 2.485033 1_555
O27 S3 1.462379 1_555
O27 U7 2.485033 1_555
O28 S0 1.617791 1_555
O28 S4 1.696355 1_555
O29 S1 1.617791 1_555
O29 S5 1.696355 1_555
O30 S2 1.617791 1_555
O30 S6 1.696355 1_555
O31 S3 1.617791 1_555
O31 S7 1.696355 1_555
O32 S4 1.426732 1_555
O33 S5 1.426732 1_555
O34 S6 1.426732 1_555
O35 S7 1.426732 1_555
O36 S4 1.473588 1_555
O36 U4 2.428624 1_455
O37 S5 1.473588 1_555
O37 U5 2.428624 1_655
O38 S6 1.473588 1_555
O38 U6 2.428624 1_555
O39 S7 1.473588 1_555
O39 U7 2.428624 1_555
O40 S4 1.460715 1_555
O40 U0 2.422681 1_554
O41 S5 1.460715 1_555
O41 U1 2.422681 1_555
O42 S6 1.460715 1_555
O42 U2 2.422681 1_555
O43 S7 1.460715 1_555
O43 U3 2.422681 1_554
O44 S8 1.426103 1_565
O45 S9 1.426103 1_545
O46 S10 1.426103 1_565
O47 S11 1.426103 1_545
O48 S8 1.459919 1_554
O48 U4 2.429823 1_555
O49 S9 1.459919 1_555
O49 U5 2.429823 1_555
O50 S10 1.459919 1_555
O50 U6 2.429823 1_555
O51 S11 1.459919 1_554
O51 U7 2.429823 1_555
O52 S8 1.472773 1_555
O52 U3 2.422022 1_555
O53 S9 1.472773 1_555
O53 U2 2.422022 1_555
O54 S10 1.472773 1_555
O54 U1 2.422022 1_555
O55 S11 1.472773 1_555
O55 U0 2.422022 1_555
O56 S12 1.604556 1_555
O56 S8 1.703721 1_555
O57 S13 1.604556 1_555
O57 S9 1.703721 1_555
O58 S14 1.604556 1_555
O58 S10 1.703721 1_555
O59 S15 1.604556 1_555
O59 S11 1.703721 1_555
O60 S12 1.455440 1_555
O60 U5 2.420409 1_645
O61 S13 1.455440 1_555
O61 U4 2.420409 1_465
O62 S14 1.455440 1_555
O62 U7 2.420409 1_545
O63 S15 1.455440 1_555
O63 U6 2.420409 1_565
O64 S12 1.458719 1_455
O64 U0 2.426915 1_555
O65 S13 1.458719 1_655
O65 U1 2.426915 1_555
O66 S14 1.458719 1_555
O66 U2 2.426915 1_555
O67 S15 1.458719 1_555
O67 U3 2.426915 1_555
O68 S12 1.460836 1_555
O68 U3 2.474092 1_555
O69 S13 1.460836 1_555
O69 U2 2.474092 1_555
O70 S14 1.460836 1_555
O70 U1 2.474092 1_555
O71 S15 1.460836 1_555
O71 U0 2.474092 1_555
