# generated using pymatgen
data_BaAgSb
_symmetry_space_group_name_H-M   'P 1'
_cell_length_a   4.86826042
_cell_length_b   4.86826042
_cell_length_c   9.38179631
_cell_angle_alpha   90.00000000
_cell_angle_beta   90.00000000
_cell_angle_gamma   119.99999783
_symmetry_Int_Tables_number   1
_chemical_formula_structural   BaAgSb
_chemical_formula_sum   'Ba2 Ag2 Sb2'
_cell_volume   192.55918763
_cell_formula_units_Z   2
loop_
 _symmetry_equiv_pos_site_id
 _symmetry_equiv_pos_as_xyz
  1  'x, y, z'
loop_
 _atom_site_type_symbol
 _atom_site_label
 _atom_site_symmetry_multiplicity
 _atom_site_fract_x
 _atom_site_fract_y
 _atom_site_fract_z
 _atom_site_occupancy
  Ba  Ba0  1  -0.00000000  -0.00000000  0.50000000  1
  Ba  Ba1  1  -0.00000000  -0.00000000  -0.00000000  1
  Ag  Ag0  1  0.33333300  0.66666700  0.25000000  1
  Ag  Ag1  1  0.66666700  0.33333300  0.75000000  1
  Sb  Sb0  1  0.33333300  0.66666700  0.75000000  1
  Sb  Sb1  1  0.66666700  0.33333300  0.25000000  1
loop_
_geom_bond_atom_site_label_1
_geom_bond_atom_site_label_2
_geom_bond_distance
_geom_bond_site_symmetry_2
Ba0 Sb1 3.660752 1_455
Ba0 Sb0 3.660752 1_545
Ba0 Sb0 3.660755 1_445
Ba0 Sb1 3.660755 1_555
Ba0 Sb1 3.660755 1_445
Ba0 Sb0 3.660755 1_555
Ba1 Sb1 3.660752 1_455
Ba1 Sb0 3.660752 1_544
Ba1 Sb1 3.660755 1_555
Ba1 Sb0 3.660755 1_554
Ba1 Sb1 3.660755 1_445
Ba1 Sb0 3.660755 1_444
Ag0 Sb1 2.810689 1_455
Ag0 Sb1 2.810689 1_565
Ag0 Sb1 2.810697 1_555
Ag0 Ba1 3.660752 1_565
Ag0 Ba0 3.660752 1_565
Ag0 Ba0 3.660755 1_665
Ag0 Ba1 3.660755 1_665
Ag0 Ba1 3.660755 1_555
Ag0 Ba0 3.660755 1_555
Ag1 Sb0 2.810689 1_545
Ag1 Sb0 2.810689 1_655
Ag1 Sb0 2.810697 1_555
Ag1 Ba1 3.660752 1_656
Ag1 Ba0 3.660752 1_655
Ag1 Ba0 3.660755 1_665
Ag1 Ba1 3.660755 1_666
Ag1 Ba1 3.660755 1_556
Ag1 Ba0 3.660755 1_555
