# generated using pymatgen
data_BaCu6Te6S
_symmetry_space_group_name_H-M   'P 1'
_cell_length_a   6.95832900
_cell_length_b   6.93140200
_cell_length_c   7.02313744
_cell_angle_alpha   89.23963033
_cell_angle_beta   90.00000000
_cell_angle_gamma   90.00000000
_symmetry_Int_Tables_number   1
_chemical_formula_structural   BaCu6Te6S
_chemical_formula_sum   'Ba1 Cu6 Te6 S1'
_cell_volume   338.70294217
_cell_formula_units_Z   1
loop_
 _symmetry_equiv_pos_site_id
 _symmetry_equiv_pos_as_xyz
  1  'x, y, z'
loop_
 _atom_site_type_symbol
 _atom_site_label
 _atom_site_symmetry_multiplicity
 _atom_site_fract_x
 _atom_site_fract_y
 _atom_site_fract_z
 _atom_site_occupancy
  Ba  Ba0  1  0.49865400  0.50000000  0.50000000  1
  Cu  Cu0  1  0.19375600  0.18969200  0.19515400  1
  Cu  Cu1  1  0.19375600  0.81030800  0.80484600  1
  Cu  Cu2  1  0.81121000  0.18964000  0.81148100  1
  Cu  Cu3  1  0.81121000  0.81036000  0.18851900  1
  Cu  Cu4  1  0.80542500  0.79675400  0.80549500  1
  Cu  Cu5  1  0.80542500  0.20324600  0.19450500  1
  Te  Te0  1  0.29464300  0.00000000  0.50000000  1
  Te  Te1  1  0.70068800  0.00000000  0.50000000  1
  Te  Te2  1  0.49552900  0.29487700  0.99926400  1
  Te  Te3  1  0.49552900  0.70512300  0.00073600  1
  Te  Te4  1  0.99964800  0.49460000  0.70294600  1
  Te  Te5  1  0.99964800  0.50540000  0.29705400  1
  S  S0  1  0.00584000  0.00000000  0.00000000  1
loop_
_geom_bond_atom_site_label_1
_geom_bond_atom_site_label_2
_geom_bond_distance
_geom_bond_site_symmetry_2
Ba0 Cu4 3.675316 1_555
Ba0 Cu5 3.675316 1_555
Ba0 Cu1 3.719320 1_555
Ba0 Cu0 3.719320 1_555
Ba0 Te1 3.739975 1_555
Ba0 Te1 3.739975 1_565
Ba0 Cu2 3.744118 1_555
Ba0 Cu3 3.744118 1_555
Ba0 Te0 3.745167 1_565
Ba0 Te0 3.745167 1_555
Ba0 Te4 3.753401 1_455
Ba0 Te5 3.753401 1_455
Ba0 Te4 3.766202 1_555
Ba0 Te5 3.766202 1_555
Ba0 Te2 3.766229 1_555
Ba0 Te3 3.766229 1_555
Ba0 Te3 3.810789 1_556
Ba0 Te2 3.810789 1_554
Cu0 S0 2.316227 1_555
Cu0 Te0 2.594350 1_555
Cu0 Te2 2.609017 1_554
Cu0 Te5 2.677067 1_455
Cu1 S0 2.316227 1_566
Cu1 Te0 2.594350 1_565
Cu1 Te3 2.609017 1_556
Cu1 Te4 2.677067 1_455
Cu2 S0 2.295372 1_656
Cu2 Te4 2.593396 1_555
Cu2 Te2 2.668712 1_555
Cu2 Te1 2.679752 1_555
Cu3 S0 2.295372 1_665
Cu3 Te5 2.593396 1_555
Cu3 Te3 2.668712 1_555
Cu3 Te1 2.679752 1_565
Cu4 S0 2.417968 1_666
Cu4 Te4 2.602213 1_555
Cu4 Te3 2.628756 1_556
Cu4 Te1 2.653091 1_565
Cu5 S0 2.417968 1_655
Cu5 Te5 2.602213 1_555
Cu5 Te2 2.628756 1_554
Cu5 Te1 2.653091 1_555
Te0 Te1 2.825395 1_555
Te2 Te3 2.843736 1_556
Te4 Te5 2.850625 1_555
