# generated using pymatgen
data_Li2MnV3O8
_symmetry_space_group_name_H-M   'P 1'
_cell_length_a   5.97851222
_cell_length_b   10.34985861
_cell_length_c   5.94146237
_cell_angle_alpha   106.26778466
_cell_angle_beta   59.81294908
_cell_angle_gamma   89.98991877
_symmetry_Int_Tables_number   1
_chemical_formula_structural   Li2MnV3O8
_chemical_formula_sum   'Li4 Mn2 V6 O16'
_cell_volume   300.62094572
_cell_formula_units_Z   2
loop_
 _symmetry_equiv_pos_site_id
 _symmetry_equiv_pos_as_xyz
  1  'x, y, z'
loop_
 _atom_site_type_symbol
 _atom_site_label
 _atom_site_symmetry_multiplicity
 _atom_site_fract_x
 _atom_site_fract_y
 _atom_site_fract_z
 _atom_site_occupancy
  Li  Li0  1  0.31539300  0.56429100  0.37953500  1
  Li  Li1  1  0.80462400  0.06429800  0.38080800  1
  Li  Li2  1  0.18438500  0.93585100  0.62064000  1
  Li  Li3  1  0.69563000  0.43573300  0.61926300  1
  Mn  Mn0  1  0.75017900  0.74947900  0.49957200  1
  Mn  Mn1  1  0.25084200  0.25041500  0.50037300  1
  V  V0  1  0.24960700  0.75036300  0.99940600  1
  V  V1  1  0.24946400  0.25040500  0.00018200  1
  V  V2  1  0.00799800  0.49987100  0.99900800  1
  V  V3  1  0.74975100  0.24961700  0.99897300  1
  V  V4  1  0.74849900  0.74990700  0.00127000  1
  V  V5  1  0.49351000  0.99995200  0.00050200  1
  O  O0  1  0.11637800  0.63777200  0.79157500  1
  O  O1  1  0.59091600  0.13682600  0.79241000  1
  O  O2  1  0.38245700  0.86255800  0.20850100  1
  O  O3  1  0.90870100  0.36243600  0.20788300  1
  O  O4  1  0.88432300  0.85717100  0.24819600  1
  O  O5  1  0.36659500  0.35720400  0.24865000  1
  O  O6  1  0.10364300  0.63580600  0.24830100  1
  O  O7  1  0.59564300  0.13587900  0.24687800  1
  O  O8  1  0.65728300  0.63567400  0.24588100  1
  O  O9  1  0.15002800  0.13574500  0.24867300  1
  O  O10  1  0.84004500  0.86499500  0.75484700  1
  O  O11  1  0.35454400  0.36336500  0.75029700  1
  O  O12  1  0.39741300  0.86373000  0.75101900  1
  O  O13  1  0.90425800  0.36485200  0.75429600  1
  O  O14  1  0.61495800  0.64287600  0.75130600  1
  O  O15  1  0.13292900  0.14293000  0.75176100  1
loop_
_geom_bond_atom_site_label_1
_geom_bond_atom_site_label_2
_geom_bond_distance
_geom_bond_site_symmetry_2
Li0 O0 2.003660 1_555
Li0 O8 2.012773 1_555
Li0 O6 2.018445 1_555
Li0 O5 2.029493 1_555
Li1 O1 2.001361 1_555
Li1 O7 2.018124 1_555
Li1 O4 2.029587 1_545
Li1 O9 2.030476 1_655
Li2 O2 2.004194 1_555
Li2 O10 2.022120 1_455
Li2 O12 2.023622 1_555
Li2 O15 2.029367 1_565
Li3 O3 2.000500 1_555
Li3 O11 2.013973 1_555
Li3 O13 2.018253 1_555
Li3 O14 2.030076 1_555
Mn0 O8 1.953245 1_555
Mn0 O14 1.953660 1_555
Mn0 O10 1.955051 1_555
Mn0 O4 1.960759 1_555
Mn0 O12 1.979629 1_555
Mn0 O6 1.980143 1_655
Mn1 O7 1.949261 1_555
Mn1 O5 1.955209 1_555
Mn1 O13 1.956181 1_455
Mn1 O15 1.959004 1_555
Mn1 O11 1.977243 1_555
Mn1 O9 1.980037 1_555
O0 V0 1.923642 1_555
O0 V2 2.039263 1_555
O0 V4 2.041999 1_456
O1 V1 1.929995 1_556
O1 V5 2.032749 1_546
O1 V3 2.034809 1_555
O2 V0 1.925355 1_554
O2 V4 2.037043 1_555
O2 V5 2.037135 1_555
O3 V1 1.920149 1_655
O3 V2 2.040656 1_654
O3 V3 2.044922 1_554
O4 V0 2.003385 1_654
O4 V4 2.080892 1_555
O5 V1 2.004299 1_555
O5 V3 2.084265 1_554
O6 V0 2.009737 1_554
O6 V2 2.045664 1_554
O7 V3 2.002788 1_554
O7 V5 2.059178 1_545
O8 V4 1.993313 1_555
O8 V2 2.067474 1_654
O9 V1 2.010139 1_555
O9 V5 2.039428 1_545
O10 V4 2.008344 1_556
O10 V5 2.046798 1_556
O11 V1 2.000135 1_556
O11 V2 2.054898 1_555
O12 V0 1.998632 1_555
O12 V5 2.049603 1_556
O13 V3 2.002600 1_555
O13 V2 2.054328 1_655
O14 V0 2.005972 1_555
O14 V4 2.083555 1_556
O15 V1 2.003954 1_556
O15 V3 2.081159 1_455
