# generated using pymatgen
data_NaNi2O3
_symmetry_space_group_name_H-M   'P 1'
_cell_length_a   5.18701882
_cell_length_b   5.35856824
_cell_length_c   5.18695177
_cell_angle_alpha   79.27708568
_cell_angle_beta   118.00447448
_cell_angle_gamma   79.27530466
_symmetry_Int_Tables_number   1
_chemical_formula_structural   NaNi2O3
_chemical_formula_sum   'Na2 Ni4 O6'
_cell_volume   118.69154421
_cell_formula_units_Z   2
loop_
 _symmetry_equiv_pos_site_id
 _symmetry_equiv_pos_as_xyz
  1  'x, y, z'
loop_
 _atom_site_type_symbol
 _atom_site_label
 _atom_site_symmetry_multiplicity
 _atom_site_fract_x
 _atom_site_fract_y
 _atom_site_fract_z
 _atom_site_occupancy
  Na  Na0  1  0.83173400  0.49999700  0.16826200  1
  Na  Na1  1  0.17126000  0.50000400  0.82873400  1
  Ni  Ni0  1  0.50311900  0.50000400  0.49689900  1
  Ni  Ni1  1  0.66549300  0.99999700  0.33451300  1
  Ni  Ni2  1  0.99888000  0.99999800  0.00111400  1
  Ni  Ni3  1  0.33224300  0.00000700  0.66778400  1
  O  O0  1  0.29917700  0.23494700  0.28663600  1
  O  O1  1  0.71337000  0.76500300  0.70087800  1
  O  O2  1  0.91285100  0.21347700  0.61514900  1
  O  O3  1  0.61466100  0.20742800  0.92756100  1
  O  O4  1  0.07236900  0.79262800  0.38531000  1
  O  O5  1  0.38484500  0.78650900  0.08716000  1
loop_
_geom_bond_atom_site_label_1
_geom_bond_atom_site_label_2
_geom_bond_distance
_geom_bond_site_symmetry_2
Na0 O1 2.295086 1_554
Na0 O0 2.295399 1_655
Na0 O3 2.312923 1_554
Na0 O4 2.313020 1_655
Na0 O2 2.329525 1_555
Na0 O5 2.329534 1_555
Na1 O1 2.238849 1_455
Na1 O0 2.238923 1_556
Na1 O3 2.293946 1_555
Na1 O4 2.294043 1_555
Na1 O5 2.320652 1_556
Na1 O2 2.320720 1_455
Ni0 O1 2.092153 1_555
Ni0 O0 2.092374 1_555
Ni0 O5 2.112138 1_555
Ni0 O2 2.112197 1_555
Ni0 O3 2.219946 1_555
Ni0 O4 2.220316 1_555
Ni1 O0 1.951227 1_565
Ni1 O1 1.951544 1_555
Ni1 O4 2.062601 1_655
Ni1 O3 2.062972 1_564
Ni1 O2 2.117961 1_565
Ni1 O5 2.118022 1_555
Ni2 O5 1.906427 1_655
Ni2 O2 1.906445 1_564
Ni2 O4 1.912152 1_655
Ni2 O3 1.912228 1_564
Ni2 O0 2.337097 1_665
Ni2 O1 2.337112 1_554
Ni3 O1 2.048851 1_545
Ni3 O0 2.048878 1_555
Ni3 O3 2.122880 1_555
Ni3 O4 2.123050 1_545
Ni3 O2 2.124919 1_455
Ni3 O5 2.124979 1_546
