# generated using pymatgen
data_CeTl(PO3)4
_symmetry_space_group_name_H-M   'P 1'
_cell_length_a   9.20044200
_cell_length_b   10.66851600
_cell_length_c   13.13690029
_cell_angle_alpha   54.83286571
_cell_angle_beta   90.00000000
_cell_angle_gamma   90.00000000
_symmetry_Int_Tables_number   1
_chemical_formula_structural   CeTl(PO3)4
_chemical_formula_sum   'Ce4 Tl4 P16 O48'
_cell_volume   1054.09634659
_cell_formula_units_Z   4
loop_
 _symmetry_equiv_pos_site_id
 _symmetry_equiv_pos_as_xyz
  1  'x, y, z'
loop_
 _atom_site_type_symbol
 _atom_site_label
 _atom_site_symmetry_multiplicity
 _atom_site_fract_x
 _atom_site_fract_y
 _atom_site_fract_z
 _atom_site_occupancy
  Ce  Ce0  1  0.22645600  0.81554300  0.18415400  1
  Ce  Ce1  1  0.77354400  0.18445700  0.81584600  1
  Ce  Ce2  1  0.72645600  0.18445700  0.31584600  1
  Ce  Ce3  1  0.27354400  0.81554300  0.68415400  1
  Tl  Tl0  1  0.93528700  0.74613900  0.46042200  1
  Tl  Tl1  1  0.06471300  0.25386100  0.53957800  1
  Tl  Tl2  1  0.43528700  0.25386100  0.03957800  1
  Tl  Tl3  1  0.56471300  0.74613900  0.96042200  1
  P  P0  1  0.97546300  0.52573800  0.22369000  1
  P  P1  1  0.02453700  0.47426200  0.77631000  1
  P  P2  1  0.47546300  0.47426200  0.27631000  1
  P  P3  1  0.52453700  0.52573800  0.72369000  1
  P  P4  1  0.59651100  0.88447100  0.26042700  1
  P  P5  1  0.40348900  0.11552900  0.73957300  1
  P  P6  1  0.09651100  0.11552900  0.23957300  1
  P  P7  1  0.90348900  0.88447100  0.76042700  1
  P  P8  1  0.89724400  0.30142500  0.02240800  1
  P  P9  1  0.10275600  0.69857500  0.97759200  1
  P  P10  1  0.39724400  0.69857500  0.47759200  1
  P  P11  1  0.60275600  0.30142500  0.52240800  1
  P  P12  1  0.82607400  0.81782100  0.14145000  1
  P  P13  1  0.17392600  0.18217900  0.85855000  1
  P  P14  1  0.32607400  0.18217900  0.35855000  1
  P  P15  1  0.67392600  0.81782100  0.64145000  1
  O  O0  1  0.70745400  0.77435400  0.24893300  1
  O  O1  1  0.29254600  0.22564600  0.75106700  1
  O  O2  1  0.20745400  0.22564600  0.25106700  1
  O  O3  1  0.79254600  0.77435400  0.74893300  1
  O  O4  1  0.75552400  0.91879400  0.01566500  1
  O  O5  1  0.24447600  0.08120600  0.98433500  1
  O  O6  1  0.25552400  0.08120600  0.48433500  1
  O  O7  1  0.74447600  0.91879400  0.51566500  1
  O  O8  1  0.18103500  0.98745300  0.25165400  1
  O  O9  1  0.81896500  0.01254700  0.74834600  1
  O  O10  1  0.68103500  0.01254700  0.24834600  1
  O  O11  1  0.31896500  0.98745300  0.75165400  1
  O  O12  1  0.58751400  0.43149900  0.21763600  1
  O  O13  1  0.41248600  0.56850100  0.78236400  1
  O  O14  1  0.08751400  0.56850100  0.28236400  1
  O  O15  1  0.91248600  0.43149900  0.71763600  1
  O  O16  1  0.91096700  0.36796100  0.30460000  1
  O  O17  1  0.08903300  0.63203900  0.69540000  1
  O  O18  1  0.41096700  0.63203900  0.19540000  1
  O  O19  1  0.58903300  0.36796100  0.80460000  1
  O  O20  1  0.34174600  0.79966200  0.51415600  1
  O  O21  1  0.65825400  0.20033800  0.48584400  1
  O  O22  1  0.84174600  0.20033800  0.98584400  1
  O  O23  1  0.15825400  0.79966200  0.01415600  1
  O  O24  1  0.46785900  0.92652600  0.17534500  1
  O  O25  1  0.53214100  0.07347400  0.82465500  1
  O  O26  1  0.96785900  0.07347400  0.32465500  1
  O  O27  1  0.03214100  0.92652600  0.67534500  1
  O  O28  1  0.55047100  0.76438100  0.40345400  1
  O  O29  1  0.44952900  0.23561900  0.59654600  1
  O  O30  1  0.05047100  0.23561900  0.09654600  1
  O  O31  1  0.94952900  0.76438100  0.90345400  1
  O  O32  1  0.96451600  0.86491100  0.17120300  1
  O  O33  1  0.03548400  0.13508900  0.82879700  1
  O  O34  1  0.46451600  0.13508900  0.32879700  1
  O  O35  1  0.53548400  0.86491100  0.67120300  1
  O  O36  1  0.84408500  0.65060500  0.16679700  1
  O  O37  1  0.15591500  0.34939500  0.83320300  1
  O  O38  1  0.34408500  0.34939500  0.33320300  1
  O  O39  1  0.65591500  0.65060500  0.66679700  1
  O  O40  1  0.79734000  0.33964300  0.09134300  1
  O  O41  1  0.20266000  0.66035700  0.90865700  1
  O  O42  1  0.29734000  0.66035700  0.40865700  1
  O  O43  1  0.70266000  0.33964300  0.59134300  1
  O  O44  1  0.54047000  0.45754400  0.39851200  1
  O  O45  1  0.45953000  0.54245600  0.60148800  1
  O  O46  1  0.04047000  0.54245600  0.10148800  1
  O  O47  1  0.95953000  0.45754400  0.89851200  1
loop_
_geom_bond_atom_site_label_1
_geom_bond_atom_site_label_2
_geom_bond_distance
_geom_bond_site_symmetry_2
Ce0 O23 2.417787 1_555
Ce0 O32 2.451743 1_455
Ce0 O24 2.488046 1_555
Ce0 O8 2.489573 1_555
Ce0 O42 2.497978 1_555
Ce0 O14 2.515543 1_555
Ce0 O5 2.526026 1_564
Ce0 O18 2.530433 1_555
Ce1 O22 2.417787 1_555
Ce1 O33 2.451743 1_655
Ce1 O25 2.488046 1_555
Ce1 O9 2.489573 1_555
Ce1 O43 2.497978 1_555
Ce1 O15 2.515543 1_555
Ce1 O4 2.526026 1_546
Ce1 O19 2.530433 1_555
Ce2 O21 2.417787 1_555
Ce2 O34 2.451743 1_555
Ce2 O26 2.488046 1_555
Ce2 O10 2.489573 1_555
Ce2 O40 2.497978 1_555
Ce2 O12 2.515543 1_555
Ce2 O7 2.526026 1_545
Ce2 O16 2.530433 1_555
Ce3 O20 2.417787 1_555
Ce3 O35 2.451743 1_555
Ce3 O27 2.488046 1_555
Ce3 O11 2.489573 1_555
Ce3 O41 2.497978 1_555
Ce3 O13 2.515543 1_555
Ce3 O6 2.526026 1_565
Ce3 O17 2.530433 1_555
O0 P12 1.626520 1_555
O0 P4 1.627616 1_555
O1 P13 1.626520 1_555
O1 P5 1.627616 1_555
O2 P14 1.626520 1_555
O2 P6 1.627616 1_555
O3 P15 1.626520 1_555
O3 P7 1.627616 1_555
O4 P12 1.503920 1_555
O5 P13 1.503920 1_555
O6 P14 1.503920 1_555
O7 P15 1.503920 1_555
O8 P6 1.499045 1_565
O9 P7 1.499045 1_545
O10 P4 1.499045 1_545
O11 P5 1.499045 1_565
O12 P2 1.506694 1_555
O13 P3 1.506694 1_555
O14 P0 1.506694 1_455
O15 P1 1.506694 1_655
O16 P0 1.501416 1_555
O17 P1 1.501416 1_555
O18 P2 1.501416 1_555
O19 P3 1.501416 1_555
O20 P10 1.500405 1_555
O21 P11 1.500405 1_555
O22 P8 1.500405 1_556
O23 P9 1.500405 1_554
O24 P4 1.507965 1_555
O25 P5 1.507965 1_555
O26 P6 1.507965 1_655
O27 P7 1.507965 1_455
O28 P4 1.605695 1_555
O28 P10 1.625182 1_555
O29 P5 1.605695 1_555
O29 P11 1.625182 1_555
O30 P6 1.605695 1_555
O30 P8 1.625182 1_455
O31 P7 1.605695 1_555
O31 P9 1.625182 1_655
O32 P12 1.501245 1_555
O33 P13 1.501245 1_555
O34 P14 1.501245 1_555
O35 P15 1.501245 1_555
O36 P12 1.623740 1_555
O36 P0 1.627068 1_555
O37 P13 1.623740 1_555
O37 P1 1.627068 1_555
O38 P14 1.623740 1_555
O38 P2 1.627068 1_555
O39 P15 1.623740 1_555
O39 P3 1.627068 1_555
O40 P8 1.502175 1_555
O41 P9 1.502175 1_555
O42 P10 1.502175 1_555
O43 P11 1.502175 1_555
O44 P11 1.621376 1_555
O44 P2 1.623843 1_555
O45 P10 1.621376 1_555
O45 P3 1.623843 1_555
O46 P9 1.621376 1_554
O46 P0 1.623843 1_455
O47 P8 1.621376 1_556
O47 P1 1.623843 1_655
