# generated using pymatgen
data_UMnAl
_symmetry_space_group_name_H-M   'P 1'
_cell_length_a   5.20346616
_cell_length_b   5.10204877
_cell_length_c   8.74508600
_cell_angle_alpha   90.00000000
_cell_angle_beta   90.00000000
_cell_angle_gamma   120.72744714
_symmetry_Int_Tables_number   1
_chemical_formula_structural   UMnAl
_chemical_formula_sum   'U4 Mn4 Al4'
_cell_volume   199.57294749
_cell_formula_units_Z   4
loop_
 _symmetry_equiv_pos_site_id
 _symmetry_equiv_pos_as_xyz
  1  'x, y, z'
loop_
 _atom_site_type_symbol
 _atom_site_label
 _atom_site_symmetry_multiplicity
 _atom_site_fract_x
 _atom_site_fract_y
 _atom_site_fract_z
 _atom_site_occupancy
  U  U0  1  0.65270900  0.30377300  0.52889700  1
  U  U1  1  0.34237900  0.68570600  0.43663700  1
  U  U2  1  0.34237900  0.68570600  0.06336300  1
  U  U3  1  0.65270900  0.30377300  0.97110300  1
  Mn  Mn0  1  0.84516000  0.18657200  0.25000000  1
  Mn  Mn1  1  0.34001600  0.18699000  0.25000000  1
  Mn  Mn2  1  0.99801600  0.99550000  0.50090500  1
  Mn  Mn3  1  0.99801600  0.99550000  0.99909500  1
  Al  Al0  1  0.16093700  0.32118000  0.75000000  1
  Al  Al1  1  0.15764400  0.82256800  0.75000000  1
  Al  Al2  1  0.66560100  0.82249900  0.75000000  1
  Al  Al3  1  0.84443400  0.69023400  0.25000000  1
loop_
_geom_bond_atom_site_label_1
_geom_bond_atom_site_label_2
_geom_bond_distance
_geom_bond_site_symmetry_2
U0 U1 2.828221 1_545
U0 U1 3.190689 1_655
U0 U1 3.204888 1_555
U1 U2 3.264313 1_555
U2 U3 2.828221 1_564
U2 U3 3.190689 1_454
U2 U3 3.204888 1_554
Mn0 Mn1 2.573877 1_655
Mn0 Mn1 2.629590 1_555
Mn0 Mn2 2.681381 1_545
Mn0 Mn3 2.681381 1_544
Mn0 U0 2.814415 1_555
Mn0 U3 2.814415 1_554
Mn0 U1 3.018273 1_655
Mn0 U2 3.018273 1_655
Mn0 U1 3.034256 1_545
Mn0 U2 3.034256 1_545
Mn1 Mn2 2.675660 1_445
Mn1 Mn3 2.675660 1_444
Mn1 U0 2.821406 1_555
Mn1 U3 2.821406 1_554
Mn1 U2 3.017691 1_555
Mn1 U1 3.017691 1_555
Mn1 U1 3.039312 1_545
Mn1 U2 3.039312 1_545
Mn2 U0 2.941109 1_565
Mn2 U0 2.943404 1_665
Mn2 U1 2.986508 1_655
Mn2 U1 2.990417 1_555
Mn2 U0 3.043616 1_555
Mn2 U1 3.078820 1_665
Mn3 U3 2.941109 1_565
Mn3 U3 2.943404 1_665
Mn3 U2 2.986508 1_656
Mn3 U2 2.990417 1_556
Mn3 U3 3.043616 1_555
Mn3 U2 3.078820 1_666
Al0 Al2 2.532834 1_445
Al0 Al1 2.535230 1_545
Al0 Al2 2.564014 1_555
Al0 Al1 2.566904 1_555
Al0 Mn3 2.604887 1_445
Al0 Mn2 2.604887 1_445
Al0 U1 3.172644 1_555
Al0 U2 3.172644 1_556
Al0 U3 3.240398 1_455
Al0 U0 3.240398 1_455
Al0 U3 3.244513 1_555
Al0 U0 3.244513 1_555
Al1 Al2 2.560149 1_455
Al1 Mn3 2.638665 1_455
Al1 Mn2 2.638665 1_455
Al1 Al2 2.643317 1_555
Al1 U1 3.099559 1_555
Al1 U2 3.099559 1_556
Al1 U3 3.152662 1_565
Al1 U0 3.152662 1_565
Al1 U3 3.246725 1_455
Al1 U0 3.246725 1_455
Al2 Mn3 2.637429 1_555
Al2 Mn2 2.637429 1_555
Al2 U1 3.102576 1_555
Al2 U2 3.102576 1_556
Al2 U3 3.152920 1_565
Al2 U0 3.152920 1_565
Al2 U3 3.250546 1_555
Al2 U0 3.250546 1_555
Al3 Mn1 2.528739 1_665
Al3 Mn0 2.530413 1_565
Al3 Mn1 2.568031 1_555
Al3 Mn2 2.570391 1_555
Al3 Mn3 2.570391 1_554
Al3 Mn0 2.571640 1_555
Al3 U0 2.970098 1_555
Al3 U3 2.970098 1_554
Al3 U2 3.070434 1_555
Al3 U1 3.070434 1_555
Al3 U1 3.072316 1_655
Al3 U2 3.072316 1_655
