# generated using pymatgen
data_La3ZnNi3
_symmetry_space_group_name_H-M   'P 1'
_cell_length_a   5.54082480
_cell_length_b   5.54082480
_cell_length_c   13.62949300
_cell_angle_alpha   90.00000000
_cell_angle_beta   90.00000000
_cell_angle_gamma   134.64659761
_symmetry_Int_Tables_number   1
_chemical_formula_structural   La3ZnNi3
_chemical_formula_sum   'La6 Zn2 Ni6'
_cell_volume   297.69793924
_cell_formula_units_Z   2
loop_
 _symmetry_equiv_pos_site_id
 _symmetry_equiv_pos_as_xyz
  1  'x, y, z'
loop_
 _atom_site_type_symbol
 _atom_site_label
 _atom_site_symmetry_multiplicity
 _atom_site_fract_x
 _atom_site_fract_y
 _atom_site_fract_z
 _atom_site_occupancy
  La  La0  1  0.28900100  0.71099900  0.39602000  1
  La  La1  1  0.71099900  0.28900100  0.60398000  1
  La  La2  1  0.99269300  0.00730700  0.75000000  1
  La  La3  1  0.00730700  0.99269300  0.25000000  1
  La  La4  1  0.71099900  0.28900100  0.89602000  1
  La  La5  1  0.28900100  0.71099900  0.10398000  1
  Zn  Zn0  1  0.00000000  0.00000000  0.50000000  1
  Zn  Zn1  1  0.00000000  0.00000000  0.00000000  1
  Ni  Ni0  1  0.70764000  0.29236000  0.25000000  1
  Ni  Ni1  1  0.29236000  0.70764000  0.75000000  1
  Ni  Ni2  1  0.42596600  0.57403400  0.91407200  1
  Ni  Ni3  1  0.57403400  0.42596600  0.08592800  1
  Ni  Ni4  1  0.57403400  0.42596600  0.41407200  1
  Ni  Ni5  1  0.42596600  0.57403400  0.58592800  1
loop_
_geom_bond_atom_site_label_1
_geom_bond_atom_site_label_2
_geom_bond_distance
_geom_bond_site_symmetry_2
La0 Ni4 2.924824 1_555
La0 Ni5 2.942933 1_555
La0 Ni0 3.035798 1_455
La0 Ni0 3.035798 1_565
La0 Ni4 3.074909 1_565
La0 Ni4 3.074909 1_455
La0 La3 3.501004 1_555
La0 La3 3.675131 1_655
La0 La3 3.675131 1_545
La1 Ni5 2.924824 1_555
La1 Ni4 2.942933 1_555
La1 Ni1 3.035798 1_545
La1 Ni1 3.035798 1_655
La1 Ni5 3.074909 1_655
La1 Ni5 3.074909 1_545
La1 La2 3.501004 1_555
La1 La2 3.675131 1_565
La1 La2 3.675131 1_455
La2 Ni1 2.959582 1_545
La2 Ni1 2.959582 1_655
La2 Ni1 3.064090 1_645
La2 Ni2 3.166916 1_545
La2 Ni5 3.166916 1_545
La2 Ni5 3.166916 1_655
La2 Ni2 3.166916 1_655
La2 Zn0 3.408192 1_655
La2 Zn1 3.408192 1_656
La2 La4 3.501004 1_555
La2 La4 3.675131 1_545
La2 La4 3.675131 1_655
La3 Ni0 2.959582 1_455
La3 Ni0 2.959582 1_565
La3 Ni0 3.064090 1_465
La3 Ni4 3.166916 1_455
La3 Ni4 3.166916 1_565
La3 Ni3 3.166916 1_565
La3 Ni3 3.166916 1_455
La3 Zn1 3.408192 1_565
La3 Zn0 3.408192 1_565
La3 La5 3.501004 1_555
La3 La5 3.675131 1_455
La3 La5 3.675131 1_565
La4 Ni2 2.924824 1_555
La4 Ni3 2.942933 1_556
La4 Ni1 3.035798 1_545
La4 Ni1 3.035798 1_655
La4 Ni2 3.074909 1_655
La4 Ni2 3.074909 1_545
La5 Ni3 2.924824 1_555
La5 Ni2 2.942933 1_554
La5 Ni0 3.035798 1_455
La5 Ni0 3.035798 1_565
La5 Ni3 3.074909 1_565
La5 Ni3 3.074909 1_455
Ni0 Ni4 2.620487 1_555
Ni0 Ni3 2.620487 1_555
Ni1 Ni2 2.620487 1_555
Ni1 Ni5 2.620487 1_555
Ni2 Zn1 2.551043 1_556
Ni2 Zn1 2.551043 1_666
Ni2 Ni3 2.789012 1_556
Ni3 Zn1 2.551043 1_555
Ni3 Zn1 2.551043 1_665
Ni4 Zn0 2.551043 1_555
Ni4 Zn0 2.551043 1_665
Ni4 Ni5 2.789012 1_555
Ni5 Zn0 2.551043 1_555
Ni5 Zn0 2.551043 1_665
