# generated using pymatgen
data_K2ZnN4
_symmetry_space_group_name_H-M   'P 1'
_cell_length_a   7.00052800
_cell_length_b   7.14169141
_cell_length_c   8.18570373
_cell_angle_alpha   72.63012812
_cell_angle_beta   70.29943433
_cell_angle_gamma   61.76980698
_symmetry_Int_Tables_number   1
_chemical_formula_structural   K2ZnN4
_chemical_formula_sum   'K4 Zn2 N8'
_cell_volume   334.65958318
_cell_formula_units_Z   2
loop_
 _symmetry_equiv_pos_site_id
 _symmetry_equiv_pos_as_xyz
  1  'x, y, z'
loop_
 _atom_site_type_symbol
 _atom_site_label
 _atom_site_symmetry_multiplicity
 _atom_site_fract_x
 _atom_site_fract_y
 _atom_site_fract_z
 _atom_site_occupancy
  K  K0  1  0.30739800  0.72004200  0.83976000  1
  K  K1  1  0.69260200  0.27995800  0.16024000  1
  K  K2  1  0.28711100  0.83242200  0.33834400  1
  K  K3  1  0.71288900  0.16757800  0.66165600  1
  Zn  Zn0  1  0.10315300  0.28972500  0.75673600  1
  Zn  Zn1  1  0.89684700  0.71027500  0.24326400  1
  N  N0  1  0.16727300  0.09697300  0.60259700  1
  N  N1  1  0.83272700  0.90302700  0.39740300  1
  N  N2  1  0.26599300  0.46670800  0.66134300  1
  N  N3  1  0.73400700  0.53329200  0.33865700  1
  N  N4  1  0.18880400  0.10468500  0.97567700  1
  N  N5  1  0.81119600  0.89531500  0.02432300  1
  N  N6  1  0.78412600  0.45895300  0.81064500  1
  N  N7  1  0.21587400  0.54104700  0.18935500  1
loop_
_geom_bond_atom_site_label_1
_geom_bond_atom_site_label_2
_geom_bond_distance
_geom_bond_site_symmetry_2
K0 N7 2.754688 1_556
K0 N0 2.764607 1_565
K0 N2 2.801698 1_555
K0 N6 2.917797 1_555
K0 N4 2.918500 1_565
K0 N5 3.064829 1_456
K1 N6 2.754688 1_554
K1 N1 2.764607 1_545
K1 N3 2.801698 1_555
K1 N7 2.917797 1_555
K1 N5 2.918500 1_545
K1 N4 3.064829 1_654
K2 N3 2.833857 1_555
K2 N1 2.863154 1_455
K2 N0 2.944418 1_565
K2 N7 2.995553 1_555
K2 N4 3.119685 1_564
K2 N2 3.132511 1_555
K3 N2 2.833857 1_555
K3 N0 2.863154 1_655
K3 N1 2.944418 1_545
K3 N6 2.995553 1_555
K3 N5 3.119685 1_546
K3 N3 3.132511 1_555
N0 Zn0 1.938832 1_555
N1 Zn1 1.938832 1_555
N2 Zn0 1.918465 1_555
N3 Zn1 1.918465 1_555
N4 Zn0 1.969417 1_555
N5 Zn1 1.969417 1_555
N6 Zn0 1.934874 1_655
N7 Zn1 1.934874 1_455
