# generated using pymatgen
data_NbV3O8
_symmetry_space_group_name_H-M   'P 1'
_cell_length_a   5.96264368
_cell_length_b   9.39882355
_cell_length_c   6.06153516
_cell_angle_alpha   90.28162893
_cell_angle_beta   59.64487672
_cell_angle_gamma   90.21954747
_symmetry_Int_Tables_number   1
_chemical_formula_structural   NbV3O8
_chemical_formula_sum   'Nb2 V6 O16'
_cell_volume   293.12616376
_cell_formula_units_Z   2
loop_
 _symmetry_equiv_pos_site_id
 _symmetry_equiv_pos_as_xyz
  1  'x, y, z'
loop_
 _atom_site_type_symbol
 _atom_site_label
 _atom_site_symmetry_multiplicity
 _atom_site_fract_x
 _atom_site_fract_y
 _atom_site_fract_z
 _atom_site_occupancy
  Nb  Nb0  1  0.30788200  0.49911000  0.35596700  1
  Nb  Nb1  1  0.69971000  0.99795700  0.63455100  1
  V  V0  1  0.79759800  0.72020100  0.85887000  1
  V  V1  1  0.20666700  0.21579600  0.13622200  1
  V  V2  1  0.81685000  0.70469700  0.35067300  1
  V  V3  1  0.67693300  0.21193200  0.15917200  1
  V  V4  1  0.32708700  0.71904600  0.83808700  1
  V  V5  1  0.18407700  0.21462100  0.64540100  1
  O  O0  1  0.64895900  0.60009000  0.17578900  1
  O  O1  1  0.83599500  0.09685900  0.82028700  1
  O  O2  1  0.47067600  0.33688600  0.03647700  1
  O  O3  1  0.51745400  0.83575800  0.96835200  1
  O  O4  1  0.33474400  0.10630600  0.33423000  1
  O  O5  1  0.63244700  0.60654600  0.70495400  1
  O  O6  1  0.02528700  0.30190100  0.97201500  1
  O  O7  1  0.00106200  0.80335400  0.00089500  1
  O  O8  1  0.15876800  0.59679800  0.18155000  1
  O  O9  1  0.35603600  0.10007600  0.81772000  1
  O  O10  1  0.48164700  0.33943600  0.46446500  1
  O  O11  1  0.94719900  0.83276500  0.53680300  1
  O  O12  1  0.04901700  0.33380500  0.47301100  1
  O  O13  1  0.51262800  0.83777500  0.54135100  1
  O  O14  1  0.85910300  0.10106100  0.32319200  1
  O  O15  1  0.15237300  0.60294800  0.66996600  1
loop_
_geom_bond_atom_site_label_1
_geom_bond_atom_site_label_2
_geom_bond_distance
_geom_bond_site_symmetry_2
Nb0 O15 1.907827 1_555
Nb0 O8 1.927990 1_555
Nb0 O0 1.995008 1_555
Nb0 O12 2.045811 1_555
Nb0 O10 2.113905 1_555
Nb0 O2 2.258262 1_555
Nb1 O14 1.897967 1_565
Nb1 O1 1.923687 1_565
Nb1 O9 2.014498 1_565
Nb1 O11 2.015964 1_555
Nb1 O13 2.108508 1_555
Nb1 O3 2.322538 1_555
O0 V0 2.010737 1_554
O0 V2 2.036498 1_555
O1 V3 2.075035 1_556
O1 V5 2.103961 1_655
O2 V1 1.780443 1_555
O2 V3 2.094993 1_555
O3 V0 1.815671 1_555
O3 V4 2.000760 1_555
O4 V5 1.917447 1_555
O4 V1 2.006823 1_555
O4 V3 2.020187 1_555
O5 V4 1.898866 1_555
O5 V0 1.972802 1_555
O5 V2 2.072885 1_555
O6 V5 1.893238 1_555
O6 V1 1.979379 1_556
O6 V3 1.982612 1_456
O7 V4 1.856324 1_554
O7 V0 1.966082 1_454
O7 V2 2.054082 1_455
O8 V2 2.032004 1_455
O8 V4 2.136498 1_554
O9 V1 1.988044 1_556
O9 V5 2.098411 1_555
O10 V5 1.938321 1_555
O10 V3 2.006866 1_555
O11 V0 1.994782 1_555
O11 V2 2.047345 1_555
O12 V5 1.965763 1_555
O12 V1 2.080277 1_555
O13 V4 1.924441 1_555
O13 V2 2.018643 1_555
O14 V1 2.088821 1_655
O14 V3 2.089154 1_555
O15 V4 2.089930 1_555
O15 V0 2.134902 1_455
