# generated using pymatgen
data_Nd2Ga5Cu3
_symmetry_space_group_name_H-M   'P 1'
_cell_length_a   4.18542039
_cell_length_b   4.18542039
_cell_length_c   10.28058735
_cell_angle_alpha   90.00000000
_cell_angle_beta   90.00000000
_cell_angle_gamma   90.00000000
_symmetry_Int_Tables_number   1
_chemical_formula_structural   Nd2Ga5Cu3
_chemical_formula_sum   'Nd2 Ga5 Cu3'
_cell_volume   180.09269573
_cell_formula_units_Z   1
loop_
 _symmetry_equiv_pos_site_id
 _symmetry_equiv_pos_as_xyz
  1  'x, y, z'
loop_
 _atom_site_type_symbol
 _atom_site_label
 _atom_site_symmetry_multiplicity
 _atom_site_fract_x
 _atom_site_fract_y
 _atom_site_fract_z
 _atom_site_occupancy
  Nd  Nd0  1  0.50000000  -0.00000000  0.74328423  1
  Nd  Nd1  1  0.00000000  0.50000000  0.25671577  1
  Ga  Ga0  1  0.00000000  0.50000000  0.86316339  1
  Ga  Ga1  1  0.50000000  -0.00000000  0.37976212  1
  Ga  Ga2  1  0.50000000  0.00000000  0.13683661  1
  Ga  Ga3  1  -0.00000000  0.50000000  0.62023788  1
  Ga  Ga4  1  0.50000000  0.50000000  0.00000000  1
  Cu  Cu0  1  0.00000000  0.00000000  0.50000000  1
  Cu  Cu1  1  0.00000000  0.00000000  0.00000000  1
  Cu  Cu2  1  0.50000000  0.50000000  0.50000000  1
loop_
_geom_bond_atom_site_label_1
_geom_bond_atom_site_label_2
_geom_bond_distance
_geom_bond_site_symmetry_2
Ga0 Ga3 2.497417 1_555
Ga0 Ga4 2.521589 1_556
Ga0 Ga4 2.521589 1_456
Ga0 Nd0 3.205893 1_455
Ga0 Nd0 3.205893 1_555
Ga0 Nd0 3.205893 1_465
Ga0 Nd0 3.205893 1_565
Ga1 Ga2 2.497417 1_555
Ga1 Nd1 3.218551 1_655
Ga1 Nd1 3.218551 1_645
Ga1 Nd1 3.218551 1_555
Ga1 Nd1 3.218551 1_545
Ga2 Ga4 2.521589 1_555
Ga2 Ga4 2.521589 1_545
Ga2 Nd1 3.205893 1_555
Ga2 Nd1 3.205893 1_545
Ga2 Nd1 3.205893 1_655
Ga2 Nd1 3.205893 1_645
Ga3 Nd0 3.218551 1_455
Ga3 Nd0 3.218551 1_555
Ga3 Nd0 3.218551 1_465
Ga3 Nd0 3.218551 1_565
Ga4 Nd0 3.368197 1_564
Ga4 Nd0 3.368197 1_554
Ga4 Nd1 3.368197 1_655
Ga4 Nd1 3.368197 1_555
Cu0 Ga1 2.430518 1_555
Cu0 Ga1 2.430518 1_455
Cu0 Ga3 2.430518 1_545
Cu0 Ga3 2.430518 1_555
Cu0 Nd0 3.261129 1_455
Cu0 Nd0 3.261129 1_555
Cu0 Nd1 3.261129 1_555
Cu0 Nd1 3.261129 1_545
Cu1 Ga0 2.521589 1_544
Cu1 Ga2 2.521589 1_455
Cu1 Ga0 2.521589 1_554
Cu1 Ga2 2.521589 1_555
Cu1 Ga4 2.959539 1_545
Cu1 Ga4 2.959539 1_445
Cu1 Ga4 2.959539 1_455
Cu1 Ga4 2.959539 1_555
Cu1 Nd0 3.368197 1_554
Cu1 Nd0 3.368197 1_454
Cu1 Nd1 3.368197 1_555
Cu1 Nd1 3.368197 1_545
Cu2 Ga1 2.430518 1_555
Cu2 Ga3 2.430518 1_655
Cu2 Ga1 2.430518 1_565
Cu2 Ga3 2.430518 1_555
Cu2 Nd0 3.261129 1_555
Cu2 Nd1 3.261129 1_655
Cu2 Nd1 3.261129 1_555
Cu2 Nd0 3.261129 1_565
