# generated using pymatgen
data_Y(AsO)2
_symmetry_space_group_name_H-M   'P 1'
_cell_length_a   10.25604466
_cell_length_b   10.25604466
_cell_length_c   10.25604466
_cell_angle_alpha   115.63086664
_cell_angle_beta   115.63086664
_cell_angle_gamma   97.75034804
_symmetry_Int_Tables_number   1
_chemical_formula_structural   Y(AsO)2
_chemical_formula_sum   'Y4 As8 O8'
_cell_volume   805.21117766
_cell_formula_units_Z   4
loop_
 _symmetry_equiv_pos_site_id
 _symmetry_equiv_pos_as_xyz
  1  'x, y, z'
loop_
 _atom_site_type_symbol
 _atom_site_label
 _atom_site_symmetry_multiplicity
 _atom_site_fract_x
 _atom_site_fract_y
 _atom_site_fract_z
 _atom_site_occupancy
  Y  Y0  1  0.87500000  0.12500000  0.75000000  1
  Y  Y1  1  0.37500000  0.12500000  0.25000000  1
  Y  Y2  1  0.87500000  0.62500000  0.75000000  1
  Y  Y3  1  0.87500000  0.12500000  0.25000000  1
  As  As0  1  0.77348500  0.39146000  0.38202500  1
  As  As1  1  0.00943500  0.39146000  0.61797500  1
  As  As2  1  0.14146000  0.25943500  0.11797500  1
  As  As3  1  0.74056500  0.85854000  0.88202500  1
  As  As4  1  0.97651500  0.85854000  0.11797500  1
  As  As5  1  0.14146000  0.02348500  0.88202500  1
  As  As6  1  0.60854000  0.99056500  0.38202500  1
  As  As7  1  0.60854000  0.22651500  0.61797500  1
  O  O0  1  0.57795600  0.27771600  0.30024000  1
  O  O1  1  0.97747700  0.27771600  0.69976000  1
  O  O2  1  0.02771600  0.22747700  0.19976000  1
  O  O3  1  0.77252300  0.97228400  0.80024000  1
  O  O4  1  0.17204400  0.97228400  0.19976000  1
  O  O5  1  0.02771600  0.82795600  0.80024000  1
  O  O6  1  0.72228400  0.02252300  0.30024000  1
  O  O7  1  0.72228400  0.42204400  0.69976000  1
loop_
_geom_bond_atom_site_label_1
_geom_bond_atom_site_label_2
_geom_bond_distance
_geom_bond_site_symmetry_2
As0 O0 1.775710 1_555
As1 O1 1.775707 1_455
As2 O2 1.775707 1_555
As3 O3 1.775707 1_555
As4 O4 1.775710 1_655
As5 O5 1.775710 1_545
As6 O6 1.775707 1_565
As7 O7 1.775710 1_555
O0 Y1 2.132135 1_555
O1 Y0 2.132140 1_555
O2 Y3 2.132140 1_455
O3 Y0 2.132140 1_565
O4 Y1 2.132135 1_565
O5 Y2 2.132135 1_455
O6 Y3 2.132140 1_555
O7 Y2 2.132135 1_555
