# generated using pymatgen
data_Y5(SiO4)3
_symmetry_space_group_name_H-M   'P 1'
_cell_length_a   6.48972000
_cell_length_b   10.23423800
_cell_length_c   15.68412300
_cell_angle_alpha   90.00000000
_cell_angle_beta   90.00000000
_cell_angle_gamma   90.00000000
_symmetry_Int_Tables_number   1
_chemical_formula_structural   Y5(SiO4)3
_chemical_formula_sum   'Y20 Si12 O48'
_cell_volume   1041.69771473
_cell_formula_units_Z   4
loop_
 _symmetry_equiv_pos_site_id
 _symmetry_equiv_pos_as_xyz
  1  'x, y, z'
loop_
 _atom_site_type_symbol
 _atom_site_label
 _atom_site_symmetry_multiplicity
 _atom_site_fract_x
 _atom_site_fract_y
 _atom_site_fract_z
 _atom_site_occupancy
  Y  Y0  1  0.97663900  0.10036600  0.75000000  1
  Y  Y1  1  0.02336100  0.89963400  0.25000000  1
  Y  Y2  1  0.52336100  0.60036600  0.25000000  1
  Y  Y3  1  0.47663900  0.39963400  0.75000000  1
  Y  Y4  1  0.18674100  0.17553100  0.13006600  1
  Y  Y5  1  0.81325900  0.82446900  0.86993400  1
  Y  Y6  1  0.31325900  0.67553100  0.86993400  1
  Y  Y7  1  0.81325900  0.82446900  0.63006600  1
  Y  Y8  1  0.68674100  0.32446900  0.13006600  1
  Y  Y9  1  0.18674100  0.17553100  0.36993400  1
  Y  Y10  1  0.68674100  0.32446900  0.36993400  1
  Y  Y11  1  0.31325900  0.67553100  0.63006600  1
  Y  Y12  1  0.39073600  0.07955200  0.59775300  1
  Y  Y13  1  0.60926400  0.92044800  0.40224700  1
  Y  Y14  1  0.10926400  0.57955200  0.40224700  1
  Y  Y15  1  0.60926400  0.92044800  0.09775300  1
  Y  Y16  1  0.89073600  0.42044800  0.59775300  1
  Y  Y17  1  0.39073600  0.07955200  0.90224700  1
  Y  Y18  1  0.89073600  0.42044800  0.90224700  1
  Y  Y19  1  0.10926400  0.57955200  0.09775300  1
  Si  Si0  1  0.93467000  0.61714100  0.75000000  1
  Si  Si1  1  0.06533000  0.38285900  0.25000000  1
  Si  Si2  1  0.56533000  0.11714100  0.25000000  1
  Si  Si3  1  0.43467000  0.88285900  0.75000000  1
  Si  Si4  1  0.36415100  0.37775900  0.56293000  1
  Si  Si5  1  0.63584900  0.62224100  0.43707000  1
  Si  Si6  1  0.13584900  0.87775900  0.43707000  1
  Si  Si7  1  0.63584900  0.62224100  0.06293000  1
  Si  Si8  1  0.86415100  0.12224100  0.56293000  1
  Si  Si9  1  0.36415100  0.37775900  0.93707000  1
  Si  Si10  1  0.86415100  0.12224100  0.93707000  1
  Si  Si11  1  0.13584900  0.87775900  0.06293000  1
  O  O0  1  0.03964000  0.37905100  0.13695800  1
  O  O1  1  0.96036000  0.62094900  0.86304200  1
  O  O2  1  0.46036000  0.87905100  0.86304200  1
  O  O3  1  0.96036000  0.62094900  0.63695800  1
  O  O4  1  0.53964000  0.12094900  0.13695800  1
  O  O5  1  0.03964000  0.37905100  0.36304200  1
  O  O6  1  0.53964000  0.12094900  0.36304200  1
  O  O7  1  0.46036000  0.87905100  0.63695800  1
  O  O8  1  0.22851900  0.55149400  0.75000000  1
  O  O9  1  0.77148100  0.44850600  0.25000000  1
  O  O10  1  0.27148100  0.05149400  0.25000000  1
  O  O11  1  0.72851900  0.94850600  0.75000000  1
  O  O12  1  0.33322700  0.04625700  0.75000000  1
  O  O13  1  0.66677300  0.95374300  0.25000000  1
  O  O14  1  0.16677300  0.54625700  0.25000000  1
  O  O15  1  0.83322700  0.45374300  0.75000000  1
  O  O16  1  0.19740100  0.48703500  0.53125500  1
  O  O17  1  0.80259900  0.51296500  0.46874500  1
  O  O18  1  0.30259900  0.98703500  0.46874500  1
  O  O19  1  0.80259900  0.51296500  0.03125500  1
  O  O20  1  0.69740100  0.01296500  0.53125500  1
  O  O21  1  0.19740100  0.48703500  0.96874500  1
  O  O22  1  0.69740100  0.01296500  0.96874500  1
  O  O23  1  0.30259900  0.98703500  0.03125500  1
  O  O24  1  0.26015000  0.29144900  0.64339800  1
  O  O25  1  0.73985000  0.70855100  0.35660200  1
  O  O26  1  0.23985000  0.79144900  0.35660200  1
  O  O27  1  0.73985000  0.70855100  0.14339800  1
  O  O28  1  0.76015000  0.20855100  0.64339800  1
  O  O29  1  0.26015000  0.29144900  0.85660200  1
  O  O30  1  0.76015000  0.20855100  0.85660200  1
  O  O31  1  0.23985000  0.79144900  0.14339800  1
  O  O32  1  0.44476000  0.27422800  0.00779400  1
  O  O33  1  0.55524000  0.72577200  0.99220600  1
  O  O34  1  0.05524000  0.77422800  0.99220600  1
  O  O35  1  0.55524000  0.72577200  0.50779400  1
  O  O36  1  0.94476000  0.22577200  0.00779400  1
  O  O37  1  0.44476000  0.27422800  0.49220600  1
  O  O38  1  0.94476000  0.22577200  0.49220600  1
  O  O39  1  0.05524000  0.77422800  0.50779400  1
  O  O40  1  0.03986800  0.03199900  0.61305400  1
  O  O41  1  0.96013200  0.96800100  0.38694600  1
  O  O42  1  0.46013200  0.53199900  0.38694600  1
  O  O43  1  0.96013200  0.96800100  0.11305400  1
  O  O44  1  0.53986800  0.46800100  0.61305400  1
  O  O45  1  0.03986800  0.03199900  0.88694600  1
  O  O46  1  0.53986800  0.46800100  0.88694600  1
  O  O47  1  0.46013200  0.53199900  0.11305400  1
loop_
_geom_bond_atom_site_label_1
_geom_bond_atom_site_label_2
_geom_bond_distance
_geom_bond_site_symmetry_2
O0 Si1 1.781213 1_555
O0 Y19 2.189260 1_555
O0 Y4 2.293771 1_555
O0 Y8 2.359833 1_455
O1 Si0 1.781213 1_555
O1 Y18 2.189260 1_555
O1 Y5 2.293771 1_555
O1 Y6 2.359833 1_655
O2 Si3 1.781213 1_555
O2 Y17 2.189260 1_565
O2 Y6 2.293771 1_555
O2 Y5 2.359833 1_555
O3 Si0 1.781213 1_555
O3 Y16 2.189260 1_555
O3 Y7 2.293771 1_555
O3 Y11 2.359833 1_655
O4 Si2 1.781213 1_555
O4 Y15 2.189260 1_545
O4 Y8 2.293771 1_555
O4 Y4 2.359833 1_555
O5 Si1 1.781213 1_555
O5 Y14 2.189260 1_555
O5 Y9 2.293771 1_555
O5 Y10 2.359833 1_455
O6 Si2 1.781213 1_555
O6 Y13 2.189260 1_545
O6 Y10 2.293771 1_555
O6 Y9 2.359833 1_555
O7 Si3 1.781213 1_555
O7 Y12 2.189260 1_565
O7 Y11 2.293771 1_555
O7 Y7 2.359833 1_555
O8 Si0 2.021885 1_455
O8 Y3 2.237920 1_555
O8 Y11 2.335007 1_555
O8 Y6 2.335007 1_555
O9 Si1 2.021885 1_655
O9 Y2 2.237920 1_555
O9 Y10 2.335007 1_555
O9 Y8 2.335007 1_555
O10 Si2 2.021885 1_555
O10 Y1 2.237920 1_545
O10 Y9 2.335007 1_555
O10 Y4 2.335007 1_555
O11 Si3 2.021885 1_555
O11 Y0 2.237920 1_565
O11 Y5 2.335007 1_555
O11 Y7 2.335007 1_555
O12 Si3 1.797176 1_545
O12 Y0 2.379490 1_455
O12 Y12 2.440754 1_555
O12 Y17 2.440754 1_555
O13 Si2 1.797176 1_565
O13 Y1 2.379490 1_655
O13 Y15 2.440754 1_555
O13 Y13 2.440754 1_555
O14 Si1 1.797176 1_555
O14 Y2 2.379490 1_555
O14 Y19 2.440754 1_555
O14 Y14 2.440754 1_555
O15 Si0 1.797176 1_555
O15 Y3 2.379490 1_555
O15 Y18 2.440754 1_555
O15 Y16 2.440754 1_555
O16 Si4 1.633585 1_555
O16 Y14 2.306020 1_555
O16 Y16 2.347966 1_455
O16 Y11 2.586228 1_555
O17 Si5 1.633585 1_555
O17 Y16 2.306020 1_555
O17 Y14 2.347966 1_655
O17 Y10 2.586228 1_555
O18 Si6 1.633585 1_555
O18 Y12 2.306020 1_565
O18 Y13 2.347966 1_555
O18 Y9 2.586228 1_565
O19 Si7 1.633585 1_555
O19 Y18 2.306020 1_554
O19 Y19 2.347966 1_655
O19 Y8 2.586228 1_555
O20 Si8 1.633585 1_555
O20 Y13 2.306020 1_545
O20 Y12 2.347966 1_555
O20 Y7 2.586228 1_545
O21 Si9 1.633585 1_555
O21 Y19 2.306020 1_556
O21 Y18 2.347966 1_455
O21 Y6 2.586228 1_555
O22 Si10 1.633585 1_555
O22 Y15 2.306020 1_546
O22 Y17 2.347966 1_555
O22 Y5 2.586228 1_545
O23 Si11 1.633585 1_555
O23 Y17 2.306020 1_564
O23 Y15 2.347966 1_555
O23 Y4 2.586228 1_565
O24 Si4 1.681847 1_555
O24 Y12 2.435890 1_555
O24 Y3 2.448512 1_555
O24 Y16 2.828950 1_455
O25 Si5 1.681847 1_555
O25 Y13 2.435890 1_555
O25 Y2 2.448512 1_555
O25 Y14 2.828950 1_655
O26 Si6 1.681847 1_555
O26 Y14 2.435890 1_555
O26 Y1 2.448512 1_555
O26 Y13 2.828950 1_555
O27 Si7 1.681847 1_555
O27 Y15 2.435890 1_555
O27 Y2 2.448512 1_555
O27 Y19 2.828950 1_655
O28 Si8 1.681847 1_555
O28 Y16 2.435890 1_555
O28 Y0 2.448512 1_555
O28 Y12 2.828950 1_555
O29 Si9 1.681847 1_555
O29 Y17 2.435890 1_555
O29 Y3 2.448512 1_555
O29 Y18 2.828950 1_455
O30 Si10 1.681847 1_555
O30 Y18 2.435890 1_555
O30 Y0 2.448512 1_555
O30 Y17 2.828950 1_555
O31 Si11 1.681847 1_555
O31 Y19 2.435890 1_555
O31 Y1 2.448512 1_555
O31 Y15 2.828950 1_555
O32 Si9 1.620727 1_554
O32 Y8 2.531439 1_555
O32 Y17 2.613965 1_554
O32 Y4 2.738945 1_555
O33 Si7 1.620727 1_556
O33 Y6 2.531439 1_555
O33 Y15 2.613965 1_556
O33 Y5 2.738945 1_555
O34 Si11 1.620727 1_556
O34 Y5 2.531439 1_455
O34 Y19 2.613965 1_556
O34 Y6 2.738945 1_555
O35 Si5 1.620727 1_555
O35 Y11 2.531439 1_555
O35 Y13 2.613965 1_555
O35 Y7 2.738945 1_555
O36 Si10 1.620727 1_554
O36 Y4 2.531439 1_655
O36 Y18 2.613965 1_554
O36 Y8 2.738945 1_555
O37 Si4 1.620727 1_555
O37 Y10 2.531439 1_555
O37 Y12 2.613965 1_555
O37 Y9 2.738945 1_555
O38 Si8 1.620727 1_555
O38 Y9 2.531439 1_655
O38 Y16 2.613965 1_555
O38 Y10 2.738945 1_555
O39 Si6 1.620727 1_555
O39 Y7 2.531439 1_455
O39 Y14 2.613965 1_555
O39 Y11 2.738945 1_555
O40 Si8 1.664752 1_455
O40 Y0 2.295934 1_455
O40 Y12 2.340796 1_555
O40 Y7 2.597102 1_445
O41 Si6 1.664752 1_655
O41 Y1 2.295934 1_655
O41 Y13 2.340796 1_555
O41 Y9 2.597102 1_665
O42 Si5 1.664752 1_555
O42 Y2 2.295934 1_555
O42 Y14 2.340796 1_555
O42 Y10 2.597102 1_555
O43 Si11 1.664752 1_655
O43 Y1 2.295934 1_655
O43 Y15 2.340796 1_555
O43 Y4 2.597102 1_665
O44 Si4 1.664752 1_555
O44 Y3 2.295934 1_555
O44 Y16 2.340796 1_555
O44 Y11 2.597102 1_555
O45 Si10 1.664752 1_455
O45 Y0 2.295934 1_455
O45 Y17 2.340796 1_555
O45 Y5 2.597102 1_445
O46 Si9 1.664752 1_555
O46 Y3 2.295934 1_555
O46 Y18 2.340796 1_555
O46 Y6 2.597102 1_555
O47 Si7 1.664752 1_555
O47 Y2 2.295934 1_555
O47 Y19 2.340796 1_555
O47 Y8 2.597102 1_555
