# generated using pymatgen
data_YbBeF4
_symmetry_space_group_name_H-M   'P 1'
_cell_length_a   12.44663666
_cell_length_b   13.42508388
_cell_length_c   4.28531300
_cell_angle_alpha   90.00000000
_cell_angle_beta   90.00000000
_cell_angle_gamma   145.12699221
_symmetry_Int_Tables_number   1
_chemical_formula_structural   YbBeF4
_chemical_formula_sum   'Yb4 Be4 F16'
_cell_volume   409.41609091
_cell_formula_units_Z   4
loop_
 _symmetry_equiv_pos_site_id
 _symmetry_equiv_pos_as_xyz
  1  'x, y, z'
loop_
 _atom_site_type_symbol
 _atom_site_label
 _atom_site_symmetry_multiplicity
 _atom_site_fract_x
 _atom_site_fract_y
 _atom_site_fract_z
 _atom_site_occupancy
  Yb  Yb0  1  0.54738700  0.33794800  0.73935400  1
  Yb  Yb1  1  0.04738700  0.33794800  0.76064600  1
  Yb  Yb2  1  0.45261300  0.66205200  0.26064600  1
  Yb  Yb3  1  0.95261300  0.66205200  0.23935400  1
  Be  Be0  1  0.17520400  0.00847800  0.15373700  1
  Be  Be1  1  0.82479600  0.99152200  0.84626300  1
  Be  Be2  1  0.32479600  0.99152200  0.65373700  1
  Be  Be3  1  0.67520400  0.00847800  0.34626300  1
  F  F0  1  0.22525700  0.83250300  0.49001400  1
  F  F1  1  0.13905700  0.43234000  0.25757700  1
  F  F2  1  0.71156600  0.92873900  0.53192200  1
  F  F3  1  0.78843400  0.07126100  0.03192200  1
  F  F4  1  0.96704500  0.83617100  0.22280800  1
  F  F5  1  0.03295500  0.16382900  0.77719200  1
  F  F6  1  0.63905700  0.43234000  0.24242300  1
  F  F7  1  0.77474300  0.16749700  0.50998600  1
  F  F8  1  0.53295500  0.16382900  0.72280800  1
  F  F9  1  0.21156600  0.92873900  0.96807800  1
  F  F10  1  0.36094300  0.56766000  0.75757700  1
  F  F11  1  0.72525700  0.83250300  0.00998600  1
  F  F12  1  0.46704500  0.83617100  0.27719200  1
  F  F13  1  0.28843400  0.07126100  0.46807800  1
  F  F14  1  0.27474300  0.16749700  0.99001400  1
  F  F15  1  0.86094300  0.56766000  0.74242300  1
loop_
_geom_bond_atom_site_label_1
_geom_bond_atom_site_label_2
_geom_bond_distance
_geom_bond_site_symmetry_2
Be0 F14 1.498285 1_554
Be0 F4 1.522248 1_445
Be0 F13 1.600644 1_555
Be0 F9 1.666966 1_544
Be1 F11 1.498285 1_556
Be1 F5 1.522248 1_665
Be1 F2 1.600644 1_555
Be1 F3 1.666966 1_566
Be2 F0 1.498285 1_555
Be2 F8 1.522248 1_565
Be2 F9 1.600644 1_555
Be2 F13 1.666966 1_565
Be3 F7 1.498285 1_555
Be3 F12 1.522248 1_545
Be3 F3 1.600644 1_555
Be3 F2 1.666966 1_545
F0 Yb3 2.272497 1_455
F1 Yb2 2.234571 1_555
F1 Yb1 2.251671 1_554
F1 Yb1 2.276564 1_555
F2 Yb2 2.371402 1_555
F3 Yb1 2.371402 1_654
F4 Yb3 2.193743 1_555
F5 Yb1 2.193743 1_555
F6 Yb3 2.234571 1_555
F6 Yb0 2.251671 1_555
F6 Yb0 2.276564 1_554
F7 Yb1 2.272497 1_655
F8 Yb0 2.193743 1_555
F9 Yb3 2.371402 1_456
F10 Yb1 2.234571 1_555
F10 Yb2 2.251671 1_555
F10 Yb2 2.276564 1_556
F11 Yb2 2.272497 1_555
F12 Yb2 2.193743 1_555
F13 Yb0 2.371402 1_555
F14 Yb0 2.272497 1_555
F15 Yb0 2.234571 1_555
F15 Yb3 2.251671 1_556
F15 Yb3 2.276564 1_555
