# generated using pymatgen
data_BaNaPrBiO6
_symmetry_space_group_name_H-M   'P 1'
_cell_length_a   8.78704035
_cell_length_b   8.73534080
_cell_length_c   8.77693882
_cell_angle_alpha   90.00000000
_cell_angle_beta   90.00000000
_cell_angle_gamma   90.00000000
_symmetry_Int_Tables_number   1
_chemical_formula_structural   BaNaPrBiO6
_chemical_formula_sum   'Ba4 Na4 Pr4 Bi4 O24'
_cell_volume   673.69844505
_cell_formula_units_Z   4
loop_
 _symmetry_equiv_pos_site_id
 _symmetry_equiv_pos_as_xyz
  1  'x, y, z'
loop_
 _atom_site_type_symbol
 _atom_site_label
 _atom_site_symmetry_multiplicity
 _atom_site_fract_x
 _atom_site_fract_y
 _atom_site_fract_z
 _atom_site_occupancy
  Ba  Ba0  1  -0.00000000  0.00000000  0.00000000  1
  Ba  Ba1  1  0.50000000  0.50000000  0.50000000  1
  Ba  Ba2  1  0.50000000  0.50000000  -0.00000000  1
  Ba  Ba3  1  0.00000000  0.00000000  0.50000000  1
  Na  Na0  1  -0.00000000  0.50000000  0.50000000  1
  Na  Na1  1  0.50000000  -0.00000000  0.50000000  1
  Na  Na2  1  0.50000000  0.00000000  -0.00000000  1
  Na  Na3  1  0.00000000  0.50000000  0.00000000  1
  Pr  Pr0  1  0.25000000  0.25000000  0.25000000  1
  Pr  Pr1  1  0.75000000  0.75000000  0.25000000  1
  Pr  Pr2  1  0.75000000  0.25000000  0.75000000  1
  Pr  Pr3  1  0.25000000  0.75000000  0.75000000  1
  Bi  Bi0  1  0.75000000  0.75000000  0.75000000  1
  Bi  Bi1  1  0.25000000  0.25000000  0.75000000  1
  Bi  Bi2  1  0.25000000  0.75000000  0.25000000  1
  Bi  Bi3  1  0.75000000  0.25000000  0.25000000  1
  O  O0  1  0.98812389  0.20413226  0.26747659  1
  O  O1  1  0.01187611  0.79586774  0.26747659  1
  O  O2  1  0.01187611  0.20413226  0.73252341  1
  O  O3  1  0.98812389  0.79586774  0.73252341  1
  O  O4  1  0.27754287  0.98551748  0.18719457  1
  O  O5  1  0.27754287  0.01448252  0.81280543  1
  O  O6  1  0.72245713  0.01448252  0.18719457  1
  O  O7  1  0.72245713  0.98551748  0.81280543  1
  O  O8  1  0.21945147  0.30657374  0.98612234  1
  O  O9  1  0.78054853  0.30657374  0.01387766  1
  O  O10  1  0.21945147  0.69342626  0.01387766  1
  O  O11  1  0.78054853  0.69342626  0.98612234  1
  O  O12  1  0.51187611  0.29586774  0.23252341  1
  O  O13  1  0.48812389  0.70413226  0.23252341  1
  O  O14  1  0.48812389  0.29586774  0.76747659  1
  O  O15  1  0.51187611  0.70413226  0.76747659  1
  O  O16  1  0.22245713  0.51448252  0.31280543  1
  O  O17  1  0.22245713  0.48551748  0.68719457  1
  O  O18  1  0.77754287  0.48551748  0.31280543  1
  O  O19  1  0.77754287  0.51448252  0.68719457  1
  O  O20  1  0.28054853  0.19342626  0.51387766  1
  O  O21  1  0.71945147  0.19342626  0.48612234  1
  O  O22  1  0.28054853  0.80657374  0.48612234  1
  O  O23  1  0.71945147  0.80657374  0.51387766  1
loop_
_geom_bond_atom_site_label_1
_geom_bond_atom_site_label_2
_geom_bond_distance
_geom_bond_site_symmetry_2
Ba0 O5 2.943312 1_554
Ba0 O7 2.943312 1_444
Ba0 O4 2.943312 1_545
Ba0 O6 2.943312 1_455
Ba0 O3 2.949901 1_444
Ba0 O2 2.949901 1_554
Ba0 O1 2.949901 1_545
Ba0 O0 2.949901 1_455
Ba0 O9 3.302289 1_455
Ba0 O8 3.302289 1_554
Ba0 O10 3.302289 1_545
Ba0 O11 3.302289 1_444
Ba1 O18 2.943312 1_555
Ba1 O16 2.943312 1_555
Ba1 O17 2.943312 1_555
Ba1 O19 2.943312 1_555
Ba1 O14 2.949901 1_555
Ba1 O15 2.949901 1_555
Ba1 O12 2.949901 1_555
Ba1 O13 2.949901 1_555
Ba1 O21 3.302289 1_555
Ba1 O20 3.302289 1_555
Ba1 O23 3.302289 1_555
Ba1 O22 3.302289 1_555
Ba2 O14 2.712123 1_554
Ba2 O15 2.712123 1_554
Ba2 O12 2.712123 1_555
Ba2 O13 2.712123 1_555
Ba2 O11 2.991137 1_554
Ba2 O8 2.991137 1_554
Ba2 O9 2.991137 1_555
Ba2 O10 2.991137 1_555
Ba3 O1 2.712123 1_545
Ba3 O0 2.712123 1_455
Ba3 O2 2.712123 1_555
Ba3 O3 2.712123 1_445
Ba3 O22 2.991137 1_545
Ba3 O23 2.991137 1_445
Ba3 O21 2.991137 1_455
Ba3 O20 2.991137 1_555
Na0 O17 2.556647 1_555
Na0 O16 2.556647 1_555
Na0 O18 2.556647 1_455
Na0 O19 2.556647 1_455
Na1 O23 2.566746 1_545
Na1 O22 2.566746 1_545
Na1 O21 2.566746 1_555
Na1 O20 2.566746 1_555
Na2 O5 2.556647 1_554
Na2 O7 2.556647 1_544
Na2 O6 2.556647 1_555
Na2 O4 2.556647 1_545
Na3 O11 2.566746 1_454
Na3 O9 2.566746 1_455
Na3 O10 2.566746 1_555
Na3 O8 2.566746 1_554
Bi0 O15 2.135936 1_555
Bi0 O3 2.135936 1_555
Bi0 O19 2.143601 1_555
Bi0 O7 2.143601 1_555
Bi0 O11 2.147382 1_555
Bi0 O23 2.147382 1_555
Bi1 O14 2.135936 1_555
Bi1 O2 2.135936 1_555
Bi1 O5 2.143601 1_555
Bi1 O17 2.143601 1_555
Bi1 O20 2.147382 1_555
Bi1 O8 2.147382 1_555
Bi2 O1 2.135936 1_555
Bi2 O13 2.135936 1_555
Bi2 O16 2.143601 1_555
Bi2 O4 2.143601 1_555
Bi2 O22 2.147382 1_555
Bi2 O10 2.147382 1_555
Bi3 O0 2.135936 1_555
Bi3 O12 2.135936 1_555
Bi3 O18 2.143601 1_555
Bi3 O6 2.143601 1_555
Bi3 O21 2.147382 1_555
Bi3 O9 2.147382 1_555
O0 Pr0 2.340769 1_655
O1 Pr1 2.340769 1_455
O2 Pr2 2.340769 1_455
O3 Pr3 2.340769 1_655
O4 Pr0 2.387495 1_565
O5 Pr3 2.387495 1_545
O6 Pr1 2.387495 1_545
O7 Pr2 2.387495 1_565
O8 Pr0 2.383341 1_556
O9 Pr2 2.383341 1_554
O10 Pr3 2.383341 1_554
O11 Pr1 2.383341 1_556
O12 Pr0 2.340769 1_555
O13 Pr1 2.340769 1_555
O14 Pr2 2.340769 1_555
O15 Pr3 2.340769 1_555
O16 Pr0 2.387495 1_555
O17 Pr3 2.387495 1_555
O18 Pr1 2.387495 1_555
O19 Pr2 2.387495 1_555
O20 Pr0 2.383341 1_555
O21 Pr2 2.383341 1_555
O22 Pr3 2.383341 1_555
O23 Pr1 2.383341 1_555
