# generated using pymatgen
data_K2RbAlI6
_symmetry_space_group_name_H-M   'P 1'
_cell_length_a   8.80327154
_cell_length_b   8.80327154
_cell_length_c   8.80327154
_cell_angle_alpha   60.00000000
_cell_angle_beta   60.00000000
_cell_angle_gamma   60.00000000
_symmetry_Int_Tables_number   1
_chemical_formula_structural   K2RbAlI6
_chemical_formula_sum   'K2 Rb1 Al1 I6'
_cell_volume   482.41110401
_cell_formula_units_Z   1
loop_
 _symmetry_equiv_pos_site_id
 _symmetry_equiv_pos_as_xyz
  1  'x, y, z'
loop_
 _atom_site_type_symbol
 _atom_site_label
 _atom_site_symmetry_multiplicity
 _atom_site_fract_x
 _atom_site_fract_y
 _atom_site_fract_z
 _atom_site_occupancy
  K  K0  1  0.75000000  0.75000000  0.75000000  1
  K  K1  1  0.25000000  0.25000000  0.25000000  1
  Rb  Rb0  1  0.50000000  0.50000000  0.50000000  1
  Al  Al0  1  0.00000000  0.00000000  0.00000000  1
  I  I0  1  0.77741600  0.22258400  0.22258400  1
  I  I1  1  0.22258400  0.22258400  0.77741600  1
  I  I2  1  0.22258400  0.77741600  0.77741600  1
  I  I3  1  0.22258400  0.77741600  0.22258400  1
  I  I4  1  0.77741600  0.22258400  0.77741600  1
  I  I5  1  0.77741600  0.77741600  0.22258400  1
loop_
_geom_bond_atom_site_label_1
_geom_bond_atom_site_label_2
_geom_bond_distance
_geom_bond_site_symmetry_2
Al0 I1 2.771105 1_554
Al0 I3 2.771105 1_545
Al0 I0 2.771105 1_455
Al0 I4 2.771105 1_454
Al0 I5 2.771105 1_445
Al0 I2 2.771105 1_544
I0 Rb0 3.453748 1_555
I1 Rb0 3.453748 1_555
I2 Rb0 3.453748 1_555
I3 Rb0 3.453748 1_555
I4 Rb0 3.453748 1_555
I5 Rb0 3.453748 1_555
