# generated using pymatgen
data_Tm5Ge3C
_symmetry_space_group_name_H-M   'P 1'
_cell_length_a   8.42019100
_cell_length_b   8.42019048
_cell_length_c   6.30421800
_cell_angle_alpha   90.00000000
_cell_angle_beta   90.00000000
_cell_angle_gamma   119.99999811
_symmetry_Int_Tables_number   1
_chemical_formula_structural   Tm5Ge3C
_chemical_formula_sum   'Tm10 Ge6 C2'
_cell_volume   387.08444699
_cell_formula_units_Z   2
loop_
 _symmetry_equiv_pos_site_id
 _symmetry_equiv_pos_as_xyz
  1  'x, y, z'
loop_
 _atom_site_type_symbol
 _atom_site_label
 _atom_site_symmetry_multiplicity
 _atom_site_fract_x
 _atom_site_fract_y
 _atom_site_fract_z
 _atom_site_occupancy
  Tm  Tm0  1  0.66666700  0.33333300  0.00000000  1
  Tm  Tm1  1  0.33333300  0.66666700  0.00000000  1
  Tm  Tm2  1  0.33333300  0.66666700  0.50000000  1
  Tm  Tm3  1  0.66666700  0.33333300  0.50000000  1
  Tm  Tm4  1  0.77849400  0.77849400  0.75000000  1
  Tm  Tm5  1  0.22150600  0.00000000  0.75000000  1
  Tm  Tm6  1  0.00000000  0.22150600  0.75000000  1
  Tm  Tm7  1  0.22150600  0.22150600  0.25000000  1
  Tm  Tm8  1  0.77849400  0.00000000  0.25000000  1
  Tm  Tm9  1  0.00000000  0.77849400  0.25000000  1
  Ge  Ge0  1  0.40349000  0.40349000  0.75000000  1
  Ge  Ge1  1  0.59651000  0.00000000  0.75000000  1
  Ge  Ge2  1  0.00000000  0.59651000  0.75000000  1
  Ge  Ge3  1  0.59651000  0.59651000  0.25000000  1
  Ge  Ge4  1  0.40349000  0.00000000  0.25000000  1
  Ge  Ge5  1  0.00000000  0.40349000  0.25000000  1
  C  C0  1  0.00000000  0.00000000  0.00000000  1
  C  C1  1  0.00000000  0.00000000  0.50000000  1
loop_
_geom_bond_atom_site_label_1
_geom_bond_atom_site_label_2
_geom_bond_distance
_geom_bond_site_symmetry_2
Ge0 Tm5 2.946990 1_555
Ge0 Tm6 2.946990 1_555
Ge0 Tm2 3.008761 1_555
Ge0 Tm1 3.008761 1_556
Ge0 Tm3 3.008761 1_555
Ge0 Tm0 3.008761 1_556
Ge0 Tm4 3.157605 1_555
Ge0 Tm7 3.504833 1_555
Ge0 Tm7 3.504833 1_556
Ge1 Tm4 2.946990 1_545
Ge1 Tm6 2.946990 1_655
Ge1 Tm0 3.008754 1_556
Ge1 Tm3 3.008754 1_555
Ge1 Tm1 3.008757 1_546
Ge1 Tm2 3.008757 1_545
Ge1 Tm5 3.157605 1_555
Ge1 Tm8 3.504833 1_556
Ge1 Tm8 3.504833 1_555
Ge2 Tm5 2.946990 1_565
Ge2 Tm4 2.946990 1_455
Ge2 Tm2 3.008754 1_555
Ge2 Tm1 3.008754 1_556
Ge2 Tm3 3.008757 1_455
Ge2 Tm0 3.008757 1_456
Ge2 Tm6 3.157605 1_555
Ge2 Tm9 3.504833 1_555
Ge2 Tm9 3.504833 1_556
Ge3 Tm8 2.946990 1_565
Ge3 Tm9 2.946990 1_655
Ge3 Tm0 3.008761 1_555
Ge3 Tm3 3.008761 1_555
Ge3 Tm1 3.008761 1_555
Ge3 Tm2 3.008761 1_555
Ge3 Tm7 3.157605 1_555
Ge3 Tm4 3.504833 1_555
Ge3 Tm4 3.504833 1_554
Ge4 Tm7 2.946990 1_555
Ge4 Tm9 2.946990 1_545
Ge4 Tm1 3.008754 1_545
Ge4 Tm2 3.008754 1_545
Ge4 Tm3 3.008757 1_555
Ge4 Tm0 3.008757 1_555
Ge4 Tm8 3.157605 1_555
Ge4 Tm5 3.504833 1_554
Ge4 Tm5 3.504833 1_555
Ge5 Tm8 2.946990 1_455
Ge5 Tm7 2.946990 1_555
Ge5 Tm3 3.008754 1_455
Ge5 Tm0 3.008754 1_455
Ge5 Tm1 3.008757 1_555
Ge5 Tm2 3.008757 1_555
Ge5 Tm9 3.157605 1_555
Ge5 Tm6 3.504833 1_554
Ge5 Tm6 3.504833 1_555
C0 Tm9 2.441850 1_545
C0 Tm6 2.441850 1_554
C0 Tm4 2.441850 1_444
C0 Tm7 2.441850 1_555
C0 Tm8 2.441850 1_455
C0 Tm5 2.441850 1_554
C1 Tm9 2.441850 1_545
C1 Tm6 2.441850 1_555
C1 Tm4 2.441850 1_445
C1 Tm7 2.441850 1_555
C1 Tm8 2.441850 1_455
C1 Tm5 2.441850 1_555
