# generated using pymatgen
data_Cr2Cu3(OF)12
_symmetry_space_group_name_H-M   'P 1'
_cell_length_a   7.51405300
_cell_length_b   7.69421619
_cell_length_c   7.75278521
_cell_angle_alpha   99.36227146
_cell_angle_beta   98.82858850
_cell_angle_gamma   96.43771472
_symmetry_Int_Tables_number   1
_chemical_formula_structural   Cr2Cu3(OF)12
_chemical_formula_sum   'Cr2 Cu3 O12 F12'
_cell_volume   432.67333328
_cell_formula_units_Z   1
loop_
 _symmetry_equiv_pos_site_id
 _symmetry_equiv_pos_as_xyz
  1  'x, y, z'
loop_
 _atom_site_type_symbol
 _atom_site_label
 _atom_site_symmetry_multiplicity
 _atom_site_fract_x
 _atom_site_fract_y
 _atom_site_fract_z
 _atom_site_occupancy
  Cr  Cr0  1  0.00000000  0.00000000  0.50000000  1
  Cr  Cr1  1  0.50000000  0.50000000  0.00000000  1
  Cu  Cu0  1  0.00000000  0.00000000  0.00000000  1
  Cu  Cu1  1  0.00000000  0.50000000  0.50000000  1
  Cu  Cu2  1  0.50000000  0.00000000  0.50000000  1
  O  O0  1  0.16071300  0.83658100  0.93520500  1
  O  O1  1  0.83928700  0.16341900  0.06479500  1
  O  O2  1  0.24866700  0.99571800  0.96852600  1
  O  O3  1  0.75133300  0.00428200  0.03147400  1
  O  O4  1  0.09281400  0.49817200  0.28207300  1
  O  O5  1  0.90718600  0.50182800  0.71792700  1
  O  O6  1  0.21032700  0.45019200  0.39816200  1
  O  O7  1  0.78967300  0.54980800  0.60183800  1
  O  O8  1  0.49264100  0.14125500  0.32072800  1
  O  O9  1  0.50735900  0.85874500  0.67927200  1
  O  O10  1  0.45401200  0.75907900  0.52454200  1
  O  O11  1  0.54598800  0.24092100  0.47545800  1
  F  F0  1  0.08634300  0.96023500  0.28166100  1
  F  F1  1  0.91365700  0.03976500  0.71833900  1
  F  F2  1  0.08643900  0.79263300  0.56042300  1
  F  F3  1  0.91356100  0.20736700  0.43957700  1
  F  F4  1  0.22432900  0.12626600  0.60039200  1
  F  F5  1  0.77567100  0.87373400  0.39960800  1
  F  F6  1  0.44252900  0.71467600  0.08845700  1
  F  F7  1  0.55747100  0.28532400  0.91154300  1
  F  F8  1  0.27500100  0.39289500  0.00214000  1
  F  F9  1  0.72499900  0.60710500  0.99786000  1
  F  F10  1  0.42380400  0.53279000  0.77563000  1
  F  F11  1  0.57619600  0.46721000  0.22437000  1
loop_
_geom_bond_atom_site_label_1
_geom_bond_atom_site_label_2
_geom_bond_distance
_geom_bond_site_symmetry_2
Cr0 F4 1.837113 1_555
Cr0 F5 1.837113 1_445
Cr0 F3 1.889226 1_455
Cr0 F2 1.889226 1_545
Cr0 F0 1.895523 1_545
Cr0 F1 1.895523 1_455
Cr1 F9 1.799538 1_554
Cr1 F8 1.799538 1_555
Cr1 F6 1.807603 1_555
Cr1 F7 1.807603 1_554
Cr1 F11 1.812942 1_555
Cr1 F10 1.812942 1_554
Cu0 O1 1.900756 1_455
Cu0 O0 1.900756 1_544
Cu0 O2 1.924331 1_544
Cu0 O3 1.924331 1_455
Cu0 F0 2.260510 1_545
Cu0 F1 2.260510 1_454
Cu1 O7 1.920495 1_455
Cu1 O6 1.920495 1_555
Cu1 O5 1.922832 1_455
Cu1 O4 1.922832 1_555
Cu1 F2 2.224055 1_555
Cu1 F3 2.224055 1_455
Cu2 O11 1.892908 1_555
Cu2 O10 1.892908 1_545
Cu2 O8 1.896667 1_555
Cu2 O9 1.896667 1_545
Cu2 F4 2.557438 1_555
Cu2 F5 2.557438 1_545
O0 O2 1.290724 1_555
O1 O3 1.290724 1_555
O4 O6 1.289672 1_555
O5 O7 1.289672 1_555
O10 O9 1.293030 1_555
O11 O8 1.293030 1_555
