# generated using pymatgen
data_Rb4Hg3Ge20
_symmetry_space_group_name_H-M   'P 1'
_cell_length_a   10.99390308
_cell_length_b   10.99391123
_cell_length_c   10.99390989
_cell_angle_alpha   90.00000000
_cell_angle_beta   90.00000000
_cell_angle_gamma   90.00000000
_symmetry_Int_Tables_number   1
_chemical_formula_structural   Rb4Hg3Ge20
_chemical_formula_sum   'Rb8 Hg6 Ge40'
_cell_volume   1328.78985266
_cell_formula_units_Z   2
loop_
 _symmetry_equiv_pos_site_id
 _symmetry_equiv_pos_as_xyz
  1  'x, y, z'
loop_
 _atom_site_type_symbol
 _atom_site_label
 _atom_site_symmetry_multiplicity
 _atom_site_fract_x
 _atom_site_fract_y
 _atom_site_fract_z
 _atom_site_occupancy
  Rb  Rb0  1  0.25000973  -0.00000000  0.50000000  1
  Rb  Rb1  1  0.74999027  -0.00000000  0.50000000  1
  Rb  Rb2  1  0.50000000  0.25001260  -0.00000000  1
  Rb  Rb3  1  0.50000000  0.74998740  -0.00000000  1
  Rb  Rb4  1  0.00000000  0.50000000  0.25000697  1
  Rb  Rb5  1  0.00000000  0.50000000  0.74999303  1
  Rb  Rb6  1  0.00000000  -0.00000000  -0.00000000  1
  Rb  Rb7  1  0.50000000  0.50000000  0.50000000  1
  Hg  Hg0  1  0.25001236  0.50000000  -0.00000000  1
  Hg  Hg1  1  0.74998764  0.50000000  -0.00000000  1
  Hg  Hg2  1  0.00000000  0.25001339  0.50000000  1
  Hg  Hg3  1  0.00000000  0.74998661  0.50000000  1
  Hg  Hg4  1  0.50000000  -0.00000000  0.25001097  1
  Hg  Hg5  1  0.50000000  -0.00000000  0.74998903  1
  Ge  Ge0  1  0.18323823  0.18323917  0.18323704  1
  Ge  Ge1  1  0.81676177  0.81676083  0.81676296  1
  Ge  Ge2  1  0.81676177  0.81676083  0.18323704  1
  Ge  Ge3  1  0.81676177  0.18323917  0.81676296  1
  Ge  Ge4  1  0.68322822  0.68322722  0.31677061  1
  Ge  Ge5  1  0.18323823  0.18323917  0.81676296  1
  Ge  Ge6  1  0.18323823  0.81676083  0.18323704  1
  Ge  Ge7  1  0.31677178  0.31677278  0.68322939  1
  Ge  Ge8  1  0.18323823  0.81676083  0.81676296  1
  Ge  Ge9  1  0.31677178  0.31677278  0.31677061  1
  Ge  Ge10  1  0.81676177  0.18323917  0.18323704  1
  Ge  Ge11  1  0.68322822  0.68322722  0.68322939  1
  Ge  Ge12  1  0.68322822  0.31677278  0.68322939  1
  Ge  Ge13  1  0.31677178  0.68322722  0.31677061  1
  Ge  Ge14  1  0.31677178  0.68322722  0.68322939  1
  Ge  Ge15  1  0.68322822  0.31677278  0.31677061  1
  Ge  Ge16  1  0.00000000  0.11369979  0.30122855  1
  Ge  Ge17  1  0.00000000  0.88630021  0.69877145  1
  Ge  Ge18  1  0.00000000  0.88630021  0.30122855  1
  Ge  Ge19  1  0.00000000  0.11369979  0.69877145  1
  Ge  Ge20  1  0.30122923  -0.00000000  0.11369880  1
  Ge  Ge21  1  0.61369470  0.50000000  0.19877634  1
  Ge  Ge22  1  0.69877077  -0.00000000  0.88630120  1
  Ge  Ge23  1  0.38630530  0.50000000  0.80122366  1
  Ge  Ge24  1  0.30122923  -0.00000000  0.88630120  1
  Ge  Ge25  1  0.38630530  0.50000000  0.19877634  1
  Ge  Ge26  1  0.69877077  -0.00000000  0.11369880  1
  Ge  Ge27  1  0.61369470  0.50000000  0.80122366  1
  Ge  Ge28  1  0.11369924  0.30123126  -0.00000000  1
  Ge  Ge29  1  0.50000000  0.80122107  0.38630462  1
  Ge  Ge30  1  0.88630076  0.69876874  -0.00000000  1
  Ge  Ge31  1  0.50000000  0.19877893  0.61369538  1
  Ge  Ge32  1  0.11369924  0.69876874  -0.00000000  1
  Ge  Ge33  1  0.50000000  0.19877893  0.38630462  1
  Ge  Ge34  1  0.88630076  0.30123126  -0.00000000  1
  Ge  Ge35  1  0.50000000  0.80122107  0.61369538  1
  Ge  Ge36  1  0.19877844  0.61369437  0.50000000  1
  Ge  Ge37  1  0.80122156  0.38630563  0.50000000  1
  Ge  Ge38  1  0.19877844  0.38630563  0.50000000  1
  Ge  Ge39  1  0.80122156  0.61369437  0.50000000  1
loop_
_geom_bond_atom_site_label_1
_geom_bond_atom_site_label_2
_geom_bond_distance
_geom_bond_site_symmetry_2
Hg0 Rb3 3.886739 1_555
Hg0 Rb2 3.886739 1_555
Hg0 Rb5 3.887083 1_554
Hg0 Rb4 3.887083 1_555
Hg1 Rb3 3.886739 1_555
Hg1 Rb2 3.886739 1_555
Hg1 Rb5 3.887083 1_654
Hg1 Rb4 3.887083 1_655
Hg2 Rb4 3.886776 1_555
Hg2 Rb5 3.886776 1_555
Hg2 Rb1 3.887113 1_455
Hg2 Rb0 3.887113 1_555
Hg3 Rb4 3.886776 1_555
Hg3 Rb5 3.886776 1_555
Hg3 Rb1 3.887113 1_465
Hg3 Rb0 3.887113 1_565
Hg4 Rb0 3.886772 1_555
Hg4 Rb1 3.886772 1_555
Hg4 Rb2 3.887118 1_555
Hg4 Rb3 3.887118 1_545
Hg5 Rb0 3.886772 1_555
Hg5 Rb1 3.886772 1_555
Hg5 Rb2 3.887118 1_556
Hg5 Rb3 3.887118 1_546
Ge0 Ge28 2.515026 1_555
Ge0 Ge16 2.515034 1_555
Ge0 Ge20 2.515036 1_555
Ge0 Ge9 2.542747 1_555
Ge0 Rb6 3.489222 1_555
Ge1 Ge30 2.515026 1_556
Ge1 Ge17 2.515034 1_655
Ge1 Ge22 2.515036 1_565
Ge1 Ge11 2.542747 1_555
Ge1 Rb6 3.489222 1_666
Ge2 Ge30 2.515026 1_555
Ge2 Ge26 2.515036 1_565
Ge2 Ge4 2.542747 1_555
Ge2 Rb6 3.489222 1_665
Ge3 Ge34 2.515026 1_556
Ge3 Rb6 3.489222 1_656
Ge4 Rb7 3.489034 1_555
Ge5 Ge7 2.542747 1_555
Ge5 Rb6 3.489222 1_556
Ge6 Rb6 3.489222 1_565
Ge7 Rb7 3.489034 1_555
Ge8 Rb6 3.489222 1_566
Ge9 Rb7 3.489034 1_555
Ge10 Ge34 2.515026 1_555
Ge10 Ge16 2.515034 1_655
Ge10 Ge26 2.515036 1_555
Ge10 Ge15 2.542747 1_555
Ge10 Rb6 3.489222 1_655
Ge11 Ge27 2.514934 1_555
Ge11 Ge35 2.514941 1_555
Ge11 Ge39 2.514945 1_555
Ge11 Rb7 3.489034 1_555
Ge12 Ge27 2.514934 1_555
Ge12 Ge31 2.514941 1_555
Ge12 Ge37 2.514945 1_555
Ge12 Ge3 2.542747 1_555
Ge12 Rb7 3.489034 1_555
Ge13 Ge25 2.514934 1_555
Ge13 Ge29 2.514941 1_555
Ge13 Ge36 2.514945 1_555
Ge13 Ge6 2.542747 1_555
Ge13 Rb7 3.489034 1_555
Ge14 Ge23 2.514934 1_555
Ge14 Ge35 2.514941 1_555
Ge14 Ge36 2.514945 1_555
Ge14 Ge8 2.542747 1_555
Ge14 Rb7 3.489034 1_555
Ge15 Ge21 2.514934 1_555
Ge15 Ge33 2.514941 1_555
Ge15 Ge37 2.514945 1_555
Ge15 Rb7 3.489034 1_555
Ge16 Ge18 2.500011 1_545
Ge16 Hg2 2.649772 1_555
Ge16 Rb6 3.539737 1_555
Ge16 Rb1 3.727284 1_455
Ge16 Rb0 3.727284 1_555
Ge17 Ge19 2.500011 1_565
Ge17 Ge8 2.515034 1_555
Ge17 Hg3 2.649772 1_555
Ge17 Rb6 3.539737 1_566
Ge17 Rb1 3.727284 1_465
Ge17 Rb0 3.727284 1_565
Ge18 Ge2 2.515034 1_455
Ge18 Ge6 2.515034 1_555
Ge18 Hg3 2.649772 1_555
Ge18 Rb6 3.539737 1_565
Ge18 Rb1 3.727284 1_465
Ge18 Rb0 3.727284 1_565
Ge19 Ge3 2.515034 1_455
Ge19 Ge5 2.515034 1_555
Ge19 Hg2 2.649772 1_555
Ge19 Rb6 3.539737 1_556
Ge19 Rb1 3.727284 1_455
Ge19 Rb0 3.727284 1_555
Ge20 Ge24 2.499989 1_554
Ge20 Ge6 2.515036 1_545
Ge20 Hg4 2.649755 1_555
Ge20 Rb6 3.539738 1_555
Ge20 Rb2 3.727300 1_555
Ge20 Rb3 3.727300 1_545
Ge21 Ge25 2.499897 1_555
Ge21 Ge4 2.514934 1_555
Ge21 Hg1 2.649687 1_555
Ge21 Rb7 3.539666 1_555
Ge21 Rb3 3.727117 1_555
Ge21 Rb2 3.727117 1_555
Ge22 Ge26 2.499989 1_556
Ge22 Ge3 2.515036 1_555
Ge22 Hg5 2.649755 1_555
Ge22 Rb6 3.539738 1_656
Ge22 Rb2 3.727300 1_556
Ge22 Rb3 3.727300 1_546
Ge23 Ge27 2.499897 1_555
Ge23 Ge7 2.514934 1_555
Ge23 Hg0 2.649687 1_556
Ge23 Rb7 3.539666 1_555
Ge23 Rb3 3.727117 1_556
Ge23 Rb2 3.727117 1_556
Ge24 Ge8 2.515036 1_545
Ge24 Ge5 2.515036 1_555
Ge24 Hg5 2.649755 1_555
Ge24 Rb6 3.539738 1_556
Ge24 Rb2 3.727300 1_556
Ge24 Rb3 3.727300 1_546
Ge25 Ge9 2.514934 1_555
Ge25 Hg0 2.649687 1_555
Ge25 Rb7 3.539666 1_555
Ge25 Rb3 3.727117 1_555
Ge25 Rb2 3.727117 1_555
Ge26 Hg4 2.649755 1_555
Ge26 Rb6 3.539738 1_655
Ge26 Rb2 3.727300 1_555
Ge26 Rb3 3.727300 1_545
Ge27 Hg1 2.649687 1_556
Ge27 Rb7 3.539666 1_555
Ge27 Rb3 3.727117 1_556
Ge27 Rb2 3.727117 1_556
Ge28 Ge34 2.499997 1_455
Ge28 Ge5 2.515026 1_554
Ge28 Hg0 2.649744 1_555
Ge28 Rb6 3.539762 1_555
Ge28 Rb5 3.727244 1_554
Ge28 Rb4 3.727244 1_555
Ge29 Ge35 2.499914 1_555
Ge29 Ge4 2.514941 1_555
Ge29 Hg4 2.649715 1_565
Ge29 Rb7 3.539643 1_555
Ge29 Rb0 3.727159 1_565
Ge29 Rb1 3.727159 1_565
Ge30 Ge32 2.499997 1_655
Ge30 Hg1 2.649744 1_555
Ge30 Rb6 3.539762 1_665
Ge30 Rb5 3.727244 1_654
Ge30 Rb4 3.727244 1_655
Ge31 Ge33 2.499914 1_555
Ge31 Ge7 2.514941 1_555
Ge31 Hg5 2.649715 1_555
Ge31 Rb7 3.539643 1_555
Ge31 Rb0 3.727159 1_555
Ge31 Rb1 3.727159 1_555
Ge32 Ge8 2.515026 1_554
Ge32 Ge6 2.515026 1_555
Ge32 Hg0 2.649744 1_555
Ge32 Rb6 3.539762 1_565
Ge32 Rb5 3.727244 1_554
Ge32 Rb4 3.727244 1_555
Ge33 Ge9 2.514941 1_555
Ge33 Hg4 2.649715 1_555
Ge33 Rb7 3.539643 1_555
Ge33 Rb0 3.727159 1_555
Ge33 Rb1 3.727159 1_555
Ge34 Hg1 2.649744 1_555
Ge34 Rb6 3.539762 1_655
Ge34 Rb5 3.727244 1_654
Ge34 Rb4 3.727244 1_655
Ge35 Hg5 2.649715 1_565
Ge35 Rb7 3.539643 1_555
Ge35 Rb0 3.727159 1_565
Ge35 Rb1 3.727159 1_565
Ge36 Ge38 2.499892 1_555
Ge36 Hg3 2.649701 1_555
Ge36 Rb7 3.539642 1_555
Ge36 Rb4 3.727175 1_555
Ge36 Rb5 3.727175 1_555
Ge37 Ge39 2.499892 1_555
Ge37 Hg2 2.649701 1_655
Ge37 Rb7 3.539642 1_555
Ge37 Rb4 3.727175 1_655
Ge37 Rb5 3.727175 1_655
Ge38 Ge9 2.514945 1_555
Ge38 Ge7 2.514945 1_555
Ge38 Hg2 2.649701 1_555
Ge38 Rb7 3.539642 1_555
Ge38 Rb4 3.727175 1_555
Ge38 Rb5 3.727175 1_555
Ge39 Ge4 2.514945 1_555
Ge39 Hg3 2.649701 1_655
Ge39 Rb7 3.539642 1_555
Ge39 Rb4 3.727175 1_655
Ge39 Rb5 3.727175 1_655
