# generated using pymatgen
data_CsNd(MoO4)2
_symmetry_space_group_name_H-M   'P 1'
_cell_length_a   5.17514000
_cell_length_b   8.52194800
_cell_length_c   9.95107816
_cell_angle_alpha   88.22977577
_cell_angle_beta   90.00000000
_cell_angle_gamma   90.00000000
_symmetry_Int_Tables_number   1
_chemical_formula_structural   CsNd(MoO4)2
_chemical_formula_sum   'Cs2 Nd2 Mo4 O16'
_cell_volume   438.65572658
_cell_formula_units_Z   2
loop_
 _symmetry_equiv_pos_site_id
 _symmetry_equiv_pos_as_xyz
  1  'x, y, z'
loop_
 _atom_site_type_symbol
 _atom_site_label
 _atom_site_symmetry_multiplicity
 _atom_site_fract_x
 _atom_site_fract_y
 _atom_site_fract_z
 _atom_site_occupancy
  Cs  Cs0  1  0.46811200  0.75000000  0.50000000  1
  Cs  Cs1  1  0.53188800  0.25000000  0.50000000  1
  Nd  Nd0  1  0.50440500  0.75000000  0.00000000  1
  Nd  Nd1  1  0.49559500  0.25000000  0.00000000  1
  Mo  Mo0  1  0.97758200  0.49212900  0.19339900  1
  Mo  Mo1  1  0.02241800  0.50787100  0.80660100  1
  Mo  Mo2  1  0.97758200  0.00787100  0.80660100  1
  Mo  Mo3  1  0.02241800  0.99212900  0.19339900  1
  O  O0  1  0.88832000  0.98401300  0.35497400  1
  O  O1  1  0.11168000  0.01598700  0.64502600  1
  O  O2  1  0.88832000  0.51598700  0.64502600  1
  O  O3  1  0.11168000  0.48401300  0.35497400  1
  O  O4  1  0.76651300  0.32408400  0.18221900  1
  O  O5  1  0.23348700  0.67591600  0.81778100  1
  O  O6  1  0.76651300  0.17591600  0.81778100  1
  O  O7  1  0.23348700  0.82408400  0.18221900  1
  O  O8  1  0.75399900  0.99677700  0.06892700  1
  O  O9  1  0.24600100  0.00322300  0.93107300  1
  O  O10  1  0.75399900  0.50322300  0.93107300  1
  O  O11  1  0.24600100  0.49677700  0.06892700  1
  O  O12  1  0.76631800  0.66111500  0.18475500  1
  O  O13  1  0.23368200  0.33888500  0.81524500  1
  O  O14  1  0.76631800  0.83888500  0.81524500  1
  O  O15  1  0.23368200  0.16111500  0.18475500  1
loop_
_geom_bond_atom_site_label_1
_geom_bond_atom_site_label_2
_geom_bond_distance
_geom_bond_site_symmetry_2
Cs0 O0 3.257449 1_555
Cs0 O2 3.257449 1_555
Cs0 O1 3.290195 1_565
Cs0 O3 3.290195 1_555
Cs0 O7 3.427751 1_555
Cs0 O5 3.427751 1_555
Cs0 O12 3.597661 1_555
Cs0 O14 3.597661 1_555
Cs1 O3 3.257449 1_555
Cs1 O1 3.257449 1_555
Cs1 O2 3.290195 1_555
Cs1 O0 3.290195 1_545
Cs1 O6 3.427751 1_555
Cs1 O4 3.427751 1_555
Cs1 O13 3.597661 1_555
Cs1 O15 3.597661 1_555
Nd0 O14 2.388526 1_554
Nd0 O12 2.388526 1_555
Nd0 O7 2.392279 1_555
Nd0 O5 2.392279 1_554
Nd0 O8 2.578899 1_555
Nd0 O10 2.578899 1_554
Nd0 O9 2.612294 1_564
Nd0 O11 2.612294 1_555
Nd1 O13 2.388526 1_554
Nd1 O15 2.388526 1_555
Nd1 O6 2.392279 1_554
Nd1 O4 2.392279 1_555
Nd1 O11 2.578899 1_555
Nd1 O9 2.578899 1_554
Nd1 O10 2.612294 1_554
Nd1 O8 2.612294 1_545
Mo0 O3 1.750624 1_655
Mo0 O4 1.807261 1_555
Mo0 O12 1.808025 1_555
Mo0 O11 1.860741 1_655
Mo1 O2 1.750624 1_455
Mo1 O5 1.807261 1_555
Mo1 O13 1.808025 1_555
Mo1 O10 1.860741 1_455
Mo2 O1 1.750624 1_655
Mo2 O6 1.807261 1_555
Mo2 O14 1.808025 1_545
Mo2 O9 1.860741 1_655
Mo3 O0 1.750624 1_455
Mo3 O7 1.807261 1_555
Mo3 O15 1.808025 1_565
Mo3 O8 1.860741 1_455
