# generated using pymatgen
data_Mg14MnNiO16
_symmetry_space_group_name_H-M   'P 1'
_cell_length_a   4.27320500
_cell_length_b   8.54061700
_cell_length_c   8.54188900
_cell_angle_alpha   90.00000000
_cell_angle_beta   90.00000000
_cell_angle_gamma   90.00000000
_symmetry_Int_Tables_number   1
_chemical_formula_structural   Mg14MnNiO16
_chemical_formula_sum   'Mg14 Mn1 Ni1 O16'
_cell_volume   311.74313464
_cell_formula_units_Z   1
loop_
 _symmetry_equiv_pos_site_id
 _symmetry_equiv_pos_as_xyz
  1  'x, y, z'
loop_
 _atom_site_type_symbol
 _atom_site_label
 _atom_site_symmetry_multiplicity
 _atom_site_fract_x
 _atom_site_fract_y
 _atom_site_fract_z
 _atom_site_occupancy
  Mg  Mg0  1  0.00000000  0.00000000  0.50000000  1
  Mg  Mg1  1  0.00000000  0.50000000  0.50000000  1
  Mg  Mg2  1  0.50000000  0.74663500  0.00000000  1
  Mg  Mg3  1  0.50000000  0.25336500  0.00000000  1
  Mg  Mg4  1  0.50000000  0.74939000  0.50000000  1
  Mg  Mg5  1  0.50000000  0.25061000  0.50000000  1
  Mg  Mg6  1  0.50000000  0.00000000  0.74787100  1
  Mg  Mg7  1  0.50000000  0.50000000  0.75137100  1
  Mg  Mg8  1  0.50000000  0.00000000  0.25212900  1
  Mg  Mg9  1  0.50000000  0.50000000  0.24862900  1
  Mg  Mg10  1  0.00000000  0.74825500  0.74956900  1
  Mg  Mg11  1  0.00000000  0.25174500  0.74956900  1
  Mg  Mg12  1  0.00000000  0.74825500  0.25043100  1
  Mg  Mg13  1  0.00000000  0.25174500  0.25043100  1
  Mn  Mn0  1  0.00000000  0.00000000  0.00000000  1
  Ni  Ni0  1  0.00000000  0.50000000  0.00000000  1
  O  O0  1  0.00000000  0.00000000  0.74265200  1
  O  O1  1  0.00000000  0.50000000  0.74844700  1
  O  O2  1  0.00000000  0.00000000  0.25734800  1
  O  O3  1  0.00000000  0.50000000  0.25155300  1
  O  O4  1  0.50000000  0.75020500  0.75080400  1
  O  O5  1  0.50000000  0.24979500  0.75080400  1
  O  O6  1  0.50000000  0.75020500  0.24919600  1
  O  O7  1  0.50000000  0.24979500  0.24919600  1
  O  O8  1  0.50000000  0.00000000  0.00000000  1
  O  O9  1  0.50000000  0.50000000  0.00000000  1
  O  O10  1  0.50000000  0.00000000  0.50000000  1
  O  O11  1  0.50000000  0.50000000  0.50000000  1
  O  O12  1  0.00000000  0.74309300  0.00000000  1
  O  O13  1  0.00000000  0.25690700  0.00000000  1
  O  O14  1  0.00000000  0.74881900  0.50000000  1
  O  O15  1  0.00000000  0.25118100  0.50000000  1
loop_
_geom_bond_atom_site_label_1
_geom_bond_atom_site_label_2
_geom_bond_distance
_geom_bond_site_symmetry_2
Mg0 O0 2.072706 1_555
Mg0 O2 2.072706 1_555
Mg0 O10 2.136602 1_555
Mg0 O10 2.136602 1_455
Mg0 O15 2.145241 1_555
Mg0 O14 2.145241 1_545
Mg1 O1 2.122207 1_555
Mg1 O3 2.122207 1_555
Mg1 O14 2.125068 1_555
Mg1 O15 2.125068 1_555
Mg1 O11 2.136602 1_455
Mg1 O11 2.136602 1_555
Mg2 O9 2.106415 1_555
Mg2 O6 2.128823 1_555
Mg2 O4 2.128823 1_554
Mg2 O12 2.136817 1_655
Mg2 O12 2.136817 1_555
Mg2 O8 2.163893 1_565
Mg3 O9 2.106415 1_555
Mg3 O7 2.128823 1_555
Mg3 O5 2.128823 1_554
Mg3 O13 2.136817 1_655
Mg3 O13 2.136817 1_555
Mg3 O8 2.163893 1_555
Mg4 O11 2.129944 1_555
Mg4 O14 2.136608 1_555
Mg4 O14 2.136608 1_655
Mg4 O10 2.140364 1_565
Mg4 O4 2.142351 1_555
Mg4 O6 2.142351 1_555
Mg5 O11 2.129944 1_555
Mg5 O15 2.136608 1_655
Mg5 O15 2.136608 1_555
Mg5 O10 2.140364 1_555
Mg5 O5 2.142351 1_555
Mg5 O7 2.142351 1_555
Mg6 O10 2.117287 1_555
Mg6 O4 2.133551 1_545
Mg6 O5 2.133551 1_555
Mg6 O0 2.137068 1_555
Mg6 O0 2.137068 1_655
Mg6 O8 2.153658 1_556
Mg7 O9 2.123761 1_556
Mg7 O1 2.136748 1_655
Mg7 O1 2.136748 1_555
Mg7 O5 2.136911 1_555
Mg7 O4 2.136911 1_555
Mg7 O11 2.147183 1_555
Mg8 O10 2.117287 1_555
Mg8 O6 2.133551 1_545
Mg8 O7 2.133551 1_555
Mg8 O2 2.137068 1_555
Mg8 O2 2.137068 1_655
Mg8 O8 2.153658 1_555
Mg9 O9 2.123761 1_555
Mg9 O3 2.136748 1_655
Mg9 O3 2.136748 1_555
Mg9 O6 2.136911 1_555
Mg9 O7 2.136911 1_555
Mg9 O11 2.147183 1_555
Mg10 O1 2.120273 1_555
Mg10 O14 2.131796 1_555
Mg10 O4 2.136693 1_555
Mg10 O4 2.136693 1_455
Mg10 O12 2.139608 1_556
Mg10 O0 2.150869 1_565
Mg11 O1 2.120273 1_555
Mg11 O15 2.131796 1_555
Mg11 O5 2.136693 1_455
Mg11 O5 2.136693 1_555
Mg11 O13 2.139608 1_556
Mg11 O0 2.150869 1_555
Mg12 O3 2.120273 1_555
Mg12 O14 2.131796 1_555
Mg12 O6 2.136693 1_455
Mg12 O6 2.136693 1_555
Mg12 O12 2.139608 1_555
Mg12 O2 2.150869 1_565
Mg13 O3 2.120273 1_555
Mg13 O15 2.131796 1_555
Mg13 O7 2.136693 1_555
Mg13 O7 2.136693 1_455
Mg13 O13 2.139608 1_555
Mg13 O2 2.150869 1_555
Mn0 O8 2.136602 1_455
Mn0 O8 2.136602 1_555
Mn0 O13 2.194144 1_555
Mn0 O12 2.194144 1_545
Mn0 O2 2.198238 1_555
Mn0 O0 2.198238 1_554
Ni0 O12 2.076164 1_555
Ni0 O13 2.076164 1_555
Ni0 O9 2.136602 1_455
Ni0 O9 2.136602 1_555
Ni0 O3 2.148738 1_555
Ni0 O1 2.148738 1_554
