# generated using pymatgen
data_K2Mg2Br3(ClO4)3
_symmetry_space_group_name_H-M   'P 1'
_cell_length_a   6.79296900
_cell_length_b   9.83783300
_cell_length_c   14.77367317
_cell_angle_alpha   68.91831513
_cell_angle_beta   90.00000000
_cell_angle_gamma   90.00000000
_symmetry_Int_Tables_number   1
_chemical_formula_structural   K2Mg2Br3(ClO4)3
_chemical_formula_sum   'K4 Mg4 Br6 Cl6 O24'
_cell_volume   921.21525979
_cell_formula_units_Z   2
loop_
 _symmetry_equiv_pos_site_id
 _symmetry_equiv_pos_as_xyz
  1  'x, y, z'
loop_
 _atom_site_type_symbol
 _atom_site_label
 _atom_site_symmetry_multiplicity
 _atom_site_fract_x
 _atom_site_fract_y
 _atom_site_fract_z
 _atom_site_occupancy
  K  K0  1  0.96711300  0.50000000  0.75000000  1
  K  K1  1  0.03288700  0.50000000  0.25000000  1
  K  K2  1  0.82805700  0.00000000  0.25000000  1
  K  K3  1  0.17194300  0.00000000  0.75000000  1
  Mg  Mg0  1  0.50000000  0.50000000  0.50000000  1
  Mg  Mg1  1  0.50000000  0.50000000  0.00000000  1
  Mg  Mg2  1  0.50000000  0.00000000  0.00000000  1
  Mg  Mg3  1  0.50000000  0.00000000  0.50000000  1
  Br  Br0  1  0.47696400  0.50000000  0.75000000  1
  Br  Br1  1  0.52303600  0.50000000  0.25000000  1
  Br  Br2  1  0.78585300  0.73147300  0.45882600  1
  Br  Br3  1  0.78585300  0.26852700  0.04117400  1
  Br  Br4  1  0.21414700  0.73147300  0.95882600  1
  Br  Br5  1  0.21414700  0.26852700  0.54117400  1
  Cl  Cl0  1  0.12694400  0.84456700  0.14370900  1
  Cl  Cl1  1  0.12694400  0.15543300  0.35629100  1
  Cl  Cl2  1  0.87305600  0.84456700  0.64370900  1
  Cl  Cl3  1  0.87305600  0.15543300  0.85629100  1
  Cl  Cl4  1  0.35645300  0.00000000  0.25000000  1
  Cl  Cl5  1  0.64354700  0.00000000  0.75000000  1
  O  O0  1  0.31359800  0.75051300  0.47688500  1
  O  O1  1  0.31359800  0.24948700  0.02311500  1
  O  O2  1  0.68640200  0.75051300  0.97688500  1
  O  O3  1  0.68640200  0.24948700  0.52311500  1
  O  O4  1  0.35683400  0.90410600  0.15088100  1
  O  O5  1  0.35683400  0.09589400  0.34911900  1
  O  O6  1  0.64316600  0.90410600  0.65088100  1
  O  O7  1  0.64316600  0.09589400  0.84911900  1
  O  O8  1  0.49664200  0.55761500  0.35625100  1
  O  O9  1  0.49664200  0.44238500  0.14374900  1
  O  O10  1  0.50335800  0.55761500  0.85625100  1
  O  O11  1  0.50335800  0.44238500  0.64374900  1
  O  O12  1  0.29692100  0.18405800  0.95641900  1
  O  O13  1  0.29692100  0.81594200  0.54358100  1
  O  O14  1  0.70307900  0.18405800  0.45641900  1
  O  O15  1  0.70307900  0.81594200  0.04358100  1
  O  O16  1  0.76392100  0.38879600  0.49174400  1
  O  O17  1  0.76392100  0.61120400  0.00825600  1
  O  O18  1  0.23607900  0.38879600  0.99174400  1
  O  O19  1  0.23607900  0.61120400  0.50825600  1
  O  O20  1  0.30795000  0.91310700  0.93106400  1
  O  O21  1  0.30795000  0.08689300  0.56893600  1
  O  O22  1  0.69205000  0.91310700  0.43106400  1
  O  O23  1  0.69205000  0.08689300  0.06893600  1
loop_
_geom_bond_atom_site_label_1
_geom_bond_atom_site_label_2
_geom_bond_distance
_geom_bond_site_symmetry_2
K2 O23 2.663610 1_555
K2 O22 2.663610 1_545
K3 O20 2.663610 1_545
K3 O21 2.663610 1_555
Mg0 O11 1.991466 1_555
Mg0 O8 1.991466 1_555
Mg0 O19 2.126471 1_555
Mg0 O16 2.126471 1_555
Mg1 O9 1.991466 1_555
Mg1 O10 1.991466 1_554
Mg1 O17 2.126471 1_555
Mg1 O18 2.126471 1_554
Mg2 O20 2.023914 1_544
Mg2 O23 2.023914 1_555
Mg2 O12 2.181201 1_554
Mg2 O15 2.181201 1_545
Mg2 O4 2.300373 1_545
Mg2 O7 2.300373 1_554
Mg3 O22 2.023914 1_545
Mg3 O21 2.023914 1_555
Mg3 O14 2.181201 1_555
Mg3 O13 2.181201 1_545
Mg3 O6 2.300373 1_545
Mg3 O5 2.300373 1_555
Br0 O10 1.859434 1_555
Br0 O11 1.859434 1_555
Br0 K0 3.329567 1_555
Br0 K0 3.463402 1_455
Br1 O8 1.859434 1_555
Br1 O9 1.859434 1_555
Br1 K1 3.329567 1_555
Br1 K1 3.463402 1_655
Br2 O22 1.799991 1_555
Br2 K2 3.273497 1_565
Br3 O23 1.799991 1_555
Br3 K2 3.273497 1_555
Br4 O20 1.799991 1_555
Br4 K3 3.273497 1_565
Br5 O21 1.799991 1_555
Br5 K3 3.273497 1_555
Cl0 O4 1.684537 1_555
Cl0 K1 3.245832 1_555
Cl0 K2 3.264007 1_465
Cl1 O5 1.684537 1_555
Cl1 K1 3.245832 1_555
Cl1 K2 3.264007 1_455
Cl2 O6 1.684537 1_555
Cl2 K0 3.245832 1_555
Cl2 K3 3.264007 1_665
Cl3 O7 1.684537 1_555
Cl3 K0 3.245832 1_555
Cl3 K3 3.264007 1_655
Cl4 O5 2.007020 1_555
Cl4 O4 2.007020 1_545
Cl4 K2 3.203591 1_555
Cl4 K2 3.589378 1_455
Cl5 O7 2.007020 1_555
Cl5 O6 2.007020 1_545
Cl5 K3 3.203591 1_555
Cl5 K3 3.589378 1_655
O0 O13 1.361740 1_555
O0 O19 1.383261 1_555
O1 O12 1.361740 1_554
O1 O18 1.383261 1_554
O14 O3 1.361740 1_555
O15 O2 1.361740 1_554
O16 O3 1.383261 1_555
O17 O2 1.383261 1_554
