# generated using pymatgen
data_ErAl7Au3
_symmetry_space_group_name_H-M   'P 1'
_cell_length_a   8.36926499
_cell_length_b   8.36926499
_cell_length_c   8.36926496
_cell_angle_alpha   57.31258498
_cell_angle_beta   57.31258498
_cell_angle_gamma   57.31259038
_symmetry_Int_Tables_number   1
_chemical_formula_structural   ErAl7Au3
_chemical_formula_sum   'Er2 Al14 Au6'
_cell_volume   388.87558833
_cell_formula_units_Z   2
loop_
 _symmetry_equiv_pos_site_id
 _symmetry_equiv_pos_as_xyz
  1  'x, y, z'
loop_
 _atom_site_type_symbol
 _atom_site_label
 _atom_site_symmetry_multiplicity
 _atom_site_fract_x
 _atom_site_fract_y
 _atom_site_fract_z
 _atom_site_occupancy
  Er  Er0  1  0.50000000  0.50000000  0.50000000  1
  Er  Er1  1  0.00000000  -0.00000000  0.00000000  1
  Al  Al0  1  0.43172045  0.64709749  0.83220603  1
  Al  Al1  1  0.83220603  0.43172045  0.64709749  1
  Al  Al2  1  0.64709749  0.83220603  0.43172045  1
  Al  Al3  1  0.06827955  0.66779397  0.85290251  1
  Al  Al4  1  0.85290251  0.06827955  0.66779397  1
  Al  Al5  1  0.66779397  0.85290251  0.06827955  1
  Al  Al6  1  0.56827955  0.35290251  0.16779397  1
  Al  Al7  1  0.16779397  0.56827955  0.35290251  1
  Al  Al8  1  0.25000000  0.25000000  0.25000000  1
  Al  Al9  1  0.75000000  0.75000000  0.75000000  1
  Al  Al10  1  0.33220603  0.14709749  0.93172045  1
  Al  Al11  1  0.14709749  0.93172045  0.33220603  1
  Al  Al12  1  0.93172045  0.33220603  0.14709749  1
  Al  Al13  1  0.35290251  0.16779397  0.56827955  1
  Au  Au0  1  0.75000000  0.07514263  0.42485737  1
  Au  Au1  1  0.42485737  0.75000000  0.07514263  1
  Au  Au2  1  0.07514263  0.42485737  0.75000000  1
  Au  Au3  1  0.25000000  0.92485737  0.57514263  1
  Au  Au4  1  0.57514263  0.25000000  0.92485737  1
  Au  Au5  1  0.92485737  0.57514263  0.25000000  1
loop_
_geom_bond_atom_site_label_1
_geom_bond_atom_site_label_2
_geom_bond_distance
_geom_bond_site_symmetry_2
Al0 Au1 2.567224 1_556
Al0 Au3 2.580534 1_555
Al0 Au4 2.645790 1_555
Al0 Er0 3.285335 1_555
Al0 Er1 3.350136 1_566
Al1 Au2 2.567224 1_655
Al1 Au4 2.580534 1_555
Al1 Au5 2.645790 1_555
Al1 Er0 3.285335 1_555
Al1 Er1 3.350136 1_656
Al2 Au0 2.567224 1_565
Al2 Au5 2.580534 1_555
Al2 Au3 2.645790 1_555
Al2 Er0 3.285335 1_555
Al2 Er1 3.350136 1_665
Al3 Au2 2.567224 1_555
Al3 Au3 2.580534 1_555
Al3 Au5 2.645790 1_456
Al3 Er1 3.285335 1_566
Al3 Er0 3.350136 1_555
Al4 Au0 2.567224 1_555
Al4 Au4 2.580534 1_555
Al4 Au3 2.645790 1_645
Al4 Er1 3.285335 1_656
Al4 Er0 3.350136 1_555
Al5 Au1 2.567224 1_555
Al5 Au5 2.580534 1_555
Al5 Au4 2.645790 1_564
Al5 Er1 3.285335 1_665
Al5 Er0 3.350136 1_555
Al6 Au4 2.567224 1_554
Al6 Au0 2.580534 1_555
Al6 Au1 2.645790 1_555
Al6 Er0 3.285335 1_555
Al6 Er1 3.350136 1_655
Al7 Au5 2.567224 1_455
Al7 Au1 2.580534 1_555
Al7 Au2 2.645790 1_555
Al7 Er0 3.285335 1_555
Al7 Er1 3.350136 1_565
Al8 Au3 2.609931 1_545
Al8 Au4 2.609931 1_554
Al8 Au5 2.609931 1_455
Al9 Au0 2.609931 1_565
Al9 Au1 2.609931 1_556
Al9 Au2 2.609931 1_655
Al10 Au4 2.567224 1_555
Al10 Au2 2.580534 1_555
Al10 Au1 2.645790 1_546
Al10 Er1 3.285335 1_556
Al10 Er0 3.350136 1_555
Al11 Au3 2.567224 1_555
Al11 Au1 2.580534 1_555
Al11 Au0 2.645790 1_465
Al11 Er1 3.285335 1_565
Al11 Er0 3.350136 1_555
Al12 Au5 2.567224 1_555
Al12 Au0 2.580534 1_555
Al12 Au2 2.645790 1_654
Al12 Er1 3.285335 1_655
Al12 Er0 3.350136 1_555
Al13 Au3 2.567224 1_545
Al13 Au2 2.580534 1_555
Al13 Au0 2.645790 1_555
Al13 Er0 3.285335 1_555
Al13 Er1 3.350136 1_556
Au0 Er1 3.221012 1_655
Au0 Er0 3.221012 1_555
Au1 Er0 3.221012 1_555
Au1 Er1 3.221012 1_565
Au2 Er0 3.221012 1_555
Au2 Er1 3.221012 1_556
Au3 Er1 3.221012 1_566
Au3 Er0 3.221012 1_555
Au4 Er0 3.221012 1_555
Au4 Er1 3.221012 1_656
Au5 Er0 3.221012 1_555
Au5 Er1 3.221012 1_665
