# generated using pymatgen
data_Sm2P3Pt4
_symmetry_space_group_name_H-M   'P 1'
_cell_length_a   9.91534806
_cell_length_b   9.91534806
_cell_length_c   9.91534806
_cell_angle_alpha   155.87222719
_cell_angle_beta   155.87222719
_cell_angle_gamma   34.38389370
_symmetry_Int_Tables_number   1
_chemical_formula_structural   Sm2P3Pt4
_chemical_formula_sum   'Sm2 P3 Pt4'
_cell_volume   162.71759884
_cell_formula_units_Z   1
loop_
 _symmetry_equiv_pos_site_id
 _symmetry_equiv_pos_as_xyz
  1  'x, y, z'
loop_
 _atom_site_type_symbol
 _atom_site_label
 _atom_site_symmetry_multiplicity
 _atom_site_fract_x
 _atom_site_fract_y
 _atom_site_fract_z
 _atom_site_occupancy
  Sm  Sm0  1  0.62755122  0.62755122  -0.00000000  1
  Sm  Sm1  1  0.37244878  0.37244878  -0.00000000  1
  P  P0  1  0.92615344  0.92615344  0.00000000  1
  P  P1  1  0.07384656  0.07384656  -0.00000000  1
  P  P2  1  0.75000000  0.25000000  0.50000000  1
  Pt  Pt0  1  0.80393830  0.80393830  0.00000000  1
  Pt  Pt1  1  0.19606170  0.19606170  -0.00000000  1
  Pt  Pt2  1  0.99943044  0.49943044  0.50000000  1
  Pt  Pt3  1  0.50056956  0.00056956  0.50000000  1
loop_
_geom_bond_atom_site_label_1
_geom_bond_atom_site_label_2
_geom_bond_distance
_geom_bond_site_symmetry_2
P0 Pt0 2.315324 1_555
P0 Pt2 2.494328 1_565
P0 Pt2 2.494328 1_554
P0 Pt3 2.506402 1_665
P0 Pt3 2.506402 1_564
P0 Sm1 3.102296 1_565
P0 Sm1 3.102296 1_655
P0 Sm1 3.102296 1_554
P0 Sm1 3.102296 1_666
P1 Pt1 2.315324 1_555
P1 Pt3 2.494328 1_454
P1 Pt3 2.494328 1_555
P1 Pt2 2.506402 1_455
P1 Pt2 2.506402 1_444
P1 Sm0 3.102296 1_455
P1 Sm0 3.102296 1_545
P1 Sm0 3.102296 1_444
P1 Sm0 3.102296 1_556
P2 Pt0 2.310566 1_556
P2 Pt0 2.310566 1_545
P2 Pt1 2.310566 1_555
P2 Pt1 2.310566 1_656
P2 Sm1 3.110594 1_555
P2 Sm1 3.110594 1_656
P2 Sm0 3.110594 1_556
P2 Sm0 3.110594 1_545
Pt0 Sm1 3.205256 1_554
Pt0 Sm1 3.205256 1_666
Pt0 Sm1 3.205256 1_565
Pt0 Sm1 3.205256 1_655
Pt0 Sm0 3.341593 1_555
Pt1 Sm0 3.205256 1_556
Pt1 Sm0 3.205256 1_444
Pt1 Sm0 3.205256 1_545
Pt1 Sm0 3.205256 1_455
Pt1 Sm1 3.341593 1_555
Pt2 Sm1 3.175150 1_555
Pt2 Sm1 3.175150 1_656
Pt2 Sm0 3.191531 1_555
Pt2 Sm0 3.191531 1_656
Pt3 Sm0 3.175150 1_556
Pt3 Sm0 3.175150 1_545
Pt3 Sm1 3.191531 1_545
Pt3 Sm1 3.191531 1_556
