# generated using pymatgen
data_Ca5Sc2(CoO6)2
_symmetry_space_group_name_H-M   'P 1'
_cell_length_a   6.37083004
_cell_length_b   9.09817055
_cell_length_c   9.23958969
_cell_angle_alpha   89.90587638
_cell_angle_beta   90.00226911
_cell_angle_gamma   95.50480679
_symmetry_Int_Tables_number   1
_chemical_formula_structural   Ca5Sc2(CoO6)2
_chemical_formula_sum   'Ca10 Sc4 Co4 O24'
_cell_volume   533.08278462
_cell_formula_units_Z   2
loop_
 _symmetry_equiv_pos_site_id
 _symmetry_equiv_pos_as_xyz
  1  'x, y, z'
loop_
 _atom_site_type_symbol
 _atom_site_label
 _atom_site_symmetry_multiplicity
 _atom_site_fract_x
 _atom_site_fract_y
 _atom_site_fract_z
 _atom_site_occupancy
  Ca  Ca0  1  0.24994800  0.74989600  0.13241200  1
  Ca  Ca1  1  0.25101200  0.24993500  0.63694100  1
  Ca  Ca2  1  0.11552000  0.56346000  0.81654300  1
  Ca  Ca3  1  0.10802400  0.05955300  0.31978000  1
  Ca  Ca4  1  0.39135200  0.43947800  0.31991200  1
  Ca  Ca5  1  0.38540000  0.93804200  0.81711200  1
  Ca  Ca6  1  0.62452700  0.56996000  0.67491200  1
  Ca  Ca7  1  0.62108000  0.06948600  0.18174600  1
  Ca  Ca8  1  0.87941600  0.42863900  0.18267900  1
  Ca  Ca9  1  0.87504000  0.93167100  0.67481500  1
  Sc  Sc0  1  0.25036700  0.24991100  0.00299400  1
  Sc  Sc1  1  0.24849900  0.75051400  0.49460900  1
  Sc  Sc2  1  0.74995500  0.74985300  0.00091500  1
  Sc  Sc3  1  0.75104500  0.24949000  0.51111400  1
  Co  Co0  1  0.49221300  0.00153900  0.49840500  1
  Co  Co1  1  0.00681600  0.49893700  0.49847800  1
  Co  Co2  1  0.50070900  0.49688000  0.99658300  1
  Co  Co3  1  0.99984000  0.00274200  0.99646400  1
  O  O0  1  0.97453500  0.19052800  0.11887600  1
  O  O1  1  0.96803000  0.67726100  0.60400400  1
  O  O2  1  0.52579300  0.30858300  0.11992100  1
  O  O3  1  0.53030100  0.82500600  0.60359800  1
  O  O4  1  0.04155400  0.80059000  0.89489000  1
  O  O5  1  0.05053300  0.31526600  0.40693400  1
  O  O6  1  0.45880300  0.70004200  0.89427500  1
  O  O7  1  0.44851500  0.18351500  0.40764500  1
  O  O8  1  0.92933900  0.38390300  0.66187300  1
  O  O9  1  0.92247500  0.88411100  0.15744600  1
  O  O10  1  0.57739000  0.61493100  0.15751000  1
  O  O11  1  0.57567300  0.11686600  0.66236600  1
  O  O12  1  0.29775700  0.52801400  0.56321400  1
  O  O13  1  0.29293200  0.02084600  0.05997300  1
  O  O14  1  0.20796500  0.47882300  0.06025600  1
  O  O15  1  0.20157800  0.97410300  0.56322400  1
  O  O16  1  0.71778700  0.46112200  0.43720500  1
  O  O17  1  0.72017600  0.96973900  0.93422900  1
  O  O18  1  0.77957700  0.53022900  0.93344900  1
  O  O19  1  0.78090900  0.03808400  0.43557900  1
  O  O20  1  0.39662100  0.38896200  0.83391500  1
  O  O21  1  0.38720700  0.89010500  0.33113900  1
  O  O22  1  0.10936900  0.60802100  0.33145900  1
  O  O23  1  0.10441700  0.11136500  0.83386000  1
loop_
_geom_bond_atom_site_label_1
_geom_bond_atom_site_label_2
_geom_bond_distance
_geom_bond_site_symmetry_2
Ca0 O21 2.357321 1_555
Ca0 O22 2.370896 1_555
Ca0 O9 2.527231 1_455
Ca0 O10 2.530573 1_555
Ca0 O13 2.542636 1_565
Ca0 O14 2.545059 1_555
Ca0 O4 2.627847 1_554
Ca0 O6 2.633771 1_554
Ca1 O23 2.353460 1_555
Ca1 O20 2.356914 1_555
Ca1 O8 2.493716 1_455
Ca1 O11 2.505698 1_555
Ca1 O7 2.566547 1_555
Ca1 O5 2.577251 1_555
Ca1 O15 2.591330 1_545
Ca1 O12 2.608348 1_555
Ca2 O4 2.366616 1_555
Ca2 O18 2.390342 1_455
Ca2 O8 2.398696 1_455
Ca2 O1 2.447684 1_455
Ca2 O14 2.468132 1_556
Ca2 O20 2.509589 1_555
Ca2 O6 2.514828 1_555
Ca2 O12 2.646720 1_555
Ca3 O19 2.333953 1_455
Ca3 O0 2.403333 1_455
Ca3 O9 2.416740 1_445
Ca3 O21 2.465118 1_545
Ca3 O15 2.470253 1_545
Ca3 O7 2.483955 1_555
Ca3 O5 2.522889 1_555
Ca3 O13 2.712340 1_555
Ca4 O16 2.336710 1_555
Ca4 O2 2.401957 1_555
Ca4 O10 2.415322 1_555
Ca4 O22 2.473695 1_555
Ca4 O12 2.481161 1_555
Ca4 O5 2.482849 1_555
Ca4 O7 2.523786 1_555
Ca4 O14 2.706673 1_555
Ca5 O6 2.367482 1_555
Ca5 O17 2.384494 1_555
Ca5 O11 2.403095 1_565
Ca5 O3 2.447582 1_555
Ca5 O13 2.457774 1_566
Ca5 O23 2.501495 1_565
Ca5 O4 2.520037 1_555
Ca5 O15 2.655741 1_555
Ca6 O12 2.322354 1_555
Ca6 O1 2.399896 1_555
Ca6 O16 2.505490 1_555
Ca6 O3 2.537955 1_555
Ca6 O20 2.551814 1_555
Ca6 O6 2.621299 1_555
Ca6 O18 2.622621 1_555
Ca6 O8 2.698588 1_555
Ca7 O13 2.378280 1_555
Ca7 O2 2.382479 1_555
Ca7 O0 2.478518 1_555
Ca7 O21 2.512982 1_545
Ca7 O17 2.563040 1_544
Ca7 O19 2.583091 1_555
Ca7 O7 2.620599 1_555
Ca7 O9 2.684114 1_545
Ca8 O0 2.379920 1_555
Ca8 O14 2.384170 1_655
Ca8 O2 2.476816 1_555
Ca8 O22 2.499596 1_655
Ca8 O18 2.582123 1_554
Ca8 O16 2.595973 1_555
Ca8 O5 2.598891 1_655
Ca8 O10 2.693246 1_555
Ca9 O15 2.320477 1_655
Ca9 O3 2.406542 1_555
Ca9 O19 2.507446 1_565
Ca9 O1 2.530770 1_555
Ca9 O23 2.552867 1_665
Ca9 O17 2.628092 1_555
Ca9 O4 2.630013 1_655
Ca9 O11 2.665634 1_565
Co0 O11 1.891246 1_555
Co0 O7 1.898882 1_555
Co0 O3 1.911235 1_545
Co0 O19 1.926763 1_555
Co0 O21 1.933604 1_545
Co0 O15 1.939145 1_545
Co1 O8 1.874556 1_455
Co1 O22 1.914136 1_555
Co1 O5 1.918184 1_555
Co1 O16 1.925741 1_455
Co1 O1 1.930311 1_455
Co1 O12 1.941571 1_555
Co2 O18 1.866761 1_555
Co2 O10 1.872865 1_556
Co2 O20 1.882179 1_555
Co2 O14 1.947407 1_556
Co2 O2 2.074902 1_556
Co2 O6 2.114320 1_555
Co3 O17 1.868980 1_545
Co3 O9 1.874293 1_546
Co3 O23 1.883248 1_655
Co3 O13 1.949171 1_656
Co3 O0 2.069649 1_556
Co3 O4 2.105608 1_645
O0 Sc0 2.083849 1_655
O1 Sc1 2.104283 1_655
O2 Sc0 2.086410 1_555
O3 Sc1 2.113105 1_555
O4 Sc2 2.111407 1_456
O5 Sc3 2.168938 1_455
O6 Sc2 2.111123 1_556
O7 Sc3 2.183754 1_555
O8 Sc3 2.113059 1_555
O9 Sc2 2.130706 1_555
O10 Sc2 2.131740 1_555
O11 Sc3 2.095998 1_555
O12 Sc1 2.171612 1_555
O13 Sc0 2.190632 1_555
O14 Sc0 2.191353 1_555
O15 Sc1 2.179536 1_555
O16 Sc3 2.071855 1_555
O17 Sc2 2.118168 1_556
O18 Sc2 2.119752 1_556
O19 Sc3 2.073019 1_555
O20 Sc0 2.162562 1_556
O21 Sc1 2.110363 1_555
O22 Sc1 2.127110 1_555
O23 Sc0 2.162655 1_556
