# generated using pymatgen
data_Nb5Si3P
_symmetry_space_group_name_H-M   'P 1'
_cell_length_a   7.75523120
_cell_length_b   7.75523120
_cell_length_c   5.47947400
_cell_angle_alpha   90.00000000
_cell_angle_beta   90.00000000
_cell_angle_gamma   119.99999317
_symmetry_Int_Tables_number   1
_chemical_formula_structural   Nb5Si3P
_chemical_formula_sum   'Nb10 Si6 P2'
_cell_volume   285.40332687
_cell_formula_units_Z   2
loop_
 _symmetry_equiv_pos_site_id
 _symmetry_equiv_pos_as_xyz
  1  'x, y, z'
loop_
 _atom_site_type_symbol
 _atom_site_label
 _atom_site_symmetry_multiplicity
 _atom_site_fract_x
 _atom_site_fract_y
 _atom_site_fract_z
 _atom_site_occupancy
  Nb  Nb0  1  0.66666700  0.33333300  0.00000000  1
  Nb  Nb1  1  0.33333300  0.66666700  0.00000000  1
  Nb  Nb2  1  0.33333300  0.66666700  0.50000000  1
  Nb  Nb3  1  0.66666700  0.33333300  0.50000000  1
  Nb  Nb4  1  0.73702000  0.73702000  0.75000000  1
  Nb  Nb5  1  0.26298000  0.00000000  0.75000000  1
  Nb  Nb6  1  0.00000000  0.26298000  0.75000000  1
  Nb  Nb7  1  0.26298000  0.26298000  0.25000000  1
  Nb  Nb8  1  0.73702000  0.00000000  0.25000000  1
  Nb  Nb9  1  0.00000000  0.73702000  0.25000000  1
  Si  Si0  1  0.40041700  0.40041700  0.75000000  1
  Si  Si1  1  0.59958300  0.00000000  0.75000000  1
  Si  Si2  1  0.00000000  0.59958300  0.75000000  1
  Si  Si3  1  0.59958300  0.59958300  0.25000000  1
  Si  Si4  1  0.40041700  0.00000000  0.25000000  1
  Si  Si5  1  0.00000000  0.40041700  0.25000000  1
  P  P0  1  0.00000000  0.00000000  0.00000000  1
  P  P1  1  0.00000000  0.00000000  0.50000000  1
loop_
_geom_bond_atom_site_label_1
_geom_bond_atom_site_label_2
_geom_bond_distance
_geom_bond_site_symmetry_2
Nb0 Si5 2.735859 1_655
Nb0 Si1 2.735859 1_554
Nb0 Si2 2.735861 1_654
Nb0 Si4 2.735861 1_555
Nb0 Si0 2.735865 1_554
Nb0 Si3 2.735865 1_555
Nb1 Si2 2.735859 1_554
Nb1 Si4 2.735859 1_565
Nb1 Si1 2.735861 1_564
Nb1 Si5 2.735861 1_555
Nb1 Si0 2.735865 1_554
Nb1 Si3 2.735865 1_555
Nb2 Si2 2.735859 1_555
Nb2 Si4 2.735859 1_565
Nb2 Si1 2.735861 1_565
Nb2 Si5 2.735861 1_555
Nb2 Si0 2.735865 1_555
Nb2 Si3 2.735865 1_555
Nb3 Si5 2.735859 1_655
Nb3 Si1 2.735859 1_555
Nb3 Si4 2.735861 1_555
Nb3 Si2 2.735861 1_655
Nb3 Si0 2.735865 1_555
Nb3 Si3 2.735865 1_555
Nb4 P1 2.456823 1_665
Nb4 P0 2.456823 1_666
Nb4 Si0 2.610434 1_555
Nb4 Si1 2.732997 1_565
Nb4 Si2 2.732997 1_655
Nb4 Si3 2.939763 1_556
Nb4 Si3 2.939763 1_555
Nb5 P0 2.456823 1_556
Nb5 P1 2.456823 1_555
Nb5 Si1 2.610434 1_555
Nb5 Si0 2.732997 1_555
Nb5 Si2 2.732997 1_545
Nb5 Si4 2.939763 1_556
Nb5 Si4 2.939763 1_555
Nb6 P0 2.456823 1_556
Nb6 P1 2.456823 1_555
Nb6 Si2 2.610434 1_555
Nb6 Si0 2.732997 1_555
Nb6 Si1 2.732997 1_455
Nb6 Si5 2.939763 1_555
Nb6 Si5 2.939763 1_556
Nb7 P1 2.456823 1_555
Nb7 P0 2.456823 1_555
Nb7 Si3 2.610434 1_555
Nb7 Si5 2.732997 1_555
Nb7 Si4 2.732997 1_555
Nb7 Si0 2.939763 1_555
Nb7 Si0 2.939763 1_554
Nb8 P0 2.456823 1_655
Nb8 P1 2.456823 1_655
Nb8 Si4 2.610434 1_555
Nb8 Si3 2.732997 1_545
Nb8 Si5 2.732997 1_655
Nb8 Si1 2.939763 1_554
Nb8 Si1 2.939763 1_555
Nb9 P0 2.456823 1_565
Nb9 P1 2.456823 1_565
Nb9 Si5 2.610434 1_555
Nb9 Si3 2.732997 1_455
Nb9 Si4 2.732997 1_565
Nb9 Si2 2.939763 1_555
Nb9 Si2 2.939763 1_554
