# generated using pymatgen
data_U3Co2Si7
_symmetry_space_group_name_H-M   'P 1'
_cell_length_a   3.97477600
_cell_length_b   4.02672100
_cell_length_c   12.35176983
_cell_angle_alpha   90.00000000
_cell_angle_beta   99.25908399
_cell_angle_gamma   90.00000000
_symmetry_Int_Tables_number   1
_chemical_formula_structural   U3Co2Si7
_chemical_formula_sum   'U3 Co2 Si7'
_cell_volume   195.11817398
_cell_formula_units_Z   1
loop_
 _symmetry_equiv_pos_site_id
 _symmetry_equiv_pos_as_xyz
  1  'x, y, z'
loop_
 _atom_site_type_symbol
 _atom_site_label
 _atom_site_symmetry_multiplicity
 _atom_site_fract_x
 _atom_site_fract_y
 _atom_site_fract_z
 _atom_site_occupancy
  U  U0  1  0.31412000  0.00000000  0.62824100  1
  U  U1  1  0.68588000  0.00000000  0.37175900  1
  U  U2  1  0.00000000  0.50000000  0.00000000  1
  Co  Co0  1  0.12871100  0.50000000  0.25742200  1
  Co  Co1  1  0.87128900  0.50000000  0.74257800  1
  Si  Si0  1  0.50000000  0.00000000  0.00000000  1
  Si  Si1  1  0.41313300  0.50000000  0.82626600  1
  Si  Si2  1  0.58686700  0.50000000  0.17373400  1
  Si  Si3  1  0.08751700  0.00000000  0.17503400  1
  Si  Si4  1  0.91248300  0.00000000  0.82496600  1
  Si  Si5  1  0.22223500  0.50000000  0.44447000  1
  Si  Si6  1  0.77776500  0.50000000  0.55553000  1
loop_
_geom_bond_atom_site_label_1
_geom_bond_atom_site_label_2
_geom_bond_distance
_geom_bond_site_symmetry_2
Co0 Si2 2.233959 1_455
Co0 Si2 2.233959 1_555
Co0 Si3 2.249977 1_555
Co0 Si3 2.249977 1_565
Co0 Si5 2.280272 1_555
Co0 U1 3.153756 1_465
Co0 U1 3.153756 1_455
Co0 U1 3.153759 1_555
Co0 U1 3.153759 1_565
Co1 Si1 2.233959 1_555
Co1 Si1 2.233959 1_655
Co1 Si4 2.249977 1_565
Co1 Si4 2.249977 1_555
Co1 Si6 2.280272 1_555
Co1 U0 3.153756 1_655
Co1 U0 3.153756 1_665
Co1 U0 3.153759 1_555
Co1 U0 3.153759 1_565
Si0 U2 2.829016 1_645
Si0 U2 2.829016 1_555
Si0 U2 2.829016 1_655
Si0 U2 2.829016 1_545
Si0 Si2 2.922223 1_545
Si0 Si2 2.922223 1_555
Si0 Si1 2.922223 1_554
Si0 Si1 2.922223 1_544
Si1 Si4 2.829060 1_565
Si1 Si4 2.829060 1_555
Si1 Si4 2.829060 1_455
Si1 Si4 2.829060 1_465
Si1 U2 2.904389 1_656
Si1 U2 2.904389 1_556
Si1 U0 3.143478 1_555
Si1 U0 3.143478 1_565
Si2 Si3 2.829060 1_655
Si2 Si3 2.829060 1_555
Si2 Si3 2.829060 1_565
Si2 Si3 2.829060 1_665
Si2 U2 2.904389 1_555
Si2 U2 2.904389 1_655
Si2 U1 3.143478 1_565
Si2 U1 3.143478 1_555
Si3 U2 2.933730 1_555
Si3 U2 2.933730 1_545
Si3 U1 3.114686 1_455
Si3 U1 3.114689 1_555
Si4 U2 2.933730 1_656
Si4 U2 2.933730 1_646
Si4 U0 3.114686 1_655
Si4 U0 3.114689 1_555
Si5 Si6 2.404744 1_455
Si5 Si6 2.404744 1_555
Si5 U1 2.964632 1_455
Si5 U1 2.964632 1_465
Si5 U1 2.964635 1_555
Si5 U1 2.964635 1_565
Si5 U0 3.012086 1_565
Si5 U0 3.012086 1_555
Si6 U0 2.964632 1_655
Si6 U0 2.964632 1_665
Si6 U0 2.964635 1_565
Si6 U0 2.964635 1_555
Si6 U1 3.012086 1_555
Si6 U1 3.012086 1_565
