# generated using pymatgen
data_KOsBr4NO2
_symmetry_space_group_name_H-M   'P 1'
_cell_length_a   8.24936757
_cell_length_b   8.24936757
_cell_length_c   7.43535200
_cell_angle_alpha   90.00000000
_cell_angle_beta   90.00000000
_cell_angle_gamma   71.62727041
_symmetry_Int_Tables_number   1
_chemical_formula_structural   KOsBr4NO2
_chemical_formula_sum   'K2 Os2 Br8 N2 O4'
_cell_volume   480.19874242
_cell_formula_units_Z   2
loop_
 _symmetry_equiv_pos_site_id
 _symmetry_equiv_pos_as_xyz
  1  'x, y, z'
loop_
 _atom_site_type_symbol
 _atom_site_label
 _atom_site_symmetry_multiplicity
 _atom_site_fract_x
 _atom_site_fract_y
 _atom_site_fract_z
 _atom_site_occupancy
  K  K0  1  0.34501600  0.34501600  0.47547800  1
  K  K1  1  0.65498400  0.65498400  0.97547800  1
  Os  Os0  1  0.84201700  0.84201700  0.50698000  1
  Os  Os1  1  0.15798300  0.15798300  0.00698000  1
  Br  Br0  1  0.15279700  0.78512400  0.53552500  1
  Br  Br1  1  0.78512400  0.15279700  0.53552500  1
  Br  Br2  1  0.84720300  0.21487600  0.03552500  1
  Br  Br3  1  0.21487600  0.84720300  0.03552500  1
  Br  Br4  1  0.88917800  0.52898200  0.57601700  1
  Br  Br5  1  0.52898200  0.88917800  0.57601700  1
  Br  Br6  1  0.11082200  0.47101800  0.07601700  1
  Br  Br7  1  0.47101800  0.11082200  0.07601700  1
  N  N0  1  0.81968700  0.81968700  0.28378600  1
  N  N1  1  0.18031300  0.18031300  0.78378600  1
  O  O0  1  0.83548200  0.83548200  0.78321400  1
  O  O1  1  0.16451800  0.16451800  0.28321400  1
  O  O2  1  0.46018800  0.46018800  0.80145900  1
  O  O3  1  0.53981200  0.53981200  0.30145900  1
loop_
_geom_bond_atom_site_label_1
_geom_bond_atom_site_label_2
_geom_bond_distance
_geom_bond_site_symmetry_2
K0 O1 2.806327 1_555
K0 O2 2.872131 1_555
K0 O3 2.909732 1_555
K0 N1 3.179756 1_555
K1 O0 2.806327 1_555
K1 O3 2.872131 1_556
K1 O2 2.909732 1_555
K1 N0 3.179756 1_556
Br0 Os0 2.465675 1_455
Br0 K0 3.502270 1_555
Br1 Os0 2.465675 1_545
Br1 K0 3.502270 1_555
Br2 Os1 2.465675 1_655
Br2 K1 3.502270 1_554
Br3 Os1 2.465675 1_565
Br3 K1 3.502270 1_554
Br4 Os0 2.539686 1_555
Br4 K1 3.516907 1_555
Br4 K0 3.661264 1_655
Br5 Os0 2.539686 1_555
Br5 K1 3.516907 1_555
Br5 K0 3.661264 1_565
Br6 Os1 2.539686 1_555
Br6 K0 3.516907 1_555
Br6 K1 3.661264 1_454
Br7 Os1 2.539686 1_555
Br7 K0 3.516907 1_555
Br7 K1 3.661264 1_544
N0 Os0 1.686204 1_555
N1 Os1 1.686204 1_556
O0 Os0 2.055757 1_555
O1 Os1 2.055757 1_555
