# generated using pymatgen
data_Ba2CaV2(Si2O7)2
_symmetry_space_group_name_H-M   'P 1'
_cell_length_a   6.31335496
_cell_length_b   7.57303403
_cell_length_c   8.45590814
_cell_angle_alpha   80.59832710
_cell_angle_beta   116.39771398
_cell_angle_gamma   102.32964739
_symmetry_Int_Tables_number   1
_chemical_formula_structural   Ba2CaV2(Si2O7)2
_chemical_formula_sum   'Ba2 Ca1 V2 Si4 O14'
_cell_volume   352.69683438
_cell_formula_units_Z   1
loop_
 _symmetry_equiv_pos_site_id
 _symmetry_equiv_pos_as_xyz
  1  'x, y, z'
loop_
 _atom_site_type_symbol
 _atom_site_label
 _atom_site_symmetry_multiplicity
 _atom_site_fract_x
 _atom_site_fract_y
 _atom_site_fract_z
 _atom_site_occupancy
  Ba  Ba0  1  0.80097400  0.73362600  0.62850100  1
  Ba  Ba1  1  0.21985000  0.28730300  0.42395300  1
  Ca  Ca0  1  0.00274000  0.85742000  0.19240000  1
  V  V0  1  0.33818000  0.70417700  0.09585200  1
  V  V1  1  0.98435300  0.18775700  0.84794600  1
  Si  Si0  1  0.33563300  0.55369400  0.78311500  1
  Si  Si1  1  0.65624300  0.45891500  0.21331300  1
  Si  Si2  1  0.42420100  0.98623400  0.81315100  1
  Si  Si3  1  0.61544600  0.02339000  0.23737300  1
  O  O0  1  0.06965800  0.44249800  0.74967000  1
  O  O1  1  0.50933300  0.52947700  0.30406000  1
  O  O2  1  0.20235800  0.09230400  0.76107500  1
  O  O3  1  0.40935400  0.89290300  0.28693800  1
  O  O4  1  0.50242500  0.54893100  0.00545600  1
  O  O5  1  0.55393000  0.93895800  0.04019700  1
  O  O6  1  0.03120400  0.73735000  0.97967200  1
  O  O7  1  0.05346500  0.15939400  0.07650400  1
  O  O8  1  0.30973600  0.77628900  0.74548300  1
  O  O9  1  0.60166000  0.23818200  0.21128100  1
  O  O10  1  0.46616900  0.50390600  0.67814700  1
  O  O11  1  0.93379500  0.54196400  0.29360300  1
  O  O12  1  0.62580300  0.07448100  0.74029200  1
  O  O13  1  0.87948900  0.98084700  0.36857700  1
loop_
_geom_bond_atom_site_label_1
_geom_bond_atom_site_label_2
_geom_bond_distance
_geom_bond_site_symmetry_2
Ba0 O10 2.578878 1_555
Ba0 O6 2.665178 1_655
Ba0 O13 2.794578 1_555
Ba0 O0 2.846357 1_655
Ba0 O8 2.869806 1_655
Ba0 O1 2.997534 1_555
Ba0 O3 3.113753 1_555
Ba0 O2 3.253556 1_665
Ba0 O12 3.424285 1_565
Ba1 O10 2.611403 1_555
Ba1 O11 2.686762 1_455
Ba1 O1 2.709262 1_555
Ba1 O13 2.748335 1_445
Ba1 O7 2.902506 1_555
Ba1 O2 3.025592 1_555
Ba1 O12 3.252846 1_555
Ca0 O6 2.233030 1_554
Ca0 O3 2.291737 1_555
Ca0 O13 2.344102 1_455
Ca0 O7 2.350913 1_565
Ca0 O11 2.418290 1_455
Ca0 O5 2.703942 1_455
O0 Si0 1.631083 1_555
O0 V1 2.032923 1_455
O1 Si1 1.647151 1_555
O1 V0 2.043412 1_555
O2 Si2 1.617796 1_545
O2 V1 2.110413 1_455
O3 Si3 1.626527 1_565
O3 V0 2.165650 1_555
O4 Si1 1.694266 1_555
O4 Si0 1.696631 1_554
O4 V0 2.135600 1_555
O5 Si2 1.728404 1_554
O5 Si3 1.733790 1_565
O5 V0 2.121424 1_555
O6 V0 1.794038 1_556
O7 V1 1.768127 1_454
O8 Si2 1.678194 1_555
O8 Si0 1.692877 1_555
O9 Si3 1.621205 1_555
O9 Si1 1.634461 1_555
O10 Si0 1.581662 1_555
O11 Si1 1.593105 1_555
O12 Si2 1.626545 1_545
O12 V1 2.069346 1_555
O13 Si3 1.606741 1_565
