# generated using pymatgen
data_VN(OF)2
_symmetry_space_group_name_H-M   'P 1'
_cell_length_a   10.86864600
_cell_length_b   5.51346000
_cell_length_c   7.67812611
_cell_angle_alpha   73.88503182
_cell_angle_beta   90.00000000
_cell_angle_gamma   90.00000000
_symmetry_Int_Tables_number   1
_chemical_formula_structural   VN(OF)2
_chemical_formula_sum   'V4 N4 O8 F8'
_cell_volume   442.02386802
_cell_formula_units_Z   4
loop_
 _symmetry_equiv_pos_site_id
 _symmetry_equiv_pos_as_xyz
  1  'x, y, z'
loop_
 _atom_site_type_symbol
 _atom_site_label
 _atom_site_symmetry_multiplicity
 _atom_site_fract_x
 _atom_site_fract_y
 _atom_site_fract_z
 _atom_site_occupancy
  V  V0  1  0.15887100  0.01344300  0.49316700  1
  V  V1  1  0.84112900  0.01344300  0.99316700  1
  V  V2  1  0.26796100  0.61596900  0.34675200  1
  V  V3  1  0.73203900  0.61596900  0.84675200  1
  N  N0  1  0.16477800  0.50830300  0.98105400  1
  N  N1  1  0.83522200  0.50830300  0.48105400  1
  N  N2  1  0.41597900  0.10523100  0.94143200  1
  N  N3  1  0.58402100  0.10523100  0.44143200  1
  O  O0  1  0.01691300  0.93248400  0.52462500  1
  O  O1  1  0.98308700  0.93248400  0.02462500  1
  O  O2  1  0.24685000  0.59503400  0.03967400  1
  O  O3  1  0.75315000  0.59503400  0.53967400  1
  O  O4  1  0.20573900  0.93270100  0.28339000  1
  O  O5  1  0.79426100  0.93270100  0.78339000  1
  O  O6  1  0.16480400  0.35736400  0.38339800  1
  O  O7  1  0.83519600  0.35736400  0.88339800  1
  F  F0  1  0.21951900  0.03970500  0.70504600  1
  F  F1  1  0.78048100  0.03970500  0.20504600  1
  F  F2  1  0.43046800  0.62557500  0.30822200  1
  F  F3  1  0.56953200  0.62557500  0.80822200  1
  F  F4  1  0.25202000  0.66403600  0.58383600  1
  F  F5  1  0.74798000  0.66403600  0.08383600  1
  F  F6  1  0.46543000  0.07975500  0.49270400  1
  F  F7  1  0.53457000  0.07975500  0.99270400  1
loop_
_geom_bond_atom_site_label_1
_geom_bond_atom_site_label_2
_geom_bond_distance
_geom_bond_site_symmetry_2
N0 O2 1.160349 1_556
N1 O3 1.160349 1_555
O0 V0 1.605691 1_565
O1 V1 1.605691 1_564
O2 V2 2.403370 1_555
O3 V3 2.403370 1_555
O4 V2 1.808846 1_555
O4 V0 1.857427 1_565
O5 V3 1.808846 1_555
O5 V1 1.857427 1_565
O6 V2 1.773817 1_555
O6 V0 1.850101 1_555
O7 V3 1.773817 1_555
O7 V1 1.850101 1_555
F0 V0 1.798002 1_555
F1 V1 1.798002 1_554
F2 V2 1.789190 1_555
F3 V3 1.789190 1_555
F4 V2 1.918795 1_555
F4 V0 2.115724 1_565
F5 V3 1.918795 1_554
F5 V1 2.115724 1_564
F6 N3 1.343628 1_555
F7 N2 1.343628 1_555
