# generated using pymatgen
data_Rb3Er
_symmetry_space_group_name_H-M   'P 1'
_cell_length_a   6.43297800
_cell_length_b   6.43297800
_cell_length_c   6.43297800
_cell_angle_alpha   90.00000000
_cell_angle_beta   90.00000000
_cell_angle_gamma   90.00000000
_symmetry_Int_Tables_number   1
_chemical_formula_structural   Rb3Er
_chemical_formula_sum   'Rb3 Er1'
_cell_volume   266.21725344
_cell_formula_units_Z   1
loop_
 _symmetry_equiv_pos_site_id
 _symmetry_equiv_pos_as_xyz
  1  'x, y, z'
loop_
 _atom_site_type_symbol
 _atom_site_label
 _atom_site_symmetry_multiplicity
 _atom_site_fract_x
 _atom_site_fract_y
 _atom_site_fract_z
 _atom_site_occupancy
  Rb  Rb0  1  0.50000000  0.00000000  0.00000000  1
  Rb  Rb1  1  0.00000000  0.50000000  0.00000000  1
  Rb  Rb2  1  0.00000000  0.00000000  0.50000000  1
  Er  Er0  1  0.50000000  0.50000000  0.50000000  1
loop_
_geom_bond_atom_site_label_1
_geom_bond_atom_site_label_2
_geom_bond_distance
_geom_bond_site_symmetry_2
Rb0 Rb2 4.548802 1_655
Rb0 Rb1 4.548802 1_555
Rb0 Rb2 4.548802 1_555
Rb0 Rb1 4.548802 1_645
Rb0 Rb2 4.548802 1_654
Rb0 Rb1 4.548802 1_655
Rb0 Rb2 4.548802 1_554
Rb0 Rb1 4.548802 1_545
Rb1 Rb2 4.548802 1_555
Rb1 Rb2 4.548802 1_565
Rb1 Rb2 4.548802 1_564
Rb1 Rb2 4.548802 1_554
Er0 Rb0 4.548802 1_556
Er0 Rb1 4.548802 1_555
Er0 Rb2 4.548802 1_655
Er0 Rb2 4.548802 1_555
Er0 Rb2 4.548802 1_565
Er0 Rb2 4.548802 1_665
Er0 Rb1 4.548802 1_556
Er0 Rb1 4.548802 1_656
Er0 Rb1 4.548802 1_655
Er0 Rb0 4.548802 1_565
Er0 Rb0 4.548802 1_555
Er0 Rb0 4.548802 1_566
