# generated using pymatgen
data_BaH2PdN4O9
_symmetry_space_group_name_H-M   'P 1'
_cell_length_a   10.83236000
_cell_length_b   7.74321900
_cell_length_c   14.62376610
_cell_angle_alpha   90.00000000
_cell_angle_beta   128.98639327
_cell_angle_gamma   90.00000000
_symmetry_Int_Tables_number   1
_chemical_formula_structural   BaH2PdN4O9
_chemical_formula_sum   'Ba4 H8 Pd4 N16 O36'
_cell_volume   953.43250138
_cell_formula_units_Z   4
loop_
 _symmetry_equiv_pos_site_id
 _symmetry_equiv_pos_as_xyz
  1  'x, y, z'
loop_
 _atom_site_type_symbol
 _atom_site_label
 _atom_site_symmetry_multiplicity
 _atom_site_fract_x
 _atom_site_fract_y
 _atom_site_fract_z
 _atom_site_occupancy
  Ba  Ba0  1  0.79392800  0.58122100  0.67992100  1
  Ba  Ba1  1  0.79392800  0.91877900  0.17992100  1
  Ba  Ba2  1  0.20607200  0.41877900  0.32007900  1
  Ba  Ba3  1  0.20607200  0.08122100  0.82007900  1
  H  H0  1  0.11380900  0.66036400  0.95472500  1
  H  H1  1  0.11380900  0.83963600  0.45472500  1
  H  H2  1  0.88619100  0.33963600  0.04527500  1
  H  H3  1  0.88619100  0.16036400  0.54527500  1
  H  H4  1  0.08390300  0.47415100  0.97662700  1
  H  H5  1  0.08390300  0.02584900  0.47662700  1
  H  H6  1  0.91609700  0.52584900  0.02337300  1
  H  H7  1  0.91609700  0.97415100  0.52337300  1
  Pd  Pd0  1  0.63614600  0.09914900  0.75195800  1
  Pd  Pd1  1  0.63614600  0.40085100  0.25195800  1
  Pd  Pd2  1  0.36385400  0.90085100  0.24804200  1
  Pd  Pd3  1  0.36385400  0.59914900  0.74804200  1
  N  N0  1  0.82978300  0.08781000  0.75592100  1
  N  N1  1  0.82978300  0.41219000  0.25592100  1
  N  N2  1  0.17021700  0.91219000  0.24407900  1
  N  N3  1  0.17021700  0.58781000  0.74407900  1
  N  N4  1  0.49505400  0.20180100  0.58464700  1
  N  N5  1  0.49505400  0.29819900  0.08464700  1
  N  N6  1  0.50494600  0.79819900  0.41535300  1
  N  N7  1  0.50494600  0.70180100  0.91535300  1
  N  N8  1  0.44614600  0.10928900  0.75190300  1
  N  N9  1  0.44614600  0.39071100  0.25190300  1
  N  N10  1  0.55385400  0.89071100  0.24809700  1
  N  N11  1  0.55385400  0.60928900  0.74809700  1
  N  N12  1  0.76986400  0.00142700  0.92112800  1
  N  N13  1  0.76986400  0.49857300  0.42112800  1
  N  N14  1  0.23013600  0.99857300  0.07887200  1
  N  N15  1  0.23013600  0.50142700  0.57887200  1
  O  O0  1  0.89057800  0.94602800  0.76298800  1
  O  O1  1  0.89057800  0.55397200  0.26298800  1
  O  O2  1  0.10942200  0.05397200  0.23701200  1
  O  O3  1  0.10942200  0.44602800  0.73701200  1
  O  O4  1  0.89380700  0.22409400  0.75605300  1
  O  O5  1  0.89380700  0.27590600  0.25605300  1
  O  O6  1  0.10619300  0.77590600  0.24394700  1
  O  O7  1  0.10619300  0.72409400  0.74394700  1
  O  O8  1  0.53191700  0.34578900  0.56709000  1
  O  O9  1  0.53191700  0.15421100  0.06709000  1
  O  O10  1  0.46808300  0.65421100  0.43291000  1
  O  O11  1  0.46808300  0.84578900  0.93291000  1
  O  O12  1  0.36846500  0.13209300  0.50221100  1
  O  O13  1  0.36846500  0.36790700  0.00221100  1
  O  O14  1  0.63153500  0.86790700  0.49778900  1
  O  O15  1  0.63153500  0.63209300  0.99778900  1
  O  O16  1  0.33266200  0.00582200  0.69187300  1
  O  O17  1  0.33266200  0.49417800  0.19187300  1
  O  O18  1  0.66733800  0.99417800  0.30812700  1
  O  O19  1  0.66733800  0.50582200  0.80812700  1
  O  O20  1  0.44865000  0.21779300  0.81656700  1
  O  O21  1  0.44865000  0.28220700  0.31656700  1
  O  O22  1  0.55135000  0.78220700  0.18343300  1
  O  O23  1  0.55135000  0.71779300  0.68343300  1
  O  O24  1  0.83031100  0.85643600  0.94326500  1
  O  O25  1  0.83031100  0.64356400  0.44326500  1
  O  O26  1  0.16968900  0.14356400  0.05673500  1
  O  O27  1  0.16968900  0.35643600  0.55673500  1
  O  O28  1  0.77985100  0.08730100  0.99913400  1
  O  O29  1  0.77985100  0.41269900  0.49913400  1
  O  O30  1  0.22014900  0.91269900  0.00086600  1
  O  O31  1  0.22014900  0.58730100  0.50086600  1
  O  O32  1  0.03595500  0.56647300  0.91828800  1
  O  O33  1  0.03595500  0.93352700  0.41828800  1
  O  O34  1  0.96404500  0.43352700  0.08171200  1
  O  O35  1  0.96404500  0.06647300  0.58171200  1
loop_
_geom_bond_atom_site_label_1
_geom_bond_atom_site_label_2
_geom_bond_distance
_geom_bond_site_symmetry_2
Ba0 O32 2.745590 1_655
Ba0 O23 2.862784 1_555
Ba0 O29 2.865025 1_555
Ba0 O8 2.865079 1_555
Ba0 O4 2.922565 1_555
Ba0 O0 2.991799 1_555
Ba0 O19 2.995203 1_555
Ba0 O14 3.036594 1_555
Ba0 O7 3.091478 1_655
Ba0 O10 3.127822 1_555
Ba0 O3 3.143616 1_655
Ba1 O33 2.745590 1_655
Ba1 O22 2.862784 1_555
Ba1 O28 2.865025 1_564
Ba1 O9 2.865079 1_565
Ba1 O5 2.922565 1_565
Ba1 O1 2.991799 1_555
Ba1 O18 2.995203 1_555
Ba1 O15 3.036594 1_554
Ba1 O6 3.091478 1_655
Ba1 O11 3.127822 1_554
Ba1 O2 3.143616 1_665
Ba2 O34 2.745590 1_455
Ba2 O21 2.862784 1_555
Ba2 O31 2.865025 1_555
Ba2 O10 2.865079 1_555
Ba2 O6 2.922565 1_555
Ba2 O2 2.991799 1_555
Ba2 O17 2.995203 1_555
Ba2 O12 3.036594 1_555
Ba2 O5 3.091478 1_455
Ba2 O8 3.127822 1_555
Ba2 O1 3.143616 1_455
Ba3 O35 2.745590 1_455
Ba3 O20 2.862784 1_555
Ba3 O30 2.865025 1_546
Ba3 O11 2.865079 1_545
Ba3 O7 2.922565 1_545
Ba3 O3 2.991799 1_555
Ba3 O16 2.995203 1_555
Ba3 O13 3.036594 1_556
Ba3 O4 3.091478 1_455
Ba3 O9 3.127822 1_556
Ba3 O0 3.143616 1_445
H0 O32 0.978916 1_555
H1 O33 0.978916 1_555
H2 O34 0.978916 1_555
H3 O35 0.978916 1_555
H4 O32 0.975240 1_555
H5 O33 0.975240 1_545
H6 O34 0.975240 1_555
H7 O35 0.975240 1_565
N0 O0 1.250603 1_545
N0 O4 1.262107 1_555
N0 Pd0 2.063446 1_555
N1 O1 1.250603 1_555
N1 O5 1.262107 1_555
N1 Pd1 2.063446 1_555
N2 O2 1.250603 1_565
N2 O6 1.262107 1_555
N2 Pd2 2.063446 1_555
N3 O3 1.250603 1_555
N3 O7 1.262107 1_555
N3 Pd3 2.063446 1_555
N4 O12 1.242961 1_555
N4 O8 1.263900 1_555
N4 Pd0 2.061272 1_555
N5 O13 1.242961 1_555
N5 O9 1.263900 1_555
N5 Pd1 2.061272 1_555
N6 O14 1.242961 1_555
N6 O10 1.263900 1_555
N6 Pd2 2.061272 1_555
N7 O15 1.242961 1_555
N7 O11 1.263900 1_555
N7 Pd3 2.061272 1_555
N8 O16 1.251327 1_555
N8 O20 1.252424 1_555
N8 Pd0 2.059140 1_555
N9 O17 1.251327 1_555
N9 O21 1.252424 1_555
N9 Pd1 2.059140 1_555
N10 O18 1.251327 1_555
N10 O22 1.252424 1_555
N10 Pd2 2.059140 1_555
N11 O19 1.251327 1_555
N11 O23 1.252424 1_555
N11 Pd3 2.059140 1_555
N12 O24 1.235829 1_545
N12 O28 1.264856 1_555
N12 Pd0 2.069292 1_555
N13 O25 1.235829 1_555
N13 O29 1.264856 1_555
N13 Pd1 2.069292 1_555
N14 O26 1.235829 1_565
N14 O30 1.264856 1_555
N14 Pd2 2.069292 1_555
N15 O27 1.235829 1_555
N15 O31 1.264856 1_555
N15 Pd3 2.069292 1_555
