# generated using pymatgen
data_NaTeO6
_symmetry_space_group_name_H-M   'P 1'
_cell_length_a   6.08194280
_cell_length_b   6.08194280
_cell_length_c   6.08194280
_cell_angle_alpha   60.00000000
_cell_angle_beta   60.00000000
_cell_angle_gamma   60.00000000
_symmetry_Int_Tables_number   1
_chemical_formula_structural   NaTeO6
_chemical_formula_sum   'Na1 Te1 O6'
_cell_volume   159.07868679
_cell_formula_units_Z   1
loop_
 _symmetry_equiv_pos_site_id
 _symmetry_equiv_pos_as_xyz
  1  'x, y, z'
loop_
 _atom_site_type_symbol
 _atom_site_label
 _atom_site_symmetry_multiplicity
 _atom_site_fract_x
 _atom_site_fract_y
 _atom_site_fract_z
 _atom_site_occupancy
  Na  Na0  1  0.50000000  0.50000000  0.50000000  1
  Te  Te0  1  0.00000000  0.00000000  0.00000000  1
  O  O0  1  0.77568700  0.77568700  0.22431300  1
  O  O1  1  0.22431300  0.77568700  0.22431300  1
  O  O2  1  0.77568700  0.22431300  0.22431300  1
  O  O3  1  0.22431300  0.22431300  0.77568700  1
  O  O4  1  0.77568700  0.22431300  0.77568700  1
  O  O5  1  0.22431300  0.77568700  0.77568700  1
loop_
_geom_bond_atom_site_label_1
_geom_bond_atom_site_label_2
_geom_bond_distance
_geom_bond_site_symmetry_2
Na0 O4 2.371230 1_555
Na0 O3 2.371230 1_555
Na0 O1 2.371230 1_555
Na0 O0 2.371230 1_555
Na0 O5 2.371230 1_555
Na0 O2 2.371230 1_555
O0 Te0 1.929353 1_665
O1 Te0 1.929353 1_565
O2 Te0 1.929353 1_655
O3 Te0 1.929353 1_556
O4 Te0 1.929353 1_656
O5 Te0 1.929353 1_566
