# generated using pymatgen
data_Sr2V3Bi3O14
_symmetry_space_group_name_H-M   'P 1'
_cell_length_a   7.21881200
_cell_length_b   7.26921963
_cell_length_c   14.40871793
_cell_angle_alpha   100.94519979
_cell_angle_beta   96.52422916
_cell_angle_gamma   110.71324381
_symmetry_Int_Tables_number   1
_chemical_formula_structural   Sr2V3Bi3O14
_chemical_formula_sum   'Sr4 V6 Bi6 O28'
_cell_volume   680.77536791
_cell_formula_units_Z   2
loop_
 _symmetry_equiv_pos_site_id
 _symmetry_equiv_pos_as_xyz
  1  'x, y, z'
loop_
 _atom_site_type_symbol
 _atom_site_label
 _atom_site_symmetry_multiplicity
 _atom_site_fract_x
 _atom_site_fract_y
 _atom_site_fract_z
 _atom_site_occupancy
  Sr  Sr0  1  0.21520700  0.78368300  0.06681700  1
  Sr  Sr1  1  0.78479300  0.21631700  0.93318300  1
  Sr  Sr2  1  0.68189600  0.35643200  0.55840200  1
  Sr  Sr3  1  0.31810400  0.64356800  0.44159800  1
  V  V0  1  0.22042400  0.27760200  0.07602500  1
  V  V1  1  0.77957600  0.72239800  0.92397500  1
  V  V2  1  0.66234500  0.82321500  0.57116600  1
  V  V3  1  0.33765500  0.17678500  0.42883400  1
  V  V4  1  0.56221200  0.96091900  0.19910300  1
  V  V5  1  0.43778800  0.03908100  0.80089700  1
  Bi  Bi0  1  0.92469400  0.32307000  0.30170300  1
  Bi  Bi1  1  0.07530600  0.67693000  0.69829700  1
  Bi  Bi2  1  0.96295100  0.80680400  0.32748700  1
  Bi  Bi3  1  0.03704900  0.19319600  0.67251300  1
  Bi  Bi4  1  0.38803700  0.50523800  0.83068700  1
  Bi  Bi5  1  0.61196300  0.49476200  0.16931300  1
  O  O0  1  0.06492500  0.03519700  0.13289700  1
  O  O1  1  0.93507500  0.96480300  0.86710300  1
  O  O2  1  0.69150200  0.66965600  0.66438000  1
  O  O3  1  0.30849800  0.33034400  0.33562000  1
  O  O4  1  0.11054800  0.41307900  0.77079100  1
  O  O5  1  0.88945200  0.58692100  0.22920900  1
  O  O6  1  0.52491200  0.69891400  0.94044900  1
  O  O7  1  0.47508800  0.30108600  0.05955100  1
  O  O8  1  0.30340500  0.77427200  0.80450700  1
  O  O9  1  0.69659500  0.22572800  0.19549300  1
  O  O10  1  0.69020400  0.71073100  0.47070400  1
  O  O11  1  0.30979600  0.28926900  0.52929600  1
  O  O12  1  0.80365500  0.56069300  0.84669600  1
  O  O13  1  0.19634500  0.43930700  0.15330400  1
  O  O14  1  0.01689400  0.46742100  0.60304600  1
  O  O15  1  0.98310600  0.53257900  0.39695400  1
  O  O16  1  0.40647600  0.80088900  0.59361500  1
  O  O17  1  0.59352400  0.19911100  0.40638500  1
  O  O18  1  0.39925300  0.08368700  0.91476200  1
  O  O19  1  0.60074700  0.91631300  0.08523800  1
  O  O20  1  0.14470000  0.35067200  0.97093300  1
  O  O21  1  0.85530000  0.64932800  0.02906700  1
  O  O22  1  0.82844000  0.07427500  0.55357700  1
  O  O23  1  0.17156000  0.92572500  0.44642300  1
  O  O24  1  0.37050800  0.19059200  0.72280400  1
  O  O25  1  0.62949200  0.80940800  0.27719600  1
  O  O26  1  0.70182200  0.12063100  0.75803700  1
  O  O27  1  0.29817800  0.87936900  0.24196300  1
loop_
_geom_bond_atom_site_label_1
_geom_bond_atom_site_label_2
_geom_bond_distance
_geom_bond_site_symmetry_2
Bi0 O15 1.732434 1_555
Bi0 O9 1.935440 1_555
Bi0 O5 2.424881 1_555
Bi0 O3 2.738022 1_655
Bi1 O14 1.732434 1_555
Bi1 O8 1.935440 1_555
Bi1 O4 2.424881 1_555
Bi1 O2 2.738022 1_455
Bi2 O5 1.792039 1_555
Bi2 O23 1.970276 1_655
Bi2 O15 2.434426 1_555
Bi2 O25 2.441516 1_555
Bi3 O4 1.792039 1_555
Bi3 O22 1.970276 1_455
Bi3 O14 2.434426 1_555
Bi3 O24 2.441516 1_555
Bi4 O6 1.809688 1_555
Bi4 O4 1.909058 1_555
Bi4 O8 2.326613 1_555
Bi4 O24 2.462562 1_555
Bi5 O7 1.809688 1_555
Bi5 O5 1.909058 1_555
Bi5 O9 2.326613 1_555
Bi5 O25 2.462562 1_555
O0 V0 2.096354 1_555
O0 Sr0 2.530401 1_545
O1 V1 2.096354 1_555
O1 Sr1 2.530401 1_565
O2 V2 1.940490 1_555
O2 Sr2 2.462674 1_555
O3 V3 1.940490 1_555
O3 Sr3 2.462674 1_555
O6 V1 1.832389 1_555
O7 V0 1.832389 1_555
O8 V5 1.837870 1_565
O9 V4 1.837870 1_545
O10 V2 1.592917 1_555
O10 Sr3 2.523501 1_555
O11 V3 1.592917 1_555
O11 Sr2 2.523501 1_555
O12 V1 1.530781 1_555
O12 Sr1 2.969896 1_555
O13 V0 1.530781 1_555
O13 Sr0 2.969896 1_555
O14 Sr2 2.232059 1_455
O15 Sr3 2.232059 1_655
O16 V2 1.867161 1_555
O16 Sr3 2.174325 1_555
O17 V3 1.867161 1_555
O17 Sr2 2.174325 1_555
O18 V5 1.685157 1_555
O18 Sr1 2.565677 1_555
O19 V4 1.685157 1_555
O19 Sr0 2.565677 1_555
O20 V0 1.787900 1_556
O20 Sr1 2.383700 1_455
O20 Sr0 3.021762 1_556
O21 V1 1.787900 1_554
O21 Sr0 2.383700 1_655
O21 Sr1 3.021762 1_554
O22 V2 1.878646 1_545
O22 Sr2 2.613082 1_555
O23 V3 1.878646 1_565
O23 Sr3 2.613082 1_555
O24 V5 1.854675 1_555
O25 V4 1.854675 1_555
O26 V5 1.993217 1_555
O26 Sr1 2.430327 1_555
O27 V4 1.993217 1_555
O27 Sr0 2.430327 1_555
