# generated using pymatgen
data_Mn2CuSb2Pd
_symmetry_space_group_name_H-M   'P 1'
_cell_length_a   7.57416737
_cell_length_b   7.57416737
_cell_length_c   7.57416689
_cell_angle_alpha   33.53828265
_cell_angle_beta   33.53828265
_cell_angle_gamma   33.53828805
_symmetry_Int_Tables_number   1
_chemical_formula_structural   Mn2CuSb2Pd
_chemical_formula_sum   'Mn2 Cu1 Sb2 Pd1'
_cell_volume   118.13789602
_cell_formula_units_Z   1
loop_
 _symmetry_equiv_pos_site_id
 _symmetry_equiv_pos_as_xyz
  1  'x, y, z'
loop_
 _atom_site_type_symbol
 _atom_site_label
 _atom_site_symmetry_multiplicity
 _atom_site_fract_x
 _atom_site_fract_y
 _atom_site_fract_z
 _atom_site_occupancy
  Mn  Mn0  1  0.75029600  0.75029600  0.75029600  1
  Mn  Mn1  1  0.24954100  0.24954100  0.24954100  1
  Cu  Cu0  1  0.12471400  0.12471400  0.12471400  1
  Sb  Sb0  1  0.00199100  0.00199100  0.00199100  1
  Sb  Sb1  1  0.49844000  0.49844000  0.49844000  1
  Pd  Pd0  1  0.62501800  0.62501800  0.62501800  1
loop_
_geom_bond_atom_site_label_1
_geom_bond_atom_site_label_2
_geom_bond_distance
_geom_bond_site_symmetry_2
Mn0 Pd0 2.684013 1_555
Mn0 Sb1 3.068281 1_556
Mn0 Sb1 3.068282 1_655
Mn0 Sb1 3.068282 1_565
Mn0 Sb0 3.070245 1_665
Mn0 Sb0 3.070245 1_566
Mn0 Sb0 3.070245 1_656
Mn1 Pd0 2.680008 1_554
Mn1 Pd0 2.680008 1_545
Mn1 Pd0 2.680008 1_455
Mn1 Sb1 3.104760 1_554
Mn1 Sb1 3.104761 1_545
Mn1 Sb1 3.104761 1_455
Mn1 Sb0 3.121688 1_556
Mn1 Sb0 3.121689 1_655
Mn1 Sb0 3.121689 1_565
Cu0 Sb0 2.629273 1_555
Cu0 Sb1 2.667603 1_554
Cu0 Sb1 2.667603 1_455
Cu0 Sb1 2.667603 1_545
Cu0 Mn0 2.672449 1_445
Cu0 Mn0 2.672450 1_454
Cu0 Mn0 2.672450 1_544
Cu0 Mn1 2.674350 1_555
Pd0 Sb0 2.690975 1_665
Pd0 Sb0 2.690975 1_566
Pd0 Sb0 2.690975 1_656
Pd0 Sb1 2.711865 1_555
