# generated using pymatgen
data_Al8Cr5
_symmetry_space_group_name_H-M   'P 1'
_cell_length_a   7.87891334
_cell_length_b   7.87891334
_cell_length_c   7.87891327
_cell_angle_alpha   109.69519045
_cell_angle_beta   109.69519045
_cell_angle_gamma   109.69518182
_symmetry_Int_Tables_number   1
_chemical_formula_structural   Al8Cr5
_chemical_formula_sum   'Al16 Cr10'
_cell_volume   373.35577475
_cell_formula_units_Z   2
loop_
 _symmetry_equiv_pos_site_id
 _symmetry_equiv_pos_as_xyz
  1  'x, y, z'
loop_
 _atom_site_type_symbol
 _atom_site_label
 _atom_site_symmetry_multiplicity
 _atom_site_fract_x
 _atom_site_fract_y
 _atom_site_fract_z
 _atom_site_occupancy
  Al  Al0  1  0.30354500  0.30354500  0.30354500  1
  Al  Al1  1  0.35343700  0.99795600  0.35343700  1
  Al  Al2  1  0.35343700  0.35343700  0.99795600  1
  Al  Al3  1  0.99795600  0.35343700  0.35343700  1
  Al  Al4  1  0.66347700  0.44143100  0.66347700  1
  Al  Al5  1  0.66347700  0.66347700  0.44143100  1
  Al  Al6  1  0.44143100  0.66347700  0.66347700  1
  Al  Al7  1  0.26522900  0.61637800  0.26522900  1
  Al  Al8  1  0.26522900  0.26522900  0.61637800  1
  Al  Al9  1  0.61637800  0.26522900  0.26522900  1
  Al  Al10  1  0.71920300  0.33325500  0.96194700  1
  Al  Al11  1  0.96194700  0.71920300  0.33325500  1
  Al  Al12  1  0.33325500  0.96194700  0.71920300  1
  Al  Al13  1  0.33325500  0.71920300  0.96194700  1
  Al  Al14  1  0.96194700  0.33325500  0.71920300  1
  Al  Al15  1  0.71920300  0.96194700  0.33325500  1
  Cr  Cr0  1  0.84887600  0.84887600  0.84887600  1
  Cr  Cr1  1  0.98465700  0.20273400  0.98465700  1
  Cr  Cr2  1  0.98465700  0.98465700  0.20273400  1
  Cr  Cr3  1  0.20273400  0.98465700  0.98465700  1
  Cr  Cr4  1  0.01217200  0.66631000  0.01217200  1
  Cr  Cr5  1  0.01217200  0.01217200  0.66631000  1
  Cr  Cr6  1  0.66631000  0.01217200  0.01217200  1
  Cr  Cr7  1  0.63497700  0.98406800  0.63497700  1
  Cr  Cr8  1  0.63497700  0.63497700  0.98406800  1
  Cr  Cr9  1  0.98406800  0.63497700  0.63497700  1
loop_
_geom_bond_atom_site_label_1
_geom_bond_atom_site_label_2
_geom_bond_distance
_geom_bond_site_symmetry_2
Al0 Cr3 2.512164 1_544
Al0 Cr1 2.512164 1_454
Al0 Cr2 2.512164 1_445
Al0 Al7 2.683111 1_555
Al0 Al9 2.683111 1_555
Al0 Al8 2.683111 1_555
Al0 Al1 2.697748 1_545
Al0 Al3 2.697748 1_455
Al0 Al2 2.697748 1_554
Al0 Al4 2.773211 1_555
Al0 Al6 2.773211 1_555
Al0 Al5 2.773211 1_555
Al1 Al7 2.619608 1_555
Al1 Cr7 2.619858 1_555
Al1 Cr4 2.634914 1_555
Al1 Cr3 2.692354 1_554
Al1 Cr2 2.692354 1_455
Al1 Al8 2.868058 1_565
Al1 Al9 2.868059 1_565
Al1 Al4 2.935107 1_565
Al1 Al13 3.038248 1_554
Al1 Al11 3.038248 1_455
Al1 Al15 3.039792 1_555
Al1 Al12 3.039792 1_555
Al2 Al8 2.619608 1_555
Al2 Cr8 2.619859 1_555
Al2 Cr5 2.634914 1_555
Al2 Cr1 2.692354 1_455
Al2 Cr3 2.692354 1_545
Al2 Al9 2.868058 1_556
Al2 Al7 2.868058 1_556
Al2 Al5 2.935107 1_556
Al3 Al9 2.619608 1_555
Al3 Cr9 2.619858 1_555
Al3 Cr6 2.634914 1_555
Al3 Cr1 2.692354 1_554
Al3 Cr2 2.692354 1_545
Al3 Al8 2.868058 1_655
Al3 Al7 2.868059 1_655
Al3 Al6 2.935107 1_655
Al4 Cr4 2.566219 1_656
Al4 Cr8 2.602479 1_555
Al4 Cr9 2.602480 1_555
Al4 Cr0 2.610240 1_555
Al4 Al9 2.800419 1_555
Al4 Al8 2.800419 1_555
Al4 Al6 2.860834 1_555
Al4 Al5 2.860834 1_555
Al5 Cr5 2.566219 1_665
Al5 Cr7 2.602479 1_555
Al5 Cr9 2.602479 1_555
Al5 Cr0 2.610240 1_555
Al5 Al7 2.800419 1_555
Al5 Al9 2.800419 1_555
Al5 Al6 2.860834 1_555
Al6 Cr6 2.566219 1_566
Al6 Cr8 2.602479 1_555
Al6 Cr7 2.602480 1_555
Al6 Cr0 2.610240 1_555
Al6 Al7 2.800419 1_555
Al6 Al8 2.800419 1_555
Al7 Cr4 2.546230 1_555
Al7 Cr1 2.718284 1_454
Al7 Cr7 2.875542 1_555
Al8 Cr5 2.546230 1_555
Al8 Cr2 2.718284 1_445
Al8 Cr8 2.875542 1_555
Al9 Cr6 2.546230 1_555
Al9 Cr3 2.718284 1_544
Al9 Cr9 2.875542 1_555
Al10 Cr1 2.604875 1_555
Al10 Cr6 2.608714 1_556
Al10 Cr4 2.640524 1_656
Al10 Cr8 2.642734 1_555
Al10 Al4 2.712301 1_555
Al10 Cr7 2.736060 1_545
Al10 Al11 2.788483 1_556
Al10 Al12 2.788483 1_545
Al10 Al9 2.920426 1_556
Al10 Al3 3.038248 1_556
Al10 Al2 3.039792 1_555
Al11 Cr2 2.604875 1_555
Al11 Cr4 2.608714 1_655
Al11 Cr5 2.640523 1_665
Al11 Cr9 2.642735 1_555
Al11 Al5 2.712302 1_555
Al11 Cr8 2.736060 1_554
Al11 Al12 2.788482 1_655
Al11 Al7 2.920426 1_655
Al11 Al3 3.039792 1_555
Al12 Cr3 2.604875 1_555
Al12 Cr5 2.608714 1_565
Al12 Cr6 2.640523 1_566
Al12 Cr7 2.642735 1_555
Al12 Al6 2.712301 1_555
Al12 Cr9 2.736061 1_455
Al12 Al8 2.920426 1_565
Al12 Al2 3.038248 1_565
Al13 Cr3 2.604875 1_555
Al13 Cr4 2.608714 1_556
Al13 Cr6 2.640524 1_566
Al13 Cr8 2.642734 1_555
Al13 Al6 2.712301 1_555
Al13 Cr9 2.736060 1_455
Al13 Al15 2.788483 1_556
Al13 Al14 2.788483 1_455
Al13 Al7 2.920426 1_556
Al13 Al2 3.039792 1_555
Al14 Cr1 2.604875 1_555
Al14 Cr5 2.608714 1_655
Al14 Cr4 2.640523 1_656
Al14 Cr9 2.642735 1_555
Al14 Al4 2.712301 1_555
Al14 Cr7 2.736061 1_545
Al14 Al15 2.788482 1_545
Al14 Al8 2.920426 1_655
Al14 Al2 3.038248 1_655
Al14 Al3 3.039792 1_555
Al15 Cr2 2.604875 1_555
Al15 Cr6 2.608714 1_565
Al15 Cr5 2.640523 1_665
Al15 Cr7 2.642735 1_555
Al15 Al5 2.712302 1_555
Al15 Cr8 2.736060 1_554
Al15 Al9 2.920426 1_565
Al15 Al3 3.038248 1_565
Cr0 Cr2 2.295604 1_556
Cr0 Cr3 2.295604 1_655
Cr0 Cr1 2.295604 1_565
Cr0 Cr6 2.599766 1_566
Cr0 Cr4 2.599766 1_656
Cr0 Cr5 2.599766 1_665
Cr0 Cr9 2.705649 1_555
Cr0 Cr7 2.705649 1_555
Cr0 Cr8 2.705649 1_555
Cr1 Cr7 2.575715 1_545
Cr1 Cr5 2.576825 1_655
Cr1 Cr6 2.576826 1_556
Cr1 Cr3 2.809697 1_645
Cr1 Cr2 2.809697 1_546
Cr2 Cr8 2.575715 1_554
Cr2 Cr6 2.576825 1_565
Cr2 Cr4 2.576825 1_655
Cr2 Cr3 2.809697 1_654
Cr3 Cr9 2.575715 1_455
Cr3 Cr5 2.576825 1_565
Cr3 Cr4 2.576826 1_556
Cr4 Cr9 2.822617 1_454
Cr4 Cr8 2.822617 1_454
Cr5 Cr9 2.822617 1_445
Cr5 Cr7 2.822617 1_445
Cr6 Cr7 2.822617 1_544
Cr6 Cr8 2.822617 1_544
