# generated using pymatgen
data_Hf4AgPd
_symmetry_space_group_name_H-M   'P 1'
_cell_length_a   6.46985818
_cell_length_b   6.46985818
_cell_length_c   22.62766468
_cell_angle_alpha   90.00000000
_cell_angle_beta   90.00000000
_cell_angle_gamma   90.00000000
_symmetry_Int_Tables_number   1
_chemical_formula_structural   Hf4AgPd
_chemical_formula_sum   'Hf32 Ag8 Pd8'
_cell_volume   947.17288368
_cell_formula_units_Z   8
loop_
 _symmetry_equiv_pos_site_id
 _symmetry_equiv_pos_as_xyz
  1  'x, y, z'
loop_
 _atom_site_type_symbol
 _atom_site_label
 _atom_site_symmetry_multiplicity
 _atom_site_fract_x
 _atom_site_fract_y
 _atom_site_fract_z
 _atom_site_occupancy
  Hf  Hf0_0  1  0.25000000  0.25000000  0.08516942  1
  Hf  Hf0_1  1  0.25000000  0.25000000  0.58516942  1
  Hf  Hf0_2  1  0.25000000  0.75000000  0.08516942  1
  Hf  Hf0_3  1  0.25000000  0.75000000  0.58516942  1
  Hf  Hf0_4  1  0.75000000  0.25000000  0.08516942  1
  Hf  Hf0_5  1  0.75000000  0.25000000  0.58516942  1
  Hf  Hf0_6  1  0.75000000  0.75000000  0.08516942  1
  Hf  Hf0_7  1  0.75000000  0.75000000  0.58516942  1
  Hf  Hf1_0  1  0.00000000  0.00000000  0.32630336  1
  Hf  Hf1_1  1  0.00000000  0.00000000  0.82630335  1
  Hf  Hf1_2  1  0.00000000  0.50000000  0.32630336  1
  Hf  Hf1_3  1  0.00000000  0.50000000  0.82630335  1
  Hf  Hf1_4  1  0.50000000  0.00000000  0.32630336  1
  Hf  Hf1_5  1  0.50000000  0.00000000  0.82630335  1
  Hf  Hf1_6  1  0.50000000  0.50000000  0.32630336  1
  Hf  Hf1_7  1  0.50000000  0.50000000  0.82630335  1
  Hf  Hf2_0  1  0.00000000  0.00000000  0.17369665  1
  Hf  Hf2_1  1  0.00000000  0.00000000  0.67369664  1
  Hf  Hf2_2  1  0.00000000  0.50000000  0.17369665  1
  Hf  Hf2_3  1  0.00000000  0.50000000  0.67369664  1
  Hf  Hf2_4  1  0.50000000  0.00000000  0.17369665  1
  Hf  Hf2_5  1  0.50000000  0.00000000  0.67369664  1
  Hf  Hf2_6  1  0.50000000  0.50000000  0.17369665  1
  Hf  Hf2_7  1  0.50000000  0.50000000  0.67369664  1
  Hf  Hf3_0  1  0.25000000  0.25000000  0.41483058  1
  Hf  Hf3_1  1  0.25000000  0.25000000  0.91483058  1
  Hf  Hf3_2  1  0.25000000  0.75000000  0.41483058  1
  Hf  Hf3_3  1  0.25000000  0.75000000  0.91483058  1
  Hf  Hf3_4  1  0.75000000  0.25000000  0.41483058  1
  Hf  Hf3_5  1  0.75000000  0.25000000  0.91483058  1
  Hf  Hf3_6  1  0.75000000  0.75000000  0.41483058  1
  Hf  Hf3_7  1  0.75000000  0.75000000  0.91483058  1
  Ag  Ag0_0  1  0.00000000  0.00000000  0.00000000  1
  Ag  Ag0_1  1  0.00000000  0.00000000  0.50000000  1
  Ag  Ag0_2  1  0.00000000  0.50000000  0.00000000  1
  Ag  Ag0_3  1  0.00000000  0.50000000  0.50000000  1
  Ag  Ag0_4  1  0.50000000  0.00000000  0.00000000  1
  Ag  Ag0_5  1  0.50000000  0.00000000  0.50000000  1
  Ag  Ag0_6  1  0.50000000  0.50000000  0.00000000  1
  Ag  Ag0_7  1  0.50000000  0.50000000  0.50000000  1
  Pd  Pd0_0  1  0.25000000  0.25000000  0.25000000  1
  Pd  Pd0_1  1  0.25000000  0.25000000  0.75000000  1
  Pd  Pd0_2  1  0.25000000  0.75000000  0.25000000  1
  Pd  Pd0_3  1  0.25000000  0.75000000  0.75000000  1
  Pd  Pd0_4  1  0.75000000  0.25000000  0.25000000  1
  Pd  Pd0_5  1  0.75000000  0.25000000  0.75000000  1
  Pd  Pd0_6  1  0.75000000  0.75000000  0.25000000  1
  Pd  Pd0_7  1  0.75000000  0.75000000  0.75000000  1
loop_
_geom_bond_atom_site_label_1
_geom_bond_atom_site_label_2
_geom_bond_distance
_geom_bond_site_symmetry_2
Hf0_0 Hf2_2 3.040567 1_555
Hf0_0 Hf2_6 3.040567 1_555
Hf0_0 Hf2_0 3.040567 1_555
Hf0_0 Hf2_4 3.040567 1_555
Hf0_0 Hf0_2 3.234929 1_555
Hf0_0 Hf0_4 3.234929 1_455
Hf0_0 Hf0_4 3.234929 1_555
Hf0_0 Hf0_2 3.234929 1_545
Hf0_1 Hf2_1 3.040567 1_555
Hf0_1 Hf2_7 3.040567 1_555
Hf0_1 Hf2_5 3.040567 1_555
Hf0_1 Hf2_3 3.040567 1_555
Hf0_1 Hf0_3 3.234929 1_555
Hf0_1 Hf0_3 3.234929 1_545
Hf0_1 Hf0_5 3.234929 1_455
Hf0_1 Hf0_5 3.234929 1_555
Hf0_2 Hf2_4 3.040567 1_565
Hf0_2 Hf2_0 3.040567 1_565
Hf0_2 Hf2_2 3.040567 1_555
Hf0_2 Hf2_6 3.040567 1_555
Hf0_2 Hf0_6 3.234929 1_555
Hf0_2 Hf0_6 3.234929 1_455
Hf0_3 Hf2_5 3.040567 1_565
Hf0_3 Hf2_1 3.040567 1_565
Hf0_3 Hf2_3 3.040567 1_555
Hf0_3 Hf2_7 3.040567 1_555
Hf0_3 Hf0_7 3.234929 1_455
Hf0_3 Hf0_7 3.234929 1_555
Hf0_4 Hf2_2 3.040567 1_655
Hf0_4 Hf2_0 3.040567 1_655
Hf0_4 Hf2_4 3.040567 1_555
Hf0_4 Hf2_6 3.040567 1_555
Hf0_4 Hf0_6 3.234929 1_545
Hf0_4 Hf0_6 3.234929 1_555
Hf0_5 Hf2_3 3.040567 1_655
Hf0_5 Hf2_1 3.040567 1_655
Hf0_5 Hf2_5 3.040567 1_555
Hf0_5 Hf2_7 3.040567 1_555
Hf0_5 Hf0_7 3.234929 1_555
Hf0_5 Hf0_7 3.234929 1_545
Hf0_6 Hf2_0 3.040567 1_665
Hf0_6 Hf2_4 3.040567 1_565
Hf0_6 Hf2_2 3.040567 1_655
Hf0_6 Hf2_6 3.040567 1_555
Hf0_7 Hf2_5 3.040567 1_565
Hf0_7 Hf2_1 3.040567 1_665
Hf0_7 Hf2_7 3.040567 1_555
Hf0_7 Hf2_3 3.040567 1_655
Hf1_0 Pd0_6 2.865906 1_445
Hf1_0 Pd0_0 2.865906 1_555
Hf1_0 Pd0_2 2.865906 1_545
Hf1_0 Pd0_4 2.865906 1_455
Hf1_0 Hf3_4 3.040567 1_455
Hf1_0 Hf3_0 3.040567 1_555
Hf1_0 Hf3_2 3.040567 1_545
Hf1_0 Hf3_6 3.040567 1_445
Hf1_1 Pd0_5 2.865906 1_455
Hf1_1 Pd0_1 2.865906 1_555
Hf1_1 Pd0_7 2.865906 1_445
Hf1_1 Pd0_3 2.865906 1_545
Hf1_1 Hf3_1 3.040567 1_555
Hf1_1 Hf3_3 3.040567 1_545
Hf1_1 Hf3_5 3.040567 1_455
Hf1_1 Hf3_7 3.040567 1_445
Hf1_2 Pd0_2 2.865906 1_555
Hf1_2 Pd0_0 2.865906 1_555
Hf1_2 Pd0_4 2.865906 1_455
Hf1_2 Pd0_6 2.865906 1_455
Hf1_2 Hf3_4 3.040567 1_455
Hf1_2 Hf3_0 3.040567 1_555
Hf1_2 Hf3_2 3.040567 1_555
Hf1_2 Hf3_6 3.040567 1_455
Hf1_3 Pd0_7 2.865906 1_455
Hf1_3 Pd0_3 2.865906 1_555
Hf1_3 Pd0_5 2.865906 1_455
Hf1_3 Pd0_1 2.865906 1_555
Hf1_3 Hf3_1 3.040567 1_555
Hf1_3 Hf3_5 3.040567 1_455
Hf1_3 Hf3_7 3.040567 1_455
Hf1_3 Hf3_3 3.040567 1_555
Hf1_4 Pd0_4 2.865906 1_555
Hf1_4 Pd0_0 2.865906 1_555
Hf1_4 Pd0_2 2.865906 1_545
Hf1_4 Pd0_6 2.865906 1_545
Hf1_4 Hf3_0 3.040567 1_555
Hf1_4 Hf3_2 3.040567 1_545
Hf1_4 Hf3_4 3.040567 1_555
Hf1_4 Hf3_6 3.040567 1_545
Hf1_5 Pd0_7 2.865906 1_545
Hf1_5 Pd0_1 2.865906 1_555
Hf1_5 Pd0_5 2.865906 1_555
Hf1_5 Pd0_3 2.865906 1_545
Hf1_5 Hf3_1 3.040567 1_555
Hf1_5 Hf3_3 3.040567 1_545
Hf1_5 Hf3_5 3.040567 1_555
Hf1_5 Hf3_7 3.040567 1_545
Hf1_6 Pd0_4 2.865906 1_555
Hf1_6 Pd0_2 2.865906 1_555
Hf1_6 Pd0_0 2.865906 1_555
Hf1_6 Pd0_6 2.865906 1_555
Hf1_6 Hf3_0 3.040567 1_555
Hf1_6 Hf3_4 3.040567 1_555
Hf1_6 Hf3_2 3.040567 1_555
Hf1_6 Hf3_6 3.040567 1_555
Hf1_7 Pd0_3 2.865906 1_555
Hf1_7 Pd0_1 2.865906 1_555
Hf1_7 Pd0_5 2.865906 1_555
Hf1_7 Pd0_7 2.865906 1_555
Hf1_7 Hf3_1 3.040567 1_555
Hf1_7 Hf3_3 3.040567 1_555
Hf1_7 Hf3_7 3.040567 1_555
Hf1_7 Hf3_5 3.040567 1_555
Hf2_0 Pd0_6 2.865906 1_445
Hf2_0 Pd0_2 2.865906 1_545
Hf2_0 Pd0_0 2.865906 1_555
Hf2_0 Pd0_4 2.865906 1_455
Hf2_1 Pd0_3 2.865906 1_545
Hf2_1 Pd0_5 2.865906 1_455
Hf2_1 Pd0_1 2.865906 1_555
Hf2_1 Pd0_7 2.865906 1_445
Hf2_2 Pd0_6 2.865906 1_455
Hf2_2 Pd0_2 2.865906 1_555
Hf2_2 Pd0_0 2.865906 1_555
Hf2_2 Pd0_4 2.865906 1_455
Hf2_3 Pd0_5 2.865906 1_455
Hf2_3 Pd0_1 2.865906 1_555
Hf2_3 Pd0_7 2.865906 1_455
Hf2_3 Pd0_3 2.865906 1_555
Hf2_4 Pd0_6 2.865906 1_545
Hf2_4 Pd0_4 2.865906 1_555
Hf2_4 Pd0_2 2.865906 1_545
Hf2_4 Pd0_0 2.865906 1_555
Hf2_5 Pd0_3 2.865906 1_545
Hf2_5 Pd0_1 2.865906 1_555
Hf2_5 Pd0_7 2.865906 1_545
Hf2_5 Pd0_5 2.865906 1_555
Hf2_6 Pd0_4 2.865906 1_555
Hf2_6 Pd0_2 2.865906 1_555
Hf2_6 Pd0_0 2.865906 1_555
Hf2_6 Pd0_6 2.865906 1_555
Hf2_7 Pd0_1 2.865906 1_555
Hf2_7 Pd0_5 2.865906 1_555
Hf2_7 Pd0_3 2.865906 1_555
Hf2_7 Pd0_7 2.865906 1_555
Hf3_0 Hf3_4 3.234929 1_455
Hf3_0 Hf3_2 3.234929 1_555
Hf3_0 Hf3_2 3.234929 1_545
Hf3_0 Hf3_4 3.234929 1_555
Hf3_1 Hf3_3 3.234929 1_545
Hf3_1 Hf3_5 3.234929 1_555
Hf3_1 Hf3_3 3.234929 1_555
Hf3_1 Hf3_5 3.234929 1_455
Hf3_2 Hf3_6 3.234929 1_455
Hf3_2 Hf3_6 3.234929 1_555
Hf3_3 Hf3_7 3.234929 1_455
Hf3_3 Hf3_7 3.234929 1_555
Hf3_4 Hf3_6 3.234929 1_545
Hf3_4 Hf3_6 3.234929 1_555
Hf3_5 Hf3_7 3.234929 1_545
Hf3_5 Hf3_7 3.234929 1_555
Ag0_0 Hf0_0 2.991058 1_555
Ag0_0 Hf0_4 2.991058 1_455
Ag0_0 Hf0_6 2.991058 1_445
Ag0_0 Hf0_2 2.991058 1_545
Ag0_0 Hf3_3 2.991058 1_544
Ag0_0 Hf3_5 2.991058 1_454
Ag0_0 Hf3_1 2.991058 1_554
Ag0_0 Hf3_7 2.991058 1_444
Ag0_0 Ag0_2 3.234929 1_555
Ag0_0 Ag0_4 3.234929 1_555
Ag0_0 Ag0_2 3.234929 1_545
Ag0_0 Ag0_4 3.234929 1_455
Ag0_1 Hf3_0 2.991058 1_555
Ag0_1 Hf3_2 2.991058 1_545
Ag0_1 Hf3_6 2.991058 1_445
Ag0_1 Hf3_4 2.991058 1_455
Ag0_1 Hf0_5 2.991058 1_455
Ag0_1 Hf0_3 2.991058 1_545
Ag0_1 Hf0_1 2.991058 1_555
Ag0_1 Hf0_7 2.991058 1_445
Ag0_1 Ag0_3 3.234929 1_555
Ag0_1 Ag0_5 3.234929 1_555
Ag0_1 Ag0_5 3.234929 1_455
Ag0_1 Ag0_3 3.234929 1_545
Ag0_2 Hf0_0 2.991058 1_555
Ag0_2 Hf0_2 2.991058 1_555
Ag0_2 Hf0_4 2.991058 1_455
Ag0_2 Hf0_6 2.991058 1_455
Ag0_2 Hf3_5 2.991058 1_454
Ag0_2 Hf3_1 2.991058 1_554
Ag0_2 Hf3_7 2.991058 1_454
Ag0_2 Hf3_3 2.991058 1_554
Ag0_2 Ag0_6 3.234929 1_555
Ag0_2 Ag0_6 3.234929 1_455
Ag0_3 Hf3_0 2.991058 1_555
Ag0_3 Hf3_6 2.991058 1_455
Ag0_3 Hf3_4 2.991058 1_455
Ag0_3 Hf3_2 2.991058 1_555
Ag0_3 Hf0_1 2.991058 1_555
Ag0_3 Hf0_5 2.991058 1_455
Ag0_3 Hf0_3 2.991058 1_555
Ag0_3 Hf0_7 2.991058 1_455
Ag0_3 Ag0_7 3.234929 1_555
Ag0_3 Ag0_7 3.234929 1_455
Ag0_4 Hf0_0 2.991058 1_555
Ag0_4 Hf0_4 2.991058 1_555
Ag0_4 Hf0_2 2.991058 1_545
Ag0_4 Hf0_6 2.991058 1_545
Ag0_4 Hf3_3 2.991058 1_544
Ag0_4 Hf3_1 2.991058 1_554
Ag0_4 Hf3_5 2.991058 1_554
Ag0_4 Hf3_7 2.991058 1_544
Ag0_4 Ag0_6 3.234929 1_555
Ag0_4 Ag0_6 3.234929 1_545
Ag0_5 Hf3_0 2.991058 1_555
Ag0_5 Hf3_2 2.991058 1_545
Ag0_5 Hf3_4 2.991058 1_555
Ag0_5 Hf3_6 2.991058 1_545
Ag0_5 Hf0_3 2.991058 1_545
Ag0_5 Hf0_1 2.991058 1_555
Ag0_5 Hf0_5 2.991058 1_555
Ag0_5 Hf0_7 2.991058 1_545
Ag0_5 Ag0_7 3.234929 1_555
Ag0_5 Ag0_7 3.234929 1_545
Ag0_6 Hf0_0 2.991058 1_555
Ag0_6 Hf0_2 2.991058 1_555
Ag0_6 Hf0_4 2.991058 1_555
Ag0_6 Hf0_6 2.991058 1_555
Ag0_6 Hf3_1 2.991058 1_554
Ag0_6 Hf3_7 2.991058 1_554
Ag0_6 Hf3_5 2.991058 1_554
Ag0_6 Hf3_3 2.991058 1_554
Ag0_7 Hf3_0 2.991058 1_555
Ag0_7 Hf3_4 2.991058 1_555
Ag0_7 Hf3_2 2.991058 1_555
Ag0_7 Hf3_6 2.991058 1_555
Ag0_7 Hf0_1 2.991058 1_555
Ag0_7 Hf0_5 2.991058 1_555
Ag0_7 Hf0_3 2.991058 1_555
Ag0_7 Hf0_7 2.991058 1_555
