# generated using pymatgen
data_Li2TiVO4
_symmetry_space_group_name_H-M   'P 1'
_cell_length_a   5.83971393
_cell_length_b   7.82588610
_cell_length_c   7.82791753
_cell_angle_alpha   113.14812688
_cell_angle_beta   111.94181914
_cell_angle_gamma   68.08424877
_symmetry_Int_Tables_number   1
_chemical_formula_structural   Li2TiVO4
_chemical_formula_sum   'Li8 Ti4 V4 O16'
_cell_volume   294.17309117
_cell_formula_units_Z   4
loop_
 _symmetry_equiv_pos_site_id
 _symmetry_equiv_pos_as_xyz
  1  'x, y, z'
loop_
 _atom_site_type_symbol
 _atom_site_label
 _atom_site_symmetry_multiplicity
 _atom_site_fract_x
 _atom_site_fract_y
 _atom_site_fract_z
 _atom_site_occupancy
  Li  Li0  1  0.87917000  0.12103500  0.37277600  1
  Li  Li1  1  0.12807000  0.37713000  0.12556000  1
  Li  Li2  1  0.62014600  0.87458500  0.62265200  1
  Li  Li3  1  0.37250600  0.62728800  0.87885100  1
  Li  Li4  1  0.25001600  0.75005500  0.25017600  1
  Li  Li5  1  0.49922500  0.00074900  0.99926100  1
  Li  Li6  1  0.00131600  0.49882300  0.50124500  1
  Li  Li7  1  0.74964700  0.25025000  0.74957000  1
  Ti  Ti0  1  0.37806100  0.12156800  0.36892100  1
  Ti  Ti1  1  0.63000100  0.37951600  0.13111600  1
  Ti  Ti2  1  0.12138300  0.86901200  0.62029200  1
  Ti  Ti3  1  0.86930300  0.63113500  0.87840800  1
  V  V0  1  0.25052200  0.24943200  0.75034100  1
  V  V1  1  0.50290100  0.49704400  0.50308800  1
  V  V2  1  0.99521600  0.00468400  0.99505200  1
  V  V3  1  0.75181400  0.74843700  0.25193900  1
  O  O0  1  0.37204200  0.35063500  0.60888700  1
  O  O1  1  0.62432000  0.60728200  0.35977900  1
  O  O2  1  0.12813300  0.11082400  0.85256400  1
  O  O3  1  0.87597600  0.85573100  0.10437800  1
  O  O4  1  0.37258500  0.89584800  0.14437400  1
  O  O5  1  0.61365500  0.14742000  0.88922900  1
  O  O6  1  0.12806500  0.64030800  0.39266700  1
  O  O7  1  0.88619000  0.39081900  0.64917400  1
  O  O8  1  0.24900900  0.00405500  0.50403400  1
  O  O9  1  0.50339200  0.25100900  0.25370300  1
  O  O10  1  0.99698200  0.75305900  0.75093700  1
  O  O11  1  0.74985100  0.50373400  0.00282600  1
  O  O12  1  0.00099800  0.24899200  0.24697400  1
  O  O13  1  0.25093000  0.49590900  0.99578900  1
  O  O14  1  0.74933300  0.99733300  0.49650300  1
  O  O15  1  0.49924400  0.74629700  0.74893600  1
loop_
_geom_bond_atom_site_label_1
_geom_bond_atom_site_label_2
_geom_bond_distance
_geom_bond_site_symmetry_2
Li0 O8 2.040473 1_655
Li0 O9 2.066287 1_555
Li0 O14 2.069780 1_545
Li0 O12 2.075903 1_655
Li0 O3 2.301153 1_545
Li0 O7 2.355282 1_555
Li1 O13 2.048335 1_554
Li1 O12 2.071577 1_555
Li1 O9 2.074787 1_555
Li1 O11 2.076540 1_455
Li1 O6 2.286484 1_555
Li1 O2 2.325636 1_554
Li2 O8 2.045134 1_565
Li2 O10 2.071880 1_555
Li2 O14 2.076189 1_555
Li2 O15 2.077178 1_555
Li2 O1 2.286041 1_555
Li2 O5 2.326060 1_565
Li3 O13 2.041967 1_555
Li3 O15 2.066667 1_555
Li3 O11 2.069201 1_556
Li3 O10 2.074377 1_455
Li3 O4 2.302789 1_556
Li3 O0 2.357164 1_555
Li4 O3 2.070794 1_455
Li4 O1 2.071572 1_555
Li4 O6 2.071805 1_555
Li4 O4 2.072590 1_555
Li4 O8 2.189648 1_565
Li4 O13 2.192560 1_554
Li5 O2 2.069154 1_555
Li5 O5 2.070251 1_555
Li5 O3 2.079171 1_546
Li5 O4 2.079761 1_546
Li5 O9 2.176198 1_556
Li5 O15 2.176513 1_545
Li6 O0 2.067040 1_555
Li6 O7 2.069497 1_455
Li6 O1 2.077420 1_455
Li6 O6 2.078003 1_555
Li6 O10 2.172893 1_455
Li6 O12 2.173635 1_555
Li7 O0 2.065103 1_555
Li7 O7 2.065532 1_555
Li7 O2 2.070126 1_655
Li7 O5 2.071483 1_555
Li7 O14 2.181558 1_545
Li7 O11 2.184818 1_556
O0 V0 2.013266 1_555
O0 Ti0 2.024391 1_555
O0 V1 2.110761 1_555
O1 Ti1 1.968251 1_555
O1 V3 2.074614 1_555
O1 V1 2.077849 1_555
O2 V0 2.004081 1_555
O2 Ti2 2.045852 1_545
O2 V2 2.096006 1_455
O3 Ti3 1.942938 1_554
O3 V3 2.099513 1_555
O3 V2 2.100400 1_564
O4 Ti0 1.941651 1_565
O4 V2 2.098738 1_464
O4 V3 2.099348 1_555
O5 V0 2.002979 1_555
O5 Ti1 2.045451 1_556
O5 V2 2.094989 1_555
O6 Ti2 1.967823 1_555
O6 V3 2.072048 1_455
O6 V1 2.076423 1_555
O7 V0 2.012591 1_655
O7 Ti3 2.026616 1_555
O7 V1 2.110521 1_555
O8 Ti2 2.086049 1_545
O8 Ti0 2.100024 1_555
O8 V0 2.119917 1_555
O9 Ti0 2.034788 1_555
O9 Ti1 2.079160 1_555
O9 V1 2.136146 1_555
O10 Ti2 2.043038 1_655
O10 Ti3 2.073082 1_555
O10 V2 2.137864 1_565
O11 Ti3 2.054154 1_554
O11 Ti1 2.060111 1_555
O11 V3 2.129255 1_555
O12 Ti1 2.041483 1_455
O12 Ti0 2.071871 1_555
O12 V2 2.139995 1_454
O13 Ti1 2.086419 1_556
O13 Ti3 2.098680 1_455
O13 V0 2.120955 1_555
O14 Ti0 2.053066 1_565
O14 Ti2 2.056916 1_655
O14 V3 2.127711 1_555
O15 Ti3 2.033953 1_555
O15 Ti2 2.079248 1_555
O15 V1 2.134763 1_555
