# generated using pymatgen
data_TaNb2Zn2O8
_symmetry_space_group_name_H-M   'P 1'
_cell_length_a   5.28303400
_cell_length_b   5.97531459
_cell_length_c   10.13287984
_cell_angle_alpha   103.47572221
_cell_angle_beta   91.81457622
_cell_angle_gamma   91.92598444
_symmetry_Int_Tables_number   1
_chemical_formula_structural   TaNb2Zn2O8
_chemical_formula_sum   'Ta2 Nb4 Zn4 O16'
_cell_volume   310.63358644
_cell_formula_units_Z   2
loop_
 _symmetry_equiv_pos_site_id
 _symmetry_equiv_pos_as_xyz
  1  'x, y, z'
loop_
 _atom_site_type_symbol
 _atom_site_label
 _atom_site_symmetry_multiplicity
 _atom_site_fract_x
 _atom_site_fract_y
 _atom_site_fract_z
 _atom_site_occupancy
  Ta  Ta0  1  0.75681600  0.65253400  0.99533300  1
  Ta  Ta1  1  0.24318400  0.34746600  0.00466700  1
  Nb  Nb0  1  0.70706200  0.23974900  0.24193500  1
  Nb  Nb1  1  0.72705300  0.00710000  0.76707900  1
  Nb  Nb2  1  0.29293800  0.76025100  0.75806500  1
  Nb  Nb3  1  0.27294700  0.99290000  0.23292100  1
  Zn  Zn0  1  0.77950700  0.42651800  0.56179900  1
  Zn  Zn1  1  0.73628200  0.85787200  0.43945200  1
  Zn  Zn2  1  0.22049300  0.57348200  0.43820100  1
  Zn  Zn3  1  0.26371800  0.14212800  0.56054800  1
  O  O0  1  0.06495100  0.19715000  0.13013600  1
  O  O1  1  0.40230400  0.09287600  0.88483000  1
  O  O2  1  0.93504900  0.80285000  0.86986400  1
  O  O3  1  0.59769600  0.90712400  0.11517000  1
  O  O4  1  0.58346600  0.44192600  0.10949900  1
  O  O5  1  0.91421800  0.32681500  0.89594900  1
  O  O6  1  0.41653400  0.55807400  0.89050100  1
  O  O7  1  0.08578200  0.67318500  0.10405100  1
  O  O8  1  0.40934500  0.29581500  0.36594300  1
  O  O9  1  0.07954300  0.93290300  0.64815800  1
  O  O10  1  0.36608400  0.84448000  0.38354000  1
  O  O11  1  0.14486000  0.46069900  0.61385800  1
  O  O12  1  0.63391600  0.15552000  0.61646000  1
  O  O13  1  0.85514000  0.53930100  0.38614200  1
  O  O14  1  0.92045700  0.06709700  0.35184200  1
  O  O15  1  0.59065500  0.70418500  0.63405700  1
loop_
_geom_bond_atom_site_label_1
_geom_bond_atom_site_label_2
_geom_bond_distance
_geom_bond_site_symmetry_2
Nb0 O14 2.027235 1_555
Nb0 O8 2.032095 1_555
Nb0 O4 2.107072 1_555
Nb0 O13 2.136702 1_555
Nb0 O3 2.149423 1_545
Nb0 O0 2.226349 1_655
Nb1 O12 1.992618 1_555
Nb1 O15 2.079898 1_545
Nb1 O2 2.095667 1_545
Nb1 O1 2.129210 1_555
Nb1 O5 2.227354 1_555
Nb1 O9 2.250573 1_645
Nb2 O9 2.027235 1_555
Nb2 O15 2.032095 1_555
Nb2 O6 2.107072 1_555
Nb2 O11 2.136702 1_555
Nb2 O1 2.149423 1_565
Nb2 O2 2.226349 1_455
Nb3 O10 1.992618 1_555
Nb3 O8 2.079898 1_565
Nb3 O0 2.095667 1_565
Nb3 O3 2.129210 1_555
Nb3 O7 2.227354 1_555
Nb3 O14 2.250573 1_465
O0 Ta1 1.964919 1_555
O1 Ta1 1.945523 1_556
O2 Ta0 1.964919 1_555
O3 Ta0 1.945523 1_554
O4 Ta1 2.051872 1_555
O4 Ta0 2.104471 1_554
O5 Ta1 2.012515 1_656
O5 Ta0 2.177602 1_555
O6 Ta0 2.051872 1_555
O6 Ta1 2.104471 1_556
O7 Ta0 2.012515 1_454
O7 Ta1 2.177602 1_555
O8 Zn2 1.968665 1_555
O8 Zn3 2.493236 1_555
O9 Zn3 1.946274 1_565
O10 Zn2 1.970224 1_555
O10 Zn1 2.012608 1_555
O10 Zn3 2.304780 1_565
O11 Zn0 1.975943 1_455
O11 Zn3 1.982984 1_555
O11 Zn2 2.089950 1_555
O12 Zn0 1.970224 1_555
O12 Zn3 2.012608 1_555
O12 Zn1 2.304780 1_545
O13 Zn2 1.975943 1_655
O13 Zn1 1.982984 1_555
O13 Zn0 2.089950 1_555
O14 Zn1 1.946274 1_545
O15 Zn0 1.968665 1_555
O15 Zn1 2.493236 1_555
