# generated using pymatgen
data_VO2
_symmetry_space_group_name_H-M   'P 1'
_cell_length_a   3.02120141
_cell_length_b   8.75284641
_cell_length_c   10.59394503
_cell_angle_alpha   89.99580127
_cell_angle_beta   90.00579152
_cell_angle_gamma   91.29729898
_symmetry_Int_Tables_number   1
_chemical_formula_structural   VO2
_chemical_formula_sum   'V8 O16'
_cell_volume   280.07565729
_cell_formula_units_Z   8
loop_
 _symmetry_equiv_pos_site_id
 _symmetry_equiv_pos_as_xyz
  1  'x, y, z'
loop_
 _atom_site_type_symbol
 _atom_site_label
 _atom_site_symmetry_multiplicity
 _atom_site_fract_x
 _atom_site_fract_y
 _atom_site_fract_z
 _atom_site_occupancy
  V  V0  1  0.26730300  0.44026900  0.61956300  1
  V  V1  1  0.26816700  0.94053600  0.88063900  1
  V  V2  1  0.74808700  0.07477100  0.60158800  1
  V  V3  1  0.74861400  0.57500200  0.89838500  1
  V  V4  1  0.77968000  0.55926300  0.39066400  1
  V  V5  1  0.78101900  0.05959900  0.10937100  1
  V  V6  1  0.23551200  0.92854700  0.39201100  1
  V  V7  1  0.23663600  0.42860800  0.10783200  1
  O  O0  1  0.21882400  0.70839300  0.36053700  1
  O  O1  1  0.75219300  0.28995800  0.63540600  1
  O  O2  1  0.75272500  0.79013000  0.86460600  1
  O  O3  1  0.22069200  0.20844100  0.13951800  1
  O  O4  1  0.24797300  0.61338700  0.01996500  1
  O  O5  1  0.73289100  0.38974200  0.98376200  1
  O  O6  1  0.73222200  0.88974100  0.51611500  1
  O  O7  1  0.24764400  0.11329500  0.47999900  1
  O  O8  1  0.73754300  0.97524300  0.28206000  1
  O  O9  1  0.24407700  0.01907000  0.71549600  1
  O  O10  1  0.24407500  0.51910500  0.78457400  1
  O  O11  1  0.73811600  0.47503500  0.21782900  1
  O  O12  1  0.26354200  0.92773700  0.06894200  1
  O  O13  1  0.77091700  0.07343500  0.92461600  1
  O  O14  1  0.76938100  0.57303400  0.57544000  1
  O  O15  1  0.26216600  0.42765800  0.43108200  1
loop_
_geom_bond_atom_site_label_1
_geom_bond_atom_site_label_2
_geom_bond_distance
_geom_bond_site_symmetry_2
O0 V4 1.867500 1_455
O0 V6 1.955158 1_555
O0 V4 2.185607 1_555
O1 V2 1.917059 1_555
O1 V0 1.998092 1_555
O1 V0 2.021962 1_655
O2 V3 1.916423 1_555
O2 V1 1.998115 1_555
O2 V1 2.023403 1_655
O3 V5 1.866915 1_455
O3 V7 1.955601 1_555
O3 V5 2.182906 1_555
O4 V7 1.865675 1_555
O4 V3 2.006151 1_454
O4 V3 2.020666 1_554
O5 V3 1.856361 1_555
O5 V7 2.028489 1_556
O5 V7 2.033665 1_656
O6 V2 1.855214 1_565
O6 V6 2.029419 1_555
O6 V6 2.032963 1_655
O7 V6 1.866193 1_545
O7 V2 2.007007 1_455
O7 V2 2.020274 1_555
O8 V6 1.948475 1_555
O8 V6 1.953121 1_655
O8 V5 1.976056 1_565
O9 V1 1.881669 1_545
O9 V2 1.992987 1_455
O9 V2 1.994803 1_555
O10 V0 1.881326 1_555
O10 V3 1.991831 1_455
O10 V3 1.995641 1_555
O11 V7 1.946880 1_555
O11 V7 1.954387 1_655
O11 V4 1.976821 1_555
O12 V5 1.927981 1_465
O12 V5 1.969265 1_565
O12 V1 1.998039 1_554
O13 V1 1.948643 1_545
O13 V5 1.961296 1_556
O13 V1 1.976467 1_645
O14 V0 1.946812 1_555
O14 V4 1.961516 1_555
O14 V0 1.977581 1_655
O15 V4 1.926381 1_455
O15 V4 1.968082 1_555
O15 V0 1.999853 1_555
