# generated using pymatgen
data_Ce2MgSe4
_symmetry_space_group_name_H-M   'P 1'
_cell_length_a   14.72921422
_cell_length_b   8.65909369
_cell_length_c   6.95475173
_cell_angle_alpha   90.00000000
_cell_angle_beta   90.00000000
_cell_angle_gamma   90.00000000
_symmetry_Int_Tables_number   1
_chemical_formula_structural   Ce2MgSe4
_chemical_formula_sum   'Ce8 Mg4 Se16'
_cell_volume   887.02048255
_cell_formula_units_Z   4
loop_
 _symmetry_equiv_pos_site_id
 _symmetry_equiv_pos_as_xyz
  1  'x, y, z'
loop_
 _atom_site_type_symbol
 _atom_site_label
 _atom_site_symmetry_multiplicity
 _atom_site_fract_x
 _atom_site_fract_y
 _atom_site_fract_z
 _atom_site_occupancy
  Ce  Ce0  1  -0.00000000  0.00000000  0.50000000  1
  Ce  Ce1  1  0.50000000  0.00000000  0.00000000  1
  Ce  Ce2  1  0.50000000  0.50000000  0.00000000  1
  Ce  Ce3  1  0.00000000  0.50000000  0.50000000  1
  Ce  Ce4  1  0.23278780  0.75000000  0.99693383  1
  Ce  Ce5  1  0.76721220  0.25000000  0.00306617  1
  Ce  Ce6  1  0.26721220  0.25000000  0.49693383  1
  Ce  Ce7  1  0.73278780  0.75000000  0.50306617  1
  Mg  Mg0  1  0.09318789  0.25000000  0.91407533  1
  Mg  Mg1  1  0.90681211  0.75000000  0.08592467  1
  Mg  Mg2  1  0.40681211  0.75000000  0.41407533  1
  Mg  Mg3  1  0.59318789  0.25000000  0.58592467  1
  Se  Se0  1  0.16862407  0.01393635  0.74344904  1
  Se  Se1  1  0.83137593  0.98606365  0.25655096  1
  Se  Se2  1  0.33137593  0.98606365  0.24344904  1
  Se  Se3  1  0.66862407  0.01393635  0.75655096  1
  Se  Se4  1  0.66862407  0.48606365  0.75655096  1
  Se  Se5  1  0.33137593  0.51393635  0.24344904  1
  Se  Se6  1  0.83137593  0.51393635  0.25655096  1
  Se  Se7  1  0.16862407  0.48606365  0.74344904  1
  Se  Se8  1  0.06838530  0.75000000  0.24506631  1
  Se  Se9  1  0.93161470  0.25000000  0.75493369  1
  Se  Se10  1  0.43161470  0.25000000  0.74506631  1
  Se  Se11  1  0.56838530  0.75000000  0.25493369  1
  Se  Se12  1  0.09129507  0.25000000  0.28161145  1
  Se  Se13  1  0.90870493  0.75000000  0.71838855  1
  Se  Se14  1  0.40870493  0.75000000  0.78161145  1
  Se  Se15  1  0.59129507  0.25000000  0.21838855  1
loop_
_geom_bond_atom_site_label_1
_geom_bond_atom_site_label_2
_geom_bond_distance
_geom_bond_site_symmetry_2
Ce0 Se13 2.966706 1_445
Ce0 Se12 2.966706 1_555
Ce0 Se8 2.973945 1_545
Ce0 Se9 2.973945 1_455
Ce0 Se0 3.008323 1_555
Ce0 Se1 3.008323 1_445
Ce1 Se14 2.966706 1_544
Ce1 Se15 2.966706 1_555
Ce1 Se11 2.973945 1_545
Ce1 Se10 2.973945 1_554
Ce1 Se3 3.008323 1_554
Ce1 Se2 3.008323 1_545
Ce2 Se14 2.966706 1_554
Ce2 Se15 2.966706 1_555
Ce2 Se11 2.973945 1_555
Ce2 Se10 2.973945 1_554
Ce2 Se4 3.008323 1_554
Ce2 Se5 3.008323 1_555
Ce3 Se13 2.966706 1_455
Ce3 Se12 2.966706 1_555
Ce3 Se8 2.973945 1_555
Ce3 Se9 2.973945 1_455
Ce3 Se6 3.008323 1_455
Ce3 Se7 3.008323 1_555
Ce4 Se8 2.973516 1_556
Ce4 Se14 2.992734 1_555
Ce4 Se7 3.037163 1_555
Ce4 Se0 3.037163 1_565
Ce4 Se5 3.037491 1_556
Ce4 Se2 3.037491 1_556
Ce5 Se9 2.973516 1_554
Ce5 Se15 2.992734 1_555
Ce5 Se1 3.037163 1_545
Ce5 Se6 3.037163 1_555
Ce5 Se3 3.037491 1_554
Ce5 Se4 3.037491 1_554
Ce6 Se10 2.973516 1_555
Ce6 Se12 2.992734 1_555
Ce6 Se2 3.037163 1_545
Ce6 Se5 3.037163 1_555
Ce6 Se7 3.037491 1_555
Ce6 Se0 3.037491 1_555
Ce7 Se11 2.973516 1_555
Ce7 Se13 2.992734 1_555
Ce7 Se4 3.037163 1_555
Ce7 Se3 3.037163 1_565
Ce7 Se6 3.037491 1_555
Ce7 Se1 3.037491 1_555
Mg0 Se12 2.556275 1_556
Mg0 Se7 2.611720 1_555
Mg0 Se0 2.611720 1_555
Mg0 Se9 2.624624 1_455
Mg1 Se13 2.556275 1_554
Mg1 Se6 2.611720 1_555
Mg1 Se1 2.611720 1_555
Mg1 Se8 2.624624 1_655
Mg2 Se14 2.556275 1_555
Mg2 Se5 2.611720 1_555
Mg2 Se2 2.611720 1_555
Mg2 Se11 2.624624 1_555
Mg3 Se15 2.556275 1_555
Mg3 Se3 2.611720 1_555
Mg3 Se4 2.611720 1_555
Mg3 Se10 2.624624 1_555
