# generated using pymatgen
data_Sc5Ge3
_symmetry_space_group_name_H-M   'P 1'
_cell_length_a   7.94300989
_cell_length_b   7.94301030
_cell_length_c   5.91240581
_cell_angle_alpha   90.00000000
_cell_angle_beta   90.00000000
_cell_angle_gamma   119.99999402
_symmetry_Int_Tables_number   1
_chemical_formula_structural   Sc5Ge3
_chemical_formula_sum   'Sc10 Ge6'
_cell_volume   323.04656081
_cell_formula_units_Z   2
loop_
 _symmetry_equiv_pos_site_id
 _symmetry_equiv_pos_as_xyz
  1  'x, y, z'
loop_
 _atom_site_type_symbol
 _atom_site_label
 _atom_site_symmetry_multiplicity
 _atom_site_fract_x
 _atom_site_fract_y
 _atom_site_fract_z
 _atom_site_occupancy
  Sc  Sc0  1  0.33333300  0.66666700  0.00000000  1
  Sc  Sc1  1  0.66666700  0.33333300  0.50000000  1
  Sc  Sc2  1  0.66666700  0.33333300  0.00000000  1
  Sc  Sc3  1  0.33333300  0.66666700  0.50000000  1
  Sc  Sc4  1  0.24083138  -0.00000000  0.25000000  1
  Sc  Sc5  1  0.24083138  0.24083138  0.75000000  1
  Sc  Sc6  1  0.00000000  0.75916862  0.75000000  1
  Sc  Sc7  1  -0.00000000  0.24083138  0.25000000  1
  Sc  Sc8  1  0.75916862  0.75916862  0.25000000  1
  Sc  Sc9  1  0.75916862  0.00000000  0.75000000  1
  Ge  Ge0  1  0.60665308  0.00000000  0.25000000  1
  Ge  Ge1  1  0.60665308  0.60665308  0.75000000  1
  Ge  Ge2  1  -0.00000000  0.39334692  0.75000000  1
  Ge  Ge3  1  0.00000000  0.60665308  0.25000000  1
  Ge  Ge4  1  0.39334692  0.39334692  0.25000000  1
  Ge  Ge5  1  0.39334692  -0.00000000  0.75000000  1
loop_
_geom_bond_atom_site_label_1
_geom_bond_atom_site_label_2
_geom_bond_distance
_geom_bond_site_symmetry_2
Ge0 Sc8 2.728413 1_545
Ge0 Sc7 2.728413 1_655
Ge0 Sc2 2.856579 1_555
Ge0 Sc1 2.856579 1_555
Ge0 Sc3 2.856581 1_545
Ge0 Sc0 2.856581 1_545
Ge0 Sc4 2.905725 1_555
Ge0 Sc9 3.194793 1_555
Ge0 Sc9 3.194793 1_554
Ge1 Sc6 2.728413 1_655
Ge1 Sc9 2.728413 1_565
Ge1 Sc0 2.856585 1_556
Ge1 Sc3 2.856585 1_555
Ge1 Sc1 2.856585 1_555
Ge1 Sc2 2.856585 1_556
Ge1 Sc5 2.905726 1_555
Ge1 Sc8 3.194793 1_555
Ge1 Sc8 3.194793 1_556
Ge2 Sc5 2.728413 1_555
Ge2 Sc9 2.728413 1_455
Ge2 Sc1 2.856579 1_455
Ge2 Sc2 2.856579 1_456
Ge2 Sc0 2.856581 1_556
Ge2 Sc3 2.856581 1_555
Ge2 Sc6 2.905726 1_555
Ge2 Sc7 3.194793 1_556
Ge2 Sc7 3.194793 1_555
Ge3 Sc8 2.728413 1_455
Ge3 Sc4 2.728413 1_565
Ge3 Sc0 2.856579 1_555
Ge3 Sc3 2.856579 1_555
Ge3 Sc2 2.856581 1_455
Ge3 Sc1 2.856581 1_455
Ge3 Sc7 2.905726 1_555
Ge3 Sc6 3.194793 1_554
Ge3 Sc6 3.194793 1_555
Ge4 Sc7 2.728413 1_555
Ge4 Sc4 2.728413 1_555
Ge4 Sc1 2.856585 1_555
Ge4 Sc2 2.856585 1_555
Ge4 Sc3 2.856585 1_555
Ge4 Sc0 2.856585 1_555
Ge4 Sc8 2.905726 1_555
Ge4 Sc5 3.194793 1_555
Ge4 Sc5 3.194793 1_554
Ge5 Sc5 2.728413 1_555
Ge5 Sc6 2.728413 1_545
Ge5 Sc3 2.856579 1_545
Ge5 Sc0 2.856579 1_546
Ge5 Sc2 2.856581 1_556
Ge5 Sc1 2.856581 1_555
Ge5 Sc9 2.905725 1_555
Ge5 Sc4 3.194793 1_555
Ge5 Sc4 3.194793 1_556
