# generated using pymatgen
data_CaSb3O7
_symmetry_space_group_name_H-M   'P 1'
_cell_length_a   5.66305400
_cell_length_b   10.86901100
_cell_length_c   11.04880800
_cell_angle_alpha   90.00000000
_cell_angle_beta   90.00000000
_cell_angle_gamma   90.00000000
_symmetry_Int_Tables_number   1
_chemical_formula_structural   CaSb3O7
_chemical_formula_sum   'Ca4 Sb12 O28'
_cell_volume   680.07397849
_cell_formula_units_Z   4
loop_
 _symmetry_equiv_pos_site_id
 _symmetry_equiv_pos_as_xyz
  1  'x, y, z'
loop_
 _atom_site_type_symbol
 _atom_site_label
 _atom_site_symmetry_multiplicity
 _atom_site_fract_x
 _atom_site_fract_y
 _atom_site_fract_z
 _atom_site_occupancy
  Ca  Ca0  1  0.67654900  0.75000000  0.14383100  1
  Ca  Ca1  1  0.17654900  0.25000000  0.35616900  1
  Ca  Ca2  1  0.32345100  0.25000000  0.85616900  1
  Ca  Ca3  1  0.82345100  0.75000000  0.64383100  1
  Sb  Sb0  1  0.37811300  0.99520300  0.62993600  1
  Sb  Sb1  1  0.87811300  0.00479700  0.87006400  1
  Sb  Sb2  1  0.62188700  0.49520300  0.37006400  1
  Sb  Sb3  1  0.12188700  0.50479700  0.12993600  1
  Sb  Sb4  1  0.32579400  0.75000000  0.84674200  1
  Sb  Sb5  1  0.82579400  0.25000000  0.65325800  1
  Sb  Sb6  1  0.67420600  0.25000000  0.15325800  1
  Sb  Sb7  1  0.17420600  0.75000000  0.34674200  1
  Sb  Sb8  1  0.87811300  0.49520300  0.87006400  1
  Sb  Sb9  1  0.37811300  0.50479700  0.62993600  1
  Sb  Sb10  1  0.12188700  0.99520300  0.12993600  1
  Sb  Sb11  1  0.62188700  0.00479700  0.37006400  1
  O  O0  1  0.93012600  0.13096700  0.20899200  1
  O  O1  1  0.43012600  0.86903300  0.29100800  1
  O  O2  1  0.06987400  0.63096700  0.79100800  1
  O  O3  1  0.56987400  0.36903300  0.70899200  1
  O  O4  1  0.06987400  0.86903300  0.79100800  1
  O  O5  1  0.56987400  0.13096700  0.70899200  1
  O  O6  1  0.93012600  0.36903300  0.20899200  1
  O  O7  1  0.43012600  0.63096700  0.29100800  1
  O  O8  1  0.44986700  0.12564800  0.22164900  1
  O  O9  1  0.94986700  0.87435200  0.27835100  1
  O  O10  1  0.55013300  0.62564800  0.77835100  1
  O  O11  1  0.05013300  0.37435200  0.72164900  1
  O  O12  1  0.55013300  0.87435200  0.77835100  1
  O  O13  1  0.05013300  0.12564800  0.72164900  1
  O  O14  1  0.44986700  0.37435200  0.22164900  1
  O  O15  1  0.94986700  0.62564800  0.27835100  1
  O  O16  1  0.15212700  0.75000000  0.51780900  1
  O  O17  1  0.65212700  0.25000000  0.98219100  1
  O  O18  1  0.84787300  0.25000000  0.48219100  1
  O  O19  1  0.34787300  0.75000000  0.01780900  1
  O  O20  1  0.14990100  0.41684200  0.96387300  1
  O  O21  1  0.64990100  0.58315800  0.53612700  1
  O  O22  1  0.85009900  0.91684200  0.03612700  1
  O  O23  1  0.35009900  0.08315800  0.46387300  1
  O  O24  1  0.85009900  0.58315800  0.03612700  1
  O  O25  1  0.35009900  0.41684200  0.46387300  1
  O  O26  1  0.14990100  0.08315800  0.96387300  1
  O  O27  1  0.64990100  0.91684200  0.53612700  1
loop_
_geom_bond_atom_site_label_1
_geom_bond_atom_site_label_2
_geom_bond_distance
_geom_bond_site_symmetry_2
Ca0 O19 2.324485 1_555
Ca0 O24 2.381279 1_555
Ca0 O22 2.381279 1_555
Ca0 O1 2.503115 1_555
Ca0 O7 2.503115 1_555
Ca0 O9 2.536051 1_555
Ca0 O15 2.536051 1_555
Ca1 O18 2.324485 1_455
Ca1 O25 2.381279 1_555
Ca1 O23 2.381279 1_555
Ca1 O6 2.503115 1_455
Ca1 O0 2.503115 1_455
Ca1 O8 2.536051 1_555
Ca1 O14 2.536051 1_555
Ca2 O17 2.324485 1_555
Ca2 O20 2.381279 1_555
Ca2 O26 2.381279 1_555
Ca2 O3 2.503115 1_555
Ca2 O5 2.503115 1_555
Ca2 O13 2.536051 1_555
Ca2 O11 2.536051 1_555
Ca3 O16 2.324485 1_655
Ca3 O21 2.381279 1_555
Ca3 O27 2.381279 1_555
Ca3 O4 2.503115 1_655
Ca3 O2 2.503115 1_655
Ca3 O12 2.536051 1_555
Ca3 O10 2.536051 1_555
O0 Sb10 2.029706 1_645
O0 Sb6 2.038010 1_555
O1 Sb11 2.029706 1_565
O1 Sb7 2.038010 1_555
O2 Sb8 2.029706 1_455
O2 Sb4 2.038010 1_555
O3 Sb9 2.029706 1_555
O3 Sb5 2.038010 1_555
O4 Sb1 2.029706 1_465
O4 Sb4 2.038010 1_555
O5 Sb0 2.029706 1_545
O5 Sb5 2.038010 1_555
O6 Sb3 2.029706 1_655
O6 Sb6 2.038010 1_555
O7 Sb2 2.029706 1_555
O7 Sb7 2.038010 1_555
O8 Sb6 2.002947 1_555
O8 Sb11 2.315885 1_555
O8 Sb10 2.546922 1_545
O9 Sb7 2.002947 1_655
O9 Sb10 2.315885 1_655
O9 Sb11 2.546922 1_565
O10 Sb4 2.002947 1_555
O10 Sb9 2.315885 1_555
O10 Sb8 2.546922 1_555
O11 Sb5 2.002947 1_455
O11 Sb8 2.315885 1_455
O11 Sb9 2.546922 1_555
O12 Sb4 2.002947 1_555
O12 Sb0 2.315885 1_555
O12 Sb1 2.546922 1_565
O13 Sb5 2.002947 1_455
O13 Sb1 2.315885 1_455
O13 Sb0 2.546922 1_545
O14 Sb6 2.002947 1_555
O14 Sb2 2.315885 1_555
O14 Sb3 2.546922 1_555
O15 Sb7 2.002947 1_655
O15 Sb3 2.315885 1_655
O15 Sb2 2.546922 1_555
O16 Sb7 1.894218 1_555
O17 Sb6 1.894218 1_556
O18 Sb5 1.894218 1_555
O19 Sb4 1.894218 1_554
O20 Sb8 2.041733 1_455
O20 Sb3 2.074984 1_556
O21 Sb9 2.041733 1_555
O21 Sb2 2.074984 1_555
O22 Sb10 2.041733 1_655
O22 Sb1 2.074984 1_564
O23 Sb11 2.041733 1_555
O23 Sb0 2.074984 1_545
O24 Sb3 2.041733 1_655
O24 Sb8 2.074984 1_554
O25 Sb2 2.041733 1_555
O25 Sb9 2.074984 1_555
O26 Sb1 2.041733 1_455
O26 Sb10 2.074984 1_546
O27 Sb0 2.041733 1_555
O27 Sb11 2.074984 1_565
