# generated using pymatgen
data_CsNa2
_symmetry_space_group_name_H-M   'P 1'
_cell_length_a   7.85146013
_cell_length_b   7.85146013
_cell_length_c   13.09002421
_cell_angle_alpha   90.00000000
_cell_angle_beta   90.00000000
_cell_angle_gamma   119.99999994
_symmetry_Int_Tables_number   1
_chemical_formula_structural   CsNa2
_chemical_formula_sum   'Cs4 Na8'
_cell_volume   698.83064511
_cell_formula_units_Z   4
loop_
 _symmetry_equiv_pos_site_id
 _symmetry_equiv_pos_as_xyz
  1  'x, y, z'
loop_
 _atom_site_type_symbol
 _atom_site_label
 _atom_site_symmetry_multiplicity
 _atom_site_fract_x
 _atom_site_fract_y
 _atom_site_fract_z
 _atom_site_occupancy
  Cs  Cs0  1  0.33333300  0.66666700  0.43794700  1
  Cs  Cs1  1  0.66666700  0.33333300  0.56205300  1
  Cs  Cs2  1  0.66666700  0.33333300  0.93794700  1
  Cs  Cs3  1  0.33333300  0.66666700  0.06205300  1
  Na  Na0  1  -0.00000000  0.00000000  0.50000000  1
  Na  Na1  1  -0.00000000  0.00000000  0.00000000  1
  Na  Na2  1  0.83613546  0.16386454  0.25000000  1
  Na  Na3  1  0.83613546  0.67227093  0.25000000  1
  Na  Na4  1  0.32772907  0.16386454  0.25000000  1
  Na  Na5  1  0.16386454  0.83613546  0.75000000  1
  Na  Na6  1  0.16386454  0.32772907  0.75000000  1
  Na  Na7  1  0.67227093  0.83613546  0.75000000  1
loop_
_geom_bond_atom_site_label_1
_geom_bond_atom_site_label_2
_geom_bond_distance
_geom_bond_site_symmetry_2
Cs0 Na0 4.605239 1_565
Cs0 Na0 4.605246 1_665
Cs0 Na0 4.605246 1_555
Cs0 Na3 4.633089 1_455
Cs0 Na4 4.633089 1_565
Cs0 Na2 4.633092 1_565
Cs0 Na2 4.633092 1_455
Cs0 Na4 4.633096 1_555
Cs0 Na3 4.633096 1_555
Cs0 Na5 4.690067 1_555
Cs0 Na6 4.690070 1_555
Cs0 Na7 4.690070 1_555
Cs0 Cs1 4.815350 1_455
Cs0 Cs1 4.815350 1_565
Cs0 Cs1 4.815363 1_555
Cs0 Cs3 4.920462 1_555
Cs1 Na0 4.605239 1_655
Cs1 Na0 4.605246 1_665
Cs1 Na0 4.605246 1_555
Cs1 Na6 4.633089 1_655
Cs1 Na7 4.633089 1_545
Cs1 Na5 4.633092 1_655
Cs1 Na5 4.633092 1_545
Cs1 Na7 4.633096 1_555
Cs1 Na6 4.633096 1_555
Cs1 Na2 4.690067 1_555
Cs1 Na3 4.690070 1_555
Cs1 Na4 4.690070 1_555
Cs1 Cs2 4.920462 1_555
Cs2 Na1 4.605239 1_656
Cs2 Na1 4.605246 1_666
Cs2 Na1 4.605246 1_556
Cs2 Na6 4.633089 1_655
Cs2 Na7 4.633089 1_545
Cs2 Na5 4.633092 1_655
Cs2 Na5 4.633092 1_545
Cs2 Na7 4.633096 1_555
Cs2 Na6 4.633096 1_555
Cs2 Na2 4.690067 1_556
Cs2 Na3 4.690070 1_556
Cs2 Na4 4.690070 1_556
Cs2 Cs3 4.815350 1_656
Cs2 Cs3 4.815350 1_546
Cs2 Cs3 4.815363 1_556
Cs3 Na1 4.605239 1_565
Cs3 Na1 4.605246 1_555
Cs3 Na1 4.605246 1_665
Cs3 Na3 4.633089 1_455
Cs3 Na4 4.633089 1_565
Cs3 Na2 4.633092 1_565
Cs3 Na2 4.633092 1_455
Cs3 Na4 4.633096 1_555
Cs3 Na3 4.633096 1_555
Cs3 Na5 4.690067 1_554
Cs3 Na6 4.690070 1_554
Cs3 Na7 4.690070 1_554
Na0 Na6 3.959183 1_555
Na0 Na3 3.959183 1_445
Na0 Na7 3.959183 1_445
Na0 Na4 3.959183 1_555
Na0 Na2 3.959183 1_455
Na0 Na5 3.959183 1_545
Na1 Na6 3.959183 1_554
Na1 Na3 3.959183 1_445
Na1 Na7 3.959183 1_444
Na1 Na4 3.959183 1_555
Na1 Na5 3.959183 1_544
Na1 Na2 3.959183 1_455
Na2 Na4 3.859728 1_655
Na2 Na3 3.859728 1_545
Na2 Na4 3.991733 1_555
Na2 Na3 3.991733 1_555
Na3 Na4 3.859728 1_665
Na3 Na4 3.991733 1_555
Na5 Na6 3.859728 1_565
Na5 Na7 3.859728 1_455
Na5 Na7 3.991733 1_555
Na5 Na6 3.991733 1_555
Na6 Na7 3.859728 1_445
Na6 Na7 3.991733 1_555
