# generated using pymatgen
data_GaN
_symmetry_space_group_name_H-M   'P 1'
_cell_length_a   13.07800722
_cell_length_b   15.26221636
_cell_length_c   12.37341840
_cell_angle_alpha   89.49629999
_cell_angle_beta   93.88745740
_cell_angle_gamma   86.99051653
_symmetry_Int_Tables_number   1
_chemical_formula_structural   GaN
_chemical_formula_sum   'Ga50 N50'
_cell_volume   2460.45677421
_cell_formula_units_Z   50
loop_
 _symmetry_equiv_pos_site_id
 _symmetry_equiv_pos_as_xyz
  1  'x, y, z'
loop_
 _atom_site_type_symbol
 _atom_site_label
 _atom_site_symmetry_multiplicity
 _atom_site_fract_x
 _atom_site_fract_y
 _atom_site_fract_z
 _atom_site_occupancy
  Ga  Ga0  1  0.81910805  0.57269536  0.32979305  1
  Ga  Ga1  1  0.14265875  0.90506299  0.61900490  1
  Ga  Ga2  1  0.20342429  0.74685705  0.36362059  1
  Ga  Ga3  1  0.06435126  0.64304728  0.99468020  1
  Ga  Ga4  1  0.92609130  0.03052745  0.64922771  1
  Ga  Ga5  1  0.62388704  0.73219695  0.07411857  1
  Ga  Ga6  1  0.10250406  0.90030886  0.41386704  1
  Ga  Ga7  1  0.00405974  0.87261007  0.75909737  1
  Ga  Ga8  1  0.33664003  0.06370129  0.31876977  1
  Ga  Ga9  1  0.99917584  0.66106806  0.18478436  1
  Ga  Ga10  1  0.85444789  0.51918207  0.54348267  1
  Ga  Ga11  1  0.19283822  0.96676484  0.81152637  1
  Ga  Ga12  1  0.68739367  0.90627830  0.01344146  1
  Ga  Ga13  1  0.80151639  0.89768656  0.69494400  1
  Ga  Ga14  1  0.90604120  0.74297488  0.36540844  1
  Ga  Ga15  1  0.52345792  0.64653921  0.56786232  1
  Ga  Ga16  1  0.24322210  0.61968883  0.50342412  1
  Ga  Ga17  1  0.50665715  0.29005693  0.58325408  1
  Ga  Ga18  1  0.74862129  0.05465761  0.77264061  1
  Ga  Ga19  1  0.37604390  0.77718082  0.17414234  1
  Ga  Ga20  1  0.03767430  0.75433959  0.54161921  1
  Ga  Ga21  1  0.46786536  0.63078848  0.88141692  1
  Ga  Ga22  1  0.76482850  0.65070793  0.96806618  1
  Ga  Ga23  1  0.56986259  0.79238483  0.25352931  1
  Ga  Ga24  1  0.74315449  0.63942589  0.63339752  1
  Ga  Ga25  1  0.22606328  0.58818708  0.25236685  1
  Ga  Ga26  1  0.89255535  0.73310093  0.69098863  1
  Ga  Ga27  1  0.94984968  0.04772500  0.23818189  1
  Ga  Ga28  1  0.42306839  0.19128984  0.42779386  1
  Ga  Ga29  1  0.13780482  0.10705828  0.28418511  1
  Ga  Ga30  1  0.48568850  0.48135015  0.03004346  1
  Ga  Ga31  1  0.04603823  0.37886195  0.60625719  1
  Ga  Ga32  1  0.25795662  0.60136717  0.03143226  1
  Ga  Ga33  1  0.72000127  0.78611411  0.81075267  1
  Ga  Ga34  1  0.93908795  0.76309959  0.90371960  1
  Ga  Ga35  1  0.13288732  0.86793736  0.97521622  1
  Ga  Ga36  1  0.59457456  0.95600752  0.82064398  1
  Ga  Ga37  1  0.00463494  0.88201154  0.21976905  1
  Ga  Ga38  1  0.70879244  0.72044969  0.39385726  1
  Ga  Ga39  1  0.49039579  0.88646812  0.04257431  1
  Ga  Ga40  1  0.44634849  0.93186376  0.24305349  1
  Ga  Ga41  1  0.24279573  0.46283238  0.41653802  1
  Ga  Ga42  1  0.53651906  0.78327693  0.86977482  1
  Ga  Ga43  1  0.39396736  0.91815314  0.84938278  1
  Ga  Ga44  1  0.23469026  0.26749277  0.35755331  1
  Ga  Ga45  1  0.64286834  0.60178700  0.80294022  1
  Ga  Ga46  1  0.23847580  0.90656162  0.25437732  1
  Ga  Ga47  1  0.05568963  0.55801860  0.43379411  1
  Ga  Ga48  1  0.83318216  0.79428848  0.07530284  1
  Ga  Ga49  1  0.18265944  0.74557068  0.14096994  1
  N  N0  1  0.94383010  0.24100411  0.44745327  1
  N  N1  1  0.92348659  0.77776254  0.20812119  1
  N  N2  1  0.14226754  0.16150090  0.57217721  1
  N  N3  1  0.34286081  0.11596280  0.11702305  1
  N  N4  1  0.74430395  0.32004106  0.18320570  1
  N  N5  1  0.40209844  0.85114519  0.49929545  1
  N  N6  1  0.16080337  0.58126996  0.76342834  1
  N  N7  1  0.31761999  0.33369374  0.69602066  1
  N  N8  1  0.95051953  0.23132303  0.06862625  1
  N  N9  1  0.67565817  0.37458957  0.85459089  1
  N  N10  1  0.37427894  0.82835358  0.57762268  1
  N  N11  1  0.98904804  0.48079699  0.52825329  1
  N  N12  1  0.53063979  0.36506057  0.36607075  1
  N  N13  1  0.18513597  0.18608578  0.50217842  1
  N  N14  1  0.71121043  0.38801715  0.19335356  1
  N  N15  1  0.38875540  0.12530012  0.58480957  1
  N  N16  1  0.13014044  0.87621859  0.13671276  1
  N  N17  1  0.57179474  0.95268501  0.56145618  1
  N  N18  1  0.02519865  0.41506813  0.15151440  1
  N  N19  1  0.53510329  0.21661871  0.92654507  1
  N  N20  1  0.26868647  0.28468023  0.73148623  1
  N  N21  1  0.16342825  0.50895614  0.75011689  1
  N  N22  1  0.82130609  0.99895561  0.39259008  1
  N  N23  1  0.55071778  0.41254390  0.43217607  1
  N  N24  1  0.38458395  0.57166093  0.97263181  1
  N  N25  1  0.91568265  0.47757758  0.87917088  1
  N  N26  1  0.59147566  0.12226768  0.18354291  1
  N  N27  1  0.90672010  0.45096416  0.79547718  1
  N  N28  1  0.95904963  0.24770913  0.36015427  1
  N  N29  1  0.74062178  0.29464776  0.53999744  1
  N  N30  1  0.72684071  0.23065721  0.49974013  1
  N  N31  1  0.34197519  0.32771771  0.06471661  1
  N  N32  1  0.93179638  0.23219753  0.97950172  1
  N  N33  1  0.12255162  0.30411875  0.90443382  1
  N  N34  1  0.95500447  0.03536405  0.94746259  1
  N  N35  1  0.64056024  0.14437803  0.25412170  1
  N  N36  1  0.89973820  0.02207918  0.01002767  1
  N  N37  1  0.51643526  0.59707521  0.29568990  1
  N  N38  1  0.33046617  0.09748450  0.03000494  1
  N  N39  1  0.12978190  0.37407502  0.92710928  1
  N  N40  1  0.96786153  0.41622318  0.21420745  1
  N  N41  1  0.72906600  0.34043233  0.91715584  1
  N  N42  1  0.45556535  0.21167237  0.88985578  1
  N  N43  1  0.75799768  0.95241601  0.39018983  1
  N  N44  1  0.28653650  0.33118177  0.12932275  1
  N  N45  1  0.64966604  0.68396825  0.51815767  1
  N  N46  1  0.57103442  0.00048907  0.49251916  1
  N  N47  1  0.46567453  0.54813995  0.25579268  1
  N  N48  1  0.95773885  0.61553198  0.32326936  1
  N  N49  1  0.39072567  0.09847844  0.67051538  1
loop_
_geom_bond_atom_site_label_1
_geom_bond_atom_site_label_2
_geom_bond_distance
_geom_bond_site_symmetry_2
Ga0 N48 1.965794 1_555
Ga1 Ga6 2.559353 1_555
Ga1 Ga11 2.623827 1_555
Ga1 Ga7 2.653451 1_555
Ga1 Ga20 2.878501 1_555
Ga2 Ga6 2.725038 1_555
Ga2 Ga49 2.750263 1_555
Ga2 Ga25 2.808142 1_555
Ga2 Ga46 2.849880 1_555
Ga3 Ga9 2.567843 1_456
Ga3 Ga32 2.586892 1_556
Ga3 Ga34 2.589628 1_455
Ga3 Ga49 2.836030 1_556
Ga4 Ga7 2.862370 1_645
Ga8 N3 2.621768 1_555
Ga9 N48 1.964022 1_555
Ga9 N1 2.024331 1_555
Ga10 N11 1.848247 1_555
Ga11 Ga35 2.697741 1_555
Ga11 Ga43 2.703813 1_555
Ga11 Ga7 2.958512 1_555
Ga12 Ga48 2.565042 1_555
Ga12 Ga39 2.657947 1_555
Ga12 Ga36 2.686868 1_554
Ga12 Ga5 2.931484 1_555
Ga12 Ga33 3.158940 1_554
Ga13 Ga33 2.538570 1_555
Ga13 Ga18 2.664382 1_565
Ga13 Ga7 2.719590 1_655
Ga13 Ga26 2.725036 1_555
Ga13 Ga4 2.745253 1_565
Ga14 N1 2.043606 1_555
Ga14 N48 2.107080 1_555
Ga14 Ga20 2.697506 1_655
Ga15 N45 1.912945 1_555
Ga16 Ga2 2.596740 1_555
Ga16 Ga41 2.633019 1_555
Ga16 Ga47 2.759226 1_555
Ga18 Ga36 2.672719 1_545
Ga18 Ga4 2.873154 1_555
Ga19 Ga49 2.605442 1_555
Ga19 Ga23 2.678043 1_555
Ga19 Ga40 2.702374 1_555
Ga19 Ga46 2.832888 1_555
Ga19 Ga39 2.865854 1_555
Ga20 Ga26 2.766321 1_455
Ga20 Ga6 2.915278 1_555
Ga21 N24 1.877877 1_555
Ga21 Ga42 2.544470 1_555
Ga21 Ga45 2.565041 1_555
Ga22 Ga5 2.604267 1_556
Ga22 Ga45 2.643110 1_555
Ga22 Ga48 2.730890 1_556
Ga22 Ga33 2.837381 1_555
Ga22 Ga34 3.066351 1_555
Ga23 Ga5 2.539971 1_555
Ga23 Ga40 2.600646 1_555
Ga23 Ga38 2.617384 1_555
Ga23 Ga39 3.060203 1_555
Ga24 N45 1.910371 1_555
Ga24 Ga26 2.547908 1_555
Ga24 Ga45 2.623356 1_555
Ga24 Ga33 3.166219 1_555
Ga25 Ga41 2.768038 1_555
Ga26 Ga34 2.709563 1_555
Ga26 Ga7 2.749769 1_655
Ga26 Ga33 2.868096 1_555
Ga27 Ga29 2.690588 1_655
Ga28 N15 2.263083 1_555
Ga29 Ga8 2.654501 1_555
Ga29 Ga44 2.938376 1_555
Ga30 N24 1.953677 1_554
Ga31 N11 1.913567 1_455
Ga32 N24 1.888831 1_554
Ga33 Ga42 2.557574 1_555
Ga33 Ga36 3.002541 1_555
Ga33 Ga34 3.016023 1_555
Ga33 Ga45 3.038218 1_555
Ga34 Ga48 2.645676 1_556
Ga34 Ga7 2.649603 1_655
Ga34 Ga35 3.148527 1_655
Ga35 N16 2.005997 1_556
Ga35 Ga7 3.060679 1_555
Ga36 Ga43 2.761386 1_555
Ga36 Ga42 2.853143 1_555
Ga37 N1 1.959373 1_455
Ga37 N16 1.993267 1_555
Ga37 Ga6 2.667710 1_555
Ga38 N45 1.861412 1_555
Ga39 Ga43 2.654297 1_554
Ga39 Ga40 2.673456 1_555
Ga39 Ga42 2.747751 1_554
Ga39 Ga5 2.864220 1_555
Ga40 Ga8 2.626259 1_565
Ga40 Ga46 2.778535 1_555
Ga41 Ga47 2.801213 1_555
Ga41 Ga44 3.081087 1_555
Ga42 Ga43 2.702006 1_555
Ga42 Ga5 2.790402 1_556
Ga44 N13 2.317051 1_555
Ga46 N16 2.035326 1_555
Ga46 Ga6 2.748821 1_555
Ga47 N11 1.932984 1_455
Ga47 N48 1.976106 1_455
Ga48 N1 1.964043 1_555
Ga48 Ga5 2.942362 1_555
Ga49 N16 2.073623 1_555
N0 N28 1.116352 1_555
N3 N38 1.118746 1_555
N10 N5 1.117068 1_555
N12 N23 1.124482 1_555
N13 N2 1.134675 1_555
N14 N4 1.114418 1_555
N15 N49 1.131547 1_555
N17 N46 1.116755 1_565
N18 N40 1.114483 1_455
N19 N42 1.112933 1_555
N20 N7 1.115469 1_555
N21 N6 1.116413 1_555
N22 N43 1.117895 1_555
N25 N27 1.116726 1_555
N26 N35 1.113784 1_555
N29 N30 1.117717 1_555
N31 N44 1.114812 1_555
N32 N8 1.113118 1_556
N33 N39 1.113503 1_555
N34 N36 1.118618 1_556
N37 N47 1.120851 1_555
N41 N9 1.113677 1_555
