# generated using pymatgen
data_Sr2AlCu2AgO7
_symmetry_space_group_name_H-M   'P 1'
_cell_length_a   5.24859500
_cell_length_b   5.25025002
_cell_length_c   12.51115128
_cell_angle_alpha   101.87137201
_cell_angle_beta   101.88159937
_cell_angle_gamma   90.08675808
_symmetry_Int_Tables_number   1
_chemical_formula_structural   Sr2AlCu2AgO7
_chemical_formula_sum   'Sr4 Al2 Cu4 Ag2 O14'
_cell_volume   329.81381386
_cell_formula_units_Z   2
loop_
 _symmetry_equiv_pos_site_id
 _symmetry_equiv_pos_as_xyz
  1  'x, y, z'
loop_
 _atom_site_type_symbol
 _atom_site_label
 _atom_site_symmetry_multiplicity
 _atom_site_fract_x
 _atom_site_fract_y
 _atom_site_fract_z
 _atom_site_occupancy
  Sr  Sr0  1  0.64998300  0.68128100  0.29976200  1
  Sr  Sr1  1  0.35053300  0.37914500  0.70098000  1
  Sr  Sr2  1  0.15194600  0.18026000  0.29971100  1
  Sr  Sr3  1  0.84662700  0.87782900  0.70118900  1
  Al  Al0  1  0.99195300  0.99983600  0.00126400  1
  Al  Al1  1  0.50742500  0.51512800  0.00072500  1
  Cu  Cu0  1  0.56166200  0.08385100  0.12039400  1
  Cu  Cu1  1  0.43380000  0.95521900  0.88034800  1
  Cu  Cu2  1  0.06715300  0.58017100  0.12156200  1
  Cu  Cu3  1  0.93731700  0.45032000  0.87945900  1
  Ag  Ag0  1  0.23751200  0.77712100  0.49993700  1
  Ag  Ag1  1  0.76122200  0.27709800  0.50055100  1
  O  O0  1  0.75973200  0.78880500  0.50030000  1
  O  O1  1  0.24163800  0.29182800  0.50029100  1
  O  O2  1  0.73934300  0.75662500  0.09869900  1
  O  O3  1  0.26513500  0.64328100  0.89970400  1
  O  O4  1  0.87225200  0.25276000  0.10043100  1
  O  O5  1  0.12199600  0.13829000  0.89914700  1
  O  O6  1  0.38584400  0.40313400  0.10969300  1
  O  O7  1  0.61633600  0.28228600  0.89037200  1
  O  O8  1  0.23530000  0.90007000  0.10991000  1
  O  O9  1  0.76165100  0.77955400  0.88970900  1
  O  O10  1  0.15743000  0.69223200  0.32385200  1
  O  O11  1  0.84178800  0.36480100  0.67648200  1
  O  O12  1  0.66864600  0.19224600  0.32486700  1
  O  O13  1  0.33046000  0.86590600  0.67573500  1
loop_
_geom_bond_atom_site_label_1
_geom_bond_atom_site_label_2
_geom_bond_distance
_geom_bond_site_symmetry_2
Al0 O8 1.825760 1_655
Al0 O4 1.828399 1_565
Al0 O5 1.834725 1_664
Al0 O9 1.839448 1_554
Al1 O6 1.816175 1_555
Al1 O2 1.825733 1_555
Al1 O3 1.832464 1_554
Al1 O7 1.833051 1_554
Cu0 O6 1.930197 1_555
Cu0 O8 1.932046 1_545
Cu0 O4 1.939240 1_555
Cu0 O2 1.952482 1_545
Cu0 O12 2.447869 1_555
Cu1 O5 1.930713 1_565
Cu1 O7 1.933717 1_565
Cu1 O3 1.942065 1_555
Cu1 O9 1.947201 1_555
Cu1 O13 2.449690 1_555
Cu2 O6 1.932371 1_555
Cu2 O4 1.941029 1_455
Cu2 O8 1.941709 1_555
Cu2 O2 1.952320 1_455
Cu2 O10 2.422548 1_555
Cu3 O5 1.938184 1_655
Cu3 O3 1.939230 1_655
Cu3 O7 1.942921 1_555
Cu3 O9 1.953654 1_555
Cu3 O11 2.430601 1_555
Ag0 O13 2.104390 1_555
Ag0 O10 2.107794 1_555
Ag0 O0 2.509433 1_455
Ag0 O1 2.548941 1_555
Ag0 O1 2.701479 1_565
Ag0 O0 2.740563 1_555
Ag1 O12 2.102972 1_555
Ag1 O11 2.105902 1_555
Ag1 O1 2.523270 1_655
Ag1 O0 2.563014 1_545
Ag1 O0 2.687259 1_555
Ag1 O1 2.727651 1_555
O0 Sr0 2.401363 1_555
O0 Sr3 2.405707 1_555
O1 Sr2 2.402118 1_555
O1 Sr1 2.403308 1_555
O2 Sr0 2.756631 1_555
O3 Sr1 2.710677 1_555
O4 Sr2 2.720494 1_655
O5 Sr3 2.686903 1_445
O6 Sr0 2.630012 1_555
O7 Sr1 2.637456 1_555
O8 Sr2 2.643258 1_565
O9 Sr3 2.638431 1_555
O10 Sr0 2.617177 1_455
O10 Sr2 2.640515 1_565
O10 Sr2 2.641866 1_555
O10 Sr0 2.663011 1_555
O11 Sr1 2.623443 1_655
O11 Sr3 2.637264 1_545
O11 Sr3 2.646748 1_555
O11 Sr1 2.657868 1_555
O12 Sr2 2.618907 1_655
O12 Sr0 2.635328 1_545
O12 Sr0 2.649620 1_555
O12 Sr2 2.664123 1_555
O13 Sr3 2.622860 1_455
O13 Sr1 2.638417 1_555
O13 Sr1 2.647108 1_565
O13 Sr3 2.660988 1_555
