# generated using pymatgen
data_PrCd11
_symmetry_space_group_name_H-M   'P 1'
_cell_length_a   9.35200820
_cell_length_b   9.35200924
_cell_length_c   9.35200820
_cell_angle_alpha   90.00000000
_cell_angle_beta   90.00000000
_cell_angle_gamma   90.00000000
_symmetry_Int_Tables_number   1
_chemical_formula_structural   PrCd11
_chemical_formula_sum   'Pr3 Cd33'
_cell_volume   817.92726468
_cell_formula_units_Z   3
loop_
 _symmetry_equiv_pos_site_id
 _symmetry_equiv_pos_as_xyz
  1  'x, y, z'
loop_
 _atom_site_type_symbol
 _atom_site_label
 _atom_site_symmetry_multiplicity
 _atom_site_fract_x
 _atom_site_fract_y
 _atom_site_fract_z
 _atom_site_occupancy
  Pr  Pr0  1  -0.00000000  -0.00000000  0.50000000  1
  Pr  Pr1  1  -0.00000000  0.50000000  0.00000000  1
  Pr  Pr2  1  0.50000000  -0.00000000  0.00000000  1
  Cd  Cd0  1  0.50000000  0.50000000  0.50000000  1
  Cd  Cd1  1  0.15756997  0.15757197  0.84243003  1
  Cd  Cd2  1  0.15756997  0.84242803  0.15756997  1
  Cd  Cd3  1  0.84243003  0.15757197  0.15756997  1
  Cd  Cd4  1  0.84243003  0.84242803  0.84243003  1
  Cd  Cd5  1  0.84243003  0.84242803  0.15756997  1
  Cd  Cd6  1  0.84243003  0.15757197  0.84243003  1
  Cd  Cd7  1  0.15756997  0.84242803  0.84243003  1
  Cd  Cd8  1  0.15756997  0.15757197  0.15756997  1
  Cd  Cd9  1  0.34538209  0.34538309  0.00000000  1
  Cd  Cd10  1  0.34538209  -0.00000000  0.65461791  1
  Cd  Cd11  1  -0.00000000  0.34538309  0.65461791  1
  Cd  Cd12  1  0.34538209  0.65461691  0.00000000  1
  Cd  Cd13  1  0.34538209  -0.00000000  0.34538209  1
  Cd  Cd14  1  -0.00000000  0.65461691  0.34538209  1
  Cd  Cd15  1  0.65461791  0.34538309  0.00000000  1
  Cd  Cd16  1  0.65461791  -0.00000000  0.34538209  1
  Cd  Cd17  1  -0.00000000  0.34538309  0.34538209  1
  Cd  Cd18  1  0.65461791  0.65461691  0.00000000  1
  Cd  Cd19  1  0.65461791  -0.00000000  0.65461791  1
  Cd  Cd20  1  -0.00000000  0.65461691  0.65461791  1
  Cd  Cd21  1  0.26635321  0.26635521  0.50000000  1
  Cd  Cd22  1  0.26635321  0.50000000  0.73364679  1
  Cd  Cd23  1  0.50000000  0.26635521  0.73364679  1
  Cd  Cd24  1  0.26635421  0.73364479  0.50000000  1
  Cd  Cd25  1  0.26635321  0.50000000  0.26635321  1
  Cd  Cd26  1  0.50000000  0.73364479  0.26635321  1
  Cd  Cd27  1  0.73364579  0.26635521  0.50000000  1
  Cd  Cd28  1  0.73364679  0.50000000  0.26635321  1
  Cd  Cd29  1  0.50000000  0.26635521  0.26635321  1
  Cd  Cd30  1  0.73364679  0.73364479  0.50000000  1
  Cd  Cd31  1  0.73364679  0.50000000  0.73364679  1
  Cd  Cd32  1  0.50000000  0.73364479  0.73364679  1
loop_
_geom_bond_atom_site_label_1
_geom_bond_atom_site_label_2
_geom_bond_distance
_geom_bond_site_symmetry_2
Cd0 Cd27 3.090131 1_555
Cd0 Cd24 3.090131 1_555
Cd0 Cd29 3.090138 1_555
Cd0 Cd23 3.090138 1_555
Cd0 Cd21 3.090138 1_555
Cd0 Cd26 3.090138 1_555
Cd0 Cd30 3.090138 1_555
Cd0 Cd32 3.090138 1_555
Cd0 Cd22 3.090151 1_555
Cd0 Cd31 3.090151 1_555
Cd0 Cd28 3.090151 1_555
Cd0 Cd25 3.090151 1_555
Cd1 Cd9 2.888162 1_556
Cd1 Cd11 2.888162 1_555
Cd1 Cd10 2.888177 1_555
Cd1 Cd8 2.947191 1_556
Cd1 Cd6 2.947191 1_455
Cd1 Cd7 2.947229 1_545
Cd1 Pr1 3.820768 1_556
Cd1 Pr2 3.820791 1_556
Cd1 Pr0 3.820791 1_555
Cd2 Cd7 2.947191 1_554
Cd2 Cd5 2.947191 1_455
Cd2 Cd8 2.947229 1_565
Cd2 Pr1 3.820768 1_555
Cd2 Pr0 3.820791 1_565
Cd2 Pr2 3.820791 1_565
Cd3 Cd8 2.947191 1_655
Cd3 Cd6 2.947191 1_554
Cd3 Cd5 2.947229 1_545
Cd3 Pr1 3.820768 1_655
Cd3 Pr0 3.820791 1_655
Cd3 Pr2 3.820791 1_555
Cd4 Cd5 2.947191 1_556
Cd4 Cd7 2.947191 1_655
Cd4 Cd6 2.947229 1_565
Cd4 Pr1 3.820768 1_656
Cd4 Pr0 3.820791 1_665
Cd4 Pr2 3.820791 1_566
Cd5 Pr1 3.820768 1_655
Cd5 Pr0 3.820791 1_665
Cd5 Pr2 3.820791 1_565
Cd6 Pr1 3.820768 1_656
Cd6 Pr2 3.820791 1_556
Cd6 Pr0 3.820791 1_655
Cd7 Pr1 3.820768 1_556
Cd7 Pr2 3.820791 1_566
Cd7 Pr0 3.820791 1_565
Cd8 Cd9 2.888162 1_555
Cd8 Pr1 3.820768 1_555
Cd8 Pr0 3.820791 1_555
Cd8 Pr2 3.820791 1_555
Cd9 Pr1 3.538906 1_555
Cd9 Pr2 3.538919 1_555
Cd10 Cd7 2.888177 1_545
Cd10 Cd19 2.891976 1_555
Cd10 Cd13 2.891976 1_555
Cd10 Cd24 2.973545 1_545
Cd10 Cd32 2.973547 1_545
Cd10 Cd23 2.973547 1_555
Cd10 Cd21 2.973547 1_555
Cd10 Pr2 3.538910 1_556
Cd10 Pr0 3.538910 1_555
Cd11 Cd6 2.888162 1_455
Cd11 Cd20 2.891958 1_555
Cd11 Cd17 2.891976 1_555
Cd11 Cd31 2.973527 1_455
Cd11 Cd22 2.973527 1_555
Cd11 Cd21 2.973529 1_555
Cd11 Cd27 2.973537 1_455
Cd11 Pr1 3.538906 1_556
Cd11 Pr0 3.538919 1_555
Cd12 Cd2 2.888162 1_555
Cd12 Cd7 2.888162 1_554
Cd12 Cd9 2.891958 1_555
Cd12 Cd18 2.891976 1_555
Cd12 Cd25 2.973527 1_555
Cd12 Cd22 2.973527 1_554
Cd12 Cd32 2.973529 1_554
Cd12 Cd26 2.973529 1_555
Cd12 Pr1 3.538906 1_555
Cd12 Pr2 3.538919 1_565
Cd13 Cd8 2.888177 1_555
Cd13 Cd2 2.888177 1_545
Cd13 Cd16 2.891976 1_555
Cd13 Cd24 2.973545 1_545
Cd13 Cd26 2.973547 1_545
Cd13 Cd21 2.973547 1_555
Cd13 Cd29 2.973547 1_555
Cd13 Pr0 3.538910 1_555
Cd13 Pr2 3.538910 1_555
Cd14 Cd2 2.888162 1_555
Cd14 Cd5 2.888162 1_455
Cd14 Cd17 2.891958 1_555
Cd14 Cd20 2.891976 1_555
Cd14 Cd28 2.973527 1_455
Cd14 Cd25 2.973527 1_555
Cd14 Cd30 2.973529 1_455
Cd14 Cd24 2.973537 1_555
Cd14 Pr1 3.538906 1_555
Cd14 Pr0 3.538919 1_565
Cd15 Cd6 2.888162 1_554
Cd15 Cd3 2.888162 1_555
Cd15 Cd18 2.891958 1_555
Cd15 Cd9 2.891976 1_555
Cd15 Cd28 2.973527 1_555
Cd15 Cd31 2.973527 1_554
Cd15 Cd29 2.973529 1_555
Cd15 Cd23 2.973529 1_554
Cd15 Pr1 3.538906 1_655
Cd15 Pr2 3.538919 1_555
Cd16 Cd3 2.888177 1_555
Cd16 Cd5 2.888177 1_545
Cd16 Cd19 2.891976 1_555
Cd16 Cd27 2.973545 1_555
Cd16 Cd30 2.973547 1_545
Cd16 Cd26 2.973547 1_545
Cd16 Cd29 2.973547 1_555
Cd16 Pr0 3.538910 1_655
Cd16 Pr2 3.538910 1_555
Cd17 Cd3 2.888162 1_455
Cd17 Cd8 2.888162 1_555
Cd17 Cd28 2.973527 1_455
Cd17 Cd25 2.973527 1_555
Cd17 Cd21 2.973529 1_555
Cd17 Cd27 2.973537 1_455
Cd17 Pr1 3.538906 1_555
Cd17 Pr0 3.538919 1_555
Cd18 Cd4 2.888162 1_554
Cd18 Cd5 2.888162 1_555
Cd18 Cd31 2.973527 1_554
Cd18 Cd28 2.973527 1_555
Cd18 Cd26 2.973529 1_555
Cd18 Cd32 2.973529 1_554
Cd18 Pr1 3.538906 1_655
Cd18 Pr2 3.538919 1_565
Cd19 Cd4 2.888177 1_545
Cd19 Cd6 2.888177 1_555
Cd19 Cd27 2.973545 1_555
Cd19 Cd32 2.973547 1_545
Cd19 Cd30 2.973547 1_545
Cd19 Cd23 2.973547 1_555
Cd19 Pr0 3.538910 1_655
Cd19 Pr2 3.538910 1_556
Cd20 Cd4 2.888162 1_455
Cd20 Cd7 2.888162 1_555
Cd20 Cd31 2.973527 1_455
Cd20 Cd22 2.973527 1_555
Cd20 Cd30 2.973529 1_455
Cd20 Cd24 2.973537 1_555
Cd20 Pr1 3.538906 1_556
Cd20 Pr0 3.538919 1_565
Cd21 Cd22 3.090138 1_555
Cd21 Cd25 3.090138 1_555
Cd21 Cd29 3.090151 1_555
Cd21 Cd23 3.090151 1_555
Cd21 Pr0 3.522731 1_555
Cd22 Cd9 2.973527 1_556
Cd22 Cd23 3.090138 1_555
Cd22 Cd32 3.090138 1_555
Cd22 Cd24 3.090138 1_555
Cd22 Pr1 3.522717 1_556
Cd23 Cd9 2.973529 1_556
Cd23 Cd31 3.090138 1_555
Cd23 Cd27 3.090144 1_555
Cd23 Pr2 3.522731 1_556
Cd24 Cd25 3.090138 1_555
Cd24 Cd32 3.090144 1_555
Cd24 Cd26 3.090144 1_555
Cd24 Pr0 3.522737 1_565
Cd25 Cd9 2.973527 1_555
Cd25 Cd29 3.090138 1_555
Cd25 Cd26 3.090138 1_555
Cd25 Pr1 3.522717 1_555
Cd26 Cd28 3.090138 1_555
Cd26 Cd30 3.090151 1_555
Cd26 Pr2 3.522731 1_565
Cd27 Cd31 3.090138 1_555
Cd27 Cd28 3.090138 1_555
Cd27 Cd29 3.090144 1_555
Cd27 Pr0 3.522737 1_655
Cd28 Cd29 3.090138 1_555
Cd28 Cd30 3.090138 1_555
Cd28 Pr1 3.522717 1_655
Cd29 Cd9 2.973529 1_555
Cd29 Pr2 3.522731 1_555
Cd30 Cd31 3.090138 1_555
Cd30 Cd32 3.090151 1_555
Cd30 Pr0 3.522731 1_665
Cd31 Cd32 3.090138 1_555
Cd31 Pr1 3.522717 1_656
Cd32 Pr2 3.522731 1_566
