# generated using pymatgen
data_GaN
_symmetry_space_group_name_H-M   'P 1'
_cell_length_a   13.88559497
_cell_length_b   13.69109894
_cell_length_c   12.03800926
_cell_angle_alpha   83.60658513
_cell_angle_beta   91.34159957
_cell_angle_gamma   86.43861499
_symmetry_Int_Tables_number   1
_chemical_formula_structural   GaN
_chemical_formula_sum   'Ga50 N50'
_cell_volume   2268.84791648
_cell_formula_units_Z   50
loop_
 _symmetry_equiv_pos_site_id
 _symmetry_equiv_pos_as_xyz
  1  'x, y, z'
loop_
 _atom_site_type_symbol
 _atom_site_label
 _atom_site_symmetry_multiplicity
 _atom_site_fract_x
 _atom_site_fract_y
 _atom_site_fract_z
 _atom_site_occupancy
  Ga  Ga0  1  0.59340495  0.68996342  0.96699035  1
  Ga  Ga1  1  0.75334398  0.91598673  0.43768544  1
  Ga  Ga2  1  0.61449901  0.67490997  0.57518741  1
  Ga  Ga3  1  0.84207237  0.89096265  0.82927803  1
  Ga  Ga4  1  0.16165150  0.28115243  0.96743975  1
  Ga  Ga5  1  0.60750787  0.96705255  0.95081052  1
  Ga  Ga6  1  0.95428485  0.89530057  0.27967957  1
  Ga  Ga7  1  0.53188343  0.63789104  0.24769434  1
  Ga  Ga8  1  0.06625992  0.60177000  0.16317186  1
  Ga  Ga9  1  0.10579102  0.89811874  0.15035249  1
  Ga  Ga10  1  0.76940866  0.39181658  0.51461865  1
  Ga  Ga11  1  0.76421887  0.03293705  0.65563646  1
  Ga  Ga12  1  0.29026896  0.19072571  0.82003839  1
  Ga  Ga13  1  0.04372384  0.23070905  0.78910450  1
  Ga  Ga14  1  0.93568837  0.40723131  0.75232114  1
  Ga  Ga15  1  0.14947137  0.76567006  0.69997703  1
  Ga  Ga16  1  0.88569865  0.23162608  0.55471549  1
  Ga  Ga17  1  0.19081655  0.73238623  0.09064511  1
  Ga  Ga18  1  0.90255701  0.48674133  0.93827003  1
  Ga  Ga19  1  0.73019663  0.60946772  0.10650644  1
  Ga  Ga20  1  0.98122575  0.67668886  0.34088092  1
  Ga  Ga21  1  0.78331654  0.58062436  0.60652045  1
  Ga  Ga22  1  0.90899655  0.50123148  0.19005058  1
  Ga  Ga23  1  0.11647018  0.87120755  0.50695919  1
  Ga  Ga24  1  0.99550068  0.07143818  0.72211641  1
  Ga  Ga25  1  0.28545877  0.91055807  0.09898215  1
  Ga  Ga26  1  0.73997811  0.80515890  0.00175329  1
  Ga  Ga27  1  0.17563238  0.05700146  0.96538822  1
  Ga  Ga28  1  0.63737343  0.11033310  0.78558209  1
  Ga  Ga29  1  0.38023277  0.69347780  0.10548035  1
  Ga  Ga30  1  0.62433293  0.52816262  0.43225909  1
  Ga  Ga31  1  0.78503245  0.80512911  0.63799178  1
  Ga  Ga32  1  0.81768417  0.94830430  0.13140834  1
  Ga  Ga33  1  0.82369520  0.74966977  0.22419656  1
  Ga  Ga34  1  0.99529656  0.00757962  0.98732650  1
  Ga  Ga35  1  0.96894030  0.00052313  0.51621100  1
  Ga  Ga36  1  0.78237843  0.57131238  0.32598727  1
  Ga  Ga37  1  0.93755273  0.51105510  0.45135735  1
  Ga  Ga38  1  0.78712264  0.08482179  0.90871527  1
  Ga  Ga39  1  0.67702173  0.74037486  0.38066824  1
  Ga  Ga40  1  0.45468321  0.87685531  0.00547530  1
  Ga  Ga41  1  0.10686319  0.89788563  0.84172713  1
  Ga  Ga42  1  0.15712674  0.58453406  0.81449964  1
  Ga  Ga43  1  0.08492081  0.46870351  0.98413855  1
  Ga  Ga44  1  0.01962576  0.35625598  0.55620651  1
  Ga  Ga45  1  0.44499753  0.85954240  0.25837117  1
  Ga  Ga46  1  0.62714433  0.91407074  0.23787787  1
  Ga  Ga47  1  0.13724641  0.41845568  0.72307042  1
  Ga  Ga48  1  0.67012192  0.68453987  0.77395596  1
  Ga  Ga49  1  0.94201760  0.79483166  0.50946268  1
  N  N0  1  0.73340398  0.36315343  0.85628123  1
  N  N1  1  0.88385575  0.09218940  0.60146543  1
  N  N2  1  0.29643085  0.66179873  0.43798189  1
  N  N3  1  0.93162421  0.66161754  0.72534584  1
  N  N4  1  0.40663463  0.65627113  0.68384510  1
  N  N5  1  0.38440049  0.06801959  0.35906418  1
  N  N6  1  0.22525576  0.25149520  0.50198725  1
  N  N7  1  0.97217315  0.74919768  0.93346681  1
  N  N8  1  0.51146202  0.07001928  0.57328052  1
  N  N9  1  0.65395107  0.16210641  0.37435537  1
  N  N10  1  0.30790544  0.06796898  0.38388159  1
  N  N11  1  0.17462298  0.28484073  0.78878336  1
  N  N12  1  0.89113670  0.93650995  0.41192908  1
  N  N13  1  0.22981666  0.63104454  0.47236286  1
  N  N14  1  0.38823440  0.59993082  0.75250522  1
  N  N15  1  0.38609638  0.28842362  0.29469812  1
  N  N16  1  0.82764529  0.52148892  0.05373736  1
  N  N17  1  0.56145089  0.77150303  0.28043292  1
  N  N18  1  0.78021513  0.22944813  0.15464094  1
  N  N19  1  0.34194396  0.48808786  0.10615701  1
  N  N20  1  0.96893962  0.70165326  0.01571215  1
  N  N21  1  0.29285852  0.28736204  0.51860921  1
  N  N22  1  0.02685223  0.18360778  0.19072056  1
  N  N23  1  0.87004627  0.04503388  0.03167887  1
  N  N24  1  0.28918161  0.06840799  0.63183544  1
  N  N25  1  0.48677004  0.33902345  0.65092705  1
  N  N26  1  0.62893515  0.41817990  0.12874072  1
  N  N27  1  0.51093975  0.33321587  0.56447934  1
  N  N28  1  0.67776425  0.40238123  0.79649007  1
  N  N29  1  0.40602748  0.89084763  0.76307990  1
  N  N30  1  0.33807610  0.85201189  0.76584809  1
  N  N31  1  0.86728603  0.46209515  0.60988155  1
  N  N32  1  0.51739499  0.99002223  0.56381341  1
  N  N33  1  0.13429985  0.39323946  0.32392178  1
  N  N34  1  0.43435560  0.34572150  0.96400537  1
  N  N35  1  0.64405527  0.39294706  0.21912487  1
  N  N36  1  0.50775399  0.35926785  0.93422552  1
  N  N37  1  0.37402060  0.12737751  0.11197739  1
  N  N38  1  0.00433063  0.62015181  0.74749028  1
  N  N39  1  0.18593095  0.45018535  0.33682363  1
  N  N40  1  0.73300939  0.22285784  0.08058250  1
  N  N41  1  0.61427121  0.14614300  0.29784296  1
  N  N42  1  0.27854972  0.44416399  0.12657247  1
  N  N43  1  0.96877291  0.96133493  0.83428497  1
  N  N44  1  0.98570020  0.24711663  0.14190608  1
  N  N45  1  0.22259943  0.02674310  0.63320449  1
  N  N46  1  0.46695162  0.73898065  0.99149743  1
  N  N47  1  0.44610144  0.12360907  0.07360100  1
  N  N48  1  0.68589136  0.92425947  0.08848907  1
  N  N49  1  0.45583741  0.30609406  0.25716647  1
loop_
_geom_bond_atom_site_label_1
_geom_bond_atom_site_label_2
_geom_bond_distance
_geom_bond_site_symmetry_2
Ga0 N46 1.882147 1_555
Ga0 Ga48 2.585464 1_555
Ga1 N12 1.977651 1_555
Ga2 Ga48 2.517077 1_555
Ga2 Ga39 2.600902 1_555
Ga2 Ga21 2.603422 1_555
Ga2 Ga30 2.786112 1_555
Ga3 N43 2.060497 1_555
Ga4 N11 2.157648 1_555
Ga4 Ga43 2.748488 1_555
Ga5 N48 1.973530 1_556
Ga6 N12 1.955931 1_555
Ga6 Ga9 2.645958 1_655
Ga7 N17 1.979013 1_555
Ga8 N20 2.442284 1_455
Ga10 N31 2.103150 1_555
Ga10 Ga30 2.748237 1_555
Ga11 N1 1.985790 1_555
Ga11 Ga28 2.634083 1_555
Ga12 N11 1.996798 1_555
Ga12 Ga27 2.954038 1_555
Ga13 N11 2.005003 1_555
Ga14 N31 1.988660 1_555
Ga15 Ga23 2.610909 1_555
Ga15 Ga41 2.672205 1_555
Ga15 Ga42 2.694628 1_555
Ga16 N1 1.931135 1_555
Ga17 Ga29 2.648800 1_555
Ga17 Ga8 2.656834 1_555
Ga17 Ga9 2.670069 1_555
Ga17 Ga25 2.852057 1_555
Ga18 N16 1.842257 1_556
Ga18 Ga43 2.569928 1_655
Ga19 N16 1.921859 1_555
Ga19 Ga36 2.708247 1_555
Ga19 Ga33 2.864685 1_555
Ga20 Ga37 2.610725 1_555
Ga20 Ga33 2.651070 1_555
Ga20 Ga8 2.734818 1_655
Ga20 Ga49 2.775703 1_555
Ga20 Ga6 2.999647 1_555
Ga21 N31 1.934600 1_555
Ga21 Ga48 3.011044 1_555
Ga22 N16 1.954110 1_555
Ga22 Ga36 2.639018 1_555
Ga23 Ga35 2.635812 1_465
Ga23 Ga49 2.696913 1_455
Ga24 N43 1.968000 1_545
Ga24 N1 2.083607 1_555
Ga25 Ga9 2.595571 1_555
Ga25 Ga40 2.665760 1_555
Ga25 Ga27 2.778320 1_564
Ga25 Ga45 2.896056 1_555
Ga26 N48 2.139371 1_555
Ga26 Ga33 2.896620 1_555
Ga27 Ga34 2.645680 1_455
Ga27 Ga41 2.964407 1_545
Ga27 Ga4 3.065839 1_555
Ga28 Ga38 2.508587 1_555
Ga28 Ga5 2.692034 1_545
Ga29 N46 1.923796 1_554
Ga30 Ga36 2.631712 1_555
Ga30 Ga7 2.779333 1_555
Ga31 Ga48 2.792562 1_555
Ga32 N23 1.878888 1_565
Ga32 N48 1.947496 1_555
Ga32 Ga33 2.818041 1_555
Ga33 Ga36 2.708160 1_555
Ga33 Ga39 2.805452 1_555
Ga33 Ga6 2.898046 1_555
Ga34 N23 1.888493 1_556
Ga34 N43 2.046365 1_545
Ga34 Ga9 2.714722 1_646
Ga35 N12 1.951997 1_545
Ga35 N1 2.045380 1_555
Ga36 Ga37 2.636396 1_555
Ga36 Ga39 2.809774 1_555
Ga37 N31 2.219579 1_555
Ga38 N23 1.864497 1_556
Ga39 N17 1.980584 1_555
Ga40 N46 1.911206 1_554
Ga41 N43 2.051100 1_455
Ga42 N38 2.256917 1_555
Ga42 Ga43 2.694915 1_555
Ga43 Ga8 2.978767 1_556
Ga44 N31 2.623658 1_455
Ga45 N17 1.950547 1_555
Ga46 N48 1.986426 1_555
Ga46 N17 2.219204 1_555
Ga47 N11 1.944770 1_555
Ga49 N12 2.218995 1_555
N0 N28 1.113429 1_555
N3 N38 1.138017 1_655
N10 N5 1.110127 1_555
N13 N2 1.109807 1_555
N14 N4 1.111672 1_555
N15 N49 1.107113 1_555
N18 N40 1.109277 1_555
N19 N42 1.113504 1_555
N20 N7 1.126124 1_554
N21 N6 1.110268 1_555
N22 N44 1.112037 1_455
N24 N45 1.115604 1_555
N25 N27 1.110583 1_555
N26 N35 1.115279 1_555
N29 N30 1.110834 1_555
N32 N8 1.111922 1_565
N33 N39 1.112278 1_555
N34 N36 1.107892 1_555
N37 N47 1.112834 1_555
N41 N9 1.111629 1_555
