# generated using pymatgen
data_Rb(IrO2)6
_symmetry_space_group_name_H-M   'P 1'
_cell_length_a   8.60219440
_cell_length_b   8.60219798
_cell_length_c   8.60247180
_cell_angle_alpha   107.88892035
_cell_angle_beta   107.89198967
_cell_angle_gamma   112.68056376
_symmetry_Int_Tables_number   1
_chemical_formula_structural   Rb(IrO2)6
_chemical_formula_sum   'Rb2 Ir12 O24'
_cell_volume   488.87077218
_cell_formula_units_Z   2
loop_
 _symmetry_equiv_pos_site_id
 _symmetry_equiv_pos_as_xyz
  1  'x, y, z'
loop_
 _atom_site_type_symbol
 _atom_site_label
 _atom_site_symmetry_multiplicity
 _atom_site_fract_x
 _atom_site_fract_y
 _atom_site_fract_z
 _atom_site_occupancy
  Rb  Rb0  1  0.79716464  0.79717539  0.00002417  1
  Rb  Rb1  1  0.20283536  0.20282461  0.99997583  1
  Ir  Ir0  1  0.31487005  0.83182535  0.81372746  1
  Ir  Ir1  1  0.64811599  0.16555097  0.81366014  1
  Ir  Ir2  1  0.98189997  0.49885570  0.81373067  1
  Ir  Ir3  1  0.01810003  0.50114430  0.18626933  1
  Ir  Ir4  1  0.35188401  0.83444903  0.18633986  1
  Ir  Ir5  1  0.68512995  0.16817465  0.18627254  1
  Ir  Ir6  1  0.83445605  0.64809756  0.48254971  1
  Ir  Ir7  1  0.16814473  0.98187414  0.48303101  1
  Ir  Ir8  1  0.50115584  0.31488409  0.48302866  1
  Ir  Ir9  1  0.49884416  0.68511591  0.51697134  1
  Ir  Ir10  1  0.83185527  0.01812586  0.51696899  1
  Ir  Ir11  1  0.16554395  0.35190244  0.51745029  1
  O  O0  1  0.78757287  0.48932137  0.61041853  1
  O  O1  1  0.12110190  0.82284781  0.61042446  1
  O  O2  1  0.45439588  0.15485175  0.60924245  1
  O  O3  1  0.87889810  0.17715219  0.38957554  1
  O  O4  1  0.21242713  0.51067863  0.38958147  1
  O  O5  1  0.54560412  0.84514825  0.39075755  1
  O  O6  1  0.51066374  0.12111915  0.29819067  1
  O  O7  1  0.84510164  0.45438589  0.29949813  1
  O  O8  1  0.17708339  0.78753221  0.29819308  1
  O  O9  1  0.15489836  0.54561411  0.70050187  1
  O  O10  1  0.48933626  0.87888085  0.70180933  1
  O  O11  1  0.82291661  0.21246779  0.70180692  1
  O  O12  1  0.51172574  0.87301792  0.05136547  1
  O  O13  1  0.84604708  0.20478724  0.05084379  1
  O  O14  1  0.17835420  0.53964270  0.05136803  1
  O  O15  1  0.15395292  0.79521276  0.94915621  1
  O  O16  1  0.48827426  0.12698208  0.94863453  1
  O  O17  1  0.82164580  0.46035730  0.94863197  1
  O  O18  1  0.12699387  0.17836776  0.63870023  1
  O  O19  1  0.46033948  0.51171027  0.63869898  1
  O  O20  1  0.79523312  0.84603109  0.64127008  1
  O  O21  1  0.53966052  0.48828973  0.36130102  1
  O  O22  1  0.87300613  0.82163224  0.36129977  1
  O  O23  1  0.20476688  0.15396891  0.35872992  1
loop_
_geom_bond_atom_site_label_1
_geom_bond_atom_site_label_2
_geom_bond_distance
_geom_bond_site_symmetry_2
Ir0 O1 1.967112 1_555
Ir0 O9 1.998604 1_555
Ir0 O10 2.000478 1_555
Ir0 O12 2.034049 1_556
Ir0 O16 2.055178 1_565
Ir0 O15 2.062207 1_555
Ir1 O2 1.964549 1_555
Ir1 O11 2.002334 1_555
Ir1 O10 2.002445 1_545
Ir1 O13 2.043318 1_556
Ir1 O17 2.052883 1_555
Ir1 O16 2.052971 1_555
Ir2 O0 1.967171 1_555
Ir2 O9 1.998734 1_655
Ir2 O11 2.000491 1_555
Ir2 O14 2.034062 1_656
Ir2 O17 2.055182 1_555
Ir2 O15 2.062277 1_655
Ir3 O4 1.967171 1_555
Ir3 O7 1.998734 1_455
Ir3 O8 2.000491 1_555
Ir3 O17 2.034062 1_454
Ir3 O14 2.055182 1_555
Ir3 O13 2.062277 1_455
Ir4 O5 1.964549 1_555
Ir4 O8 2.002334 1_555
Ir4 O6 2.002445 1_565
Ir4 O15 2.043318 1_554
Ir4 O14 2.052883 1_555
Ir4 O12 2.052971 1_555
Ir5 O3 1.967112 1_555
Ir5 O7 1.998604 1_555
Ir5 O6 2.000478 1_555
Ir5 O16 2.034049 1_554
Ir5 O12 2.055178 1_545
Ir5 O13 2.062207 1_555
Ir6 O7 1.964437 1_555
Ir6 O1 2.002203 1_655
Ir6 O0 2.002217 1_555
Ir6 O20 2.043297 1_555
Ir6 O22 2.052717 1_555
Ir6 O21 2.052783 1_555
Ir7 O8 1.967286 1_555
Ir7 O2 1.998854 1_565
Ir7 O1 2.000674 1_555
Ir7 O18 2.034148 1_565
Ir7 O22 2.055028 1_455
Ir7 O23 2.062529 1_565
Ir8 O6 1.967246 1_555
Ir8 O2 1.998831 1_555
Ir8 O0 2.000644 1_555
Ir8 O19 2.034141 1_555
Ir8 O21 2.055003 1_555
Ir8 O23 2.062465 1_555
Ir9 O10 1.967246 1_555
Ir9 O5 1.998831 1_555
Ir9 O4 2.000644 1_555
Ir9 O21 2.034141 1_555
Ir9 O19 2.055003 1_555
Ir9 O20 2.062465 1_555
Ir10 O11 1.967286 1_555
Ir10 O5 1.998854 1_545
Ir10 O3 2.000674 1_555
Ir10 O22 2.034148 1_545
Ir10 O18 2.055028 1_655
Ir10 O20 2.062529 1_545
Ir11 O9 1.964437 1_555
Ir11 O3 2.002203 1_455
Ir11 O4 2.002217 1_555
Ir11 O23 2.043297 1_555
Ir11 O18 2.052717 1_555
Ir11 O19 2.052783 1_555
O12 Rb0 2.893858 1_555
O13 Rb0 3.235856 1_545
O13 Rb1 3.236074 1_654
O14 Rb1 2.894030 1_554
O15 Rb1 3.235856 1_565
O15 Rb0 3.236074 1_456
O16 Rb1 2.893858 1_555
O17 Rb0 2.894030 1_556
O18 Rb1 2.894016 1_555
O19 Rb0 2.894265 1_556
O20 Rb1 3.235801 1_665
O20 Rb0 3.236055 1_556
O21 Rb1 2.894265 1_554
O22 Rb0 2.894016 1_555
O23 Rb0 3.235801 1_445
O23 Rb1 3.236055 1_554
