# generated using pymatgen
data_Li4Co5SnO12
_symmetry_space_group_name_H-M   'P 1'
_cell_length_a   5.04084281
_cell_length_b   10.85164929
_cell_length_c   8.79826439
_cell_angle_alpha   66.05108785
_cell_angle_beta   89.92845740
_cell_angle_gamma   85.31938217
_symmetry_Int_Tables_number   1
_chemical_formula_structural   Li4Co5SnO12
_chemical_formula_sum   'Li8 Co10 Sn2 O24'
_cell_volume   438.10824037
_cell_formula_units_Z   2
loop_
 _symmetry_equiv_pos_site_id
 _symmetry_equiv_pos_as_xyz
  1  'x, y, z'
loop_
 _atom_site_type_symbol
 _atom_site_label
 _atom_site_symmetry_multiplicity
 _atom_site_fract_x
 _atom_site_fract_y
 _atom_site_fract_z
 _atom_site_occupancy
  Li  Li0  1  0.05495500  0.74705200  0.46343300  1
  Li  Li1  1  0.53046900  0.74628300  0.96093300  1
  Li  Li2  1  0.44500800  0.25286900  0.71128000  1
  Li  Li3  1  0.96936200  0.25401800  0.20737000  1
  Li  Li4  1  0.54540600  0.74499200  0.29669800  1
  Li  Li5  1  0.04438900  0.74575100  0.79219800  1
  Li  Li6  1  0.95561600  0.25507300  0.54138500  1
  Li  Li7  1  0.45580200  0.25429200  0.03839700  1
  Co  Co0  1  0.25014000  0.49996000  0.08376000  1
  Co  Co1  1  0.50024900  0.99989000  0.16700000  1
  Co  Co2  1  0.99969500  0.00011200  0.66690400  1
  Co  Co3  1  0.49967200  0.00009100  0.83331500  1
  Co  Co4  1  0.00038100  0.99991700  0.33341500  1
  Co  Co5  1  0.24937500  0.49970700  0.75333300  1
  Co  Co6  1  0.74980600  0.50018700  0.24425900  1
  Co  Co7  1  0.24883100  0.50006400  0.41249500  1
  Co  Co8  1  0.74908200  0.49971300  0.91613200  1
  Co  Co9  1  0.74959600  0.50036200  0.58316600  1
  Sn  Sn0  1  0.99899800  0.00047200  0.00006700  1
  Sn  Sn1  1  0.50096600  0.99949900  0.50049400  1
  O  O0  1  0.91086500  0.60297100  0.70751900  1
  O  O1  1  0.41461500  0.60229500  0.18825500  1
  O  O2  1  0.58916800  0.39666400  0.81014000  1
  O  O3  1  0.08614700  0.39767800  0.29166400  1
  O  O4  1  0.33809500  0.10747000  0.94659500  1
  O  O5  1  0.83911800  0.10685600  0.44656500  1
  O  O6  1  0.66088000  0.89313800  0.05327300  1
  O  O7  1  0.16188200  0.89249500  0.55402300  1
  O  O8  1  0.30367500  0.10702300  0.62459500  1
  O  O9  1  0.80401700  0.10745100  0.12513100  1
  O  O10  1  0.19636400  0.89301100  0.23152800  1
  O  O11  1  0.69608900  0.89250100  0.73260800  1
  O  O12  1  0.80247600  0.10752300  0.76789100  1
  O  O13  1  0.30493100  0.10630800  0.26926700  1
  O  O14  1  0.69743900  0.89251800  0.37539500  1
  O  O15  1  0.19508000  0.89361700  0.87551700  1
  O  O16  1  0.09801300  0.39059000  0.63090000  1
  O  O17  1  0.59917600  0.40213100  0.12966000  1
  O  O18  1  0.60869700  0.39685600  0.45359200  1
  O  O19  1  0.12497900  0.39028900  0.99185000  1
  O  O20  1  0.40305300  0.60933800  0.52167500  1
  O  O21  1  0.89834500  0.59713200  0.03299600  1
  O  O22  1  0.89394300  0.60413200  0.35115200  1
  O  O23  1  0.37515100  0.60970700  0.88217700  1
loop_
_geom_bond_atom_site_label_1
_geom_bond_atom_site_label_2
_geom_bond_distance
_geom_bond_site_symmetry_2
Li0 O20 2.127785 1_555
Li0 O7 2.139622 1_555
Li0 O10 2.176440 1_555
Li0 O14 2.210474 1_455
Li0 O0 2.244896 1_455
Li0 O22 2.343348 1_455
Li1 O23 2.077046 1_555
Li1 O1 2.095609 1_556
Li1 O15 2.136782 1_555
Li1 O6 2.203457 1_556
Li1 O11 2.207813 1_555
Li1 O21 2.267256 1_556
Li2 O16 2.124051 1_555
Li2 O4 2.133152 1_555
Li2 O8 2.181608 1_555
Li2 O12 2.209840 1_555
Li2 O2 2.237860 1_555
Li2 O18 2.364793 1_555
Li3 O19 2.075292 1_654
Li3 O3 2.101527 1_655
Li3 O13 2.139701 1_655
Li3 O5 2.202146 1_555
Li3 O9 2.213602 1_555
Li3 O17 2.270348 1_555
Li4 O20 2.098390 1_555
Li4 O22 2.149902 1_555
Li4 O14 2.175104 1_555
Li4 O10 2.190458 1_555
Li4 O6 2.205586 1_555
Li4 O1 2.260637 1_555
Li5 O23 2.058859 1_555
Li5 O0 2.125401 1_455
Li5 O7 2.172449 1_555
Li5 O11 2.182111 1_455
Li5 O15 2.200989 1_555
Li5 O21 2.246645 1_456
Li6 O16 2.100498 1_655
Li6 O18 2.149762 1_555
Li6 O12 2.176809 1_555
Li6 O8 2.187167 1_655
Li6 O5 2.207373 1_555
Li6 O3 2.248839 1_655
Li7 O19 2.058165 1_554
Li7 O2 2.125851 1_554
Li7 O4 2.177874 1_554
Li7 O9 2.182249 1_555
Li7 O13 2.197836 1_555
Li7 O17 2.230990 1_555
Co0 O23 1.834643 1_554
Co0 O19 1.836696 1_554
Co0 O17 1.932510 1_555
Co0 O1 1.935690 1_555
Co0 O3 1.938806 1_555
Co0 O21 1.941802 1_455
Co1 O10 1.940933 1_555
Co1 O13 1.941221 1_565
Co1 O9 1.945255 1_565
Co1 O6 1.945440 1_555
Co1 O14 1.946428 1_555
Co1 O4 1.949812 1_564
Co2 O8 1.941811 1_655
Co2 O15 1.941936 1_645
Co2 O11 1.944600 1_545
Co2 O5 1.944989 1_555
Co2 O12 1.945721 1_555
Co2 O7 1.949955 1_645
Co3 O12 1.940036 1_555
Co3 O15 1.941681 1_545
Co3 O11 1.943581 1_545
Co3 O6 1.943994 1_546
Co3 O8 1.944828 1_555
Co3 O4 1.949470 1_555
Co4 O14 1.940689 1_455
Co4 O13 1.940709 1_565
Co4 O9 1.944128 1_465
Co4 O10 1.944335 1_555
Co4 O5 1.944344 1_465
Co4 O7 1.949661 1_555
Co5 O0 1.911244 1_455
Co5 O2 1.915677 1_555
Co5 O19 2.074181 1_555
Co5 O16 2.080773 1_555
Co5 O23 2.082252 1_555
Co5 O20 2.085083 1_555
Co6 O1 1.891753 1_555
Co6 O3 1.898210 1_655
Co6 O18 1.898865 1_555
Co6 O21 1.913086 1_555
Co6 O22 1.918700 1_555
Co6 O17 1.931365 1_555
Co7 O22 1.986151 1_455
Co7 O16 1.993045 1_555
Co7 O20 2.002574 1_555
Co7 O18 2.004267 1_555
Co7 O3 2.036404 1_555
Co7 O1 2.047392 1_555
Co8 O17 1.932289 1_556
Co8 O21 1.937807 1_556
Co8 O0 1.940408 1_555
Co8 O2 1.940497 1_555
Co8 O23 2.100392 1_555
Co8 O19 2.106643 1_655
Co9 O20 1.971935 1_555
Co9 O16 1.983494 1_655
Co9 O2 2.056285 1_555
Co9 O22 2.056289 1_555
Co9 O0 2.058324 1_555
Co9 O18 2.058517 1_555
O4 Sn0 2.090395 1_456
O5 Sn1 2.088356 1_545
O6 Sn0 2.088086 1_565
O7 Sn1 2.090373 1_555
O8 Sn1 2.094015 1_545
O9 Sn0 2.091077 1_555
O10 Sn0 2.093941 1_465
O11 Sn1 2.092789 1_555
O12 Sn0 2.096280 1_556
O13 Sn1 2.088651 1_545
O14 Sn1 2.094524 1_555
O15 Sn0 2.089065 1_466
