# generated using pymatgen
data_Tm(TlTe2)3
_symmetry_space_group_name_H-M   'P 1'
_cell_length_a   13.65856573
_cell_length_b   12.30366319
_cell_length_c   64.78434406
_cell_angle_alpha   90.00000000
_cell_angle_beta   90.00000000
_cell_angle_gamma   123.71491586
_symmetry_Int_Tables_number   1
_chemical_formula_structural   Tm(TlTe2)3
_chemical_formula_sum   'Tm1 Tl3 Te6'
_cell_volume   9055.94031178
_cell_formula_units_Z   1
loop_
 _symmetry_equiv_pos_site_id
 _symmetry_equiv_pos_as_xyz
  1  'x, y, z'
loop_
 _atom_site_type_symbol
 _atom_site_label
 _atom_site_symmetry_multiplicity
 _atom_site_fract_x
 _atom_site_fract_y
 _atom_site_fract_z
 _atom_site_occupancy
  Tm  Tm0  1  0.00000000  -0.00000000  0.00000000  1
  Tl  Tl0  1  0.00000000  -0.00000000  0.50000000  1
  Tl  Tl1  1  0.50000000  0.50000000  0.00000000  1
  Tl  Tl2  1  0.00000000  0.50000000  0.00000000  1
  Te  Te0  1  0.00000000  -0.00000000  0.76496070  1
  Te  Te1  1  0.00000000  -0.00000000  0.23503930  1
  Te  Te2  1  0.76814926  0.75839603  -0.00000000  1
  Te  Te3  1  0.23185074  0.24160397  0.00000000  1
  Te  Te4  1  0.00975323  0.24160397  -0.00000000  1
  Te  Te5  1  0.99024677  0.75839603  0.00000000  1
loop_
_geom_bond_atom_site_label_1
_geom_bond_atom_site_label_2
_geom_bond_distance
_geom_bond_site_symmetry_2
Te2 Tm0 2.900788 1_665
Te2 Te5 3.033533 1_555
Te2 Tl1 3.255047 1_555
Te3 Tm0 2.900788 1_555
Te3 Te4 3.033533 1_555
Te3 Tl1 3.255047 1_555
Te4 Tm0 2.900789 1_555
Te4 Tl2 3.255047 1_555
Te5 Tm0 2.900789 1_665
Te5 Tl2 3.255047 1_655
