# generated using pymatgen
data_KN2
_symmetry_space_group_name_H-M   'P 1'
_cell_length_a   5.75861572
_cell_length_b   5.75861572
_cell_length_c   5.59298600
_cell_angle_alpha   90.00000000
_cell_angle_beta   90.00000000
_cell_angle_gamma   31.74865166
_symmetry_Int_Tables_number   1
_chemical_formula_structural   KN2
_chemical_formula_sum   'K2 N4'
_cell_volume   97.59459099
_cell_formula_units_Z   2
loop_
 _symmetry_equiv_pos_site_id
 _symmetry_equiv_pos_as_xyz
  1  'x, y, z'
loop_
 _atom_site_type_symbol
 _atom_site_label
 _atom_site_symmetry_multiplicity
 _atom_site_fract_x
 _atom_site_fract_y
 _atom_site_fract_z
 _atom_site_occupancy
  K  K0  1  0.87377300  0.87377300  0.79033200  1
  K  K1  1  0.12622700  0.12622700  0.29033200  1
  N  N0  1  0.87378800  0.87378800  0.29299200  1
  N  N1  1  0.12621200  0.12621200  0.79299200  1
  N  N2  1  0.62156800  0.62156800  0.79367700  1
  N  N3  1  0.37843200  0.37843200  0.29367700  1
loop_
_geom_bond_atom_site_label_1
_geom_bond_atom_site_label_2
_geom_bond_distance
_geom_bond_site_symmetry_2
K0 N0 2.781616 1_555
K0 N2 2.793992 1_555
K0 N1 2.796561 1_665
K0 N0 2.811370 1_556
K0 N1 3.162675 1_565
K0 N1 3.162675 1_655
K1 N1 2.781616 1_554
K1 N3 2.793992 1_555
K1 N0 2.796561 1_445
K1 N1 2.811370 1_555
K1 N0 3.162675 1_545
K1 N0 3.162675 1_455
N0 N3 1.575989 1_655
N0 N3 1.575989 1_565
N1 N2 1.575989 1_545
N1 N2 1.575989 1_455
