# generated using pymatgen
data_Rb2MnSi5O12
_symmetry_space_group_name_H-M   'P 1'
_cell_length_a   13.62735324
_cell_length_b   13.86193149
_cell_length_c   13.98079319
_cell_angle_alpha   90.00000000
_cell_angle_beta   90.00000000
_cell_angle_gamma   90.00000000
_symmetry_Int_Tables_number   1
_chemical_formula_structural   Rb2MnSi5O12
_chemical_formula_sum   'Rb16 Mn8 Si40 O96'
_cell_volume   2640.99192403
_cell_formula_units_Z   8
loop_
 _symmetry_equiv_pos_site_id
 _symmetry_equiv_pos_as_xyz
  1  'x, y, z'
loop_
 _atom_site_type_symbol
 _atom_site_label
 _atom_site_symmetry_multiplicity
 _atom_site_fract_x
 _atom_site_fract_y
 _atom_site_fract_z
 _atom_site_occupancy
  Rb  Rb0  1  0.37205418  0.65162865  0.86153868  1
  Rb  Rb1  1  0.87205418  0.34837135  0.63846132  1
  Rb  Rb2  1  0.62794582  0.84837135  0.36153868  1
  Rb  Rb3  1  0.12794582  0.15162865  0.13846132  1
  Rb  Rb4  1  0.62794582  0.34837135  0.13846132  1
  Rb  Rb5  1  0.12794582  0.65162865  0.36153868  1
  Rb  Rb6  1  0.37205418  0.15162865  0.63846132  1
  Rb  Rb7  1  0.87205418  0.84837135  0.86153868  1
  Rb  Rb8  1  0.11805865  0.89387056  0.60289671  1
  Rb  Rb9  1  0.61805865  0.10612944  0.89710329  1
  Rb  Rb10  1  0.88194135  0.60612944  0.10289671  1
  Rb  Rb11  1  0.38194135  0.39387056  0.39710329  1
  Rb  Rb12  1  0.88194135  0.10612944  0.39710329  1
  Rb  Rb13  1  0.38194135  0.89387056  0.10289671  1
  Rb  Rb14  1  0.11805865  0.39387056  0.89710329  1
  Rb  Rb15  1  0.61805865  0.60612944  0.60289671  1
  Mn  Mn0  1  0.12646730  0.44067535  0.16797906  1
  Mn  Mn1  1  0.62646730  0.55932465  0.33202094  1
  Mn  Mn2  1  0.87353270  0.05932465  0.66797906  1
  Mn  Mn3  1  0.37353270  0.94067535  0.83202094  1
  Mn  Mn4  1  0.87353270  0.55932465  0.83202094  1
  Mn  Mn5  1  0.37353270  0.44067535  0.66797906  1
  Mn  Mn6  1  0.12646730  0.94067535  0.33202094  1
  Mn  Mn7  1  0.62646730  0.05932465  0.16797906  1
  Si  Si0  1  0.37347316  0.10317329  0.33307298  1
  Si  Si1  1  0.87347316  0.89682671  0.16692702  1
  Si  Si2  1  0.62652684  0.39682671  0.83307298  1
  Si  Si3  1  0.12652684  0.60317329  0.66692702  1
  Si  Si4  1  0.62652684  0.89682671  0.66692702  1
  Si  Si5  1  0.12652684  0.10317329  0.83307298  1
  Si  Si6  1  0.37347316  0.60317329  0.16692702  1
  Si  Si7  1  0.87347316  0.39682671  0.33307298  1
  Si  Si8  1  0.90956818  0.13209458  0.88580551  1
  Si  Si9  1  0.40956818  0.86790542  0.61419449  1
  Si  Si10  1  0.09043182  0.36790542  0.38580551  1
  Si  Si11  1  0.59043182  0.63209458  0.11419449  1
  Si  Si12  1  0.09043182  0.86790542  0.11419449  1
  Si  Si13  1  0.59043182  0.13209458  0.38580551  1
  Si  Si14  1  0.90956818  0.63209458  0.61419449  1
  Si  Si15  1  0.40956818  0.36790542  0.88580551  1
  Si  Si16  1  0.85049985  0.60568522  0.40426810  1
  Si  Si17  1  0.35049985  0.39431478  0.09573190  1
  Si  Si18  1  0.14950015  0.89431478  0.90426810  1
  Si  Si19  1  0.64950015  0.10568522  0.59573190  1
  Si  Si20  1  0.14950015  0.39431478  0.59573190  1
  Si  Si21  1  0.64950015  0.60568522  0.90426810  1
  Si  Si22  1  0.85049985  0.10568522  0.09573190  1
  Si  Si23  1  0.35049985  0.89431478  0.40426810  1
  Si  Si24  1  0.59526435  0.31665152  0.63506678  1
  Si  Si25  1  0.09526435  0.68334848  0.86493322  1
  Si  Si26  1  0.40473565  0.18334848  0.13506678  1
  Si  Si27  1  0.90473565  0.81665152  0.36493322  1
  Si  Si28  1  0.40473565  0.68334848  0.36493322  1
  Si  Si29  1  0.90473565  0.31665152  0.13506678  1
  Si  Si30  1  0.59526435  0.81665152  0.86493322  1
  Si  Si31  1  0.09526435  0.18334848  0.63506678  1
  Si  Si32  1  0.67154662  0.84303371  0.07582630  1
  Si  Si33  1  0.17154662  0.15696629  0.42417370  1
  Si  Si34  1  0.32845338  0.65696629  0.57582630  1
  Si  Si35  1  0.82845338  0.34303371  0.92417370  1
  Si  Si36  1  0.32845338  0.15696629  0.92417370  1
  Si  Si37  1  0.82845338  0.84303371  0.57582630  1
  Si  Si38  1  0.67154662  0.34303371  0.42417370  1
  Si  Si39  1  0.17154662  0.65696629  0.07582630  1
  O  O0  1  0.02556866  0.66026498  0.63901340  1
  O  O1  1  0.52556866  0.33973502  0.86098660  1
  O  O2  1  0.97443134  0.83973502  0.13901340  1
  O  O3  1  0.47443134  0.16026498  0.36098660  1
  O  O4  1  0.97443134  0.33973502  0.36098660  1
  O  O5  1  0.47443134  0.66026498  0.13901340  1
  O  O6  1  0.02556866  0.16026498  0.86098660  1
  O  O7  1  0.52556866  0.83973502  0.63901340  1
  O  O8  1  0.41378943  0.90758049  0.50344987  1
  O  O9  1  0.91378943  0.09241951  0.99655013  1
  O  O10  1  0.58621057  0.59241951  0.00344987  1
  O  O11  1  0.08621057  0.40758049  0.49655013  1
  O  O12  1  0.58621057  0.09241951  0.49655013  1
  O  O13  1  0.08621057  0.90758049  0.00344987  1
  O  O14  1  0.41378943  0.40758049  0.99655013  1
  O  O15  1  0.91378943  0.59241951  0.50344987  1
  O  O16  1  0.11510963  0.98622136  0.83549900  1
  O  O17  1  0.61510963  0.01377864  0.66450100  1
  O  O18  1  0.88489037  0.51377864  0.33549900  1
  O  O19  1  0.38489037  0.48622136  0.16450100  1
  O  O20  1  0.88489037  0.01377864  0.16450100  1
  O  O21  1  0.38489037  0.98622136  0.33549900  1
  O  O22  1  0.11510963  0.48622136  0.66450100  1
  O  O23  1  0.61510963  0.51377864  0.83549900  1
  O  O24  1  0.76528666  0.11327643  0.57990669  1
  O  O25  1  0.26528666  0.88672357  0.92009331  1
  O  O26  1  0.23471334  0.38672357  0.07990669  1
  O  O27  1  0.73471334  0.61327643  0.42009331  1
  O  O28  1  0.23471334  0.88672357  0.42009331  1
  O  O29  1  0.73471334  0.11327643  0.07990669  1
  O  O30  1  0.76528666  0.61327643  0.92009331  1
  O  O31  1  0.26528666  0.38672357  0.57990669  1
  O  O32  1  0.84164968  0.86687137  0.27590283  1
  O  O33  1  0.34164968  0.13312863  0.22409717  1
  O  O34  1  0.15835032  0.63312863  0.77590283  1
  O  O35  1  0.65835032  0.36687137  0.72409717  1
  O  O36  1  0.15835032  0.13312863  0.72409717  1
  O  O37  1  0.65835032  0.86687137  0.77590283  1
  O  O38  1  0.84164968  0.36687137  0.22409717  1
  O  O39  1  0.34164968  0.63312863  0.27590283  1
  O  O40  1  0.15282432  0.26666782  0.38420810  1
  O  O41  1  0.65282432  0.73333218  0.11579190  1
  O  O42  1  0.84717568  0.23333218  0.88420810  1
  O  O43  1  0.34717568  0.76666782  0.61579190  1
  O  O44  1  0.84717568  0.73333218  0.61579190  1
  O  O45  1  0.34717568  0.26666782  0.88420810  1
  O  O46  1  0.15282432  0.76666782  0.11579190  1
  O  O47  1  0.65282432  0.23333218  0.38420810  1
  O  O48  1  0.51548749  0.14848828  0.12597250  1
  O  O49  1  0.01548749  0.85151172  0.37402750  1
  O  O50  1  0.48451251  0.35151172  0.62597250  1
  O  O51  1  0.98451251  0.64848828  0.87402750  1
  O  O52  1  0.48451251  0.85151172  0.87402750  1
  O  O53  1  0.98451251  0.14848828  0.62597250  1
  O  O54  1  0.51548749  0.64848828  0.37402750  1
  O  O55  1  0.01548749  0.35151172  0.12597250  1
  O  O56  1  0.83719016  0.34572067  0.04174273  1
  O  O57  1  0.33719016  0.65427933  0.45825727  1
  O  O58  1  0.16280984  0.15427933  0.54174273  1
  O  O59  1  0.66280984  0.84572067  0.95825727  1
  O  O60  1  0.16280984  0.65427933  0.95825727  1
  O  O61  1  0.66280984  0.34572067  0.54174273  1
  O  O62  1  0.83719016  0.84572067  0.45825727  1
  O  O63  1  0.33719016  0.15427933  0.04174273  1
  O  O64  1  0.60224520  0.41809562  0.37022948  1
  O  O65  1  0.10224520  0.58190438  0.12977052  1
  O  O66  1  0.39775480  0.08190438  0.87022948  1
  O  O67  1  0.89775480  0.91809562  0.62977052  1
  O  O68  1  0.39775480  0.58190438  0.62977052  1
  O  O69  1  0.89775480  0.41809562  0.87022948  1
  O  O70  1  0.60224520  0.91809562  0.12977052  1
  O  O71  1  0.10224520  0.08190438  0.37022948  1
  O  O72  1  0.29121519  0.63922555  0.09029073  1
  O  O73  1  0.79121519  0.36077445  0.40970927  1
  O  O74  1  0.70878481  0.86077445  0.59029073  1
  O  O75  1  0.20878481  0.13922555  0.90970927  1
  O  O76  1  0.70878481  0.36077445  0.90970927  1
  O  O77  1  0.20878481  0.63922555  0.59029073  1
  O  O78  1  0.29121519  0.13922555  0.40970927  1
  O  O79  1  0.79121519  0.86077445  0.09029073  1
  O  O80  1  0.36220288  0.44456064  0.81427226  1
  O  O81  1  0.86220288  0.55543936  0.68572774  1
  O  O82  1  0.63779712  0.05543936  0.31427226  1
  O  O83  1  0.13779712  0.94456064  0.18572774  1
  O  O84  1  0.63779712  0.55543936  0.18572774  1
  O  O85  1  0.13779712  0.44456064  0.31427226  1
  O  O86  1  0.36220288  0.94456064  0.68572774  1
  O  O87  1  0.86220288  0.05543936  0.81427226  1
  O  O88  1  0.60165459  0.69896043  0.84680945  1
  O  O89  1  0.10165459  0.30103957  0.65319055  1
  O  O90  1  0.39834541  0.80103957  0.34680945  1
  O  O91  1  0.89834541  0.19896043  0.15319055  1
  O  O92  1  0.39834541  0.30103957  0.15319055  1
  O  O93  1  0.89834541  0.69896043  0.34680945  1
  O  O94  1  0.60165459  0.19896043  0.65319055  1
  O  O95  1  0.10165459  0.80103957  0.84680945  1
loop_
_geom_bond_atom_site_label_1
_geom_bond_atom_site_label_2
_geom_bond_distance
_geom_bond_site_symmetry_2
Mn0 O55 2.039555 1_555
Mn0 O85 2.051821 1_555
Mn0 O65 2.055949 1_555
Mn0 O26 2.061895 1_555
Mn1 O54 2.039555 1_555
Mn1 O84 2.051821 1_555
Mn1 O64 2.055949 1_555
Mn1 O27 2.061895 1_555
Mn2 O53 2.039555 1_555
Mn2 O87 2.051821 1_555
Mn2 O67 2.055949 1_545
Mn2 O24 2.061895 1_555
Mn3 O52 2.039555 1_555
Mn3 O86 2.051821 1_555
Mn3 O66 2.055949 1_565
Mn3 O25 2.061895 1_555
Mn4 O51 2.039555 1_555
Mn4 O81 2.051821 1_555
Mn4 O69 2.055949 1_555
Mn4 O30 2.061895 1_555
Mn5 O50 2.039555 1_555
Mn5 O80 2.051821 1_555
Mn5 O68 2.055949 1_555
Mn5 O31 2.061895 1_555
Mn6 O49 2.039555 1_555
Mn6 O83 2.051821 1_555
Mn6 O71 2.055949 1_565
Mn6 O28 2.061895 1_555
Mn7 O48 2.039555 1_555
Mn7 O82 2.051821 1_555
Mn7 O70 2.055949 1_545
Mn7 O29 2.061895 1_555
O0 Si3 1.634448 1_555
O0 Si14 1.664858 1_455
O1 Si2 1.634448 1_555
O1 Si15 1.664858 1_555
O2 Si1 1.634448 1_555
O2 Si12 1.664858 1_655
O3 Si0 1.634448 1_555
O3 Si13 1.664858 1_555
O4 Si7 1.634448 1_555
O4 Si10 1.664858 1_655
O5 Si6 1.634448 1_555
O5 Si11 1.664858 1_555
O6 Si5 1.634448 1_555
O6 Si8 1.664858 1_455
O7 Si4 1.634448 1_555
O7 Si9 1.664858 1_555
O8 Si23 1.643301 1_555
O8 Si9 1.644082 1_555
O9 Si22 1.643301 1_556
O9 Si8 1.644082 1_555
O10 Si21 1.643301 1_554
O10 Si11 1.644082 1_555
O11 Si20 1.643301 1_555
O11 Si10 1.644082 1_555
O12 Si19 1.643301 1_555
O12 Si13 1.644082 1_555
O13 Si18 1.643301 1_554
O13 Si12 1.644082 1_555
O14 Si17 1.643301 1_556
O14 Si15 1.644082 1_555
O15 Si16 1.643301 1_555
O15 Si14 1.644082 1_555
O16 Si5 1.628982 1_565
O16 Si18 1.663459 1_555
O17 Si4 1.628982 1_545
O17 Si19 1.663459 1_555
O18 Si7 1.628982 1_555
O18 Si16 1.663459 1_555
O19 Si6 1.628982 1_555
O19 Si17 1.663459 1_555
O20 Si1 1.628982 1_545
O20 Si22 1.663459 1_555
O21 Si0 1.628982 1_565
O21 Si23 1.663459 1_555
O22 Si3 1.628982 1_555
O22 Si20 1.663459 1_555
O23 Si2 1.628982 1_555
O23 Si21 1.663459 1_555
O24 Si19 1.596771 1_555
O24 Rb12 3.011434 1_555
O25 Si18 1.596771 1_555
O25 Rb13 3.011434 1_556
O26 Si17 1.596771 1_555
O26 Rb14 3.011434 1_554
O27 Si16 1.596771 1_555
O27 Rb15 3.011434 1_555
O28 Si23 1.596771 1_555
O28 Rb8 3.011434 1_555
O29 Si22 1.596771 1_555
O29 Rb9 3.011434 1_554
O30 Si21 1.596771 1_555
O30 Rb10 3.011434 1_556
O31 Si20 1.596771 1_555
O31 Rb11 3.011434 1_555
O32 Si1 1.637606 1_555
O32 Si27 1.665235 1_555
O32 Rb2 3.159146 1_555
O33 Si0 1.637606 1_555
O33 Si26 1.665235 1_555
O33 Rb3 3.159146 1_555
O34 Si3 1.637606 1_555
O34 Si25 1.665235 1_555
O34 Rb0 3.159146 1_555
O35 Si2 1.637606 1_555
O35 Si24 1.665235 1_555
O35 Rb1 3.159146 1_555
O36 Si5 1.637606 1_555
O36 Si31 1.665235 1_555
O36 Rb6 3.159146 1_555
O37 Si4 1.637606 1_555
O37 Si30 1.665235 1_555
O37 Rb7 3.159146 1_555
O38 Si7 1.637606 1_555
O38 Si29 1.665235 1_555
O38 Rb4 3.159146 1_555
O39 Si6 1.637606 1_555
O39 Si28 1.665235 1_555
O39 Rb5 3.159146 1_555
O40 Si33 1.640046 1_555
O40 Si10 1.640976 1_555
O41 Si32 1.640046 1_555
O41 Si11 1.640976 1_555
O42 Si35 1.640046 1_555
O42 Si8 1.640976 1_555
O43 Si34 1.640046 1_555
O43 Si9 1.640976 1_555
O44 Si37 1.640046 1_555
O44 Si14 1.640976 1_555
O45 Si36 1.640046 1_555
O45 Si15 1.640976 1_555
O46 Si39 1.640046 1_555
O46 Si12 1.640976 1_555
O47 Si38 1.640046 1_555
O47 Si13 1.640976 1_555
O48 Si26 1.589819 1_555
O48 Rb4 3.171153 1_555
O49 Si27 1.589819 1_455
O49 Rb5 3.171153 1_555
O50 Si24 1.589819 1_555
O50 Rb6 3.171153 1_555
O51 Si25 1.589819 1_655
O51 Rb7 3.171153 1_555
O52 Si30 1.589819 1_555
O52 Rb0 3.171153 1_555
O53 Si31 1.589819 1_655
O53 Rb1 3.171153 1_555
O54 Si28 1.589819 1_555
O54 Rb2 3.171153 1_555
O55 Si29 1.589819 1_455
O55 Rb3 3.171153 1_555
O56 Si29 1.646811 1_555
O56 Si35 1.648435 1_554
O56 Rb4 3.156034 1_555
O57 Si28 1.646811 1_555
O57 Si34 1.648435 1_555
O57 Rb5 3.156034 1_555
O58 Si31 1.646811 1_555
O58 Si33 1.648435 1_555
O58 Rb6 3.156034 1_555
O59 Si30 1.646811 1_555
O59 Si32 1.648435 1_556
O59 Rb7 3.156034 1_555
O60 Si25 1.646811 1_555
O60 Si39 1.648435 1_556
O60 Rb0 3.156034 1_555
O61 Si24 1.646811 1_555
O61 Si38 1.648435 1_555
O61 Rb1 3.156034 1_555
O62 Si27 1.646811 1_555
O62 Si37 1.648435 1_555
O62 Rb2 3.156034 1_555
O63 Si26 1.646811 1_555
O63 Si36 1.648435 1_554
O63 Rb3 3.156034 1_555
O64 Si38 1.594779 1_555
O64 Rb11 3.044156 1_555
O64 Rb4 3.399466 1_555
O65 Si39 1.594779 1_555
O65 Rb10 3.044156 1_455
O65 Rb5 3.399466 1_555
O66 Si36 1.594779 1_555
O66 Rb9 3.044156 1_555
O66 Rb6 3.399466 1_555
O67 Si37 1.594779 1_555
O67 Rb8 3.044156 1_655
O67 Rb7 3.399466 1_555
O68 Si34 1.594779 1_555
O68 Rb15 3.044156 1_555
O68 Rb0 3.399466 1_555
O69 Si35 1.594779 1_555
O69 Rb14 3.044156 1_655
O69 Rb1 3.399466 1_555
O70 Si32 1.594779 1_555
O70 Rb13 3.044156 1_555
O70 Rb2 3.399466 1_555
O71 Si33 1.594779 1_555
O71 Rb12 3.044156 1_455
O71 Rb3 3.399466 1_555
O72 Si6 1.629195 1_555
O72 Si39 1.661556 1_555
O72 Rb0 3.386916 1_554
O73 Si7 1.629195 1_555
O73 Si38 1.661556 1_555
O73 Rb1 3.386916 1_555
O74 Si4 1.629195 1_555
O74 Si37 1.661556 1_555
O74 Rb2 3.386916 1_555
O75 Si5 1.629195 1_555
O75 Si36 1.661556 1_555
O75 Rb3 3.386916 1_556
O76 Si2 1.629195 1_555
O76 Si35 1.661556 1_555
O76 Rb4 3.386916 1_556
O77 Si3 1.629195 1_555
O77 Si34 1.661556 1_555
O77 Rb5 3.386916 1_555
O78 Si0 1.629195 1_555
O78 Si33 1.661556 1_555
O78 Rb6 3.386916 1_555
O79 Si1 1.629195 1_555
O79 Si32 1.661556 1_555
O79 Rb7 3.386916 1_554
O80 Si15 1.595589 1_555
O80 Rb0 2.948506 1_555
O81 Si14 1.595589 1_555
O81 Rb1 2.948506 1_555
O82 Si13 1.595589 1_555
O82 Rb2 2.948506 1_545
O83 Si12 1.595589 1_555
O83 Rb3 2.948506 1_565
O84 Si11 1.595589 1_555
O84 Rb4 2.948506 1_555
O85 Si10 1.595589 1_555
O85 Rb5 2.948506 1_555
O86 Si9 1.595589 1_555
O86 Rb6 2.948506 1_565
O87 Si8 1.595589 1_555
O87 Rb7 2.948506 1_545
O88 Si30 1.653281 1_555
O88 Si21 1.655964 1_555
O88 Rb0 3.203523 1_555
O89 Si31 1.653281 1_555
O89 Si20 1.655964 1_555
O89 Rb1 3.203523 1_455
O90 Si28 1.653281 1_555
O90 Si23 1.655964 1_555
O90 Rb2 3.203523 1_555
O91 Si29 1.653281 1_555
O91 Si22 1.655964 1_555
O91 Rb3 3.203523 1_655
O92 Si26 1.653281 1_555
O92 Si17 1.655964 1_555
O92 Rb4 3.203523 1_555
O93 Si27 1.653281 1_555
O93 Si16 1.655964 1_555
O93 Rb5 3.203523 1_655
O94 Si24 1.653281 1_555
O94 Si19 1.655964 1_555
O94 Rb6 3.203523 1_555
O95 Si25 1.653281 1_555
O95 Si18 1.655964 1_555
O95 Rb7 3.203523 1_455
