# generated using pymatgen
data_NaPrEuWO6
_symmetry_space_group_name_H-M   'P 1'
_cell_length_a   5.72432999
_cell_length_b   5.72432999
_cell_length_c   8.34083023
_cell_angle_alpha   90.00000000
_cell_angle_beta   90.00000000
_cell_angle_gamma   90.00000000
_symmetry_Int_Tables_number   1
_chemical_formula_structural   NaPrEuWO6
_chemical_formula_sum   'Na2 Pr2 Eu2 W2 O12'
_cell_volume   273.31193992
_cell_formula_units_Z   2
loop_
 _symmetry_equiv_pos_site_id
 _symmetry_equiv_pos_as_xyz
  1  'x, y, z'
loop_
 _atom_site_type_symbol
 _atom_site_label
 _atom_site_symmetry_multiplicity
 _atom_site_fract_x
 _atom_site_fract_y
 _atom_site_fract_z
 _atom_site_occupancy
  Na  Na0  1  0.00000000  0.00000000  -0.00000000  1
  Na  Na1  1  0.50000000  0.50000000  0.50000000  1
  Pr  Pr0  1  0.50000000  0.00000000  0.25000000  1
  Pr  Pr1  1  0.00000000  0.50000000  0.75000000  1
  Eu  Eu0  1  0.00000000  0.50000000  0.25000000  1
  Eu  Eu1  1  0.50000000  0.00000000  0.75000000  1
  W  W0  1  0.00000000  0.00000000  0.50000000  1
  W  W1  1  0.50000000  0.50000000  -0.00000000  1
  O  O0  1  0.00000000  0.00000000  0.26455204  1
  O  O1  1  0.50000000  0.50000000  0.23544796  1
  O  O2  1  0.00000000  0.00000000  0.73544796  1
  O  O3  1  0.50000000  0.50000000  0.76455204  1
  O  O4  1  0.34786776  0.19587304  0.00976028  1
  O  O5  1  0.65213224  0.80412696  0.00976028  1
  O  O6  1  0.80412696  0.34786776  0.99023972  1
  O  O7  1  0.19587304  0.65213224  0.99023972  1
  O  O8  1  0.84786776  0.30412696  0.50976028  1
  O  O9  1  0.15213224  0.69587304  0.50976028  1
  O  O10  1  0.30412696  0.15213224  0.49023972  1
  O  O11  1  0.69587304  0.84786776  0.49023972  1
loop_
_geom_bond_atom_site_label_1
_geom_bond_atom_site_label_2
_geom_bond_distance
_geom_bond_site_symmetry_2
Na0 O2 2.206584 1_554
Na0 O0 2.206584 1_555
Na0 O7 2.286728 1_544
Na0 O5 2.286728 1_445
Na0 O4 2.286728 1_555
Na0 O6 2.286728 1_454
Na1 O1 2.206584 1_555
Na1 O3 2.206584 1_555
Na1 O10 2.286728 1_555
Na1 O9 2.286728 1_555
Na1 O8 2.286728 1_555
Na1 O11 2.286728 1_555
Eu0 O9 2.590328 1_555
Eu0 O7 2.590328 1_554
Eu0 O6 2.590328 1_454
Eu0 O8 2.590328 1_455
Eu0 O0 2.864737 1_555
Eu0 O1 2.864737 1_555
Eu0 O1 2.864737 1_455
Eu0 O0 2.864737 1_565
Eu1 O10 2.590328 1_555
Eu1 O11 2.590328 1_545
Eu1 O4 2.590328 1_556
Eu1 O5 2.590328 1_546
Eu1 O2 2.864737 1_555
Eu1 O3 2.864737 1_555
Eu1 O2 2.864737 1_655
Eu1 O3 2.864737 1_545
O0 W0 1.963831 1_555
O0 Pr0 2.864737 1_555
O0 Pr0 2.864737 1_455
O1 W1 1.963831 1_555
O1 Pr0 2.864737 1_565
O1 Pr0 2.864737 1_555
O2 W0 1.963831 1_555
O2 Pr1 2.864737 1_555
O2 Pr1 2.864737 1_545
O3 W1 1.963831 1_556
O3 Pr1 2.864737 1_555
O3 Pr1 2.864737 1_655
O4 W1 1.948289 1_555
O4 Pr0 2.455765 1_555
O5 W1 1.948289 1_555
O5 Pr0 2.455765 1_565
O6 W1 1.948289 1_556
O6 Pr1 2.455765 1_655
O7 W1 1.948289 1_556
O7 Pr1 2.455765 1_555
O8 W0 1.948289 1_655
O8 Pr1 2.455765 1_655
O9 W0 1.948289 1_565
O9 Pr1 2.455765 1_555
O10 W0 1.948289 1_555
O10 Pr0 2.455765 1_555
O11 W0 1.948289 1_665
O11 Pr0 2.455765 1_565
