# generated using pymatgen
data_Ca3Cu6(AsO4)8
_symmetry_space_group_name_H-M   'P 1'
_cell_length_a   5.03297900
_cell_length_b   9.48753442
_cell_length_c   14.94476189
_cell_angle_alpha   83.81740626
_cell_angle_beta   89.67488505
_cell_angle_gamma   89.06272041
_symmetry_Int_Tables_number   1
_chemical_formula_structural   Ca3Cu6(AsO4)8
_chemical_formula_sum   'Ca3 Cu6 As8 O32'
_cell_volume   709.36973811
_cell_formula_units_Z   1
loop_
 _symmetry_equiv_pos_site_id
 _symmetry_equiv_pos_as_xyz
  1  'x, y, z'
loop_
 _atom_site_type_symbol
 _atom_site_label
 _atom_site_symmetry_multiplicity
 _atom_site_fract_x
 _atom_site_fract_y
 _atom_site_fract_z
 _atom_site_occupancy
  Ca  Ca0  1  0.95741400  0.04496500  0.26417100  1
  Ca  Ca1  1  0.98993600  0.99646800  0.99307800  1
  Ca  Ca2  1  0.49465400  0.50336800  0.50328400  1
  Cu  Cu0  1  0.96695700  0.66135900  0.11782400  1
  Cu  Cu1  1  0.02121700  0.33239400  0.88027400  1
  Cu  Cu2  1  0.48159500  0.82614700  0.38360700  1
  Cu  Cu3  1  0.51857900  0.16952900  0.62033200  1
  Cu  Cu4  1  0.49900700  0.50001800  0.99958100  1
  Cu  Cu5  1  0.99959500  0.00005000  0.50253000  1
  As  As0  1  0.50121600  0.11897000  0.83912500  1
  As  As1  1  0.99236200  0.65565100  0.90412500  1
  As  As2  1  0.49540400  0.84488000  0.59614300  1
  As  As3  1  0.50775800  0.15494600  0.40786300  1
  As  As4  1  0.49535000  0.88016800  0.15903300  1
  As  As5  1  0.00500700  0.34375100  0.09098800  1
  As  As6  1  0.99704400  0.62366300  0.33772700  1
  As  As7  1  0.99688800  0.37957200  0.66211900  1
  O  O0  1  0.94106800  0.42440300  0.77041500  1
  O  O1  1  0.41730700  0.75356400  0.50252000  1
  O  O2  1  0.90405000  0.76322900  0.81537300  1
  O  O3  1  0.87972000  0.21093800  0.64680300  1
  O  O4  1  0.09755400  0.23870300  0.18171400  1
  O  O5  1  0.55237100  0.92014500  0.27029000  1
  O  O6  1  0.40534100  0.73721000  0.68480700  1
  O  O7  1  0.18017800  0.09737000  0.40197500  1
  O  O8  1  0.14186700  0.49145700  0.40611800  1
  O  O9  1  0.05664800  0.57775600  0.22996500  1
  O  O10  1  0.61162700  0.71102400  0.14624500  1
  O  O11  1  0.82273000  0.90185200  0.59808400  1
  O  O12  1  0.81138200  0.49258800  0.92935400  1
  O  O13  1  0.86080400  0.51541300  0.59425700  1
  O  O14  1  0.16106200  0.88902500  0.14042400  1
  O  O15  1  0.66592300  0.63476800  0.36589000  1
  O  O16  1  0.31290700  0.00945500  0.57106600  1
  O  O17  1  0.62383900  0.23160000  0.31049300  1
  O  O18  1  0.66674300  0.01530200  0.10355600  1
  O  O19  1  0.67743400  0.40332400  0.09740700  1
  O  O20  1  0.32857300  0.36244500  0.63453000  1
  O  O21  1  0.82950600  0.13533600  0.86539000  1
  O  O22  1  0.57632700  0.24953500  0.49760200  1
  O  O23  1  0.91954000  0.74517300  0.99934400  1
  O  O24  1  0.19196000  0.50392100  0.07389600  1
  O  O25  1  0.44485300  0.07570500  0.73025500  1
  O  O26  1  0.10889100  0.79678400  0.34928700  1
  O  O27  1  0.36873200  0.98436800  0.90781100  1
  O  O28  1  0.08673900  0.25103400  0.99987200  1
  O  O29  1  0.32236900  0.59660700  0.90257800  1
  O  O30  1  0.70184200  0.99095100  0.42603200  1
  O  O31  1  0.37837500  0.28914000  0.85202800  1
loop_
_geom_bond_atom_site_label_1
_geom_bond_atom_site_label_2
_geom_bond_distance
_geom_bond_site_symmetry_2
Ca0 O4 2.222454 1_655
Ca0 O5 2.370673 1_545
Ca0 O7 2.451639 1_655
Ca0 O17 2.566486 1_555
Ca0 O26 2.655316 1_645
Ca0 O14 2.679142 1_645
Ca0 O30 2.736391 1_545
Ca0 O18 2.860056 1_555
Ca1 O27 2.295304 1_655
Ca1 O18 2.329682 1_566
Ca1 O21 2.338895 1_565
Ca1 O23 2.407849 1_555
Ca1 O14 2.477748 1_656
Ca1 O28 2.484506 1_665
Ca2 O13 2.307874 1_555
Ca2 O8 2.311979 1_555
Ca2 O1 2.397981 1_555
Ca2 O20 2.405543 1_555
Ca2 O15 2.444796 1_555
Ca2 O22 2.446857 1_555
Cu0 O9 1.830894 1_655
Cu0 O23 1.876115 1_554
Cu0 O10 1.899373 1_555
Cu0 O24 2.022862 1_655
Cu0 O14 2.442116 1_655
Cu1 O0 1.818680 1_455
Cu1 O31 1.892729 1_555
Cu1 O28 1.897483 1_555
Cu1 O12 2.035213 1_455
Cu1 O21 2.151018 1_455
Cu2 O5 1.862359 1_555
Cu2 O1 1.863935 1_555
Cu2 O26 1.979429 1_555
Cu2 O15 2.067183 1_555
Cu2 O30 2.086570 1_555
Cu3 O25 1.821451 1_555
Cu3 O3 1.918221 1_555
Cu3 O22 1.930314 1_555
Cu3 O16 2.054511 1_555
Cu3 O20 2.081730 1_555
Cu4 O29 1.852981 1_555
Cu4 O19 1.866682 1_556
Cu4 O12 1.889920 1_555
Cu4 O24 1.900131 1_556
Cu5 O11 1.850886 1_545
Cu5 O16 1.893744 1_655
Cu5 O30 1.898723 1_545
Cu5 O7 1.910492 1_655
As0 O27 1.693183 1_545
As0 O21 1.713792 1_555
As0 O25 1.746171 1_555
As0 O31 1.749018 1_555
As1 O2 1.642807 1_555
As1 O29 1.744965 1_655
As1 O23 1.767752 1_555
As1 O12 1.811579 1_555
As2 O6 1.649711 1_555
As2 O11 1.743579 1_555
As2 O1 1.772357 1_555
As2 O16 1.803621 1_565
As3 O17 1.662546 1_555
As3 O22 1.731387 1_555
As3 O7 1.750949 1_555
As3 O30 1.819628 1_545
As4 O18 1.695393 1_565
As4 O14 1.706090 1_555
As4 O10 1.728677 1_555
As4 O5 1.770771 1_555
As5 O4 1.658185 1_555
As5 O19 1.739586 1_455
As5 O28 1.742718 1_554
As5 O24 1.794514 1_555
As6 O8 1.688680 1_655
As6 O15 1.720872 1_555
As6 O9 1.736276 1_655
As6 O26 1.771152 1_655
As7 O13 1.690008 1_555
As7 O20 1.726535 1_655
As7 O0 1.737369 1_555
As7 O3 1.752475 1_555
