# generated using pymatgen
data_Mg5Ga
_symmetry_space_group_name_H-M   'P 1'
_cell_length_a   5.91619740
_cell_length_b   5.91619740
_cell_length_c   5.91619666
_cell_angle_alpha   54.05901284
_cell_angle_beta   54.05901284
_cell_angle_gamma   54.05900765
_symmetry_Int_Tables_number   1
_chemical_formula_structural   Mg5Ga
_chemical_formula_sum   'Mg5 Ga1'
_cell_volume   126.10980987
_cell_formula_units_Z   1
loop_
 _symmetry_equiv_pos_site_id
 _symmetry_equiv_pos_as_xyz
  1  'x, y, z'
loop_
 _atom_site_type_symbol
 _atom_site_label
 _atom_site_symmetry_multiplicity
 _atom_site_fract_x
 _atom_site_fract_y
 _atom_site_fract_z
 _atom_site_occupancy
  Mg  Mg0  1  0.00000000  0.66027161  0.33972839  1
  Mg  Mg1  1  0.83349447  0.83349447  0.83349447  1
  Mg  Mg2  1  0.66027161  0.33972839  -0.00000000  1
  Mg  Mg3  1  0.33972839  -0.00000000  0.66027161  1
  Mg  Mg4  1  0.16650553  0.16650553  0.16650553  1
  Ga  Ga0  1  0.50000000  0.50000000  0.50000000  1
loop_
_geom_bond_atom_site_label_1
_geom_bond_atom_site_label_2
_geom_bond_distance
_geom_bond_site_symmetry_2
Mg0 Mg3 3.075193 1_555
Mg0 Mg3 3.075193 1_465
Mg0 Mg2 3.075193 1_555
Mg0 Mg2 3.075193 1_456
Mg0 Mg1 3.083073 1_455
Mg0 Mg4 3.083073 1_555
Mg0 Mg1 3.108975 1_454
Mg0 Mg4 3.108976 1_565
Mg0 Mg2 3.164102 1_465
Mg0 Mg3 3.164102 1_564
Mg1 Mg3 3.083073 1_565
Mg1 Mg2 3.083074 1_556
Mg1 Mg4 3.104545 1_566
Mg1 Mg4 3.104545 1_656
Mg1 Mg4 3.104545 1_665
Mg1 Mg2 3.108976 1_566
Mg1 Mg3 3.108976 1_665
Mg2 Mg3 3.075193 1_564
Mg2 Mg3 3.075193 1_555
Mg2 Mg4 3.083074 1_555
Mg2 Mg4 3.108976 1_655
Mg2 Mg3 3.164102 1_654
Mg3 Mg4 3.083073 1_555
Mg3 Mg4 3.108975 1_556
Ga0 Mg2 3.081083 1_556
Ga0 Mg2 3.081083 1_555
Ga0 Mg3 3.081083 1_565
Ga0 Mg0 3.081083 1_555
Ga0 Mg3 3.081084 1_555
Ga0 Mg0 3.081084 1_655
Ga0 Mg1 3.104542 1_545
Ga0 Mg4 3.104542 1_655
Ga0 Mg4 3.104542 1_565
Ga0 Mg1 3.104542 1_455
Ga0 Mg1 3.104542 1_554
Ga0 Mg4 3.104542 1_556
