# generated using pymatgen
data_Na3V(MoO7)3
_symmetry_space_group_name_H-M   'P 1'
_cell_length_a   9.18497900
_cell_length_b   10.98312072
_cell_length_c   11.05679625
_cell_angle_alpha   117.32358325
_cell_angle_beta   88.66927964
_cell_angle_gamma   100.74972917
_symmetry_Int_Tables_number   1
_chemical_formula_structural   Na3V(MoO7)3
_chemical_formula_sum   'Na6 V2 Mo6 O42'
_cell_volume   971.07838715
_cell_formula_units_Z   2
loop_
 _symmetry_equiv_pos_site_id
 _symmetry_equiv_pos_as_xyz
  1  'x, y, z'
loop_
 _atom_site_type_symbol
 _atom_site_label
 _atom_site_symmetry_multiplicity
 _atom_site_fract_x
 _atom_site_fract_y
 _atom_site_fract_z
 _atom_site_occupancy
  Na  Na0  1  0.60131400  0.16207500  0.36922800  1
  Na  Na1  1  0.39868600  0.83792500  0.63077200  1
  Na  Na2  1  0.60030600  0.13489100  0.94506500  1
  Na  Na3  1  0.39969400  0.86510900  0.05493500  1
  Na  Na4  1  0.89512300  0.56012000  0.31164600  1
  Na  Na5  1  0.10487700  0.43988000  0.68835400  1
  V  V0  1  0.82598400  0.03783600  0.08222200  1
  V  V1  1  0.17401600  0.96216400  0.91777800  1
  Mo  Mo0  1  0.81365400  0.82778400  0.68684800  1
  Mo  Mo1  1  0.18634600  0.17221600  0.31315200  1
  Mo  Mo2  1  0.83810100  0.65260000  0.87191900  1
  Mo  Mo3  1  0.16189900  0.34740000  0.12808100  1
  Mo  Mo4  1  0.95616500  0.17565100  0.82607300  1
  Mo  Mo5  1  0.04383500  0.82434900  0.17392700  1
  O  O0  1  0.85548500  0.69067600  0.53917900  1
  O  O1  1  0.14451500  0.30932400  0.46082100  1
  O  O2  1  0.64593300  0.85867400  0.64419300  1
  O  O3  1  0.35406700  0.14132600  0.35580700  1
  O  O4  1  0.73090300  0.73831100  0.79407900  1
  O  O5  1  0.26909700  0.26168900  0.20592100  1
  O  O6  1  0.95187100  0.98375300  0.69060600  1
  O  O7  1  0.04812900  0.01624700  0.30939400  1
  O  O8  1  0.98350100  0.17074800  0.18315700  1
  O  O9  1  0.01649900  0.82925200  0.81684300  1
  O  O10  1  0.82045000  0.02999300  0.92184800  1
  O  O11  1  0.17955000  0.97000700  0.07815200  1
  O  O12  1  0.69603600  0.58097500  0.93883100  1
  O  O13  1  0.30396400  0.41902500  0.06116900  1
  O  O14  1  0.87970500  0.51188500  0.72529000  1
  O  O15  1  0.12029500  0.48811500  0.27471000  1
  O  O16  1  0.98682900  0.31362500  0.01541300  1
  O  O17  1  0.01317100  0.68637500  0.98458700  1
  O  O18  1  0.85996700  0.88066600  0.06660000  1
  O  O19  1  0.14003300  0.11933400  0.93340000  1
  O  O20  1  0.07318800  0.26045600  0.74999700  1
  O  O21  1  0.92681200  0.73954400  0.25000300  1
  O  O22  1  0.77884600  0.19759300  0.79927400  1
  O  O23  1  0.22115400  0.80240700  0.20072600  1
  O  O24  1  0.64234800  0.04712600  0.13159200  1
  O  O25  1  0.35765200  0.95287400  0.86840800  1
  O  O26  1  0.54495700  0.10422700  0.62675700  1
  O  O27  1  0.45504300  0.89577300  0.37324300  1
  O  O28  1  0.61587800  0.82891800  0.22288400  1
  O  O29  1  0.38412200  0.17108200  0.77711600  1
  O  O30  1  0.43676000  0.60387000  0.78220700  1
  O  O31  1  0.56324000  0.39613000  0.21779300  1
  O  O32  1  0.54401000  0.20870000  0.61119000  1
  O  O33  1  0.45599000  0.79130000  0.38881000  1
  O  O34  1  0.78617500  0.25284100  0.26857600  1
  O  O35  1  0.21382500  0.74715900  0.73142400  1
  O  O36  1  0.61406800  0.72825200  0.24347900  1
  O  O37  1  0.38593200  0.27174800  0.75652100  1
  O  O38  1  0.41624500  0.49023000  0.66777300  1
  O  O39  1  0.58375500  0.50977000  0.33222700  1
  O  O40  1  0.31484700  0.63859500  0.84475400  1
  O  O41  1  0.68515300  0.36140500  0.15524600  1
loop_
_geom_bond_atom_site_label_1
_geom_bond_atom_site_label_2
_geom_bond_distance
_geom_bond_site_symmetry_2
Na0 O3 2.241151 1_555
Na0 O34 2.326935 1_555
Na0 O24 2.392882 1_555
Na0 O32 2.544418 1_555
Na1 O2 2.241151 1_555
Na1 O35 2.326935 1_555
Na1 O25 2.392882 1_555
Na1 O33 2.544418 1_555
Na2 O10 2.460734 1_555
Na2 O22 2.497403 1_555
Na2 O41 2.500103 1_556
Na2 O25 2.559765 1_545
Na2 O24 2.707884 1_556
Na2 O29 2.948300 1_555
Na3 O11 2.460734 1_555
Na3 O23 2.497403 1_555
Na3 O40 2.500103 1_554
Na3 O24 2.559765 1_565
Na3 O25 2.707884 1_554
Na3 O28 2.948300 1_555
Na4 O15 2.311727 1_655
Na4 O0 2.314804 1_555
Na4 O21 2.332921 1_555
Na4 O41 2.567699 1_555
Na4 O39 2.834078 1_555
Na5 O14 2.311727 1_455
Na5 O1 2.314804 1_555
Na5 O20 2.332921 1_555
Na5 O40 2.567699 1_555
Na5 O38 2.834078 1_555
Mo0 O0 1.735126 1_555
Mo0 O2 1.756794 1_555
Mo0 O6 1.916694 1_555
Mo0 O4 1.923079 1_555
Mo0 O9 2.372618 1_655
Mo0 O10 2.519095 1_565
Mo1 O1 1.735126 1_555
Mo1 O3 1.756794 1_555
Mo1 O7 1.916694 1_555
Mo1 O5 1.923079 1_555
Mo1 O8 2.372618 1_455
Mo1 O11 2.519095 1_545
Mo2 O12 1.724935 1_555
Mo2 O14 1.747657 1_555
Mo2 O17 1.929116 1_655
Mo2 O4 1.930103 1_555
Mo3 O13 1.724935 1_555
Mo3 O15 1.747657 1_555
Mo3 O16 1.929116 1_455
Mo3 O5 1.930103 1_555
Mo4 O22 1.741503 1_555
Mo4 O20 1.741895 1_655
Mo4 O16 1.927226 1_556
Mo4 O6 1.939281 1_545
Mo4 O19 2.408227 1_655
Mo4 O10 2.446341 1_555
Mo5 O23 1.741503 1_555
Mo5 O21 1.741895 1_455
Mo5 O17 1.927226 1_554
Mo5 O7 1.939281 1_565
Mo5 O18 2.408227 1_455
Mo5 O11 2.446341 1_555
O8 V0 1.805881 1_555
O9 V1 1.805881 1_555
O10 V0 1.736850 1_556
O11 V1 1.736850 1_554
O18 V0 1.741222 1_565
O19 V1 1.741222 1_545
O24 V0 1.767378 1_555
O25 V1 1.767378 1_555
O26 O32 1.237506 1_555
O27 O33 1.237506 1_555
O28 O36 1.224189 1_555
O29 O37 1.224189 1_555
O30 O38 1.291435 1_555
O30 O40 1.326203 1_555
O31 O39 1.291435 1_555
O31 O41 1.326203 1_555
O34 V0 2.403305 1_555
O35 V1 2.403305 1_555
