# generated using pymatgen
data_BaB4(SbO6)2
_symmetry_space_group_name_H-M   'P 1'
_cell_length_a   6.94727906
_cell_length_b   6.94727906
_cell_length_c   11.27253681
_cell_angle_alpha   83.50051212
_cell_angle_beta   83.50051212
_cell_angle_gamma   118.92914986
_symmetry_Int_Tables_number   1
_chemical_formula_structural   BaB4(SbO6)2
_chemical_formula_sum   'Ba2 B8 Sb4 O24'
_cell_volume   464.20792174
_cell_formula_units_Z   2
loop_
 _symmetry_equiv_pos_site_id
 _symmetry_equiv_pos_as_xyz
  1  'x, y, z'
loop_
 _atom_site_type_symbol
 _atom_site_label
 _atom_site_symmetry_multiplicity
 _atom_site_fract_x
 _atom_site_fract_y
 _atom_site_fract_z
 _atom_site_occupancy
  Ba  Ba0  1  0.03412600  0.96587400  0.25000000  1
  Ba  Ba1  1  0.96587400  0.03412600  0.75000000  1
  B  B0  1  0.35612200  0.40968500  0.39225500  1
  B  B1  1  0.59031500  0.64387800  0.10774500  1
  B  B2  1  0.64387800  0.59031500  0.60774500  1
  B  B3  1  0.40968500  0.35612200  0.89225500  1
  B  B4  1  0.47638700  0.81908000  0.38007500  1
  B  B5  1  0.18092000  0.52361300  0.11992500  1
  B  B6  1  0.52361300  0.18092000  0.61992500  1
  B  B7  1  0.81908000  0.47638700  0.88007500  1
  Sb  Sb0  1  0.69296700  0.30703300  0.25000000  1
  Sb  Sb1  1  0.30703300  0.69296700  0.75000000  1
  Sb  Sb2  1  0.00000000  0.50000000  0.50000000  1
  Sb  Sb3  1  0.50000000  0.00000000  0.00000000  1
  O  O0  1  0.87889100  0.51357200  0.35001700  1
  O  O1  1  0.48642800  0.12110900  0.14998300  1
  O  O2  1  0.12110900  0.48642800  0.64998300  1
  O  O3  1  0.51357200  0.87889100  0.85001700  1
  O  O4  1  0.13144900  0.31918700  0.43877900  1
  O  O5  1  0.68081300  0.86855100  0.06122100  1
  O  O6  1  0.86855100  0.68081300  0.56122100  1
  O  O7  1  0.31918700  0.13144900  0.93877900  1
  O  O8  1  0.41381100  0.25996900  0.35538600  1
  O  O9  1  0.74003100  0.58618900  0.14461400  1
  O  O10  1  0.58618900  0.74003100  0.64461400  1
  O  O11  1  0.25996900  0.41381100  0.85538600  1
  O  O12  1  0.51462100  0.63840700  0.37720900  1
  O  O13  1  0.36159300  0.48537900  0.12279100  1
  O  O14  1  0.48537900  0.36159300  0.62279100  1
  O  O15  1  0.63840700  0.51462100  0.87720900  1
  O  O16  1  0.26761600  0.79068100  0.41242600  1
  O  O17  1  0.20931900  0.73238400  0.08757400  1
  O  O18  1  0.73238400  0.20931900  0.58757400  1
  O  O19  1  0.79068100  0.26761600  0.91242600  1
  O  O20  1  0.66658100  0.02670500  0.34325300  1
  O  O21  1  0.97329500  0.33341900  0.15674700  1
  O  O22  1  0.33341900  0.97329500  0.65674700  1
  O  O23  1  0.02670500  0.66658100  0.84325300  1
loop_
_geom_bond_atom_site_label_1
_geom_bond_atom_site_label_2
_geom_bond_distance
_geom_bond_site_symmetry_2
Ba0 O0 2.819970 1_455
Ba0 O1 2.819970 1_565
Ba0 O20 2.888002 1_465
Ba0 O21 2.888002 1_465
Ba0 O8 2.930621 1_565
Ba0 O9 2.930621 1_455
Ba0 O16 3.089169 1_555
Ba0 O17 3.089169 1_555
Ba0 O13 3.225530 1_565
Ba0 O12 3.225530 1_455
Ba0 O4 3.303505 1_565
Ba0 O5 3.303505 1_455
Ba1 O3 2.819970 1_545
Ba1 O2 2.819970 1_655
Ba1 O23 2.888002 1_645
Ba1 O22 2.888002 1_645
Ba1 O10 2.930621 1_545
Ba1 O11 2.930621 1_655
Ba1 O18 3.089169 1_555
Ba1 O19 3.089169 1_555
Ba1 O14 3.225530 1_655
Ba1 O15 3.225530 1_545
Ba1 O7 3.303505 1_655
Ba1 O6 3.303505 1_545
B0 O8 1.370639 1_555
B0 O4 1.377410 1_555
B0 O12 1.403611 1_555
B1 O9 1.370639 1_555
B1 O5 1.377410 1_555
B1 O13 1.403611 1_555
B2 O10 1.370639 1_555
B2 O6 1.377410 1_555
B2 O14 1.403611 1_555
B3 O11 1.370639 1_555
B3 O7 1.377410 1_555
B3 O15 1.403611 1_555
B4 O16 1.364798 1_555
B4 O20 1.376663 1_565
B4 O12 1.406017 1_555
B5 O17 1.364798 1_555
B5 O21 1.376663 1_455
B5 O13 1.406017 1_555
B6 O18 1.364798 1_555
B6 O22 1.376663 1_545
B6 O14 1.406017 1_555
B7 O19 1.364798 1_555
B7 O23 1.376663 1_655
B7 O15 1.406017 1_555
O0 Sb0 1.975166 1_555
O0 Sb2 1.984424 1_655
O1 Sb0 1.975166 1_555
O1 Sb3 1.984424 1_555
O2 Sb1 1.975166 1_555
O2 Sb2 1.984424 1_555
O3 Sb1 1.975166 1_555
O3 Sb3 1.984424 1_566
O4 Sb2 2.012843 1_555
O5 Sb3 2.012843 1_565
O6 Sb2 2.012843 1_655
O7 Sb3 2.012843 1_556
O8 Sb0 2.014040 1_555
O9 Sb0 2.014040 1_555
O10 Sb1 2.014040 1_555
O11 Sb1 2.014040 1_555
O16 Sb2 2.002529 1_555
O17 Sb3 2.002529 1_565
O18 Sb2 2.002529 1_655
O19 Sb3 2.002529 1_556
O20 Sb0 2.019645 1_555
O21 Sb0 2.019645 1_555
O22 Sb1 2.019645 1_555
O23 Sb1 2.019645 1_555
