# generated using pymatgen
data_Mg2NiH2
_symmetry_space_group_name_H-M   'P 1'
_cell_length_a   4.42955000
_cell_length_b   4.42955000
_cell_length_c   6.36730200
_cell_angle_alpha   90.00000000
_cell_angle_beta   90.00000000
_cell_angle_gamma   90.00000000
_symmetry_Int_Tables_number   1
_chemical_formula_structural   Mg2NiH2
_chemical_formula_sum   'Mg4 Ni2 H4'
_cell_volume   124.93227988
_cell_formula_units_Z   2
loop_
 _symmetry_equiv_pos_site_id
 _symmetry_equiv_pos_as_xyz
  1  'x, y, z'
loop_
 _atom_site_type_symbol
 _atom_site_label
 _atom_site_symmetry_multiplicity
 _atom_site_fract_x
 _atom_site_fract_y
 _atom_site_fract_z
 _atom_site_occupancy
  Mg  Mg0  1  0.50000000  0.00000000  0.25000000  1
  Mg  Mg1  1  0.00000000  0.50000000  0.25000000  1
  Mg  Mg2  1  0.50000000  0.00000000  0.75000000  1
  Mg  Mg3  1  0.00000000  0.50000000  0.75000000  1
  Ni  Ni0  1  0.50000000  0.50000000  0.50000000  1
  Ni  Ni1  1  0.00000000  0.00000000  0.00000000  1
  H  H0  1  0.74598800  0.25401200  0.50000000  1
  H  H1  1  0.25401200  0.74598800  0.50000000  1
  H  H2  1  0.75401200  0.75401200  0.00000000  1
  H  H3  1  0.24598800  0.24598800  0.00000000  1
loop_
_geom_bond_atom_site_label_1
_geom_bond_atom_site_label_2
_geom_bond_distance
_geom_bond_site_symmetry_2
H0 Ni0 1.540950 1_555
H0 Mg3 2.233194 1_655
H0 Mg2 2.233194 1_555
H0 Mg1 2.233194 1_655
H0 Mg0 2.233194 1_555
H1 Ni0 1.540950 1_555
H1 Mg0 2.233194 1_565
H1 Mg3 2.233194 1_555
H1 Mg1 2.233194 1_555
H1 Mg2 2.233194 1_565
H2 Ni1 1.540950 1_665
H2 Mg0 2.233194 1_565
H2 Mg3 2.233194 1_654
H2 Mg1 2.233194 1_655
H2 Mg2 2.233194 1_564
H3 Ni1 1.540950 1_555
H3 Mg2 2.233194 1_554
H3 Mg1 2.233194 1_555
H3 Mg3 2.233194 1_554
H3 Mg0 2.233194 1_555
