# generated using pymatgen
data_Yb4NiB13
_symmetry_space_group_name_H-M   'P 1'
_cell_length_a   7.22400912
_cell_length_b   7.22400912
_cell_length_c   6.75552853
_cell_angle_alpha   90.00000000
_cell_angle_beta   90.00000000
_cell_angle_gamma   90.00000000
_symmetry_Int_Tables_number   1
_chemical_formula_structural   Yb4NiB13
_chemical_formula_sum   'Yb8 Ni2 B26'
_cell_volume   352.54609106
_cell_formula_units_Z   2
loop_
 _symmetry_equiv_pos_site_id
 _symmetry_equiv_pos_as_xyz
  1  'x, y, z'
loop_
 _atom_site_type_symbol
 _atom_site_label
 _atom_site_symmetry_multiplicity
 _atom_site_fract_x
 _atom_site_fract_y
 _atom_site_fract_z
 _atom_site_occupancy
  Yb  Yb0  1  0.68500088  0.18050057  0.50000000  1
  Yb  Yb1  1  0.31499912  0.81949943  0.50000000  1
  Yb  Yb2  1  0.18500088  0.31949943  0.00000000  1
  Yb  Yb3  1  0.81499912  0.68050057  0.00000000  1
  Yb  Yb4  1  0.81949943  0.68500088  0.50000000  1
  Yb  Yb5  1  0.18050057  0.31499912  0.50000000  1
  Yb  Yb6  1  0.68050057  0.18500088  0.00000000  1
  Yb  Yb7  1  0.31949943  0.81499912  0.00000000  1
  Ni  Ni0  1  0.50000000  0.50000000  0.50000000  1
  Ni  Ni1  1  0.00000000  0.00000000  0.00000000  1
  B  B0  1  0.50000000  0.50000000  0.00000000  1
  B  B1  1  0.00000000  0.00000000  0.50000000  1
  B  B2  1  0.90911430  0.40911430  0.25000000  1
  B  B3  1  0.09088570  0.59088570  0.25000000  1
  B  B4  1  0.40911430  0.09088570  0.75000000  1
  B  B5  1  0.59088570  0.90911430  0.75000000  1
  B  B6  1  0.59088570  0.90911430  0.25000000  1
  B  B7  1  0.40911430  0.09088570  0.25000000  1
  B  B8  1  0.90911430  0.40911430  0.75000000  1
  B  B9  1  0.09088570  0.59088570  0.75000000  1
  B  B10  1  0.53953370  0.67090393  0.24311010  1
  B  B11  1  0.46046630  0.32909607  0.24311010  1
  B  B12  1  0.03953370  0.82909607  0.74311010  1
  B  B13  1  0.96046630  0.17090393  0.74311010  1
  B  B14  1  0.32909607  0.53953370  0.24311010  1
  B  B15  1  0.67090393  0.46046630  0.24311010  1
  B  B16  1  0.17090393  0.03953370  0.74311010  1
  B  B17  1  0.82909607  0.96046630  0.74311010  1
  B  B18  1  0.46046630  0.32909607  0.75688990  1
  B  B19  1  0.53953370  0.67090393  0.75688990  1
  B  B20  1  0.96046630  0.17090393  0.25688990  1
  B  B21  1  0.03953370  0.82909607  0.25688990  1
  B  B22  1  0.67090393  0.46046630  0.75688990  1
  B  B23  1  0.32909607  0.53953370  0.75688990  1
  B  B24  1  0.82909607  0.96046630  0.25688990  1
  B  B25  1  0.17090393  0.03953370  0.25688990  1
loop_
_geom_bond_atom_site_label_1
_geom_bond_atom_site_label_2
_geom_bond_distance
_geom_bond_site_symmetry_2
Ni0 Yb4 2.667071 1_555
Ni0 Yb1 2.667071 1_555
Ni0 Yb0 2.667071 1_555
Ni0 Yb5 2.667071 1_555
Ni1 Yb2 2.667071 1_555
Ni1 Yb7 2.667071 1_545
Ni1 Yb6 2.667071 1_455
Ni1 Yb3 2.667071 1_445
B0 B10 2.074391 1_555
B0 B15 2.074391 1_555
B0 B14 2.074391 1_555
B0 B11 2.074391 1_555
B0 B19 2.074391 1_554
B0 B22 2.074391 1_554
B0 B23 2.074391 1_554
B0 B18 2.074391 1_554
B0 Yb3 2.622673 1_555
B0 Yb7 2.622673 1_555
B0 Yb6 2.622673 1_555
B0 Yb2 2.622673 1_555
B1 B16 2.074391 1_555
B1 B13 2.074391 1_455
B1 B12 2.074391 1_545
B1 B17 2.074391 1_445
B1 B25 2.074391 1_555
B1 B20 2.074391 1_455
B1 B21 2.074391 1_545
B1 B24 2.074391 1_445
B1 Yb5 2.622673 1_555
B1 Yb1 2.622673 1_545
B1 Yb0 2.622673 1_455
B1 Yb4 2.622673 1_445
B2 B20 1.760981 1_555
B2 B3 1.857030 1_655
B2 Yb5 2.675466 1_655
B2 Yb3 2.675466 1_555
B2 Yb4 2.691375 1_555
B2 Yb2 2.691375 1_655
B2 Yb0 2.863731 1_555
B2 Yb6 2.863731 1_555
B3 Yb4 2.675466 1_455
B3 Yb2 2.675466 1_555
B3 Yb3 2.691375 1_455
B3 Yb5 2.691375 1_555
B3 Yb7 2.863731 1_555
B3 Yb1 2.863731 1_555
B4 B5 1.857030 1_545
B4 Yb1 2.675466 1_545
B4 Yb6 2.675466 1_556
B4 Yb7 2.691375 1_546
B4 Yb0 2.691375 1_555
B4 Yb5 2.863731 1_555
B4 Yb2 2.863731 1_556
B5 Yb0 2.675466 1_565
B5 Yb7 2.675466 1_556
B5 Yb6 2.691375 1_566
B5 Yb1 2.691375 1_555
B5 Yb3 2.863731 1_556
B5 Yb4 2.863731 1_555
B6 B7 1.857030 1_565
B6 Yb0 2.675466 1_565
B6 Yb7 2.675466 1_555
B6 Yb6 2.691375 1_565
B6 Yb1 2.691375 1_555
B6 Yb3 2.863731 1_555
B6 Yb4 2.863731 1_555
B7 Yb1 2.675466 1_545
B7 Yb6 2.675466 1_555
B7 Yb7 2.691375 1_545
B7 Yb0 2.691375 1_555
B7 Yb5 2.863731 1_555
B7 Yb2 2.863731 1_555
B8 B9 1.857030 1_655
B8 Yb5 2.675466 1_655
B8 Yb3 2.675466 1_556
B8 Yb4 2.691375 1_555
B8 Yb2 2.691375 1_656
B8 Yb0 2.863731 1_555
B8 Yb6 2.863731 1_556
B9 Yb4 2.675466 1_455
B9 Yb2 2.675466 1_556
B9 Yb3 2.691375 1_456
B9 Yb5 2.691375 1_555
B9 Yb7 2.863731 1_556
B9 Yb1 2.863731 1_555
B10 B6 1.760981 1_555
B10 B14 1.792110 1_555
B10 B15 1.792110 1_555
B10 Ni0 2.148845 1_555
B10 Yb7 2.511462 1_555
B10 Yb3 2.581092 1_555
B10 Yb1 2.606727 1_555
B10 Yb4 2.666924 1_555
B11 B7 1.760981 1_555
B11 B14 1.792110 1_555
B11 B15 1.792110 1_555
B11 Ni0 2.148845 1_555
B11 Yb6 2.511462 1_555
B11 Yb2 2.581092 1_555
B11 Yb0 2.606727 1_555
B11 Yb5 2.666924 1_555
B12 B9 1.760981 1_555
B12 B17 1.792110 1_455
B12 B16 1.792110 1_565
B12 Ni1 2.148845 1_566
B12 Yb4 2.511462 1_455
B12 Yb1 2.581092 1_555
B12 Yb3 2.606727 1_456
B12 Yb7 2.666924 1_556
B13 B8 1.760981 1_555
B13 B16 1.792110 1_655
B13 B17 1.792110 1_545
B13 Ni1 2.148845 1_656
B13 Yb5 2.511462 1_655
B13 Yb0 2.581092 1_555
B13 Yb2 2.606727 1_656
B13 Yb6 2.666924 1_556
B14 B3 1.760981 1_555
B14 Ni0 2.148845 1_555
B14 Yb2 2.511462 1_555
B14 Yb7 2.581092 1_555
B14 Yb5 2.606727 1_555
B14 Yb1 2.666924 1_555
B15 B2 1.760981 1_555
B15 Ni0 2.148845 1_555
B15 Yb3 2.511462 1_555
B15 Yb6 2.581092 1_555
B15 Yb4 2.606727 1_555
B15 Yb0 2.666924 1_555
B16 B4 1.760981 1_555
B16 Ni1 2.148845 1_556
B16 Yb1 2.511462 1_545
B16 Yb5 2.581092 1_555
B16 Yb7 2.606727 1_546
B16 Yb2 2.666924 1_556
B17 B5 1.760981 1_555
B17 Ni1 2.148845 1_666
B17 Yb0 2.511462 1_565
B17 Yb4 2.581092 1_555
B17 Yb6 2.606727 1_566
B17 Yb3 2.666924 1_556
B18 B4 1.760981 1_555
B18 B23 1.792110 1_555
B18 B22 1.792110 1_555
B18 Ni0 2.148845 1_555
B18 Yb6 2.511462 1_556
B18 Yb2 2.581092 1_556
B18 Yb0 2.606727 1_555
B18 Yb5 2.666924 1_555
B19 B5 1.760981 1_555
B19 B23 1.792110 1_555
B19 B22 1.792110 1_555
B19 Ni0 2.148845 1_555
B19 Yb7 2.511462 1_556
B19 Yb3 2.581092 1_556
B19 Yb1 2.606727 1_555
B19 Yb4 2.666924 1_555
B20 B25 1.792110 1_655
B20 B24 1.792110 1_545
B20 Ni1 2.148845 1_655
B20 Yb5 2.511462 1_655
B20 Yb0 2.581092 1_555
B20 Yb2 2.606727 1_655
B20 Yb6 2.666924 1_555
B21 B3 1.760981 1_555
B21 B24 1.792110 1_455
B21 B25 1.792110 1_565
B21 Ni1 2.148845 1_565
B21 Yb4 2.511462 1_455
B21 Yb1 2.581092 1_555
B21 Yb3 2.606727 1_455
B21 Yb7 2.666924 1_555
B22 B8 1.760981 1_555
B22 Ni0 2.148845 1_555
B22 Yb3 2.511462 1_556
B22 Yb6 2.581092 1_556
B22 Yb4 2.606727 1_555
B22 Yb0 2.666924 1_555
B23 B9 1.760981 1_555
B23 Ni0 2.148845 1_555
B23 Yb2 2.511462 1_556
B23 Yb7 2.581092 1_556
B23 Yb5 2.606727 1_555
B23 Yb1 2.666924 1_555
B24 B6 1.760981 1_555
B24 Ni1 2.148845 1_665
B24 Yb0 2.511462 1_565
B24 Yb4 2.581092 1_555
B24 Yb6 2.606727 1_565
B24 Yb3 2.666924 1_555
B25 B7 1.760981 1_555
B25 Ni1 2.148845 1_555
B25 Yb1 2.511462 1_545
B25 Yb5 2.581092 1_555
B25 Yb7 2.606727 1_545
B25 Yb2 2.666924 1_555
