# generated using pymatgen
data_Ni(BrO6)2
_symmetry_space_group_name_H-M   'P 1'
_cell_length_a   9.55484900
_cell_length_b   9.55484900
_cell_length_c   9.55484900
_cell_angle_alpha   90.00000000
_cell_angle_beta   90.00000000
_cell_angle_gamma   90.00000000
_symmetry_Int_Tables_number   1
_chemical_formula_structural   Ni(BrO6)2
_chemical_formula_sum   'Ni4 Br8 O48'
_cell_volume   872.31127152
_cell_formula_units_Z   4
loop_
 _symmetry_equiv_pos_site_id
 _symmetry_equiv_pos_as_xyz
  1  'x, y, z'
loop_
 _atom_site_type_symbol
 _atom_site_label
 _atom_site_symmetry_multiplicity
 _atom_site_fract_x
 _atom_site_fract_y
 _atom_site_fract_z
 _atom_site_occupancy
  Ni  Ni0  1  0.00000000  0.00000000  0.00000000  1
  Ni  Ni1  1  0.50000000  0.00000000  0.50000000  1
  Ni  Ni2  1  0.00000000  0.50000000  0.50000000  1
  Ni  Ni3  1  0.50000000  0.50000000  0.00000000  1
  Br  Br0  1  0.26349000  0.26349000  0.26349000  1
  Br  Br1  1  0.73651000  0.73651000  0.73651000  1
  Br  Br2  1  0.23651000  0.73651000  0.76349000  1
  Br  Br3  1  0.73651000  0.76349000  0.23651000  1
  Br  Br4  1  0.76349000  0.26349000  0.23651000  1
  Br  Br5  1  0.26349000  0.23651000  0.76349000  1
  Br  Br6  1  0.76349000  0.23651000  0.73651000  1
  Br  Br7  1  0.23651000  0.76349000  0.26349000  1
  O  O0  1  0.12282200  0.34460800  0.18903900  1
  O  O1  1  0.87717800  0.65539200  0.81096100  1
  O  O2  1  0.37717800  0.65539200  0.68903900  1
  O  O3  1  0.87717800  0.84460800  0.31096100  1
  O  O4  1  0.18903900  0.12282200  0.34460800  1
  O  O5  1  0.62282200  0.34460800  0.31096100  1
  O  O6  1  0.12282200  0.15539200  0.68903900  1
  O  O7  1  0.81096100  0.87717800  0.65539200  1
  O  O8  1  0.62282200  0.15539200  0.81096100  1
  O  O9  1  0.68903900  0.37717800  0.65539200  1
  O  O10  1  0.37717800  0.84460800  0.18903900  1
  O  O11  1  0.31096100  0.62282200  0.34460800  1
  O  O12  1  0.31096100  0.87717800  0.84460800  1
  O  O13  1  0.68903900  0.12282200  0.15539200  1
  O  O14  1  0.81096100  0.62282200  0.15539200  1
  O  O15  1  0.18903900  0.37717800  0.84460800  1
  O  O16  1  0.34460800  0.18903900  0.12282200  1
  O  O17  1  0.65539200  0.81096100  0.87717800  1
  O  O18  1  0.84460800  0.31096100  0.87717800  1
  O  O19  1  0.15539200  0.68903900  0.12282200  1
  O  O20  1  0.15539200  0.81096100  0.62282200  1
  O  O21  1  0.84460800  0.18903900  0.37717800  1
  O  O22  1  0.65539200  0.68903900  0.37717800  1
  O  O23  1  0.34460800  0.31096100  0.62282200  1
  O  O24  1  0.18015600  0.44973500  0.46592300  1
  O  O25  1  0.81984400  0.55026500  0.53407700  1
  O  O26  1  0.31984400  0.55026500  0.96592300  1
  O  O27  1  0.81984400  0.94973500  0.03407700  1
  O  O28  1  0.46592300  0.18015600  0.44973500  1
  O  O29  1  0.68015600  0.44973500  0.03407700  1
  O  O30  1  0.18015600  0.05026500  0.96592300  1
  O  O31  1  0.53407700  0.81984400  0.55026500  1
  O  O32  1  0.68015600  0.05026500  0.53407700  1
  O  O33  1  0.96592300  0.31984400  0.55026500  1
  O  O34  1  0.31984400  0.94973500  0.46592300  1
  O  O35  1  0.03407700  0.68015600  0.44973500  1
  O  O36  1  0.03407700  0.81984400  0.94973500  1
  O  O37  1  0.96592300  0.18015600  0.05026500  1
  O  O38  1  0.53407700  0.68015600  0.05026500  1
  O  O39  1  0.46592300  0.31984400  0.94973500  1
  O  O40  1  0.44973500  0.46592300  0.18015600  1
  O  O41  1  0.55026500  0.53407700  0.81984400  1
  O  O42  1  0.94973500  0.03407700  0.81984400  1
  O  O43  1  0.05026500  0.96592300  0.18015600  1
  O  O44  1  0.05026500  0.53407700  0.68015600  1
  O  O45  1  0.94973500  0.46592300  0.31984400  1
  O  O46  1  0.55026500  0.96592300  0.31984400  1
  O  O47  1  0.44973500  0.03407700  0.68015600  1
loop_
_geom_bond_atom_site_label_1
_geom_bond_atom_site_label_2
_geom_bond_distance
_geom_bond_site_symmetry_2
Ni0 O43 1.816527 1_545
Ni0 O30 1.816527 1_554
Ni0 O37 1.816527 1_455
Ni0 O27 1.816527 1_445
Ni0 O36 1.816527 1_544
Ni0 O42 1.816527 1_454
Ni1 O28 1.816527 1_555
Ni1 O47 1.816527 1_555
Ni1 O32 1.816527 1_555
Ni1 O31 1.816527 1_545
Ni1 O46 1.816527 1_545
Ni1 O34 1.816527 1_545
Ni2 O24 1.816527 1_555
Ni2 O35 1.816527 1_555
Ni2 O44 1.816527 1_555
Ni2 O25 1.816527 1_455
Ni2 O45 1.816527 1_455
Ni2 O33 1.816527 1_455
Ni3 O40 1.816527 1_555
Ni3 O29 1.816527 1_555
Ni3 O41 1.816527 1_554
Ni3 O38 1.816527 1_555
Ni3 O39 1.816527 1_554
Ni3 O26 1.816527 1_554
Br0 O0 1.706833 1_555
Br0 O16 1.706833 1_555
Br0 O4 1.706833 1_555
Br1 O1 1.706833 1_555
Br1 O7 1.706833 1_555
Br1 O17 1.706833 1_555
Br2 O2 1.706833 1_555
Br2 O12 1.706833 1_555
Br2 O20 1.706833 1_555
Br3 O22 1.706833 1_555
Br3 O3 1.706833 1_555
Br3 O14 1.706833 1_555
Br4 O21 1.706833 1_555
Br4 O5 1.706833 1_555
Br4 O13 1.706833 1_555
Br5 O15 1.706833 1_555
Br5 O23 1.706833 1_555
Br5 O6 1.706833 1_555
Br6 O9 1.706833 1_555
Br6 O18 1.706833 1_555
Br6 O8 1.706833 1_555
Br7 O10 1.706833 1_555
Br7 O11 1.706833 1_555
Br7 O19 1.706833 1_555
