# generated using pymatgen
data_Sr3NbCoO7
_symmetry_space_group_name_H-M   'P 1'
_cell_length_a   3.97202861
_cell_length_b   3.98421716
_cell_length_c   21.36413236
_cell_angle_alpha   90.00379944
_cell_angle_beta   90.12361621
_cell_angle_gamma   90.14360712
_symmetry_Int_Tables_number   1
_chemical_formula_structural   Sr3NbCoO7
_chemical_formula_sum   'Sr6 Nb2 Co2 O14'
_cell_volume   338.09461522
_cell_formula_units_Z   2
loop_
 _symmetry_equiv_pos_site_id
 _symmetry_equiv_pos_as_xyz
  1  'x, y, z'
loop_
 _atom_site_type_symbol
 _atom_site_label
 _atom_site_symmetry_multiplicity
 _atom_site_fract_x
 _atom_site_fract_y
 _atom_site_fract_z
 _atom_site_occupancy
  Sr  Sr0  1  0.50116000  0.50078900  0.19103200  1
  Sr  Sr1  1  0.00072200  0.99894200  0.69215400  1
  Sr  Sr2  1  0.99488900  0.99976800  0.31829900  1
  Sr  Sr3  1  0.50562100  0.49486100  0.81869800  1
  Sr  Sr4  1  0.99172800  0.99884600  0.48211600  1
  Sr  Sr5  1  0.49788500  0.50290300  0.97887500  1
  Nb  Nb0  1  0.99951400  0.00121800  0.09781000  1
  Nb  Nb1  1  0.49827700  0.49924800  0.59726300  1
  Co  Co0  1  0.00032000  0.99982600  0.89448500  1
  Co  Co1  1  0.48167500  0.49788500  0.39241000  1
  O  O0  1  0.00098700  0.99962500  0.00874800  1
  O  O1  1  0.50138800  0.49962700  0.50645200  1
  O  O2  1  0.51789100  0.50174500  0.30339300  1
  O  O3  1  0.99571300  0.00341200  0.80098000  1
  O  O4  1  0.00367300  0.99992600  0.19772600  1
  O  O5  1  0.50180500  0.49965200  0.69431200  1
  O  O6  1  0.00458400  0.50045400  0.40342900  1
  O  O7  1  0.49852800  0.99988100  0.90371000  1
  O  O8  1  0.50042200  0.00047300  0.40283900  1
  O  O9  1  0.00019600  0.50168900  0.90359300  1
  O  O10  1  0.50071000  0.99936700  0.10459100  1
  O  O11  1  0.00039400  0.50006000  0.60135800  1
  O  O12  1  0.00023800  0.50015800  0.10441000  1
  O  O13  1  0.50168300  0.99964600  0.60131500  1
loop_
_geom_bond_atom_site_label_1
_geom_bond_atom_site_label_2
_geom_bond_distance
_geom_bond_site_symmetry_2
Nb0 O0 1.902764 1_645
Nb0 O10 1.986860 1_545
Nb0 O12 1.992865 1_655
Nb0 O10 1.995749 1_645
Nb0 O12 2.001323 1_645
Nb0 O4 2.134654 1_645
Nb1 O1 1.940165 1_555
Nb1 O11 1.979739 1_555
Nb1 O13 1.992489 1_545
Nb1 O13 1.995578 1_555
Nb1 O11 1.996147 1_655
Nb1 O5 2.073385 1_555
Co0 O7 1.988263 1_555
Co0 O9 1.994214 1_555
Co0 O3 1.997750 1_465
Co0 O7 2.003276 1_455
Co0 O9 2.008965 1_565
Co0 O0 2.441126 1_556
Co1 O2 1.907573 1_555
Co1 O6 1.910142 1_555
Co1 O8 1.995855 1_555
Co1 O8 2.015935 1_565
Co1 O6 2.089803 1_655
Co1 O1 2.437506 1_555
O0 Sr5 2.871282 1_554
O0 Sr5 2.879548 1_454
O0 Sr5 2.882576 1_564
O0 Sr5 2.904499 1_464
O1 Sr4 2.829281 1_555
O1 Sr4 2.840466 1_545
O1 Sr4 2.885208 1_445
O1 Sr4 2.887964 1_455
O2 Sr0 2.401274 1_555
O2 Sr2 2.758034 1_555
O2 Sr2 2.776243 1_545
O2 Sr2 2.894396 1_455
O2 Sr2 2.898098 1_445
O3 Sr1 2.325169 1_645
O3 Sr3 2.790856 1_555
O3 Sr3 2.832256 1_545
O3 Sr3 2.838316 1_655
O3 Sr3 2.892778 1_645
O4 Sr2 2.576249 1_455
O4 Sr0 2.808711 1_565
O4 Sr0 2.810844 1_555
O4 Sr0 2.817462 1_455
O4 Sr0 2.829387 1_465
O5 Sr3 2.657480 1_555
O5 Sr1 2.804851 1_655
O5 Sr1 2.814773 1_545
O5 Sr1 2.815899 1_645
O5 Sr1 2.817833 1_555
O6 Sr4 2.602323 1_455
O6 Sr4 2.612088 1_445
O6 Sr2 2.695818 1_455
O6 Sr2 2.699534 1_445
O7 Sr5 2.549470 1_555
O7 Sr5 2.568062 1_565
O7 Sr3 2.681237 1_565
O7 Sr3 2.710721 1_555
O8 Sr4 2.581219 1_545
O8 Sr4 2.639303 1_445
O8 Sr2 2.671117 1_545
O8 Sr2 2.697859 1_445
O9 Sr5 2.545756 1_555
O9 Sr5 2.565435 1_455
O9 Sr3 2.670909 1_455
O9 Sr3 2.708609 1_555
O10 Sr0 2.712358 1_555
O10 Sr0 2.720482 1_565
O11 Sr1 2.777224 1_555
O11 Sr1 2.783796 1_545
O12 Sr0 2.714340 1_555
O12 Sr0 2.714832 1_455
O13 Sr1 2.771073 1_655
O13 Sr1 2.782512 1_555
