# generated using pymatgen
data_Sm5(In2Pt)2
_symmetry_space_group_name_H-M   'P 1'
_cell_length_a   3.72408124
_cell_length_b   8.18520574
_cell_length_c   18.47737030
_cell_angle_alpha   90.00000000
_cell_angle_beta   90.00000000
_cell_angle_gamma   90.00000000
_symmetry_Int_Tables_number   1
_chemical_formula_structural   Sm5(In2Pt)2
_chemical_formula_sum   'Sm10 In8 Pt4'
_cell_volume   563.23405921
_cell_formula_units_Z   2
loop_
 _symmetry_equiv_pos_site_id
 _symmetry_equiv_pos_as_xyz
  1  'x, y, z'
loop_
 _atom_site_type_symbol
 _atom_site_label
 _atom_site_symmetry_multiplicity
 _atom_site_fract_x
 _atom_site_fract_y
 _atom_site_fract_z
 _atom_site_occupancy
  Sm  Sm0  1  -0.00000000  0.11630110  0.41579962  1
  Sm  Sm1  1  -0.00000000  0.88369890  0.58420038  1
  Sm  Sm2  1  0.00000000  0.38369890  0.91579962  1
  Sm  Sm3  1  0.00000000  0.61630110  0.08420038  1
  Sm  Sm4  1  -0.00000000  0.24221760  0.22105621  1
  Sm  Sm5  1  -0.00000000  0.75778240  0.77894379  1
  Sm  Sm6  1  -0.00000000  0.25778240  0.72105621  1
  Sm  Sm7  1  -0.00000000  0.74221760  0.27894379  1
  Sm  Sm8  1  -0.00000000  -0.00000000  -0.00000000  1
  Sm  Sm9  1  -0.00000000  0.50000000  0.50000000  1
  In  In0  1  0.50000000  0.42730560  0.35076005  1
  In  In1  1  0.50000000  0.57269440  0.64923995  1
  In  In2  1  0.50000000  0.07269440  0.85076005  1
  In  In3  1  0.50000000  0.92730560  0.14923995  1
  In  In4  1  0.50000000  0.28938676  0.06955775  1
  In  In5  1  0.50000000  0.71061324  0.93044225  1
  In  In6  1  0.50000000  0.21061324  0.56955775  1
  In  In7  1  0.50000000  0.78938676  0.43044225  1
  Pt  Pt0  1  0.50000000  0.02292327  0.30391087  1
  Pt  Pt1  1  0.50000000  0.97707673  0.69608913  1
  Pt  Pt2  1  0.50000000  0.47707673  0.80391087  1
  Pt  Pt3  1  0.50000000  0.52292327  0.19608913  1
loop_
_geom_bond_atom_site_label_1
_geom_bond_atom_site_label_2
_geom_bond_distance
_geom_bond_site_symmetry_2
In0 Pt3 2.963141 1_555
In0 In7 3.309273 1_555
In0 Sm0 3.375157 1_655
In0 Sm0 3.375157 1_555
In0 Sm9 3.380146 1_655
In0 Sm9 3.380146 1_555
In0 Sm4 3.392049 1_555
In0 Sm4 3.392049 1_655
In0 Pt0 3.421277 1_555
In0 Sm7 3.445603 1_555
In0 Sm7 3.445603 1_655
In1 Pt2 2.963141 1_555
In1 In6 3.309273 1_555
In1 Sm1 3.375157 1_655
In1 Sm1 3.375157 1_555
In1 Sm9 3.380146 1_655
In1 Sm9 3.380146 1_555
In1 Sm5 3.392049 1_655
In1 Sm5 3.392049 1_555
In1 Pt1 3.421277 1_555
In1 Sm6 3.445603 1_555
In1 Sm6 3.445603 1_655
In2 Pt1 2.963141 1_545
In2 In5 3.309273 1_545
In2 Sm2 3.375157 1_555
In2 Sm2 3.375157 1_655
In2 Sm8 3.380146 1_556
In2 Sm8 3.380146 1_656
In2 Sm6 3.392049 1_655
In2 Sm6 3.392049 1_555
In2 Pt2 3.421277 1_555
In2 Sm5 3.445603 1_545
In2 Sm5 3.445603 1_645
In3 Pt0 2.963141 1_565
In3 In4 3.309273 1_565
In3 Sm3 3.375157 1_555
In3 Sm3 3.375157 1_655
In3 Sm8 3.380146 1_565
In3 Sm8 3.380146 1_665
In3 Sm7 3.392049 1_555
In3 Sm7 3.392049 1_655
In3 Pt3 3.421277 1_555
In3 Sm4 3.445603 1_565
In3 Sm4 3.445603 1_665
In4 Pt3 3.019949 1_555
In4 Sm3 3.271182 1_555
In4 Sm3 3.271182 1_655
In4 Sm8 3.275628 1_555
In4 Sm8 3.275628 1_655
In4 Sm4 3.384125 1_655
In4 Sm4 3.384125 1_555
In4 Sm2 3.483485 1_654
In4 Sm2 3.483485 1_554
In5 Pt2 3.019949 1_555
In5 Sm2 3.271182 1_655
In5 Sm2 3.271182 1_555
In5 Sm8 3.275628 1_566
In5 Sm8 3.275628 1_666
In5 Sm5 3.384125 1_655
In5 Sm5 3.384125 1_555
In5 Sm3 3.483485 1_656
In5 Sm3 3.483485 1_556
In6 Pt1 3.019949 1_545
In6 Sm1 3.271182 1_545
In6 Sm1 3.271182 1_645
In6 Sm9 3.275628 1_555
In6 Sm9 3.275628 1_655
In6 Sm6 3.384125 1_655
In6 Sm6 3.384125 1_555
In6 Sm0 3.483485 1_555
In6 Sm0 3.483485 1_655
In7 Pt0 3.019949 1_565
In7 Sm0 3.271182 1_565
In7 Sm0 3.271182 1_665
In7 Sm9 3.275628 1_555
In7 Sm9 3.275628 1_655
In7 Sm7 3.384125 1_655
In7 Sm7 3.384125 1_555
In7 Sm1 3.483485 1_555
In7 Sm1 3.483485 1_655
Pt0 Sm0 2.885404 1_655
Pt0 Sm0 2.885404 1_555
Pt0 Sm7 2.993182 1_645
Pt0 Sm7 2.993182 1_545
Pt0 Sm4 3.005474 1_555
Pt0 Sm4 3.005474 1_655
Pt1 Sm1 2.885404 1_655
Pt1 Sm1 2.885404 1_555
Pt1 Sm6 2.993182 1_565
Pt1 Sm6 2.993182 1_665
Pt1 Sm5 3.005474 1_555
Pt1 Sm5 3.005474 1_655
Pt2 Sm2 2.885404 1_655
Pt2 Sm2 2.885404 1_555
Pt2 Sm5 2.993182 1_555
Pt2 Sm5 2.993182 1_655
Pt2 Sm6 3.005474 1_655
Pt2 Sm6 3.005474 1_555
Pt3 Sm3 2.885404 1_555
Pt3 Sm3 2.885404 1_655
Pt3 Sm4 2.993182 1_555
Pt3 Sm4 2.993182 1_655
Pt3 Sm7 3.005474 1_555
Pt3 Sm7 3.005474 1_655
