# generated using pymatgen
data_Nb5S8
_symmetry_space_group_name_H-M   'P 1'
_cell_length_a   5.82502644
_cell_length_b   5.82502644
_cell_length_c   25.38697557
_cell_angle_alpha   90.00000232
_cell_angle_beta   90.00000232
_cell_angle_gamma   119.99998991
_symmetry_Int_Tables_number   1
_chemical_formula_structural   Nb5S8
_chemical_formula_sum   'Nb15 S24'
_cell_volume   745.99762215
_cell_formula_units_Z   3
loop_
 _symmetry_equiv_pos_site_id
 _symmetry_equiv_pos_as_xyz
  1  'x, y, z'
loop_
 _atom_site_type_symbol
 _atom_site_label
 _atom_site_symmetry_multiplicity
 _atom_site_fract_x
 _atom_site_fract_y
 _atom_site_fract_z
 _atom_site_occupancy
  Nb  Nb0  1  0.33333300  0.66666700  0.37545754  1
  Nb  Nb1  1  0.33333400  0.66666700  0.87741107  1
  Nb  Nb2  1  0.00000000  0.00000000  0.37374301  1
  Nb  Nb3  1  -0.00000000  -0.00000000  0.87645214  1
  Nb  Nb4  1  0.00000000  0.99999900  0.12358779  1
  Nb  Nb5  1  -0.00000000  -0.00000000  0.62621734  1
  Nb  Nb6  1  0.33333300  0.66666600  0.62450729  1
  Nb  Nb7  1  0.33333400  0.66666700  0.12262668  1
  Nb  Nb8  1  0.66666700  0.33333300  0.37466668  1
  Nb  Nb9  1  0.66666700  0.33333300  0.87643697  1
  Nb  Nb10  1  0.66666700  0.33333300  0.62530260  1
  Nb  Nb11  1  0.66666700  0.33333400  0.12358638  1
  Nb  Nb12  1  0.33333300  0.66666700  0.24838186  1
  Nb  Nb13  1  0.33333300  0.66666700  0.75164414  1
  Nb  Nb14  1  -0.00000000  -0.00000000  0.49997478  1
  S  S0  1  0.66574588  0.66675768  0.18604681  1
  S  S1  1  0.66643637  0.66502992  0.68742489  1
  S  S2  1  0.33324232  -0.00101079  0.18604581  1
  S  S3  1  0.33497008  0.00140645  0.68742489  1
  S  S4  1  0.00101179  0.33425412  0.18604581  1
  S  S5  1  0.99859355  0.33356363  0.68742489  1
  S  S6  1  0.66704843  0.66575661  0.56332543  1
  S  S7  1  0.66809916  0.66665998  0.06249269  1
  S  S8  1  0.99870818  0.33295157  0.56332543  1
  S  S9  1  0.99856082  0.33190184  0.06249269  1
  S  S10  1  0.33424339  0.00129182  0.56332543  1
  S  S11  1  0.33334102  0.00143918  0.06249269  1
  S  S12  1  0.66707029  0.00130074  0.43663833  1
  S  S13  1  0.66809352  0.00143752  0.93751427  1
  S  S14  1  0.99869926  0.66576855  0.43663833  1
  S  S15  1  0.99856248  0.66665600  0.93751427  1
  S  S16  1  0.33423045  0.33292971  0.43663833  1
  S  S17  1  0.33334400  0.33190648  0.93751427  1
  S  S18  1  0.66642900  0.00140970  0.31256283  1
  S  S19  1  0.66574618  -0.00101304  0.81399598  1
  S  S20  1  0.33498071  0.33357200  0.31256283  1
  S  S21  1  0.33324178  0.33425382  0.81399598  1
  S  S22  1  0.99859030  0.66501929  0.31256283  1
  S  S23  1  0.00101304  0.66675922  0.81399598  1
loop_
_geom_bond_atom_site_label_1
_geom_bond_atom_site_label_2
_geom_bond_distance
_geom_bond_site_symmetry_2
Nb0 S14 2.490345 1_455
Nb0 S12 2.490350 1_565
Nb0 S16 2.490352 1_555
Nb0 S22 2.516525 1_455
Nb0 S20 2.516525 1_555
Nb0 S18 2.516528 1_565
Nb1 S13 2.476034 1_565
Nb1 S17 2.476036 1_555
Nb1 S15 2.476038 1_455
Nb1 S19 2.517954 1_565
Nb1 S23 2.517958 1_555
Nb1 S21 2.517958 1_555
Nb2 S18 2.490757 1_455
Nb2 S22 2.490757 1_445
Nb2 S20 2.490760 1_555
Nb2 S12 2.515005 1_455
Nb2 S16 2.515005 1_555
Nb2 S14 2.515010 1_445
Nb3 S13 2.481375 1_455
Nb3 S15 2.481375 1_445
Nb3 S17 2.481375 1_555
Nb3 S19 2.508693 1_455
Nb3 S23 2.508693 1_545
Nb3 S21 2.508696 1_555
Nb4 S7 2.481874 1_455
Nb4 S11 2.481879 1_565
Nb4 S9 2.481885 1_465
Nb4 S2 2.508723 1_565
Nb4 S4 2.508732 1_565
Nb4 S0 2.508741 1_455
Nb5 S3 2.491150 1_555
Nb5 S5 2.491150 1_455
Nb5 S1 2.491150 1_445
Nb5 S8 2.515029 1_455
Nb5 S10 2.515029 1_555
Nb5 S6 2.515029 1_445
Nb6 S8 2.490294 1_455
Nb6 S6 2.490297 1_555
Nb6 S10 2.490299 1_565
Nb6 S5 2.516904 1_455
Nb6 S1 2.516906 1_555
Nb6 S3 2.516908 1_565
Nb7 S7 2.476532 1_555
Nb7 S11 2.476532 1_565
Nb7 S9 2.476534 1_455
Nb7 S4 2.518026 1_555
Nb7 S2 2.518028 1_565
Nb7 S0 2.518037 1_555
Nb8 S12 2.494086 1_555
Nb8 S14 2.494086 1_555
Nb8 S16 2.494091 1_555
Nb8 S18 2.494264 1_555
Nb8 S22 2.494267 1_555
Nb8 S20 2.494271 1_555
Nb9 S13 2.481541 1_555
Nb9 S15 2.481543 1_555
Nb9 S17 2.481545 1_555
Nb9 S21 2.509073 1_555
Nb9 S19 2.509073 1_555
Nb9 S23 2.509076 1_655
Nb10 S8 2.494166 1_555
Nb10 S10 2.494168 1_555
Nb10 S6 2.494170 1_555
Nb10 S5 2.494592 1_555
Nb10 S3 2.494594 1_555
Nb10 S1 2.494596 1_555
Nb11 S9 2.481806 1_555
Nb11 S7 2.481806 1_555
Nb11 S11 2.481808 1_555
Nb11 S4 2.509365 1_655
Nb11 S2 2.509366 1_555
Nb11 S0 2.509379 1_555
Nb12 S0 2.500518 1_555
Nb12 S4 2.500532 1_555
Nb12 S2 2.500534 1_565
Nb12 S22 2.537370 1_455
Nb12 S20 2.537370 1_555
Nb12 S18 2.537372 1_565
Nb13 S23 2.500781 1_555
Nb13 S19 2.500783 1_565
Nb13 S21 2.500788 1_555
Nb13 S3 2.538003 1_565
Nb13 S5 2.538005 1_455
Nb13 S1 2.538007 1_555
Nb14 S12 2.522130 1_455
Nb14 S16 2.522130 1_555
Nb14 S14 2.522134 1_445
Nb14 S10 2.522438 1_555
Nb14 S8 2.522438 1_455
Nb14 S6 2.522438 1_445
