# generated using pymatgen
data_RbMg14MnO16
_symmetry_space_group_name_H-M   'P 1'
_cell_length_a   8.80071500
_cell_length_b   8.80071500
_cell_length_c   4.30065200
_cell_angle_alpha   90.00000000
_cell_angle_beta   90.00000000
_cell_angle_gamma   90.00000000
_symmetry_Int_Tables_number   1
_chemical_formula_structural   RbMg14MnO16
_chemical_formula_sum   'Rb1 Mg14 Mn1 O16'
_cell_volume   333.09661248
_cell_formula_units_Z   1
loop_
 _symmetry_equiv_pos_site_id
 _symmetry_equiv_pos_as_xyz
  1  'x, y, z'
loop_
 _atom_site_type_symbol
 _atom_site_label
 _atom_site_symmetry_multiplicity
 _atom_site_fract_x
 _atom_site_fract_y
 _atom_site_fract_z
 _atom_site_occupancy
  Rb  Rb0  1  0.50000000  0.50000000  0.00000000  1
  Mg  Mg0  1  0.50000000  0.00000000  0.00000000  1
  Mg  Mg1  1  0.00000000  0.50000000  0.00000000  1
  Mg  Mg2  1  0.25208400  0.00000000  0.50000000  1
  Mg  Mg3  1  0.74791600  0.00000000  0.50000000  1
  Mg  Mg4  1  0.23615200  0.50000000  0.50000000  1
  Mg  Mg5  1  0.76384800  0.50000000  0.50000000  1
  Mg  Mg6  1  0.00000000  0.25208400  0.50000000  1
  Mg  Mg7  1  0.50000000  0.23615200  0.50000000  1
  Mg  Mg8  1  0.00000000  0.74791600  0.50000000  1
  Mg  Mg9  1  0.50000000  0.76384800  0.50000000  1
  Mg  Mg10  1  0.24810600  0.24810600  0.00000000  1
  Mg  Mg11  1  0.75189400  0.24810600  0.00000000  1
  Mg  Mg12  1  0.24810600  0.75189400  0.00000000  1
  Mg  Mg13  1  0.75189400  0.75189400  0.00000000  1
  Mn  Mn0  1  0.00000000  0.00000000  0.00000000  1
  O  O0  1  0.00000000  0.24690600  0.00000000  1
  O  O1  1  0.50000000  0.22099400  0.00000000  1
  O  O2  1  0.00000000  0.75309400  0.00000000  1
  O  O3  1  0.50000000  0.77900600  0.00000000  1
  O  O4  1  0.24982300  0.24982300  0.50000000  1
  O  O5  1  0.75017700  0.24982300  0.50000000  1
  O  O6  1  0.24982300  0.75017700  0.50000000  1
  O  O7  1  0.75017700  0.75017700  0.50000000  1
  O  O8  1  0.00000000  0.00000000  0.50000000  1
  O  O9  1  0.50000000  0.00000000  0.50000000  1
  O  O10  1  0.00000000  0.50000000  0.50000000  1
  O  O11  1  0.50000000  0.50000000  0.50000000  1
  O  O12  1  0.24690600  0.00000000  0.00000000  1
  O  O13  1  0.75309400  0.00000000  0.00000000  1
  O  O14  1  0.22099400  0.50000000  0.00000000  1
  O  O15  1  0.77900600  0.50000000  0.00000000  1
loop_
_geom_bond_atom_site_label_1
_geom_bond_atom_site_label_2
_geom_bond_distance
_geom_bond_site_symmetry_2
Mg0 O1 1.944905 1_555
Mg0 O3 1.944905 1_545
Mg0 O9 2.150326 1_554
Mg0 O9 2.150326 1_555
Mg0 O12 2.227408 1_555
Mg0 O13 2.227408 1_555
Mg1 O14 1.944905 1_555
Mg1 O15 1.944905 1_455
Mg1 O10 2.150326 1_555
Mg1 O10 2.150326 1_554
Mg1 O0 2.227408 1_555
Mg1 O2 2.227408 1_555
Mg2 O12 2.150809 1_556
Mg2 O12 2.150809 1_555
Mg2 O9 2.181838 1_555
Mg2 O4 2.198711 1_555
Mg2 O6 2.198711 1_545
Mg2 O8 2.218519 1_555
Mg3 O13 2.150809 1_555
Mg3 O13 2.150809 1_556
Mg3 O9 2.181838 1_555
Mg3 O5 2.198711 1_555
Mg3 O7 2.198711 1_545
Mg3 O8 2.218519 1_655
Mg4 O10 2.078306 1_555
Mg4 O14 2.154460 1_555
Mg4 O14 2.154460 1_556
Mg4 O4 2.205021 1_555
Mg4 O6 2.205021 1_555
Mg4 O11 2.322051 1_555
Mg5 O10 2.078306 1_655
Mg5 O15 2.154460 1_556
Mg5 O15 2.154460 1_555
Mg5 O5 2.205021 1_555
Mg5 O7 2.205021 1_555
Mg5 O11 2.322051 1_555
Mg6 O0 2.150809 1_555
Mg6 O0 2.150809 1_556
Mg6 O10 2.181838 1_555
Mg6 O4 2.198711 1_555
Mg6 O5 2.198711 1_455
Mg6 O8 2.218519 1_555
Mg7 O9 2.078306 1_555
Mg7 O1 2.154460 1_556
Mg7 O1 2.154460 1_555
Mg7 O4 2.205021 1_555
Mg7 O5 2.205021 1_555
Mg7 O11 2.322051 1_555
Mg8 O2 2.150809 1_556
Mg8 O2 2.150809 1_555
Mg8 O10 2.181838 1_555
Mg8 O6 2.198711 1_555
Mg8 O7 2.198711 1_455
Mg8 O8 2.218519 1_565
Mg9 O9 2.078306 1_565
Mg9 O3 2.154460 1_556
Mg9 O3 2.154460 1_555
Mg9 O6 2.205021 1_555
Mg9 O7 2.205021 1_555
Mg9 O11 2.322051 1_555
Mg10 O4 2.150432 1_554
Mg10 O4 2.150432 1_555
Mg10 O12 2.183536 1_555
Mg10 O0 2.183536 1_555
Mg10 O1 2.229651 1_555
Mg10 O14 2.229651 1_555
Mg11 O5 2.150432 1_555
Mg11 O5 2.150432 1_554
Mg11 O13 2.183536 1_555
Mg11 O0 2.183536 1_655
Mg11 O1 2.229651 1_555
Mg11 O15 2.229651 1_555
Mg12 O6 2.150432 1_555
Mg12 O6 2.150432 1_554
Mg12 O2 2.183536 1_555
Mg12 O12 2.183536 1_565
Mg12 O14 2.229651 1_555
Mg12 O3 2.229651 1_555
Mg13 O7 2.150432 1_555
Mg13 O7 2.150432 1_554
Mg13 O13 2.183536 1_565
Mg13 O2 2.183536 1_655
Mg13 O15 2.229651 1_555
Mg13 O3 2.229651 1_555
Mn0 O8 2.150326 1_554
Mn0 O8 2.150326 1_555
Mn0 O2 2.172949 1_545
Mn0 O13 2.172949 1_455
Mn0 O12 2.172949 1_555
Mn0 O0 2.172949 1_555
O1 Rb0 2.455452 1_555
O3 Rb0 2.455452 1_555
O11 Rb0 2.150326 1_555
O11 Rb0 2.150326 1_556
O14 Rb0 2.455452 1_555
O15 Rb0 2.455452 1_555
