# generated using pymatgen
data_K2ZrSi3O10
_symmetry_space_group_name_H-M   'P 1'
_cell_length_a   7.27656400
_cell_length_b   10.41304500
_cell_length_c   13.52081600
_cell_angle_alpha   90.00000000
_cell_angle_beta   90.00000000
_cell_angle_gamma   90.00000000
_symmetry_Int_Tables_number   1
_chemical_formula_structural   K2ZrSi3O10
_chemical_formula_sum   'K8 Zr4 Si12 O40'
_cell_volume   1024.48829615
_cell_formula_units_Z   4
loop_
 _symmetry_equiv_pos_site_id
 _symmetry_equiv_pos_as_xyz
  1  'x, y, z'
loop_
 _atom_site_type_symbol
 _atom_site_label
 _atom_site_symmetry_multiplicity
 _atom_site_fract_x
 _atom_site_fract_y
 _atom_site_fract_z
 _atom_site_occupancy
  K  K0  1  0.34358700  0.77435300  0.13462700  1
  K  K1  1  0.84358700  0.72564700  0.86537300  1
  K  K2  1  0.65641300  0.27435300  0.36537300  1
  K  K3  1  0.15641300  0.22564700  0.63462700  1
  K  K4  1  0.77564300  0.57346700  0.58192800  1
  K  K5  1  0.27564300  0.92653300  0.41807200  1
  K  K6  1  0.22435700  0.07346700  0.91807200  1
  K  K7  1  0.72435700  0.42653300  0.08192800  1
  Zr  Zr0  1  0.24139100  0.55372500  0.70704100  1
  Zr  Zr1  1  0.74139100  0.94627500  0.29295900  1
  Zr  Zr2  1  0.75860900  0.05372500  0.79295900  1
  Zr  Zr3  1  0.25860900  0.44627500  0.20704100  1
  Si  Si0  1  0.49270100  0.82801200  0.67465300  1
  Si  Si1  1  0.99270100  0.67198800  0.32534700  1
  Si  Si2  1  0.50729900  0.32801200  0.82534700  1
  Si  Si3  1  0.00729900  0.17198800  0.17465300  1
  Si  Si4  1  0.76691900  0.97202400  0.55062400  1
  Si  Si5  1  0.26691900  0.52797600  0.44937600  1
  Si  Si6  1  0.23308100  0.47202400  0.94937600  1
  Si  Si7  1  0.73308100  0.02797600  0.05062400  1
  Si  Si8  1  0.92043400  0.36395300  0.83318700  1
  Si  Si9  1  0.42043400  0.13604700  0.16681300  1
  Si  Si10  1  0.07956600  0.86395300  0.66681300  1
  Si  Si11  1  0.57956600  0.63604700  0.33318700  1
  O  O0  1  0.25277300  0.58487000  0.86536700  1
  O  O1  1  0.75277300  0.91513000  0.13463300  1
  O  O2  1  0.74722700  0.08487000  0.63463300  1
  O  O3  1  0.24722700  0.41513000  0.36536700  1
  O  O4  1  0.46304300  0.67455000  0.68507300  1
  O  O5  1  0.96304300  0.82545000  0.31492700  1
  O  O6  1  0.53695700  0.17455000  0.81492700  1
  O  O7  1  0.03695700  0.32545000  0.18507300  1
  O  O8  1  0.22380900  0.48502900  0.56144500  1
  O  O9  1  0.72380900  0.01497100  0.43855500  1
  O  O10  1  0.77619100  0.98502900  0.93855500  1
  O  O11  1  0.27619100  0.51497100  0.06144500  1
  O  O12  1  0.00247300  0.44380400  0.73983800  1
  O  O13  1  0.50247300  0.05619600  0.26016200  1
  O  O14  1  0.99752700  0.94380400  0.76016200  1
  O  O15  1  0.49752700  0.55619600  0.23983800  1
  O  O16  1  0.41130000  0.39040300  0.72806100  1
  O  O17  1  0.91130000  0.10959700  0.27193900  1
  O  O18  1  0.58870000  0.89040300  0.77193900  1
  O  O19  1  0.08870000  0.60959700  0.22806100  1
  O  O20  1  0.05818100  0.70995500  0.68386700  1
  O  O21  1  0.55818100  0.79004500  0.31613300  1
  O  O22  1  0.94181900  0.20995500  0.81613300  1
  O  O23  1  0.44181900  0.29004500  0.18386700  1
  O  O24  1  0.29758500  0.90252900  0.64733500  1
  O  O25  1  0.79758500  0.59747100  0.35266500  1
  O  O26  1  0.70241500  0.40252900  0.85266500  1
  O  O27  1  0.20241500  0.09747100  0.14733500  1
  O  O28  1  0.97948200  0.91256500  0.56216500  1
  O  O29  1  0.47948200  0.58743500  0.43783500  1
  O  O30  1  0.02051800  0.41256500  0.93783500  1
  O  O31  1  0.52051800  0.08743500  0.06216500  1
  O  O32  1  0.62759700  0.85051200  0.57759800  1
  O  O33  1  0.12759700  0.64948800  0.42240200  1
  O  O34  1  0.37240300  0.35051200  0.92240200  1
  O  O35  1  0.87240300  0.14948800  0.07759800  1
  O  O36  1  0.63275800  0.29377900  0.58064100  1
  O  O37  1  0.13275800  0.20622100  0.41935900  1
  O  O38  1  0.36724200  0.79377900  0.91935900  1
  O  O39  1  0.86724200  0.70622100  0.08064100  1
loop_
_geom_bond_atom_site_label_1
_geom_bond_atom_site_label_2
_geom_bond_distance
_geom_bond_site_symmetry_2
K0 O19 2.824744 1_555
K0 O15 2.904976 1_555
K0 O21 2.913358 1_555
K0 O11 2.918003 1_555
K0 O38 2.922693 1_554
K0 O1 3.318769 1_555
K1 O18 2.824744 1_555
K1 O14 2.904976 1_555
K1 O20 2.913358 1_655
K1 O10 2.918003 1_555
K1 O39 2.922693 1_556
K1 O0 3.318769 1_655
K2 O17 2.824744 1_555
K2 O13 2.904976 1_555
K2 O23 2.913358 1_555
K2 O9 2.918003 1_555
K2 O36 2.922693 1_555
K2 O3 3.318769 1_555
K3 O16 2.824744 1_555
K3 O12 2.904976 1_555
K3 O22 2.913358 1_455
K3 O8 2.918003 1_555
K3 O37 2.922693 1_555
K3 O2 3.318769 1_455
K4 O20 2.854194 1_655
K4 O4 2.868257 1_555
K4 O29 2.908784 1_555
K4 O12 3.017587 1_655
K4 O32 3.080012 1_555
K4 O36 3.092475 1_555
K4 O25 3.113980 1_555
K5 O21 2.854194 1_555
K5 O5 2.868257 1_455
K5 O28 2.908784 1_455
K5 O13 3.017587 1_565
K5 O33 3.080012 1_555
K5 O37 3.092475 1_565
K5 O24 3.113980 1_555
K6 O22 2.854194 1_455
K6 O6 2.868257 1_555
K6 O31 2.908784 1_556
K6 O14 3.017587 1_445
K6 O34 3.080012 1_555
K6 O38 3.092475 1_545
K6 O27 3.113980 1_556
K7 O23 2.854194 1_555
K7 O7 2.868257 1_655
K7 O30 2.908784 1_654
K7 O15 3.017587 1_555
K7 O35 3.080012 1_555
K7 O39 3.092475 1_555
K7 O26 3.113980 1_554
O0 Si6 1.640586 1_555
O0 Zr0 2.166708 1_555
O1 Si7 1.640586 1_565
O1 Zr1 2.166708 1_555
O2 Si4 1.640586 1_545
O2 Zr2 2.166708 1_555
O3 Si5 1.640586 1_555
O3 Zr3 2.166708 1_555
O4 Si0 1.618656 1_555
O4 Zr0 2.067006 1_555
O5 Si1 1.618656 1_555
O5 Zr1 2.067006 1_555
O6 Si2 1.618656 1_555
O6 Zr2 2.067006 1_555
O7 Si3 1.618656 1_555
O7 Zr3 2.067006 1_555
O8 Si5 1.610722 1_555
O8 Zr0 2.098420 1_555
O9 Si4 1.610722 1_545
O9 Zr1 2.098420 1_545
O10 Si7 1.610722 1_566
O10 Zr2 2.098420 1_565
O11 Si6 1.610722 1_554
O11 Zr3 2.098420 1_555
O12 Si8 1.625047 1_455
O12 Zr0 2.128184 1_555
O13 Si9 1.625047 1_555
O13 Zr1 2.128184 1_545
O14 Si10 1.625047 1_655
O14 Zr2 2.128184 1_565
O15 Si11 1.625047 1_555
O15 Zr3 2.128184 1_555
O16 Si2 1.624896 1_555
O16 Zr0 2.121710 1_555
O17 Si3 1.624896 1_655
O17 Zr1 2.121710 1_545
O18 Si0 1.624896 1_555
O18 Zr2 2.121710 1_565
O19 Si1 1.624896 1_455
O19 Zr3 2.121710 1_555
O20 Si10 1.627537 1_555
O20 Zr0 2.126502 1_555
O21 Si11 1.627537 1_555
O21 Zr1 2.126502 1_555
O22 Si8 1.627537 1_555
O22 Zr2 2.126502 1_555
O23 Si9 1.627537 1_555
O23 Zr3 2.126502 1_555
O24 Si10 1.657550 1_555
O24 Si0 1.659603 1_555
O25 Si11 1.657550 1_555
O25 Si1 1.659603 1_555
O26 Si8 1.657550 1_555
O26 Si2 1.659603 1_555
O27 Si9 1.657550 1_555
O27 Si3 1.659603 1_555
O28 Si10 1.669918 1_655
O28 Si4 1.673339 1_555
O29 Si11 1.669918 1_555
O29 Si5 1.673339 1_555
O30 Si8 1.669918 1_455
O30 Si6 1.673339 1_555
O31 Si9 1.669918 1_555
O31 Si7 1.673339 1_555
O32 Si0 1.655423 1_555
O32 Si4 1.661862 1_555
O33 Si1 1.655423 1_455
O33 Si5 1.661862 1_555
O34 Si2 1.655423 1_555
O34 Si6 1.661862 1_555
O35 Si3 1.655423 1_655
O35 Si7 1.661862 1_555
