# generated using pymatgen
data_NaFeH4SO6F
_symmetry_space_group_name_H-M   'P 1'
_cell_length_a   7.43365114
_cell_length_b   10.90427970
_cell_length_c   7.50883057
_cell_angle_alpha   89.96363474
_cell_angle_beta   90.01667681
_cell_angle_gamma   76.28996987
_symmetry_Int_Tables_number   1
_chemical_formula_structural   NaFeH4SO6F
_chemical_formula_sum   'Na4 Fe4 H16 S4 O24 F4'
_cell_volume   591.31317200
_cell_formula_units_Z   4
loop_
 _symmetry_equiv_pos_site_id
 _symmetry_equiv_pos_as_xyz
  1  'x, y, z'
loop_
 _atom_site_type_symbol
 _atom_site_label
 _atom_site_symmetry_multiplicity
 _atom_site_fract_x
 _atom_site_fract_y
 _atom_site_fract_z
 _atom_site_occupancy
  Na  Na0  1  0.58134000  0.71415000  0.74985900  1
  Na  Na1  1  0.08100000  0.21277900  0.74983600  1
  Na  Na2  1  0.41868000  0.28583300  0.25017600  1
  Na  Na3  1  0.91896600  0.78726700  0.25016900  1
  Fe  Fe0  1  0.99989700  0.50007600  0.49985700  1
  Fe  Fe1  1  0.99993800  0.50008600  0.00014700  1
  Fe  Fe2  1  0.50004100  0.00007600  0.50008700  1
  Fe  Fe3  1  0.49992100  0.99991000  0.00002800  1
  H  H0  1  0.84241400  0.03394300  0.09408900  1
  H  H1  1  0.34130900  0.53551500  0.09093900  1
  H  H2  1  0.15756300  0.96588900  0.59403600  1
  H  H3  1  0.65889700  0.46444200  0.59110500  1
  H  H4  1  0.15762900  0.96605200  0.90591500  1
  H  H5  1  0.65878400  0.46445400  0.90906400  1
  H  H6  1  0.84237600  0.03410800  0.40598200  1
  H  H7  1  0.34122100  0.53552600  0.40890300  1
  H  H8  1  0.86857700  0.93774600  0.56890900  1
  H  H9  1  0.36918700  0.43714800  0.56816000  1
  H  H10  1  0.13130200  0.06211200  0.06894100  1
  H  H11  1  0.63063800  0.56288400  0.06809200  1
  H  H12  1  0.13138200  0.06224100  0.43110500  1
  H  H13  1  0.63090300  0.56285600  0.43179900  1
  H  H14  1  0.86871700  0.93787400  0.93106500  1
  H  H15  1  0.36942400  0.43710800  0.93194900  1
  S  S0  1  0.58213200  0.22923400  0.75006800  1
  S  S1  1  0.08225100  0.73062400  0.74982900  1
  S  S2  1  0.41782400  0.77077000  0.24994100  1
  S  S3  1  0.91776400  0.26935500  0.25017100  1
  O  O0  1  0.53398500  0.37302500  0.74987700  1
  O  O1  1  0.03941500  0.87457900  0.74966900  1
  O  O2  1  0.46599100  0.62698000  0.24998100  1
  O  O3  1  0.96056900  0.12540100  0.25033400  1
  O  O4  1  0.78280300  0.17972900  0.75030500  1
  O  O5  1  0.28282800  0.67788700  0.75004900  1
  O  O6  1  0.21715400  0.82030000  0.24967700  1
  O  O7  1  0.71718800  0.32210700  0.24996600  1
  O  O8  1  0.49344000  0.18854100  0.58787200  1
  O  O9  1  0.99174100  0.69181800  0.58759500  1
  O  O10  1  0.50676400  0.81144800  0.08778500  1
  O  O11  1  0.00852000  0.30812300  0.08812500  1
  O  O12  1  0.50655000  0.81138300  0.41213800  1
  O  O13  1  0.00824100  0.30816900  0.41242000  1
  O  O14  1  0.49316500  0.18860000  0.91220800  1
  O  O15  1  0.99144900  0.69188200  0.91186700  1
  O  O16  1  0.80015900  0.96191200  0.04373800  1
  O  O17  1  0.30109500  0.46162700  0.04475300  1
  O  O18  1  0.20019600  0.03781200  0.54366800  1
  O  O19  1  0.69927400  0.53824800  0.54466800  1
  O  O20  1  0.19984000  0.03810200  0.95625100  1
  O  O21  1  0.69891800  0.53837500  0.95525500  1
  O  O22  1  0.79978200  0.96216500  0.45633600  1
  O  O23  1  0.30075800  0.46175600  0.45531700  1
  F  F0  1  0.55852900  0.92111800  0.74997900  1
  F  F1  1  0.04066400  0.42602300  0.75030000  1
  F  F2  1  0.44148900  0.07886100  0.24994700  1
  F  F3  1  0.95941600  0.57397000  0.24969900  1
loop_
_geom_bond_atom_site_label_1
_geom_bond_atom_site_label_2
_geom_bond_distance
_geom_bond_site_symmetry_2
Na0 O5 2.344441 1_555
Na0 O21 2.453095 1_555
Na0 O19 2.455396 1_555
Na0 O12 2.753239 1_555
Na0 O10 2.756257 1_556
Na1 O4 2.328582 1_455
Na1 O20 2.451235 1_555
Na1 O18 2.454571 1_555
Na1 O13 2.742768 1_555
Na1 O11 2.749945 1_556
Na2 O7 2.344459 1_555
Na2 O17 2.453375 1_555
Na2 O23 2.455304 1_555
Na2 O8 2.753258 1_555
Na2 O14 2.756234 1_554
Na3 O6 2.328446 1_655
Na3 O16 2.451026 1_555
Na3 O22 2.454030 1_555
Na3 O9 2.743063 1_555
Na3 O15 2.750186 1_554
Fe0 O9 2.179649 1_555
Fe0 O13 2.180402 1_655
Fe0 O19 2.200039 1_555
Fe0 O23 2.201363 1_655
Fe1 O15 2.180136 1_554
Fe1 O11 2.181046 1_655
Fe1 O21 2.202651 1_554
Fe1 O17 2.203219 1_655
Fe2 O8 2.148063 1_555
Fe2 O12 2.150947 1_545
Fe2 O22 2.192610 1_545
Fe2 O18 2.193270 1_555
Fe3 O10 2.146792 1_555
Fe3 O14 2.149434 1_564
Fe3 O20 2.194663 1_564
Fe3 O16 2.195831 1_555
H0 O16 0.987820 1_545
H1 O17 0.986531 1_555
H2 O18 0.987959 1_565
H3 O19 0.986704 1_555
H4 O20 0.987791 1_565
H5 O21 0.986569 1_555
H6 O22 0.987961 1_545
H7 O23 0.986613 1_555
H8 O22 0.990889 1_555
H9 O23 0.991698 1_555
H10 O20 0.990672 1_554
H11 O21 0.991545 1_554
H12 O18 0.990905 1_555
H13 O19 0.991671 1_555
H14 O16 0.990673 1_556
H15 O17 0.991513 1_556
O0 S0 1.523324 1_555
O1 S1 1.525942 1_555
O2 S2 1.523313 1_555
O3 S3 1.525939 1_555
O4 S0 1.461137 1_555
O5 S1 1.465401 1_555
O6 S2 1.461165 1_555
O7 S3 1.465418 1_555
O8 S0 1.501252 1_555
O9 S1 1.500286 1_655
O10 S2 1.501738 1_555
O11 S3 1.499805 1_455
O12 S2 1.501038 1_555
O13 S3 1.500285 1_455
O14 S0 1.501551 1_555
O15 S1 1.499823 1_655
F0 Fe2 2.066692 1_565
F0 Fe3 2.068421 1_556
F0 Na0 2.222762 1_555
F1 Fe1 2.037114 1_456
F1 Fe0 2.040107 1_455
F1 Na1 2.272956 1_555
F2 Fe2 2.067746 1_555
F2 Fe3 2.068024 1_545
F2 Na2 2.222809 1_555
F3 Fe1 2.034284 1_555
F3 Fe0 2.037396 1_555
F3 Na3 2.273435 1_555
