# generated using pymatgen
data_Te3Mo2S
_symmetry_space_group_name_H-M   'P 1'
_cell_length_a   3.45176956
_cell_length_b   3.45176956
_cell_length_c   39.55331300
_cell_angle_alpha   90.00000000
_cell_angle_beta   90.00000000
_cell_angle_gamma   119.99999157
_symmetry_Int_Tables_number   1
_chemical_formula_structural   Te3Mo2S
_chemical_formula_sum   'Te6 Mo4 S2'
_cell_volume   408.12868857
_cell_formula_units_Z   2
loop_
 _symmetry_equiv_pos_site_id
 _symmetry_equiv_pos_as_xyz
  1  'x, y, z'
loop_
 _atom_site_type_symbol
 _atom_site_label
 _atom_site_symmetry_multiplicity
 _atom_site_fract_x
 _atom_site_fract_y
 _atom_site_fract_z
 _atom_site_occupancy
  Te  Te0  1  0.33333300  0.66666700  0.70459900  1
  Te  Te1  1  0.66666700  0.33333300  0.04728000  1
  Te  Te2  1  0.66666700  0.33333300  0.42249000  1
  Te  Te3  1  0.66666700  0.33333300  0.14080300  1
  Te  Te4  1  0.66666700  0.33333300  0.51605000  1
  Te  Te5  1  0.33333300  0.66666700  0.61106600  1
  Mo  Mo0  1  0.33333300  0.66666700  0.09404500  1
  Mo  Mo1  1  0.33333300  0.66666700  0.46925100  1
  Mo  Mo2  1  0.66666700  0.33333300  0.28179400  1
  Mo  Mo3  1  0.66666700  0.33333300  0.65785100  1
  S  S0  1  0.33333300  0.66666700  0.31943700  1
  S  S1  1  0.33333300  0.66666700  0.24408200  1
loop_
_geom_bond_atom_site_label_1
_geom_bond_atom_site_label_2
_geom_bond_distance
_geom_bond_site_symmetry_2
Mo0 Te3 2.718818 1_455
Mo0 Te3 2.718818 1_565
Mo0 Te3 2.718822 1_555
Mo0 Te1 2.719006 1_455
Mo0 Te1 2.719006 1_565
Mo0 Te1 2.719010 1_555
Mo1 Te2 2.718898 1_455
Mo1 Te2 2.718898 1_565
Mo1 Te2 2.718903 1_555
Mo1 Te4 2.719921 1_455
Mo1 Te4 2.719921 1_565
Mo1 Te4 2.719925 1_555
Mo2 S0 2.487650 1_545
Mo2 S0 2.487650 1_655
Mo2 S0 2.487655 1_555
Mo2 S1 2.489285 1_545
Mo2 S1 2.489285 1_655
Mo2 S1 2.489289 1_555
Mo3 Te0 2.718549 1_545
Mo3 Te0 2.718549 1_655
Mo3 Te0 2.718553 1_555
Mo3 Te5 2.719544 1_545
Mo3 Te5 2.719544 1_655
Mo3 Te5 2.719548 1_555
