# generated using pymatgen
data_BaFeCuPb2ClO5
_symmetry_space_group_name_H-M   'P 1'
_cell_length_a   3.97283400
_cell_length_b   3.97283400
_cell_length_c   11.59392800
_cell_angle_alpha   90.00000000
_cell_angle_beta   90.00000000
_cell_angle_gamma   90.00000000
_symmetry_Int_Tables_number   1
_chemical_formula_structural   BaFeCuPb2ClO5
_chemical_formula_sum   'Ba1 Fe1 Cu1 Pb2 Cl1 O5'
_cell_volume   182.99171904
_cell_formula_units_Z   1
loop_
 _symmetry_equiv_pos_site_id
 _symmetry_equiv_pos_as_xyz
  1  'x, y, z'
loop_
 _atom_site_type_symbol
 _atom_site_label
 _atom_site_symmetry_multiplicity
 _atom_site_fract_x
 _atom_site_fract_y
 _atom_site_fract_z
 _atom_site_occupancy
  Ba  Ba0  1  0.50000000  0.50000000  0.51404800  1
  Fe  Fe0  1  0.00000000  0.00000000  0.32540800  1
  Cu  Cu0  1  0.00000000  0.00000000  0.68934400  1
  Pb  Pb0  1  0.50000000  0.50000000  0.83231500  1
  Pb  Pb1  1  0.50000000  0.50000000  0.16108400  1
  Cl  Cl0  1  0.00000000  0.00000000  0.00670800  1
  O  O0  1  0.00000000  0.50000000  0.70649100  1
  O  O1  1  0.50000000  0.00000000  0.70649100  1
  O  O2  1  0.00000000  0.50000000  0.28555600  1
  O  O3  1  0.50000000  0.00000000  0.28555600  1
  O  O4  1  0.00000000  0.00000000  0.48699900  1
loop_
_geom_bond_atom_site_label_1
_geom_bond_atom_site_label_2
_geom_bond_distance
_geom_bond_site_symmetry_2
Ba0 O4 2.826668 1_665
Ba0 O4 2.826668 1_565
Ba0 O4 2.826668 1_555
Ba0 O4 2.826668 1_655
Ba0 O0 2.987302 1_655
Ba0 O1 2.987302 1_555
Ba0 O0 2.987302 1_555
Ba0 O1 2.987302 1_565
Ba0 O2 3.311146 1_555
Ba0 O2 3.311146 1_655
Ba0 O3 3.311146 1_555
Ba0 O3 3.311146 1_565
Fe0 O4 1.873474 1_555
Fe0 O2 2.039445 1_555
Fe0 O3 2.039445 1_555
Fe0 O3 2.039445 1_455
Fe0 O2 2.039445 1_545
Cu0 O0 1.996340 1_545
Cu0 O0 1.996340 1_555
Cu0 O1 1.996340 1_455
Cu0 O1 1.996340 1_555
Cu0 O4 2.345973 1_555
O0 Pb0 2.464535 1_555
O0 Pb0 2.464535 1_455
O1 Pb0 2.464535 1_555
O1 Pb0 2.464535 1_545
O2 Pb1 2.455289 1_455
O2 Pb1 2.455289 1_555
O3 Pb1 2.455289 1_545
O3 Pb1 2.455289 1_555
