# generated using pymatgen
data_Ta8(CuS8)3
_symmetry_space_group_name_H-M   'P 1'
_cell_length_a   3.42696889
_cell_length_b   9.62368759
_cell_length_c   21.66510874
_cell_angle_alpha   89.49460957
_cell_angle_beta   90.00000000
_cell_angle_gamma   90.00000000
_symmetry_Int_Tables_number   1
_chemical_formula_structural   Ta8(CuS8)3
_chemical_formula_sum   'Ta8 Cu3 S24'
_cell_volume   714.48917927
_cell_formula_units_Z   1
loop_
 _symmetry_equiv_pos_site_id
 _symmetry_equiv_pos_as_xyz
  1  'x, y, z'
loop_
 _atom_site_type_symbol
 _atom_site_label
 _atom_site_symmetry_multiplicity
 _atom_site_fract_x
 _atom_site_fract_y
 _atom_site_fract_z
 _atom_site_occupancy
  Ta  Ta0  1  0.75000000  0.44840164  0.18400125  1
  Ta  Ta1  1  0.75000000  0.94707778  0.31586323  1
  Ta  Ta2  1  0.25000000  0.55290536  0.81639966  1
  Ta  Ta3  1  0.25000000  0.05198968  0.68680904  1
  Ta  Ta4  1  0.75000000  0.33973849  0.95729298  1
  Ta  Ta5  1  0.75000000  0.83073999  0.54208263  1
  Ta  Ta6  1  0.25000000  0.66899803  0.04236291  1
  Ta  Ta7  1  0.25000000  0.16184838  0.45850353  1
  Cu  Cu0  1  0.75000000  0.67835053  0.72989685  1
  Cu  Cu1  1  0.25000000  0.82147446  0.23013437  1
  Cu  Cu2  1  0.25000000  0.32098525  0.27004848  1
  S  S0  1  0.75000000  0.48288656  0.06010361  1
  S  S1  1  0.75000000  0.97691185  0.43966466  1
  S  S2  1  0.25000000  0.52648163  0.94194023  1
  S  S3  1  0.25000000  0.01520253  0.55806832  1
  S  S4  1  0.75000000  0.21716209  0.66493671  1
  S  S5  1  0.75000000  0.72777987  0.83251965  1
  S  S6  1  0.25000000  0.77137742  0.33262528  1
  S  S7  1  0.25000000  0.27349824  0.16749215  1
  S  S8  1  0.75000000  0.36933125  0.83843024  1
  S  S9  1  0.75000000  0.86149427  0.66261327  1
  S  S10  1  0.25000000  0.63775734  0.16381558  1
  S  S11  1  0.25000000  0.13530189  0.33633523  1
  S  S12  1  0.75000000  0.47185178  0.28875038  1
  S  S13  1  0.75000000  0.97302522  0.21099001  1
  S  S14  1  0.25000000  0.52635566  0.71220651  1
  S  S15  1  0.25000000  0.03114689  0.78628299  1
  S  S16  1  0.75000000  0.34469043  0.42898792  1
  S  S17  1  0.75000000  0.85140971  0.07183743  1
  S  S18  1  0.25000000  0.64778706  0.57242852  1
  S  S19  1  0.25000000  0.15806903  0.92675264  1
  S  S20  1  0.75000000  0.29575290  0.52137842  1
  S  S21  1  0.75000000  0.80654962  0.97999237  1
  S  S22  1  0.25000000  0.69357372  0.48034737  1
  S  S23  1  0.25000000  0.20024746  0.01902561  1
loop_
_geom_bond_atom_site_label_1
_geom_bond_atom_site_label_2
_geom_bond_distance
_geom_bond_site_symmetry_2
Cu0 S9 2.277291 1_555
Cu0 S5 2.277752 1_555
Cu0 S14 2.287455 1_555
Cu0 S14 2.287455 1_655
Cu1 S6 2.268054 1_555
Cu1 S13 2.285726 1_455
Cu1 S13 2.285726 1_555
Cu1 S10 2.288050 1_555
Cu2 S7 2.272350 1_555
Cu2 S11 2.282621 1_555
Cu2 S12 2.284419 1_455
Cu2 S12 2.284419 1_555
S0 Ta6 2.505908 1_655
S0 Ta6 2.505908 1_555
S0 Ta4 2.629311 1_554
S0 Ta0 2.701787 1_555
S1 Ta7 2.506594 1_565
S1 Ta7 2.506594 1_665
S1 Ta5 2.616730 1_555
S1 Ta1 2.700012 1_555
S2 Ta4 2.503177 1_555
S2 Ta4 2.503177 1_455
S2 Ta6 2.582107 1_556
S2 Ta2 2.729478 1_555
S3 Ta5 2.493630 1_545
S3 Ta5 2.493630 1_445
S3 Ta7 2.567293 1_555
S3 Ta3 2.814656 1_555
S4 Ta3 2.382019 1_555
S4 Ta3 2.382019 1_655
S5 Ta2 2.429125 1_655
S5 Ta2 2.429125 1_555
S6 Ta1 2.432318 1_555
S6 Ta1 2.432318 1_455
S7 Ta0 2.430595 1_455
S7 Ta0 2.430595 1_555
S8 Ta2 2.504007 1_655
S8 Ta2 2.504007 1_555
S8 Ta4 2.588376 1_555
S9 Ta3 2.566836 1_665
S9 Ta3 2.566836 1_565
S9 Ta5 2.630621 1_555
S10 Ta0 2.536533 1_555
S10 Ta0 2.536533 1_455
S10 Ta6 2.645770 1_555
S11 Ta1 2.535375 1_545
S11 Ta1 2.535375 1_445
S11 Ta7 2.661333 1_555
S12 Ta0 2.282575 1_555
S13 Ta1 2.283580 1_555
S14 Ta2 2.274008 1_555
S15 Ta3 2.162666 1_555
S16 S20 2.052261 1_555
S16 Ta7 2.534034 1_555
S16 Ta7 2.534034 1_655
S17 S21 2.039846 1_554
S17 Ta6 2.538752 1_555
S17 Ta6 2.538752 1_655
S18 S22 2.039233 1_555
S18 Ta5 2.539261 1_555
S18 Ta5 2.539261 1_455
S19 S23 2.043403 1_556
S19 Ta4 2.539860 1_555
S19 Ta4 2.539860 1_455
S20 Ta7 2.546212 1_655
S20 Ta7 2.546212 1_555
S21 Ta6 2.546117 1_656
S21 Ta6 2.546117 1_556
S22 Ta5 2.549236 1_555
S22 Ta5 2.549236 1_455
S23 Ta4 2.548568 1_454
S23 Ta4 2.548568 1_554
