# generated using pymatgen
data_Cr2H2Pb4ClO10F
_symmetry_space_group_name_H-M   'P 1'
_cell_length_a   7.00394900
_cell_length_b   7.71716200
_cell_length_c   11.95305100
_cell_angle_alpha   90.00000000
_cell_angle_beta   90.00000000
_cell_angle_gamma   90.00000000
_symmetry_Int_Tables_number   1
_chemical_formula_structural   Cr2H2Pb4ClO10F
_chemical_formula_sum   'Cr4 H4 Pb8 Cl2 O20 F2'
_cell_volume   646.06968683
_cell_formula_units_Z   2
loop_
 _symmetry_equiv_pos_site_id
 _symmetry_equiv_pos_as_xyz
  1  'x, y, z'
loop_
 _atom_site_type_symbol
 _atom_site_label
 _atom_site_symmetry_multiplicity
 _atom_site_fract_x
 _atom_site_fract_y
 _atom_site_fract_z
 _atom_site_occupancy
  Cr  Cr0  1  0.35292400  0.50000000  0.00207700  1
  Cr  Cr1  1  0.35244500  0.50000000  0.49810300  1
  Cr  Cr2  1  0.64755500  0.00000000  0.99810300  1
  Cr  Cr3  1  0.64707600  0.00000000  0.50207700  1
  H  H0  1  0.84434300  0.79586100  0.75098600  1
  H  H1  1  0.84434300  0.20413900  0.75098600  1
  H  H2  1  0.15565700  0.70413900  0.25098600  1
  H  H3  1  0.15565700  0.29586100  0.25098600  1
  Pb  Pb0  1  0.58035900  0.75033700  0.25032200  1
  Pb  Pb1  1  0.58035900  0.24966300  0.25032200  1
  Pb  Pb2  1  0.41964100  0.74966300  0.75032200  1
  Pb  Pb3  1  0.41964100  0.25033700  0.75032200  1
  Pb  Pb4  1  0.87644100  0.50000000  0.89895400  1
  Pb  Pb5  1  0.87596800  0.50000000  0.59897100  1
  Pb  Pb6  1  0.12403200  0.00000000  0.09897100  1
  Pb  Pb7  1  0.12355900  0.00000000  0.39895400  1
  Cl  Cl0  1  0.92308500  0.50000000  0.26941600  1
  Cl  Cl1  1  0.07691500  0.00000000  0.76941600  1
  O  O0  1  0.21819900  0.67362100  0.98910300  1
  O  O1  1  0.21819900  0.32637900  0.98910300  1
  O  O2  1  0.21839900  0.67419300  0.51194100  1
  O  O3  1  0.21839900  0.32580700  0.51194100  1
  O  O4  1  0.78160100  0.82580700  0.01194100  1
  O  O5  1  0.78160100  0.17419300  0.01194100  1
  O  O6  1  0.78180100  0.82637900  0.48910300  1
  O  O7  1  0.78180100  0.17362100  0.48910300  1
  O  O8  1  0.50835600  0.50000000  0.89187300  1
  O  O9  1  0.50876100  0.50000000  0.60780000  1
  O  O10  1  0.49123900  0.00000000  0.10780000  1
  O  O11  1  0.49164400  0.00000000  0.39187300  1
  O  O12  1  0.76735800  0.68841800  0.74971800  1
  O  O13  1  0.76735800  0.31158200  0.74971800  1
  O  O14  1  0.23264200  0.81158200  0.24971800  1
  O  O15  1  0.23264200  0.18841800  0.24971800  1
  O  O16  1  0.47286500  0.50000000  0.12420700  1
  O  O17  1  0.47124500  0.50000000  0.37586700  1
  O  O18  1  0.52875500  0.00000000  0.87586700  1
  O  O19  1  0.52713500  0.00000000  0.62420700  1
  F  F0  1  0.87139400  0.00000000  0.25019100  1
  F  F1  1  0.12860600  0.50000000  0.75019100  1
loop_
_geom_bond_atom_site_label_1
_geom_bond_atom_site_label_2
_geom_bond_distance
_geom_bond_site_symmetry_2
Cr0 O0 1.646108 1_554
Cr0 O1 1.646108 1_554
Cr0 O16 1.684279 1_555
Cr0 O8 1.708901 1_554
Cr1 O3 1.647992 1_555
Cr1 O2 1.647992 1_555
Cr1 O17 1.681408 1_555
Cr1 O9 1.708196 1_555
Cr2 O5 1.647992 1_556
Cr2 O4 1.647992 1_546
Cr2 O18 1.681408 1_555
Cr2 O10 1.708196 1_556
Cr3 O7 1.646108 1_555
Cr3 O6 1.646108 1_545
Cr3 O19 1.684279 1_555
Cr3 O11 1.708901 1_555
H0 O12 0.989173 1_555
H1 O13 0.989173 1_555
H2 O14 0.989173 1_555
H3 O15 0.989173 1_555
Cl0 Pb0 3.089722 1_555
Cl0 Pb1 3.089722 1_555
Cl1 Pb3 3.089722 1_555
Cl1 Pb2 3.089722 1_545
O8 Pb4 2.579438 1_555
O8 Pb2 2.638364 1_555
O8 Pb3 2.638364 1_555
O9 Pb5 2.574063 1_555
O9 Pb2 2.646490 1_555
O9 Pb3 2.646490 1_555
O10 Pb6 2.574063 1_555
O10 Pb0 2.646490 1_545
O10 Pb1 2.646490 1_555
O11 Pb7 2.579438 1_555
O11 Pb0 2.638364 1_545
O11 Pb1 2.638364 1_555
O12 Pb4 2.424874 1_555
O12 Pb5 2.437155 1_555
O12 Pb2 2.480841 1_555
O13 Pb4 2.424874 1_555
O13 Pb5 2.437155 1_555
O13 Pb3 2.480841 1_555
O14 Pb7 2.424874 1_565
O14 Pb6 2.437155 1_565
O14 Pb0 2.480841 1_555
O15 Pb7 2.424874 1_555
O15 Pb6 2.437155 1_555
O15 Pb1 2.480841 1_555
O16 Pb0 2.563488 1_555
O16 Pb1 2.563488 1_555
O17 Pb0 2.562847 1_555
O17 Pb1 2.562847 1_555
O18 Pb2 2.562847 1_545
O18 Pb3 2.562847 1_555
O19 Pb3 2.563488 1_555
O19 Pb2 2.563488 1_545
F0 Pb7 2.506229 1_655
F0 Pb6 2.529467 1_655
F0 Pb0 2.804851 1_545
F0 Pb1 2.804851 1_555
F1 Pb4 2.506229 1_455
F1 Pb5 2.529467 1_455
F1 Pb3 2.804851 1_555
F1 Pb2 2.804851 1_555
