# generated using pymatgen
data_Eu3B2(O2F)3
_symmetry_space_group_name_H-M   'P 1'
_cell_length_a   7.27766090
_cell_length_b   7.27766090
_cell_length_c   8.40479178
_cell_angle_alpha   84.22841807
_cell_angle_beta   84.22841807
_cell_angle_gamma   52.11103219
_symmetry_Int_Tables_number   1
_chemical_formula_structural   Eu3B2(O2F)3
_chemical_formula_sum   'Eu6 B4 O12 F6'
_cell_volume   349.10882195
_cell_formula_units_Z   2
loop_
 _symmetry_equiv_pos_site_id
 _symmetry_equiv_pos_as_xyz
  1  'x, y, z'
loop_
 _atom_site_type_symbol
 _atom_site_label
 _atom_site_symmetry_multiplicity
 _atom_site_fract_x
 _atom_site_fract_y
 _atom_site_fract_z
 _atom_site_occupancy
  Eu  Eu0  1  0.28106500  0.06214700  0.81976200  1
  Eu  Eu1  1  0.71893500  0.93785300  0.18023800  1
  Eu  Eu2  1  0.93785300  0.71893500  0.68023800  1
  Eu  Eu3  1  0.06214700  0.28106500  0.31976200  1
  Eu  Eu4  1  0.60644700  0.39355300  0.75000000  1
  Eu  Eu5  1  0.39355300  0.60644700  0.25000000  1
  B  B0  1  0.40059600  0.23345000  0.52041600  1
  B  B1  1  0.59940400  0.76655000  0.47958400  1
  B  B2  1  0.76655000  0.59940400  0.97958400  1
  B  B3  1  0.23345000  0.40059600  0.02041600  1
  O  O0  1  0.56220900  0.74293300  0.64204400  1
  O  O1  1  0.43779100  0.25706700  0.35795600  1
  O  O2  1  0.25706700  0.43779100  0.85795600  1
  O  O3  1  0.74293300  0.56220900  0.14204400  1
  O  O4  1  0.70299800  0.81791000  0.92378500  1
  O  O5  1  0.29700200  0.18209000  0.07621500  1
  O  O6  1  0.18209000  0.29700200  0.57621500  1
  O  O7  1  0.81791000  0.70299800  0.42378500  1
  O  O8  1  0.57396300  0.12280400  0.62815200  1
  O  O9  1  0.42603700  0.87719600  0.37184800  1
  O  O10  1  0.87719600  0.42603700  0.87184800  1
  O  O11  1  0.12280400  0.57396300  0.12815200  1
  F  F0  1  0.97998000  0.02002000  0.75000000  1
  F  F1  1  0.02002000  0.97998000  0.25000000  1
  F  F2  1  0.27169200  0.62480800  0.54201600  1
  F  F3  1  0.72830800  0.37519200  0.45798400  1
  F  F4  1  0.37519200  0.72830800  0.95798400  1
  F  F5  1  0.62480800  0.27169200  0.04201600  1
loop_
_geom_bond_atom_site_label_1
_geom_bond_atom_site_label_2
_geom_bond_distance
_geom_bond_site_symmetry_2
Eu0 F4 2.295610 1_545
Eu0 O6 2.389759 1_555
Eu0 O5 2.444250 1_556
Eu0 O0 2.461576 1_545
Eu0 O10 2.501547 1_455
Eu0 F0 2.521668 1_455
Eu0 O4 2.622280 1_545
Eu0 O2 2.680681 1_555
Eu0 O8 2.766681 1_555
Eu1 F5 2.295610 1_565
Eu1 O7 2.389759 1_555
Eu1 O4 2.444250 1_554
Eu1 O1 2.461576 1_565
Eu1 O11 2.501547 1_655
Eu1 F1 2.521668 1_655
Eu1 O5 2.622280 1_565
Eu1 O3 2.680681 1_555
Eu1 O9 2.766681 1_555
Eu2 F2 2.295610 1_655
Eu2 O4 2.389759 1_555
Eu2 O7 2.444250 1_555
Eu2 O2 2.461576 1_655
Eu2 O8 2.501547 1_565
Eu2 F0 2.521668 1_565
Eu2 O6 2.622280 1_655
Eu2 O0 2.680681 1_555
Eu2 O10 2.766681 1_555
Eu3 F3 2.295610 1_455
Eu3 O5 2.389759 1_555
Eu3 O6 2.444250 1_555
Eu3 O3 2.461576 1_455
Eu3 O9 2.501547 1_545
Eu3 F1 2.521668 1_545
Eu3 O7 2.622280 1_455
Eu3 O1 2.680681 1_555
Eu3 O11 2.766681 1_555
Eu4 F0 2.388111 1_555
Eu4 O2 2.445683 1_555
Eu4 O0 2.445683 1_555
Eu4 O10 2.452333 1_555
Eu4 O8 2.452333 1_555
Eu4 F3 2.512122 1_555
Eu4 F5 2.512122 1_556
Eu4 F4 2.655589 1_555
Eu4 F2 2.655589 1_555
Eu5 F1 2.388111 1_555
Eu5 O3 2.445683 1_555
Eu5 O1 2.445683 1_555
Eu5 O9 2.452333 1_555
Eu5 O11 2.452333 1_555
Eu5 F2 2.512122 1_555
Eu5 F4 2.512122 1_554
Eu5 F5 2.655589 1_555
Eu5 F3 2.655589 1_555
B0 O8 1.376765 1_555
B0 O1 1.379440 1_555
B0 O6 1.397457 1_555
B1 O9 1.376765 1_555
B1 O0 1.379440 1_555
B1 O7 1.397457 1_555
B2 O10 1.376765 1_555
B2 O3 1.379440 1_556
B2 O4 1.397457 1_555
B3 O11 1.376765 1_555
B3 O2 1.379440 1_554
B3 O5 1.397457 1_555
