# generated using pymatgen
data_LiY(CuP)2
_symmetry_space_group_name_H-M   'P 1'
_cell_length_a   3.97950575
_cell_length_b   3.97950575
_cell_length_c   6.56860300
_cell_angle_alpha   90.00000000
_cell_angle_beta   90.00000000
_cell_angle_gamma   119.99999582
_symmetry_Int_Tables_number   1
_chemical_formula_structural   LiY(CuP)2
_chemical_formula_sum   'Li1 Y1 Cu2 P2'
_cell_volume   90.08696109
_cell_formula_units_Z   1
loop_
 _symmetry_equiv_pos_site_id
 _symmetry_equiv_pos_as_xyz
  1  'x, y, z'
loop_
 _atom_site_type_symbol
 _atom_site_label
 _atom_site_symmetry_multiplicity
 _atom_site_fract_x
 _atom_site_fract_y
 _atom_site_fract_z
 _atom_site_occupancy
  Li  Li0  1  0.00000000  0.00000000  0.50000000  1
  Y  Y0  1  0.00000000  0.00000000  0.00000000  1
  Cu  Cu0  1  0.66666700  0.33333300  0.66836200  1
  Cu  Cu1  1  0.33333300  0.66666700  0.33163800  1
  P  P0  1  0.66666700  0.33333300  0.26194500  1
  P  P1  1  0.33333300  0.66666700  0.73805500  1
loop_
_geom_bond_atom_site_label_1
_geom_bond_atom_site_label_2
_geom_bond_distance
_geom_bond_site_symmetry_2
Li0 P1 2.779197 1_545
Li0 P0 2.779197 1_455
Li0 P1 2.779200 1_555
Li0 P1 2.779200 1_445
Li0 P0 2.779200 1_445
Li0 P0 2.779200 1_555
Cu0 P1 2.342729 1_545
Cu0 P1 2.342729 1_655
Cu0 P1 2.342736 1_555
Cu0 Li0 2.549869 1_655
Cu0 Li0 2.549872 1_555
Cu0 Li0 2.549872 1_665
Cu0 P0 2.669592 1_555
Cu0 Y0 3.166107 1_656
Cu0 Y0 3.166109 1_666
Cu0 Y0 3.166109 1_556
Cu1 P0 2.342729 1_455
Cu1 P0 2.342729 1_565
Cu1 P0 2.342736 1_555
Cu1 Li0 2.549869 1_565
Cu1 Li0 2.549872 1_555
Cu1 Li0 2.549872 1_665
Cu1 P1 2.669592 1_555
Cu1 Y0 3.166107 1_565
Cu1 Y0 3.166109 1_665
Cu1 Y0 3.166109 1_555
P0 Y0 2.870421 1_655
P0 Y0 2.870424 1_555
P0 Y0 2.870424 1_665
P1 Y0 2.870421 1_566
P1 Y0 2.870424 1_556
P1 Y0 2.870424 1_666
