# generated using pymatgen
data_K3FeMo4O15
_symmetry_space_group_name_H-M   'P 1'
_cell_length_a   5.84719779
_cell_length_b   16.27784560
_cell_length_c   17.08911841
_cell_angle_alpha   91.62775631
_cell_angle_beta   99.72479951
_cell_angle_gamma   90.12203446
_symmetry_Int_Tables_number   1
_chemical_formula_structural   K3FeMo4O15
_chemical_formula_sum   'K12 Fe4 Mo16 O60'
_cell_volume   1602.47940538
_cell_formula_units_Z   4
loop_
 _symmetry_equiv_pos_site_id
 _symmetry_equiv_pos_as_xyz
  1  'x, y, z'
loop_
 _atom_site_type_symbol
 _atom_site_label
 _atom_site_symmetry_multiplicity
 _atom_site_fract_x
 _atom_site_fract_y
 _atom_site_fract_z
 _atom_site_occupancy
  K  K0  1  0.84911131  0.51382979  0.62600039  1
  K  K1  1  0.37226776  0.13363074  0.78751232  1
  K  K2  1  0.78333040  0.01175377  0.62801711  1
  K  K3  1  0.50067239  0.63069953  0.02443357  1
  K  K4  1  0.62631830  0.86568822  0.21262036  1
  K  K5  1  0.15762069  0.48805774  0.37420433  1
  K  K6  1  0.47408111  0.86907016  0.97531321  1
  K  K7  1  0.52945455  0.13032772  0.02594562  1
  K  K8  1  0.58167772  0.36582790  0.21267496  1
  K  K9  1  0.42275836  0.63326383  0.78912449  1
  K  K10  1  0.21883772  0.98831243  0.37338352  1
  K  K11  1  0.49941140  0.36845989  0.97529803  1
  Fe  Fe0  1  0.18208895  0.23950451  0.36173677  1
  Fe  Fe1  1  0.82080319  0.26084689  0.63850512  1
  Fe  Fe2  1  0.17917545  0.74048672  0.36207877  1
  Fe  Fe3  1  0.81608367  0.75970124  0.63895457  1
  Mo  Mo0  1  0.63646897  0.61887506  0.30062533  1
  Mo  Mo1  1  0.01935394  0.49864141  0.11462850  1
  Mo  Mo2  1  0.09397285  0.99839488  0.11410615  1
  Mo  Mo3  1  0.93685678  0.26958376  0.86145597  1
  Mo  Mo4  1  0.90709315  0.00195808  0.88634262  1
  Mo  Mo5  1  0.98219037  0.50205940  0.88559329  1
  Mo  Mo6  1  0.33475790  0.87891203  0.69970884  1
  Mo  Mo7  1  0.72995617  0.84182627  0.43877118  1
  Mo  Mo8  1  0.36304747  0.38143315  0.69863966  1
  Mo  Mo9  1  0.29158938  0.66041945  0.56309670  1
  Mo  Mo10  1  0.26940798  0.15896396  0.56302769  1
  Mo  Mo11  1  0.92660448  0.76974021  0.86108376  1
  Mo  Mo12  1  0.70649228  0.34063582  0.43757434  1
  Mo  Mo13  1  0.66502274  0.11878639  0.30048946  1
  Mo  Mo14  1  0.06554137  0.73131947  0.13874796  1
  Mo  Mo15  1  0.07387872  0.23105092  0.13863546  1
  O  O0  1  0.02855066  0.16243048  0.61900610  1
  O  O1  1  0.59813451  0.65313298  0.20233567  1
  O  O2  1  0.93423256  0.03799679  0.79194792  1
  O  O3  1  0.89977521  0.66695203  0.35628833  1
  O  O4  1  0.28777965  0.05832849  0.52610803  1
  O  O5  1  0.38922747  0.84205986  0.79725992  1
  O  O6  1  0.14173732  0.25858709  0.24321202  1
  O  O7  1  0.37706692  0.64386399  0.34423401  1
  O  O8  1  0.22151646  0.22660829  0.48094874  1
  O  O9  1  0.88195503  0.94745011  0.04371566  1
  O  O10  1  0.71504178  0.94210826  0.47702775  1
  O  O11  1  0.10379653  0.75979022  0.24318378  1
  O  O12  1  0.90884651  0.31730736  0.36907395  1
  O  O13  1  0.23462138  0.55992435  0.52679907  1
  O  O14  1  0.29508498  0.26912165  0.09187543  1
  O  O15  1  0.40180298  0.34496703  0.79606651  1
  O  O16  1  0.37656488  0.97306223  0.09816578  1
  O  O17  1  0.37830099  0.98623297  0.70078545  1
  O  O18  1  0.85905656  0.53956578  0.79211556  1
  O  O19  1  0.79844680  0.76932588  0.09200948  1
  O  O20  1  0.84398294  0.55426514  0.95616327  1
  O  O21  1  0.85605920  0.74272895  0.75651681  1
  O  O22  1  0.72060363  0.47345079  0.09792258  1
  O  O23  1  0.20441102  0.23136308  0.90743412  1
  O  O24  1  0.11977805  0.05401357  0.95549647  1
  O  O25  1  0.45786178  0.81900830  0.37118766  1
  O  O26  1  0.58696789  0.66220822  0.61974875  1
  O  O27  1  0.77544989  0.77264760  0.51961686  1
  O  O28  1  0.62004514  0.01129381  0.29830766  1
  O  O29  1  0.96776023  0.14207249  0.34530939  1
  O  O30  1  0.54038295  0.18235041  0.63121920  1
  O  O31  1  0.96330580  0.88410338  0.88415058  1
  O  O32  1  0.07760045  0.61676358  0.11708304  1
  O  O33  1  0.92423978  0.38406217  0.88366907  1
  O  O34  1  0.25800346  0.72824182  0.48105615  1
  O  O35  1  0.61206482  0.15477004  0.20275390  1
  O  O36  1  0.18118348  0.71909593  0.90214463  1
  O  O37  1  0.72386397  0.22059182  0.90491636  1
  O  O38  1  0.40945022  0.33769595  0.38217654  1
  O  O39  1  0.76423495  0.44095405  0.47527519  1
  O  O40  1  0.67600245  0.51118860  0.30046537  1
  O  O41  1  0.62428237  0.02693803  0.90235777  1
  O  O42  1  0.08844978  0.68270182  0.63150451  1
  O  O43  1  0.06429083  0.96072910  0.20757382  1
  O  O44  1  0.09945832  0.33409938  0.64211413  1
  O  O45  1  0.27990304  0.77987913  0.09545136  1
  O  O46  1  0.03270672  0.85610170  0.65429315  1
  O  O47  1  0.45566002  0.16635252  0.35592869  1
  O  O48  1  0.97117398  0.83753618  0.38312876  1
  O  O49  1  0.54117689  0.83176568  0.64287152  1
  O  O50  1  0.16276639  0.44651799  0.04535338  1
  O  O51  1  0.89744409  0.24211294  0.75680029  1
  O  O52  1  0.13812926  0.46146571  0.20861481  1
  O  O53  1  0.70339951  0.73170968  0.90666187  1
  O  O54  1  0.62322633  0.35826659  0.65476114  1
  O  O55  1  0.32149602  0.48898473  0.70139174  1
  O  O56  1  0.81731143  0.27973114  0.09569527  1
  O  O57  1  0.73974465  0.27221754  0.51897995  1
  O  O58  1  0.28145116  0.52615412  0.90083884  1
  O  O59  1  0.04130335  0.11648716  0.11677018  1
loop_
_geom_bond_atom_site_label_1
_geom_bond_atom_site_label_2
_geom_bond_distance
_geom_bond_site_symmetry_2
K0 O39 2.771300 1_555
K0 O18 2.848511 1_555
K0 O26 2.858250 1_555
K0 O55 2.878357 1_655
K0 O54 2.945173 1_555
K0 O42 3.073774 1_655
K0 O13 3.142316 1_655
K0 O44 3.271961 1_655
K1 O17 2.787571 1_545
K1 O23 2.862695 1_555
K1 O41 2.875239 1_555
K1 O37 2.947616 1_555
K1 O2 3.007418 1_455
K1 O30 3.119774 1_555
K1 O0 3.267530 1_555
K1 O51 3.268532 1_455
K2 O10 2.754325 1_545
K2 O2 2.811475 1_555
K2 O0 2.859442 1_655
K2 O17 2.889268 1_545
K2 O46 2.933692 1_645
K2 O30 3.125196 1_555
K2 O4 3.222312 1_555
K2 O49 3.286200 1_545
K3 O20 2.767344 1_554
K3 O58 2.805719 1_554
K3 O19 2.934806 1_555
K3 O36 2.964960 1_554
K3 O1 3.008588 1_555
K3 O53 3.024056 1_554
K3 O45 3.067771 1_555
K3 O22 3.071465 1_555
K3 O32 3.165299 1_555
K4 O28 2.753999 1_565
K4 O19 2.871505 1_555
K4 O16 2.872853 1_555
K4 O45 2.919254 1_555
K4 O43 3.004067 1_655
K4 O25 3.147376 1_555
K4 O11 3.258532 1_655
K4 O48 3.295651 1_555
K5 O13 2.792701 1_555
K5 O52 2.833594 1_555
K5 O38 2.853754 1_555
K5 O40 2.914247 1_455
K5 O7 2.936492 1_555
K5 O12 3.126471 1_455
K5 O39 3.204998 1_455
K5 O3 3.280252 1_455
K6 O9 2.764518 1_556
K6 O16 2.793719 1_556
K6 O45 2.926057 1_556
K6 O53 2.927267 1_555
K6 O5 3.018443 1_555
K6 O19 3.021524 1_556
K6 O41 3.077601 1_565
K6 O36 3.088952 1_555
K6 O31 3.140002 1_455
K7 O24 2.767462 1_554
K7 O41 2.792498 1_554
K7 O14 2.939711 1_555
K7 O37 2.947655 1_554
K7 O35 2.993141 1_555
K7 O56 3.050957 1_555
K7 O23 3.053018 1_554
K7 O16 3.068906 1_545
K7 O59 3.141744 1_655
K8 O40 2.768919 1_555
K8 O14 2.860633 1_555
K8 O22 2.881281 1_555
K8 O56 2.939102 1_555
K8 O52 3.019476 1_555
K8 O12 3.134633 1_555
K8 O6 3.228482 1_555
K8 O38 3.266985 1_555
K9 O55 2.758305 1_555
K9 O53 2.826245 1_555
K9 O58 2.843072 1_555
K9 O36 2.907654 1_555
K9 O18 2.968843 1_555
K9 O42 3.174144 1_555
K9 O21 3.227811 1_555
K9 O26 3.245978 1_555
K9 O5 3.405065 1_555
K10 O4 2.783304 1_565
K10 O43 2.847476 1_555
K10 O48 2.870200 1_455
K10 O28 2.886129 1_565
K10 O29 2.914761 1_465
K10 O25 3.094838 1_555
K10 O10 3.235706 1_555
K10 O47 3.252245 1_565
K11 O50 2.764561 1_556
K11 O22 2.802918 1_556
K11 O23 2.908835 1_555
K11 O56 2.943251 1_556
K11 O14 2.998314 1_556
K11 O15 3.032383 1_555
K11 O37 3.056936 1_555
K11 O58 3.079624 1_555
K11 O33 3.165582 1_555
Fe0 O29 2.003023 1_455
Fe0 O47 2.010370 1_555
Fe0 O8 2.028139 1_555
Fe0 O6 2.032079 1_555
Fe0 O12 2.059024 1_455
Fe0 O38 2.060690 1_555
Fe1 O54 2.004428 1_555
Fe1 O44 2.008479 1_655
Fe1 O51 2.027332 1_555
Fe1 O57 2.031213 1_555
Fe1 O30 2.061492 1_555
Fe1 O0 2.065857 1_655
Fe2 O7 2.001335 1_555
Fe2 O3 2.010447 1_455
Fe2 O34 2.023109 1_555
Fe2 O11 2.038523 1_555
Fe2 O25 2.051205 1_555
Fe2 O48 2.056196 1_455
Fe3 O46 1.997860 1_655
Fe3 O49 2.001075 1_555
Fe3 O21 2.010061 1_555
Fe3 O27 2.029988 1_555
Fe3 O42 2.047297 1_655
Fe3 O26 2.057615 1_555
Mo0 O1 1.763264 1_555
Mo0 O40 1.768553 1_555
Mo0 O3 1.829066 1_555
Mo0 O7 1.840846 1_555
Mo1 O50 1.762359 1_555
Mo1 O52 1.763063 1_555
Mo1 O22 1.767189 1_455
Mo1 O32 1.950030 1_555
Mo2 O43 1.762435 1_555
Mo2 O9 1.762589 1_455
Mo2 O16 1.767247 1_555
Mo2 O59 1.947921 1_565
Mo3 O23 1.751732 1_655
Mo3 O37 1.755145 1_555
Mo3 O51 1.807370 1_555
Mo3 O33 1.895228 1_555
Mo4 O24 1.761616 1_655
Mo4 O2 1.763896 1_555
Mo4 O41 1.767552 1_555
Mo4 O31 1.947444 1_545
Mo5 O20 1.761691 1_555
Mo5 O18 1.764000 1_555
Mo5 O58 1.766605 1_655
Mo5 O33 1.948081 1_555
Mo6 O17 1.764003 1_555
Mo6 O5 1.765967 1_555
Mo6 O49 1.829432 1_555
Mo6 O46 1.837735 1_555
Mo7 O10 1.748973 1_555
Mo7 O27 1.792509 1_555
Mo7 O48 1.829795 1_555
Mo7 O25 1.831787 1_555
Mo8 O15 1.762096 1_555
Mo8 O55 1.768393 1_555
Mo8 O44 1.830826 1_555
Mo8 O54 1.841370 1_555
Mo9 O13 1.744115 1_555
Mo9 O34 1.794111 1_555
Mo9 O26 1.831509 1_555
Mo9 O42 1.831911 1_555
Mo10 O4 1.748714 1_555
Mo10 O8 1.792946 1_555
Mo10 O0 1.831433 1_555
Mo10 O30 1.833531 1_555
Mo11 O53 1.749463 1_555
Mo11 O36 1.753011 1_655
Mo11 O21 1.806173 1_555
Mo11 O31 1.896041 1_555
Mo12 O39 1.749300 1_555
Mo12 O57 1.791926 1_555
Mo12 O38 1.832158 1_555
Mo12 O12 1.832781 1_555
Mo13 O35 1.763581 1_555
Mo13 O28 1.767256 1_555
Mo13 O47 1.830271 1_555
Mo13 O29 1.840224 1_555
Mo14 O19 1.752298 1_455
Mo14 O45 1.756594 1_555
Mo14 O11 1.807685 1_555
Mo14 O32 1.894570 1_555
Mo15 O14 1.751985 1_555
Mo15 O56 1.755899 1_455
Mo15 O6 1.807298 1_555
Mo15 O59 1.894314 1_555
