# generated using pymatgen
data_Ca5(RuN3)2
_symmetry_space_group_name_H-M   'P 1'
_cell_length_a   5.99257759
_cell_length_b   5.99257759
_cell_length_c   12.61936195
_cell_angle_alpha   79.33731393
_cell_angle_beta   79.33731393
_cell_angle_gamma   65.37527741
_symmetry_Int_Tables_number   1
_chemical_formula_structural   Ca5(RuN3)2
_chemical_formula_sum   'Ca10 Ru4 N12'
_cell_volume   401.88189469
_cell_formula_units_Z   2
loop_
 _symmetry_equiv_pos_site_id
 _symmetry_equiv_pos_as_xyz
  1  'x, y, z'
loop_
 _atom_site_type_symbol
 _atom_site_label
 _atom_site_symmetry_multiplicity
 _atom_site_fract_x
 _atom_site_fract_y
 _atom_site_fract_z
 _atom_site_occupancy
  Ca  Ca0  1  0.37398300  0.62601700  0.75000000  1
  Ca  Ca1  1  0.62601700  0.37398300  0.25000000  1
  Ca  Ca2  1  0.80310300  0.32208200  0.49963900  1
  Ca  Ca3  1  0.67791800  0.19689700  0.00036100  1
  Ca  Ca4  1  0.19689700  0.67791800  0.50036100  1
  Ca  Ca5  1  0.32208200  0.80310300  0.99963900  1
  Ca  Ca6  1  0.04868200  0.27011500  0.78090900  1
  Ca  Ca7  1  0.72988500  0.95131800  0.71909100  1
  Ca  Ca8  1  0.95131800  0.72988500  0.21909100  1
  Ca  Ca9  1  0.27011500  0.04868200  0.28090900  1
  Ru  Ru0  1  0.86205500  0.67812300  0.94136100  1
  Ru  Ru1  1  0.32187700  0.13794500  0.55863900  1
  Ru  Ru2  1  0.13794500  0.32187700  0.05863900  1
  Ru  Ru3  1  0.67812300  0.86205500  0.44136100  1
  N  N0  1  0.67643000  0.60816100  0.85404000  1
  N  N1  1  0.39183900  0.32357000  0.64596000  1
  N  N2  1  0.32357000  0.39183900  0.14596000  1
  N  N3  1  0.60816100  0.67643000  0.35404000  1
  N  N4  1  0.26314400  0.32628400  0.91313600  1
  N  N5  1  0.67371600  0.73685600  0.58686400  1
  N  N6  1  0.73685600  0.67371600  0.08686400  1
  N  N7  1  0.32628400  0.26314400  0.41313600  1
  N  N8  1  0.99133500  0.91633800  0.87383200  1
  N  N9  1  0.08366200  0.00866500  0.62616800  1
  N  N10  1  0.00866500  0.08366200  0.12616800  1
  N  N11  1  0.91633800  0.99133500  0.37383200  1
loop_
_geom_bond_atom_site_label_1
_geom_bond_atom_site_label_2
_geom_bond_distance
_geom_bond_site_symmetry_2
Ca0 N0 2.384764 1_555
Ca0 N1 2.384764 1_555
Ca0 N5 2.650546 1_555
Ca0 N4 2.650546 1_555
Ca0 N9 2.661271 1_565
Ca0 N8 2.661271 1_455
Ca1 N3 2.384764 1_555
Ca1 N2 2.384764 1_555
Ca1 N6 2.650546 1_555
Ca1 N7 2.650546 1_555
Ca1 N10 2.661271 1_655
Ca1 N11 2.661271 1_545
Ca2 N9 2.481108 1_655
Ca2 N3 2.555967 1_555
Ca2 N11 2.560147 1_545
Ca2 N5 2.661088 1_555
Ca2 N1 2.790565 1_555
Ca2 N7 3.016499 1_655
Ca3 N8 2.481108 1_544
Ca3 N2 2.555967 1_555
Ca3 N10 2.560147 1_655
Ca3 N4 2.661088 1_554
Ca3 N0 2.790565 1_554
Ca3 N6 3.016499 1_545
Ca4 N11 2.481108 1_455
Ca4 N1 2.555967 1_555
Ca4 N9 2.560147 1_565
Ca4 N7 2.661088 1_555
Ca4 N3 2.790565 1_555
Ca4 N5 3.016499 1_455
Ca5 N10 2.481108 1_566
Ca5 N0 2.555967 1_555
Ca5 N8 2.560147 1_455
Ca5 N6 2.661088 1_556
Ca5 N2 2.790565 1_556
Ca5 N4 3.016499 1_565
Ca6 N8 2.350697 1_445
Ca6 N4 2.431293 1_555
Ca6 N0 2.468963 1_455
Ca6 N1 2.506520 1_555
Ca6 N9 2.649309 1_555
Ca7 N9 2.350697 1_665
Ca7 N5 2.431293 1_555
Ca7 N1 2.468963 1_565
Ca7 N0 2.506520 1_555
Ca7 N8 2.649309 1_555
Ca8 N10 2.350697 1_665
Ca8 N6 2.431293 1_555
Ca8 N2 2.468963 1_655
Ca8 N3 2.506520 1_555
Ca8 N11 2.649309 1_555
Ca9 N11 2.350697 1_445
Ca9 N7 2.431293 1_555
Ca9 N3 2.468963 1_545
Ca9 N2 2.506520 1_555
Ca9 N10 2.649309 1_555
N0 Ru0 1.908038 1_555
N1 Ru1 1.908038 1_555
N2 Ru2 1.908038 1_555
N3 Ru3 1.908038 1_555
N4 Ru2 1.850362 1_556
N4 Ru0 2.467253 1_455
N5 Ru3 1.850362 1_555
N5 Ru1 2.467253 1_565
N6 Ru0 1.850362 1_554
N6 Ru2 2.467253 1_655
N7 Ru1 1.850362 1_555
N7 Ru3 2.467253 1_545
N8 Ru0 1.895087 1_555
N9 Ru1 1.895087 1_555
N10 Ru2 1.895087 1_555
N11 Ru3 1.895087 1_555
