# generated using pymatgen
data_Tm2(Ni5B3)3
_symmetry_space_group_name_H-M   'P 1'
_cell_length_a   9.81508255
_cell_length_b   9.81508255
_cell_length_c   11.22712000
_cell_angle_alpha   90.00000000
_cell_angle_beta   90.00000000
_cell_angle_gamma   107.93186700
_symmetry_Int_Tables_number   1
_chemical_formula_structural   Tm2(Ni5B3)3
_chemical_formula_sum   'Tm8 Ni60 B36'
_cell_volume   1029.03480852
_cell_formula_units_Z   4
loop_
 _symmetry_equiv_pos_site_id
 _symmetry_equiv_pos_as_xyz
  1  'x, y, z'
loop_
 _atom_site_type_symbol
 _atom_site_label
 _atom_site_symmetry_multiplicity
 _atom_site_fract_x
 _atom_site_fract_y
 _atom_site_fract_z
 _atom_site_occupancy
  Tm  Tm0  1  0.25960000  0.25960000  0.95778600  1
  Tm  Tm1  1  0.74040000  0.74040000  0.04221400  1
  Tm  Tm2  1  0.24040000  0.24040000  0.45778600  1
  Tm  Tm3  1  0.75960000  0.75960000  0.54221400  1
  Tm  Tm4  1  0.19035000  0.69035000  0.75000000  1
  Tm  Tm5  1  0.30965000  0.80965000  0.25000000  1
  Tm  Tm6  1  0.80965000  0.30965000  0.25000000  1
  Tm  Tm7  1  0.69035000  0.19035000  0.75000000  1
  Ni  Ni0  1  0.50000000  0.50000000  0.00000000  1
  Ni  Ni1  1  0.00000000  0.00000000  0.50000000  1
  Ni  Ni2  1  0.50000000  0.50000000  0.50000000  1
  Ni  Ni3  1  0.00000000  0.00000000  0.00000000  1
  Ni  Ni4  1  0.23375200  0.23375200  0.71232800  1
  Ni  Ni5  1  0.76624800  0.76624800  0.28767200  1
  Ni  Ni6  1  0.26624800  0.26624800  0.21232800  1
  Ni  Ni7  1  0.73375200  0.73375200  0.78767200  1
  Ni  Ni8  1  0.92992400  0.42992400  0.75000000  1
  Ni  Ni9  1  0.57007600  0.07007600  0.25000000  1
  Ni  Ni10  1  0.07007600  0.57007600  0.25000000  1
  Ni  Ni11  1  0.42992400  0.92992400  0.75000000  1
  Ni  Ni12  1  0.98903200  0.18202500  0.83985300  1
  Ni  Ni13  1  0.81797500  0.01096800  0.16014700  1
  Ni  Ni14  1  0.31797500  0.51096800  0.33985300  1
  Ni  Ni15  1  0.48903200  0.68202500  0.66014700  1
  Ni  Ni16  1  0.01096800  0.81797500  0.16014700  1
  Ni  Ni17  1  0.18202500  0.98903200  0.83985300  1
  Ni  Ni18  1  0.68202500  0.48903200  0.66014700  1
  Ni  Ni19  1  0.51096800  0.31797500  0.33985300  1
  Ni  Ni20  1  0.25685600  0.47056900  0.59678200  1
  Ni  Ni21  1  0.52943100  0.74314400  0.40321800  1
  Ni  Ni22  1  0.02943100  0.24314400  0.09678200  1
  Ni  Ni23  1  0.75685600  0.97056900  0.90321800  1
  Ni  Ni24  1  0.74314400  0.52943100  0.40321800  1
  Ni  Ni25  1  0.47056900  0.25685600  0.59678200  1
  Ni  Ni26  1  0.97056900  0.75685600  0.90321800  1
  Ni  Ni27  1  0.24314400  0.02943100  0.09678200  1
  Ni  Ni28  1  0.99569900  0.22730300  0.61760400  1
  Ni  Ni29  1  0.77269700  0.00430100  0.38239600  1
  Ni  Ni30  1  0.27269700  0.50430100  0.11760400  1
  Ni  Ni31  1  0.49569900  0.72730300  0.88239600  1
  Ni  Ni32  1  0.00430100  0.77269700  0.38239600  1
  Ni  Ni33  1  0.22730300  0.99569900  0.61760400  1
  Ni  Ni34  1  0.72730300  0.49569900  0.88239600  1
  Ni  Ni35  1  0.50430100  0.27269700  0.11760400  1
  Ni  Ni36  1  0.10676900  0.44613900  0.91553400  1
  Ni  Ni37  1  0.55386100  0.89323100  0.08446600  1
  Ni  Ni38  1  0.05386100  0.39323100  0.41553400  1
  Ni  Ni39  1  0.60676900  0.94613900  0.58446600  1
  Ni  Ni40  1  0.89323100  0.55386100  0.08446600  1
  Ni  Ni41  1  0.44613900  0.10676900  0.91553400  1
  Ni  Ni42  1  0.94613900  0.60676900  0.58446600  1
  Ni  Ni43  1  0.39323100  0.05386100  0.41553400  1
  Ni  Ni44  1  0.33081500  0.48961400  0.80613200  1
  Ni  Ni45  1  0.51038600  0.66918500  0.19386800  1
  Ni  Ni46  1  0.01038600  0.16918500  0.30613200  1
  Ni  Ni47  1  0.83081500  0.98961400  0.69386800  1
  Ni  Ni48  1  0.66918500  0.51038600  0.19386800  1
  Ni  Ni49  1  0.48961400  0.33081500  0.80613200  1
  Ni  Ni50  1  0.98961400  0.83081500  0.69386800  1
  Ni  Ni51  1  0.16918500  0.01038600  0.30613200  1
  Ni  Ni52  1  0.83760000  0.36285200  0.53030400  1
  Ni  Ni53  1  0.63714800  0.16240000  0.46969600  1
  Ni  Ni54  1  0.13714800  0.66240000  0.03030400  1
  Ni  Ni55  1  0.33760000  0.86285200  0.96969600  1
  Ni  Ni56  1  0.16240000  0.63714800  0.46969600  1
  Ni  Ni57  1  0.36285200  0.83760000  0.53030400  1
  Ni  Ni58  1  0.86285200  0.33760000  0.96969600  1
  Ni  Ni59  1  0.66240000  0.13714800  0.03030400  1
  B  B0  1  0.36513000  0.63487000  0.50000000  1
  B  B1  1  0.86513000  0.13487000  0.00000000  1
  B  B2  1  0.63487000  0.36513000  0.50000000  1
  B  B3  1  0.13487000  0.86513000  0.00000000  1
  B  B4  1  0.45168100  0.45168100  0.67182000  1
  B  B5  1  0.54831900  0.54831900  0.32818000  1
  B  B6  1  0.04831900  0.04831900  0.17182000  1
  B  B7  1  0.95168100  0.95168100  0.82818000  1
  B  B8  1  0.05647100  0.05647100  0.69956200  1
  B  B9  1  0.94352900  0.94352900  0.30043800  1
  B  B10  1  0.44352900  0.44352900  0.19956200  1
  B  B11  1  0.55647100  0.55647100  0.80043800  1
  B  B12  1  0.12025500  0.37829700  0.74489400  1
  B  B13  1  0.62170300  0.87974500  0.25510600  1
  B  B14  1  0.12170300  0.37974500  0.24489400  1
  B  B15  1  0.62025500  0.87829700  0.75510600  1
  B  B16  1  0.87974500  0.62170300  0.25510600  1
  B  B17  1  0.37829700  0.12025500  0.74489400  1
  B  B18  1  0.87829700  0.62025500  0.75510600  1
  B  B19  1  0.37974500  0.12170300  0.24489400  1
  B  B20  1  0.29762700  0.59364100  0.94878300  1
  B  B21  1  0.40635900  0.70237300  0.05121700  1
  B  B22  1  0.90635900  0.20237300  0.44878300  1
  B  B23  1  0.79762700  0.09364100  0.55121700  1
  B  B24  1  0.70237300  0.40635900  0.05121700  1
  B  B25  1  0.59364100  0.29762700  0.94878300  1
  B  B26  1  0.09364100  0.79762700  0.55121700  1
  B  B27  1  0.20237300  0.90635900  0.44878300  1
  B  B28  1  0.04885500  0.45068600  0.60020000  1
  B  B29  1  0.54931400  0.95114500  0.39980000  1
  B  B30  1  0.04931400  0.45114500  0.10020000  1
  B  B31  1  0.54885500  0.95068600  0.89980000  1
  B  B32  1  0.95114500  0.54931400  0.39980000  1
  B  B33  1  0.45068600  0.04885500  0.60020000  1
  B  B34  1  0.95068600  0.54885500  0.89980000  1
  B  B35  1  0.45114500  0.04931400  0.10020000  1
loop_
_geom_bond_atom_site_label_1
_geom_bond_atom_site_label_2
_geom_bond_distance
_geom_bond_site_symmetry_2
Ni0 Tm1 2.816248 1_555
Ni0 Tm0 2.816248 1_554
Ni1 Tm3 2.816248 1_445
Ni1 Tm2 2.816248 1_555
Ni2 Tm2 3.035032 1_555
Ni2 Tm3 3.035032 1_555
Ni3 Tm0 3.035032 1_554
Ni3 Tm1 3.035032 1_445
Ni4 Tm0 2.771904 1_555
Ni4 Tm2 2.858805 1_555
Ni5 Tm1 2.771904 1_555
Ni5 Tm3 2.858805 1_555
Ni6 Tm2 2.771904 1_555
Ni6 Tm0 2.858805 1_554
Ni7 Tm3 2.771904 1_555
Ni7 Tm1 2.858805 1_556
Ni8 Tm7 2.766544 1_555
Ni8 Tm4 3.007337 1_655
Ni9 Tm6 2.766544 1_555
Ni9 Tm5 3.007337 1_545
Ni10 Tm5 2.766544 1_555
Ni10 Tm6 3.007337 1_455
Ni11 Tm4 2.766544 1_555
Ni11 Tm7 3.007337 1_565
Ni12 Tm0 2.853103 1_655
Ni12 Tm7 3.125068 1_555
Ni13 Tm1 2.853103 1_545
Ni13 Tm6 3.125068 1_555
Ni14 Tm2 2.853103 1_555
Ni14 Tm5 3.125068 1_555
Ni15 Tm3 2.853103 1_555
Ni15 Tm4 3.125068 1_555
Ni16 Tm1 2.853103 1_455
Ni16 Tm5 3.125068 1_555
Ni17 Tm0 2.853103 1_565
Ni17 Tm4 3.125068 1_555
Ni18 Tm3 2.853103 1_555
Ni18 Tm7 3.125068 1_555
Ni19 Tm2 2.853103 1_555
Ni19 Tm6 3.125068 1_555
Ni20 Tm2 2.709298 1_555
Ni20 Tm4 2.984230 1_555
Ni21 Tm3 2.709298 1_555
Ni21 Tm5 2.984230 1_555
Ni22 Tm0 2.709298 1_554
Ni22 Tm6 2.984230 1_455
Ni23 Tm1 2.709298 1_556
Ni23 Tm7 2.984230 1_565
Ni24 Tm3 2.709298 1_555
Ni24 Tm6 2.984230 1_555
Ni25 Tm2 2.709298 1_555
Ni25 Tm7 2.984230 1_555
Ni26 Tm1 2.709298 1_556
Ni26 Tm4 2.984230 1_655
Ni27 Tm0 2.709298 1_554
Ni27 Tm5 2.984230 1_545
Ni28 Tm2 2.968899 1_655
Ni28 Tm7 3.264019 1_555
Ni29 Tm3 2.968899 1_545
Ni29 Tm6 3.264019 1_555
Ni30 Tm0 2.968899 1_554
Ni30 Tm5 3.264019 1_555
Ni31 Tm1 2.968899 1_556
Ni31 Tm4 3.264019 1_555
Ni32 Tm3 2.968899 1_455
Ni32 Tm5 3.264019 1_555
Ni33 Tm2 2.968899 1_565
Ni33 Tm4 3.264019 1_555
Ni34 Tm1 2.968899 1_556
Ni34 Tm7 3.264019 1_555
Ni35 Tm0 2.968899 1_554
Ni35 Tm6 3.264019 1_555
Ni36 Tm0 2.741993 1_555
Ni36 Tm4 2.943033 1_555
Ni37 Tm1 2.741993 1_555
Ni37 Tm5 2.943033 1_555
Ni38 Tm2 2.741993 1_555
Ni38 Tm6 2.943033 1_455
Ni39 Tm3 2.741993 1_555
Ni39 Tm7 2.943033 1_565
Ni40 Tm1 2.741993 1_555
Ni40 Tm6 2.943033 1_555
Ni41 Tm0 2.741993 1_555
Ni41 Tm7 2.943033 1_555
Ni42 Tm3 2.741993 1_555
Ni42 Tm4 2.943033 1_655
Ni43 Tm2 2.741993 1_555
Ni43 Tm5 2.943033 1_545
Ni44 Tm0 2.740918 1_555
Ni44 Tm4 2.802210 1_555
Ni45 Tm1 2.740918 1_555
Ni45 Tm5 2.802210 1_555
Ni46 Tm2 2.740918 1_555
Ni46 Tm6 2.802210 1_455
Ni47 Tm3 2.740918 1_555
Ni47 Tm7 2.802210 1_565
Ni48 Tm1 2.740918 1_555
Ni48 Tm6 2.802210 1_555
Ni49 Tm0 2.740918 1_555
Ni49 Tm7 2.802210 1_555
Ni50 Tm3 2.740918 1_555
Ni50 Tm4 2.802210 1_655
Ni51 Tm2 2.740918 1_555
Ni51 Tm5 2.802210 1_545
Ni52 Tm7 3.087483 1_555
Ni52 Tm6 3.188005 1_555
Ni53 Tm6 3.087483 1_555
Ni53 Tm7 3.188005 1_555
Ni54 Tm5 3.087483 1_555
Ni54 Tm4 3.188005 1_554
Ni55 Tm4 3.087483 1_555
Ni55 Tm5 3.188005 1_556
Ni56 Tm5 3.087483 1_555
Ni56 Tm4 3.188005 1_555
Ni57 Tm4 3.087483 1_555
Ni57 Tm5 3.188005 1_555
Ni58 Tm7 3.087483 1_555
Ni58 Tm6 3.188005 1_556
Ni59 Tm6 3.087483 1_555
Ni59 Tm7 3.188005 1_554
B0 Ni21 1.963495 1_555
B0 Ni20 1.963495 1_555
B0 Ni57 2.025586 1_555
B0 Ni56 2.025586 1_555
B0 Ni14 2.139932 1_555
B0 Ni15 2.139932 1_555
B0 Ni2 2.140963 1_555
B1 Ni23 1.963495 1_544
B1 Ni22 1.963495 1_655
B1 Ni59 2.025586 1_555
B1 Ni58 2.025586 1_554
B1 Ni13 2.139932 1_555
B1 Ni12 2.139932 1_554
B1 Ni3 2.140963 1_655
B2 Ni24 1.963495 1_555
B2 Ni25 1.963495 1_555
B2 Ni52 2.025586 1_555
B2 Ni53 2.025586 1_555
B2 Ni19 2.139932 1_555
B2 Ni18 2.139932 1_555
B2 Ni2 2.140963 1_555
B3 Ni26 1.963495 1_454
B3 Ni27 1.963495 1_565
B3 Ni54 2.025586 1_555
B3 Ni55 2.025586 1_554
B3 Ni16 2.139932 1_555
B3 Ni17 2.139932 1_554
B3 Ni3 2.140963 1_565
B4 Ni2 2.008120 1_555
B4 Ni44 2.022819 1_555
B4 Ni49 2.022819 1_555
B4 Ni25 2.149186 1_555
B4 Ni20 2.149186 1_555
B4 Ni18 2.180051 1_555
B4 Ni15 2.180051 1_555
B4 Ni4 2.557356 1_555
B5 Ni2 2.008120 1_555
B5 Ni45 2.022819 1_555
B5 Ni48 2.022819 1_555
B5 Ni21 2.149186 1_555
B5 Ni24 2.149186 1_555
B5 Ni14 2.180051 1_555
B5 Ni19 2.180051 1_555
B5 Ni5 2.557356 1_555
B6 B9 1.884007 1_445
B6 Ni3 2.008120 1_555
B6 Ni46 2.022819 1_555
B6 Ni51 2.022819 1_555
B6 Ni22 2.149186 1_555
B6 Ni27 2.149186 1_555
B6 Ni13 2.180051 1_455
B6 Ni16 2.180051 1_545
B6 Ni6 2.557356 1_555
B7 B8 1.884007 1_665
B7 Ni3 2.008120 1_666
B7 Ni47 2.022819 1_555
B7 Ni50 2.022819 1_555
B7 Ni26 2.149186 1_555
B7 Ni23 2.149186 1_555
B7 Ni12 2.180051 1_565
B7 Ni17 2.180051 1_655
B7 Ni7 2.557356 1_555
B8 Ni4 2.052210 1_555
B8 Ni50 2.108369 1_445
B8 Ni47 2.108369 1_445
B8 Ni33 2.151686 1_545
B8 Ni28 2.151686 1_455
B8 Ni17 2.222581 1_545
B8 Ni12 2.222581 1_455
B8 Ni1 2.333478 1_555
B9 Ni5 2.052210 1_555
B9 Ni46 2.108369 1_665
B9 Ni51 2.108369 1_665
B9 Ni29 2.151686 1_565
B9 Ni32 2.151686 1_655
B9 Ni13 2.222581 1_565
B9 Ni16 2.222581 1_655
B9 Ni1 2.333478 1_665
B10 B5 1.884007 1_555
B10 Ni6 2.052210 1_555
B10 Ni45 2.108369 1_555
B10 Ni48 2.108369 1_555
B10 Ni35 2.151686 1_555
B10 Ni30 2.151686 1_555
B10 Ni14 2.222581 1_555
B10 Ni19 2.222581 1_555
B10 Ni0 2.333478 1_555
B11 B4 1.884007 1_555
B11 Ni7 2.052210 1_555
B11 Ni49 2.108369 1_555
B11 Ni44 2.108369 1_555
B11 Ni31 2.151686 1_555
B11 Ni34 2.151686 1_555
B11 Ni18 2.222581 1_555
B11 Ni15 2.222581 1_555
B11 Ni0 2.333478 1_556
B12 B28 1.985328 1_555
B12 Ni36 2.045839 1_555
B12 Ni8 2.081539 1_455
B12 Ni4 2.088203 1_555
B12 Ni44 2.132397 1_555
B12 Ni28 2.148865 1_455
B12 Ni20 2.152965 1_555
B12 Ni12 2.231309 1_455
B12 Tm4 2.925743 1_555
B13 B29 1.985328 1_555
B13 Ni37 2.045839 1_555
B13 Ni9 2.081539 1_565
B13 Ni5 2.088203 1_555
B13 Ni45 2.132397 1_555
B13 Ni29 2.148865 1_565
B13 Ni21 2.152965 1_555
B13 Ni13 2.231309 1_565
B13 Tm5 2.925743 1_555
B14 B30 1.985328 1_555
B14 Ni38 2.045839 1_555
B14 Ni10 2.081539 1_555
B14 Ni6 2.088203 1_555
B14 Ni46 2.132397 1_555
B14 Ni30 2.148865 1_555
B14 Ni22 2.152965 1_555
B14 Ni14 2.231309 1_555
B14 Tm6 2.925743 1_455
B15 B31 1.985328 1_555
B15 Ni39 2.045839 1_555
B15 Ni11 2.081539 1_555
B15 Ni7 2.088203 1_555
B15 Ni47 2.132397 1_555
B15 Ni31 2.148865 1_555
B15 Ni23 2.152965 1_555
B15 Ni15 2.231309 1_555
B15 Tm7 2.925743 1_565
B16 B32 1.985328 1_555
B16 Ni40 2.045839 1_555
B16 Ni10 2.081539 1_655
B16 Ni5 2.088203 1_555
B16 Ni48 2.132397 1_555
B16 Ni32 2.148865 1_655
B16 Ni24 2.152965 1_555
B16 Ni16 2.231309 1_655
B16 Tm6 2.925743 1_555
B17 B33 1.985328 1_555
B17 Ni41 2.045839 1_555
B17 Ni11 2.081539 1_545
B17 Ni4 2.088203 1_555
B17 Ni49 2.132397 1_555
B17 Ni33 2.148865 1_545
B17 Ni25 2.152965 1_555
B17 Ni17 2.231309 1_545
B17 Tm7 2.925743 1_555
B18 B34 1.985328 1_555
B18 Ni42 2.045839 1_555
B18 Ni8 2.081539 1_555
B18 Ni7 2.088203 1_555
B18 Ni50 2.132397 1_555
B18 Ni34 2.148865 1_555
B18 Ni26 2.152965 1_555
B18 Ni18 2.231309 1_555
B18 Tm4 2.925743 1_655
B19 B35 1.985328 1_555
B19 Ni43 2.045839 1_555
B19 Ni9 2.081539 1_555
B19 Ni6 2.088203 1_555
B19 Ni51 2.132397 1_555
B19 Ni35 2.148865 1_555
B19 Ni27 2.152965 1_555
B19 Ni19 2.231309 1_555
B19 Tm5 2.925743 1_545
B20 B21 1.702689 1_556
B20 Ni44 1.979499 1_555
B20 Ni36 2.018543 1_555
B20 Ni30 2.071017 1_556
B20 Ni54 2.104445 1_556
B20 Ni31 2.117926 1_555
B20 Ni0 2.498991 1_556
B20 Ni55 2.559803 1_555
B20 Tm4 2.757870 1_555
B21 Ni45 1.979499 1_555
B21 Ni37 2.018543 1_555
B21 Ni31 2.071017 1_554
B21 Ni55 2.104445 1_554
B21 Ni30 2.117926 1_555
B21 Ni0 2.498991 1_555
B21 Ni54 2.559803 1_555
B21 Tm5 2.757870 1_555
B22 B23 1.702689 1_555
B22 Ni46 1.979499 1_655
B22 Ni38 2.018543 1_655
B22 Ni28 2.071017 1_555
B22 Ni52 2.104445 1_555
B22 Ni29 2.117926 1_555
B22 Ni1 2.498991 1_655
B22 Ni53 2.559803 1_555
B22 Tm6 2.757870 1_555
B23 Ni47 1.979499 1_545
B23 Ni39 2.018543 1_545
B23 Ni29 2.071017 1_555
B23 Ni53 2.104445 1_555
B23 Ni28 2.117926 1_555
B23 Ni1 2.498991 1_655
B23 Ni52 2.559803 1_555
B23 Tm7 2.757870 1_555
B24 B25 1.702689 1_554
B24 Ni48 1.979499 1_555
B24 Ni40 2.018543 1_555
B24 Ni34 2.071017 1_554
B24 Ni58 2.104445 1_554
B24 Ni35 2.117926 1_555
B24 Ni0 2.498991 1_555
B24 Ni59 2.559803 1_555
B24 Tm6 2.757870 1_555
B25 Ni49 1.979499 1_555
B25 Ni41 2.018543 1_555
B25 Ni35 2.071017 1_556
B25 Ni59 2.104445 1_556
B25 Ni34 2.117926 1_555
B25 Ni0 2.498991 1_556
B25 Ni58 2.559803 1_555
B25 Tm7 2.757870 1_555
B26 B27 1.702689 1_555
B26 Ni50 1.979499 1_455
B26 Ni42 2.018543 1_455
B26 Ni32 2.071017 1_555
B26 Ni56 2.104445 1_555
B26 Ni33 2.117926 1_555
B26 Ni1 2.498991 1_565
B26 Ni57 2.559803 1_555
B26 Tm4 2.757870 1_555
B27 Ni51 1.979499 1_565
B27 Ni43 2.018543 1_565
B27 Ni33 2.071017 1_555
B27 Ni57 2.104445 1_555
B27 Ni32 2.117926 1_555
B27 Ni1 2.498991 1_565
B27 Ni56 2.559803 1_555
B27 Tm5 2.757870 1_555
B28 Ni20 1.990512 1_555
B28 Ni8 2.021437 1_455
B28 Ni42 2.084604 1_455
B28 Ni28 2.100751 1_455
B28 Ni52 2.134862 1_455
B28 Ni38 2.153120 1_555
B28 Ni56 2.341421 1_555
B28 Tm4 2.877329 1_555
B29 Ni21 1.990512 1_555
B29 Ni9 2.021437 1_565
B29 Ni43 2.084604 1_565
B29 Ni29 2.100751 1_565
B29 Ni53 2.134862 1_565
B29 Ni39 2.153120 1_555
B29 Ni57 2.341421 1_555
B29 Tm5 2.877329 1_555
B30 Ni22 1.990512 1_555
B30 Ni10 2.021437 1_555
B30 Ni40 2.084604 1_455
B30 Ni30 2.100751 1_555
B30 Ni54 2.134862 1_555
B30 Ni36 2.153120 1_554
B30 Ni58 2.341421 1_454
B30 Tm6 2.877329 1_455
B31 Ni23 1.990512 1_555
B31 Ni11 2.021437 1_555
B31 Ni41 2.084604 1_565
B31 Ni31 2.100751 1_555
B31 Ni55 2.134862 1_555
B31 Ni37 2.153120 1_556
B31 Ni59 2.341421 1_566
B31 Tm7 2.877329 1_565
B32 Ni24 1.990512 1_555
B32 Ni10 2.021437 1_655
B32 Ni38 2.084604 1_655
B32 Ni32 2.100751 1_655
B32 Ni56 2.134862 1_655
B32 Ni42 2.153120 1_555
B32 Ni52 2.341421 1_555
B32 Tm6 2.877329 1_555
B33 Ni25 1.990512 1_555
B33 Ni11 2.021437 1_545
B33 Ni39 2.084604 1_545
B33 Ni33 2.100751 1_545
B33 Ni57 2.134862 1_545
B33 Ni43 2.153120 1_555
B33 Ni53 2.341421 1_555
B33 Tm7 2.877329 1_555
B34 Ni26 1.990512 1_555
B34 Ni8 2.021437 1_555
B34 Ni36 2.084604 1_655
B34 Ni34 2.100751 1_555
B34 Ni58 2.134862 1_555
B34 Ni40 2.153120 1_556
B34 Ni54 2.341421 1_656
B34 Tm4 2.877329 1_655
B35 Ni27 1.990512 1_555
B35 Ni9 2.021437 1_555
B35 Ni37 2.084604 1_545
B35 Ni35 2.100751 1_555
B35 Ni59 2.134862 1_555
B35 Ni41 2.153120 1_554
B35 Ni55 2.341421 1_544
B35 Tm5 2.877329 1_545
