# generated using pymatgen
data_SmPRu2C
_symmetry_space_group_name_H-M   'P 1'
_cell_length_a   5.83448563
_cell_length_b   5.83448563
_cell_length_c   7.13457900
_cell_angle_alpha   90.00000000
_cell_angle_beta   90.00000000
_cell_angle_gamma   141.32323322
_symmetry_Int_Tables_number   1
_chemical_formula_structural   SmPRu2C
_chemical_formula_sum   'Sm2 P2 Ru4 C2'
_cell_volume   151.77568230
_cell_formula_units_Z   2
loop_
 _symmetry_equiv_pos_site_id
 _symmetry_equiv_pos_as_xyz
  1  'x, y, z'
loop_
 _atom_site_type_symbol
 _atom_site_label
 _atom_site_symmetry_multiplicity
 _atom_site_fract_x
 _atom_site_fract_y
 _atom_site_fract_z
 _atom_site_occupancy
  Sm  Sm0  1  0.95379200  0.04620800  0.25000000  1
  Sm  Sm1  1  0.04620800  0.95379200  0.75000000  1
  P  P0  1  0.22990000  0.77010000  0.25000000  1
  P  P1  1  0.77010000  0.22990000  0.75000000  1
  Ru  Ru0  1  0.33353900  0.66646100  0.94573500  1
  Ru  Ru1  1  0.66646100  0.33353900  0.05426500  1
  Ru  Ru2  1  0.33353900  0.66646100  0.55426500  1
  Ru  Ru3  1  0.66646100  0.33353900  0.44573500  1
  C  C0  1  0.50000000  0.50000000  0.50000000  1
  C  C1  1  0.50000000  0.50000000  0.00000000  1
loop_
_geom_bond_atom_site_label_1
_geom_bond_atom_site_label_2
_geom_bond_distance
_geom_bond_site_symmetry_2
P0 Ru0 2.452459 1_554
P0 Ru2 2.452459 1_555
P0 Ru3 2.484145 1_565
P0 Ru1 2.484145 1_455
P0 Ru1 2.484145 1_565
P0 Ru3 2.484145 1_455
P0 Sm0 3.040115 1_465
P0 Sm0 3.132097 1_455
P0 Sm0 3.132097 1_565
P1 Ru3 2.452459 1_555
P1 Ru1 2.452459 1_556
P1 Ru2 2.484145 1_545
P1 Ru0 2.484145 1_545
P1 Ru2 2.484145 1_655
P1 Ru0 2.484145 1_655
P1 Sm1 3.040115 1_645
P1 Sm1 3.132097 1_655
P1 Sm1 3.132097 1_545
C0 Ru2 1.873280 1_555
C0 Ru3 1.873280 1_555
C0 Sm1 2.678271 1_655
C0 Sm0 2.678271 1_455
C0 Sm1 2.678271 1_545
C0 Sm0 2.678271 1_565
C1 Ru0 1.873280 1_554
C1 Ru1 1.873280 1_555
C1 Sm1 2.678271 1_654
C1 Sm1 2.678271 1_544
C1 Sm0 2.678271 1_455
C1 Sm0 2.678271 1_565
