# generated using pymatgen
data_Ca(NiO2)2
_symmetry_space_group_name_H-M   'P 1'
_cell_length_a   6.17205581
_cell_length_b   6.17201254
_cell_length_c   6.17220909
_cell_angle_alpha   59.98729476
_cell_angle_beta   59.98087647
_cell_angle_gamma   59.98269739
_symmetry_Int_Tables_number   1
_chemical_formula_structural   Ca(NiO2)2
_chemical_formula_sum   'Ca2 Ni4 O8'
_cell_volume   166.19615379
_cell_formula_units_Z   2
loop_
 _symmetry_equiv_pos_site_id
 _symmetry_equiv_pos_as_xyz
  1  'x, y, z'
loop_
 _atom_site_type_symbol
 _atom_site_label
 _atom_site_symmetry_multiplicity
 _atom_site_fract_x
 _atom_site_fract_y
 _atom_site_fract_z
 _atom_site_occupancy
  Ca  Ca0  1  0.87506700  0.87503000  0.87501800  1
  Ca  Ca1  1  0.12493100  0.12496900  0.12498500  1
  Ni  Ni0  1  0.50000000  0.00000000  0.50000000  1
  Ni  Ni1  1  0.00000000  0.50000100  0.50000000  1
  Ni  Ni2  1  0.50000000  0.49999900  0.00000000  1
  Ni  Ni3  1  0.50000000  0.50000000  0.49999900  1
  O  O0  1  0.73029700  0.73031500  0.73031300  1
  O  O1  1  0.26960600  0.26961100  0.69101800  1
  O  O2  1  0.26962100  0.69100300  0.26961600  1
  O  O3  1  0.69103400  0.26960000  0.26959200  1
  O  O4  1  0.73038000  0.30899700  0.73038300  1
  O  O5  1  0.30896600  0.73040000  0.73040800  1
  O  O6  1  0.26970400  0.26968600  0.26968600  1
  O  O7  1  0.73039400  0.73038900  0.30898200  1
loop_
_geom_bond_atom_site_label_1
_geom_bond_atom_site_label_2
_geom_bond_distance
_geom_bond_site_symmetry_2
Ca0 O5 2.186086 1_655
Ca0 O4 2.186554 1_565
Ca0 O7 2.186569 1_556
Ca0 O0 2.188368 1_555
Ca1 O3 2.186076 1_455
Ca1 O2 2.186549 1_545
Ca1 O1 2.186584 1_554
Ca1 O6 2.188373 1_555
Ni0 O1 2.024553 1_555
Ni0 O7 2.024553 1_545
Ni0 O0 2.024662 1_545
Ni0 O6 2.024662 1_555
Ni0 O3 2.024695 1_555
Ni0 O5 2.024695 1_545
Ni1 O0 2.024527 1_455
Ni1 O6 2.024536 1_555
Ni1 O2 2.024637 1_555
Ni1 O4 2.024641 1_455
Ni1 O1 2.024713 1_555
Ni1 O7 2.024713 1_455
Ni2 O4 2.024525 1_554
Ni2 O2 2.024528 1_555
Ni2 O6 2.024576 1_555
Ni2 O0 2.024593 1_554
Ni2 O5 2.024747 1_554
Ni2 O3 2.024747 1_555
Ni3 O1 2.025478 1_555
Ni3 O7 2.025479 1_555
Ni3 O2 2.025480 1_555
Ni3 O3 2.025483 1_555
Ni3 O4 2.025489 1_555
Ni3 O5 2.025492 1_555
