# generated using pymatgen
data_Er4Zn5Ge6
_symmetry_space_group_name_H-M   'P 1'
_cell_length_a   9.55925485
_cell_length_b   9.55925485
_cell_length_c   15.26673500
_cell_angle_alpha   90.00000000
_cell_angle_beta   90.00000000
_cell_angle_gamma   154.43084894
_symmetry_Int_Tables_number   1
_chemical_formula_structural   Er4Zn5Ge6
_chemical_formula_sum   'Er8 Zn10 Ge12'
_cell_volume   602.10995822
_cell_formula_units_Z   2
loop_
 _symmetry_equiv_pos_site_id
 _symmetry_equiv_pos_as_xyz
  1  'x, y, z'
loop_
 _atom_site_type_symbol
 _atom_site_label
 _atom_site_symmetry_multiplicity
 _atom_site_fract_x
 _atom_site_fract_y
 _atom_site_fract_z
 _atom_site_occupancy
  Er  Er0  1  0.01784300  0.98215700  0.76355400  1
  Er  Er1  1  0.98215700  0.01784300  0.26355400  1
  Er  Er2  1  0.17472200  0.82527800  0.31871800  1
  Er  Er3  1  0.82527800  0.17472200  0.81871800  1
  Er  Er4  1  0.16715300  0.83284700  0.95987800  1
  Er  Er5  1  0.83284700  0.16715300  0.45987800  1
  Er  Er6  1  0.03269100  0.96730900  0.49983700  1
  Er  Er7  1  0.96730900  0.03269100  0.99983700  1
  Zn  Zn0  1  0.34446400  0.65553600  0.99040400  1
  Zn  Zn1  1  0.65553600  0.34446400  0.49040400  1
  Zn  Zn2  1  0.30077500  0.69922500  0.63941300  1
  Zn  Zn3  1  0.69922500  0.30077500  0.13941300  1
  Zn  Zn4  1  0.65036400  0.34963600  0.78230400  1
  Zn  Zn5  1  0.34963600  0.65036400  0.28230400  1
  Zn  Zn6  1  0.15189500  0.84810500  0.63647700  1
  Zn  Zn7  1  0.84810500  0.15189500  0.13647700  1
  Zn  Zn8  1  0.43478400  0.56521600  0.57901300  1
  Zn  Zn9  1  0.56521600  0.43478400  0.07901300  1
  Ge  Ge0  1  0.22881600  0.77118400  0.49761000  1
  Ge  Ge1  1  0.77118400  0.22881600  0.99761000  1
  Ge  Ge2  1  0.43075200  0.56924800  0.85637300  1
  Ge  Ge3  1  0.56924800  0.43075200  0.35637300  1
  Ge  Ge4  1  0.22355900  0.77644100  0.77833300  1
  Ge  Ge5  1  0.77644100  0.22355900  0.27833300  1
  Ge  Ge6  1  0.55990300  0.44009700  0.90909000  1
  Ge  Ge7  1  0.44009700  0.55990300  0.40909000  1
  Ge  Ge8  1  0.56693800  0.43306200  0.63425000  1
  Ge  Ge9  1  0.43306200  0.56693800  0.13425000  1
  Ge  Ge10  1  0.11274900  0.88725100  0.14612100  1
  Ge  Ge11  1  0.88725100  0.11274900  0.64612100  1
loop_
_geom_bond_atom_site_label_1
_geom_bond_atom_site_label_2
_geom_bond_distance
_geom_bond_site_symmetry_2
Er0 Ge2 3.019812 1_455
Er0 Ge2 3.019812 1_565
Er0 Ge11 3.023671 1_465
Er0 Ge8 3.034693 1_455
Er0 Ge8 3.034693 1_565
Er0 Zn6 3.163936 1_555
Er0 Ge6 3.166422 1_565
Er0 Ge6 3.166422 1_455
Er0 Zn4 3.265176 1_565
Er0 Zn4 3.265176 1_455
Er1 Ge3 3.019812 1_655
Er1 Ge3 3.019812 1_545
Er1 Ge10 3.023671 1_645
Er1 Ge9 3.034693 1_545
Er1 Ge9 3.034693 1_655
Er1 Zn7 3.163936 1_555
Er1 Ge7 3.166422 1_545
Er1 Ge7 3.166422 1_655
Er1 Zn5 3.265176 1_655
Er1 Zn5 3.265176 1_545
Er2 Ge10 2.877198 1_555
Er2 Ge5 2.907142 1_455
Er2 Ge5 2.907142 1_565
Er2 Ge0 2.911371 1_555
Er2 Ge3 2.944872 1_565
Er2 Ge3 2.944872 1_455
Er3 Ge11 2.877198 1_555
Er3 Ge4 2.907142 1_545
Er3 Ge4 2.907142 1_655
Er3 Ge1 2.911371 1_555
Er3 Ge2 2.944872 1_655
Er3 Ge2 2.944872 1_545
Er4 Ge1 2.927206 1_455
Er4 Ge1 2.927206 1_565
Er4 Ge4 2.964416 1_555
Er4 Ge6 3.012361 1_455
Er4 Ge6 3.012361 1_565
Er4 Ge10 3.018835 1_556
Er5 Ge0 2.927206 1_655
Er5 Ge0 2.927206 1_545
Er5 Ge5 2.964416 1_555
Er5 Ge7 3.012361 1_655
Er5 Ge7 3.012361 1_545
Er5 Ge11 3.018835 1_555
Er6 Ge8 3.015497 1_455
Er6 Ge8 3.015497 1_565
Er6 Zn8 3.044325 1_565
Er6 Zn8 3.044325 1_455
Er6 Zn6 3.048133 1_555
Er6 Ge7 3.061755 1_565
Er6 Ge7 3.061755 1_455
Er6 Ge3 3.120300 1_565
Er6 Ge3 3.120300 1_455
Er6 Zn1 3.121095 1_455
Er6 Zn1 3.121095 1_565
Er7 Ge9 3.015497 1_546
Er7 Ge9 3.015497 1_656
Er7 Zn9 3.044325 1_656
Er7 Zn9 3.044325 1_546
Er7 Zn7 3.048133 1_556
Er7 Ge6 3.061755 1_655
Er7 Ge6 3.061755 1_545
Er7 Ge2 3.120300 1_655
Er7 Ge2 3.120300 1_545
Er7 Zn0 3.121095 1_545
Er7 Zn0 3.121095 1_655
Ge0 Zn1 2.520599 1_565
Ge0 Zn1 2.520599 1_455
Ge0 Zn2 2.546893 1_555
Ge0 Zn6 2.559570 1_555
Ge1 Zn0 2.520599 1_655
Ge1 Zn0 2.520599 1_545
Ge1 Zn3 2.546893 1_556
Ge1 Zn7 2.559570 1_556
Ge2 Ge6 2.538899 1_555
Ge2 Zn0 2.602929 1_555
Ge3 Ge7 2.538899 1_555
Ge3 Zn1 2.602929 1_555
Ge4 Zn4 2.518067 1_455
Ge4 Zn4 2.518067 1_565
Ge4 Zn6 2.544688 1_555
Ge4 Zn2 2.563325 1_555
Ge5 Zn5 2.518067 1_545
Ge5 Zn5 2.518067 1_655
Ge5 Zn7 2.544688 1_555
Ge5 Zn3 2.563325 1_555
Ge6 Zn4 2.567336 1_555
Ge6 Zn9 2.596060 1_556
Ge7 Zn5 2.567336 1_555
Ge7 Zn8 2.596060 1_555
Ge8 Zn8 2.604264 1_555
Ge8 Zn6 2.642873 1_545
Ge8 Zn6 2.642873 1_655
Ge8 Zn4 2.743785 1_555
Ge8 Zn1 2.747971 1_555
Ge9 Zn9 2.604264 1_555
Ge9 Zn7 2.642873 1_455
Ge9 Zn7 2.642873 1_565
Ge9 Zn5 2.743785 1_555
Ge9 Zn0 2.747971 1_554
Ge10 Zn9 2.511904 1_455
Ge10 Zn9 2.511904 1_565
Ge10 Zn3 2.661697 1_455
Ge10 Zn3 2.661697 1_565
Ge11 Zn8 2.511904 1_545
Ge11 Zn8 2.511904 1_655
Ge11 Zn2 2.661697 1_655
Ge11 Zn2 2.661697 1_545
