# generated using pymatgen
data_YCu(WO4)2
_symmetry_space_group_name_H-M   'P 1'
_cell_length_a   5.14303700
_cell_length_b   6.08012987
_cell_length_c   6.11849404
_cell_angle_alpha   108.91252316
_cell_angle_beta   91.74627396
_cell_angle_gamma   113.74446967
_symmetry_Int_Tables_number   1
_chemical_formula_structural   YCu(WO4)2
_chemical_formula_sum   'Y1 Cu1 W2 O8'
_cell_volume   162.78875060
_cell_formula_units_Z   1
loop_
 _symmetry_equiv_pos_site_id
 _symmetry_equiv_pos_as_xyz
  1  'x, y, z'
loop_
 _atom_site_type_symbol
 _atom_site_label
 _atom_site_symmetry_multiplicity
 _atom_site_fract_x
 _atom_site_fract_y
 _atom_site_fract_z
 _atom_site_occupancy
  Y  Y0  1  0.37786300  0.90144000  0.27847400  1
  Cu  Cu0  1  0.86425600  0.89432100  0.77014200  1
  W  W0  1  0.12499500  0.41221500  0.61002900  1
  W  W1  1  0.62583400  0.38931500  0.94502800  1
  O  O0  1  0.90848200  0.60153700  0.75125200  1
  O  O1  1  0.40149900  0.59105600  0.94981000  1
  O  O2  1  0.35613100  0.65070700  0.49694700  1
  O  O3  1  0.89025100  0.63820000  0.20397600  1
  O  O4  1  0.84006700  0.19808100  0.80007500  1
  O  O5  1  0.39805500  0.15358300  0.06183500  1
  O  O6  1  0.35079300  0.21149000  0.60574100  1
  O  O7  1  0.86577600  0.16195600  0.34819000  1
loop_
_geom_bond_atom_site_label_1
_geom_bond_atom_site_label_2
_geom_bond_distance
_geom_bond_site_symmetry_2
Cu0 O4 1.851273 1_565
Cu0 O0 1.851590 1_555
Cu0 O2 2.613218 1_555
O0 W0 1.938488 1_655
O0 W1 2.184038 1_555
O1 W1 1.988742 1_555
O1 W0 2.153091 1_555
O1 Y0 2.315081 1_556
O2 W0 1.818473 1_555
O2 Y0 2.305710 1_555
O3 W1 1.818444 1_554
O3 Y0 2.298602 1_655
O4 W1 1.943004 1_555
O4 W0 2.177928 1_655
O5 W1 1.816675 1_554
O5 Y0 2.305536 1_545
O6 W0 1.990274 1_555
O6 W1 2.147972 1_555
O6 Y0 2.316039 1_545
O7 W0 1.820765 1_655
O7 Y0 2.298612 1_545
