# generated using pymatgen
data_Na2N2O3
_symmetry_space_group_name_H-M   'P 1'
_cell_length_a   6.50034723
_cell_length_b   6.50034723
_cell_length_c   12.23639392
_cell_angle_alpha   71.64622524
_cell_angle_beta   71.64622524
_cell_angle_gamma   38.95376471
_symmetry_Int_Tables_number   1
_chemical_formula_structural   Na2N2O3
_chemical_formula_sum   'Na6 N6 O9'
_cell_volume   306.39446833
_cell_formula_units_Z   3
loop_
 _symmetry_equiv_pos_site_id
 _symmetry_equiv_pos_as_xyz
  1  'x, y, z'
loop_
 _atom_site_type_symbol
 _atom_site_label
 _atom_site_symmetry_multiplicity
 _atom_site_fract_x
 _atom_site_fract_y
 _atom_site_fract_z
 _atom_site_occupancy
  Na  Na0  1  0.93688700  0.72548300  0.59466100  1
  Na  Na1  1  0.67426400  0.29746300  0.78051000  1
  Na  Na2  1  0.26885700  0.05615800  0.92881900  1
  Na  Na3  1  0.94384200  0.73114300  0.07118100  1
  Na  Na4  1  0.70253700  0.32573600  0.21949000  1
  Na  Na5  1  0.27451700  0.06311300  0.40533900  1
  N  N0  1  0.37102700  0.98304600  0.65602300  1
  N  N1  1  0.73553000  0.26447000  0.00000000  1
  N  N2  1  0.04304500  0.60453400  0.81429800  1
  N  N3  1  0.01695400  0.62897300  0.34397700  1
  N  N4  1  0.39546600  0.95695500  0.18570200  1
  N  N5  1  0.72818300  0.27181700  0.50000000  1
  O  O0  1  0.34779000  0.87423000  0.75980200  1
  O  O1  1  0.10030500  0.22604600  0.61190000  1
  O  O2  1  0.44289900  0.55710100  0.00000000  1
  O  O3  1  0.80623000  0.81891200  0.88386900  1
  O  O4  1  0.12577000  0.65221000  0.24019800  1
  O  O5  1  0.77395400  0.89969500  0.38810000  1
  O  O6  1  0.18108800  0.19377000  0.11613100  1
  O  O7  1  0.51798100  0.37033000  0.58965100  1
  O  O8  1  0.62967000  0.48201900  0.41034900  1
loop_
_geom_bond_atom_site_label_1
_geom_bond_atom_site_label_2
_geom_bond_distance
_geom_bond_site_symmetry_2
Na0 O7 2.445814 1_655
Na0 O1 2.461472 1_655
Na0 O5 2.609712 1_555
Na0 O7 2.679542 1_565
Na1 O0 2.447422 1_555
Na1 O3 2.463219 1_545
Na1 O7 2.599945 1_555
Na1 O1 2.673408 1_655
Na1 O0 2.794281 1_645
Na2 O2 2.386498 1_546
Na2 O3 2.414217 1_545
Na2 O0 2.422260 1_545
Na2 O6 2.460278 1_556
Na3 O2 2.386498 1_655
Na3 O6 2.414217 1_655
Na3 O4 2.422260 1_655
Na3 O3 2.460278 1_554
Na4 O4 2.447422 1_555
Na4 O6 2.463219 1_655
Na4 O8 2.599945 1_555
Na4 O5 2.673408 1_545
Na4 O4 2.794281 1_645
Na5 O8 2.445814 1_545
Na5 O5 2.461472 1_545
Na5 O1 2.609712 1_555
Na5 O8 2.679542 1_455
N0 O0 1.270999 1_555
N0 O1 1.273331 1_565
N0 Na0 2.524063 1_555
N1 O2 1.268490 1_555
N1 Na3 2.480096 1_545
N1 Na2 2.480096 1_654
N1 Na1 2.756075 1_554
N1 Na4 2.756075 1_555
N2 O3 1.273472 1_455
N2 Na2 2.614682 1_555
N2 Na0 2.703845 1_455
N2 Na1 2.775640 1_555
N3 O4 1.270999 1_555
N3 O5 1.273331 1_455
N3 Na5 2.524063 1_555
N4 O6 1.273472 1_565
N4 Na3 2.614682 1_555
N4 Na5 2.703845 1_565
N4 Na4 2.775640 1_555
N5 O8 1.272025 1_555
N5 O7 1.272025 1_555
N5 Na5 2.588433 1_655
N5 Na0 2.588433 1_545
