# generated using pymatgen
data_SbS4N3
_symmetry_space_group_name_H-M   'P 1'
_cell_length_a   5.62998600
_cell_length_b   6.33918070
_cell_length_c   6.69422691
_cell_angle_alpha   111.73723619
_cell_angle_beta   91.38547501
_cell_angle_gamma   108.04490434
_symmetry_Int_Tables_number   1
_chemical_formula_structural   SbS4N3
_chemical_formula_sum   'Sb1 S4 N3'
_cell_volume   208.38356329
_cell_formula_units_Z   1
loop_
 _symmetry_equiv_pos_site_id
 _symmetry_equiv_pos_as_xyz
  1  'x, y, z'
loop_
 _atom_site_type_symbol
 _atom_site_label
 _atom_site_symmetry_multiplicity
 _atom_site_fract_x
 _atom_site_fract_y
 _atom_site_fract_z
 _atom_site_occupancy
  Sb  Sb0  1  0.03528700  0.90729300  0.03837700  1
  S  S0  1  0.11620100  0.61381200  0.45080500  1
  S  S1  1  0.66083400  0.09658100  0.07569300  1
  S  S2  1  0.05405200  0.04398300  0.44778100  1
  S  S3  1  0.68525200  0.33351500  0.93149200  1
  N  N0  1  0.21713300  0.91975800  0.53748100  1
  N  N1  1  0.91384200  0.57591000  0.05925600  1
  N  N2  1  0.31739800  0.50914900  0.45911700  1
loop_
_geom_bond_atom_site_label_1
_geom_bond_atom_site_label_2
_geom_bond_distance
_geom_bond_site_symmetry_2
S1 S3 2.039376 1_554
S1 Sb0 2.705036 1_645
S2 Sb0 2.538386 1_545
N0 S2 1.610965 1_565
N0 S0 1.699642 1_555
N1 S3 1.580213 1_554
N1 Sb0 2.057236 1_655
N2 S0 1.488720 1_555
