# generated using pymatgen
data_Lu(Al2Fe)4
_symmetry_space_group_name_H-M   'P 1'
_cell_length_a   4.95445538
_cell_length_b   6.61221880
_cell_length_c   6.61214777
_cell_angle_alpha   81.98445660
_cell_angle_beta   68.06010194
_cell_angle_gamma   68.06068179
_symmetry_Int_Tables_number   1
_chemical_formula_structural   Lu(Al2Fe)4
_chemical_formula_sum   'Lu1 Al8 Fe4'
_cell_volume   186.37460511
_cell_formula_units_Z   1
loop_
 _symmetry_equiv_pos_site_id
 _symmetry_equiv_pos_as_xyz
  1  'x, y, z'
loop_
 _atom_site_type_symbol
 _atom_site_label
 _atom_site_symmetry_multiplicity
 _atom_site_fract_x
 _atom_site_fract_y
 _atom_site_fract_z
 _atom_site_occupancy
  Lu  Lu0  1  0.00000000  0.00000000  0.00000000  1
  Al  Al0  1  -0.00000577  0.34072665  0.65928321  1
  Al  Al1  1  0.28071827  0.21933745  0.21931673  1
  Al  Al2  1  0.50000805  0.78074394  0.21924138  1
  Al  Al3  1  0.49999195  0.21925606  0.78075862  1
  Al  Al4  1  0.71928173  0.78066255  0.78068327  1
  Al  Al5  1  0.00000577  0.65927335  0.34071679  1
  Al  Al6  1  0.34019845  0.65948214  0.65949017  1
  Al  Al7  1  0.65980155  0.34051786  0.34050983  1
  Fe  Fe0  1  0.50000000  0.50000000  0.00000000  1
  Fe  Fe1  1  0.50000000  0.00000000  0.50000000  1
  Fe  Fe2  1  0.00000000  0.00000000  0.50000000  1
  Fe  Fe3  1  0.00000000  0.50000000  0.00000000  1
loop_
_geom_bond_atom_site_label_1
_geom_bond_atom_site_label_2
_geom_bond_distance
_geom_bond_site_symmetry_2
Al0 Fe3 2.616544 1_556
Al0 Fe2 2.616627 1_555
Al0 Fe0 2.619717 1_456
Al0 Fe1 2.619815 1_555
Al0 Al3 2.692022 1_455
Al0 Al3 2.692031 1_555
Al0 Al5 2.763354 1_555
Al0 Al4 2.799005 1_455
Al0 Al1 2.799133 1_555
Al0 Lu0 2.955628 1_556
Al1 Fe0 2.511178 1_555
Al1 Fe1 2.511336 1_555
Al1 Fe3 2.511816 1_555
Al1 Fe2 2.511955 1_555
Al1 Al3 2.689797 1_554
Al1 Al2 2.690054 1_545
Al1 Al7 2.690712 1_555
Al1 Al7 2.691249 1_455
Al1 Al5 2.799005 1_555
Al1 Lu0 3.121161 1_555
Al1 Lu0 3.125483 1_655
Al2 Fe0 2.509600 1_555
Al2 Fe1 2.509701 1_565
Al2 Fe3 2.512914 1_655
Al2 Fe2 2.513019 1_565
Al2 Al4 2.689797 1_554
Al2 Al5 2.692022 1_555
Al2 Al5 2.692031 1_655
Al2 Al7 2.800768 1_555
Al2 Al6 2.800856 1_555
Al2 Lu0 3.123110 1_665
Al2 Lu0 3.123128 1_565
Al3 Fe0 2.509600 1_556
Al3 Fe1 2.509701 1_555
Al3 Fe3 2.512914 1_556
Al3 Fe2 2.513019 1_655
Al3 Al4 2.690054 1_545
Al3 Al6 2.800768 1_555
Al3 Al7 2.800856 1_555
Al3 Lu0 3.123110 1_556
Al3 Lu0 3.123128 1_656
Al4 Fe0 2.511178 1_556
Al4 Fe1 2.511336 1_565
Al4 Fe3 2.511816 1_656
Al4 Fe2 2.511955 1_665
Al4 Al6 2.690712 1_555
Al4 Al6 2.691249 1_655
Al4 Al5 2.799133 1_655
Al4 Lu0 3.121161 1_666
Al4 Lu0 3.125483 1_566
Al5 Fe3 2.616544 1_555
Al5 Fe2 2.616627 1_565
Al5 Fe0 2.619717 1_555
Al5 Fe1 2.619815 1_465
Al5 Lu0 2.955628 1_565
Al6 Fe3 2.617711 1_556
Al6 Fe2 2.617796 1_565
Al6 Fe0 2.618046 1_556
Al6 Fe1 2.618115 1_565
Al6 Al7 2.766466 1_555
Al6 Lu0 2.953288 1_566
Al7 Fe3 2.617711 1_655
Al7 Fe2 2.617796 1_655
Al7 Fe0 2.618046 1_555
Al7 Fe1 2.618115 1_555
Al7 Lu0 2.953288 1_655
Fe0 Fe3 2.477228 1_555
Fe0 Fe3 2.477228 1_655
Fe0 Lu0 3.308634 1_655
Fe0 Lu0 3.308634 1_565
Fe1 Fe2 2.477228 1_555
Fe1 Fe2 2.477228 1_655
Fe1 Lu0 3.308585 1_556
Fe1 Lu0 3.308585 1_655
Fe2 Lu0 3.306074 1_556
Fe2 Lu0 3.306074 1_555
Fe3 Lu0 3.306109 1_555
Fe3 Lu0 3.306109 1_565
