# generated using pymatgen
data_LaY3Ti4O14
_symmetry_space_group_name_H-M   'P 1'
_cell_length_a   7.25780425
_cell_length_b   7.25780425
_cell_length_c   7.25780391
_cell_angle_alpha   60.08012072
_cell_angle_beta   60.08012072
_cell_angle_gamma   60.08012209
_symmetry_Int_Tables_number   1
_chemical_formula_structural   LaY3Ti4O14
_chemical_formula_sum   'La1 Y3 Ti4 O14'
_cell_volume   270.82486519
_cell_formula_units_Z   1
loop_
 _symmetry_equiv_pos_site_id
 _symmetry_equiv_pos_as_xyz
  1  'x, y, z'
loop_
 _atom_site_type_symbol
 _atom_site_label
 _atom_site_symmetry_multiplicity
 _atom_site_fract_x
 _atom_site_fract_y
 _atom_site_fract_z
 _atom_site_occupancy
  La  La0  1  0.50000000  0.50000000  0.50000000  1
  Y  Y0  1  0.00000000  0.50000000  0.50000000  1
  Y  Y1  1  0.50000000  0.50000000  0.00000000  1
  Y  Y2  1  0.50000000  0.00000000  0.50000000  1
  Ti  Ti0  1  0.00000000  0.00000000  0.00000000  1
  Ti  Ti1  1  0.50000000  0.00000000  0.00000000  1
  Ti  Ti2  1  0.00000000  0.00000000  0.50000000  1
  Ti  Ti3  1  0.00000000  0.50000000  0.00000000  1
  O  O0  1  0.92629900  0.32747000  0.32747000  1
  O  O1  1  0.32797800  0.92171800  0.92171800  1
  O  O2  1  0.32747000  0.32747000  0.92629900  1
  O  O3  1  0.92171800  0.92171800  0.32797800  1
  O  O4  1  0.92171800  0.32797800  0.92171800  1
  O  O5  1  0.32747000  0.92629900  0.32747000  1
  O  O6  1  0.07370100  0.67253000  0.67253000  1
  O  O7  1  0.67202200  0.07828200  0.07828200  1
  O  O8  1  0.67253000  0.67253000  0.07370100  1
  O  O9  1  0.07828200  0.07828200  0.67202200  1
  O  O10  1  0.07828200  0.67202200  0.07828200  1
  O  O11  1  0.67253000  0.07370100  0.67253000  1
  O  O12  1  0.36966100  0.36966100  0.36966100  1
  O  O13  1  0.63033900  0.63033900  0.63033900  1
loop_
_geom_bond_atom_site_label_1
_geom_bond_atom_site_label_2
_geom_bond_distance
_geom_bond_site_symmetry_2
La0 O12 2.315752 1_555
La0 O13 2.315752 1_555
La0 O2 2.557964 1_555
La0 O8 2.557964 1_555
La0 O5 2.557964 1_555
La0 O6 2.557964 1_555
La0 O0 2.557964 1_555
La0 O11 2.557964 1_555
O0 Ti3 1.983413 1_655
O0 Ti2 1.983413 1_655
O0 Y0 2.514483 1_655
O1 Ti0 1.983836 1_566
O1 Ti1 1.985353 1_566
O1 Y2 2.531896 1_565
O1 Y1 2.531896 1_556
O2 Ti1 1.983413 1_556
O2 Ti3 1.983413 1_556
O2 Y1 2.514483 1_556
O3 Ti0 1.983836 1_665
O3 Ti2 1.985353 1_665
O3 Y0 2.531896 1_655
O3 Y2 2.531896 1_565
O4 Ti0 1.983836 1_656
O4 Ti3 1.985353 1_656
O4 Y0 2.531896 1_655
O4 Y1 2.531896 1_556
O5 Ti1 1.983413 1_565
O5 Ti2 1.983413 1_565
O5 Y2 2.514483 1_565
O6 Ti3 1.983413 1_556
O6 Ti2 1.983413 1_565
O6 Y0 2.514483 1_555
O7 Ti0 1.983836 1_655
O7 Ti1 1.985353 1_555
O7 Y2 2.531896 1_555
O7 Y1 2.531896 1_555
O8 Ti3 1.983413 1_655
O8 Ti1 1.983413 1_565
O8 Y1 2.514483 1_555
O9 Ti0 1.983836 1_556
O9 Ti2 1.985353 1_555
O9 Y0 2.531896 1_555
O9 Y2 2.531896 1_555
O10 Ti0 1.983836 1_565
O10 Ti3 1.985353 1_555
O10 Y0 2.531896 1_555
O10 Y1 2.531896 1_555
O11 Ti1 1.983413 1_556
O11 Ti2 1.983413 1_655
O11 Y2 2.514483 1_555
O12 Y1 2.194737 1_555
O12 Y2 2.194737 1_555
O12 Y0 2.194737 1_555
O13 Y1 2.194737 1_556
O13 Y0 2.194737 1_655
O13 Y2 2.194737 1_565
