# generated using pymatgen
data_AgPH6(NF3)2
_symmetry_space_group_name_H-M   'P 1'
_cell_length_a   7.42522565
_cell_length_b   8.58229396
_cell_length_c   13.28643871
_cell_angle_alpha   89.95035320
_cell_angle_beta   88.51840559
_cell_angle_gamma   89.20781111
_symmetry_Int_Tables_number   1
_chemical_formula_structural   AgPH6(NF3)2
_chemical_formula_sum   'Ag4 P4 H24 N8 F24'
_cell_volume   846.32046936
_cell_formula_units_Z   4
loop_
 _symmetry_equiv_pos_site_id
 _symmetry_equiv_pos_as_xyz
  1  'x, y, z'
loop_
 _atom_site_type_symbol
 _atom_site_label
 _atom_site_symmetry_multiplicity
 _atom_site_fract_x
 _atom_site_fract_y
 _atom_site_fract_z
 _atom_site_occupancy
  Ag  Ag0  1  0.93250700  0.99950900  0.00151800  1
  Ag  Ag1  1  0.54922900  0.50057000  0.50080100  1
  Ag  Ag2  1  0.53693800  0.00092100  0.00139300  1
  Ag  Ag3  1  0.94607500  0.49725100  0.49976500  1
  P  P0  1  0.50057700  0.41186500  0.17330900  1
  P  P1  1  0.49871700  0.58909500  0.82799800  1
  P  P2  1  0.00322700  0.08927000  0.67261000  1
  P  P3  1  0.99787000  0.91157500  0.32450700  1
  H  H0  1  0.42063100  0.21376400  0.54533600  1
  H  H1  1  0.41874800  0.98014800  0.19546200  1
  H  H2  1  0.52204500  0.20513600  0.43315200  1
  H  H3  1  0.50142700  0.79943000  0.56074800  1
  H  H4  1  0.49162400  0.99474300  0.80097900  1
  H  H5  1  0.48766400  0.18046600  0.83562200  1
  H  H6  1  0.49047800  0.79385600  0.43670900  1
  H  H7  1  0.49725000  0.80667400  0.16027000  1
  H  H8  1  0.63704500  0.94321400  0.19370400  1
  H  H9  1  0.64294000  0.19983800  0.53553600  1
  H  H10  1  0.68012500  0.08696900  0.81882500  1
  H  H11  1  0.68840000  0.79290500  0.49038600  1
  H  H12  1  0.81265300  0.70147400  0.99422500  1
  H  H13  1  0.80926200  0.29889400  0.00858300  1
  H  H14  1  0.82255500  0.41201900  0.31637400  1
  H  H15  1  0.82334800  0.59043100  0.68539200  1
  H  H16  1  0.99712100  0.29331800  0.93893800  1
  H  H17  1  0.01196300  0.70880700  0.93628900  1
  H  H18  1  0.01336700  0.31893500  0.33457200  1
  H  H19  1  0.01194000  0.49092300  0.69798500  1
  H  H20  1  0.01327200  0.50469500  0.29995200  1
  H  H21  1  0.01598200  0.67619600  0.66238800  1
  H  H22  1  0.00634600  0.29076200  0.06316000  1
  H  H23  1  0.99763400  0.70404100  0.06067300  1
  N  N0  1  0.93891400  0.74773400  0.99767400  1
  N  N1  1  0.53118500  0.24920300  0.50419300  1
  N  N2  1  0.55927700  0.75244200  0.49695900  1
  N  N3  1  0.55075200  0.07507300  0.84585700  1
  N  N4  1  0.52059800  0.92376300  0.15631100  1
  N  N5  1  0.93657000  0.25132300  0.00319300  1
  N  N6  1  0.94879300  0.42416000  0.34427300  1
  N  N7  1  0.94982300  0.57320000  0.65461100  1
  F  F0  1  0.15912300  0.96281600  0.63812400  1
  F  F1  1  0.15437700  0.03169800  0.35790400  1
  F  F2  1  0.15897000  0.21367500  0.70374000  1
  F  F3  1  0.15303700  0.78245300  0.29062400  1
  F  F4  1  0.34727100  0.28495100  0.20729100  1
  F  F5  1  0.34123400  0.71458600  0.79588500  1
  F  F6  1  0.34338500  0.53462900  0.14048600  1
  F  F7  1  0.34513700  0.46464300  0.86271800  1
  F  F8  1  0.49477500  0.48501600  0.28808700  1
  F  F9  1  0.51156500  0.33733600  0.06010400  1
  F  F10  1  0.50005900  0.66404000  0.94084800  1
  F  F11  1  0.50178200  0.51588000  0.71320600  1
  F  F12  1  0.65701400  0.53747000  0.14077700  1
  F  F13  1  0.65935800  0.46586600  0.85823100  1
  F  F14  1  0.66003600  0.28817700  0.20830800  1
  F  F15  1  0.65392100  0.71484500  0.79053400  1
  F  F16  1  0.84591300  0.21709600  0.70877800  1
  F  F17  1  0.84050200  0.79074800  0.28924200  1
  F  F18  1  0.84019900  0.03899400  0.35742000  1
  F  F19  1  0.84474700  0.96746300  0.64277300  1
  F  F20  1  0.00195300  0.01782900  0.78749600  1
  F  F21  1  0.00153100  0.16299900  0.55905700  1
  F  F22  1  0.98851400  0.83629700  0.43790900  1
  F  F23  1  0.00472900  0.98589900  0.21022600  1
loop_
_geom_bond_atom_site_label_1
_geom_bond_atom_site_label_2
_geom_bond_distance
_geom_bond_site_symmetry_2
Ag0 N0 2.161292 1_554
Ag0 N5 2.161911 1_565
Ag1 N1 2.163668 1_555
Ag1 N2 2.164470 1_555
Ag2 N3 2.162079 1_554
Ag2 N4 2.162591 1_545
Ag3 N6 2.159103 1_555
Ag3 N7 2.159658 1_555
H0 N1 1.024009 1_555
H1 N4 1.023063 1_555
H2 N1 1.021368 1_555
H3 N2 1.020988 1_555
H4 N3 1.022842 1_565
H5 N3 1.023445 1_555
H6 N2 1.021636 1_555
H7 N4 1.023174 1_555
H8 N4 1.024040 1_555
H9 N1 1.024369 1_555
H10 N3 1.023242 1_555
H11 N2 1.025807 1_555
H12 N0 1.025283 1_555
H13 N5 1.025312 1_555
H14 N6 1.023529 1_555
H15 N7 1.023449 1_555
H16 N5 1.022242 1_556
H17 N0 1.021560 1_455
H18 N6 1.023270 1_455
H19 N7 1.023469 1_455
H20 N6 1.023512 1_455
H21 N7 1.023788 1_455
H22 N5 1.021992 1_455
H23 N0 1.022325 1_554
F0 P2 1.632909 1_565
F1 P3 1.634250 1_445
F2 P2 1.645593 1_555
F3 P3 1.642218 1_455
F4 P0 1.641003 1_555
F5 P1 1.643024 1_555
F6 P0 1.629139 1_555
F7 P1 1.630847 1_555
F8 P0 1.648971 1_555
F9 P0 1.634611 1_555
F10 P1 1.632345 1_555
F11 P1 1.649539 1_555
F12 P0 1.644989 1_555
F13 P1 1.640660 1_555
F14 P0 1.654641 1_555
F15 P1 1.656614 1_555
F16 P2 1.653878 1_655
F17 P3 1.650116 1_555
F18 P3 1.642153 1_545
F19 P2 1.641213 1_665
F20 P2 1.644318 1_555
F21 P2 1.635811 1_555
F22 P3 1.639064 1_555
F23 P3 1.646267 1_455
