# generated using pymatgen
data_Dy4Si2S3O7
_symmetry_space_group_name_H-M   'P 1'
_cell_length_a   10.75819725
_cell_length_b   10.75819725
_cell_length_c   10.75819725
_cell_angle_alpha   113.89563647
_cell_angle_beta   113.89563647
_cell_angle_gamma   100.94438557
_symmetry_Int_Tables_number   1
_chemical_formula_structural   Dy4Si2S3O7
_chemical_formula_sum   'Dy16 Si8 S12 O28'
_cell_volume   942.92908929
_cell_formula_units_Z   4
loop_
 _symmetry_equiv_pos_site_id
 _symmetry_equiv_pos_as_xyz
  1  'x, y, z'
loop_
 _atom_site_type_symbol
 _atom_site_label
 _atom_site_symmetry_multiplicity
 _atom_site_fract_x
 _atom_site_fract_y
 _atom_site_fract_z
 _atom_site_occupancy
  Dy  Dy0  1  0.42219800  0.92219800  0.84439500  1
  Dy  Dy1  1  0.67219800  0.32780200  0.00000000  1
  Dy  Dy2  1  0.32780200  0.67219800  0.00000000  1
  Dy  Dy3  1  0.07780200  0.57780200  0.15560500  1
  Dy  Dy4  1  0.32780200  0.32780200  0.65560500  1
  Dy  Dy5  1  0.07780200  0.92219800  0.50000000  1
  Dy  Dy6  1  0.42219800  0.57780200  0.50000000  1
  Dy  Dy7  1  0.67219800  0.67219800  0.34439500  1
  Dy  Dy8  1  0.03338400  0.79766200  0.76427800  1
  Dy  Dy9  1  0.03338400  0.26910600  0.23572200  1
  Dy  Dy10  1  0.20233800  0.96661600  0.23572200  1
  Dy  Dy11  1  0.01910600  0.28338400  0.73572200  1
  Dy  Dy12  1  0.54766200  0.28338400  0.26427800  1
  Dy  Dy13  1  0.71661600  0.98089400  0.26427800  1
  Dy  Dy14  1  0.71661600  0.45233800  0.73572200  1
  Dy  Dy15  1  0.73089400  0.96661600  0.76427800  1
  Si  Si0  1  0.27895200  0.40400800  0.12505500  1
  Si  Si1  1  0.27895200  0.15389700  0.87494500  1
  Si  Si2  1  0.59599200  0.72104800  0.87494500  1
  Si  Si3  1  0.90389700  0.52895200  0.37494500  1
  Si  Si4  1  0.15400800  0.52895200  0.62505500  1
  Si  Si5  1  0.47104800  0.09610300  0.62505500  1
  Si  Si6  1  0.47104800  0.84599200  0.37494500  1
  Si  Si7  1  0.84610300  0.72104800  0.12505500  1
  S  S0  1  0.50000000  0.50000000  0.00000000  1
  S  S1  1  0.25000000  0.75000000  0.50000000  1
  S  S2  1  0.75000000  0.25000000  0.50000000  1
  S  S3  1  0.00000000  0.00000000  0.00000000  1
  S  S4  1  0.87500000  0.97873300  0.60373300  1
  S  S5  1  0.72873300  0.62500000  0.60373300  1
  S  S6  1  0.02126700  0.12500000  0.39626700  1
  S  S7  1  0.37500000  0.27126700  0.39626700  1
  S  S8  1  0.87500000  0.27126700  0.89626700  1
  S  S9  1  0.02126700  0.62500000  0.89626700  1
  S  S10  1  0.72873300  0.12500000  0.10373300  1
  S  S11  1  0.37500000  0.97873300  0.10373300  1
  O  O0  1  0.77430000  0.77430000  0.00000000  1
  O  O1  1  0.52430000  0.02430000  0.50000000  1
  O  O2  1  0.97570000  0.47570000  0.50000000  1
  O  O3  1  0.22570000  0.22570000  0.00000000  1
  O  O4  1  0.20082400  0.96826700  0.76744300  1
  O  O5  1  0.20082400  0.43338200  0.23255700  1
  O  O6  1  0.03173300  0.79917600  0.23255700  1
  O  O7  1  0.18338200  0.45082400  0.73255700  1
  O  O8  1  0.71826700  0.45082400  0.26744300  1
  O  O9  1  0.54917600  0.81661800  0.26744300  1
  O  O10  1  0.54917600  0.28173300  0.73255700  1
  O  O11  1  0.56661800  0.79917600  0.76744300  1
  O  O12  1  0.29328200  0.05793500  0.51792000  1
  O  O13  1  0.54001500  0.77536200  0.48208000  1
  O  O14  1  0.94206500  0.70671800  0.48208000  1
  O  O15  1  0.52536200  0.54328200  0.73534700  1
  O  O16  1  0.80793500  0.79001500  0.26465300  1
  O  O17  1  0.45671800  0.47463800  0.26465300  1
  O  O18  1  0.20998500  0.19206500  0.73534700  1
  O  O19  1  0.22463800  0.45998500  0.51792000  1
  O  O20  1  0.45671800  0.19206500  0.98208000  1
  O  O21  1  0.20998500  0.47463800  0.01792000  1
  O  O22  1  0.80793500  0.54328200  0.01792000  1
  O  O23  1  0.22463800  0.70671800  0.76465300  1
  O  O24  1  0.94206500  0.45998500  0.23534700  1
  O  O25  1  0.29328200  0.77536200  0.23534700  1
  O  O26  1  0.54001500  0.05793500  0.76465300  1
  O  O27  1  0.52536200  0.79001500  0.98208000  1
loop_
_geom_bond_atom_site_label_1
_geom_bond_atom_site_label_2
_geom_bond_distance
_geom_bond_site_symmetry_2
Dy0 O26 2.380748 1_565
Dy0 O23 2.380761 1_555
Dy0 O11 2.405448 1_555
Dy0 O4 2.405462 1_555
Dy0 O20 2.534164 1_565
Dy0 O27 2.534171 1_555
Dy0 S1 2.857778 1_555
Dy0 S10 2.881332 1_566
Dy0 S11 2.881341 1_556
Dy1 O20 2.380756 1_554
Dy1 O22 2.380756 1_555
Dy1 O8 2.405462 1_555
Dy1 O10 2.405462 1_554
Dy1 O26 2.534164 1_554
Dy1 O24 2.534164 1_555
Dy1 S0 2.857787 1_555
Dy1 S10 2.881330 1_555
Dy1 S8 2.881330 1_554
Dy2 O21 2.380756 1_555
Dy2 O27 2.380756 1_554
Dy2 O7 2.405462 1_554
Dy2 O9 2.405462 1_555
Dy2 O23 2.534164 1_554
Dy2 O25 2.534164 1_555
Dy2 S0 2.857787 1_555
Dy2 S11 2.881330 1_555
Dy2 S9 2.881330 1_554
Dy3 O24 2.380748 1_455
Dy3 O25 2.380761 1_555
Dy3 O5 2.405448 1_555
Dy3 O6 2.405462 1_555
Dy3 O22 2.534164 1_455
Dy3 O21 2.534171 1_555
Dy3 S1 2.857778 1_555
Dy3 S8 2.881332 1_454
Dy3 S9 2.881341 1_554
Dy4 O18 2.380748 1_555
Dy4 O15 2.380761 1_555
Dy4 O7 2.405448 1_555
Dy4 O10 2.405462 1_555
Dy4 O12 2.534164 1_555
Dy4 O19 2.534171 1_555
Dy4 S0 2.857778 1_556
Dy4 S6 2.881332 1_555
Dy4 S7 2.881341 1_555
Dy5 O14 2.380756 1_455
Dy5 O12 2.380756 1_565
Dy5 O4 2.405462 1_555
Dy5 O6 2.405462 1_555
Dy5 O16 2.534164 1_455
Dy5 O18 2.534164 1_565
Dy5 S1 2.857787 1_555
Dy5 S4 2.881330 1_455
Dy5 S6 2.881330 1_565
Dy6 O13 2.380756 1_555
Dy6 O19 2.380756 1_555
Dy6 O11 2.405462 1_555
Dy6 O5 2.405462 1_555
Dy6 O15 2.534164 1_555
Dy6 O17 2.534164 1_555
Dy6 S1 2.857787 1_555
Dy6 S5 2.881330 1_555
Dy6 S7 2.881330 1_555
Dy7 O16 2.380748 1_555
Dy7 O17 2.380761 1_555
Dy7 O9 2.405448 1_555
Dy7 O8 2.405462 1_555
Dy7 O14 2.534164 1_555
Dy7 O13 2.534171 1_555
Dy7 S0 2.857778 1_555
Dy7 S4 2.881332 1_555
Dy7 S5 2.881341 1_555
Dy8 O4 2.293252 1_555
Dy8 O14 2.439599 1_455
Dy8 O23 2.439599 1_555
Dy8 S5 2.771026 1_455
Dy8 S9 2.771026 1_555
Dy8 S3 2.803744 1_566
Dy8 S4 3.359028 1_455
Dy8 S11 3.359028 1_556
Dy9 O5 2.293259 1_555
Dy9 O24 2.439599 1_455
Dy9 O19 2.439599 1_555
Dy9 S6 2.771026 1_555
Dy9 S10 2.771026 1_455
Dy9 S3 2.803744 1_555
Dy9 S8 3.359028 1_454
Dy9 S7 3.359028 1_555
Dy10 O6 2.293252 1_555
Dy10 O12 2.439599 1_565
Dy10 O25 2.439599 1_555
Dy10 S7 2.771026 1_565
Dy10 S11 2.771026 1_555
Dy10 S3 2.803744 1_565
Dy10 S6 3.359028 1_565
Dy10 S9 3.359028 1_554
Dy11 O7 2.293259 1_555
Dy11 O18 2.439599 1_555
Dy11 O21 2.439599 1_556
Dy11 S8 2.771026 1_455
Dy11 S4 2.771026 1_445
Dy11 S2 2.803744 1_455
Dy11 S9 3.359028 1_555
Dy11 S6 3.359028 1_555
Dy12 O8 2.293252 1_555
Dy12 O17 2.439599 1_555
Dy12 O20 2.439599 1_554
Dy12 S7 2.771026 1_555
Dy12 S11 2.771026 1_545
Dy12 S2 2.803744 1_555
Dy12 S5 3.359028 1_555
Dy12 S10 3.359028 1_555
Dy13 O9 2.293259 1_555
Dy13 O16 2.439599 1_555
Dy13 O27 2.439599 1_554
Dy13 S10 2.771026 1_565
Dy13 S6 2.771026 1_665
Dy13 S2 2.803744 1_565
Dy13 S4 3.359028 1_555
Dy13 S11 3.359028 1_555
Dy14 O10 2.293252 1_555
Dy14 O22 2.439599 1_556
Dy14 O15 2.439599 1_555
Dy14 S9 2.771026 1_655
Dy14 S5 2.771026 1_555
Dy14 S2 2.803744 1_555
Dy14 S7 3.359028 1_555
Dy14 S8 3.359028 1_555
Dy15 O11 2.293259 1_555
Dy15 O13 2.439599 1_555
Dy15 O26 2.439599 1_565
Dy15 S8 2.771026 1_565
Dy15 S4 2.771026 1_555
Dy15 S3 2.803744 1_666
Dy15 S5 3.359028 1_555
Dy15 S10 3.359028 1_566
O0 Si7 1.638733 1_555
O0 Si2 1.638741 1_554
O1 Si5 1.638733 1_555
O1 Si6 1.638741 1_545
O2 Si3 1.638733 1_555
O2 Si4 1.638741 1_655
O3 Si1 1.638733 1_554
O3 Si0 1.638741 1_555
O4 Si1 1.654141 1_565
O5 Si0 1.654141 1_555
O6 Si7 1.654141 1_455
O7 Si4 1.654141 1_555
O8 Si3 1.654141 1_555
O9 Si6 1.654141 1_555
O10 Si5 1.654141 1_555
O11 Si2 1.654141 1_555
O12 Si5 1.639246 1_555
O13 Si6 1.639237 1_555
O14 Si3 1.639246 1_555
O15 Si2 1.639248 1_555
O16 Si7 1.639246 1_555
O17 Si0 1.639248 1_555
O18 Si1 1.639246 1_555
O19 Si4 1.639237 1_555
O20 Si1 1.639246 1_555
O21 Si0 1.639237 1_555
O22 Si7 1.639246 1_555
O23 Si4 1.639248 1_555
O24 Si3 1.639246 1_555
O25 Si6 1.639248 1_555
O26 Si5 1.639246 1_555
O27 Si2 1.639237 1_555
