# generated using pymatgen
data_Mn2O3
_symmetry_space_group_name_H-M   'P 1'
_cell_length_a   10.51999036
_cell_length_b   10.51999036
_cell_length_c   10.64882129
_cell_angle_alpha   60.39940383
_cell_angle_beta   60.39940383
_cell_angle_gamma   59.99999775
_symmetry_Int_Tables_number   1
_chemical_formula_structural   Mn2O3
_chemical_formula_sum   'Mn32 O48'
_cell_volume   838.32580616
_cell_formula_units_Z   16
loop_
 _symmetry_equiv_pos_site_id
 _symmetry_equiv_pos_as_xyz
  1  'x, y, z'
loop_
 _atom_site_type_symbol
 _atom_site_label
 _atom_site_symmetry_multiplicity
 _atom_site_fract_x
 _atom_site_fract_y
 _atom_site_fract_z
 _atom_site_occupancy
  Mn  Mn0  1  0.24962600  0.24827000  0.75423200  1
  Mn  Mn1  1  0.24827000  0.74787200  0.75423200  1
  Mn  Mn2  1  0.74787200  0.24962600  0.75423200  1
  Mn  Mn3  1  0.75037400  0.75173000  0.24576800  1
  Mn  Mn4  1  0.75173000  0.25212800  0.24576800  1
  Mn  Mn5  1  0.25212800  0.75037400  0.24576800  1
  Mn  Mn6  1  0.00000000  0.50000000  0.50000000  1
  Mn  Mn7  1  0.50000000  0.00000000  0.50000000  1
  Mn  Mn8  1  0.00000000  0.00000000  0.50000000  1
  Mn  Mn9  1  0.50000000  0.00000000  0.00000000  1
  Mn  Mn10  1  0.00000000  0.50000000  0.00000000  1
  Mn  Mn11  1  0.50000000  0.50000000  0.00000000  1
  Mn  Mn12  1  0.76302700  0.76302700  0.71091900  1
  Mn  Mn13  1  0.23697300  0.23697300  0.28908100  1
  Mn  Mn14  1  0.50000000  0.50000000  0.50000000  1
  Mn  Mn15  1  0.00000000  0.00000000  0.00000000  1
  Mn  Mn16  1  0.39041900  0.86039500  0.88207800  1
  Mn  Mn17  1  0.86039500  0.86710800  0.88207800  1
  Mn  Mn18  1  0.86710800  0.39041900  0.88207800  1
  Mn  Mn19  1  0.60958100  0.13960500  0.11792200  1
  Mn  Mn20  1  0.13960500  0.13289200  0.11792200  1
  Mn  Mn21  1  0.13289200  0.60958100  0.11792200  1
  Mn  Mn22  1  0.36635100  0.36889900  0.37929900  1
  Mn  Mn23  1  0.36889900  0.88545100  0.37929900  1
  Mn  Mn24  1  0.88545100  0.36635100  0.37929900  1
  Mn  Mn25  1  0.63364900  0.63110100  0.62070100  1
  Mn  Mn26  1  0.63110100  0.11454900  0.62070100  1
  Mn  Mn27  1  0.11454900  0.63364900  0.62070100  1
  Mn  Mn28  1  0.38810100  0.38810100  0.83569800  1
  Mn  Mn29  1  0.61189900  0.61189900  0.16430200  1
  Mn  Mn30  1  0.88413200  0.88413200  0.34760300  1
  Mn  Mn31  1  0.11586800  0.11586800  0.65239700  1
  O  O0  1  0.06083700  0.28076700  0.93056200  1
  O  O1  1  0.28076700  0.72783400  0.93056200  1
  O  O2  1  0.72783400  0.06083700  0.93056200  1
  O  O3  1  0.93916300  0.71923300  0.06943800  1
  O  O4  1  0.71923300  0.27216600  0.06943800  1
  O  O5  1  0.27216600  0.93916300  0.06943800  1
  O  O6  1  0.18188300  0.01501000  0.31863200  1
  O  O7  1  0.01501000  0.48447500  0.31863200  1
  O  O8  1  0.48447500  0.18188300  0.31863200  1
  O  O9  1  0.81811700  0.98499000  0.68136800  1
  O  O10  1  0.98499000  0.51552500  0.68136800  1
  O  O11  1  0.51552500  0.81811700  0.68136800  1
  O  O12  1  0.43709900  0.20745900  0.58268900  1
  O  O13  1  0.20745900  0.77275200  0.58268900  1
  O  O14  1  0.77275200  0.43709900  0.58268900  1
  O  O15  1  0.56290100  0.79254100  0.41731100  1
  O  O16  1  0.79254100  0.22724800  0.41731100  1
  O  O17  1  0.22724800  0.56290100  0.41731100  1
  O  O18  1  0.31526300  0.45488800  0.17542300  1
  O  O19  1  0.45488800  0.05442600  0.17542300  1
  O  O20  1  0.05442600  0.31526300  0.17542300  1
  O  O21  1  0.68473700  0.54511200  0.82457700  1
  O  O22  1  0.54511200  0.94557400  0.82457700  1
  O  O23  1  0.94557400  0.68473700  0.82457700  1
  O  O24  1  0.47900400  0.66002500  0.05924200  1
  O  O25  1  0.66002500  0.80173000  0.05924200  1
  O  O26  1  0.80173000  0.47900400  0.05924200  1
  O  O27  1  0.52099600  0.33997500  0.94075800  1
  O  O28  1  0.33997500  0.19827000  0.94075800  1
  O  O29  1  0.19827000  0.52099600  0.94075800  1
  O  O30  1  0.71735400  0.55571600  0.30505300  1
  O  O31  1  0.55571600  0.42187800  0.30505300  1
  O  O32  1  0.42187800  0.71735400  0.30505300  1
  O  O33  1  0.28264600  0.44428400  0.69494700  1
  O  O34  1  0.44428400  0.57812200  0.69494700  1
  O  O35  1  0.57812200  0.28264600  0.69494700  1
  O  O36  1  0.99083200  0.82801900  0.48249100  1
  O  O37  1  0.82801900  0.69865900  0.48249100  1
  O  O38  1  0.69865900  0.99083200  0.48249100  1
  O  O39  1  0.00916800  0.17198100  0.51750900  1
  O  O40  1  0.17198100  0.30134100  0.51750900  1
  O  O41  1  0.30134100  0.00916800  0.51750900  1
  O  O42  1  0.78374900  0.93581900  0.21011300  1
  O  O43  1  0.93581900  0.07032000  0.21011300  1
  O  O44  1  0.07032000  0.78374900  0.21011300  1
  O  O45  1  0.21625100  0.06418100  0.78988700  1
  O  O46  1  0.06418100  0.92968000  0.78988700  1
  O  O47  1  0.92968000  0.21625100  0.78988700  1
loop_
_geom_bond_atom_site_label_1
_geom_bond_atom_site_label_2
_geom_bond_distance
_geom_bond_site_symmetry_2
Mn0 O12 1.944179 1_555
Mn0 O45 1.959531 1_555
Mn0 O0 1.964219 1_555
Mn0 O33 1.996228 1_555
Mn0 O28 2.336313 1_555
Mn1 O13 1.944184 1_555
Mn1 O46 1.959525 1_555
Mn1 O1 1.964219 1_555
Mn1 O34 1.996234 1_555
Mn1 O29 2.336321 1_555
Mn2 O14 1.944177 1_555
Mn2 O47 1.959521 1_555
Mn2 O2 1.964219 1_555
Mn2 O35 1.996238 1_555
Mn2 O27 2.336317 1_555
Mn3 O15 1.944179 1_555
Mn3 O42 1.959531 1_555
Mn3 O3 1.964219 1_555
Mn3 O30 1.996228 1_555
Mn3 O25 2.336313 1_555
Mn4 O16 1.944184 1_555
Mn4 O43 1.959525 1_555
Mn4 O4 1.964219 1_555
Mn4 O31 1.996234 1_555
Mn4 O26 2.336321 1_555
Mn5 O17 1.944177 1_555
Mn5 O44 1.959521 1_555
Mn5 O5 1.964219 1_555
Mn5 O32 1.996238 1_555
Mn5 O24 2.336317 1_555
Mn6 O10 1.940693 1_455
Mn6 O7 1.940693 1_555
Mn6 O37 1.960343 1_455
Mn6 O40 1.960343 1_555
Mn6 O17 2.419738 1_555
Mn6 O14 2.419738 1_455
Mn7 O11 1.940693 1_545
Mn7 O8 1.940693 1_555
Mn7 O38 1.960348 1_545
Mn7 O41 1.960348 1_555
Mn7 O12 2.419728 1_555
Mn7 O15 2.419728 1_545
Mn8 O9 1.940693 1_445
Mn8 O6 1.940693 1_555
Mn8 O39 1.960337 1_555
Mn8 O36 1.960337 1_445
Mn8 O13 2.419732 1_545
Mn8 O16 2.419732 1_455
Mn9 O25 1.954602 1_545
Mn9 O28 1.954602 1_554
Mn9 O19 1.987901 1_555
Mn9 O22 1.987901 1_544
Mn9 O2 2.452894 1_554
Mn9 O5 2.452894 1_545
Mn10 O29 1.954597 1_554
Mn10 O26 1.954597 1_455
Mn10 O23 1.987901 1_454
Mn10 O20 1.987901 1_555
Mn10 O3 2.452894 1_455
Mn10 O0 2.452894 1_554
Mn11 O24 1.954608 1_555
Mn11 O27 1.954608 1_554
Mn11 O21 1.987902 1_554
Mn11 O18 1.987902 1_555
Mn11 O1 2.452894 1_554
Mn11 O4 2.452894 1_555
Mn12 O22 2.358150 1_555
Mn12 O23 2.358150 1_555
Mn12 O21 2.358150 1_555
Mn12 O10 2.516852 1_555
Mn12 O11 2.516852 1_555
Mn12 O9 2.516852 1_555
Mn12 O37 2.522746 1_555
Mn12 O38 2.522750 1_555
Mn12 O36 2.522753 1_555
Mn13 O19 2.358150 1_555
Mn13 O20 2.358150 1_555
Mn13 O18 2.358150 1_555
Mn13 O7 2.516852 1_555
Mn13 O8 2.516852 1_555
Mn13 O6 2.516852 1_555
Mn13 O40 2.522746 1_555
Mn13 O41 2.522750 1_555
Mn13 O39 2.522753 1_555
Mn14 O34 2.308737 1_555
Mn14 O31 2.308737 1_555
Mn14 O35 2.308741 1_555
Mn14 O32 2.308741 1_555
Mn14 O30 2.308744 1_555
Mn14 O33 2.308744 1_555
Mn15 O45 2.377515 1_554
Mn15 O42 2.377515 1_445
Mn15 O47 2.377518 1_454
Mn15 O44 2.377518 1_545
Mn15 O46 2.377522 1_544
Mn15 O43 2.377522 1_455
Mn16 O22 1.938562 1_555
Mn16 O1 1.962387 1_555
Mn16 O11 2.018153 1_555
Mn16 O5 2.089338 1_556
Mn16 O45 2.164878 1_565
Mn16 O24 2.171351 1_556
Mn17 O23 1.938562 1_555
Mn17 O2 1.962386 1_565
Mn17 O9 2.018153 1_555
Mn17 O3 2.089338 1_556
Mn17 O46 2.164872 1_655
Mn17 O25 2.171347 1_556
Mn18 O21 1.938562 1_555
Mn18 O0 1.962386 1_655
Mn18 O10 2.018153 1_555
Mn18 O4 2.089338 1_556
Mn18 O47 2.164882 1_555
Mn18 O26 2.171354 1_556
Mn19 O19 1.938562 1_555
Mn19 O4 1.962387 1_555
Mn19 O8 2.018153 1_555
Mn19 O2 2.089338 1_554
Mn19 O42 2.164878 1_545
Mn19 O27 2.171351 1_554
Mn20 O20 1.938562 1_555
Mn20 O5 1.962386 1_545
Mn20 O6 2.018153 1_555
Mn20 O0 2.089338 1_554
Mn20 O43 2.164872 1_455
Mn20 O28 2.171347 1_554
Mn21 O18 1.938562 1_555
Mn21 O3 1.962386 1_455
Mn21 O7 2.018153 1_555
Mn21 O1 2.089338 1_554
Mn21 O44 2.164882 1_555
Mn21 O29 2.171354 1_554
Mn22 O17 1.927413 1_555
Mn22 O8 1.962136 1_555
Mn22 O31 2.005803 1_555
Mn22 O40 2.073444 1_555
Mn22 O18 2.132351 1_555
Mn22 O12 2.196327 1_555
Mn23 O15 1.927415 1_555
Mn23 O6 1.962136 1_565
Mn23 O32 2.005793 1_555
Mn23 O41 2.073436 1_565
Mn23 O19 2.132351 1_565
Mn23 O13 2.196332 1_555
Mn24 O16 1.927405 1_555
Mn24 O7 1.962136 1_655
Mn24 O30 2.005797 1_555
Mn24 O39 2.073439 1_655
Mn24 O20 2.132351 1_655
Mn24 O14 2.196326 1_555
Mn25 O14 1.927413 1_555
Mn25 O11 1.962136 1_555
Mn25 O34 2.005803 1_555
Mn25 O37 2.073444 1_555
Mn25 O21 2.132351 1_555
Mn25 O15 2.196327 1_555
Mn26 O12 1.927415 1_555
Mn26 O9 1.962136 1_545
Mn26 O35 2.005793 1_555
Mn26 O38 2.073436 1_545
Mn26 O22 2.132351 1_545
Mn26 O16 2.196332 1_555
Mn27 O13 1.927405 1_555
Mn27 O10 1.962136 1_455
Mn27 O33 2.005797 1_555
Mn27 O36 2.073439 1_455
Mn27 O23 2.132351 1_455
Mn27 O17 2.196326 1_555
Mn28 O27 1.933988 1_555
Mn28 O29 1.933997 1_555
Mn28 O28 1.934007 1_555
Mn28 O34 1.984518 1_555
Mn28 O35 1.984527 1_555
Mn28 O33 1.984535 1_555
Mn29 O24 1.933988 1_555
Mn29 O26 1.933997 1_555
Mn29 O25 1.934007 1_555
Mn29 O31 1.984518 1_555
Mn29 O32 1.984527 1_555
Mn29 O30 1.984535 1_555
Mn30 O42 1.929044 1_555
Mn30 O44 1.929052 1_655
Mn30 O43 1.929061 1_565
Mn30 O37 1.940145 1_555
Mn30 O38 1.940154 1_555
Mn30 O36 1.940162 1_555
Mn31 O45 1.929044 1_555
Mn31 O47 1.929052 1_455
Mn31 O46 1.929061 1_545
Mn31 O40 1.940145 1_555
Mn31 O41 1.940154 1_555
Mn31 O39 1.940162 1_555
