# generated using pymatgen
data_CrSi2
_symmetry_space_group_name_H-M   'P 1'
_cell_length_a   4.36556825
_cell_length_b   4.36556824
_cell_length_c   6.31202585
_cell_angle_alpha   90.00000000
_cell_angle_beta   90.00000000
_cell_angle_gamma   119.99999240
_symmetry_Int_Tables_number   1
_chemical_formula_structural   CrSi2
_chemical_formula_sum   'Cr3 Si6'
_cell_volume   104.17919506
_cell_formula_units_Z   3
loop_
 _symmetry_equiv_pos_site_id
 _symmetry_equiv_pos_as_xyz
  1  'x, y, z'
loop_
 _atom_site_type_symbol
 _atom_site_label
 _atom_site_symmetry_multiplicity
 _atom_site_fract_x
 _atom_site_fract_y
 _atom_site_fract_z
 _atom_site_occupancy
  Cr  Cr0  1  0.00000000  0.50000000  0.33333300  1
  Cr  Cr1  1  0.50000000  0.50000000  0.66666700  1
  Cr  Cr2  1  0.50000000  0.00000000  -0.00000000  1
  Si  Si0  1  0.83381367  0.66762733  0.00000000  1
  Si  Si1  1  0.16618633  0.83381367  0.66666700  1
  Si  Si2  1  0.66762733  0.83381367  0.33333300  1
  Si  Si3  1  0.16618633  0.33237267  0.00000000  1
  Si  Si4  1  0.83381367  0.16618633  0.66666700  1
  Si  Si5  1  0.33237267  0.16618633  0.33333300  1
loop_
_geom_bond_atom_site_label_1
_geom_bond_atom_site_label_2
_geom_bond_distance
_geom_bond_site_symmetry_2
Cr0 Si0 2.453491 1_455
Cr0 Si3 2.453491 1_555
Cr0 Si4 2.453496 1_455
Cr0 Si1 2.453496 1_555
Cr0 Si5 2.518648 1_555
Cr0 Si2 2.518648 1_455
Cr0 Si5 2.518648 1_565
Cr0 Si2 2.518648 1_445
Cr0 Si2 2.524094 1_555
Cr0 Si5 2.524094 1_455
Cr1 Si3 2.453491 1_556
Cr1 Si0 2.453491 1_556
Cr1 Si5 2.453496 1_555
Cr1 Si2 2.453496 1_555
Cr1 Si4 2.518648 1_565
Cr1 Si1 2.518648 1_545
Cr1 Si4 2.518648 1_455
Cr1 Si1 2.518648 1_655
Cr1 Si4 2.524094 1_555
Cr1 Si1 2.524094 1_555
Cr2 Si2 2.453491 1_545
Cr2 Si5 2.453491 1_555
Cr2 Si4 2.453491 1_554
Cr2 Si1 2.453491 1_544
Cr2 Si3 2.518648 1_555
Cr2 Si0 2.518648 1_545
Cr2 Si0 2.518648 1_445
Cr2 Si3 2.518648 1_655
Cr2 Si0 2.524094 1_555
Cr2 Si3 2.524094 1_545
Si0 Si2 2.450691 1_555
Si0 Si1 2.450691 1_654
Si0 Si3 2.513198 1_665
Si0 Si3 2.524102 1_655
Si0 Si3 2.524102 1_555
Si1 Si5 2.450696 1_565
Si1 Si4 2.513198 1_465
Si1 Si4 2.524102 1_455
Si1 Si4 2.524102 1_565
Si2 Si4 2.450696 1_565
Si2 Si5 2.513198 1_665
Si2 Si5 2.524102 1_565
Si2 Si5 2.524102 1_555
Si3 Si5 2.450691 1_555
Si3 Si4 2.450691 1_454
