# generated using pymatgen
data_LaMnO3
_symmetry_space_group_name_H-M   'P 1'
_cell_length_a   3.99551000
_cell_length_b   5.56405165
_cell_length_c   5.56534365
_cell_angle_alpha   90.05558971
_cell_angle_beta   89.99977197
_cell_angle_gamma   90.00026298
_symmetry_Int_Tables_number   1
_chemical_formula_structural   LaMnO3
_chemical_formula_sum   'La2 Mn2 O6'
_cell_volume   123.72434334
_cell_formula_units_Z   2
loop_
 _symmetry_equiv_pos_site_id
 _symmetry_equiv_pos_as_xyz
  1  'x, y, z'
loop_
 _atom_site_type_symbol
 _atom_site_label
 _atom_site_symmetry_multiplicity
 _atom_site_fract_x
 _atom_site_fract_y
 _atom_site_fract_z
 _atom_site_occupancy
  La  La0  1  0.50000100  0.50000100  0.00000100  1
  La  La1  1  0.50000000  0.99999900  0.49999700  1
  Mn  Mn0  1  0.99999900  0.50000000  0.50000100  1
  Mn  Mn1  1  0.00000000  0.00000100  0.99999800  1
  O  O0  1  0.49999800  0.49999900  0.50000000  1
  O  O1  1  0.49999900  0.99999900  0.00000200  1
  O  O2  1  0.99999500  0.69592600  0.80422600  1
  O  O3  1  0.99999900  0.80404900  0.30425200  1
  O  O4  1  0.00000600  0.30407600  0.19577500  1
  O  O5  1  0.00000200  0.19595100  0.69574800  1
loop_
_geom_bond_atom_site_label_1
_geom_bond_atom_site_label_2
_geom_bond_distance
_geom_bond_site_symmetry_2
La0 O2 2.523633 1_554
La0 O4 2.523634 1_555
La0 O4 2.523681 1_655
La0 O2 2.523686 1_454
La0 O1 2.782015 1_555
La0 O1 2.782037 1_545
La0 O0 2.782666 1_555
La0 O0 2.782677 1_554
La1 O3 2.522732 1_555
La1 O3 2.522737 1_455
La1 O5 2.522748 1_565
La1 O5 2.522759 1_665
La1 O0 2.782026 1_565
La1 O0 2.782026 1_555
La1 O1 2.782644 1_555
La1 O1 2.782700 1_556
Mn0 O0 1.997751 1_655
Mn0 O0 1.997759 1_555
Mn0 O4 2.012826 1_655
Mn0 O2 2.012827 1_555
Mn0 O5 2.013049 1_655
Mn0 O3 2.013055 1_555
Mn1 O1 1.997751 1_546
Mn1 O1 1.997759 1_446
Mn1 O2 2.011468 1_445
Mn1 O4 2.011484 1_556
Mn1 O5 2.014795 1_555
Mn1 O3 2.014820 1_446
