# generated using pymatgen
data_Te2MoWSe2
_symmetry_space_group_name_H-M   'P 1'
_cell_length_a   3.44335756
_cell_length_b   3.44335756
_cell_length_c   39.14291300
_cell_angle_alpha   90.00000000
_cell_angle_beta   90.00000000
_cell_angle_gamma   119.99999164
_symmetry_Int_Tables_number   1
_chemical_formula_structural   Te2MoWSe2
_chemical_formula_sum   'Te4 Mo2 W2 Se4'
_cell_volume   401.92781015
_cell_formula_units_Z   2
loop_
 _symmetry_equiv_pos_site_id
 _symmetry_equiv_pos_as_xyz
  1  'x, y, z'
loop_
 _atom_site_type_symbol
 _atom_site_label
 _atom_site_symmetry_multiplicity
 _atom_site_fract_x
 _atom_site_fract_y
 _atom_site_fract_z
 _atom_site_occupancy
  Te  Te0  1  0.00000000  0.00000000  0.70515600  1
  Te  Te1  1  0.33333300  0.66666700  0.42203200  1
  Te  Te2  1  0.33333300  0.66666700  0.51725800  1
  Te  Te3  1  0.00000000  0.00000000  0.60993300  1
  Mo  Mo0  1  0.00000000  0.00000000  0.09392700  1
  Mo  Mo1  1  0.33333300  0.66666700  0.28178300  1
  W  W0  1  0.00000000  0.00000000  0.46963500  1
  W  W1  1  0.33333300  0.66666700  0.65756200  1
  Se  Se0  1  0.00000000  0.00000000  0.32359900  1
  Se  Se1  1  0.33333300  0.66666700  0.05214400  1
  Se  Se2  1  0.33333300  0.66666700  0.13571400  1
  Se  Se3  1  0.00000000  0.00000000  0.24000500  1
loop_
_geom_bond_atom_site_label_1
_geom_bond_atom_site_label_2
_geom_bond_distance
_geom_bond_site_symmetry_2
Te0 W1 2.724496 1_545
Te0 W1 2.724498 1_445
Te0 W1 2.724498 1_555
Te1 W0 2.724737 1_565
Te1 W0 2.724739 1_665
Te1 W0 2.724739 1_555
Te2 W0 2.725272 1_565
Te2 W0 2.725275 1_555
Te2 W0 2.725275 1_665
Te3 W1 2.725433 1_545
Te3 W1 2.725435 1_445
Te3 W1 2.725435 1_555
Mo0 Se1 2.574319 1_545
Mo0 Se1 2.574321 1_555
Mo0 Se1 2.574321 1_445
Mo0 Se2 2.574418 1_545
Mo0 Se2 2.574421 1_445
Mo0 Se2 2.574421 1_555
Mo1 Se3 2.574194 1_565
Mo1 Se3 2.574197 1_555
Mo1 Se3 2.574197 1_665
Mo1 Se0 2.575139 1_565
Mo1 Se0 2.575142 1_555
Mo1 Se0 2.575142 1_665
