# generated using pymatgen
data_Li2SiNiO4
_symmetry_space_group_name_H-M   'P 1'
_cell_length_a   5.29458388
_cell_length_b   12.56855192
_cell_length_c   5.29249493
_cell_angle_alpha   88.77574157
_cell_angle_beta   92.67128998
_cell_angle_gamma   91.26695244
_symmetry_Int_Tables_number   1
_chemical_formula_structural   Li2SiNiO4
_chemical_formula_sum   'Li8 Si4 Ni4 O16'
_cell_volume   351.64877387
_cell_formula_units_Z   4
loop_
 _symmetry_equiv_pos_site_id
 _symmetry_equiv_pos_as_xyz
  1  'x, y, z'
loop_
 _atom_site_type_symbol
 _atom_site_label
 _atom_site_symmetry_multiplicity
 _atom_site_fract_x
 _atom_site_fract_y
 _atom_site_fract_z
 _atom_site_occupancy
  Li  Li0  1  0.18245500  0.37523900  0.17827400  1
  Li  Li1  1  0.17862900  0.87497000  0.18243400  1
  Li  Li2  1  0.81629400  0.12490600  0.81631500  1
  Li  Li3  1  0.81825400  0.62490900  0.81734900  1
  Li  Li4  1  0.68904700  0.24592800  0.31151300  1
  Li  Li5  1  0.68780500  0.74517700  0.31598400  1
  Li  Li6  1  0.31630700  0.50482200  0.68740200  1
  Li  Li7  1  0.31189800  0.00405200  0.68880200  1
  Si  Si0  1  0.17632400  0.12504100  0.17603500  1
  Si  Si1  1  0.17743500  0.62508500  0.17717200  1
  Si  Si2  1  0.82547100  0.37510200  0.82081400  1
  Si  Si3  1  0.82140900  0.87474100  0.82521800  1
  Ni  Ni0  1  0.67752300  0.49475000  0.31688300  1
  Ni  Ni1  1  0.31791800  0.75536500  0.67743900  1
  Ni  Ni2  1  0.67475200  0.99533000  0.32018500  1
  Ni  Ni3  1  0.32017000  0.25465400  0.67441100  1
  O  O0  1  0.79585100  0.37312100  0.13040300  1
  O  O1  1  0.79206200  0.87298800  0.13486300  1
  O  O2  1  0.86673100  0.12205200  0.20971100  1
  O  O3  1  0.86781300  0.62208100  0.21038700  1
  O  O4  1  0.13491300  0.37699900  0.79137100  1
  O  O5  1  0.13081500  0.87685700  0.79534000  1
  O  O6  1  0.20982700  0.12788700  0.86627100  1
  O  O7  1  0.21089300  0.62796500  0.86746600  1
  O  O8  1  0.30308200  0.01733400  0.30754500  1
  O  O9  1  0.30579500  0.51729000  0.30638500  1
  O  O10  1  0.30766800  0.23289200  0.30250700  1
  O  O11  1  0.30658800  0.73301700  0.30551900  1
  O  O12  1  0.69682800  0.48353200  0.69422200  1
  O  O13  1  0.69236000  0.98298000  0.69752800  1
  O  O14  1  0.69760300  0.26673700  0.69213300  1
  O  O15  1  0.69507500  0.76620400  0.69652400  1
loop_
_geom_bond_atom_site_label_1
_geom_bond_atom_site_label_2
_geom_bond_distance
_geom_bond_site_symmetry_2
Li0 O9 2.008143 1_555
Li0 O10 2.008539 1_555
Li0 O0 2.050431 1_455
Li0 O4 2.051126 1_554
Li1 O11 2.007279 1_555
Li1 O8 2.008003 1_565
Li1 O1 2.050126 1_455
Li1 O5 2.052228 1_554
Li2 O13 1.991350 1_545
Li2 O14 1.991367 1_555
Li2 O2 2.086366 1_556
Li2 O6 2.087652 1_655
Li3 O15 1.987914 1_555
Li3 O12 1.988785 1_555
Li3 O7 2.083026 1_655
Li3 O3 2.084112 1_556
Li4 O0 1.933709 1_555
Li4 O2 1.935783 1_555
Li4 O10 2.020691 1_555
Li4 O14 2.035157 1_555
Li5 O1 1.936080 1_555
Li5 O3 1.940648 1_555
Li5 O11 2.019061 1_555
Li5 O15 2.035341 1_555
Li6 O4 1.936341 1_555
Li6 O7 1.940608 1_555
Li6 O9 2.017541 1_555
Li6 O12 2.036804 1_555
Li7 O5 1.933118 1_545
Li7 O6 1.934864 1_555
Li7 O8 2.019588 1_555
Li7 O13 2.035788 1_545
Ni0 O3 1.958827 1_555
Ni0 O0 1.966708 1_555
Ni0 O9 1.992669 1_555
Ni0 O12 1.997041 1_555
Ni1 O7 1.959769 1_555
Ni1 O5 1.966623 1_555
Ni1 O11 1.992211 1_555
Ni1 O15 1.996518 1_555
Ni2 O2 1.963611 1_565
Ni2 O1 1.968665 1_555
Ni2 O8 1.991068 1_565
Ni2 O13 1.997793 1_555
Ni3 O6 1.963650 1_555
Ni3 O4 1.968183 1_555
Ni3 O10 1.990844 1_555
Ni3 O14 1.998745 1_555
O0 Si2 1.652854 1_554
O1 Si3 1.652972 1_554
O2 Si0 1.656582 1_655
O3 Si1 1.656363 1_655
O4 Si2 1.652576 1_455
O5 Si3 1.652686 1_455
O6 Si0 1.656737 1_556
O7 Si1 1.656395 1_556
O8 Si0 1.650390 1_555
O9 Si1 1.650121 1_555
O10 Si0 1.650089 1_555
O11 Si1 1.650544 1_555
O12 Si2 1.652131 1_555
O13 Si3 1.653190 1_555
O14 Si2 1.653198 1_555
O15 Si3 1.652006 1_555
