# generated using pymatgen
data_Li2WO12
_symmetry_space_group_name_H-M   'P 1'
_cell_length_a   10.99289300
_cell_length_b   6.69197000
_cell_length_c   14.74363149
_cell_angle_alpha   73.59068822
_cell_angle_beta   90.00000000
_cell_angle_gamma   90.00000000
_symmetry_Int_Tables_number   1
_chemical_formula_structural   Li2WO12
_chemical_formula_sum   'Li8 W4 O48'
_cell_volume   1040.42419871
_cell_formula_units_Z   4
loop_
 _symmetry_equiv_pos_site_id
 _symmetry_equiv_pos_as_xyz
  1  'x, y, z'
loop_
 _atom_site_type_symbol
 _atom_site_label
 _atom_site_symmetry_multiplicity
 _atom_site_fract_x
 _atom_site_fract_y
 _atom_site_fract_z
 _atom_site_occupancy
  Li  Li0  1  0.59158000  0.85954200  0.32942100  1
  Li  Li1  1  0.90842000  0.85954200  0.82942100  1
  Li  Li2  1  0.40842000  0.14045800  0.67057900  1
  Li  Li3  1  0.09158000  0.14045800  0.17057900  1
  Li  Li4  1  0.62932200  0.80304500  0.07290600  1
  Li  Li5  1  0.87067800  0.80304500  0.57290600  1
  Li  Li6  1  0.37067800  0.19695500  0.92709400  1
  Li  Li7  1  0.12932200  0.19695500  0.42709400  1
  W  W0  1  0.59540600  0.47797500  0.26765400  1
  W  W1  1  0.90459400  0.47797500  0.76765400  1
  W  W2  1  0.40459400  0.52202500  0.73234600  1
  W  W3  1  0.09540600  0.52202500  0.23234600  1
  O  O0  1  0.64874200  0.52991000  0.37230600  1
  O  O1  1  0.85125800  0.52991000  0.87230600  1
  O  O2  1  0.35125800  0.47009000  0.62769400  1
  O  O3  1  0.14874200  0.47009000  0.12769400  1
  O  O4  1  0.68908800  0.11681000  0.61883300  1
  O  O5  1  0.81091200  0.11681000  0.11883300  1
  O  O6  1  0.31091200  0.88319000  0.38116700  1
  O  O7  1  0.18908800  0.88319000  0.88116700  1
  O  O8  1  0.63413900  0.49344600  0.12408800  1
  O  O9  1  0.86586100  0.49344600  0.62408800  1
  O  O10  1  0.36586100  0.50655400  0.87591200  1
  O  O11  1  0.13413900  0.50655400  0.37591200  1
  O  O12  1  0.74085900  0.47430500  0.18421400  1
  O  O13  1  0.75914100  0.47430500  0.68421400  1
  O  O14  1  0.25914100  0.52569500  0.81578600  1
  O  O15  1  0.24085900  0.52569500  0.31578600  1
  O  O16  1  0.46508400  0.26992600  0.30320900  1
  O  O17  1  0.03491600  0.26992600  0.80320900  1
  O  O18  1  0.53491600  0.73007400  0.69679100  1
  O  O19  1  0.96508400  0.73007400  0.19679100  1
  O  O20  1  0.58706900  0.16807100  0.30271000  1
  O  O21  1  0.91293100  0.16807100  0.80271000  1
  O  O22  1  0.41293100  0.83192900  0.69729000  1
  O  O23  1  0.08706900  0.83192900  0.19729000  1
  O  O24  1  0.59360100  0.79974500  0.20438100  1
  O  O25  1  0.90639900  0.79974500  0.70438100  1
  O  O26  1  0.40639900  0.20025500  0.79561900  1
  O  O27  1  0.09360100  0.20025500  0.29561900  1
  O  O28  1  0.47119200  0.69987800  0.22909000  1
  O  O29  1  0.02880800  0.69987800  0.72909000  1
  O  O30  1  0.52880800  0.30012200  0.77091000  1
  O  O31  1  0.97119200  0.30012200  0.27091000  1
  O  O32  1  0.97239400  0.07663500  0.51031300  1
  O  O33  1  0.52760600  0.07663500  0.01031300  1
  O  O34  1  0.02760600  0.92336500  0.48968700  1
  O  O35  1  0.47239400  0.92336500  0.98968700  1
  O  O36  1  0.73353500  0.90455100  0.46436300  1
  O  O37  1  0.76646500  0.90455100  0.96436300  1
  O  O38  1  0.26646500  0.09544900  0.53563700  1
  O  O39  1  0.23353500  0.09544900  0.03563700  1
  O  O40  1  0.79264200  0.87897700  0.39587900  1
  O  O41  1  0.70735800  0.87897700  0.89587900  1
  O  O42  1  0.20735800  0.12102300  0.60412100  1
  O  O43  1  0.29264200  0.12102300  0.10412100  1
  O  O44  1  0.59076100  0.17975400  0.58193900  1
  O  O45  1  0.90923900  0.17975400  0.08193900  1
  O  O46  1  0.40923900  0.82024600  0.41806100  1
  O  O47  1  0.09076100  0.82024600  0.91806100  1
loop_
_geom_bond_atom_site_label_1
_geom_bond_atom_site_label_2
_geom_bond_distance
_geom_bond_site_symmetry_2
Li0 O20 1.990227 1_565
Li0 O24 1.994011 1_555
Li0 O0 2.207386 1_555
Li0 O46 2.366590 1_555
Li0 O40 2.436022 1_555
Li0 O28 2.444215 1_555
Li0 O36 2.612028 1_555
Li1 O21 1.990227 1_565
Li1 O25 1.994011 1_555
Li1 O1 2.207386 1_555
Li1 O47 2.366590 1_655
Li1 O41 2.436022 1_555
Li1 O29 2.444215 1_655
Li1 O37 2.612028 1_555
Li2 O22 1.990227 1_545
Li2 O26 1.994011 1_555
Li2 O2 2.207386 1_555
Li2 O44 2.366590 1_555
Li2 O42 2.436022 1_555
Li2 O30 2.444215 1_555
Li2 O38 2.612028 1_555
Li3 O23 1.990227 1_545
Li3 O27 1.994011 1_555
Li3 O3 2.207386 1_555
Li3 O45 2.366590 1_455
Li3 O43 2.436022 1_555
Li3 O31 2.444215 1_455
Li3 O39 2.612028 1_555
Li4 O24 1.971792 1_555
Li4 O8 1.995340 1_555
Li4 O33 2.121163 1_565
Li4 O35 2.138106 1_554
Li4 O37 2.163586 1_554
Li5 O25 1.971792 1_555
Li5 O9 1.995340 1_555
Li5 O32 2.121163 1_565
Li5 O34 2.138106 1_655
Li5 O36 2.163586 1_555
Li6 O26 1.971792 1_555
Li6 O10 1.995340 1_555
Li6 O35 2.121163 1_545
Li6 O33 2.138106 1_556
Li6 O39 2.163586 1_556
Li7 O27 1.971792 1_555
Li7 O11 1.995340 1_555
Li7 O34 2.121163 1_545
Li7 O32 2.138106 1_455
Li7 O38 2.163586 1_555
O0 W0 1.774325 1_555
O1 W1 1.774325 1_555
O2 W2 1.774325 1_555
O3 W3 1.774325 1_555
O4 O44 1.229714 1_555
O8 W0 2.132733 1_555
O9 W1 2.132733 1_555
O10 O14 1.454097 1_555
O10 W2 2.132733 1_555
O11 O15 1.454097 1_555
O11 W3 2.132733 1_555
O12 O8 1.454097 1_555
O12 W0 2.021812 1_555
O13 O9 1.454097 1_555
O13 W1 2.021812 1_555
O14 W2 2.021812 1_555
O15 W3 2.021812 1_555
O16 O20 1.505216 1_555
O16 W0 1.962960 1_555
O17 O21 1.505216 1_455
O17 W1 1.962960 1_455
O18 O22 1.505216 1_555
O18 W2 1.962960 1_555
O19 O23 1.505216 1_655
O19 W3 1.962960 1_655
O20 W0 1.992701 1_555
O21 W1 1.992701 1_555
O22 W2 1.992701 1_555
O23 W3 1.992701 1_555
O24 O28 1.500837 1_555
O24 W0 2.091009 1_555
O25 O29 1.500837 1_655
O25 W1 2.091009 1_555
O26 O30 1.500837 1_555
O26 W2 2.091009 1_555
O27 O31 1.500837 1_455
O27 W3 2.091009 1_555
O28 W0 1.978860 1_555
O29 W1 1.978860 1_455
O30 W2 1.978860 1_555
O31 W3 1.978860 1_655
O32 O34 1.299653 1_645
O33 O35 1.299653 1_544
O36 O40 1.252439 1_555
O37 O41 1.252439 1_555
O38 O42 1.252439 1_555
O39 O43 1.252439 1_555
O45 O5 1.229714 1_555
O46 O6 1.229714 1_555
O47 O7 1.229714 1_555
