# generated using pymatgen
data_Mg14NiMo
_symmetry_space_group_name_H-M   'P 1'
_cell_length_a   6.24628348
_cell_length_b   6.20582391
_cell_length_c   9.77263080
_cell_angle_alpha   90.00000000
_cell_angle_beta   90.00000000
_cell_angle_gamma   119.78596538
_symmetry_Int_Tables_number   1
_chemical_formula_structural   Mg14NiMo
_chemical_formula_sum   'Mg14 Ni1 Mo1'
_cell_volume   328.77281097
_cell_formula_units_Z   1
loop_
 _symmetry_equiv_pos_site_id
 _symmetry_equiv_pos_as_xyz
  1  'x, y, z'
loop_
 _atom_site_type_symbol
 _atom_site_label
 _atom_site_symmetry_multiplicity
 _atom_site_fract_x
 _atom_site_fract_y
 _atom_site_fract_z
 _atom_site_occupancy
  Mg  Mg0  1  0.17035952  0.33517926  0.62500000  1
  Mg  Mg1  1  0.17225010  0.83612455  0.62500000  1
  Mg  Mg2  1  0.66958748  0.33927087  0.12500000  1
  Mg  Mg3  1  0.66467665  0.33078062  0.62500000  1
  Mg  Mg4  1  0.66958748  0.83031561  0.12500000  1
  Mg  Mg5  1  0.66467665  0.83389503  0.62500000  1
  Mg  Mg6  1  0.32280446  0.16202858  0.35396216  1
  Mg  Mg7  1  0.32280446  0.16202858  0.89603784  1
  Mg  Mg8  1  0.32280446  0.66077688  0.35396216  1
  Mg  Mg9  1  0.32280446  0.66077688  0.89603784  1
  Mg  Mg10  1  0.84902831  0.17451466  0.36220196  1
  Mg  Mg11  1  0.84902831  0.17451466  0.88779804  1
  Mg  Mg12  1  0.84463040  0.67231570  0.37146587  1
  Mg  Mg13  1  0.84463040  0.67231570  0.87853413  1
  Ni  Ni0  1  0.16008748  0.33004324  0.12500000  1
  Mo  Mo0  1  0.15023939  0.82511919  0.12500000  1
loop_
_geom_bond_atom_site_label_1
_geom_bond_atom_site_label_2
_geom_bond_distance
_geom_bond_site_symmetry_2
Mg0 Mg5 3.101295 1_555
Mg0 Mg3 3.101296 1_555
Mg0 Mg1 3.102929 1_555
Mg0 Mg1 3.102929 1_545
Mg0 Mg11 3.103259 1_455
Mg0 Mg10 3.103259 1_455
Mg0 Mg5 3.145167 1_445
Mg0 Mg3 3.145168 1_455
Mg0 Mg7 3.177076 1_555
Mg0 Mg6 3.177076 1_555
Mg0 Mg8 3.177082 1_555
Mg0 Mg9 3.177082 1_555
Mg1 Mg13 3.048496 1_455
Mg1 Mg12 3.048496 1_455
Mg1 Mg3 3.082732 1_565
Mg1 Mg5 3.082732 1_555
Mg1 Mg3 3.163597 1_455
Mg1 Mg5 3.163597 1_455
Mg1 Mg9 3.178220 1_555
Mg1 Mg8 3.178220 1_555
Mg1 Mg7 3.178226 1_565
Mg1 Mg6 3.178226 1_565
Mg2 Mg6 2.922569 1_555
Mg2 Mg7 2.922569 1_554
Mg2 Mo0 3.018437 1_655
Mg2 Mg4 3.047337 1_555
Mg2 Ni0 3.092648 1_655
Mg2 Ni0 3.154426 1_555
Mg2 Mg4 3.158487 1_545
Mg2 Mo0 3.228097 1_545
Mg3 Mg5 3.083584 1_545
Mg3 Mg5 3.122239 1_555
Mg3 Mg6 3.232776 1_555
Mg3 Mg7 3.232776 1_555
Mg4 Mg8 2.922570 1_555
Mg4 Mg9 2.922570 1_554
Mg4 Mo0 3.018437 1_655
Mg4 Ni0 3.092648 1_665
Mg4 Ni0 3.154426 1_555
Mg4 Mo0 3.228097 1_555
Mg5 Mg8 3.232776 1_555
Mg5 Mg9 3.232776 1_555
Mg6 Ni0 2.860026 1_555
Mg6 Mo0 2.881132 1_545
Mg7 Ni0 2.860026 1_556
Mg7 Mo0 2.881132 1_546
Mg8 Ni0 2.860032 1_555
Mg8 Mo0 2.881126 1_555
Mg9 Ni0 2.860032 1_556
Mg9 Mo0 2.881126 1_556
Mg10 Ni0 2.866539 1_655
Mg10 Mg2 2.968802 1_555
Mg10 Mg4 2.968808 1_545
Mg10 Mg3 3.157795 1_555
Mg10 Mg5 3.157801 1_545
Mg11 Ni0 2.866539 1_656
Mg11 Mg2 2.968802 1_556
Mg11 Mg4 2.968808 1_546
Mg11 Mg3 3.157795 1_555
Mg11 Mg5 3.157801 1_545
Mg12 Mo0 2.923388 1_655
Mg12 Mg4 3.003905 1_555
Mg12 Mg2 3.003911 1_555
Mg12 Mg5 3.086702 1_555
Mg12 Mg3 3.086709 1_555
Mg13 Mo0 2.923388 1_656
Mg13 Mg4 3.003905 1_556
Mg13 Mg2 3.003911 1_556
Mg13 Mg5 3.086702 1_555
Mg13 Mg3 3.086709 1_555
Mo0 Ni0 3.103371 1_555
Mo0 Ni0 3.103371 1_565
