# generated using pymatgen
data_K2PdC2
_symmetry_space_group_name_H-M   'P 1'
_cell_length_a   5.11818406
_cell_length_b   5.11818406
_cell_length_c   5.25813718
_cell_angle_alpha   90.00000000
_cell_angle_beta   90.00000000
_cell_angle_gamma   119.99999873
_symmetry_Int_Tables_number   1
_chemical_formula_structural   K2PdC2
_chemical_formula_sum   'K2 Pd1 C2'
_cell_volume   119.28733871
_cell_formula_units_Z   1
loop_
 _symmetry_equiv_pos_site_id
 _symmetry_equiv_pos_as_xyz
  1  'x, y, z'
loop_
 _atom_site_type_symbol
 _atom_site_label
 _atom_site_symmetry_multiplicity
 _atom_site_fract_x
 _atom_site_fract_y
 _atom_site_fract_z
 _atom_site_occupancy
  K  K0  1  0.66666700  0.33333300  0.72019821  1
  K  K1  1  0.33333300  0.66666700  0.27980179  1
  Pd  Pd0  1  -0.00000000  -0.00000000  0.00000000  1
  C  C0  1  0.00000000  0.00000000  0.62019678  1
  C  C1  1  -0.00000000  -0.00000000  0.37980322  1
loop_
_geom_bond_atom_site_label_1
_geom_bond_atom_site_label_2
_geom_bond_distance
_geom_bond_site_symmetry_2
K0 Pd0 3.300978 1_656
K0 Pd0 3.300982 1_666
K0 Pd0 3.300982 1_556
K1 Pd0 3.300978 1_565
K1 Pd0 3.300982 1_555
K1 Pd0 3.300982 1_665
C0 C1 1.264022 1_555
C0 Pd0 1.997057 1_556
C0 K0 3.001401 1_455
C0 K0 3.001405 1_445
C0 K0 3.001405 1_555
C1 Pd0 1.997057 1_555
C1 K1 3.001401 1_545
C1 K1 3.001405 1_445
C1 K1 3.001405 1_555
