# generated using pymatgen
data_TiTl3
_symmetry_space_group_name_H-M   'P 1'
_cell_length_a   4.60054400
_cell_length_b   4.60054400
_cell_length_c   4.60054400
_cell_angle_alpha   90.00000000
_cell_angle_beta   90.00000000
_cell_angle_gamma   90.00000000
_symmetry_Int_Tables_number   1
_chemical_formula_structural   TiTl3
_chemical_formula_sum   'Ti1 Tl3'
_cell_volume   97.37053720
_cell_formula_units_Z   1
loop_
 _symmetry_equiv_pos_site_id
 _symmetry_equiv_pos_as_xyz
  1  'x, y, z'
loop_
 _atom_site_type_symbol
 _atom_site_label
 _atom_site_symmetry_multiplicity
 _atom_site_fract_x
 _atom_site_fract_y
 _atom_site_fract_z
 _atom_site_occupancy
  Ti  Ti0  1  0.00000000  0.00000000  0.00000000  1
  Tl  Tl0  1  0.00000000  0.50000000  0.50000000  1
  Tl  Tl1  1  0.50000000  0.00000000  0.50000000  1
  Tl  Tl2  1  0.50000000  0.50000000  0.00000000  1
loop_
_geom_bond_atom_site_label_1
_geom_bond_atom_site_label_2
_geom_bond_distance
_geom_bond_site_symmetry_2
Ti0 Tl0 3.253076 1_544
Ti0 Tl1 3.253076 1_454
Ti0 Tl1 3.253076 1_554
Ti0 Tl1 3.253076 1_555
Ti0 Tl2 3.253076 1_555
Ti0 Tl0 3.253076 1_545
Ti0 Tl2 3.253076 1_455
Ti0 Tl0 3.253076 1_554
Ti0 Tl2 3.253076 1_545
Ti0 Tl2 3.253076 1_445
Ti0 Tl0 3.253076 1_555
Ti0 Tl1 3.253076 1_455
Tl0 Tl1 3.253076 1_555
Tl0 Tl1 3.253076 1_565
Tl0 Tl2 3.253076 1_555
Tl0 Tl1 3.253076 1_465
Tl0 Tl2 3.253076 1_455
Tl0 Tl2 3.253076 1_556
Tl0 Tl1 3.253076 1_455
Tl0 Tl2 3.253076 1_456
Tl1 Tl2 3.253076 1_546
Tl1 Tl2 3.253076 1_555
Tl1 Tl2 3.253076 1_556
Tl1 Tl2 3.253076 1_545
