# generated using pymatgen
data_Ca2AgWO6
_symmetry_space_group_name_H-M   'P 1'
_cell_length_a   5.54394300
_cell_length_b   5.80326784
_cell_length_c   5.80540466
_cell_angle_alpha   117.43636008
_cell_angle_beta   118.52703827
_cell_angle_gamma   89.95434715
_symmetry_Int_Tables_number   1
_chemical_formula_structural   Ca2AgWO6
_chemical_formula_sum   'Ca2 Ag1 W1 O6'
_cell_volume   139.76764367
_cell_formula_units_Z   1
loop_
 _symmetry_equiv_pos_site_id
 _symmetry_equiv_pos_as_xyz
  1  'x, y, z'
loop_
 _atom_site_type_symbol
 _atom_site_label
 _atom_site_symmetry_multiplicity
 _atom_site_fract_x
 _atom_site_fract_y
 _atom_site_fract_z
 _atom_site_occupancy
  Ca  Ca0  1  0.76614100  0.66124600  0.44453200  1
  Ca  Ca1  1  0.27430600  0.14793800  0.44303900  1
  Ag  Ag0  1  0.50223300  0.48529000  0.98840500  1
  W  W0  1  0.98468500  0.01991700  0.01809000  1
  O  O0  1  0.18909600  0.28222900  0.92500000  1
  O  O1  1  0.73040300  0.81657300  0.14736500  1
  O  O2  1  0.31960700  0.80829700  0.92239200  1
  O  O3  1  0.05575100  0.85656600  0.61438800  1
  O  O4  1  0.88754900  0.26778500  0.43887500  1
  O  O5  1  0.62637000  0.29881400  0.18051300  1
loop_
_geom_bond_atom_site_label_1
_geom_bond_atom_site_label_2
_geom_bond_distance
_geom_bond_site_symmetry_2
Ca0 O3 1.515167 1_655
Ca0 O5 1.808570 1_555
Ca0 O1 2.221328 1_555
Ca0 O4 2.370107 1_555
Ca1 W0 1.935351 1_455
Ca1 O4 2.246183 1_455
Ca1 O2 2.884121 1_544
Ag0 O5 1.807329 1_556
Ag0 O1 1.844396 1_556
Ag0 O0 1.879118 1_555
Ag0 Ca0 2.001345 1_556
Ag0 O2 2.230259 1_555
Ag0 Ca1 2.433974 1_555
O0 W0 2.288978 1_456
O1 O2 1.999027 1_554
O1 W0 2.402586 1_565
O2 O3 1.837969 1_555
O2 W0 2.370114 1_466
O4 O5 1.597749 1_555
O4 W0 2.518664 1_555
