# generated using pymatgen
data_GaSb
_symmetry_space_group_name_H-M   'P 1'
_cell_length_a   14.23332338
_cell_length_b   14.63641306
_cell_length_c   13.57445768
_cell_angle_alpha   93.93032176
_cell_angle_beta   94.10274513
_cell_angle_gamma   85.64481889
_symmetry_Int_Tables_number   1
_chemical_formula_structural   GaSb
_chemical_formula_sum   'Ga50 Sb50'
_cell_volume   2806.83641480
_cell_formula_units_Z   50
loop_
 _symmetry_equiv_pos_site_id
 _symmetry_equiv_pos_as_xyz
  1  'x, y, z'
loop_
 _atom_site_type_symbol
 _atom_site_label
 _atom_site_symmetry_multiplicity
 _atom_site_fract_x
 _atom_site_fract_y
 _atom_site_fract_z
 _atom_site_occupancy
  Ga  Ga0  1  0.06350761  0.93667110  0.15875886  1
  Ga  Ga1  1  0.82051636  0.42926582  0.92311093  1
  Ga  Ga2  1  0.28021575  0.81186645  -0.00518430  1
  Ga  Ga3  1  0.19353535  0.52886495  0.12768034  1
  Ga  Ga4  1  0.39181692  0.56778737  0.65276195  1
  Ga  Ga5  1  0.05394374  0.82898363  0.59877093  1
  Ga  Ga6  1  0.76708919  0.81918563  0.08503419  1
  Ga  Ga7  1  0.92061101  0.52796803  0.79903074  1
  Ga  Ga8  1  0.69009184  0.41506680  0.70426881  1
  Ga  Ga9  1  0.47563050  0.17226678  0.12486226  1
  Ga  Ga10  1  0.12982544  0.33710020  0.81820776  1
  Ga  Ga11  1  0.03686922  0.45427978  0.96485785  1
  Ga  Ga12  1  0.35049558  0.60108672  0.37922867  1
  Ga  Ga13  1  0.43089183  0.90497222  0.63164555  1
  Ga  Ga14  1  0.07843717  0.67755743  0.47028986  1
  Ga  Ga15  1  0.41004788  0.79688831  0.13809085  1
  Ga  Ga16  1  0.54952442  0.30465307  0.67529932  1
  Ga  Ga17  1  0.34393533  0.10294066  0.38794712  1
  Ga  Ga18  1  0.12500679  0.80477534  0.85942812  1
  Ga  Ga19  1  0.98853751  0.05871388  0.70844605  1
  Ga  Ga20  1  0.07145376  0.62223745  0.87505051  1
  Ga  Ga21  1  0.98817113  0.71491908  0.72691852  1
  Ga  Ga22  1  0.18538300  0.16883212  0.09449986  1
  Ga  Ga23  1  0.81891152  0.30587335  0.20216289  1
  Ga  Ga24  1  0.42785298  0.37562514  0.51924363  1
  Ga  Ga25  1  0.70915407  0.93303483  0.76011193  1
  Ga  Ga26  1  0.59788213  0.85667946  0.15932272  1
  Ga  Ga27  1  0.48646029  0.52899061  0.28807218  1
  Ga  Ga28  1  0.63680370  0.19418593  0.03414940  1
  Ga  Ga29  1  0.82395579  0.43778311  0.58949866  1
  Ga  Ga30  1  0.06745262  0.57787216  0.25979026  1
  Ga  Ga31  1  0.25182031  0.44829978  0.96032851  1
  Ga  Ga32  1  0.53735318  0.74859906  0.29808926  1
  Ga  Ga33  1  0.22391056  0.81768748  0.49331135  1
  Ga  Ga34  1  0.53811720  0.29058072  0.88701925  1
  Ga  Ga35  1  0.81966397  0.00031796  0.94316167  1
  Ga  Ga36  1  0.12652194  0.70635402  0.04284002  1
  Ga  Ga37  1  0.93491150  0.15723372  0.86945807  1
  Ga  Ga38  1  0.39090881  0.40556726  0.73028562  1
  Ga  Ga39  1  0.70420745  0.44158417  0.14368764  1
  Ga  Ga40  1  0.67322301  0.11456841  0.39480839  1
  Ga  Ga41  1  0.66315950  0.66317743  0.41912518  1
  Ga  Ga42  1  0.48360751  0.35240860  0.33566169  1
  Ga  Ga43  1  0.89784607  0.60112200  0.59782897  1
  Ga  Ga44  1  0.04039485  -0.00506115  0.91227085  1
  Ga  Ga45  1  0.63287349  0.71043285  0.60745215  1
  Ga  Ga46  1  0.40095435  0.12584841  0.63917736  1
  Ga  Ga47  1  0.98552146  0.40519234  0.42100322  1
  Ga  Ga48  1  0.72397072  0.24246583  0.59096667  1
  Ga  Ga49  1  0.80961267  0.79486187  0.57818278  1
  Sb  Sb0  1  0.20267792  0.98796734  0.04835419  1
  Sb  Sb1  1  0.61802941  0.90311528  0.57632486  1
  Sb  Sb2  1  0.42650771  0.73342203  0.51253450  1
  Sb  Sb3  1  0.56072773  0.96283758  0.34171228  1
  Sb  Sb4  1  0.81634341  0.78250470  0.35205542  1
  Sb  Sb5  1  0.66871096  0.47853846  0.35765398  1
  Sb  Sb6  1  0.96123549  0.84259516  0.00979591  1
  Sb  Sb7  1  0.52429531  -0.01590355  0.00735815  1
  Sb  Sb8  1  0.04486955  0.45040077  0.62440231  1
  Sb  Sb9  1  0.02476291  0.26219166  0.02287927  1
  Sb  Sb10  1  0.98628674  0.07177093  0.28121878  1
  Sb  Sb11  1  0.70338887  0.02551169  0.11337288  1
  Sb  Sb12  1  0.94945418  0.91422106  0.43940198  1
  Sb  Sb13  1  0.47346515  0.11856795  0.83125741  1
  Sb  Sb14  1  0.37413366  0.87096791  0.35854369  1
  Sb  Sb15  1  0.23117809  0.54343464  0.50801444  1
  Sb  Sb16  1  0.91219725  0.59591673  0.39342853  1
  Sb  Sb17  1  0.48272215  0.60574264  0.11104102  1
  Sb  Sb18  1  0.68173454  0.61665698  0.07837449  1
  Sb  Sb19  1  0.07717813  0.35591548  0.24636684  1
  Sb  Sb20  1  0.94468774  0.30612115  0.71946071  1
  Sb  Sb21  1  0.56617064  0.50443389  0.55868087  1
  Sb  Sb22  1  0.75030616  0.24517639  0.88779713  1
  Sb  Sb23  1  0.52704265  0.70961002  0.77911587  1
  Sb  Sb24  1  0.40040517  0.02020558  0.20009998  1
  Sb  Sb25  1  0.93125674  0.71144548  0.17716487  1
  Sb  Sb26  1  0.26705797  0.69215987  0.21784709  1
  Sb  Sb27  1  0.62792220  0.24131752  0.24927730  1
  Sb  Sb28  1  0.16037299  0.94914437  0.72619435  1
  Sb  Sb29  1  0.96518931  0.17546122  0.53608732  1
  Sb  Sb30  1  0.20624036  0.52074424  0.77198462  1
  Sb  Sb31  1  0.81027825  0.05287852  0.54446157  1
  Sb  Sb32  1  0.45620972  0.46132107  0.92173834  1
  Sb  Sb33  1  0.77953434  0.67996402  0.76852634  1
  Sb  Sb34  1  0.23644725  0.34018351  0.48727558  1
  Sb  Sb35  1  0.32032663  0.28053867  0.05375597  1
  Sb  Sb36  1  0.27402806  0.00816417  0.54629721  1
  Sb  Sb37  1  0.50731574  0.18787682  0.49575415  1
  Sb  Sb38  1  0.37172636  0.85387142  0.81562307  1
  Sb  Sb39  1  0.26623640  0.72303921  0.68835960  1
  Sb  Sb40  1  0.28594712  0.38722329  0.23847256  1
  Sb  Sb41  1  0.65576772  0.11541817  0.74398856  1
  Sb  Sb42  1  0.15536793  0.17239310  0.29245857  1
  Sb  Sb43  1  0.82510840  0.30502307  0.42070666  1
  Sb  Sb44  1  0.09685304  0.79385976  0.29774502  1
  Sb  Sb45  1  0.89386739  0.14775035  0.10407113  1
  Sb  Sb46  1  0.90039468  0.89610559  0.74675271  1
  Sb  Sb47  1  0.66121439  0.82238389  0.89563076  1
  Sb  Sb48  1  0.26874942  0.27182231  0.68561017  1
  Sb  Sb49  1  0.64012610  0.54351974  0.86829792  1
loop_
_geom_bond_atom_site_label_1
_geom_bond_atom_site_label_2
_geom_bond_distance
_geom_bond_site_symmetry_2
Ga0 Sb10 2.713325 1_465
Ga0 Sb0 2.745623 1_555
Ga0 Sb6 2.757776 1_455
Ga0 Sb44 2.900981 1_555
Ga1 Ga7 2.818363 1_555
Ga1 Sb22 2.941363 1_555
Ga1 Sb49 3.031094 1_555
Ga2 Sb0 2.795628 1_555
Ga2 Ga36 2.906984 1_555
Ga2 Sb38 2.961628 1_554
Ga3 Ga31 2.644472 1_554
Ga3 Ga30 2.653237 1_555
Ga3 Sb40 2.831960 1_555
Ga3 Sb26 2.846244 1_555
Ga3 Ga36 2.976795 1_555
Ga4 Sb39 2.819233 1_555
Ga4 Sb21 2.931036 1_555
Ga4 Sb15 2.932648 1_555
Ga4 Sb23 3.256004 1_555
Ga4 Sb2 3.270058 1_555
Ga4 Sb30 3.333279 1_555
Ga5 Sb28 2.827083 1_555
Ga5 Sb12 2.841861 1_455
Ga5 Sb46 3.131829 1_455
Ga6 Sb47 2.887000 1_554
Ga6 Sb25 2.967031 1_555
Ga6 Sb6 3.064667 1_555
Ga6 Sb11 3.092648 1_565
Ga6 Sb18 3.281104 1_555
Ga7 Sb33 2.912305 1_555
Ga7 Sb8 3.156284 1_655
Ga7 Sb20 3.351202 1_555
Ga8 Sb21 2.869284 1_555
Ga8 Sb49 2.906532 1_555
Ga9 Sb35 2.775177 1_555
Ga9 Sb24 2.823637 1_555
Ga9 Sb27 2.854324 1_555
Ga9 Sb7 3.142514 1_555
Ga10 Sb48 2.837101 1_555
Ga10 Ga11 2.866901 1_555
Ga10 Sb20 2.922151 1_455
Ga10 Ga31 2.984179 1_555
Ga10 Sb30 3.094231 1_555
Ga10 Sb8 3.312345 1_555
Ga11 Ga20 2.907267 1_555
Ga11 Ga7 2.915001 1_455
Ga11 Sb9 2.991822 1_556
Ga11 Ga31 3.058970 1_555
Ga12 Ga27 2.498656 1_555
Ga12 Sb15 2.738082 1_555
Ga12 Sb2 2.784653 1_555
Ga12 Sb26 2.788165 1_555
Ga13 Sb1 2.816344 1_555
Ga13 Sb36 2.822401 1_565
Ga13 Sb38 2.856258 1_555
Ga13 Sb2 2.894044 1_555
Ga14 Ga5 2.741384 1_555
Ga14 Sb16 2.832020 1_455
Ga14 Sb15 2.858769 1_555
Ga14 Ga33 3.009329 1_555
Ga14 Sb44 3.025632 1_555
Ga14 Ga30 3.117252 1_555
Ga15 Ga2 2.593872 1_555
Ga15 Ga32 2.820057 1_555
Ga15 Ga26 2.864796 1_555
Ga15 Sb17 2.916480 1_555
Ga15 Sb26 2.946265 1_555
Ga15 Sb14 3.175225 1_555
Ga15 Sb24 3.313926 1_565
Ga16 Ga8 2.657185 1_555
Ga16 Ga38 2.723811 1_555
Ga16 Ga24 2.840625 1_555
Ga16 Ga48 2.867864 1_555
Ga16 Ga34 2.912312 1_555
Ga16 Sb37 2.932184 1_555
Ga16 Sb41 3.216154 1_555
Ga17 Sb24 2.887327 1_555
Ga17 Sb36 2.908470 1_555
Ga17 Sb37 2.966053 1_555
Ga17 Sb42 3.030756 1_555
Ga17 Sb14 3.389528 1_545
Ga18 Ga2 2.774230 1_556
Ga18 Ga20 2.859030 1_555
Ga18 Ga21 2.884763 1_455
Ga18 Ga36 2.958642 1_556
Ga18 Sb28 2.967322 1_555
Ga18 Ga44 3.008745 1_565
Ga18 Sb6 3.199424 1_456
Ga18 Sb39 3.284245 1_555
Ga19 Ga37 2.660537 1_555
Ga19 Sb28 2.825728 1_645
Ga19 Sb46 2.867966 1_545
Ga19 Sb29 2.975728 1_555
Ga19 Ga44 3.004752 1_655
Ga19 Sb31 3.255543 1_555
Ga20 Ga36 2.612376 1_556
Ga20 Ga21 2.660322 1_455
Ga20 Sb30 2.740601 1_555
Ga20 Ga7 2.741517 1_455
Ga21 Ga43 2.664653 1_555
Ga21 Ga5 2.749202 1_655
Ga21 Sb46 2.848351 1_555
Ga21 Sb33 3.147953 1_555
Ga22 Sb0 2.675160 1_545
Ga22 Sb35 2.724160 1_555
Ga22 Sb9 2.725531 1_555
Ga22 Sb42 2.747337 1_555
Ga23 Ga39 2.603683 1_555
Ga23 Sb45 2.770066 1_555
Ga23 Sb43 2.962462 1_555
Ga23 Sb27 3.068108 1_555
Ga24 Ga42 2.661081 1_555
Ga24 Sb34 2.809634 1_555
Ga24 Sb21 2.826897 1_555
Ga24 Sb37 2.896829 1_555
Ga24 Ga38 2.946859 1_555
Ga25 Sb47 2.688578 1_555
Ga25 Sb41 2.738507 1_565
Ga25 Sb46 2.751001 1_555
Ga25 Sb1 2.751646 1_555
Ga25 Ga35 2.993105 1_565
Ga26 Ga6 2.681286 1_555
Ga26 Ga32 2.764166 1_555
Ga26 Sb3 2.891168 1_555
Ga26 Sb7 2.958348 1_565
Ga26 Sb11 3.107965 1_565
Ga27 Ga42 2.710594 1_555
Ga27 Sb17 2.717058 1_555
Ga27 Sb5 2.760532 1_555
Ga28 Ga9 2.729822 1_555
Ga28 Ga34 2.763386 1_554
Ga28 Sb22 2.821222 1_554
Ga28 Sb11 2.830615 1_555
Ga28 Sb27 2.963630 1_555
Ga29 Ga8 2.599997 1_555
Ga29 Ga43 2.676207 1_555
Ga29 Sb43 2.901051 1_555
Ga29 Sb20 3.050918 1_555
Ga29 Sb8 3.163617 1_655
Ga30 Sb25 2.872609 1_455
Ga30 Sb16 2.943314 1_455
Ga30 Sb44 3.221966 1_555
Ga30 Sb19 3.234231 1_555
Ga31 Sb30 2.848075 1_555
Ga31 Sb35 2.911112 1_556
Ga31 Sb32 3.014927 1_555
Ga32 Ga41 2.643787 1_555
Ga32 Sb14 2.952573 1_555
Ga32 Sb3 3.188975 1_555
Ga32 Sb17 3.264976 1_555
Ga33 Ga5 2.886441 1_555
Ga33 Sb36 2.958425 1_565
Ga33 Sb2 3.049729 1_555
Ga33 Sb39 3.072462 1_555
Ga33 Sb14 3.087904 1_555
Ga33 Sb44 3.117932 1_555
Ga34 Sb32 2.702047 1_555
Ga34 Sb13 2.783749 1_555
Ga34 Sb22 3.042145 1_555
Ga35 Sb11 2.924233 1_556
Ga35 Sb6 3.086524 1_546
Ga35 Sb45 3.148463 1_556
Ga35 Ga37 3.176241 1_555
Ga35 Sb46 3.220233 1_545
Ga36 Sb6 2.995213 1_455
Ga36 Sb26 3.002086 1_555
Ga37 Ga44 2.785178 1_655
Ga37 Sb9 2.794894 1_656
Ga37 Sb22 2.856357 1_555
Ga37 Sb20 3.099819 1_555
Ga37 Sb45 3.292763 1_556
Ga38 Ga4 2.663479 1_555
Ga38 Sb48 2.725120 1_555
Ga38 Sb32 2.786167 1_555
Ga38 Sb30 3.078975 1_555
Ga39 Sb18 2.756958 1_555
Ga39 Sb5 2.989467 1_555
Ga40 Sb27 2.810413 1_555
Ga40 Sb31 2.857344 1_555
Ga40 Sb3 2.858443 1_545
Ga40 Sb37 2.912362 1_555
Ga41 Ga45 2.658869 1_555
Ga41 Sb5 2.770135 1_555
Ga41 Sb4 3.116630 1_555
Ga42 Sb27 2.795370 1_555
Ga42 Sb40 3.042782 1_555
Ga42 Sb5 3.314979 1_555
Ga42 Sb37 3.335387 1_555
Ga43 Sb16 2.792101 1_555
Ga43 Sb8 2.945453 1_655
Ga43 Ga7 2.988722 1_555
Ga43 Ga49 3.033830 1_555
Ga43 Sb33 3.071335 1_555
Ga44 Sb0 2.852643 1_546
Ga44 Sb6 2.998923 1_446
Ga44 Sb28 3.155446 1_545
Ga44 Sb46 3.234666 1_445
Ga45 Sb23 2.864970 1_555
Ga45 Sb1 2.869961 1_555
Ga45 Sb33 2.945565 1_555
Ga45 Ga49 2.948819 1_555
Ga45 Sb2 3.125490 1_555
Ga45 Sb21 3.240615 1_555
Ga46 Sb13 2.740674 1_555
Ga46 Sb36 2.769342 1_555
Ga46 Sb37 2.789127 1_555
Ga46 Sb48 2.806672 1_555
Ga47 Sb43 2.805148 1_555
Ga47 Sb19 2.811950 1_655
Ga47 Sb8 2.876699 1_655
Ga47 Sb16 2.943937 1_555
Ga48 Ga8 2.892830 1_555
Ga48 Sb31 2.993434 1_555
Ga48 Sb43 3.036200 1_555
Ga48 Sb41 3.131630 1_555
Ga49 Sb46 2.916234 1_555
Ga49 Sb1 3.047348 1_555
Ga49 Sb4 3.070408 1_555
Ga49 Sb33 3.248190 1_555
Sb1 Sb3 3.387258 1_555
Sb10 Sb42 2.904976 1_655
Sb10 Sb45 2.905401 1_555
Sb11 Sb7 2.920018 1_555
Sb11 Sb45 3.374003 1_555
Sb12 Sb4 2.938019 1_555
Sb12 Sb31 3.077905 1_565
Sb12 Sb44 3.279344 1_655
Sb13 Sb41 2.924464 1_555
Sb13 Sb7 3.208233 1_556
Sb14 Sb2 3.017302 1_555
Sb14 Sb3 3.095989 1_555
Sb14 Sb24 3.228011 1_565
Sb14 Sb36 3.455659 1_565
Sb14 Sb26 3.510509 1_555
Sb15 Sb34 2.964632 1_555
Sb16 Sb4 3.028161 1_555
Sb17 Sb18 2.916159 1_555
Sb17 Sb32 3.232899 1_554
Sb18 Sb49 3.010787 1_554
Sb19 Sb42 2.919234 1_555
Sb19 Sb40 3.051267 1_555
Sb19 Sb9 3.301956 1_555
Sb20 Sb8 3.041691 1_655
Sb20 Sb29 3.050424 1_555
Sb21 Sb5 3.172439 1_555
Sb22 Sb41 2.955060 1_555
Sb23 Sb47 2.926038 1_555
Sb23 Sb38 2.982503 1_555
Sb23 Sb49 3.081584 1_555
Sb24 Sb3 2.984974 1_545
Sb24 Sb7 3.250111 1_555
Sb25 Sb44 3.049373 1_655
Sb25 Sb4 3.058063 1_555
Sb25 Sb6 3.144754 1_555
Sb26 Sb44 2.977896 1_555
Sb29 Sb31 2.959426 1_555
Sb29 Sb43 3.067653 1_555
Sb30 Sb8 3.125206 1_555
Sb32 Sb49 3.113830 1_555
Sb33 Sb47 3.089957 1_555
Sb33 Sb49 3.334194 1_555
Sb34 Sb48 2.929710 1_555
Sb35 Sb40 2.913357 1_555
Sb38 Sb39 2.918513 1_555
Sb43 Sb5 3.362204 1_555
Sb45 Sb9 2.917580 1_655
Sb47 Sb7 3.306132 1_566
