# generated using pymatgen
data_Mg6ZrZn
_symmetry_space_group_name_H-M   'P 1'
_cell_length_a   4.94650500
_cell_length_b   6.25904100
_cell_length_c   11.14272900
_cell_angle_alpha   90.00000000
_cell_angle_beta   90.00000000
_cell_angle_gamma   90.00000000
_symmetry_Int_Tables_number   1
_chemical_formula_structural   Mg6ZrZn
_chemical_formula_sum   'Mg12 Zr2 Zn2'
_cell_volume   344.98309735
_cell_formula_units_Z   2
loop_
 _symmetry_equiv_pos_site_id
 _symmetry_equiv_pos_as_xyz
  1  'x, y, z'
loop_
 _atom_site_type_symbol
 _atom_site_label
 _atom_site_symmetry_multiplicity
 _atom_site_fract_x
 _atom_site_fract_y
 _atom_site_fract_z
 _atom_site_occupancy
  Mg  Mg0  1  0.00000000  0.74576400  0.08226600  1
  Mg  Mg1  1  0.00000000  0.25423600  0.08226600  1
  Mg  Mg2  1  0.00000000  0.00000000  0.32881500  1
  Mg  Mg3  1  0.50000000  0.25474300  0.42132000  1
  Mg  Mg4  1  0.50000000  0.74525700  0.42132000  1
  Mg  Mg5  1  0.50000000  0.00000000  0.16800700  1
  Mg  Mg6  1  0.00000000  0.24576400  0.58226600  1
  Mg  Mg7  1  0.00000000  0.75423600  0.58226600  1
  Mg  Mg8  1  0.00000000  0.50000000  0.82881500  1
  Mg  Mg9  1  0.50000000  0.75474300  0.92132000  1
  Mg  Mg10  1  0.50000000  0.24525700  0.92132000  1
  Mg  Mg11  1  0.50000000  0.50000000  0.66800700  1
  Zr  Zr0  1  0.50000000  0.50000000  0.17791600  1
  Zr  Zr1  1  0.50000000  0.00000000  0.67791600  1
  Zn  Zn0  1  0.00000000  0.50000000  0.31809100  1
  Zn  Zn1  1  0.00000000  0.00000000  0.81809100  1
loop_
_geom_bond_atom_site_label_1
_geom_bond_atom_site_label_2
_geom_bond_distance
_geom_bond_site_symmetry_2
Mg0 Zn0 3.044863 1_555
Mg0 Mg9 3.055542 1_454
Mg0 Mg9 3.055542 1_554
Mg0 Mg1 3.076494 1_555
Mg0 Mg5 3.092232 1_465
Mg0 Mg5 3.092232 1_565
Mg0 Zr0 3.101470 1_455
Mg0 Zr0 3.101470 1_555
Mg0 Mg2 3.174810 1_565
Mg0 Mg1 3.182547 1_565
Mg0 Mg8 3.215890 1_554
Mg0 Zn1 3.346209 1_564
Mg1 Zn0 3.044863 1_555
Mg1 Mg10 3.055542 1_554
Mg1 Mg10 3.055542 1_454
Mg1 Mg5 3.092232 1_455
Mg1 Mg5 3.092232 1_555
Mg1 Zr0 3.101470 1_455
Mg1 Zr0 3.101470 1_555
Mg1 Mg2 3.174810 1_555
Mg1 Mg8 3.215890 1_554
Mg1 Zn1 3.346209 1_554
Mg2 Mg5 3.054123 1_455
Mg2 Mg5 3.054123 1_555
Mg2 Mg3 3.117964 1_555
Mg2 Mg3 3.117964 1_455
Mg2 Mg4 3.117964 1_545
Mg2 Mg4 3.117964 1_445
Mg2 Zn0 3.131801 1_545
Mg2 Zn0 3.131801 1_555
Mg2 Mg6 3.215890 1_555
Mg2 Mg7 3.215890 1_545
Mg3 Mg6 3.055542 1_555
Mg3 Mg6 3.055542 1_655
Mg3 Mg4 3.070147 1_555
Mg3 Zr0 3.116472 1_555
Mg3 Zn0 3.129938 1_555
Mg3 Zn0 3.129938 1_655
Mg3 Mg4 3.188894 1_545
Mg3 Mg5 3.241808 1_555
Mg3 Zr1 3.273709 1_555
Mg4 Mg7 3.055542 1_655
Mg4 Mg7 3.055542 1_555
Mg4 Zr0 3.116472 1_555
Mg4 Zn0 3.129938 1_655
Mg4 Zn0 3.129938 1_555
Mg4 Mg5 3.241808 1_565
Mg4 Zr1 3.273709 1_565
Mg5 Zr0 3.131468 1_545
Mg5 Zr0 3.131468 1_555
Mg5 Mg9 3.148360 1_544
Mg6 Zn1 3.044863 1_555
Mg6 Mg7 3.076494 1_545
Mg6 Zr1 3.101470 1_455
Mg6 Zr1 3.101470 1_555
Mg6 Mg8 3.174810 1_555
Mg6 Mg7 3.182547 1_555
Mg6 Zn0 3.346209 1_555
Mg7 Zn1 3.044863 1_565
Mg7 Zr1 3.101470 1_565
Mg7 Zr1 3.101470 1_465
Mg7 Mg8 3.174810 1_555
Mg7 Zn0 3.346209 1_555
Mg8 Mg9 3.117964 1_455
Mg8 Mg9 3.117964 1_555
Mg8 Zn1 3.131801 1_555
Mg8 Zn1 3.131801 1_565
Mg9 Zr1 3.116472 1_565
Mg9 Zn1 3.129938 1_665
Mg9 Zn1 3.129938 1_565
Mg9 Zr0 3.273709 1_556
Mg10 Mg9 3.070147 1_545
Mg10 Zr1 3.116472 1_555
Mg10 Mg8 3.117964 1_555
Mg10 Mg8 3.117964 1_655
Mg10 Zn1 3.129938 1_555
Mg10 Zn1 3.129938 1_655
Mg10 Mg5 3.148360 1_556
Mg10 Mg9 3.188894 1_555
Mg10 Mg11 3.241808 1_555
Mg10 Zr0 3.273709 1_556
Mg11 Mg8 3.054123 1_655
Mg11 Mg8 3.054123 1_555
Mg11 Mg7 3.092232 1_655
Mg11 Mg7 3.092232 1_555
Mg11 Mg6 3.092232 1_655
Mg11 Mg6 3.092232 1_555
Mg11 Zr1 3.131468 1_555
Mg11 Zr1 3.131468 1_565
Mg11 Mg4 3.148360 1_555
Mg11 Mg3 3.148360 1_555
Mg11 Mg9 3.241808 1_555
Zn0 Zr0 2.925168 1_455
Zn0 Zr0 2.925168 1_555
Zn1 Zr1 2.925168 1_455
Zn1 Zr1 2.925168 1_555
