# generated using pymatgen
data_Ce(Zn10Ir)2
_symmetry_space_group_name_H-M   'P 1'
_cell_length_a   10.13169608
_cell_length_b   10.13169608
_cell_length_c   10.13169608
_cell_angle_alpha   60.00000000
_cell_angle_beta   60.00000000
_cell_angle_gamma   60.00000000
_symmetry_Int_Tables_number   1
_chemical_formula_structural   Ce(Zn10Ir)2
_chemical_formula_sum   'Ce2 Zn40 Ir4'
_cell_volume   735.41327149
_cell_formula_units_Z   2
loop_
 _symmetry_equiv_pos_site_id
 _symmetry_equiv_pos_as_xyz
  1  'x, y, z'
loop_
 _atom_site_type_symbol
 _atom_site_label
 _atom_site_symmetry_multiplicity
 _atom_site_fract_x
 _atom_site_fract_y
 _atom_site_fract_z
 _atom_site_occupancy
  Ce  Ce0  1  0.50000000  0.50000000  0.50000000  1
  Ce  Ce1  1  0.75000000  0.75000000  0.75000000  1
  Zn  Zn0  1  0.12500000  0.62500000  0.62500000  1
  Zn  Zn1  1  0.62500000  0.12500000  0.62500000  1
  Zn  Zn2  1  0.62500000  0.62500000  0.12500000  1
  Zn  Zn3  1  0.62500000  0.62500000  0.62500000  1
  Zn  Zn4  1  0.86178800  0.86178800  0.13821200  1
  Zn  Zn5  1  0.13821200  0.13821200  0.86178800  1
  Zn  Zn6  1  0.86178800  0.13821200  0.86178800  1
  Zn  Zn7  1  0.13821200  0.86178800  0.13821200  1
  Zn  Zn8  1  0.13821200  0.86178800  0.86178800  1
  Zn  Zn9  1  0.86178800  0.13821200  0.13821200  1
  Zn  Zn10  1  0.38821200  0.38821200  0.11178800  1
  Zn  Zn11  1  0.11178800  0.11178800  0.38821200  1
  Zn  Zn12  1  0.38821200  0.11178800  0.38821200  1
  Zn  Zn13  1  0.11178800  0.38821200  0.11178800  1
  Zn  Zn14  1  0.11178800  0.38821200  0.38821200  1
  Zn  Zn15  1  0.38821200  0.11178800  0.11178800  1
  Zn  Zn16  1  0.56846600  0.30154100  0.30154100  1
  Zn  Zn17  1  0.30154100  0.56846600  0.82845300  1
  Zn  Zn18  1  0.30154100  0.82845300  0.56846600  1
  Zn  Zn19  1  0.82845300  0.30154100  0.30154100  1
  Zn  Zn20  1  0.30154100  0.30154100  0.56846600  1
  Zn  Zn21  1  0.56846600  0.82845300  0.30154100  1
  Zn  Zn22  1  0.82845300  0.56846600  0.30154100  1
  Zn  Zn23  1  0.30154100  0.30154100  0.82845300  1
  Zn  Zn24  1  0.30154100  0.56846600  0.30154100  1
  Zn  Zn25  1  0.82845300  0.30154100  0.56846600  1
  Zn  Zn26  1  0.56846600  0.30154100  0.82845300  1
  Zn  Zn27  1  0.30154100  0.82845300  0.30154100  1
  Zn  Zn28  1  0.68153400  0.94845900  0.94845900  1
  Zn  Zn29  1  0.94845900  0.68153400  0.42154700  1
  Zn  Zn30  1  0.94845900  0.42154700  0.68153400  1
  Zn  Zn31  1  0.42154700  0.94845900  0.94845900  1
  Zn  Zn32  1  0.94845900  0.94845900  0.68153400  1
  Zn  Zn33  1  0.68153400  0.42154700  0.94845900  1
  Zn  Zn34  1  0.42154700  0.68153400  0.94845900  1
  Zn  Zn35  1  0.94845900  0.94845900  0.42154700  1
  Zn  Zn36  1  0.94845900  0.68153400  0.94845900  1
  Zn  Zn37  1  0.42154700  0.94845900  0.68153400  1
  Zn  Zn38  1  0.68153400  0.94845900  0.42154700  1
  Zn  Zn39  1  0.94845900  0.42154700  0.94845900  1
  Ir  Ir0  1  0.62500000  0.12500000  0.12500000  1
  Ir  Ir1  1  0.12500000  0.62500000  0.12500000  1
  Ir  Ir2  1  0.12500000  0.12500000  0.62500000  1
  Ir  Ir3  1  0.12500000  0.12500000  0.12500000  1
loop_
_geom_bond_atom_site_label_1
_geom_bond_atom_site_label_2
_geom_bond_distance
_geom_bond_site_symmetry_2
Ce0 Zn3 3.102186 1_555
Ce0 Zn1 3.102186 1_555
Ce0 Zn2 3.102186 1_555
Ce0 Zn0 3.102186 1_555
Ce0 Zn20 3.133793 1_555
Ce0 Zn24 3.133793 1_555
Ce0 Zn16 3.133793 1_555
Ce0 Zn23 3.133797 1_555
Ce0 Zn27 3.133797 1_555
Ce0 Zn19 3.133797 1_555
Ce0 Zn22 3.133802 1_555
Ce0 Zn17 3.133802 1_555
Ce0 Zn21 3.133802 1_555
Ce0 Zn18 3.133802 1_555
Ce0 Zn25 3.133802 1_555
Ce0 Zn26 3.133802 1_555
Ce1 Zn3 3.102186 1_555
Ce1 Zn1 3.102186 1_565
Ce1 Zn2 3.102186 1_556
Ce1 Zn0 3.102186 1_655
Ce1 Zn28 3.133793 1_555
Ce1 Zn32 3.133793 1_555
Ce1 Zn36 3.133793 1_555
Ce1 Zn35 3.133797 1_555
Ce1 Zn39 3.133797 1_555
Ce1 Zn31 3.133797 1_555
Ce1 Zn34 3.133802 1_555
Ce1 Zn38 3.133802 1_555
Ce1 Zn29 3.133802 1_555
Ce1 Zn30 3.133802 1_555
Ce1 Zn33 3.133802 1_555
Ce1 Zn37 3.133802 1_555
Zn0 Zn20 3.042726 1_555
Zn0 Zn24 3.042726 1_555
Zn0 Zn32 3.042726 1_455
Zn0 Zn36 3.042726 1_455
Zn0 Zn23 3.042731 1_555
Zn0 Zn27 3.042731 1_555
Zn0 Zn35 3.042731 1_455
Zn0 Zn39 3.042731 1_455
Zn0 Zn29 3.042735 1_455
Zn0 Zn30 3.042735 1_455
Zn0 Zn18 3.042735 1_555
Zn0 Zn17 3.042735 1_555
Zn1 Zn20 3.042726 1_555
Zn1 Zn16 3.042726 1_555
Zn1 Zn28 3.042726 1_545
Zn1 Zn32 3.042726 1_545
Zn1 Zn31 3.042731 1_545
Zn1 Zn19 3.042731 1_555
Zn1 Zn35 3.042731 1_545
Zn1 Zn23 3.042731 1_555
Zn1 Zn37 3.042735 1_545
Zn1 Zn38 3.042735 1_545
Zn1 Zn25 3.042735 1_555
Zn1 Zn26 3.042735 1_555
Zn2 Zn24 3.042726 1_555
Zn2 Zn36 3.042726 1_554
Zn2 Zn28 3.042726 1_554
Zn2 Zn39 3.042731 1_554
Zn2 Zn31 3.042731 1_554
Zn2 Zn27 3.042731 1_555
Zn2 Zn33 3.042735 1_554
Zn2 Zn34 3.042735 1_554
Zn2 Zn22 3.042735 1_555
Zn2 Zn21 3.042735 1_555
Zn3 Zn30 3.042727 1_555
Zn3 Zn37 3.042727 1_555
Zn3 Zn34 3.042727 1_555
Zn3 Zn38 3.042727 1_555
Zn3 Zn33 3.042727 1_555
Zn10 Zn34 2.685391 1_554
Zn10 Zn33 2.685391 1_554
Zn10 Zn26 2.832239 1_554
Zn10 Zn17 2.832239 1_554
Zn10 Zn24 2.832247 1_555
Zn10 Zn16 2.832247 1_555
Zn11 Zn32 2.685395 1_445
Zn11 Zn35 2.685400 1_445
Zn11 Zn27 2.832239 1_545
Zn11 Zn19 2.832239 1_455
Zn11 Zn18 2.832244 1_545
Zn11 Zn25 2.832244 1_455
Zn12 Zn37 2.685391 1_545
Zn12 Zn38 2.685391 1_545
Zn12 Zn18 2.832239 1_545
Zn12 Zn21 2.832239 1_545
Zn12 Zn16 2.832247 1_555
Zn12 Zn20 2.832247 1_555
Zn13 Zn36 2.685395 1_454
Zn13 Zn39 2.685400 1_454
Zn13 Zn23 2.832239 1_554
Zn13 Zn19 2.832239 1_455
Zn13 Zn22 2.832244 1_455
Zn13 Zn17 2.832244 1_554
Zn14 Zn29 2.685391 1_455
Zn14 Zn30 2.685391 1_455
Zn14 Zn25 2.832239 1_455
Zn14 Zn22 2.832239 1_455
Zn14 Zn24 2.832247 1_555
Zn14 Zn20 2.832247 1_555
Zn15 Zn28 2.685395 1_544
Zn15 Zn31 2.685400 1_544
Zn15 Zn27 2.832239 1_545
Zn15 Zn23 2.832239 1_554
Zn15 Zn21 2.832244 1_545
Zn15 Zn26 2.832244 1_554
Zn16 Zn19 2.634109 1_555
Zn16 Zn9 2.685395 1_555
Zn16 Zn20 2.704403 1_555
Zn16 Zn24 2.704403 1_555
Zn16 Zn33 2.921151 1_554
Zn16 Zn38 2.921151 1_545
Zn16 Zn2 3.042726 1_555
Zn17 Zn18 2.634109 1_555
Zn17 Zn8 2.685391 1_555
Zn17 Zn26 2.704403 1_555
Zn17 Zn23 2.704403 1_555
Zn17 Zn34 2.921135 1_555
Zn17 Zn36 2.921151 1_455
Zn17 Zn3 3.042727 1_555
Zn18 Zn8 2.685391 1_555
Zn18 Zn27 2.704403 1_555
Zn18 Zn21 2.704403 1_555
Zn18 Zn37 2.921135 1_555
Zn18 Zn32 2.921151 1_455
Zn18 Zn3 3.042727 1_555
Zn19 Zn9 2.685400 1_555
Zn19 Zn25 2.704403 1_555
Zn19 Zn22 2.704403 1_555
Zn19 Zn35 2.921151 1_545
Zn19 Zn39 2.921151 1_554
Zn19 Zn2 3.042731 1_555
Zn20 Zn23 2.634109 1_555
Zn20 Zn5 2.685395 1_555
Zn20 Zn24 2.704403 1_555
Zn20 Zn37 2.921151 1_545
Zn20 Zn30 2.921151 1_455
Zn21 Zn22 2.634109 1_555
Zn21 Zn4 2.685391 1_555
Zn21 Zn27 2.704403 1_555
Zn21 Zn38 2.921135 1_555
Zn21 Zn28 2.921151 1_554
Zn21 Zn3 3.042727 1_555
Zn22 Zn4 2.685391 1_555
Zn22 Zn25 2.704403 1_555
Zn22 Zn29 2.921135 1_555
Zn22 Zn36 2.921151 1_554
Zn22 Zn3 3.042727 1_555
Zn23 Zn5 2.685400 1_555
Zn23 Zn26 2.704403 1_555
Zn23 Zn31 2.921151 1_545
Zn23 Zn39 2.921151 1_455
Zn24 Zn27 2.634109 1_555
Zn24 Zn7 2.685395 1_555
Zn24 Zn34 2.921151 1_554
Zn24 Zn29 2.921151 1_455
Zn25 Zn26 2.634109 1_555
Zn25 Zn6 2.685391 1_555
Zn25 Zn30 2.921135 1_555
Zn25 Zn32 2.921151 1_545
Zn25 Zn3 3.042727 1_555
Zn26 Zn6 2.685391 1_555
Zn26 Zn33 2.921135 1_555
Zn26 Zn28 2.921151 1_545
Zn26 Zn3 3.042727 1_555
Zn27 Zn7 2.685400 1_555
Zn27 Zn31 2.921151 1_554
Zn27 Zn35 2.921151 1_455
Zn28 Zn31 2.634109 1_555
Zn28 Zn36 2.704403 1_555
Zn28 Zn32 2.704403 1_555
Zn28 Zn6 2.832247 1_565
Zn28 Zn4 2.832247 1_556
Zn29 Zn30 2.634109 1_555
Zn29 Zn35 2.704403 1_555
Zn29 Zn38 2.704403 1_555
Zn29 Zn4 2.832239 1_555
Zn29 Zn7 2.832244 1_655
Zn29 Zn3 3.042727 1_555
Zn30 Zn39 2.704403 1_555
Zn30 Zn33 2.704403 1_555
Zn30 Zn6 2.832239 1_555
Zn30 Zn5 2.832244 1_655
Zn31 Zn37 2.704403 1_555
Zn31 Zn34 2.704403 1_555
Zn31 Zn7 2.832239 1_556
Zn31 Zn5 2.832239 1_565
Zn32 Zn35 2.634109 1_555
Zn32 Zn36 2.704403 1_555
Zn32 Zn6 2.832247 1_565
Zn32 Zn8 2.832247 1_655
Zn33 Zn34 2.634109 1_555
Zn33 Zn39 2.704403 1_555
Zn33 Zn6 2.832239 1_555
Zn33 Zn9 2.832244 1_556
Zn34 Zn37 2.704403 1_555
Zn34 Zn8 2.832239 1_555
Zn34 Zn7 2.832244 1_556
Zn35 Zn38 2.704403 1_555
Zn35 Zn7 2.832239 1_655
Zn35 Zn9 2.832239 1_565
Zn36 Zn39 2.634109 1_555
Zn36 Zn4 2.832247 1_556
Zn36 Zn8 2.832247 1_655
Zn37 Zn38 2.634109 1_555
Zn37 Zn8 2.832239 1_555
Zn37 Zn5 2.832244 1_565
Zn38 Zn4 2.832239 1_555
Zn38 Zn9 2.832244 1_565
Zn39 Zn9 2.832239 1_556
Zn39 Zn5 2.832239 1_655
Ir0 Zn12 2.539988 1_555
Ir0 Zn9 2.539988 1_555
Ir0 Zn10 2.539988 1_555
Ir0 Zn15 2.539988 1_555
Ir0 Zn4 2.539988 1_545
Ir0 Zn6 2.539988 1_554
Ir0 Zn38 2.806583 1_545
Ir0 Zn21 2.806583 1_545
Ir0 Zn33 2.806583 1_554
Ir0 Zn26 2.806583 1_554
Ir0 Zn28 2.806592 1_544
Ir0 Zn16 2.806592 1_555
Ir1 Zn13 2.539988 1_555
Ir1 Zn10 2.539988 1_555
Ir1 Zn7 2.539988 1_555
Ir1 Zn8 2.539988 1_554
Ir1 Zn14 2.539988 1_555
Ir1 Zn4 2.539988 1_455
Ir1 Zn29 2.806583 1_455
Ir1 Zn34 2.806583 1_554
Ir1 Zn17 2.806583 1_554
Ir1 Zn22 2.806583 1_455
Ir1 Zn36 2.806592 1_454
Ir1 Zn24 2.806592 1_555
Ir2 Zn12 2.539988 1_555
Ir2 Zn6 2.539988 1_455
Ir2 Zn8 2.539988 1_545
Ir2 Zn5 2.539988 1_555
Ir2 Zn14 2.539988 1_555
Ir2 Zn11 2.539988 1_555
Ir2 Zn30 2.806583 1_455
Ir2 Zn37 2.806583 1_545
Ir2 Zn18 2.806583 1_545
Ir2 Zn25 2.806583 1_455
Ir2 Zn32 2.806592 1_445
Ir2 Zn20 2.806592 1_555
Ir3 Zn13 2.539988 1_555
Ir3 Zn7 2.539988 1_545
Ir3 Zn9 2.539988 1_455
Ir3 Zn5 2.539988 1_554
Ir3 Zn15 2.539988 1_555
Ir3 Zn11 2.539988 1_555
Ir3 Zn35 2.806588 1_445
Ir3 Zn31 2.806588 1_544
Ir3 Zn39 2.806588 1_454
Ir3 Zn23 2.806588 1_554
Ir3 Zn19 2.806588 1_455
Ir3 Zn27 2.806588 1_545
