# generated using pymatgen
data_YbSm4S5
_symmetry_space_group_name_H-M   'P 1'
_cell_length_a   16.41416275
_cell_length_b   16.41416275
_cell_length_c   16.41416321
_cell_angle_alpha   14.05340659
_cell_angle_beta   14.05340659
_cell_angle_gamma   14.05340667
_symmetry_Int_Tables_number   1
_chemical_formula_structural   YbSm4S5
_chemical_formula_sum   'Yb1 Sm4 S5'
_cell_volume   226.96022417
_cell_formula_units_Z   1
loop_
 _symmetry_equiv_pos_site_id
 _symmetry_equiv_pos_as_xyz
  1  'x, y, z'
loop_
 _atom_site_type_symbol
 _atom_site_label
 _atom_site_symmetry_multiplicity
 _atom_site_fract_x
 _atom_site_fract_y
 _atom_site_fract_z
 _atom_site_occupancy
  Yb  Yb0  1  0.00000000  0.00000000  0.00000000  1
  Sm  Sm0  1  0.59878400  0.59878400  0.59878400  1
  Sm  Sm1  1  0.20118700  0.20118700  0.20118700  1
  Sm  Sm2  1  0.79881300  0.79881300  0.79881300  1
  Sm  Sm3  1  0.40121600  0.40121600  0.40121600  1
  S  S0  1  0.69926700  0.69926700  0.69926700  1
  S  S1  1  0.50000000  0.50000000  0.50000000  1
  S  S2  1  0.09990500  0.09990500  0.09990500  1
  S  S3  1  0.30073300  0.30073300  0.30073300  1
  S  S4  1  0.90009500  0.90009500  0.90009500  1
loop_
_geom_bond_atom_site_label_1
_geom_bond_atom_site_label_2
_geom_bond_distance
_geom_bond_site_symmetry_2
S0 Yb0 2.810977 1_656
S0 Yb0 2.810977 1_566
S0 Yb0 2.810977 1_665
S0 Sm3 2.886910 1_565
S0 Sm3 2.886910 1_655
S0 Sm3 2.886910 1_556
S1 Sm1 2.864934 1_655
S1 Sm2 2.864934 1_545
S1 Sm2 2.864934 1_455
S1 Sm1 2.864934 1_565
S1 Sm1 2.864935 1_556
S1 Sm2 2.864935 1_554
S2 Sm3 2.795144 1_545
S2 Sm3 2.795144 1_455
S2 Sm3 2.795144 1_554
S2 Sm2 2.801120 1_454
S2 Sm2 2.801120 1_544
S2 Sm2 2.801120 1_445
S3 Yb0 2.810977 1_565
S3 Yb0 2.810977 1_655
S3 Yb0 2.810977 1_556
S3 Sm0 2.886910 1_545
S3 Sm0 2.886910 1_455
S3 Sm0 2.886910 1_554
S4 Sm0 2.795144 1_565
S4 Sm0 2.795144 1_655
S4 Sm0 2.795144 1_556
S4 Sm1 2.801120 1_656
S4 Sm1 2.801120 1_566
S4 Sm1 2.801120 1_665
