# generated using pymatgen
data_Re24Mo5
_symmetry_space_group_name_H-M   'P 1'
_cell_length_a   8.31331406
_cell_length_b   8.31331314
_cell_length_c   8.31331289
_cell_angle_alpha   109.47122500
_cell_angle_beta   109.47122271
_cell_angle_gamma   109.47122423
_symmetry_Int_Tables_number   1
_chemical_formula_structural   Re24Mo5
_chemical_formula_sum   'Re24 Mo5'
_cell_volume   442.28326726
_cell_formula_units_Z   1
loop_
 _symmetry_equiv_pos_site_id
 _symmetry_equiv_pos_as_xyz
  1  'x, y, z'
loop_
 _atom_site_type_symbol
 _atom_site_label
 _atom_site_symmetry_multiplicity
 _atom_site_fract_x
 _atom_site_fract_y
 _atom_site_fract_z
 _atom_site_occupancy
  Re  Re0  1  0.40179709  0.40179709  0.71695387  1
  Re  Re1  1  0.59820291  0.31515679  1.00000000  1
  Re  Re2  1  0.31515679  0.59820291  1.00000000  1
  Re  Re3  1  1.00000000  0.31515679  0.59820291  1
  Re  Re4  1  0.28304613  0.68484321  0.68484321  1
  Re  Re5  1  0.68484321  0.28304613  0.68484321  1
  Re  Re6  1  0.31515679  1.00000000  0.59820291  1
  Re  Re7  1  0.59820291  1.00000000  0.31515679  1
  Re  Re8  1  1.00000000  0.59820291  0.31515679  1
  Re  Re9  1  0.71695387  0.40179709  0.40179709  1
  Re  Re10  1  0.40179709  0.71695387  0.40179709  1
  Re  Re11  1  0.68484321  0.68484321  0.28304613  1
  Re  Re12  1  0.37564834  0.37564834  0.18207688  1
  Re  Re13  1  0.62435166  0.80642854  0.00000000  1
  Re  Re14  1  0.80642854  0.62435166  0.00000000  1
  Re  Re15  1  0.00000000  0.80642854  0.62435166  1
  Re  Re16  1  0.81792312  0.19357146  0.19357146  1
  Re  Re17  1  0.19357146  0.81792312  0.19357146  1
  Re  Re18  1  0.80642854  0.00000000  0.62435166  1
  Re  Re19  1  0.62435166  0.00000000  0.80642854  1
  Re  Re20  1  0.00000000  0.62435166  0.80642854  1
  Re  Re21  1  0.18207688  0.37564834  0.37564834  1
  Re  Re22  1  0.37564834  0.18207688  0.37564834  1
  Re  Re23  1  0.19357146  0.19357146  0.81792312  1
  Mo  Mo0  1  0.00000000  -0.00000000  -0.00000000  1
  Mo  Mo1  1  0.64061589  0.64061589  0.64061589  1
  Mo  Mo2  1  0.35938411  1.00000000  0.00000000  1
  Mo  Mo3  1  1.00000000  0.35938411  1.00000000  1
  Mo  Mo4  1  1.00000000  1.00000000  0.35938411  1
loop_
_geom_bond_atom_site_label_1
_geom_bond_atom_site_label_2
_geom_bond_distance
_geom_bond_site_symmetry_2
Re0 Re23 2.576294 1_555
Re0 Re22 2.702474 1_555
Re0 Re21 2.702474 1_555
Re0 Re13 2.819044 1_556
Re0 Re14 2.819045 1_556
Re0 Re2 2.841510 1_555
Re0 Re1 2.841510 1_555
Re0 Re6 2.893858 1_545
Re0 Re4 2.893858 1_555
Re0 Re5 2.893858 1_555
Re0 Re3 2.893858 1_455
Re1 Re14 2.576294 1_556
Re1 Re19 2.702474 1_555
Re1 Re16 2.702474 1_556
Re1 Re23 2.819045 1_555
Re1 Re12 2.819045 1_556
Re1 Re11 2.841510 1_556
Re1 Re6 2.893858 1_545
Re1 Re8 2.893858 1_556
Re1 Re9 2.893858 1_556
Re1 Re5 2.893858 1_555
Re2 Re20 2.702474 1_555
Re2 Re23 2.819044 1_555
Re2 Re7 2.893858 1_556
Re2 Re3 2.893858 1_455
Re2 Re4 2.893858 1_555
Re3 Re4 2.841510 1_655
Re3 Re9 2.841510 1_555
Re3 Re7 2.893858 1_545
Re3 Re5 2.893858 1_555
Re4 Re8 2.841510 1_455
Re4 Re6 2.893858 1_555
Re5 Re7 2.841510 1_545
Re5 Re6 2.841510 1_545
Re5 Re9 2.893858 1_555
Re6 Re8 2.893858 1_455
Re7 Re9 2.893858 1_565
Re8 Re9 2.841510 1_555
Re10 Re17 2.576294 1_555
Re10 Re12 2.702474 1_555
Re10 Re21 2.702474 1_555
Re10 Re19 2.819044 1_565
Re10 Re18 2.819045 1_565
Re10 Re6 2.841510 1_555
Re10 Re7 2.841510 1_555
Re10 Re2 2.893858 1_554
Re10 Re4 2.893858 1_555
Re10 Re11 2.893858 1_555
Re10 Re8 2.893858 1_455
Re11 Re12 2.576293 1_555
Re11 Re18 2.702474 1_565
Re11 Re15 2.702474 1_655
Re11 Re13 2.819045 1_555
Re11 Re14 2.819045 1_555
Re11 Re2 2.841510 1_554
Re11 Re9 2.893858 1_555
Re11 Re7 2.893858 1_555
Re11 Re8 2.893858 1_555
Re12 Re23 2.471800 1_554
Re12 Re22 2.627846 1_555
Re12 Re21 2.627846 1_555
Re12 Re9 2.702474 1_555
Re12 Re2 2.819045 1_554
Re13 Re14 2.471800 1_555
Re13 Re2 2.576294 1_554
Re13 Re16 2.627845 1_565
Re13 Re19 2.627846 1_564
Re13 Re7 2.702474 1_555
Re13 Re4 2.702474 1_554
Re14 Re17 2.627846 1_655
Re14 Re20 2.627846 1_654
Re14 Re5 2.702474 1_554
Re14 Re8 2.702474 1_555
Re15 Re20 2.471800 1_555
Re15 Re8 2.576293 1_455
Re15 Re23 2.627845 1_565
Re15 Re18 2.627846 1_465
Re15 Re6 2.702474 1_555
Re15 Re9 2.819044 1_455
Re15 Re4 2.819045 1_555
Re16 Re21 2.471800 1_655
Re16 Re9 2.576294 1_555
Re16 Re19 2.627845 1_554
Re16 Re7 2.702474 1_545
Re16 Re3 2.819044 1_555
Re16 Re8 2.819044 1_555
Re17 Re22 2.471800 1_565
Re17 Re20 2.627845 1_554
Re17 Re2 2.702474 1_554
Re17 Re8 2.702474 1_455
Re17 Re6 2.819044 1_555
Re17 Re7 2.819045 1_555
Re18 Re19 2.471800 1_555
Re18 Re7 2.576294 1_545
Re18 Re23 2.627846 1_655
Re18 Re3 2.702474 1_555
Re18 Re5 2.819045 1_555
Re19 Re6 2.576294 1_545
Re19 Re4 2.702474 1_545
Re19 Re5 2.819045 1_555
Re20 Re3 2.576293 1_455
Re20 Re5 2.702474 1_455
Re20 Re9 2.819044 1_455
Re20 Re4 2.819045 1_555
Re21 Re4 2.576293 1_555
Re21 Re22 2.627846 1_555
Re21 Re3 2.819045 1_455
Re21 Re8 2.819045 1_455
Re22 Re5 2.576293 1_555
Re22 Re9 2.702474 1_555
Re22 Re6 2.819045 1_545
Re22 Re7 2.819045 1_545
Re23 Re6 2.702474 1_545
Re23 Re3 2.702474 1_455
Mo0 Mo1 2.987672 1_444
Mo0 Mo4 2.987673 1_445
Mo0 Mo3 2.987673 1_454
Mo0 Mo2 2.987673 1_545
Mo0 Re21 2.998618 1_555
Mo0 Re15 2.998618 1_544
Mo0 Re22 2.998618 1_555
Mo0 Re12 2.998618 1_555
Mo0 Re20 2.998618 1_544
Mo0 Re18 2.998618 1_454
Mo0 Re14 2.998618 1_445
Mo0 Re23 2.998619 1_554
Mo0 Re16 2.998619 1_455
Mo0 Re17 2.998619 1_545
Mo0 Re13 2.998619 1_445
Mo0 Re19 2.998619 1_454
Mo1 Re9 2.708932 1_555
Mo1 Re0 2.708932 1_555
Mo1 Re10 2.708933 1_555
Mo1 Re13 2.914204 1_556
Mo1 Re14 2.914204 1_556
Mo1 Re19 2.914204 1_565
Mo1 Re18 2.914204 1_565
Mo1 Re15 2.914204 1_655
Mo1 Re20 2.914204 1_655
Mo1 Re12 3.131274 1_555
Mo1 Re22 3.131274 1_555
Mo1 Re21 3.131275 1_555
Mo1 Re11 3.236325 1_555
Mo1 Re5 3.236325 1_555
Mo1 Re4 3.236325 1_555
Mo2 Re4 2.708932 1_554
Mo2 Re7 2.708932 1_555
Mo2 Re1 2.708932 1_564
Mo2 Re15 2.914204 1_554
Mo2 Re22 2.914204 1_565
Mo2 Re20 2.914204 1_554
Mo2 Re12 2.914204 1_565
Mo2 Re17 2.914204 1_555
Mo2 Re23 2.914204 1_564
Mo2 Re16 3.131275 1_565
Mo2 Re19 3.131275 1_564
Mo2 Re13 3.131275 1_555
Mo2 Re9 3.236325 1_565
Mo2 Re6 3.236325 1_554
Mo2 Re2 3.236325 1_554
Mo3 Re8 2.708932 1_556
Mo3 Re5 2.708932 1_555
Mo3 Re2 2.708933 1_655
Mo3 Re18 2.914204 1_555
Mo3 Re19 2.914204 1_555
Mo3 Re21 2.914204 1_656
Mo3 Re16 2.914204 1_556
Mo3 Re23 2.914204 1_655
Mo3 Re12 2.914204 1_656
Mo3 Re17 3.131275 1_656
Mo3 Re20 3.131275 1_655
Mo3 Re14 3.131275 1_556
Mo3 Re10 3.236325 1_656
Mo3 Re3 3.236325 1_555
Mo3 Re1 3.236325 1_555
Mo4 Re3 2.708932 1_565
Mo4 Re11 2.708932 1_555
Mo4 Re6 2.708933 1_655
Mo4 Re14 2.914204 1_555
Mo4 Re13 2.914204 1_555
Mo4 Re21 2.914204 1_665
Mo4 Re16 2.914204 1_565
Mo4 Re17 2.914204 1_655
Mo4 Re22 2.914204 1_665
Mo4 Re23 3.131274 1_665
Mo4 Re15 3.131275 1_655
Mo4 Re18 3.131275 1_565
Mo4 Re0 3.236325 1_665
Mo4 Re8 3.236325 1_555
Mo4 Re7 3.236325 1_555
