# generated using pymatgen
data_Rb2YCl5
_symmetry_space_group_name_H-M   'P 1'
_cell_length_a   7.36078105
_cell_length_b   9.38573691
_cell_length_c   14.76368667
_cell_angle_alpha   90.00000000
_cell_angle_beta   90.00000000
_cell_angle_gamma   90.00000000
_symmetry_Int_Tables_number   1
_chemical_formula_structural   Rb2YCl5
_chemical_formula_sum   'Rb8 Y4 Cl20'
_cell_volume   1019.96928935
_cell_formula_units_Z   4
loop_
 _symmetry_equiv_pos_site_id
 _symmetry_equiv_pos_as_xyz
  1  'x, y, z'
loop_
 _atom_site_type_symbol
 _atom_site_label
 _atom_site_symmetry_multiplicity
 _atom_site_fract_x
 _atom_site_fract_y
 _atom_site_fract_z
 _atom_site_occupancy
  Rb  Rb0  1  0.25000000  0.66821508  0.91622754  1
  Rb  Rb1  1  0.75000000  0.33178492  0.08377246  1
  Rb  Rb2  1  0.75000000  0.83178492  0.41622754  1
  Rb  Rb3  1  0.25000000  0.16821508  0.58377246  1
  Rb  Rb4  1  0.25000000  0.97079925  0.20947250  1
  Rb  Rb5  1  0.75000000  0.02920075  0.79052750  1
  Rb  Rb6  1  0.75000000  0.52920075  0.70947250  1
  Rb  Rb7  1  0.25000000  0.47079925  0.29052750  1
  Y  Y0  1  0.25000000  0.68970328  0.56336554  1
  Y  Y1  1  0.75000000  0.31029672  0.43663446  1
  Y  Y2  1  0.75000000  0.81029672  0.06336554  1
  Y  Y3  1  0.25000000  0.18970328  0.93663446  1
  Cl  Cl0  1  0.25000000  0.53325118  0.70768358  1
  Cl  Cl1  1  0.75000000  0.46674882  0.29231642  1
  Cl  Cl2  1  0.75000000  0.96674882  0.20768358  1
  Cl  Cl3  1  0.25000000  0.03325118  0.79231642  1
  Cl  Cl4  1  0.51067791  0.85274044  0.61301972  1
  Cl  Cl5  1  0.48932209  0.14725956  0.38698028  1
  Cl  Cl6  1  0.48932209  0.64725956  0.11301972  1
  Cl  Cl7  1  0.01067791  0.14725956  0.38698028  1
  Cl  Cl8  1  0.51067791  0.35274044  0.88698028  1
  Cl  Cl9  1  0.98932209  0.85274044  0.61301972  1
  Cl  Cl10  1  0.98932209  0.35274044  0.88698028  1
  Cl  Cl11  1  0.01067791  0.64725956  0.11301972  1
  Cl  Cl12  1  0.25000000  0.78361478  0.39483113  1
  Cl  Cl13  1  0.75000000  0.21638522  0.60516887  1
  Cl  Cl14  1  0.75000000  0.71638522  0.89483113  1
  Cl  Cl15  1  0.25000000  0.28361478  0.10516887  1
  Cl  Cl16  1  0.00000000  0.50000000  0.50000000  1
  Cl  Cl17  1  0.00000000  -0.00000000  -0.00000000  1
  Cl  Cl18  1  0.50000000  0.50000000  0.50000000  1
  Cl  Cl19  1  0.50000000  -0.00000000  -0.00000000  1
loop_
_geom_bond_atom_site_label_1
_geom_bond_atom_site_label_2
_geom_bond_distance
_geom_bond_site_symmetry_2
Cl0 Y0 2.587661 1_555
Cl0 Rb0 3.329280 1_555
Cl0 Rb6 3.680682 1_555
Cl0 Rb6 3.680682 1_455
Cl0 Rb3 3.883946 1_555
Cl1 Y1 2.587661 1_555
Cl1 Rb1 3.329280 1_555
Cl1 Rb7 3.680682 1_655
Cl1 Rb7 3.680682 1_555
Cl1 Rb2 3.883946 1_555
Cl2 Y2 2.587661 1_555
Cl2 Rb2 3.329280 1_555
Cl2 Rb4 3.680682 1_555
Cl2 Rb4 3.680682 1_655
Cl2 Rb1 3.883946 1_565
Cl3 Y3 2.587661 1_555
Cl3 Rb3 3.329280 1_555
Cl3 Rb5 3.680682 1_455
Cl3 Rb5 3.680682 1_555
Cl3 Rb0 3.883946 1_545
Cl4 Y0 2.561397 1_555
Cl4 Rb2 3.403400 1_555
Cl4 Rb3 3.554646 1_565
Cl4 Rb5 3.565693 1_565
Cl4 Rb6 3.788442 1_555
Cl5 Y1 2.561397 1_555
Cl5 Rb3 3.403400 1_555
Cl5 Rb2 3.554646 1_545
Cl5 Rb4 3.565693 1_545
Cl5 Rb7 3.788442 1_555
Cl6 Y2 2.561397 1_555
Cl6 Rb0 3.403400 1_554
Cl6 Rb1 3.554646 1_555
Cl6 Rb7 3.565693 1_555
Cl6 Rb4 3.788442 1_555
Cl7 Y1 2.561397 1_455
Cl7 Rb3 3.403400 1_555
Cl7 Rb2 3.554646 1_445
Cl7 Rb4 3.565693 1_545
Cl7 Rb7 3.788442 1_555
Cl8 Y3 2.561397 1_555
Cl8 Rb1 3.403400 1_556
Cl8 Rb0 3.554646 1_555
Cl8 Rb6 3.565693 1_555
Cl8 Rb5 3.788442 1_555
Cl9 Y0 2.561397 1_655
Cl9 Rb2 3.403400 1_555
Cl9 Rb3 3.554646 1_665
Cl9 Rb5 3.565693 1_565
Cl9 Rb6 3.788442 1_555
Cl10 Y3 2.561397 1_655
Cl10 Rb1 3.403400 1_556
Cl10 Rb0 3.554646 1_655
Cl10 Rb6 3.565693 1_555
Cl10 Rb5 3.788442 1_555
Cl11 Y2 2.561397 1_455
Cl11 Rb0 3.403400 1_554
Cl11 Rb1 3.554646 1_455
Cl11 Rb7 3.565693 1_555
Cl11 Rb4 3.788442 1_555
Cl12 Y0 2.639697 1_555
Cl12 Rb4 3.251988 1_555
Cl12 Rb7 3.315333 1_555
Cl12 Rb2 3.721487 1_555
Cl12 Rb2 3.721487 1_455
Cl13 Y1 2.639697 1_555
Cl13 Rb5 3.251988 1_555
Cl13 Rb6 3.315333 1_555
Cl13 Rb3 3.721487 1_655
Cl13 Rb3 3.721487 1_555
Cl14 Y2 2.639697 1_556
Cl14 Rb6 3.251988 1_555
Cl14 Rb5 3.315333 1_565
Cl14 Rb0 3.721487 1_555
Cl14 Rb0 3.721487 1_655
Cl15 Y3 2.639697 1_554
Cl15 Rb7 3.251988 1_555
Cl15 Rb4 3.315333 1_545
Cl15 Rb1 3.721487 1_455
Cl15 Rb1 3.721487 1_555
Cl16 Y1 2.726113 1_455
Cl16 Y0 2.726113 1_555
Cl16 Rb6 3.609089 1_455
Cl16 Rb7 3.609089 1_555
Cl16 Rb3 3.822728 1_555
Cl16 Rb2 3.822728 1_455
Cl17 Y3 2.726113 1_554
Cl17 Y2 2.726113 1_445
Cl17 Rb4 3.609089 1_545
Cl17 Rb5 3.609089 1_454
Cl17 Rb0 3.822728 1_544
Cl17 Rb1 3.822728 1_455
Cl18 Y1 2.726113 1_555
Cl18 Y0 2.726113 1_555
Cl18 Rb6 3.609089 1_555
Cl18 Rb7 3.609089 1_555
Cl18 Rb3 3.822728 1_555
Cl18 Rb2 3.822728 1_555
Cl19 Y3 2.726113 1_554
Cl19 Y2 2.726113 1_545
Cl19 Rb4 3.609089 1_545
Cl19 Rb5 3.609089 1_554
Cl19 Rb0 3.822728 1_544
Cl19 Rb1 3.822728 1_555
