# generated using pymatgen
data_TmAlB4
_symmetry_space_group_name_H-M   'P 1'
_cell_length_a   3.52111400
_cell_length_b   5.92192500
_cell_length_c   11.48102400
_cell_angle_alpha   90.00000000
_cell_angle_beta   90.00000000
_cell_angle_gamma   90.00000000
_symmetry_Int_Tables_number   1
_chemical_formula_structural   TmAlB4
_chemical_formula_sum   'Tm4 Al4 B16'
_cell_volume   239.39970654
_cell_formula_units_Z   4
loop_
 _symmetry_equiv_pos_site_id
 _symmetry_equiv_pos_as_xyz
  1  'x, y, z'
loop_
 _atom_site_type_symbol
 _atom_site_label
 _atom_site_symmetry_multiplicity
 _atom_site_fract_x
 _atom_site_fract_y
 _atom_site_fract_z
 _atom_site_occupancy
  Tm  Tm0  1  0.00000000  0.62966100  0.34988800  1
  Tm  Tm1  1  0.00000000  0.37033900  0.65011200  1
  Tm  Tm2  1  0.00000000  0.12966100  0.15011200  1
  Tm  Tm3  1  0.00000000  0.87033900  0.84988800  1
  Al  Al0  1  0.00000000  0.63809600  0.09020400  1
  Al  Al1  1  0.00000000  0.36190400  0.90979600  1
  Al  Al2  1  0.00000000  0.13809600  0.40979600  1
  Al  Al3  1  0.00000000  0.86190400  0.59020400  1
  B  B0  1  0.50000000  0.79037500  0.18760100  1
  B  B1  1  0.50000000  0.20962500  0.81239900  1
  B  B2  1  0.50000000  0.29037500  0.31239900  1
  B  B3  1  0.50000000  0.70962500  0.68760100  1
  B  B4  1  0.50000000  0.86688200  0.03075500  1
  B  B5  1  0.50000000  0.13311800  0.96924500  1
  B  B6  1  0.50000000  0.36688200  0.46924500  1
  B  B7  1  0.50000000  0.63311800  0.53075500  1
  B  B8  1  0.50000000  0.88564400  0.45301000  1
  B  B9  1  0.50000000  0.11435600  0.54699000  1
  B  B10  1  0.50000000  0.38564400  0.04699000  1
  B  B11  1  0.50000000  0.61435600  0.95301000  1
  B  B12  1  0.50000000  0.97373900  0.30711200  1
  B  B13  1  0.50000000  0.02626100  0.69288800  1
  B  B14  1  0.50000000  0.47373900  0.19288800  1
  B  B15  1  0.50000000  0.52626100  0.80711200  1
loop_
_geom_bond_atom_site_label_1
_geom_bond_atom_site_label_2
_geom_bond_distance
_geom_bond_site_symmetry_2
Al0 B0 2.272265 1_455
Al0 B0 2.272265 1_555
Al0 B4 2.324015 1_555
Al0 B4 2.324015 1_455
Al0 B14 2.331682 1_455
Al0 B14 2.331682 1_555
Al0 B10 2.362361 1_555
Al0 B10 2.362361 1_455
Al0 B11 2.366506 1_554
Al0 B11 2.366506 1_454
Al1 B1 2.272265 1_455
Al1 B1 2.272265 1_555
Al1 B5 2.324015 1_555
Al1 B5 2.324015 1_455
Al1 B15 2.331682 1_455
Al1 B15 2.331682 1_555
Al1 B11 2.362361 1_455
Al1 B11 2.362361 1_555
Al1 B10 2.366506 1_456
Al1 B10 2.366506 1_556
Al2 B2 2.272265 1_455
Al2 B2 2.272265 1_555
Al2 B6 2.324015 1_555
Al2 B6 2.324015 1_455
Al2 B12 2.331682 1_445
Al2 B12 2.331682 1_545
Al2 B8 2.362361 1_545
Al2 B8 2.362361 1_445
Al2 B9 2.366506 1_555
Al2 B9 2.366506 1_455
Al3 B3 2.272265 1_555
Al3 B3 2.272265 1_455
Al3 B7 2.324015 1_455
Al3 B7 2.324015 1_555
Al3 B13 2.331682 1_465
Al3 B13 2.331682 1_565
Al3 B9 2.362361 1_465
Al3 B9 2.362361 1_565
Al3 B8 2.366506 1_555
Al3 B8 2.366506 1_455
B0 B12 1.749797 1_555
B0 B4 1.856874 1_555
B0 B14 1.876077 1_555
B0 Tm2 2.705884 1_565
B0 Tm2 2.705884 1_665
B0 Tm0 2.734402 1_655
B0 Tm0 2.734402 1_555
B1 B13 1.749797 1_555
B1 B5 1.856874 1_555
B1 B15 1.876077 1_555
B1 Tm3 2.705884 1_645
B1 Tm3 2.705884 1_545
B1 Tm1 2.734402 1_555
B1 Tm1 2.734402 1_655
B2 B6 1.856874 1_555
B2 Tm0 2.705884 1_555
B2 Tm0 2.705884 1_655
B2 Tm2 2.734402 1_655
B2 Tm2 2.734402 1_555
B3 B7 1.856874 1_555
B3 Tm1 2.705884 1_655
B3 Tm1 2.705884 1_555
B3 Tm3 2.734402 1_555
B3 Tm3 2.734402 1_655
B4 B5 1.727564 1_564
B4 Tm2 2.720114 1_665
B4 Tm2 2.720114 1_565
B4 Tm3 2.722497 1_654
B4 Tm3 2.722497 1_554
B5 Tm3 2.720114 1_545
B5 Tm3 2.720114 1_645
B5 Tm2 2.722497 1_556
B5 Tm2 2.722497 1_656
B6 B7 1.727564 1_555
B6 B9 1.741569 1_555
B6 Tm0 2.720114 1_555
B6 Tm0 2.720114 1_655
B6 Tm1 2.722497 1_655
B6 Tm1 2.722497 1_555
B7 B8 1.741569 1_555
B7 Tm1 2.720114 1_655
B7 Tm1 2.720114 1_555
B7 Tm0 2.722497 1_655
B7 Tm0 2.722497 1_555
B8 B9 1.731662 1_565
B8 Tm0 2.607543 1_555
B8 Tm0 2.607543 1_655
B9 Tm1 2.607543 1_555
B9 Tm1 2.607543 1_655
B10 B11 1.731662 1_554
B10 B5 1.741569 1_554
B10 B14 1.754418 1_555
B10 Tm2 2.607543 1_655
B10 Tm2 2.607543 1_555
B11 B4 1.741569 1_556
B11 B15 1.754418 1_555
B11 Tm3 2.607543 1_655
B11 Tm3 2.607543 1_555
B12 B8 1.754418 1_555
B12 B2 1.876077 1_565
B12 Tm2 2.683511 1_665
B12 Tm2 2.683511 1_565
B12 Tm0 2.737258 1_555
B12 Tm0 2.737258 1_655
B13 B9 1.754418 1_555
B13 B3 1.876077 1_545
B13 Tm3 2.683511 1_545
B13 Tm3 2.683511 1_645
B13 Tm1 2.737258 1_555
B13 Tm1 2.737258 1_655
B14 B2 1.749797 1_555
B14 Tm0 2.683511 1_655
B14 Tm0 2.683511 1_555
B14 Tm2 2.737258 1_555
B14 Tm2 2.737258 1_655
B15 B3 1.749797 1_555
B15 Tm1 2.683511 1_555
B15 Tm1 2.683511 1_655
B15 Tm3 2.737258 1_655
B15 Tm3 2.737258 1_555
