# generated using pymatgen
data_BaCeMg14
_symmetry_space_group_name_H-M   'P 1'
_cell_length_a   6.68066201
_cell_length_b   6.68066201
_cell_length_c   10.62071300
_cell_angle_alpha   90.00000000
_cell_angle_beta   90.00000000
_cell_angle_gamma   116.61686335
_symmetry_Int_Tables_number   1
_chemical_formula_structural   BaCeMg14
_chemical_formula_sum   'Ba1 Ce1 Mg14'
_cell_volume   423.78060865
_cell_formula_units_Z   1
loop_
 _symmetry_equiv_pos_site_id
 _symmetry_equiv_pos_as_xyz
  1  'x, y, z'
loop_
 _atom_site_type_symbol
 _atom_site_label
 _atom_site_symmetry_multiplicity
 _atom_site_fract_x
 _atom_site_fract_y
 _atom_site_fract_z
 _atom_site_occupancy
  Ba  Ba0  1  0.34060000  0.65940000  0.50000000  1
  Ce  Ce0  1  0.84476600  0.15523400  0.50000000  1
  Mg  Mg0  1  0.83180700  0.16819300  0.00000000  1
  Mg  Mg1  1  0.33396700  0.66603300  0.00000000  1
  Mg  Mg2  1  0.33940400  0.16436700  0.50000000  1
  Mg  Mg3  1  0.33869200  0.16768900  0.00000000  1
  Mg  Mg4  1  0.83563300  0.66059600  0.50000000  1
  Mg  Mg5  1  0.83231100  0.66130800  0.00000000  1
  Mg  Mg6  1  0.15498000  0.32070500  0.22729500  1
  Mg  Mg7  1  0.15498000  0.32070500  0.77270500  1
  Mg  Mg8  1  0.67929500  0.84502000  0.22729500  1
  Mg  Mg9  1  0.67929500  0.84502000  0.77270500  1
  Mg  Mg10  1  0.66241800  0.33758200  0.24941600  1
  Mg  Mg11  1  0.66241800  0.33758200  0.75058400  1
  Mg  Mg12  1  0.15472100  0.84527900  0.23550600  1
  Mg  Mg13  1  0.15472100  0.84527900  0.76449400  1
loop_
_geom_bond_atom_site_label_1
_geom_bond_atom_site_label_2
_geom_bond_distance
_geom_bond_site_symmetry_2
Ba0 Mg2 3.303576 1_555
Ba0 Mg4 3.303576 1_555
Ba0 Mg2 3.377101 1_565
Ba0 Mg4 3.377101 1_455
Ba0 Ce0 3.509982 1_455
Ba0 Ce0 3.509982 1_565
Ba0 Mg13 3.515250 1_555
Ba0 Mg12 3.515250 1_555
Ba0 Mg6 3.540066 1_555
Ba0 Mg9 3.540066 1_555
Ba0 Mg7 3.540066 1_555
Ba0 Mg8 3.540066 1_555
Ce0 Mg2 3.277627 1_655
Ce0 Mg4 3.277627 1_545
Ce0 Mg11 3.373536 1_555
Ce0 Mg10 3.373536 1_555
Ce0 Mg4 3.403926 1_555
Ce0 Mg2 3.403926 1_555
Ce0 Mg8 3.442800 1_545
Ce0 Mg7 3.442800 1_655
Ce0 Mg9 3.442800 1_545
Ce0 Mg6 3.442800 1_655
Mg0 Mg8 3.091264 1_545
Mg0 Mg6 3.091264 1_655
Mg0 Mg9 3.091264 1_544
Mg0 Mg7 3.091264 1_654
Mg0 Mg11 3.275013 1_554
Mg0 Mg10 3.275013 1_555
Mg0 Mg5 3.292828 1_555
Mg0 Mg3 3.292828 1_555
Mg0 Mg3 3.387837 1_655
Mg0 Mg5 3.387837 1_545
Mg0 Mg1 3.509748 1_655
Mg0 Mg1 3.509748 1_545
Mg1 Mg8 3.179289 1_555
Mg1 Mg6 3.179289 1_555
Mg1 Mg9 3.179289 1_554
Mg1 Mg7 3.179289 1_554
Mg1 Mg12 3.226303 1_555
Mg1 Mg13 3.226303 1_554
Mg1 Mg3 3.337371 1_565
Mg1 Mg5 3.337371 1_455
Mg1 Mg3 3.343529 1_555
Mg1 Mg5 3.343529 1_555
Mg2 Mg4 3.483192 1_555
Mg2 Mg6 3.485771 1_555
Mg2 Mg7 3.485771 1_555
Mg2 Mg4 3.536132 1_445
Mg3 Mg6 3.082704 1_555
Mg3 Mg7 3.082704 1_554
Mg3 Mg5 3.464872 1_555
Mg3 Mg5 3.554452 1_445
Mg4 Mg8 3.485771 1_555
Mg4 Mg9 3.485771 1_555
Mg5 Mg8 3.082704 1_555
Mg5 Mg9 3.082704 1_554
Mg6 Mg8 3.338987 1_445
Mg7 Mg9 3.338987 1_445
Mg10 Mg3 3.283762 1_555
Mg10 Mg5 3.283762 1_555
Mg10 Mg4 3.292599 1_555
Mg10 Mg2 3.292599 1_555
Mg10 Mg6 3.349279 1_555
Mg10 Mg8 3.349279 1_555
Mg10 Mg8 3.350921 1_545
Mg10 Mg6 3.350921 1_655
Mg10 Mg12 3.513860 1_545
Mg10 Mg12 3.513860 1_655
Mg11 Mg3 3.283762 1_556
Mg11 Mg5 3.283762 1_556
Mg11 Mg4 3.292599 1_555
Mg11 Mg2 3.292599 1_555
Mg11 Mg7 3.349279 1_555
Mg11 Mg9 3.349279 1_555
Mg11 Mg9 3.350921 1_545
Mg11 Mg7 3.350921 1_655
Mg11 Mg13 3.513860 1_545
Mg11 Mg13 3.513860 1_655
Mg12 Mg5 3.167656 1_455
Mg12 Mg3 3.167656 1_565
Mg12 Mg6 3.176583 1_565
Mg12 Mg8 3.176583 1_455
Mg12 Mg2 3.406012 1_565
Mg12 Mg4 3.406012 1_455
Mg12 Mg8 3.506362 1_555
Mg12 Mg6 3.506362 1_555
Mg13 Mg3 3.167656 1_566
Mg13 Mg5 3.167656 1_456
Mg13 Mg9 3.176583 1_455
Mg13 Mg7 3.176583 1_565
Mg13 Mg2 3.406012 1_565
Mg13 Mg4 3.406012 1_455
Mg13 Mg9 3.506362 1_555
Mg13 Mg7 3.506362 1_555
