# generated using pymatgen
data_Mg6GaSn
_symmetry_space_group_name_H-M   'P 1'
_cell_length_a   5.32203300
_cell_length_b   6.20978000
_cell_length_c   10.84511700
_cell_angle_alpha   90.00000000
_cell_angle_beta   90.00000000
_cell_angle_gamma   90.00000000
_symmetry_Int_Tables_number   1
_chemical_formula_structural   Mg6GaSn
_chemical_formula_sum   'Mg12 Ga2 Sn2'
_cell_volume   358.41652022
_cell_formula_units_Z   2
loop_
 _symmetry_equiv_pos_site_id
 _symmetry_equiv_pos_as_xyz
  1  'x, y, z'
loop_
 _atom_site_type_symbol
 _atom_site_label
 _atom_site_symmetry_multiplicity
 _atom_site_fract_x
 _atom_site_fract_y
 _atom_site_fract_z
 _atom_site_occupancy
  Mg  Mg0  1  0.00000000  0.74698300  0.08546800  1
  Mg  Mg1  1  0.00000000  0.25301700  0.08546800  1
  Mg  Mg2  1  0.00000000  0.00000000  0.33299000  1
  Mg  Mg3  1  0.50000000  0.24946700  0.41609000  1
  Mg  Mg4  1  0.50000000  0.75053300  0.41609000  1
  Mg  Mg5  1  0.50000000  0.00000000  0.16727500  1
  Mg  Mg6  1  0.00000000  0.24698300  0.58546800  1
  Mg  Mg7  1  0.00000000  0.75301700  0.58546800  1
  Mg  Mg8  1  0.00000000  0.50000000  0.83299000  1
  Mg  Mg9  1  0.50000000  0.74946700  0.91609000  1
  Mg  Mg10  1  0.50000000  0.25053300  0.91609000  1
  Mg  Mg11  1  0.50000000  0.50000000  0.66727500  1
  Ga  Ga0  1  0.50000000  0.50000000  0.16315200  1
  Ga  Ga1  1  0.50000000  0.00000000  0.66315200  1
  Sn  Sn0  1  0.00000000  0.50000000  0.33346700  1
  Sn  Sn1  1  0.00000000  0.00000000  0.83346700  1
loop_
_geom_bond_atom_site_label_1
_geom_bond_atom_site_label_2
_geom_bond_distance
_geom_bond_site_symmetry_2
Mg0 Mg1 3.067420 1_555
Mg0 Sn0 3.096142 1_555
Mg0 Mg2 3.110408 1_565
Mg0 Mg8 3.138431 1_554
Mg0 Mg1 3.142360 1_565
Mg0 Sn1 3.152426 1_564
Mg0 Mg5 3.215082 1_565
Mg0 Mg5 3.215082 1_465
Mg0 Mg9 3.233502 1_454
Mg0 Mg9 3.233502 1_554
Mg1 Sn0 3.096142 1_555
Mg1 Mg2 3.110408 1_555
Mg1 Mg8 3.138431 1_554
Mg1 Sn1 3.152426 1_554
Mg1 Mg5 3.215082 1_555
Mg1 Mg5 3.215082 1_455
Mg1 Mg10 3.233502 1_554
Mg1 Mg10 3.233502 1_454
Mg2 Sn0 3.104894 1_555
Mg2 Sn0 3.104894 1_545
Mg2 Mg6 3.138431 1_555
Mg2 Mg7 3.138431 1_545
Mg2 Mg4 3.208277 1_445
Mg2 Mg4 3.208277 1_545
Mg2 Mg3 3.208277 1_455
Mg2 Mg3 3.208277 1_555
Mg2 Mg5 3.211064 1_555
Mg2 Mg5 3.211064 1_455
Mg3 Mg4 3.098270 1_545
Mg3 Mg5 3.111484 1_555
Mg3 Mg4 3.111510 1_555
Mg3 Sn0 3.210031 1_655
Mg3 Sn0 3.210031 1_555
Mg3 Mg6 3.233502 1_655
Mg3 Mg6 3.233502 1_555
Mg4 Mg5 3.111484 1_565
Mg4 Sn0 3.210031 1_655
Mg4 Sn0 3.210031 1_555
Mg4 Mg7 3.233502 1_555
Mg4 Mg7 3.233502 1_655
Mg5 Mg9 3.137078 1_544
Mg6 Mg7 3.067420 1_545
Mg6 Sn1 3.096142 1_555
Mg6 Mg8 3.110408 1_555
Mg6 Mg7 3.142360 1_555
Mg6 Sn0 3.152426 1_555
Mg7 Sn1 3.096142 1_565
Mg7 Mg8 3.110408 1_555
Mg7 Sn0 3.152426 1_555
Mg8 Sn1 3.104894 1_555
Mg8 Sn1 3.104894 1_565
Mg8 Mg9 3.208277 1_455
Mg8 Mg9 3.208277 1_555
Mg9 Sn1 3.210031 1_565
Mg9 Sn1 3.210031 1_665
Mg10 Mg9 3.098270 1_555
Mg10 Mg11 3.111484 1_555
Mg10 Mg9 3.111510 1_545
Mg10 Mg5 3.137078 1_556
Mg10 Mg8 3.208277 1_555
Mg10 Mg8 3.208277 1_655
Mg10 Sn1 3.210031 1_555
Mg10 Sn1 3.210031 1_655
Mg11 Mg9 3.111484 1_555
Mg11 Mg4 3.137078 1_555
Mg11 Mg3 3.137078 1_555
Mg11 Mg8 3.211064 1_655
Mg11 Mg8 3.211064 1_555
Mg11 Mg6 3.215082 1_555
Mg11 Mg6 3.215082 1_655
Mg11 Mg7 3.215082 1_555
Mg11 Mg7 3.215082 1_655
Ga0 Mg10 3.095011 1_554
Ga0 Mg9 3.095011 1_554
Ga0 Mg5 3.105212 1_555
Ga0 Mg5 3.105212 1_565
Ga0 Mg3 3.153601 1_555
Ga0 Mg4 3.153601 1_555
Ga0 Mg1 3.184818 1_555
Ga0 Mg0 3.184818 1_655
Ga0 Mg1 3.184818 1_655
Ga0 Mg0 3.184818 1_555
Ga0 Sn0 3.239249 1_555
Ga0 Sn0 3.239249 1_655
Ga1 Mg3 3.095011 1_555
Ga1 Mg4 3.095011 1_545
Ga1 Mg11 3.105212 1_545
Ga1 Mg11 3.105212 1_555
Ga1 Mg9 3.153601 1_545
Ga1 Mg10 3.153601 1_555
Ga1 Mg6 3.184818 1_655
Ga1 Mg6 3.184818 1_555
Ga1 Mg7 3.184818 1_545
Ga1 Mg7 3.184818 1_645
Ga1 Sn1 3.239249 1_655
Ga1 Sn1 3.239249 1_555
