# generated using pymatgen
data_Sr(GaRh)2
_symmetry_space_group_name_H-M   'P 1'
_cell_length_a   8.51383844
_cell_length_b   7.29979354
_cell_length_c   5.99843876
_cell_angle_alpha   78.95150032
_cell_angle_beta   57.30009129
_cell_angle_gamma   43.74840839
_symmetry_Int_Tables_number   1
_chemical_formula_structural   Sr(GaRh)2
_chemical_formula_sum   'Sr2 Ga4 Rh4'
_cell_volume   203.90312876
_cell_formula_units_Z   2
loop_
 _symmetry_equiv_pos_site_id
 _symmetry_equiv_pos_as_xyz
  1  'x, y, z'
loop_
 _atom_site_type_symbol
 _atom_site_label
 _atom_site_symmetry_multiplicity
 _atom_site_fract_x
 _atom_site_fract_y
 _atom_site_fract_z
 _atom_site_occupancy
  Sr  Sr0  1  0.50000000  0.50000000  0.50000000  1
  Sr  Sr1  1  0.75000000  0.75000000  0.75000000  1
  Ga  Ga0  1  0.81956068  0.18043932  0.81956068  1
  Ga  Ga1  1  0.18043932  0.81956068  0.18043932  1
  Ga  Ga2  1  0.43043932  0.06956068  0.43043932  1
  Ga  Ga3  1  0.06956068  0.43043932  0.06956068  1
  Rh  Rh0  1  0.11676415  0.11676415  0.88323585  1
  Rh  Rh1  1  0.88323585  0.88323585  0.11676415  1
  Rh  Rh2  1  0.13323585  0.13323585  0.36676415  1
  Rh  Rh3  1  0.36676415  0.36676415  0.13323585  1
loop_
_geom_bond_atom_site_label_1
_geom_bond_atom_site_label_2
_geom_bond_distance
_geom_bond_site_symmetry_2
Ga0 Rh2 2.412417 1_655
Ga0 Rh3 2.412417 1_556
Ga0 Rh1 2.457951 1_546
Ga0 Rh0 2.457951 1_655
Ga0 Sr0 3.357052 1_555
Ga0 Sr0 3.461867 1_556
Ga0 Sr0 3.461867 1_645
Ga0 Sr1 3.722330 1_555
Ga0 Sr1 3.722330 1_545
Ga1 Rh2 2.412417 1_565
Ga1 Rh3 2.412417 1_555
Ga1 Rh0 2.457951 1_564
Ga1 Rh1 2.457951 1_455
Ga1 Sr0 3.357052 1_555
Ga1 Sr0 3.461867 1_465
Ga1 Sr0 3.461867 1_554
Ga1 Sr1 3.722330 1_554
Ga1 Sr1 3.722330 1_455
Ga2 Rh0 2.412417 1_555
Ga2 Rh1 2.412417 1_545
Ga2 Rh3 2.457951 1_555
Ga2 Rh2 2.457951 1_555
Ga2 Sr1 3.357052 1_545
Ga2 Sr1 3.461867 1_455
Ga2 Sr1 3.461867 1_544
Ga2 Sr0 3.722330 1_555
Ga2 Sr0 3.722330 1_545
Ga3 Rh0 2.412417 1_554
Ga3 Rh1 2.412417 1_455
Ga3 Rh3 2.457951 1_555
Ga3 Rh2 2.457951 1_555
Ga3 Sr1 3.357052 1_454
Ga3 Sr1 3.461867 1_455
Ga3 Sr1 3.461867 1_544
Ga3 Sr0 3.722330 1_455
Ga3 Sr0 3.722330 1_554
Rh0 Sr0 3.292386 1_456
Rh0 Sr0 3.292386 1_545
Rh0 Sr1 3.490448 1_545
Rh0 Sr1 3.490448 1_455
Rh1 Sr0 3.292386 1_565
Rh1 Sr0 3.292386 1_654
Rh1 Sr1 3.490448 1_555
Rh1 Sr1 3.490448 1_554
Rh2 Sr1 3.292386 1_455
Rh2 Sr1 3.292386 1_544
Rh2 Sr0 3.490448 1_545
Rh2 Sr0 3.490448 1_455
Rh3 Sr1 3.292386 1_455
Rh3 Sr1 3.292386 1_544
Rh3 Sr0 3.490448 1_554
Rh3 Sr0 3.490448 1_555
