# generated using pymatgen
data_Ba2Pb(SO4)3
_symmetry_space_group_name_H-M   'P 1'
_cell_length_a   5.54427500
_cell_length_b   8.87033600
_cell_length_c   21.61476384
_cell_angle_alpha   89.71529812
_cell_angle_beta   90.00000000
_cell_angle_gamma   90.00000000
_symmetry_Int_Tables_number   1
_chemical_formula_structural   Ba2Pb(SO4)3
_chemical_formula_sum   'Ba8 Pb4 S12 O48'
_cell_volume   1062.99193033
_cell_formula_units_Z   4
loop_
 _symmetry_equiv_pos_site_id
 _symmetry_equiv_pos_as_xyz
  1  'x, y, z'
loop_
 _atom_site_type_symbol
 _atom_site_label
 _atom_site_symmetry_multiplicity
 _atom_site_fract_x
 _atom_site_fract_y
 _atom_site_fract_z
 _atom_site_occupancy
  Ba  Ba0  1  0.00000000  0.18564600  0.61421700  1
  Ba  Ba1  1  0.00000000  0.18550700  0.28016600  1
  Ba  Ba2  1  0.50000000  0.31870700  0.78109000  1
  Ba  Ba3  1  0.50000000  0.31799200  0.44733100  1
  Ba  Ba4  1  0.50000000  0.31665000  0.11373600  1
  Ba  Ba5  1  0.50000000  0.81559700  0.71990800  1
  Ba  Ba6  1  0.50000000  0.81535200  0.38604400  1
  Ba  Ba7  1  0.50000000  0.81677400  0.05220000  1
  Pb  Pb0  1  0.00000000  0.69455800  0.89005400  1
  Pb  Pb1  1  0.00000000  0.68893200  0.55527300  1
  Pb  Pb2  1  0.00000000  0.68918400  0.22183600  1
  Pb  Pb3  1  0.00000000  0.19357000  0.94577700  1
  S  S0  1  0.50000000  0.93566400  0.89523900  1
  S  S1  1  0.50000000  0.93117000  0.56220400  1
  S  S2  1  0.50000000  0.93081900  0.22857600  1
  S  S3  1  0.50000000  0.43559000  0.93788800  1
  S  S4  1  0.50000000  0.44177900  0.60379500  1
  S  S5  1  0.50000000  0.44181800  0.27037000  1
  S  S6  1  0.00000000  0.06151200  0.77242300  1
  S  S7  1  0.00000000  0.06191500  0.43755500  1
  S  S8  1  0.00000000  0.06280000  0.10284200  1
  S  S9  1  0.00000000  0.56389800  0.72969200  1
  S  S10  1  0.00000000  0.56378300  0.39612900  1
  S  S11  1  0.00000000  0.56202600  0.06176800  1
  O  O0  1  0.50000000  0.08595300  0.86624200  1
  O  O1  1  0.50000000  0.08410500  0.53500200  1
  O  O2  1  0.50000000  0.08386600  0.20153800  1
  O  O3  1  0.50000000  0.58559000  0.96676200  1
  O  O4  1  0.50000000  0.58897800  0.63468400  1
  O  O5  1  0.50000000  0.58895900  0.30135000  1
  O  O6  1  0.00000000  0.90866500  0.80005000  1
  O  O7  1  0.00000000  0.91062400  0.46655000  1
  O  O8  1  0.00000000  0.91117900  0.13184300  1
  O  O9  1  0.00000000  0.41163700  0.70223700  1
  O  O10  1  0.00000000  0.41168800  0.36861900  1
  O  O11  1  0.00000000  0.40955700  0.03407900  1
  O  O12  1  0.27841700  0.91927600  0.93584000  1
  O  O13  1  0.27952800  0.91256400  0.60269000  1
  O  O14  1  0.27946800  0.91205300  0.26904500  1
  O  O15  1  0.72150200  0.41979600  0.89738600  1
  O  O16  1  0.72019800  0.42839100  0.56309800  1
  O  O17  1  0.72026900  0.42862500  0.22972800  1
  O  O18  1  0.78177100  0.08063600  0.73176600  1
  O  O19  1  0.78132800  0.07918800  0.39687800  1
  O  O20  1  0.78124200  0.08035400  0.06227600  1
  O  O21  1  0.21865300  0.58245900  0.76999400  1
  O  O22  1  0.21850200  0.58233300  0.43649800  1
  O  O23  1  0.21842600  0.58075300  0.10202300  1
  O  O24  1  0.21822900  0.08063600  0.73176600  1
  O  O25  1  0.21867200  0.07918800  0.39687800  1
  O  O26  1  0.21875800  0.08035400  0.06227600  1
  O  O27  1  0.78134700  0.58245900  0.76999400  1
  O  O28  1  0.78149800  0.58233300  0.43649800  1
  O  O29  1  0.78157400  0.58075300  0.10202300  1
  O  O30  1  0.72158300  0.91927600  0.93584000  1
  O  O31  1  0.72047200  0.91256400  0.60269000  1
  O  O32  1  0.72053200  0.91205300  0.26904500  1
  O  O33  1  0.27849800  0.41979600  0.89738600  1
  O  O34  1  0.27980200  0.42839100  0.56309800  1
  O  O35  1  0.27973100  0.42862500  0.22972800  1
  O  O36  1  0.50000000  0.81015100  0.84984000  1
  O  O37  1  0.50000000  0.80957800  0.51523500  1
  O  O38  1  0.50000000  0.80936400  0.18154500  1
  O  O39  1  0.50000000  0.30961900  0.98363700  1
  O  O40  1  0.50000000  0.31307300  0.64858000  1
  O  O41  1  0.50000000  0.31306800  0.31514200  1
  O  O42  1  0.00000000  0.18328200  0.82004100  1
  O  O43  1  0.00000000  0.18563500  0.48398900  1
  O  O44  1  0.00000000  0.18585800  0.14971400  1
  O  O45  1  0.00000000  0.68553500  0.68135200  1
  O  O46  1  0.00000000  0.68562500  0.34787000  1
  O  O47  1  0.00000000  0.68431700  0.01354000  1
loop_
_geom_bond_atom_site_label_1
_geom_bond_atom_site_label_2
_geom_bond_distance
_geom_bond_site_symmetry_2
Ba0 O9 2.770562 1_555
Ba0 O43 2.814848 1_555
Ba0 O34 2.870565 1_555
Ba0 O16 2.870565 1_455
Ba0 O31 2.887485 1_445
Ba0 O13 2.887485 1_545
Ba0 O24 2.960349 1_555
Ba0 O18 2.960349 1_455
Ba0 O40 3.085837 1_455
Ba0 O40 3.085837 1_555
Ba0 O1 3.382752 1_555
Ba0 O1 3.382752 1_455
Ba1 O10 2.778253 1_555
Ba1 O44 2.819675 1_555
Ba1 O35 2.867255 1_555
Ba1 O17 2.867255 1_455
Ba1 O14 2.889297 1_545
Ba1 O32 2.889297 1_445
Ba1 O25 2.949517 1_555
Ba1 O19 2.949517 1_455
Ba1 O41 3.089513 1_555
Ba1 O41 3.089513 1_455
Ba1 O2 3.376570 1_455
Ba1 O2 3.376570 1_555
Ba2 O0 2.759062 1_555
Ba2 O27 2.821118 1_555
Ba2 O21 2.821118 1_555
Ba2 O18 2.838854 1_555
Ba2 O24 2.838854 1_555
Ba2 O40 2.864857 1_555
Ba2 O15 2.941658 1_555
Ba2 O33 2.941658 1_555
Ba2 O42 3.134734 1_655
Ba2 O42 3.134734 1_555
Ba2 O9 3.354881 1_655
Ba2 O9 3.354881 1_555
Ba3 O1 2.802875 1_555
Ba3 O28 2.825459 1_555
Ba3 O22 2.825459 1_555
Ba3 O19 2.851690 1_555
Ba3 O25 2.851690 1_555
Ba3 O41 2.857785 1_555
Ba3 O34 2.955532 1_555
Ba3 O16 2.955532 1_555
Ba3 O43 3.111547 1_655
Ba3 O43 3.111547 1_555
Ba3 O10 3.354998 1_555
Ba3 O10 3.354998 1_655
Ba4 O2 2.797583 1_555
Ba4 O39 2.813060 1_554
Ba4 O29 2.825504 1_555
Ba4 O23 2.825504 1_555
Ba4 O20 2.843423 1_555
Ba4 O26 2.843423 1_555
Ba4 O17 2.964534 1_555
Ba4 O35 2.964534 1_555
Ba4 O44 3.102664 1_655
Ba4 O44 3.102664 1_555
Ba4 O11 3.363673 1_655
Ba4 O11 3.363673 1_555
Ba5 O4 2.733308 1_555
Ba5 O21 2.803502 1_555
Ba5 O27 2.803502 1_555
Ba5 O36 2.808625 1_555
Ba5 O18 2.835371 1_565
Ba5 O24 2.835371 1_565
Ba5 O13 2.937967 1_555
Ba5 O31 2.937967 1_555
Ba5 O45 3.117664 1_655
Ba5 O45 3.117664 1_555
Ba5 O6 3.373599 1_555
Ba5 O6 3.373599 1_655
Ba6 O5 2.724073 1_555
Ba6 O37 2.792648 1_555
Ba6 O28 2.806244 1_555
Ba6 O22 2.806244 1_555
Ba6 O19 2.823155 1_565
Ba6 O25 2.823155 1_565
Ba6 O14 2.933351 1_555
Ba6 O32 2.933351 1_555
Ba6 O46 3.114349 1_555
Ba6 O46 3.114349 1_655
Ba6 O7 3.382537 1_555
Ba6 O7 3.382537 1_655
Ba7 O3 2.766461 1_554
Ba7 O38 2.796208 1_555
Ba7 O20 2.819628 1_565
Ba7 O26 2.819628 1_565
Ba7 O29 2.820912 1_555
Ba7 O23 2.820912 1_555
Ba7 O30 2.939204 1_554
Ba7 O12 2.939204 1_554
Ba7 O47 3.126221 1_555
Ba7 O47 3.126221 1_655
Ba7 O8 3.371017 1_555
Ba7 O8 3.371017 1_655
O0 S0 1.470279 1_545
O1 S1 1.475838 1_545
O2 S2 1.475358 1_545
O3 S3 1.472455 1_555
O4 S4 1.469454 1_555
O5 S5 1.469900 1_555
O6 S6 1.478766 1_565
O6 Pb0 2.711989 1_555
O7 S7 1.478306 1_565
O7 Pb1 2.739936 1_555
O8 S8 1.481012 1_565
O8 Pb2 2.761029 1_555
O9 S9 1.477926 1_555
O10 S10 1.477061 1_555
O11 S11 1.481675 1_555
O11 Pb3 2.711048 1_554
O12 S0 1.516333 1_555
O12 Pb0 2.712033 1_555
O13 S1 1.511871 1_555
O13 Pb1 2.721670 1_555
O14 S2 1.512079 1_555
O14 Pb2 2.714829 1_555
O15 S3 1.515056 1_555
O15 Pb3 2.735721 1_655
O16 S4 1.509762 1_555
O16 Pb1 2.787897 1_655
O17 S5 1.509248 1_555
O17 Pb2 2.787893 1_655
O18 S6 1.504487 1_655
O19 S7 1.505002 1_655
O20 S8 1.504236 1_655
O21 S9 1.502326 1_555
O22 S10 1.502481 1_555
O23 S11 1.500887 1_555
O24 S6 1.504487 1_555
O25 S7 1.505002 1_555
O26 S8 1.504236 1_555
O27 S9 1.502326 1_655
O28 S10 1.502481 1_655
O29 S11 1.500887 1_655
O30 S0 1.516333 1_555
O30 Pb0 2.712033 1_655
O31 S1 1.511871 1_555
O31 Pb1 2.721670 1_655
O32 S2 1.512079 1_555
O32 Pb2 2.714829 1_655
O33 S3 1.515056 1_555
O33 Pb3 2.735721 1_555
O34 S4 1.509762 1_555
O34 Pb1 2.787897 1_555
O35 S5 1.509248 1_555
O35 Pb2 2.787893 1_555
O36 S0 1.487722 1_555
O37 S1 1.484876 1_555
O38 S2 1.484911 1_555
O39 S3 1.488437 1_555
O40 S4 1.493142 1_555
O41 S5 1.493259 1_555
O42 S6 1.495698 1_555
O42 Pb3 2.719739 1_555
O43 S7 1.490855 1_555
O44 S8 1.492961 1_555
O45 S9 1.498226 1_555
O45 Pb1 2.725185 1_555
O46 S10 1.498317 1_555
O46 Pb2 2.724221 1_555
O47 S11 1.500715 1_555
O47 Pb0 2.670215 1_554
