# generated using pymatgen
data_Y3Mn2Sb3O14
_symmetry_space_group_name_H-M   'P 1'
_cell_length_a   7.25509186
_cell_length_b   7.25506543
_cell_length_c   7.25505823
_cell_angle_alpha   117.98740876
_cell_angle_beta   62.01257651
_cell_angle_gamma   117.98735341
_symmetry_Int_Tables_number   1
_chemical_formula_structural   Y3Mn2Sb3O14
_chemical_formula_sum   'Y3 Mn2 Sb3 O14'
_cell_volume   282.18363884
_cell_formula_units_Z   1
loop_
 _symmetry_equiv_pos_site_id
 _symmetry_equiv_pos_as_xyz
  1  'x, y, z'
loop_
 _atom_site_type_symbol
 _atom_site_label
 _atom_site_symmetry_multiplicity
 _atom_site_fract_x
 _atom_site_fract_y
 _atom_site_fract_z
 _atom_site_occupancy
  Y  Y0  1  0.99999400  0.49999700  0.00000300  1
  Y  Y1  1  0.50000600  0.00000300  0.00000000  1
  Y  Y2  1  0.49999600  0.49999700  0.50000000  1
  Mn  Mn0  1  0.49998900  0.50002000  0.99998600  1
  Mn  Mn1  1  0.00002300  0.00001700  0.50000600  1
  Sb  Sb0  1  0.49999800  0.99999900  0.50000000  1
  Sb  Sb1  1  0.00000100  0.49999700  0.50000200  1
  Sb  Sb2  1  0.00000000  0.99999900  0.99999900  1
  O  O0  1  0.61913800  0.38086200  0.11914400  1
  O  O1  1  0.38086000  0.61913700  0.88085800  1
  O  O2  1  0.08341500  0.32221300  0.17778800  1
  O  O3  1  0.67778600  0.91658300  0.17778600  1
  O  O4  1  0.67778800  0.32221200  0.58341600  1
  O  O5  1  0.91658400  0.67778400  0.82221200  1
  O  O6  1  0.32221400  0.08341300  0.82221500  1
  O  O7  1  0.32221400  0.67778600  0.41658500  1
  O  O8  1  0.64132600  0.90300400  0.59699100  1
  O  O9  1  0.09699300  0.35866900  0.59699100  1
  O  O10  1  0.09699100  0.90300300  0.14132700  1
  O  O11  1  0.35867100  0.09699100  0.40301000  1
  O  O12  1  0.90300800  0.64132600  0.40301000  1
  O  O13  1  0.90300600  0.09699000  0.85867100  1
loop_
_geom_bond_atom_site_label_1
_geom_bond_atom_site_label_2
_geom_bond_distance
_geom_bond_site_symmetry_2
Mn0 O1 2.084218 1_555
Mn0 O0 2.084748 1_556
Mn0 O3 2.589486 1_556
Mn0 O4 2.589530 1_555
Mn0 O2 2.589564 1_556
Mn0 O5 2.589576 1_555
Mn0 O7 2.589589 1_556
Mn0 O6 2.589641 1_555
Mn1 O11 2.188302 1_555
Mn1 O9 2.188329 1_555
Mn1 O13 2.188387 1_455
Mn1 O10 2.188482 1_545
Mn1 O12 2.188545 1_445
Mn1 O8 2.188600 1_445
O0 Y2 2.312394 1_555
O0 Y0 2.312406 1_555
O0 Y1 2.312417 1_555
O1 Y2 2.312407 1_555
O1 Y1 2.312458 1_566
O1 Y0 2.312467 1_456
O2 Sb1 2.017311 1_555
O2 Sb2 2.017323 1_544
O2 Y0 2.592387 1_455
O3 Sb0 2.017320 1_555
O3 Sb2 2.017325 1_654
O3 Y1 2.592366 1_565
O4 Sb1 2.017317 1_655
O4 Sb0 2.017321 1_545
O4 Y2 2.592414 1_555
O5 Sb1 2.017297 1_655
O5 Sb2 2.017325 1_655
O5 Y0 2.592386 1_556
O6 Sb0 2.017317 1_545
O6 Sb2 2.017319 1_545
O6 Y1 2.592383 1_556
O7 Sb0 2.017311 1_555
O7 Sb1 2.017325 1_555
O7 Y2 2.592372 1_555
O8 Sb0 1.964901 1_555
O8 Y2 2.455152 1_555
O8 Y1 2.455156 1_566
O9 Sb1 1.964872 1_555
O9 Y2 2.455136 1_555
O9 Y0 2.455175 1_456
O10 Sb2 1.964905 1_554
O10 Y0 2.455142 1_455
O10 Y1 2.455206 1_565
O11 Sb0 1.964872 1_545
O11 Y2 2.455147 1_555
O11 Y1 2.455168 1_555
O12 Sb1 1.964900 1_655
O12 Y0 2.455151 1_555
O12 Y2 2.455193 1_555
O13 Sb2 1.964894 1_645
O13 Y1 2.455119 1_556
O13 Y0 2.455153 1_556
