# generated using pymatgen
data_Mn(BH4)2
_symmetry_space_group_name_H-M   'P 1'
_cell_length_a   10.27996985
_cell_length_b   10.27996985
_cell_length_c   10.97785800
_cell_angle_alpha   90.00000000
_cell_angle_beta   90.00000000
_cell_angle_gamma   119.99999905
_symmetry_Int_Tables_number   1
_chemical_formula_structural   Mn(BH4)2
_chemical_formula_sum   'Mn9 B18 H72'
_cell_volume   1004.68964637
_cell_formula_units_Z   9
loop_
 _symmetry_equiv_pos_site_id
 _symmetry_equiv_pos_as_xyz
  1  'x, y, z'
loop_
 _atom_site_type_symbol
 _atom_site_label
 _atom_site_symmetry_multiplicity
 _atom_site_fract_x
 _atom_site_fract_y
 _atom_site_fract_z
 _atom_site_occupancy
  Mn  Mn0  1  0.44541400  0.01989500  0.87784100  1
  Mn  Mn1  1  0.98010500  0.42551900  0.21117400  1
  Mn  Mn2  1  0.57448100  0.55458600  0.54450800  1
  Mn  Mn3  1  0.57448100  0.01989500  0.45549200  1
  Mn  Mn4  1  0.44541400  0.42551900  0.12215900  1
  Mn  Mn5  1  0.98010500  0.55458600  0.78882600  1
  Mn  Mn6  1  0.10010800  0.89989200  0.33333300  1
  Mn  Mn7  1  0.10010800  0.20021600  0.66666700  1
  Mn  Mn8  1  0.79978400  0.89989200  0.00000000  1
  B  B0  1  0.62102600  0.98215300  0.00221700  1
  B  B1  1  0.01784700  0.63887400  0.33555000  1
  B  B2  1  0.36112600  0.37897400  0.66888400  1
  B  B3  1  0.36112600  0.98215300  0.33111600  1
  B  B4  1  0.62102600  0.63887400  0.99778300  1
  B  B5  1  0.01784700  0.37897400  0.66445000  1
  B  B6  1  0.19797400  0.80202600  0.83333300  1
  B  B7  1  0.19797400  0.39594800  0.16666700  1
  B  B8  1  0.60405200  0.80202600  0.50000000  1
  B  B9  1  0.43872400  0.21936200  0.00000000  1
  B  B10  1  0.78063800  0.21936200  0.33333300  1
  B  B11  1  0.78063800  0.56127600  0.66666700  1
  B  B12  1  0.53193000  0.06386000  0.66666700  1
  B  B13  1  0.93614000  0.46807000  0.00000000  1
  B  B14  1  0.53193000  0.46807000  0.33333300  1
  B  B15  1  0.96637200  0.93274400  0.16666700  1
  B  B16  1  0.06725600  0.03362800  0.50000000  1
  B  B17  1  0.96637200  0.03362800  0.83333300  1
  H  H0  1  0.75585700  0.07342700  0.99200200  1
  H  H1  1  0.92657300  0.68243100  0.32533500  1
  H  H2  1  0.31756900  0.24414300  0.65866900  1
  H  H3  1  0.31756900  0.07342700  0.34133100  1
  H  H4  1  0.75585700  0.68243100  0.00799800  1
  H  H5  1  0.92657300  0.24414300  0.67466500  1
  H  H6  1  0.59239600  0.88676800  0.08000600  1
  H  H7  1  0.11323200  0.70562700  0.41333900  1
  H  H8  1  0.29437300  0.40760400  0.74667200  1
  H  H9  1  0.29437300  0.88676800  0.25332800  1
  H  H10  1  0.59239600  0.70562700  0.91999400  1
  H  H11  1  0.11323200  0.40760400  0.58666100  1
  H  H12  1  0.57416700  0.91964700  0.90279600  1
  H  H13  1  0.08035300  0.65452000  0.23613000  1
  H  H14  1  0.34548000  0.42583300  0.56946300  1
  H  H15  1  0.34548000  0.91964700  0.43053700  1
  H  H16  1  0.57416700  0.65452000  0.09720400  1
  H  H17  1  0.08035300  0.42583300  0.76387000  1
  H  H18  1  0.56615200  0.05768300  0.03561300  1
  H  H19  1  0.94231700  0.50846900  0.36894600  1
  H  H20  1  0.49153100  0.43384800  0.70227900  1
  H  H21  1  0.49153100  0.05768300  0.29772100  1
  H  H22  1  0.56615200  0.50846900  0.96438700  1
  H  H23  1  0.94231700  0.43384800  0.63105400  1
  H  H24  1  0.23813500  0.92508900  0.78615500  1
  H  H25  1  0.07491100  0.31304700  0.11948800  1
  H  H26  1  0.68695300  0.76186500  0.45282200  1
  H  H27  1  0.68695300  0.92508900  0.54717800  1
  H  H28  1  0.23813500  0.31304700  0.21384500  1
  H  H29  1  0.07491100  0.76186500  0.88051200  1
  H  H30  1  0.28214200  0.80407300  0.91517500  1
  H  H31  1  0.19592700  0.47806900  0.24850800  1
  H  H32  1  0.52193100  0.71785800  0.58184100  1
  H  H33  1  0.52193100  0.80407300  0.41815900  1
  H  H34  1  0.28214200  0.47806900  0.08482500  1
  H  H35  1  0.19592700  0.71785800  0.75149200  1
  H  H36  1  0.52459500  0.28317200  0.08689000  1
  H  H37  1  0.71682800  0.24142200  0.42022400  1
  H  H38  1  0.75857800  0.47540500  0.75355700  1
  H  H39  1  0.75857800  0.28317200  0.24644300  1
  H  H40  1  0.52459500  0.24142200  0.91311000  1
  H  H41  1  0.71682800  0.47540500  0.57977600  1
  H  H42  1  0.35855900  0.08638400  0.02830000  1
  H  H43  1  0.91361600  0.27217500  0.36163400  1
  H  H44  1  0.72782500  0.64144100  0.69496700  1
  H  H45  1  0.72782500  0.08638400  0.30503300  1
  H  H46  1  0.35855900  0.27217500  0.97170000  1
  H  H47  1  0.91361600  0.64144100  0.63836600  1
  H  H48  1  0.65507700  0.14543900  0.61937300  1
  H  H49  1  0.85456100  0.50963800  0.95270700  1
  H  H50  1  0.49036200  0.34492300  0.28604000  1
  H  H51  1  0.49036200  0.14543900  0.71396000  1
  H  H52  1  0.65507700  0.50963800  0.38062700  1
  H  H53  1  0.85456100  0.34492300  0.04729300  1
  H  H54  1  0.54827400  0.98069900  0.73753900  1
  H  H55  1  0.01930100  0.56757600  0.07087200  1
  H  H56  1  0.43242400  0.45172600  0.40420600  1
  H  H57  1  0.43242400  0.98069900  0.59579400  1
  H  H58  1  0.54827400  0.56757600  0.26246100  1
  H  H59  1  0.01930100  0.45172600  0.92912800  1
  H  H60  1  0.91388100  0.01635900  0.15069400  1
  H  H61  1  0.98364100  0.89752200  0.48402700  1
  H  H62  1  0.10247800  0.08611900  0.81736000  1
  H  H63  1  0.10247800  0.01635900  0.18264000  1
  H  H64  1  0.91388100  0.89752200  0.84930600  1
  H  H65  1  0.98364100  0.08611900  0.51597300  1
  H  H66  1  0.95407200  0.85221000  0.07966300  1
  H  H67  1  0.14779000  0.10186100  0.41299600  1
  H  H68  1  0.89813900  0.04592800  0.74633000  1
  H  H69  1  0.89813900  0.85221000  0.25367000  1
  H  H70  1  0.95407200  0.10186100  0.92033700  1
  H  H71  1  0.14779000  0.04592800  0.58700400  1
loop_
_geom_bond_atom_site_label_1
_geom_bond_atom_site_label_2
_geom_bond_distance
_geom_bond_site_symmetry_2
B0 H6 1.220147 1_555
B0 H18 1.222082 1_565
B0 H0 1.230284 1_564
B0 H12 1.235564 1_554
B1 H7 1.220144 1_555
B1 H19 1.222090 1_455
B1 H1 1.230284 1_455
B1 H13 1.235556 1_555
B2 H8 1.220125 1_555
B2 H20 1.222088 1_555
B2 H2 1.230284 1_555
B2 H14 1.235561 1_555
B3 H9 1.220136 1_555
B3 H21 1.222087 1_565
B3 H3 1.230284 1_565
B3 H15 1.235565 1_555
B4 H10 1.220133 1_555
B4 H22 1.222091 1_555
B4 H4 1.230284 1_556
B4 H16 1.235561 1_556
B5 H11 1.220147 1_555
B5 H23 1.222082 1_455
B5 H5 1.230284 1_455
B5 H17 1.235554 1_555
B6 H24 1.231595 1_555
B6 H29 1.231599 1_555
B6 H35 1.240192 1_555
B6 H30 1.240200 1_555
B7 H28 1.231586 1_555
B7 H25 1.231597 1_555
B7 H31 1.240192 1_555
B7 H34 1.240200 1_555
B8 H26 1.231586 1_555
B8 H27 1.231593 1_555
B8 H33 1.240192 1_555
B8 H32 1.240192 1_555
B9 H46 1.231998 1_554
B9 H42 1.231998 1_555
B9 H36 1.241107 1_555
B9 H40 1.241109 1_554
B10 H45 1.231998 1_555
B10 H43 1.232001 1_555
B10 H39 1.241102 1_555
B10 H37 1.241111 1_555
B11 H44 1.231998 1_555
B11 H47 1.232001 1_555
B11 H38 1.241109 1_555
B11 H41 1.241115 1_555
B12 H54 1.228017 1_545
B12 H57 1.228029 1_545
B12 H51 1.230368 1_555
B12 H48 1.230373 1_555
B13 H59 1.228017 1_654
B13 H55 1.228022 1_655
B13 H49 1.230368 1_554
B13 H53 1.230368 1_555
B14 H58 1.228025 1_555
B14 H56 1.228032 1_555
B14 H50 1.230368 1_555
B14 H52 1.230373 1_555
B15 H69 1.228384 1_555
B15 H66 1.228395 1_555
B15 H60 1.234742 1_565
B15 H63 1.234742 1_665
B16 H67 1.228392 1_555
B16 H71 1.228395 1_555
B16 H65 1.234742 1_455
B16 H61 1.234742 1_445
B17 H68 1.228380 1_555
B17 H70 1.228388 1_555
B17 H62 1.234742 1_655
B17 H64 1.234742 1_545
H0 Mn8 2.049296 1_546
H1 Mn6 2.049289 1_655
H2 Mn7 2.049286 1_555
H3 Mn6 2.049289 1_545
H4 Mn8 2.049286 1_555
H5 Mn7 2.049296 1_655
H6 Mn8 2.246587 1_555
H7 Mn6 2.246596 1_555
H8 Mn7 2.246587 1_555
H9 Mn6 2.246592 1_555
H10 Mn8 2.246591 1_556
H11 Mn7 2.246587 1_555
H12 Mn0 2.062266 1_565
H13 Mn1 2.062267 1_455
H14 Mn2 2.062266 1_555
H15 Mn3 2.062266 1_565
H16 Mn4 2.062266 1_555
H17 Mn5 2.062267 1_455
H18 Mn0 2.051611 1_554
H19 Mn1 2.051611 1_555
H20 Mn2 2.051601 1_555
H21 Mn3 2.051601 1_555
H22 Mn4 2.051611 1_556
H23 Mn5 2.051611 1_555
H24 Mn0 2.103954 1_565
H25 Mn1 2.103946 1_455
H26 Mn2 2.103953 1_555
H27 Mn3 2.103946 1_565
H28 Mn4 2.103953 1_555
H29 Mn5 2.103954 1_455
H30 Mn0 2.045396 1_565
H31 Mn1 2.045396 1_455
H32 Mn2 2.045394 1_555
H33 Mn3 2.045394 1_565
H34 Mn4 2.045396 1_555
H35 Mn5 2.045396 1_455
H36 Mn4 2.035901 1_555
H37 Mn3 2.035892 1_555
H38 Mn5 2.035892 1_555
H39 Mn1 2.035894 1_555
H40 Mn0 2.035892 1_555
H41 Mn2 2.035899 1_555
H42 Mn0 2.145423 1_554
H43 Mn1 2.145431 1_555
H44 Mn2 2.145423 1_555
H45 Mn3 2.145423 1_555
H46 Mn4 2.145423 1_556
H47 Mn5 2.145431 1_555
H48 Mn3 2.125891 1_555
H49 Mn5 2.125891 1_555
H50 Mn4 2.125891 1_555
H51 Mn0 2.125891 1_555
H52 Mn2 2.125891 1_555
H53 Mn1 2.125891 1_555
H54 Mn0 2.019597 1_565
H55 Mn1 2.019603 1_455
H56 Mn2 2.019601 1_555
H57 Mn3 2.019603 1_565
H58 Mn4 2.019601 1_555
H59 Mn5 2.019597 1_455
H60 Mn8 2.035091 1_545
H61 Mn6 2.035091 1_655
H62 Mn7 2.035082 1_555
H63 Mn6 2.035082 1_545
H64 Mn8 2.035091 1_556
H65 Mn7 2.035091 1_655
H66 Mn8 2.073198 1_555
H67 Mn6 2.073189 1_545
H68 Mn7 2.073192 1_655
H69 Mn6 2.073189 1_655
H70 Mn8 2.073192 1_546
H71 Mn7 2.073198 1_555
