# generated using pymatgen
data_Li3MnCoO5
_symmetry_space_group_name_H-M   'P 1'
_cell_length_a   10.76636177
_cell_length_b   10.76636177
_cell_length_c   5.93717361
_cell_angle_alpha   82.58819974
_cell_angle_beta   82.58819974
_cell_angle_gamma   15.51236473
_symmetry_Int_Tables_number   1
_chemical_formula_structural   Li3MnCoO5
_chemical_formula_sum   'Li6 Mn2 Co2 O10'
_cell_volume   182.49131455
_cell_formula_units_Z   2
loop_
 _symmetry_equiv_pos_site_id
 _symmetry_equiv_pos_as_xyz
  1  'x, y, z'
loop_
 _atom_site_type_symbol
 _atom_site_label
 _atom_site_symmetry_multiplicity
 _atom_site_fract_x
 _atom_site_fract_y
 _atom_site_fract_z
 _atom_site_occupancy
  Li  Li0  1  0.00000000  0.00000000  0.00000000  1
  Li  Li1  1  0.80521300  0.80521300  0.59363500  1
  Li  Li2  1  0.59093200  0.59093200  0.21813500  1
  Li  Li3  1  0.40906800  0.40906800  0.78186500  1
  Li  Li4  1  0.19478700  0.19478700  0.40636500  1
  Li  Li5  1  0.00000000  0.00000000  0.50000000  1
  Mn  Mn0  1  0.19872800  0.19872800  0.89845600  1
  Mn  Mn1  1  0.80127200  0.80127200  0.10154400  1
  Co  Co0  1  0.58866200  0.58866200  0.69115500  1
  Co  Co1  1  0.41133800  0.41133800  0.30884500  1
  O  O0  1  0.89656500  0.89656500  0.53632100  1
  O  O1  1  0.70520100  0.70520100  0.12075600  1
  O  O2  1  0.50490900  0.50490900  0.75413700  1
  O  O3  1  0.29596000  0.29596000  0.31816700  1
  O  O4  1  0.11087200  0.11087200  0.93328700  1
  O  O5  1  0.10343500  0.10343500  0.46367900  1
  O  O6  1  0.88912800  0.88912800  0.06671300  1
  O  O7  1  0.70404000  0.70404000  0.68183300  1
  O  O8  1  0.49509100  0.49509100  0.24586300  1
  O  O9  1  0.29479900  0.29479900  0.87924400  1
loop_
_geom_bond_atom_site_label_1
_geom_bond_atom_site_label_2
_geom_bond_distance
_geom_bond_site_symmetry_2
Li0 O2 2.052608 1_544
Li0 O8 2.052608 1_455
Li0 O2 2.052608 1_454
Li0 O8 2.052608 1_545
Li0 O6 2.347056 1_445
Li0 O4 2.347056 1_554
Li1 O0 1.934409 1_555
Li1 O7 2.153935 1_555
Li1 O3 2.215657 1_655
Li1 O3 2.215657 1_565
Li1 O9 2.222143 1_565
Li1 O9 2.222143 1_655
Li2 O8 2.029978 1_555
Li2 O5 2.099746 1_655
Li2 O5 2.099746 1_565
Li2 O4 2.228229 1_564
Li2 O4 2.228229 1_654
Li2 O1 2.431285 1_555
Li3 O2 2.029978 1_555
Li3 O0 2.099746 1_545
Li3 O0 2.099746 1_455
Li3 O6 2.228229 1_546
Li3 O6 2.228229 1_456
Li3 O9 2.431285 1_555
Li4 O5 1.934409 1_555
Li4 O3 2.153935 1_555
Li4 O7 2.215657 1_455
Li4 O7 2.215657 1_545
Li4 O1 2.222143 1_455
Li4 O1 2.222143 1_545
Li5 O8 2.107128 1_455
Li5 O8 2.107128 1_545
Li5 O2 2.107128 1_545
Li5 O2 2.107128 1_455
Li5 O5 2.189252 1_555
Li5 O0 2.189252 1_445
Mn0 O4 1.858891 1_555
Mn0 O7 1.933970 1_455
Mn0 O7 1.933970 1_545
Mn0 O1 1.979828 1_546
Mn0 O1 1.979828 1_456
Mn0 O9 2.038035 1_555
Mn1 O6 1.858891 1_555
Mn1 O3 1.933970 1_655
Mn1 O3 1.933970 1_565
Mn1 O9 1.979828 1_654
Mn1 O9 1.979828 1_564
Mn1 O1 2.038035 1_555
Co0 O2 1.777348 1_555
Co0 O5 1.980847 1_655
Co0 O5 1.980847 1_565
Co0 O4 2.140043 1_565
Co0 O4 2.140043 1_655
Co0 O7 2.455081 1_555
Co1 O8 1.777348 1_555
Co1 O0 1.980847 1_545
Co1 O0 1.980847 1_455
Co1 O6 2.140043 1_455
Co1 O6 2.140043 1_545
Co1 O3 2.455081 1_555
