# generated using pymatgen
data_La2Ti3NiO10
_symmetry_space_group_name_H-M   'P 1'
_cell_length_a   13.65277112
_cell_length_b   13.65277112
_cell_length_c   13.65277112
_cell_angle_alpha   163.76095231
_cell_angle_beta   163.76095231
_cell_angle_gamma   23.04368787
_symmetry_Int_Tables_number   1
_chemical_formula_structural   La2Ti3NiO10
_chemical_formula_sum   'La2 Ti3 Ni1 O10'
_cell_volume   198.97022442
_cell_formula_units_Z   1
loop_
 _symmetry_equiv_pos_site_id
 _symmetry_equiv_pos_as_xyz
  1  'x, y, z'
loop_
 _atom_site_type_symbol
 _atom_site_label
 _atom_site_symmetry_multiplicity
 _atom_site_fract_x
 _atom_site_fract_y
 _atom_site_fract_z
 _atom_site_occupancy
  La  La0  1  0.58113200  0.58113200  0.00000000  1
  La  La1  1  0.41886800  0.41886800  0.00000000  1
  Ti  Ti0  1  0.84109600  0.84109600  0.00000000  1
  Ti  Ti1  1  0.15890400  0.15890400  0.00000000  1
  Ti  Ti2  1  0.00000000  0.00000000  0.00000000  1
  Ni  Ni0  1  0.25000000  0.75000000  0.50000000  1
  O  O0  1  0.92728900  0.92728900  0.00000000  1
  O  O1  1  0.07271100  0.07271100  0.00000000  1
  O  O2  1  0.77314000  0.77314000  0.00000000  1
  O  O3  1  0.22686000  0.22686000  0.00000000  1
  O  O4  1  0.35625800  0.85625800  0.50000000  1
  O  O5  1  0.85876800  0.35876800  0.50000000  1
  O  O6  1  0.64123200  0.14123200  0.50000000  1
  O  O7  1  0.14374200  0.64374200  0.50000000  1
  O  O8  1  0.49901100  0.99901100  0.50000000  1
  O  O9  1  0.00098900  0.50098900  0.50000000  1
loop_
_geom_bond_atom_site_label_1
_geom_bond_atom_site_label_2
_geom_bond_distance
_geom_bond_site_symmetry_2
La0 O6 2.510772 1_554
La0 O6 2.510772 1_565
La0 O7 2.554302 1_655
La0 O7 2.554302 1_554
La0 O1 2.736317 1_655
La0 O1 2.736317 1_565
La0 O1 2.736317 1_554
La0 O1 2.736317 1_666
La0 O9 2.883772 1_655
La0 O9 2.883772 1_554
La0 O8 2.923337 1_555
La0 O8 2.923337 1_544
La1 O5 2.510772 1_555
La1 O5 2.510772 1_454
La1 O4 2.554302 1_544
La1 O4 2.554302 1_555
La1 O0 2.736317 1_556
La1 O0 2.736317 1_444
La1 O0 2.736317 1_545
La1 O0 2.736317 1_455
La1 O8 2.883772 1_544
La1 O8 2.883772 1_555
La1 O9 2.923337 1_655
La1 O9 2.923337 1_554
Ni0 O3 2.025251 1_555
Ni0 O3 2.025251 1_566
Ni0 O2 2.025251 1_455
Ni0 O2 2.025251 1_556
O0 Ti2 1.945404 1_665
O0 Ti0 2.306119 1_555
O1 Ti2 1.945404 1_555
O1 Ti1 2.306119 1_555
O2 Ti0 1.818183 1_555
O3 Ti1 1.818183 1_555
O4 Ti0 1.970507 1_455
O4 Ti0 1.970507 1_556
O5 Ti0 1.985420 1_556
O5 Ti0 1.985420 1_545
O6 Ti1 1.985420 1_656
O6 Ti1 1.985420 1_555
O7 Ti1 1.970507 1_566
O7 Ti1 1.970507 1_555
O8 Ti2 1.928480 1_565
O8 Ti2 1.928480 1_666
O9 Ti2 1.928480 1_566
O9 Ti2 1.928480 1_555
