# generated using pymatgen
data_Mg3V
_symmetry_space_group_name_H-M   'P 1'
_cell_length_a   4.86352428
_cell_length_b   4.86352428
_cell_length_c   4.86352428
_cell_angle_alpha   60.00000000
_cell_angle_beta   60.00000000
_cell_angle_gamma   60.00000000
_symmetry_Int_Tables_number   1
_chemical_formula_structural   Mg3V
_chemical_formula_sum   'Mg3 V1'
_cell_volume   81.34638683
_cell_formula_units_Z   1
loop_
 _symmetry_equiv_pos_site_id
 _symmetry_equiv_pos_as_xyz
  1  'x, y, z'
loop_
 _atom_site_type_symbol
 _atom_site_label
 _atom_site_symmetry_multiplicity
 _atom_site_fract_x
 _atom_site_fract_y
 _atom_site_fract_z
 _atom_site_occupancy
  Mg  Mg0  1  0.25000000  0.25000000  0.25000000  1
  Mg  Mg1  1  0.50000000  0.50000000  0.50000000  1
  Mg  Mg2  1  0.75000000  0.75000000  0.75000000  1
  V  V0  1  0.00000000  0.00000000  0.00000000  1
loop_
_geom_bond_atom_site_label_1
_geom_bond_atom_site_label_2
_geom_bond_distance
_geom_bond_site_symmetry_2
Mg0 Mg1 2.978288 1_455
Mg0 V0 2.978288 1_565
Mg0 Mg1 2.978288 1_545
Mg0 V0 2.978288 1_655
Mg0 Mg1 2.978288 1_555
Mg0 Mg1 2.978288 1_554
Mg0 V0 2.978288 1_555
Mg0 V0 2.978288 1_556
Mg1 Mg2 2.978288 1_545
Mg1 Mg2 2.978288 1_554
Mg1 Mg2 2.978288 1_455
Mg1 Mg2 2.978288 1_555
Mg2 V0 2.978288 1_666
Mg2 V0 2.978288 1_656
Mg2 V0 2.978288 1_665
Mg2 V0 2.978288 1_566
