# generated using pymatgen
data_K2LaI5
_symmetry_space_group_name_H-M   'P 1'
_cell_length_a   9.22489641
_cell_length_b   9.96115598
_cell_length_c   14.48789070
_cell_angle_alpha   90.00000000
_cell_angle_beta   90.00000000
_cell_angle_gamma   90.00000000
_symmetry_Int_Tables_number   1
_chemical_formula_structural   K2LaI5
_chemical_formula_sum   'K8 La4 I20'
_cell_volume   1331.30143334
_cell_formula_units_Z   4
loop_
 _symmetry_equiv_pos_site_id
 _symmetry_equiv_pos_as_xyz
  1  'x, y, z'
loop_
 _atom_site_type_symbol
 _atom_site_label
 _atom_site_symmetry_multiplicity
 _atom_site_fract_x
 _atom_site_fract_y
 _atom_site_fract_z
 _atom_site_occupancy
  K  K0  1  0.94629809  0.00330628  0.82676368  1
  K  K1  1  0.05370191  0.99669372  0.17323632  1
  K  K2  1  0.44629809  0.99669372  0.67323632  1
  K  K3  1  0.05370191  0.50330628  0.17323632  1
  K  K4  1  0.55370191  0.00330628  0.32676368  1
  K  K5  1  0.94629809  0.49669372  0.82676368  1
  K  K6  1  0.55370191  0.49669372  0.32676368  1
  K  K7  1  0.44629809  0.50330628  0.67323632  1
  La  La0  1  0.91863833  0.75000000  0.50647946  1
  La  La1  1  0.08136167  0.25000000  0.49352054  1
  La  La2  1  0.41863833  0.25000000  0.99352054  1
  La  La3  1  0.58136167  0.75000000  0.00647946  1
  I  I0  1  0.13172530  0.75000000  0.68373364  1
  I  I1  1  0.86827470  0.25000000  0.31626636  1
  I  I2  1  0.63172530  0.25000000  0.81626636  1
  I  I3  1  0.36827470  0.75000000  0.18373364  1
  I  I4  1  0.83045373  0.04657311  0.57908931  1
  I  I5  1  0.16954627  0.95342689  0.42091069  1
  I  I6  1  0.33045373  0.95342689  0.92091069  1
  I  I7  1  0.16954627  0.54657311  0.42091069  1
  I  I8  1  0.66954627  0.04657311  0.07908931  1
  I  I9  1  0.83045373  0.45342689  0.57908931  1
  I  I10  1  0.66954627  0.45342689  0.07908931  1
  I  I11  1  0.33045373  0.54657311  0.92091069  1
  I  I12  1  0.56265322  0.75000000  0.50678303  1
  I  I13  1  0.43734678  0.25000000  0.49321697  1
  I  I14  1  0.06265322  0.25000000  0.99321697  1
  I  I15  1  0.93734678  0.75000000  0.00678303  1
  I  I16  1  0.66693524  0.75000000  0.79024886  1
  I  I17  1  0.33306476  0.25000000  0.20975114  1
  I  I18  1  0.16693524  0.25000000  0.70975114  1
  I  I19  1  0.83306476  0.75000000  0.29024886  1
loop_
_geom_bond_atom_site_label_1
_geom_bond_atom_site_label_2
_geom_bond_distance
_geom_bond_site_symmetry_2
I0 La0 3.234010 1_455
I0 K5 3.686008 1_455
I0 K0 3.686008 1_465
I0 K7 3.805621 1_555
I0 K2 3.805621 1_555
I1 La1 3.234010 1_655
I1 K1 3.686008 1_645
I1 K3 3.686008 1_655
I1 K4 3.805621 1_555
I1 K6 3.805621 1_555
I2 La2 3.234010 1_555
I2 K2 3.686008 1_545
I2 K7 3.686008 1_555
I2 K5 3.805621 1_555
I2 K0 3.805621 1_555
I3 La3 3.234010 1_555
I3 K6 3.686008 1_555
I3 K4 3.686008 1_565
I3 K1 3.805621 1_555
I3 K3 3.805621 1_555
I4 La0 3.239716 1_545
I4 La1 3.316688 1_655
I4 K0 3.768755 1_555
I4 K2 3.829599 1_545
I5 La1 3.239716 1_565
I5 La0 3.316688 1_455
I5 K1 3.768755 1_555
I5 K4 3.829599 1_565
I6 La2 3.239716 1_565
I6 La3 3.316688 1_556
I6 K2 3.768755 1_555
I6 K0 3.829599 1_465
I7 La1 3.239716 1_555
I7 La0 3.316688 1_455
I7 K3 3.768755 1_555
I7 K6 3.829599 1_555
I8 La3 3.239716 1_545
I8 La2 3.316688 1_554
I8 K4 3.768755 1_555
I8 K1 3.829599 1_645
I9 La0 3.239716 1_555
I9 La1 3.316688 1_655
I9 K5 3.768755 1_555
I9 K7 3.829599 1_555
I10 La3 3.239716 1_555
I10 La2 3.316688 1_554
I10 K6 3.768755 1_555
I10 K3 3.829599 1_655
I11 La2 3.239716 1_555
I11 La3 3.316688 1_556
I11 K7 3.768755 1_555
I11 K5 3.829599 1_455
I12 La0 3.283929 1_555
I12 K7 3.606426 1_555
I12 K2 3.606426 1_555
I12 K6 3.629830 1_555
I12 K4 3.629830 1_565
I13 La1 3.283929 1_555
I13 K6 3.606426 1_555
I13 K4 3.606426 1_555
I13 K2 3.629830 1_545
I13 K7 3.629830 1_555
I14 La2 3.283929 1_555
I14 K0 3.606426 1_455
I14 K5 3.606426 1_455
I14 K3 3.629830 1_556
I14 K1 3.629830 1_546
I15 La3 3.283929 1_555
I15 K3 3.606426 1_655
I15 K1 3.606426 1_655
I15 K5 3.629830 1_554
I15 K0 3.629830 1_564
I16 La3 3.230655 1_556
I16 K2 3.613196 1_555
I16 K7 3.613196 1_555
I16 K5 3.645261 1_555
I16 K0 3.645261 1_565
I17 La2 3.230655 1_554
I17 K4 3.613196 1_555
I17 K6 3.613196 1_555
I17 K3 3.645261 1_555
I17 K1 3.645261 1_545
I18 La1 3.230655 1_555
I18 K5 3.613196 1_455
I18 K0 3.613196 1_455
I18 K7 3.645261 1_555
I18 K2 3.645261 1_545
I19 La0 3.230655 1_555
I19 K3 3.613196 1_655
I19 K1 3.613196 1_655
I19 K6 3.645261 1_555
I19 K4 3.645261 1_565
