# generated using pymatgen
data_Li2TiCrO4
_symmetry_space_group_name_H-M   'P 1'
_cell_length_a   4.16330166
_cell_length_b   7.86894037
_cell_length_c   9.57936403
_cell_angle_alpha   81.39209843
_cell_angle_beta   89.99976362
_cell_angle_gamma   74.65812495
_symmetry_Int_Tables_number   1
_chemical_formula_structural   Li2TiCrO4
_chemical_formula_sum   'Li8 Ti4 Cr4 O16'
_cell_volume   298.97673293
_cell_formula_units_Z   4
loop_
 _symmetry_equiv_pos_site_id
 _symmetry_equiv_pos_as_xyz
  1  'x, y, z'
loop_
 _atom_site_type_symbol
 _atom_site_label
 _atom_site_symmetry_multiplicity
 _atom_site_fract_x
 _atom_site_fract_y
 _atom_site_fract_z
 _atom_site_occupancy
  Li  Li0  1  0.43830000  0.12342200  0.18590300  1
  Li  Li1  1  0.68814100  0.62375700  0.43578400  1
  Li  Li2  1  0.93797700  0.12406000  0.68516000  1
  Li  Li3  1  0.18721900  0.62561100  0.93834400  1
  Li  Li4  1  0.62593800  0.74811600  0.12634100  1
  Li  Li5  1  0.87593000  0.24805600  0.37478800  1
  Li  Li6  1  0.12398200  0.75200100  0.62581600  1
  Li  Li7  1  0.37337600  0.25314800  0.87538300  1
  Ti  Ti0  1  0.06261500  0.87486400  0.31107300  1
  Ti  Ti1  1  0.31205100  0.37589100  0.56360100  1
  Ti  Ti2  1  0.56191100  0.87623500  0.81369400  1
  Ti  Ti3  1  0.81312600  0.37376900  0.06210100  1
  Cr  Cr0  1  0.50031800  0.99933500  0.49963200  1
  Cr  Cr1  1  0.74756000  0.50477200  0.74914600  1
  Cr  Cr2  1  0.00043400  0.99908900  0.99781800  1
  Cr  Cr3  1  0.25188500  0.49625000  0.25283200  1
  O  O0  1  0.00612300  0.98773100  0.48399300  1
  O  O1  1  0.25422900  0.49152500  0.73306000  1
  O  O2  1  0.50536100  0.98927000  0.98183600  1
  O  O3  1  0.75606500  0.48792700  0.23540600  1
  O  O4  1  0.12545500  0.74906300  0.14850700  1
  O  O5  1  0.37089300  0.25821000  0.39288600  1
  O  O6  1  0.61898100  0.76194900  0.64000100  1
  O  O7  1  0.86193600  0.27612400  0.88751500  1
  O  O8  1  0.80968500  0.38061700  0.57092300  1
  O  O9  1  0.06001600  0.87994300  0.81846000  1
  O  O10  1  0.31012000  0.37976400  0.07131700  1
  O  O11  1  0.55992800  0.88013500  0.31969600  1
  O  O12  1  0.68839400  0.62329500  0.92887600  1
  O  O13  1  0.94023000  0.11959900  0.18080600  1
  O  O14  1  0.19149400  0.61707800  0.43038000  1
  O  O15  1  0.44032700  0.11939100  0.67892200  1
loop_
_geom_bond_atom_site_label_1
_geom_bond_atom_site_label_2
_geom_bond_distance
_geom_bond_site_symmetry_2
Li0 O11 2.077638 1_545
Li0 O10 2.079929 1_555
Li0 O13 2.082455 1_455
Li0 O13 2.082607 1_555
Li0 O2 2.339966 1_544
Li0 O5 2.367927 1_555
Li1 O8 2.082964 1_555
Li1 O14 2.083053 1_555
Li1 O14 2.083161 1_655
Li1 O11 2.085708 1_555
Li1 O3 2.315391 1_555
Li1 O6 2.358705 1_555
Li2 O8 2.080046 1_555
Li2 O9 2.080386 1_645
Li2 O15 2.082905 1_555
Li2 O15 2.083030 1_655
Li2 O0 2.324352 1_645
Li2 O7 2.404874 1_555
Li3 O12 2.083749 1_455
Li3 O12 2.083888 1_555
Li3 O9 2.087051 1_555
Li3 O10 2.089363 1_556
Li3 O4 2.348647 1_556
Li3 O1 2.350216 1_555
Li4 O3 2.085592 1_555
Li4 O4 2.092540 1_655
Li4 O4 2.092616 1_555
Li4 O2 2.116315 1_554
Li4 O11 2.238383 1_555
Li4 O12 2.243093 1_554
Li5 O3 2.083675 1_555
Li5 O0 2.086963 1_645
Li5 O5 2.091101 1_555
Li5 O5 2.091439 1_655
Li5 O13 2.228339 1_555
Li5 O8 2.264654 1_555
Li6 O0 2.071550 1_555
Li6 O1 2.081381 1_555
Li6 O6 2.088101 1_555
Li6 O6 2.088318 1_455
Li6 O9 2.214566 1_555
Li6 O14 2.268975 1_555
Li7 O1 2.089369 1_555
Li7 O7 2.093467 1_455
Li7 O7 2.093879 1_555
Li7 O2 2.101390 1_545
Li7 O10 2.237367 1_556
Li7 O15 2.272668 1_555
Cr0 O15 2.065297 1_565
Cr0 O11 2.067178 1_555
Cr0 O5 2.069123 1_565
Cr0 O6 2.073951 1_555
Cr0 O0 2.089863 1_555
Cr0 O0 2.089880 1_655
Cr1 O7 2.013358 1_555
Cr1 O12 2.062489 1_555
Cr1 O6 2.066036 1_555
Cr1 O8 2.074050 1_555
Cr1 O1 2.090732 1_555
Cr1 O1 2.091100 1_655
Cr2 O9 2.061954 1_555
Cr2 O2 2.089381 1_455
Cr2 O2 2.089519 1_555
Cr2 O13 2.099183 1_466
Cr2 O4 2.198506 1_556
Cr2 O7 2.201493 1_465
Cr3 O4 2.020933 1_555
Cr3 O14 2.053653 1_555
Cr3 O10 2.069274 1_555
Cr3 O5 2.076221 1_555
Cr3 O3 2.089998 1_455
Cr3 O3 2.090145 1_555
O0 Ti0 1.979353 1_555
O1 Ti1 1.961447 1_555
O2 Ti2 1.938802 1_555
O3 Ti3 1.988209 1_555
O4 Ti0 1.948826 1_555
O5 Ti1 1.981198 1_555
O6 Ti2 1.992114 1_555
O7 Ti3 1.931505 1_556
O8 Ti1 2.083318 1_555
O8 Ti1 2.083339 1_655
O9 Ti2 2.082268 1_455
O9 Ti2 2.082607 1_555
O10 Ti3 2.084285 1_455
O10 Ti3 2.084351 1_555
O11 Ti0 2.083707 1_555
O11 Ti0 2.084131 1_655
O12 Ti2 2.060169 1_555
O12 Ti3 2.112838 1_556
O13 Ti0 2.070492 1_645
O13 Ti3 2.081447 1_555
O14 Ti1 2.062385 1_555
O14 Ti0 2.106891 1_555
O15 Ti2 2.081361 1_545
O15 Ti1 2.083654 1_555
