# generated using pymatgen
data_Li5Mn2Fe3O10
_symmetry_space_group_name_H-M   'P 1'
_cell_length_a   5.17724900
_cell_length_b   10.31270358
_cell_length_c   7.85684933
_cell_angle_alpha   70.73006196
_cell_angle_beta   102.03626958
_cell_angle_gamma   81.05302957
_symmetry_Int_Tables_number   1
_chemical_formula_structural   Li5Mn2Fe3O10
_chemical_formula_sum   'Li10 Mn4 Fe6 O20'
_cell_volume   375.67296668
_cell_formula_units_Z   2
loop_
 _symmetry_equiv_pos_site_id
 _symmetry_equiv_pos_as_xyz
  1  'x, y, z'
loop_
 _atom_site_type_symbol
 _atom_site_label
 _atom_site_symmetry_multiplicity
 _atom_site_fract_x
 _atom_site_fract_y
 _atom_site_fract_z
 _atom_site_occupancy
  Li  Li0  1  0.25250500  0.24657800  0.25257800  1
  Li  Li1  1  0.74758500  0.75057500  0.74998700  1
  Li  Li2  1  0.77374700  0.44688400  0.96177200  1
  Li  Li3  1  0.25915600  0.95103700  0.45896300  1
  Li  Li4  1  0.73485800  0.05132700  0.53783300  1
  Li  Li5  1  0.22401400  0.55548800  0.04199800  1
  Li  Li6  1  0.23540700  0.14124800  0.62444700  1
  Li  Li7  1  0.73793900  0.64701900  0.13141700  1
  Li  Li8  1  0.26750800  0.35747000  0.87068300  1
  Li  Li9  1  0.76019200  0.85278000  0.37005500  1
  Mn  Mn0  1  0.24874200  0.84951600  0.84390200  1
  Mn  Mn1  1  0.24867400  0.65124500  0.65742000  1
  Mn  Mn2  1  0.74885700  0.34920600  0.34301500  1
  Mn  Mn3  1  0.76256200  0.14709900  0.16100200  1
  Fe  Fe0  1  0.25033400  0.74885300  0.25128100  1
  Fe  Fe1  1  0.74589200  0.94957100  0.94032200  1
  Fe  Fe2  1  0.75063200  0.55280800  0.55790900  1
  Fe  Fe3  1  0.74903500  0.25062000  0.74935800  1
  Fe  Fe4  1  0.24237600  0.44466900  0.44741200  1
  Fe  Fe5  1  0.25928600  0.05688500  0.04957600  1
  O  O0  1  0.03648900  0.03715100  0.80759800  1
  O  O1  1  0.47698700  0.55566900  0.30454900  1
  O  O2  1  0.46256300  0.46496000  0.68985300  1
  O  O3  1  0.00046800  0.95997400  0.18783700  1
  O  O4  1  0.98308200  0.34757900  0.57899200  1
  O  O5  1  0.46690400  0.85088900  0.08493100  1
  O  O6  1  0.51848200  0.15440300  0.92217100  1
  O  O7  1  0.02443100  0.65438500  0.41603400  1
  O  O8  1  0.98618500  0.14141500  0.38383100  1
  O  O9  1  0.46542900  0.66367900  0.87998800  1
  O  O10  1  0.54609900  0.33074100  0.11869900  1
  O  O11  1  0.03172400  0.83483600  0.62430800  1
  O  O12  1  0.99819900  0.23658000  0.01060100  1
  O  O13  1  0.46694100  0.74899200  0.49704000  1
  O  O14  1  0.50051700  0.26325200  0.49014200  1
  O  O15  1  0.02654100  0.75516000  0.00322300  1
  O  O16  1  0.98628400  0.45171000  0.21377900  1
  O  O17  1  0.48400200  0.94269400  0.71341800  1
  O  O18  1  0.52255100  0.04960900  0.28280200  1
  O  O19  1  0.01682100  0.55544400  0.78927300  1
loop_
_geom_bond_atom_site_label_1
_geom_bond_atom_site_label_2
_geom_bond_distance
_geom_bond_site_symmetry_2
Li0 O14 2.107864 1_555
Li0 O8 2.112027 1_455
Li0 O12 2.118069 1_455
Li0 O10 2.155172 1_555
Li0 O18 2.190205 1_555
Li0 O16 2.227112 1_455
Li1 O11 2.081157 1_655
Li1 O9 2.098936 1_555
Li1 O17 2.118958 1_555
Li1 O19 2.150773 1_655
Li1 O13 2.210315 1_555
Li1 O15 2.220719 1_656
Li2 O16 2.075335 1_556
Li2 O10 2.101013 1_556
Li2 O12 2.163845 1_556
Li2 O19 2.195904 1_655
Li2 O2 2.324404 1_555
Li2 O9 2.339527 1_555
Li3 O8 2.055333 1_465
Li3 O17 2.060111 1_555
Li3 O13 2.084566 1_555
Li3 O11 2.135282 1_555
Li3 O3 2.232061 1_555
Li3 O18 2.257934 1_565
Li4 O8 2.076271 1_555
Li4 O18 2.081920 1_555
Li4 O14 2.198635 1_555
Li4 O17 2.241575 1_545
Li4 O0 2.301386 1_655
Li4 O11 2.303117 1_645
Li5 O15 2.044362 1_555
Li5 O19 2.050800 1_554
Li5 O9 2.141767 1_554
Li5 O16 2.151959 1_455
Li5 O1 2.201613 1_555
Li5 O10 2.443888 1_555
Li6 O17 2.048954 1_545
Li6 O8 2.053924 1_455
Li6 O0 2.055735 1_555
Li6 O4 2.191120 1_455
Li6 O14 2.201196 1_555
Li6 O6 2.545488 1_555
Li7 O16 2.028783 1_555
Li7 O9 2.112013 1_554
Li7 O1 2.208976 1_555
Li7 O5 2.210091 1_555
Li7 O15 2.212524 1_655
Li7 O7 2.443396 1_655
Li8 O2 2.043084 1_555
Li8 O19 2.056588 1_555
Li8 O10 2.074386 1_556
Li8 O6 2.147737 1_555
Li8 O12 2.232062 1_456
Li8 O4 2.494905 1_455
Li9 O18 2.014176 1_565
Li9 O11 2.122471 1_655
Li9 O7 2.150240 1_655
Li9 O13 2.208712 1_555
Li9 O3 2.223744 1_655
Li9 O5 2.437986 1_555
Mn0 O11 1.918034 1_555
Mn0 O17 1.921589 1_555
Mn0 O9 1.962597 1_555
Mn0 O0 1.968964 1_565
Mn0 O15 1.995484 1_556
Mn0 O5 1.998184 1_556
Mn1 O19 1.924081 1_555
Mn1 O9 1.925614 1_555
Mn1 O11 1.950768 1_555
Mn1 O2 1.969598 1_555
Mn1 O7 1.993791 1_555
Mn1 O13 1.997668 1_555
Mn2 O10 1.938145 1_555
Mn2 O16 1.968678 1_555
Mn2 O4 1.985874 1_555
Mn2 O14 2.018183 1_555
Mn2 O8 2.183495 1_555
Mn2 O1 2.252034 1_555
Mn3 O8 1.864055 1_555
Mn3 O18 1.928758 1_555
Mn3 O10 1.929271 1_555
Mn3 O12 1.991945 1_555
Mn3 O6 2.002942 1_554
Mn3 O3 2.041902 1_645
Fe0 O1 2.009694 1_555
Fe0 O13 2.021184 1_555
Fe0 O15 2.023906 1_555
Fe0 O5 2.035451 1_555
Fe0 O7 2.036169 1_555
Fe0 O3 2.191104 1_555
Fe1 O17 2.031467 1_555
Fe1 O15 2.124969 1_656
Fe1 O0 2.149880 1_665
Fe1 O3 2.154801 1_656
Fe1 O5 2.188899 1_556
Fe1 O6 2.196862 1_565
Fe2 O19 2.050319 1_655
Fe2 O2 2.136561 1_555
Fe2 O13 2.150197 1_555
Fe2 O7 2.167809 1_655
Fe2 O1 2.177746 1_555
Fe2 O4 2.201904 1_555
Fe3 O6 2.099507 1_555
Fe3 O4 2.104679 1_555
Fe3 O14 2.121349 1_555
Fe3 O12 2.130597 1_556
Fe3 O0 2.302736 1_655
Fe3 O2 2.305051 1_555
Fe4 O16 1.999927 1_455
Fe4 O14 2.004914 1_555
Fe4 O4 2.046230 1_455
Fe4 O1 2.049055 1_555
Fe4 O2 2.098408 1_555
Fe4 O7 2.187332 1_555
Fe5 O12 2.007166 1_455
Fe5 O18 2.014183 1_555
Fe5 O6 2.032161 1_554
Fe5 O3 2.069157 1_545
Fe5 O0 2.097669 1_554
Fe5 O5 2.126323 1_545
