# generated using pymatgen
data_Li3Ni5OF11
_symmetry_space_group_name_H-M   'P 1'
_cell_length_a   5.10352100
_cell_length_b   5.49247078
_cell_length_c   8.90479539
_cell_angle_alpha   106.27489283
_cell_angle_beta   89.43500480
_cell_angle_gamma   116.93064639
_symmetry_Int_Tables_number   1
_chemical_formula_structural   Li3Ni5OF11
_chemical_formula_sum   'Li3 Ni5 O1 F11'
_cell_volume   211.61539287
_cell_formula_units_Z   1
loop_
 _symmetry_equiv_pos_site_id
 _symmetry_equiv_pos_as_xyz
  1  'x, y, z'
loop_
 _atom_site_type_symbol
 _atom_site_label
 _atom_site_symmetry_multiplicity
 _atom_site_fract_x
 _atom_site_fract_y
 _atom_site_fract_z
 _atom_site_occupancy
  Li  Li0  1  0.52001600  0.53303800  0.50051600  1
  Li  Li1  1  0.76226000  0.26519700  0.25858400  1
  Li  Li2  1  0.29542600  0.79325300  0.76742000  1
  Ni  Ni0  1  0.45792900  0.74776700  0.14908500  1
  Ni  Ni1  1  0.97948200  0.99182700  0.99669700  1
  Ni  Ni2  1  0.96104300  0.27636400  0.64771000  1
  Ni  Ni3  1  0.21716700  0.01438800  0.40715400  1
  Ni  Ni4  1  0.68176700  0.51048700  0.90349700  1
  O  O0  1  0.55984100  0.75569100  0.95716800  1
  F  F0  1  0.43638100  0.84235600  0.34883400  1
  F  F1  1  0.50313500  0.39938800  0.29916500  1
  F  F2  1  0.00519500  0.91675300  0.78943700  1
  F  F3  1  0.43059800  0.14792500  0.04344800  1
  F  F4  1  0.94859500  0.65783100  0.53901200  1
  F  F5  1  0.93328300  0.35009000  0.85183000  1
  F  F6  1  0.00855900  0.58925000  0.10470400  1
  F  F7  1  0.03770700  0.24170400  0.45223200  1
  F  F8  1  0.91720500  0.00398400  0.20679500  1
  F  F9  1  0.40331900  0.49224300  0.69894700  1
  F  F10  1  0.51573200  0.09486600  0.60264200  1
loop_
_geom_bond_atom_site_label_1
_geom_bond_atom_site_label_2
_geom_bond_distance
_geom_bond_site_symmetry_2
Li2 O0 2.282779 1_555
Ni0 O0 1.787927 1_554
Ni1 O0 1.906727 1_555
Ni4 O0 1.679850 1_555
F0 Ni0 1.725053 1_555
F0 Ni3 1.756469 1_565
F1 Li0 1.723120 1_555
F1 Li1 1.773946 1_555
F2 Ni1 1.791984 1_455
F2 Li2 1.876792 1_555
F3 Ni1 2.059060 1_444
F3 Li1 2.309707 1_555
F3 Ni4 2.491786 1_554
F3 Li2 2.538648 1_544
F4 Li0 1.973959 1_555
F5 Ni2 1.766984 1_555
F5 Ni4 1.849589 1_555
F6 Ni0 2.046974 1_555
F6 Ni4 2.269325 1_454
F6 Li1 2.435566 1_455
F7 Ni2 1.757166 1_455
F7 Ni3 1.818360 1_555
F7 Li0 2.207183 1_555
F7 Li1 2.302857 1_455
F8 Ni1 1.882324 1_544
F8 Li1 1.883082 1_555
F8 Ni0 2.090216 1_545
F8 Ni3 2.333988 1_655
F9 Li0 1.899323 1_555
F9 Li2 1.913459 1_555
F9 Ni2 2.000417 1_455
F9 Ni4 2.273104 1_555
F10 Ni2 2.015276 1_555
F10 Ni3 2.135041 1_555
F10 Li2 2.409188 1_545
