# generated using pymatgen
data_CaNi2(PO5)2
_symmetry_space_group_name_H-M   'P 1'
_cell_length_a   9.85630744
_cell_length_b   8.34059409
_cell_length_c   7.26818233
_cell_angle_alpha   77.98184533
_cell_angle_beta   55.86025616
_cell_angle_gamma   46.15789851
_symmetry_Int_Tables_number   1
_chemical_formula_structural   CaNi2(PO5)2
_chemical_formula_sum   'Ca2 Ni4 P4 O20'
_cell_volume   339.98373329
_cell_formula_units_Z   2
loop_
 _symmetry_equiv_pos_site_id
 _symmetry_equiv_pos_as_xyz
  1  'x, y, z'
loop_
 _atom_site_type_symbol
 _atom_site_label
 _atom_site_symmetry_multiplicity
 _atom_site_fract_x
 _atom_site_fract_y
 _atom_site_fract_z
 _atom_site_occupancy
  Ca  Ca0  1  0.75000000  0.75000000  0.75000000  1
  Ca  Ca1  1  0.50000000  0.50000000  0.50000000  1
  Ni  Ni0  1  0.12500000  0.12500000  0.62500000  1
  Ni  Ni1  1  0.12500000  0.62500000  0.12500000  1
  Ni  Ni2  1  0.12500000  0.12500000  0.12500000  1
  Ni  Ni3  1  0.62500000  0.12500000  0.12500000  1
  P  P0  1  0.29351600  0.29351600  0.70648400  1
  P  P1  1  0.95648400  0.95648400  0.54351600  1
  P  P2  1  0.70648400  0.70648400  0.29351600  1
  P  P3  1  0.54351600  0.54351600  0.95648400  1
  O  O0  1  0.45777900  0.83052500  0.51535500  1
  O  O1  1  0.95765900  0.95765900  0.04234100  1
  O  O2  1  0.40985500  0.56115600  0.88974100  1
  O  O3  1  0.73464500  0.05365800  0.79222200  1
  O  O4  1  0.83052500  0.45777800  0.19634200  1
  O  O5  1  0.84014500  0.68884400  0.36025900  1
  O  O6  1  0.29234100  0.29234100  0.20765900  1
  O  O7  1  0.04234100  0.04234100  0.95765900  1
  O  O8  1  0.20765900  0.20765900  0.29234100  1
  O  O9  1  0.79222100  0.41947500  0.73464500  1
  O  O10  1  0.19634200  0.51535500  0.83052500  1
  O  O11  1  0.05365800  0.73464500  0.41947500  1
  O  O12  1  0.51535500  0.19634200  0.45777800  1
  O  O13  1  0.56115600  0.40985500  0.13924700  1
  O  O14  1  0.11075300  0.36025900  0.68884400  1
  O  O15  1  0.88974100  0.13924700  0.40985500  1
  O  O16  1  0.36025900  0.11075300  0.84014500  1
  O  O17  1  0.13924700  0.88974100  0.56115600  1
  O  O18  1  0.41947500  0.79222100  0.05365800  1
  O  O19  1  0.68884400  0.84014500  0.11075300  1
loop_
_geom_bond_atom_site_label_1
_geom_bond_atom_site_label_2
_geom_bond_distance
_geom_bond_site_symmetry_2
Ca0 O5 2.494542 1_555
Ca0 O16 2.494543 1_565
Ca0 O14 2.494546 1_655
Ca0 O19 2.494549 1_556
Ca0 O3 2.504419 1_565
Ca0 O11 2.504419 1_655
Ca0 O18 2.504424 1_556
Ca0 O9 2.504425 1_555
Ca1 O2 2.494542 1_555
Ca1 O15 2.494543 1_555
Ca1 O17 2.494546 1_555
Ca1 O13 2.494549 1_555
Ca1 O12 2.504419 1_555
Ca1 O4 2.504419 1_555
Ca1 O10 2.504419 1_555
Ca1 O0 2.504425 1_555
Ni0 O17 2.002398 1_545
Ni0 O14 2.002398 1_555
Ni0 O0 2.036340 1_545
Ni0 O9 2.036340 1_455
Ni0 O8 2.204066 1_555
Ni0 O7 2.204066 1_555
Ni1 O5 2.002391 1_455
Ni1 O2 2.002391 1_554
Ni1 O11 2.036335 1_555
Ni1 O10 2.036335 1_554
Ni1 O6 2.204066 1_555
Ni1 O1 2.204066 1_455
Ni2 O15 2.002395 1_455
Ni2 O16 2.002395 1_554
Ni2 O4 2.036335 1_455
Ni2 O18 2.036338 1_545
Ni2 O7 2.204066 1_554
Ni2 O8 2.204066 1_555
Ni3 O19 2.002390 1_545
Ni3 O13 2.002390 1_555
Ni3 O12 2.036335 1_555
Ni3 O3 2.036335 1_554
Ni3 O6 2.204066 1_555
Ni3 O1 2.204066 1_545
O0 P2 1.556937 1_555
O1 O7 1.278030 1_664
O2 P3 1.552931 1_555
O3 P1 1.556942 1_545
O4 P2 1.556942 1_555
O5 P2 1.552931 1_555
O6 O8 1.278030 1_555
O9 P3 1.556937 1_555
O10 P0 1.556942 1_555
O11 P1 1.556942 1_455
O12 P0 1.556942 1_555
O13 P3 1.552925 1_554
O14 P0 1.552921 1_555
O15 P1 1.552926 1_545
O16 P0 1.552926 1_555
O17 P1 1.552921 1_455
O18 P3 1.556935 1_554
O19 P2 1.552925 1_555
