# generated using pymatgen
data_Li2NdGe
_symmetry_space_group_name_H-M   'P 1'
_cell_length_a   4.36027532
_cell_length_b   4.36027532
_cell_length_c   9.49520900
_cell_angle_alpha   90.00000000
_cell_angle_beta   90.00000000
_cell_angle_gamma   119.99998970
_symmetry_Int_Tables_number   1
_chemical_formula_structural   Li2NdGe
_chemical_formula_sum   'Li4 Nd2 Ge2'
_cell_volume   156.33745251
_cell_formula_units_Z   2
loop_
 _symmetry_equiv_pos_site_id
 _symmetry_equiv_pos_as_xyz
  1  'x, y, z'
loop_
 _atom_site_type_symbol
 _atom_site_label
 _atom_site_symmetry_multiplicity
 _atom_site_fract_x
 _atom_site_fract_y
 _atom_site_fract_z
 _atom_site_occupancy
  Li  Li0  1  0.33333300  0.66666700  0.56525500  1
  Li  Li1  1  0.66666700  0.33333300  0.43474500  1
  Li  Li2  1  0.66666700  0.33333300  0.06525500  1
  Li  Li3  1  0.33333300  0.66666700  0.93474500  1
  Nd  Nd0  1  0.33333300  0.66666700  0.25000000  1
  Nd  Nd1  1  0.66666700  0.33333300  0.75000000  1
  Ge  Ge0  1  0.00000000  0.00000000  0.00000000  1
  Ge  Ge1  1  0.00000000  0.00000000  0.50000000  1
loop_
_geom_bond_atom_site_label_1
_geom_bond_atom_site_label_2
_geom_bond_distance
_geom_bond_site_symmetry_2
Li0 Nd0 2.993412 1_555
Li0 Nd1 3.068308 1_455
Li0 Nd1 3.068308 1_565
Li0 Nd1 3.068314 1_555
Li1 Nd1 2.993412 1_555
Li1 Nd0 3.068308 1_545
Li1 Nd0 3.068308 1_655
Li1 Nd0 3.068314 1_555
Li2 Nd1 2.993412 1_554
Li2 Nd0 3.068308 1_545
Li2 Nd0 3.068308 1_655
Li2 Nd0 3.068314 1_555
Li3 Nd0 2.993412 1_556
Li3 Nd1 3.068308 1_455
Li3 Nd1 3.068308 1_565
Li3 Nd1 3.068314 1_555
Ge0 Li3 2.592535 1_544
Ge0 Li2 2.592535 1_455
Ge0 Li2 2.592539 1_555
Ge0 Li3 2.592539 1_444
Ge0 Li3 2.592539 1_554
Ge0 Li2 2.592539 1_445
Ge0 Nd0 3.460095 1_545
Ge0 Nd1 3.460095 1_454
Ge0 Nd0 3.460098 1_555
Ge0 Nd1 3.460098 1_444
Ge0 Nd1 3.460098 1_554
Ge0 Nd0 3.460098 1_445
Ge1 Li0 2.592535 1_545
Ge1 Li1 2.592535 1_455
Ge1 Li0 2.592539 1_555
Ge1 Li1 2.592539 1_555
Ge1 Li0 2.592539 1_445
Ge1 Li1 2.592539 1_445
Ge1 Nd1 3.460095 1_455
Ge1 Nd0 3.460095 1_545
Ge1 Nd0 3.460098 1_555
Ge1 Nd1 3.460098 1_445
Ge1 Nd1 3.460098 1_555
Ge1 Nd0 3.460098 1_445
