# generated using pymatgen
data_Na3AuN2
_symmetry_space_group_name_H-M   'P 1'
_cell_length_a   8.78978163
_cell_length_b   8.33877304
_cell_length_c   13.03728597
_cell_angle_alpha   89.99999659
_cell_angle_beta   137.86925650
_cell_angle_gamma   118.31669229
_symmetry_Int_Tables_number   1
_chemical_formula_structural   Na3AuN2
_chemical_formula_sum   'Na12 Au4 N8'
_cell_volume   453.27466339
_cell_formula_units_Z   4
loop_
 _symmetry_equiv_pos_site_id
 _symmetry_equiv_pos_as_xyz
  1  'x, y, z'
loop_
 _atom_site_type_symbol
 _atom_site_label
 _atom_site_symmetry_multiplicity
 _atom_site_fract_x
 _atom_site_fract_y
 _atom_site_fract_z
 _atom_site_occupancy
  Na  Na0  1  0.00000000  0.50000000  0.36893300  1
  Na  Na1  1  0.00000000  0.00000000  0.88106700  1
  Na  Na2  1  0.00000000  0.50000000  0.13106700  1
  Na  Na3  1  0.00000000  0.00000000  0.11893300  1
  Na  Na4  1  0.55728100  0.50000000  0.52864000  1
  Na  Na5  1  0.44271900  0.50000000  0.97136000  1
  Na  Na6  1  0.55728100  0.00000000  0.27864000  1
  Na  Na7  1  0.44271900  0.00000000  0.72136000  1
  Na  Na8  1  0.44271900  0.94271900  0.97136000  1
  Na  Na9  1  0.55728100  0.05728100  0.52864000  1
  Na  Na10  1  0.44271900  0.44271900  0.72136000  1
  Na  Na11  1  0.55728100  0.55728100  0.27864000  1
  Au  Au0  1  0.00000000  0.50000000  0.59752800  1
  Au  Au1  1  0.00000000  0.00000000  0.65247200  1
  Au  Au2  1  0.00000000  0.50000000  0.90247200  1
  Au  Au3  1  0.00000000  0.00000000  0.34752800  1
  N  N0  1  0.53787800  0.26893900  0.36669400  1
  N  N1  1  0.46212200  0.73106100  0.82881700  1
  N  N2  1  0.53787800  0.76893900  0.42118300  1
  N  N3  1  0.46212200  0.23106100  0.88330600  1
  N  N4  1  0.00000000  0.73106100  0.90224500  1
  N  N5  1  0.00000000  0.26893900  0.90224500  1
  N  N6  1  0.00000000  0.23106100  0.34775500  1
  N  N7  1  0.00000000  0.76893900  0.34775500  1
loop_
_geom_bond_atom_site_label_1
_geom_bond_atom_site_label_2
_geom_bond_distance
_geom_bond_site_symmetry_2
Au0 N0 1.926767 1_455
Au0 N1 1.926767 1_555
Au1 N3 1.926767 1_555
Au1 N2 1.926767 1_445
Au2 N4 1.926768 1_555
Au2 N5 1.926768 1_555
Au3 N7 1.926768 1_545
Au3 N6 1.926768 1_555
N0 Na3 2.259553 1_555
N0 Na11 2.651331 1_555
N0 Na6 2.651331 1_555
N0 Na9 2.711719 1_555
N0 Na4 2.711719 1_555
N1 Na3 2.259552 1_666
N1 Na7 2.651331 1_565
N1 Na10 2.651331 1_555
N1 Na5 2.711719 1_555
N1 Na8 2.711719 1_555
N2 Na2 2.259552 1_555
N2 Na4 2.651331 1_555
N2 Na9 2.651331 1_565
N2 Na6 2.711719 1_565
N2 Na11 2.711719 1_555
N3 Na2 2.259553 1_656
N3 Na8 2.651331 1_545
N3 Na5 2.651331 1_555
N3 Na10 2.711719 1_555
N3 Na7 2.711719 1_555
N4 Na1 2.259554 1_565
N4 Na6 2.651324 1_566
N4 Na10 2.651330 1_455
N4 Na8 2.711718 1_555
N4 Na4 2.711728 1_455
N5 Na1 2.259554 1_555
N5 Na11 2.651324 1_556
N5 Na7 2.651330 1_455
N5 Na5 2.711718 1_555
N5 Na9 2.711728 1_455
N6 Na0 2.259554 1_555
N6 Na8 2.651324 1_444
N6 Na4 2.651330 1_555
N6 Na6 2.711718 1_455
N6 Na10 2.711728 1_555
N7 Na0 2.259554 1_555
N7 Na5 2.651324 1_454
N7 Na9 2.651330 1_565
N7 Na11 2.711718 1_455
N7 Na7 2.711728 1_565
