# generated using pymatgen
data_Zn(H4N5)2
_symmetry_space_group_name_H-M   'P 1'
_cell_length_a   4.24746074
_cell_length_b   6.58137336
_cell_length_c   7.25877464
_cell_angle_alpha   69.39145934
_cell_angle_beta   88.86310839
_cell_angle_gamma   89.02889925
_symmetry_Int_Tables_number   1
_chemical_formula_structural   Zn(H4N5)2
_chemical_formula_sum   'Zn1 H8 N10'
_cell_volume   189.87956411
_cell_formula_units_Z   1
loop_
 _symmetry_equiv_pos_site_id
 _symmetry_equiv_pos_as_xyz
  1  'x, y, z'
loop_
 _atom_site_type_symbol
 _atom_site_label
 _atom_site_symmetry_multiplicity
 _atom_site_fract_x
 _atom_site_fract_y
 _atom_site_fract_z
 _atom_site_occupancy
  Zn  Zn0  1  0.50000000  0.50000000  0.50000000  1
  H  H0  1  0.94165300  0.17736500  0.58804800  1
  H  H1  1  0.05834700  0.82263500  0.41195200  1
  H  H2  1  0.75675900  0.15637600  0.79753300  1
  H  H3  1  0.24324100  0.84362400  0.20246700  1
  H  H4  1  0.95268500  0.52219700  0.22604300  1
  H  H5  1  0.04731500  0.47780300  0.77395700  1
  H  H6  1  0.76261000  0.75909600  0.15227400  1
  H  H7  1  0.23739000  0.24090400  0.84772600  1
  N  N0  1  0.35780200  0.27675100  0.36142100  1
  N  N1  1  0.64219800  0.72324900  0.63857900  1
  N  N2  1  0.49279300  0.22495400  0.23821000  1
  N  N3  1  0.50720700  0.77504600  0.76179000  1
  N  N4  1  0.61895600  0.17049800  0.11706100  1
  N  N5  1  0.38104400  0.82950200  0.88293900  1
  N  N6  1  0.86005200  0.26350000  0.67285000  1
  N  N7  1  0.13994800  0.73650000  0.32715000  1
  N  N8  1  0.86775000  0.64443400  0.27083800  1
  N  N9  1  0.13225000  0.35556600  0.72916200  1
loop_
_geom_bond_atom_site_label_1
_geom_bond_atom_site_label_2
_geom_bond_distance
_geom_bond_site_symmetry_2
H0 N6 1.025146 1_555
H1 N7 1.025146 1_555
H2 N6 1.026741 1_555
H3 N7 1.026741 1_555
H4 N8 1.026025 1_555
H5 N9 1.026025 1_555
H6 N8 1.027725 1_555
H7 N9 1.027725 1_555
N0 N2 1.196869 1_555
N0 Zn0 2.151762 1_555
N1 N3 1.196869 1_555
N1 Zn0 2.151762 1_555
N2 N4 1.177114 1_555
N3 N5 1.177114 1_555
N6 Zn0 2.226289 1_555
N7 Zn0 2.226289 1_555
N8 Zn0 2.223638 1_555
N9 Zn0 2.223638 1_555
