# generated using pymatgen
data_KSm(WO4)2
_symmetry_space_group_name_H-M   'P 1'
_cell_length_a   5.26166300
_cell_length_b   8.26662000
_cell_length_c   18.67189400
_cell_angle_alpha   90.00000000
_cell_angle_beta   90.00000000
_cell_angle_gamma   90.00000000
_symmetry_Int_Tables_number   1
_chemical_formula_structural   KSm(WO4)2
_chemical_formula_sum   'K4 Sm4 W8 O32'
_cell_volume   812.15584930
_cell_formula_units_Z   4
loop_
 _symmetry_equiv_pos_site_id
 _symmetry_equiv_pos_as_xyz
  1  'x, y, z'
loop_
 _atom_site_type_symbol
 _atom_site_label
 _atom_site_symmetry_multiplicity
 _atom_site_fract_x
 _atom_site_fract_y
 _atom_site_fract_z
 _atom_site_occupancy
  K  K0  1  0.00000000  0.75000000  0.23002200  1
  K  K1  1  0.00000000  0.25000000  0.76997800  1
  K  K2  1  0.50000000  0.25000000  0.26997800  1
  K  K3  1  0.50000000  0.75000000  0.73002200  1
  Sm  Sm0  1  0.00000000  0.75000000  0.99326200  1
  Sm  Sm1  1  0.00000000  0.25000000  0.00673800  1
  Sm  Sm2  1  0.50000000  0.25000000  0.50673800  1
  Sm  Sm3  1  0.50000000  0.75000000  0.49326200  1
  W  W0  1  0.97750000  0.98289000  0.60074000  1
  W  W1  1  0.02250000  0.01711000  0.39926000  1
  W  W2  1  0.52250000  0.48289000  0.89926000  1
  W  W3  1  0.02250000  0.51711000  0.60074000  1
  W  W4  1  0.47750000  0.51711000  0.10074000  1
  W  W5  1  0.97750000  0.48289000  0.39926000  1
  W  W6  1  0.47750000  0.01711000  0.89926000  1
  W  W7  1  0.52250000  0.98289000  0.10074000  1
  O  O0  1  0.89855500  0.52432100  0.68902800  1
  O  O1  1  0.10144500  0.47567900  0.31097200  1
  O  O2  1  0.60144500  0.02432100  0.81097200  1
  O  O3  1  0.10144500  0.97567900  0.68902800  1
  O  O4  1  0.39855500  0.97567900  0.18902800  1
  O  O5  1  0.89855500  0.02432100  0.31097200  1
  O  O6  1  0.39855500  0.47567900  0.81097200  1
  O  O7  1  0.60144500  0.52432100  0.18902800  1
  O  O8  1  0.72720800  0.66005500  0.90099000  1
  O  O9  1  0.27279200  0.33994500  0.09901000  1
  O  O10  1  0.77279200  0.16005500  0.59901000  1
  O  O11  1  0.27279200  0.83994500  0.90099000  1
  O  O12  1  0.22720800  0.83994500  0.40099000  1
  O  O13  1  0.72720800  0.16005500  0.09901000  1
  O  O14  1  0.22720800  0.33994500  0.59901000  1
  O  O15  1  0.77279200  0.66005500  0.40099000  1
  O  O16  1  0.74648500  0.99596600  0.96530000  1
  O  O17  1  0.25351500  0.00403400  0.03470000  1
  O  O18  1  0.75351500  0.49596600  0.53470000  1
  O  O19  1  0.25351500  0.50403400  0.96530000  1
  O  O20  1  0.24648500  0.50403400  0.46530000  1
  O  O21  1  0.74648500  0.49596600  0.03470000  1
  O  O22  1  0.24648500  0.00403400  0.53470000  1
  O  O23  1  0.75351500  0.99596600  0.46530000  1
  O  O24  1  0.75816600  0.81011500  0.59265600  1
  O  O25  1  0.24183400  0.18988500  0.40734400  1
  O  O26  1  0.74183400  0.31011500  0.90734400  1
  O  O27  1  0.24183400  0.68988500  0.59265600  1
  O  O28  1  0.25816600  0.68988500  0.09265600  1
  O  O29  1  0.75816600  0.31011500  0.40734400  1
  O  O30  1  0.25816600  0.18988500  0.90734400  1
  O  O31  1  0.74183400  0.81011500  0.09265600  1
loop_
_geom_bond_atom_site_label_1
_geom_bond_atom_site_label_2
_geom_bond_distance
_geom_bond_site_symmetry_2
K0 O5 2.777050 1_465
K0 O1 2.777050 1_555
K0 O4 2.909301 1_555
K0 O7 2.909301 1_455
K0 O31 2.944620 1_455
K0 O28 2.944620 1_555
K1 O0 2.777050 1_455
K1 O3 2.777050 1_545
K1 O6 2.909301 1_555
K1 O2 2.909301 1_455
K1 O30 2.944620 1_555
K1 O26 2.944620 1_455
K2 O7 2.777050 1_555
K2 O4 2.777050 1_545
K2 O1 2.909301 1_555
K2 O5 2.909301 1_555
K2 O29 2.944620 1_555
K2 O25 2.944620 1_555
K3 O2 2.777050 1_565
K3 O6 2.777050 1_555
K3 O3 2.909301 1_555
K3 O0 2.909301 1_555
K3 O24 2.944620 1_555
K3 O27 2.944620 1_555
O0 W3 1.773817 1_655
O1 W5 1.773817 1_455
O2 W6 1.773817 1_555
O3 W0 1.773817 1_455
O4 W7 1.773817 1_555
O5 W1 1.773817 1_655
O6 W2 1.773817 1_555
O7 W4 1.773817 1_555
O8 W2 1.818274 1_555
O8 Sm0 2.362502 1_655
O9 W4 1.818274 1_555
O9 Sm1 2.362502 1_555
O10 W0 1.818274 1_545
O10 Sm2 2.362502 1_555
O11 W6 1.818274 1_565
O11 Sm0 2.362502 1_555
O12 W1 1.818274 1_565
O12 Sm3 2.362502 1_555
O13 W7 1.818274 1_545
O13 Sm1 2.362502 1_655
O14 W3 1.818274 1_555
O14 Sm2 2.362502 1_555
O15 W5 1.818274 1_555
O15 Sm3 2.362502 1_555
O16 W6 1.885249 1_565
O16 Sm0 2.487217 1_655
O16 Sm1 2.605375 1_666
O17 W7 1.885249 1_545
O17 Sm1 2.487217 1_555
O17 Sm0 2.605375 1_544
O18 W3 1.885249 1_655
O18 Sm2 2.487217 1_555
O18 Sm3 2.605375 1_555
O19 W2 1.885249 1_555
O19 Sm0 2.487217 1_555
O19 Sm1 2.605375 1_556
O20 W5 1.885249 1_455
O20 Sm3 2.487217 1_555
O20 Sm2 2.605375 1_555
O21 W4 1.885249 1_555
O21 Sm1 2.487217 1_655
O21 Sm0 2.605375 1_654
O22 W0 1.885249 1_445
O22 Sm2 2.487217 1_555
O22 Sm3 2.605375 1_545
O23 W1 1.885249 1_665
O23 Sm3 2.487217 1_555
O23 Sm2 2.605375 1_565
O24 W0 1.842440 1_555
O24 Sm3 2.352962 1_555
O25 W1 1.842440 1_555
O25 Sm2 2.352962 1_555
O26 W2 1.842440 1_555
O26 Sm1 2.352962 1_656
O27 W3 1.842440 1_555
O27 Sm3 2.352962 1_555
O28 W4 1.842440 1_555
O28 Sm0 2.352962 1_554
O29 W5 1.842440 1_555
O29 Sm2 2.352962 1_555
O30 W6 1.842440 1_555
O30 Sm1 2.352962 1_556
O31 W7 1.842440 1_555
O31 Sm0 2.352962 1_654
