# generated using pymatgen
data_NiH12(ClO6)2
_symmetry_space_group_name_H-M   'P 1'
_cell_length_a   10.45658500
_cell_length_b   10.45658500
_cell_length_c   10.45658500
_cell_angle_alpha   90.00000000
_cell_angle_beta   90.00000000
_cell_angle_gamma   90.00000000
_symmetry_Int_Tables_number   1
_chemical_formula_structural   NiH12(ClO6)2
_chemical_formula_sum   'Ni4 H48 Cl8 O48'
_cell_volume   1143.32478008
_cell_formula_units_Z   4
loop_
 _symmetry_equiv_pos_site_id
 _symmetry_equiv_pos_as_xyz
  1  'x, y, z'
loop_
 _atom_site_type_symbol
 _atom_site_label
 _atom_site_symmetry_multiplicity
 _atom_site_fract_x
 _atom_site_fract_y
 _atom_site_fract_z
 _atom_site_occupancy
  Ni  Ni0  1  0.50000000  0.50000000  0.00000000  1
  Ni  Ni1  1  0.50000000  0.00000000  0.50000000  1
  Ni  Ni2  1  0.00000000  0.50000000  0.50000000  1
  Ni  Ni3  1  0.00000000  0.00000000  0.00000000  1
  H  H0  1  0.25822900  0.56427200  0.04470500  1
  H  H1  1  0.74177100  0.06427200  0.45529600  1
  H  H2  1  0.24177100  0.43572800  0.54470500  1
  H  H3  1  0.75822900  0.93572800  0.95529500  1
  H  H4  1  0.04470500  0.25822900  0.56427200  1
  H  H5  1  0.45529600  0.74177100  0.06427200  1
  H  H6  1  0.54470500  0.24177100  0.43572800  1
  H  H7  1  0.95529500  0.75822900  0.93572800  1
  H  H8  1  0.56427200  0.04470500  0.25822900  1
  H  H9  1  0.06427200  0.45529600  0.74177100  1
  H  H10  1  0.43572800  0.54470500  0.24177100  1
  H  H11  1  0.93572800  0.95529500  0.75822900  1
  H  H12  1  0.74177100  0.43572800  0.95529500  1
  H  H13  1  0.25822900  0.93572800  0.54470500  1
  H  H14  1  0.75822900  0.56427200  0.45529600  1
  H  H15  1  0.24177100  0.06427200  0.04470500  1
  H  H16  1  0.95529500  0.74177100  0.43572800  1
  H  H17  1  0.54470500  0.25822900  0.93572800  1
  H  H18  1  0.45529600  0.75822900  0.56427200  1
  H  H19  1  0.04470500  0.24177100  0.06427200  1
  H  H20  1  0.43572800  0.95529500  0.74177100  1
  H  H21  1  0.93572800  0.54470500  0.25822900  1
  H  H22  1  0.56427200  0.45529600  0.75822900  1
  H  H23  1  0.06427200  0.04470500  0.24177100  1
  H  H24  1  0.26291600  0.45307900  0.93983600  1
  H  H25  1  0.73708400  0.95307900  0.56016400  1
  H  H26  1  0.23708400  0.54692100  0.43983600  1
  H  H27  1  0.76291600  0.04692100  0.06016400  1
  H  H28  1  0.93983600  0.26291600  0.45307900  1
  H  H29  1  0.56016400  0.73708400  0.95307900  1
  H  H30  1  0.43983600  0.23708400  0.54692100  1
  H  H31  1  0.06016400  0.76291600  0.04692100  1
  H  H32  1  0.45307900  0.93983600  0.26291600  1
  H  H33  1  0.95307900  0.56016400  0.73708400  1
  H  H34  1  0.54692100  0.43983600  0.23708400  1
  H  H35  1  0.04692100  0.06016400  0.76291600  1
  H  H36  1  0.73708400  0.54692100  0.06016400  1
  H  H37  1  0.26291600  0.04692100  0.43983600  1
  H  H38  1  0.76291600  0.45307900  0.56016400  1
  H  H39  1  0.23708400  0.95307900  0.93983600  1
  H  H40  1  0.06016400  0.73708400  0.54692100  1
  H  H41  1  0.43983600  0.26291600  0.04692100  1
  H  H42  1  0.56016400  0.76291600  0.45307900  1
  H  H43  1  0.93983600  0.23708400  0.95307900  1
  H  H44  1  0.54692100  0.06016400  0.73708400  1
  H  H45  1  0.04692100  0.43983600  0.26291600  1
  H  H46  1  0.45307900  0.56016400  0.76291600  1
  H  H47  1  0.95307900  0.93983600  0.23708400  1
  Cl  Cl0  1  0.24750800  0.75249200  0.25249200  1
  Cl  Cl1  1  0.75249200  0.25249200  0.24750800  1
  Cl  Cl2  1  0.25249200  0.24750800  0.75249200  1
  Cl  Cl3  1  0.74750800  0.74750800  0.74750800  1
  Cl  Cl4  1  0.75249200  0.24750800  0.74750800  1
  Cl  Cl5  1  0.24750800  0.74750800  0.75249200  1
  Cl  Cl6  1  0.74750800  0.75249200  0.24750800  1
  Cl  Cl7  1  0.25249200  0.25249200  0.25249200  1
  O  O0  1  0.33811500  0.66974100  0.67017700  1
  O  O1  1  0.66188500  0.16974100  0.82982300  1
  O  O2  1  0.16188500  0.33025900  0.17017700  1
  O  O3  1  0.83811500  0.83025900  0.32982300  1
  O  O4  1  0.67017700  0.33811500  0.66974100  1
  O  O5  1  0.82982300  0.66188500  0.16974100  1
  O  O6  1  0.17017700  0.16188500  0.33025900  1
  O  O7  1  0.32982300  0.83811500  0.83025900  1
  O  O8  1  0.66974100  0.67017700  0.33811500  1
  O  O9  1  0.16974100  0.82982300  0.66188500  1
  O  O10  1  0.33025900  0.17017700  0.16188500  1
  O  O11  1  0.83025900  0.32982300  0.83811500  1
  O  O12  1  0.66188500  0.33025900  0.32982300  1
  O  O13  1  0.33811500  0.83025900  0.17017700  1
  O  O14  1  0.83811500  0.66974100  0.82982300  1
  O  O15  1  0.16188500  0.16974100  0.67017700  1
  O  O16  1  0.32982300  0.66188500  0.33025900  1
  O  O17  1  0.17017700  0.33811500  0.83025900  1
  O  O18  1  0.82982300  0.83811500  0.66974100  1
  O  O19  1  0.67017700  0.16188500  0.16974100  1
  O  O20  1  0.33025900  0.32982300  0.66188500  1
  O  O21  1  0.83025900  0.17017700  0.33811500  1
  O  O22  1  0.66974100  0.82982300  0.83811500  1
  O  O23  1  0.16974100  0.67017700  0.16188500  1
  O  O24  1  0.30695400  0.53069300  0.97097800  1
  O  O25  1  0.69304600  0.03069300  0.52902200  1
  O  O26  1  0.19304600  0.46930700  0.47097800  1
  O  O27  1  0.80695400  0.96930700  0.02902200  1
  O  O28  1  0.97097800  0.30695400  0.53069300  1
  O  O29  1  0.52902200  0.69304600  0.03069300  1
  O  O30  1  0.47097800  0.19304600  0.46930700  1
  O  O31  1  0.02902200  0.80695400  0.96930700  1
  O  O32  1  0.53069300  0.97097800  0.30695400  1
  O  O33  1  0.03069300  0.52902200  0.69304600  1
  O  O34  1  0.46930700  0.47097800  0.19304600  1
  O  O35  1  0.96930700  0.02902200  0.80695400  1
  O  O36  1  0.69304600  0.46930700  0.02902200  1
  O  O37  1  0.30695400  0.96930700  0.47097800  1
  O  O38  1  0.80695400  0.53069300  0.52902200  1
  O  O39  1  0.19304600  0.03069300  0.97097800  1
  O  O40  1  0.02902200  0.69304600  0.46930700  1
  O  O41  1  0.47097800  0.30695400  0.96930700  1
  O  O42  1  0.52902200  0.80695400  0.53069300  1
  O  O43  1  0.97097800  0.19304600  0.03069300  1
  O  O44  1  0.46930700  0.02902200  0.69304600  1
  O  O45  1  0.96930700  0.47097800  0.30695400  1
  O  O46  1  0.53069300  0.52902200  0.80695400  1
  O  O47  1  0.03069300  0.97097800  0.19304600  1
loop_
_geom_bond_atom_site_label_1
_geom_bond_atom_site_label_2
_geom_bond_distance
_geom_bond_site_symmetry_2
Ni0 O24 2.066362 1_554
Ni0 O41 2.066362 1_554
Ni0 O34 2.066362 1_555
Ni0 O36 2.066362 1_555
Ni0 O46 2.066362 1_554
Ni0 O29 2.066362 1_555
Ni1 O37 2.066362 1_545
Ni1 O32 2.066362 1_545
Ni1 O30 2.066362 1_555
Ni1 O25 2.066362 1_555
Ni1 O42 2.066362 1_545
Ni1 O44 2.066362 1_555
Ni2 O26 2.066362 1_555
Ni2 O28 2.066362 1_455
Ni2 O45 2.066362 1_455
Ni2 O38 2.066362 1_455
Ni2 O33 2.066362 1_555
Ni2 O40 2.066362 1_555
Ni3 O39 2.066362 1_554
Ni3 O43 2.066362 1_455
Ni3 O47 2.066362 1_545
Ni3 O27 2.066362 1_445
Ni3 O31 2.066362 1_544
Ni3 O35 2.066362 1_454
H0 O24 0.988540 1_554
H1 O25 0.988532 1_555
H2 O26 0.988540 1_555
H3 O27 0.988540 1_556
H4 O28 0.988540 1_455
H5 O29 0.988532 1_555
H6 O30 0.988540 1_555
H7 O31 0.988540 1_655
H8 O32 0.988540 1_545
H9 O33 0.988532 1_555
H10 O34 0.988540 1_555
H11 O35 0.988540 1_565
H12 O36 0.988540 1_556
H13 O37 0.988540 1_555
H14 O38 0.988532 1_555
H15 O39 0.988540 1_554
H16 O40 0.988540 1_655
H17 O41 0.988540 1_555
H18 O42 0.988532 1_555
H19 O43 0.988540 1_455
H20 O44 0.988540 1_565
H21 O45 0.988540 1_555
H22 O46 0.988532 1_555
H23 O47 0.988540 1_545
H24 O24 0.988305 1_555
H25 O25 0.988305 1_565
H26 O26 0.988305 1_555
H27 O27 0.988305 1_545
H28 O28 0.988305 1_555
H29 O29 0.988305 1_556
H30 O30 0.988305 1_555
H31 O31 0.988305 1_554
H32 O32 0.988305 1_555
H33 O33 0.988305 1_655
H34 O34 0.988305 1_555
H35 O35 0.988305 1_455
H36 O36 0.988305 1_555
H37 O37 0.988305 1_545
H38 O38 0.988305 1_555
H39 O39 0.988305 1_565
H40 O40 0.988305 1_555
H41 O41 0.988305 1_554
H42 O42 0.988305 1_555
H43 O43 0.988305 1_556
H44 O44 0.988305 1_555
H45 O45 0.988305 1_455
H46 O46 0.988305 1_555
H47 O47 0.988305 1_655
Cl0 O13 1.516497 1_555
Cl0 O23 1.516497 1_555
Cl0 O16 1.516497 1_555
Cl1 O21 1.516497 1_555
Cl1 O19 1.516497 1_555
Cl1 O12 1.516497 1_555
Cl2 O17 1.516497 1_555
Cl2 O15 1.516497 1_555
Cl2 O20 1.516497 1_555
Cl3 O18 1.516497 1_555
Cl3 O22 1.516497 1_555
Cl3 O14 1.516497 1_555
Cl4 O4 1.516497 1_555
Cl4 O11 1.516497 1_555
Cl4 O1 1.516497 1_555
Cl5 O0 1.516497 1_555
Cl5 O7 1.516497 1_555
Cl5 O9 1.516497 1_555
Cl6 O8 1.516497 1_555
Cl6 O3 1.516497 1_555
Cl6 O5 1.516497 1_555
Cl7 O6 1.516497 1_555
Cl7 O2 1.516497 1_555
Cl7 O10 1.516497 1_555
