# generated using pymatgen
data_Li7Mn5O12
_symmetry_space_group_name_H-M   'P 1'
_cell_length_a   6.45345238
_cell_length_b   9.28402291
_cell_length_c   7.64885078
_cell_angle_alpha   88.89011323
_cell_angle_beta   76.24401917
_cell_angle_gamma   81.97707172
_symmetry_Int_Tables_number   1
_chemical_formula_structural   Li7Mn5O12
_chemical_formula_sum   'Li14 Mn10 O24'
_cell_volume   440.72643074
_cell_formula_units_Z   2
loop_
 _symmetry_equiv_pos_site_id
 _symmetry_equiv_pos_as_xyz
  1  'x, y, z'
loop_
 _atom_site_type_symbol
 _atom_site_label
 _atom_site_symmetry_multiplicity
 _atom_site_fract_x
 _atom_site_fract_y
 _atom_site_fract_z
 _atom_site_occupancy
  Li  Li0  1  0.41555700  0.41940900  0.66917800  1
  Li  Li1  1  0.91603000  0.91903500  0.66859300  1
  Li  Li2  1  0.28950000  0.79646000  0.16696000  1
  Li  Li3  1  0.78942700  0.29670800  0.16784400  1
  Li  Li4  1  0.54007400  0.05090100  0.15712100  1
  Li  Li5  1  0.04023700  0.55170200  0.15777600  1
  Li  Li6  1  0.62886000  0.12945200  0.50660500  1
  Li  Li7  1  0.12891600  0.62896200  0.50622500  1
  Li  Li8  1  0.70743700  0.19122200  0.83377800  1
  Li  Li9  1  0.20830100  0.69130100  0.83380100  1
  Li  Li10  1  0.47113100  0.95990200  0.82184100  1
  Li  Li11  1  0.97160300  0.45998300  0.82209300  1
  Li  Li12  1  0.36415300  0.87220300  0.51227900  1
  Li  Li13  1  0.86415300  0.37296800  0.51229600  1
  Mn  Mn0  1  0.66895800  0.66620900  0.66607100  1
  Mn  Mn1  1  0.49771600  0.50210200  0.99767500  1
  Mn  Mn2  1  0.99759300  0.00292200  0.99655300  1
  Mn  Mn3  1  0.33185500  0.33005100  0.33750500  1
  Mn  Mn4  1  0.83179200  0.83099000  0.33650300  1
  Mn  Mn5  1  0.16833400  0.16615300  0.66554000  1
  Mn  Mn6  1  0.75363800  0.75520500  0.99192600  1
  Mn  Mn7  1  0.25341600  0.25571900  0.99300400  1
  Mn  Mn8  1  0.08045100  0.07692300  0.33609200  1
  Mn  Mn9  1  0.58089100  0.57708000  0.33680900  1
  O  O0  1  0.24874400  0.01958400  0.09853200  1
  O  O1  1  0.74894400  0.51974500  0.09890300  1
  O  O2  1  0.58146400  0.78474500  0.24961700  1
  O  O3  1  0.08111300  0.28460200  0.24985100  1
  O  O4  1  0.58862600  0.37492200  0.40576300  1
  O  O5  1  0.08866000  0.87509300  0.40513200  1
  O  O6  1  0.74025600  0.98230700  0.92593600  1
  O  O7  1  0.24042600  0.48259200  0.92675000  1
  O  O8  1  0.42311800  0.18700000  0.75065300  1
  O  O9  1  0.92374100  0.68693500  0.75019300  1
  O  O10  1  0.41587300  0.64617600  0.57350400  1
  O  O11  1  0.91598500  0.14610800  0.57310600  1
  O  O12  1  0.50107400  0.27047400  0.09027500  1
  O  O13  1  0.00124400  0.77058200  0.08933400  1
  O  O14  1  0.82809600  0.06547100  0.24881600  1
  O  O15  1  0.32821700  0.56540300  0.24989000  1
  O  O16  1  0.33462300  0.09611500  0.42752400  1
  O  O17  1  0.83510800  0.59603900  0.42751900  1
  O  O18  1  0.50118500  0.73589800  0.90041900  1
  O  O19  1  0.00149200  0.23596200  0.90060600  1
  O  O20  1  0.17839000  0.96788100  0.75332700  1
  O  O21  1  0.67786000  0.46821400  0.75475900  1
  O  O22  1  0.65846900  0.86709300  0.57724000  1
  O  O23  1  0.15726500  0.36750100  0.57828300  1
loop_
_geom_bond_atom_site_label_1
_geom_bond_atom_site_label_2
_geom_bond_distance
_geom_bond_site_symmetry_2
Li0 O21 2.061989 1_555
Li0 O23 2.069401 1_555
Li0 O7 2.074519 1_555
Li0 O4 2.076249 1_555
Li0 O10 2.215550 1_555
Li0 O8 2.231447 1_555
Li1 O20 2.059119 1_655
Li1 O22 2.067051 1_555
Li1 O6 2.074425 1_555
Li1 O5 2.075040 1_655
Li1 O11 2.217660 1_565
Li1 O9 2.228907 1_555
Li2 O5 2.048433 1_555
Li2 O2 2.113840 1_555
Li2 O0 2.122632 1_565
Li2 O13 2.127520 1_555
Li2 O18 2.200969 1_554
Li2 O15 2.222489 1_555
Li3 O4 2.045789 1_555
Li3 O3 2.109310 1_655
Li3 O1 2.122792 1_555
Li3 O12 2.128702 1_555
Li3 O19 2.206361 1_654
Li3 O14 2.219708 1_555
Li4 O6 1.982151 1_544
Li4 O12 2.087568 1_555
Li4 O0 2.092463 1_555
Li4 O14 2.158459 1_555
Li4 O16 2.187695 1_555
Li4 O2 2.552573 1_545
Li5 O7 1.982457 1_554
Li5 O13 2.084575 1_555
Li5 O1 2.094771 1_455
Li5 O15 2.158395 1_555
Li5 O17 2.181885 1_455
Li5 O3 2.559864 1_555
Li6 O8 2.048120 1_555
Li6 O11 2.060903 1_555
Li6 O14 2.126136 1_555
Li6 O16 2.187421 1_555
Li6 O4 2.391222 1_555
Li6 O22 2.475777 1_545
Li7 O9 2.046957 1_455
Li7 O10 2.063679 1_555
Li7 O15 2.116684 1_555
Li7 O17 2.182361 1_455
Li7 O5 2.397580 1_555
Li7 O23 2.470168 1_555
Li8 O6 2.051110 1_545
Li8 O8 2.085252 1_555
Li8 O11 2.135647 1_555
Li8 O12 2.168836 1_556
Li8 O19 2.173597 1_655
Li9 O7 2.051232 1_555
Li9 O9 2.088838 1_455
Li9 O10 2.131007 1_555
Li9 O13 2.164858 1_556
Li9 O18 2.165237 1_555
Li10 O20 2.068677 1_555
Li10 O22 2.097701 1_555
Li10 O6 2.111526 1_555
Li10 O18 2.149013 1_555
Li10 O8 2.165913 1_565
Li10 O0 2.285760 1_566
Li11 O21 2.070497 1_555
Li11 O23 2.088721 1_655
Li11 O7 2.112613 1_655
Li11 O19 2.149000 1_655
Li11 O9 2.166020 1_555
Li11 O1 2.287256 1_556
Li12 O22 2.068681 1_555
Li12 O20 2.083411 1_555
Li12 O5 2.124152 1_555
Li12 O10 2.138905 1_555
Li12 O16 2.161937 1_565
Li12 O2 2.251168 1_555
Li13 O23 2.064381 1_655
Li13 O21 2.091202 1_555
Li13 O4 2.122602 1_555
Li13 O11 2.145596 1_555
Li13 O17 2.154545 1_555
Li13 O3 2.251576 1_655
Mn0 O18 1.931403 1_555
Mn0 O9 1.936692 1_555
Mn0 O21 1.945036 1_555
Mn0 O17 1.955522 1_555
Mn0 O10 1.960441 1_555
Mn0 O22 1.970292 1_555
Mn1 O7 1.897420 1_555
Mn1 O21 1.948348 1_555
Mn1 O1 1.982664 1_556
Mn1 O15 2.030873 1_556
Mn1 O12 2.249847 1_556
Mn1 O18 2.282178 1_555
Mn2 O6 1.898860 1_545
Mn2 O20 1.952805 1_645
Mn2 O0 1.983742 1_656
Mn2 O14 2.029561 1_556
Mn2 O13 2.256438 1_646
Mn2 O19 2.272678 1_655
Mn3 O23 1.926330 1_555
Mn3 O4 1.950520 1_555
Mn3 O3 1.990844 1_555
Mn3 O12 1.991052 1_555
Mn3 O16 2.264620 1_555
Mn3 O15 2.271646 1_555
Mn4 O22 1.921933 1_555
Mn4 O5 1.950064 1_655
Mn4 O2 1.987716 1_555
Mn4 O13 1.992803 1_655
Mn4 O14 2.264062 1_565
Mn4 O17 2.275602 1_555
Mn5 O19 1.934368 1_555
Mn5 O8 1.941024 1_555
Mn5 O20 1.944989 1_545
Mn5 O16 1.952121 1_555
Mn5 O11 1.955467 1_455
Mn5 O23 1.970271 1_555
Mn6 O13 1.939796 1_656
Mn6 O18 1.950634 1_555
Mn6 O9 1.977729 1_555
Mn6 O2 2.022162 1_556
Mn6 O6 2.153216 1_555
Mn6 O1 2.320888 1_556
Mn7 O12 1.938374 1_556
Mn7 O19 1.952174 1_555
Mn7 O8 1.981906 1_555
Mn7 O3 2.016483 1_556
Mn7 O7 2.151716 1_555
Mn7 O0 2.323114 1_556
Mn8 O14 1.917619 1_455
Mn8 O0 1.924111 1_555
Mn8 O5 1.933918 1_545
Mn8 O11 1.940456 1_455
Mn8 O16 1.960443 1_555
Mn8 O3 2.025930 1_555
Mn9 O15 1.918430 1_555
Mn9 O1 1.925797 1_555
Mn9 O4 1.936804 1_555
Mn9 O10 1.939251 1_555
Mn9 O17 1.957178 1_555
Mn9 O2 2.028017 1_555
