# generated using pymatgen
data_Tb12Co5Bi
_symmetry_space_group_name_H-M   'P 1'
_cell_length_a   8.35086089
_cell_length_b   8.35086989
_cell_length_c   8.35087329
_cell_angle_alpha   111.00927219
_cell_angle_beta   110.25576546
_cell_angle_gamma   107.17379488
_symmetry_Int_Tables_number   1
_chemical_formula_structural   Tb12Co5Bi
_chemical_formula_sum   'Tb12 Co5 Bi1'
_cell_volume   447.74571436
_cell_formula_units_Z   1
loop_
 _symmetry_equiv_pos_site_id
 _symmetry_equiv_pos_as_xyz
  1  'x, y, z'
loop_
 _atom_site_type_symbol
 _atom_site_label
 _atom_site_symmetry_multiplicity
 _atom_site_fract_x
 _atom_site_fract_y
 _atom_site_fract_z
 _atom_site_occupancy
  Tb  Tb0  1  0.81812516  0.71148006  0.52962480  1
  Tb  Tb1  1  0.18185645  0.28850369  0.47037933  1
  Tb  Tb2  1  0.18185533  0.71148026  0.89335443  1
  Tb  Tb3  1  0.81812389  0.28850345  0.10664700  1
  Tb  Tb4  1  0.68961390  0.38128405  0.69167037  1
  Tb  Tb5  1  0.31040373  0.61869414  0.30829083  1
  Tb  Tb6  1  0.68961407  0.99794498  0.30833102  1
  Tb  Tb7  1  0.31040356  0.00211366  0.69171043  1
  Tb  Tb8  1  0.59534801  0.79254230  0.80280582  1
  Tb  Tb9  1  0.40470588  0.20745858  0.19724778  1
  Tb  Tb10  1  0.98973541  0.79254132  0.19719450  1
  Tb  Tb11  1  0.01020854  0.20745605  0.80275249  1
  Co  Co0  1  0.61793179  -0.00001774  0.61794920  1
  Co  Co1  1  0.38203115  -0.00001488  0.38205058  1
  Co  Co2  1  0.10926528  0.60926525  0.50000005  1
  Co  Co3  1  0.89075340  0.39075294  0.49999942  1
  Co  Co4  1  0.00002609  0.00001405  -0.00000771  1
  Bi  Bi0  1  0.49999835  0.49999883  -0.00000033  1
loop_
_geom_bond_atom_site_label_1
_geom_bond_atom_site_label_2
_geom_bond_distance
_geom_bond_site_symmetry_2
Co0 Co1 2.252657 1_555
Co0 Tb11 2.710199 1_655
Co0 Tb8 2.710285 1_545
Co0 Tb5 2.844189 1_545
Co0 Tb7 2.844200 1_555
Co0 Tb6 2.844298 1_545
Co0 Tb4 2.844304 1_555
Co0 Tb0 3.331897 1_545
Co0 Tb3 3.331916 1_556
Co1 Tb9 2.710205 1_555
Co1 Tb10 2.710276 1_445
Co1 Tb7 2.844201 1_555
Co1 Tb5 2.844221 1_545
Co1 Tb4 2.844292 1_555
Co1 Tb6 2.844316 1_545
Co1 Tb1 3.331887 1_555
Co1 Tb2 3.331905 1_544
Co2 Co3 2.166369 1_455
Co2 Tb5 2.695326 1_555
Co2 Tb7 2.695328 1_565
Co2 Tb3 2.862063 1_455
Co2 Tb1 2.862064 1_555
Co2 Tb2 2.862076 1_555
Co2 Tb0 2.862078 1_455
Co2 Tb8 3.415059 1_555
Co2 Tb10 3.415061 1_455
Co3 Tb6 2.695072 1_545
Co3 Tb4 2.695091 1_555
Co3 Tb1 2.861917 1_655
Co3 Tb3 2.861919 1_555
Co3 Tb2 2.861934 1_655
Co3 Tb0 2.861939 1_555
Co3 Tb9 3.414724 1_555
Co3 Tb11 3.414745 1_655
Co4 Tb9 2.788734 1_555
Co4 Tb10 2.788751 1_445
Co4 Tb11 2.788752 1_554
Co4 Tb8 2.788764 1_444
Co4 Tb2 3.234612 1_544
Co4 Tb0 3.234634 1_444
Co4 Tb1 3.234799 1_555
Co4 Tb3 3.234823 1_455
Bi0 Tb10 3.457990 1_555
Bi0 Tb8 3.458003 1_554
Bi0 Tb9 3.458259 1_555
Bi0 Tb11 3.458266 1_554
Bi0 Tb7 3.469390 1_554
Bi0 Tb5 3.469398 1_555
Bi0 Tb4 3.469817 1_554
Bi0 Tb6 3.469824 1_555
Bi0 Tb1 3.637386 1_554
Bi0 Tb3 3.637392 1_555
Bi0 Tb2 3.637412 1_554
Bi0 Tb0 3.637416 1_555
