# generated using pymatgen
data_Yb(FeGe)6
_symmetry_space_group_name_H-M   'P 1'
_cell_length_a   5.04436814
_cell_length_b   5.04409755
_cell_length_c   8.05150500
_cell_angle_alpha   90.00000000
_cell_angle_beta   90.00000000
_cell_angle_gamma   120.00178176
_symmetry_Int_Tables_number   1
_chemical_formula_structural   Yb(FeGe)6
_chemical_formula_sum   'Yb1 Fe6 Ge6'
_cell_volume   177.41492502
_cell_formula_units_Z   1
loop_
 _symmetry_equiv_pos_site_id
 _symmetry_equiv_pos_as_xyz
  1  'x, y, z'
loop_
 _atom_site_type_symbol
 _atom_site_label
 _atom_site_symmetry_multiplicity
 _atom_site_fract_x
 _atom_site_fract_y
 _atom_site_fract_z
 _atom_site_occupancy
  Yb  Yb0  1  0.99994100  0.00000000  0.00000000  1
  Fe  Fe0  1  0.50001600  0.00000000  0.25032300  1
  Fe  Fe1  1  0.49996900  0.49996700  0.25030900  1
  Fe  Fe2  1  0.00000200  0.50003300  0.25030900  1
  Fe  Fe3  1  0.50001600  0.00000000  0.74967700  1
  Fe  Fe4  1  0.49996900  0.49996700  0.74969100  1
  Fe  Fe5  1  0.00000200  0.50003300  0.74969100  1
  Ge  Ge0  1  0.33325800  0.66669600  0.00000000  1
  Ge  Ge1  1  0.66656200  0.33330400  0.00000000  1
  Ge  Ge2  1  0.33341900  0.66671800  0.50000000  1
  Ge  Ge3  1  0.66670100  0.33328200  0.50000000  1
  Ge  Ge4  1  0.99997300  0.00000000  0.34402300  1
  Ge  Ge5  1  0.99997300  0.00000000  0.65597700  1
loop_
_geom_bond_atom_site_label_1
_geom_bond_atom_site_label_2
_geom_bond_distance
_geom_bond_site_symmetry_2
Fe0 Ge3 2.482080 1_555
Fe0 Ge2 2.482080 1_545
Fe0 Ge0 2.486351 1_545
Fe0 Ge1 2.486351 1_555
Fe0 Fe2 2.522001 1_545
Fe0 Fe1 2.522001 1_555
Fe0 Fe2 2.522096 1_655
Fe0 Fe1 2.522097 1_545
Fe0 Ge4 2.632390 1_555
Fe0 Ge4 2.632806 1_455
Fe0 Yb0 3.228258 1_555
Fe0 Yb0 3.228849 1_455
Fe1 Ge2 2.482266 1_555
Fe1 Ge3 2.482563 1_555
Fe1 Ge1 2.486183 1_555
Fe1 Ge0 2.486653 1_555
Fe1 Fe2 2.522184 1_655
Fe1 Fe2 2.522184 1_555
Fe1 Ge4 2.632411 1_455
Fe1 Ge4 2.632590 1_565
Fe1 Yb0 3.228368 1_455
Fe1 Yb0 3.228387 1_565
Fe2 Ge3 2.482266 1_455
Fe2 Ge2 2.482563 1_555
Fe2 Ge0 2.486183 1_555
Fe2 Ge1 2.486653 1_455
Fe2 Ge4 2.632411 1_465
Fe2 Ge4 2.632590 1_455
Fe2 Yb0 3.228368 1_465
Fe2 Yb0 3.228388 1_455
Fe3 Ge3 2.482080 1_555
Fe3 Ge2 2.482080 1_545
Fe3 Ge0 2.486351 1_546
Fe3 Ge1 2.486351 1_556
Fe3 Fe5 2.522001 1_545
Fe3 Fe4 2.522001 1_555
Fe3 Fe5 2.522096 1_655
Fe3 Fe4 2.522097 1_545
Fe3 Ge5 2.632390 1_555
Fe3 Ge5 2.632806 1_455
Fe3 Yb0 3.228258 1_556
Fe3 Yb0 3.228849 1_456
Fe4 Ge2 2.482266 1_555
Fe4 Ge3 2.482563 1_555
Fe4 Ge1 2.486183 1_556
Fe4 Ge0 2.486653 1_556
Fe4 Fe5 2.522184 1_655
Fe4 Fe5 2.522184 1_555
Fe4 Ge5 2.632411 1_455
Fe4 Ge5 2.632590 1_565
Fe4 Yb0 3.228368 1_456
Fe4 Yb0 3.228387 1_566
Fe5 Ge3 2.482266 1_455
Fe5 Ge2 2.482563 1_555
Fe5 Ge0 2.486183 1_556
Fe5 Ge1 2.486653 1_456
Fe5 Ge5 2.632411 1_465
Fe5 Ge5 2.632590 1_455
Fe5 Yb0 3.228368 1_466
Fe5 Yb0 3.228388 1_456
Ge0 Yb0 2.912116 1_465
Ge0 Yb0 2.912287 1_455
Ge0 Yb0 2.912386 1_565
Ge1 Yb0 2.912116 1_455
Ge1 Yb0 2.912287 1_565
Ge1 Yb0 2.912387 1_555
Ge4 Ge5 2.511699 1_555
Ge4 Yb0 2.769903 1_555
Ge5 Yb0 2.769903 1_556
