# generated using pymatgen
data_Cr3O4
_symmetry_space_group_name_H-M   'P 1'
_cell_length_a   5.90801911
_cell_length_b   6.17551343
_cell_length_c   5.80598565
_cell_angle_alpha   118.24028064
_cell_angle_beta   91.29083160
_cell_angle_gamma   117.92498772
_symmetry_Int_Tables_number   1
_chemical_formula_structural   Cr3O4
_chemical_formula_sum   'Cr6 O8'
_cell_volume   156.56920000
_cell_formula_units_Z   2
loop_
 _symmetry_equiv_pos_site_id
 _symmetry_equiv_pos_as_xyz
  1  'x, y, z'
loop_
 _atom_site_type_symbol
 _atom_site_label
 _atom_site_symmetry_multiplicity
 _atom_site_fract_x
 _atom_site_fract_y
 _atom_site_fract_z
 _atom_site_occupancy
  Cr  Cr0  1  0.50012700  0.50008500  0.49988500  1
  Cr  Cr1  1  0.00000100  0.49996500  0.49997300  1
  Cr  Cr2  1  0.49994600  0.00000800  0.50002000  1
  Cr  Cr3  1  0.99999900  0.00002700  0.00006300  1
  Cr  Cr4  1  0.50002700  0.49999600  0.99995500  1
  Cr  Cr5  1  0.50003700  0.00003400  0.00005100  1
  O  O0  1  0.28875200  0.05096500  0.26579300  1
  O  O1  1  0.28599600  0.55174400  0.76281300  1
  O  O2  1  0.71385800  0.44818100  0.23716800  1
  O  O3  1  0.71126900  0.94904500  0.73433000  1
  O  O4  1  0.76480300  0.04983300  0.27157600  1
  O  O5  1  0.72194700  0.45032000  0.71500900  1
  O  O6  1  0.27814400  0.54970900  0.28492100  1
  O  O7  1  0.23509400  0.95008900  0.72844300  1
loop_
_geom_bond_atom_site_label_1
_geom_bond_atom_site_label_2
_geom_bond_distance
_geom_bond_site_symmetry_2
Cr0 O2 2.006751 1_555
Cr0 O6 2.009039 1_555
Cr0 O1 2.009168 1_555
Cr0 O5 2.009641 1_555
Cr0 O3 2.051493 1_555
Cr0 O0 2.052163 1_555
Cr1 O1 2.049881 1_555
Cr1 O2 2.050373 1_455
Cr1 O7 2.055974 1_555
Cr1 O4 2.056031 1_455
Cr1 O5 2.081891 1_455
Cr1 O6 2.082378 1_555
Cr2 O0 2.049769 1_555
Cr2 O3 2.050652 1_545
Cr2 O6 2.058271 1_545
Cr2 O5 2.058351 1_555
Cr2 O7 2.081090 1_545
Cr2 O4 2.081142 1_555
Cr3 O3 2.075579 1_544
Cr3 O0 2.075826 1_655
Cr3 O4 2.133219 1_555
Cr3 O7 2.133287 1_644
Cr3 O6 2.509710 1_655
Cr3 O5 2.509825 1_544
Cr4 O2 2.076651 1_556
Cr4 O1 2.076829 1_555
Cr4 O6 2.131680 1_556
Cr4 O5 2.131734 1_555
Cr4 O4 2.511966 1_566
Cr4 O7 2.512290 1_545
Cr5 O4 2.001552 1_555
Cr5 O7 2.002084 1_544
Cr5 O3 2.007931 1_544
Cr5 O0 2.008211 1_555
Cr5 O2 2.047399 1_555
Cr5 O1 2.048030 1_544
