# generated using pymatgen
data_EuSb2
_symmetry_space_group_name_H-M   'P 1'
_cell_length_a   4.36081696
_cell_length_b   4.65015642
_cell_length_c   9.00081262
_cell_angle_alpha   104.87235325
_cell_angle_beta   90.00000000
_cell_angle_gamma   90.00000000
_symmetry_Int_Tables_number   1
_chemical_formula_structural   EuSb2
_chemical_formula_sum   'Eu2 Sb4'
_cell_volume   176.40830069
_cell_formula_units_Z   2
loop_
 _symmetry_equiv_pos_site_id
 _symmetry_equiv_pos_as_xyz
  1  'x, y, z'
loop_
 _atom_site_type_symbol
 _atom_site_label
 _atom_site_symmetry_multiplicity
 _atom_site_fract_x
 _atom_site_fract_y
 _atom_site_fract_z
 _atom_site_occupancy
  Eu  Eu0  1  0.25000000  0.39513159  0.28762921  1
  Eu  Eu1  1  0.75000000  0.60486841  0.71237079  1
  Sb  Sb0  1  0.25000000  0.05609587  0.61574106  1
  Sb  Sb1  1  0.75000000  0.94390413  0.38425894  1
  Sb  Sb2  1  0.75000000  0.24467474  0.99221311  1
  Sb  Sb3  1  0.25000000  0.75532526  0.00778689  1
loop_
_geom_bond_atom_site_label_1
_geom_bond_atom_site_label_2
_geom_bond_distance
_geom_bond_site_symmetry_2
Eu0 Sb1 3.293968 1_445
Eu0 Sb1 3.293968 1_545
Eu0 Sb1 3.298998 1_555
Eu0 Sb1 3.298998 1_455
Eu0 Sb3 3.363863 1_555
Eu0 Sb3 3.368874 1_545
Eu0 Sb2 3.370298 1_554
Eu0 Sb2 3.370298 1_454
Eu0 Sb0 3.675482 1_565
Eu0 Sb0 3.687478 1_555
Eu1 Sb0 3.293968 1_565
Eu1 Sb0 3.293968 1_665
Eu1 Sb0 3.298998 1_555
Eu1 Sb0 3.298998 1_655
Eu1 Sb2 3.363863 1_555
Eu1 Sb2 3.368874 1_565
Eu1 Sb3 3.370298 1_556
Eu1 Sb3 3.370298 1_656
Eu1 Sb1 3.675482 1_545
Eu1 Sb1 3.687478 1_555
Sb0 Sb1 2.968073 1_445
Sb0 Sb1 2.968073 1_545
Sb2 Sb3 3.180520 1_546
Sb2 Sb3 3.180520 1_646
Sb2 Sb3 3.200267 1_656
Sb2 Sb3 3.200267 1_556
