# generated using pymatgen
data_Mg6MnC
_symmetry_space_group_name_H-M   'P 1'
_cell_length_a   6.10420400
_cell_length_b   19.26335600
_cell_length_c   20.82582200
_cell_angle_alpha   90.00000000
_cell_angle_beta   90.00000000
_cell_angle_gamma   90.00000000
_symmetry_Int_Tables_number   1
_chemical_formula_structural   Mg6MnC
_chemical_formula_sum   'Mg96 Mn16 C16'
_cell_volume   2448.85540203
_cell_formula_units_Z   16
loop_
 _symmetry_equiv_pos_site_id
 _symmetry_equiv_pos_as_xyz
  1  'x, y, z'
loop_
 _atom_site_type_symbol
 _atom_site_label
 _atom_site_symmetry_multiplicity
 _atom_site_fract_x
 _atom_site_fract_y
 _atom_site_fract_z
 _atom_site_occupancy
  Mg  Mg0_0  1  0.00000000  0.33075200  0.06137350  1
  Mg  Mg0_1  1  0.00000000  0.33075200  0.56137350  1
  Mg  Mg0_2  1  0.00000000  0.83075200  0.06137350  1
  Mg  Mg0_3  1  0.00000000  0.83075200  0.56137350  1
  Mg  Mg0_4  1  0.50000000  0.33075200  0.06137350  1
  Mg  Mg0_5  1  0.50000000  0.33075200  0.56137350  1
  Mg  Mg0_6  1  0.50000000  0.83075200  0.06137350  1
  Mg  Mg0_7  1  0.50000000  0.83075200  0.56137350  1
  Mg  Mg1_0  1  0.00000000  0.16924800  0.06137350  1
  Mg  Mg1_1  1  0.00000000  0.16924800  0.56137350  1
  Mg  Mg1_2  1  0.00000000  0.66924800  0.06137350  1
  Mg  Mg1_3  1  0.00000000  0.66924800  0.56137350  1
  Mg  Mg1_4  1  0.50000000  0.16924800  0.06137350  1
  Mg  Mg1_5  1  0.50000000  0.16924800  0.56137350  1
  Mg  Mg1_6  1  0.50000000  0.66924800  0.06137350  1
  Mg  Mg1_7  1  0.50000000  0.66924800  0.56137350  1
  Mg  Mg2_0  1  0.00000000  0.25000000  0.42169650  1
  Mg  Mg2_1  1  0.00000000  0.25000000  0.92169650  1
  Mg  Mg2_2  1  0.00000000  0.75000000  0.42169650  1
  Mg  Mg2_3  1  0.00000000  0.75000000  0.92169650  1
  Mg  Mg2_4  1  0.50000000  0.25000000  0.42169650  1
  Mg  Mg2_5  1  0.50000000  0.25000000  0.92169650  1
  Mg  Mg2_6  1  0.50000000  0.75000000  0.42169650  1
  Mg  Mg2_7  1  0.50000000  0.75000000  0.92169650  1
  Mg  Mg3_0  1  0.25000000  0.38529000  0.44030200  1
  Mg  Mg3_1  1  0.25000000  0.38529000  0.94030200  1
  Mg  Mg3_2  1  0.25000000  0.88529000  0.44030200  1
  Mg  Mg3_3  1  0.25000000  0.88529000  0.94030200  1
  Mg  Mg3_4  1  0.75000000  0.38529000  0.44030200  1
  Mg  Mg3_5  1  0.75000000  0.38529000  0.94030200  1
  Mg  Mg3_6  1  0.75000000  0.88529000  0.44030200  1
  Mg  Mg3_7  1  0.75000000  0.88529000  0.94030200  1
  Mg  Mg4_0  1  0.25000000  0.11471000  0.44030200  1
  Mg  Mg4_1  1  0.25000000  0.11471000  0.94030200  1
  Mg  Mg4_2  1  0.25000000  0.61471000  0.44030200  1
  Mg  Mg4_3  1  0.25000000  0.61471000  0.94030200  1
  Mg  Mg4_4  1  0.75000000  0.11471000  0.44030200  1
  Mg  Mg4_5  1  0.75000000  0.11471000  0.94030200  1
  Mg  Mg4_6  1  0.75000000  0.61471000  0.44030200  1
  Mg  Mg4_7  1  0.75000000  0.61471000  0.94030200  1
  Mg  Mg5_0  1  0.25000000  0.25000000  0.28997450  1
  Mg  Mg5_1  1  0.25000000  0.25000000  0.78997450  1
  Mg  Mg5_2  1  0.25000000  0.75000000  0.28997450  1
  Mg  Mg5_3  1  0.25000000  0.75000000  0.78997450  1
  Mg  Mg5_4  1  0.75000000  0.25000000  0.28997450  1
  Mg  Mg5_5  1  0.75000000  0.25000000  0.78997450  1
  Mg  Mg5_6  1  0.75000000  0.75000000  0.28997450  1
  Mg  Mg5_7  1  0.75000000  0.75000000  0.78997450  1
  Mg  Mg6_0  1  0.00000000  0.08075200  0.31137350  1
  Mg  Mg6_1  1  0.00000000  0.08075200  0.81137350  1
  Mg  Mg6_2  1  0.00000000  0.58075200  0.31137350  1
  Mg  Mg6_3  1  0.00000000  0.58075200  0.81137350  1
  Mg  Mg6_4  1  0.50000000  0.08075200  0.31137350  1
  Mg  Mg6_5  1  0.50000000  0.08075200  0.81137350  1
  Mg  Mg6_6  1  0.50000000  0.58075200  0.31137350  1
  Mg  Mg6_7  1  0.50000000  0.58075200  0.81137350  1
  Mg  Mg7_0  1  0.00000000  0.41924800  0.31137350  1
  Mg  Mg7_1  1  0.00000000  0.41924800  0.81137350  1
  Mg  Mg7_2  1  0.00000000  0.91924800  0.31137350  1
  Mg  Mg7_3  1  0.00000000  0.91924800  0.81137350  1
  Mg  Mg7_4  1  0.50000000  0.41924800  0.31137350  1
  Mg  Mg7_5  1  0.50000000  0.41924800  0.81137350  1
  Mg  Mg7_6  1  0.50000000  0.91924800  0.31137350  1
  Mg  Mg7_7  1  0.50000000  0.91924800  0.81137350  1
  Mg  Mg8_0  1  0.00000000  0.00000000  0.17169650  1
  Mg  Mg8_1  1  0.00000000  0.00000000  0.67169650  1
  Mg  Mg8_2  1  0.00000000  0.50000000  0.17169650  1
  Mg  Mg8_3  1  0.00000000  0.50000000  0.67169650  1
  Mg  Mg8_4  1  0.50000000  0.00000000  0.17169650  1
  Mg  Mg8_5  1  0.50000000  0.00000000  0.67169650  1
  Mg  Mg8_6  1  0.50000000  0.50000000  0.17169650  1
  Mg  Mg8_7  1  0.50000000  0.50000000  0.67169650  1
  Mg  Mg9_0  1  0.25000000  0.13529000  0.19030200  1
  Mg  Mg9_1  1  0.25000000  0.13529000  0.69030200  1
  Mg  Mg9_2  1  0.25000000  0.63529000  0.19030200  1
  Mg  Mg9_3  1  0.25000000  0.63529000  0.69030200  1
  Mg  Mg9_4  1  0.75000000  0.13529000  0.19030200  1
  Mg  Mg9_5  1  0.75000000  0.13529000  0.69030200  1
  Mg  Mg9_6  1  0.75000000  0.63529000  0.19030200  1
  Mg  Mg9_7  1  0.75000000  0.63529000  0.69030200  1
  Mg  Mg10_0  1  0.25000000  0.36471000  0.19030200  1
  Mg  Mg10_1  1  0.25000000  0.36471000  0.69030200  1
  Mg  Mg10_2  1  0.25000000  0.86471000  0.19030200  1
  Mg  Mg10_3  1  0.25000000  0.86471000  0.69030200  1
  Mg  Mg10_4  1  0.75000000  0.36471000  0.19030200  1
  Mg  Mg10_5  1  0.75000000  0.36471000  0.69030200  1
  Mg  Mg10_6  1  0.75000000  0.86471000  0.19030200  1
  Mg  Mg10_7  1  0.75000000  0.86471000  0.69030200  1
  Mg  Mg11_0  1  0.25000000  0.00000000  0.03997450  1
  Mg  Mg11_1  1  0.25000000  0.00000000  0.53997450  1
  Mg  Mg11_2  1  0.25000000  0.50000000  0.03997450  1
  Mg  Mg11_3  1  0.25000000  0.50000000  0.53997450  1
  Mg  Mg11_4  1  0.75000000  0.00000000  0.03997450  1
  Mg  Mg11_5  1  0.75000000  0.00000000  0.53997450  1
  Mg  Mg11_6  1  0.75000000  0.50000000  0.03997450  1
  Mg  Mg11_7  1  0.75000000  0.50000000  0.53997450  1
  Mn  Mn0_0  1  0.00000000  0.25000000  0.16799100  1
  Mn  Mn0_1  1  0.00000000  0.25000000  0.66799100  1
  Mn  Mn0_2  1  0.00000000  0.75000000  0.16799100  1
  Mn  Mn0_3  1  0.00000000  0.75000000  0.66799100  1
  Mn  Mn0_4  1  0.50000000  0.25000000  0.16799100  1
  Mn  Mn0_5  1  0.50000000  0.25000000  0.66799100  1
  Mn  Mn0_6  1  0.50000000  0.75000000  0.16799100  1
  Mn  Mn0_7  1  0.50000000  0.75000000  0.66799100  1
  Mn  Mn1_0  1  0.00000000  0.00000000  0.41799100  1
  Mn  Mn1_1  1  0.00000000  0.00000000  0.91799100  1
  Mn  Mn1_2  1  0.00000000  0.50000000  0.41799100  1
  Mn  Mn1_3  1  0.00000000  0.50000000  0.91799100  1
  Mn  Mn1_4  1  0.50000000  0.00000000  0.41799100  1
  Mn  Mn1_5  1  0.50000000  0.00000000  0.91799100  1
  Mn  Mn1_6  1  0.50000000  0.50000000  0.41799100  1
  Mn  Mn1_7  1  0.50000000  0.50000000  0.91799100  1
  C  C0_0  1  0.25000000  0.25000000  0.11698600  1
  C  C0_1  1  0.25000000  0.25000000  0.61698600  1
  C  C0_2  1  0.25000000  0.75000000  0.11698600  1
  C  C0_3  1  0.25000000  0.75000000  0.61698600  1
  C  C0_4  1  0.75000000  0.25000000  0.11698600  1
  C  C0_5  1  0.75000000  0.25000000  0.61698600  1
  C  C0_6  1  0.75000000  0.75000000  0.11698600  1
  C  C0_7  1  0.75000000  0.75000000  0.61698600  1
  C  C1_0  1  0.25000000  0.00000000  0.36698600  1
  C  C1_1  1  0.25000000  0.00000000  0.86698600  1
  C  C1_2  1  0.25000000  0.50000000  0.36698600  1
  C  C1_3  1  0.25000000  0.50000000  0.86698600  1
  C  C1_4  1  0.75000000  0.00000000  0.36698600  1
  C  C1_5  1  0.75000000  0.00000000  0.86698600  1
  C  C1_6  1  0.75000000  0.50000000  0.36698600  1
  C  C1_7  1  0.75000000  0.50000000  0.86698600  1
loop_
_geom_bond_atom_site_label_1
_geom_bond_atom_site_label_2
_geom_bond_distance
_geom_bond_site_symmetry_2
Mg0_0 Mg2_1 3.298694 1_554
Mg0_1 Mg2_0 3.298694 1_555
Mg0_2 Mg2_3 3.298694 1_554
Mg0_3 Mg2_2 3.298694 1_555
Mg0_4 Mg2_5 3.298694 1_554
Mg0_5 Mg2_4 3.298694 1_555
Mg0_6 Mg2_7 3.298694 1_554
Mg0_7 Mg2_6 3.298694 1_555
Mg1_0 Mg2_1 3.298694 1_554
Mg1_1 Mg2_0 3.298694 1_555
Mg1_2 Mg2_3 3.298694 1_554
Mg1_3 Mg2_2 3.298694 1_555
Mg1_4 Mg2_5 3.298694 1_554
Mg1_5 Mg2_4 3.298694 1_555
Mg1_6 Mg2_7 3.298694 1_554
Mg1_7 Mg2_6 3.298694 1_555
Mg2_0 Mg4_4 3.044820 1_455
Mg2_0 Mg4_0 3.044820 1_555
Mg2_0 Mg3_4 3.044820 1_455
Mg2_0 Mg3_0 3.044820 1_555
Mg2_0 Mg2_4 3.052102 1_555
Mg2_0 Mg2_4 3.052102 1_455
Mg2_0 Mg5_4 3.139121 1_455
Mg2_0 Mg5_0 3.139121 1_555
Mg2_1 Mg4_5 3.044820 1_455
Mg2_1 Mg4_1 3.044820 1_555
Mg2_1 Mg3_5 3.044820 1_455
Mg2_1 Mg3_1 3.044820 1_555
Mg2_1 Mg2_5 3.052102 1_555
Mg2_1 Mg2_5 3.052102 1_455
Mg2_1 Mg5_5 3.139121 1_455
Mg2_1 Mg5_1 3.139121 1_555
Mg2_2 Mg4_6 3.044820 1_455
Mg2_2 Mg4_2 3.044820 1_555
Mg2_2 Mg3_6 3.044820 1_455
Mg2_2 Mg3_2 3.044820 1_555
Mg2_2 Mg2_6 3.052102 1_455
Mg2_2 Mg2_6 3.052102 1_555
Mg2_2 Mg5_6 3.139121 1_455
Mg2_2 Mg5_2 3.139121 1_555
Mg2_3 Mg4_3 3.044820 1_555
Mg2_3 Mg4_7 3.044820 1_455
Mg2_3 Mg3_7 3.044820 1_455
Mg2_3 Mg3_3 3.044820 1_555
Mg2_3 Mg2_7 3.052102 1_555
Mg2_3 Mg2_7 3.052102 1_455
Mg2_3 Mg5_7 3.139121 1_455
Mg2_3 Mg5_3 3.139121 1_555
Mg2_4 Mg4_0 3.044820 1_555
Mg2_4 Mg4_4 3.044820 1_555
Mg2_4 Mg3_0 3.044820 1_555
Mg2_4 Mg3_4 3.044820 1_555
Mg2_4 Mg5_0 3.139121 1_555
Mg2_4 Mg5_4 3.139121 1_555
Mg2_5 Mg4_1 3.044820 1_555
Mg2_5 Mg4_5 3.044820 1_555
Mg2_5 Mg3_5 3.044820 1_555
Mg2_5 Mg3_1 3.044820 1_555
Mg2_5 Mg5_1 3.139121 1_555
Mg2_5 Mg5_5 3.139121 1_555
Mg2_6 Mg4_2 3.044820 1_555
Mg2_6 Mg4_6 3.044820 1_555
Mg2_6 Mg3_2 3.044820 1_555
Mg2_6 Mg3_6 3.044820 1_555
Mg2_6 Mg5_2 3.139121 1_555
Mg2_6 Mg5_6 3.139121 1_555
Mg2_7 Mg4_3 3.044820 1_555
Mg2_7 Mg4_7 3.044820 1_555
Mg2_7 Mg3_3 3.044820 1_555
Mg2_7 Mg3_7 3.044820 1_555
Mg2_7 Mg5_3 3.139121 1_555
Mg2_7 Mg5_7 3.139121 1_555
Mg3_0 Mn1_2 2.725344 1_555
Mg3_0 Mn1_6 2.725344 1_555
Mg3_1 Mn1_7 2.725344 1_555
Mg3_1 Mn1_3 2.725344 1_555
Mg3_2 Mn1_0 2.725344 1_565
Mg3_2 Mn1_4 2.725344 1_565
Mg3_3 Mn1_5 2.725344 1_565
Mg3_3 Mn1_1 2.725344 1_565
Mg3_4 Mn1_2 2.725344 1_655
Mg3_4 Mn1_6 2.725344 1_555
Mg3_5 Mn1_3 2.725344 1_655
Mg3_5 Mn1_7 2.725344 1_555
Mg3_6 Mn1_0 2.725344 1_665
Mg3_6 Mn1_4 2.725344 1_565
Mg3_7 Mn1_1 2.725344 1_665
Mg3_7 Mn1_5 2.725344 1_565
Mg4_0 Mn1_4 2.725344 1_555
Mg4_0 Mn1_0 2.725344 1_555
Mg4_1 Mn1_5 2.725344 1_555
Mg4_1 Mn1_1 2.725344 1_555
Mg4_2 Mn1_2 2.725344 1_555
Mg4_2 Mn1_6 2.725344 1_555
Mg4_3 Mn1_3 2.725344 1_555
Mg4_3 Mn1_7 2.725344 1_555
Mg4_4 Mn1_0 2.725344 1_655
Mg4_4 Mn1_4 2.725344 1_555
Mg4_5 Mn1_1 2.725344 1_655
Mg4_5 Mn1_5 2.725344 1_555
Mg4_6 Mn1_2 2.725344 1_655
Mg4_6 Mn1_6 2.725344 1_555
Mg4_7 Mn1_3 2.725344 1_655
Mg4_7 Mn1_7 2.725344 1_555
Mg5_0 Mn0_0 2.963528 1_555
Mg5_0 Mn0_4 2.963528 1_555
Mg5_0 Mg9_0 3.031758 1_555
Mg5_0 Mg5_4 3.052102 1_455
Mg5_0 Mg5_4 3.052102 1_555
Mg5_1 Mn0_1 2.963528 1_555
Mg5_1 Mn0_5 2.963528 1_555
Mg5_1 Mg9_1 3.031758 1_555
Mg5_1 Mg5_5 3.052102 1_455
Mg5_1 Mg5_5 3.052102 1_555
Mg5_2 Mn0_6 2.963528 1_555
Mg5_2 Mn0_2 2.963528 1_555
Mg5_2 Mg9_2 3.031758 1_555
Mg5_2 Mg5_6 3.052102 1_455
Mg5_2 Mg5_6 3.052102 1_555
Mg5_3 Mn0_7 2.963528 1_555
Mg5_3 Mn0_3 2.963528 1_555
Mg5_3 Mg9_3 3.031758 1_555
Mg5_3 Mg5_7 3.052102 1_455
Mg5_3 Mg5_7 3.052102 1_555
Mg5_4 Mn0_0 2.963528 1_655
Mg5_4 Mn0_4 2.963528 1_555
Mg5_4 Mg9_4 3.031758 1_555
Mg5_5 Mn0_1 2.963528 1_655
Mg5_5 Mn0_5 2.963528 1_555
Mg5_5 Mg9_5 3.031758 1_555
Mg5_6 Mn0_2 2.963528 1_655
Mg5_6 Mn0_6 2.963528 1_555
Mg5_6 Mg9_6 3.031758 1_555
Mg5_7 Mn0_3 2.963528 1_655
Mg5_7 Mn0_7 2.963528 1_555
Mg5_7 Mg9_7 3.031758 1_555
Mg6_0 Mg8_0 3.298694 1_555
Mg6_1 Mg8_1 3.298694 1_555
Mg6_2 Mg8_2 3.298694 1_555
Mg6_3 Mg8_3 3.298694 1_555
Mg6_4 Mg8_4 3.298694 1_555
Mg6_5 Mg8_5 3.298694 1_555
Mg6_6 Mg8_6 3.298694 1_555
Mg6_7 Mg8_7 3.298694 1_555
Mg7_0 Mg8_2 3.298694 1_555
Mg7_1 Mg8_3 3.298694 1_555
Mg7_2 Mg8_0 3.298694 1_565
Mg7_3 Mg8_1 3.298694 1_565
Mg7_4 Mg8_6 3.298694 1_555
Mg7_5 Mg8_7 3.298694 1_555
Mg7_6 Mg8_4 3.298694 1_565
Mg7_7 Mg8_5 3.298694 1_565
Mg8_0 Mg9_4 3.044820 1_455
Mg8_0 Mg9_0 3.044820 1_555
Mg8_0 Mg8_4 3.052102 1_455
Mg8_0 Mg8_4 3.052102 1_555
Mg8_1 Mg9_5 3.044820 1_455
Mg8_1 Mg9_1 3.044820 1_555
Mg8_1 Mg8_5 3.052102 1_555
Mg8_1 Mg8_5 3.052102 1_455
Mg8_2 Mg9_6 3.044820 1_455
Mg8_2 Mg9_2 3.044820 1_555
Mg8_2 Mg8_6 3.052102 1_455
Mg8_2 Mg8_6 3.052102 1_555
Mg8_3 Mg9_7 3.044820 1_455
Mg8_3 Mg9_3 3.044820 1_555
Mg8_3 Mg8_7 3.052102 1_455
Mg8_3 Mg8_7 3.052102 1_555
Mg8_4 Mg9_0 3.044820 1_555
Mg8_4 Mg9_4 3.044820 1_555
Mg8_5 Mg9_1 3.044820 1_555
Mg8_5 Mg9_5 3.044820 1_555
Mg8_6 Mg9_2 3.044820 1_555
Mg8_6 Mg9_6 3.044820 1_555
Mg8_7 Mg9_7 3.044820 1_555
Mg8_7 Mg9_3 3.044820 1_555
Mg9_0 Mn0_0 2.725344 1_555
Mg9_0 Mn0_4 2.725344 1_555
Mg9_1 Mn0_1 2.725344 1_555
Mg9_1 Mn0_5 2.725344 1_555
Mg9_2 Mn0_2 2.725344 1_555
Mg9_2 Mn0_6 2.725344 1_555
Mg9_3 Mn0_7 2.725344 1_555
Mg9_3 Mn0_3 2.725344 1_555
Mg9_4 Mn0_0 2.725344 1_655
Mg9_4 Mn0_4 2.725344 1_555
Mg9_5 Mn0_1 2.725344 1_655
Mg9_5 Mn0_5 2.725344 1_555
Mg9_6 Mn0_2 2.725344 1_655
Mg9_6 Mn0_6 2.725344 1_555
Mg9_7 Mn0_3 2.725344 1_655
Mg9_7 Mn0_7 2.725344 1_555
Mg10_0 Mn0_4 2.725344 1_555
Mg10_0 Mn0_0 2.725344 1_555
Mg10_0 Mg5_0 3.031758 1_555
Mg10_0 Mg8_6 3.044820 1_555
Mg10_0 Mg8_2 3.044820 1_555
Mg10_1 Mn0_1 2.725344 1_555
Mg10_1 Mn0_5 2.725344 1_555
Mg10_1 Mg5_1 3.031758 1_555
Mg10_1 Mg8_3 3.044820 1_555
Mg10_1 Mg8_7 3.044820 1_555
Mg10_2 Mn0_6 2.725344 1_555
Mg10_2 Mn0_2 2.725344 1_555
Mg10_2 Mg5_2 3.031758 1_555
Mg10_2 Mg8_4 3.044820 1_565
Mg10_2 Mg8_0 3.044820 1_565
Mg10_3 Mn0_3 2.725344 1_555
Mg10_3 Mn0_7 2.725344 1_555
Mg10_3 Mg5_3 3.031758 1_555
Mg10_3 Mg8_1 3.044820 1_565
Mg10_3 Mg8_5 3.044820 1_565
Mg10_4 Mn0_0 2.725344 1_655
Mg10_4 Mn0_4 2.725344 1_555
Mg10_4 Mg5_4 3.031758 1_555
Mg10_4 Mg8_2 3.044820 1_655
Mg10_4 Mg8_6 3.044820 1_555
Mg10_5 Mn0_1 2.725344 1_655
Mg10_5 Mn0_5 2.725344 1_555
Mg10_5 Mg5_5 3.031758 1_555
Mg10_5 Mg8_3 3.044820 1_655
Mg10_5 Mg8_7 3.044820 1_555
Mg10_6 Mn0_2 2.725344 1_655
Mg10_6 Mn0_6 2.725344 1_555
Mg10_6 Mg5_6 3.031758 1_555
Mg10_6 Mg8_0 3.044820 1_665
Mg10_6 Mg8_4 3.044820 1_565
Mg10_7 Mn0_3 2.725344 1_655
Mg10_7 Mn0_7 2.725344 1_555
Mg10_7 Mg5_7 3.031758 1_555
Mg10_7 Mg8_1 3.044820 1_665
Mg10_7 Mg8_5 3.044820 1_565
Mg11_0 Mn1_1 2.963528 1_554
Mg11_0 Mn1_5 2.963528 1_554
Mg11_0 Mg4_1 3.031758 1_554
Mg11_0 Mg3_3 3.031758 1_544
Mg11_0 Mg11_4 3.052102 1_455
Mg11_0 Mg11_4 3.052102 1_555
Mg11_0 Mg8_0 3.139121 1_555
Mg11_0 Mg8_4 3.139121 1_555
Mg11_1 Mn1_4 2.963528 1_555
Mg11_1 Mn1_0 2.963528 1_555
Mg11_1 Mg3_2 3.031758 1_545
Mg11_1 Mg4_0 3.031758 1_555
Mg11_1 Mg11_5 3.052102 1_455
Mg11_1 Mg11_5 3.052102 1_555
Mg11_1 Mg8_1 3.139121 1_555
Mg11_1 Mg8_5 3.139121 1_555
Mg11_2 Mn1_3 2.963528 1_554
Mg11_2 Mn1_7 2.963528 1_554
Mg11_2 Mg3_1 3.031758 1_554
Mg11_2 Mg4_3 3.031758 1_554
Mg11_2 Mg11_6 3.052102 1_455
Mg11_2 Mg11_6 3.052102 1_555
Mg11_2 Mg8_6 3.139121 1_555
Mg11_2 Mg8_2 3.139121 1_555
Mg11_3 Mn1_2 2.963528 1_555
Mg11_3 Mn1_6 2.963528 1_555
Mg11_3 Mg3_0 3.031758 1_555
Mg11_3 Mg4_2 3.031758 1_555
Mg11_3 Mg11_7 3.052102 1_455
Mg11_3 Mg11_7 3.052102 1_555
Mg11_3 Mg8_3 3.139121 1_555
Mg11_3 Mg8_7 3.139121 1_555
Mg11_4 Mn1_1 2.963528 1_654
Mg11_4 Mn1_5 2.963528 1_554
Mg11_4 Mg3_7 3.031758 1_544
Mg11_4 Mg4_5 3.031758 1_554
Mg11_4 Mg8_0 3.139121 1_655
Mg11_4 Mg8_4 3.139121 1_555
Mg11_5 Mn1_0 2.963528 1_655
Mg11_5 Mn1_4 2.963528 1_555
Mg11_5 Mg3_6 3.031758 1_545
Mg11_5 Mg4_4 3.031758 1_555
Mg11_5 Mg8_1 3.139121 1_655
Mg11_5 Mg8_5 3.139121 1_555
Mg11_6 Mn1_3 2.963528 1_654
Mg11_6 Mn1_7 2.963528 1_554
Mg11_6 Mg3_5 3.031758 1_554
Mg11_6 Mg4_7 3.031758 1_554
Mg11_6 Mg8_2 3.139121 1_655
Mg11_6 Mg8_6 3.139121 1_555
Mg11_7 Mn1_2 2.963528 1_655
Mg11_7 Mn1_6 2.963528 1_555
Mg11_7 Mg3_4 3.031758 1_555
Mg11_7 Mg4_6 3.031758 1_555
Mg11_7 Mg8_3 3.139121 1_655
Mg11_7 Mg8_7 3.139121 1_555
C0_0 Mn0_4 1.859340 1_555
C0_0 Mn0_0 1.859340 1_555
C0_0 Mg1_4 2.467783 1_555
C0_0 Mg0_0 2.467783 1_555
C0_0 Mg0_4 2.467783 1_555
C0_0 Mg1_0 2.467783 1_555
C0_0 Mg10_0 2.685906 1_555
C0_0 Mg9_0 2.685906 1_555
C0_1 Mn0_5 1.859340 1_555
C0_1 Mn0_1 1.859340 1_555
C0_1 Mg1_1 2.467783 1_555
C0_1 Mg0_5 2.467783 1_555
C0_1 Mg1_5 2.467783 1_555
C0_1 Mg0_1 2.467783 1_555
C0_1 Mg10_1 2.685906 1_555
C0_1 Mg9_1 2.685906 1_555
C0_2 Mn0_2 1.859340 1_555
C0_2 Mn0_6 1.859340 1_555
C0_2 Mg0_6 2.467783 1_555
C0_2 Mg0_2 2.467783 1_555
C0_2 Mg1_2 2.467783 1_555
C0_2 Mg1_6 2.467783 1_555
C0_2 Mg10_2 2.685906 1_555
C0_2 Mg9_2 2.685906 1_555
C0_3 Mn0_3 1.859340 1_555
C0_3 Mn0_7 1.859340 1_555
C0_3 Mg0_7 2.467783 1_555
C0_3 Mg1_3 2.467783 1_555
C0_3 Mg1_7 2.467783 1_555
C0_3 Mg0_3 2.467783 1_555
C0_3 Mg10_3 2.685906 1_555
C0_3 Mg9_3 2.685906 1_555
C0_4 Mn0_0 1.859340 1_655
C0_4 Mn0_4 1.859340 1_555
C0_4 Mg1_0 2.467783 1_655
C0_4 Mg0_0 2.467783 1_655
C0_4 Mg0_4 2.467783 1_555
C0_4 Mg1_4 2.467783 1_555
C0_4 Mg10_4 2.685906 1_555
C0_4 Mg9_4 2.685906 1_555
C0_5 Mn0_1 1.859340 1_655
C0_5 Mn0_5 1.859340 1_555
C0_5 Mg0_1 2.467783 1_655
C0_5 Mg1_1 2.467783 1_655
C0_5 Mg0_5 2.467783 1_555
C0_5 Mg1_5 2.467783 1_555
C0_5 Mg10_5 2.685906 1_555
C0_5 Mg9_5 2.685906 1_555
C0_6 Mn0_2 1.859340 1_655
C0_6 Mn0_6 1.859340 1_555
C0_6 Mg0_2 2.467783 1_655
C0_6 Mg1_2 2.467783 1_655
C0_6 Mg0_6 2.467783 1_555
C0_6 Mg1_6 2.467783 1_555
C0_6 Mg10_6 2.685906 1_555
C0_6 Mg9_6 2.685906 1_555
C0_7 Mn0_3 1.859340 1_655
C0_7 Mn0_7 1.859340 1_555
C0_7 Mg1_3 2.467783 1_655
C0_7 Mg0_3 2.467783 1_655
C0_7 Mg1_7 2.467783 1_555
C0_7 Mg0_7 2.467783 1_555
C0_7 Mg10_7 2.685906 1_555
C0_7 Mg9_7 2.685906 1_555
C1_0 Mn1_0 1.859340 1_555
C1_0 Mn1_4 1.859340 1_555
C1_0 Mg7_2 2.467783 1_545
C1_0 Mg7_6 2.467783 1_545
C1_0 Mg6_4 2.467783 1_555
C1_0 Mg6_0 2.467783 1_555
C1_0 Mg3_2 2.685906 1_545
C1_0 Mg4_0 2.685906 1_555
C1_1 Mn1_5 1.859340 1_555
C1_1 Mn1_1 1.859340 1_555
C1_1 Mg7_3 2.467783 1_545
C1_1 Mg7_7 2.467783 1_545
C1_1 Mg6_1 2.467783 1_555
C1_1 Mg6_5 2.467783 1_555
C1_1 Mg3_3 2.685906 1_545
C1_1 Mg4_1 2.685906 1_555
C1_2 Mn1_6 1.859340 1_555
C1_2 Mn1_2 1.859340 1_555
C1_2 Mg7_4 2.467783 1_555
C1_2 Mg7_0 2.467783 1_555
C1_2 Mg6_2 2.467783 1_555
C1_2 Mg6_6 2.467783 1_555
C1_2 Mg3_0 2.685906 1_555
C1_2 Mg4_2 2.685906 1_555
C1_3 Mn1_7 1.859340 1_555
C1_3 Mn1_3 1.859340 1_555
C1_3 Mg7_1 2.467783 1_555
C1_3 Mg7_5 2.467783 1_555
C1_3 Mg6_3 2.467783 1_555
C1_3 Mg6_7 2.467783 1_555
C1_3 Mg3_1 2.685906 1_555
C1_3 Mg4_3 2.685906 1_555
C1_4 Mn1_0 1.859340 1_655
C1_4 Mn1_4 1.859340 1_555
C1_4 Mg7_2 2.467783 1_645
C1_4 Mg7_6 2.467783 1_545
C1_4 Mg6_0 2.467783 1_655
C1_4 Mg6_4 2.467783 1_555
C1_4 Mg3_6 2.685906 1_545
C1_4 Mg4_4 2.685906 1_555
C1_5 Mn1_1 1.859340 1_655
C1_5 Mn1_5 1.859340 1_555
C1_5 Mg7_3 2.467783 1_645
C1_5 Mg7_7 2.467783 1_545
C1_5 Mg6_1 2.467783 1_655
C1_5 Mg6_5 2.467783 1_555
C1_5 Mg3_7 2.685906 1_545
C1_5 Mg4_5 2.685906 1_555
C1_6 Mn1_2 1.859340 1_655
C1_6 Mn1_6 1.859340 1_555
C1_6 Mg7_0 2.467783 1_655
C1_6 Mg6_2 2.467783 1_655
C1_6 Mg7_4 2.467783 1_555
C1_6 Mg6_6 2.467783 1_555
C1_6 Mg3_4 2.685906 1_555
C1_6 Mg4_6 2.685906 1_555
C1_7 Mn1_3 1.859340 1_655
C1_7 Mn1_7 1.859340 1_555
C1_7 Mg7_1 2.467783 1_655
C1_7 Mg7_5 2.467783 1_555
C1_7 Mg6_3 2.467783 1_655
C1_7 Mg6_7 2.467783 1_555
C1_7 Mg3_5 2.685906 1_555
C1_7 Mg4_7 2.685906 1_555
