# generated using pymatgen
data_YbRh3C
_symmetry_space_group_name_H-M   'P 1'
_cell_length_a   4.12079286
_cell_length_b   4.12079286
_cell_length_c   4.12079286
_cell_angle_alpha   90.00000000
_cell_angle_beta   90.00000000
_cell_angle_gamma   90.00000000
_symmetry_Int_Tables_number   1
_chemical_formula_structural   YbRh3C
_chemical_formula_sum   'Yb1 Rh3 C1'
_cell_volume   69.97491075
_cell_formula_units_Z   1
loop_
 _symmetry_equiv_pos_site_id
 _symmetry_equiv_pos_as_xyz
  1  'x, y, z'
loop_
 _atom_site_type_symbol
 _atom_site_label
 _atom_site_symmetry_multiplicity
 _atom_site_fract_x
 _atom_site_fract_y
 _atom_site_fract_z
 _atom_site_occupancy
  Yb  Yb0  1  0.00000000  0.00000000  0.00000000  1
  Rh  Rh0  1  0.00000000  0.50000000  0.50000000  1
  Rh  Rh1  1  0.50000000  0.50000000  0.00000000  1
  Rh  Rh2  1  0.50000000  0.00000000  0.50000000  1
  C  C0  1  0.50000000  0.50000000  0.50000000  1
loop_
_geom_bond_atom_site_label_1
_geom_bond_atom_site_label_2
_geom_bond_distance
_geom_bond_site_symmetry_2
Rh0 Yb0 2.913841 1_555
Rh0 Yb0 2.913841 1_556
Rh0 Yb0 2.913841 1_566
Rh0 Yb0 2.913841 1_565
Rh1 Yb0 2.913841 1_555
Rh1 Yb0 2.913841 1_655
Rh1 Yb0 2.913841 1_565
Rh1 Yb0 2.913841 1_665
Rh2 Yb0 2.913841 1_555
Rh2 Yb0 2.913841 1_556
Rh2 Yb0 2.913841 1_655
Rh2 Yb0 2.913841 1_656
C0 Rh0 2.060396 1_655
C0 Rh1 2.060396 1_555
C0 Rh2 2.060396 1_565
C0 Rh1 2.060396 1_556
C0 Rh0 2.060396 1_555
C0 Rh2 2.060396 1_555
