# generated using pymatgen
data_Li9Mn2Co5O16
_symmetry_space_group_name_H-M   'P 1'
_cell_length_a   2.90950400
_cell_length_b   5.17729500
_cell_length_c   19.43259871
_cell_angle_alpha   83.52716573
_cell_angle_beta   90.00000000
_cell_angle_gamma   90.00000000
_symmetry_Int_Tables_number   1
_chemical_formula_structural   Li9Mn2Co5O16
_chemical_formula_sum   'Li9 Mn2 Co5 O16'
_cell_volume   290.85427063
_cell_formula_units_Z   1
loop_
 _symmetry_equiv_pos_site_id
 _symmetry_equiv_pos_as_xyz
  1  'x, y, z'
loop_
 _atom_site_type_symbol
 _atom_site_label
 _atom_site_symmetry_multiplicity
 _atom_site_fract_x
 _atom_site_fract_y
 _atom_site_fract_z
 _atom_site_occupancy
  Li  Li0  1  0.50000000  0.87043700  0.87413100  1
  Li  Li1  1  0.50000000  0.62415000  0.62033600  1
  Li  Li2  1  0.50000000  0.37868100  0.37811500  1
  Li  Li3  1  0.50000000  0.12515000  0.12722300  1
  Li  Li4  1  0.00000000  0.38049900  0.87533100  1
  Li  Li5  1  0.00000000  0.11073900  0.61863100  1
  Li  Li6  1  0.00000000  0.88479600  0.38018200  1
  Li  Li7  1  0.00000000  0.62523400  0.12591500  1
  Li  Li8  1  0.00000000  0.49990400  0.49948600  1
  Mn  Mn0  1  0.00000000  0.00019200  0.00040700  1
  Mn  Mn1  1  0.50000000  0.24891300  0.74818900  1
  Co  Co0  1  0.00000000  0.74832100  0.74866400  1
  Co  Co1  1  0.00000000  0.25136100  0.25144100  1
  Co  Co2  1  0.50000000  0.49997100  0.00060700  1
  Co  Co3  1  0.50000000  0.00030100  0.49931600  1
  Co  Co4  1  0.50000000  0.75078700  0.25191000  1
  O  O0  1  0.50000000  0.16324000  0.94213200  1
  O  O1  1  0.50000000  0.90798800  0.68922400  1
  O  O2  1  0.50000000  0.73654500  0.44601900  1
  O  O3  1  0.50000000  0.43781000  0.19370500  1
  O  O4  1  0.00000000  0.65820200  0.94446300  1
  O  O5  1  0.00000000  0.42649900  0.69176900  1
  O  O6  1  0.00000000  0.17130300  0.44451600  1
  O  O7  1  0.00000000  0.93541300  0.19400500  1
  O  O8  1  0.50000000  0.58217000  0.80957100  1
  O  O9  1  0.50000000  0.26543500  0.55330000  1
  O  O10  1  0.50000000  0.06925500  0.30765900  1
  O  O11  1  0.50000000  0.83677800  0.05856000  1
  O  O12  1  0.00000000  0.07055100  0.80436800  1
  O  O13  1  0.00000000  0.82982100  0.55420600  1
  O  O14  1  0.00000000  0.56667900  0.30970200  1
  O  O15  1  0.00000000  0.34287300  0.05691700  1
loop_
_geom_bond_atom_site_label_1
_geom_bond_atom_site_label_2
_geom_bond_distance
_geom_bond_site_symmetry_2
Li0 O8 2.055111 1_555
Li0 O0 2.120349 1_565
Li0 O12 2.170457 1_565
Li0 O12 2.170457 1_665
Li0 O4 2.202961 1_555
Li0 O4 2.202961 1_655
Li1 O1 2.096437 1_555
Li1 O13 2.143140 1_655
Li1 O13 2.143140 1_555
Li1 O5 2.184051 1_555
Li1 O5 2.184051 1_655
Li1 O9 2.385696 1_555
Li2 O14 2.130570 1_555
Li2 O14 2.130570 1_655
Li2 O6 2.149808 1_555
Li2 O6 2.149808 1_655
Li2 O10 2.221587 1_555
Li2 O2 2.392735 1_555
Li3 O11 2.111519 1_545
Li3 O7 2.116126 1_645
Li3 O7 2.116126 1_545
Li3 O3 2.181938 1_555
Li3 O15 2.215012 1_555
Li3 O15 2.215012 1_655
Li4 O4 2.075421 1_555
Li4 O8 2.130408 1_555
Li4 O8 2.130408 1_455
Li4 O0 2.176559 1_455
Li4 O0 2.176559 1_555
Li4 O12 2.230602 1_555
Li5 O13 2.023157 1_545
Li5 O9 2.034764 1_455
Li5 O9 2.034764 1_555
Li5 O1 2.185260 1_445
Li5 O1 2.185260 1_545
Li5 O5 2.283934 1_555
Li6 O2 2.029986 1_555
Li6 O2 2.029986 1_455
Li6 O6 2.044828 1_565
Li6 O10 2.170491 1_465
Li6 O10 2.170491 1_565
Li6 O14 2.257649 1_555
Li7 O15 2.092069 1_555
Li7 O3 2.122510 1_455
Li7 O3 2.122510 1_555
Li7 O11 2.169283 1_455
Li7 O11 2.169283 1_555
Li7 O7 2.192880 1_555
Li8 O9 2.096965 1_555
Li8 O9 2.096965 1_455
Li8 O2 2.099963 1_555
Li8 O2 2.099963 1_455
Li8 O6 2.108343 1_555
Li8 O13 2.111339 1_555
Mn0 O11 1.973214 1_545
Mn0 O11 1.973214 1_445
Mn0 O0 1.973770 1_454
Mn0 O0 1.973770 1_554
Mn0 O4 2.179638 1_544
Mn0 O15 2.189250 1_555
Mn1 O12 1.983319 1_655
Mn1 O12 1.983319 1_555
Mn1 O5 1.984040 1_555
Mn1 O5 1.984040 1_655
Mn1 O8 2.205383 1_555
Mn1 O1 2.210074 1_545
Co0 O1 1.979534 1_555
Co0 O1 1.979534 1_455
Co0 O8 2.006884 1_555
Co0 O8 2.006884 1_455
Co0 O12 2.088556 1_565
Co0 O5 2.100915 1_555
Co1 O10 1.991596 1_455
Co1 O10 1.991596 1_555
Co1 O3 2.015619 1_455
Co1 O3 2.015619 1_555
Co1 O7 2.081605 1_545
Co1 O14 2.088910 1_555
Co2 O15 1.942820 1_555
Co2 O15 1.942820 1_655
Co2 O4 1.943251 1_554
Co2 O4 1.943251 1_654
Co2 O11 2.179839 1_555
Co2 O0 2.185672 1_554
Co3 O2 1.804509 1_545
Co3 O9 1.819180 1_555
Co3 O13 1.954692 1_545
Co3 O13 1.954692 1_645
Co3 O6 1.954883 1_655
Co3 O6 1.954883 1_555
Co4 O14 2.011155 1_555
Co4 O14 2.011155 1_655
Co4 O7 2.013367 1_655
Co4 O7 2.013367 1_555
Co4 O10 2.072420 1_565
Co4 O3 2.078019 1_555
