# generated using pymatgen
data_PrAlZn
_symmetry_space_group_name_H-M   'P 1'
_cell_length_a   5.79812099
_cell_length_b   5.79812099
_cell_length_c   7.57525553
_cell_angle_alpha   50.66336578
_cell_angle_beta   50.66336578
_cell_angle_gamma   46.66665622
_symmetry_Int_Tables_number   1
_chemical_formula_structural   PrAlZn
_chemical_formula_sum   'Pr2 Al2 Zn2'
_cell_volume   134.01781376
_cell_formula_units_Z   2
loop_
 _symmetry_equiv_pos_site_id
 _symmetry_equiv_pos_as_xyz
  1  'x, y, z'
loop_
 _atom_site_type_symbol
 _atom_site_label
 _atom_site_symmetry_multiplicity
 _atom_site_fract_x
 _atom_site_fract_y
 _atom_site_fract_z
 _atom_site_occupancy
  Pr  Pr0  1  0.53773401  0.53773401  0.20854868  1
  Pr  Pr1  1  0.46226599  0.46226599  0.79145132  1
  Al  Al0  1  0.16272734  0.16272734  0.39237779  1
  Al  Al1  1  0.83727266  0.83727266  0.60762221  1
  Zn  Zn0  1  0.83538337  0.83538337  0.22115955  1
  Zn  Zn1  1  0.16461663  0.16461663  0.77884045  1
loop_
_geom_bond_atom_site_label_1
_geom_bond_atom_site_label_2
_geom_bond_distance
_geom_bond_site_symmetry_2
Pr0 Zn0 3.105035 1_455
Pr0 Zn0 3.105035 1_545
Pr0 Zn0 3.236014 1_555
Pr0 Zn1 3.278776 1_555
Pr0 Zn1 3.409307 1_564
Pr0 Zn1 3.409307 1_654
Pr1 Zn1 3.105035 1_655
Pr1 Zn1 3.105035 1_565
Pr1 Zn1 3.236014 1_555
Pr1 Zn0 3.278776 1_555
Pr1 Zn0 3.409307 1_456
Pr1 Zn0 3.409307 1_546
Al0 Al1 2.620348 1_445
Al0 Zn0 2.654031 1_455
Al0 Zn0 2.654031 1_545
Al0 Zn1 2.941477 1_555
Al0 Pr1 3.171748 1_455
Al0 Pr1 3.171748 1_545
Al0 Pr0 3.194716 1_555
Al0 Pr1 3.293790 1_554
Al0 Pr0 3.397558 1_455
Al0 Pr0 3.397558 1_545
Al1 Zn1 2.654031 1_565
Al1 Zn1 2.654031 1_655
Al1 Zn0 2.941477 1_555
Al1 Pr0 3.171748 1_655
Al1 Pr0 3.171748 1_565
Al1 Pr1 3.194716 1_555
Al1 Pr0 3.293790 1_556
Al1 Pr1 3.397558 1_655
Al1 Pr1 3.397558 1_565
Zn0 Zn1 2.701636 1_664
