# generated using pymatgen
data_LiAl4Zn2O8
_symmetry_space_group_name_H-M   'P 1'
_cell_length_a   5.74813993
_cell_length_b   5.97091188
_cell_length_c   5.74814037
_cell_angle_alpha   62.71715837
_cell_angle_beta   60.54439511
_cell_angle_gamma   62.71714799
_symmetry_Int_Tables_number   1
_chemical_formula_structural   LiAl4Zn2O8
_chemical_formula_sum   'Li1 Al4 Zn2 O8'
_cell_volume   145.59090214
_cell_formula_units_Z   1
loop_
 _symmetry_equiv_pos_site_id
 _symmetry_equiv_pos_as_xyz
  1  'x, y, z'
loop_
 _atom_site_type_symbol
 _atom_site_label
 _atom_site_symmetry_multiplicity
 _atom_site_fract_x
 _atom_site_fract_y
 _atom_site_fract_z
 _atom_site_occupancy
  Li  Li0  1  0.00000000  0.50000000  0.00000000  1
  Al  Al0  1  0.14039000  0.05072200  0.14039000  1
  Al  Al1  1  0.50000000  0.50000000  0.50000000  1
  Al  Al2  1  0.50000000  0.00000000  0.50000000  1
  Al  Al3  1  0.85961000  0.94927800  0.85961000  1
  Zn  Zn0  1  0.00000000  0.50000000  0.50000000  1
  Zn  Zn1  1  0.50000000  0.50000000  0.00000000  1
  O  O0  1  0.26355800  0.20144000  0.26355800  1
  O  O1  1  0.26987000  0.24587300  0.74137700  1
  O  O2  1  0.27928900  0.70028700  0.27928900  1
  O  O3  1  0.74137700  0.24587300  0.26987000  1
  O  O4  1  0.25862300  0.75412700  0.73013000  1
  O  O5  1  0.72071100  0.29971300  0.72071100  1
  O  O6  1  0.73013000  0.75412700  0.25862300  1
  O  O7  1  0.73644200  0.79856000  0.73644200  1
loop_
_geom_bond_atom_site_label_1
_geom_bond_atom_site_label_2
_geom_bond_distance
_geom_bond_site_symmetry_2
Li0 O6 2.135604 1_455
Li0 O1 2.135604 1_554
Li0 O4 2.135604 1_554
Li0 O3 2.135604 1_455
Li0 O0 2.252471 1_555
Li0 O7 2.252471 1_454
Al0 O2 1.793586 1_545
Al0 O0 1.863742 1_555
Al0 O3 1.959158 1_455
Al0 O1 1.959158 1_554
Al1 O5 1.857522 1_555
Al1 O2 1.857522 1_555
Al1 O4 2.020474 1_555
Al1 O3 2.020474 1_555
Al1 O6 2.020475 1_555
Al1 O1 2.020475 1_555
Al2 O7 1.990073 1_545
Al2 O0 1.990073 1_555
Al2 O1 2.027837 1_555
Al2 O6 2.027837 1_545
Al2 O3 2.027838 1_555
Al2 O4 2.027838 1_545
Al3 O5 1.793586 1_565
Al3 O7 1.863742 1_555
Al3 O4 1.959158 1_655
Al3 O6 1.959158 1_556
O0 Zn0 2.245098 1_555
O0 Zn1 2.245099 1_555
O1 Zn0 2.159323 1_555
O2 Zn1 1.995755 1_555
O2 Zn0 1.995755 1_555
O3 Zn1 2.159323 1_555
O4 Zn1 2.159323 1_556
O5 Zn1 1.995755 1_556
O5 Zn0 1.995755 1_655
O6 Zn0 2.159323 1_655
O7 Zn0 2.245098 1_655
O7 Zn1 2.245099 1_556
