# generated using pymatgen
data_La2Fe(SeO)2
_symmetry_space_group_name_H-M   'P 1'
_cell_length_a   4.03387300
_cell_length_b   16.53435700
_cell_length_c   17.65209100
_cell_angle_alpha   90.00000000
_cell_angle_beta   90.00000000
_cell_angle_gamma   90.00000000
_symmetry_Int_Tables_number   1
_chemical_formula_structural   La2Fe(SeO)2
_chemical_formula_sum   'La16 Fe8 Se16 O16'
_cell_volume   1177.35027371
_cell_formula_units_Z   8
loop_
 _symmetry_equiv_pos_site_id
 _symmetry_equiv_pos_as_xyz
  1  'x, y, z'
loop_
 _atom_site_type_symbol
 _atom_site_label
 _atom_site_symmetry_multiplicity
 _atom_site_fract_x
 _atom_site_fract_y
 _atom_site_fract_z
 _atom_site_occupancy
  La  La0  1  0.00136700  0.97704600  0.08998300  1
  La  La1  1  0.50136700  0.02295400  0.91001700  1
  La  La2  1  0.50136700  0.47704600  0.41001700  1
  La  La3  1  0.00136700  0.52295400  0.58998300  1
  La  La4  1  0.50860800  0.48223700  0.09030700  1
  La  La5  1  0.00860800  0.51776300  0.90969300  1
  La  La6  1  0.00860800  0.98223700  0.40969300  1
  La  La7  1  0.50860800  0.01776300  0.59030700  1
  La  La8  1  0.00716500  0.67748200  0.08424300  1
  La  La9  1  0.50716500  0.32251800  0.91575700  1
  La  La10  1  0.50716500  0.17748200  0.41575700  1
  La  La11  1  0.00716500  0.82251800  0.58424300  1
  La  La12  1  0.49969300  0.17195000  0.08819700  1
  La  La13  1  0.99969300  0.82805000  0.91180300  1
  La  La14  1  0.99969300  0.67195000  0.41180300  1
  La  La15  1  0.49969300  0.32805000  0.58819700  1
  Fe  Fe0  1  0.00158700  0.38436000  0.75176100  1
  Fe  Fe1  1  0.50158700  0.61564000  0.24823900  1
  Fe  Fe2  1  0.50158700  0.88436000  0.74823900  1
  Fe  Fe3  1  0.00158700  0.11564000  0.25176100  1
  Fe  Fe4  1  0.00233800  0.33805000  0.22326400  1
  Fe  Fe5  1  0.50233800  0.66195000  0.77673600  1
  Fe  Fe6  1  0.50233800  0.83805000  0.27673600  1
  Fe  Fe7  1  0.00233800  0.16195000  0.72326400  1
  Se  Se0  1  0.01748500  0.01168200  0.74921800  1
  Se  Se1  1  0.51748500  0.98831800  0.25078200  1
  Se  Se2  1  0.51748500  0.51168200  0.75078200  1
  Se  Se3  1  0.01748500  0.48831800  0.24921800  1
  Se  Se4  1  0.00541700  0.33037200  0.07483500  1
  Se  Se5  1  0.50541700  0.66962800  0.92516500  1
  Se  Se6  1  0.50541700  0.83037200  0.42516500  1
  Se  Se7  1  0.00541700  0.16962800  0.57483500  1
  Se  Se8  1  0.50659000  0.82737600  0.06092000  1
  Se  Se9  1  0.00659000  0.17262400  0.93908000  1
  Se  Se10  1  0.00659000  0.32737600  0.43908000  1
  Se  Se11  1  0.50659000  0.67262400  0.56092000  1
  Se  Se12  1  0.00452200  0.75429800  0.74780200  1
  Se  Se13  1  0.50452200  0.24570200  0.25219800  1
  Se  Se14  1  0.50452200  0.25429800  0.75219800  1
  Se  Se15  1  0.00452200  0.74570200  0.24780200  1
  O  O0  1  0.00030400  0.11732200  0.14026600  1
  O  O1  1  0.50030400  0.88267800  0.85973400  1
  O  O2  1  0.50030400  0.61732200  0.35973400  1
  O  O3  1  0.00030400  0.38267800  0.64026600  1
  O  O4  1  0.50702500  0.62207800  0.13624900  1
  O  O5  1  0.00702500  0.37792200  0.86375100  1
  O  O6  1  0.00702500  0.12207800  0.36375100  1
  O  O7  1  0.50702500  0.87792200  0.63624900  1
  O  O8  1  0.00105700  0.53796700  0.45344100  1
  O  O9  1  0.50105700  0.46203300  0.54655900  1
  O  O10  1  0.50105700  0.03796700  0.04655900  1
  O  O11  1  0.00105700  0.96203300  0.95344100  1
  O  O12  1  0.50874400  0.04201600  0.45602300  1
  O  O13  1  0.00874400  0.95798400  0.54397700  1
  O  O14  1  0.00874400  0.54201600  0.04397700  1
  O  O15  1  0.50874400  0.45798400  0.95602300  1
loop_
_geom_bond_atom_site_label_1
_geom_bond_atom_site_label_2
_geom_bond_distance
_geom_bond_site_symmetry_2
La0 O10 2.380164 1_565
La0 O10 2.382283 1_465
La0 O11 2.423001 1_554
La0 O0 2.483414 1_565
La0 Se8 3.220374 1_455
La0 Se8 3.246657 1_555
La0 Se1 3.449849 1_455
La0 Se1 3.525054 1_555
La1 O11 2.380164 1_645
La1 O11 2.382283 1_545
La1 O10 2.423001 1_556
La1 O1 2.483414 1_545
La1 Se9 3.220374 1_555
La1 Se9 3.246657 1_655
La1 Se0 3.449849 1_555
La1 Se0 3.525054 1_655
La2 O8 2.380164 1_655
La2 O8 2.382283 1_555
La2 O9 2.423001 1_555
La2 O2 2.483414 1_555
La2 Se10 3.220374 1_555
La2 Se10 3.246657 1_655
La2 Se3 3.449849 1_555
La2 Se3 3.525054 1_655
La3 O9 2.380164 1_555
La3 O9 2.382283 1_455
La3 O8 2.423001 1_555
La3 O3 2.483414 1_555
La3 Se11 3.220374 1_455
La3 Se11 3.246657 1_555
La3 Se2 3.449849 1_455
La3 Se2 3.525054 1_555
La4 O14 2.389896 1_555
La4 O14 2.390821 1_655
La4 O15 2.404074 1_554
La4 O4 2.450285 1_555
La4 Se4 3.224273 1_655
La4 Se4 3.240337 1_555
La4 Se3 3.435641 1_555
La4 Se3 3.477430 1_655
La5 O15 2.389896 1_455
La5 O15 2.390821 1_555
La5 O14 2.404074 1_556
La5 O5 2.450285 1_555
La5 Se5 3.224273 1_555
La5 Se5 3.240337 1_455
La5 Se2 3.435641 1_455
La5 Se2 3.477430 1_555
La6 O12 2.389896 1_465
La6 O12 2.390821 1_565
La6 O13 2.404074 1_555
La6 O6 2.450285 1_565
La6 Se6 3.224273 1_555
La6 Se6 3.240337 1_455
La6 Se1 3.435641 1_455
La6 Se1 3.477430 1_555
La7 O13 2.389896 1_545
La7 O13 2.390821 1_645
La7 O12 2.404074 1_555
La7 O7 2.450285 1_545
La7 Se7 3.224273 1_655
La7 Se7 3.240337 1_555
La7 Se0 3.435641 1_555
La7 Se0 3.477430 1_655
La8 O14 2.349924 1_555
La8 O4 2.397434 1_555
La8 O4 2.398384 1_455
La8 Se15 3.099697 1_555
La8 Se8 3.220349 1_555
La8 Se8 3.223253 1_455
La8 Se5 3.455676 1_554
La8 Se5 3.463898 1_454
La9 O15 2.349924 1_555
La9 O5 2.397434 1_655
La9 O5 2.398384 1_555
La9 Se14 3.099697 1_555
La9 Se9 3.220349 1_655
La9 Se9 3.223253 1_555
La9 Se4 3.455676 1_656
La9 Se4 3.463898 1_556
La10 O12 2.349924 1_555
La10 O6 2.397434 1_655
La10 O6 2.398384 1_555
La10 Se13 3.099697 1_555
La10 Se10 3.220349 1_655
La10 Se10 3.223253 1_555
La10 Se7 3.455676 1_655
La10 Se7 3.463898 1_555
La11 O13 2.349924 1_555
La11 O7 2.397434 1_555
La11 O7 2.398384 1_455
La11 Se12 3.099697 1_555
La11 Se11 3.220349 1_555
La11 Se11 3.223253 1_455
La11 Se6 3.455676 1_555
La11 Se6 3.463898 1_455
La12 O10 2.334075 1_555
La12 O0 2.391387 1_555
La12 O0 2.395541 1_655
La12 Se13 3.141371 1_555
La12 Se9 3.299291 1_554
La12 Se4 3.300355 1_555
La12 Se4 3.328457 1_655
La12 Se9 3.333133 1_654
La13 O11 2.334075 1_655
La13 O1 2.391387 1_555
La13 O1 2.395541 1_655
La13 Se12 3.141371 1_655
La13 Se8 3.299291 1_556
La13 Se5 3.300355 1_555
La13 Se5 3.328457 1_655
La13 Se8 3.333133 1_656
La14 O8 2.334075 1_655
La14 O2 2.391387 1_555
La14 O2 2.395541 1_655
La14 Se15 3.141371 1_655
La14 Se11 3.299291 1_555
La14 Se6 3.300355 1_555
La14 Se6 3.328457 1_655
La14 Se11 3.333133 1_655
La15 O9 2.334075 1_555
La15 O3 2.391387 1_555
La15 O3 2.395541 1_655
La15 Se14 3.141371 1_555
La15 Se10 3.299291 1_555
La15 Se7 3.300355 1_555
La15 Se7 3.328457 1_655
La15 Se10 3.333133 1_655
Fe0 O3 1.968323 1_555
Fe0 O5 1.979843 1_555
Fe0 Se2 2.871509 1_455
Fe0 Se14 2.940253 1_455
Fe0 Se14 2.956451 1_555
Fe0 Se2 2.960228 1_555
Fe1 O2 1.968323 1_555
Fe1 O4 1.979843 1_555
Fe1 Se3 2.871509 1_555
Fe1 Se15 2.940253 1_555
Fe1 Se15 2.956451 1_655
Fe1 Se3 2.960228 1_655
Fe2 O1 1.968323 1_555
Fe2 O7 1.979843 1_555
Fe2 Se0 2.871509 1_565
Fe2 Se12 2.940253 1_555
Fe2 Se12 2.956451 1_655
Fe2 Se0 2.960228 1_665
Fe3 O0 1.968323 1_555
Fe3 O6 1.979843 1_555
Fe3 Se1 2.871509 1_445
Fe3 Se13 2.940253 1_455
Fe3 Se13 2.956451 1_555
Fe3 Se1 2.960228 1_545
Fe4 Se3 2.527210 1_555
Fe4 Se13 2.573888 1_455
Fe4 Se13 2.587659 1_555
Fe4 Se4 2.623185 1_555
Fe5 Se2 2.527210 1_555
Fe5 Se12 2.573888 1_555
Fe5 Se12 2.587659 1_655
Fe5 Se5 2.623185 1_555
Fe6 Se1 2.527210 1_555
Fe6 Se15 2.573888 1_555
Fe6 Se15 2.587659 1_655
Fe6 Se6 2.623185 1_555
Fe7 Se0 2.527210 1_555
Fe7 Se14 2.573888 1_455
Fe7 Se14 2.587659 1_555
Fe7 Se7 2.623185 1_555
