# generated using pymatgen
data_TbFe2
_symmetry_space_group_name_H-M   'P 1'
_cell_length_a   21.63710102
_cell_length_b   5.50403294
_cell_length_c   14.97878111
_cell_angle_alpha   102.08079178
_cell_angle_beta   136.24125739
_cell_angle_gamma   73.15565654
_symmetry_Int_Tables_number   1
_chemical_formula_structural   TbFe2
_chemical_formula_sum   'Tb16 Fe32'
_cell_volume   1180.81388595
_cell_formula_units_Z   16
loop_
 _symmetry_equiv_pos_site_id
 _symmetry_equiv_pos_as_xyz
  1  'x, y, z'
loop_
 _atom_site_type_symbol
 _atom_site_label
 _atom_site_symmetry_multiplicity
 _atom_site_fract_x
 _atom_site_fract_y
 _atom_site_fract_z
 _atom_site_occupancy
  Tb  Tb0_0  1  0.37372500  0.43845200  1.00000000  1
  Tb  Tb0_1  1  0.37372500  0.43845200  0.50000000  1
  Tb  Tb0_2  1  0.37372500  0.93845200  1.00000000  1
  Tb  Tb0_3  1  0.37372500  0.93845200  0.50000000  1
  Tb  Tb0_4  1  0.87372500  0.43845200  1.00000000  1
  Tb  Tb0_5  1  0.87372500  0.43845200  0.50000000  1
  Tb  Tb0_6  1  0.87372500  0.93845200  1.00000000  1
  Tb  Tb0_7  1  0.87372500  0.93845200  0.50000000  1
  Tb  Tb1_0  1  0.12627500  0.06154800  0.00000000  1
  Tb  Tb1_1  1  0.12627500  0.06154800  0.50000000  1
  Tb  Tb1_2  1  0.12627500  0.56154800  1.00000000  1
  Tb  Tb1_3  1  0.12627500  0.56154800  0.50000000  1
  Tb  Tb1_4  1  0.62627500  0.06154800  0.00000000  1
  Tb  Tb1_5  1  0.62627500  0.06154800  0.50000000  1
  Tb  Tb1_6  1  0.62627500  0.56154800  0.00000000  1
  Tb  Tb1_7  1  0.62627500  0.56154800  0.50000000  1
  Fe  Fe0_0  1  0.00000000  0.25000000  0.00000000  1
  Fe  Fe0_1  1  0.00000000  0.25000000  0.50000000  1
  Fe  Fe0_2  1  1.00000000  0.75000000  1.00000000  1
  Fe  Fe0_3  1  1.00000000  0.75000000  0.50000000  1
  Fe  Fe0_4  1  0.50000000  0.25000000  0.00000000  1
  Fe  Fe0_5  1  0.50000000  0.25000000  0.50000000  1
  Fe  Fe0_6  1  0.50000000  0.75000000  1.00000000  1
  Fe  Fe0_7  1  0.50000000  0.75000000  0.50000000  1
  Fe  Fe1_0  1  0.25000000  0.00000000  0.25000000  1
  Fe  Fe1_1  1  0.25000000  0.00000000  0.75000000  1
  Fe  Fe1_2  1  0.25000000  0.50000000  0.25000000  1
  Fe  Fe1_3  1  0.25000000  0.50000000  0.75000000  1
  Fe  Fe1_4  1  0.75000000  0.00000000  0.25000000  1
  Fe  Fe1_5  1  0.75000000  0.00000000  0.75000000  1
  Fe  Fe1_6  1  0.75000000  0.50000000  0.25000000  1
  Fe  Fe1_7  1  0.75000000  0.50000000  0.75000000  1
  Fe  Fe2_0  1  0.00000000  0.00000000  0.25000000  1
  Fe  Fe2_1  1  0.00000000  0.00000000  0.75000000  1
  Fe  Fe2_2  1  0.00000000  0.50000000  0.25000000  1
  Fe  Fe2_3  1  0.00000000  0.50000000  0.75000000  1
  Fe  Fe2_4  1  0.50000000  0.00000000  0.25000000  1
  Fe  Fe2_5  1  0.50000000  0.00000000  0.75000000  1
  Fe  Fe2_6  1  0.50000000  0.50000000  0.25000000  1
  Fe  Fe2_7  1  0.50000000  0.50000000  0.75000000  1
  Fe  Fe3_0  1  0.25000000  0.00000000  0.00000000  1
  Fe  Fe3_1  1  0.25000000  0.00000000  0.50000000  1
  Fe  Fe3_2  1  0.25000000  0.50000000  0.00000000  1
  Fe  Fe3_3  1  0.25000000  0.50000000  0.50000000  1
  Fe  Fe3_4  1  0.75000000  0.00000000  0.00000000  1
  Fe  Fe3_5  1  0.75000000  0.00000000  0.50000000  1
  Fe  Fe3_6  1  0.75000000  0.50000000  0.00000000  1
  Fe  Fe3_7  1  0.75000000  0.50000000  0.50000000  1
loop_
_geom_bond_atom_site_label_1
_geom_bond_atom_site_label_2
_geom_bond_distance
_geom_bond_site_symmetry_2
Tb0_0 Tb0_2 2.752016 1_555
Tb0_0 Tb0_2 2.752016 1_545
Tb0_1 Tb0_3 2.752016 1_555
Tb0_1 Tb0_3 2.752016 1_545
Tb0_4 Tb0_6 2.752016 1_555
Tb0_4 Tb0_6 2.752016 1_545
Tb0_5 Tb0_7 2.752016 1_545
Tb0_5 Tb0_7 2.752016 1_555
Tb1_0 Tb1_2 2.752016 1_554
Tb1_0 Tb1_2 2.752016 1_544
Tb1_1 Tb1_3 2.752016 1_555
Tb1_1 Tb1_3 2.752016 1_545
Tb1_4 Tb1_6 2.752016 1_555
Tb1_4 Tb1_6 2.752016 1_545
Tb1_5 Tb1_7 2.752016 1_555
Tb1_5 Tb1_7 2.752016 1_545
Fe0_0 Tb0_4 2.626501 1_454
Fe0_0 Tb1_0 2.626501 1_555
Fe0_0 Fe0_2 2.752016 1_454
Fe0_0 Fe0_2 2.752016 1_444
Fe0_1 Tb1_1 2.626501 1_555
Fe0_1 Tb0_5 2.626501 1_455
Fe0_1 Fe0_3 2.752016 1_455
Fe0_1 Fe0_3 2.752016 1_445
Fe0_2 Tb0_6 2.626501 1_555
Fe0_2 Tb1_2 2.626501 1_655
Fe0_3 Tb0_7 2.626501 1_555
Fe0_3 Tb1_3 2.626501 1_655
Fe0_4 Tb0_0 2.626501 1_554
Fe0_4 Tb1_4 2.626501 1_555
Fe0_4 Fe0_6 2.752016 1_554
Fe0_4 Fe0_6 2.752016 1_544
Fe0_5 Tb1_5 2.626501 1_555
Fe0_5 Tb0_1 2.626501 1_555
Fe0_5 Fe0_7 2.752016 1_555
Fe0_5 Fe0_7 2.752016 1_545
Fe0_6 Tb0_2 2.626501 1_555
Fe0_6 Tb1_6 2.626501 1_556
Fe0_7 Tb1_7 2.626501 1_555
Fe0_7 Tb0_3 2.626501 1_555
Fe1_0 Tb0_3 2.613162 1_545
Fe1_0 Tb1_0 2.613162 1_555
Fe1_0 Fe1_2 2.752016 1_555
Fe1_0 Fe1_2 2.752016 1_545
Fe1_1 Tb1_1 2.613162 1_555
Fe1_1 Tb0_2 2.613162 1_545
Fe1_1 Fe1_3 2.752016 1_555
Fe1_1 Fe1_3 2.752016 1_545
Fe1_2 Tb0_1 2.613162 1_555
Fe1_2 Tb1_2 2.613162 1_554
Fe1_3 Tb0_0 2.613162 1_555
Fe1_3 Tb1_3 2.613162 1_555
Fe1_4 Tb1_4 2.613162 1_555
Fe1_4 Tb0_7 2.613162 1_545
Fe1_4 Fe1_6 2.752016 1_555
Fe1_4 Fe1_6 2.752016 1_545
Fe1_5 Tb0_6 2.613162 1_545
Fe1_5 Tb1_5 2.613162 1_555
Fe1_5 Fe1_7 2.752016 1_555
Fe1_5 Fe1_7 2.752016 1_545
Fe1_6 Tb0_5 2.613162 1_555
Fe1_6 Tb1_6 2.613162 1_555
Fe1_7 Tb1_7 2.613162 1_555
Fe1_7 Tb0_4 2.613162 1_555
Fe2_0 Tb1_1 2.613162 1_555
Fe2_0 Tb0_6 2.613162 1_444
Fe2_0 Fe2_2 2.752016 1_545
Fe2_0 Fe2_2 2.752016 1_555
Fe2_1 Tb1_0 2.613162 1_556
Fe2_1 Tb0_7 2.613162 1_445
Fe2_1 Fe2_3 2.752016 1_555
Fe2_1 Fe2_3 2.752016 1_545
Fe2_2 Tb1_3 2.613162 1_555
Fe2_2 Tb0_4 2.613162 1_454
Fe2_3 Tb1_2 2.613162 1_555
Fe2_3 Tb0_5 2.613162 1_455
Fe2_4 Tb1_5 2.613162 1_555
Fe2_4 Tb0_2 2.613162 1_544
Fe2_4 Fe2_6 2.752016 1_555
Fe2_4 Fe2_6 2.752016 1_545
Fe2_5 Tb1_4 2.613162 1_556
Fe2_5 Tb0_3 2.613162 1_545
Fe2_5 Fe2_7 2.752016 1_555
Fe2_5 Fe2_7 2.752016 1_545
Fe2_6 Tb1_7 2.613162 1_555
Fe2_6 Tb0_0 2.613162 1_554
Fe2_7 Tb1_6 2.613162 1_556
Fe2_7 Tb0_1 2.613162 1_555
Fe3_0 Tb0_2 2.599188 1_544
Fe3_0 Tb1_0 2.599188 1_555
Fe3_0 Fe3_2 2.752016 1_555
Fe3_0 Fe3_2 2.752016 1_545
Fe3_1 Tb0_3 2.599188 1_545
Fe3_1 Tb1_1 2.599188 1_555
Fe3_1 Fe3_3 2.752016 1_545
Fe3_1 Fe3_3 2.752016 1_555
Fe3_2 Tb1_2 2.599188 1_554
Fe3_2 Tb0_0 2.599188 1_554
Fe3_3 Tb0_1 2.599188 1_555
Fe3_3 Tb1_3 2.599188 1_555
Fe3_4 Tb0_6 2.599188 1_544
Fe3_4 Tb1_4 2.599188 1_555
Fe3_4 Fe3_6 2.752016 1_555
Fe3_4 Fe3_6 2.752016 1_545
Fe3_5 Tb1_5 2.599188 1_555
Fe3_5 Tb0_7 2.599188 1_545
Fe3_5 Fe3_7 2.752016 1_545
Fe3_5 Fe3_7 2.752016 1_555
Fe3_6 Tb1_6 2.599188 1_555
Fe3_6 Tb0_4 2.599188 1_554
Fe3_7 Tb1_7 2.599188 1_555
Fe3_7 Tb0_5 2.599188 1_555
