# generated using pymatgen
data_Fe5(O4F)2
_symmetry_space_group_name_H-M   'P 1'
_cell_length_a   4.63829600
_cell_length_b   4.64151600
_cell_length_c   15.82493058
_cell_angle_alpha   73.27653694
_cell_angle_beta   90.00000000
_cell_angle_gamma   90.00000000
_symmetry_Int_Tables_number   1
_chemical_formula_structural   Fe5(O4F)2
_chemical_formula_sum   'Fe10 O16 F4'
_cell_volume   326.28098289
_cell_formula_units_Z   2
loop_
 _symmetry_equiv_pos_site_id
 _symmetry_equiv_pos_as_xyz
  1  'x, y, z'
loop_
 _atom_site_type_symbol
 _atom_site_label
 _atom_site_symmetry_multiplicity
 _atom_site_fract_x
 _atom_site_fract_y
 _atom_site_fract_z
 _atom_site_occupancy
  Fe  Fe0  1  0.00000000  0.00000000  0.00000000  1
  Fe  Fe1  1  0.01098900  0.79033500  0.20519900  1
  Fe  Fe2  1  0.97938200  0.57590600  0.40094400  1
  Fe  Fe3  1  0.02061800  0.42409400  0.59905600  1
  Fe  Fe4  1  0.98901100  0.20966500  0.79480100  1
  Fe  Fe5  1  0.47938200  0.42409400  0.09905600  1
  Fe  Fe6  1  0.50000000  0.00000000  0.50000000  1
  Fe  Fe7  1  0.51098900  0.20966500  0.29480100  1
  Fe  Fe8  1  0.48901100  0.79033500  0.70519900  1
  Fe  Fe9  1  0.52061800  0.57590600  0.90094400  1
  O  O0  1  0.80445300  0.88513600  0.30189200  1
  O  O1  1  0.80565100  0.69379400  0.49994800  1
  O  O2  1  0.80632300  0.50847600  0.69565000  1
  O  O3  1  0.81680400  0.27629300  0.90025000  1
  O  O4  1  0.30565100  0.30620600  0.00005200  1
  O  O5  1  0.30445300  0.11486400  0.19810800  1
  O  O6  1  0.31680400  0.72370700  0.59975000  1
  O  O7  1  0.30632300  0.49152400  0.80435000  1
  O  O8  1  0.69434900  0.69379400  0.99994800  1
  O  O9  1  0.69367700  0.50847600  0.19565000  1
  O  O10  1  0.68319600  0.27629300  0.40025000  1
  O  O11  1  0.69554700  0.88513600  0.80189200  1
  O  O12  1  0.18319600  0.72370700  0.09975000  1
  O  O13  1  0.19434900  0.30620600  0.50005200  1
  O  O14  1  0.19367700  0.49152400  0.30435000  1
  O  O15  1  0.19554700  0.11486400  0.69810800  1
  F  F0  1  0.79791500  0.10602600  0.10106000  1
  F  F1  1  0.29791500  0.89397400  0.39894000  1
  F  F2  1  0.70208500  0.10602600  0.60106000  1
  F  F3  1  0.20208500  0.89397400  0.89894000  1
loop_
_geom_bond_atom_site_label_1
_geom_bond_atom_site_label_2
_geom_bond_distance
_geom_bond_site_symmetry_2
Fe0 O3 1.921815 1_454
Fe0 O12 1.921815 1_545
Fe0 O4 2.007617 1_555
Fe0 O8 2.007617 1_444
Fe1 O12 1.953271 1_555
Fe1 O0 1.959646 1_455
Fe1 O14 1.962435 1_555
Fe1 O9 2.003570 1_455
Fe1 O5 2.009245 1_565
Fe2 O14 1.955124 1_655
Fe2 O10 1.957080 1_555
Fe2 O0 1.969936 1_555
Fe2 O13 1.972592 1_655
Fe2 O1 1.974022 1_555
Fe3 O2 1.955124 1_455
Fe3 O6 1.957080 1_555
Fe3 O15 1.969936 1_555
Fe3 O1 1.972592 1_455
Fe3 O13 1.974022 1_555
Fe4 O3 1.953271 1_555
Fe4 O15 1.959646 1_655
Fe4 O2 1.962435 1_555
Fe4 O7 2.003570 1_655
Fe4 O11 2.009245 1_545
Fe5 O9 1.955124 1_555
Fe5 O12 1.957080 1_555
Fe5 O5 1.969936 1_555
Fe5 O8 1.972592 1_554
Fe5 O4 1.974022 1_555
Fe6 O10 1.921815 1_555
Fe6 O6 1.921815 1_545
Fe6 O13 2.007617 1_555
Fe6 O1 2.007617 1_545
Fe7 O10 1.953271 1_555
Fe7 O5 1.959646 1_555
Fe7 O9 1.962435 1_555
Fe7 O14 2.003570 1_555
Fe7 O0 2.009245 1_545
Fe8 O6 1.953271 1_555
Fe8 O11 1.959646 1_555
Fe8 O7 1.962435 1_555
Fe8 O2 2.003570 1_555
Fe8 O15 2.009245 1_565
Fe9 O7 1.955124 1_555
Fe9 O3 1.957080 1_555
Fe9 O11 1.969936 1_555
Fe9 O4 1.972592 1_556
Fe9 O8 1.974022 1_555
F0 Fe0 2.032577 1_655
F0 Fe5 2.082411 1_555
F0 Fe1 2.109492 1_645
F1 Fe6 2.032577 1_565
F1 Fe2 2.082411 1_455
F1 Fe7 2.109492 1_565
F2 Fe6 2.032577 1_555
F2 Fe3 2.082411 1_655
F2 Fe8 2.109492 1_545
F3 Fe0 2.032577 1_566
F3 Fe9 2.082411 1_555
F3 Fe4 2.109492 1_465
