# generated using pymatgen
data_Er2Sn5
_symmetry_space_group_name_H-M   'P 1'
_cell_length_a   4.32240718
_cell_length_b   4.38729669
_cell_length_c   19.11171428
_cell_angle_alpha   90.00000000
_cell_angle_beta   90.00000000
_cell_angle_gamma   90.00000000
_symmetry_Int_Tables_number   1
_chemical_formula_structural   Er2Sn5
_chemical_formula_sum   'Er4 Sn10'
_cell_volume   362.42848572
_cell_formula_units_Z   2
loop_
 _symmetry_equiv_pos_site_id
 _symmetry_equiv_pos_as_xyz
  1  'x, y, z'
loop_
 _atom_site_type_symbol
 _atom_site_label
 _atom_site_symmetry_multiplicity
 _atom_site_fract_x
 _atom_site_fract_y
 _atom_site_fract_z
 _atom_site_occupancy
  Er  Er0  1  0.50000000  0.00000000  0.19966246  1
  Er  Er1  1  0.00000000  0.50000000  0.80033754  1
  Er  Er2  1  0.50000000  0.50000000  0.62785990  1
  Er  Er3  1  0.00000000  0.00000000  0.37214010  1
  Sn  Sn0  1  0.50000000  0.50000000  0.92460569  1
  Sn  Sn1  1  0.00000000  -0.00000000  0.07539431  1
  Sn  Sn2  1  0.50000000  0.50000000  0.07644623  1
  Sn  Sn3  1  -0.00000000  0.00000000  0.92355377  1
  Sn  Sn4  1  0.50000000  -0.00000000  0.76349468  1
  Sn  Sn5  1  0.00000000  0.50000000  0.23650532  1
  Sn  Sn6  1  0.50000000  0.50000000  0.34281848  1
  Sn  Sn7  1  0.00000000  0.00000000  0.65718152  1
  Sn  Sn8  1  0.50000000  0.00000000  0.50223496  1
  Sn  Sn9  1  -0.00000000  0.50000000  0.49776504  1
loop_
_geom_bond_atom_site_label_1
_geom_bond_atom_site_label_2
_geom_bond_distance
_geom_bond_site_symmetry_2
Er0 Sn5 3.158907 1_545
Er0 Sn5 3.158907 1_645
Er0 Sn5 3.158907 1_655
Er0 Sn5 3.158907 1_555
Er0 Sn1 3.211124 1_555
Er0 Sn1 3.211124 1_655
Er0 Sn2 3.218310 1_555
Er0 Sn2 3.218310 1_545
Er0 Sn6 3.506787 1_545
Er0 Sn6 3.506787 1_555
Er1 Sn4 3.158907 1_555
Er1 Sn4 3.158907 1_565
Er1 Sn4 3.158907 1_465
Er1 Sn4 3.158907 1_455
Er1 Sn0 3.211124 1_555
Er1 Sn0 3.211124 1_455
Er1 Sn3 3.218310 1_555
Er1 Sn3 3.218310 1_565
Er1 Sn7 3.506787 1_565
Er1 Sn7 3.506787 1_555
Er2 Sn7 3.130004 1_655
Er2 Sn7 3.130004 1_565
Er2 Sn7 3.130004 1_665
Er2 Sn7 3.130004 1_555
Er2 Sn8 3.252146 1_555
Er2 Sn8 3.252146 1_565
Er2 Sn9 3.294339 1_555
Er2 Sn9 3.294339 1_655
Er2 Sn4 3.395830 1_555
Er2 Sn4 3.395830 1_565
Er3 Sn6 3.130004 1_445
Er3 Sn6 3.130004 1_545
Er3 Sn6 3.130004 1_555
Er3 Sn6 3.130004 1_455
Er3 Sn9 3.252146 1_545
Er3 Sn9 3.252146 1_555
Er3 Sn8 3.294339 1_455
Er3 Sn8 3.294339 1_555
Er3 Sn5 3.395830 1_545
Er3 Sn5 3.395830 1_555
Sn0 Sn2 2.901933 1_556
Sn0 Sn3 3.079496 1_565
Sn0 Sn3 3.079496 1_655
Sn0 Sn3 3.079496 1_555
Sn0 Sn3 3.079496 1_665
Sn1 Sn3 2.901933 1_554
Sn1 Sn2 3.079496 1_545
Sn1 Sn2 3.079496 1_555
Sn1 Sn2 3.079496 1_445
Sn1 Sn2 3.079496 1_455
Sn4 Sn7 2.966331 1_555
Sn4 Sn7 2.966331 1_655
Sn5 Sn6 2.966331 1_555
Sn5 Sn6 2.966331 1_455
Sn8 Sn9 3.080616 1_555
Sn8 Sn9 3.080616 1_545
Sn8 Sn9 3.080616 1_655
Sn8 Sn9 3.080616 1_645
