# generated using pymatgen
data_TlAsPd6
_symmetry_space_group_name_H-M   'P 1'
_cell_length_a   7.78452350
_cell_length_b   7.78452350
_cell_length_c   7.78452388
_cell_angle_alpha   34.03894036
_cell_angle_beta   34.03894036
_cell_angle_gamma   34.03894016
_symmetry_Int_Tables_number   1
_chemical_formula_structural   TlAsPd6
_chemical_formula_sum   'Tl1 As1 Pd6'
_cell_volume   131.75986383
_cell_formula_units_Z   1
loop_
 _symmetry_equiv_pos_site_id
 _symmetry_equiv_pos_as_xyz
  1  'x, y, z'
loop_
 _atom_site_type_symbol
 _atom_site_label
 _atom_site_symmetry_multiplicity
 _atom_site_fract_x
 _atom_site_fract_y
 _atom_site_fract_z
 _atom_site_occupancy
  Tl  Tl0  1  0.50000000  0.50000000  0.50000000  1
  As  As0  1  0.00000000  0.00000000  0.00000000  1
  Pd  Pd0  1  0.63340800  0.63340800  0.63340800  1
  Pd  Pd1  1  0.11298600  0.11298600  0.11298600  1
  Pd  Pd2  1  0.88701400  0.88701400  0.88701400  1
  Pd  Pd3  1  0.36659200  0.36659200  0.36659200  1
  Pd  Pd4  1  0.24141800  0.24141800  0.24141800  1
  Pd  Pd5  1  0.75858200  0.75858200  0.75858200  1
loop_
_geom_bond_atom_site_label_1
_geom_bond_atom_site_label_2
_geom_bond_distance
_geom_bond_site_symmetry_2
As0 Pd1 2.483355 1_555
As0 Pd2 2.483355 1_444
As0 Pd3 2.730654 1_554
As0 Pd0 2.730654 1_445
As0 Pd0 2.730654 1_544
As0 Pd0 2.730654 1_454
As0 Pd3 2.730654 1_545
As0 Pd3 2.730654 1_455
Pd0 Pd5 2.751239 1_555
Pd0 Pd4 2.929886 1_556
Pd0 Pd4 2.929886 1_655
Pd0 Pd4 2.929886 1_565
Pd0 Tl0 2.932217 1_555
Pd0 Pd3 3.009911 1_655
Pd0 Pd3 3.009911 1_565
Pd0 Pd3 3.009912 1_556
Pd0 Pd2 3.161146 1_545
Pd0 Pd2 3.161146 1_455
Pd0 Pd2 3.161146 1_554
Pd1 Pd5 2.671439 1_544
Pd1 Pd5 2.671439 1_454
Pd1 Pd5 2.671439 1_445
Pd1 Pd4 2.822847 1_555
Pd1 Tl0 2.883433 1_554
Pd1 Tl0 2.883433 1_545
Pd1 Tl0 2.883433 1_455
Pd1 Pd3 3.161146 1_545
Pd1 Pd3 3.161146 1_455
Pd1 Pd3 3.161146 1_554
Pd2 Pd4 2.671439 1_566
Pd2 Pd4 2.671439 1_656
Pd2 Pd4 2.671439 1_665
Pd2 Pd5 2.822847 1_555
Pd2 Tl0 2.883433 1_556
Pd2 Tl0 2.883433 1_655
Pd2 Tl0 2.883433 1_565
Pd3 Pd4 2.751239 1_555
Pd3 Pd5 2.929886 1_554
Pd3 Pd5 2.929886 1_545
Pd3 Pd5 2.929886 1_455
Pd3 Tl0 2.932217 1_555
Pd4 Tl0 3.101854 1_455
Pd4 Tl0 3.101854 1_545
Pd4 Tl0 3.101855 1_554
Pd5 Tl0 3.101854 1_565
Pd5 Tl0 3.101854 1_655
Pd5 Tl0 3.101855 1_556
