# generated using pymatgen
data_CaNi(GeO3)2
_symmetry_space_group_name_H-M   'P 1'
_cell_length_a   5.47812896
_cell_length_b   10.23036242
_cell_length_c   9.05647501
_cell_angle_alpha   89.99965499
_cell_angle_beta   90.00086354
_cell_angle_gamma   105.52791280
_symmetry_Int_Tables_number   1
_chemical_formula_structural   CaNi(GeO3)2
_chemical_formula_sum   'Ca4 Ni4 Ge8 O24'
_cell_volume   489.02859002
_cell_formula_units_Z   4
loop_
 _symmetry_equiv_pos_site_id
 _symmetry_equiv_pos_as_xyz
  1  'x, y, z'
loop_
 _atom_site_type_symbol
 _atom_site_label
 _atom_site_symmetry_multiplicity
 _atom_site_fract_x
 _atom_site_fract_y
 _atom_site_fract_z
 _atom_site_occupancy
  Ca  Ca0  1  0.24999700  0.50000500  0.19831200  1
  Ca  Ca1  1  0.75000000  0.99999800  0.69832400  1
  Ca  Ca2  1  0.75000100  0.50000100  0.80169200  1
  Ca  Ca3  1  0.25001600  0.00000100  0.30167400  1
  Ni  Ni0  1  0.75001700  0.99999200  0.08929700  1
  Ni  Ni1  1  0.24998500  0.00001100  0.91070200  1
  Ni  Ni2  1  0.25001500  0.49999100  0.58927200  1
  Ni  Ni3  1  0.74998700  0.50000400  0.41073000  1
  Ge  Ge0  1  0.06506000  0.28474000  0.90137300  1
  Ge  Ge1  1  0.56506200  0.78473500  0.40137200  1
  Ge  Ge2  1  0.43493600  0.71525900  0.90136600  1
  Ge  Ge3  1  0.93493200  0.21526200  0.40136900  1
  Ge  Ge4  1  0.93494100  0.71526200  0.09862700  1
  Ge  Ge5  1  0.43493600  0.21526200  0.59862800  1
  Ge  Ge6  1  0.56506500  0.28474200  0.09863200  1
  Ge  Ge7  1  0.06506600  0.78473700  0.59863100  1
  O  O0  1  0.88279700  0.35969500  0.03100400  1
  O  O1  1  0.38279600  0.85969400  0.53099800  1
  O  O2  1  0.61720600  0.64030500  0.03099900  1
  O  O3  1  0.11720200  0.14030600  0.53099900  1
  O  O4  1  0.11720400  0.64030500  0.96899800  1
  O  O5  1  0.61720100  0.14030600  0.46900000  1
  O  O6  1  0.38279400  0.35969700  0.96900000  1
  O  O7  1  0.88279700  0.85969400  0.46900000  1
  O  O8  1  0.52408000  0.36403600  0.26242700  1
  O  O9  1  0.02409800  0.86402800  0.76243100  1
  O  O10  1  0.97591300  0.63596100  0.26242100  1
  O  O11  1  0.47589500  0.13596400  0.76242500  1
  O  O12  1  0.47591800  0.63596300  0.73757100  1
  O  O13  1  0.97590200  0.13596900  0.23757100  1
  O  O14  1  0.02408000  0.36404100  0.73758100  1
  O  O15  1  0.52410200  0.86403300  0.23757300  1
  O  O16  1  0.97487300  0.10739000  0.91002100  1
  O  O17  1  0.47488800  0.60738500  0.41001900  1
  O  O18  1  0.52511700  0.89260800  0.91002600  1
  O  O19  1  0.02510600  0.39261100  0.41002200  1
  O  O20  1  0.02512400  0.89261200  0.08997800  1
  O  O21  1  0.52511200  0.39261200  0.58998400  1
  O  O22  1  0.47488300  0.10739300  0.08997200  1
  O  O23  1  0.97489500  0.60738900  0.58998000  1
loop_
_geom_bond_atom_site_label_1
_geom_bond_atom_site_label_2
_geom_bond_distance
_geom_bond_site_symmetry_2
Ca0 O10 2.375758 1_455
Ca0 O8 2.375852 1_555
Ca0 O17 2.382438 1_555
Ca0 O19 2.382525 1_555
Ca0 O0 2.618528 1_455
Ca0 O2 2.618575 1_555
Ca0 O4 2.731538 1_554
Ca0 O6 2.731612 1_554
Ca1 O9 2.375907 1_655
Ca1 O11 2.375908 1_565
Ca1 O16 2.382366 1_565
Ca1 O18 2.382436 1_555
Ca1 O1 2.618615 1_555
Ca1 O3 2.618642 1_665
Ca1 O5 2.731669 1_565
Ca1 O7 2.731670 1_555
Ca2 O14 2.375771 1_655
Ca2 O12 2.375811 1_555
Ca2 O21 2.382470 1_555
Ca2 O23 2.382526 1_555
Ca2 O4 2.618507 1_655
Ca2 O6 2.618556 1_555
Ca2 O2 2.731549 1_556
Ca2 O0 2.731568 1_556
Ca3 O15 2.375841 1_545
Ca3 O13 2.375951 1_455
Ca3 O20 2.382389 1_545
Ca3 O22 2.382408 1_555
Ca3 O5 2.618554 1_555
Ca3 O7 2.618702 1_445
Ca3 O1 2.731621 1_545
Ca3 O3 2.731721 1_555
Ni0 O15 2.085163 1_555
Ni0 O13 2.085164 1_565
Ni0 O20 2.089140 1_655
Ni0 O22 2.089422 1_565
Ni0 O16 2.153139 1_564
Ni0 O18 2.153141 1_554
Ni1 O11 2.085126 1_555
Ni1 O9 2.085182 1_545
Ni1 O16 2.089156 1_455
Ni1 O18 2.089427 1_545
Ni1 O22 2.153122 1_556
Ni1 O20 2.153155 1_546
Ni2 O12 2.085324 1_555
Ni2 O14 2.085354 1_555
Ni2 O21 2.089086 1_555
Ni2 O23 2.089334 1_455
Ni2 O19 2.153005 1_555
Ni2 O17 2.153008 1_555
Ni3 O8 2.085336 1_555
Ni3 O10 2.085370 1_555
Ni3 O17 2.089110 1_555
Ni3 O19 2.089293 1_655
Ni3 O21 2.153013 1_555
Ni3 O23 2.153020 1_555
Ge0 O14 1.733917 1_555
Ge0 O16 1.749904 1_455
Ge0 O6 1.810559 1_555
Ge0 O0 1.836624 1_456
Ge1 O15 1.733928 1_555
Ge1 O17 1.749904 1_555
Ge1 O7 1.810570 1_555
Ge1 O1 1.836628 1_555
Ge2 O12 1.733932 1_555
Ge2 O18 1.749900 1_555
Ge2 O4 1.810575 1_555
Ge2 O2 1.836629 1_556
Ge3 O13 1.733923 1_555
Ge3 O19 1.749897 1_655
Ge3 O5 1.810570 1_555
Ge3 O3 1.836624 1_655
Ge4 O10 1.733922 1_555
Ge4 O20 1.749905 1_655
Ge4 O2 1.810567 1_555
Ge4 O4 1.836624 1_654
Ge5 O11 1.733911 1_555
Ge5 O21 1.749902 1_555
Ge5 O3 1.810564 1_555
Ge5 O5 1.836619 1_555
Ge6 O8 1.733926 1_555
Ge6 O22 1.749900 1_555
Ge6 O0 1.810561 1_555
Ge6 O6 1.836633 1_554
Ge7 O9 1.733925 1_555
Ge7 O23 1.749886 1_455
Ge7 O1 1.810574 1_555
Ge7 O7 1.836632 1_455
