# generated using pymatgen
data_CaLa3(CoO4)2
_symmetry_space_group_name_H-M   'P 1'
_cell_length_a   5.37801020
_cell_length_b   12.85135907
_cell_length_c   5.38198120
_cell_angle_alpha   90.01015556
_cell_angle_beta   90.02824248
_cell_angle_gamma   90.01138546
_symmetry_Int_Tables_number   1
_chemical_formula_structural   CaLa3(CoO4)2
_chemical_formula_sum   'Ca2 La6 Co4 O16'
_cell_volume   371.97417372
_cell_formula_units_Z   2
loop_
 _symmetry_equiv_pos_site_id
 _symmetry_equiv_pos_as_xyz
  1  'x, y, z'
loop_
 _atom_site_type_symbol
 _atom_site_label
 _atom_site_symmetry_multiplicity
 _atom_site_fract_x
 _atom_site_fract_y
 _atom_site_fract_z
 _atom_site_occupancy
  Ca  Ca0  1  0.49988400  0.14249200  0.99872600  1
  Ca  Ca1  1  0.49997800  0.64340700  0.49929800  1
  La  La0  1  0.99963000  0.13999900  0.49845700  1
  La  La1  1  0.99993100  0.63980900  0.99818600  1
  La  La2  1  0.99996400  0.35638300  0.99705400  1
  La  La3  1  0.00026200  0.85714400  0.49701600  1
  La  La4  1  0.50009600  0.35898300  0.49865700  1
  La  La5  1  0.50006800  0.85962900  0.99834800  1
  Co  Co0  1  0.49997500  0.50248700  0.99575600  1
  Co  Co1  1  0.50009600  0.00508500  0.49582500  1
  Co  Co2  1  0.00008300  0.00557600  0.99602600  1
  Co  Co3  1  0.00008300  0.50930700  0.49553200  1
  O  O0  1  0.50002400  0.32109400  0.98973500  1
  O  O1  1  0.49995700  0.82504200  0.49047800  1
  O  O2  1  0.99994400  0.32118600  0.49316000  1
  O  O3  1  0.00004000  0.81869800  0.99312300  1
  O  O4  1  0.99993300  0.17776400  0.99059700  1
  O  O5  1  0.00005600  0.67690900  0.49103700  1
  O  O6  1  0.50008600  0.17634200  0.49137400  1
  O  O7  1  0.50000500  0.67917200  0.99092100  1
  O  O8  1  0.74298600  0.49732200  0.23941900  1
  O  O9  1  0.75539300  0.99784500  0.75046300  1
  O  O10  1  0.25691000  0.49720300  0.23936600  1
  O  O11  1  0.24464200  0.99793800  0.75037300  1
  O  O12  1  0.25521400  0.49793300  0.75372800  1
  O  O13  1  0.24344600  0.99862400  0.24290000  1
  O  O14  1  0.74474500  0.49802900  0.75370100  1
  O  O15  1  0.75657000  0.99860000  0.24274500  1
loop_
_geom_bond_atom_site_label_1
_geom_bond_atom_site_label_2
_geom_bond_distance
_geom_bond_site_symmetry_2
Ca0 O0 2.295797 1_555
Ca0 O13 2.654998 1_546
Ca0 O15 2.655202 1_546
Ca0 O11 2.668010 1_545
Ca0 O9 2.670396 1_545
Ca0 O6 2.686796 1_556
Ca0 O4 2.727104 1_455
Ca0 O4 2.727488 1_555
Ca0 O6 2.765071 1_555
Ca1 O1 2.334748 1_555
Ca1 O14 2.664237 1_555
Ca1 O12 2.665469 1_555
Ca1 O8 2.681546 1_555
Ca1 O10 2.681887 1_555
Ca1 O7 2.685451 1_555
Ca1 O5 2.723268 1_555
Ca1 O5 2.723971 1_655
Ca1 O7 2.774493 1_554
La0 O2 2.328679 1_555
La0 O15 2.627022 1_545
La0 O9 2.627542 1_545
La0 O11 2.628242 1_645
La0 O13 2.629433 1_645
La0 O4 2.692701 1_555
La0 O6 2.727190 1_555
La0 O6 2.731876 1_655
La0 O4 2.776133 1_554
La1 O3 2.299133 1_655
La1 O14 2.632703 1_555
La1 O12 2.634810 1_655
La1 O8 2.636257 1_556
La1 O10 2.636986 1_656
La1 O5 2.694941 1_656
La1 O7 2.736144 1_555
La1 O7 2.736766 1_655
La1 O5 2.770880 1_655
La2 O4 2.295754 1_555
La2 O10 2.623312 1_656
La2 O8 2.625655 1_556
La2 O12 2.628722 1_655
La2 O14 2.629265 1_555
La2 O2 2.708156 1_556
La2 O0 2.726837 1_555
La2 O0 2.727690 1_655
La2 O2 2.749332 1_555
La3 O5 2.316483 1_555
La3 O11 2.618578 1_555
La3 O9 2.620362 1_455
La3 O13 2.624597 1_555
La3 O15 2.625868 1_455
La3 O3 2.715455 1_555
La3 O1 2.719172 1_555
La3 O1 2.722218 1_455
La3 O3 2.756497 1_554
La4 O6 2.347505 1_555
La4 O14 2.608604 1_555
La4 O12 2.609509 1_555
La4 O10 2.610212 1_555
La4 O8 2.610638 1_555
La4 O0 2.687537 1_555
La4 O2 2.731989 1_555
La4 O2 2.733380 1_455
La4 O0 2.781868 1_554
La5 O7 2.319455 1_555
La5 O15 2.611347 1_556
La5 O9 2.611926 1_555
La5 O11 2.612952 1_555
La5 O13 2.613379 1_556
La5 O1 2.685750 1_556
La5 O3 2.740083 1_655
La5 O3 2.740147 1_555
La5 O1 2.769174 1_555
Co0 O8 1.852175 1_556
Co0 O12 1.852332 1_555
Co0 O10 1.853127 1_556
Co0 O14 1.853359 1_555
Co0 O7 2.270796 1_555
Co0 O0 2.331366 1_555
Co1 O13 1.939861 1_545
Co1 O15 1.940764 1_545
Co1 O9 1.941688 1_545
Co1 O11 1.942815 1_545
Co1 O6 2.201020 1_555
Co1 O1 2.313971 1_545
Co2 O13 1.866736 1_546
Co2 O9 1.867200 1_445
Co2 O15 1.867616 1_446
Co2 O11 1.867930 1_545
Co2 O4 2.213048 1_455
Co2 O3 2.401684 1_545
Co3 O12 1.957880 1_555
Co3 O8 1.957916 1_455
Co3 O10 1.958215 1_555
Co3 O14 1.959385 1_455
Co3 O5 2.154054 1_555
Co3 O2 2.417642 1_455
