# generated using pymatgen
data_TeMoWSe2S
_symmetry_space_group_name_H-M   'P 1'
_cell_length_a   3.34090559
_cell_length_b   3.34090559
_cell_length_c   38.07192700
_cell_angle_alpha   90.00000000
_cell_angle_beta   90.00000000
_cell_angle_gamma   119.99999198
_symmetry_Int_Tables_number   1
_chemical_formula_structural   TeMoWSe2S
_chemical_formula_sum   'Te2 Mo2 W2 Se4 S2'
_cell_volume   368.01365517
_cell_formula_units_Z   2
loop_
 _symmetry_equiv_pos_site_id
 _symmetry_equiv_pos_as_xyz
  1  'x, y, z'
loop_
 _atom_site_type_symbol
 _atom_site_label
 _atom_site_symmetry_multiplicity
 _atom_site_fract_x
 _atom_site_fract_y
 _atom_site_fract_z
 _atom_site_occupancy
  Te  Te0  1  0.33333300  0.66666700  0.41989100  1
  Te  Te1  1  0.33333300  0.66666700  0.51948600  1
  Mo  Mo0  1  0.00000000  0.00000000  0.09392600  1
  Mo  Mo1  1  0.00000000  0.00000000  0.46966300  1
  W  W0  1  0.33333300  0.66666700  0.28178200  1
  W  W1  1  0.33333300  0.66666700  0.65754200  1
  Se  Se0  1  0.00000000  0.00000000  0.32576000  1
  Se  Se1  1  0.33333300  0.66666700  0.05012500  1
  Se  Se2  1  0.33333300  0.66666700  0.13770000  1
  Se  Se3  1  0.00000000  0.00000000  0.23778700  1
  S  S0  1  0.00000000  0.00000000  0.69755900  1
  S  S1  1  0.00000000  0.00000000  0.61752800  1
loop_
_geom_bond_atom_site_label_1
_geom_bond_atom_site_label_2
_geom_bond_distance
_geom_bond_site_symmetry_2
Mo0 Se2 2.549111 1_545
Mo0 Se2 2.549113 1_445
Mo0 Se2 2.549113 1_555
Mo0 Se1 2.549783 1_545
Mo0 Se1 2.549785 1_445
Mo0 Se1 2.549785 1_555
Mo1 Te0 2.703932 1_545
Mo1 Te0 2.703934 1_555
Mo1 Te0 2.703934 1_445
Mo1 Te1 2.705293 1_545
Mo1 Te1 2.705295 1_445
Mo1 Te1 2.705295 1_555
Se0 W0 2.554195 1_545
Se0 W0 2.554198 1_445
Se0 W0 2.554198 1_555
Se3 W0 2.554620 1_545
Se3 W0 2.554622 1_445
Se3 W0 2.554622 1_555
S0 W1 2.457981 1_545
S0 W1 2.457983 1_555
S0 W1 2.457983 1_445
S1 W1 2.457910 1_545
S1 W1 2.457912 1_445
S1 W1 2.457912 1_555
