# generated using pymatgen
data_Li5Mn3O8
_symmetry_space_group_name_H-M   'P 1'
_cell_length_a   5.00100478
_cell_length_b   5.08477675
_cell_length_c   11.86989477
_cell_angle_alpha   88.89509565
_cell_angle_beta   88.95622320
_cell_angle_gamma   108.27685595
_symmetry_Int_Tables_number   1
_chemical_formula_structural   Li5Mn3O8
_chemical_formula_sum   'Li10 Mn6 O16'
_cell_volume   286.46544771
_cell_formula_units_Z   2
loop_
 _symmetry_equiv_pos_site_id
 _symmetry_equiv_pos_as_xyz
  1  'x, y, z'
loop_
 _atom_site_type_symbol
 _atom_site_label
 _atom_site_symmetry_multiplicity
 _atom_site_fract_x
 _atom_site_fract_y
 _atom_site_fract_z
 _atom_site_occupancy
  Li  Li0  1  0.00477200  0.50199200  0.12494200  1
  Li  Li1  1  0.99482300  0.49763300  0.62504300  1
  Li  Li2  1  0.99973000  0.49973900  0.37502000  1
  Li  Li3  1  0.00040100  0.50023800  0.87503500  1
  Li  Li4  1  0.50373100  0.00489500  0.12530400  1
  Li  Li5  1  0.49623400  0.99487700  0.62468600  1
  Li  Li6  1  0.50280800  0.50446900  0.24050300  1
  Li  Li7  1  0.50331800  0.50531500  0.75076200  1
  Li  Li8  1  0.49734800  0.49547200  0.99940500  1
  Li  Li9  1  0.49680200  0.49519900  0.50953500  1
  Mn  Mn0  1  0.50026100  0.00037000  0.87505900  1
  Mn  Mn1  1  0.49976900  0.99980300  0.37490700  1
  Mn  Mn2  1  0.00572300  0.00186600  0.00265200  1
  Mn  Mn3  1  0.99144400  0.99195100  0.50233700  1
  Mn  Mn4  1  0.00817800  0.00768000  0.24756800  1
  Mn  Mn5  1  0.99466000  0.99847100  0.74737800  1
  O  O0  1  0.23529000  0.24869300  0.13889100  1
  O  O1  1  0.20676100  0.22169200  0.61447800  1
  O  O2  1  0.79298500  0.77804400  0.13543400  1
  O  O3  1  0.76453300  0.75105000  0.61109900  1
  O  O4  1  0.24196700  0.21789300  0.37467600  1
  O  O5  1  0.26329200  0.23407100  0.88126600  1
  O  O6  1  0.75752600  0.78170800  0.37517800  1
  O  O7  1  0.73747900  0.76668400  0.86884000  1
  O  O8  1  0.74143600  0.21433800  0.48865100  1
  O  O9  1  0.74626000  0.21891800  0.99029800  1
  O  O10  1  0.75306400  0.22486300  0.25931400  1
  O  O11  1  0.74534500  0.22532600  0.75596300  1
  O  O12  1  0.25804200  0.78517100  0.26123400  1
  O  O13  1  0.25432200  0.78158600  0.75986500  1
  O  O14  1  0.24650100  0.77476200  0.49055000  1
  O  O15  1  0.25519500  0.77523200  0.99412800  1
loop_
_geom_bond_atom_site_label_1
_geom_bond_atom_site_label_2
_geom_bond_distance
_geom_bond_site_symmetry_2
Li0 O0 1.986277 1_555
Li0 O2 2.010469 1_455
Li0 O15 2.159718 1_554
Li0 O10 2.200410 1_455
Li0 O9 2.300930 1_454
Li0 O12 2.305508 1_555
Li1 O3 1.985875 1_555
Li1 O1 2.010601 1_655
Li1 O11 2.156751 1_555
Li1 O14 2.201365 1_655
Li1 O13 2.306382 1_655
Li1 O8 2.306857 1_555
Li2 O8 2.068588 1_555
Li2 O12 2.069856 1_655
Li2 O14 2.100552 1_655
Li2 O10 2.101392 1_555
Li2 O4 2.147183 1_655
Li2 O6 2.147575 1_555
Li3 O13 2.061522 1_555
Li3 O9 2.062583 1_455
Li3 O15 2.145110 1_555
Li3 O11 2.145267 1_455
Li3 O5 2.163646 1_555
Li3 O7 2.164914 1_455
Li4 O9 2.063366 1_554
Li4 O12 2.087693 1_545
Li4 O0 2.099678 1_555
Li4 O2 2.117802 1_545
Li4 O15 2.136171 1_544
Li4 O10 2.145277 1_555
Li5 O13 2.062441 1_555
Li5 O8 2.087193 1_565
Li5 O3 2.099210 1_555
Li5 O1 2.118654 1_565
Li5 O11 2.139802 1_565
Li5 O14 2.147544 1_555
Li6 O0 1.990982 1_555
Li6 O2 2.048752 1_555
Li6 O12 2.166685 1_555
Li6 O10 2.179791 1_555
Li6 O4 2.236962 1_555
Li6 O6 2.280387 1_555
Li7 O7 2.063365 1_555
Li7 O5 2.134056 1_555
Li7 O11 2.139123 1_555
Li7 O13 2.152625 1_555
Li7 O3 2.198513 1_555
Li7 O1 2.394180 1_555
Li8 O5 2.063753 1_555
Li8 O7 2.134673 1_555
Li8 O15 2.138654 1_555
Li8 O9 2.153501 1_555
Li8 O0 2.200628 1_556
Li8 O2 2.387778 1_556
Li9 O3 1.991306 1_555
Li9 O1 2.047398 1_555
Li9 O8 2.167066 1_555
Li9 O14 2.179994 1_555
Li9 O6 2.238098 1_555
Li9 O4 2.282343 1_555
Mn0 O5 1.924948 1_555
Mn0 O7 1.925899 1_545
Mn0 O11 1.950447 1_555
Mn0 O15 1.950531 1_545
Mn0 O13 1.970201 1_545
Mn0 O9 1.970264 1_555
Mn1 O12 1.939519 1_555
Mn1 O8 1.939799 1_565
Mn1 O10 1.940025 1_565
Mn1 O14 1.940334 1_555
Mn1 O6 1.946297 1_555
Mn1 O4 1.946465 1_565
Mn2 O15 1.948441 1_544
Mn2 O9 1.955043 1_454
Mn2 O2 2.005376 1_445
Mn2 O5 2.010512 1_554
Mn2 O0 2.179574 1_555
Mn2 O7 2.212948 1_444
Mn3 O3 1.862427 1_555
Mn3 O1 1.902418 1_665
Mn3 O14 1.936279 1_655
Mn3 O8 1.937882 1_565
Mn3 O6 2.032654 1_555
Mn3 O4 2.036335 1_665
Mn4 O0 1.862403 1_555
Mn4 O2 1.901878 1_445
Mn4 O10 1.936459 1_455
Mn4 O12 1.937751 1_545
Mn4 O4 2.031863 1_555
Mn4 O6 2.036226 1_445
Mn5 O11 1.948722 1_565
Mn5 O13 1.955347 1_655
Mn5 O1 2.004195 1_665
Mn5 O7 2.009487 1_555
Mn5 O3 2.182228 1_555
Mn5 O5 2.215262 1_665
