# generated using pymatgen
data_Nb4AgBi5O18
_symmetry_space_group_name_H-M   'P 1'
_cell_length_a   12.93699770
_cell_length_b   12.93699770
_cell_length_c   5.60818359
_cell_angle_alpha   89.83000878
_cell_angle_beta   89.83000878
_cell_angle_gamma   155.13552680
_symmetry_Int_Tables_number   1
_chemical_formula_structural   Nb4AgBi5O18
_chemical_formula_sum   'Nb4 Ag1 Bi5 O18'
_cell_volume   394.62665236
_cell_formula_units_Z   1
loop_
 _symmetry_equiv_pos_site_id
 _symmetry_equiv_pos_as_xyz
  1  'x, y, z'
loop_
 _atom_site_type_symbol
 _atom_site_label
 _atom_site_symmetry_multiplicity
 _atom_site_fract_x
 _atom_site_fract_y
 _atom_site_fract_z
 _atom_site_occupancy
  Nb  Nb0  1  0.65538100  0.82617100  0.53484700  1
  Nb  Nb1  1  0.82617100  0.65538100  0.53484700  1
  Nb  Nb2  1  0.32874500  0.16025900  0.04110100  1
  Nb  Nb3  1  0.16025900  0.32874500  0.04110100  1
  Ag  Ag0  1  0.24128700  0.24128700  0.52877700  1
  Bi  Bi0  1  0.72514500  0.72514500  0.98975600  1
  Bi  Bi1  1  0.01891200  0.41919100  0.49023700  1
  Bi  Bi2  1  0.41919100  0.01891200  0.49023700  1
  Bi  Bi3  1  0.98213400  0.58230900  0.98995500  1
  Bi  Bi4  1  0.58230900  0.98213400  0.98995500  1
  O  O0  1  0.97487300  0.11028900  0.78048800  1
  O  O1  1  0.11028900  0.97487300  0.78048800  1
  O  O2  1  0.02482200  0.88819400  0.27229400  1
  O  O3  1  0.88819400  0.02482200  0.27229400  1
  O  O4  1  0.68963500  0.68963500  0.59408300  1
  O  O5  1  0.32896400  0.32896400  0.08308200  1
  O  O6  1  0.47341800  0.64542600  0.86986300  1
  O  O7  1  0.64542600  0.47341800  0.86986300  1
  O  O8  1  0.54646700  0.36344600  0.36114000  1
  O  O9  1  0.36344600  0.54646700  0.36114000  1
  O  O10  1  0.26344000  0.75903300  0.76610600  1
  O  O11  1  0.75903300  0.26344000  0.76610600  1
  O  O12  1  0.73948200  0.24198000  0.26547300  1
  O  O13  1  0.24198000  0.73948200  0.26547300  1
  O  O14  1  0.66554600  0.98155200  0.57475300  1
  O  O15  1  0.98155200  0.66554600  0.57475300  1
  O  O16  1  0.33997600  0.02392200  0.06489400  1
  O  O17  1  0.02392200  0.33997600  0.06489400  1
loop_
_geom_bond_atom_site_label_1
_geom_bond_atom_site_label_2
_geom_bond_distance
_geom_bond_site_symmetry_2
Nb0 O9 1.884255 1_555
Nb0 O14 1.905596 1_555
Nb0 O3 1.936401 1_565
Nb0 O6 2.120948 1_555
Nb0 O4 2.201039 1_555
Nb0 O0 2.233285 1_565
Nb1 O8 1.884255 1_555
Nb1 O15 1.905596 1_555
Nb1 O2 1.936401 1_655
Nb1 O7 2.120948 1_555
Nb1 O4 2.201039 1_555
Nb1 O1 2.233285 1_655
Nb2 O16 1.900954 1_555
Nb2 O1 1.902922 1_544
Nb2 O7 1.988713 1_554
Nb2 O2 2.087880 1_545
Nb2 O8 2.165045 1_555
Nb2 O5 2.193339 1_555
Nb3 O17 1.900954 1_555
Nb3 O0 1.902922 1_454
Nb3 O6 1.988713 1_554
Nb3 O3 2.087880 1_455
Nb3 O9 2.165045 1_555
Nb3 O5 2.193339 1_555
Ag0 O1 2.470143 1_545
Ag0 O0 2.470143 1_455
Ag0 O4 2.529124 1_555
Ag0 O5 2.540191 1_555
Ag0 O9 2.759703 1_555
Ag0 O8 2.759703 1_555
Ag0 O2 2.761827 1_545
Ag0 O3 2.761827 1_455
Bi0 O4 2.230519 1_555
Bi0 O5 2.261025 1_556
Bi0 O6 2.458388 1_555
Bi0 O7 2.458388 1_555
Bi0 O3 2.684651 1_566
Bi0 O2 2.684651 1_656
Bi0 O0 2.715429 1_565
Bi0 O1 2.715429 1_655
Bi1 O12 2.217724 1_455
Bi1 O13 2.309799 1_555
Bi1 O11 2.326977 1_455
Bi1 O14 2.486539 1_445
Bi1 O10 2.561626 1_555
Bi1 O17 2.622725 1_555
Bi2 O13 2.217724 1_545
Bi2 O12 2.309799 1_555
Bi2 O10 2.326977 1_545
Bi2 O15 2.486539 1_445
Bi2 O11 2.561626 1_555
Bi2 O16 2.622725 1_555
Bi3 O10 2.214704 1_655
Bi3 O11 2.317446 1_555
Bi3 O13 2.338484 1_656
Bi3 O16 2.506034 1_666
Bi3 O12 2.545093 1_556
Bi3 O15 2.565467 1_555
Bi4 O11 2.214704 1_565
Bi4 O10 2.317446 1_555
Bi4 O12 2.338484 1_566
Bi4 O17 2.506034 1_666
Bi4 O13 2.545093 1_556
Bi4 O14 2.565467 1_555
