# generated using pymatgen
data_NaLuSiO4
_symmetry_space_group_name_H-M   'P 1'
_cell_length_a   5.15602900
_cell_length_b   6.33265200
_cell_length_c   11.05159900
_cell_angle_alpha   90.00000000
_cell_angle_beta   90.00000000
_cell_angle_gamma   90.00000000
_symmetry_Int_Tables_number   1
_chemical_formula_structural   NaLuSiO4
_chemical_formula_sum   'Na4 Lu4 Si4 O16'
_cell_volume   360.84948730
_cell_formula_units_Z   4
loop_
 _symmetry_equiv_pos_site_id
 _symmetry_equiv_pos_as_xyz
  1  'x, y, z'
loop_
 _atom_site_type_symbol
 _atom_site_label
 _atom_site_symmetry_multiplicity
 _atom_site_fract_x
 _atom_site_fract_y
 _atom_site_fract_z
 _atom_site_occupancy
  Na  Na0  1  0.50000000  0.50000000  0.50000000  1
  Na  Na1  1  0.00000000  0.50000000  0.00000000  1
  Na  Na2  1  0.50000000  0.00000000  0.50000000  1
  Na  Na3  1  0.00000000  0.00000000  0.00000000  1
  Lu  Lu0  1  0.00627600  0.75000000  0.72053800  1
  Lu  Lu1  1  0.99372400  0.25000000  0.27946200  1
  Lu  Lu2  1  0.50627600  0.25000000  0.77946200  1
  Lu  Lu3  1  0.49372400  0.75000000  0.22053800  1
  Si  Si0  1  0.56554400  0.75000000  0.89893800  1
  Si  Si1  1  0.43445600  0.25000000  0.10106200  1
  Si  Si2  1  0.06554400  0.25000000  0.60106200  1
  Si  Si3  1  0.93445600  0.75000000  0.39893800  1
  O  O0  1  0.71206200  0.54907400  0.82676200  1
  O  O1  1  0.28793800  0.45092600  0.17323800  1
  O  O2  1  0.21206200  0.45092600  0.67323800  1
  O  O3  1  0.28793800  0.04907400  0.17323800  1
  O  O4  1  0.78793800  0.54907400  0.32676200  1
  O  O5  1  0.71206200  0.95092600  0.82676200  1
  O  O6  1  0.78793800  0.95092600  0.32676200  1
  O  O7  1  0.21206200  0.04907400  0.67323800  1
  O  O8  1  0.83890900  0.75000000  0.54035800  1
  O  O9  1  0.16109100  0.25000000  0.45964200  1
  O  O10  1  0.33890900  0.25000000  0.95964200  1
  O  O11  1  0.66109100  0.75000000  0.04035800  1
  O  O12  1  0.25195600  0.75000000  0.88323500  1
  O  O13  1  0.74804400  0.25000000  0.11676500  1
  O  O14  1  0.75195600  0.25000000  0.61676500  1
  O  O15  1  0.24804400  0.75000000  0.38323500  1
loop_
_geom_bond_atom_site_label_1
_geom_bond_atom_site_label_2
_geom_bond_distance
_geom_bond_site_symmetry_2
Na0 O8 2.399757 1_555
Na0 O9 2.399757 1_555
Na0 O14 2.420595 1_555
Na0 O15 2.420595 1_555
Na0 O4 2.442579 1_555
Na0 O2 2.442579 1_555
Na1 O10 2.399757 1_554
Na1 O11 2.399757 1_455
Na1 O12 2.420595 1_554
Na1 O13 2.420595 1_455
Na1 O1 2.442579 1_555
Na1 O0 2.442579 1_454
Na2 O8 2.399757 1_545
Na2 O9 2.399757 1_555
Na2 O14 2.420595 1_555
Na2 O15 2.420595 1_545
Na2 O6 2.442579 1_545
Na2 O7 2.442579 1_555
Na3 O10 2.399757 1_554
Na3 O11 2.399757 1_445
Na3 O12 2.420595 1_544
Na3 O13 2.420595 1_455
Na3 O3 2.442579 1_555
Na3 O5 2.442579 1_444
Lu0 O8 2.170222 1_455
Lu0 O12 2.199464 1_555
Lu0 O2 2.232944 1_555
Lu0 O7 2.232944 1_565
Lu0 O5 2.301815 1_455
Lu0 O0 2.301815 1_455
Lu1 O9 2.170222 1_655
Lu1 O13 2.199464 1_555
Lu1 O4 2.232944 1_555
Lu1 O6 2.232944 1_545
Lu1 O1 2.301815 1_655
Lu1 O3 2.301815 1_655
Lu2 O10 2.170222 1_555
Lu2 O14 2.199464 1_555
Lu2 O0 2.232944 1_555
Lu2 O5 2.232944 1_545
Lu2 O7 2.301815 1_555
Lu2 O2 2.301815 1_555
Lu3 O11 2.170222 1_555
Lu3 O15 2.199464 1_555
Lu3 O1 2.232944 1_555
Lu3 O3 2.232944 1_565
Lu3 O6 2.301815 1_555
Lu3 O4 2.301815 1_555
O0 Si0 1.681058 1_555
O1 Si1 1.681058 1_555
O2 Si2 1.681058 1_555
O3 Si1 1.681058 1_555
O4 Si3 1.681058 1_555
O5 Si0 1.681058 1_555
O6 Si3 1.681058 1_555
O7 Si2 1.681058 1_555
O8 Si3 1.638721 1_555
O9 Si2 1.638721 1_555
O10 Si1 1.638721 1_556
O11 Si0 1.638721 1_554
O12 Si0 1.626156 1_555
O13 Si1 1.626156 1_555
O14 Si2 1.626156 1_655
O15 Si3 1.626156 1_455
