# generated using pymatgen
data_BeNF3
_symmetry_space_group_name_H-M   'P 1'
_cell_length_a   4.72428200
_cell_length_b   6.17357800
_cell_length_c   13.98557892
_cell_angle_alpha   69.28711201
_cell_angle_beta   90.00000000
_cell_angle_gamma   90.00000000
_symmetry_Int_Tables_number   1
_chemical_formula_structural   BeNF3
_chemical_formula_sum   'Be4 N4 F12'
_cell_volume   381.53473582
_cell_formula_units_Z   4
loop_
 _symmetry_equiv_pos_site_id
 _symmetry_equiv_pos_as_xyz
  1  'x, y, z'
loop_
 _atom_site_type_symbol
 _atom_site_label
 _atom_site_symmetry_multiplicity
 _atom_site_fract_x
 _atom_site_fract_y
 _atom_site_fract_z
 _atom_site_occupancy
  Be  Be0  1  0.58643900  0.59807100  0.69259600  1
  Be  Be1  1  0.91356100  0.59807100  0.19259600  1
  Be  Be2  1  0.08643900  0.40192900  0.80740400  1
  Be  Be3  1  0.41356100  0.40192900  0.30740400  1
  N  N0  1  0.40022200  0.82826600  0.89223800  1
  N  N1  1  0.09977800  0.82826600  0.39223800  1
  N  N2  1  0.59977800  0.17173400  0.10776200  1
  N  N3  1  0.90022200  0.17173400  0.60776200  1
  F  F0  1  0.40134300  0.43632200  0.77919100  1
  F  F1  1  0.09865700  0.43632200  0.27919100  1
  F  F2  1  0.47344600  0.76389000  0.60396400  1
  F  F3  1  0.02655400  0.76389000  0.10396400  1
  F  F4  1  0.59865700  0.56367800  0.22080900  1
  F  F5  1  0.90134300  0.56367800  0.72080900  1
  F  F6  1  0.97344600  0.23611000  0.89603600  1
  F  F7  1  0.52655400  0.23611000  0.39603600  1
  F  F8  1  0.14647000  0.72855100  0.89169000  1
  F  F9  1  0.35353000  0.72855100  0.39169000  1
  F  F10  1  0.64647000  0.27144900  0.60831000  1
  F  F11  1  0.85353000  0.27144900  0.10831000  1
loop_
_geom_bond_atom_site_label_1
_geom_bond_atom_site_label_2
_geom_bond_distance
_geom_bond_site_symmetry_2
Be0 F2 1.404218 1_555
Be0 F5 1.534518 1_555
Be0 F0 1.540473 1_555
Be1 F3 1.404218 1_655
Be1 F4 1.534518 1_555
Be1 F1 1.540473 1_655
Be2 F6 1.404218 1_455
Be2 F0 1.534518 1_555
Be2 F5 1.540473 1_455
Be3 F7 1.404218 1_555
Be3 F1 1.534518 1_555
Be3 F4 1.540473 1_555
F8 N0 1.348877 1_555
F9 N1 1.348877 1_555
F10 N3 1.348877 1_555
F11 N2 1.348877 1_555
