# generated using pymatgen
data_CeSe2
_symmetry_space_group_name_H-M   'P 1'
_cell_length_a   7.21439587
_cell_length_b   19.05656091
_cell_length_c   19.05656091
_cell_angle_alpha   119.99999718
_cell_angle_beta   90.00000000
_cell_angle_gamma   90.00000000
_symmetry_Int_Tables_number   1
_chemical_formula_structural   CeSe2
_chemical_formula_sum   'Ce12 Se24'
_cell_volume   2268.92253171
_cell_formula_units_Z   12
loop_
 _symmetry_equiv_pos_site_id
 _symmetry_equiv_pos_as_xyz
  1  'x, y, z'
loop_
 _atom_site_type_symbol
 _atom_site_label
 _atom_site_symmetry_multiplicity
 _atom_site_fract_x
 _atom_site_fract_y
 _atom_site_fract_z
 _atom_site_occupancy
  Ce  Ce0  1  0.97809587  0.51152115  0.65104278  1
  Ce  Ce1  1  0.97809587  0.34895722  0.86047837  1
  Ce  Ce2  1  0.97809587  0.13952163  0.48847885  1
  Ce  Ce3  1  0.47809587  0.48847885  0.13952163  1
  Ce  Ce4  1  0.47809587  0.86047837  0.34895722  1
  Ce  Ce5  1  0.47809587  0.65104278  0.51152115  1
  Ce  Ce6  1  0.02190413  0.48847885  0.34895722  1
  Ce  Ce7  1  0.02190413  0.65104278  0.13952163  1
  Ce  Ce8  1  0.02190413  0.86047837  0.51152115  1
  Ce  Ce9  1  0.52190413  0.51152115  0.86047837  1
  Ce  Ce10  1  0.52190413  0.13952163  0.65104278  1
  Ce  Ce11  1  0.52190413  0.34895722  0.48847885  1
  Se  Se0  1  0.75000000  0.22130750  0.61065375  1
  Se  Se1  1  0.75000000  0.38934625  0.61065375  1
  Se  Se2  1  0.75000000  0.38934625  0.77869250  1
  Se  Se3  1  0.25000000  0.77869250  0.38934625  1
  Se  Se4  1  0.25000000  0.61065375  0.38934625  1
  Se  Se5  1  0.25000000  0.61065375  0.22130750  1
  Se  Se6  1  0.25000000  0.20827500  0.60413750  1
  Se  Se7  1  0.25000000  0.39586250  0.60413750  1
  Se  Se8  1  0.25000000  0.39586250  0.79172500  1
  Se  Se9  1  0.75000000  0.79172500  0.39586250  1
  Se  Se10  1  0.75000000  0.60413750  0.39586250  1
  Se  Se11  1  0.75000000  0.60413750  0.20827500  1
  Se  Se12  1  0.00000000  0.50000000  0.50000000  1
  Se  Se13  1  0.00000000  0.50000000  -0.00000000  1
  Se  Se14  1  0.00000000  0.00000000  0.50000000  1
  Se  Se15  1  0.50000000  0.50000000  -0.00000000  1
  Se  Se16  1  0.50000000  0.00000000  0.50000000  1
  Se  Se17  1  0.50000000  0.50000000  0.50000000  1
  Se  Se18  1  0.75000000  0.20644164  0.79355836  1
  Se  Se19  1  0.75000000  0.20644164  0.41288328  1
  Se  Se20  1  0.75000000  0.58711672  0.79355836  1
  Se  Se21  1  0.25000000  0.79355836  0.58711672  1
  Se  Se22  1  0.25000000  0.41288328  0.20644164  1
  Se  Se23  1  0.25000000  0.79355836  0.20644164  1
loop_
_geom_bond_atom_site_label_1
_geom_bond_atom_site_label_2
_geom_bond_distance
_geom_bond_site_symmetry_2
Ce0 Se1 2.632299 1_555
Ce0 Se7 2.744941 1_655
Ce0 Se12 2.779596 1_655
Ce0 Se20 2.871699 1_555
Ce1 Se2 2.632299 1_555
Ce1 Se8 2.744941 1_655
Ce1 Se13 2.779596 1_656
Ce1 Se18 2.871699 1_555
Ce2 Se0 2.632299 1_555
Ce2 Se6 2.744941 1_655
Ce2 Se14 2.779596 1_655
Ce2 Se19 2.871699 1_555
Ce3 Se5 2.632299 1_555
Ce3 Se11 2.744941 1_555
Ce3 Se15 2.779596 1_555
Ce3 Se22 2.871699 1_555
Ce4 Se3 2.632299 1_555
Ce4 Se9 2.744941 1_555
Ce4 Se16 2.779596 1_565
Ce4 Se23 2.871699 1_555
Ce5 Se4 2.632299 1_555
Ce5 Se10 2.744941 1_555
Ce5 Se17 2.779596 1_555
Ce5 Se21 2.871699 1_555
Ce6 Se4 2.632299 1_555
Ce6 Se10 2.744941 1_455
Ce6 Se12 2.779596 1_555
Ce6 Se22 2.871699 1_555
Ce7 Se5 2.632299 1_555
Ce7 Se11 2.744941 1_455
Ce7 Se13 2.779596 1_555
Ce7 Se23 2.871699 1_555
Ce8 Se3 2.632299 1_555
Ce8 Se9 2.744941 1_455
Ce8 Se14 2.779596 1_565
Ce8 Se21 2.871699 1_555
Ce9 Se2 2.632299 1_555
Ce9 Se8 2.744941 1_555
Ce9 Se15 2.779596 1_556
Ce9 Se20 2.871699 1_555
Ce10 Se0 2.632299 1_555
Ce10 Se6 2.744941 1_555
Ce10 Se16 2.779596 1_555
Ce10 Se18 2.871699 1_555
Ce11 Se1 2.632299 1_555
Ce11 Se7 2.744941 1_555
Ce11 Se17 2.779596 1_555
Ce11 Se19 2.871699 1_555
