# generated using pymatgen
data_Ba2LaNb(CuO4)2
_symmetry_space_group_name_H-M   'P 1'
_cell_length_a   12.82913280
_cell_length_b   12.82913280
_cell_length_c   12.82913280
_cell_angle_alpha   154.47350263
_cell_angle_beta   154.47350263
_cell_angle_gamma   36.41174059
_symmetry_Int_Tables_number   1
_chemical_formula_structural   Ba2LaNb(CuO4)2
_chemical_formula_sum   'Ba4 La2 Nb2 Cu4 O16'
_cell_volume   391.58838258
_cell_formula_units_Z   2
loop_
 _symmetry_equiv_pos_site_id
 _symmetry_equiv_pos_as_xyz
  1  'x, y, z'
loop_
 _atom_site_type_symbol
 _atom_site_label
 _atom_site_symmetry_multiplicity
 _atom_site_fract_x
 _atom_site_fract_y
 _atom_site_fract_z
 _atom_site_occupancy
  Ba  Ba0  1  0.59769300  0.09769300  0.50000000  1
  Ba  Ba1  1  0.40230700  0.90230700  0.50000000  1
  Ba  Ba2  1  0.09769300  0.59769300  0.50000000  1
  Ba  Ba3  1  0.90230700  0.40230700  0.50000000  1
  La  La0  1  0.75000000  0.25000000  0.50000000  1
  La  La1  1  0.25000000  0.75000000  0.50000000  1
  Nb  Nb0  1  0.00000000  0.00000000  0.00000000  1
  Nb  Nb1  1  0.50000000  0.50000000  0.00000000  1
  Cu  Cu0  1  0.17799200  0.17799200  0.00000000  1
  Cu  Cu1  1  0.82200800  0.82200800  0.00000000  1
  Cu  Cu2  1  0.32200800  0.32200800  0.00000000  1
  Cu  Cu3  1  0.67799200  0.67799200  0.00000000  1
  O  O0  1  0.08167600  0.08167600  0.00000000  1
  O  O1  1  0.91832400  0.91832400  0.00000000  1
  O  O2  1  0.41832400  0.41832400  0.00000000  1
  O  O3  1  0.58167600  0.58167600  0.00000000  1
  O  O4  1  0.43477500  0.93477500  0.99817500  1
  O  O5  1  0.56522500  0.06522500  0.00182500  1
  O  O6  1  0.93660000  0.43660000  0.00182500  1
  O  O7  1  0.93477500  0.93660000  0.50000000  1
  O  O8  1  0.56340000  0.56522500  0.50000000  1
  O  O9  1  0.06340000  0.56340000  0.99817500  1
  O  O10  1  0.06522500  0.06340000  0.50000000  1
  O  O11  1  0.43660000  0.43477500  0.50000000  1
  O  O12  1  0.72193600  0.22193600  0.94387100  1
  O  O13  1  0.27806400  0.77806400  0.05612900  1
  O  O14  1  0.22193600  0.27806400  0.50000000  1
  O  O15  1  0.77806400  0.72193600  0.50000000  1
loop_
_geom_bond_atom_site_label_1
_geom_bond_atom_site_label_2
_geom_bond_distance
_geom_bond_site_symmetry_2
Ba0 O0 2.861011 1_555
Ba0 O3 2.861011 1_556
Ba0 O0 2.861011 1_656
Ba0 O3 2.861011 1_545
Ba0 O11 2.930396 1_555
Ba0 O7 2.930396 1_545
Ba0 O4 2.940385 1_544
Ba0 O6 2.940385 1_556
Ba0 O12 2.972399 1_555
Ba0 O13 2.972419 1_545
Ba0 O14 3.261707 1_555
Ba0 O15 3.261707 1_545
Ba1 O1 2.861011 1_455
Ba1 O2 2.861011 1_566
Ba1 O1 2.861011 1_556
Ba1 O2 2.861011 1_555
Ba1 O8 2.930396 1_555
Ba1 O10 2.930396 1_565
Ba1 O9 2.940385 1_554
Ba1 O5 2.940385 1_566
Ba1 O13 2.972399 1_555
Ba1 O12 2.972419 1_565
Ba1 O14 3.261707 1_565
Ba1 O15 3.261707 1_555
Ba2 O0 2.861011 1_555
Ba2 O3 2.861011 1_556
Ba2 O0 2.861011 1_566
Ba2 O3 2.861011 1_455
Ba2 O4 2.930396 1_555
Ba2 O6 2.930396 1_455
Ba2 O11 2.940385 1_555
Ba2 O7 2.940385 1_455
Ba2 O14 2.972412 1_555
Ba2 O15 2.972412 1_455
Ba2 O12 3.261700 1_454
Ba2 O13 3.261718 1_556
Ba3 O1 2.861011 1_545
Ba3 O2 2.861011 1_656
Ba3 O1 2.861011 1_556
Ba3 O2 2.861011 1_555
Ba3 O9 2.930396 1_655
Ba3 O5 2.930396 1_555
Ba3 O8 2.940385 1_555
Ba3 O10 2.940385 1_655
Ba3 O14 2.972412 1_655
Ba3 O15 2.972412 1_555
Ba3 O13 3.261700 1_656
Ba3 O12 3.261718 1_554
La0 O5 2.538583 1_555
La0 O7 2.538583 1_545
La0 O11 2.538583 1_555
La0 O9 2.538583 1_655
La0 O10 2.550107 1_655
La0 O6 2.550107 1_556
La0 O8 2.550107 1_555
La0 O4 2.550107 1_544
La1 O10 2.538583 1_565
La1 O6 2.538583 1_455
La1 O8 2.538583 1_555
La1 O4 2.538583 1_555
La1 O5 2.550107 1_566
La1 O7 2.550107 1_455
La1 O9 2.550107 1_554
La1 O11 2.550107 1_555
Nb0 O0 1.990756 1_555
Nb0 O1 1.990756 1_445
Nb0 O15 2.016705 1_444
Nb0 O14 2.016705 1_555
Nb0 O13 2.016706 1_545
Nb0 O12 2.016706 1_454
Nb1 O3 1.990756 1_555
Nb1 O2 1.990756 1_555
Nb1 O15 2.016705 1_555
Nb1 O14 2.016705 1_554
Nb1 O13 2.016706 1_555
Nb1 O12 2.016706 1_554
Cu0 O4 2.012889 1_544
Cu0 O11 2.012889 1_555
Cu0 O7 2.012889 1_444
Cu0 O6 2.012889 1_455
Cu0 O0 2.347588 1_555
Cu1 O5 2.012889 1_565
Cu1 O9 2.012889 1_654
Cu1 O8 2.012889 1_554
Cu1 O10 2.012889 1_665
Cu1 O1 2.347588 1_555
Cu2 O9 2.012889 1_554
Cu2 O8 2.012889 1_555
Cu2 O10 2.012889 1_554
Cu2 O5 2.012889 1_555
Cu2 O2 2.347588 1_555
Cu3 O4 2.012889 1_554
Cu3 O11 2.012889 1_554
Cu3 O7 2.012889 1_555
Cu3 O6 2.012889 1_555
Cu3 O3 2.347588 1_555
