# generated using pymatgen
data_Er(MnAl2)4
_symmetry_space_group_name_H-M   'P 1'
_cell_length_a   5.14499900
_cell_length_b   6.69151009
_cell_length_c   6.69151009
_cell_angle_alpha   81.50078063
_cell_angle_beta   67.39087369
_cell_angle_gamma   67.39087369
_symmetry_Int_Tables_number   1
_chemical_formula_structural   Er(MnAl2)4
_chemical_formula_sum   'Er1 Mn4 Al8'
_cell_volume   196.32570662
_cell_formula_units_Z   1
loop_
 _symmetry_equiv_pos_site_id
 _symmetry_equiv_pos_as_xyz
  1  'x, y, z'
loop_
 _atom_site_type_symbol
 _atom_site_label
 _atom_site_symmetry_multiplicity
 _atom_site_fract_x
 _atom_site_fract_y
 _atom_site_fract_z
 _atom_site_occupancy
  Er  Er0  1  0.00000000  0.00000000  0.00000000  1
  Mn  Mn0  1  0.00000000  0.00000000  0.50000000  1
  Mn  Mn1  1  0.50000000  0.00000000  0.50000000  1
  Mn  Mn2  1  0.50000000  0.50000000  0.00000000  1
  Mn  Mn3  1  0.00000000  0.50000000  0.00000000  1
  Al  Al0  1  0.00000000  0.33551700  0.66448300  1
  Al  Al1  1  0.00000000  0.66448300  0.33551700  1
  Al  Al2  1  0.66448300  0.33551700  0.33551700  1
  Al  Al3  1  0.33551700  0.66448300  0.66448300  1
  Al  Al4  1  0.50000000  0.77591700  0.22408300  1
  Al  Al5  1  0.50000000  0.22408300  0.77591700  1
  Al  Al6  1  0.72408300  0.77591700  0.77591700  1
  Al  Al7  1  0.27591700  0.22408300  0.22408300  1
loop_
_geom_bond_atom_site_label_1
_geom_bond_atom_site_label_2
_geom_bond_distance
_geom_bond_site_symmetry_2
Er0 Mn1 3.345755 1_554
Er0 Mn2 3.345755 1_545
Er0 Mn1 3.345755 1_455
Er0 Mn2 3.345755 1_455
Er0 Mn0 3.345755 1_554
Er0 Mn3 3.345755 1_555
Er0 Mn0 3.345755 1_555
Er0 Mn3 3.345755 1_545
Mn0 Mn1 2.572500 1_555
Mn0 Mn1 2.572500 1_455
Mn2 Mn3 2.572500 1_655
Mn2 Mn3 2.572500 1_555
Al0 Mn1 2.642419 1_555
Al0 Mn2 2.642419 1_456
Al0 Mn0 2.642419 1_555
Al0 Mn3 2.642419 1_556
Al0 Al5 2.750532 1_555
Al0 Al5 2.750532 1_455
Al0 Al6 2.806202 1_455
Al0 Al7 2.806202 1_555
Al0 Al1 2.873836 1_555
Al0 Er0 2.931065 1_556
Al1 Mn2 2.642419 1_555
Al1 Mn1 2.642419 1_465
Al1 Mn3 2.642419 1_555
Al1 Mn0 2.642419 1_565
Al1 Al4 2.750532 1_555
Al1 Al4 2.750532 1_455
Al1 Al6 2.806202 1_455
Al1 Al7 2.806202 1_555
Al1 Er0 2.931065 1_565
Al2 Mn0 2.642419 1_655
Al2 Mn3 2.642419 1_655
Al2 Mn1 2.642419 1_555
Al2 Mn2 2.642419 1_555
Al2 Al7 2.750531 1_655
Al2 Al7 2.750532 1_555
Al2 Al5 2.806202 1_555
Al2 Al4 2.806202 1_555
Al2 Al3 2.873836 1_555
Al2 Er0 2.931065 1_655
Al3 Mn3 2.642419 1_556
Al3 Mn0 2.642419 1_565
Al3 Mn2 2.642419 1_556
Al3 Mn1 2.642419 1_565
Al3 Al6 2.750531 1_455
Al3 Al6 2.750532 1_555
Al3 Al5 2.806202 1_555
Al3 Al4 2.806202 1_555
Al3 Er0 2.931065 1_566
Al4 Mn3 2.544704 1_655
Al4 Mn0 2.544704 1_565
Al4 Mn2 2.544704 1_555
Al4 Mn1 2.544704 1_565
Al4 Al7 2.768438 1_565
Al4 Al6 2.768438 1_554
Al4 Er0 3.232627 1_565
Al4 Er0 3.232627 1_665
Al5 Mn0 2.544704 1_655
Al5 Mn3 2.544704 1_556
Al5 Mn1 2.544704 1_555
Al5 Mn2 2.544704 1_556
Al5 Al7 2.768438 1_556
Al5 Al6 2.768438 1_545
Al5 Er0 3.232627 1_556
Al5 Er0 3.232627 1_656
Al6 Mn3 2.544704 1_656
Al6 Mn0 2.544704 1_665
Al6 Mn2 2.544704 1_556
Al6 Mn1 2.544704 1_565
Al6 Er0 3.232627 1_566
Al6 Er0 3.232627 1_666
Al7 Mn3 2.544704 1_555
Al7 Mn0 2.544704 1_555
Al7 Mn2 2.544704 1_555
Al7 Mn1 2.544704 1_555
Al7 Er0 3.232627 1_655
Al7 Er0 3.232627 1_555
