# generated using pymatgen
data_Ta2PtSe7
_symmetry_space_group_name_H-M   'P 1'
_cell_length_a   8.04898698
_cell_length_b   8.04898698
_cell_length_c   18.99588440
_cell_angle_alpha   71.11935060
_cell_angle_beta   71.11935060
_cell_angle_gamma   25.65408014
_symmetry_Int_Tables_number   1
_chemical_formula_structural   Ta2PtSe7
_chemical_formula_sum   'Ta4 Pt2 Se14'
_cell_volume   502.60432594
_cell_formula_units_Z   2
loop_
 _symmetry_equiv_pos_site_id
 _symmetry_equiv_pos_as_xyz
  1  'x, y, z'
loop_
 _atom_site_type_symbol
 _atom_site_label
 _atom_site_symmetry_multiplicity
 _atom_site_fract_x
 _atom_site_fract_y
 _atom_site_fract_z
 _atom_site_occupancy
  Ta  Ta0  1  0.83916500  0.83916500  0.39844200  1
  Ta  Ta1  1  0.16083500  0.16083500  0.60155800  1
  Ta  Ta2  1  0.23482700  0.23482700  0.90687000  1
  Ta  Ta3  1  0.76517300  0.76517300  0.09313000  1
  Pt  Pt0  1  0.30154200  0.30154200  0.21061400  1
  Pt  Pt1  1  0.69845800  0.69845800  0.78938600  1
  Se  Se0  1  0.26693400  0.26693400  0.69304100  1
  Se  Se1  1  0.73306600  0.73306600  0.30695900  1
  Se  Se2  1  0.20562900  0.20562900  0.44793700  1
  Se  Se3  1  0.79437100  0.79437100  0.55206300  1
  Se  Se4  1  0.54638800  0.54638800  0.58222300  1
  Se  Se5  1  0.45361200  0.45361200  0.41777700  1
  Se  Se6  1  0.65262400  0.65262400  0.00996800  1
  Se  Se7  1  0.34737600  0.34737600  0.99003200  1
  Se  Se8  1  0.41353000  0.41353000  0.29334300  1
  Se  Se9  1  0.58647000  0.58647000  0.70665700  1
  Se  Se10  1  0.90456500  0.90456500  0.12977900  1
  Se  Se11  1  0.09543500  0.09543500  0.87022100  1
  Se  Se12  1  0.15554000  0.15554000  0.17074500  1
  Se  Se13  1  0.84446000  0.84446000  0.82925500  1
loop_
_geom_bond_atom_site_label_1
_geom_bond_atom_site_label_2
_geom_bond_distance
_geom_bond_site_symmetry_2
Pt0 Se1 2.528282 1_545
Pt0 Se1 2.528282 1_455
Pt0 Se10 2.552998 1_545
Pt0 Se10 2.552998 1_455
Pt0 Se12 2.641478 1_555
Pt0 Se8 2.719014 1_555
Pt0 Ta3 3.056994 1_545
Pt0 Ta3 3.056994 1_455
Pt1 Se0 2.528282 1_565
Pt1 Se0 2.528282 1_655
Pt1 Se11 2.552998 1_565
Pt1 Se11 2.552998 1_655
Pt1 Se13 2.641478 1_555
Pt1 Se9 2.719014 1_555
Pt1 Ta2 3.056994 1_565
Pt1 Ta2 3.056994 1_655
Se0 Ta1 2.777466 1_555
Se1 Ta0 2.777466 1_555
Se2 Ta0 2.676260 1_455
Se2 Ta0 2.676260 1_545
Se2 Ta1 2.765532 1_555
Se3 Ta1 2.676260 1_655
Se3 Ta1 2.676260 1_565
Se3 Ta0 2.765532 1_555
Se4 Ta1 2.644432 1_655
Se4 Ta1 2.644432 1_565
Se5 Ta0 2.644432 1_455
Se5 Ta0 2.644432 1_545
Se6 Ta2 2.648810 1_654
Se6 Ta2 2.648810 1_564
Se6 Ta3 2.732914 1_555
Se7 Ta3 2.648810 1_546
Se7 Ta3 2.648810 1_456
Se7 Ta2 2.732914 1_555
Se8 Ta0 2.644741 1_545
Se8 Ta0 2.644741 1_455
Se9 Ta1 2.644741 1_565
Se9 Ta1 2.644741 1_655
Se10 Ta3 2.506540 1_555
Se11 Ta2 2.506540 1_555
Se12 Ta3 2.577620 1_545
Se12 Ta3 2.577620 1_455
Se13 Ta2 2.577620 1_565
Se13 Ta2 2.577620 1_655
