# generated using pymatgen
data_ZrCrCuS4
_symmetry_space_group_name_H-M   'P 1'
_cell_length_a   7.19783050
_cell_length_b   7.19783050
_cell_length_c   7.19783050
_cell_angle_alpha   119.55908977
_cell_angle_beta   119.49833569
_cell_angle_gamma   90.81825832
_symmetry_Int_Tables_number   1
_chemical_formula_structural   ZrCrCuS4
_chemical_formula_sum   'Zr2 Cr2 Cu2 S8'
_cell_volume   265.53665712
_cell_formula_units_Z   2
loop_
 _symmetry_equiv_pos_site_id
 _symmetry_equiv_pos_as_xyz
  1  'x, y, z'
loop_
 _atom_site_type_symbol
 _atom_site_label
 _atom_site_symmetry_multiplicity
 _atom_site_fract_x
 _atom_site_fract_y
 _atom_site_fract_z
 _atom_site_occupancy
  Zr  Zr0  1  0.26450200  0.25000000  0.51450200  1
  Zr  Zr1  1  0.23549800  0.75000000  0.98549800  1
  Cr  Cr0  1  0.75000000  0.74884100  0.99884100  1
  Cr  Cr1  1  0.25000000  0.75115900  0.50115900  1
  Cu  Cu0  1  0.88023000  0.13023000  0.75000000  1
  Cu  Cu1  1  0.61977000  0.36977000  0.25000000  1
  S  S0  1  0.50918500  0.51549300  0.00768100  1
  S  S1  1  0.50177100  0.52620200  0.52143300  1
  S  S2  1  0.00781200  0.50150400  0.49231900  1
  S  S3  1  0.50476800  0.98033800  0.97856700  1
  S  S4  1  0.99081500  0.99849600  0.00630800  1
  S  S5  1  0.99822900  0.51966200  0.02443100  1
  S  S6  1  0.49218800  0.98450700  0.49369200  1
  S  S7  1  0.99523200  0.97379800  0.47556900  1
loop_
_geom_bond_atom_site_label_1
_geom_bond_atom_site_label_2
_geom_bond_distance
_geom_bond_site_symmetry_2
Cr0 S0 2.441412 1_556
Cr0 S4 2.441412 1_556
Cr0 S7 2.446162 1_556
Cr0 S3 2.446167 1_555
Cr0 S5 2.450976 1_556
Cr0 S1 2.450976 1_555
Cr1 S6 2.441412 1_555
Cr1 S2 2.441412 1_555
Cr1 S1 2.446162 1_555
Cr1 S5 2.446162 1_455
Cr1 S7 2.450971 1_455
Cr1 S3 2.450975 1_555
Cu0 S4 2.288563 1_546
Cu0 S6 2.288563 1_545
Cu0 S5 2.301574 1_556
Cu0 S7 2.301580 1_545
Cu1 S2 2.288563 1_655
Cu1 S0 2.288563 1_555
Cu1 S3 2.301574 1_544
Cu1 S1 2.301574 1_555
S0 Zr0 2.531571 1_554
S0 Zr1 2.608923 1_554
S1 Zr0 2.567640 1_555
S2 Zr1 2.531571 1_555
S2 Zr0 2.608923 1_555
S3 Zr1 2.567634 1_555
S4 Zr1 2.531571 1_654
S4 Zr0 2.608923 1_665
S5 Zr1 2.567640 1_654
S6 Zr0 2.531571 1_565
S6 Zr1 2.608923 1_554
S7 Zr0 2.567635 1_665
