# generated using pymatgen
data_Tm3(CuSi)4
_symmetry_space_group_name_H-M   'P 1'
_cell_length_a   7.73842735
_cell_length_b   7.73842735
_cell_length_c   7.73842735
_cell_angle_alpha   149.52275174
_cell_angle_beta   130.59167372
_cell_angle_gamma   59.16986925
_symmetry_Int_Tables_number   1
_chemical_formula_structural   Tm3(CuSi)4
_chemical_formula_sum   'Tm3 Cu4 Si4'
_cell_volume   177.07109228
_cell_formula_units_Z   1
loop_
 _symmetry_equiv_pos_site_id
 _symmetry_equiv_pos_as_xyz
  1  'x, y, z'
loop_
 _atom_site_type_symbol
 _atom_site_label
 _atom_site_symmetry_multiplicity
 _atom_site_fract_x
 _atom_site_fract_y
 _atom_site_fract_z
 _atom_site_occupancy
  Tm  Tm0  1  0.37038802  0.87038802  0.50000000  1
  Tm  Tm1  1  0.62961198  0.12961198  0.50000000  1
  Tm  Tm2  1  0.00000000  0.00000000  -0.00000000  1
  Cu  Cu0  1  0.63899471  0.33039898  0.30859673  1
  Cu  Cu1  1  0.36100529  0.66960102  0.69140327  1
  Cu  Cu2  1  0.02180124  0.33039898  0.69140327  1
  Cu  Cu3  1  0.97819876  0.66960102  0.30859673  1
  Si  Si0  1  0.21624799  0.21624799  0.00000000  1
  Si  Si1  1  0.78375201  0.78375201  -0.00000000  1
  Si  Si2  1  0.68549281  0.50000000  0.18549281  1
  Si  Si3  1  0.31450719  0.50000000  0.81450719  1
loop_
_geom_bond_atom_site_label_1
_geom_bond_atom_site_label_2
_geom_bond_distance
_geom_bond_site_symmetry_2
Cu0 Si2 2.417572 1_555
Cu0 Si1 2.462507 1_556
Cu0 Si1 2.462511 1_545
Cu0 Cu2 2.476104 1_655
Cu0 Si0 2.518883 1_555
Cu0 Tm0 2.900184 1_555
Cu0 Tm0 2.900186 1_544
Cu0 Tm1 2.972495 1_555
Cu1 Si3 2.417572 1_555
Cu1 Si0 2.462507 1_555
Cu1 Si0 2.462511 1_566
Cu1 Cu3 2.476104 1_455
Cu1 Si1 2.518883 1_556
Cu1 Tm1 2.900184 1_555
Cu1 Tm1 2.900186 1_566
Cu1 Tm0 2.972495 1_555
Cu2 Si3 2.417574 1_555
Cu2 Si1 2.462504 1_456
Cu2 Si1 2.462507 1_445
Cu2 Si0 2.518888 1_556
Cu2 Tm0 2.900188 1_556
Cu2 Tm0 2.900191 1_545
Cu2 Tm1 2.972493 1_455
Cu3 Si2 2.417574 1_555
Cu3 Si0 2.462504 1_655
Cu3 Si0 2.462507 1_666
Cu3 Si1 2.518888 1_555
Cu3 Tm1 2.900188 1_554
Cu3 Tm1 2.900191 1_565
Cu3 Tm0 2.972493 1_655
Si0 Tm0 2.905322 1_544
Si0 Tm0 2.905322 1_555
Si0 Tm2 2.910494 1_555
Si1 Tm1 2.905322 1_554
Si1 Tm1 2.905322 1_565
Si1 Tm2 2.910494 1_665
Si2 Si3 2.399642 1_554
Si2 Tm2 2.876715 1_655
Si2 Tm2 2.876715 1_666
Si2 Tm1 2.935934 1_554
Si2 Tm1 2.935934 1_565
Si2 Tm0 2.935934 1_544
Si2 Tm0 2.935934 1_555
Si3 Tm2 2.876715 1_555
Si3 Tm2 2.876715 1_566
Si3 Tm0 2.935934 1_556
Si3 Tm0 2.935934 1_545
Si3 Tm1 2.935934 1_555
Si3 Tm1 2.935934 1_566
