# generated using pymatgen
data_Yb(Al5Re)2
_symmetry_space_group_name_H-M   'P 1'
_cell_length_a   6.98731669
_cell_length_b   6.98731669
_cell_length_c   27.01470500
_cell_angle_alpha   90.00000000
_cell_angle_beta   90.00000000
_cell_angle_gamma   95.61346998
_symmetry_Int_Tables_number   1
_chemical_formula_structural   Yb(Al5Re)2
_chemical_formula_sum   'Yb6 Al60 Re12'
_cell_volume   1312.60297997
_cell_formula_units_Z   6
loop_
 _symmetry_equiv_pos_site_id
 _symmetry_equiv_pos_as_xyz
  1  'x, y, z'
loop_
 _atom_site_type_symbol
 _atom_site_label
 _atom_site_symmetry_multiplicity
 _atom_site_fract_x
 _atom_site_fract_y
 _atom_site_fract_z
 _atom_site_occupancy
  Yb  Yb0  1  0.87430600  0.12569400  0.58435200  1
  Yb  Yb1  1  0.12569400  0.87430600  0.41564800  1
  Yb  Yb2  1  0.12569400  0.87430600  0.08435200  1
  Yb  Yb3  1  0.87430600  0.12569400  0.91564800  1
  Yb  Yb4  1  0.62078000  0.37922000  0.75000000  1
  Yb  Yb5  1  0.37922000  0.62078000  0.25000000  1
  Al  Al0  1  0.59446800  0.40553200  0.63347100  1
  Al  Al1  1  0.40553200  0.59446800  0.36652900  1
  Al  Al2  1  0.40553200  0.59446800  0.13347100  1
  Al  Al3  1  0.59446800  0.40553200  0.86652900  1
  Al  Al4  1  0.17886800  0.40155600  0.75000000  1
  Al  Al5  1  0.82113200  0.59844400  0.25000000  1
  Al  Al6  1  0.59844400  0.82113200  0.75000000  1
  Al  Al7  1  0.40155600  0.17886800  0.25000000  1
  Al  Al8  1  0.87757100  0.12242900  0.14494600  1
  Al  Al9  1  0.12242900  0.87757100  0.85505400  1
  Al  Al10  1  0.12242900  0.87757100  0.64494600  1
  Al  Al11  1  0.87757100  0.12242900  0.35505400  1
  Al  Al12  1  0.37016500  0.62983500  0.67630400  1
  Al  Al13  1  0.62983500  0.37016500  0.32369600  1
  Al  Al14  1  0.62983500  0.37016500  0.17630400  1
  Al  Al15  1  0.37016500  0.62983500  0.82369600  1
  Al  Al16  1  0.22717300  0.47123300  0.58073100  1
  Al  Al17  1  0.77282700  0.52876700  0.41926900  1
  Al  Al18  1  0.77282700  0.52876700  0.08073100  1
  Al  Al19  1  0.52876700  0.77282700  0.91926900  1
  Al  Al20  1  0.22717300  0.47123300  0.91926900  1
  Al  Al21  1  0.47123300  0.22717300  0.08073100  1
  Al  Al22  1  0.47123300  0.22717300  0.41926900  1
  Al  Al23  1  0.52876700  0.77282700  0.58073100  1
  Al  Al24  1  0.96304900  0.73886200  0.75000000  1
  Al  Al25  1  0.03695100  0.26113800  0.25000000  1
  Al  Al26  1  0.26113800  0.03695100  0.75000000  1
  Al  Al27  1  0.73886200  0.96304900  0.25000000  1
  Al  Al28  1  0.62362800  0.37637200  0.52252000  1
  Al  Al29  1  0.37637200  0.62362800  0.47748000  1
  Al  Al30  1  0.37637200  0.62362800  0.02252000  1
  Al  Al31  1  0.62362800  0.37637200  0.97748000  1
  Al  Al32  1  0.96975900  0.47489900  0.67144900  1
  Al  Al33  1  0.03024100  0.52510100  0.32855100  1
  Al  Al34  1  0.03024100  0.52510100  0.17144900  1
  Al  Al35  1  0.52510100  0.03024100  0.82855100  1
  Al  Al36  1  0.96975900  0.47489900  0.82855100  1
  Al  Al37  1  0.47489900  0.96975900  0.17144900  1
  Al  Al38  1  0.47489900  0.96975900  0.32855100  1
  Al  Al39  1  0.52510100  0.03024100  0.67144900  1
  Al  Al40  1  0.91022800  0.08977200  0.69989400  1
  Al  Al41  1  0.08977200  0.91022800  0.30010600  1
  Al  Al42  1  0.08977200  0.91022800  0.19989400  1
  Al  Al43  1  0.91022800  0.08977200  0.80010600  1
  Al  Al44  1  0.87605900  0.61900700  0.58308200  1
  Al  Al45  1  0.12394100  0.38099300  0.41691800  1
  Al  Al46  1  0.12394100  0.38099300  0.08308200  1
  Al  Al47  1  0.38099300  0.12394100  0.91691800  1
  Al  Al48  1  0.87605900  0.61900700  0.91691800  1
  Al  Al49  1  0.61900700  0.87605900  0.08308200  1
  Al  Al50  1  0.61900700  0.87605900  0.41691800  1
  Al  Al51  1  0.38099300  0.12394100  0.58308200  1
  Al  Al52  1  0.20675000  0.20675000  0.50000000  1
  Al  Al53  1  0.79325000  0.79325000  0.50000000  1
  Al  Al54  1  0.79325000  0.79325000  0.00000000  1
  Al  Al55  1  0.20675000  0.20675000  0.00000000  1
  Al  Al56  1  0.83300000  0.16700000  0.03369500  1
  Al  Al57  1  0.16700000  0.83300000  0.96630500  1
  Al  Al58  1  0.16700000  0.83300000  0.53369500  1
  Al  Al59  1  0.83300000  0.16700000  0.46630500  1
  Re  Re0  1  0.25008200  0.25454100  0.66349000  1
  Re  Re1  1  0.74991800  0.74545900  0.33651000  1
  Re  Re2  1  0.74991800  0.74545900  0.16349000  1
  Re  Re3  1  0.74545900  0.74991800  0.83651000  1
  Re  Re4  1  0.25008200  0.25454100  0.83651000  1
  Re  Re5  1  0.25454100  0.25008200  0.16349000  1
  Re  Re6  1  0.25454100  0.25008200  0.33651000  1
  Re  Re7  1  0.74545900  0.74991800  0.66349000  1
  Re  Re8  1  0.00000000  0.50000000  0.50000000  1
  Re  Re9  1  0.00000000  0.50000000  0.00000000  1
  Re  Re10  1  0.50000000  0.00000000  0.00000000  1
  Re  Re11  1  0.50000000  0.00000000  0.50000000  1
loop_
_geom_bond_atom_site_label_1
_geom_bond_atom_site_label_2
_geom_bond_distance
_geom_bond_site_symmetry_2
Al0 Al12 2.594645 1_555
Al0 Re7 2.657913 1_555
Al0 Re0 2.657913 1_555
Al0 Al51 2.715707 1_555
Al0 Al44 2.715707 1_555
Al0 Al39 2.813399 1_555
Al0 Al32 2.813399 1_555
Al0 Al16 3.009586 1_555
Al0 Al23 3.009586 1_555
Al0 Al28 3.012475 1_555
Al0 Yb4 3.159762 1_555
Al0 Yb0 3.186729 1_555
Al1 Al13 2.594645 1_555
Al1 Re6 2.657913 1_555
Al1 Re1 2.657913 1_555
Al1 Al50 2.715707 1_555
Al1 Al45 2.715707 1_555
Al1 Al33 2.813399 1_555
Al1 Al38 2.813399 1_555
Al1 Al22 3.009586 1_555
Al1 Al17 3.009586 1_555
Al1 Al29 3.012475 1_555
Al1 Yb5 3.159762 1_555
Al1 Yb1 3.186729 1_555
Al2 Re5 2.657913 1_555
Al2 Re2 2.657913 1_555
Al2 Al49 2.715707 1_555
Al2 Al46 2.715707 1_555
Al2 Al34 2.813399 1_555
Al2 Al37 2.813399 1_555
Al2 Al21 3.009586 1_555
Al2 Al30 3.012475 1_555
Al2 Yb5 3.159762 1_555
Al2 Yb2 3.186729 1_555
Al3 Re3 2.657913 1_555
Al3 Re4 2.657913 1_555
Al3 Al47 2.715707 1_555
Al3 Al48 2.715707 1_555
Al3 Al35 2.813399 1_555
Al3 Al36 2.813399 1_555
Al3 Al31 3.012475 1_555
Al3 Yb4 3.159762 1_555
Al3 Yb3 3.186729 1_555
Al4 Re0 2.620036 1_555
Al4 Re4 2.620036 1_555
Al4 Al43 3.049859 1_455
Al4 Al40 3.049859 1_455
Al4 Yb4 3.106930 1_555
Al5 Re2 2.620036 1_555
Al5 Re1 2.620036 1_555
Al5 Yb5 3.106930 1_555
Al6 Re3 2.620036 1_555
Al6 Re7 2.620036 1_555
Al6 Yb4 3.106930 1_555
Al7 Re6 2.620036 1_555
Al7 Re5 2.620036 1_555
Al7 Yb5 3.106930 1_555
Al8 Re2 2.743158 1_545
Al8 Re5 2.743158 1_655
Al8 Yb2 3.046161 1_645
Al9 Re3 2.743158 1_455
Al9 Re4 2.743158 1_565
Al9 Yb3 3.046161 1_465
Al10 Al40 2.651497 1_465
Al10 Al12 2.701224 1_555
Al10 Re7 2.743158 1_455
Al10 Re0 2.743158 1_565
Al10 Al44 2.900360 1_455
Al10 Al51 2.900360 1_565
Al10 Al39 2.996619 1_565
Al10 Al32 2.996619 1_455
Al10 Al58 3.040635 1_555
Al10 Yb0 3.046161 1_465
Al11 Al41 2.651497 1_645
Al11 Al13 2.701224 1_555
Al11 Re1 2.743158 1_545
Al11 Re6 2.743158 1_655
Al11 Al45 2.900360 1_655
Al11 Al50 2.900360 1_545
Al11 Al38 2.996619 1_545
Al11 Al33 2.996619 1_655
Al11 Al59 3.040635 1_555
Al11 Yb1 3.046161 1_645
Al12 Re7 2.696266 1_555
Al12 Re0 2.696266 1_555
Al12 Al6 2.806659 1_555
Al12 Al4 2.806659 1_555
Al12 Al39 2.902436 1_565
Al12 Al32 2.902436 1_455
Al12 Al23 2.945479 1_555
Al12 Al16 2.945479 1_555
Al12 Yb4 3.270531 1_555
Al13 Re1 2.696266 1_555
Al13 Re6 2.696266 1_555
Al13 Al5 2.806659 1_555
Al13 Al7 2.806659 1_555
Al13 Al38 2.902436 1_545
Al13 Al33 2.902436 1_655
Al13 Al22 2.945479 1_555
Al13 Al17 2.945479 1_555
Al13 Yb5 3.270531 1_555
Al14 Al2 2.594645 1_555
Al14 Re2 2.696266 1_555
Al14 Re5 2.696266 1_555
Al14 Al8 2.701224 1_555
Al14 Al5 2.806659 1_555
Al14 Al7 2.806659 1_555
Al14 Al34 2.902436 1_655
Al14 Al37 2.902436 1_545
Al14 Al21 2.945479 1_555
Al14 Al18 2.945479 1_555
Al14 Yb5 3.270531 1_555
Al15 Al3 2.594645 1_555
Al15 Re3 2.696266 1_555
Al15 Re4 2.696266 1_555
Al15 Al9 2.701224 1_555
Al15 Al6 2.806659 1_555
Al15 Al4 2.806659 1_555
Al15 Al35 2.902436 1_565
Al15 Al36 2.902436 1_455
Al15 Al19 2.945479 1_555
Al15 Al20 2.945479 1_555
Al15 Yb4 3.270531 1_555
Al16 Re0 2.713655 1_555
Al16 Re8 2.716407 1_555
Al16 Al58 2.896370 1_555
Al16 Al29 3.127886 1_555
Al16 Yb0 3.279240 1_455
Al17 Re1 2.713655 1_555
Al17 Re8 2.716407 1_655
Al17 Al59 2.896370 1_555
Al17 Al28 3.127886 1_555
Al17 Yb1 3.279240 1_655
Al18 Re2 2.713655 1_555
Al18 Re9 2.716407 1_655
Al18 Al56 2.896370 1_555
Al18 Al2 3.009586 1_555
Al18 Al31 3.127886 1_554
Al18 Yb2 3.279240 1_655
Al19 Re3 2.713655 1_555
Al19 Re10 2.716407 1_566
Al19 Al57 2.896370 1_555
Al19 Al3 3.009586 1_555
Al19 Al30 3.127886 1_556
Al19 Yb3 3.279240 1_565
Al20 Re4 2.713655 1_555
Al20 Re9 2.716407 1_556
Al20 Al57 2.896370 1_555
Al20 Al3 3.009586 1_555
Al20 Al30 3.127886 1_556
Al20 Yb3 3.279240 1_455
Al21 Re5 2.713655 1_555
Al21 Re10 2.716407 1_555
Al21 Al56 2.896370 1_555
Al21 Al31 3.127886 1_554
Al21 Yb2 3.279240 1_545
Al22 Re6 2.713655 1_555
Al22 Re11 2.716407 1_555
Al22 Al59 2.896370 1_555
Al22 Al28 3.127886 1_555
Al22 Yb1 3.279240 1_545
Al23 Re7 2.713655 1_555
Al23 Re11 2.716407 1_565
Al23 Al58 2.896370 1_555
Al23 Al29 3.127886 1_555
Al23 Yb0 3.279240 1_565
Al24 Al6 2.665947 1_555
Al24 Re3 2.793248 1_555
Al24 Re7 2.793248 1_555
Al24 Al26 2.797813 1_665
Al24 Al32 2.814946 1_555
Al24 Al36 2.814946 1_555
Al24 Al40 2.856115 1_565
Al24 Al43 2.856115 1_565
Al24 Al4 2.919618 1_655
Al24 Yb4 3.295237 1_555
Al25 Al7 2.665947 1_555
Al25 Re6 2.793248 1_555
Al25 Re5 2.793248 1_555
Al25 Al27 2.797813 1_445
Al25 Al34 2.814946 1_555
Al25 Al33 2.814946 1_555
Al25 Al41 2.856115 1_545
Al25 Al42 2.856115 1_545
Al25 Al5 2.919618 1_455
Al25 Yb5 3.295237 1_555
Al26 Al4 2.665947 1_555
Al26 Re0 2.793248 1_555
Al26 Re4 2.793248 1_555
Al26 Al35 2.814946 1_555
Al26 Al39 2.814946 1_555
Al26 Al43 2.856115 1_455
Al26 Al40 2.856115 1_455
Al26 Al6 2.919618 1_545
Al26 Yb4 3.295237 1_555
Al27 Al5 2.665947 1_555
Al27 Re1 2.793248 1_555
Al27 Re2 2.793248 1_555
Al27 Al38 2.814946 1_555
Al27 Al37 2.814946 1_555
Al27 Al41 2.856115 1_655
Al27 Al42 2.856115 1_655
Al27 Al7 2.919618 1_565
Al27 Yb5 3.295237 1_555
Al28 Al59 2.646767 1_555
Al28 Re11 2.754614 1_555
Al28 Re8 2.754614 1_655
Al28 Al29 2.834427 1_555
Al28 Al51 2.842009 1_555
Al28 Al44 2.842009 1_555
Al28 Yb0 3.086474 1_555
Al28 Al52 3.095832 1_555
Al28 Al53 3.095832 1_555
Al29 Al58 2.646767 1_555
Al29 Re8 2.754614 1_555
Al29 Re11 2.754614 1_565
Al29 Al45 2.842009 1_555
Al29 Al50 2.842009 1_555
Al29 Yb1 3.086474 1_555
Al29 Al52 3.095832 1_555
Al29 Al53 3.095832 1_555
Al30 Al57 2.646767 1_554
Al30 Re9 2.754614 1_555
Al30 Re10 2.754614 1_565
Al30 Al31 2.834427 1_554
Al30 Al46 2.842009 1_555
Al30 Al49 2.842009 1_555
Al30 Yb2 3.086474 1_555
Al30 Al54 3.095832 1_555
Al30 Al55 3.095832 1_555
Al31 Al56 2.646767 1_556
Al31 Re10 2.754614 1_556
Al31 Re9 2.754614 1_656
Al31 Al47 2.842009 1_555
Al31 Al48 2.842009 1_555
Al31 Yb3 3.086474 1_555
Al31 Al55 3.095832 1_556
Al31 Al54 3.095832 1_556
Al32 Re7 2.604694 1_555
Al32 Re0 2.616002 1_655
Al32 Al4 2.654614 1_655
Al32 Al40 2.790347 1_555
Al32 Yb4 3.252226 1_555
Al32 Yb0 3.408259 1_555
Al33 Re6 2.604694 1_555
Al33 Re1 2.616002 1_455
Al33 Al5 2.654614 1_455
Al33 Al41 2.790347 1_555
Al33 Yb5 3.252226 1_555
Al33 Yb1 3.408259 1_555
Al34 Re5 2.604694 1_555
Al34 Re2 2.616002 1_455
Al34 Al5 2.654614 1_455
Al34 Al42 2.790347 1_555
Al34 Al8 2.996619 1_455
Al34 Yb5 3.252226 1_555
Al34 Yb2 3.408259 1_555
Al35 Re4 2.604694 1_555
Al35 Re3 2.616002 1_545
Al35 Al6 2.654614 1_545
Al35 Al43 2.790347 1_555
Al35 Al9 2.996619 1_545
Al35 Yb4 3.252226 1_555
Al35 Yb3 3.408259 1_555
Al36 Re3 2.604694 1_555
Al36 Re4 2.616002 1_655
Al36 Al4 2.654614 1_655
Al36 Al43 2.790347 1_555
Al36 Al9 2.996619 1_655
Al36 Yb4 3.252226 1_555
Al36 Yb3 3.408259 1_555
Al37 Re2 2.604694 1_555
Al37 Re5 2.616002 1_565
Al37 Al7 2.654614 1_565
Al37 Al42 2.790347 1_555
Al37 Al8 2.996619 1_565
Al37 Yb5 3.252226 1_555
Al37 Yb2 3.408259 1_555
Al38 Re1 2.604694 1_555
Al38 Re6 2.616002 1_565
Al38 Al7 2.654614 1_565
Al38 Al41 2.790347 1_555
Al38 Yb5 3.252226 1_555
Al38 Yb1 3.408259 1_555
Al39 Re0 2.604694 1_555
Al39 Re7 2.616002 1_545
Al39 Al6 2.654614 1_545
Al39 Al40 2.790347 1_555
Al39 Yb4 3.252226 1_555
Al39 Yb0 3.408259 1_555
Al40 Al43 2.707198 1_555
Al40 Re0 2.719712 1_655
Al40 Re7 2.719712 1_545
Al40 Al6 3.049859 1_545
Al40 Yb0 3.143413 1_555
Al40 Yb4 3.288339 1_555
Al41 Al42 2.707198 1_555
Al41 Re6 2.719712 1_565
Al41 Re1 2.719712 1_455
Al41 Al7 3.049859 1_565
Al41 Al5 3.049859 1_455
Al41 Yb1 3.143413 1_555
Al41 Yb5 3.288339 1_555
Al42 Al8 2.651497 1_465
Al42 Re5 2.719712 1_565
Al42 Re2 2.719712 1_455
Al42 Al7 3.049859 1_565
Al42 Al5 3.049859 1_455
Al42 Yb2 3.143413 1_555
Al42 Yb5 3.288339 1_555
Al43 Al9 2.651497 1_645
Al43 Re4 2.719712 1_655
Al43 Re3 2.719712 1_545
Al43 Al6 3.049859 1_545
Al43 Yb3 3.143413 1_555
Al43 Yb4 3.288339 1_555
Al44 Re7 2.559529 1_555
Al44 Re8 2.572900 1_655
Al44 Al58 2.748412 1_655
Al44 Yb0 3.445928 1_555
Al44 Yb0 3.541768 1_565
Al45 Re6 2.559529 1_555
Al45 Re8 2.572900 1_555
Al45 Al59 2.748412 1_455
Al45 Yb1 3.445928 1_555
Al45 Yb1 3.541768 1_545
Al46 Re5 2.559529 1_555
Al46 Re9 2.572900 1_555
Al46 Al56 2.748412 1_455
Al46 Al8 2.900360 1_455
Al46 Yb2 3.445928 1_555
Al46 Yb2 3.541768 1_545
Al47 Re4 2.559529 1_555
Al47 Re10 2.572900 1_556
Al47 Al57 2.748412 1_545
Al47 Al9 2.900360 1_545
Al47 Yb3 3.445928 1_555
Al47 Yb3 3.541768 1_455
Al48 Re3 2.559529 1_555
Al48 Re9 2.572900 1_656
Al48 Al57 2.748412 1_655
Al48 Al9 2.900360 1_655
Al48 Yb3 3.445928 1_555
Al48 Yb3 3.541768 1_565
Al49 Re2 2.559529 1_555
Al49 Re10 2.572900 1_565
Al49 Al56 2.748412 1_565
Al49 Al8 2.900360 1_565
Al49 Yb2 3.445928 1_555
Al49 Yb2 3.541768 1_655
Al50 Re1 2.559529 1_555
Al50 Re11 2.572900 1_565
Al50 Al59 2.748412 1_565
Al50 Yb1 3.445928 1_555
Al50 Yb1 3.541768 1_655
Al51 Re0 2.559529 1_555
Al51 Re11 2.572900 1_555
Al51 Al58 2.748412 1_545
Al51 Yb0 3.445928 1_555
Al51 Yb0 3.541768 1_455
Al52 Re11 2.620032 1_555
Al52 Re8 2.620032 1_555
Al52 Al59 2.753870 1_455
Al52 Al58 2.753870 1_545
Al52 Yb1 3.263724 1_545
Al52 Yb0 3.263724 1_455
Al53 Re11 2.620032 1_565
Al53 Re8 2.620032 1_655
Al53 Al59 2.753870 1_565
Al53 Al58 2.753870 1_655
Al53 Yb1 3.263724 1_655
Al53 Yb0 3.263724 1_565
Al54 Re9 2.620032 1_655
Al54 Re10 2.620032 1_565
Al54 Al56 2.753870 1_565
Al54 Al57 2.753870 1_654
Al54 Yb3 3.263724 1_564
Al54 Yb2 3.263724 1_655
Al55 Re9 2.620032 1_555
Al55 Re10 2.620032 1_555
Al55 Al57 2.753870 1_544
Al55 Al56 2.753870 1_455
Al55 Yb3 3.263724 1_454
Al55 Yb2 3.263724 1_545
Al56 Re9 2.659495 1_655
Al56 Re10 2.659495 1_555
Al56 Al8 3.040635 1_555
Al56 Yb3 3.217553 1_554
Al56 Yb2 3.325094 1_645
Al57 Re10 2.659495 1_566
Al57 Re9 2.659495 1_556
Al57 Al9 3.040635 1_555
Al57 Yb2 3.217553 1_556
Al57 Yb3 3.325094 1_465
Al58 Re8 2.659495 1_555
Al58 Re11 2.659495 1_565
Al58 Yb1 3.217553 1_555
Al58 Yb0 3.325094 1_465
Al59 Re11 2.659495 1_555
Al59 Re8 2.659495 1_655
Al59 Yb0 3.217553 1_555
Al59 Yb1 3.325094 1_645
Re0 Yb0 3.436971 1_455
Re0 Yb4 3.533881 1_555
Re1 Yb1 3.436971 1_655
Re1 Yb5 3.533881 1_555
Re2 Yb2 3.436971 1_655
Re2 Yb5 3.533881 1_555
Re3 Yb3 3.436971 1_565
Re3 Yb4 3.533881 1_555
Re4 Yb3 3.436971 1_455
Re4 Yb4 3.533881 1_555
Re5 Yb2 3.436971 1_545
Re5 Yb5 3.533881 1_555
Re6 Yb1 3.436971 1_545
Re6 Yb5 3.533881 1_555
Re7 Yb0 3.436971 1_565
Re7 Yb4 3.533881 1_555
Re8 Yb1 3.514959 1_555
Re8 Yb0 3.514959 1_455
Re9 Yb3 3.514959 1_454
Re9 Yb2 3.514959 1_555
Re10 Yb3 3.514959 1_554
Re10 Yb2 3.514959 1_545
Re11 Yb0 3.514959 1_555
Re11 Yb1 3.514959 1_545
