# generated using pymatgen
data_Eu3Nb
_symmetry_space_group_name_H-M   'P 1'
_cell_length_a   6.96339528
_cell_length_b   6.96339528
_cell_length_c   5.52062400
_cell_angle_alpha   90.00000000
_cell_angle_beta   90.00000000
_cell_angle_gamma   119.99999315
_symmetry_Int_Tables_number   1
_chemical_formula_structural   Eu3Nb
_chemical_formula_sum   'Eu6 Nb2'
_cell_volume   231.82535218
_cell_formula_units_Z   2
loop_
 _symmetry_equiv_pos_site_id
 _symmetry_equiv_pos_as_xyz
  1  'x, y, z'
loop_
 _atom_site_type_symbol
 _atom_site_label
 _atom_site_symmetry_multiplicity
 _atom_site_fract_x
 _atom_site_fract_y
 _atom_site_fract_z
 _atom_site_occupancy
  Eu  Eu0  1  0.82516800  0.17483200  0.75000000  1
  Eu  Eu1  1  0.34966400  0.17483200  0.75000000  1
  Eu  Eu2  1  0.82516800  0.65033600  0.75000000  1
  Eu  Eu3  1  0.65033600  0.82516800  0.25000000  1
  Eu  Eu4  1  0.17483200  0.82516800  0.25000000  1
  Eu  Eu5  1  0.17483200  0.34966400  0.25000000  1
  Nb  Nb0  1  0.66666700  0.33333300  0.25000000  1
  Nb  Nb1  1  0.33333300  0.66666700  0.75000000  1
loop_
_geom_bond_atom_site_label_1
_geom_bond_atom_site_label_2
_geom_bond_distance
_geom_bond_site_symmetry_2
Eu0 Eu1 3.311122 1_555
Eu0 Eu2 3.311122 1_555
Eu0 Nb0 3.357651 1_555
Eu0 Nb0 3.357651 1_556
Eu0 Eu5 3.473570 1_655
Eu0 Eu3 3.473570 1_545
Eu0 Eu3 3.473570 1_546
Eu0 Eu5 3.473570 1_656
Eu0 Nb1 3.483090 1_545
Eu0 Nb1 3.483090 1_655
Eu0 Eu1 3.652273 1_655
Eu0 Eu2 3.652273 1_545
Eu1 Eu2 3.311123 1_555
Eu1 Nb0 3.357654 1_555
Eu1 Nb0 3.357654 1_556
Eu1 Eu5 3.473570 1_555
Eu1 Eu5 3.473570 1_556
Eu1 Eu4 3.473570 1_546
Eu1 Eu4 3.473570 1_545
Eu1 Nb1 3.483087 1_545
Eu1 Nb1 3.483094 1_555
Eu1 Eu2 3.652273 1_445
Eu2 Nb0 3.357654 1_555
Eu2 Nb0 3.357654 1_556
Eu2 Eu3 3.473570 1_555
Eu2 Eu3 3.473570 1_556
Eu2 Eu4 3.473570 1_656
Eu2 Eu4 3.473570 1_655
Eu2 Nb1 3.483087 1_655
Eu2 Nb1 3.483094 1_555
Eu3 Eu4 3.311122 1_555
Eu3 Eu5 3.311123 1_555
Eu3 Nb1 3.357654 1_555
Eu3 Nb1 3.357654 1_554
Eu3 Nb0 3.483087 1_565
Eu3 Nb0 3.483094 1_555
Eu3 Eu4 3.652273 1_655
Eu3 Eu5 3.652273 1_665
Eu4 Eu5 3.311122 1_555
Eu4 Nb1 3.357651 1_555
Eu4 Nb1 3.357651 1_554
Eu4 Nb0 3.483090 1_455
Eu4 Nb0 3.483090 1_565
Eu4 Eu5 3.652273 1_565
Eu5 Nb1 3.357654 1_555
Eu5 Nb1 3.357654 1_554
Eu5 Nb0 3.483087 1_455
Eu5 Nb0 3.483094 1_555
