# generated using pymatgen
data_YbAsO4
_symmetry_space_group_name_H-M   'P 1'
_cell_length_a   6.03281977
_cell_length_b   6.03281977
_cell_length_c   6.03281977
_cell_angle_alpha   106.46926127
_cell_angle_beta   106.46926127
_cell_angle_gamma   115.65798388
_symmetry_Int_Tables_number   1
_chemical_formula_structural   YbAsO4
_chemical_formula_sum   'Yb2 As2 O8'
_cell_volume   167.52665566
_cell_formula_units_Z   2
loop_
 _symmetry_equiv_pos_site_id
 _symmetry_equiv_pos_as_xyz
  1  'x, y, z'
loop_
 _atom_site_type_symbol
 _atom_site_label
 _atom_site_symmetry_multiplicity
 _atom_site_fract_x
 _atom_site_fract_y
 _atom_site_fract_z
 _atom_site_occupancy
  Yb  Yb0  1  0.50000000  0.50000000  0.00000000  1
  Yb  Yb1  1  0.75000000  0.25000000  0.50000000  1
  As  As0  1  0.25000000  0.75000000  0.50000000  1
  As  As1  1  0.00000000  0.00000000  0.00000000  1
  O  O0  1  0.83122900  0.01566300  0.18443500  1
  O  O1  1  0.89679400  0.58122900  0.31556500  1
  O  O2  1  0.26566300  0.58122900  0.68443500  1
  O  O3  1  0.83122900  0.64679400  0.81556500  1
  O  O4  1  0.35320600  0.16877100  0.18443500  1
  O  O5  1  0.41877100  0.73433700  0.31556500  1
  O  O6  1  0.41877100  0.10320600  0.68443500  1
  O  O7  1  0.98433700  0.16877100  0.81556500  1
loop_
_geom_bond_atom_site_label_1
_geom_bond_atom_site_label_2
_geom_bond_distance
_geom_bond_site_symmetry_2
As0 O2 1.717455 1_555
As0 O5 1.717455 1_555
As0 O6 1.717456 1_565
As0 O1 1.717456 1_455
As1 O0 1.717455 1_455
As1 O7 1.717455 1_454
As1 O3 1.717456 1_444
As1 O4 1.717456 1_555
O0 Yb1 2.337922 1_555
O0 Yb0 2.510401 1_545
O1 Yb0 2.337919 1_555
O1 Yb1 2.510406 1_555
O2 Yb0 2.337922 1_556
O2 Yb1 2.510401 1_455
O3 Yb1 2.337919 1_555
O3 Yb0 2.510406 1_556
O4 Yb1 2.337919 1_555
O4 Yb0 2.510406 1_555
O5 Yb0 2.337922 1_555
O5 Yb1 2.510401 1_565
O6 Yb0 2.337919 1_556
O6 Yb1 2.510406 1_555
O7 Yb1 2.337922 1_555
O7 Yb0 2.510401 1_656
