# generated using pymatgen
data_Pr8Sb14Pt17
_symmetry_space_group_name_H-M   'P 1'
_cell_length_a   14.12595900
_cell_length_b   14.12595900
_cell_length_c   14.12595900
_cell_angle_alpha   126.61706819
_cell_angle_beta   126.61706819
_cell_angle_gamma   78.87629098
_symmetry_Int_Tables_number   1
_chemical_formula_structural   Pr8Sb14Pt17
_chemical_formula_sum   'Pr16 Sb28 Pt34'
_cell_volume   1756.94521679
_cell_formula_units_Z   2
loop_
 _symmetry_equiv_pos_site_id
 _symmetry_equiv_pos_as_xyz
  1  'x, y, z'
loop_
 _atom_site_type_symbol
 _atom_site_label
 _atom_site_symmetry_multiplicity
 _atom_site_fract_x
 _atom_site_fract_y
 _atom_site_fract_z
 _atom_site_occupancy
  Pr  Pr0  1  0.93013500  0.43013500  0.99861900  1
  Pr  Pr1  1  0.43151600  0.93151600  0.00138100  1
  Pr  Pr2  1  0.43013500  0.43151600  0.50000000  1
  Pr  Pr3  1  0.93151600  0.93013500  0.50000000  1
  Pr  Pr4  1  0.17748600  0.17748600  0.00000000  1
  Pr  Pr5  1  0.67748600  0.67748600  0.00000000  1
  Pr  Pr6  1  0.17132000  0.67132000  0.50000000  1
  Pr  Pr7  1  0.67132000  0.17132000  0.50000000  1
  Pr  Pr8  1  0.67194000  0.43921700  0.26463400  1
  Pr  Pr9  1  0.17458400  0.40730600  0.73536600  1
  Pr  Pr10  1  0.43921700  0.17458400  0.76727800  1
  Pr  Pr11  1  0.67458400  0.93921700  0.76727800  1
  Pr  Pr12  1  0.40730600  0.67194000  0.23272200  1
  Pr  Pr13  1  0.17194000  0.90730600  0.23272200  1
  Pr  Pr14  1  0.90730600  0.67458400  0.73536600  1
  Pr  Pr15  1  0.93921700  0.17194000  0.26463400  1
  Sb  Sb0  1  0.24445700  0.49150700  0.26183700  1
  Sb  Sb1  1  0.22967100  0.98262000  0.73816300  1
  Sb  Sb2  1  0.49150700  0.22967100  0.24705100  1
  Sb  Sb3  1  0.72967100  0.99150700  0.24705100  1
  Sb  Sb4  1  0.98262000  0.24445700  0.75294900  1
  Sb  Sb5  1  0.74445700  0.48262000  0.75294900  1
  Sb  Sb6  1  0.48262000  0.72967100  0.73816300  1
  Sb  Sb7  1  0.99150700  0.74445700  0.26183700  1
  Sb  Sb8  1  0.17926800  0.20144400  0.27512700  1
  Sb  Sb9  1  0.92631700  0.90414100  0.72487300  1
  Sb  Sb10  1  0.20144400  0.92631700  0.02217600  1
  Sb  Sb11  1  0.42631700  0.70144400  0.02217600  1
  Sb  Sb12  1  0.90414100  0.17926800  0.97782400  1
  Sb  Sb13  1  0.67926800  0.40414100  0.97782400  1
  Sb  Sb14  1  0.40414100  0.42631700  0.72487300  1
  Sb  Sb15  1  0.70144400  0.67926800  0.27512700  1
  Sb  Sb16  1  0.37654800  0.37654800  0.00000000  1
  Sb  Sb17  1  0.87654800  0.87654800  0.00000000  1
  Sb  Sb18  1  0.13476000  0.63476000  0.69399200  1
  Sb  Sb19  1  0.94076800  0.44076800  0.30600800  1
  Sb  Sb20  1  0.63476000  0.94076800  0.50000000  1
  Sb  Sb21  1  0.44076800  0.13476000  0.50000000  1
  Sb  Sb22  1  0.40120600  0.90120600  0.50000000  1
  Sb  Sb23  1  0.90120600  0.40120600  0.50000000  1
  Sb  Sb24  1  0.07950300  0.57950300  0.94655400  1
  Sb  Sb25  1  0.63294900  0.13294900  0.05344600  1
  Sb  Sb26  1  0.57950300  0.63294900  0.50000000  1
  Sb  Sb27  1  0.13294900  0.07950300  0.50000000  1
  Pt  Pt0  1  0.37182700  0.13899200  0.27267200  1
  Pt  Pt1  1  0.86632000  0.09915500  0.72732800  1
  Pt  Pt2  1  0.13899200  0.86632000  0.76716400  1
  Pt  Pt3  1  0.36632000  0.63899200  0.76716400  1
  Pt  Pt4  1  0.09915500  0.37182700  0.23283600  1
  Pt  Pt5  1  0.87182700  0.59915500  0.23283600  1
  Pt  Pt6  1  0.59915500  0.36632000  0.72732800  1
  Pt  Pt7  1  0.63899200  0.87182700  0.27267200  1
  Pt  Pt8  1  0.88618600  0.38618600  0.67010700  1
  Pt  Pt9  1  0.71607900  0.21607900  0.32989300  1
  Pt  Pt10  1  0.38618600  0.71607900  0.50000000  1
  Pt  Pt11  1  0.21607900  0.88618600  0.50000000  1
  Pt  Pt12  1  0.66179000  0.16179000  0.74148000  1
  Pt  Pt13  1  0.42031000  0.92031000  0.25852000  1
  Pt  Pt14  1  0.16179000  0.42031000  0.50000000  1
  Pt  Pt15  1  0.92031000  0.66179000  0.50000000  1
  Pt  Pt16  1  0.21036200  0.71036200  0.96890200  1
  Pt  Pt17  1  0.74145900  0.24145900  0.03109800  1
  Pt  Pt18  1  0.71036200  0.74145900  0.50000000  1
  Pt  Pt19  1  0.24145900  0.21036200  0.50000000  1
  Pt  Pt20  1  0.42640300  0.41382000  0.23831800  1
  Pt  Pt21  1  0.17550200  0.18808600  0.76168200  1
  Pt  Pt22  1  0.41382000  0.17550200  0.98741600  1
  Pt  Pt23  1  0.67550200  0.91382000  0.98741600  1
  Pt  Pt24  1  0.18808600  0.42640300  0.01258400  1
  Pt  Pt25  1  0.92640300  0.68808600  0.01258400  1
  Pt  Pt26  1  0.68808600  0.67550200  0.76168200  1
  Pt  Pt27  1  0.91382000  0.92640300  0.23831800  1
  Pt  Pt28  1  0.44638400  0.94638400  0.78135700  1
  Pt  Pt29  1  0.16502800  0.66502800  0.21864300  1
  Pt  Pt30  1  0.94638400  0.16502800  0.50000000  1
  Pt  Pt31  1  0.66502800  0.44638400  0.50000000  1
  Pt  Pt32  1  0.00093400  0.00093400  0.00000000  1
  Pt  Pt33  1  0.50093400  0.50093400  0.00000000  1
loop_
_geom_bond_atom_site_label_1
_geom_bond_atom_site_label_2
_geom_bond_distance
_geom_bond_site_symmetry_2
Pr0 Pt5 3.223973 1_556
Pr0 Pt4 3.223973 1_656
Pr0 Sb5 3.306502 1_555
Pr0 Sb4 3.306502 1_555
Pr0 Pt29 3.364929 1_656
Pr0 Sb13 3.451203 1_555
Pr0 Sb12 3.451203 1_555
Pr0 Sb7 3.498107 1_556
Pr0 Sb0 3.498107 1_656
Pr0 Pt25 3.521336 1_556
Pr0 Pt24 3.521336 1_656
Pr0 Pt6 3.672777 1_555
Pr0 Pt1 3.672777 1_555
Pr0 Pt12 3.824326 1_555
Pr1 Pt2 3.223964 1_554
Pr1 Pt3 3.223964 1_554
Pr1 Sb2 3.306503 1_565
Pr1 Sb3 3.306503 1_555
Pr1 Pt28 3.364911 1_554
Pr1 Sb11 3.451203 1_555
Pr1 Sb10 3.451203 1_555
Pr1 Sb1 3.498105 1_554
Pr1 Sb6 3.498105 1_554
Pr1 Pt23 3.521338 1_554
Pr1 Pt22 3.521338 1_564
Pr1 Pt0 3.672777 1_565
Pr1 Pt7 3.672777 1_555
Pr1 Pt13 3.824326 1_555
Pr2 Pt6 3.223963 1_555
Pr2 Pt0 3.223963 1_555
Pr2 Sb0 3.306492 1_555
Pr2 Sb6 3.306502 1_555
Pr2 Pt31 3.364925 1_555
Pr2 Sb14 3.451203 1_555
Pr2 Sb8 3.451203 1_555
Pr2 Sb2 3.498095 1_555
Pr2 Sb5 3.498105 1_555
Pr2 Pt20 3.521330 1_555
Pr2 Pt26 3.521338 1_555
Pr2 Pt3 3.672767 1_555
Pr2 Pt4 3.672775 1_555
Pr2 Pt14 3.824326 1_555
Pr3 Pt1 3.223963 1_565
Pr3 Pt7 3.223963 1_555
Pr3 Sb7 3.306492 1_555
Pr3 Sb1 3.306502 1_655
Pr3 Pt30 3.364925 1_565
Pr3 Sb15 3.451203 1_555
Pr3 Sb9 3.451203 1_555
Pr3 Sb3 3.498095 1_555
Pr3 Sb4 3.498105 1_565
Pr3 Pt27 3.521330 1_555
Pr3 Pt21 3.521338 1_665
Pr3 Pt2 3.672767 1_655
Pr3 Pt5 3.672775 1_555
Pr3 Pt15 3.824326 1_555
Pr4 Pt24 3.441423 1_555
Pr4 Pt20 3.441428 1_555
Pr4 Pt21 3.441437 1_554
Pr4 Pt22 3.441437 1_554
Pr4 Pt0 3.460717 1_555
Pr4 Pt1 3.460717 1_454
Pr4 Pt2 3.460719 1_544
Pr4 Pt4 3.460727 1_555
Pr4 Sb2 3.482090 1_555
Pr4 Sb0 3.482091 1_555
Pr4 Sb4 3.482100 1_454
Pr4 Sb1 3.482100 1_544
Pr4 Sb10 3.679276 1_545
Pr4 Sb12 3.679276 1_454
Pr4 Sb9 3.679276 1_444
Pr4 Sb8 3.679276 1_555
Pr4 Pt32 3.852234 1_555
Pr5 Pt25 3.441423 1_555
Pr5 Pt27 3.441428 1_555
Pr5 Pt26 3.441437 1_554
Pr5 Pt23 3.441437 1_554
Pr5 Pt7 3.460717 1_555
Pr5 Pt6 3.460717 1_554
Pr5 Pt3 3.460719 1_554
Pr5 Pt5 3.460727 1_555
Pr5 Sb3 3.482090 1_555
Pr5 Sb7 3.482091 1_555
Pr5 Sb5 3.482100 1_554
Pr5 Sb6 3.482100 1_554
Pr5 Sb11 3.679276 1_555
Pr5 Sb13 3.679276 1_554
Pr5 Sb14 3.679276 1_554
Pr5 Sb15 3.679276 1_555
Pr5 Pt33 3.852234 1_555
Pr6 Pt11 3.217545 1_555
Pr6 Pt10 3.217545 1_555
Pr6 Pt3 3.347867 1_555
Pr6 Pt2 3.347867 1_555
Pr6 Pt4 3.347875 1_555
Pr6 Pt5 3.347875 1_455
Pr6 Sb18 3.394443 1_555
Pr6 Sb19 3.394443 1_455
Pr6 Sb6 3.431796 1_555
Pr6 Sb1 3.431796 1_555
Pr6 Sb0 3.431797 1_555
Pr6 Sb7 3.431797 1_455
Pr6 Pt15 3.574171 1_455
Pr6 Pt14 3.574171 1_555
Pr7 Pt8 3.217545 1_555
Pr7 Pt9 3.217545 1_555
Pr7 Pt6 3.347878 1_555
Pr7 Pt1 3.347878 1_555
Pr7 Pt0 3.347878 1_555
Pr7 Pt7 3.347878 1_545
Pr7 Sb21 3.394443 1_555
Pr7 Sb20 3.394443 1_545
Pr7 Sb4 3.431796 1_555
Pr7 Sb5 3.431796 1_555
Pr7 Sb3 3.431797 1_545
Pr7 Sb2 3.431797 1_555
Pr7 Pt13 3.574171 1_545
Pr7 Pt12 3.574171 1_555
Pr8 Sb23 3.231812 1_555
Pr8 Sb16 3.322511 1_555
Pr8 Pt31 3.325023 1_555
Pr8 Pt20 3.328655 1_555
Pr8 Pt15 3.334593 1_555
Pr8 Pt18 3.374143 1_555
Pr8 Pt17 3.385788 1_555
Pr8 Sb25 3.388662 1_555
Pr8 Sb15 3.400918 1_555
Pr8 Sb19 3.483093 1_555
Pr8 Pt33 3.587813 1_555
Pr8 Sb26 3.632401 1_555
Pr8 Pt9 3.632656 1_555
Pr8 Pt22 3.648634 1_554
Pr8 Sb13 3.841404 1_554
Pr9 Sb23 3.231821 1_455
Pr9 Sb16 3.322509 1_556
Pr9 Pt30 3.325031 1_455
Pr9 Pt21 3.328644 1_555
Pr9 Pt14 3.334585 1_555
Pr9 Pt19 3.374133 1_555
Pr9 Pt16 3.385798 1_555
Pr9 Sb24 3.388673 1_555
Pr9 Sb14 3.400904 1_555
Pr9 Sb18 3.483092 1_555
Pr9 Pt33 3.587803 1_556
Pr9 Sb27 3.632399 1_555
Pr9 Pt8 3.632670 1_455
Pr9 Pt24 3.648650 1_556
Pr9 Sb11 3.841397 1_556
Pr10 Sb22 3.231825 1_545
Pr10 Sb16 3.322499 1_556
Pr10 Pt28 3.325038 1_545
Pr10 Pt22 3.328635 1_555
Pr10 Pt12 3.334600 1_555
Pr10 Pt17 3.374145 1_556
Pr10 Pt19 3.385798 1_555
Pr10 Sb27 3.388663 1_555
Pr10 Sb13 3.400914 1_555
Pr10 Sb21 3.483101 1_555
Pr10 Pt33 3.587802 1_556
Pr10 Sb25 3.632400 1_556
Pr10 Pt11 3.632664 1_545
Pr10 Pt21 3.648628 1_555
Pr10 Sb14 3.841399 1_555
Pr11 Sb22 3.231825 1_555
Pr11 Sb17 3.322499 1_556
Pr11 Pt28 3.325038 1_555
Pr11 Pt23 3.328635 1_555
Pr11 Pt12 3.334600 1_565
Pr11 Pt17 3.374145 1_566
Pr11 Pt18 3.385798 1_555
Pr11 Sb26 3.388663 1_555
Pr11 Sb12 3.400914 1_565
Pr11 Sb20 3.483101 1_555
Pr11 Pt32 3.587802 1_666
Pr11 Sb25 3.632400 1_566
Pr11 Pt10 3.632664 1_555
Pr11 Pt26 3.648628 1_555
Pr11 Sb9 3.841399 1_555
Pr12 Sb22 3.231821 1_555
Pr12 Sb16 3.322509 1_555
Pr12 Pt29 3.325023 1_555
Pr12 Pt24 3.328653 1_555
Pr12 Pt13 3.334585 1_555
Pr12 Pt16 3.374143 1_554
Pr12 Pt18 3.385800 1_555
Pr12 Sb26 3.388673 1_555
Pr12 Sb11 3.400904 1_555
Pr12 Sb20 3.483092 1_555
Pr12 Pt33 3.587803 1_555
Pr12 Sb24 3.632399 1_554
Pr12 Pt10 3.632670 1_555
Pr12 Pt20 3.648644 1_555
Pr12 Sb15 3.841397 1_555
Pr13 Sb22 3.231821 1_555
Pr13 Sb17 3.322509 1_455
Pr13 Pt29 3.325023 1_555
Pr13 Pt25 3.328653 1_455
Pr13 Pt13 3.334585 1_555
Pr13 Pt16 3.374143 1_554
Pr13 Pt19 3.385800 1_565
Pr13 Sb27 3.388673 1_565
Pr13 Sb10 3.400904 1_555
Pr13 Sb21 3.483092 1_565
Pr13 Pt32 3.587803 1_565
Pr13 Sb24 3.632399 1_554
Pr13 Pt11 3.632670 1_555
Pr13 Pt27 3.648644 1_455
Pr13 Sb8 3.841397 1_565
Pr14 Sb23 3.231821 1_555
Pr14 Sb17 3.322509 1_556
Pr14 Pt31 3.325031 1_555
Pr14 Pt26 3.328644 1_555
Pr14 Pt15 3.334585 1_555
Pr14 Pt18 3.374133 1_555
Pr14 Pt16 3.385798 1_655
Pr14 Sb24 3.388673 1_655
Pr14 Sb9 3.400904 1_555
Pr14 Sb18 3.483092 1_655
Pr14 Pt32 3.587803 1_666
Pr14 Sb26 3.632399 1_555
Pr14 Pt8 3.632670 1_555
Pr14 Pt25 3.648650 1_556
Pr14 Sb10 3.841397 1_656
Pr15 Sb23 3.231812 1_555
Pr15 Sb17 3.322511 1_545
Pr15 Pt30 3.325023 1_555
Pr15 Pt27 3.328655 1_545
Pr15 Pt14 3.334593 1_655
Pr15 Pt19 3.374143 1_655
Pr15 Pt17 3.385788 1_555
Pr15 Sb25 3.388662 1_555
Pr15 Sb8 3.400918 1_655
Pr15 Sb19 3.483093 1_555
Pr15 Pt32 3.587813 1_655
Pr15 Sb27 3.632401 1_655
Pr15 Pt9 3.632656 1_555
Pr15 Pt23 3.648634 1_544
Pr15 Sb12 3.841404 1_554
Pt0 Sb2 2.597768 1_555
Pt0 Sb10 2.699663 1_545
Pt0 Sb8 2.707106 1_555
Pt0 Sb21 2.782062 1_555
Pt0 Pt13 2.943097 1_545
Pt1 Sb4 2.597780 1_555
Pt1 Sb12 2.699663 1_555
Pt1 Sb9 2.707106 1_545
Pt1 Sb20 2.782062 1_545
Pt1 Pt12 2.943097 1_555
Pt2 Sb1 2.597768 1_555
Pt2 Sb9 2.699668 1_455
Pt2 Sb10 2.707120 1_556
Pt2 Sb18 2.782067 1_555
Pt3 Sb6 2.597768 1_555
Pt3 Sb14 2.699668 1_555
Pt3 Sb11 2.707120 1_556
Pt3 Sb18 2.782067 1_555
Pt4 Sb0 2.597780 1_555
Pt4 Sb8 2.699656 1_555
Pt4 Sb12 2.707108 1_454
Pt4 Sb19 2.782053 1_455
Pt5 Sb7 2.597780 1_555
Pt5 Sb15 2.699656 1_555
Pt5 Sb13 2.707108 1_554
Pt5 Sb19 2.782053 1_555
Pt6 Sb5 2.597780 1_555
Pt6 Sb13 2.699663 1_555
Pt6 Sb14 2.707106 1_555
Pt6 Sb21 2.782062 1_555
Pt7 Sb3 2.597768 1_555
Pt7 Sb11 2.699663 1_555
Pt7 Sb15 2.707106 1_555
Pt7 Sb20 2.782062 1_555
Pt8 Sb5 2.659734 1_555
Pt8 Sb4 2.659734 1_555
Pt8 Sb23 2.664177 1_555
Pt8 Sb24 2.756596 1_655
Pt9 Sb2 2.659747 1_555
Pt9 Sb3 2.659747 1_545
Pt9 Sb23 2.664177 1_555
Pt9 Sb25 2.756596 1_555
Pt10 Sb6 2.659734 1_555
Pt10 Sb0 2.659743 1_555
Pt10 Sb22 2.664177 1_555
Pt10 Sb26 2.756596 1_555
Pt11 Sb1 2.659734 1_555
Pt11 Sb7 2.659743 1_455
Pt11 Sb22 2.664177 1_555
Pt11 Sb27 2.756596 1_565
Pt12 Sb21 2.780455 1_555
Pt12 Sb20 2.780455 1_545
Pt12 Sb13 2.938602 1_555
Pt12 Sb12 2.938602 1_555
Pt12 Pt6 2.943097 1_555
Pt12 Pt17 2.962134 1_556
Pt13 Sb21 2.780455 1_565
Pt13 Sb20 2.780455 1_555
Pt13 Sb11 2.938602 1_555
Pt13 Sb10 2.938602 1_555
Pt13 Pt7 2.943097 1_555
Pt13 Pt16 2.962124 1_554
Pt14 Sb18 2.780455 1_555
Pt14 Sb19 2.780455 1_455
Pt14 Sb8 2.938602 1_555
Pt14 Sb14 2.938602 1_555
Pt14 Pt4 2.943084 1_555
Pt14 Pt3 2.943096 1_555
Pt14 Pt19 2.962121 1_555
Pt15 Sb18 2.780455 1_655
Pt15 Sb19 2.780455 1_555
Pt15 Sb15 2.938602 1_555
Pt15 Sb9 2.938602 1_555
Pt15 Pt5 2.943084 1_555
Pt15 Pt2 2.943096 1_655
Pt15 Pt18 2.962121 1_555
Pt16 Sb24 2.619127 1_555
Pt16 Sb11 2.667282 1_556
Pt16 Sb10 2.667282 1_556
Pt16 Sb18 2.811926 1_555
Pt17 Sb25 2.619105 1_555
Pt17 Sb12 2.667295 1_554
Pt17 Sb13 2.667295 1_554
Pt17 Sb19 2.811936 1_555
Pt18 Sb26 2.619117 1_555
Pt18 Sb9 2.667287 1_555
Pt18 Sb15 2.667287 1_555
Pt18 Sb20 2.811939 1_555
Pt19 Sb27 2.619117 1_555
Pt19 Sb8 2.667287 1_555
Pt19 Sb14 2.667287 1_555
Pt19 Sb21 2.811939 1_555
Pt20 Sb2 2.636673 1_555
Pt20 Sb16 2.703094 1_555
Pt20 Sb26 2.705468 1_555
Pt20 Sb0 2.723194 1_555
Pt20 Pt31 2.990624 1_555
Pt20 Pt24 3.028542 1_555
Pt20 Pt22 3.028561 1_554
Pt21 Sb4 2.636673 1_455
Pt21 Sb16 2.703088 1_556
Pt21 Sb27 2.705465 1_555
Pt21 Sb1 2.723209 1_545
Pt21 Pt30 2.990618 1_455
Pt21 Pt24 3.028549 1_556
Pt21 Pt22 3.028555 1_555
Pt22 Sb1 2.636673 1_545
Pt22 Sb16 2.703088 1_556
Pt22 Sb25 2.705465 1_556
Pt22 Sb2 2.723214 1_556
Pt22 Pt28 2.990612 1_545
Pt23 Sb6 2.636673 1_555
Pt23 Sb17 2.703088 1_556
Pt23 Sb25 2.705465 1_566
Pt23 Sb3 2.723214 1_556
Pt23 Pt28 2.990612 1_555
Pt23 Pt26 3.028555 1_555
Pt23 Pt27 3.028561 1_556
Pt24 Sb0 2.636673 1_555
Pt24 Sb16 2.703087 1_555
Pt24 Sb24 2.705477 1_554
Pt24 Sb4 2.723204 1_454
Pt24 Pt29 2.990620 1_555
Pt25 Sb7 2.636673 1_555
Pt25 Sb17 2.703087 1_555
Pt25 Sb24 2.705477 1_654
Pt25 Sb5 2.723204 1_554
Pt25 Pt29 2.990620 1_655
Pt25 Pt27 3.028542 1_555
Pt25 Pt26 3.028549 1_554
Pt26 Sb5 2.636673 1_555
Pt26 Sb17 2.703088 1_556
Pt26 Sb26 2.705465 1_555
Pt26 Sb6 2.723209 1_555
Pt26 Pt31 2.990618 1_555
Pt27 Sb3 2.636673 1_555
Pt27 Sb17 2.703094 1_555
Pt27 Sb27 2.705468 1_665
Pt27 Sb7 2.723194 1_555
Pt27 Pt30 2.990624 1_565
Pt28 Sb25 2.678880 1_566
Pt28 Sb6 2.746899 1_555
Pt28 Sb1 2.746899 1_555
Pt29 Sb24 2.678871 1_554
Pt29 Sb7 2.746925 1_455
Pt29 Sb0 2.746925 1_555
Pt30 Sb27 2.678884 1_655
Pt30 Sb4 2.746904 1_555
Pt30 Sb3 2.746909 1_545
Pt31 Sb26 2.678884 1_555
Pt31 Sb5 2.746904 1_555
Pt31 Sb2 2.746909 1_555
Pt32 Sb17 2.714011 1_445
Pt32 Sb8 2.723064 1_555
Pt32 Sb10 2.723064 1_545
Pt32 Sb12 2.723064 1_454
Pt32 Sb9 2.723064 1_444
Pt33 Sb16 2.714011 1_555
Pt33 Sb15 2.723064 1_555
Pt33 Sb14 2.723064 1_554
Pt33 Sb11 2.723064 1_555
Pt33 Sb13 2.723064 1_554
