# generated using pymatgen
data_Nd3Pu
_symmetry_space_group_name_H-M   'P 1'
_cell_length_a   6.92752420
_cell_length_b   6.92752420
_cell_length_c   23.35077200
_cell_angle_alpha   90.00000000
_cell_angle_beta   90.00000000
_cell_angle_gamma   120.00000191
_symmetry_Int_Tables_number   1
_chemical_formula_structural   Nd3Pu
_chemical_formula_sum   'Nd24 Pu8'
_cell_volume   970.48308403
_cell_formula_units_Z   8
loop_
 _symmetry_equiv_pos_site_id
 _symmetry_equiv_pos_as_xyz
  1  'x, y, z'
loop_
 _atom_site_type_symbol
 _atom_site_label
 _atom_site_symmetry_multiplicity
 _atom_site_fract_x
 _atom_site_fract_y
 _atom_site_fract_z
 _atom_site_occupancy
  Nd  Nd0_0  1  0.00000000  0.00000000  0.00000000  1
  Nd  Nd0_1  1  0.00000000  0.00000000  0.50000000  1
  Nd  Nd0_2  1  0.00000000  0.50000000  0.00000000  1
  Nd  Nd0_3  1  0.00000000  0.50000000  0.50000000  1
  Nd  Nd0_4  1  0.50000000  0.00000000  0.00000000  1
  Nd  Nd0_5  1  0.50000000  0.00000000  0.50000000  1
  Nd  Nd0_6  1  0.50000000  0.50000000  0.00000000  1
  Nd  Nd0_7  1  0.50000000  0.50000000  0.50000000  1
  Nd  Nd1_0  1  0.33333350  0.16666650  0.36802850  1
  Nd  Nd1_1  1  0.33333350  0.16666650  0.86802850  1
  Nd  Nd1_2  1  0.33333350  0.66666650  0.36802850  1
  Nd  Nd1_3  1  0.33333350  0.66666650  0.86802850  1
  Nd  Nd1_4  1  0.83333350  0.16666650  0.36802850  1
  Nd  Nd1_5  1  0.83333350  0.16666650  0.86802850  1
  Nd  Nd1_6  1  0.83333350  0.66666650  0.36802850  1
  Nd  Nd1_7  1  0.83333350  0.66666650  0.86802850  1
  Nd  Nd2_0  1  0.33333350  0.16666650  0.13197150  1
  Nd  Nd2_1  1  0.33333350  0.16666650  0.63197150  1
  Nd  Nd2_2  1  0.33333350  0.66666650  0.13197150  1
  Nd  Nd2_3  1  0.33333350  0.66666650  0.63197150  1
  Nd  Nd2_4  1  0.83333350  0.16666650  0.13197150  1
  Nd  Nd2_5  1  0.83333350  0.16666650  0.63197150  1
  Nd  Nd2_6  1  0.83333350  0.66666650  0.13197150  1
  Nd  Nd2_7  1  0.83333350  0.66666650  0.63197150  1
  Pu  Pu0_0  1  0.16666650  0.33333350  0.25000000  1
  Pu  Pu0_1  1  0.16666650  0.33333350  0.75000000  1
  Pu  Pu0_2  1  0.16666650  0.83333350  0.25000000  1
  Pu  Pu0_3  1  0.16666650  0.83333350  0.75000000  1
  Pu  Pu0_4  1  0.66666650  0.33333350  0.25000000  1
  Pu  Pu0_5  1  0.66666650  0.33333350  0.75000000  1
  Pu  Pu0_6  1  0.66666650  0.83333350  0.25000000  1
  Pu  Pu0_7  1  0.66666650  0.83333350  0.75000000  1
loop_
_geom_bond_atom_site_label_1
_geom_bond_atom_site_label_2
_geom_bond_distance
_geom_bond_site_symmetry_2
Nd0_0 Nd0_6 3.463762 1_555
Nd0_0 Nd0_6 3.463762 1_445
Nd0_0 Nd0_4 3.463762 1_455
Nd0_0 Nd0_2 3.463762 1_555
Nd0_0 Nd0_4 3.463762 1_555
Nd0_0 Nd0_2 3.463762 1_545
Nd0_0 Nd2_4 3.673648 1_455
Nd0_0 Nd1_5 3.673648 1_454
Nd0_0 Nd2_6 3.673650 1_445
Nd0_0 Nd2_0 3.673650 1_555
Nd0_0 Nd1_1 3.673650 1_554
Nd0_0 Nd1_7 3.673650 1_444
Nd0_1 Nd0_7 3.463762 1_445
Nd0_1 Nd0_7 3.463762 1_555
Nd0_1 Nd0_3 3.463762 1_555
Nd0_1 Nd0_5 3.463762 1_455
Nd0_1 Nd0_5 3.463762 1_555
Nd0_1 Nd0_3 3.463762 1_545
Nd0_1 Nd1_4 3.673648 1_455
Nd0_1 Nd2_5 3.673648 1_455
Nd0_1 Nd1_6 3.673650 1_445
Nd0_1 Nd2_7 3.673650 1_445
Nd0_1 Nd1_0 3.673650 1_555
Nd0_1 Nd2_1 3.673650 1_555
Nd0_2 Nd0_4 3.463762 1_455
Nd0_2 Nd0_4 3.463762 1_565
Nd0_2 Nd0_6 3.463762 1_455
Nd0_2 Nd0_6 3.463762 1_555
Nd0_2 Nd2_6 3.673648 1_455
Nd0_2 Nd1_7 3.673648 1_454
Nd0_2 Nd2_4 3.673650 1_455
Nd0_2 Nd1_5 3.673650 1_454
Nd0_2 Nd2_2 3.673650 1_555
Nd0_2 Nd1_3 3.673650 1_554
Nd0_3 Nd0_5 3.463762 1_565
Nd0_3 Nd0_5 3.463762 1_455
Nd0_3 Nd0_7 3.463762 1_555
Nd0_3 Nd0_7 3.463762 1_455
Nd0_3 Nd1_6 3.673648 1_455
Nd0_3 Nd2_7 3.673648 1_455
Nd0_3 Nd2_5 3.673650 1_455
Nd0_3 Nd1_4 3.673650 1_455
Nd0_3 Nd2_3 3.673650 1_555
Nd0_3 Nd1_2 3.673650 1_555
Nd0_4 Nd0_6 3.463762 1_545
Nd0_4 Nd0_6 3.463762 1_555
Nd0_4 Nd2_0 3.673648 1_555
Nd0_4 Nd1_1 3.673648 1_554
Nd0_4 Nd2_4 3.673650 1_555
Nd0_4 Nd2_2 3.673650 1_545
Nd0_4 Nd1_5 3.673650 1_554
Nd0_4 Nd1_3 3.673650 1_544
Nd0_5 Nd0_7 3.463762 1_545
Nd0_5 Nd0_7 3.463762 1_555
Nd0_5 Nd2_1 3.673648 1_555
Nd0_5 Nd1_0 3.673648 1_555
Nd0_5 Nd2_5 3.673650 1_555
Nd0_5 Nd1_4 3.673650 1_555
Nd0_5 Nd2_3 3.673650 1_545
Nd0_5 Nd1_2 3.673650 1_545
Nd0_6 Nd2_2 3.673648 1_555
Nd0_6 Nd1_3 3.673648 1_554
Nd0_6 Nd2_0 3.673650 1_555
Nd0_6 Nd2_6 3.673650 1_555
Nd0_6 Nd1_1 3.673650 1_554
Nd0_6 Nd1_7 3.673650 1_554
Nd0_7 Nd1_2 3.673648 1_555
Nd0_7 Nd2_3 3.673648 1_555
Nd0_7 Nd1_6 3.673650 1_555
Nd0_7 Nd2_7 3.673650 1_555
Nd0_7 Nd1_0 3.673650 1_555
Nd0_7 Nd2_1 3.673650 1_555
Nd1_0 Pu0_2 3.405151 1_545
Nd1_0 Pu0_4 3.405151 1_555
Nd1_0 Pu0_0 3.405155 1_555
Nd1_0 Nd1_6 3.463762 1_445
Nd1_0 Nd1_6 3.463762 1_555
Nd1_0 Nd1_4 3.463762 1_455
Nd1_0 Nd1_2 3.463762 1_555
Nd1_0 Nd1_4 3.463762 1_555
Nd1_0 Nd1_2 3.463762 1_545
Nd1_1 Pu0_5 3.405151 1_555
Nd1_1 Pu0_3 3.405151 1_545
Nd1_1 Pu0_1 3.405155 1_555
Nd1_1 Nd1_7 3.463762 1_555
Nd1_1 Nd1_7 3.463762 1_445
Nd1_1 Nd1_5 3.463762 1_455
Nd1_1 Nd1_3 3.463762 1_555
Nd1_1 Nd1_5 3.463762 1_555
Nd1_1 Nd1_3 3.463762 1_545
Nd1_2 Pu0_0 3.405151 1_555
Nd1_2 Pu0_6 3.405151 1_555
Nd1_2 Pu0_2 3.405155 1_555
Nd1_2 Nd1_4 3.463762 1_455
Nd1_2 Nd1_4 3.463762 1_565
Nd1_2 Nd1_6 3.463762 1_455
Nd1_2 Nd1_6 3.463762 1_555
Nd1_3 Pu0_1 3.405151 1_555
Nd1_3 Pu0_7 3.405151 1_555
Nd1_3 Pu0_3 3.405155 1_555
Nd1_3 Nd1_5 3.463762 1_455
Nd1_3 Nd1_5 3.463762 1_565
Nd1_3 Nd1_7 3.463762 1_455
Nd1_3 Nd1_7 3.463762 1_555
Nd1_4 Pu0_0 3.405151 1_655
Nd1_4 Pu0_6 3.405151 1_545
Nd1_4 Pu0_4 3.405155 1_555
Nd1_4 Nd1_6 3.463762 1_555
Nd1_4 Nd1_6 3.463762 1_545
Nd1_5 Pu0_1 3.405151 1_655
Nd1_5 Pu0_7 3.405151 1_545
Nd1_5 Pu0_5 3.405155 1_555
Nd1_5 Nd1_7 3.463762 1_555
Nd1_5 Nd1_7 3.463762 1_545
Nd1_6 Pu0_2 3.405151 1_655
Nd1_6 Pu0_4 3.405151 1_555
Nd1_6 Pu0_6 3.405155 1_555
Nd1_7 Pu0_3 3.405151 1_655
Nd1_7 Pu0_5 3.405151 1_555
Nd1_7 Pu0_7 3.405155 1_555
Nd2_0 Pu0_4 3.405151 1_555
Nd2_0 Pu0_2 3.405151 1_545
Nd2_0 Pu0_0 3.405155 1_555
Nd2_0 Nd2_6 3.463762 1_445
Nd2_0 Nd2_6 3.463762 1_555
Nd2_0 Nd2_2 3.463762 1_555
Nd2_0 Nd2_4 3.463762 1_455
Nd2_0 Nd2_4 3.463762 1_555
Nd2_0 Nd2_2 3.463762 1_545
Nd2_1 Pu0_5 3.405151 1_555
Nd2_1 Pu0_3 3.405151 1_545
Nd2_1 Pu0_1 3.405155 1_555
Nd2_1 Nd2_7 3.463762 1_555
Nd2_1 Nd2_7 3.463762 1_445
Nd2_1 Nd2_3 3.463762 1_555
Nd2_1 Nd2_5 3.463762 1_455
Nd2_1 Nd2_3 3.463762 1_545
Nd2_1 Nd2_5 3.463762 1_555
Nd2_2 Pu0_0 3.405151 1_555
Nd2_2 Pu0_6 3.405151 1_555
Nd2_2 Pu0_2 3.405155 1_555
Nd2_2 Nd2_4 3.463762 1_455
Nd2_2 Nd2_4 3.463762 1_565
Nd2_2 Nd2_6 3.463762 1_455
Nd2_2 Nd2_6 3.463762 1_555
Nd2_3 Pu0_1 3.405151 1_555
Nd2_3 Pu0_7 3.405151 1_555
Nd2_3 Pu0_3 3.405155 1_555
Nd2_3 Nd2_5 3.463762 1_455
Nd2_3 Nd2_5 3.463762 1_565
Nd2_3 Nd2_7 3.463762 1_455
Nd2_3 Nd2_7 3.463762 1_555
Nd2_4 Pu0_0 3.405151 1_655
Nd2_4 Pu0_6 3.405151 1_545
Nd2_4 Pu0_4 3.405155 1_555
Nd2_4 Nd2_6 3.463762 1_555
Nd2_4 Nd2_6 3.463762 1_545
Nd2_5 Pu0_7 3.405151 1_545
Nd2_5 Pu0_1 3.405151 1_655
Nd2_5 Pu0_5 3.405155 1_555
Nd2_5 Nd2_7 3.463762 1_555
Nd2_5 Nd2_7 3.463762 1_545
Nd2_6 Pu0_4 3.405151 1_555
Nd2_6 Pu0_2 3.405151 1_655
Nd2_6 Pu0_6 3.405155 1_555
Nd2_7 Pu0_5 3.405151 1_555
Nd2_7 Pu0_3 3.405151 1_655
Nd2_7 Pu0_7 3.405155 1_555
Pu0_0 Pu0_6 3.463762 1_555
Pu0_0 Pu0_6 3.463762 1_445
Pu0_0 Pu0_2 3.463762 1_555
Pu0_0 Pu0_4 3.463762 1_455
Pu0_0 Pu0_4 3.463762 1_555
Pu0_0 Pu0_2 3.463762 1_545
Pu0_1 Pu0_7 3.463762 1_555
Pu0_1 Pu0_7 3.463762 1_445
Pu0_1 Pu0_3 3.463762 1_555
Pu0_1 Pu0_5 3.463762 1_455
Pu0_1 Pu0_5 3.463762 1_555
Pu0_1 Pu0_3 3.463762 1_545
Pu0_2 Pu0_4 3.463762 1_565
Pu0_2 Pu0_4 3.463762 1_455
Pu0_2 Pu0_6 3.463762 1_455
Pu0_2 Pu0_6 3.463762 1_555
Pu0_3 Pu0_5 3.463762 1_565
Pu0_3 Pu0_5 3.463762 1_455
Pu0_3 Pu0_7 3.463762 1_555
Pu0_3 Pu0_7 3.463762 1_455
Pu0_4 Pu0_6 3.463762 1_555
Pu0_4 Pu0_6 3.463762 1_545
Pu0_5 Pu0_7 3.463762 1_555
Pu0_5 Pu0_7 3.463762 1_545
