# generated using pymatgen
data_Er3Ga15Ru4
_symmetry_space_group_name_H-M   'P 1'
_cell_length_a   8.79245600
_cell_length_b   9.63537100
_cell_length_c   17.81850600
_cell_angle_alpha   90.00000000
_cell_angle_beta   90.00000000
_cell_angle_gamma   90.00000000
_symmetry_Int_Tables_number   1
_chemical_formula_structural   Er3Ga15Ru4
_chemical_formula_sum   'Er12 Ga60 Ru16'
_cell_volume   1509.55844695
_cell_formula_units_Z   4
loop_
 _symmetry_equiv_pos_site_id
 _symmetry_equiv_pos_as_xyz
  1  'x, y, z'
loop_
 _atom_site_type_symbol
 _atom_site_label
 _atom_site_symmetry_multiplicity
 _atom_site_fract_x
 _atom_site_fract_y
 _atom_site_fract_z
 _atom_site_occupancy
  Er  Er0  1  0.37585300  0.25000000  0.16779000  1
  Er  Er1  1  0.62414700  0.75000000  0.83221000  1
  Er  Er2  1  0.12414700  0.75000000  0.66779000  1
  Er  Er3  1  0.87585300  0.25000000  0.33221000  1
  Er  Er4  1  0.37530100  0.25000000  0.74834100  1
  Er  Er5  1  0.62469900  0.75000000  0.25165900  1
  Er  Er6  1  0.12469900  0.75000000  0.24834100  1
  Er  Er7  1  0.87530100  0.25000000  0.75165900  1
  Er  Er8  1  0.12557200  0.25000000  0.52424700  1
  Er  Er9  1  0.87442800  0.75000000  0.47575300  1
  Er  Er10  1  0.37442800  0.75000000  0.02424700  1
  Er  Er11  1  0.62557200  0.25000000  0.97575300  1
  Ga  Ga0  1  0.12659400  0.06084800  0.25282700  1
  Ga  Ga1  1  0.87340600  0.93915200  0.74717300  1
  Ga  Ga2  1  0.37340600  0.93915200  0.75282700  1
  Ga  Ga3  1  0.87340600  0.56084800  0.74717300  1
  Ga  Ga4  1  0.62659400  0.06084800  0.24717300  1
  Ga  Ga5  1  0.12659400  0.43915200  0.25282700  1
  Ga  Ga6  1  0.62659400  0.43915200  0.24717300  1
  Ga  Ga7  1  0.37340600  0.56084800  0.75282700  1
  Ga  Ga8  1  0.00735000  0.25000000  0.16881900  1
  Ga  Ga9  1  0.99265000  0.75000000  0.83118100  1
  Ga  Ga10  1  0.49265000  0.75000000  0.66881900  1
  Ga  Ga11  1  0.50735000  0.25000000  0.33118100  1
  Ga  Ga12  1  0.13319000  0.25000000  0.04176600  1
  Ga  Ga13  1  0.86681000  0.75000000  0.95823400  1
  Ga  Ga14  1  0.36681000  0.75000000  0.54176600  1
  Ga  Ga15  1  0.63319000  0.25000000  0.45823400  1
  Ga  Ga16  1  0.37444600  0.57763600  0.33141000  1
  Ga  Ga17  1  0.62555400  0.42236400  0.66859000  1
  Ga  Ga18  1  0.12555400  0.42236400  0.83141000  1
  Ga  Ga19  1  0.62555400  0.07763600  0.66859000  1
  Ga  Ga20  1  0.87444600  0.57763600  0.16859000  1
  Ga  Ga21  1  0.37444600  0.92236400  0.33141000  1
  Ga  Ga22  1  0.87444600  0.92236400  0.16859000  1
  Ga  Ga23  1  0.12555400  0.07763600  0.83141000  1
  Ga  Ga24  1  0.22094300  0.25000000  0.35926700  1
  Ga  Ga25  1  0.77905700  0.75000000  0.64073300  1
  Ga  Ga26  1  0.27905700  0.75000000  0.85926700  1
  Ga  Ga27  1  0.72094300  0.25000000  0.14073300  1
  Ga  Ga28  1  0.12414200  0.08735200  0.67192500  1
  Ga  Ga29  1  0.87585800  0.91264800  0.32807500  1
  Ga  Ga30  1  0.37585800  0.91264800  0.17192500  1
  Ga  Ga31  1  0.87585800  0.58735200  0.32807500  1
  Ga  Ga32  1  0.62414200  0.08735200  0.82807500  1
  Ga  Ga33  1  0.12414200  0.41264800  0.67192500  1
  Ga  Ga34  1  0.62414200  0.41264800  0.82807500  1
  Ga  Ga35  1  0.37585800  0.58735200  0.17192500  1
  Ga  Ga36  1  0.37732000  0.06153800  0.46538900  1
  Ga  Ga37  1  0.62268000  0.93846200  0.53461100  1
  Ga  Ga38  1  0.12268000  0.93846200  0.96538900  1
  Ga  Ga39  1  0.62268000  0.56153800  0.53461100  1
  Ga  Ga40  1  0.87732000  0.06153800  0.03461100  1
  Ga  Ga41  1  0.37732000  0.43846200  0.46538900  1
  Ga  Ga42  1  0.87732000  0.43846200  0.03461100  1
  Ga  Ga43  1  0.12268000  0.56153800  0.96538900  1
  Ga  Ga44  1  0.45081500  0.25000000  0.57759500  1
  Ga  Ga45  1  0.54918500  0.75000000  0.42240500  1
  Ga  Ga46  1  0.04918500  0.75000000  0.07759500  1
  Ga  Ga47  1  0.95081500  0.25000000  0.92240500  1
  Ga  Ga48  1  0.30462900  0.25000000  0.91807800  1
  Ga  Ga49  1  0.69537100  0.75000000  0.08192200  1
  Ga  Ga50  1  0.19537100  0.75000000  0.41807800  1
  Ga  Ga51  1  0.80462900  0.25000000  0.58192200  1
  Ga  Ga52  1  0.37396200  0.06923300  0.03292300  1
  Ga  Ga53  1  0.62603800  0.93076700  0.96707700  1
  Ga  Ga54  1  0.12603800  0.93076700  0.53292300  1
  Ga  Ga55  1  0.62603800  0.56923300  0.96707700  1
  Ga  Ga56  1  0.87396200  0.06923300  0.46707700  1
  Ga  Ga57  1  0.37396200  0.43076700  0.03292300  1
  Ga  Ga58  1  0.87396200  0.43076700  0.46707700  1
  Ga  Ga59  1  0.12603800  0.56923300  0.53292300  1
  Ru  Ru0  1  0.11741700  0.00375100  0.39034800  1
  Ru  Ru1  1  0.88258300  0.99624900  0.60965200  1
  Ru  Ru2  1  0.38258300  0.99624900  0.89034800  1
  Ru  Ru3  1  0.88258300  0.50375100  0.60965200  1
  Ru  Ru4  1  0.61741700  0.00375100  0.10965200  1
  Ru  Ru5  1  0.11741700  0.49624900  0.39034800  1
  Ru  Ru6  1  0.61741700  0.49624900  0.10965200  1
  Ru  Ru7  1  0.38258300  0.50375100  0.89034800  1
  Ru  Ru8  1  0.13030000  0.00478800  0.11346800  1
  Ru  Ru9  1  0.86970000  0.99521200  0.88653200  1
  Ru  Ru10  1  0.36970000  0.99521200  0.61346800  1
  Ru  Ru11  1  0.86970000  0.50478800  0.88653200  1
  Ru  Ru12  1  0.63030000  0.00478800  0.38653200  1
  Ru  Ru13  1  0.13030000  0.49521200  0.11346800  1
  Ru  Ru14  1  0.63030000  0.49521200  0.38653200  1
  Ru  Ru15  1  0.36970000  0.50478800  0.61346800  1
loop_
_geom_bond_atom_site_label_1
_geom_bond_atom_site_label_2
_geom_bond_distance
_geom_bond_site_symmetry_2
Er0 Ga57 2.967999 1_555
Er0 Ga52 2.967999 1_555
Er0 Ga27 3.072253 1_555
Er0 Ga12 3.097548 1_555
Er0 Ga11 3.132556 1_555
Er0 Ga4 3.191058 1_555
Er0 Ga6 3.191058 1_555
Er0 Ga0 3.228114 1_555
Er0 Ga5 3.228114 1_555
Er0 Ga8 3.240098 1_555
Er0 Ga35 3.251347 1_555
Er0 Ga30 3.251347 1_545
Er0 Ru13 3.343746 1_555
Er0 Ru8 3.343746 1_555
Er0 Ru6 3.348729 1_555
Er0 Ru4 3.348729 1_555
Er1 Ga53 2.967999 1_555
Er1 Ga55 2.967999 1_555
Er1 Ga26 3.072253 1_555
Er1 Ga13 3.097548 1_555
Er1 Ga10 3.132556 1_555
Er1 Ga2 3.191058 1_555
Er1 Ga7 3.191058 1_555
Er1 Ga3 3.228114 1_555
Er1 Ga1 3.228114 1_555
Er1 Ga9 3.240098 1_555
Er1 Ga32 3.251347 1_565
Er1 Ga34 3.251347 1_555
Er1 Ru11 3.343746 1_555
Er1 Ru9 3.343746 1_555
Er1 Ru2 3.348729 1_555
Er1 Ru7 3.348729 1_555
Er2 Ga54 2.967999 1_555
Er2 Ga59 2.967999 1_555
Er2 Ga25 3.072253 1_455
Er2 Ga14 3.097548 1_555
Er2 Ga9 3.132556 1_455
Er2 Ga3 3.191058 1_455
Er2 Ga1 3.191058 1_455
Er2 Ga2 3.228114 1_555
Er2 Ga7 3.228114 1_555
Er2 Ga10 3.240098 1_555
Er2 Ga28 3.251347 1_565
Er2 Ga33 3.251347 1_555
Er2 Ru15 3.343746 1_555
Er2 Ru10 3.343746 1_555
Er2 Ru1 3.348729 1_455
Er2 Ru3 3.348729 1_455
Er3 Ga58 2.967999 1_555
Er3 Ga56 2.967999 1_555
Er3 Ga24 3.072253 1_655
Er3 Ga15 3.097548 1_555
Er3 Ga8 3.132556 1_655
Er3 Ga0 3.191058 1_655
Er3 Ga5 3.191058 1_655
Er3 Ga6 3.228114 1_555
Er3 Ga4 3.228114 1_555
Er3 Ga11 3.240098 1_555
Er3 Ga31 3.251347 1_555
Er3 Ga29 3.251347 1_545
Er3 Ru14 3.343746 1_555
Er3 Ru12 3.343746 1_555
Er3 Ru5 3.348729 1_655
Er3 Ru0 3.348729 1_655
Er4 Ga7 2.996249 1_555
Er4 Ga2 2.996249 1_545
Er4 Ga33 3.030948 1_555
Er4 Ga28 3.030948 1_555
Er4 Ga34 3.043279 1_555
Er4 Ga32 3.043279 1_555
Er4 Ga48 3.087632 1_555
Er4 Ga17 3.101464 1_555
Er4 Ga19 3.101464 1_555
Er4 Ga44 3.114044 1_555
Er4 Ga18 3.125867 1_555
Er4 Ga23 3.125867 1_555
Er5 Ga4 2.996249 1_565
Er5 Ga6 2.996249 1_555
Er5 Ga29 3.030948 1_555
Er5 Ga31 3.030948 1_555
Er5 Ga30 3.043279 1_555
Er5 Ga35 3.043279 1_555
Er5 Ga49 3.087632 1_555
Er5 Ga21 3.101464 1_555
Er5 Ga16 3.101464 1_555
Er5 Ga45 3.114044 1_555
Er5 Ga22 3.125867 1_555
Er5 Ga20 3.125867 1_555
Er6 Ga5 2.996249 1_555
Er6 Ga0 2.996249 1_565
Er6 Ga30 3.030948 1_555
Er6 Ga35 3.030948 1_555
Er6 Ga29 3.043279 1_455
Er6 Ga31 3.043279 1_455
Er6 Ga50 3.087632 1_555
Er6 Ga22 3.101464 1_455
Er6 Ga20 3.101464 1_455
Er6 Ga46 3.114044 1_555
Er6 Ga21 3.125867 1_555
Er6 Ga16 3.125867 1_555
Er7 Ga3 2.996249 1_555
Er7 Ga1 2.996249 1_545
Er7 Ga34 3.030948 1_555
Er7 Ga32 3.030948 1_555
Er7 Ga33 3.043279 1_655
Er7 Ga28 3.043279 1_655
Er7 Ga51 3.087632 1_555
Er7 Ga18 3.101464 1_655
Er7 Ga23 3.101464 1_655
Er7 Ga47 3.114044 1_555
Er7 Ga17 3.125867 1_555
Er7 Ga19 3.125867 1_555
Er8 Ga58 2.994257 1_455
Er8 Ga56 2.994257 1_455
Er8 Ga51 3.003185 1_455
Er8 Ga44 3.013537 1_555
Er8 Ga41 3.049083 1_555
Er8 Ga36 3.049083 1_555
Er8 Ga24 3.056956 1_555
Er8 Ga33 3.062754 1_555
Er8 Ga28 3.062754 1_555
Er8 Ga59 3.079814 1_555
Er8 Ga54 3.079814 1_545
Er9 Ga54 2.994257 1_655
Er9 Ga59 2.994257 1_655
Er9 Ga50 3.003185 1_655
Er9 Ga45 3.013537 1_555
Er9 Ga37 3.049083 1_555
Er9 Ga39 3.049083 1_555
Er9 Ga25 3.056956 1_555
Er9 Ga29 3.062754 1_555
Er9 Ga31 3.062754 1_555
Er9 Ga56 3.079814 1_565
Er9 Ga58 3.079814 1_555
Er10 Ga55 2.994257 1_554
Er10 Ga53 2.994257 1_554
Er10 Ga49 3.003185 1_555
Er10 Ga46 3.013537 1_555
Er10 Ga38 3.049083 1_554
Er10 Ga43 3.049083 1_554
Er10 Ga26 3.056956 1_554
Er10 Ga30 3.062754 1_555
Er10 Ga35 3.062754 1_555
Er10 Ga52 3.079814 1_565
Er10 Ga57 3.079814 1_555
Er11 Ga57 2.994257 1_556
Er11 Ga52 2.994257 1_556
Er11 Ga48 3.003185 1_555
Er11 Ga47 3.013537 1_555
Er11 Ga42 3.049083 1_556
Er11 Ga40 3.049083 1_556
Er11 Ga27 3.056956 1_556
Er11 Ga34 3.062754 1_555
Er11 Ga32 3.062754 1_555
Er11 Ga55 3.079814 1_555
Er11 Ga53 3.079814 1_545
Ga0 Ru0 2.512713 1_555
Ga0 Ru8 2.541449 1_555
Ga0 Ga8 2.581013 1_555
Ga0 Ga24 2.758071 1_555
Ga0 Ga21 2.913788 1_545
Ga0 Ga29 2.949074 1_445
Ga0 Ga30 2.986712 1_545
Ga0 Ga22 2.991404 1_445
Ga1 Ru1 2.512713 1_555
Ga1 Ru9 2.541449 1_555
Ga1 Ga9 2.581013 1_555
Ga1 Ga25 2.758071 1_555
Ga1 Ga19 2.913788 1_565
Ga1 Ga28 2.949074 1_665
Ga1 Ga32 2.986712 1_565
Ga1 Ga23 2.991404 1_665
Ga2 Ru2 2.512713 1_555
Ga2 Ru10 2.541449 1_555
Ga2 Ga26 2.758071 1_555
Ga2 Ga23 2.913788 1_565
Ga2 Ga32 2.949074 1_565
Ga2 Ga28 2.986712 1_565
Ga3 Ru3 2.512713 1_555
Ga3 Ru11 2.541449 1_555
Ga3 Ga9 2.581013 1_555
Ga3 Ga33 2.949074 1_655
Ga3 Ga34 2.986712 1_555
Ga4 Ru4 2.512713 1_555
Ga4 Ru12 2.541449 1_555
Ga5 Ru5 2.512713 1_555
Ga5 Ru13 2.541449 1_555
Ga5 Ga8 2.581013 1_555
Ga6 Ru6 2.512713 1_555
Ga6 Ru14 2.541449 1_555
Ga7 Ru7 2.512713 1_555
Ga7 Ru15 2.541449 1_555
Ga8 Ru8 2.779165 1_555
Ga8 Ru13 2.779165 1_555
Ga9 Ru11 2.779165 1_555
Ga9 Ru9 2.779165 1_555
Ga10 Ga14 2.519808 1_555
Ga10 Ga25 2.567467 1_555
Ga10 Ga2 2.581013 1_555
Ga10 Ga7 2.581013 1_555
Ga10 Ru15 2.779165 1_555
Ga10 Ru10 2.779165 1_555
Ga11 Ga15 2.519808 1_555
Ga11 Ga24 2.567467 1_555
Ga11 Ga4 2.581013 1_555
Ga11 Ga6 2.581013 1_555
Ga11 Ru14 2.779165 1_555
Ga11 Ru12 2.779165 1_555
Ga12 Ga8 2.519808 1_555
Ga12 Ga47 2.663591 1_454
Ga12 Ga48 2.670111 1_554
Ga12 Ru13 2.686142 1_555
Ga12 Ru8 2.686142 1_555
Ga12 Ga57 2.745931 1_555
Ga12 Ga52 2.745931 1_555
Ga12 Ga42 2.893962 1_455
Ga12 Ga40 2.893962 1_455
Ga13 Ga9 2.519808 1_555
Ga13 Ga46 2.663591 1_656
Ga13 Ga49 2.670111 1_556
Ga13 Ru9 2.686142 1_555
Ga13 Ru11 2.686142 1_555
Ga13 Ga55 2.745931 1_555
Ga13 Ga53 2.745931 1_555
Ga13 Ga38 2.893962 1_655
Ga13 Ga43 2.893962 1_655
Ga14 Ga45 2.663591 1_555
Ga14 Ga50 2.670111 1_555
Ga14 Ru10 2.686142 1_555
Ga14 Ru15 2.686142 1_555
Ga14 Ga54 2.745931 1_555
Ga14 Ga59 2.745931 1_555
Ga14 Ga37 2.893962 1_555
Ga14 Ga39 2.893962 1_555
Ga15 Ga44 2.663591 1_555
Ga15 Ga51 2.670111 1_555
Ga15 Ru14 2.686142 1_555
Ga15 Ru12 2.686142 1_555
Ga15 Ga58 2.745931 1_555
Ga15 Ga56 2.745931 1_555
Ga15 Ga41 2.893962 1_555
Ga15 Ga36 2.893962 1_555
Ga16 Ru14 2.579935 1_555
Ga16 Ru5 2.612484 1_555
Ga16 Ga41 2.738271 1_555
Ga16 Ga50 2.760824 1_555
Ga16 Ga45 2.783456 1_555
Ga16 Ga35 2.843353 1_555
Ga16 Ga5 2.913788 1_555
Ga16 Ga6 2.991404 1_555
Ga17 Ru15 2.579935 1_555
Ga17 Ru3 2.612484 1_555
Ga17 Ga39 2.738271 1_555
Ga17 Ga51 2.760824 1_555
Ga17 Ga44 2.783456 1_555
Ga17 Ga34 2.843353 1_555
Ga17 Ga3 2.913788 1_555
Ga17 Ga7 2.991404 1_555
Ga18 Ru11 2.579935 1_455
Ga18 Ru7 2.612484 1_555
Ga18 Ga43 2.738271 1_555
Ga18 Ga48 2.760824 1_555
Ga18 Ga47 2.783456 1_455
Ga18 Ga33 2.843353 1_555
Ga18 Ga7 2.913788 1_555
Ga18 Ga3 2.991404 1_455
Ga19 Ru10 2.579935 1_545
Ga19 Ru1 2.612484 1_545
Ga19 Ga37 2.738271 1_545
Ga19 Ga51 2.760824 1_555
Ga19 Ga44 2.783456 1_555
Ga19 Ga32 2.843353 1_555
Ga19 Ga2 2.991404 1_545
Ga20 Ru13 2.579935 1_655
Ga20 Ru6 2.612484 1_555
Ga20 Ga42 2.738271 1_555
Ga20 Ga49 2.760824 1_555
Ga20 Ga46 2.783456 1_655
Ga20 Ga31 2.843353 1_555
Ga20 Ga6 2.913788 1_555
Ga20 Ga5 2.991404 1_655
Ga21 Ru12 2.579935 1_565
Ga21 Ru0 2.612484 1_565
Ga21 Ga36 2.738271 1_565
Ga21 Ga50 2.760824 1_555
Ga21 Ga45 2.783456 1_555
Ga21 Ga30 2.843353 1_555
Ga21 Ga4 2.991404 1_565
Ga22 Ru8 2.579935 1_665
Ga22 Ru4 2.612484 1_565
Ga22 Ga40 2.738271 1_565
Ga22 Ga49 2.760824 1_555
Ga22 Ga46 2.783456 1_655
Ga22 Ga29 2.843353 1_555
Ga22 Ga4 2.913788 1_565
Ga23 Ru9 2.579935 1_445
Ga23 Ru2 2.612484 1_545
Ga23 Ga38 2.738271 1_545
Ga23 Ga48 2.760824 1_555
Ga23 Ga47 2.783456 1_455
Ga23 Ga28 2.843353 1_555
Ga24 Ru5 2.600956 1_555
Ga24 Ru0 2.600956 1_555
Ga24 Ga5 2.758071 1_555
Ga24 Ga41 2.960336 1_555
Ga24 Ga36 2.960336 1_555
Ga25 Ru1 2.600956 1_555
Ga25 Ru3 2.600956 1_555
Ga25 Ga3 2.758071 1_555
Ga25 Ga37 2.960336 1_555
Ga25 Ga39 2.960336 1_555
Ga26 Ga9 2.567467 1_455
Ga26 Ru2 2.600956 1_555
Ga26 Ru7 2.600956 1_555
Ga26 Ga7 2.758071 1_555
Ga26 Ga38 2.960336 1_555
Ga26 Ga43 2.960336 1_555
Ga27 Ga8 2.567467 1_655
Ga27 Ru4 2.600956 1_555
Ga27 Ru6 2.600956 1_555
Ga27 Ga6 2.758071 1_555
Ga27 Ga4 2.758071 1_555
Ga27 Ga42 2.960336 1_555
Ga27 Ga40 2.960336 1_555
Ga28 Ru1 2.552005 1_445
Ga28 Ru10 2.556304 1_545
Ga28 Ga54 2.900206 1_545
Ga29 Ru0 2.552005 1_665
Ga29 Ru12 2.556304 1_565
Ga29 Ga56 2.900206 1_565
Ga29 Ga4 2.986712 1_565
Ga30 Ru4 2.552005 1_565
Ga30 Ru8 2.556304 1_565
Ga30 Ga52 2.900206 1_565
Ga30 Ga4 2.949074 1_565
Ga31 Ru5 2.552005 1_655
Ga31 Ru14 2.556304 1_555
Ga31 Ga58 2.900206 1_555
Ga31 Ga5 2.949074 1_655
Ga31 Ga6 2.986712 1_555
Ga32 Ru2 2.552005 1_545
Ga32 Ru9 2.556304 1_545
Ga32 Ga53 2.900206 1_545
Ga33 Ru3 2.552005 1_455
Ga33 Ru15 2.556304 1_555
Ga33 Ga59 2.900206 1_555
Ga33 Ga7 2.986712 1_555
Ga34 Ru7 2.552005 1_555
Ga34 Ru11 2.556304 1_555
Ga34 Ga55 2.900206 1_555
Ga34 Ga7 2.949074 1_555
Ga35 Ru6 2.552005 1_555
Ga35 Ru13 2.556304 1_555
Ga35 Ga57 2.900206 1_555
Ga35 Ga6 2.949074 1_555
Ga35 Ga5 2.986712 1_555
Ga36 Ru12 2.687177 1_555
Ga36 Ru0 2.705547 1_555
Ga36 Ru10 2.715665 1_545
Ga36 Ga37 2.753487 1_545
Ga36 Ga44 2.777129 1_555
Ga36 Ga54 2.813737 1_545
Ga37 Ru10 2.687177 1_555
Ga37 Ru1 2.705547 1_555
Ga37 Ru12 2.715665 1_565
Ga37 Ga45 2.777129 1_555
Ga37 Ga56 2.813737 1_565
Ga38 Ru9 2.687177 1_455
Ga38 Ru2 2.705547 1_555
Ga38 Ru8 2.715665 1_566
Ga38 Ga40 2.753487 1_466
Ga38 Ga46 2.777129 1_556
Ga38 Ga52 2.813737 1_566
Ga39 Ru15 2.687177 1_555
Ga39 Ru3 2.705547 1_555
Ga39 Ru14 2.715665 1_555
Ga39 Ga41 2.753487 1_555
Ga39 Ga45 2.777129 1_555
Ga39 Ga58 2.813737 1_555
Ga40 Ru8 2.687177 1_655
Ga40 Ru4 2.705547 1_555
Ga40 Ru9 2.715665 1_544
Ga40 Ga47 2.777129 1_554
Ga40 Ga53 2.813737 1_544
Ga41 Ru14 2.687177 1_555
Ga41 Ru5 2.705547 1_555
Ga41 Ru15 2.715665 1_555
Ga41 Ga44 2.777129 1_555
Ga41 Ga59 2.813737 1_555
Ga42 Ru13 2.687177 1_655
Ga42 Ru6 2.705547 1_555
Ga42 Ru11 2.715665 1_554
Ga42 Ga43 2.753487 1_654
Ga42 Ga47 2.777129 1_554
Ga42 Ga55 2.813737 1_554
Ga43 Ru11 2.687177 1_455
Ga43 Ru7 2.705547 1_555
Ga43 Ru13 2.715665 1_556
Ga43 Ga46 2.777129 1_556
Ga43 Ga57 2.813737 1_556
Ga44 Ru15 2.635175 1_555
Ga44 Ru10 2.635175 1_545
Ga45 Ru12 2.635175 1_565
Ga45 Ru14 2.635175 1_555
Ga46 Ru13 2.635175 1_555
Ga46 Ru8 2.635175 1_565
Ga47 Ru11 2.635175 1_555
Ga47 Ru9 2.635175 1_545
Ga48 Ru7 2.586866 1_555
Ga48 Ru2 2.586866 1_545
Ga48 Ga57 2.755532 1_556
Ga48 Ga52 2.755532 1_556
Ga49 Ru6 2.586866 1_555
Ga49 Ru4 2.586866 1_565
Ga49 Ga55 2.755532 1_554
Ga49 Ga53 2.755532 1_554
Ga50 Ru5 2.586866 1_555
Ga50 Ru0 2.586866 1_565
Ga50 Ga59 2.755532 1_555
Ga50 Ga54 2.755532 1_555
Ga51 Ru3 2.586866 1_555
Ga51 Ru1 2.586866 1_545
Ga51 Ga58 2.755532 1_555
Ga51 Ga56 2.755532 1_555
Ga52 Ru4 2.617125 1_555
Ga52 Ru2 2.637097 1_544
Ga52 Ru8 2.652391 1_555
Ga52 Ga53 2.840577 1_544
Ga53 Ru2 2.617125 1_555
Ga53 Ru4 2.637097 1_566
Ga53 Ru9 2.652391 1_555
Ga54 Ru1 2.617125 1_455
Ga54 Ru0 2.637097 1_565
Ga54 Ru10 2.652391 1_555
Ga54 Ga56 2.840577 1_465
Ga55 Ru7 2.617125 1_555
Ga55 Ru6 2.637097 1_556
Ga55 Ru11 2.652391 1_555
Ga55 Ga57 2.840577 1_556
Ga56 Ru0 2.617125 1_655
Ga56 Ru1 2.637097 1_545
Ga56 Ru12 2.652391 1_555
Ga57 Ru6 2.617125 1_555
Ga57 Ru7 2.637097 1_554
Ga57 Ru13 2.652391 1_555
Ga58 Ru5 2.617125 1_655
Ga58 Ru3 2.637097 1_555
Ga58 Ru14 2.652391 1_555
Ga58 Ga59 2.840577 1_655
Ga59 Ru3 2.617125 1_455
Ga59 Ru5 2.637097 1_555
Ga59 Ru15 2.652391 1_555
