# generated using pymatgen
data_Li4CrTe2WO12
_symmetry_space_group_name_H-M   'P 1'
_cell_length_a   7.54082358
_cell_length_b   8.98522196
_cell_length_c   7.54747225
_cell_angle_alpha   113.46744856
_cell_angle_beta   93.09774557
_cell_angle_gamma   66.74986284
_symmetry_Int_Tables_number   1
_chemical_formula_structural   Li4CrTe2WO12
_chemical_formula_sum   'Li8 Cr2 Te4 W2 O24'
_cell_volume   427.75247517
_cell_formula_units_Z   2
loop_
 _symmetry_equiv_pos_site_id
 _symmetry_equiv_pos_as_xyz
  1  'x, y, z'
loop_
 _atom_site_type_symbol
 _atom_site_label
 _atom_site_symmetry_multiplicity
 _atom_site_fract_x
 _atom_site_fract_y
 _atom_site_fract_z
 _atom_site_occupancy
  Li  Li0  1  0.06536100  0.30383900  0.92647200  1
  Li  Li1  1  0.56618000  0.30610700  0.43051400  1
  Li  Li2  1  0.31996200  0.76574400  0.17960000  1
  Li  Li3  1  0.82771200  0.76597100  0.66994700  1
  Li  Li4  1  0.87581500  0.74686600  0.13801900  1
  Li  Li5  1  0.37465100  0.74248100  0.63191100  1
  Li  Li6  1  0.54759300  0.30911200  0.94782800  1
  Li  Li7  1  0.04216300  0.30814500  0.45380200  1
  Cr  Cr0  1  0.24227200  0.49945400  0.25158100  1
  Cr  Cr1  1  0.74871100  0.50166800  0.75954900  1
  Te  Te0  1  0.24982900  0.50302800  0.75331600  1
  Te  Te1  1  0.75108600  0.50417600  0.25329200  1
  Te  Te2  1  0.99084100  0.00256100  0.50964700  1
  Te  Te3  1  0.49577400  0.00038900  0.00218600  1
  W  W0  1  0.49647300  0.00482400  0.50184400  1
  W  W1  1  0.99766900  0.00484100  0.00257100  1
  O  O0  1  0.52596700  0.42998400  0.76871000  1
  O  O1  1  0.02791200  0.42472200  0.26733600  1
  O  O2  1  0.18954400  0.75335600  0.93739700  1
  O  O3  1  0.70036700  0.75401200  0.42853100  1
  O  O4  1  0.04716600  0.06558100  0.25878800  1
  O  O5  1  0.54412200  0.05665900  0.77359300  1
  O  O6  1  0.23533900  0.42824700  0.95614700  1
  O  O7  1  0.72945000  0.43827900  0.46212700  1
  O  O8  1  0.31146500  0.91892800  0.52068000  1
  O  O9  1  0.78439400  0.93655300  0.03193800  1
  O  O10  1  0.08263400  0.74334100  0.29764600  1
  O  O11  1  0.57354900  0.76303400  0.80880700  1
  O  O12  1  0.94086700  0.25856700  0.68468000  1
  O  O13  1  0.45078100  0.23712600  0.16995000  1
  O  O14  1  0.70164000  0.06527000  0.45276400  1
  O  O15  1  0.22300000  0.05404300  0.94452700  1
  O  O16  1  0.79504500  0.55353100  0.03664700  1
  O  O17  1  0.29766300  0.54425300  0.53069700  1
  O  O18  1  0.96963800  0.92428400  0.72409300  1
  O  O19  1  0.46501800  0.93251900  0.21351400  1
  O  O20  1  0.82046400  0.24377900  0.04953700  1
  O  O21  1  0.31067800  0.24370200  0.56070900  1
  O  O22  1  0.48610600  0.54673600  0.20820100  1
  O  O23  1  0.98149600  0.55668700  0.71449800  1
loop_
_geom_bond_atom_site_label_1
_geom_bond_atom_site_label_2
_geom_bond_distance
_geom_bond_site_symmetry_2
Li0 O6 1.960465 1_555
Li0 O12 1.975400 1_455
Li0 O15 2.142189 1_555
Li0 O16 2.228635 1_456
Li0 O1 2.342837 1_556
Li0 O20 2.436339 1_456
Li1 O7 1.969789 1_555
Li1 O13 2.068569 1_555
Li1 O14 2.068855 1_555
Li1 O17 2.169470 1_555
Li1 O0 2.323920 1_555
Li1 O21 2.547260 1_555
Li2 O22 1.962472 1_555
Li2 O2 2.012785 1_554
Li2 O19 2.113260 1_555
Li2 O10 2.153308 1_555
Li2 O8 2.377332 1_555
Li2 O4 2.514381 1_565
Li3 O23 1.932311 1_555
Li3 O3 1.997522 1_555
Li3 O18 2.006866 1_555
Li3 O11 2.247553 1_555
Li3 O5 2.480096 1_565
Li3 O9 2.507262 1_556
Li4 O10 1.916540 1_655
Li4 O16 1.923657 1_555
Li4 O9 2.029963 1_555
Li4 O3 2.587755 1_555
Li5 O17 1.943645 1_555
Li5 O8 1.966162 1_555
Li5 O11 1.967761 1_555
Li6 O0 2.009839 1_555
Li6 O20 2.098202 1_556
Li6 O5 2.131375 1_555
Li6 O22 2.147236 1_556
Li6 O6 2.160254 1_555
Li6 O13 2.265073 1_556
Li7 O1 2.039179 1_555
Li7 O4 2.074635 1_555
Li7 O21 2.087138 1_555
Li7 O7 2.170829 1_455
Li7 O12 2.202075 1_455
Li7 O23 2.204306 1_455
Cr0 O10 1.930781 1_555
Cr0 O1 2.004805 1_555
Cr0 O17 2.033866 1_555
Cr0 O6 2.064356 1_554
Cr0 O13 2.104698 1_555
Cr0 O22 2.112132 1_555
Cr1 O12 1.948536 1_555
Cr1 O16 1.996621 1_556
Cr1 O0 2.035459 1_555
Cr1 O11 2.075273 1_555
Cr1 O23 2.079640 1_555
Cr1 O7 2.096741 1_555
O0 Te0 1.932843 1_555
O1 Te1 1.933476 1_455
O2 Te0 1.992025 1_555
O2 W1 2.012934 1_466
O3 Te1 1.986701 1_555
O3 W0 2.027831 1_565
O4 W1 1.849043 1_455
O4 Te2 2.283965 1_455
O5 W0 1.960702 1_555
O5 Te3 2.067239 1_556
O6 Te0 1.924124 1_555
O7 Te1 1.925847 1_555
O8 W0 1.876465 1_565
O8 Te2 2.238508 1_465
O9 W1 1.984455 1_565
O9 Te3 2.044619 1_565
O10 Te2 2.083969 1_465
O11 Te3 1.910083 1_566
O12 Te2 2.031656 1_555
O13 Te3 1.890653 1_555
O14 W0 1.926493 1_555
O14 Te2 2.092631 1_555
O15 Te3 1.985009 1_556
O15 W1 2.025425 1_456
O16 Te1 1.931925 1_555
O17 Te0 1.938327 1_555
O18 W1 1.961449 1_566
O18 Te2 2.040412 1_565
O19 Te3 1.973831 1_565
O19 W0 2.038104 1_565
O20 W1 1.923703 1_555
O20 Te1 2.089923 1_555
O21 W0 1.923766 1_555
O21 Te0 2.069623 1_555
O22 Te1 1.918755 1_555
O23 Te0 1.921163 1_655
