# generated using pymatgen
data_Cu3As4
_symmetry_space_group_name_H-M   'P 1'
_cell_length_a   21.78388022
_cell_length_b   21.78388022
_cell_length_c   21.78388022
_cell_angle_alpha   164.65943443
_cell_angle_beta   131.34320835
_cell_angle_gamma   51.32233490
_symmetry_Int_Tables_number   1
_chemical_formula_structural   Cu3As4
_chemical_formula_sum   'Cu48 As64'
_cell_volume   2049.37434200
_cell_formula_units_Z   16
loop_
 _symmetry_equiv_pos_site_id
 _symmetry_equiv_pos_as_xyz
  1  'x, y, z'
loop_
 _atom_site_type_symbol
 _atom_site_label
 _atom_site_symmetry_multiplicity
 _atom_site_fract_x
 _atom_site_fract_y
 _atom_site_fract_z
 _atom_site_occupancy
  Cu  Cu0_0  1  0.14621000  0.21744600  0.42876400  1
  Cu  Cu0_1  1  0.14621000  0.21744600  0.92876400  1
  Cu  Cu0_2  1  0.14621000  0.71744600  0.42876400  1
  Cu  Cu0_3  1  0.14621000  0.71744600  0.92876400  1
  Cu  Cu0_4  1  0.64621000  0.21744600  0.42876400  1
  Cu  Cu0_5  1  0.64621000  0.21744600  0.92876400  1
  Cu  Cu0_6  1  0.64621000  0.71744600  0.42876400  1
  Cu  Cu0_7  1  0.64621000  0.71744600  0.92876400  1
  Cu  Cu1_0  1  0.35379000  0.28255400  0.07123600  1
  Cu  Cu1_1  1  0.35379000  0.28255400  0.57123600  1
  Cu  Cu1_2  1  0.35379000  0.78255400  0.07123600  1
  Cu  Cu1_3  1  0.35379000  0.78255400  0.57123600  1
  Cu  Cu1_4  1  0.85379000  0.28255400  0.07123600  1
  Cu  Cu1_5  1  0.85379000  0.28255400  0.57123600  1
  Cu  Cu1_6  1  0.85379000  0.78255400  0.07123600  1
  Cu  Cu1_7  1  0.85379000  0.78255400  0.57123600  1
  Cu  Cu2_0  1  0.21131800  0.28255400  0.42876400  1
  Cu  Cu2_1  1  0.21131800  0.28255400  0.92876400  1
  Cu  Cu2_2  1  0.21131800  0.78255400  0.42876400  1
  Cu  Cu2_3  1  0.21131800  0.78255400  0.92876400  1
  Cu  Cu2_4  1  0.71131800  0.28255400  0.42876400  1
  Cu  Cu2_5  1  0.71131800  0.28255400  0.92876400  1
  Cu  Cu2_6  1  0.71131800  0.78255400  0.42876400  1
  Cu  Cu2_7  1  0.71131800  0.78255400  0.92876400  1
  Cu  Cu3_0  1  0.28868200  0.21744600  0.07123600  1
  Cu  Cu3_1  1  0.28868200  0.21744600  0.57123600  1
  Cu  Cu3_2  1  0.28868200  0.71744600  0.07123600  1
  Cu  Cu3_3  1  0.28868200  0.71744600  0.57123600  1
  Cu  Cu3_4  1  0.78868200  0.21744600  0.07123600  1
  Cu  Cu3_5  1  0.78868200  0.21744600  0.57123600  1
  Cu  Cu3_6  1  0.78868200  0.71744600  0.07123600  1
  Cu  Cu3_7  1  0.78868200  0.71744600  0.57123600  1
  Cu  Cu4_0  1  0.15387150  0.15387150  0.00000000  1
  Cu  Cu4_1  1  0.15387150  0.15387150  0.50000000  1
  Cu  Cu4_2  1  0.15387150  0.65387150  0.00000000  1
  Cu  Cu4_3  1  0.15387150  0.65387150  0.50000000  1
  Cu  Cu4_4  1  0.65387150  0.15387150  0.00000000  1
  Cu  Cu4_5  1  0.65387150  0.15387150  0.50000000  1
  Cu  Cu4_6  1  0.65387150  0.65387150  0.00000000  1
  Cu  Cu4_7  1  0.65387150  0.65387150  0.50000000  1
  Cu  Cu5_0  1  0.34612850  0.34612850  0.00000000  1
  Cu  Cu5_1  1  0.34612850  0.34612850  0.50000000  1
  Cu  Cu5_2  1  0.34612850  0.84612850  0.00000000  1
  Cu  Cu5_3  1  0.34612850  0.84612850  0.50000000  1
  Cu  Cu5_4  1  0.84612850  0.34612850  0.00000000  1
  Cu  Cu5_5  1  0.84612850  0.34612850  0.50000000  1
  Cu  Cu5_6  1  0.84612850  0.84612850  0.00000000  1
  Cu  Cu5_7  1  0.84612850  0.84612850  0.50000000  1
  As  As0_0  1  0.05512950  0.41931900  0.13581050  1
  As  As0_1  1  0.05512950  0.41931900  0.63581050  1
  As  As0_2  1  0.05512950  0.91931900  0.13581050  1
  As  As0_3  1  0.05512950  0.91931900  0.63581050  1
  As  As0_4  1  0.55512950  0.41931900  0.13581050  1
  As  As0_5  1  0.55512950  0.41931900  0.63581050  1
  As  As0_6  1  0.55512950  0.91931900  0.13581050  1
  As  As0_7  1  0.55512950  0.91931900  0.63581050  1
  As  As1_0  1  0.44487050  0.08068100  0.36418950  1
  As  As1_1  1  0.44487050  0.08068100  0.86418950  1
  As  As1_2  1  0.44487050  0.58068100  0.36418950  1
  As  As1_3  1  0.44487050  0.58068100  0.86418950  1
  As  As1_4  1  0.94487050  0.08068100  0.36418950  1
  As  As1_5  1  0.94487050  0.08068100  0.86418950  1
  As  As1_6  1  0.94487050  0.58068100  0.36418950  1
  As  As1_7  1  0.94487050  0.58068100  0.86418950  1
  As  As2_0  1  0.21649150  0.08068100  0.13581050  1
  As  As2_1  1  0.21649150  0.08068100  0.63581050  1
  As  As2_2  1  0.21649150  0.58068100  0.13581050  1
  As  As2_3  1  0.21649150  0.58068100  0.63581050  1
  As  As2_4  1  0.71649150  0.08068100  0.13581050  1
  As  As2_5  1  0.71649150  0.08068100  0.63581050  1
  As  As2_6  1  0.71649150  0.58068100  0.13581050  1
  As  As2_7  1  0.71649150  0.58068100  0.63581050  1
  As  As3_0  1  0.28350850  0.41931900  0.36418950  1
  As  As3_1  1  0.28350850  0.41931900  0.86418950  1
  As  As3_2  1  0.28350850  0.91931900  0.36418950  1
  As  As3_3  1  0.28350850  0.91931900  0.86418950  1
  As  As3_4  1  0.78350850  0.41931900  0.36418950  1
  As  As3_5  1  0.78350850  0.41931900  0.86418950  1
  As  As3_6  1  0.78350850  0.91931900  0.36418950  1
  As  As3_7  1  0.78350850  0.91931900  0.86418950  1
  As  As4_0  1  0.08879850  0.00000000  0.08879850  1
  As  As4_1  1  0.08879850  0.00000000  0.58879850  1
  As  As4_2  1  0.08879850  0.50000000  0.08879850  1
  As  As4_3  1  0.08879850  0.50000000  0.58879850  1
  As  As4_4  1  0.58879850  0.00000000  0.08879850  1
  As  As4_5  1  0.58879850  0.00000000  0.58879850  1
  As  As4_6  1  0.58879850  0.50000000  0.08879850  1
  As  As4_7  1  0.58879850  0.50000000  0.58879850  1
  As  As5_0  1  0.41120150  0.00000000  0.41120150  1
  As  As5_1  1  0.41120150  0.00000000  0.91120150  1
  As  As5_2  1  0.41120150  0.50000000  0.41120150  1
  As  As5_3  1  0.41120150  0.50000000  0.91120150  1
  As  As5_4  1  0.91120150  0.00000000  0.41120150  1
  As  As5_5  1  0.91120150  0.00000000  0.91120150  1
  As  As5_6  1  0.91120150  0.50000000  0.41120150  1
  As  As5_7  1  0.91120150  0.50000000  0.91120150  1
  As  As6_0  1  0.09978350  0.34978350  0.25000000  1
  As  As6_1  1  0.09978350  0.34978350  0.75000000  1
  As  As6_2  1  0.09978350  0.84978350  0.25000000  1
  As  As6_3  1  0.09978350  0.84978350  0.75000000  1
  As  As6_4  1  0.59978350  0.34978350  0.25000000  1
  As  As6_5  1  0.59978350  0.34978350  0.75000000  1
  As  As6_6  1  0.59978350  0.84978350  0.25000000  1
  As  As6_7  1  0.59978350  0.84978350  0.75000000  1
  As  As7_0  1  0.40021650  0.15021650  0.25000000  1
  As  As7_1  1  0.40021650  0.15021650  0.75000000  1
  As  As7_2  1  0.40021650  0.65021650  0.25000000  1
  As  As7_3  1  0.40021650  0.65021650  0.75000000  1
  As  As7_4  1  0.90021650  0.15021650  0.25000000  1
  As  As7_5  1  0.90021650  0.15021650  0.75000000  1
  As  As7_6  1  0.90021650  0.65021650  0.25000000  1
  As  As7_7  1  0.90021650  0.65021650  0.75000000  1
loop_
_geom_bond_atom_site_label_1
_geom_bond_atom_site_label_2
_geom_bond_distance
_geom_bond_site_symmetry_2
Cu0_0 Cu2_0 2.556837 1_555
Cu0_0 Cu3_1 2.557150 1_555
Cu0_0 Cu4_1 2.804967 1_555
Cu0_0 Cu0_3 2.907542 1_544
Cu0_0 Cu0_3 2.907542 1_555
Cu0_1 Cu2_1 2.556837 1_555
Cu0_1 Cu3_0 2.557150 1_556
Cu0_1 Cu4_0 2.804967 1_556
Cu0_1 Cu0_2 2.907542 1_556
Cu0_1 Cu0_2 2.907542 1_545
Cu0_2 Cu2_2 2.556837 1_555
Cu0_2 Cu3_3 2.557150 1_555
Cu0_2 Cu4_3 2.804967 1_555
Cu0_3 Cu2_3 2.556837 1_555
Cu0_3 Cu3_2 2.557150 1_556
Cu0_3 Cu4_2 2.804967 1_556
Cu0_4 Cu2_4 2.556837 1_555
Cu0_4 Cu3_5 2.557150 1_555
Cu0_4 Cu4_5 2.804967 1_555
Cu0_4 Cu0_7 2.907542 1_544
Cu0_4 Cu0_7 2.907542 1_555
Cu0_5 Cu2_5 2.556837 1_555
Cu0_5 Cu3_4 2.557150 1_556
Cu0_5 Cu4_4 2.804967 1_556
Cu0_5 Cu0_6 2.907542 1_556
Cu0_5 Cu0_6 2.907542 1_545
Cu0_6 Cu2_6 2.556837 1_555
Cu0_6 Cu3_7 2.557150 1_555
Cu0_6 Cu4_7 2.804967 1_555
Cu0_7 Cu2_7 2.556837 1_555
Cu0_7 Cu3_6 2.557150 1_556
Cu0_7 Cu4_6 2.804967 1_556
Cu1_0 Cu3_0 2.556837 1_555
Cu1_0 Cu2_1 2.557150 1_554
Cu1_0 Cu5_0 2.804967 1_555
Cu1_0 Cu1_3 2.907542 1_555
Cu1_0 Cu1_3 2.907542 1_544
Cu1_1 Cu3_1 2.556837 1_555
Cu1_1 Cu2_0 2.557150 1_555
Cu1_1 Cu5_1 2.804967 1_555
Cu1_1 Cu1_2 2.907542 1_556
Cu1_1 Cu1_2 2.907542 1_545
Cu1_2 Cu3_2 2.556837 1_555
Cu1_2 Cu2_3 2.557150 1_554
Cu1_2 Cu5_2 2.804967 1_555
Cu1_3 Cu3_3 2.556837 1_555
Cu1_3 Cu2_2 2.557150 1_555
Cu1_3 Cu5_3 2.804967 1_555
Cu1_4 Cu3_4 2.556837 1_555
Cu1_4 Cu2_5 2.557150 1_554
Cu1_4 Cu5_4 2.804967 1_555
Cu1_4 Cu1_7 2.907542 1_544
Cu1_4 Cu1_7 2.907542 1_555
Cu1_5 Cu3_5 2.556837 1_555
Cu1_5 Cu2_4 2.557150 1_555
Cu1_5 Cu5_5 2.804967 1_555
Cu1_5 Cu1_6 2.907542 1_545
Cu1_5 Cu1_6 2.907542 1_556
Cu1_6 Cu3_6 2.556837 1_555
Cu1_6 Cu2_7 2.557150 1_554
Cu1_6 Cu5_6 2.804967 1_555
Cu1_7 Cu3_7 2.556837 1_555
Cu1_7 Cu2_6 2.557150 1_555
Cu1_7 Cu5_7 2.804967 1_555
Cu2_0 Cu5_1 2.804967 1_555
Cu2_0 Cu2_3 2.907542 1_544
Cu2_0 Cu2_3 2.907542 1_555
Cu2_1 Cu5_0 2.804967 1_556
Cu2_1 Cu2_2 2.907542 1_556
Cu2_1 Cu2_2 2.907542 1_545
Cu2_2 Cu5_3 2.804967 1_555
Cu2_3 Cu5_2 2.804967 1_556
Cu2_4 Cu5_5 2.804967 1_555
Cu2_4 Cu2_7 2.907542 1_555
Cu2_4 Cu2_7 2.907542 1_544
Cu2_5 Cu5_4 2.804967 1_556
Cu2_5 Cu2_6 2.907542 1_556
Cu2_5 Cu2_6 2.907542 1_545
Cu2_6 Cu5_7 2.804967 1_555
Cu2_7 Cu5_6 2.804967 1_556
Cu3_0 Cu4_0 2.804967 1_555
Cu3_0 Cu3_3 2.907542 1_544
Cu3_0 Cu3_3 2.907542 1_555
Cu3_1 Cu4_1 2.804967 1_555
Cu3_1 Cu3_2 2.907542 1_556
Cu3_1 Cu3_2 2.907542 1_545
Cu3_2 Cu4_2 2.804967 1_555
Cu3_3 Cu4_3 2.804967 1_555
Cu3_4 Cu4_4 2.804967 1_555
Cu3_4 Cu3_7 2.907542 1_544
Cu3_4 Cu3_7 2.907542 1_555
Cu3_5 Cu4_5 2.804967 1_555
Cu3_5 Cu3_6 2.907542 1_545
Cu3_5 Cu3_6 2.907542 1_556
Cu3_6 Cu4_6 2.804967 1_555
Cu3_7 Cu4_7 2.804967 1_555
As0_0 Cu0_2 2.505961 1_555
As0_0 Cu0_1 2.505961 1_554
As0_0 Cu4_3 2.584956 1_555
As0_0 Cu4_0 2.584956 1_555
As0_1 Cu0_0 2.505961 1_555
As0_1 Cu0_3 2.505961 1_555
As0_1 Cu4_1 2.584956 1_555
As0_1 Cu4_2 2.584956 1_556
As0_2 Cu0_3 2.505961 1_554
As0_2 Cu0_0 2.505961 1_565
As0_2 Cu4_2 2.584956 1_555
As0_2 Cu4_1 2.584956 1_565
As0_3 Cu0_1 2.505961 1_565
As0_3 Cu0_2 2.505961 1_555
As0_3 Cu4_3 2.584956 1_555
As0_3 Cu4_0 2.584956 1_566
As0_4 Cu0_5 2.505961 1_554
As0_4 Cu0_6 2.505961 1_555
As0_4 Cu4_7 2.584956 1_555
As0_4 Cu4_4 2.584956 1_555
As0_5 Cu0_4 2.505961 1_555
As0_5 Cu0_7 2.505961 1_555
As0_5 Cu4_5 2.584956 1_555
As0_5 Cu4_6 2.584956 1_556
As0_6 Cu0_7 2.505961 1_554
As0_6 Cu0_4 2.505961 1_565
As0_6 Cu4_5 2.584956 1_565
As0_6 Cu4_6 2.584956 1_555
As0_7 Cu0_5 2.505961 1_565
As0_7 Cu0_6 2.505961 1_555
As0_7 Cu4_7 2.584956 1_555
As0_7 Cu4_4 2.584956 1_566
As1_0 Cu1_1 2.505961 1_555
As1_0 Cu1_2 2.505961 1_545
As1_0 Cu5_2 2.584956 1_545
As1_0 Cu5_1 2.584956 1_555
As1_1 Cu1_0 2.505961 1_556
As1_1 Cu1_3 2.505961 1_545
As1_1 Cu5_0 2.584956 1_556
As1_1 Cu5_3 2.584956 1_545
As1_2 Cu1_3 2.505961 1_555
As1_2 Cu1_0 2.505961 1_555
As1_2 Cu5_0 2.584956 1_555
As1_2 Cu5_3 2.584956 1_555
As1_3 Cu1_2 2.505961 1_556
As1_3 Cu1_1 2.505961 1_555
As1_3 Cu5_2 2.584956 1_556
As1_3 Cu5_1 2.584956 1_555
As1_4 Cu1_5 2.505961 1_555
As1_4 Cu1_6 2.505961 1_545
As1_4 Cu5_6 2.584956 1_545
As1_4 Cu5_5 2.584956 1_555
As1_5 Cu1_4 2.505961 1_556
As1_5 Cu1_7 2.505961 1_545
As1_5 Cu5_4 2.584956 1_556
As1_5 Cu5_7 2.584956 1_545
As1_6 Cu1_7 2.505961 1_555
As1_6 Cu1_4 2.505961 1_555
As1_6 Cu5_7 2.584956 1_555
As1_6 Cu5_4 2.584956 1_555
As1_7 Cu1_6 2.505961 1_556
As1_7 Cu1_5 2.505961 1_555
As1_7 Cu5_6 2.584956 1_556
As1_7 Cu5_5 2.584956 1_555
As2_0 Cu2_3 2.505961 1_544
As2_0 Cu2_0 2.505961 1_555
As2_0 Cu5_1 2.584956 1_555
As2_0 Cu5_2 2.584956 1_545
As2_1 Cu2_2 2.505961 1_545
As2_1 Cu2_1 2.505961 1_555
As2_1 Cu5_3 2.584956 1_545
As2_1 Cu5_0 2.584956 1_556
As2_2 Cu2_1 2.505961 1_554
As2_2 Cu2_2 2.505961 1_555
As2_2 Cu5_3 2.584956 1_555
As2_2 Cu5_0 2.584956 1_555
As2_3 Cu2_3 2.505961 1_555
As2_3 Cu2_0 2.505961 1_555
As2_3 Cu5_1 2.584956 1_555
As2_3 Cu5_2 2.584956 1_556
As2_4 Cu2_7 2.505961 1_544
As2_4 Cu2_4 2.505961 1_555
As2_4 Cu5_5 2.584956 1_555
As2_4 Cu5_6 2.584956 1_545
As2_5 Cu2_5 2.505961 1_555
As2_5 Cu2_6 2.505961 1_545
As2_5 Cu5_4 2.584956 1_556
As2_5 Cu5_7 2.584956 1_545
As2_6 Cu2_5 2.505961 1_554
As2_6 Cu2_6 2.505961 1_555
As2_6 Cu5_4 2.584956 1_555
As2_6 Cu5_7 2.584956 1_555
As2_7 Cu2_7 2.505961 1_555
As2_7 Cu2_4 2.505961 1_555
As2_7 Cu5_6 2.584956 1_556
As2_7 Cu5_5 2.584956 1_555
As3_0 Cu3_3 2.505961 1_555
As3_0 Cu3_0 2.505961 1_555
As3_0 Cu4_0 2.584956 1_555
As3_0 Cu4_3 2.584956 1_555
As3_1 Cu3_1 2.505961 1_555
As3_1 Cu3_2 2.505961 1_556
As3_1 Cu4_2 2.584956 1_556
As3_1 Cu4_1 2.584956 1_555
As3_2 Cu3_1 2.505961 1_565
As3_2 Cu3_2 2.505961 1_555
As3_2 Cu4_2 2.584956 1_555
As3_2 Cu4_1 2.584956 1_565
As3_3 Cu3_0 2.505961 1_566
As3_3 Cu3_3 2.505961 1_555
As3_3 Cu4_0 2.584956 1_566
As3_3 Cu4_3 2.584956 1_555
As3_4 Cu3_4 2.505961 1_555
As3_4 Cu3_7 2.505961 1_555
As3_4 Cu4_4 2.584956 1_555
As3_4 Cu4_7 2.584956 1_555
As3_5 Cu3_6 2.505961 1_556
As3_5 Cu3_5 2.505961 1_555
As3_5 Cu4_6 2.584956 1_556
As3_5 Cu4_5 2.584956 1_555
As3_6 Cu3_6 2.505961 1_555
As3_6 Cu3_5 2.505961 1_565
As3_6 Cu4_5 2.584956 1_565
As3_6 Cu4_6 2.584956 1_555
As3_7 Cu3_4 2.505961 1_566
As3_7 Cu3_7 2.505961 1_555
As3_7 Cu4_4 2.584956 1_566
As3_7 Cu4_7 2.584956 1_555
As4_0 Cu2_3 2.520950 1_544
As4_0 Cu2_0 2.520950 1_555
As4_0 Cu0_3 2.520950 1_544
As4_0 Cu0_0 2.520950 1_555
As4_1 Cu2_1 2.520950 1_555
As4_1 Cu2_2 2.520950 1_545
As4_1 Cu0_2 2.520950 1_545
As4_1 Cu0_1 2.520950 1_555
As4_2 Cu2_1 2.520950 1_554
As4_2 Cu2_2 2.520950 1_555
As4_2 Cu0_2 2.520950 1_555
As4_2 Cu0_1 2.520950 1_554
As4_3 Cu2_3 2.520950 1_555
As4_3 Cu2_0 2.520950 1_555
As4_3 Cu0_0 2.520950 1_555
As4_3 Cu0_3 2.520950 1_555
As4_4 Cu2_4 2.520950 1_555
As4_4 Cu2_7 2.520950 1_544
As4_4 Cu0_7 2.520950 1_544
As4_4 Cu0_4 2.520950 1_555
As4_5 Cu2_5 2.520950 1_555
As4_5 Cu2_6 2.520950 1_545
As4_5 Cu0_5 2.520950 1_555
As4_5 Cu0_6 2.520950 1_545
As4_6 Cu2_5 2.520950 1_554
As4_6 Cu2_6 2.520950 1_555
As4_6 Cu0_5 2.520950 1_554
As4_6 Cu0_6 2.520950 1_555
As4_7 Cu2_7 2.520950 1_555
As4_7 Cu2_4 2.520950 1_555
As4_7 Cu0_7 2.520950 1_555
As4_7 Cu0_4 2.520950 1_555
As5_0 Cu1_1 2.520950 1_555
As5_0 Cu1_2 2.520950 1_545
As5_0 Cu3_2 2.520950 1_545
As5_0 Cu3_1 2.520950 1_555
As5_1 Cu1_0 2.520950 1_556
As5_1 Cu1_3 2.520950 1_545
As5_1 Cu3_0 2.520950 1_556
As5_1 Cu3_3 2.520950 1_545
As5_2 Cu1_0 2.520950 1_555
As5_2 Cu1_3 2.520950 1_555
As5_2 Cu3_0 2.520950 1_555
As5_2 Cu3_3 2.520950 1_555
As5_3 Cu1_2 2.520950 1_556
As5_3 Cu1_1 2.520950 1_555
As5_3 Cu3_2 2.520950 1_556
As5_3 Cu3_1 2.520950 1_555
As5_4 Cu1_5 2.520950 1_555
As5_4 Cu1_6 2.520950 1_545
As5_4 Cu3_5 2.520950 1_555
As5_4 Cu3_6 2.520950 1_545
As5_5 Cu1_4 2.520950 1_556
As5_5 Cu1_7 2.520950 1_545
As5_5 Cu3_7 2.520950 1_545
As5_5 Cu3_4 2.520950 1_556
As5_6 Cu1_7 2.520950 1_555
As5_6 Cu1_4 2.520950 1_555
As5_6 Cu3_7 2.520950 1_555
As5_6 Cu3_4 2.520950 1_555
As5_7 Cu1_6 2.520950 1_556
As5_7 Cu1_5 2.520950 1_555
As5_7 Cu3_5 2.520950 1_555
As5_7 Cu3_6 2.520950 1_556
As6_0 Cu4_0 2.573935 1_555
As6_0 Cu4_3 2.573935 1_555
As6_1 Cu4_1 2.573935 1_555
As6_1 Cu4_2 2.573935 1_556
As6_2 Cu4_2 2.573935 1_555
As6_2 Cu4_1 2.573935 1_565
As6_3 Cu4_0 2.573935 1_566
As6_3 Cu4_3 2.573935 1_555
As6_4 Cu4_4 2.573935 1_555
As6_4 Cu4_7 2.573935 1_555
As6_5 Cu4_5 2.573935 1_555
As6_5 Cu4_6 2.573935 1_556
As6_6 Cu4_6 2.573935 1_555
As6_6 Cu4_5 2.573935 1_565
As6_7 Cu4_7 2.573935 1_555
As6_7 Cu4_4 2.573935 1_566
As7_0 Cu5_1 2.573935 1_555
As7_0 Cu5_2 2.573935 1_545
As7_1 Cu5_0 2.573935 1_556
As7_1 Cu5_3 2.573935 1_545
As7_2 Cu5_3 2.573935 1_555
As7_2 Cu5_0 2.573935 1_555
As7_3 Cu5_1 2.573935 1_555
As7_3 Cu5_2 2.573935 1_556
As7_4 Cu5_5 2.573935 1_555
As7_4 Cu5_6 2.573935 1_545
As7_5 Cu5_7 2.573935 1_545
As7_5 Cu5_4 2.573935 1_556
As7_6 Cu5_4 2.573935 1_555
As7_6 Cu5_7 2.573935 1_555
As7_7 Cu5_5 2.573935 1_555
As7_7 Cu5_6 2.573935 1_556
