# generated using pymatgen
data_Zr6Be15Co8
_symmetry_space_group_name_H-M   'P 1'
_cell_length_a   7.76222499
_cell_length_b   7.76222397
_cell_length_c   7.76222832
_cell_angle_alpha   59.99903763
_cell_angle_beta   59.99904468
_cell_angle_gamma   59.99900864
_symmetry_Int_Tables_number   1
_chemical_formula_structural   Zr6Be15Co8
_chemical_formula_sum   'Zr6 Be15 Co8'
_cell_volume   330.70005214
_cell_formula_units_Z   1
loop_
 _symmetry_equiv_pos_site_id
 _symmetry_equiv_pos_as_xyz
  1  'x, y, z'
loop_
 _atom_site_type_symbol
 _atom_site_label
 _atom_site_symmetry_multiplicity
 _atom_site_fract_x
 _atom_site_fract_y
 _atom_site_fract_z
 _atom_site_occupancy
  Zr  Zr0  1  0.71492074  0.28506516  0.28508934  1
  Zr  Zr1  1  0.28508151  0.71492046  0.71492534  1
  Zr  Zr2  1  0.28506593  0.71492508  0.28507817  1
  Zr  Zr3  1  0.71491730  0.28508057  0.71491898  1
  Zr  Zr4  1  0.28508855  0.28507397  0.71491708  1
  Zr  Zr5  1  0.71492818  0.71492573  0.28508201  1
  Be  Be0  1  0.32099685  0.32099773  0.32099528  1
  Be  Be1  1  0.67900388  0.67900622  0.67900122  1
  Be  Be2  1  0.32097242  0.32097291  0.03706698  1
  Be  Be3  1  0.32097206  0.03706953  0.32097103  1
  Be  Be4  1  0.67902764  0.67903029  0.96292822  1
  Be  Be5  1  0.67903049  0.96292607  0.67902782  1
  Be  Be6  1  0.03706850  0.32097324  0.32097079  1
  Be  Be7  1  0.96292788  0.67903077  0.67902690  1
  Be  Be8  1  0.50000428  -0.00000186  -0.00000158  1
  Be  Be9  1  0.00000074  0.50000258  0.49999977  1
  Be  Be10  1  -0.00000117  0.50000444  -0.00000041  1
  Be  Be11  1  0.50000222  -0.00000029  0.50000194  1
  Be  Be12  1  -0.00000278  -0.00000159  0.50000518  1
  Be  Be13  1  0.49999905  0.50000248  0.00000207  1
  Be  Be14  1  -0.00000262  -0.00000163  0.99999345  1
  Co  Co0  1  0.12504019  0.12504118  0.12504010  1
  Co  Co1  1  0.87496051  0.87495913  0.87495960  1
  Co  Co2  1  0.12504074  0.12504092  0.62487577  1
  Co  Co3  1  0.12503876  0.62488088  0.12503898  1
  Co  Co4  1  0.87496102  0.87495947  0.37512003  1
  Co  Co5  1  0.87496200  0.37511897  0.87496142  1
  Co  Co6  1  0.62487806  0.12504055  0.12503973  1
  Co  Co7  1  0.37512006  0.87495907  0.87496180  1
loop_
_geom_bond_atom_site_label_1
_geom_bond_atom_site_label_2
_geom_bond_distance
_geom_bond_site_symmetry_2
Be0 Be3 2.204105 1_555
Be0 Be6 2.204106 1_555
Be0 Be2 2.204107 1_555
Be0 Be13 2.252961 1_555
Be0 Be9 2.252978 1_555
Be0 Be11 2.252993 1_555
Be0 Co2 2.308439 1_555
Be0 Co6 2.308439 1_555
Be0 Co3 2.308451 1_555
Be0 Zr2 2.806735 1_555
Be0 Zr0 2.806738 1_555
Be0 Zr4 2.806744 1_555
Be1 Be5 2.204056 1_555
Be1 Be7 2.204077 1_555
Be1 Be4 2.204092 1_555
Be1 Be11 2.252943 1_565
Be1 Be9 2.252969 1_655
Be1 Be13 2.252995 1_556
Be1 Co4 2.308432 1_555
Be1 Co7 2.308449 1_555
Be1 Co5 2.308477 1_555
Be1 Zr5 2.806688 1_555
Be1 Zr1 2.806727 1_555
Be1 Zr3 2.806774 1_555
Be2 Be3 2.203693 1_555
Be2 Be6 2.203694 1_555
Be2 Be8 2.253007 1_555
Be2 Co0 2.308318 1_555
Be2 Co6 2.308392 1_555
Be2 Co3 2.308404 1_555
Be2 Zr1 2.806989 1_554
Be2 Zr4 2.806995 1_554
Be2 Zr3 2.806996 1_554
Be3 Be6 2.203691 1_555
Be3 Be8 2.253002 1_555
Be3 Co0 2.308315 1_555
Be3 Co2 2.308383 1_555
Be3 Co6 2.308389 1_555
Be3 Zr2 2.807026 1_545
Be3 Zr5 2.807033 1_545
Be3 Zr1 2.807043 1_545
Be4 Be5 2.203649 1_555
Be4 Be7 2.203670 1_555
Be4 Be8 2.252965 1_566
Be4 Co1 2.308316 1_555
Be4 Co7 2.308381 1_555
Be4 Co5 2.308407 1_555
Be4 Zr2 2.807080 1_556
Be4 Zr5 2.807085 1_556
Be4 Zr0 2.807129 1_556
Be5 Be7 2.203634 1_555
Be5 Be8 2.252991 1_566
Be5 Co1 2.308322 1_555
Be5 Co4 2.308385 1_555
Be5 Co7 2.308403 1_555
Be5 Zr0 2.806940 1_565
Be5 Zr4 2.806981 1_565
Be5 Zr3 2.807006 1_565
Be6 Be9 2.253139 1_555
Be6 Co0 2.308314 1_555
Be6 Co2 2.308387 1_555
Be6 Co3 2.308397 1_555
Be6 Zr5 2.807006 1_455
Be6 Zr0 2.807008 1_455
Be6 Zr3 2.807022 1_455
Be7 Be9 2.253099 1_655
Be7 Co1 2.308316 1_555
Be7 Co4 2.308379 1_555
Be7 Co5 2.308408 1_555
Be7 Zr2 2.806984 1_655
Be7 Zr1 2.807047 1_655
Be7 Zr4 2.807088 1_655
Be8 Co1 2.376380 1_544
Be8 Co0 2.376430 1_555
Be8 Co6 2.376435 1_555
Be8 Co7 2.376450 1_544
Be8 Zr3 2.771202 1_554
Be8 Zr4 2.771205 1_554
Be8 Zr5 2.771253 1_545
Be8 Zr2 2.771270 1_545
Be9 Co4 2.376384 1_455
Be9 Co3 2.376410 1_555
Be9 Co2 2.376414 1_555
Be9 Co5 2.376416 1_455
Be9 Zr2 2.771154 1_555
Be9 Zr5 2.771172 1_455
Be9 Zr4 2.771259 1_555
Be9 Zr3 2.771266 1_455
Be10 Be6 2.252988 1_555
Be10 Be4 2.252991 1_454
Be10 Be2 2.252995 1_555
Be10 Be7 2.253001 1_454
Be10 Co1 2.376370 1_454
Be10 Co3 2.376424 1_555
Be10 Co0 2.376424 1_555
Be10 Co5 2.376454 1_454
Be10 Zr1 2.771214 1_554
Be10 Zr5 2.771234 1_455
Be10 Zr4 2.771292 1_554
Be10 Zr0 2.771309 1_455
Be11 Be5 2.253088 1_545
Be11 Be3 2.253149 1_555
Be11 Co4 2.376396 1_545
Be11 Co7 2.376405 1_545
Be11 Co2 2.376413 1_555
Be11 Co6 2.376419 1_555
Be11 Zr0 2.771140 1_555
Be11 Zr4 2.771175 1_555
Be11 Zr5 2.771190 1_545
Be11 Zr1 2.771229 1_545
Be12 Be7 2.252962 1_445
Be12 Be5 2.252965 1_445
Be12 Be6 2.253016 1_555
Be12 Be3 2.253016 1_555
Be12 Co1 2.376370 1_445
Be12 Co2 2.376429 1_555
Be12 Co0 2.376438 1_555
Be12 Co4 2.376452 1_445
Be12 Zr0 2.771172 1_455
Be12 Zr3 2.771204 1_455
Be12 Zr2 2.771209 1_545
Be12 Zr1 2.771243 1_545
Be13 Be4 2.253102 1_554
Be13 Be2 2.253135 1_555
Be13 Co7 2.376382 1_554
Be13 Co3 2.376406 1_555
Be13 Co6 2.376415 1_555
Be13 Co5 2.376422 1_554
Be13 Zr1 2.771201 1_554
Be13 Zr2 2.771213 1_555
Be13 Zr3 2.771264 1_554
Be13 Zr0 2.771274 1_555
Be14 Co1 2.377401 1_445
Be14 Co3 2.377401 1_546
Be14 Co2 2.377405 1_555
Be14 Co6 2.377413 1_456
Be14 Co5 2.377421 1_455
Be14 Co7 2.377435 1_545
Be14 Co4 2.377461 1_446
Be14 Co0 2.377542 1_556
Co0 Zr2 2.618061 1_545
Co0 Zr0 2.618089 1_455
Co0 Zr4 2.618117 1_554
Co0 Co5 2.745202 1_454
Co0 Co7 2.745221 1_544
Co0 Co4 2.745225 1_445
Co1 Zr1 2.618097 1_655
Co1 Zr5 2.618102 1_556
Co1 Zr3 2.618108 1_565
Co1 Co3 2.745206 1_656
Co1 Co6 2.745228 1_566
Co1 Co2 2.745231 1_665
Co2 Zr1 2.618098 1_545
Co2 Zr3 2.618123 1_455
Co2 Zr4 2.618165 1_555
Co2 Co5 2.745239 1_455
Co2 Co7 2.745248 1_545
Co3 Zr5 2.618038 1_455
Co3 Zr1 2.618064 1_554
Co3 Zr2 2.618086 1_555
Co3 Co7 2.745217 1_554
Co3 Co4 2.745217 1_455
Co4 Zr2 2.618003 1_655
Co4 Zr0 2.618016 1_565
Co4 Zr5 2.618052 1_555
Co4 Co6 2.745237 1_565
Co5 Zr4 2.618142 1_655
Co5 Zr0 2.618146 1_556
Co5 Zr3 2.618189 1_555
Co5 Co6 2.745233 1_556
Co6 Zr5 2.618061 1_545
Co6 Zr3 2.618111 1_554
Co6 Zr0 2.618129 1_555
Co7 Zr2 2.618070 1_556
Co7 Zr4 2.618076 1_565
Co7 Zr1 2.618111 1_555
