# generated using pymatgen
data_CaAsO7
_symmetry_space_group_name_H-M   'P 1'
_cell_length_a   9.56447100
_cell_length_b   9.76054900
_cell_length_c   14.19667000
_cell_angle_alpha   90.00000000
_cell_angle_beta   90.00000000
_cell_angle_gamma   90.00000000
_symmetry_Int_Tables_number   1
_chemical_formula_structural   CaAsO7
_chemical_formula_sum   'Ca8 As8 O56'
_cell_volume   1325.32285709
_cell_formula_units_Z   8
loop_
 _symmetry_equiv_pos_site_id
 _symmetry_equiv_pos_as_xyz
  1  'x, y, z'
loop_
 _atom_site_type_symbol
 _atom_site_label
 _atom_site_symmetry_multiplicity
 _atom_site_fract_x
 _atom_site_fract_y
 _atom_site_fract_z
 _atom_site_occupancy
  Ca  Ca0  1  0.80711800  0.87603900  0.36975300  1
  Ca  Ca1  1  0.19288200  0.12396100  0.63024700  1
  Ca  Ca2  1  0.30711800  0.12396100  0.13024700  1
  Ca  Ca3  1  0.69288200  0.37603900  0.63024700  1
  Ca  Ca4  1  0.69288200  0.87603900  0.86975300  1
  Ca  Ca5  1  0.30711800  0.62396100  0.36975300  1
  Ca  Ca6  1  0.19288200  0.62396100  0.86975300  1
  Ca  Ca7  1  0.80711800  0.37603900  0.13024700  1
  As  As0  1  0.62779800  0.94385000  0.13238300  1
  As  As1  1  0.37220200  0.05615000  0.86761700  1
  As  As2  1  0.12779800  0.05615000  0.36761700  1
  As  As3  1  0.87220200  0.44385000  0.86761700  1
  As  As4  1  0.87220200  0.94385000  0.63238300  1
  As  As5  1  0.12779800  0.55615000  0.13238300  1
  As  As6  1  0.37220200  0.55615000  0.63238300  1
  As  As7  1  0.62779800  0.44385000  0.36761700  1
  O  O0  1  0.72914500  0.89924200  0.22322400  1
  O  O1  1  0.27085500  0.10075800  0.77677600  1
  O  O2  1  0.22914500  0.10075800  0.27677600  1
  O  O3  1  0.77085500  0.39924200  0.77677600  1
  O  O4  1  0.77085500  0.89924200  0.72322400  1
  O  O5  1  0.22914500  0.60075800  0.22322400  1
  O  O6  1  0.27085500  0.60075800  0.72322400  1
  O  O7  1  0.72914500  0.39924200  0.27677600  1
  O  O8  1  0.06051400  0.76680500  0.37609900  1
  O  O9  1  0.93948600  0.23319500  0.62390100  1
  O  O10  1  0.56051400  0.23319500  0.12390100  1
  O  O11  1  0.43948600  0.26680500  0.62390100  1
  O  O12  1  0.43948600  0.76680500  0.87609900  1
  O  O13  1  0.56051400  0.73319500  0.37609900  1
  O  O14  1  0.93948600  0.73319500  0.87609900  1
  O  O15  1  0.06051400  0.26680500  0.12390100  1
  O  O16  1  0.68475600  0.89150700  0.02667800  1
  O  O17  1  0.31524400  0.10849300  0.97332200  1
  O  O18  1  0.18475600  0.10849300  0.47332200  1
  O  O19  1  0.81524400  0.39150700  0.97332200  1
  O  O20  1  0.81524400  0.89150700  0.52667800  1
  O  O21  1  0.18475600  0.60849300  0.02667800  1
  O  O22  1  0.31524400  0.60849300  0.52667800  1
  O  O23  1  0.68475600  0.39150700  0.47332200  1
  O  O24  1  0.99522400  0.87971500  0.08101900  1
  O  O25  1  0.00477600  0.12028500  0.91898100  1
  O  O26  1  0.49522400  0.12028500  0.41898100  1
  O  O27  1  0.50477600  0.37971500  0.91898100  1
  O  O28  1  0.50477600  0.87971500  0.58101900  1
  O  O29  1  0.49522400  0.62028500  0.08101900  1
  O  O30  1  0.00477600  0.62028500  0.58101900  1
  O  O31  1  0.99522400  0.37971500  0.41898100  1
  O  O32  1  0.61738100  0.58072900  0.08784500  1
  O  O33  1  0.38261900  0.41927100  0.91215500  1
  O  O34  1  0.11738100  0.41927100  0.41215500  1
  O  O35  1  0.88261900  0.08072900  0.91215500  1
  O  O36  1  0.88261900  0.58072900  0.58784500  1
  O  O37  1  0.11738100  0.91927100  0.08784500  1
  O  O38  1  0.38261900  0.91927100  0.58784500  1
  O  O39  1  0.61738100  0.08072900  0.41215500  1
  O  O40  1  0.67177200  0.65034400  0.37490000  1
  O  O41  1  0.32822800  0.34965600  0.62510000  1
  O  O42  1  0.17177200  0.34965600  0.12510000  1
  O  O43  1  0.82822800  0.15034400  0.62510000  1
  O  O44  1  0.82822800  0.65034400  0.87490000  1
  O  O45  1  0.17177200  0.84965600  0.37490000  1
  O  O46  1  0.32822800  0.84965600  0.87490000  1
  O  O47  1  0.67177200  0.15034400  0.12510000  1
  O  O48  1  0.95531600  0.55008300  0.15229900  1
  O  O49  1  0.04468400  0.44991700  0.84770100  1
  O  O50  1  0.45531600  0.44991700  0.34770100  1
  O  O51  1  0.54468400  0.05008300  0.84770100  1
  O  O52  1  0.54468400  0.55008300  0.65229900  1
  O  O53  1  0.45531600  0.94991700  0.15229900  1
  O  O54  1  0.04468400  0.94991700  0.65229900  1
  O  O55  1  0.95531600  0.05008300  0.34770100  1
loop_
_geom_bond_atom_site_label_1
_geom_bond_atom_site_label_2
_geom_bond_distance
_geom_bond_site_symmetry_2
Ca0 O0 2.221440 1_555
Ca0 O20 2.234275 1_555
Ca0 O55 2.234488 1_565
Ca0 O40 2.556150 1_555
Ca0 O8 2.649282 1_655
Ca0 O13 2.741382 1_555
Ca0 O39 2.765353 1_565
Ca1 O1 2.221440 1_555
Ca1 O18 2.234275 1_555
Ca1 O54 2.234488 1_545
Ca1 O41 2.556150 1_555
Ca1 O9 2.649282 1_455
Ca1 O11 2.741382 1_555
Ca1 O38 2.765353 1_545
Ca2 O2 2.221440 1_555
Ca2 O17 2.234275 1_554
Ca2 O53 2.234488 1_545
Ca2 O42 2.556150 1_555
Ca2 O10 2.649282 1_555
Ca2 O15 2.741382 1_555
Ca2 O37 2.765353 1_545
Ca3 O3 2.221440 1_555
Ca3 O23 2.234275 1_555
Ca3 O52 2.234488 1_555
Ca3 O43 2.556150 1_555
Ca3 O11 2.649282 1_555
Ca3 O9 2.741382 1_555
Ca3 O36 2.765353 1_555
Ca4 O4 2.221440 1_555
Ca4 O16 2.234275 1_556
Ca4 O51 2.234488 1_565
Ca4 O44 2.556150 1_555
Ca4 O12 2.649282 1_555
Ca4 O14 2.741382 1_555
Ca4 O35 2.765353 1_565
Ca5 O5 2.221440 1_555
Ca5 O22 2.234275 1_555
Ca5 O50 2.234488 1_555
Ca5 O45 2.556150 1_555
Ca5 O13 2.649282 1_555
Ca5 O8 2.741382 1_555
Ca5 O34 2.765353 1_555
Ca6 O6 2.221440 1_555
Ca6 O21 2.234275 1_556
Ca6 O49 2.234488 1_555
Ca6 O46 2.556150 1_555
Ca6 O14 2.649282 1_455
Ca6 O12 2.741382 1_555
Ca6 O33 2.765353 1_555
Ca7 O7 2.221440 1_555
Ca7 O19 2.234275 1_554
Ca7 O48 2.234488 1_555
Ca7 O47 2.556150 1_555
Ca7 O15 2.649282 1_655
Ca7 O10 2.741382 1_555
Ca7 O32 2.765353 1_555
As0 O0 1.671031 1_555
As0 O53 1.674800 1_555
As0 O16 1.676237 1_555
As0 O47 2.061505 1_565
As1 O1 1.671031 1_555
As1 O51 1.674800 1_555
As1 O17 1.676237 1_555
As1 O46 2.061505 1_545
As2 O2 1.671031 1_555
As2 O55 1.674800 1_455
As2 O18 1.676237 1_555
As2 O45 2.061505 1_545
As3 O3 1.671031 1_555
As3 O49 1.674800 1_655
As3 O19 1.676237 1_555
As3 O44 2.061505 1_555
As4 O4 1.671031 1_555
As4 O54 1.674800 1_655
As4 O20 1.676237 1_555
As4 O43 2.061505 1_565
As5 O5 1.671031 1_555
As5 O48 1.674800 1_455
As5 O21 1.676237 1_555
As5 O42 2.061505 1_555
As6 O6 1.671031 1_555
As6 O52 1.674800 1_555
As6 O22 1.676237 1_555
As6 O41 2.061505 1_555
As7 O7 1.671031 1_555
As7 O50 1.674800 1_555
As7 O23 1.676237 1_555
As7 O40 2.061505 1_555
O10 O47 1.336637 1_555
O11 O41 1.336637 1_555
O12 O46 1.336637 1_555
O13 O40 1.336637 1_555
O14 O44 1.336637 1_555
O15 O42 1.336637 1_555
O24 O37 1.234316 1_655
O25 O35 1.234316 1_455
O26 O39 1.234316 1_555
O27 O33 1.234316 1_555
O28 O38 1.234316 1_555
O29 O32 1.234316 1_555
O30 O36 1.234316 1_455
O31 O34 1.234316 1_655
O43 O9 1.336637 1_555
O45 O8 1.336637 1_555
