# generated using pymatgen
data_Al2O3
_symmetry_space_group_name_H-M   'P 1'
_cell_length_a   10.23568197
_cell_length_b   10.52520401
_cell_length_c   10.41323753
_cell_angle_alpha   86.53337456
_cell_angle_beta   87.65278332
_cell_angle_gamma   89.50508571
_symmetry_Int_Tables_number   1
_chemical_formula_structural   Al2O3
_chemical_formula_sum   'Al40 O60'
_cell_volume   1118.83194004
_cell_formula_units_Z   20
loop_
 _symmetry_equiv_pos_site_id
 _symmetry_equiv_pos_as_xyz
  1  'x, y, z'
loop_
 _atom_site_type_symbol
 _atom_site_label
 _atom_site_symmetry_multiplicity
 _atom_site_fract_x
 _atom_site_fract_y
 _atom_site_fract_z
 _atom_site_occupancy
  Al  Al0  1  0.83617800  0.50437200  0.63975100  1
  Al  Al1  1  0.75594300  0.90925800  0.32966600  1
  Al  Al2  1  0.46732500  0.81203200  0.81738500  1
  Al  Al3  1  0.04372300  0.80031500  0.11236100  1
  Al  Al4  1  0.84307000  0.57667700  0.10877300  1
  Al  Al5  1  0.31994900  0.95679700  0.64234600  1
  Al  Al6  1  0.09805400  0.60814200  0.57709500  1
  Al  Al7  1  0.97970200  0.31299100  0.55999300  1
  Al  Al8  1  0.51087900  0.24282400  0.25986600  1
  Al  Al9  1  0.72980800  0.31159600  0.02609000  1
  Al  Al10  1  0.39449000  0.51864800  0.42494000  1
  Al  Al11  1  0.26629400  0.39236500  0.70711200  1
  Al  Al12  1  0.68484100  0.26180800  0.73694500  1
  Al  Al13  1  0.67117000  0.75539000  0.53231100  1
  Al  Al14  1  0.62997900  0.02321700  0.05663600  1
  Al  Al15  1  0.97540500  0.83129300  0.52867200  1
  Al  Al16  1  0.36458900  0.10543500  0.10830300  1
  Al  Al17  1  0.91471000  0.06200300  0.76601400  1
  Al  Al18  1  0.51504000  0.49325500  0.89850700  1
  Al  Al19  1  0.44852200  0.99808200  0.35601100  1
  Al  Al20  1  0.70050500  0.93154100  0.76952200  1
  Al  Al21  1  0.22004200  0.55958400  0.88548000  1
  Al  Al22  1  0.98310000  0.47303700  0.90135700  1
  Al  Al23  1  0.15650900  0.92977100  0.28233900  1
  Al  Al24  1  0.34838500  0.72605500  0.10912600  1
  Al  Al25  1  0.42323700  0.23244200  0.54500900  1
  Al  Al26  1  0.10078000  0.21037700  0.98693900  1
  Al  Al27  1  0.55638500  0.48011400  0.19545400  1
  Al  Al28  1  0.95434500  0.74406100  0.84508500  1
  Al  Al29  1  0.95680400  0.09226800  0.43897800  1
  Al  Al30  1  0.88080300  0.07095200  0.15642200  1
  Al  Al31  1  0.56842000  0.72416700  0.29135000  1
  Al  Al32  1  0.36748300  0.73729400  0.53934400  1
  Al  Al33  1  0.43590400  0.14189500  0.81494500  1
  Al  Al34  1  0.20356800  0.93491800  0.91661500  1
  Al  Al35  1  0.64783200  0.73932600  0.01302700  1
  Al  Al36  1  0.29637000  0.42564600  0.12612900  1
  Al  Al37  1  0.16387700  0.15386300  0.70757500  1
  Al  Al38  1  0.00667600  0.34838600  0.24872000  1
  Al  Al39  1  0.90098000  0.62116400  0.34809000  1
  O  O0  1  0.01597000  0.95383000  0.18231800  1
  O  O1  1  0.15856300  0.41811800  0.22763500  1
  O  O2  1  0.74135900  0.10126100  0.76517400  1
  O  O3  1  0.96947800  0.11966700  0.60770800  1
  O  O4  1  0.49217300  0.15290600  0.41407200  1
  O  O5  1  0.81153500  0.33438200  0.63992200  1
  O  O6  1  0.16505800  0.53272200  0.72274900  1
  O  O7  1  0.35206300  0.89956600  0.48238300  1
  O  O8  1  0.64717700  0.32687100  0.17596500  1
  O  O9  1  0.01718300  0.70402200  0.43276600  1
  O  O10  1  0.22101100  0.07909400  0.00973300  1
  O  O11  1  0.12167000  0.30884900  0.64713600  1
  O  O12  1  0.99206900  0.25592600  0.40061000  1
  O  O13  1  0.66947200  0.60272200  0.14942700  1
  O  O14  1  0.33815300  0.82965400  0.95238100  1
  O  O15  1  0.81110600  0.87921900  0.50290700  1
  O  O16  1  0.52834600  0.07577000  0.19746500  1
  O  O17  1  0.85823400  0.42861900  0.02207300  1
  O  O18  1  0.81671400  0.70183900  0.97087600  1
  O  O19  1  0.03096600  0.74569200  0.66865300  1
  O  O20  1  0.30346100  0.01410500  0.25680700  1
  O  O21  1  0.02189000  0.15124500  0.85192600  1
  O  O22  1  0.51708500  0.79627200  0.13460900  1
  O  O23  1  0.87134100  0.89781700  0.77944800  1
  O  O24  1  0.73197700  0.60736500  0.57353700  1
  O  O25  1  0.49010700  0.11408000  0.97205100  1
  O  O26  1  0.88777500  0.54261000  0.78421300  1
  O  O27  1  0.12617200  0.37820200  0.94461100  1
  O  O28  1  0.20217700  0.79373800  0.18905400  1
  O  O29  1  0.29011500  0.23290500  0.79940100  1
  O  O30  1  0.76637900  0.14524000  0.03295600  1
  O  O31  1  0.36542800  0.39259800  0.55600300  1
  O  O32  1  0.42502100  0.61061700  0.25767700  1
  O  O33  1  0.88292400  0.47304900  0.26851500  1
  O  O34  1  0.83229400  0.06850000  0.32931400  1
  O  O35  1  0.99579400  0.21322300  0.13461600  1
  O  O36  1  0.05396000  0.85428100  0.94894900  1
  O  O37  1  0.26030200  0.62010500  0.49062900  1
  O  O38  1  0.48665700  0.39829800  0.33894200  1
  O  O39  1  0.06846000  0.95802700  0.43498400  1
  O  O40  1  0.50962500  0.66500500  0.46948600  1
  O  O41  1  0.44207800  0.98701800  0.75837400  1
  O  O42  1  0.27754300  0.58701400  0.04209000  1
  O  O43  1  0.52944700  0.22741700  0.68252300  1
  O  O44  1  0.34746200  0.77569000  0.69989000  1
  O  O45  1  0.64491100  0.36147500  0.87452500  1
  O  O46  1  0.37009600  0.47723800  0.81858800  1
  O  O47  1  0.75568500  0.93579500  0.15400400  1
  O  O48  1  0.54599300  0.66288200  0.89702500  1
  O  O49  1  0.74383000  0.72274700  0.34624900  1
  O  O50  1  0.17961200  0.98315700  0.75113500  1
  O  O51  1  0.61238500  0.82658800  0.68081500  1
  O  O52  1  0.97862600  0.48774100  0.53137300  1
  O  O53  1  0.46885100  0.45089300  0.05896600  1
  O  O54  1  0.29363700  0.12263600  0.58212800  1
  O  O55  1  0.94513500  0.68470500  0.18503300  1
  O  O56  1  0.62819300  0.89915800  0.92750600  1
  O  O57  1  0.05802300  0.62042400  0.93014500  1
  O  O58  1  0.35753200  0.26109400  0.16605900  1
  O  O59  1  0.58329300  0.88551100  0.37509000  1
loop_
_geom_bond_atom_site_label_1
_geom_bond_atom_site_label_2
_geom_bond_distance
_geom_bond_site_symmetry_2
Al0 O24 1.654678 1_555
Al0 O26 1.686960 1_555
Al0 O5 1.808913 1_555
Al0 O52 1.820691 1_555
Al1 O59 1.825934 1_555
Al1 O47 1.833746 1_555
Al1 O34 1.855148 1_565
Al1 O15 1.919520 1_555
Al1 O49 1.964759 1_555
Al2 O44 1.826517 1_555
Al2 O14 1.906224 1_555
Al2 O48 1.917272 1_555
Al2 O41 1.924680 1_555
Al2 O51 2.013743 1_555
Al2 O56 2.274878 1_555
Al3 O55 1.708489 1_455
Al3 O36 1.760326 1_554
Al3 O0 1.827451 1_555
Al3 O28 1.835911 1_555
Al4 O55 1.792345 1_555
Al4 O13 1.831862 1_555
Al4 O17 1.849892 1_555
Al4 O18 1.914939 1_554
Al4 O33 1.987847 1_555
Al5 O41 1.816792 1_555
Al5 O7 1.821712 1_555
Al5 O50 1.822505 1_555
Al5 O54 1.840060 1_565
Al5 O44 1.984525 1_555
Al6 O6 1.825148 1_555
Al6 O37 1.857947 1_555
Al6 O52 1.863954 1_455
Al6 O19 1.890139 1_555
Al6 O9 1.966331 1_555
Al7 O11 1.743300 1_655
Al7 O12 1.798160 1_555
Al7 O52 1.845405 1_555
Al7 O5 1.898670 1_555
Al7 O3 2.067677 1_555
Al8 O4 1.817978 1_555
Al8 O8 1.822137 1_555
Al8 O58 1.884813 1_555
Al8 O38 1.885877 1_555
Al8 O16 1.915454 1_555
Al9 O8 1.759775 1_555
Al9 O30 1.785139 1_555
Al9 O17 1.806663 1_555
Al9 O45 1.877755 1_554
Al10 O38 1.828614 1_555
Al10 O31 1.861685 1_555
Al10 O37 1.865685 1_555
Al10 O32 1.955788 1_555
Al10 O40 2.034577 1_555
Al11 O6 1.808719 1_555
Al11 O31 1.836963 1_555
Al11 O46 1.875423 1_555
Al11 O11 1.875820 1_555
Al11 O29 1.901826 1_555
Al12 O43 1.758028 1_555
Al12 O5 1.761358 1_555
Al12 O2 1.792605 1_555
Al12 O45 1.856436 1_555
Al13 O24 1.709757 1_555
Al13 O51 1.836062 1_555
Al13 O15 1.947325 1_555
Al13 O40 2.063538 1_555
Al13 O49 2.093601 1_555
Al13 O59 2.278875 1_555
Al14 O16 1.871342 1_555
Al14 O47 1.871849 1_545
Al14 O30 1.903675 1_555
Al14 O25 1.928189 1_554
Al14 O56 1.930850 1_544
Al15 O9 1.758284 1_655
Al15 O19 1.777682 1_655
Al15 O15 1.777787 1_555
Al15 O39 1.851150 1_655
Al16 O58 1.778949 1_555
Al16 O10 1.858822 1_555
Al16 O20 1.859640 1_555
Al16 O25 1.873247 1_554
Al16 O16 1.962763 1_555
Al17 O21 1.756693 1_655
Al17 O23 1.783776 1_545
Al17 O3 1.791448 1_555
Al17 O2 1.818613 1_555
Al18 O46 1.744848 1_555
Al18 O53 1.750158 1_556
Al18 O48 1.814983 1_555
Al18 O45 1.932899 1_555
Al19 O59 1.819888 1_555
Al19 O4 1.836974 1_565
Al19 O20 1.844037 1_565
Al19 O7 1.878276 1_555
Al19 O16 1.949281 1_565
Al20 O51 1.759526 1_555
Al20 O23 1.787177 1_555
Al20 O56 1.790881 1_555
Al20 O2 1.835617 1_565
Al21 O42 1.796612 1_556
Al21 O57 1.825124 1_555
Al21 O6 1.845807 1_555
Al21 O46 1.886205 1_555
Al21 O27 2.188147 1_555
Al22 O26 1.718544 1_555
Al22 O57 1.783275 1_655
Al22 O17 1.799969 1_556
Al22 O27 1.821587 1_655
Al23 O20 1.755798 1_565
Al23 O0 1.817357 1_555
Al23 O28 1.825251 1_555
Al23 O39 1.833707 1_555
Al24 O42 1.827036 1_555
Al24 O28 1.841496 1_555
Al24 O14 1.913345 1_554
Al24 O22 1.918750 1_555
Al24 O32 2.083287 1_555
Al25 O4 1.762604 1_555
Al25 O54 1.781937 1_555
Al25 O31 1.790332 1_555
Al25 O43 1.830994 1_555
Al26 O21 1.795413 1_555
Al26 O27 1.812833 1_555
Al26 O35 1.841234 1_456
Al26 O10 1.853384 1_556
Al27 O53 1.754801 1_555
Al27 O13 1.772136 1_555
Al27 O38 1.803096 1_555
Al27 O8 1.872045 1_555
Al27 O32 2.029492 1_555
Al28 O57 1.875598 1_655
Al28 O18 1.920193 1_555
Al28 O23 1.923011 1_555
Al28 O36 1.953898 1_655
Al28 O19 1.967022 1_655
Al28 O26 2.363195 1_555
Al29 O34 1.774858 1_555
Al29 O12 1.781220 1_555
Al29 O3 1.807685 1_555
Al29 O39 1.810949 1_645
Al30 O34 1.846591 1_555
Al30 O0 1.862092 1_645
Al30 O30 1.903159 1_555
Al30 O35 1.909621 1_555
Al30 O47 1.924280 1_545
Al31 O22 1.851926 1_555
Al31 O49 1.906101 1_555
Al31 O32 1.956743 1_555
Al31 O59 1.965146 1_555
Al31 O40 1.991529 1_555
Al31 O13 2.228959 1_555
Al32 O44 1.747127 1_555
Al32 O37 1.768304 1_555
Al32 O7 1.781660 1_555
Al32 O40 1.784936 1_555
Al33 O25 1.756010 1_555
Al33 O41 1.766234 1_545
Al33 O29 1.773956 1_555
Al33 O43 1.839870 1_555
Al34 O36 1.767585 1_555
Al34 O50 1.792742 1_555
Al34 O14 1.797126 1_555
Al34 O10 1.863244 1_566
Al35 O18 1.812038 1_554
Al35 O48 1.851558 1_554
Al35 O56 1.868461 1_554
Al35 O22 1.921533 1_555
Al35 O13 1.976620 1_555
Al36 O1 1.727097 1_555
Al36 O58 1.865459 1_555
Al36 O42 1.875113 1_555
Al36 O53 1.887086 1_555
Al37 O11 1.769092 1_555
Al37 O50 1.833659 1_545
Al37 O54 1.865691 1_555
Al37 O29 1.868696 1_555
Al37 O21 2.046747 1_555
Al37 O3 2.323247 1_455
Al38 O1 1.725148 1_555
Al38 O12 1.807779 1_455
Al38 O33 1.830630 1_455
Al38 O35 1.914693 1_455
Al39 O9 1.774703 1_655
Al39 O33 1.823411 1_555
Al39 O55 1.827460 1_555
Al39 O49 1.923862 1_555
