# generated using pymatgen
data_LiTaWO7
_symmetry_space_group_name_H-M   'P 1'
_cell_length_a   7.40660952
_cell_length_b   7.40660952
_cell_length_c   7.40660952
_cell_angle_alpha   119.70559441
_cell_angle_beta   118.91904537
_cell_angle_gamma   91.19660364
_symmetry_Int_Tables_number   1
_chemical_formula_structural   LiTaWO7
_chemical_formula_sum   'Li2 Ta2 W2 O14'
_cell_volume   290.20627091
_cell_formula_units_Z   2
loop_
 _symmetry_equiv_pos_site_id
 _symmetry_equiv_pos_as_xyz
  1  'x, y, z'
loop_
 _atom_site_type_symbol
 _atom_site_label
 _atom_site_symmetry_multiplicity
 _atom_site_fract_x
 _atom_site_fract_y
 _atom_site_fract_z
 _atom_site_occupancy
  Li  Li0  1  0.00000000  0.50000000  0.00000000  1
  Li  Li1  1  0.00000000  0.00000000  0.50000000  1
  Ta  Ta0  1  0.00000000  0.00000000  0.00000000  1
  Ta  Ta1  1  0.50000000  0.00000000  0.50000000  1
  W  W0  1  0.50000000  0.00000000  0.00000000  1
  W  W1  1  0.50000000  0.50000000  0.50000000  1
  O  O0  1  0.95416700  0.70416700  0.25000000  1
  O  O1  1  0.04583300  0.29583300  0.75000000  1
  O  O2  1  0.55851200  0.94063000  0.24615200  1
  O  O3  1  0.19447800  0.94063000  0.88211800  1
  O  O4  1  0.55788200  0.30788200  0.25000000  1
  O  O5  1  0.19447800  0.31236000  0.25384800  1
  O  O6  1  0.55851200  0.31236000  0.61788200  1
  O  O7  1  0.17691800  0.92691800  0.25000000  1
  O  O8  1  0.44148800  0.05937000  0.75384800  1
  O  O9  1  0.80552200  0.05937000  0.11788200  1
  O  O10  1  0.44211800  0.69211800  0.75000000  1
  O  O11  1  0.80552200  0.68764000  0.74615200  1
  O  O12  1  0.44148800  0.68764000  0.38211800  1
  O  O13  1  0.82308200  0.07308200  0.75000000  1
loop_
_geom_bond_atom_site_label_1
_geom_bond_atom_site_label_2
_geom_bond_distance
_geom_bond_site_symmetry_2
Li0 O0 1.919593 1_455
Li0 O1 1.919593 1_554
Li1 O1 1.919593 1_555
Li1 O0 1.919593 1_445
O2 W0 1.934791 1_565
O2 Ta1 1.973009 1_565
O3 W0 1.934791 1_566
O3 Ta0 1.973009 1_566
O4 W1 1.954247 1_555
O4 W0 1.954247 1_555
O5 W1 1.934791 1_555
O5 Ta0 1.973009 1_555
O6 W1 1.934791 1_555
O6 Ta1 1.973009 1_555
O7 Ta1 2.028549 1_565
O7 Ta0 2.028549 1_565
O8 W0 1.934791 1_556
O8 Ta1 1.973009 1_555
O9 W0 1.934791 1_555
O9 Ta0 1.973009 1_655
O10 W0 1.954247 1_566
O10 W1 1.954247 1_555
O11 W1 1.934791 1_555
O11 Ta0 1.973009 1_666
O12 W1 1.934791 1_555
O12 Ta1 1.973009 1_565
O13 Ta1 2.028549 1_555
O13 Ta0 2.028549 1_656
