# generated using pymatgen
data_Ba5Nb3O3F20
_symmetry_space_group_name_H-M   'P 1'
_cell_length_a   12.09968647
_cell_length_b   12.09968647
_cell_length_c   8.02794800
_cell_angle_alpha   90.00000000
_cell_angle_beta   90.00000000
_cell_angle_gamma   120.00000259
_symmetry_Int_Tables_number   1
_chemical_formula_structural   Ba5Nb3O3F20
_chemical_formula_sum   'Ba10 Nb6 O6 F40'
_cell_volume   1017.84911923
_cell_formula_units_Z   2
loop_
 _symmetry_equiv_pos_site_id
 _symmetry_equiv_pos_as_xyz
  1  'x, y, z'
loop_
 _atom_site_type_symbol
 _atom_site_label
 _atom_site_symmetry_multiplicity
 _atom_site_fract_x
 _atom_site_fract_y
 _atom_site_fract_z
 _atom_site_occupancy
  Ba  Ba0  1  0.08689200  0.44606100  0.75000000  1
  Ba  Ba1  1  0.55393900  0.64083200  0.75000000  1
  Ba  Ba2  1  0.35916800  0.91310800  0.75000000  1
  Ba  Ba3  1  0.91310800  0.55393900  0.25000000  1
  Ba  Ba4  1  0.44606100  0.35916800  0.25000000  1
  Ba  Ba5  1  0.64083200  0.08689200  0.25000000  1
  Ba  Ba6  1  0.66666700  0.33333300  0.75000000  1
  Ba  Ba7  1  0.33333300  0.66666700  0.25000000  1
  Ba  Ba8  1  0.00000000  0.00000000  0.50000000  1
  Ba  Ba9  1  0.00000000  0.00000000  0.00000000  1
  Nb  Nb0  1  0.95425000  0.67112100  0.75000000  1
  Nb  Nb1  1  0.32887900  0.28312900  0.75000000  1
  Nb  Nb2  1  0.71687100  0.04575000  0.75000000  1
  Nb  Nb3  1  0.04575000  0.32887900  0.25000000  1
  Nb  Nb4  1  0.67112100  0.71687100  0.25000000  1
  Nb  Nb5  1  0.28312900  0.95425000  0.25000000  1
  O  O0  1  0.58663200  0.88594800  0.75000000  1
  O  O1  1  0.11405200  0.70068400  0.75000000  1
  O  O2  1  0.29931600  0.41336800  0.75000000  1
  O  O3  1  0.41336800  0.11405200  0.25000000  1
  O  O4  1  0.88594800  0.29931600  0.25000000  1
  O  O5  1  0.70068400  0.58663200  0.25000000  1
  F  F0  1  0.41038900  0.16184600  0.75000000  1
  F  F1  1  0.83815400  0.24854300  0.75000000  1
  F  F2  1  0.75145700  0.58961100  0.75000000  1
  F  F3  1  0.58961100  0.83815400  0.25000000  1
  F  F4  1  0.16184600  0.75145700  0.25000000  1
  F  F5  1  0.24854300  0.41038900  0.25000000  1
  F  F6  1  0.89993400  0.50761800  0.59835500  1
  F  F7  1  0.49238200  0.39231500  0.59835500  1
  F  F8  1  0.60768500  0.10006600  0.59835500  1
  F  F9  1  0.10006600  0.49238200  0.09835500  1
  F  F10  1  0.50761800  0.60768500  0.09835500  1
  F  F11  1  0.39231500  0.89993400  0.09835500  1
  F  F12  1  0.10006600  0.49238200  0.40164500  1
  F  F13  1  0.50761800  0.60768500  0.40164500  1
  F  F14  1  0.39231500  0.89993400  0.40164500  1
  F  F15  1  0.89993400  0.50761800  0.90164500  1
  F  F16  1  0.49238200  0.39231500  0.90164500  1
  F  F17  1  0.60768500  0.10006600  0.90164500  1
  F  F18  1  0.66666700  0.33333300  0.37391900  1
  F  F19  1  0.33333300  0.66666700  0.87391900  1
  F  F20  1  0.33333300  0.66666700  0.62608100  1
  F  F21  1  0.66666700  0.33333300  0.12608100  1
  F  F22  1  0.94755600  0.72181900  0.98990700  1
  F  F23  1  0.27818100  0.22573800  0.98990700  1
  F  F24  1  0.77426200  0.05244400  0.98990700  1
  F  F25  1  0.05244400  0.27818100  0.48990700  1
  F  F26  1  0.72181900  0.77426200  0.48990700  1
  F  F27  1  0.22573800  0.94755600  0.48990700  1
  F  F28  1  0.05244400  0.27818100  0.01009300  1
  F  F29  1  0.72181900  0.77426200  0.01009300  1
  F  F30  1  0.22573800  0.94755600  0.01009300  1
  F  F31  1  0.94755600  0.72181900  0.51009300  1
  F  F32  1  0.27818100  0.22573800  0.51009300  1
  F  F33  1  0.77426200  0.05244400  0.51009300  1
  F  F34  1  0.99915400  0.85822000  0.75000000  1
  F  F35  1  0.14178000  0.14093500  0.75000000  1
  F  F36  1  0.85906500  0.00084600  0.75000000  1
  F  F37  1  0.00084600  0.14178000  0.25000000  1
  F  F38  1  0.85822000  0.85906500  0.25000000  1
  F  F39  1  0.14093500  0.99915400  0.25000000  1
loop_
_geom_bond_atom_site_label_1
_geom_bond_atom_site_label_2
_geom_bond_distance
_geom_bond_site_symmetry_2
Ba0 F1 2.752611 1_455
Ba0 O2 2.789170 1_555
Ba0 F28 2.795179 1_556
Ba0 F25 2.795179 1_555
Ba0 F9 2.840956 1_556
Ba0 F12 2.840956 1_555
Ba0 O1 2.930398 1_555
Ba0 F15 2.973036 1_455
Ba0 F6 2.973036 1_455
Ba0 F20 3.007780 1_555
Ba0 F19 3.007780 1_555
Ba1 F2 2.752619 1_555
Ba1 O0 2.789158 1_555
Ba1 F29 2.795174 1_556
Ba1 F26 2.795174 1_555
Ba1 F13 2.840956 1_555
Ba1 F10 2.840956 1_556
Ba1 O2 2.930403 1_555
Ba1 F16 2.973058 1_555
Ba1 F7 2.973058 1_555
Ba1 F19 3.007780 1_555
Ba1 F20 3.007780 1_555
Ba2 F0 2.752607 1_565
Ba2 O1 2.789162 1_555
Ba2 F30 2.795163 1_556
Ba2 F27 2.795163 1_555
Ba2 F11 2.840956 1_556
Ba2 F14 2.840956 1_555
Ba2 O0 2.930410 1_555
Ba2 F17 2.973052 1_565
Ba2 F8 2.973052 1_565
Ba2 F20 3.007780 1_555
Ba2 F19 3.007780 1_555
Ba3 F4 2.752611 1_655
Ba3 O5 2.789170 1_555
Ba3 F22 2.795179 1_554
Ba3 F31 2.795179 1_555
Ba3 F6 2.840956 1_555
Ba3 F15 2.840956 1_554
Ba3 O4 2.930398 1_555
Ba3 F9 2.973036 1_655
Ba3 F12 2.973036 1_655
Ba3 F18 3.007780 1_555
Ba3 F21 3.007780 1_555
Ba4 F5 2.752619 1_555
Ba4 O3 2.789158 1_555
Ba4 F32 2.795174 1_555
Ba4 F23 2.795174 1_554
Ba4 F7 2.840956 1_555
Ba4 F16 2.840956 1_554
Ba4 O5 2.930403 1_555
Ba4 F13 2.973058 1_555
Ba4 F10 2.973058 1_555
Ba4 F21 3.007780 1_555
Ba4 F18 3.007780 1_555
Ba5 F3 2.752607 1_545
Ba5 O4 2.789162 1_555
Ba5 F24 2.795163 1_554
Ba5 F33 2.795163 1_555
Ba5 F8 2.840956 1_555
Ba5 F17 2.840956 1_554
Ba5 O3 2.930410 1_555
Ba5 F11 2.973052 1_545
Ba5 F14 2.973052 1_545
Ba5 F21 3.007780 1_555
Ba5 F18 3.007780 1_555
Ba6 F1 2.736175 1_555
Ba6 F0 2.736184 1_555
Ba6 F2 2.736187 1_555
Ba6 F15 2.818396 1_555
Ba6 F6 2.818396 1_555
Ba6 F17 2.818396 1_555
Ba6 F8 2.818396 1_555
Ba6 F16 2.818396 1_555
Ba6 F7 2.818396 1_555
Ba6 F18 3.019159 1_555
Ba6 F21 3.019159 1_556
Ba7 F4 2.736175 1_555
Ba7 F3 2.736184 1_555
Ba7 F5 2.736187 1_555
Ba7 F9 2.818396 1_555
Ba7 F12 2.818396 1_555
Ba7 F14 2.818396 1_555
Ba7 F11 2.818396 1_555
Ba7 F13 2.818396 1_555
Ba7 F10 2.818396 1_555
Ba7 F19 3.019159 1_554
Ba7 F20 3.019159 1_555
Ba8 F34 2.636941 1_445
Ba8 F37 2.636941 1_555
Ba8 F38 2.636945 1_445
Ba8 F35 2.636945 1_555
Ba8 F39 2.636949 1_545
Ba8 F36 2.636949 1_455
Ba8 F31 3.098818 1_445
Ba8 F25 3.098818 1_555
Ba8 F32 3.098822 1_555
Ba8 F26 3.098822 1_445
Ba8 F33 3.098830 1_455
Ba8 F27 3.098830 1_545
Ba9 F34 2.636941 1_444
Ba9 F37 2.636941 1_555
Ba9 F35 2.636945 1_554
Ba9 F38 2.636945 1_445
Ba9 F39 2.636949 1_545
Ba9 F36 2.636949 1_454
Ba9 F22 3.098818 1_444
Ba9 F28 3.098818 1_555
Ba9 F23 3.098822 1_554
Ba9 F29 3.098822 1_445
Ba9 F24 3.098830 1_454
Ba9 F30 3.098830 1_545
Nb0 O1 1.781837 1_655
Nb1 O2 1.781837 1_555
Nb2 O0 1.781837 1_545
Nb3 O4 1.781837 1_455
Nb4 O5 1.781837 1_555
Nb5 O3 1.781837 1_565
F0 Nb1 2.138574 1_555
F1 Nb2 2.138574 1_555
F2 Nb0 2.138574 1_555
F3 Nb4 2.138574 1_555
F4 Nb5 2.138574 1_555
F5 Nb3 2.138574 1_555
F6 Nb0 2.127819 1_555
F7 Nb1 2.127817 1_555
F8 Nb2 2.127810 1_555
F9 Nb3 2.127819 1_555
F10 Nb4 2.127817 1_555
F11 Nb5 2.127810 1_555
F12 Nb3 2.127819 1_555
F13 Nb4 2.127817 1_555
F14 Nb5 2.127810 1_555
F15 Nb0 2.127819 1_555
F16 Nb1 2.127817 1_555
F17 Nb2 2.127810 1_555
F22 Nb0 2.035158 1_555
F23 Nb1 2.035155 1_555
F24 Nb2 2.035154 1_555
F25 Nb3 2.035158 1_555
F26 Nb4 2.035155 1_555
F27 Nb5 2.035154 1_555
F28 Nb3 2.035158 1_555
F29 Nb4 2.035155 1_555
F30 Nb5 2.035154 1_555
F31 Nb0 2.035158 1_555
F32 Nb1 2.035155 1_555
F33 Nb2 2.035154 1_555
F34 Nb0 2.046991 1_555
F35 Nb1 2.046987 1_555
F36 Nb2 2.046979 1_555
F37 Nb3 2.046991 1_555
F38 Nb4 2.046987 1_555
F39 Nb5 2.046979 1_555
