# generated using pymatgen
data_U(CoGe)2
_symmetry_space_group_name_H-M   'P 1'
_cell_length_a   4.11815028
_cell_length_b   4.11815028
_cell_length_c   9.22904576
_cell_angle_alpha   90.00000000
_cell_angle_beta   90.00000000
_cell_angle_gamma   90.00000000
_symmetry_Int_Tables_number   1
_chemical_formula_structural   U(CoGe)2
_chemical_formula_sum   'U2 Co4 Ge4'
_cell_volume   156.51687965
_cell_formula_units_Z   2
loop_
 _symmetry_equiv_pos_site_id
 _symmetry_equiv_pos_as_xyz
  1  'x, y, z'
loop_
 _atom_site_type_symbol
 _atom_site_label
 _atom_site_symmetry_multiplicity
 _atom_site_fract_x
 _atom_site_fract_y
 _atom_site_fract_z
 _atom_site_occupancy
  U  U0  1  0.75000000  0.75000000  0.24527911  1
  U  U1  1  0.25000000  0.25000000  0.75472089  1
  Co  Co0  1  0.75000000  0.25000000  -0.00000000  1
  Co  Co1  1  0.25000000  0.75000000  -0.00000000  1
  Co  Co2  1  0.75000000  0.75000000  0.62442484  1
  Co  Co3  1  0.25000000  0.25000000  0.37557516  1
  Ge  Ge0  1  0.75000000  0.25000000  0.50000000  1
  Ge  Ge1  1  0.25000000  0.75000000  0.50000000  1
  Ge  Ge2  1  0.75000000  0.75000000  0.87178875  1
  Ge  Ge3  1  0.25000000  0.25000000  0.12821125  1
loop_
_geom_bond_atom_site_label_1
_geom_bond_atom_site_label_2
_geom_bond_distance
_geom_bond_site_symmetry_2
Co0 Ge2 2.374850 1_544
Co0 Ge3 2.374850 1_555
Co0 Ge3 2.374850 1_655
Co0 Ge2 2.374850 1_554
Co0 U0 3.060080 1_555
Co0 U0 3.060080 1_545
Co0 U1 3.060080 1_654
Co0 U1 3.060080 1_554
Co1 Ge2 2.374850 1_454
Co1 Ge3 2.374850 1_555
Co1 Ge3 2.374850 1_565
Co1 Ge2 2.374850 1_554
Co1 U0 3.060080 1_555
Co1 U0 3.060080 1_455
Co1 U1 3.060080 1_554
Co1 U1 3.060080 1_564
Co2 Ge2 2.282933 1_555
Co2 Ge1 2.357633 1_655
Co2 Ge0 2.357633 1_555
Co2 Ge0 2.357633 1_565
Co2 Ge1 2.357633 1_555
Co2 U1 3.150493 1_665
Co2 U1 3.150493 1_555
Co2 U1 3.150493 1_655
Co2 U1 3.150493 1_565
Co3 Ge3 2.282933 1_555
Co3 Ge1 2.357633 1_545
Co3 Ge0 2.357633 1_455
Co3 Ge0 2.357633 1_555
Co3 Ge1 2.357633 1_555
Co3 U0 3.150493 1_545
Co3 U0 3.150493 1_555
Co3 U0 3.150493 1_445
Co3 U0 3.150493 1_455
Ge0 U0 3.125091 1_545
Ge0 U0 3.125091 1_555
Ge0 U1 3.125091 1_555
Ge0 U1 3.125091 1_655
Ge1 U0 3.125091 1_555
Ge1 U1 3.125091 1_555
Ge1 U0 3.125091 1_455
Ge1 U1 3.125091 1_565
Ge2 U1 3.105946 1_555
Ge2 U1 3.105946 1_565
Ge2 U1 3.105946 1_655
Ge2 U1 3.105946 1_665
Ge3 U0 3.105946 1_545
Ge3 U0 3.105946 1_555
Ge3 U0 3.105946 1_455
Ge3 U0 3.105946 1_445
