# generated using pymatgen
data_Mn4ZnO9
_symmetry_space_group_name_H-M   'P 1'
_cell_length_a   8.55721400
_cell_length_b   8.55721400
_cell_length_c   4.76161700
_cell_angle_alpha   90.00000000
_cell_angle_beta   90.00000000
_cell_angle_gamma   90.00000000
_symmetry_Int_Tables_number   1
_chemical_formula_structural   Mn4ZnO9
_chemical_formula_sum   'Mn8 Zn2 O18'
_cell_volume   348.67374476
_cell_formula_units_Z   2
loop_
 _symmetry_equiv_pos_site_id
 _symmetry_equiv_pos_as_xyz
  1  'x, y, z'
loop_
 _atom_site_type_symbol
 _atom_site_label
 _atom_site_symmetry_multiplicity
 _atom_site_fract_x
 _atom_site_fract_y
 _atom_site_fract_z
 _atom_site_occupancy
  Mn  Mn0  1  0.09043300  0.78227900  0.60331900  1
  Mn  Mn1  1  0.21772100  0.09043300  0.39668100  1
  Mn  Mn2  1  0.71772100  0.59043300  0.60331900  1
  Mn  Mn3  1  0.59043300  0.28227900  0.39668100  1
  Mn  Mn4  1  0.90956700  0.21772100  0.60331900  1
  Mn  Mn5  1  0.28227900  0.40956700  0.60331900  1
  Mn  Mn6  1  0.40956700  0.71772100  0.39668100  1
  Mn  Mn7  1  0.78227900  0.90956700  0.39668100  1
  Zn  Zn0  1  0.00000000  0.50000000  0.00592500  1
  Zn  Zn1  1  0.50000000  0.00000000  0.99407500  1
  O  O0  1  0.00000000  0.00000000  0.50000000  1
  O  O1  1  0.50000000  0.50000000  0.50000000  1
  O  O2  1  0.72177000  0.93534000  0.04743800  1
  O  O3  1  0.43534000  0.77823000  0.04743800  1
  O  O4  1  0.56466000  0.22177000  0.04743800  1
  O  O5  1  0.27823000  0.06466000  0.04743800  1
  O  O6  1  0.77823000  0.56466000  0.95256200  1
  O  O7  1  0.06466000  0.72177000  0.95256200  1
  O  O8  1  0.93534000  0.27823000  0.95256200  1
  O  O9  1  0.22177000  0.43534000  0.95256200  1
  O  O10  1  0.10859200  0.28776700  0.46985100  1
  O  O11  1  0.78776700  0.39140800  0.46985100  1
  O  O12  1  0.21223300  0.60859200  0.46985100  1
  O  O13  1  0.89140800  0.71223300  0.46985100  1
  O  O14  1  0.60859200  0.78776700  0.53014900  1
  O  O15  1  0.71223300  0.10859200  0.53014900  1
  O  O16  1  0.28776700  0.89140800  0.53014900  1
  O  O17  1  0.39140800  0.21223300  0.53014900  1
loop_
_geom_bond_atom_site_label_1
_geom_bond_atom_site_label_2
_geom_bond_distance
_geom_bond_site_symmetry_2
Mn0 O7 1.755615 1_555
Mn0 O13 1.914084 1_455
Mn0 O12 1.923339 1_555
Mn0 O16 1.960845 1_555
Mn0 O0 2.076528 1_565
Mn1 O5 1.755615 1_555
Mn1 O16 1.914084 1_545
Mn1 O17 1.923339 1_555
Mn1 O10 1.960845 1_555
Mn1 O0 2.076528 1_555
Mn2 O6 1.755615 1_555
Mn2 O11 1.914084 1_555
Mn2 O13 1.923339 1_555
Mn2 O14 1.960845 1_555
Mn2 O1 2.076528 1_555
Mn3 O4 1.755615 1_555
Mn3 O17 1.914084 1_555
Mn3 O15 1.923339 1_555
Mn3 O11 1.960845 1_555
Mn3 O1 2.076528 1_555
Mn4 O8 1.755615 1_555
Mn4 O10 1.914084 1_655
Mn4 O11 1.923339 1_555
Mn4 O15 1.960845 1_555
Mn4 O0 2.076528 1_655
Mn5 O9 1.755615 1_555
Mn5 O12 1.914084 1_555
Mn5 O10 1.923339 1_555
Mn5 O17 1.960845 1_555
Mn5 O1 2.076528 1_555
Mn6 O3 1.755615 1_555
Mn6 O14 1.914084 1_555
Mn6 O16 1.923339 1_555
Mn6 O12 1.960845 1_555
Mn6 O1 2.076528 1_555
Mn7 O2 1.755615 1_555
Mn7 O15 1.914084 1_565
Mn7 O14 1.923339 1_555
Mn7 O13 1.960845 1_555
Mn7 O0 2.076528 1_665
O2 Zn1 1.993015 1_564
O3 Zn1 1.993015 1_564
O4 Zn1 1.993015 1_554
O5 Zn1 1.993015 1_554
O6 Zn0 1.993015 1_656
O7 Zn0 1.993015 1_556
O8 Zn0 1.993015 1_656
O9 Zn0 1.993015 1_556
