# generated using pymatgen
data_Pr2H16S3O20
_symmetry_space_group_name_H-M   'P 1'
_cell_length_a   6.88802900
_cell_length_b   7.78974237
_cell_length_c   18.63795179
_cell_angle_alpha   101.19854948
_cell_angle_beta   90.00000000
_cell_angle_gamma   116.23933136
_symmetry_Int_Tables_number   1
_chemical_formula_structural   Pr2H16S3O20
_chemical_formula_sum   'Pr4 H32 S6 O40'
_cell_volume   875.71025509
_cell_formula_units_Z   2
loop_
 _symmetry_equiv_pos_site_id
 _symmetry_equiv_pos_as_xyz
  1  'x, y, z'
loop_
 _atom_site_type_symbol
 _atom_site_label
 _atom_site_symmetry_multiplicity
 _atom_site_fract_x
 _atom_site_fract_y
 _atom_site_fract_z
 _atom_site_occupancy
  Pr  Pr0  1  0.85765600  0.66009200  0.60689100  1
  Pr  Pr1  1  0.19756400  0.33990800  0.89310900  1
  Pr  Pr2  1  0.14234400  0.33990800  0.39310900  1
  Pr  Pr3  1  0.80243600  0.66009200  0.10689100  1
  H  H0  1  0.69125700  0.98584600  0.66008200  1
  H  H1  1  0.70541000  0.01415400  0.83991800  1
  H  H2  1  0.30874300  0.01415400  0.33991800  1
  H  H3  1  0.29459000  0.98584700  0.16008200  1
  H  H4  1  0.94148500  0.10334900  0.64812500  1
  H  H5  1  0.83813700  0.89665100  0.85187500  1
  H  H6  1  0.05851500  0.89665100  0.35187500  1
  H  H7  1  0.16186300  0.10334900  0.14812500  1
  H  H8  1  0.79581800  0.54305400  0.75855400  1
  H  H9  1  0.25276500  0.45694600  0.74144600  1
  H  H10  1  0.20418200  0.45694600  0.24144600  1
  H  H11  1  0.74723500  0.54305400  0.25855400  1
  H  H12  1  0.63744000  0.34298000  0.70229700  1
  H  H13  1  0.29446000  0.65702000  0.79770300  1
  H  H14  1  0.36256000  0.65702000  0.29770300  1
  H  H15  1  0.70554000  0.34298000  0.20229700  1
  H  H16  1  0.49710300  0.27811300  0.51739800  1
  H  H17  1  0.21899000  0.72188700  0.98260200  1
  H  H18  1  0.50289700  0.72188700  0.48260200  1
  H  H19  1  0.78101000  0.27811300  0.01739800  1
  H  H20  1  0.70163900  0.23544100  0.50730500  1
  H  H21  1  0.46619800  0.76455900  0.99269500  1
  H  H22  1  0.29836100  0.76455900  0.49269500  1
  H  H23  1  0.53380200  0.23544100  0.00730500  1
  H  H24  1  0.32084300  0.98848500  0.60757800  1
  H  H25  1  0.33235800  0.01151500  0.89242200  1
  H  H26  1  0.67915700  0.01151500  0.39242200  1
  H  H27  1  0.66764200  0.98848500  0.10757800  1
  H  H28  1  0.18652100  0.01960700  0.54672200  1
  H  H29  1  0.16691300  0.98039300  0.95327800  1
  H  H30  1  0.81347900  0.98039300  0.45327800  1
  H  H31  1  0.83308700  0.01960700  0.04672200  1
  S  S0  1  0.32446200  0.00000000  0.75000000  1
  S  S1  1  0.67553800  0.00000000  0.25000000  1
  S  S2  1  0.75163700  0.57169400  0.41050600  1
  S  S3  1  0.17994300  0.42830600  0.08949400  1
  S  S4  1  0.24836300  0.42830600  0.58949400  1
  S  S5  1  0.82005700  0.57169400  0.91050600  1
  O  O0  1  0.81657200  0.97061100  0.63980300  1
  O  O1  1  0.84596000  0.02938900  0.86019700  1
  O  O2  1  0.18342800  0.02938900  0.36019700  1
  O  O3  1  0.15404000  0.97061100  0.13980300  1
  O  O4  1  0.74435800  0.48054200  0.70600700  1
  O  O5  1  0.26381500  0.51945800  0.79399300  1
  O  O6  1  0.25564200  0.51945800  0.29399300  1
  O  O7  1  0.73618500  0.48054200  0.20600700  1
  O  O8  1  0.63605000  0.30226600  0.54226500  1
  O  O9  1  0.33378400  0.69773400  0.95773500  1
  O  O10  1  0.36395000  0.69773400  0.45773500  1
  O  O11  1  0.66621600  0.30226600  0.04226500  1
  O  O12  1  0.20730100  0.91792300  0.56467300  1
  O  O13  1  0.28937800  0.08207700  0.93532700  1
  O  O14  1  0.79269900  0.08207700  0.43532700  1
  O  O15  1  0.71062200  0.91792300  0.06467300  1
  O  O16  1  0.11693300  0.83364200  0.71387000  1
  O  O17  1  0.28329100  0.16635800  0.78613000  1
  O  O18  1  0.88306700  0.16635800  0.28613000  1
  O  O19  1  0.71670900  0.83364200  0.21387000  1
  O  O20  1  0.48023200  0.06400500  0.69325600  1
  O  O21  1  0.41622700  0.93599500  0.80674400  1
  O  O22  1  0.51976800  0.93599500  0.30674400  1
  O  O23  1  0.58377300  0.06400500  0.19325600  1
  O  O24  1  0.76475300  0.71099300  0.48184500  1
  O  O25  1  0.05376000  0.28900700  0.01815500  1
  O  O26  1  0.23524700  0.28900700  0.51815500  1
  O  O27  1  0.94624000  0.71099300  0.98184500  1
  O  O28  1  0.90023700  0.48694200  0.42333100  1
  O  O29  1  0.41329500  0.51305800  0.07666900  1
  O  O30  1  0.09976300  0.51305800  0.57666900  1
  O  O31  1  0.58670500  0.48694200  0.92333100  1
  O  O32  1  0.52532500  0.41319300  0.39309300  1
  O  O33  1  0.11213300  0.58680700  0.10690700  1
  O  O34  1  0.47467500  0.58680700  0.60690700  1
  O  O35  1  0.88786700  0.41319300  0.89309300  1
  O  O36  1  0.81573000  0.68072200  0.35118700  1
  O  O37  1  0.13500800  0.31927800  0.14881300  1
  O  O38  1  0.18427000  0.31927800  0.64881300  1
  O  O39  1  0.86499200  0.68072200  0.85118700  1
loop_
_geom_bond_atom_site_label_1
_geom_bond_atom_site_label_2
_geom_bond_distance
_geom_bond_site_symmetry_2
H0 O0 0.987504 1_555
H1 O1 0.987504 1_555
H2 O2 0.987504 1_555
H3 O3 0.987501 1_555
H4 O0 0.992237 1_545
H5 O1 0.992243 1_565
H6 O2 0.992237 1_565
H7 O3 0.992243 1_545
H8 O4 0.991999 1_555
H9 O5 0.992001 1_555
H10 O6 0.991999 1_555
H11 O7 0.992001 1_555
H12 O4 0.984287 1_555
H13 O5 0.984285 1_555
H14 O6 0.984287 1_555
H15 O7 0.984285 1_555
H16 O8 0.986455 1_555
H17 O9 0.986455 1_555
H18 O10 0.986455 1_555
H19 O11 0.986455 1_555
H20 O8 0.987847 1_555
H21 O9 0.987847 1_555
H22 O10 0.987847 1_555
H23 O11 0.987847 1_555
H24 O12 1.001195 1_555
H25 O13 1.001195 1_555
H26 O14 1.001195 1_555
H27 O15 1.001195 1_555
H28 O12 0.981336 1_545
H29 O13 0.981339 1_565
H30 O14 0.981336 1_565
H31 O15 0.981339 1_545
O0 Pr0 2.517182 1_555
O1 Pr1 2.517186 1_655
O2 Pr2 2.517182 1_555
O3 Pr3 2.517186 1_455
O4 Pr0 2.452805 1_555
O5 Pr1 2.452805 1_555
O6 Pr2 2.452805 1_555
O7 Pr3 2.452805 1_555
O8 Pr0 2.546362 1_555
O9 Pr1 2.546362 1_555
O10 Pr2 2.546362 1_555
O11 Pr3 2.546362 1_555
O12 Pr0 2.605743 1_455
O13 Pr1 2.605743 1_555
O14 Pr2 2.605743 1_655
O15 Pr3 2.605743 1_555
O16 S0 1.482971 1_565
O16 Pr0 2.410548 1_455
O17 S0 1.482971 1_555
O17 Pr1 2.410548 1_555
O18 S1 1.482971 1_555
O18 Pr2 2.410548 1_655
O19 S1 1.482971 1_565
O19 Pr3 2.410548 1_555
O20 S0 1.500029 1_555
O21 S0 1.500029 1_565
O22 S1 1.500029 1_565
O23 S1 1.500029 1_555
O24 S2 1.518683 1_555
O24 Pr0 2.565485 1_555
O25 S3 1.518683 1_555
O25 Pr1 2.565485 1_554
O26 S4 1.518683 1_555
O26 Pr2 2.565485 1_555
O27 S5 1.518683 1_555
O27 Pr3 2.565485 1_556
O28 S2 1.483070 1_555
O28 Pr2 2.418367 1_655
O29 S3 1.483070 1_555
O29 Pr3 2.418367 1_555
O30 S4 1.483070 1_555
O30 Pr0 2.418367 1_455
O31 S5 1.483070 1_555
O31 Pr1 2.418367 1_555
O32 S2 1.483993 1_555
O32 Pr2 2.439938 1_555
O33 S3 1.483989 1_555
O33 Pr3 2.439944 1_455
O34 S4 1.483993 1_555
O34 Pr0 2.439938 1_555
O35 S5 1.483989 1_555
O35 Pr1 2.439944 1_655
O36 S2 1.473669 1_555
O37 S3 1.473669 1_555
O38 S4 1.473669 1_555
O39 S5 1.473669 1_555
