# generated using pymatgen
data_Cu(IrS2)2
_symmetry_space_group_name_H-M   'P 1'
_cell_length_a   6.97610960
_cell_length_b   6.97610962
_cell_length_c   6.97610843
_cell_angle_alpha   60.00000084
_cell_angle_beta   60.00000076
_cell_angle_gamma   60.00000333
_symmetry_Int_Tables_number   1
_chemical_formula_structural   Cu(IrS2)2
_chemical_formula_sum   'Cu2 Ir4 S8'
_cell_volume   240.06278047
_cell_formula_units_Z   2
loop_
 _symmetry_equiv_pos_site_id
 _symmetry_equiv_pos_as_xyz
  1  'x, y, z'
loop_
 _atom_site_type_symbol
 _atom_site_label
 _atom_site_symmetry_multiplicity
 _atom_site_fract_x
 _atom_site_fract_y
 _atom_site_fract_z
 _atom_site_occupancy
  Cu  Cu0  1  0.87500000  0.87500000  0.87500000  1
  Cu  Cu1  1  0.12500000  0.12500000  0.12500000  1
  Ir  Ir0  1  0.50000000  0.50000000  0.00000000  1
  Ir  Ir1  1  0.50000000  0.50000000  0.50000000  1
  Ir  Ir2  1  -0.00000000  0.50000000  0.50000000  1
  Ir  Ir3  1  0.50000000  -0.00000000  0.50000000  1
  S  S0  1  0.74025749  0.74025749  0.74025749  1
  S  S1  1  0.25974251  0.25974251  0.72077147  1
  S  S2  1  0.25974251  0.72077147  0.25974251  1
  S  S3  1  0.72077147  0.25974251  0.25974251  1
  S  S4  1  0.74025749  0.27922853  0.74025749  1
  S  S5  1  0.27922853  0.74025749  0.74025749  1
  S  S6  1  0.25974251  0.25974251  0.25974251  1
  S  S7  1  0.74025749  0.74025749  0.27922853  1
loop_
_geom_bond_atom_site_label_1
_geom_bond_atom_site_label_2
_geom_bond_distance
_geom_bond_site_symmetry_2
Cu0 S0 2.302468 1_555
Cu0 S7 2.302473 1_556
Cu0 S5 2.302473 1_655
Cu0 S4 2.302474 1_565
Cu1 S6 2.302468 1_555
Cu1 S1 2.302473 1_554
Cu1 S3 2.302473 1_455
Cu1 S2 2.302474 1_545
Ir0 S4 2.374200 1_554
Ir0 S2 2.374200 1_555
Ir0 S3 2.374200 1_555
Ir0 S5 2.374200 1_554
Ir0 S0 2.374205 1_554
Ir0 S6 2.374205 1_555
Ir1 S4 2.374205 1_555
Ir1 S2 2.374205 1_555
Ir1 S5 2.374205 1_555
Ir1 S3 2.374205 1_555
Ir1 S7 2.374205 1_555
Ir1 S1 2.374205 1_555
Ir2 S1 2.374200 1_555
Ir2 S7 2.374200 1_455
Ir2 S2 2.374200 1_555
Ir2 S4 2.374200 1_455
Ir2 S0 2.374205 1_455
Ir2 S6 2.374205 1_555
Ir3 S1 2.374200 1_555
Ir3 S7 2.374200 1_545
Ir3 S3 2.374200 1_555
Ir3 S5 2.374200 1_545
Ir3 S0 2.374205 1_545
Ir3 S6 2.374205 1_555
