# generated using pymatgen
data_Li7(SnO3)4
_symmetry_space_group_name_H-M   'P 1'
_cell_length_a   5.38339777
_cell_length_b   5.38339777
_cell_length_c   10.14895538
_cell_angle_alpha   84.82203878
_cell_angle_beta   84.82203878
_cell_angle_gamma   120.09981229
_symmetry_Int_Tables_number   1
_chemical_formula_structural   Li7(SnO3)4
_chemical_formula_sum   'Li7 Sn4 O12'
_cell_volume   250.27223156
_cell_formula_units_Z   1
loop_
 _symmetry_equiv_pos_site_id
 _symmetry_equiv_pos_as_xyz
  1  'x, y, z'
loop_
 _atom_site_type_symbol
 _atom_site_label
 _atom_site_symmetry_multiplicity
 _atom_site_fract_x
 _atom_site_fract_y
 _atom_site_fract_z
 _atom_site_occupancy
  Li  Li0  1  0.84795800  0.69539300  0.25223800  1
  Li  Li1  1  0.30460700  0.15204200  0.74776200  1
  Li  Li2  1  0.15754900  0.30086600  0.25454700  1
  Li  Li3  1  0.69913400  0.84245100  0.74545300  1
  Li  Li4  1  0.91463600  0.08536400  0.00000000  1
  Li  Li5  1  0.00090700  0.50919100  0.74706000  1
  Li  Li6  1  0.49080900  0.99909300  0.25294000  1
  Sn  Sn0  1  0.41808100  0.58191900  0.50000000  1
  Sn  Sn1  1  0.58159200  0.41840800  0.00000000  1
  Sn  Sn2  1  0.75061200  0.24938800  0.50000000  1
  Sn  Sn3  1  0.25002800  0.74997200  0.00000000  1
  O  O0  1  0.49903400  0.33128700  0.37635800  1
  O  O1  1  0.66871300  0.50096600  0.62364200  1
  O  O2  1  0.52826600  0.69545500  0.11529800  1
  O  O3  1  0.30454500  0.47173400  0.88470200  1
  O  O4  1  0.12619100  0.58246100  0.37663900  1
  O  O5  1  0.41753900  0.87380900  0.62336100  1
  O  O6  1  0.87618800  0.39701400  0.11501200  1
  O  O7  1  0.60298600  0.12381200  0.88498800  1
  O  O8  1  0.75304400  0.95890900  0.37461900  1
  O  O9  1  0.04109100  0.24695600  0.62538100  1
  O  O10  1  0.22526900  0.04177900  0.12060200  1
  O  O11  1  0.95822100  0.77473100  0.87939800  1
loop_
_geom_bond_atom_site_label_1
_geom_bond_atom_site_label_2
_geom_bond_distance
_geom_bond_site_symmetry_2
Li0 O0 2.095594 1_555
Li0 O10 2.156225 1_665
Li0 O8 2.178698 1_555
Li0 O6 2.270094 1_555
Li0 O4 2.307229 1_655
Li0 O2 2.307749 1_555
Li1 O1 2.095594 1_555
Li1 O11 2.156225 1_445
Li1 O9 2.178698 1_555
Li1 O7 2.270094 1_555
Li1 O5 2.307229 1_545
Li1 O3 2.307749 1_555
Li2 O4 2.102362 1_555
Li2 O10 2.165423 1_555
Li2 O8 2.170515 1_445
Li2 O0 2.253766 1_555
Li2 O2 2.278019 1_555
Li2 O6 2.368297 1_455
Li3 O5 2.102362 1_555
Li3 O11 2.165423 1_555
Li3 O9 2.170515 1_665
Li3 O1 2.253766 1_555
Li3 O3 2.278019 1_555
Li3 O7 2.368297 1_565
Li4 O3 2.199945 1_654
Li4 O2 2.199945 1_545
Li4 O6 2.208686 1_555
Li4 O7 2.208686 1_554
Li4 O10 2.249625 1_655
Li4 O11 2.249625 1_544
Li5 O9 2.034089 1_555
Li5 O11 2.126152 1_455
Li5 O5 2.256259 1_555
Li5 O1 2.259185 1_455
Li5 O7 2.308562 1_455
Li5 O3 2.314282 1_555
Li6 O8 2.034089 1_555
Li6 O10 2.126152 1_565
Li6 O4 2.256259 1_555
Li6 O0 2.259185 1_565
Li6 O6 2.308562 1_565
Li6 O2 2.314282 1_555
O0 Sn0 2.093250 1_555
O0 Sn2 2.099779 1_555
O1 Sn0 2.093250 1_555
O1 Sn2 2.099779 1_555
O2 Sn1 2.088047 1_555
O2 Sn3 2.096260 1_555
O3 Sn1 2.088047 1_556
O3 Sn3 2.096260 1_556
O4 Sn2 2.090972 1_455
O4 Sn0 2.096589 1_555
O5 Sn2 2.090972 1_565
O5 Sn0 2.096589 1_555
O6 Sn3 2.088844 1_655
O6 Sn1 2.093796 1_555
O7 Sn3 2.088844 1_546
O7 Sn1 2.093796 1_556
O8 Sn0 2.106825 1_555
O8 Sn2 2.107474 1_565
O9 Sn0 2.106825 1_555
O9 Sn2 2.107474 1_455
O10 Sn3 2.123982 1_545
O10 Sn1 2.125069 1_555
O11 Sn3 2.123982 1_656
O11 Sn1 2.125069 1_556
