# generated using pymatgen
data_Tb2ZnCuSi2
_symmetry_space_group_name_H-M   'P 1'
_cell_length_a   4.04058800
_cell_length_b   4.08506575
_cell_length_c   7.07751763
_cell_angle_alpha   90.07824609
_cell_angle_beta   90.00000000
_cell_angle_gamma   90.00000000
_symmetry_Int_Tables_number   1
_chemical_formula_structural   Tb2ZnCuSi2
_chemical_formula_sum   'Tb2 Zn1 Cu1 Si2'
_cell_volume   116.82187593
_cell_formula_units_Z   1
loop_
 _symmetry_equiv_pos_site_id
 _symmetry_equiv_pos_as_xyz
  1  'x, y, z'
loop_
 _atom_site_type_symbol
 _atom_site_label
 _atom_site_symmetry_multiplicity
 _atom_site_fract_x
 _atom_site_fract_y
 _atom_site_fract_z
 _atom_site_occupancy
  Tb  Tb0  1  0.00000000  0.99998900  0.00333000  1
  Tb  Tb1  1  0.00000000  0.49991600  0.49663000  1
  Zn  Zn0  1  0.50000000  0.50022200  0.83517300  1
  Cu  Cu0  1  0.50000000  0.00012000  0.33221600  1
  Si  Si0  1  0.50000000  0.49978200  0.17280200  1
  Si  Si1  1  0.50000000  0.99977000  0.65984900  1
loop_
_geom_bond_atom_site_label_1
_geom_bond_atom_site_label_2
_geom_bond_distance
_geom_bond_site_symmetry_2
Tb0 Zn0 3.107961 1_454
Tb0 Zn0 3.107961 1_554
Tb0 Zn0 3.111347 1_464
Tb0 Zn0 3.111347 1_564
Tb1 Zn0 3.134104 1_555
Tb1 Zn0 3.134104 1_455
Cu0 Si1 2.318831 1_545
Cu0 Si0 2.333291 1_545
Cu0 Si0 2.333571 1_555
Cu0 Tb0 3.082167 1_545
Cu0 Tb0 3.082167 1_645
Cu0 Tb1 3.098016 1_555
Cu0 Tb1 3.098016 1_655
Cu0 Tb1 3.101208 1_545
Cu0 Tb1 3.101208 1_645
Si0 Zn0 2.389578 1_554
Si0 Tb1 3.055222 1_555
Si0 Tb1 3.055222 1_655
Si0 Tb0 3.111598 1_545
Si0 Tb0 3.111598 1_645
Si0 Tb0 3.114857 1_555
Si0 Tb0 3.114857 1_655
Si1 Zn0 2.389780 1_555
Si1 Zn0 2.390039 1_565
Si1 Tb1 3.095013 1_555
Si1 Tb1 3.095013 1_655
Si1 Tb1 3.097881 1_565
Si1 Tb1 3.097881 1_665
Si1 Tb0 3.160903 1_556
Si1 Tb0 3.160903 1_656
