# generated using pymatgen
data_TaCr3(CuS4)2
_symmetry_space_group_name_H-M   'P 1'
_cell_length_a   6.47776500
_cell_length_b   7.19094500
_cell_length_c   12.28049400
_cell_angle_alpha   90.00000000
_cell_angle_beta   90.00000000
_cell_angle_gamma   90.00000000
_symmetry_Int_Tables_number   1
_chemical_formula_structural   TaCr3(CuS4)2
_chemical_formula_sum   'Ta2 Cr6 Cu4 S16'
_cell_volume   572.04078371
_cell_formula_units_Z   2
loop_
 _symmetry_equiv_pos_site_id
 _symmetry_equiv_pos_as_xyz
  1  'x, y, z'
loop_
 _atom_site_type_symbol
 _atom_site_label
 _atom_site_symmetry_multiplicity
 _atom_site_fract_x
 _atom_site_fract_y
 _atom_site_fract_z
 _atom_site_occupancy
  Ta  Ta0  1  0.64864200  0.50000000  0.93942000  1
  Ta  Ta1  1  0.35135800  0.00000000  0.43942000  1
  Cr  Cr0  1  0.81056200  0.50000000  0.63250100  1
  Cr  Cr1  1  0.72692100  0.00000000  0.27473900  1
  Cr  Cr2  1  0.18943800  0.00000000  0.13250100  1
  Cr  Cr3  1  0.27307900  0.50000000  0.77473900  1
  Cr  Cr4  1  0.84131800  0.00000000  0.05542100  1
  Cr  Cr5  1  0.15868200  0.50000000  0.55542100  1
  Cu  Cu0  1  0.89979300  0.00000000  0.60159500  1
  Cu  Cu1  1  0.55226800  0.50000000  0.41969900  1
  Cu  Cu2  1  0.10020700  0.50000000  0.10159500  1
  Cu  Cu3  1  0.44773200  0.00000000  0.91969900  1
  S  S0  1  0.94333100  0.22161200  0.17319500  1
  S  S1  1  0.52969000  0.26473500  0.82876000  1
  S  S2  1  0.05666900  0.27838800  0.67319500  1
  S  S3  1  0.47031000  0.23526500  0.32876000  1
  S  S4  1  0.47031000  0.76473500  0.32876000  1
  S  S5  1  0.05666900  0.72161200  0.67319500  1
  S  S6  1  0.52969000  0.73526500  0.82876000  1
  S  S7  1  0.94333100  0.77838800  0.17319500  1
  S  S8  1  0.53764900  0.00000000  0.59644200  1
  S  S9  1  0.89762000  0.50000000  0.44861100  1
  S  S10  1  0.46235100  0.50000000  0.09644200  1
  S  S11  1  0.10238000  0.00000000  0.94861100  1
  S  S12  1  0.01121400  0.50000000  0.92222300  1
  S  S13  1  0.52248800  0.00000000  0.10543800  1
  S  S14  1  0.98878600  0.00000000  0.42222300  1
  S  S15  1  0.47751200  0.50000000  0.60543800  1
loop_
_geom_bond_atom_site_label_1
_geom_bond_atom_site_label_2
_geom_bond_distance
_geom_bond_site_symmetry_2
Cr0 S15 2.182868 1_555
Cr0 S2 2.308863 1_655
Cr0 S5 2.308863 1_655
Cr0 S9 2.327610 1_555
Cr1 S7 2.461664 1_545
Cr1 S0 2.461664 1_555
Cr1 S4 2.462792 1_545
Cr1 S3 2.462792 1_555
Cr1 S13 2.465024 1_555
Cr1 S14 2.481490 1_555
Cr2 S13 2.182868 1_555
Cr2 S0 2.308863 1_455
Cr2 S7 2.308863 1_445
Cr2 S11 2.327610 1_554
Cr3 S2 2.461664 1_555
Cr3 S5 2.461664 1_555
Cr3 S6 2.462792 1_555
Cr3 S1 2.462792 1_555
Cr3 S15 2.465024 1_555
Cr3 S12 2.481490 1_555
Cr4 S11 2.140167 1_654
Cr4 S13 2.154709 1_555
Cr4 S0 2.251241 1_555
Cr4 S7 2.251241 1_545
Cr5 S9 2.140167 1_455
Cr5 S15 2.154709 1_555
Cr5 S2 2.251241 1_555
Cr5 S5 2.251241 1_555
Cu0 S14 2.276961 1_555
Cu0 S8 2.346737 1_555
Cu0 S5 2.411080 1_645
Cu0 S2 2.411080 1_655
Cu1 S9 2.265109 1_555
Cu1 S3 2.270045 1_555
Cu1 S4 2.270045 1_555
Cu1 S15 2.331804 1_555
Cu2 S12 2.276961 1_554
Cu2 S10 2.346737 1_555
Cu2 S0 2.411080 1_455
Cu2 S7 2.411080 1_455
Cu3 S11 2.265109 1_555
Cu3 S1 2.270045 1_555
Cu3 S6 2.270045 1_545
Cu3 S13 2.331804 1_556
S1 Ta0 2.302742 1_555
S3 Ta1 2.302742 1_555
S4 Ta1 2.302742 1_565
S6 Ta0 2.302742 1_555
S8 Ta1 2.274778 1_555
S10 Ta0 2.274778 1_554
S12 Ta0 2.358132 1_455
S14 Ta1 2.358132 1_655
