# generated using pymatgen
data_Li3Tb
_symmetry_space_group_name_H-M   'P 1'
_cell_length_a   6.57944704
_cell_length_b   6.57944704
_cell_length_c   5.04373800
_cell_angle_alpha   90.00000000
_cell_angle_beta   90.00000000
_cell_angle_gamma   119.99999033
_symmetry_Int_Tables_number   1
_chemical_formula_structural   Li3Tb
_chemical_formula_sum   'Li6 Tb2'
_cell_volume   189.08713587
_cell_formula_units_Z   2
loop_
 _symmetry_equiv_pos_site_id
 _symmetry_equiv_pos_as_xyz
  1  'x, y, z'
loop_
 _atom_site_type_symbol
 _atom_site_label
 _atom_site_symmetry_multiplicity
 _atom_site_fract_x
 _atom_site_fract_y
 _atom_site_fract_z
 _atom_site_occupancy
  Li  Li0  1  0.14966900  0.29933800  0.25000000  1
  Li  Li1  1  0.70066200  0.85033100  0.25000000  1
  Li  Li2  1  0.14966900  0.85033100  0.25000000  1
  Li  Li3  1  0.85033100  0.70066200  0.75000000  1
  Li  Li4  1  0.29933800  0.14966900  0.75000000  1
  Li  Li5  1  0.85033100  0.14966900  0.75000000  1
  Tb  Tb0  1  0.33333300  0.66666700  0.75000000  1
  Tb  Tb1  1  0.66666700  0.33333300  0.25000000  1
loop_
_geom_bond_atom_site_label_1
_geom_bond_atom_site_label_2
_geom_bond_distance
_geom_bond_site_symmetry_2
Li0 Li2 2.954218 1_545
Li0 Li1 2.954218 1_445
Li0 Li4 3.044496 1_554
Li0 Li4 3.044496 1_555
Li0 Li5 3.044496 1_455
Li0 Li5 3.044496 1_454
Li0 Tb0 3.277285 1_554
Li0 Tb0 3.277285 1_555
Li0 Tb1 3.295418 1_455
Li0 Tb1 3.295425 1_555
Li1 Li2 2.954218 1_655
Li1 Li3 3.044496 1_555
Li1 Li3 3.044496 1_554
Li1 Li5 3.044496 1_564
Li1 Li5 3.044496 1_565
Li1 Tb0 3.277285 1_554
Li1 Tb0 3.277285 1_555
Li1 Tb1 3.295418 1_565
Li1 Tb1 3.295425 1_555
Li2 Li3 3.044496 1_455
Li2 Li3 3.044496 1_454
Li2 Li4 3.044496 1_564
Li2 Li4 3.044496 1_565
Li2 Tb0 3.277281 1_554
Li2 Tb0 3.277281 1_555
Li2 Tb1 3.295422 1_455
Li2 Tb1 3.295422 1_565
Li3 Li5 2.954218 1_565
Li3 Li4 2.954218 1_665
Li3 Tb1 3.277285 1_556
Li3 Tb1 3.277285 1_555
Li3 Tb0 3.295418 1_655
Li3 Tb0 3.295425 1_555
Li4 Li5 2.954218 1_455
Li4 Tb1 3.277285 1_556
Li4 Tb1 3.277285 1_555
Li4 Tb0 3.295418 1_545
Li4 Tb0 3.295425 1_555
Li5 Tb1 3.277281 1_556
Li5 Tb1 3.277281 1_555
Li5 Tb0 3.295422 1_545
Li5 Tb0 3.295422 1_655
