# generated using pymatgen
data_Ca4Zn51
_symmetry_space_group_name_H-M   'P 1'
_cell_length_a   14.87655675
_cell_length_b   14.87655675
_cell_length_c   14.87655630
_cell_angle_alpha   33.82745745
_cell_angle_beta   33.82745745
_cell_angle_gamma   33.82745578
_symmetry_Int_Tables_number   1
_chemical_formula_structural   Ca4Zn51
_chemical_formula_sum   'Ca4 Zn51'
_cell_volume   909.23586189
_cell_formula_units_Z   1
loop_
 _symmetry_equiv_pos_site_id
 _symmetry_equiv_pos_as_xyz
  1  'x, y, z'
loop_
 _atom_site_type_symbol
 _atom_site_label
 _atom_site_symmetry_multiplicity
 _atom_site_fract_x
 _atom_site_fract_y
 _atom_site_fract_z
 _atom_site_occupancy
  Ca  Ca0  1  0.87499500  0.87499500  0.87499500  1
  Ca  Ca1  1  0.37549200  0.37549200  0.37549200  1
  Ca  Ca2  1  0.12500500  0.12500500  0.12500500  1
  Ca  Ca3  1  0.62450800  0.62450800  0.62450800  1
  Zn  Zn0  1  0.71775600  0.47958600  0.08272800  1
  Zn  Zn1  1  0.21886000  0.97853700  0.58122300  1
  Zn  Zn2  1  0.40085000  0.15854100  0.03892700  1
  Zn  Zn3  1  0.90036200  0.66009000  0.53943100  1
  Zn  Zn4  1  0.28224400  0.52041400  0.91727200  1
  Zn  Zn5  1  0.78114000  0.02146300  0.41877700  1
  Zn  Zn6  1  0.59915000  0.84145900  0.96107300  1
  Zn  Zn7  1  0.09963800  0.33991000  0.46056900  1
  Zn  Zn8  1  0.82312800  0.23721400  0.46861500  1
  Zn  Zn9  1  0.33238600  0.72962700  0.96737100  1
  Zn  Zn10  1  0.29428900  0.41414700  0.64510300  1
  Zn  Zn11  1  0.78912000  0.90807200  0.15118800  1
  Zn  Zn12  1  0.70571100  0.58585300  0.35489700  1
  Zn  Zn13  1  0.21088000  0.09192800  0.84881200  1
  Zn  Zn14  1  0.17687200  0.76278600  0.53138500  1
  Zn  Zn15  1  0.66761400  0.27037300  0.03262900  1
  Zn  Zn16  1  0.15854100  0.03892700  0.40085000  1
  Zn  Zn17  1  0.66009000  0.53943100  0.90036200  1
  Zn  Zn18  1  0.47958600  0.08272800  0.71775600  1
  Zn  Zn19  1  0.97853700  0.58122300  0.21886000  1
  Zn  Zn20  1  0.84145900  0.96107300  0.59915000  1
  Zn  Zn21  1  0.33991000  0.46056900  0.09963800  1
  Zn  Zn22  1  0.52041400  0.91727200  0.28224400  1
  Zn  Zn23  1  0.02146300  0.41877700  0.78114000  1
  Zn  Zn24  1  0.41414700  0.64510300  0.29428900  1
  Zn  Zn25  1  0.90807200  0.15118800  0.78912000  1
  Zn  Zn26  1  0.23721400  0.46861500  0.82312800  1
  Zn  Zn27  1  0.72962700  0.96737100  0.33238600  1
  Zn  Zn28  1  0.76278600  0.53138500  0.17687200  1
  Zn  Zn29  1  0.27037300  0.03262900  0.66761400  1
  Zn  Zn30  1  0.58585300  0.35489700  0.70571100  1
  Zn  Zn31  1  0.09192800  0.84881200  0.21088000  1
  Zn  Zn32  1  0.91727200  0.28224400  0.52041400  1
  Zn  Zn33  1  0.41877700  0.78114000  0.02146300  1
  Zn  Zn34  1  0.96107300  0.59915000  0.84145900  1
  Zn  Zn35  1  0.46056900  0.09963800  0.33991000  1
  Zn  Zn36  1  0.08272800  0.71775600  0.47958600  1
  Zn  Zn37  1  0.58122300  0.21886000  0.97853700  1
  Zn  Zn38  1  0.03892700  0.40085000  0.15854100  1
  Zn  Zn39  1  0.53943100  0.90036200  0.66009000  1
  Zn  Zn40  1  0.35489700  0.70571100  0.58585300  1
  Zn  Zn41  1  0.84881200  0.21088000  0.09192800  1
  Zn  Zn42  1  0.53138500  0.17687200  0.76278600  1
  Zn  Zn43  1  0.03262900  0.66761400  0.27037300  1
  Zn  Zn44  1  0.46861500  0.82312800  0.23721400  1
  Zn  Zn45  1  0.96737100  0.33238600  0.72962700  1
  Zn  Zn46  1  0.64510300  0.29428900  0.41414700  1
  Zn  Zn47  1  0.15118800  0.78912000  0.90807200  1
  Zn  Zn48  1  0.00000000  0.00000000  0.00000000  1
  Zn  Zn49  1  0.75014100  0.75014100  0.75014100  1
  Zn  Zn50  1  0.24985900  0.24985900  0.24985900  1
loop_
_geom_bond_atom_site_label_1
_geom_bond_atom_site_label_2
_geom_bond_distance
_geom_bond_site_symmetry_2
Ca0 Zn20 3.512523 1_555
Ca0 Zn34 3.512523 1_555
Ca0 Zn6 3.512523 1_555
Ca0 Zn11 3.514273 1_556
Ca0 Zn47 3.514273 1_655
Ca0 Zn25 3.514273 1_565
Ca0 Zn19 3.521967 1_556
Ca0 Zn37 3.521967 1_565
Ca0 Zn1 3.521968 1_655
Ca0 Zn2 3.545708 1_566
Ca0 Zn38 3.545709 1_656
Ca0 Zn16 3.545709 1_665
Ca0 Zn4 3.556410 1_655
Ca0 Zn22 3.556410 1_556
Ca0 Zn32 3.556410 1_565
Ca0 Zn14 3.558928 1_655
Ca0 Zn42 3.558928 1_565
Ca0 Zn28 3.558928 1_556
Ca0 Zn26 3.591451 1_655
Ca0 Zn8 3.591451 1_565
Ca0 Zn44 3.591451 1_556
Ca0 Zn30 3.594266 1_565
Ca0 Zn40 3.594266 1_655
Ca0 Zn12 3.594266 1_556
Ca1 Zn18 3.513250 1_555
Ca1 Zn36 3.513251 1_555
Ca1 Zn0 3.513251 1_555
Ca1 Zn15 3.532873 1_555
Ca1 Zn43 3.532873 1_555
Ca1 Zn29 3.532873 1_555
Ca1 Zn10 3.536247 1_555
Ca1 Zn46 3.536247 1_555
Ca1 Zn24 3.536247 1_555
Ca1 Zn31 3.540764 1_555
Ca1 Zn41 3.540764 1_555
Ca1 Zn13 3.540764 1_555
Ca1 Zn5 3.547737 1_555
Ca1 Zn23 3.547737 1_555
Ca1 Zn33 3.547737 1_555
Ca1 Zn21 3.548171 1_555
Ca1 Zn35 3.548171 1_555
Ca1 Zn7 3.548171 1_555
Ca1 Zn3 3.553707 1_455
Ca1 Zn39 3.553707 1_545
Ca1 Zn17 3.553707 1_554
Ca1 Zn27 3.569495 1_545
Ca1 Zn9 3.569495 1_554
Ca1 Zn45 3.569496 1_455
Ca2 Zn16 3.512523 1_555
Ca2 Zn38 3.512523 1_555
Ca2 Zn2 3.512523 1_555
Ca2 Zn13 3.514273 1_554
Ca2 Zn41 3.514273 1_455
Ca2 Zn31 3.514273 1_545
Ca2 Zn23 3.521967 1_554
Ca2 Zn33 3.521967 1_545
Ca2 Zn5 3.521968 1_455
Ca2 Zn6 3.545708 1_544
Ca2 Zn34 3.545709 1_454
Ca2 Zn20 3.545709 1_445
Ca2 Zn0 3.556410 1_455
Ca2 Zn18 3.556410 1_554
Ca2 Zn36 3.556410 1_545
Ca2 Zn8 3.558928 1_455
Ca2 Zn44 3.558928 1_545
Ca2 Zn26 3.558928 1_554
Ca2 Zn28 3.591451 1_455
Ca2 Zn14 3.591451 1_545
Ca2 Zn42 3.591451 1_554
Ca2 Zn24 3.594266 1_545
Ca2 Zn46 3.594266 1_455
Ca2 Zn10 3.594266 1_554
Ca3 Zn22 3.513250 1_555
Ca3 Zn32 3.513251 1_555
Ca3 Zn4 3.513251 1_555
Ca3 Zn9 3.532873 1_555
Ca3 Zn45 3.532873 1_555
Ca3 Zn27 3.532873 1_555
Ca3 Zn12 3.536247 1_555
Ca3 Zn40 3.536247 1_555
Ca3 Zn30 3.536247 1_555
Ca3 Zn25 3.540764 1_555
Ca3 Zn47 3.540764 1_555
Ca3 Zn11 3.540764 1_555
Ca3 Zn1 3.547737 1_555
Ca3 Zn19 3.547737 1_555
Ca3 Zn37 3.547737 1_555
Ca3 Zn17 3.548171 1_555
Ca3 Zn39 3.548171 1_555
Ca3 Zn3 3.548171 1_555
Ca3 Zn7 3.553707 1_655
Ca3 Zn35 3.553707 1_565
Ca3 Zn21 3.553707 1_556
Ca3 Zn29 3.569495 1_565
Ca3 Zn15 3.569495 1_556
Ca3 Zn43 3.569496 1_655
Zn0 Zn41 2.526864 1_555
Zn0 Zn46 2.567382 1_555
Zn0 Zn49 2.662204 1_554
Zn0 Zn24 2.673748 1_555
Zn0 Zn28 2.685813 1_555
Zn0 Zn17 2.733819 1_554
Zn0 Zn33 2.744002 1_555
Zn0 Zn23 2.763147 1_654
Zn0 Zn34 2.766478 1_554
Zn0 Zn6 2.950680 1_554
Zn1 Zn47 2.532337 1_555
Zn1 Zn40 2.587240 1_555
Zn1 Zn50 2.657568 1_565
Zn1 Zn25 2.692455 1_465
Zn1 Zn29 2.695501 1_565
Zn1 Zn16 2.732853 1_565
Zn1 Zn22 2.744002 1_555
Zn1 Zn35 2.762914 1_565
Zn1 Zn32 2.763147 1_465
Zn1 Zn7 2.946901 1_565
Zn2 Zn42 2.546739 1_554
Zn2 Zn44 2.596982 1_545
Zn2 Zn50 2.653244 1_555
Zn2 Zn26 2.689675 1_554
Zn2 Zn30 2.704178 1_554
Zn2 Zn37 2.732853 1_554
Zn2 Zn38 2.764606 1_555
Zn2 Zn22 2.766477 1_545
Zn2 Zn4 2.950680 1_554
Zn3 Zn43 2.538059 1_655
Zn3 Zn45 2.541749 1_555
Zn3 Zn49 2.641781 1_555
Zn3 Zn31 2.691723 1_655
Zn3 Zn36 2.733819 1_655
Zn3 Zn39 2.754770 1_555
Zn3 Zn5 2.946901 1_565
Zn4 Zn47 2.526864 1_555
Zn4 Zn40 2.567382 1_555
Zn4 Zn50 2.662204 1_556
Zn10 Zn18 2.567382 1_555
Zn10 Zn23 2.587240 1_555
Zn10 Zn26 2.660414 1_555
Zn10 Zn46 2.673444 1_555
Zn10 Zn24 2.673445 1_555
Zn10 Zn36 2.673748 1_555
Zn10 Zn42 2.696760 1_555
Zn10 Zn34 2.704178 1_455
Zn10 Zn14 2.844846 1_555
Zn11 Zn22 2.526865 1_555
Zn11 Zn19 2.532337 1_555
Zn11 Zn48 2.658083 1_665
Zn11 Zn35 2.691723 1_565
Zn11 Zn37 2.692455 1_564
Zn11 Zn27 2.741841 1_555
Zn11 Zn47 2.766900 1_654
Zn11 Zn25 2.766900 1_564
Zn11 Zn43 2.768907 1_655
Zn11 Zn15 2.957081 1_565
Zn12 Zn22 2.567382 1_555
Zn12 Zn19 2.587240 1_555
Zn12 Zn28 2.660414 1_555
Zn12 Zn40 2.673444 1_555
Zn12 Zn30 2.673445 1_555
Zn12 Zn32 2.673748 1_555
Zn12 Zn44 2.696760 1_555
Zn12 Zn38 2.704178 1_655
Zn12 Zn8 2.844846 1_555
Zn13 Zn18 2.526865 1_555
Zn13 Zn23 2.532337 1_555
Zn13 Zn48 2.658083 1_556
Zn13 Zn39 2.691723 1_545
Zn13 Zn33 2.692455 1_546
Zn13 Zn29 2.741841 1_555
Zn13 Zn41 2.766900 1_456
Zn13 Zn31 2.766900 1_546
Zn13 Zn45 2.768907 1_455
Zn13 Zn9 2.957081 1_545
Zn14 Zn16 2.546739 1_565
Zn14 Zn20 2.596982 1_455
Zn14 Zn40 2.660414 1_555
Zn14 Zn26 2.680259 1_555
Zn14 Zn44 2.680259 1_555
Zn14 Zn36 2.685813 1_555
Zn14 Zn34 2.689675 1_455
Zn14 Zn24 2.696760 1_555
Zn15 Zn17 2.538059 1_554
Zn15 Zn21 2.541749 1_555
Zn15 Zn48 2.660145 1_655
Zn15 Zn35 2.673812 1_555
Zn15 Zn37 2.695501 1_554
Zn15 Zn41 2.741841 1_555
Zn15 Zn27 2.754076 1_545
Zn15 Zn45 2.754076 1_554
Zn15 Zn25 2.768907 1_554
Zn16 Zn8 2.596982 1_455
Zn16 Zn50 2.653244 1_555
Zn16 Zn44 2.689675 1_545
Zn16 Zn40 2.704178 1_545
Zn16 Zn38 2.764606 1_555
Zn16 Zn2 2.764606 1_555
Zn16 Zn32 2.766477 1_455
Zn16 Zn22 2.950680 1_545
Zn17 Zn9 2.541749 1_555
Zn17 Zn49 2.641781 1_555
Zn17 Zn45 2.673812 1_555
Zn17 Zn41 2.691723 1_556
Zn17 Zn39 2.754770 1_555
Zn17 Zn3 2.754770 1_555
Zn17 Zn33 2.762914 1_556
Zn17 Zn23 2.946901 1_655
Zn18 Zn49 2.662204 1_545
Zn18 Zn46 2.673748 1_555
Zn18 Zn42 2.685813 1_555
Zn18 Zn39 2.733819 1_545
Zn18 Zn5 2.744002 1_555
Zn18 Zn33 2.763147 1_546
Zn18 Zn6 2.766477 1_545
Zn18 Zn20 2.950680 1_545
Zn19 Zn50 2.657568 1_655
Zn19 Zn47 2.692455 1_654
Zn19 Zn43 2.695501 1_655
Zn19 Zn38 2.732853 1_655
Zn19 Zn32 2.744002 1_555
Zn19 Zn7 2.762914 1_655
Zn19 Zn4 2.763147 1_654
Zn19 Zn21 2.946901 1_655
Zn20 Zn8 2.546739 1_565
Zn20 Zn49 2.653244 1_555
Zn20 Zn42 2.689675 1_565
Zn20 Zn46 2.704178 1_565
Zn20 Zn5 2.732853 1_565
Zn20 Zn34 2.764606 1_555
Zn20 Zn6 2.764606 1_555
Zn20 Zn36 2.766477 1_655
Zn21 Zn9 2.538059 1_554
Zn21 Zn50 2.641781 1_555
Zn21 Zn43 2.673812 1_555
Zn21 Zn47 2.691723 1_554
Zn21 Zn4 2.733819 1_554
Zn21 Zn35 2.754770 1_555
Zn21 Zn7 2.754770 1_555
Zn21 Zn37 2.762914 1_554
Zn22 Zn50 2.662204 1_565
Zn22 Zn40 2.673748 1_555
Zn22 Zn44 2.685813 1_555
Zn22 Zn35 2.733819 1_565
Zn22 Zn37 2.763147 1_564
Zn23 Zn49 2.657568 1_455
Zn23 Zn41 2.692455 1_456
Zn23 Zn45 2.695501 1_455
Zn23 Zn34 2.732853 1_455
Zn23 Zn36 2.744002 1_555
Zn23 Zn3 2.762914 1_455
Zn24 Zn36 2.567382 1_555
Zn24 Zn33 2.587240 1_555
Zn24 Zn44 2.660414 1_555
Zn24 Zn46 2.673444 1_555
Zn24 Zn6 2.704178 1_554
Zn24 Zn28 2.844846 1_555
Zn25 Zn32 2.526864 1_555
Zn25 Zn37 2.532337 1_555
Zn25 Zn48 2.658082 1_656
Zn25 Zn7 2.691723 1_655
Zn25 Zn45 2.741841 1_555
Zn25 Zn47 2.766900 1_645
Zn25 Zn29 2.957081 1_655
Zn26 Zn34 2.546739 1_455
Zn26 Zn38 2.596982 1_556
Zn26 Zn42 2.680259 1_555
Zn26 Zn4 2.685813 1_555
Zn26 Zn40 2.696760 1_555
Zn26 Zn30 2.844846 1_555
Zn27 Zn35 2.538059 1_565
Zn27 Zn39 2.541749 1_555
Zn27 Zn48 2.660145 1_665
Zn27 Zn3 2.673812 1_555
Zn27 Zn5 2.695501 1_565
Zn27 Zn43 2.754076 1_655
Zn27 Zn41 2.768907 1_565
Zn27 Zn31 2.957081 1_655
Zn28 Zn38 2.546739 1_655
Zn28 Zn34 2.596982 1_554
Zn28 Zn44 2.680259 1_555
Zn28 Zn8 2.680259 1_555
Zn28 Zn6 2.689675 1_554
Zn28 Zn46 2.696760 1_555
Zn29 Zn39 2.538059 1_545
Zn29 Zn35 2.541749 1_555
Zn29 Zn48 2.660145 1_556
Zn29 Zn7 2.673812 1_555
Zn29 Zn45 2.754076 1_455
Zn29 Zn9 2.754076 1_545
Zn29 Zn47 2.768907 1_545
Zn30 Zn32 2.567382 1_555
Zn30 Zn37 2.587240 1_555
Zn30 Zn42 2.660414 1_555
Zn30 Zn40 2.673444 1_555
Zn30 Zn4 2.673748 1_555
Zn30 Zn8 2.696760 1_555
Zn31 Zn36 2.526864 1_555
Zn31 Zn33 2.532337 1_555
Zn31 Zn48 2.658082 1_565
Zn31 Zn5 2.692455 1_465
Zn31 Zn43 2.741841 1_555
Zn31 Zn41 2.766900 1_465
Zn31 Zn9 2.768907 1_554
Zn32 Zn50 2.662204 1_655
Zn32 Zn8 2.685813 1_555
Zn32 Zn7 2.733819 1_655
Zn32 Zn38 2.950680 1_655
Zn33 Zn49 2.657568 1_554
Zn33 Zn9 2.695501 1_554
Zn33 Zn6 2.732853 1_554
Zn33 Zn39 2.946901 1_554
Zn34 Zn49 2.653244 1_555
Zn34 Zn6 2.764606 1_555
Zn34 Zn36 2.950680 1_655
Zn35 Zn50 2.641781 1_555
Zn35 Zn7 2.754770 1_555
Zn35 Zn37 2.946901 1_554
Zn36 Zn49 2.662204 1_455
Zn36 Zn5 2.763147 1_465
Zn37 Zn50 2.657568 1_556
Zn37 Zn4 2.744002 1_555
Zn38 Zn50 2.653244 1_555
Zn38 Zn8 2.689675 1_455
Zn38 Zn4 2.766478 1_554
Zn39 Zn49 2.641781 1_555
Zn39 Zn9 2.673812 1_555
Zn39 Zn5 2.762914 1_565
Zn40 Zn44 2.844846 1_555
Zn41 Zn5 2.532337 1_555
Zn41 Zn48 2.658082 1_655
Zn41 Zn45 2.957080 1_554
Zn42 Zn6 2.596982 1_545
Zn42 Zn8 2.680259 1_555
Zn42 Zn46 2.844846 1_555
Zn43 Zn7 2.541749 1_555
Zn43 Zn48 2.660145 1_565
Zn43 Zn9 2.754076 1_554
Zn43 Zn47 2.957080 1_554
Zn44 Zn6 2.546739 1_554
Zn45 Zn7 2.538059 1_655
Zn45 Zn48 2.660145 1_656
Zn46 Zn5 2.587240 1_555
Zn46 Zn8 2.660414 1_555
Zn47 Zn48 2.658082 1_566
Zn47 Zn9 2.741841 1_555
Zn48 Zn9 2.660145 1_544
Zn49 Zn6 2.653244 1_555
Zn49 Zn5 2.657568 1_565
Zn50 Zn7 2.641781 1_555
