# generated using pymatgen
data_FeGe7N10
_symmetry_space_group_name_H-M   'P 1'
_cell_length_a   6.84869142
_cell_length_b   7.46439800
_cell_length_c   10.29233492
_cell_angle_alpha   90.00000000
_cell_angle_beta   103.13993009
_cell_angle_gamma   90.00000000
_symmetry_Int_Tables_number   1
_chemical_formula_structural   FeGe7N10
_chemical_formula_sum   'Fe2 Ge14 N20'
_cell_volume   512.38215259
_cell_formula_units_Z   2
loop_
 _symmetry_equiv_pos_site_id
 _symmetry_equiv_pos_as_xyz
  1  'x, y, z'
loop_
 _atom_site_type_symbol
 _atom_site_label
 _atom_site_symmetry_multiplicity
 _atom_site_fract_x
 _atom_site_fract_y
 _atom_site_fract_z
 _atom_site_occupancy
  Fe  Fe0  1  0.99497500  0.87544400  0.70509500  1
  Fe  Fe1  1  0.99497500  0.12455600  0.20509500  1
  Ge  Ge0  1  0.54155900  0.98320400  0.81700900  1
  Ge  Ge1  1  0.54155900  0.01679600  0.31700900  1
  Ge  Ge2  1  0.33033100  0.01537500  0.01879700  1
  Ge  Ge3  1  0.33033100  0.98462500  0.51879700  1
  Ge  Ge4  1  0.11709400  0.39698900  0.07451700  1
  Ge  Ge5  1  0.11709400  0.60301100  0.57451700  1
  Ge  Ge6  1  0.65577300  0.35170700  0.98931600  1
  Ge  Ge7  1  0.65577300  0.64829300  0.48931600  1
  Ge  Ge8  1  0.84264600  0.61781900  0.81610800  1
  Ge  Ge9  1  0.84264600  0.38218100  0.31610800  1
  Ge  Ge10  1  0.30396900  0.62693300  0.87961300  1
  Ge  Ge11  1  0.30396900  0.37306700  0.37961300  1
  Ge  Ge12  1  0.49478500  0.36230000  0.68297400  1
  Ge  Ge13  1  0.49478500  0.63770000  0.18297400  1
  N  N0  1  0.76769800  0.85641400  0.80452600  1
  N  N1  1  0.76769800  0.14358600  0.30452600  1
  N  N2  1  0.53229200  0.13629300  0.96041100  1
  N  N3  1  0.53229200  0.86370700  0.46041100  1
  N  N4  1  0.29537400  0.87622100  0.85629800  1
  N  N5  1  0.29537400  0.12377900  0.35629800  1
  N  N6  1  0.13018400  0.14957300  0.06007700  1
  N  N7  1  0.13018400  0.85042700  0.56007800  1
  N  N8  1  0.30140000  0.51466100  0.72051300  1
  N  N9  1  0.30140000  0.48533900  0.22051300  1
  N  N10  1  0.44353700  0.12208100  0.66672100  1
  N  N11  1  0.44353700  0.87791900  0.16672100  1
  N  N12  1  0.87974600  0.36141900  0.13485100  1
  N  N13  1  0.87974600  0.63858100  0.63485100  1
  N  N14  1  0.07991000  0.57247100  0.94281400  1
  N  N15  1  0.07991000  0.42752900  0.44281400  1
  N  N16  1  0.71452700  0.40004200  0.82340600  1
  N  N17  1  0.71452700  0.59995800  0.32340600  1
  N  N18  1  0.51650100  0.55568800  0.01625300  1
  N  N19  1  0.51650100  0.44431200  0.51625300  1
loop_
_geom_bond_atom_site_label_1
_geom_bond_atom_site_label_2
_geom_bond_distance
_geom_bond_site_symmetry_2
Fe0 N7 1.936103 1_655
Fe0 N13 2.003007 1_555
Fe0 N0 2.052942 1_555
Fe0 N4 2.280100 1_655
Fe1 N6 1.936112 1_655
Fe1 N12 2.003007 1_555
Fe1 N1 2.052942 1_555
Fe1 N5 2.280100 1_655
Ge0 N0 1.844266 1_555
Ge0 N10 1.856285 1_565
Ge0 N2 1.879048 1_565
Ge0 N4 1.988456 1_555
Ge1 N1 1.844266 1_555
Ge1 N11 1.856285 1_545
Ge1 N3 1.879048 1_545
Ge1 N5 1.988456 1_555
Ge2 N6 1.824187 1_555
Ge2 N11 1.853406 1_545
Ge2 N2 1.861942 1_554
Ge2 N4 1.936854 1_544
Ge3 N7 1.824191 1_555
Ge3 N10 1.853406 1_565
Ge3 N3 1.861942 1_555
Ge3 N5 1.936854 1_565
Ge4 N9 1.850342 1_555
Ge4 N6 1.856582 1_555
Ge4 N14 1.860409 1_554
Ge4 N12 1.886100 1_455
Ge5 N8 1.850342 1_555
Ge5 N7 1.856581 1_555
Ge5 N15 1.860409 1_555
Ge5 N13 1.886100 1_455
Ge6 N2 1.809629 1_555
Ge6 N18 1.850726 1_556
Ge6 N16 1.876271 1_555
Ge6 N12 1.886057 1_556
Ge7 N3 1.809629 1_555
Ge7 N19 1.850726 1_555
Ge7 N17 1.876271 1_555
Ge7 N13 1.886057 1_555
Ge8 N0 1.849786 1_555
Ge8 N16 1.856883 1_555
Ge8 N14 1.868755 1_655
Ge8 N13 1.945353 1_555
Ge9 N1 1.849786 1_555
Ge9 N17 1.856883 1_555
Ge9 N15 1.868755 1_655
Ge9 N12 1.945353 1_555
Ge10 N8 1.836019 1_555
Ge10 N14 1.843082 1_555
Ge10 N18 1.857038 1_556
Ge10 N4 1.875406 1_555
Ge11 N9 1.836019 1_555
Ge11 N15 1.843082 1_555
Ge11 N19 1.857038 1_555
Ge11 N5 1.875406 1_555
Ge12 N10 1.827471 1_555
Ge12 N8 1.851883 1_555
Ge12 N16 1.855896 1_555
Ge12 N19 1.859404 1_555
Ge13 N11 1.827471 1_555
Ge13 N9 1.851883 1_555
Ge13 N17 1.855896 1_555
Ge13 N18 1.859404 1_555
