# generated using pymatgen
data_Li9Mn2Co5O16
_symmetry_space_group_name_H-M   'P 1'
_cell_length_a   5.01555600
_cell_length_b   7.79737313
_cell_length_c   7.80739551
_cell_angle_alpha   97.29158373
_cell_angle_beta   102.35808589
_cell_angle_gamma   103.02079013
_symmetry_Int_Tables_number   1
_chemical_formula_structural   Li9Mn2Co5O16
_chemical_formula_sum   'Li9 Mn2 Co5 O16'
_cell_volume   285.62655259
_cell_formula_units_Z   1
loop_
 _symmetry_equiv_pos_site_id
 _symmetry_equiv_pos_as_xyz
  1  'x, y, z'
loop_
 _atom_site_type_symbol
 _atom_site_label
 _atom_site_symmetry_multiplicity
 _atom_site_fract_x
 _atom_site_fract_y
 _atom_site_fract_z
 _atom_site_occupancy
  Li  Li0  1  0.48961300  0.61826900  0.36324100  1
  Li  Li1  1  0.00693200  0.26131900  0.75904400  1
  Li  Li2  1  0.50147100  0.86131300  0.12034700  1
  Li  Li3  1  0.99306800  0.73868100  0.24095600  1
  Li  Li4  1  0.51038700  0.38173100  0.63675900  1
  Li  Li5  1  0.00000000  0.00000000  0.00000000  1
  Li  Li6  1  0.00000000  0.50000000  0.50000000  1
  Li  Li7  1  0.49852900  0.13868700  0.87965300  1
  Li  Li8  1  0.50000000  0.50000000  0.00000000  1
  Mn  Mn0  1  0.99812700  0.87366300  0.62237700  1
  Mn  Mn1  1  0.00187300  0.12633700  0.37762300  1
  Co  Co0  1  0.49049200  0.74082700  0.75363800  1
  Co  Co1  1  0.00646000  0.37462300  0.11532300  1
  Co  Co2  1  0.50000000  0.00000000  0.50000000  1
  Co  Co3  1  0.99354000  0.62537700  0.88467700  1
  Co  Co4  1  0.50950800  0.25917300  0.24636200  1
  O  O0  1  0.76331700  0.64472900  0.62468800  1
  O  O1  1  0.24028400  0.24967400  0.01386700  1
  O  O2  1  0.75837400  0.89255100  0.39242600  1
  O  O3  1  0.24722400  0.77394200  0.50640000  1
  O  O4  1  0.76614500  0.38104300  0.88044300  1
  O  O5  1  0.25993500  0.01782600  0.27585200  1
  O  O6  1  0.25200800  0.52141800  0.75020600  1
  O  O7  1  0.76189900  0.12185700  0.14780300  1
  O  O8  1  0.23385500  0.61895700  0.11955700  1
  O  O9  1  0.75277600  0.22605800  0.49360000  1
  O  O10  1  0.23810100  0.87814300  0.85219700  1
  O  O11  1  0.75971600  0.75032600  0.98613300  1
  O  O12  1  0.23668300  0.35527100  0.37531200  1
  O  O13  1  0.74006500  0.98217400  0.72414800  1
  O  O14  1  0.74799200  0.47858200  0.24979400  1
  O  O15  1  0.24162600  0.10744900  0.60757400  1
loop_
_geom_bond_atom_site_label_1
_geom_bond_atom_site_label_2
_geom_bond_distance
_geom_bond_site_symmetry_2
Li0 O8 2.055778 1_555
Li0 O14 2.129016 1_555
Li0 O0 2.158635 1_555
Li0 O12 2.179797 1_555
Li0 O2 2.211040 1_555
Li0 O3 2.258943 1_555
Li1 O4 2.000425 1_455
Li1 O1 2.105524 1_556
Li1 O9 2.135914 1_455
Li1 O6 2.139467 1_555
Li1 O13 2.232476 1_445
Li1 O15 2.257363 1_555
Li2 O8 2.055068 1_555
Li2 O11 2.092954 1_554
Li2 O7 2.110257 1_565
Li2 O2 2.188055 1_555
Li2 O10 2.260354 1_554
Li2 O5 2.313136 1_565
Li3 O8 2.000425 1_655
Li3 O11 2.105524 1_554
Li3 O3 2.135914 1_655
Li3 O14 2.139467 1_555
Li3 O5 2.232476 1_665
Li3 O2 2.257363 1_555
Li4 O4 2.055778 1_555
Li4 O6 2.129016 1_555
Li4 O12 2.158635 1_555
Li4 O0 2.179797 1_555
Li4 O15 2.211040 1_555
Li4 O9 2.258943 1_555
Li5 O1 2.021779 1_555
Li5 O11 2.021779 1_444
Li5 O10 2.117408 1_544
Li5 O7 2.117408 1_455
Li5 O5 2.235591 1_555
Li5 O13 2.235591 1_444
Li6 O6 2.051019 1_555
Li6 O14 2.051019 1_455
Li6 O12 2.109468 1_555
Li6 O0 2.109468 1_455
Li6 O3 2.203527 1_555
Li6 O9 2.203527 1_455
Li7 O4 2.055068 1_555
Li7 O1 2.092954 1_556
Li7 O10 2.110257 1_545
Li7 O15 2.188055 1_555
Li7 O7 2.260354 1_556
Li7 O13 2.313136 1_545
Li8 O8 2.094039 1_555
Li8 O4 2.094039 1_554
Li8 O11 2.118183 1_554
Li8 O1 2.118183 1_555
Li8 O14 2.125175 1_555
Li8 O6 2.125175 1_554
Mn0 O0 1.908871 1_555
Mn0 O10 1.926166 1_655
Mn0 O3 1.930972 1_655
Mn0 O13 1.945644 1_555
Mn0 O2 1.978305 1_555
Mn0 O15 1.984596 1_665
Mn1 O12 1.908871 1_555
Mn1 O7 1.926166 1_455
Mn1 O9 1.930972 1_455
Mn1 O5 1.945644 1_555
Mn1 O15 1.978305 1_555
Mn1 O2 1.984596 1_445
Co0 O6 1.846853 1_555
Co0 O11 1.998837 1_555
Co0 O10 2.039494 1_555
Co0 O0 2.075498 1_555
Co0 O13 2.081635 1_555
Co0 O3 2.131135 1_555
Co1 O1 1.915359 1_555
Co1 O8 1.979968 1_555
Co1 O4 1.980530 1_454
Co1 O14 2.068797 1_455
Co1 O7 2.150351 1_455
Co1 O12 2.151588 1_555
Co2 O9 1.938891 1_555
Co2 O3 1.938891 1_545
Co2 O5 1.940836 1_555
Co2 O13 1.940836 1_545
Co2 O15 1.965490 1_555
Co2 O2 1.965490 1_545
Co3 O11 1.915359 1_555
Co3 O4 1.979968 1_555
Co3 O8 1.980530 1_656
Co3 O6 2.068797 1_655
Co3 O10 2.150351 1_655
Co3 O0 2.151588 1_555
Co4 O14 1.846853 1_555
Co4 O1 1.998837 1_555
Co4 O7 2.039494 1_555
Co4 O12 2.075498 1_555
Co4 O5 2.081635 1_555
Co4 O9 2.131135 1_555
