# generated using pymatgen
data_AgP(OF)2
_symmetry_space_group_name_H-M   'P 1'
_cell_length_a   13.77091134
_cell_length_b   13.77091134
_cell_length_c   6.34082811
_cell_angle_alpha   79.85925426
_cell_angle_beta   79.85925426
_cell_angle_gamma   130.77502204
_symmetry_Int_Tables_number   1
_chemical_formula_structural   AgP(OF)2
_chemical_formula_sum   'Ag8 P8 O16 F16'
_cell_volume   825.22777171
_cell_formula_units_Z   8
loop_
 _symmetry_equiv_pos_site_id
 _symmetry_equiv_pos_as_xyz
  1  'x, y, z'
loop_
 _atom_site_type_symbol
 _atom_site_label
 _atom_site_symmetry_multiplicity
 _atom_site_fract_x
 _atom_site_fract_y
 _atom_site_fract_z
 _atom_site_occupancy
  Ag  Ag0  1  0.97593600  0.85144900  0.56568000  1
  Ag  Ag1  1  0.14855100  0.02406400  0.93432000  1
  Ag  Ag2  1  0.02406400  0.14855100  0.43432000  1
  Ag  Ag3  1  0.85144900  0.97593600  0.06568000  1
  Ag  Ag4  1  0.02532400  0.64748800  0.37934800  1
  Ag  Ag5  1  0.35251200  0.97467600  0.12065200  1
  Ag  Ag6  1  0.97467600  0.35251200  0.62065200  1
  Ag  Ag7  1  0.64748800  0.02532400  0.87934800  1
  P  P0  1  0.82999300  0.69388400  0.20016800  1
  P  P1  1  0.30611600  0.17000700  0.29983200  1
  P  P2  1  0.17000700  0.30611600  0.79983200  1
  P  P3  1  0.69388400  0.82999300  0.70016800  1
  P  P4  1  0.31366500  0.68633500  0.25000000  1
  P  P5  1  0.68633500  0.31366500  0.75000000  1
  P  P6  1  0.81145200  0.18854800  0.25000000  1
  P  P7  1  0.18854800  0.81145200  0.75000000  1
  O  O0  1  0.14481600  0.82734700  0.55640700  1
  O  O1  1  0.17265300  0.85518400  0.94359300  1
  O  O2  1  0.85518400  0.17265300  0.44359300  1
  O  O3  1  0.82734700  0.14481600  0.05640700  1
  O  O4  1  0.16004100  0.59373400  0.37185600  1
  O  O5  1  0.40626600  0.83995900  0.12814400  1
  O  O6  1  0.83995900  0.40626600  0.62814400  1
  O  O7  1  0.59373400  0.16004100  0.87185600  1
  O  O8  1  0.90814300  0.83214100  0.01012500  1
  O  O9  1  0.16785900  0.09185700  0.48987500  1
  O  O10  1  0.09185700  0.16785900  0.98987500  1
  O  O11  1  0.83214100  0.90814300  0.51012500  1
  O  O12  1  0.87320000  0.68796800  0.39955600  1
  O  O13  1  0.31203200  0.12680000  0.10044400  1
  O  O14  1  0.12680000  0.31203200  0.60044400  1
  O  O15  1  0.68796800  0.87320000  0.89955600  1
  F  F0  1  0.33961900  0.63000400  0.07637900  1
  F  F1  1  0.36999600  0.66038100  0.42362100  1
  F  F2  1  0.66038100  0.36999600  0.92362100  1
  F  F3  1  0.63000400  0.33961900  0.57637900  1
  F  F4  1  0.82659500  0.60068200  0.08328300  1
  F  F5  1  0.39931800  0.17340500  0.41671700  1
  F  F6  1  0.17340500  0.39931800  0.91671700  1
  F  F7  1  0.60068200  0.82659500  0.58328300  1
  F  F8  1  0.67165600  0.60909000  0.29421500  1
  F  F9  1  0.39091000  0.32834400  0.20578500  1
  F  F10  1  0.32834400  0.39091000  0.70578500  1
  F  F11  1  0.60909000  0.67165600  0.79421500  1
  F  F12  1  0.88479900  0.34372600  0.13847100  1
  F  F13  1  0.65627400  0.11520100  0.36152900  1
  F  F14  1  0.11520100  0.65627400  0.86152900  1
  F  F15  1  0.34372600  0.88479900  0.63847100  1
loop_
_geom_bond_atom_site_label_1
_geom_bond_atom_site_label_2
_geom_bond_distance
_geom_bond_site_symmetry_2
Ag0 O12 2.319268 1_555
Ag0 O9 2.395822 1_665
Ag0 O0 2.547378 1_655
Ag0 O11 2.612068 1_555
Ag0 O8 2.714717 1_556
Ag1 O13 2.319268 1_556
Ag1 O8 2.395822 1_446
Ag1 O1 2.547378 1_545
Ag1 O10 2.612068 1_555
Ag1 O9 2.714717 1_555
Ag2 O14 2.319268 1_555
Ag2 O11 2.395822 1_445
Ag2 O2 2.547378 1_455
Ag2 O9 2.612068 1_555
Ag2 O10 2.714717 1_554
Ag3 O15 2.319268 1_554
Ag3 O10 2.395822 1_664
Ag3 O3 2.547378 1_565
Ag3 O8 2.612068 1_555
Ag3 O11 2.714717 1_555
Ag4 O6 2.387523 1_455
Ag4 O4 2.401456 1_555
Ag4 O12 2.484287 1_455
Ag4 O0 2.531604 1_555
Ag4 O1 2.755868 1_554
Ag5 O7 2.387523 1_564
Ag5 O5 2.401456 1_555
Ag5 O13 2.484287 1_565
Ag5 O1 2.531604 1_554
Ag5 O0 2.755868 1_555
Ag6 O4 2.387523 1_655
Ag6 O6 2.401456 1_555
Ag6 O14 2.484287 1_655
Ag6 O2 2.531604 1_555
Ag6 O3 2.755868 1_556
Ag7 O5 2.387523 1_546
Ag7 O7 2.401456 1_555
Ag7 O15 2.484287 1_545
Ag7 O3 2.531604 1_556
Ag7 O2 2.755868 1_555
O0 P7 1.501776 1_555
O1 P7 1.501776 1_555
O2 P6 1.501776 1_555
O3 P6 1.501776 1_555
O4 P4 1.500791 1_555
O5 P4 1.500791 1_555
O6 P5 1.500791 1_555
O7 P5 1.500791 1_555
O8 P0 1.514696 1_555
O9 P1 1.514696 1_555
O10 P2 1.514696 1_555
O11 P3 1.514696 1_555
O12 P0 1.500339 1_555
O13 P1 1.500339 1_555
O14 P2 1.500339 1_555
O15 P3 1.500339 1_555
F0 P4 1.570284 1_555
F1 P4 1.570284 1_555
F2 P5 1.570284 1_555
F3 P5 1.570284 1_555
F4 P0 1.570838 1_555
F5 P1 1.570838 1_555
F6 P2 1.570838 1_555
F7 P3 1.570838 1_555
F8 P0 1.563565 1_555
F9 P1 1.563565 1_555
F10 P2 1.563565 1_555
F11 P3 1.563565 1_555
F12 P6 1.576029 1_555
F13 P6 1.576029 1_555
F14 P7 1.576029 1_555
F15 P7 1.576029 1_555
