# generated using pymatgen
data_Na2ThF6
_symmetry_space_group_name_H-M   'P 1'
_cell_length_a   6.66386975
_cell_length_b   6.66386975
_cell_length_c   6.66386975
_cell_angle_alpha   144.59675790
_cell_angle_beta   131.29676340
_cell_angle_gamma   61.63711808
_symmetry_Int_Tables_number   1
_chemical_formula_structural   Na2ThF6
_chemical_formula_sum   'Na2 Th1 F6'
_cell_volume   127.44954775
_cell_formula_units_Z   1
loop_
 _symmetry_equiv_pos_site_id
 _symmetry_equiv_pos_as_xyz
  1  'x, y, z'
loop_
 _atom_site_type_symbol
 _atom_site_label
 _atom_site_symmetry_multiplicity
 _atom_site_fract_x
 _atom_site_fract_y
 _atom_site_fract_z
 _atom_site_occupancy
  Na  Na0  1  0.67465659  0.67465659  0.00000000  1
  Na  Na1  1  0.32534341  0.32534341  0.00000000  1
  Th  Th0  1  0.00000000  0.00000000  0.00000000  1
  F  F0  1  0.76499289  0.50000000  0.26499289  1
  F  F1  1  0.40554865  0.15805131  0.24749834  1
  F  F2  1  0.08944603  0.84194869  0.24749834  1
  F  F3  1  0.23500711  0.50000000  0.73500711  1
  F  F4  1  0.91055397  0.15805131  0.75250166  1
  F  F5  1  0.59445135  0.84194869  0.75250166  1
loop_
_geom_bond_atom_site_label_1
_geom_bond_atom_site_label_2
_geom_bond_distance
_geom_bond_site_symmetry_2
F0 Th0 2.402806 1_666
F0 Th0 2.402806 1_655
F0 Na0 2.473265 1_555
F0 Na1 2.473265 1_555
F1 Th0 2.263288 1_555
F1 Na1 2.348697 1_555
F1 Na0 2.463163 1_556
F1 Na0 2.463166 1_545
F2 Th0 2.263297 1_565
F2 Na0 2.348687 1_455
F2 Na1 2.463162 1_566
F2 Na1 2.463166 1_555
F3 Th0 2.402806 1_566
F3 Th0 2.402806 1_555
F3 Na0 2.473265 1_556
F3 Na1 2.473265 1_556
F4 Th0 2.263297 1_656
F4 Na1 2.348687 1_656
F4 Na0 2.463162 1_545
F4 Na0 2.463166 1_556
F5 Th0 2.263288 1_666
F5 Na0 2.348697 1_556
F5 Na1 2.463163 1_555
F5 Na1 2.463166 1_566
