# generated using pymatgen
data_Co3Pb3N5
_symmetry_space_group_name_H-M   'P 1'
_cell_length_a   5.79536757
_cell_length_b   7.52183318
_cell_length_c   8.08178510
_cell_angle_alpha   107.00674455
_cell_angle_beta   100.91927547
_cell_angle_gamma   96.62893789
_symmetry_Int_Tables_number   1
_chemical_formula_structural   Co3Pb3N5
_chemical_formula_sum   'Co6 Pb6 N10'
_cell_volume   325.27241690
_cell_formula_units_Z   2
loop_
 _symmetry_equiv_pos_site_id
 _symmetry_equiv_pos_as_xyz
  1  'x, y, z'
loop_
 _atom_site_type_symbol
 _atom_site_label
 _atom_site_symmetry_multiplicity
 _atom_site_fract_x
 _atom_site_fract_y
 _atom_site_fract_z
 _atom_site_occupancy
  Co  Co0  1  0.91009000  0.31373000  0.97498100  1
  Co  Co1  1  0.08991000  0.68627000  0.02501900  1
  Co  Co2  1  0.67457900  0.98364500  0.59286600  1
  Co  Co3  1  0.32542100  0.01635500  0.40713400  1
  Co  Co4  1  0.12122400  0.92876200  0.73286500  1
  Co  Co5  1  0.87877600  0.07123800  0.26713500  1
  Pb  Pb0  1  0.76531100  0.45115700  0.57772000  1
  Pb  Pb1  1  0.23468900  0.54884300  0.42228000  1
  Pb  Pb2  1  0.63946700  0.82661100  0.88015600  1
  Pb  Pb3  1  0.36053300  0.17338900  0.11984400  1
  Pb  Pb4  1  0.70512500  0.66815000  0.25056600  1
  Pb  Pb5  1  0.29487500  0.33185000  0.74943400  1
  N  N0  1  0.93849600  0.13760600  0.77089900  1
  N  N1  1  0.06150400  0.86239400  0.22910100  1
  N  N2  1  0.83564800  0.78125800  0.59413500  1
  N  N3  1  0.16435200  0.21874200  0.40586500  1
  N  N4  1  0.80827700  0.51558900  0.89304800  1
  N  N5  1  0.19172300  0.48441100  0.10695200  1
  N  N6  1  0.36439900  0.97783000  0.62624300  1
  N  N7  1  0.63560100  0.02217000  0.37375700  1
  N  N8  1  0.19814800  0.81365400  0.89622000  1
  N  N9  1  0.80185200  0.18634600  0.10378000  1
loop_
_geom_bond_atom_site_label_1
_geom_bond_atom_site_label_2
_geom_bond_distance
_geom_bond_site_symmetry_2
Co0 N9 1.757019 1_556
Co0 N0 1.837805 1_555
Co0 N5 1.872289 1_656
Co0 N4 1.933636 1_555
Co1 N8 1.757019 1_554
Co1 N1 1.837805 1_555
Co1 N4 1.872289 1_454
Co1 N5 1.933636 1_555
Co2 N7 1.853225 1_565
Co2 N6 1.865079 1_555
Co2 N2 1.876830 1_555
Co2 N0 1.879711 1_565
Co3 N6 1.853225 1_545
Co3 N7 1.865079 1_555
Co3 N3 1.876830 1_555
Co3 N1 1.879711 1_545
Co4 N8 1.796139 1_555
Co4 N2 1.836442 1_455
Co4 N6 1.841428 1_555
Co4 N0 1.977003 1_465
Co5 N9 1.796139 1_555
Co5 N3 1.836442 1_655
Co5 N7 1.841428 1_555
Co5 N1 1.977003 1_645
N0 Pb5 2.453117 1_655
N1 Pb4 2.453117 1_455
N2 Pb0 2.429408 1_555
N2 Pb4 2.584496 1_555
N2 Pb2 2.715925 1_555
N3 Pb1 2.429408 1_555
N3 Pb5 2.584496 1_555
N3 Pb3 2.715925 1_555
N4 Pb0 2.408432 1_555
N4 Pb2 2.659585 1_555
N5 Pb1 2.408432 1_555
N5 Pb3 2.659585 1_555
N6 Pb5 2.663331 1_565
N7 Pb4 2.663331 1_545
N8 Pb2 2.577469 1_555
N8 Pb3 2.716744 1_566
N9 Pb3 2.577469 1_555
N9 Pb2 2.716744 1_544
