# generated using pymatgen
data_Yb3TlS6
_symmetry_space_group_name_H-M   'P 1'
_cell_length_a   9.82023450
_cell_length_b   11.31166205
_cell_length_c   61.21281291
_cell_angle_alpha   90.00000000
_cell_angle_beta   90.00000000
_cell_angle_gamma   115.72649043
_symmetry_Int_Tables_number   1
_chemical_formula_structural   Yb3TlS6
_chemical_formula_sum   'Yb3 Tl1 S6'
_cell_volume   6125.70162122
_cell_formula_units_Z   1
loop_
 _symmetry_equiv_pos_site_id
 _symmetry_equiv_pos_as_xyz
  1  'x, y, z'
loop_
 _atom_site_type_symbol
 _atom_site_label
 _atom_site_symmetry_multiplicity
 _atom_site_fract_x
 _atom_site_fract_y
 _atom_site_fract_z
 _atom_site_occupancy
  Yb  Yb0  1  0.00000000  -0.00000000  0.50000000  1
  Yb  Yb1  1  0.50000000  0.50000000  0.00000000  1
  Yb  Yb2  1  -0.00000000  0.50000000  0.00000000  1
  Tl  Tl0  1  0.00000000  0.00000000  0.00000000  1
  S  S0  1  0.00000000  0.00000000  0.76904063  1
  S  S1  1  -0.00000000  -0.00000000  0.23095937  1
  S  S2  1  0.75147359  0.71646929  -0.00000000  1
  S  S3  1  0.24852641  0.28353071  -0.00000000  1
  S  S4  1  0.03500430  0.28353071  0.00000000  1
  S  S5  1  0.96499570  0.71646929  0.00000000  1
loop_
_geom_bond_atom_site_label_1
_geom_bond_atom_site_label_2
_geom_bond_distance
_geom_bond_site_symmetry_2
S2 S5 2.096837 1_555
S2 Yb1 2.616234 1_555
S2 Tl0 3.073630 1_665
S3 S4 2.096837 1_555
S3 Yb1 2.616234 1_555
S3 Tl0 3.073630 1_555
S4 Yb2 2.616234 1_555
S4 Tl0 3.073630 1_555
S5 Yb2 2.616234 1_655
S5 Tl0 3.073630 1_665
