# generated using pymatgen
data_Cu3(CO4)2
_symmetry_space_group_name_H-M   'P 1'
_cell_length_a   5.57165790
_cell_length_b   4.96226868
_cell_length_c   10.39615659
_cell_angle_alpha   84.88485668
_cell_angle_beta   90.00000000
_cell_angle_gamma   90.00000000
_symmetry_Int_Tables_number   1
_chemical_formula_structural   Cu3(CO4)2
_chemical_formula_sum   'Cu6 C4 O16'
_cell_volume   286.28890351
_cell_formula_units_Z   2
loop_
 _symmetry_equiv_pos_site_id
 _symmetry_equiv_pos_as_xyz
  1  'x, y, z'
loop_
 _atom_site_type_symbol
 _atom_site_label
 _atom_site_symmetry_multiplicity
 _atom_site_fract_x
 _atom_site_fract_y
 _atom_site_fract_z
 _atom_site_occupancy
  Cu  Cu0  1  0.50000000  -0.00000000  0.50000000  1
  Cu  Cu1  1  0.00000000  -0.00000000  -0.00000000  1
  Cu  Cu2  1  0.00338323  0.75834850  0.58242413  1
  Cu  Cu3  1  0.50338323  0.24165150  0.91757587  1
  Cu  Cu4  1  0.99661677  0.24165150  0.41757587  1
  Cu  Cu5  1  0.49661677  0.75834850  0.08242413  1
  C  C0  1  0.81029313  0.67521889  0.81962593  1
  C  C1  1  0.31029313  0.32478111  0.68037407  1
  C  C2  1  0.18970687  0.32478111  0.18037407  1
  C  C3  1  0.68970687  0.67521889  0.31962593  1
  O  O0  1  0.31568806  0.94110989  0.95489647  1
  O  O1  1  0.81568806  0.05889011  0.54510353  1
  O  O2  1  0.68431194  0.05889011  0.04510353  1
  O  O3  1  0.18431194  0.94110989  0.45489647  1
  O  O4  1  0.91810014  0.89927585  0.83495301  1
  O  O5  1  0.41810014  0.10072415  0.66504699  1
  O  O6  1  0.08189986  0.10072415  0.16504699  1
  O  O7  1  0.58189986  0.89927585  0.33495301  1
  O  O8  1  0.71892452  0.53476166  0.91810972  1
  O  O9  1  0.21892452  0.46523834  0.58189028  1
  O  O10  1  0.28107548  0.46523834  0.08189028  1
  O  O11  1  0.78107548  0.53476166  0.41810972  1
  O  O12  1  0.79583538  0.59102728  0.70690224  1
  O  O13  1  0.29583538  0.40897272  0.79309776  1
  O  O14  1  0.20416462  0.40897272  0.29309776  1
  O  O15  1  0.70416462  0.59102728  0.20690224  1
loop_
_geom_bond_atom_site_label_1
_geom_bond_atom_site_label_2
_geom_bond_distance
_geom_bond_site_symmetry_2
Cu0 O3 1.850257 1_545
Cu0 O1 1.850257 1_555
Cu0 O5 1.885505 1_555
Cu0 O7 1.885505 1_545
Cu1 O0 1.850257 1_544
Cu1 O2 1.850257 1_455
Cu1 O6 1.885505 1_555
Cu1 O4 1.885505 1_444
Cu2 O1 1.834442 1_465
Cu2 O3 1.839031 1_555
Cu2 O12 1.873419 1_455
Cu2 O9 1.886592 1_555
Cu2 O11 2.453815 1_455
Cu3 O0 1.834442 1_545
Cu3 O2 1.839031 1_556
Cu3 O13 1.873419 1_555
Cu3 O8 1.886592 1_555
Cu3 O10 2.453815 1_556
Cu4 O3 1.834442 1_645
Cu4 O1 1.839031 1_555
Cu4 O14 1.873419 1_655
Cu4 O11 1.886592 1_555
Cu4 O9 2.453815 1_655
Cu5 O2 1.834442 1_565
Cu5 O0 1.839031 1_554
Cu5 O15 1.873419 1_555
Cu5 O10 1.886592 1_555
Cu5 O8 2.453815 1_554
C0 O12 1.281275 1_555
C0 O4 1.286058 1_555
C0 O8 1.290726 1_555
C1 O13 1.281275 1_555
C1 O5 1.286058 1_555
C1 O9 1.290726 1_555
C2 O14 1.281275 1_555
C2 O6 1.286058 1_555
C2 O10 1.290726 1_555
C3 O15 1.281275 1_555
C3 O7 1.286058 1_555
C3 O11 1.290726 1_555
