# generated using pymatgen
data_BaLaMn2O6
_symmetry_space_group_name_H-M   'P 1'
_cell_length_a   5.61030252
_cell_length_b   5.60575299
_cell_length_c   9.64469514
_cell_angle_alpha   105.55474693
_cell_angle_beta   74.51030872
_cell_angle_gamma   118.80330533
_symmetry_Int_Tables_number   1
_chemical_formula_structural   BaLaMn2O6
_chemical_formula_sum   'Ba2 La2 Mn4 O12'
_cell_volume   252.62495072
_cell_formula_units_Z   2
loop_
 _symmetry_equiv_pos_site_id
 _symmetry_equiv_pos_as_xyz
  1  'x, y, z'
loop_
 _atom_site_type_symbol
 _atom_site_label
 _atom_site_symmetry_multiplicity
 _atom_site_fract_x
 _atom_site_fract_y
 _atom_site_fract_z
 _atom_site_occupancy
  Ba  Ba0  1  0.86476500  0.11391700  0.37564300  1
  Ba  Ba1  1  0.38608000  0.63535300  0.87563400  1
  La  La0  1  0.59915100  0.34746300  0.12941100  1
  La  La1  1  0.15262600  0.90100100  0.62947800  1
  Mn  Mn0  1  0.00737100  0.00936400  0.00024500  1
  Mn  Mn1  1  0.24177000  0.74238200  0.25206400  1
  Mn  Mn2  1  0.49068100  0.49250900  0.50016500  1
  Mn  Mn3  1  0.75774000  0.25829800  0.75205400  1
  O  O0  1  0.12254700  0.33205900  0.63203600  1
  O  O1  1  0.65923200  0.87294000  0.12226400  1
  O  O2  1  0.38931400  0.14887500  0.86650500  1
  O  O3  1  0.80512800  0.58443600  0.35309600  1
  O  O4  1  0.62669600  0.84085800  0.62215200  1
  O  O5  1  0.16783300  0.37738300  0.13197700  1
  O  O6  1  0.91547900  0.69465000  0.85328400  1
  O  O7  1  0.35116000  0.11060200  0.36668700  1
  O  O8  1  0.86508500  0.17822100  0.90809900  1
  O  O9  1  0.32159700  0.63457100  0.40805400  1
  O  O10  1  0.61782000  0.34262000  0.61054300  1
  O  O11  1  0.15792600  0.88249700  0.11061000  1
loop_
_geom_bond_atom_site_label_1
_geom_bond_atom_site_label_2
_geom_bond_distance
_geom_bond_site_symmetry_2
Ba0 O10 2.678257 1_555
Ba0 O1 2.712950 1_545
Ba0 O7 2.715950 1_655
Ba0 O3 2.775759 1_545
Ba0 O5 2.811157 1_655
Ba0 O9 2.813448 1_655
Ba0 O4 2.839914 1_545
Ba0 O0 2.878562 1_655
Ba0 O3 2.883244 1_555
Ba0 O7 2.896759 1_555
Ba0 O9 2.942049 1_545
Ba0 O11 2.992324 1_645
Ba1 O11 2.677559 1_556
Ba1 O2 2.713498 1_555
Ba1 O4 2.715778 1_555
Ba1 O6 2.779120 1_555
Ba1 O0 2.808422 1_555
Ba1 O8 2.816418 1_455
Ba1 O1 2.839290 1_556
Ba1 O5 2.880510 1_556
Ba1 O6 2.883710 1_455
Ba1 O2 2.894757 1_565
Ba1 O8 2.939185 1_565
Ba1 O10 2.991694 1_555
La0 O3 2.463673 1_555
La0 O5 2.498234 1_555
La0 O8 2.501800 1_554
La0 O11 2.592921 1_545
La0 O7 2.661700 1_555
La0 O2 2.805776 1_554
La0 O1 2.816947 1_555
La0 O1 2.819137 1_545
La0 O5 3.119647 1_655
La0 O11 3.127922 1_655
La0 O9 3.177642 1_555
La0 O6 3.310122 1_554
La1 O6 2.467728 1_455
La1 O0 2.495363 1_565
La1 O9 2.502468 1_555
La1 O10 2.595271 1_565
La1 O2 2.657050 1_565
La1 O7 2.805933 1_565
La1 O4 2.818413 1_555
La1 O4 2.822206 1_455
La1 O0 3.118073 1_555
La1 O10 3.125671 1_455
La1 O8 3.177909 1_465
La1 O3 3.310667 1_455
Mn0 O6 1.886795 1_444
Mn0 O1 1.897437 1_445
Mn0 O11 1.953800 1_545
Mn0 O8 1.970094 1_454
Mn0 O5 2.023920 1_555
Mn0 O2 2.077725 1_554
Mn1 O7 1.943541 1_565
Mn1 O5 1.966673 1_555
Mn1 O9 1.984345 1_555
Mn1 O11 1.993229 1_555
Mn1 O3 2.198210 1_455
Mn1 O1 2.204948 1_555
Mn2 O3 1.889221 1_555
Mn2 O4 1.895059 1_555
Mn2 O10 1.952157 1_555
Mn2 O9 1.969973 1_555
Mn2 O0 2.027971 1_555
Mn2 O7 2.073318 1_555
Mn3 O2 1.946755 1_555
Mn3 O0 1.968645 1_655
Mn3 O8 1.983983 1_555
Mn3 O10 1.994548 1_555
Mn3 O6 2.194186 1_555
Mn3 O4 2.201797 1_545
