# generated using pymatgen
data_KCr5Se8
_symmetry_space_group_name_H-M   'P 1'
_cell_length_a   9.66630633
_cell_length_b   9.66630633
_cell_length_c   9.11185074
_cell_angle_alpha   75.25523778
_cell_angle_beta   75.25523778
_cell_angle_gamma   22.03836626
_symmetry_Int_Tables_number   1
_chemical_formula_structural   KCr5Se8
_chemical_formula_sum   'K1 Cr5 Se8'
_cell_volume   308.53802877
_cell_formula_units_Z   1
loop_
 _symmetry_equiv_pos_site_id
 _symmetry_equiv_pos_as_xyz
  1  'x, y, z'
loop_
 _atom_site_type_symbol
 _atom_site_label
 _atom_site_symmetry_multiplicity
 _atom_site_fract_x
 _atom_site_fract_y
 _atom_site_fract_z
 _atom_site_occupancy
  K  K0  1  0.50000000  0.50000000  0.50000000  1
  Cr  Cr0  1  0.00000000  0.00000000  0.00000000  1
  Cr  Cr1  1  0.34114100  0.34114100  0.98058500  1
  Cr  Cr2  1  0.65885900  0.65885900  0.01941500  1
  Cr  Cr3  1  0.29573000  0.29573000  0.33372600  1
  Cr  Cr4  1  0.70427000  0.70427000  0.66627400  1
  Se  Se0  1  0.57493200  0.57493200  0.84488700  1
  Se  Se1  1  0.42506800  0.42506800  0.15511300  1
  Se  Se2  1  0.08615800  0.08615800  0.17066200  1
  Se  Se3  1  0.91384200  0.91384200  0.82933800  1
  Se  Se4  1  0.17114800  0.17114800  0.51106100  1
  Se  Se5  1  0.82885200  0.82885200  0.48893900  1
  Se  Se6  1  0.23904400  0.23904400  0.84330000  1
  Se  Se7  1  0.76095600  0.76095600  0.15670000  1
loop_
_geom_bond_atom_site_label_1
_geom_bond_atom_site_label_2
_geom_bond_distance
_geom_bond_site_symmetry_2
K0 Se2 3.542259 1_565
K0 Se3 3.542259 1_455
K0 Se2 3.542259 1_655
K0 Se3 3.542259 1_545
K0 Se5 3.760492 1_455
K0 Se5 3.760492 1_545
K0 Se4 3.760492 1_655
K0 Se4 3.760492 1_565
K0 Se1 3.770258 1_555
K0 Se0 3.770258 1_555
Cr0 Se1 2.528017 1_545
Cr0 Se1 2.528017 1_455
Cr0 Se0 2.528017 1_544
Cr0 Se0 2.528017 1_454
Cr0 Se3 2.531739 1_444
Cr0 Se2 2.531739 1_555
Cr1 Se3 2.496030 1_545
Cr1 Se3 2.496030 1_455
Cr1 Se1 2.525631 1_556
Cr1 Se6 2.564213 1_555
Cr1 Se7 2.652883 1_546
Cr1 Se7 2.652883 1_456
Cr2 Se2 2.496030 1_655
Cr2 Se2 2.496030 1_565
Cr2 Se0 2.525631 1_554
Cr2 Se7 2.564213 1_555
Cr2 Se6 2.652883 1_564
Cr2 Se6 2.652883 1_654
Cr3 Se4 2.493768 1_555
Cr3 Se5 2.503960 1_455
Cr3 Se5 2.503960 1_545
Cr3 Se1 2.569254 1_555
Cr3 Se7 2.646302 1_545
Cr3 Se7 2.646302 1_455
Cr4 Se5 2.493768 1_555
Cr4 Se4 2.503960 1_655
Cr4 Se4 2.503960 1_565
Cr4 Se0 2.569254 1_555
Cr4 Se6 2.646302 1_565
Cr4 Se6 2.646302 1_655
