# generated using pymatgen
data_Li7Mn5O12
_symmetry_space_group_name_H-M   'P 1'
_cell_length_a   6.01282953
_cell_length_b   6.01534915
_cell_length_c   6.46645290
_cell_angle_alpha   76.81243214
_cell_angle_beta   77.06463821
_cell_angle_gamma   91.85880627
_symmetry_Int_Tables_number   1
_chemical_formula_structural   Li7Mn5O12
_chemical_formula_sum   'Li7 Mn5 O12'
_cell_volume   221.07909532
_cell_formula_units_Z   1
loop_
 _symmetry_equiv_pos_site_id
 _symmetry_equiv_pos_as_xyz
  1  'x, y, z'
loop_
 _atom_site_type_symbol
 _atom_site_label
 _atom_site_symmetry_multiplicity
 _atom_site_fract_x
 _atom_site_fract_y
 _atom_site_fract_z
 _atom_site_occupancy
  Li  Li0  1  0.81184200  0.86202600  0.65956900  1
  Li  Li1  1  0.49487600  0.00007000  0.01060000  1
  Li  Li2  1  0.15691400  0.15885100  0.33767900  1
  Li  Li3  1  0.52037000  0.47661100  0.00564600  1
  Li  Li4  1  0.17062900  0.66581900  0.33284300  1
  Li  Li5  1  0.83540800  0.33197100  0.65639700  1
  Li  Li6  1  0.66512900  0.16948900  0.33327300  1
  Mn  Mn0  1  0.98895000  0.00483900  0.99889000  1
  Mn  Mn1  1  0.66971600  0.66963100  0.33680200  1
  Mn  Mn2  1  0.34264000  0.32591300  0.66374700  1
  Mn  Mn3  1  0.99861300  0.49739800  0.00245900  1
  Mn  Mn4  1  0.33573500  0.83490700  0.66367300  1
  O  O0  1  0.21242700  0.76447200  0.98719800  1
  O  O1  1  0.91014800  0.91079100  0.31392300  1
  O  O2  1  0.54696500  0.08473900  0.66845800  1
  O  O3  1  0.90152200  0.44620100  0.31576600  1
  O  O4  1  0.60848700  0.58916200  0.65076500  1
  O  O5  1  0.23862500  0.22554100  0.99675000  1
  O  O6  1  0.43613900  0.88924000  0.34973100  1
  O  O7  1  0.06307300  0.07547200  0.68133100  1
  O  O8  1  0.78476300  0.24676700  0.99693800  1
  O  O9  1  0.12305200  0.56607500  0.68100100  1
  O  O10  1  0.74755300  0.76930100  0.01660500  1
  O  O11  1  0.43642600  0.43471300  0.33995500  1
loop_
_geom_bond_atom_site_label_1
_geom_bond_atom_site_label_2
_geom_bond_distance
_geom_bond_site_symmetry_2
Li0 O7 2.000516 1_665
Li0 O4 2.033725 1_555
Li0 O2 2.113581 1_565
Li0 O1 2.128201 1_555
Li0 O10 2.188554 1_556
Li1 O6 2.085479 1_545
Li1 O5 2.088901 1_554
Li1 O10 2.091747 1_545
Li1 O2 2.101828 1_554
Li1 O8 2.225219 1_554
Li1 O0 2.229894 1_544
Li2 O5 2.088381 1_554
Li2 O7 2.102350 1_555
Li2 O1 2.124786 1_445
Li2 O11 2.328036 1_555
Li2 O3 2.350286 1_455
Li2 O6 2.373329 1_545
Li3 O11 2.060649 1_555
Li3 O8 2.140110 1_554
Li3 O4 2.174574 1_554
Li3 O10 2.216999 1_555
Li3 O5 2.251988 1_554
Li3 O0 2.579478 1_554
Li4 O6 2.091095 1_555
Li4 O3 2.093695 1_455
Li4 O0 2.131811 1_554
Li4 O9 2.143497 1_555
Li4 O11 2.153326 1_555
Li4 O1 2.189239 1_455
Li5 O8 2.092680 1_555
Li5 O3 2.093232 1_555
Li5 O4 2.095231 1_555
Li5 O7 2.098303 1_655
Li5 O2 2.223735 1_555
Li5 O9 2.251037 1_655
Li6 O2 2.060450 1_555
Li6 O8 2.068884 1_554
Li6 O6 2.109735 1_545
Li6 O3 2.119501 1_555
Li6 O11 2.141364 1_555
Li6 O1 2.182388 1_545
Mn0 O1 1.928507 1_546
Mn0 O8 1.933861 1_555
Mn0 O7 1.943146 1_655
Mn0 O10 1.960982 1_546
Mn0 O5 1.967103 1_655
Mn0 O0 2.008074 1_645
Mn1 O4 1.922777 1_555
Mn1 O11 1.952030 1_555
Mn1 O6 1.960302 1_555
Mn1 O10 1.961418 1_555
Mn1 O1 1.971435 1_555
Mn1 O3 1.971708 1_555
Mn2 O2 1.930595 1_555
Mn2 O11 1.988082 1_555
Mn2 O9 1.993522 1_555
Mn2 O5 2.042532 1_555
Mn2 O7 2.186355 1_555
Mn2 O4 2.187433 1_555
Mn3 O3 1.927277 1_555
Mn3 O8 1.961371 1_554
Mn3 O9 1.985766 1_654
Mn3 O0 1.995101 1_654
Mn3 O5 2.217002 1_654
Mn3 O10 2.264725 1_555
Mn4 O6 1.930885 1_555
Mn4 O2 1.946166 1_565
Mn4 O9 1.995504 1_555
Mn4 O0 1.996669 1_555
Mn4 O7 2.222710 1_565
Mn4 O4 2.243678 1_555
