# generated using pymatgen
data_LiCuHSO5
_symmetry_space_group_name_H-M   'P 1'
_cell_length_a   5.82369900
_cell_length_b   4.41720900
_cell_length_c   7.79069465
_cell_angle_alpha   79.21260489
_cell_angle_beta   90.00000000
_cell_angle_gamma   90.00000000
_symmetry_Int_Tables_number   1
_chemical_formula_structural   LiCuHSO5
_chemical_formula_sum   'Li2 Cu2 H2 S2 O10'
_cell_volume   196.87010532
_cell_formula_units_Z   2
loop_
 _symmetry_equiv_pos_site_id
 _symmetry_equiv_pos_as_xyz
  1  'x, y, z'
loop_
 _atom_site_type_symbol
 _atom_site_label
 _atom_site_symmetry_multiplicity
 _atom_site_fract_x
 _atom_site_fract_y
 _atom_site_fract_z
 _atom_site_occupancy
  Li  Li0  1  0.75000000  0.96797800  0.65186200  1
  Li  Li1  1  0.25000000  0.03202200  0.34813800  1
  Cu  Cu0  1  0.00000000  0.00000000  0.00000000  1
  Cu  Cu1  1  0.50000000  0.00000000  0.00000000  1
  H  H0  1  0.75000000  0.40963800  0.85098700  1
  H  H1  1  0.25000000  0.59036200  0.14901300  1
  S  S0  1  0.25000000  0.55349500  0.72916200  1
  S  S1  1  0.75000000  0.44650500  0.27083800  1
  O  O0  1  0.25000000  0.31169600  0.90436100  1
  O  O1  1  0.75000000  0.18650800  0.85732600  1
  O  O2  1  0.04016700  0.73996200  0.73958200  1
  O  O3  1  0.45983300  0.73996200  0.73958200  1
  O  O4  1  0.25000000  0.40315300  0.57860200  1
  O  O5  1  0.75000000  0.59684700  0.42139800  1
  O  O6  1  0.54016700  0.26003800  0.26041800  1
  O  O7  1  0.95983300  0.26003800  0.26041800  1
  O  O8  1  0.25000000  0.81349200  0.14267400  1
  O  O9  1  0.75000000  0.68830400  0.09563900  1
loop_
_geom_bond_atom_site_label_1
_geom_bond_atom_site_label_2
_geom_bond_distance
_geom_bond_site_symmetry_2
Li0 O1 2.018031 1_565
Li0 O3 2.019751 1_555
Li0 O2 2.019751 1_655
Li1 O8 2.018031 1_545
Li1 O7 2.019751 1_455
Li1 O6 2.019751 1_555
Cu0 O1 1.921237 1_454
Cu0 O8 1.921237 1_545
Cu0 O9 2.046099 1_445
Cu0 O0 2.046099 1_554
Cu0 O7 2.522424 1_455
Cu0 O2 2.522424 1_544
Cu1 O1 1.921237 1_554
Cu1 O8 1.921237 1_545
Cu1 O9 2.046099 1_545
Cu1 O0 2.046099 1_554
Cu1 O6 2.522424 1_555
Cu1 O3 2.522424 1_544
H0 O1 0.977573 1_555
H1 O8 0.977573 1_555
O0 S0 1.567828 1_555
O2 S0 1.484364 1_555
O3 S0 1.484364 1_555
O4 S0 1.452053 1_555
O5 S1 1.452053 1_555
O6 S1 1.484364 1_555
O7 S1 1.484364 1_555
O9 S1 1.567828 1_555
