# generated using pymatgen
data_CsGaAgF6
_symmetry_space_group_name_H-M   'P 1'
_cell_length_a   7.56930500
_cell_length_b   7.70268600
_cell_length_c   10.63359500
_cell_angle_alpha   90.00000000
_cell_angle_beta   90.00000000
_cell_angle_gamma   90.00000000
_symmetry_Int_Tables_number   1
_chemical_formula_structural   CsGaAgF6
_chemical_formula_sum   'Cs4 Ga4 Ag4 F24'
_cell_volume   619.98090652
_cell_formula_units_Z   4
loop_
 _symmetry_equiv_pos_site_id
 _symmetry_equiv_pos_as_xyz
  1  'x, y, z'
loop_
 _atom_site_type_symbol
 _atom_site_label
 _atom_site_symmetry_multiplicity
 _atom_site_fract_x
 _atom_site_fract_y
 _atom_site_fract_z
 _atom_site_occupancy
  Cs  Cs0  1  0.01975300  0.25000000  0.63342100  1
  Cs  Cs1  1  0.98024700  0.75000000  0.36657900  1
  Cs  Cs2  1  0.48024700  0.75000000  0.13342100  1
  Cs  Cs3  1  0.51975300  0.25000000  0.86657900  1
  Ga  Ga0  1  0.00000000  0.00000000  0.00000000  1
  Ga  Ga1  1  0.50000000  0.00000000  0.50000000  1
  Ga  Ga2  1  0.00000000  0.50000000  0.00000000  1
  Ga  Ga3  1  0.50000000  0.50000000  0.50000000  1
  Ag  Ag0  1  0.21520400  0.25000000  0.25275200  1
  Ag  Ag1  1  0.78479600  0.75000000  0.74724800  1
  Ag  Ag2  1  0.28479600  0.75000000  0.75275200  1
  Ag  Ag3  1  0.71520400  0.25000000  0.24724800  1
  F  F0  1  0.29082400  0.03478200  0.40343800  1
  F  F1  1  0.70917600  0.96521800  0.59656200  1
  F  F2  1  0.20917600  0.96521800  0.90343800  1
  F  F3  1  0.70917600  0.53478200  0.59656200  1
  F  F4  1  0.79082400  0.03478200  0.09656200  1
  F  F5  1  0.29082400  0.46521800  0.40343800  1
  F  F6  1  0.79082400  0.46521800  0.09656200  1
  F  F7  1  0.20917600  0.53478200  0.90343800  1
  F  F8  1  0.54477700  0.25000000  0.51041200  1
  F  F9  1  0.45522300  0.75000000  0.48958800  1
  F  F10  1  0.95522300  0.75000000  0.01041200  1
  F  F11  1  0.04477700  0.25000000  0.98958800  1
  F  F12  1  0.14056000  0.50917500  0.14967100  1
  F  F13  1  0.85944000  0.49082500  0.85032900  1
  F  F14  1  0.35944000  0.49082500  0.64967100  1
  F  F15  1  0.85944000  0.00917500  0.85032900  1
  F  F16  1  0.64056000  0.50917500  0.35032900  1
  F  F17  1  0.14056000  0.99082500  0.14967100  1
  F  F18  1  0.64056000  0.99082500  0.35032900  1
  F  F19  1  0.35944000  0.00917500  0.64967100  1
  F  F20  1  0.46337400  0.25000000  0.17048900  1
  F  F21  1  0.53662600  0.75000000  0.82951100  1
  F  F22  1  0.03662600  0.75000000  0.67048900  1
  F  F23  1  0.96337400  0.25000000  0.32951100  1
loop_
_geom_bond_atom_site_label_1
_geom_bond_atom_site_label_2
_geom_bond_distance
_geom_bond_site_symmetry_2
Cs0 F19 3.175204 1_555
Cs0 F14 3.175204 1_555
Cs0 F15 3.198984 1_455
Cs0 F13 3.198984 1_455
Cs0 F1 3.239127 1_445
Cs0 F3 3.239127 1_455
Cs0 F23 3.259711 1_455
Cs1 F18 3.175204 1_555
Cs1 F16 3.175204 1_555
Cs1 F12 3.198984 1_655
Cs1 F17 3.198984 1_655
Cs1 F5 3.239127 1_655
Cs1 F0 3.239127 1_665
Cs1 F22 3.259711 1_655
Cs2 F12 3.175204 1_555
Cs2 F17 3.175204 1_555
Cs2 F16 3.198984 1_555
Cs2 F18 3.198984 1_555
Cs2 F6 3.239127 1_555
Cs2 F4 3.239127 1_565
Cs2 F21 3.259711 1_554
Cs3 F15 3.175204 1_555
Cs3 F13 3.175204 1_555
Cs3 F19 3.198984 1_555
Cs3 F14 3.198984 1_555
Cs3 F7 3.239127 1_555
Cs3 F2 3.239127 1_545
Cs3 F20 3.259711 1_556
Ag0 F20 2.072162 1_555
Ag0 F23 2.073581 1_455
Ag0 F17 2.346508 1_545
Ag0 F12 2.346508 1_555
Ag0 F0 2.375555 1_555
Ag0 F5 2.375555 1_555
Ag1 F21 2.072162 1_555
Ag1 F22 2.073581 1_655
Ag1 F13 2.346508 1_555
Ag1 F15 2.346508 1_565
Ag1 F3 2.375555 1_555
Ag1 F1 2.375555 1_555
Ag2 F22 2.072162 1_555
Ag2 F21 2.073581 1_555
Ag2 F19 2.346508 1_565
Ag2 F14 2.346508 1_555
Ag2 F2 2.375555 1_555
Ag2 F7 2.375555 1_555
Ag3 F23 2.072162 1_555
Ag3 F20 2.073581 1_555
Ag3 F18 2.346508 1_545
Ag3 F16 2.346508 1_555
Ag3 F4 2.375555 1_555
Ag3 F6 2.375555 1_555
F0 Ga1 1.906041 1_555
F1 Ga1 1.906041 1_565
F2 Ga0 1.906041 1_566
F3 Ga3 1.906041 1_555
F4 Ga0 1.906041 1_655
F5 Ga3 1.906041 1_555
F6 Ga2 1.906041 1_655
F7 Ga2 1.906041 1_556
F8 Ga3 1.958403 1_555
F8 Ga1 1.958403 1_555
F9 Ga3 1.958403 1_555
F9 Ga1 1.958403 1_565
F10 Ga0 1.958403 1_665
F10 Ga2 1.958403 1_655
F11 Ga2 1.958403 1_556
F11 Ga0 1.958403 1_556
F12 Ga2 1.915716 1_555
F13 Ga2 1.915716 1_656
F14 Ga3 1.915716 1_555
F15 Ga0 1.915716 1_656
F16 Ga3 1.915716 1_555
F17 Ga0 1.915716 1_565
F18 Ga1 1.915716 1_565
F19 Ga1 1.915716 1_555
