# generated using pymatgen
data_H24Pt(N4Cl)2
_symmetry_space_group_name_H-M   'P 1'
_cell_length_a   7.65700168
_cell_length_b   10.20981763
_cell_length_c   10.45501752
_cell_angle_alpha   90.00000000
_cell_angle_beta   125.20253375
_cell_angle_gamma   90.00000000
_symmetry_Int_Tables_number   1
_chemical_formula_structural   H24Pt(N4Cl)2
_chemical_formula_sum   'H48 Pt2 N16 Cl4'
_cell_volume   667.86243582
_cell_formula_units_Z   2
loop_
 _symmetry_equiv_pos_site_id
 _symmetry_equiv_pos_as_xyz
  1  'x, y, z'
loop_
 _atom_site_type_symbol
 _atom_site_label
 _atom_site_symmetry_multiplicity
 _atom_site_fract_x
 _atom_site_fract_y
 _atom_site_fract_z
 _atom_site_occupancy
  H  H0  1  0.32384205  0.14420578  0.10465879  1
  H  H1  1  0.32384205  0.35579422  0.60465879  1
  H  H2  1  0.67615795  0.85579422  0.89534121  1
  H  H3  1  0.67615795  0.64420578  0.39534121  1
  H  H4  1  0.33181514  0.22802589  0.97362415  1
  H  H5  1  0.33181514  0.27197411  0.47362415  1
  H  H6  1  0.66818486  0.77197411  0.02637585  1
  H  H7  1  0.66818486  0.72802589  0.52637585  1
  H  H8  1  0.18833208  0.11522842  0.74791430  1
  H  H9  1  0.18833208  0.38477158  0.24791430  1
  H  H10  1  0.81166792  0.88477158  0.25208570  1
  H  H11  1  0.81166792  0.61522842  0.75208570  1
  H  H12  1  0.14967905  0.82469827  0.07687172  1
  H  H13  1  0.14967905  0.67530173  0.57687172  1
  H  H14  1  0.85032095  0.17530173  0.92312828  1
  H  H15  1  0.85032095  0.32469827  0.42312828  1
  H  H16  1  0.10923843  0.96810428  0.76333064  1
  H  H17  1  0.10923843  0.53189572  0.26333064  1
  H  H18  1  0.89076157  0.03189572  0.23666936  1
  H  H19  1  0.89076157  0.46810428  0.73666936  1
  H  H20  1  0.54898377  0.21756770  0.15581278  1
  H  H21  1  0.54898377  0.28243230  0.65581278  1
  H  H22  1  0.45101623  0.78243230  0.84418722  1
  H  H23  1  0.45101623  0.71756770  0.34418722  1
  H  H24  1  0.53362590  0.09798690  0.39913360  1
  H  H25  1  0.53362590  0.40201310  0.89913360  1
  H  H26  1  0.46637410  0.90201310  0.60086640  1
  H  H27  1  0.46637410  0.59798690  0.10086640  1
  H  H28  1  0.20847738  0.91673070  0.22241034  1
  H  H29  1  0.20847738  0.58326930  0.72241034  1
  H  H30  1  0.79152262  0.08326930  0.77758966  1
  H  H31  1  0.79152262  0.41673070  0.27758966  1
  H  H32  1  0.08644921  0.77758215  0.19444586  1
  H  H33  1  0.08644921  0.72241785  0.69444586  1
  H  H34  1  0.91355079  0.22241785  0.80555414  1
  H  H35  1  0.91355079  0.27758215  0.30555414  1
  H  H36  1  0.25670154  0.98400579  0.69219331  1
  H  H37  1  0.25670154  0.51599421  0.19219331  1
  H  H38  1  0.74329846  0.01599421  0.30780669  1
  H  H39  1  0.74329846  0.48400579  0.80780669  1
  H  H40  1  0.71430613  0.99690263  0.53217781  1
  H  H41  1  0.71430613  0.50309737  0.03217781  1
  H  H42  1  0.28569387  0.00309737  0.46782219  1
  H  H43  1  0.28569387  0.49690263  0.96782219  1
  H  H44  1  0.77977393  0.14686306  0.52183239  1
  H  H45  1  0.77977393  0.35313694  0.02183239  1
  H  H46  1  0.22022607  0.85313694  0.47816761  1
  H  H47  1  0.22022607  0.64686306  0.97816761  1
  Pt  Pt0  1  0.50000000  -0.00000000  0.00000000  1
  Pt  Pt1  1  0.50000000  0.50000000  0.50000000  1
  N  N0  1  0.23293370  0.01902813  0.77464617  1
  N  N1  1  0.23293370  0.48097187  0.27464617  1
  N  N2  1  0.76706630  0.98097187  0.22535383  1
  N  N3  1  0.76706630  0.51902813  0.72535383  1
  N  N4  1  0.41755404  0.16535652  0.06659550  1
  N  N5  1  0.41755404  0.33464348  0.56659550  1
  N  N6  1  0.58244596  0.83464348  0.93340450  1
  N  N7  1  0.58244596  0.66535652  0.43340450  1
  N  N8  1  0.68895513  0.06920341  0.45610860  1
  N  N9  1  0.68895513  0.43079659  0.95610860  1
  N  N10  1  0.31104487  0.93079659  0.54389140  1
  N  N11  1  0.31104487  0.56920341  0.04389140  1
  N  N12  1  0.20382664  0.82145071  0.19156157  1
  N  N13  1  0.20382664  0.67854929  0.69156157  1
  N  N14  1  0.79617336  0.17854929  0.80843843  1
  N  N15  1  0.79617336  0.32145171  0.30843843  1
  Cl  Cl0  1  0.13865377  0.15998722  0.23296309  1
  Cl  Cl1  1  0.13865377  0.34001278  0.73296309  1
  Cl  Cl2  1  0.86134623  0.84001278  0.76703691  1
  Cl  Cl3  1  0.86134623  0.65998722  0.26703691  1
loop_
_geom_bond_atom_site_label_1
_geom_bond_atom_site_label_2
_geom_bond_distance
_geom_bond_site_symmetry_2
H0 N4 1.024258 1_555
H1 N5 1.024258 1_555
H2 N6 1.024258 1_555
H3 N7 1.024258 1_555
H4 N4 1.024444 1_556
H5 N5 1.024444 1_555
H6 N6 1.024444 1_554
H7 N7 1.024444 1_555
H8 N0 1.024397 1_555
H9 N1 1.024397 1_555
H10 N2 1.024397 1_555
H11 N3 1.024397 1_555
H12 N12 1.018636 1_555
H13 N13 1.018636 1_555
H14 N14 1.018636 1_555
H15 N15 1.018636 1_555
H16 N0 1.025765 1_565
H17 N1 1.025765 1_555
H18 N2 1.025765 1_545
H19 N3 1.025765 1_555
H20 N4 1.041495 1_555
H21 N5 1.041495 1_555
H22 N6 1.041495 1_555
H23 N7 1.041495 1_555
H24 N8 1.019283 1_555
H25 N9 1.019283 1_555
H26 N10 1.019283 1_555
H27 N11 1.019283 1_555
H28 N12 1.019005 1_555
H29 N13 1.019005 1_555
H30 N14 1.019005 1_555
H31 N15 1.018995 1_555
H32 N12 1.020064 1_555
H33 N13 1.020064 1_555
H34 N14 1.020064 1_555
H35 N15 1.020068 1_555
H36 N0 1.041623 1_565
H37 N1 1.041623 1_555
H38 N2 1.041623 1_545
H39 N3 1.041623 1_555
H40 N8 1.018385 1_565
H41 N9 1.018385 1_554
H42 N10 1.018385 1_545
H43 N11 1.018385 1_556
H44 N8 1.016614 1_555
H45 N9 1.016614 1_554
H46 N10 1.016614 1_555
H47 N11 1.016614 1_556
N0 Pt0 2.053220 1_556
N1 Pt1 2.053220 1_555
N2 Pt0 2.053220 1_565
N3 Pt1 2.053220 1_555
N4 Pt0 2.059195 1_555
N5 Pt1 2.059195 1_555
N6 Pt0 2.059195 1_566
N7 Pt1 2.059195 1_555
