# generated using pymatgen
data_Zr2V3Si
_symmetry_space_group_name_H-M   'P 1'
_cell_length_a   5.12967264
_cell_length_b   5.12967264
_cell_length_c   8.66282900
_cell_angle_alpha   90.00000000
_cell_angle_beta   90.00000000
_cell_angle_gamma   120.00000821
_symmetry_Int_Tables_number   1
_chemical_formula_structural   Zr2V3Si
_chemical_formula_sum   'Zr4 V6 Si2'
_cell_volume   197.41022259
_cell_formula_units_Z   2
loop_
 _symmetry_equiv_pos_site_id
 _symmetry_equiv_pos_as_xyz
  1  'x, y, z'
loop_
 _atom_site_type_symbol
 _atom_site_label
 _atom_site_symmetry_multiplicity
 _atom_site_fract_x
 _atom_site_fract_y
 _atom_site_fract_z
 _atom_site_occupancy
  Zr  Zr0  1  0.33333300  0.66666700  0.44176000  1
  Zr  Zr1  1  0.66666700  0.33333300  0.55824000  1
  Zr  Zr2  1  0.66666700  0.33333300  0.94176000  1
  Zr  Zr3  1  0.33333300  0.66666700  0.05824000  1
  V  V0  1  0.82586700  0.17413300  0.25000000  1
  V  V1  1  0.82586700  0.65173300  0.25000000  1
  V  V2  1  0.34826700  0.17413300  0.25000000  1
  V  V3  1  0.17413300  0.82586700  0.75000000  1
  V  V4  1  0.17413300  0.34826700  0.75000000  1
  V  V5  1  0.65173300  0.82586700  0.75000000  1
  Si  Si0  1  0.00000000  0.00000000  0.50000000  1
  Si  Si1  1  0.00000000  0.00000000  0.00000000  1
loop_
_geom_bond_atom_site_label_1
_geom_bond_atom_site_label_2
_geom_bond_distance
_geom_bond_site_symmetry_2
V0 V2 2.449932 1_555
V0 V1 2.449932 1_555
V0 V1 2.679741 1_545
V0 V2 2.679741 1_655
V0 Zr2 3.021730 1_554
V0 Zr1 3.021730 1_555
V0 Zr3 3.056520 1_545
V0 Zr0 3.056520 1_545
V0 Zr0 3.056520 1_655
V0 Zr3 3.056520 1_655
V1 V2 2.449931 1_555
V1 V2 2.679741 1_665
V1 Zr2 3.021730 1_554
V1 Zr1 3.021730 1_555
V1 Zr0 3.056516 1_655
V1 Zr3 3.056516 1_655
V1 Zr3 3.056525 1_555
V1 Zr0 3.056525 1_555
V2 Zr2 3.021730 1_554
V2 Zr1 3.021730 1_555
V2 Zr3 3.056516 1_545
V2 Zr0 3.056516 1_545
V2 Zr3 3.056525 1_555
V2 Zr0 3.056525 1_555
V3 V4 2.449932 1_555
V3 V5 2.449932 1_555
V3 V5 2.679741 1_455
V3 V4 2.679741 1_565
V3 Zr0 3.021730 1_555
V3 Zr3 3.021730 1_556
V3 Zr1 3.056520 1_455
V3 Zr2 3.056520 1_455
V3 Zr1 3.056520 1_565
V3 Zr2 3.056520 1_565
V4 V5 2.449931 1_555
V4 V5 2.679741 1_445
V4 Zr0 3.021730 1_555
V4 Zr3 3.021730 1_556
V4 Zr1 3.056516 1_455
V4 Zr2 3.056516 1_455
V4 Zr1 3.056525 1_555
V4 Zr2 3.056525 1_555
V5 Zr0 3.021730 1_555
V5 Zr3 3.021730 1_556
V5 Zr1 3.056516 1_565
V5 Zr2 3.056516 1_565
V5 Zr1 3.056525 1_555
V5 Zr2 3.056525 1_555
Si0 V3 2.661569 1_545
Si0 V0 2.661569 1_455
Si0 V1 2.661571 1_445
Si0 V5 2.661571 1_445
Si0 V4 2.661571 1_555
Si0 V2 2.661571 1_555
Si0 Zr0 3.004281 1_545
Si0 Zr1 3.004281 1_455
Si0 Zr0 3.004286 1_555
Si0 Zr0 3.004286 1_445
Si0 Zr1 3.004286 1_445
Si0 Zr1 3.004286 1_555
Si1 V0 2.661569 1_455
Si1 V3 2.661569 1_544
Si1 V1 2.661571 1_445
Si1 V5 2.661571 1_444
Si1 V4 2.661571 1_554
Si1 V2 2.661571 1_555
Si1 Zr3 3.004281 1_545
Si1 Zr2 3.004281 1_454
Si1 Zr3 3.004286 1_555
Si1 Zr2 3.004286 1_444
Si1 Zr3 3.004286 1_445
Si1 Zr2 3.004286 1_554
