# generated using pymatgen
data_AgH8C3S2ClO4
_symmetry_space_group_name_H-M   'P 1'
_cell_length_a   18.44593900
_cell_length_b   11.61184100
_cell_length_c   8.83716042
_cell_angle_alpha   90.00000000
_cell_angle_beta   93.87763205
_cell_angle_gamma   90.00000000
_symmetry_Int_Tables_number   1
_chemical_formula_structural   AgH8C3S2ClO4
_chemical_formula_sum   'Ag8 H64 C24 S16 Cl8 O32'
_cell_volume   1888.50979361
_cell_formula_units_Z   8
loop_
 _symmetry_equiv_pos_site_id
 _symmetry_equiv_pos_as_xyz
  1  'x, y, z'
loop_
 _atom_site_type_symbol
 _atom_site_label
 _atom_site_symmetry_multiplicity
 _atom_site_fract_x
 _atom_site_fract_y
 _atom_site_fract_z
 _atom_site_occupancy
  Ag  Ag0  1  0.23657900  0.81773500  0.30408400  1
  Ag  Ag1  1  0.76342100  0.31773500  0.19591600  1
  Ag  Ag2  1  0.76342100  0.18226500  0.69591600  1
  Ag  Ag3  1  0.23657900  0.68226500  0.80408400  1
  Ag  Ag4  1  0.25747700  0.11248900  0.96525500  1
  Ag  Ag5  1  0.74252300  0.61248900  0.53474500  1
  Ag  Ag6  1  0.74252300  0.88751100  0.03474500  1
  Ag  Ag7  1  0.25747700  0.38751100  0.46525500  1
  H  H0  1  0.05989300  0.69154100  0.15750600  1
  H  H1  1  0.94010700  0.19154100  0.34249400  1
  H  H2  1  0.94010700  0.30845900  0.84249400  1
  H  H3  1  0.05989300  0.80845900  0.65750600  1
  H  H4  1  0.07622300  0.79796000  0.01665800  1
  H  H5  1  0.92377700  0.29796000  0.48334200  1
  H  H6  1  0.92377700  0.20204000  0.98334200  1
  H  H7  1  0.07622300  0.70204000  0.51665800  1
  H  H8  1  0.06430900  0.64924100  0.96263600  1
  H  H9  1  0.93569100  0.14924100  0.53736400  1
  H  H10  1  0.93569100  0.35075900  0.03736400  1
  H  H11  1  0.06430900  0.85075900  0.46263600  1
  H  H12  1  0.24840700  0.52402900  0.14137300  1
  H  H13  1  0.75159300  0.02402900  0.35862700  1
  H  H14  1  0.75159300  0.47597100  0.85862700  1
  H  H15  1  0.24840700  0.97597100  0.64137300  1
  H  H16  1  0.15806500  0.48836100  0.06398800  1
  H  H17  1  0.84193500  0.98836100  0.43601200  1
  H  H18  1  0.84193500  0.51163900  0.93601200  1
  H  H19  1  0.15806500  0.01163900  0.56398800  1
  H  H20  1  0.42366000  0.92699800  0.33725100  1
  H  H21  1  0.57634000  0.42699800  0.16274900  1
  H  H22  1  0.57634000  0.07300200  0.66274900  1
  H  H23  1  0.42366000  0.57300200  0.83725100  1
  H  H24  1  0.40871300  0.89122400  0.14043700  1
  H  H25  1  0.59128700  0.39122400  0.35956300  1
  H  H26  1  0.59128700  0.10877600  0.85956300  1
  H  H27  1  0.40871300  0.60877600  0.64043700  1
  H  H28  1  0.43824500  0.03415700  0.19446900  1
  H  H29  1  0.56175500  0.53415700  0.30553100  1
  H  H30  1  0.56175500  0.96584300  0.80553100  1
  H  H31  1  0.43824500  0.46584300  0.69446900  1
  H  H32  1  0.42193300  0.27079500  0.05650400  1
  H  H33  1  0.57806700  0.77079500  0.44349600  1
  H  H34  1  0.57806700  0.72920500  0.94349600  1
  H  H35  1  0.42193300  0.22920500  0.55650400  1
  H  H36  1  0.44609400  0.16562100  0.91900100  1
  H  H37  1  0.55390600  0.66562100  0.58099900  1
  H  H38  1  0.55390600  0.83437900  0.08099900  1
  H  H39  1  0.44609400  0.33437900  0.41900100  1
  H  H40  1  0.46215600  0.31486200  0.88558300  1
  H  H41  1  0.53784400  0.81486200  0.61441700  1
  H  H42  1  0.53784400  0.68513800  0.11441700  1
  H  H43  1  0.46215600  0.18513800  0.38558300  1
  H  H44  1  0.25169400  0.39925400  0.90843600  1
  H  H45  1  0.74830600  0.89925400  0.59156400  1
  H  H46  1  0.74830600  0.60074600  0.09156400  1
  H  H47  1  0.25169400  0.10074600  0.40843600  1
  H  H48  1  0.34336600  0.43658100  0.97538800  1
  H  H49  1  0.65663400  0.93658100  0.52461200  1
  H  H50  1  0.65663400  0.56341900  0.02461200  1
  H  H51  1  0.34336600  0.06341900  0.47538800  1
  H  H52  1  0.08813900  0.36697500  0.21859400  1
  H  H53  1  0.91186100  0.86697500  0.28140600  1
  H  H54  1  0.91186100  0.63302500  0.78140600  1
  H  H55  1  0.08813900  0.13302500  0.71859400  1
  H  H56  1  0.05970900  0.41229200  0.39941700  1
  H  H57  1  0.94029100  0.91229200  0.10058300  1
  H  H58  1  0.94029100  0.58770800  0.60058300  1
  H  H59  1  0.05970900  0.08770800  0.89941700  1
  H  H60  1  0.03706800  0.49841200  0.23583000  1
  H  H61  1  0.96293200  0.99841200  0.26417000  1
  H  H62  1  0.96293200  0.50158800  0.76417000  1
  H  H63  1  0.03706800  0.00158800  0.73583000  1
  C  C0  1  0.19066100  0.54421000  0.14275400  1
  C  C1  1  0.80933900  0.04421000  0.35724600  1
  C  C2  1  0.80933900  0.45579000  0.85724600  1
  C  C3  1  0.19066100  0.95579000  0.64275400  1
  C  C4  1  0.30835900  0.40288200  0.87989600  1
  C  C5  1  0.69164100  0.90288200  0.62010400  1
  C  C6  1  0.69164100  0.59711800  0.12010400  1
  C  C7  1  0.30835900  0.09711800  0.37989600  1
  C  C8  1  0.08561100  0.70834100  0.05133800  1
  C  C9  1  0.91438900  0.20834100  0.44866200  1
  C  C10  1  0.91438900  0.29165900  0.94866200  1
  C  C11  1  0.08561100  0.79165900  0.55133800  1
  C  C12  1  0.40545800  0.95993400  0.22484900  1
  C  C13  1  0.59454200  0.45993400  0.27515100  1
  C  C14  1  0.59454200  0.04006600  0.77515100  1
  C  C15  1  0.40545800  0.54006600  0.72484900  1
  C  C16  1  0.42583100  0.25319400  0.93572100  1
  C  C17  1  0.57416900  0.75319400  0.56427900  1
  C  C18  1  0.57416900  0.74680600  0.06427900  1
  C  C19  1  0.42583100  0.24680600  0.43572100  1
  C  C20  1  0.07816900  0.44124300  0.29020600  1
  C  C21  1  0.92183100  0.94124300  0.20979400  1
  C  C22  1  0.92183100  0.55875700  0.70979400  1
  C  C23  1  0.07816900  0.05875700  0.79020600  1
  S  S0  1  0.18313500  0.69197900  0.07496400  1
  S  S1  1  0.81686500  0.19197900  0.42503600  1
  S  S2  1  0.81686500  0.30802100  0.92503600  1
  S  S3  1  0.18313500  0.80802100  0.57496400  1
  S  S4  1  0.33650400  0.25704100  0.83721500  1
  S  S5  1  0.66349600  0.75704100  0.66278500  1
  S  S6  1  0.66349600  0.74295900  0.16278500  1
  S  S7  1  0.33650400  0.24295900  0.33721500  1
  S  S8  1  0.31005600  0.99635900  0.22222500  1
  S  S9  1  0.68994400  0.49635900  0.27777500  1
  S  S10  1  0.68994400  0.00364100  0.77777500  1
  S  S11  1  0.31005600  0.50364100  0.72222500  1
  S  S12  1  0.16154900  0.52125800  0.33259600  1
  S  S13  1  0.83845100  0.02125800  0.16740400  1
  S  S14  1  0.83845100  0.47874200  0.66740400  1
  S  S15  1  0.16154900  0.97874200  0.83259600  1
  Cl  Cl0  1  0.38113400  0.61392900  0.26320600  1
  Cl  Cl1  1  0.61886600  0.11392900  0.23679400  1
  Cl  Cl2  1  0.61886600  0.38607100  0.73679400  1
  Cl  Cl3  1  0.38113400  0.88607100  0.76320600  1
  Cl  Cl4  1  0.11296300  0.11862500  0.23472600  1
  Cl  Cl5  1  0.88703700  0.61862500  0.26527400  1
  Cl  Cl6  1  0.88703700  0.88137500  0.76527400  1
  Cl  Cl7  1  0.11296300  0.38137500  0.73472600  1
  O  O0  1  0.17264800  0.18417900  0.17241900  1
  O  O1  1  0.82735200  0.68417900  0.32758100  1
  O  O2  1  0.82735200  0.81582100  0.82758100  1
  O  O3  1  0.17264800  0.31582100  0.67241900  1
  O  O4  1  0.04396300  0.15384000  0.15924300  1
  O  O5  1  0.95603700  0.65384000  0.34075700  1
  O  O6  1  0.95603700  0.84616000  0.84075700  1
  O  O7  1  0.04396300  0.34616000  0.65924300  1
  O  O8  1  0.36228100  0.66800200  0.11600800  1
  O  O9  1  0.63771900  0.16800200  0.38399200  1
  O  O10  1  0.63771900  0.33199800  0.88399200  1
  O  O11  1  0.36228100  0.83199800  0.61600800  1
  O  O12  1  0.32224400  0.63623600  0.36467800  1
  O  O13  1  0.67775600  0.13623600  0.13532200  1
  O  O14  1  0.67775600  0.36376400  0.63532200  1
  O  O15  1  0.32224400  0.86376400  0.86467800  1
  O  O16  1  0.11310900  0.14162600  0.39725300  1
  O  O17  1  0.88689100  0.64162600  0.10274700  1
  O  O18  1  0.88689100  0.85837400  0.60274700  1
  O  O19  1  0.11310900  0.35837400  0.89725300  1
  O  O20  1  0.38770000  0.48887200  0.24282800  1
  O  O21  1  0.61230000  0.98887200  0.25717200  1
  O  O22  1  0.61230000  0.51112800  0.75717200  1
  O  O23  1  0.38770000  0.01112800  0.74282800  1
  O  O24  1  0.44908800  0.66055400  0.33019900  1
  O  O25  1  0.55091200  0.16055400  0.16980100  1
  O  O26  1  0.55091200  0.33944600  0.66980100  1
  O  O27  1  0.44908800  0.83944600  0.83019900  1
  O  O28  1  0.12475700  0.99482900  0.20943400  1
  O  O29  1  0.87524300  0.49482900  0.29056600  1
  O  O30  1  0.87524300  0.00517100  0.79056600  1
  O  O31  1  0.12475700  0.50517100  0.70943400  1
loop_
_geom_bond_atom_site_label_1
_geom_bond_atom_site_label_2
_geom_bond_distance
_geom_bond_site_symmetry_2
Ag0 S8 2.606724 1_555
Ag0 S0 2.633235 1_555
Ag0 S3 2.652183 1_555
Ag0 O12 2.666637 1_555
Ag1 S9 2.606724 1_555
Ag1 S1 2.633235 1_555
Ag1 S2 2.652183 1_554
Ag1 O13 2.666637 1_555
Ag2 S10 2.606724 1_555
Ag2 S2 2.633235 1_555
Ag2 S1 2.652183 1_555
Ag2 O14 2.666637 1_555
Ag3 S11 2.606724 1_555
Ag3 S3 2.633235 1_555
Ag3 S0 2.652183 1_556
Ag3 O15 2.666637 1_555
Ag4 S4 2.538855 1_555
Ag4 S15 2.576202 1_545
Ag4 O0 2.623068 1_556
Ag4 S8 2.760088 1_546
Ag5 S5 2.538855 1_555
Ag5 S14 2.576202 1_555
Ag5 O1 2.623068 1_555
Ag5 S9 2.760088 1_555
Ag6 S6 2.538855 1_555
Ag6 S13 2.576202 1_565
Ag6 O2 2.623068 1_554
Ag6 S10 2.760088 1_564
Ag7 S7 2.538855 1_555
Ag7 S12 2.576202 1_555
Ag7 O3 2.623068 1_555
Ag7 S11 2.760088 1_555
C0 H12 1.091526 1_555
C0 H16 1.099994 1_555
C0 S12 1.815435 1_555
C0 S0 1.819648 1_555
C1 H13 1.091526 1_555
C1 H17 1.099994 1_545
C1 S13 1.815435 1_555
C1 S1 1.819648 1_555
C2 H14 1.091526 1_555
C2 H18 1.099994 1_555
C2 S14 1.815435 1_555
C2 S2 1.819648 1_555
C3 H15 1.091526 1_555
C3 H19 1.099994 1_565
C3 S15 1.815435 1_555
C3 S3 1.819648 1_555
C4 H44 1.092505 1_555
C4 H48 1.099330 1_555
C4 S4 1.818285 1_555
C4 S11 1.821328 1_555
C5 H45 1.092505 1_555
C5 H49 1.099330 1_555
C5 S5 1.818285 1_555
C5 S10 1.821328 1_565
C6 H46 1.092505 1_555
C6 H50 1.099330 1_555
C6 S6 1.818285 1_555
C6 S9 1.821328 1_555
C7 H47 1.092505 1_555
C7 H51 1.099330 1_555
C7 S7 1.818285 1_555
C7 S8 1.821328 1_545
C8 H8 1.094600 1_554
C8 H4 1.095295 1_555
C8 H0 1.097072 1_555
C8 S0 1.806934 1_555
C9 H9 1.094600 1_555
C9 H5 1.095295 1_555
C9 H1 1.097072 1_555
C9 S1 1.806934 1_555
C10 H10 1.094600 1_556
C10 H6 1.095295 1_555
C10 H2 1.097072 1_555
C10 S2 1.806934 1_555
C11 H11 1.094600 1_555
C11 H7 1.095295 1_555
C11 H3 1.097072 1_555
C11 S3 1.806934 1_555
C12 H20 1.095702 1_555
C12 H28 1.096639 1_565
C12 H24 1.096671 1_555
C12 S8 1.808518 1_555
C13 H21 1.095702 1_555
C13 H29 1.096639 1_555
C13 H25 1.096671 1_555
C13 S9 1.808518 1_555
C14 H22 1.095702 1_555
C14 H30 1.096639 1_545
C14 H26 1.096671 1_555
C14 S10 1.808518 1_555
C15 H23 1.095702 1_555
C15 H31 1.096639 1_555
C15 H27 1.096671 1_555
C15 S11 1.808518 1_555
C16 H32 1.093901 1_556
C16 H40 1.094626 1_555
C16 H36 1.096840 1_555
C16 S4 1.811290 1_555
C17 H33 1.093901 1_555
C17 H41 1.094626 1_555
C17 H37 1.096840 1_555
C17 S5 1.811290 1_555
C18 H34 1.093901 1_554
C18 H42 1.094626 1_555
C18 H38 1.096840 1_555
C18 S6 1.811290 1_555
C19 H35 1.093901 1_555
C19 H43 1.094626 1_555
C19 H39 1.096840 1_555
C19 S7 1.811290 1_555
C20 H52 1.092598 1_555
C20 H60 1.094121 1_555
C20 H56 1.097660 1_555
C20 S12 1.814162 1_555
C21 H53 1.092598 1_555
C21 H61 1.094121 1_555
C21 H57 1.097660 1_555
C21 S13 1.814162 1_565
C22 H54 1.092598 1_555
C22 H62 1.094121 1_555
C22 H58 1.097660 1_555
C22 S14 1.814162 1_555
C23 H55 1.092598 1_555
C23 H63 1.094121 1_555
C23 H59 1.097660 1_555
C23 S15 1.814162 1_545
Cl0 O24 1.454113 1_555
Cl0 O8 1.464960 1_555
Cl0 O20 1.469274 1_555
Cl0 O12 1.477486 1_555
Cl1 O25 1.454113 1_555
Cl1 O9 1.464960 1_555
Cl1 O21 1.469274 1_545
Cl1 O13 1.477486 1_555
Cl2 O26 1.454113 1_555
Cl2 O10 1.464960 1_555
Cl2 O22 1.469274 1_555
Cl2 O14 1.477486 1_555
Cl3 O27 1.454113 1_555
Cl3 O11 1.464960 1_555
Cl3 O23 1.469274 1_565
Cl3 O15 1.477486 1_555
Cl4 O4 1.455089 1_555
Cl4 O16 1.460722 1_555
Cl4 O28 1.473182 1_545
Cl4 O0 1.475357 1_555
Cl5 O5 1.455089 1_555
Cl5 O17 1.460722 1_555
Cl5 O29 1.473182 1_555
Cl5 O1 1.475357 1_555
Cl6 O6 1.455089 1_555
Cl6 O18 1.460722 1_555
Cl6 O30 1.473182 1_565
Cl6 O2 1.475357 1_555
Cl7 O7 1.455089 1_555
Cl7 O19 1.460722 1_555
Cl7 O31 1.473182 1_555
Cl7 O3 1.475357 1_555
