# generated using pymatgen
data_Li2Co12P7
_symmetry_space_group_name_H-M   'P 1'
_cell_length_a   8.89291002
_cell_length_b   8.89291002
_cell_length_c   3.48564700
_cell_angle_alpha   90.00000000
_cell_angle_beta   90.00000000
_cell_angle_gamma   120.00000017
_symmetry_Int_Tables_number   1
_chemical_formula_structural   Li2Co12P7
_chemical_formula_sum   'Li2 Co12 P7'
_cell_volume   238.72715934
_cell_formula_units_Z   1
loop_
 _symmetry_equiv_pos_site_id
 _symmetry_equiv_pos_as_xyz
  1  'x, y, z'
loop_
 _atom_site_type_symbol
 _atom_site_label
 _atom_site_symmetry_multiplicity
 _atom_site_fract_x
 _atom_site_fract_y
 _atom_site_fract_z
 _atom_site_occupancy
  Li  Li0  1  0.00000000  0.00000000  0.00000000  1
  Li  Li1  1  0.33333300  0.66666700  0.50000000  1
  Co  Co0  1  0.29232200  0.89732900  0.00000000  1
  Co  Co1  1  0.60500700  0.70767800  0.00000000  1
  Co  Co2  1  0.10267100  0.39499300  0.00000000  1
  Co  Co3  1  0.78473600  0.17502700  0.00000000  1
  Co  Co4  1  0.39029100  0.21526400  0.00000000  1
  Co  Co5  1  0.82497300  0.60970900  0.00000000  1
  Co  Co6  1  0.71827500  0.94596600  0.50000000  1
  Co  Co7  1  0.22769200  0.28172500  0.50000000  1
  Co  Co8  1  0.05403400  0.77230800  0.50000000  1
  Co  Co9  1  0.53590500  0.10405900  0.50000000  1
  Co  Co10  1  0.56815400  0.46409500  0.50000000  1
  Co  Co11  1  0.89594100  0.43184600  0.50000000  1
  P  P0  1  0.54665800  0.91970800  0.00000000  1
  P  P1  1  0.37305000  0.45334200  0.00000000  1
  P  P2  1  0.08029200  0.62695000  0.00000000  1
  P  P3  1  0.95579400  0.21474700  0.50000000  1
  P  P4  1  0.25895300  0.04420600  0.50000000  1
  P  P5  1  0.78525300  0.74104700  0.50000000  1
  P  P6  1  0.66666700  0.33333300  0.00000000  1
loop_
_geom_bond_atom_site_label_1
_geom_bond_atom_site_label_2
_geom_bond_distance
_geom_bond_site_symmetry_2
Li0 P5 2.754956 1_445
Li0 P5 2.754956 1_444
Li0 P4 2.754956 1_554
Li0 P4 2.754956 1_555
Li0 P3 2.754956 1_454
Li0 P3 2.754956 1_455
Li1 P2 2.726006 1_556
Li1 P2 2.726006 1_555
Li1 P0 2.726008 1_556
Li1 P0 2.726008 1_555
Li1 P1 2.726013 1_556
Li1 P1 2.726013 1_555
Co0 P0 2.169138 1_555
Co0 P2 2.191576 1_555
Co0 P4 2.284548 1_565
Co0 P4 2.284548 1_564
Co0 Li1 2.850650 1_555
Co0 Li1 2.850650 1_554
Co0 Li0 3.156751 1_565
Co1 P1 2.169138 1_555
Co1 P0 2.191576 1_555
Co1 P5 2.284548 1_555
Co1 P5 2.284548 1_554
Co1 Li1 2.850657 1_554
Co1 Li1 2.850657 1_555
Co1 Li0 3.156751 1_665
Co2 P2 2.169138 1_555
Co2 P1 2.191576 1_555
Co2 P3 2.284548 1_454
Co2 P3 2.284548 1_455
Co2 Li1 2.850654 1_554
Co2 Li1 2.850654 1_555
Co2 Li0 3.156751 1_555
Co3 P6 2.136004 1_555
Co3 P0 2.197882 1_545
Co3 P3 2.222371 1_555
Co3 P3 2.222371 1_554
Co3 Li0 3.011141 1_655
Co4 P6 2.136012 1_555
Co4 P1 2.197882 1_555
Co4 P4 2.222371 1_554
Co4 P4 2.222371 1_555
Co4 Li0 3.011141 1_555
Co5 P6 2.136012 1_555
Co5 P2 2.197882 1_655
Co5 P5 2.222371 1_555
Co5 P5 2.222371 1_554
Co5 Li0 3.011141 1_665
Co6 P5 2.181989 1_555
Co6 P0 2.250509 1_556
Co6 P0 2.250509 1_555
Co6 P3 2.264078 1_565
Co6 Li0 2.888125 1_665
Co6 Li0 2.888125 1_666
Co7 P3 2.181998 1_455
Co7 P1 2.250507 1_555
Co7 P1 2.250507 1_556
Co7 P4 2.264073 1_555
Co7 Li0 2.888127 1_556
Co7 Li0 2.888127 1_555
Co8 P4 2.181996 1_565
Co8 P2 2.250504 1_556
Co8 P2 2.250504 1_555
Co8 P5 2.264082 1_455
Co8 Li0 2.888132 1_565
Co8 Li0 2.888132 1_566
Co9 P4 2.244617 1_555
Co9 P0 2.427146 1_546
Co9 P0 2.427146 1_545
Co9 P6 2.485130 1_555
Co9 P6 2.485130 1_556
Co10 P5 2.244617 1_555
Co10 P1 2.427146 1_556
Co10 P1 2.427146 1_555
Co10 P6 2.485135 1_555
Co10 P6 2.485135 1_556
Co11 P3 2.244617 1_555
Co11 P2 2.427146 1_655
Co11 P2 2.427146 1_656
Co11 P6 2.485130 1_555
Co11 P6 2.485130 1_556
