# generated using pymatgen
data_LiLaNb4O12
_symmetry_space_group_name_H-M   'P 1'
_cell_length_a   8.96293505
_cell_length_b   8.96293505
_cell_length_c   8.96293505
_cell_angle_alpha   143.45991877
_cell_angle_beta   143.45991877
_cell_angle_gamma   52.63567289
_symmetry_Int_Tables_number   1
_chemical_formula_structural   LiLaNb4O12
_chemical_formula_sum   'Li1 La1 Nb4 O12'
_cell_volume   253.71814857
_cell_formula_units_Z   1
loop_
 _symmetry_equiv_pos_site_id
 _symmetry_equiv_pos_as_xyz
  1  'x, y, z'
loop_
 _atom_site_type_symbol
 _atom_site_label
 _atom_site_symmetry_multiplicity
 _atom_site_fract_x
 _atom_site_fract_y
 _atom_site_fract_z
 _atom_site_occupancy
  Li  Li0  1  0.00000000  0.00000000  0.00000000  1
  La  La0  1  0.50000000  0.50000000  0.00000000  1
  Nb  Nb0  1  0.62915700  0.12915700  0.50000000  1
  Nb  Nb1  1  0.12915700  0.62915700  0.50000000  1
  Nb  Nb2  1  0.87084300  0.37084300  0.50000000  1
  Nb  Nb3  1  0.37084300  0.87084300  0.50000000  1
  O  O0  1  0.37023100  0.85859900  0.00000000  1
  O  O1  1  0.85859900  0.37023100  0.00000000  1
  O  O2  1  0.62976900  0.14140100  0.00000000  1
  O  O3  1  0.14140100  0.62976900  0.00000000  1
  O  O4  1  0.85859900  0.85859900  0.48836800  1
  O  O5  1  0.37023100  0.37023100  0.51163200  1
  O  O6  1  0.14140100  0.14140100  0.51163200  1
  O  O7  1  0.62976900  0.62976900  0.48836800  1
  O  O8  1  0.50000000  0.00000000  0.50000000  1
  O  O9  1  0.00000000  0.50000000  0.50000000  1
  O  O10  1  0.75000000  0.25000000  0.50000000  1
  O  O11  1  0.25000000  0.75000000  0.50000000  1
loop_
_geom_bond_atom_site_label_1
_geom_bond_atom_site_label_2
_geom_bond_distance
_geom_bond_site_symmetry_2
La0 O7 2.673161 1_555
La0 O0 2.673161 1_555
La0 O5 2.673161 1_554
La0 O2 2.673161 1_555
La0 O6 2.673161 1_554
La0 O3 2.673161 1_555
La0 O1 2.673161 1_555
La0 O4 2.673161 1_555
La0 O9 2.809844 1_655
La0 O9 2.809844 1_554
La0 O8 2.809844 1_554
La0 O8 2.809844 1_565
Nb0 O10 1.941684 1_555
Nb0 O4 2.001464 1_545
Nb0 O1 2.001464 1_556
Nb0 O5 2.001464 1_555
Nb0 O0 2.001464 1_545
Nb0 O8 2.075272 1_555
Nb1 O11 1.941684 1_555
Nb1 O4 2.001464 1_455
Nb1 O1 2.001464 1_455
Nb1 O0 2.001464 1_556
Nb1 O5 2.001464 1_555
Nb1 O9 2.075272 1_555
Nb2 O10 1.941684 1_555
Nb2 O7 2.001464 1_555
Nb2 O2 2.001464 1_555
Nb2 O3 2.001464 1_656
Nb2 O6 2.001464 1_655
Nb2 O9 2.075272 1_655
Nb3 O11 1.941684 1_555
Nb3 O7 2.001464 1_555
Nb3 O3 2.001464 1_555
Nb3 O2 2.001464 1_566
Nb3 O6 2.001464 1_565
Nb3 O8 2.075272 1_565
