# generated using pymatgen
data_Gd2Fe17H3
_symmetry_space_group_name_H-M   'P 1'
_cell_length_a   6.40569547
_cell_length_b   6.40569547
_cell_length_c   6.40569595
_cell_angle_alpha   84.29112483
_cell_angle_beta   84.29112483
_cell_angle_gamma   84.29112615
_symmetry_Int_Tables_number   1
_chemical_formula_structural   Gd2Fe17H3
_chemical_formula_sum   'Gd2 Fe17 H3'
_cell_volume   259.17633342
_cell_formula_units_Z   1
loop_
 _symmetry_equiv_pos_site_id
 _symmetry_equiv_pos_as_xyz
  1  'x, y, z'
loop_
 _atom_site_type_symbol
 _atom_site_label
 _atom_site_symmetry_multiplicity
 _atom_site_fract_x
 _atom_site_fract_y
 _atom_site_fract_z
 _atom_site_occupancy
  Gd  Gd0  1  0.65706800  0.65706800  0.65706800  1
  Gd  Gd1  1  0.34293200  0.34293200  0.34293200  1
  Fe  Fe0  1  0.00000000  0.00000000  0.50000000  1
  Fe  Fe1  1  0.00000000  0.50000000  0.00000000  1
  Fe  Fe2  1  0.50000000  0.00000000  0.00000000  1
  Fe  Fe3  1  0.28461300  0.71538700  0.00000000  1
  Fe  Fe4  1  0.71538700  0.00000000  0.28461300  1
  Fe  Fe5  1  0.00000000  0.28461300  0.71538700  1
  Fe  Fe6  1  0.28461300  0.00000000  0.71538700  1
  Fe  Fe7  1  0.00000000  0.71538700  0.28461300  1
  Fe  Fe8  1  0.71538700  0.28461300  0.00000000  1
  Fe  Fe9  1  0.34245700  0.34245700  0.84670400  1
  Fe  Fe10  1  0.34245700  0.84670400  0.34245700  1
  Fe  Fe11  1  0.84670400  0.34245700  0.34245700  1
  Fe  Fe12  1  0.65754300  0.65754300  0.15329600  1
  Fe  Fe13  1  0.65754300  0.15329600  0.65754300  1
  Fe  Fe14  1  0.15329600  0.65754300  0.65754300  1
  Fe  Fe15  1  0.90216600  0.90216600  0.90216600  1
  Fe  Fe16  1  0.09783400  0.09783400  0.09783400  1
  H  H0  1  0.50000000  0.50000000  0.00000000  1
  H  H1  1  0.50000000  0.00000000  0.50000000  1
  H  H2  1  0.00000000  0.50000000  0.50000000  1
loop_
_geom_bond_atom_site_label_1
_geom_bond_atom_site_label_2
_geom_bond_distance
_geom_bond_site_symmetry_2
Gd0 H2 2.484378 1_655
Gd0 H1 2.484378 1_565
Gd0 H0 2.484379 1_556
Gd1 H2 2.484378 1_555
Gd1 H1 2.484378 1_555
Gd1 H0 2.484379 1_555
Fe0 Fe7 2.393297 1_545
Fe0 Fe5 2.393297 1_555
Fe0 Fe6 2.393297 1_555
Fe0 Fe4 2.393297 1_455
Fe0 Fe10 2.474483 1_545
Fe0 Fe13 2.474483 1_455
Fe0 Fe14 2.474483 1_545
Fe0 Fe11 2.474483 1_455
Fe0 Fe15 2.618741 1_445
Fe0 Fe16 2.618741 1_555
Fe0 Gd1 3.277812 1_555
Fe0 Gd0 3.277812 1_445
Fe1 Fe8 2.393297 1_455
Fe1 Fe3 2.393297 1_555
Fe1 Fe5 2.393297 1_554
Fe1 Fe7 2.393297 1_555
Fe1 Fe12 2.474483 1_455
Fe1 Fe9 2.474483 1_554
Fe1 Fe11 2.474483 1_455
Fe1 Fe14 2.474483 1_554
Fe1 Fe15 2.618741 1_454
Fe1 Fe16 2.618741 1_555
Fe1 Gd1 3.277812 1_555
Fe1 Gd0 3.277812 1_454
Fe2 Fe8 2.393297 1_555
Fe2 Fe3 2.393297 1_545
Fe2 Fe4 2.393297 1_555
Fe2 Fe6 2.393297 1_554
Fe2 Fe9 2.474483 1_554
Fe2 Gd1 3.277812 1_555
Fe2 Gd0 3.277812 1_544
Fe3 H0 1.851608 1_555
Fe4 H1 1.851608 1_555
Fe5 H2 1.851608 1_555
Fe6 H1 1.851608 1_555
Fe7 H2 1.851608 1_555
Fe8 H0 1.851608 1_555
Fe9 H0 1.896849 1_556
Fe10 H1 1.896849 1_565
Fe10 Fe2 2.474483 1_565
Fe10 Fe16 2.642756 1_565
Fe11 H2 1.896849 1_655
Fe11 Fe16 2.642756 1_655
Fe12 H0 1.896849 1_555
Fe12 Fe2 2.474483 1_565
Fe12 Fe15 2.642756 1_554
Fe13 H1 1.896849 1_555
Fe13 Fe2 2.474483 1_556
Fe13 Fe15 2.642756 1_545
Fe14 H2 1.896849 1_555
Fe14 Fe15 2.642756 1_455
Fe15 Fe16 2.377097 1_666
Fe15 Fe2 2.618741 1_566
Fe15 Fe5 2.720126 1_665
Fe15 Fe6 2.720126 1_665
Fe15 Fe8 2.720126 1_566
Fe15 Fe3 2.720126 1_656
Fe15 Fe7 2.720126 1_656
Fe15 Fe4 2.720126 1_566
Fe15 Gd0 2.977603 1_555
Fe16 Fe2 2.618741 1_555
Fe16 Fe9 2.642756 1_554
Fe16 Fe4 2.720126 1_455
Fe16 Fe7 2.720126 1_545
Fe16 Fe8 2.720126 1_455
Fe16 Fe3 2.720126 1_545
Fe16 Fe5 2.720126 1_554
Fe16 Fe6 2.720126 1_554
Fe16 Gd1 2.977603 1_555
