# generated using pymatgen
data_Eu2MgSe4
_symmetry_space_group_name_H-M   'P 1'
_cell_length_a   13.87543559
_cell_length_b   8.18561742
_cell_length_c   13.19455772
_cell_angle_alpha   90.00000000
_cell_angle_beta   90.00000000
_cell_angle_gamma   90.00000000
_symmetry_Int_Tables_number   1
_chemical_formula_structural   Eu2MgSe4
_chemical_formula_sum   'Eu16 Mg8 Se32'
_cell_volume   1498.62476728
_cell_formula_units_Z   8
loop_
 _symmetry_equiv_pos_site_id
 _symmetry_equiv_pos_as_xyz
  1  'x, y, z'
loop_
 _atom_site_type_symbol
 _atom_site_label
 _atom_site_symmetry_multiplicity
 _atom_site_fract_x
 _atom_site_fract_y
 _atom_site_fract_z
 _atom_site_occupancy
  Eu  Eu0  1  0.10873712  0.88370698  0.68514553  1
  Eu  Eu1  1  0.89126288  0.11629302  0.18514553  1
  Eu  Eu2  1  0.39126288  0.88370698  0.18514553  1
  Eu  Eu3  1  0.60873712  0.11629302  0.68514553  1
  Eu  Eu4  1  0.12691684  0.38166942  0.32440754  1
  Eu  Eu5  1  0.87308316  0.61833058  0.82440754  1
  Eu  Eu6  1  0.37308316  0.38166942  0.82440754  1
  Eu  Eu7  1  0.62691684  0.61833058  0.32440754  1
  Eu  Eu8  1  0.13584597  0.62952721  0.99147027  1
  Eu  Eu9  1  0.86415403  0.37047279  0.49147027  1
  Eu  Eu10  1  0.36415403  0.62952721  0.49147027  1
  Eu  Eu11  1  0.63584597  0.37047279  0.99147027  1
  Eu  Eu12  1  0.13732847  0.12809288  0.99335716  1
  Eu  Eu13  1  0.86267153  0.87190712  0.49335716  1
  Eu  Eu14  1  0.36267153  0.12809288  0.49335716  1
  Eu  Eu15  1  0.63732847  0.87190712  0.99335716  1
  Mg  Mg0  1  0.10973431  0.38137991  0.69306921  1
  Mg  Mg1  1  0.89026569  0.61862009  0.19306921  1
  Mg  Mg2  1  0.39026569  0.38137991  0.19306921  1
  Mg  Mg3  1  0.60973431  0.61862009  0.69306921  1
  Mg  Mg4  1  0.12578552  0.87798651  0.31920807  1
  Mg  Mg5  1  0.87421448  0.12201349  0.81920807  1
  Mg  Mg6  1  0.37421448  0.87798651  0.81920807  1
  Mg  Mg7  1  0.62578552  0.12201349  0.31920807  1
  Se  Se0  1  0.00954494  0.88212239  0.88285978  1
  Se  Se1  1  0.99045506  0.11787761  0.38285978  1
  Se  Se2  1  0.49045506  0.88212239  0.38285978  1
  Se  Se3  1  0.50954494  0.11787761  0.88285978  1
  Se  Se4  1  0.02460448  0.38549077  0.12807472  1
  Se  Se5  1  0.97539552  0.61450923  0.62807472  1
  Se  Se6  1  0.47539552  0.38549077  0.62807472  1
  Se  Se7  1  0.52460448  0.61450923  0.12807472  1
  Se  Se8  1  0.01753904  0.36768770  0.87312650  1
  Se  Se9  1  0.98246096  0.63231230  0.37312650  1
  Se  Se10  1  0.48246096  0.36768770  0.37312650  1
  Se  Se11  1  0.51753904  0.63231230  0.87312650  1
  Se  Se12  1  0.03876600  0.86615717  0.14029704  1
  Se  Se13  1  0.96123400  0.13384283  0.64029704  1
  Se  Se14  1  0.46123400  0.86615717  0.64029704  1
  Se  Se15  1  0.53876600  0.13384283  0.14029704  1
  Se  Se16  1  0.20937879  0.87922737  0.49578784  1
  Se  Se17  1  0.79062121  0.12077263  0.99578784  1
  Se  Se18  1  0.29062121  0.87922737  0.99578784  1
  Se  Se19  1  0.70937879  0.12077263  0.49578784  1
  Se  Se20  1  0.21001467  0.38037627  0.52460161  1
  Se  Se21  1  0.78998533  0.61962373  0.02460161  1
  Se  Se22  1  0.28998533  0.38037627  0.02460161  1
  Se  Se23  1  0.71001467  0.61962373  0.52460161  1
  Se  Se24  1  0.23298534  0.13276669  0.77145598  1
  Se  Se25  1  0.76701466  0.86723331  0.27145598  1
  Se  Se26  1  0.26701466  0.13276669  0.27145598  1
  Se  Se27  1  0.73298534  0.86723331  0.77145598  1
  Se  Se28  1  0.23384282  0.63499462  0.77413977  1
  Se  Se29  1  0.76615718  0.36500538  0.27413977  1
  Se  Se30  1  0.26615718  0.63499462  0.27413977  1
  Se  Se31  1  0.73384282  0.36500538  0.77413977  1
loop_
_geom_bond_atom_site_label_1
_geom_bond_atom_site_label_2
_geom_bond_distance
_geom_bond_site_symmetry_2
Eu0 Se16 2.862493 1_555
Eu0 Se24 2.902659 1_565
Eu0 Se28 2.921800 1_555
Eu0 Se0 2.949585 1_555
Eu0 Se13 2.954887 1_465
Eu0 Se5 2.974192 1_455
Eu1 Se17 2.862493 1_554
Eu1 Se25 2.902659 1_545
Eu1 Se29 2.921800 1_555
Eu1 Se1 2.949585 1_555
Eu1 Se12 2.954887 1_645
Eu1 Se4 2.974192 1_655
Eu2 Se18 2.862493 1_554
Eu2 Se26 2.902659 1_565
Eu2 Se30 2.921800 1_555
Eu2 Se2 2.949585 1_555
Eu2 Se15 2.954887 1_565
Eu2 Se7 2.974192 1_555
Eu3 Se19 2.862493 1_555
Eu3 Se27 2.902659 1_545
Eu3 Se31 2.921800 1_555
Eu3 Se3 2.949585 1_555
Eu3 Se14 2.954887 1_545
Eu3 Se6 2.974192 1_555
Eu4 Se20 2.882176 1_555
Eu4 Se26 2.901388 1_555
Eu4 Se30 2.910761 1_555
Eu4 Se9 2.939410 1_455
Eu4 Se4 2.954174 1_555
Eu4 Se1 2.973654 1_455
Eu5 Se21 2.882176 1_556
Eu5 Se27 2.901388 1_555
Eu5 Se31 2.910761 1_555
Eu5 Se8 2.939410 1_655
Eu5 Se5 2.954174 1_555
Eu5 Se0 2.973654 1_655
Eu6 Se22 2.882176 1_556
Eu6 Se24 2.901388 1_555
Eu6 Se28 2.910761 1_555
Eu6 Se11 2.939410 1_555
Eu6 Se6 2.954174 1_555
Eu6 Se3 2.973654 1_555
Eu7 Se23 2.882176 1_555
Eu7 Se25 2.901388 1_555
Eu7 Se29 2.910761 1_555
Eu7 Se10 2.939410 1_555
Eu7 Se7 2.954174 1_555
Eu7 Se2 2.973654 1_555
Eu8 Se18 2.965308 1_555
Eu8 Se22 2.987429 1_556
Eu8 Se0 3.065949 1_555
Eu8 Se12 3.069599 1_556
Eu8 Se4 3.101871 1_556
Eu8 Se8 3.118781 1_555
Eu8 Se28 3.173946 1_555
Eu9 Se19 2.965308 1_555
Eu9 Se23 2.987429 1_555
Eu9 Se1 3.065949 1_555
Eu9 Se13 3.069599 1_555
Eu9 Se5 3.101871 1_555
Eu9 Se9 3.118781 1_555
Eu9 Se29 3.173946 1_555
Eu10 Se16 2.965308 1_555
Eu10 Se20 2.987429 1_555
Eu10 Se2 3.065949 1_555
Eu10 Se14 3.069599 1_555
Eu10 Se6 3.101871 1_555
Eu10 Se10 3.118781 1_555
Eu10 Se30 3.173946 1_555
Eu11 Se17 2.965308 1_555
Eu11 Se21 2.987429 1_556
Eu11 Se3 3.065949 1_555
Eu11 Se15 3.069599 1_556
Eu11 Se7 3.101871 1_556
Eu11 Se11 3.118781 1_555
Eu11 Se31 3.173946 1_555
Eu12 Se18 2.945339 1_545
Eu12 Se22 2.986848 1_556
Eu12 Se8 3.020884 1_555
Eu12 Se0 3.053397 1_545
Eu12 Se4 3.169435 1_556
Eu12 Se12 3.197887 1_546
Eu12 Se24 3.214913 1_555
Eu13 Se19 2.945339 1_565
Eu13 Se23 2.986848 1_555
Eu13 Se9 3.020884 1_555
Eu13 Se1 3.053397 1_565
Eu13 Se5 3.169435 1_555
Eu13 Se13 3.197887 1_565
Eu13 Se25 3.214913 1_555
Eu14 Se16 2.945339 1_545
Eu14 Se20 2.986848 1_555
Eu14 Se10 3.020884 1_555
Eu14 Se2 3.053397 1_545
Eu14 Se6 3.169435 1_555
Eu14 Se14 3.197887 1_545
Eu14 Se26 3.214913 1_555
Eu15 Se17 2.945339 1_565
Eu15 Se21 2.986848 1_556
Eu15 Se11 3.020884 1_555
Eu15 Se3 3.053397 1_565
Eu15 Se7 3.169435 1_556
Eu15 Se15 3.197887 1_566
Eu15 Se27 3.214913 1_555
Mg0 Se20 2.622450 1_555
Mg0 Se8 2.700621 1_555
Mg0 Se5 2.802071 1_455
Mg0 Se24 2.852337 1_555
Mg0 Se28 2.901633 1_555
Mg0 Se13 2.972573 1_455
Mg1 Se21 2.622450 1_555
Mg1 Se9 2.700621 1_555
Mg1 Se4 2.802071 1_655
Mg1 Se25 2.852337 1_555
Mg1 Se29 2.901633 1_555
Mg1 Se12 2.972573 1_655
Mg2 Se22 2.622450 1_555
Mg2 Se10 2.700621 1_555
Mg2 Se7 2.802071 1_555
Mg2 Se26 2.852337 1_555
Mg2 Se30 2.901633 1_555
Mg2 Se15 2.972573 1_555
Mg3 Se23 2.622450 1_555
Mg3 Se11 2.700621 1_555
Mg3 Se6 2.802071 1_555
Mg3 Se27 2.852337 1_555
Mg3 Se31 2.901633 1_555
Mg3 Se14 2.972573 1_555
Mg4 Se16 2.602662 1_555
Mg4 Se12 2.653290 1_555
Mg4 Se1 2.843822 1_465
Mg4 Se30 2.846664 1_555
Mg4 Se9 2.916355 1_455
Mg4 Se26 2.930278 1_565
Mg5 Se17 2.602662 1_555
Mg5 Se13 2.653290 1_555
Mg5 Se0 2.843822 1_645
Mg5 Se31 2.846664 1_555
Mg5 Se8 2.916355 1_655
Mg5 Se27 2.930278 1_545
Mg6 Se18 2.602662 1_555
Mg6 Se14 2.653290 1_555
Mg6 Se3 2.843822 1_565
Mg6 Se28 2.846664 1_555
Mg6 Se11 2.916355 1_555
Mg6 Se24 2.930278 1_565
Mg7 Se19 2.602662 1_555
Mg7 Se15 2.653290 1_555
Mg7 Se2 2.843822 1_545
Mg7 Se29 2.846664 1_555
Mg7 Se10 2.916355 1_555
Mg7 Se25 2.930278 1_545
