# generated using pymatgen
data_Pr14Ag51
_symmetry_space_group_name_H-M   'P 1'
_cell_length_a   9.48966308
_cell_length_b   12.79934921
_cell_length_c   12.79942356
_cell_angle_alpha   119.99842495
_cell_angle_beta   90.00000000
_cell_angle_gamma   90.00000000
_symmetry_Int_Tables_number   1
_chemical_formula_structural   Pr14Ag51
_chemical_formula_sum   'Pr14 Ag51'
_cell_volume   1346.37679311
_cell_formula_units_Z   1
loop_
 _symmetry_equiv_pos_site_id
 _symmetry_equiv_pos_as_xyz
  1  'x, y, z'
loop_
 _atom_site_type_symbol
 _atom_site_label
 _atom_site_symmetry_multiplicity
 _atom_site_fract_x
 _atom_site_fract_y
 _atom_site_fract_z
 _atom_site_occupancy
  Pr  Pr0  1  0.50000000  0.67210563  0.53005445  1
  Pr  Pr1  1  0.50000000  0.46995551  0.14205755  1
  Pr  Pr2  1  0.50000000  0.85795100  0.32790833  1
  Pr  Pr3  1  0.50000000  0.33047575  0.47429816  1
  Pr  Pr4  1  0.50000000  0.52569311  0.85617327  1
  Pr  Pr5  1  0.50000000  0.14381915  0.66951379  1
  Pr  Pr6  1  0.00000000  0.26519748  0.88707278  1
  Pr  Pr7  1  0.00000000  0.11291437  0.37810643  1
  Pr  Pr8  1  0.00000000  0.62188756  0.73480627  1
  Pr  Pr9  1  0.00000000  0.71688638  0.11644761  1
  Pr  Pr10  1  0.00000000  0.88355798  0.60044332  1
  Pr  Pr11  1  0.00000000  0.39956077  0.28311490  1
  Pr  Pr12  1  0.30312847  -0.00000038  0.00000028  1
  Pr  Pr13  1  0.69687153  -0.00000038  0.00000028  1
  Ag  Ag0  1  0.15310121  0.62208981  0.50795792  1
  Ag  Ag1  1  0.15310848  0.49203174  0.11413377  1
  Ag  Ag2  1  0.15310785  0.88586591  0.37791118  1
  Ag  Ag3  1  0.15166212  0.38417502  0.49952942  1
  Ag  Ag4  1  0.15167268  0.50048041  0.88464377  1
  Ag  Ag5  1  0.15166685  0.11535293  0.61582487  1
  Ag  Ag6  1  0.84833788  0.38417502  0.49952942  1
  Ag  Ag7  1  0.84832732  0.50048041  0.88464377  1
  Ag  Ag8  1  0.84833315  0.11535293  0.61582487  1
  Ag  Ag9  1  0.84689879  0.62208981  0.50795792  1
  Ag  Ag10  1  0.84689152  0.49203174  0.11413377  1
  Ag  Ag11  1  0.84689215  0.88586591  0.37791118  1
  Ag  Ag12  1  0.50000000  0.17888765  0.94122727  1
  Ag  Ag13  1  0.50000000  0.05876738  0.23765532  1
  Ag  Ag14  1  0.50000000  0.76233820  0.82110902  1
  Ag  Ag15  1  0.50000000  0.81875981  0.05950392  1
  Ag  Ag16  1  0.50000000  0.94049929  0.75925485  1
  Ag  Ag17  1  0.50000000  0.24075020  0.18123568  1
  Ag  Ag18  1  0.00000000  0.66667962  0.33334703  1
  Ag  Ag19  1  0.00000000  0.33332050  0.66663743  1
  Ag  Ag20  1  0.32822598  0.32996236  0.89619177  1
  Ag  Ag21  1  0.32821940  0.10379935  0.43376846  1
  Ag  Ag22  1  0.32820783  0.56623154  0.67003239  1
  Ag  Ag23  1  0.33077084  0.66392221  0.10384883  1
  Ag  Ag24  1  0.33075641  0.89616314  0.56007936  1
  Ag  Ag25  1  0.33075108  0.43991671  0.33607874  1
  Ag  Ag26  1  0.66922916  0.66392221  0.10384883  1
  Ag  Ag27  1  0.66924359  0.89616314  0.56007936  1
  Ag  Ag28  1  0.66924892  0.43991671  0.33607874  1
  Ag  Ag29  1  0.67177402  0.32996236  0.89619177  1
  Ag  Ag30  1  0.67178060  0.10379935  0.43376846  1
  Ag  Ag31  1  0.67179217  0.56623154  0.67003239  1
  Ag  Ag32  1  0.24219514  0.07240406  0.80204245  1
  Ag  Ag33  1  0.24219791  0.19795729  0.27036659  1
  Ag  Ag34  1  0.24219582  0.72964948  0.92759402  1
  Ag  Ag35  1  0.23746761  0.92298834  0.18952316  1
  Ag  Ag36  1  0.23745836  0.81048476  0.73347051  1
  Ag  Ag37  1  0.23745942  0.26651931  0.07700677  1
  Ag  Ag38  1  0.76253239  0.92298834  0.18952316  1
  Ag  Ag39  1  0.76254164  0.81048476  0.73347051  1
  Ag  Ag40  1  0.76254058  0.26651931  0.07700677  1
  Ag  Ag41  1  0.75780486  0.07240406  0.80204245  1
  Ag  Ag42  1  0.75780209  0.19795729  0.27036659  1
  Ag  Ag43  1  0.75780418  0.72964948  0.92759402  1
  Ag  Ag44  1  0.28908693  0.66665890  0.33333817  1
  Ag  Ag45  1  0.28881533  0.33333579  0.66666876  1
  Ag  Ag46  1  0.71118467  0.33333579  0.66666876  1
  Ag  Ag47  1  0.71091307  0.66665890  0.33333817  1
  Ag  Ag48  1  0.00000000  0.98122016  0.86652626  1
  Ag  Ag49  1  0.00000000  0.13348181  0.11469572  1
  Ag  Ag50  1  0.00000000  0.88531629  0.01878822  1
loop_
_geom_bond_atom_site_label_1
_geom_bond_atom_site_label_2
_geom_bond_distance
_geom_bond_site_symmetry_2
Ag0 Ag36 2.797683 1_555
Ag0 Ag25 2.826531 1_555
Ag0 Ag44 2.874195 1_555
Ag0 Ag9 2.905758 1_455
Ag0 Ag18 2.950745 1_555
Ag0 Ag3 2.992707 1_555
Ag0 Ag22 3.009793 1_555
Ag0 Pr11 3.210752 1_555
Ag0 Pr8 3.247900 1_555
Ag0 Pr10 3.278813 1_555
Ag0 Pr0 3.338519 1_555
Ag1 Ag37 2.797564 1_555
Ag1 Ag23 2.826617 1_555
Ag1 Ag44 2.874369 1_555
Ag1 Ag10 2.905896 1_455
Ag1 Ag18 2.951063 1_555
Ag1 Ag4 2.992902 1_554
Ag1 Ag20 3.009962 1_554
Ag1 Pr9 3.210849 1_555
Ag1 Pr6 3.247964 1_554
Ag1 Pr11 3.278663 1_555
Ag1 Pr1 3.338422 1_555
Ag2 Ag35 2.797577 1_555
Ag2 Ag24 2.826423 1_555
Ag2 Ag44 2.874368 1_555
Ag2 Ag5 2.992782 1_565
Ag2 Ag21 3.009846 1_565
Ag2 Pr10 3.210726 1_555
Ag2 Pr7 3.247929 1_565
Ag2 Pr9 3.278833 1_555
Ag2 Pr2 3.338435 1_555
Ag3 Ag33 2.834026 1_555
Ag3 Ag45 2.843582 1_555
Ag3 Ag6 2.878445 1_455
Ag3 Pr11 3.213782 1_555
Ag3 Pr7 3.338497 1_555
Ag3 Pr8 3.351891 1_555
Ag3 Pr3 3.358838 1_555
Ag4 Ag45 2.843587 1_555
Ag4 Ag7 2.878645 1_455
Ag4 Pr9 3.213865 1_556
Ag4 Pr8 3.338335 1_555
Ag4 Pr6 3.351892 1_555
Ag4 Pr4 3.358707 1_555
Ag5 Ag8 2.878535 1_455
Ag5 Pr10 3.213757 1_545
Ag5 Pr6 3.338423 1_555
Ag5 Pr7 3.351906 1_555
Ag5 Pr5 3.358775 1_555
Ag6 Ag9 2.992707 1_555
Ag6 Pr11 3.213782 1_655
Ag6 Pr7 3.338497 1_655
Ag6 Pr8 3.351891 1_655
Ag6 Pr3 3.358838 1_555
Ag7 Pr9 3.213865 1_656
Ag7 Pr8 3.338335 1_655
Ag7 Pr6 3.351892 1_655
Ag7 Pr4 3.358707 1_555
Ag8 Pr10 3.213757 1_645
Ag8 Pr6 3.338423 1_655
Ag8 Pr7 3.351906 1_655
Ag8 Pr5 3.358775 1_555
Ag9 Pr11 3.210752 1_655
Ag9 Pr8 3.247900 1_655
Ag9 Pr10 3.278813 1_655
Ag9 Pr0 3.338519 1_555
Ag10 Ag40 2.797564 1_555
Ag10 Ag26 2.826617 1_555
Ag10 Ag47 2.874369 1_555
Ag10 Ag18 2.951063 1_655
Ag10 Ag7 2.992902 1_554
Ag10 Ag29 3.009962 1_554
Ag10 Pr9 3.210849 1_655
Ag10 Pr6 3.247964 1_654
Ag10 Pr11 3.278663 1_655
Ag10 Pr1 3.338422 1_555
Ag11 Ag38 2.797577 1_555
Ag11 Ag27 2.826423 1_555
Ag11 Ag47 2.874368 1_555
Ag11 Ag2 2.905884 1_655
Ag11 Ag18 2.950722 1_655
Ag11 Ag8 2.992782 1_565
Ag11 Ag30 3.009846 1_565
Ag11 Pr10 3.210726 1_655
Ag11 Pr7 3.247929 1_665
Ag11 Pr9 3.278833 1_655
Ag11 Pr2 3.338435 1_555
Ag12 Ag16 2.761964 1_545
Ag12 Ag17 2.762548 1_556
Ag12 Ag29 2.800539 1_555
Ag12 Ag20 2.800539 1_555
Ag12 Ag37 2.921702 1_556
Ag12 Ag40 2.921702 1_556
Ag12 Ag32 2.930632 1_555
Ag12 Ag41 2.930632 1_555
Ag12 Pr5 3.276501 1_555
Ag12 Pr1 3.303149 1_556
Ag12 Pr12 3.319799 1_556
Ag12 Pr13 3.319799 1_556
Ag13 Ag17 2.762049 1_555
Ag13 Ag15 2.762585 1_545
Ag13 Ag30 2.800647 1_555
Ag13 Ag21 2.800647 1_555
Ag13 Ag38 2.921639 1_545
Ag13 Ag35 2.921639 1_545
Ag13 Ag33 2.930607 1_555
Ag13 Ag42 2.930607 1_555
Ag13 Pr3 3.276503 1_555
Ag13 Pr2 3.303037 1_545
Ag13 Pr12 3.319793 1_555
Ag13 Pr13 3.319793 1_555
Ag14 Ag15 2.761995 1_556
Ag14 Ag16 2.762611 1_555
Ag14 Ag22 2.800672 1_555
Ag14 Ag31 2.800672 1_555
Ag14 Ag39 2.921724 1_555
Ag14 Ag36 2.921724 1_555
Ag14 Ag34 2.930553 1_555
Ag14 Ag43 2.930553 1_555
Ag14 Pr4 3.276430 1_555
Ag14 Pr0 3.302980 1_555
Ag14 Pr13 3.319874 1_566
Ag14 Pr12 3.319874 1_566
Ag15 Ag26 2.820209 1_555
Ag15 Ag23 2.820209 1_555
Ag15 Ag34 2.865504 1_554
Ag15 Ag43 2.865504 1_554
Ag15 Ag38 2.921639 1_555
Ag15 Ag35 2.921639 1_555
Ag15 Pr2 3.214117 1_555
Ag15 Pr4 3.328938 1_554
Ag15 Pr13 3.349374 1_565
Ag15 Pr12 3.349374 1_565
Ag16 Ag24 2.820275 1_555
Ag16 Ag27 2.820275 1_555
Ag16 Ag32 2.865480 1_565
Ag16 Ag41 2.865480 1_565
Ag16 Ag39 2.921680 1_555
Ag16 Ag36 2.921680 1_555
Ag16 Pr0 3.214019 1_555
Ag16 Pr5 3.328763 1_565
Ag16 Pr12 3.349445 1_566
Ag16 Pr13 3.349445 1_566
Ag17 Ag25 2.820274 1_555
Ag17 Ag28 2.820274 1_555
Ag17 Ag42 2.865562 1_555
Ag17 Ag33 2.865562 1_555
Ag17 Ag37 2.921593 1_555
Ag17 Ag40 2.921593 1_555
Ag17 Pr1 3.213872 1_555
Ag17 Pr3 3.328894 1_555
Ag17 Pr12 3.349477 1_555
Ag17 Pr13 3.349477 1_555
Ag18 Ag47 2.743338 1_455
Ag18 Ag44 2.743338 1_555
Ag18 Ag2 2.950722 1_555
Ag18 Ag9 2.950745 1_455
Ag18 Pr10 3.146987 1_555
Ag18 Pr9 3.147078 1_555
Ag18 Pr11 3.147141 1_555
Ag19 Ag45 2.740760 1_555
Ag19 Ag46 2.740760 1_455
Ag19 Ag6 2.908955 1_455
Ag19 Ag3 2.908955 1_555
Ag19 Ag5 2.909184 1_555
Ag19 Ag8 2.909184 1_455
Ag19 Ag4 2.909565 1_555
Ag19 Ag7 2.909565 1_455
Ag19 Pr7 3.343513 1_555
Ag19 Pr8 3.343731 1_555
Ag19 Pr6 3.343771 1_555
Ag20 Ag4 2.813341 1_555
Ag20 Ag37 2.938815 1_556
Ag20 Ag45 2.983123 1_555
Ag20 Ag32 3.002288 1_555
Ag20 Pr5 3.136745 1_555
Ag20 Pr1 3.183162 1_556
Ag20 Pr6 3.210253 1_555
Ag20 Pr4 3.237101 1_555
Ag20 Ag29 3.260155 1_555
Ag21 Ag5 2.813228 1_555
Ag21 Ag35 2.938725 1_545
Ag21 Ag45 2.983286 1_555
Ag21 Ag33 3.002225 1_555
Ag21 Pr3 3.136728 1_555
Ag21 Pr2 3.183009 1_545
Ag21 Pr7 3.210234 1_555
Ag21 Pr5 3.237119 1_555
Ag21 Ag30 3.260280 1_555
Ag22 Ag3 2.813225 1_555
Ag22 Ag36 2.938748 1_555
Ag22 Ag45 2.983138 1_555
Ag22 Ag34 3.002327 1_555
Ag22 Pr4 3.136775 1_555
Ag22 Pr0 3.183048 1_555
Ag22 Pr8 3.210119 1_555
Ag22 Pr3 3.237315 1_555
Ag22 Ag31 3.260500 1_555
Ag23 Ag34 2.898513 1_554
Ag23 Ag44 2.946647 1_555
Ag23 Ag4 3.044285 1_554
Ag23 Ag35 3.057048 1_555
Ag23 Pr2 3.138343 1_555
Ag23 Pr4 3.185964 1_554
Ag23 Pr1 3.193085 1_555
Ag23 Pr9 3.198276 1_555
Ag23 Ag26 3.211855 1_555
Ag24 Ag32 2.898340 1_565
Ag24 Ag44 2.946713 1_555
Ag24 Ag5 3.044093 1_565
Ag24 Ag36 3.057029 1_555
Ag24 Pr0 3.138361 1_555
Ag24 Pr5 3.185826 1_565
Ag24 Pr2 3.193125 1_555
Ag24 Pr10 3.198148 1_555
Ag24 Ag27 3.212129 1_555
Ag25 Ag33 2.898256 1_555
Ag25 Ag44 2.946496 1_555
Ag25 Ag3 3.044111 1_555
Ag25 Ag37 3.057127 1_555
Ag25 Pr1 3.138352 1_555
Ag25 Pr3 3.185847 1_555
Ag25 Pr0 3.193376 1_555
Ag25 Pr11 3.198087 1_555
Ag25 Ag28 3.212230 1_555
Ag26 Ag43 2.898513 1_554
Ag26 Ag47 2.946647 1_555
Ag26 Ag7 3.044285 1_554
Ag26 Ag38 3.057048 1_555
Ag26 Pr2 3.138343 1_555
Ag26 Pr4 3.185964 1_554
Ag26 Pr1 3.193085 1_555
Ag26 Pr9 3.198276 1_655
Ag27 Ag41 2.898340 1_565
Ag27 Ag47 2.946713 1_555
Ag27 Ag8 3.044093 1_565
Ag27 Ag39 3.057029 1_555
Ag27 Pr0 3.138361 1_555
Ag27 Pr5 3.185826 1_565
Ag27 Pr2 3.193125 1_555
Ag27 Pr10 3.198148 1_655
Ag28 Ag9 2.826531 1_555
Ag28 Ag42 2.898256 1_555
Ag28 Ag47 2.946496 1_555
Ag28 Ag6 3.044111 1_555
Ag28 Ag40 3.057127 1_555
Ag28 Pr1 3.138352 1_555
Ag28 Pr3 3.185847 1_555
Ag28 Pr0 3.193376 1_555
Ag28 Pr11 3.198087 1_655
Ag29 Ag7 2.813341 1_555
Ag29 Ag40 2.938815 1_556
Ag29 Ag46 2.983123 1_555
Ag29 Ag41 3.002288 1_555
Ag29 Pr5 3.136745 1_555
Ag29 Pr1 3.183162 1_556
Ag29 Pr6 3.210253 1_655
Ag29 Pr4 3.237101 1_555
Ag30 Ag8 2.813228 1_555
Ag30 Ag38 2.938725 1_545
Ag30 Ag46 2.983286 1_555
Ag30 Ag42 3.002225 1_555
Ag30 Pr3 3.136728 1_555
Ag30 Pr2 3.183009 1_545
Ag30 Pr7 3.210234 1_655
Ag30 Pr5 3.237119 1_555
Ag31 Ag6 2.813225 1_555
Ag31 Ag39 2.938748 1_555
Ag31 Ag46 2.983138 1_555
Ag31 Ag43 3.002327 1_555
Ag31 Ag9 3.009793 1_555
Ag31 Pr4 3.136775 1_555
Ag31 Pr0 3.183048 1_555
Ag31 Pr8 3.210119 1_655
Ag31 Pr3 3.237315 1_555
Ag32 Ag5 2.833965 1_555
Ag32 Ag48 2.879055 1_545
Ag32 Ag36 3.011430 1_545
Ag32 Ag37 3.133274 1_556
Ag32 Pr6 3.141752 1_555
Ag32 Pr12 3.156112 1_556
Ag32 Pr5 3.353899 1_555
Ag32 Pr10 3.397992 1_545
Ag33 Ag49 2.879130 1_555
Ag33 Ag37 3.011470 1_555
Ag33 Ag35 3.133292 1_545
Ag33 Pr7 3.141654 1_555
Ag33 Pr12 3.156226 1_555
Ag33 Pr3 3.353827 1_555
Ag33 Pr11 3.398024 1_555
Ag34 Ag4 2.833986 1_555
Ag34 Ag50 2.879088 1_556
Ag34 Ag35 3.011546 1_556
Ag34 Ag36 3.133160 1_555
Ag34 Pr8 3.141729 1_555
Ag34 Pr12 3.155984 1_566
Ag34 Pr4 3.354011 1_555
Ag34 Pr9 3.398077 1_556
Ag35 Ag50 3.005432 1_555
Ag35 Pr12 3.104068 1_565
Ag35 Pr9 3.231824 1_555
Ag35 Pr7 3.308543 1_565
Ag35 Pr2 3.392853 1_555
Ag36 Ag48 3.005365 1_555
Ag36 Pr12 3.104105 1_566
Ag36 Pr10 3.231731 1_555
Ag36 Pr8 3.308533 1_555
Ag36 Pr0 3.392909 1_555
Ag37 Ag49 3.005237 1_555
Ag37 Pr12 3.103953 1_555
Ag37 Pr11 3.231861 1_555
Ag37 Pr6 3.308625 1_554
Ag37 Pr1 3.393018 1_555
Ag38 Ag50 3.005432 1_655
Ag38 Ag43 3.011546 1_554
Ag38 Pr13 3.104068 1_565
Ag38 Ag42 3.133292 1_565
Ag38 Pr9 3.231824 1_655
Ag38 Pr7 3.308543 1_665
Ag38 Pr2 3.392853 1_555
Ag39 Ag9 2.797683 1_555
Ag39 Ag48 3.005365 1_655
Ag39 Ag41 3.011430 1_565
Ag39 Pr13 3.104105 1_566
Ag39 Ag43 3.133160 1_555
Ag39 Pr10 3.231731 1_655
Ag39 Pr8 3.308533 1_655
Ag39 Pr0 3.392909 1_555
Ag40 Ag49 3.005237 1_655
Ag40 Ag42 3.011470 1_555
Ag40 Pr13 3.103953 1_555
Ag40 Ag41 3.133274 1_554
Ag40 Pr11 3.231861 1_655
Ag40 Pr6 3.308625 1_654
Ag40 Pr1 3.393018 1_555
Ag41 Ag8 2.833965 1_555
Ag41 Ag48 2.879055 1_645
Ag41 Pr6 3.141752 1_655
Ag41 Pr13 3.156112 1_556
Ag41 Pr5 3.353899 1_555
Ag41 Pr10 3.397992 1_645
Ag42 Ag6 2.834026 1_555
Ag42 Ag49 2.879130 1_655
Ag42 Pr7 3.141654 1_655
Ag42 Pr13 3.156226 1_555
Ag42 Pr3 3.353827 1_555
Ag42 Pr11 3.398024 1_655
Ag43 Ag7 2.833986 1_555
Ag43 Ag50 2.879088 1_656
Ag43 Pr8 3.141729 1_655
Ag43 Pr13 3.155984 1_566
Ag43 Pr4 3.354011 1_555
Ag43 Pr9 3.398077 1_656
Ag44 Pr0 3.189813 1_555
Ag44 Pr1 3.189838 1_555
Ag44 Pr2 3.189937 1_555
Ag45 Ag5 2.843609 1_555
Ag45 Pr4 3.160654 1_555
Ag45 Pr5 3.160684 1_555
Ag45 Pr3 3.160712 1_555
Ag46 Ag6 2.843582 1_555
Ag46 Ag7 2.843587 1_555
Ag46 Ag8 2.843609 1_555
Ag46 Pr4 3.160654 1_555
Ag46 Pr5 3.160684 1_555
Ag46 Pr3 3.160712 1_555
Ag47 Ag9 2.874195 1_555
Ag47 Pr0 3.189813 1_555
Ag47 Pr1 3.189838 1_555
Ag47 Pr2 3.189937 1_555
Ag48 Ag50 2.774344 1_556
Ag48 Ag49 2.774458 1_566
Ag48 Pr10 2.984025 1_555
Ag48 Pr12 3.292493 1_566
Ag48 Pr13 3.292493 1_466
Ag48 Pr6 3.510635 1_565
Ag49 Ag50 2.774376 1_545
Ag49 Pr11 2.983990 1_555
Ag49 Pr12 3.292538 1_555
Ag49 Pr13 3.292538 1_455
Ag49 Pr7 3.510535 1_555
Ag50 Pr9 2.984038 1_555
Ag50 Pr13 3.292446 1_465
Ag50 Pr12 3.292446 1_565
Ag50 Pr8 3.510745 1_554
