# generated using pymatgen
data_Li9Mn2Co5O16
_symmetry_space_group_name_H-M   'P 1'
_cell_length_a   5.89130960
_cell_length_b   5.89130960
_cell_length_c   9.74546164
_cell_angle_alpha   82.43340342
_cell_angle_beta   82.43340342
_cell_angle_gamma   59.19656706
_symmetry_Int_Tables_number   1
_chemical_formula_structural   Li9Mn2Co5O16
_chemical_formula_sum   'Li9 Mn2 Co5 O16'
_cell_volume   287.17420231
_cell_formula_units_Z   1
loop_
 _symmetry_equiv_pos_site_id
 _symmetry_equiv_pos_as_xyz
  1  'x, y, z'
loop_
 _atom_site_type_symbol
 _atom_site_label
 _atom_site_symmetry_multiplicity
 _atom_site_fract_x
 _atom_site_fract_y
 _atom_site_fract_z
 _atom_site_occupancy
  Li  Li0  1  0.37780100  0.37780100  0.75359200  1
  Li  Li1  1  0.62219900  0.62219900  0.24640800  1
  Li  Li2  1  0.87340200  0.87340200  0.75446100  1
  Li  Li3  1  0.87010800  0.37693300  0.75163800  1
  Li  Li4  1  0.12989200  0.62306700  0.24836200  1
  Li  Li5  1  0.37693300  0.87010800  0.75163800  1
  Li  Li6  1  0.62306700  0.12989200  0.24836200  1
  Li  Li7  1  0.12659800  0.12659800  0.24553900  1
  Li  Li8  1  0.50000000  0.50000000  0.00000000  1
  Mn  Mn0  1  0.00000000  0.50000000  0.00000000  1
  Mn  Mn1  1  0.50000000  0.00000000  0.00000000  1
  Co  Co0  1  0.24967200  0.75032800  0.50000000  1
  Co  Co1  1  0.75032800  0.24967200  0.50000000  1
  Co  Co2  1  0.75021700  0.75021700  0.49968200  1
  Co  Co3  1  0.00000000  0.00000000  0.00000000  1
  Co  Co4  1  0.24978300  0.24978300  0.50031800  1
  O  O0  1  0.20228400  0.20228400  0.88272900  1
  O  O1  1  0.43912100  0.43912100  0.38205300  1
  O  O2  1  0.69414800  0.69414800  0.88765600  1
  O  O3  1  0.69341300  0.15991500  0.89440300  1
  O  O4  1  0.93735800  0.43735300  0.38522600  1
  O  O5  1  0.15991500  0.69341300  0.89440300  1
  O  O6  1  0.43735300  0.93735800  0.38522600  1
  O  O7  1  0.93800200  0.93800200  0.38308200  1
  O  O8  1  0.56087900  0.56087900  0.61794700  1
  O  O9  1  0.79771600  0.79771600  0.11727100  1
  O  O10  1  0.06199800  0.06199800  0.61691800  1
  O  O11  1  0.06264200  0.56264700  0.61477400  1
  O  O12  1  0.30658700  0.84008500  0.10559700  1
  O  O13  1  0.56264700  0.06264200  0.61477400  1
  O  O14  1  0.84008500  0.30658700  0.10559700  1
  O  O15  1  0.30585200  0.30585200  0.11234400  1
loop_
_geom_bond_atom_site_label_1
_geom_bond_atom_site_label_2
_geom_bond_distance
_geom_bond_site_symmetry_2
Li0 O0 2.032704 1_555
Li0 O8 2.124752 1_555
Li0 O13 2.160118 1_555
Li0 O11 2.160118 1_555
Li0 O5 2.179833 1_555
Li0 O3 2.179833 1_555
Li1 O9 2.032704 1_555
Li1 O1 2.124752 1_555
Li1 O4 2.160118 1_555
Li1 O6 2.160118 1_555
Li1 O14 2.179833 1_555
Li1 O12 2.179833 1_555
Li2 O5 2.055659 1_655
Li2 O3 2.055659 1_565
Li2 O2 2.082199 1_555
Li2 O13 2.148023 1_565
Li2 O11 2.148023 1_655
Li2 O10 2.178446 1_665
Li3 O8 2.102849 1_555
Li3 O10 2.132273 1_655
Li3 O2 2.151871 1_555
Li3 O11 2.179666 1_655
Li3 O0 2.184133 1_655
Li3 O3 2.273141 1_555
Li4 O1 2.102849 1_555
Li4 O7 2.132273 1_455
Li4 O15 2.151871 1_555
Li4 O4 2.179666 1_455
Li4 O9 2.184133 1_455
Li4 O12 2.273141 1_555
Li5 O8 2.102849 1_555
Li5 O10 2.132273 1_565
Li5 O2 2.151871 1_555
Li5 O13 2.179666 1_565
Li5 O0 2.184133 1_565
Li5 O5 2.273141 1_555
Li6 O1 2.102849 1_555
Li6 O7 2.132273 1_545
Li6 O15 2.151871 1_555
Li6 O6 2.179666 1_545
Li6 O9 2.184133 1_545
Li6 O14 2.273141 1_555
Li7 O14 2.055659 1_455
Li7 O12 2.055659 1_545
Li7 O15 2.082199 1_555
Li7 O6 2.148023 1_545
Li7 O4 2.148023 1_455
Li7 O7 2.178446 1_445
Li8 O14 2.065816 1_555
Li8 O3 2.065816 1_554
Li8 O12 2.065816 1_555
Li8 O5 2.065816 1_554
Li8 O15 2.120255 1_555
Li8 O2 2.120255 1_554
Mn0 O5 1.944292 1_554
Mn0 O14 1.944292 1_455
Mn0 O9 1.957313 1_455
Mn0 O0 1.957313 1_554
Mn0 O2 1.957704 1_454
Mn0 O15 1.957704 1_555
Mn1 O3 1.944292 1_554
Mn1 O12 1.944292 1_545
Mn1 O0 1.957313 1_554
Mn1 O9 1.957313 1_545
Mn1 O2 1.957704 1_544
Mn1 O15 1.957704 1_555
Co0 O7 2.008016 1_455
Co0 O10 2.008016 1_565
Co0 O1 2.012386 1_555
Co0 O8 2.012386 1_555
Co0 O11 2.070076 1_555
Co0 O6 2.070076 1_555
Co1 O7 2.008016 1_545
Co1 O10 2.008016 1_655
Co1 O1 2.012386 1_555
Co1 O8 2.012386 1_555
Co1 O13 2.070076 1_555
Co1 O4 2.070076 1_555
Co2 O6 1.998327 1_555
Co2 O4 1.998327 1_555
Co2 O13 2.000271 1_565
Co2 O11 2.000271 1_655
Co2 O7 2.080958 1_555
Co2 O8 2.100950 1_555
Co3 O14 1.923627 1_455
Co3 O12 1.923627 1_545
Co3 O3 1.923627 1_454
Co3 O5 1.923627 1_544
Co3 O9 2.209907 1_445
Co3 O0 2.209907 1_554
Co4 O13 1.998327 1_555
Co4 O11 1.998327 1_555
Co4 O6 2.000271 1_545
Co4 O4 2.000271 1_455
Co4 O10 2.080958 1_555
Co4 O1 2.100950 1_555
