# generated using pymatgen
data_Rb2Ti4O9
_symmetry_space_group_name_H-M   'P 1'
_cell_length_a   3.80189662
_cell_length_b   9.73170209
_cell_length_c   12.07934864
_cell_angle_alpha   106.28186602
_cell_angle_beta   89.99901256
_cell_angle_gamma   101.26507720
_symmetry_Int_Tables_number   1
_chemical_formula_structural   Rb2Ti4O9
_chemical_formula_sum   'Rb4 Ti8 O18'
_cell_volume   420.02136380
_cell_formula_units_Z   2
loop_
 _symmetry_equiv_pos_site_id
 _symmetry_equiv_pos_as_xyz
  1  'x, y, z'
loop_
 _atom_site_type_symbol
 _atom_site_label
 _atom_site_symmetry_multiplicity
 _atom_site_fract_x
 _atom_site_fract_y
 _atom_site_fract_z
 _atom_site_occupancy
  Rb  Rb0  1  0.58359163  0.16712794  0.58234018  1
  Rb  Rb1  1  0.41641328  0.83287678  0.41766045  1
  Rb  Rb2  1  0.52045679  0.04078291  0.83080253  1
  Rb  Rb3  1  0.47954177  0.95921617  0.16920238  1
  Ti  Ti0  1  0.75358271  0.50743791  0.33394878  1
  Ti  Ti1  1  0.24642189  0.49256800  0.66605485  1
  Ti  Ti2  1  0.20495344  0.40961492  0.89673409  1
  Ti  Ti3  1  0.79504481  0.59038374  0.10326190  1
  Ti  Ti4  1  0.83477590  0.66906458  0.87535829  1
  Ti  Ti5  1  0.16522234  0.33093296  0.12463892  1
  Ti  Ti6  1  0.87315424  0.74625096  0.63963523  1
  Ti  Ti7  1  0.12684410  0.25374817  0.36036520  1
  O  O0  1  0.76702499  0.53378571  0.70023277  1
  O  O1  1  0.23297584  0.46621381  0.29976704  1
  O  O2  1  0.83495164  0.67011514  0.25701299  1
  O  O3  1  0.16504935  0.32988267  0.74298824  1
  O  O4  1  0.12705596  0.25387811  0.96248509  1
  O  O5  1  0.87294225  0.74611876  0.03751386  1
  O  O6  1  0.30589944  0.61148407  0.85846488  1
  O  O7  1  0.69409985  0.38851545  0.14153386  1
  O  O8  1  0.95985456  0.91962646  0.62152158  1
  O  O9  1  0.04014294  0.08037400  0.37847940  1
  O  O10  1  0.81445083  0.62905248  0.47421608  1
  O  O11  1  0.18555024  0.37094969  0.52578546  1
  O  O12  1  0.73058972  0.46101986  0.92183715  1
  O  O13  1  0.26940948  0.53897907  0.07816134  1
  O  O14  1  0.65401023  0.30809398  0.35587432  1
  O  O15  1  0.34599079  0.69190959  0.64412507  1
  O  O16  1  0.90993747  0.81982213  0.81736245  1
  O  O17  1  0.09006154  0.18017700  0.18263660  1
loop_
_geom_bond_atom_site_label_1
_geom_bond_atom_site_label_2
_geom_bond_distance
_geom_bond_site_symmetry_2
O0 Ti1 1.961090 1_555
O0 Ti1 1.961128 1_655
O0 Ti4 2.140184 1_555
O0 Ti6 2.344452 1_555
O1 Ti0 1.961107 1_555
O1 Ti0 1.961142 1_455
O1 Ti5 2.140216 1_555
O1 Ti7 2.344459 1_555
O2 Ti3 1.794518 1_555
O2 Ti0 2.024665 1_555
O2 Rb1 2.840364 1_555
O2 Rb1 2.840793 1_655
O3 Ti2 1.794461 1_555
O3 Ti1 2.024715 1_555
O3 Rb0 2.840346 1_555
O3 Rb0 2.840773 1_455
O4 Ti2 1.874857 1_555
O4 Ti5 1.885161 1_556
O4 Rb2 2.903417 1_555
O4 Rb2 2.903675 1_455
O5 Ti3 1.874818 1_555
O5 Ti4 1.885180 1_554
O5 Rb3 2.903455 1_555
O5 Rb3 2.903709 1_655
O6 Ti4 1.972793 1_455
O6 Ti4 1.973418 1_555
O6 Ti2 2.105945 1_555
O6 Ti1 2.276363 1_555
O7 Ti5 1.972798 1_655
O7 Ti5 1.973423 1_555
O7 Ti3 2.105953 1_555
O7 Ti0 2.276427 1_555
O8 Ti6 1.730033 1_555
O8 Rb1 3.032542 1_655
O8 Rb1 3.032898 1_555
O8 Rb2 3.109606 1_565
O8 Rb2 3.109753 1_665
O8 Rb0 3.171194 1_665
O8 Rb0 3.171303 1_565
O9 Ti7 1.730023 1_555
O9 Rb0 3.032528 1_455
O9 Rb0 3.032909 1_555
O9 Rb3 3.109578 1_545
O9 Rb3 3.109717 1_445
O9 Rb1 3.171149 1_445
O9 Rb1 3.171282 1_545
O10 Ti0 1.758875 1_555
O10 Ti6 1.991470 1_555
O10 Rb1 2.936646 1_555
O10 Rb1 2.936846 1_655
O11 Ti1 1.758909 1_555
O11 Ti7 1.991489 1_555
O11 Rb0 2.936630 1_555
O11 Rb0 2.936817 1_455
O12 Ti2 1.964750 1_555
O12 Ti2 1.965239 1_655
O12 Ti3 2.186339 1_556
O12 Ti4 2.212526 1_555
O13 Ti3 1.964744 1_555
O13 Ti3 1.965239 1_455
O13 Ti2 2.186365 1_554
O13 Ti5 2.212531 1_555
O14 Ti7 1.975233 1_555
O14 Ti7 1.975297 1_655
O14 Ti0 1.994504 1_555
O15 Ti6 1.975218 1_555
O15 Ti6 1.975286 1_455
O15 Ti1 1.994503 1_555
O16 Ti4 1.771272 1_555
O16 Ti6 2.059142 1_555
O16 Rb2 2.809126 1_565
O16 Rb2 2.809293 1_665
O17 Ti5 1.771272 1_555
O17 Ti7 2.059158 1_555
O17 Rb3 2.809136 1_545
O17 Rb3 2.809305 1_445
