# generated using pymatgen
data_PrCuSn
_symmetry_space_group_name_H-M   'P 1'
_cell_length_a   4.54076274
_cell_length_b   4.54067178
_cell_length_c   8.10663219
_cell_angle_alpha   90.00000000
_cell_angle_beta   90.00000000
_cell_angle_gamma   120.00066269
_symmetry_Int_Tables_number   1
_chemical_formula_structural   PrCuSn
_chemical_formula_sum   'Pr2 Cu2 Sn2'
_cell_volume   144.74951611
_cell_formula_units_Z   2
loop_
 _symmetry_equiv_pos_site_id
 _symmetry_equiv_pos_as_xyz
  1  'x, y, z'
loop_
 _atom_site_type_symbol
 _atom_site_label
 _atom_site_symmetry_multiplicity
 _atom_site_fract_x
 _atom_site_fract_y
 _atom_site_fract_z
 _atom_site_occupancy
  Pr  Pr0  1  0.00000000  0.00000000  0.50000000  1
  Pr  Pr1  1  0.00000000  0.00000000  -0.00000000  1
  Cu  Cu0  1  0.33332499  0.66664898  0.25000000  1
  Cu  Cu1  1  0.66667501  0.33335102  0.75000000  1
  Sn  Sn0  1  0.33333969  0.66668039  0.75000000  1
  Sn  Sn1  1  0.66666031  0.33331961  0.25000000  1
loop_
_geom_bond_atom_site_label_1
_geom_bond_atom_site_label_2
_geom_bond_distance
_geom_bond_site_symmetry_2
Pr0 Sn1 3.313599 1_455
Pr0 Sn0 3.313599 1_545
Pr0 Sn1 3.313603 1_555
Pr0 Sn0 3.313603 1_445
Pr0 Sn1 3.313624 1_445
Pr0 Sn0 3.313624 1_555
Pr1 Sn1 3.313599 1_455
Pr1 Sn0 3.313599 1_544
Pr1 Sn1 3.313603 1_555
Pr1 Sn0 3.313603 1_444
Pr1 Sn1 3.313624 1_445
Pr1 Sn0 3.313624 1_554
Cu0 Sn1 2.621556 1_565
Cu0 Sn1 2.621585 1_455
Cu0 Sn1 2.621585 1_555
Cu0 Pr1 3.313526 1_555
Cu0 Pr0 3.313526 1_555
Cu0 Pr0 3.313648 1_665
Cu0 Pr1 3.313648 1_665
Cu0 Pr1 3.313651 1_565
Cu0 Pr0 3.313651 1_565
Cu1 Sn0 2.621556 1_545
Cu1 Sn0 2.621585 1_655
Cu1 Sn0 2.621585 1_555
Cu1 Pr0 3.313526 1_665
Cu1 Pr1 3.313526 1_666
Cu1 Pr0 3.313648 1_555
Cu1 Pr1 3.313648 1_556
Cu1 Pr1 3.313651 1_656
Cu1 Pr0 3.313651 1_655
