# generated using pymatgen
data_BaMn2Fe4O11
_symmetry_space_group_name_H-M   'P 1'
_cell_length_a   5.88896389
_cell_length_b   5.88896389
_cell_length_c   13.61772341
_cell_angle_alpha   89.98293308
_cell_angle_beta   89.98293308
_cell_angle_gamma   119.87141215
_symmetry_Int_Tables_number   1
_chemical_formula_structural   BaMn2Fe4O11
_chemical_formula_sum   'Ba2 Mn4 Fe8 O22'
_cell_volume   409.51906122
_cell_formula_units_Z   2
loop_
 _symmetry_equiv_pos_site_id
 _symmetry_equiv_pos_as_xyz
  1  'x, y, z'
loop_
 _atom_site_type_symbol
 _atom_site_label
 _atom_site_symmetry_multiplicity
 _atom_site_fract_x
 _atom_site_fract_y
 _atom_site_fract_z
 _atom_site_occupancy
  Ba  Ba0  1  0.33319400  0.66719400  0.25231400  1
  Ba  Ba1  1  0.66719400  0.33319400  0.75231400  1
  Mn  Mn0  1  0.50129800  0.00300400  0.49981300  1
  Mn  Mn1  1  0.50116800  0.49866100  0.49978000  1
  Mn  Mn2  1  0.00300400  0.50129800  0.99981300  1
  Mn  Mn3  1  0.49866100  0.50116800  0.99978000  1
  Fe  Fe0  1  0.00629500  0.00305800  0.35554500  1
  Fe  Fe1  1  0.99398400  0.99727700  0.64476800  1
  Fe  Fe2  1  0.00305800  0.00629500  0.85554500  1
  Fe  Fe3  1  0.99727700  0.99398400  0.14476800  1
  Fe  Fe4  1  0.99788900  0.49916600  0.49991500  1
  Fe  Fe5  1  0.49916600  0.99788900  0.99991500  1
  Fe  Fe6  1  0.33444000  0.66676400  0.73108400  1
  Fe  Fe7  1  0.66676400  0.33444000  0.23108400  1
  O  O0  1  0.64842900  0.82462400  0.42367900  1
  O  O1  1  0.18429400  0.34954200  0.42221200  1
  O  O2  1  0.18458300  0.83536900  0.42217600  1
  O  O3  1  0.35298300  0.17658200  0.57661200  1
  O  O4  1  0.81525800  0.65051400  0.57816700  1
  O  O5  1  0.81502900  0.16548900  0.57853100  1
  O  O6  1  0.34954200  0.18429400  0.92221200  1
  O  O7  1  0.82462400  0.64842900  0.92367900  1
  O  O8  1  0.83536900  0.18458300  0.92217600  1
  O  O9  1  0.65051400  0.81525800  0.07816700  1
  O  O10  1  0.17658200  0.35298300  0.07661200  1
  O  O11  1  0.16548900  0.81502900  0.07853100  1
  O  O12  1  0.32571600  0.65144400  0.92341700  1
  O  O13  1  0.67344200  0.34728300  0.07828700  1
  O  O14  1  0.65144400  0.32571600  0.42341700  1
  O  O15  1  0.34728300  0.67344200  0.57828700  1
  O  O16  1  0.69858300  0.84969000  0.75162800  1
  O  O17  1  0.15068400  0.30111000  0.74582900  1
  O  O18  1  0.15109800  0.84899000  0.74853100  1
  O  O19  1  0.30111000  0.15068400  0.24582900  1
  O  O20  1  0.84969000  0.69858300  0.25162800  1
  O  O21  1  0.84899000  0.15109800  0.24853100  1
loop_
_geom_bond_atom_site_label_1
_geom_bond_atom_site_label_2
_geom_bond_distance
_geom_bond_site_symmetry_2
Ba0 O2 2.821503 1_555
Ba0 O1 2.825480 1_555
Ba0 O0 2.835656 1_555
Ba0 O11 2.861886 1_555
Ba0 O9 2.872159 1_555
Ba0 O10 2.881553 1_555
Ba0 O20 2.943787 1_455
Ba0 O19 2.947218 1_565
Ba0 O19 2.953505 1_555
Ba0 O20 2.953925 1_555
Ba0 O21 2.954212 1_565
Ba0 O21 2.956041 1_455
Ba1 O8 2.821503 1_555
Ba1 O6 2.825480 1_555
Ba1 O7 2.835656 1_555
Ba1 O5 2.861886 1_555
Ba1 O4 2.872159 1_555
Ba1 O3 2.881553 1_555
Ba1 O16 2.943787 1_545
Ba1 O17 2.947218 1_655
Ba1 O17 2.953505 1_555
Ba1 O16 2.953925 1_555
Ba1 O18 2.954212 1_655
Ba1 O18 2.956041 1_545
Mn0 O5 1.928456 1_555
Mn0 O2 1.933575 1_545
Mn0 O3 1.947031 1_555
Mn0 O14 1.949417 1_555
Mn0 O0 1.958540 1_545
Mn0 O15 1.993992 1_545
Mn1 O4 1.927307 1_555
Mn1 O1 1.933524 1_555
Mn1 O14 1.949284 1_555
Mn1 O3 1.950198 1_555
Mn1 O0 1.962369 1_555
Mn1 O15 1.988167 1_555
Mn2 O11 1.928456 1_556
Mn2 O8 1.933575 1_455
Mn2 O10 1.947031 1_556
Mn2 O12 1.949417 1_555
Mn2 O7 1.958540 1_455
Mn2 O13 1.993992 1_456
Mn3 O9 1.927307 1_556
Mn3 O6 1.933524 1_555
Mn3 O12 1.949284 1_555
Mn3 O10 1.950198 1_556
Mn3 O7 1.962369 1_555
Mn3 O13 1.988167 1_556
Fe0 O2 1.983349 1_545
Fe0 O1 1.989345 1_555
Fe0 O0 2.049094 1_445
Fe0 O20 2.103135 1_445
Fe0 O19 2.120498 1_555
Fe0 O21 2.132226 1_455
Fe1 O5 1.986307 1_565
Fe1 O4 1.990261 1_555
Fe1 O3 2.054391 1_665
Fe1 O17 2.074733 1_665
Fe1 O16 2.095440 1_555
Fe1 O18 2.102410 1_655
Fe2 O8 1.983349 1_455
Fe2 O6 1.989345 1_555
Fe2 O7 2.049094 1_445
Fe2 O16 2.103135 1_445
Fe2 O17 2.120498 1_555
Fe2 O18 2.132226 1_545
Fe3 O11 1.986307 1_655
Fe3 O9 1.990261 1_555
Fe3 O10 2.054391 1_665
Fe3 O19 2.074733 1_665
Fe3 O20 2.095440 1_555
Fe3 O21 2.102410 1_565
Fe4 O4 2.010316 1_555
Fe4 O5 2.014266 1_555
Fe4 O1 2.016038 1_655
Fe4 O2 2.019696 1_655
Fe4 O14 2.053540 1_555
Fe4 O15 2.079517 1_655
Fe5 O9 2.010316 1_556
Fe5 O11 2.014266 1_556
Fe5 O6 2.016038 1_565
Fe5 O8 2.019696 1_565
Fe5 O12 2.053540 1_555
Fe5 O13 2.079517 1_566
Fe6 O17 1.877931 1_555
Fe6 O18 1.878275 1_555
Fe6 O16 1.880621 1_555
Fe6 O15 2.081747 1_555
Fe6 O12 2.620271 1_555
Fe7 O19 1.877931 1_555
Fe7 O21 1.878275 1_555
Fe7 O20 1.880621 1_555
Fe7 O13 2.081747 1_555
Fe7 O14 2.620271 1_555
