# generated using pymatgen
data_Sr2YMn2GaO7
_symmetry_space_group_name_H-M   'P 1'
_cell_length_a   11.94283094
_cell_length_b   11.94283094
_cell_length_c   11.94283094
_cell_angle_alpha   152.43093152
_cell_angle_beta   151.75974236
_cell_angle_gamma   39.87680463
_symmetry_Int_Tables_number   1
_chemical_formula_structural   Sr2YMn2GaO7
_chemical_formula_sum   'Sr4 Y2 Mn4 Ga2 O14'
_cell_volume   372.32319256
_cell_formula_units_Z   2
loop_
 _symmetry_equiv_pos_site_id
 _symmetry_equiv_pos_as_xyz
  1  'x, y, z'
loop_
 _atom_site_type_symbol
 _atom_site_label
 _atom_site_symmetry_multiplicity
 _atom_site_fract_x
 _atom_site_fract_y
 _atom_site_fract_z
 _atom_site_occupancy
  Sr  Sr0  1  0.37568000  0.83620200  0.51416100  1
  Sr  Sr1  1  0.62432000  0.13848200  0.46052200  1
  Sr  Sr2  1  0.82204000  0.33620200  0.46052200  1
  Sr  Sr3  1  0.17796000  0.63848200  0.51416100  1
  Y  Y0  1  0.00000000  0.49927900  0.49927900  1
  Y  Y1  1  0.50000000  0.99927900  0.49927900  1
  Mn  Mn0  1  0.58357100  0.57670700  0.99824700  1
  Mn  Mn1  1  0.92154000  0.91467600  0.99824700  1
  Mn  Mn2  1  0.07846000  0.07670700  0.99313600  1
  Mn  Mn3  1  0.41642900  0.41467600  0.99313600  1
  Ga  Ga0  1  0.82675400  0.70842800  0.03518100  1
  Ga  Ga1  1  0.17324600  0.20842800  0.88167400  1
  O  O0  1  0.69355000  0.67879700  0.49690700  1
  O  O1  1  0.88429800  0.37214500  0.75644300  1
  O  O2  1  0.68189000  0.17879700  0.98524700  1
  O  O3  1  0.23440500  0.20241200  0.08206500  1
  O  O4  1  0.81278400  0.81511100  0.49584700  1
  O  O5  1  0.81926400  0.31511100  0.00232700  1
  O  O6  1  0.11570200  0.87214500  0.48784700  1
  O  O7  1  0.31811000  0.30335800  0.49690700  1
  O  O8  1  0.30645000  0.80335800  0.98524700  1
  O  O9  1  0.62034700  0.70241200  0.96800700  1
  O  O10  1  0.76559500  0.84766000  0.96800700  1
  O  O11  1  0.37965300  0.34766000  0.08206500  1
  O  O12  1  0.18721600  0.68306300  0.00232700  1
  O  O13  1  0.18073600  0.18306300  0.49584700  1
loop_
_geom_bond_atom_site_label_1
_geom_bond_atom_site_label_2
_geom_bond_distance
_geom_bond_site_symmetry_2
Mn0 O5 2.053507 1_556
Mn0 O4 2.053774 1_556
Mn0 O7 2.084160 1_555
Mn0 O8 2.096247 1_555
Mn0 O9 2.197709 1_555
Mn1 O12 2.053507 1_656
Mn1 O13 2.053774 1_666
Mn1 O0 2.084162 1_555
Mn1 O2 2.096245 1_565
Mn1 O10 2.197709 1_555
Mn2 O4 2.053507 1_445
Mn2 O5 2.053774 1_456
Mn2 O8 2.084156 1_545
Mn2 O7 2.096243 1_556
Mn2 O3 2.197709 1_556
Mn3 O13 2.053507 1_555
Mn3 O12 2.053774 1_556
Mn3 O2 2.084162 1_555
Mn3 O0 2.096245 1_556
Mn3 O11 2.197709 1_556
Ga0 O10 1.846767 1_554
Ga0 O9 1.846786 1_554
Ga0 O6 1.924338 1_655
Ga0 O1 1.943026 1_554
Ga1 O11 1.846777 1_556
Ga1 O3 1.846777 1_556
Ga1 O1 1.924334 1_455
Ga1 O6 1.943028 1_545
O0 Y0 2.423571 1_655
O0 Y1 2.517403 1_555
O0 Sr2 2.769557 1_555
O0 Sr0 2.779594 1_555
O1 Sr1 2.529332 1_555
O1 Sr2 2.529332 1_555
O2 Y1 2.423571 1_545
O2 Y0 2.517403 1_656
O2 Sr0 2.769552 1_545
O2 Sr2 2.779602 1_556
O3 Sr1 2.504665 1_555
O3 Sr3 2.701986 1_555
O3 Sr3 3.121316 1_544
O4 Y1 2.508551 1_555
O4 Y0 2.529154 1_655
O4 Sr1 2.834196 1_565
O4 Sr3 2.921464 1_655
O5 Y0 2.508551 1_655
O5 Y1 2.529154 1_544
O5 Sr3 2.834200 1_655
O5 Sr1 2.921456 1_554
O6 Sr3 2.529322 1_555
O6 Sr0 2.529342 1_555
O7 Y1 2.423581 1_545
O7 Y0 2.517406 1_555
O7 Sr1 2.769552 1_555
O7 Sr3 2.779599 1_555
O8 Y0 2.423577 1_555
O8 Y1 2.517409 1_556
O8 Sr3 2.769560 1_555
O8 Sr1 2.779594 1_566
O9 Sr3 2.504666 1_555
O9 Sr1 2.701991 1_566
O9 Sr1 3.121316 1_555
O10 Sr0 2.504671 1_555
O10 Sr2 2.701991 1_566
O10 Sr2 3.121316 1_555
O11 Sr2 2.504665 1_555
O11 Sr0 2.701990 1_555
O11 Sr0 3.121321 1_544
O12 Y1 2.508551 1_555
O12 Y0 2.529154 1_554
O12 Sr0 2.834185 1_555
O12 Sr2 2.921456 1_454
O13 Y0 2.508551 1_555
O13 Y1 2.529154 1_545
O13 Sr2 2.834196 1_455
O13 Sr0 2.921449 1_545
