# generated using pymatgen
data_CaCrO2
_symmetry_space_group_name_H-M   'P 1'
_cell_length_a   9.25420244
_cell_length_b   9.25420244
_cell_length_c   9.52434014
_cell_angle_alpha   66.32206289
_cell_angle_beta   66.32206289
_cell_angle_gamma   19.27550926
_symmetry_Int_Tables_number   1
_chemical_formula_structural   CaCrO2
_chemical_formula_sum   'Ca4 Cr4 O8'
_cell_volume   245.90886702
_cell_formula_units_Z   4
loop_
 _symmetry_equiv_pos_site_id
 _symmetry_equiv_pos_as_xyz
  1  'x, y, z'
loop_
 _atom_site_type_symbol
 _atom_site_label
 _atom_site_symmetry_multiplicity
 _atom_site_fract_x
 _atom_site_fract_y
 _atom_site_fract_z
 _atom_site_occupancy
  Ca  Ca0  1  0.67232300  0.67232300  0.29223000  1
  Ca  Ca1  1  0.32767700  0.32767700  0.70777000  1
  Ca  Ca2  1  0.98590700  0.98590700  0.30065200  1
  Ca  Ca3  1  0.01409300  0.01409300  0.69934800  1
  Cr  Cr0  1  0.35389200  0.35389200  0.00320500  1
  Cr  Cr1  1  0.81168000  0.81168000  0.36216100  1
  Cr  Cr2  1  0.18832000  0.18832000  0.63783900  1
  Cr  Cr3  1  0.64610800  0.64610800  0.99679500  1
  O  O0  1  0.18419400  0.18419400  0.84989200  1
  O  O1  1  0.60961300  0.60961300  0.66247900  1
  O  O2  1  0.39038700  0.39038700  0.33752100  1
  O  O3  1  0.81580600  0.81580600  0.15010800  1
  O  O4  1  0.87629200  0.87629200  0.83660500  1
  O  O5  1  0.22841100  0.22841100  0.40463500  1
  O  O6  1  0.12370800  0.12370800  0.16339500  1
  O  O7  1  0.77158900  0.77158900  0.59536500  1
loop_
_geom_bond_atom_site_label_1
_geom_bond_atom_site_label_2
_geom_bond_distance
_geom_bond_site_symmetry_2
Ca0 O5 2.342358 1_655
Ca0 O5 2.342358 1_565
Ca0 O6 2.362165 1_565
Ca0 O6 2.362165 1_655
Ca0 O3 2.408276 1_555
Ca1 O7 2.342358 1_545
Ca1 O7 2.342358 1_455
Ca1 O4 2.362165 1_455
Ca1 O4 2.362165 1_545
Ca1 O0 2.408276 1_555
Ca2 O2 2.250118 1_565
Ca2 O2 2.250118 1_655
Ca2 O6 2.313785 1_665
Ca3 O1 2.250118 1_455
Ca3 O1 2.250118 1_545
Ca3 O4 2.313785 1_445
Cr0 O3 2.012173 1_455
Cr0 O3 2.012173 1_545
Cr0 O4 2.134686 1_454
Cr0 O4 2.134686 1_544
Cr1 O3 1.990185 1_555
Cr1 O7 2.035869 1_555
Cr1 O2 2.059978 1_565
Cr1 O2 2.059978 1_655
Cr1 O5 2.090920 1_565
Cr1 O5 2.090920 1_655
Cr2 O0 1.990185 1_555
Cr2 O5 2.035869 1_555
Cr2 O1 2.059978 1_545
Cr2 O1 2.059978 1_455
Cr2 O7 2.090920 1_455
Cr2 O7 2.090920 1_545
Cr3 O0 2.012173 1_565
Cr3 O0 2.012173 1_655
Cr3 O6 2.134686 1_566
Cr3 O6 2.134686 1_656
