# generated using pymatgen
data_Te4MoW3Se4
_symmetry_space_group_name_H-M   'P 1'
_cell_length_a   3.44007136
_cell_length_b   3.44007136
_cell_length_c   39.16015400
_cell_angle_alpha   90.00000000
_cell_angle_beta   90.00000000
_cell_angle_gamma   119.99998763
_symmetry_Int_Tables_number   1
_chemical_formula_structural   Te4MoW3Se4
_chemical_formula_sum   'Te4 Mo1 W3 Se4'
_cell_volume   401.33772004
_cell_formula_units_Z   1
loop_
 _symmetry_equiv_pos_site_id
 _symmetry_equiv_pos_as_xyz
  1  'x, y, z'
loop_
 _atom_site_type_symbol
 _atom_site_label
 _atom_site_symmetry_multiplicity
 _atom_site_fract_x
 _atom_site_fract_y
 _atom_site_fract_z
 _atom_site_occupancy
  Te  Te0  1  0.33333300  0.66666700  0.70515500  1
  Te  Te1  1  0.66666700  0.33333300  0.04630800  1
  Te  Te2  1  0.66666700  0.33333300  0.14156100  1
  Te  Te3  1  0.33333300  0.66666700  0.60991000  1
  Mo  Mo0  1  0.66666700  0.33333300  0.28180100  1
  W  W0  1  0.33333300  0.66666700  0.09391700  1
  W  W1  1  0.33333300  0.66666700  0.46963400  1
  W  W2  1  0.66666700  0.33333300  0.65753700  1
  Se  Se0  1  0.33333300  0.66666700  0.32359700  1
  Se  Se1  1  0.66666700  0.33333300  0.42775000  1
  Se  Se2  1  0.66666700  0.33333300  0.51154600  1
  Se  Se3  1  0.33333300  0.66666700  0.24003100  1
loop_
_geom_bond_atom_site_label_1
_geom_bond_atom_site_label_2
_geom_bond_distance
_geom_bond_site_symmetry_2
Te0 W2 2.724317 1_455
Te0 W2 2.724317 1_565
Te0 W2 2.724321 1_555
Te1 W0 2.724075 1_545
Te1 W0 2.724075 1_655
Te1 W0 2.724080 1_555
Te2 W0 2.725014 1_655
Te2 W0 2.725014 1_545
Te2 W0 2.725018 1_555
Te3 W2 2.724558 1_455
Te3 W2 2.724558 1_565
Te3 W2 2.724562 1_555
Mo0 Se3 2.572988 1_545
Mo0 Se3 2.572988 1_655
Mo0 Se3 2.572993 1_555
Mo0 Se0 2.573636 1_545
Mo0 Se0 2.573636 1_655
Mo0 Se0 2.573640 1_555
Se1 W1 2.575829 1_545
Se1 W1 2.575829 1_655
Se1 W1 2.575833 1_555
Se2 W1 2.576527 1_545
Se2 W1 2.576527 1_655
Se2 W1 2.576531 1_555
