# generated using pymatgen
data_Li9Mn2Co5O16
_symmetry_space_group_name_H-M   'P 1'
_cell_length_a   2.89348600
_cell_length_b   5.18478600
_cell_length_c   19.38086172
_cell_angle_alpha   83.56230123
_cell_angle_beta   90.00000000
_cell_angle_gamma   90.00000000
_symmetry_Int_Tables_number   1
_chemical_formula_structural   Li9Mn2Co5O16
_chemical_formula_sum   'Li9 Mn2 Co5 O16'
_cell_volume   288.92034802
_cell_formula_units_Z   1
loop_
 _symmetry_equiv_pos_site_id
 _symmetry_equiv_pos_as_xyz
  1  'x, y, z'
loop_
 _atom_site_type_symbol
 _atom_site_label
 _atom_site_symmetry_multiplicity
 _atom_site_fract_x
 _atom_site_fract_y
 _atom_site_fract_z
 _atom_site_occupancy
  Li  Li0  1  0.50000000  0.12572300  0.12814400  1
  Li  Li1  1  0.50000000  0.37708600  0.37778800  1
  Li  Li2  1  0.50000000  0.62291400  0.62221200  1
  Li  Li3  1  0.50000000  0.87427700  0.87185600  1
  Li  Li4  1  0.00000000  0.62672100  0.12765100  1
  Li  Li5  1  0.00000000  0.87707000  0.37944700  1
  Li  Li6  1  0.00000000  0.12293000  0.62055300  1
  Li  Li7  1  0.00000000  0.37327900  0.87234900  1
  Li  Li8  1  0.00000000  0.50000000  0.50000000  1
  Mn  Mn0  1  0.00000000  0.00000000  0.00000000  1
  Mn  Mn1  1  0.50000000  0.50000000  0.00000000  1
  Co  Co0  1  0.00000000  0.25087100  0.25076600  1
  Co  Co1  1  0.00000000  0.74912900  0.74923400  1
  Co  Co2  1  0.50000000  0.75071700  0.25138800  1
  Co  Co3  1  0.50000000  0.00000000  0.50000000  1
  Co  Co4  1  0.50000000  0.24928300  0.74861200  1
  O  O0  1  0.50000000  0.84255300  0.05884900  1
  O  O1  1  0.50000000  0.06541700  0.30843600  1
  O  O2  1  0.50000000  0.26449700  0.55285000  1
  O  O3  1  0.50000000  0.56235700  0.80810100  1
  O  O4  1  0.00000000  0.34126600  0.05861500  1
  O  O5  1  0.00000000  0.56628600  0.30935900  1
  O  O6  1  0.00000000  0.83223700  0.55507900  1
  O  O7  1  0.00000000  0.06749700  0.80666300  1
  O  O8  1  0.50000000  0.43764300  0.19189900  1
  O  O9  1  0.50000000  0.73550300  0.44715000  1
  O  O10  1  0.50000000  0.93458300  0.69156400  1
  O  O11  1  0.50000000  0.15744700  0.94115100  1
  O  O12  1  0.00000000  0.93250300  0.19333700  1
  O  O13  1  0.00000000  0.16776300  0.44492100  1
  O  O14  1  0.00000000  0.43371400  0.69064100  1
  O  O15  1  0.00000000  0.65873400  0.94138500  1
loop_
_geom_bond_atom_site_label_1
_geom_bond_atom_site_label_2
_geom_bond_distance
_geom_bond_site_symmetry_2
Li0 O0 2.097937 1_545
Li0 O12 2.099823 1_545
Li0 O12 2.099823 1_645
Li0 O8 2.142509 1_555
Li0 O4 2.195476 1_555
Li0 O4 2.195476 1_655
Li1 O5 2.126607 1_555
Li1 O5 2.126607 1_655
Li1 O13 2.155720 1_655
Li1 O13 2.155720 1_555
Li1 O1 2.214705 1_555
Li1 O9 2.412604 1_555
Li2 O14 2.126607 1_555
Li2 O14 2.126607 1_655
Li2 O6 2.155720 1_555
Li2 O6 2.155720 1_655
Li2 O10 2.214705 1_555
Li2 O2 2.412604 1_555
Li3 O11 2.097937 1_565
Li3 O7 2.099823 1_565
Li3 O7 2.099823 1_665
Li3 O3 2.142509 1_555
Li3 O15 2.195476 1_555
Li3 O15 2.195476 1_655
Li4 O8 2.081070 1_555
Li4 O8 2.081070 1_455
Li4 O4 2.103500 1_555
Li4 O12 2.141681 1_555
Li4 O0 2.188327 1_555
Li4 O0 2.188327 1_455
Li5 O9 2.034099 1_555
Li5 O9 2.034099 1_455
Li5 O13 2.076219 1_565
Li5 O1 2.153925 1_565
Li5 O1 2.153925 1_465
Li5 O5 2.220908 1_555
Li6 O2 2.034099 1_555
Li6 O2 2.034099 1_455
Li6 O6 2.076219 1_545
Li6 O10 2.153925 1_445
Li6 O10 2.153925 1_545
Li6 O14 2.220908 1_555
Li7 O3 2.081070 1_455
Li7 O3 2.081070 1_555
Li7 O15 2.103500 1_555
Li7 O7 2.141681 1_555
Li7 O11 2.188327 1_455
Li7 O11 2.188327 1_555
Li8 O9 2.086306 1_555
Li8 O9 2.086306 1_455
Li8 O2 2.086306 1_555
Li8 O2 2.086306 1_455
Li8 O6 2.125825 1_555
Li8 O13 2.125825 1_555
Mn0 O0 1.962527 1_445
Mn0 O0 1.962527 1_545
Mn0 O11 1.962527 1_454
Mn0 O11 1.962527 1_554
Mn0 O4 2.207262 1_555
Mn0 O15 2.207262 1_544
Mn1 O4 1.962462 1_555
Mn1 O4 1.962462 1_655
Mn1 O15 1.962462 1_554
Mn1 O15 1.962462 1_654
Mn1 O0 2.215738 1_555
Mn1 O11 2.215738 1_554
Co0 O1 2.006456 1_555
Co0 O1 2.006456 1_455
Co0 O8 2.021064 1_455
Co0 O8 2.021064 1_555
Co0 O12 2.091775 1_545
Co0 O5 2.092939 1_555
Co1 O10 2.006456 1_555
Co1 O10 2.006456 1_455
Co1 O3 2.021064 1_455
Co1 O3 2.021064 1_555
Co1 O7 2.091775 1_565
Co1 O14 2.092939 1_555
Co2 O12 2.002354 1_555
Co2 O12 2.002354 1_655
Co2 O5 2.007199 1_555
Co2 O5 2.007199 1_655
Co2 O1 2.071055 1_565
Co2 O8 2.093755 1_555
Co3 O9 1.801323 1_545
Co3 O2 1.801323 1_555
Co3 O6 1.944464 1_545
Co3 O6 1.944464 1_645
Co3 O13 1.944464 1_655
Co3 O13 1.944464 1_555
Co4 O7 2.002354 1_655
Co4 O7 2.002354 1_555
Co4 O14 2.007199 1_655
Co4 O14 2.007199 1_555
Co4 O10 2.071055 1_545
Co4 O3 2.093755 1_555
