# generated using pymatgen
data_RbBaN3
_symmetry_space_group_name_H-M   'P 1'
_cell_length_a   15.27436697
_cell_length_b   14.93698282
_cell_length_c   6.80973114
_cell_angle_alpha   79.75575325
_cell_angle_beta   74.22198970
_cell_angle_gamma   26.02225705
_symmetry_Int_Tables_number   1
_chemical_formula_structural   RbBaN3
_chemical_formula_sum   'Rb4 Ba4 N12'
_cell_volume   647.75210924
_cell_formula_units_Z   4
loop_
 _symmetry_equiv_pos_site_id
 _symmetry_equiv_pos_as_xyz
  1  'x, y, z'
loop_
 _atom_site_type_symbol
 _atom_site_label
 _atom_site_symmetry_multiplicity
 _atom_site_fract_x
 _atom_site_fract_y
 _atom_site_fract_z
 _atom_site_occupancy
  Rb  Rb0  1  0.67595400  0.67595400  0.82404600  1
  Rb  Rb1  1  0.42595400  0.42595400  0.57404600  1
  Rb  Rb2  1  0.82404600  0.82404600  0.67595400  1
  Rb  Rb3  1  0.57404600  0.57404600  0.42595400  1
  Ba  Ba0  1  0.17715200  0.17715200  0.32284800  1
  Ba  Ba1  1  0.92715200  0.92715200  0.07284800  1
  Ba  Ba2  1  0.32284800  0.32284800  0.17715200  1
  Ba  Ba3  1  0.07284800  0.07284800  0.92715200  1
  N  N0  1  0.09874400  0.62173600  0.93883300  1
  N  N1  1  0.62173600  0.09874400  0.34068700  1
  N  N2  1  0.78079900  0.21920100  0.21920100  1
  N  N3  1  0.21920100  0.78079900  0.78079900  1
  N  N4  1  0.03079900  0.46920100  0.46920100  1
  N  N5  1  0.46920100  0.03079900  0.03079900  1
  N  N6  1  0.31116700  0.90931300  0.15125600  1
  N  N7  1  0.90931300  0.31116700  0.62826400  1
  N  N8  1  0.93883300  0.34068700  0.09874400  1
  N  N9  1  0.34068700  0.93883300  0.62173600  1
  N  N10  1  0.15125600  0.62826400  0.31116700  1
  N  N11  1  0.62826400  0.15125600  0.90931300  1
loop_
_geom_bond_atom_site_label_1
_geom_bond_atom_site_label_2
_geom_bond_distance
_geom_bond_site_symmetry_2
Ba0 N7 2.684178 1_455
Ba0 N6 2.684178 1_545
Ba0 N8 2.694588 1_455
Ba0 N9 2.694588 1_545
Ba0 N4 2.798017 1_555
Ba0 N5 2.798017 1_555
Ba1 N1 2.684178 1_565
Ba1 N0 2.684178 1_654
Ba1 N11 2.694588 1_564
Ba1 N10 2.694588 1_655
Ba1 N3 2.798017 1_654
Ba1 N2 2.798017 1_565
Ba2 N11 2.684178 1_554
Ba2 N10 2.684178 1_555
Ba2 N1 2.694588 1_555
Ba2 N0 2.694588 1_554
Ba2 N4 2.798017 1_555
Ba2 N5 2.798017 1_555
Ba3 N8 2.684178 1_456
Ba3 N9 2.684178 1_545
Ba3 N7 2.694588 1_455
Ba3 N6 2.694588 1_546
Ba3 N3 2.798017 1_545
Ba3 N2 2.798017 1_456
N0 Rb1 3.043989 1_555
N0 Rb2 3.051895 1_455
N1 Rb1 3.043989 1_555
N1 Rb2 3.051895 1_545
N2 Rb3 3.194027 1_555
N2 Rb1 3.194027 1_555
N3 Rb3 3.194027 1_555
N3 Rb1 3.194027 1_555
N4 Rb2 3.194027 1_455
N4 Rb0 3.194027 1_455
N5 Rb2 3.194027 1_544
N5 Rb0 3.194027 1_544
N6 Rb0 3.043989 1_554
N6 Rb3 3.051895 1_555
N7 Rb0 3.043989 1_555
N7 Rb3 3.051895 1_555
N8 Rb3 3.043989 1_555
N8 Rb0 3.051895 1_554
N9 Rb3 3.043989 1_555
N9 Rb0 3.051895 1_555
N10 Rb2 3.043989 1_455
N10 Rb1 3.051895 1_555
N11 Rb2 3.043989 1_545
N11 Rb1 3.051895 1_555
