# generated using pymatgen
data_Sm5Co19
_symmetry_space_group_name_H-M   'P 1'
_cell_length_a   4.97362696
_cell_length_b   4.97362700
_cell_length_c   16.36485844
_cell_angle_alpha   81.25943564
_cell_angle_beta   81.25943727
_cell_angle_gamma   59.99999311
_symmetry_Int_Tables_number   1
_chemical_formula_structural   Sm5Co19
_chemical_formula_sum   'Sm5 Co19'
_cell_volume   345.14243666
_cell_formula_units_Z   1
loop_
 _symmetry_equiv_pos_site_id
 _symmetry_equiv_pos_as_xyz
  1  'x, y, z'
loop_
 _atom_site_type_symbol
 _atom_site_label
 _atom_site_symmetry_multiplicity
 _atom_site_fract_x
 _atom_site_fract_y
 _atom_site_fract_z
 _atom_site_occupancy
  Sm  Sm0  1  0.00000000  0.00000000  0.00000000  1
  Sm  Sm1  1  0.92056100  0.92056100  0.23831700  1
  Sm  Sm2  1  0.07943900  0.07943900  0.76168300  1
  Sm  Sm3  1  0.84723000  0.84723000  0.45831000  1
  Sm  Sm4  1  0.15277000  0.15277000  0.54169000  1
  Co  Co0  1  0.50000000  0.50000000  0.50000000  1
  Co  Co1  1  0.74885900  0.74885900  0.75342400  1
  Co  Co2  1  0.25114100  0.25114100  0.24657600  1
  Co  Co3  1  0.66663700  0.66663700  0.00009000  1
  Co  Co4  1  0.33336300  0.33336300  0.99991000  1
  Co  Co5  1  0.58442200  0.58442200  0.24673400  1
  Co  Co6  1  0.41557800  0.41557800  0.75326600  1
  Co  Co7  1  0.37850900  0.37850900  0.36739000  1
  Co  Co8  1  0.87559300  0.37850900  0.36739000  1
  Co  Co9  1  0.37850900  0.87559300  0.36739000  1
  Co  Co10  1  0.62149100  0.62149100  0.63261000  1
  Co  Co11  1  0.12440700  0.62149100  0.63261000  1
  Co  Co12  1  0.62149100  0.12440700  0.63261000  1
  Co  Co13  1  0.45960600  0.45960600  0.12248200  1
  Co  Co14  1  0.95830700  0.45960600  0.12248200  1
  Co  Co15  1  0.45960600  0.95830700  0.12248200  1
  Co  Co16  1  0.54039400  0.54039400  0.87751800  1
  Co  Co17  1  0.04169300  0.54039400  0.87751800  1
  Co  Co18  1  0.54039400  0.04169300  0.87751800  1
loop_
_geom_bond_atom_site_label_1
_geom_bond_atom_site_label_2
_geom_bond_distance
_geom_bond_site_symmetry_2
Co0 Co10 2.569427 1_555
Co0 Co7 2.569427 1_555
Co0 Co9 2.569429 1_555
Co0 Co12 2.569429 1_555
Co0 Co11 2.569429 1_555
Co0 Co8 2.569429 1_555
Co0 Sm3 2.949032 1_455
Co0 Sm4 2.949032 1_655
Co0 Sm3 2.949032 1_545
Co0 Sm4 2.949032 1_565
Co0 Sm3 2.949032 1_555
Co0 Sm4 2.949032 1_555
Co1 Co12 2.423655 1_565
Co1 Co11 2.423656 1_655
Co1 Co10 2.423661 1_555
Co1 Co17 2.463579 1_655
Co1 Co18 2.463579 1_565
Co1 Co16 2.463584 1_555
Co1 Sm2 2.874603 1_665
Co1 Sm2 2.874607 1_565
Co1 Sm2 2.874607 1_655
Co2 Co9 2.423655 1_545
Co2 Co8 2.423656 1_455
Co2 Co7 2.423661 1_555
Co2 Sm1 2.874603 1_445
Co2 Sm1 2.874607 1_545
Co2 Sm1 2.874607 1_455
Co3 Sm0 2.871522 1_665
Co3 Sm0 2.871526 1_565
Co3 Sm0 2.871526 1_655
Co4 Sm0 2.871522 1_556
Co4 Sm0 2.871526 1_656
Co4 Sm0 2.871526 1_566
Co5 Co7 2.411662 1_555
Co5 Co8 2.411665 1_555
Co5 Co9 2.411665 1_555
Co5 Sm1 2.874725 1_455
Co5 Sm1 2.874725 1_545
Co5 Sm1 2.874725 1_555
Co6 Sm2 2.874725 1_655
Co6 Sm2 2.874725 1_565
Co6 Sm2 2.874725 1_555
Co7 Co8 2.472310 1_555
Co7 Co9 2.472310 1_555
Co7 Co8 2.501317 1_455
Co7 Co9 2.501317 1_545
Co7 Sm3 2.886169 1_545
Co7 Sm3 2.886169 1_455
Co7 Sm4 3.157718 1_555
Co7 Sm1 3.241695 1_455
Co7 Sm1 3.241695 1_545
Co8 Co9 2.472310 1_555
Co8 Co9 2.501316 1_645
Co8 Sm3 2.886167 1_555
Co8 Sm3 2.886172 1_545
Co8 Sm4 3.157716 1_655
Co8 Sm1 3.241693 1_555
Co8 Sm1 3.241697 1_545
Co9 Sm3 2.886167 1_555
Co9 Sm3 2.886172 1_455
Co9 Sm4 3.157716 1_565
Co9 Sm1 3.241693 1_555
Co9 Sm1 3.241697 1_455
Co10 Co6 2.411662 1_555
Co10 Co11 2.472310 1_555
Co10 Co12 2.472310 1_555
Co10 Co11 2.501317 1_655
Co10 Co12 2.501317 1_565
Co10 Sm4 2.886169 1_565
Co10 Sm4 2.886169 1_655
Co10 Sm3 3.157718 1_555
Co10 Sm2 3.241695 1_655
Co10 Sm2 3.241695 1_565
Co11 Co6 2.411665 1_555
Co11 Co12 2.472310 1_555
Co11 Co12 2.501316 1_465
Co11 Sm4 2.886167 1_555
Co11 Sm4 2.886172 1_565
Co11 Sm3 3.157716 1_455
Co11 Sm2 3.241693 1_555
Co11 Sm2 3.241697 1_565
Co12 Co6 2.411665 1_555
Co12 Sm4 2.886167 1_555
Co12 Sm4 2.886172 1_655
Co12 Sm3 3.157716 1_545
Co12 Sm2 3.241693 1_555
Co12 Sm2 3.241697 1_655
Co13 Co3 2.436990 1_555
Co13 Co4 2.443727 1_554
Co13 Co5 2.461298 1_555
Co13 Co2 2.463584 1_555
Co13 Co14 2.480353 1_555
Co13 Co15 2.480353 1_555
Co13 Co14 2.493274 1_455
Co13 Co15 2.493274 1_545
Co13 Sm1 3.109181 1_545
Co13 Sm1 3.109181 1_455
Co13 Sm0 3.174614 1_565
Co13 Sm0 3.174614 1_655
Co14 Co3 2.436989 1_555
Co14 Co4 2.443722 1_654
Co14 Co5 2.461300 1_555
Co14 Co2 2.463579 1_655
Co14 Co15 2.480352 1_555
Co14 Co15 2.493274 1_645
Co14 Sm1 3.109179 1_555
Co14 Sm1 3.109183 1_545
Co14 Sm0 3.174612 1_665
Co14 Sm0 3.174616 1_655
Co15 Co3 2.436989 1_555
Co15 Co4 2.443722 1_564
Co15 Co5 2.461300 1_555
Co15 Co2 2.463579 1_565
Co15 Sm1 3.109179 1_555
Co15 Sm1 3.109183 1_455
Co15 Sm0 3.174613 1_665
Co15 Sm0 3.174616 1_565
Co16 Co4 2.436990 1_555
Co16 Co3 2.443727 1_556
Co16 Co6 2.461298 1_555
Co16 Co17 2.480353 1_555
Co16 Co18 2.480353 1_555
Co16 Co17 2.493274 1_655
Co16 Co18 2.493274 1_565
Co16 Sm2 3.109181 1_565
Co16 Sm2 3.109181 1_655
Co16 Sm0 3.174614 1_656
Co16 Sm0 3.174614 1_566
Co17 Co4 2.436989 1_555
Co17 Co3 2.443722 1_456
Co17 Co6 2.461300 1_555
Co17 Co18 2.480352 1_555
Co17 Co18 2.493274 1_465
Co17 Sm2 3.109179 1_555
Co17 Sm2 3.109183 1_565
Co17 Sm0 3.174612 1_556
Co17 Sm0 3.174616 1_566
Co18 Co4 2.436989 1_555
Co18 Co3 2.443722 1_546
Co18 Co6 2.461300 1_555
Co18 Sm2 3.109179 1_555
Co18 Sm2 3.109183 1_655
Co18 Sm0 3.174613 1_556
Co18 Sm0 3.174616 1_656
