# generated using pymatgen
data_Nd15Ge9C
_symmetry_space_group_name_H-M   'P 1'
_cell_length_a   6.78437618
_cell_length_b   15.34700000
_cell_length_c   15.34700000
_cell_angle_alpha   120.00037650
_cell_angle_beta   90.00000000
_cell_angle_gamma   90.00000000
_symmetry_Int_Tables_number   1
_chemical_formula_structural   Nd15Ge9C
_chemical_formula_sum   'Nd30 Ge18 C2'
_cell_volume   1383.84003491
_cell_formula_units_Z   2
loop_
 _symmetry_equiv_pos_site_id
 _symmetry_equiv_pos_as_xyz
  1  'x, y, z'
loop_
 _atom_site_type_symbol
 _atom_site_label
 _atom_site_symmetry_multiplicity
 _atom_site_fract_x
 _atom_site_fract_y
 _atom_site_fract_z
 _atom_site_occupancy
  Nd  Nd0  1  0.49971462  0.01736825  0.34223819  1
  Nd  Nd1  1  0.49971760  0.32486976  0.98263004  1
  Nd  Nd2  1  0.49971512  0.65775858  0.67513407  1
  Nd  Nd3  1  0.49971512  0.32486593  0.34224142  1
  Nd  Nd4  1  0.49971462  0.65776181  0.98263175  1
  Nd  Nd5  1  0.49971760  0.01736996  0.67513024  1
  Nd  Nd6  1  0.99971462  0.98263175  0.65776181  1
  Nd  Nd7  1  0.99971760  0.67513024  0.01736996  1
  Nd  Nd8  1  0.99971512  0.34224142  0.32486593  1
  Nd  Nd9  1  0.99971512  0.67513407  0.65775858  1
  Nd  Nd10  1  0.99971462  0.34223819  0.01736825  1
  Nd  Nd11  1  0.99971760  0.98263004  0.32486976  1
  Nd  Nd12  1  0.77084067  0.41255490  0.82511400  1
  Nd  Nd13  1  0.77084644  0.41255467  0.58744533  1
  Nd  Nd14  1  0.77084067  0.17488600  0.58744510  1
  Nd  Nd15  1  0.27084067  0.58744510  0.17488600  1
  Nd  Nd16  1  0.27084644  0.58744533  0.41255467  1
  Nd  Nd17  1  0.27084067  0.82511400  0.41255490  1
  Nd  Nd18  1  0.21121053  0.25466245  0.50932575  1
  Nd  Nd19  1  0.21121392  0.25465874  0.74534126  1
  Nd  Nd20  1  0.21121053  0.49067425  0.74533755  1
  Nd  Nd21  1  0.71121053  0.74533755  0.49067425  1
  Nd  Nd22  1  0.71121392  0.74534126  0.25465874  1
  Nd  Nd23  1  0.71121053  0.50932575  0.25466245  1
  Nd  Nd24  1  0.76741471  0.08083865  0.16168176  1
  Nd  Nd25  1  0.76742201  0.08084149  0.91915851  1
  Nd  Nd26  1  0.76741471  0.83831824  0.91916135  1
  Nd  Nd27  1  0.26741471  0.91916135  0.83831824  1
  Nd  Nd28  1  0.26742201  0.91915851  0.08084149  1
  Nd  Nd29  1  0.26741471  0.16168176  0.08083865  1
  Ge  Ge0  1  0.22278934  0.13267807  0.26537452  1
  Ge  Ge1  1  0.22278111  0.13268879  0.86731121  1
  Ge  Ge2  1  0.22278934  0.73462548  0.86732193  1
  Ge  Ge3  1  0.72278934  0.86732193  0.73462548  1
  Ge  Ge4  1  0.72278111  0.86731121  0.13268879  1
  Ge  Ge5  1  0.72278934  0.26537452  0.13267807  1
  Ge  Ge6  1  0.23494157  0.46721822  0.93444103  1
  Ge  Ge7  1  0.23494049  0.46721714  0.53278286  1
  Ge  Ge8  1  0.23494157  0.06555897  0.53278178  1
  Ge  Ge9  1  0.73494157  0.53278178  0.06555897  1
  Ge  Ge10  1  0.73494049  0.53278286  0.46721714  1
  Ge  Ge11  1  0.73494157  0.93444103  0.46721822  1
  Ge  Ge12  1  0.78607100  0.19818287  0.39638382  1
  Ge  Ge13  1  0.78607079  0.19818819  0.80181181  1
  Ge  Ge14  1  0.78607100  0.60361618  0.80181713  1
  Ge  Ge15  1  0.28607100  0.80181713  0.60361618  1
  Ge  Ge16  1  0.28607079  0.80181181  0.19818819  1
  Ge  Ge17  1  0.28607100  0.39638382  0.19818287  1
  C  C0  1  0.99039491  0.33334224  0.66665776  1
  C  C1  1  0.49039491  0.66665776  0.33334224  1
loop_
_geom_bond_atom_site_label_1
_geom_bond_atom_site_label_2
_geom_bond_distance
_geom_bond_site_symmetry_2
Ge0 Nd28 3.093495 1_545
Ge0 Nd29 3.093711 1_555
Ge0 Nd0 3.184421 1_555
Ge0 Nd3 3.184572 1_555
Ge0 Nd18 3.243269 1_555
Ge0 Nd11 3.244928 1_445
Ge0 Nd8 3.245202 1_455
Ge0 Nd24 3.382888 1_455
Ge1 Nd29 3.093592 1_556
Ge1 Nd27 3.093592 1_545
Ge1 Nd1 3.184540 1_555
Ge1 Nd5 3.184540 1_555
Ge1 Nd19 3.243135 1_555
Ge1 Nd6 3.244984 1_445
Ge1 Nd10 3.244984 1_456
Ge1 Nd25 3.382805 1_455
Ge2 Nd28 3.093495 1_556
Ge2 Nd27 3.093711 1_555
Ge2 Nd4 3.184421 1_555
Ge2 Nd2 3.184572 1_555
Ge2 Nd20 3.243269 1_555
Ge2 Nd7 3.244928 1_456
Ge2 Nd9 3.245202 1_455
Ge2 Nd26 3.382888 1_455
Ge3 Nd25 3.093495 1_565
Ge3 Nd26 3.093711 1_555
Ge3 Nd6 3.184421 1_555
Ge3 Nd9 3.184572 1_555
Ge3 Nd21 3.243269 1_555
Ge3 Nd5 3.244928 1_565
Ge3 Nd2 3.245202 1_555
Ge3 Nd27 3.382888 1_555
Ge4 Nd26 3.093592 1_554
Ge4 Nd24 3.093592 1_565
Ge4 Nd7 3.184540 1_555
Ge4 Nd11 3.184540 1_555
Ge4 Nd22 3.243135 1_555
Ge4 Nd4 3.244984 1_554
Ge4 Nd0 3.244984 1_565
Ge4 Nd28 3.382805 1_555
Ge5 Nd25 3.093495 1_554
Ge5 Nd24 3.093711 1_555
Ge5 Nd10 3.184421 1_555
Ge5 Nd8 3.184572 1_555
Ge5 Nd23 3.243269 1_555
Ge5 Nd1 3.244928 1_554
Ge5 Nd3 3.245202 1_555
Ge5 Nd29 3.382888 1_555
Ge6 Nd19 3.102026 1_555
Ge6 Nd20 3.102070 1_555
Ge6 Nd1 3.187793 1_555
Ge6 Nd4 3.187844 1_555
Ge6 Nd15 3.204983 1_556
Ge6 Nd10 3.207278 1_456
Ge6 Nd7 3.207312 1_456
Ge6 Nd12 3.467745 1_455
Ge7 Nd20 3.101985 1_555
Ge7 Nd18 3.101985 1_555
Ge7 Nd3 3.187818 1_555
Ge7 Nd2 3.187818 1_555
Ge7 Nd16 3.205156 1_555
Ge7 Nd8 3.207354 1_455
Ge7 Nd9 3.207354 1_455
Ge7 Nd13 3.467694 1_455
Ge8 Nd19 3.102026 1_555
Ge8 Nd18 3.102070 1_555
Ge8 Nd5 3.187793 1_555
Ge8 Nd0 3.187844 1_555
Ge8 Nd17 3.204983 1_545
Ge8 Nd6 3.207278 1_445
Ge8 Nd11 3.207312 1_445
Ge8 Nd14 3.467745 1_455
Ge9 Nd22 3.102026 1_555
Ge9 Nd23 3.102070 1_555
Ge9 Nd7 3.187793 1_555
Ge9 Nd10 3.187844 1_555
Ge9 Nd12 3.204983 1_554
Ge9 Nd4 3.207278 1_554
Ge9 Nd1 3.207312 1_554
Ge9 Nd15 3.467745 1_555
Ge10 Nd21 3.101985 1_555
Ge10 Nd23 3.101985 1_555
Ge10 Nd8 3.187818 1_555
Ge10 Nd9 3.187818 1_555
Ge10 Nd13 3.205156 1_555
Ge10 Nd3 3.207354 1_555
Ge10 Nd2 3.207354 1_555
Ge10 Nd16 3.467694 1_555
Ge11 Nd22 3.102026 1_555
Ge11 Nd21 3.102070 1_555
Ge11 Nd11 3.187793 1_555
Ge11 Nd6 3.187844 1_555
Ge11 Nd14 3.204983 1_565
Ge11 Nd0 3.207278 1_565
Ge11 Nd5 3.207312 1_565
Ge11 Nd17 3.467745 1_555
Ge12 Nd24 3.121955 1_555
Ge12 Nd14 3.128066 1_555
Ge12 Nd13 3.128169 1_555
Ge12 Nd0 3.139946 1_555
Ge12 Nd3 3.140085 1_555
Ge12 Nd18 3.251539 1_655
Ge12 Nd11 3.258557 1_545
Ge12 Nd8 3.258857 1_555
Ge13 Nd25 3.121855 1_555
Ge13 Nd12 3.128159 1_555
Ge13 Nd14 3.128159 1_555
Ge13 Nd5 3.139993 1_555
Ge13 Nd1 3.139993 1_555
Ge13 Nd19 3.251559 1_655
Ge13 Nd6 3.258609 1_545
Ge13 Nd10 3.258609 1_556
Ge14 Nd26 3.121955 1_555
Ge14 Nd12 3.128066 1_555
Ge14 Nd13 3.128169 1_555
Ge14 Nd4 3.139946 1_555
Ge14 Nd2 3.140085 1_555
Ge14 Nd20 3.251539 1_655
Ge14 Nd7 3.258557 1_556
Ge14 Nd9 3.258857 1_555
Ge15 Nd27 3.121955 1_555
Ge15 Nd17 3.128066 1_555
Ge15 Nd16 3.128169 1_555
Ge15 Nd6 3.139946 1_455
Ge15 Nd9 3.140085 1_455
Ge15 Nd21 3.251539 1_555
Ge15 Nd5 3.258557 1_565
Ge15 Nd2 3.258857 1_555
Ge16 Nd28 3.121855 1_555
Ge16 Nd17 3.128159 1_555
Ge16 Nd15 3.128159 1_555
Ge16 Nd11 3.139993 1_455
Ge16 Nd7 3.139993 1_455
Ge16 Nd22 3.251559 1_555
Ge16 Nd4 3.258609 1_554
Ge16 Nd0 3.258609 1_565
Ge17 Nd29 3.121955 1_555
Ge17 Nd15 3.128066 1_555
Ge17 Nd16 3.128169 1_555
Ge17 Nd10 3.139946 1_455
Ge17 Nd8 3.140085 1_455
Ge17 Nd23 3.251539 1_555
Ge17 Nd1 3.258557 1_554
Ge17 Nd3 3.258857 1_555
C0 Nd18 2.572331 1_655
C0 Nd20 2.572331 1_655
C0 Nd19 2.572732 1_655
C0 Nd13 2.579188 1_555
C0 Nd12 2.579541 1_555
C0 Nd14 2.579541 1_555
C1 Nd23 2.572331 1_555
C1 Nd21 2.572331 1_555
C1 Nd22 2.572732 1_555
C1 Nd16 2.579188 1_555
C1 Nd17 2.579541 1_555
C1 Nd15 2.579541 1_555
