# generated using pymatgen
data_Pr2InCuSe5
_symmetry_space_group_name_H-M   'P 1'
_cell_length_a   4.10519100
_cell_length_b   12.16225700
_cell_length_c   17.56260800
_cell_angle_alpha   90.00000000
_cell_angle_beta   90.00000000
_cell_angle_gamma   90.00000000
_symmetry_Int_Tables_number   1
_chemical_formula_structural   Pr2InCuSe5
_chemical_formula_sum   'Pr8 In4 Cu4 Se20'
_cell_volume   876.87270610
_cell_formula_units_Z   4
loop_
 _symmetry_equiv_pos_site_id
 _symmetry_equiv_pos_as_xyz
  1  'x, y, z'
loop_
 _atom_site_type_symbol
 _atom_site_label
 _atom_site_symmetry_multiplicity
 _atom_site_fract_x
 _atom_site_fract_y
 _atom_site_fract_z
 _atom_site_occupancy
  Pr  Pr0  1  0.25000000  0.52054700  0.82091200  1
  Pr  Pr1  1  0.75000000  0.47945300  0.17908800  1
  Pr  Pr2  1  0.75000000  0.97945300  0.32091200  1
  Pr  Pr3  1  0.25000000  0.02054700  0.67908800  1
  Pr  Pr4  1  0.25000000  0.86339900  0.90601300  1
  Pr  Pr5  1  0.75000000  0.13660100  0.09398700  1
  Pr  Pr6  1  0.75000000  0.63660100  0.40601300  1
  Pr  Pr7  1  0.25000000  0.36339900  0.59398700  1
  In  In0  1  0.25000000  0.80767200  0.13902200  1
  In  In1  1  0.75000000  0.19232800  0.86097800  1
  In  In2  1  0.75000000  0.69232800  0.63902200  1
  In  In3  1  0.25000000  0.30767200  0.36097800  1
  Cu  Cu0  1  0.25000000  0.92016500  0.50326000  1
  Cu  Cu1  1  0.75000000  0.07983500  0.49674000  1
  Cu  Cu2  1  0.75000000  0.57983500  0.00326000  1
  Cu  Cu3  1  0.25000000  0.42016500  0.99674000  1
  Se  Se0  1  0.25000000  0.60009200  0.07773500  1
  Se  Se1  1  0.75000000  0.39990800  0.92226500  1
  Se  Se2  1  0.75000000  0.89990800  0.57773500  1
  Se  Se3  1  0.25000000  0.10009200  0.42226500  1
  Se  Se4  1  0.25000000  0.81838100  0.38581800  1
  Se  Se5  1  0.75000000  0.18161900  0.61418200  1
  Se  Se6  1  0.75000000  0.68161900  0.88581800  1
  Se  Se7  1  0.25000000  0.31838100  0.11418200  1
  Se  Se8  1  0.25000000  0.76094000  0.73067200  1
  Se  Se9  1  0.75000000  0.23906000  0.26932800  1
  Se  Se10  1  0.75000000  0.73906000  0.23067200  1
  Se  Se11  1  0.25000000  0.26094000  0.76932800  1
  Se  Se12  1  0.25000000  0.60809300  0.53623400  1
  Se  Se13  1  0.75000000  0.39190700  0.46376600  1
  Se  Se14  1  0.75000000  0.89190700  0.03623400  1
  Se  Se15  1  0.25000000  0.10809300  0.96376600  1
  Se  Se16  1  0.25000000  0.51537200  0.30616200  1
  Se  Se17  1  0.75000000  0.48462800  0.69383800  1
  Se  Se18  1  0.75000000  0.98462800  0.80616200  1
  Se  Se19  1  0.25000000  0.01537200  0.19383800  1
loop_
_geom_bond_atom_site_label_1
_geom_bond_atom_site_label_2
_geom_bond_distance
_geom_bond_site_symmetry_2
Pr0 Se6 3.057816 1_455
Pr0 Se6 3.057816 1_555
Pr0 Se17 3.063446 1_555
Pr0 Se17 3.063446 1_455
Pr0 Se1 3.087787 1_455
Pr0 Se1 3.087787 1_555
Pr0 Se11 3.284808 1_555
Pr0 Se8 3.325642 1_555
Pr1 Se7 3.057816 1_555
Pr1 Se7 3.057816 1_655
Pr1 Se16 3.063446 1_555
Pr1 Se16 3.063446 1_655
Pr1 Se0 3.087787 1_555
Pr1 Se0 3.087787 1_655
Pr1 Se10 3.284808 1_555
Pr1 Se9 3.325642 1_555
Pr2 Se4 3.057816 1_655
Pr2 Se4 3.057816 1_555
Pr2 Se19 3.063446 1_665
Pr2 Se19 3.063446 1_565
Pr2 Se3 3.087787 1_565
Pr2 Se3 3.087787 1_665
Pr2 Se9 3.284808 1_565
Pr2 Se10 3.325642 1_555
Pr3 Se5 3.057816 1_455
Pr3 Se5 3.057816 1_555
Pr3 Se18 3.063446 1_445
Pr3 Se18 3.063446 1_545
Pr3 Se2 3.087787 1_545
Pr3 Se2 3.087787 1_445
Pr3 Se8 3.284808 1_545
Pr3 Se11 3.325642 1_555
Pr4 Se6 3.037569 1_555
Pr4 Se6 3.037569 1_455
Pr4 Se18 3.076089 1_455
Pr4 Se18 3.076089 1_555
Pr4 Se14 3.092544 1_556
Pr4 Se14 3.092544 1_456
Pr4 Se15 3.144130 1_565
Pr4 Se8 3.322022 1_555
Pr5 Se7 3.037569 1_655
Pr5 Se7 3.037569 1_555
Pr5 Se19 3.076089 1_655
Pr5 Se19 3.076089 1_555
Pr5 Se15 3.092544 1_654
Pr5 Se15 3.092544 1_554
Pr5 Se14 3.144130 1_545
Pr5 Se9 3.322022 1_555
Pr6 Se4 3.037569 1_555
Pr6 Se4 3.037569 1_655
Pr6 Se16 3.076089 1_555
Pr6 Se16 3.076089 1_655
Pr6 Se12 3.092544 1_555
Pr6 Se12 3.092544 1_655
Pr6 Se13 3.144130 1_555
Pr6 Se10 3.322022 1_555
Pr7 Se5 3.037569 1_555
Pr7 Se5 3.037569 1_455
Pr7 Se17 3.076089 1_455
Pr7 Se17 3.076089 1_555
Pr7 Se13 3.092544 1_455
Pr7 Se13 3.092544 1_555
Pr7 Se12 3.144130 1_555
Pr7 Se11 3.322022 1_555
In0 Se19 2.703331 1_565
In0 Se10 2.738677 1_555
In0 Se10 2.738677 1_455
In0 Se0 2.744515 1_555
In0 Se14 2.919171 1_455
In0 Se14 2.919171 1_555
In1 Se18 2.703331 1_545
In1 Se11 2.738677 1_555
In1 Se11 2.738677 1_655
In1 Se1 2.744515 1_555
In1 Se15 2.919171 1_555
In1 Se15 2.919171 1_655
In2 Se17 2.703331 1_555
In2 Se8 2.738677 1_555
In2 Se8 2.738677 1_655
In2 Se2 2.744515 1_555
In2 Se12 2.919171 1_555
In2 Se12 2.919171 1_655
In3 Se16 2.703331 1_555
In3 Se9 2.738677 1_555
In3 Se9 2.738677 1_455
In3 Se3 2.744515 1_555
In3 Se13 2.919171 1_455
In3 Se13 2.919171 1_555
Cu0 Se4 2.405561 1_555
Cu0 Se2 2.446354 1_555
Cu0 Se2 2.446354 1_455
Cu0 Se3 2.610019 1_565
Cu0 Pr3 3.320581 1_565
Cu1 Se5 2.405561 1_555
Cu1 Se3 2.446354 1_555
Cu1 Se3 2.446354 1_655
Cu1 Se2 2.610019 1_545
Cu1 Pr2 3.320581 1_545
Cu2 Se6 2.405561 1_554
Cu2 Se0 2.446354 1_555
Cu2 Se0 2.446354 1_655
Cu2 Se1 2.610019 1_554
Cu2 Pr1 3.320581 1_555
Cu3 Se7 2.405561 1_556
Cu3 Se1 2.446354 1_555
Cu3 Se1 2.446354 1_455
Cu3 Se0 2.610019 1_556
Cu3 Pr0 3.320581 1_555
