# generated using pymatgen
data_Ce2Si5Rh3
_symmetry_space_group_name_H-M   'P 1'
_cell_length_a   8.20457525
_cell_length_b   8.20457525
_cell_length_c   8.20457525
_cell_angle_alpha   138.14797925
_cell_angle_beta   105.26188691
_cell_angle_gamma   89.53579056
_symmetry_Int_Tables_number   1
_chemical_formula_structural   Ce2Si5Rh3
_chemical_formula_sum   'Ce4 Si10 Rh6'
_cell_volume   340.00194526
_cell_formula_units_Z   2
loop_
 _symmetry_equiv_pos_site_id
 _symmetry_equiv_pos_as_xyz
  1  'x, y, z'
loop_
 _atom_site_type_symbol
 _atom_site_label
 _atom_site_symmetry_multiplicity
 _atom_site_fract_x
 _atom_site_fract_y
 _atom_site_fract_z
 _atom_site_occupancy
  Ce  Ce0  1  0.86393500  0.63222400  0.23171200  1
  Ce  Ce1  1  0.13606500  0.36777600  0.76828800  1
  Ce  Ce2  1  0.40051200  0.13222400  0.26828800  1
  Ce  Ce3  1  0.59948800  0.86777600  0.73171200  1
  Si  Si0  1  0.50000000  0.75000000  0.25000000  1
  Si  Si1  1  0.50000000  0.25000000  0.75000000  1
  Si  Si2  1  0.22502600  0.97502600  0.75000000  1
  Si  Si3  1  0.77497400  0.52497400  0.75000000  1
  Si  Si4  1  0.77497400  0.02497400  0.25000000  1
  Si  Si5  1  0.22502600  0.47502600  0.25000000  1
  Si  Si6  1  0.04537300  0.89279300  0.15258100  1
  Si  Si7  1  0.95462700  0.10720700  0.84741900  1
  Si  Si8  1  0.74021200  0.39279300  0.34741900  1
  Si  Si9  1  0.25978800  0.60720700  0.65258100  1
  Rh  Rh0  1  0.00000000  0.75000000  0.75000000  1
  Rh  Rh1  1  0.00000000  0.25000000  0.25000000  1
  Rh  Rh2  1  0.24997100  0.86174100  0.38823000  1
  Rh  Rh3  1  0.75002900  0.13825900  0.61177000  1
  Rh  Rh4  1  0.47351200  0.36174100  0.11177000  1
  Rh  Rh5  1  0.52648800  0.63825900  0.88823000  1
loop_
_geom_bond_atom_site_label_1
_geom_bond_atom_site_label_2
_geom_bond_distance
_geom_bond_site_symmetry_2
Ce0 Si8 3.018023 1_555
Ce0 Rh2 3.095082 1_655
Ce0 Si6 3.136246 1_655
Ce0 Si0 3.137700 1_555
Ce0 Si1 3.137703 1_554
Ce0 Si7 3.162267 1_565
Ce0 Si7 3.162278 1_554
Ce0 Rh3 3.165267 1_565
Ce0 Rh3 3.165273 1_554
Ce0 Si4 3.199692 1_565
Ce0 Si3 3.199694 1_554
Ce0 Si2 3.233462 1_655
Ce0 Si5 3.233465 1_655
Ce0 Rh4 3.369920 1_555
Ce0 Rh0 3.414560 1_655
Ce0 Rh1 3.414563 1_655
Ce0 Rh5 3.421625 1_554
Ce1 Si9 3.018023 1_555
Ce1 Rh3 3.095082 1_455
Ce1 Si7 3.136246 1_455
Ce1 Si1 3.137700 1_555
Ce1 Si0 3.137703 1_556
Ce1 Si6 3.162267 1_545
Ce1 Si6 3.162278 1_556
Ce1 Rh2 3.165267 1_545
Ce1 Rh2 3.165273 1_556
Ce1 Si2 3.199692 1_545
Ce1 Si5 3.199694 1_556
Ce1 Si4 3.233462 1_455
Ce1 Si3 3.233465 1_455
Ce1 Rh5 3.369920 1_555
Ce1 Rh1 3.414560 1_555
Ce1 Rh0 3.414563 1_555
Ce1 Rh4 3.421625 1_556
Ce2 Si6 3.018033 1_545
Ce2 Rh4 3.095077 1_555
Ce2 Si8 3.136246 1_555
Ce2 Si0 3.137708 1_545
Ce2 Si1 3.137708 1_555
Ce2 Si9 3.162270 1_544
Ce2 Si9 3.162270 1_555
Ce2 Rh5 3.165267 1_544
Ce2 Rh5 3.165272 1_555
Ce2 Si4 3.199694 1_555
Ce2 Si3 3.199694 1_555
Ce2 Si2 3.233457 1_544
Ce2 Si5 3.233457 1_555
Ce2 Rh2 3.369934 1_545
Ce2 Rh0 3.414560 1_544
Ce2 Rh1 3.414560 1_555
Ce2 Rh3 3.421625 1_555
Ce3 Si7 3.018033 1_565
Ce3 Rh5 3.095077 1_555
Ce3 Si9 3.136246 1_555
Ce3 Si0 3.137708 1_555
Ce3 Si1 3.137708 1_565
Ce3 Si8 3.162270 1_555
Ce3 Si8 3.162270 1_566
Ce3 Rh4 3.165267 1_566
Ce3 Rh4 3.165272 1_555
Ce3 Si5 3.199694 1_555
Ce3 Si2 3.199694 1_555
Ce3 Si4 3.233457 1_566
Ce3 Si3 3.233457 1_555
Ce3 Rh3 3.369934 1_565
Ce3 Rh0 3.414560 1_655
Ce3 Rh1 3.414560 1_666
Ce3 Rh2 3.421625 1_555
Si2 Si7 2.517930 1_465
Si2 Si9 2.517937 1_555
Si3 Si6 2.517933 1_656
Si3 Si8 2.517937 1_555
Si4 Si6 2.517930 1_645
Si4 Si8 2.517937 1_555
Si5 Si7 2.517933 1_454
Si5 Si9 2.517937 1_555
Rh0 Si7 2.452733 1_465
Rh0 Si9 2.452735 1_555
Rh0 Si8 2.452735 1_455
Rh0 Si6 2.452737 1_556
Rh0 Si2 2.621537 1_555
Rh0 Si3 2.621537 1_455
Rh1 Si6 2.452733 1_545
Rh1 Si9 2.452735 1_555
Rh1 Si8 2.452735 1_455
Rh1 Si7 2.452737 1_454
Rh1 Si5 2.621537 1_555
Rh1 Si4 2.621537 1_455
Rh2 Si6 2.374662 1_555
Rh2 Si5 2.433652 1_555
Rh2 Si2 2.433652 1_555
Rh2 Si0 2.445462 1_555
Rh2 Si1 2.445462 1_565
Rh3 Si7 2.374662 1_555
Rh3 Si3 2.433652 1_555
Rh3 Si4 2.433652 1_555
Rh3 Si1 2.445462 1_555
Rh3 Si0 2.445462 1_545
Rh4 Si8 2.374652 1_555
Rh4 Si2 2.433657 1_544
Rh4 Si5 2.433660 1_555
Rh4 Si1 2.445459 1_554
Rh4 Si0 2.445462 1_555
Rh5 Si9 2.374652 1_555
Rh5 Si4 2.433657 1_566
Rh5 Si3 2.433660 1_555
Rh5 Si0 2.445459 1_556
Rh5 Si1 2.445462 1_555
