# generated using pymatgen
data_Fe2O3
_symmetry_space_group_name_H-M   'P 1'
_cell_length_a   10.26627293
_cell_length_b   10.23295030
_cell_length_c   10.38777504
_cell_angle_alpha   90.44555305
_cell_angle_beta   93.12564457
_cell_angle_gamma   87.33796388
_symmetry_Int_Tables_number   1
_chemical_formula_structural   Fe2O3
_chemical_formula_sum   'Fe32 O48'
_cell_volume   1088.46567566
_cell_formula_units_Z   16
loop_
 _symmetry_equiv_pos_site_id
 _symmetry_equiv_pos_as_xyz
  1  'x, y, z'
loop_
 _atom_site_type_symbol
 _atom_site_label
 _atom_site_symmetry_multiplicity
 _atom_site_fract_x
 _atom_site_fract_y
 _atom_site_fract_z
 _atom_site_occupancy
  Fe  Fe0  1  0.53673400  0.75109100  0.08282800  1
  Fe  Fe1  1  0.42375100  0.06258900  0.57206600  1
  Fe  Fe2  1  0.79391200  0.77189200  0.79848400  1
  Fe  Fe3  1  0.90413300  0.06701900  0.43445900  1
  Fe  Fe4  1  0.36476400  0.23150700  0.19229200  1
  Fe  Fe5  1  0.45567100  0.38708800  0.45408700  1
  Fe  Fe6  1  0.47355800  0.05788900  0.93701700  1
  Fe  Fe7  1  0.63898300  0.51077300  0.97093500  1
  Fe  Fe8  1  0.15438900  0.54790500  0.53852800  1
  Fe  Fe9  1  0.38510000  0.52622200  0.81553200  1
  Fe  Fe10  1  0.90531300  0.00286600  0.12026800  1
  Fe  Fe11  1  0.11838500  0.06784300  0.65100800  1
  Fe  Fe12  1  0.63794900  0.26509800  0.73274500  1
  Fe  Fe13  1  0.16739400  0.24291700  0.42081900  1
  Fe  Fe14  1  0.34698300  0.54231800  0.15077000  1
  Fe  Fe15  1  0.34484500  0.85244600  0.84845700  1
  Fe  Fe16  1  0.99286200  0.21581300  0.85042500  1
  Fe  Fe17  1  0.65405900  0.54653000  0.67652500  1
  Fe  Fe18  1  0.41225700  0.71720700  0.57287000  1
  Fe  Fe19  1  0.09202200  0.31999400  0.10008000  1
  Fe  Fe20  1  0.77177100  0.80748700  0.25534400  1
  Fe  Fe21  1  0.99634500  0.58829400  0.24056900  1
  Fe  Fe22  1  0.17439200  0.78730800  0.13592500  1
  Fe  Fe23  1  0.63631200  0.10515700  0.31818400  1
  Fe  Fe24  1  0.75263400  0.21418900  0.00837100  1
  Fe  Fe25  1  0.02611000  0.87071100  0.86558700  1
  Fe  Fe26  1  0.65407900  0.47313900  0.24620700  1
  Fe  Fe27  1  0.85639900  0.36837200  0.49165600  1
  Fe  Fe28  1  0.09808700  0.82864100  0.41005800  1
  Fe  Fe29  1  0.40247700  0.92913800  0.24904700  1
  Fe  Fe30  1  0.03971100  0.51503400  0.78074800  1
  Fe  Fe31  1  0.68616800  0.87038800  0.56270700  1
  O  O0  1  0.72787000  0.38458200  0.62109600  1
  O  O1  1  0.88162700  0.88849000  0.96715200  1
  O  O2  1  0.49006700  0.54192700  0.56305700  1
  O  O3  1  0.81000000  0.25630700  0.83504000  1
  O  O4  1  0.78794300  0.49280300  0.36860300  1
  O  O5  1  0.75760800  0.19695200  0.42591600  1
  O  O6  1  0.40186300  0.70206400  0.75767100  1
  O  O7  1  0.36456400  0.02143400  0.77809500  1
  O  O8  1  0.16452200  0.60362300  0.15519500  1
  O  O9  1  0.99465400  0.47279800  0.60574600  1
  O  O10  1  0.51648700  0.27329700  0.30501700  1
  O  O11  1  0.59621300  0.17331000  0.89302800  1
  O  O12  1  0.19216100  0.84919300  0.95642500  1
  O  O13  1  0.99778900  0.23264800  0.47594400  1
  O  O14  1  0.50373000  0.22985400  0.59472400  1
  O  O15  1  0.24414700  0.10415000  0.52998900  1
  O  O16  1  0.13834900  0.21832700  0.75246100  1
  O  O17  1  0.96745800  0.16572500  0.03514700  1
  O  O18  1  0.55281300  0.43025800  0.80456700  1
  O  O19  1  0.73416700  0.09018200  0.14727000  1
  O  O20  1  0.22013700  0.88786400  0.28813500  1
  O  O21  1  0.97643800  0.41533200  0.19506200  1
  O  O22  1  0.74843900  0.93558100  0.71975800  1
  O  O23  1  0.23598500  0.72422100  0.52408200  1
  O  O24  1  0.68252300  0.63013600  0.13286100  1
  O  O25  1  0.73290200  0.69727300  0.61587000  1
  O  O26  1  0.26221700  0.40201700  0.45721900  1
  O  O27  1  0.46560200  0.04405800  0.38168200  1
  O  O28  1  0.98131500  0.70260000  0.79694800  1
  O  O29  1  0.51096600  0.87076900  0.94203700  1
  O  O30  1  0.68208700  0.37091300  0.08702800  1
  O  O31  1  0.28985200  0.37034700  0.08578100  1
  O  O32  1  0.71543800  0.61698100  0.85232200  1
  O  O33  1  0.03005700  0.94624500  0.53989600  1
  O  O34  1  0.00522300  0.03712500  0.78165800  1
  O  O35  1  0.58576300  0.87222200  0.21704200  1
  O  O36  1  0.98365900  0.00830100  0.28580300  1
  O  O37  1  0.03551900  0.38668700  0.91670100  1
  O  O38  1  0.18968100  0.21219000  0.24401100  1
  O  O39  1  0.75688100  0.93641100  0.40871500  1
  O  O40  1  0.39964100  0.06960900  0.10507200  1
  O  O41  1  0.03860300  0.64528200  0.41171500  1
  O  O42  1  0.21908900  0.51553900  0.73228200  1
  O  O43  1  0.49614400  0.87834600  0.57086800  1
  O  O44  1  0.36897700  0.75094600  0.15428400  1
  O  O45  1  0.45161100  0.57071800  0.99336400  1
  O  O46  1  0.95821000  0.77122600  0.19874600  1
  O  O47  1  0.47321800  0.51657600  0.29358300  1
loop_
_geom_bond_atom_site_label_1
_geom_bond_atom_site_label_2
_geom_bond_distance
_geom_bond_site_symmetry_2
Fe0 O44 1.912259 1_555
Fe0 O29 1.914227 1_554
Fe0 O35 1.920439 1_555
Fe0 O24 1.948159 1_555
Fe0 O45 2.251383 1_554
Fe1 O15 1.901029 1_555
Fe1 O14 1.939693 1_555
Fe1 O43 1.994377 1_545
Fe1 O27 2.052069 1_555
Fe1 O7 2.303596 1_555
Fe2 O22 1.897221 1_555
Fe2 O32 1.912123 1_555
Fe2 O28 2.020145 1_555
Fe2 O25 2.113318 1_555
Fe2 O1 2.280249 1_555
Fe3 O36 1.868062 1_555
Fe3 O5 1.959595 1_555
Fe3 O13 2.019309 1_555
Fe3 O33 2.028906 1_645
Fe3 O39 2.069086 1_545
Fe4 O40 1.910667 1_555
Fe4 O31 1.914232 1_555
Fe4 O38 1.923147 1_555
Fe4 O10 1.958422 1_555
Fe5 O2 1.974087 1_555
Fe5 O26 1.986853 1_555
Fe5 O10 2.037993 1_555
Fe5 O47 2.158078 1_555
Fe5 O14 2.202423 1_555
Fe6 O11 1.843554 1_555
Fe6 O29 1.935895 1_545
Fe6 O40 1.941784 1_556
Fe6 O7 1.986022 1_555
Fe7 O32 1.876412 1_555
Fe7 O30 1.899534 1_556
Fe7 O45 2.016901 1_555
Fe7 O18 2.080122 1_555
Fe7 O24 2.111344 1_556
Fe8 O41 1.969982 1_555
Fe8 O9 2.004432 1_455
Fe8 O26 2.023932 1_555
Fe8 O23 2.034159 1_555
Fe8 O42 2.108528 1_555
Fe9 O42 1.876058 1_555
Fe9 O6 1.919770 1_555
Fe9 O18 1.950495 1_555
Fe9 O45 1.991042 1_555
Fe10 O36 1.859755 1_555
Fe10 O19 1.966773 1_555
Fe10 O1 1.978404 1_544
Fe10 O17 2.037007 1_555
Fe10 O46 2.537773 1_545
Fe11 O34 1.871593 1_555
Fe11 O16 1.872018 1_555
Fe11 O15 1.901093 1_555
Fe11 O33 1.916015 1_545
Fe12 O14 1.976619 1_555
Fe12 O0 1.983910 1_555
Fe12 O11 1.994361 1_555
Fe12 O3 2.009773 1_555
Fe12 O18 2.022668 1_555
Fe13 O13 1.870140 1_455
Fe13 O38 1.885373 1_555
Fe13 O15 1.935711 1_555
Fe13 O26 1.959266 1_555
Fe14 O47 1.927282 1_555
Fe14 O8 1.950462 1_555
Fe14 O31 1.982617 1_555
Fe14 O45 2.034624 1_554
Fe14 O44 2.157011 1_555
Fe15 O6 1.885216 1_555
Fe15 O7 1.906254 1_565
Fe15 O29 1.932544 1_555
Fe15 O12 1.978171 1_555
Fe16 O16 1.853868 1_655
Fe16 O3 1.901998 1_555
Fe16 O37 1.934605 1_655
Fe16 O34 1.959038 1_655
Fe16 O17 2.023610 1_556
Fe17 O0 1.888957 1_555
Fe17 O25 1.902186 1_555
Fe17 O2 2.004013 1_555
Fe17 O32 2.036619 1_555
Fe17 O18 2.134332 1_555
Fe18 O23 1.850767 1_555
Fe18 O43 1.896172 1_555
Fe18 O2 1.933536 1_555
Fe18 O6 1.936243 1_555
Fe19 O21 1.827153 1_455
Fe19 O38 2.053529 1_555
Fe19 O37 2.072157 1_554
Fe19 O31 2.131600 1_555
Fe19 O17 2.158535 1_455
Fe20 O35 2.011831 1_555
Fe20 O46 2.049444 1_555
Fe20 O39 2.068144 1_555
Fe20 O24 2.396523 1_555
Fe21 O21 1.846041 1_555
Fe21 O41 1.900582 1_655
Fe21 O46 1.942211 1_555
Fe21 O8 1.996592 1_655
Fe22 O8 1.899773 1_555
Fe22 O20 1.928191 1_555
Fe22 O12 1.994303 1_554
Fe22 O44 2.013949 1_555
Fe22 O46 2.360536 1_455
Fe23 O5 1.904134 1_555
Fe23 O27 2.032656 1_555
Fe23 O10 2.069070 1_555
Fe23 O19 2.088251 1_555
Fe23 O39 2.257880 1_545
Fe24 O30 1.923648 1_555
Fe24 O19 1.951581 1_555
Fe24 O3 1.981355 1_554
Fe24 O11 2.008516 1_554
Fe24 O17 2.240745 1_555
Fe25 O1 1.867883 1_455
Fe25 O12 1.907330 1_555
Fe25 O34 1.916964 1_565
Fe25 O28 1.922980 1_455
Fe26 O4 1.837614 1_555
Fe26 O47 1.976597 1_555
Fe26 O30 1.976884 1_555
Fe26 O24 2.040353 1_555
Fe26 O10 2.632925 1_555
Fe27 O4 1.895609 1_555
Fe27 O0 1.935522 1_555
Fe27 O13 1.974234 1_555
Fe27 O9 2.121032 1_555
Fe27 O5 2.154774 1_555
Fe28 O33 1.937657 1_555
Fe28 O20 1.948550 1_555
Fe28 O41 2.000456 1_555
Fe28 O23 2.060386 1_555
Fe28 O36 2.469184 1_465
Fe28 O46 2.634424 1_455
Fe29 O27 1.910338 1_565
Fe29 O35 1.988419 1_555
Fe29 O20 2.001612 1_555
Fe29 O40 2.080533 1_565
Fe29 O44 2.098950 1_555
Fe30 O9 1.902658 1_455
Fe30 O42 1.935666 1_555
Fe30 O37 1.939578 1_555
Fe30 O28 1.992672 1_455
Fe31 O22 1.850457 1_555
Fe31 O25 1.892266 1_555
Fe31 O39 1.931657 1_555
Fe31 O43 1.955188 1_555
