# generated using pymatgen
data_Ba4InSbO8
_symmetry_space_group_name_H-M   'P 1'
_cell_length_a   7.35162560
_cell_length_b   7.35162560
_cell_length_c   6.00486800
_cell_angle_alpha   90.00000000
_cell_angle_beta   90.00000000
_cell_angle_gamma   131.87158249
_symmetry_Int_Tables_number   1
_chemical_formula_structural   Ba4InSbO8
_chemical_formula_sum   'Ba4 In1 Sb1 O8'
_cell_volume   241.66744769
_cell_formula_units_Z   1
loop_
 _symmetry_equiv_pos_site_id
 _symmetry_equiv_pos_as_xyz
  1  'x, y, z'
loop_
 _atom_site_type_symbol
 _atom_site_label
 _atom_site_symmetry_multiplicity
 _atom_site_fract_x
 _atom_site_fract_y
 _atom_site_fract_z
 _atom_site_occupancy
  Ba  Ba0  1  0.35429700  0.64570300  0.00000000  1
  Ba  Ba1  1  0.85485900  0.14514100  0.50000000  1
  Ba  Ba2  1  0.14514100  0.85485900  0.50000000  1
  Ba  Ba3  1  0.64570300  0.35429700  0.00000000  1
  In  In0  1  0.00000000  0.00000000  0.00000000  1
  Sb  Sb0  1  0.50000000  0.50000000  0.50000000  1
  O  O0  1  0.26133900  0.26133900  0.73605900  1
  O  O1  1  0.73866100  0.73866100  0.26394100  1
  O  O2  1  0.73866100  0.73866100  0.73605900  1
  O  O3  1  0.26133900  0.26133900  0.26394100  1
  O  O4  1  0.15969900  0.84030100  0.00000000  1
  O  O5  1  0.65267700  0.34732300  0.50000000  1
  O  O6  1  0.34732300  0.65267700  0.50000000  1
  O  O7  1  0.84030100  0.15969900  0.00000000  1
loop_
_geom_bond_atom_site_label_1
_geom_bond_atom_site_label_2
_geom_bond_distance
_geom_bond_site_symmetry_2
Ba0 O4 2.612552 1_555
Ba0 O1 2.895822 1_555
Ba0 O2 2.895822 1_554
Ba0 O3 2.895822 1_555
Ba0 O0 2.895822 1_554
Ba0 O7 3.003583 1_565
Ba0 O7 3.003583 1_455
Ba0 O6 3.003894 1_555
Ba0 O6 3.003894 1_554
Ba1 O5 2.714370 1_555
Ba1 O1 2.874233 1_545
Ba1 O3 2.874233 1_655
Ba1 O0 2.874233 1_655
Ba1 O2 2.874233 1_545
Ba1 O6 2.999407 1_655
Ba1 O6 2.999407 1_545
Ba1 O7 3.008789 1_556
Ba1 O7 3.008789 1_555
Ba2 O6 2.714370 1_555
Ba2 O0 2.874233 1_565
Ba2 O2 2.874233 1_455
Ba2 O3 2.874233 1_565
Ba2 O1 2.874233 1_455
Ba2 O5 2.999407 1_455
Ba2 O5 2.999407 1_565
Ba2 O4 3.008789 1_556
Ba2 O4 3.008789 1_555
Ba3 O7 2.612552 1_555
Ba3 O1 2.895822 1_555
Ba3 O2 2.895822 1_554
Ba3 O3 2.895822 1_555
Ba3 O0 2.895822 1_554
Ba3 O4 3.003583 1_545
Ba3 O4 3.003583 1_655
Ba3 O5 3.003894 1_555
Ba3 O5 3.003894 1_554
In0 O4 2.144019 1_545
In0 O7 2.144019 1_455
In0 O1 2.228670 1_445
In0 O2 2.228670 1_444
In0 O3 2.228670 1_555
In0 O0 2.228670 1_554
O0 Sb0 2.014125 1_555
O1 Sb0 2.014125 1_555
O2 Sb0 2.014125 1_555
O3 Sb0 2.014125 1_555
O5 Sb0 2.049746 1_555
O6 Sb0 2.049746 1_555
