# generated using pymatgen
data_CrFe3As4
_symmetry_space_group_name_H-M   'P 1'
_cell_length_a   3.45428600
_cell_length_b   5.38382509
_cell_length_c   6.03762642
_cell_angle_alpha   90.07575741
_cell_angle_beta   90.00000000
_cell_angle_gamma   90.00000000
_symmetry_Int_Tables_number   1
_chemical_formula_structural   CrFe3As4
_chemical_formula_sum   'Cr1 Fe3 As4'
_cell_volume   112.28328042
_cell_formula_units_Z   1
loop_
 _symmetry_equiv_pos_site_id
 _symmetry_equiv_pos_as_xyz
  1  'x, y, z'
loop_
 _atom_site_type_symbol
 _atom_site_label
 _atom_site_symmetry_multiplicity
 _atom_site_fract_x
 _atom_site_fract_y
 _atom_site_fract_z
 _atom_site_occupancy
  Cr  Cr0  1  0.75000000  0.49705100  0.70212000  1
  Fe  Fe0  1  0.75000000  0.00351100  0.79252700  1
  Fe  Fe1  1  0.25000000  0.50265200  0.30619500  1
  Fe  Fe2  1  0.25000000  0.00343900  0.20228200  1
  As  As0  1  0.75000000  0.29206600  0.08709300  1
  As  As1  1  0.75000000  0.80611400  0.41109900  1
  As  As2  1  0.25000000  0.70743800  0.92349300  1
  As  As3  1  0.25000000  0.18772800  0.57519000  1
loop_
_geom_bond_atom_site_label_1
_geom_bond_atom_site_label_2
_geom_bond_distance
_geom_bond_site_symmetry_2
As0 Fe0 2.359902 1_554
As0 Fe2 2.425740 1_555
As0 Fe2 2.425740 1_655
As0 Fe1 2.452430 1_655
As0 Fe1 2.452430 1_555
As0 Cr0 2.574335 1_554
As1 Fe2 2.388450 1_565
As1 Fe2 2.388450 1_665
As1 Cr0 2.421518 1_555
As1 Fe1 2.459818 1_655
As1 Fe1 2.459818 1_555
As1 Fe0 2.535036 1_565
As2 Fe2 2.316412 1_566
As2 Cr0 2.459352 1_555
As2 Cr0 2.459352 1_455
As2 Fe0 2.480414 1_565
As2 Fe0 2.480414 1_465
As2 Fe1 2.561492 1_556
As3 Fe1 2.349396 1_555
As3 Fe0 2.385788 1_455
As3 Fe0 2.385788 1_555
As3 Fe2 2.459201 1_555
As3 Cr0 2.517997 1_455
As3 Cr0 2.517997 1_555
