# generated using pymatgen
data_FeBiAsO
_symmetry_space_group_name_H-M   'P 1'
_cell_length_a   4.01601300
_cell_length_b   4.01601300
_cell_length_c   9.43049600
_cell_angle_alpha   90.00000000
_cell_angle_beta   90.00000000
_cell_angle_gamma   90.00000000
_symmetry_Int_Tables_number   1
_chemical_formula_structural   FeBiAsO
_chemical_formula_sum   'Fe2 Bi2 As2 O2'
_cell_volume   152.09843839
_cell_formula_units_Z   2
loop_
 _symmetry_equiv_pos_site_id
 _symmetry_equiv_pos_as_xyz
  1  'x, y, z'
loop_
 _atom_site_type_symbol
 _atom_site_label
 _atom_site_symmetry_multiplicity
 _atom_site_fract_x
 _atom_site_fract_y
 _atom_site_fract_z
 _atom_site_occupancy
  Fe  Fe0  1  0.50000000  0.50000000  0.50000000  1
  Fe  Fe1  1  0.00000000  0.00000000  0.50000000  1
  Bi  Bi0  1  0.00000000  0.50000000  0.86737500  1
  Bi  Bi1  1  0.50000000  0.00000000  0.13262500  1
  As  As0  1  0.00000000  0.50000000  0.32178200  1
  As  As1  1  0.50000000  0.00000000  0.67821800  1
  O  O0  1  0.50000000  0.50000000  0.00000000  1
  O  O1  1  0.00000000  0.00000000  0.00000000  1
loop_
_geom_bond_atom_site_label_1
_geom_bond_atom_site_label_2
_geom_bond_distance
_geom_bond_site_symmetry_2
Bi0 O0 2.365669 1_556
Bi0 O0 2.365669 1_456
Bi0 O1 2.365669 1_566
Bi0 O1 2.365669 1_556
Bi1 O0 2.365669 1_545
Bi1 O1 2.365669 1_655
Bi1 O0 2.365669 1_555
Bi1 O1 2.365669 1_555
As0 Fe0 2.618547 1_455
As0 Fe1 2.618547 1_555
As0 Fe0 2.618547 1_555
As0 Fe1 2.618547 1_565
As1 Fe0 2.618547 1_545
As1 Fe1 2.618547 1_555
As1 Fe0 2.618547 1_555
As1 Fe1 2.618547 1_655
