# generated using pymatgen
data_C12SF10
_symmetry_space_group_name_H-M   'P 1'
_cell_length_a   5.74377800
_cell_length_b   5.74377800
_cell_length_c   37.97334700
_cell_angle_alpha   90.00000000
_cell_angle_beta   90.00000000
_cell_angle_gamma   90.00000000
_symmetry_Int_Tables_number   1
_chemical_formula_structural   C12SF10
_chemical_formula_sum   'C48 S4 F40'
_cell_volume   1252.77814836
_cell_formula_units_Z   4
loop_
 _symmetry_equiv_pos_site_id
 _symmetry_equiv_pos_as_xyz
  1  'x, y, z'
loop_
 _atom_site_type_symbol
 _atom_site_label
 _atom_site_symmetry_multiplicity
 _atom_site_fract_x
 _atom_site_fract_y
 _atom_site_fract_z
 _atom_site_occupancy
  C  C0  1  0.35878900  0.22574900  0.18407200  1
  C  C1  1  0.64121100  0.77425100  0.68407200  1
  C  C2  1  0.27425100  0.85878900  0.43407200  1
  C  C3  1  0.14121100  0.72574900  0.06592800  1
  C  C4  1  0.72574900  0.14121100  0.93407200  1
  C  C5  1  0.85878900  0.27425100  0.56592800  1
  C  C6  1  0.22574900  0.35878900  0.81592800  1
  C  C7  1  0.77425100  0.64121100  0.31592800  1
  C  C8  1  0.41030000  0.06473600  0.21041400  1
  C  C9  1  0.58970000  0.93526400  0.71041400  1
  C  C10  1  0.43526400  0.91030000  0.46041400  1
  C  C11  1  0.08970000  0.56473600  0.03958600  1
  C  C12  1  0.56473600  0.08970000  0.96041400  1
  C  C13  1  0.91030000  0.43526400  0.53958600  1
  C  C14  1  0.06473600  0.41030000  0.78958600  1
  C  C15  1  0.93526400  0.58970000  0.28958600  1
  C  C16  1  0.15622200  0.20082500  0.16424000  1
  C  C17  1  0.84377800  0.79917500  0.66424000  1
  C  C18  1  0.29917500  0.65622200  0.41424000  1
  C  C19  1  0.34377800  0.70082500  0.08576000  1
  C  C20  1  0.70082500  0.34377800  0.91424000  1
  C  C21  1  0.65622200  0.29917500  0.58576000  1
  C  C22  1  0.20082500  0.15622200  0.83576000  1
  C  C23  1  0.79917500  0.84377800  0.33576000  1
  C  C24  1  0.00660800  0.01402300  0.17074000  1
  C  C25  1  0.99339200  0.98597700  0.67074000  1
  C  C26  1  0.48597700  0.50660800  0.42074000  1
  C  C27  1  0.49339200  0.51402300  0.07926000  1
  C  C28  1  0.51402300  0.49339200  0.92074000  1
  C  C29  1  0.50660800  0.48597700  0.57926000  1
  C  C30  1  0.01402300  0.00660800  0.82926000  1
  C  C31  1  0.98597700  0.99339200  0.32926000  1
  C  C32  1  0.43888200  0.35421800  0.05284300  1
  C  C33  1  0.56111800  0.64578200  0.55284300  1
  C  C34  1  0.14578200  0.93888200  0.30284300  1
  C  C35  1  0.06111800  0.85421800  0.19715700  1
  C  C36  1  0.85421800  0.06111800  0.80284300  1
  C  C37  1  0.93888200  0.14578200  0.69715700  1
  C  C38  1  0.35421800  0.43888200  0.94715700  1
  C  C39  1  0.64578200  0.56111800  0.44715700  1
  C  C40  1  0.23641200  0.37561800  0.03240900  1
  C  C41  1  0.76358800  0.62438200  0.53240900  1
  C  C42  1  0.12438200  0.73641200  0.28240900  1
  C  C43  1  0.26358800  0.87561800  0.21759100  1
  C  C44  1  0.87561800  0.26358800  0.78240900  1
  C  C45  1  0.73641200  0.12438200  0.71759100  1
  C  C46  1  0.37561800  0.23641200  0.96759100  1
  C  C47  1  0.62438200  0.76358800  0.46759100  1
  S  S0  1  0.16526800  0.16526800  0.00000000  1
  S  S1  1  0.83473200  0.83473200  0.50000000  1
  S  S2  1  0.33473200  0.66526800  0.25000000  1
  S  S3  1  0.66526800  0.33473200  0.75000000  1
  F  F0  1  0.40352300  0.10768600  0.47909400  1
  F  F1  1  0.59647700  0.89231400  0.97909400  1
  F  F2  1  0.39231400  0.90352300  0.72909400  1
  F  F3  1  0.09647700  0.60768600  0.77090600  1
  F  F4  1  0.60768600  0.09647700  0.22909400  1
  F  F5  1  0.90352300  0.39231400  0.27090600  1
  F  F6  1  0.10768600  0.40352300  0.52090600  1
  F  F7  1  0.89231400  0.59647700  0.02090600  1
  F  F8  1  0.32422900  0.08714600  0.29727300  1
  F  F9  1  0.67577100  0.91285400  0.79727300  1
  F  F10  1  0.41285400  0.82422900  0.54727300  1
  F  F11  1  0.17577100  0.58714600  0.95272700  1
  F  F12  1  0.58714600  0.17577100  0.04727300  1
  F  F13  1  0.82422900  0.41285400  0.45272700  1
  F  F14  1  0.08714600  0.32422900  0.70272700  1
  F  F15  1  0.91285400  0.67577100  0.20272700  1
  F  F16  1  0.10599100  0.35519500  0.13870200  1
  F  F17  1  0.89400900  0.64480500  0.63870200  1
  F  F18  1  0.14480500  0.60599100  0.38870200  1
  F  F19  1  0.39400900  0.85519500  0.11129800  1
  F  F20  1  0.85519500  0.39400900  0.88870200  1
  F  F21  1  0.60599100  0.14480500  0.61129800  1
  F  F22  1  0.35519500  0.10599100  0.86129800  1
  F  F23  1  0.64480500  0.89400900  0.36129800  1
  F  F24  1  0.01168100  0.18682400  0.34888600  1
  F  F25  1  0.98831900  0.81317600  0.84888600  1
  F  F26  1  0.31317600  0.51168100  0.59888600  1
  F  F27  1  0.48831900  0.68682400  0.90111400  1
  F  F28  1  0.68682400  0.48831900  0.09888600  1
  F  F29  1  0.51168100  0.31317600  0.40111400  1
  F  F30  1  0.18682400  0.01168100  0.65111400  1
  F  F31  1  0.81317600  0.98831900  0.15111400  1
  F  F32  1  0.09418300  0.00334400  0.42730400  1
  F  F33  1  0.90581700  0.99665600  0.92730400  1
  F  F34  1  0.49665600  0.59418300  0.67730400  1
  F  F35  1  0.40581700  0.50334400  0.82269600  1
  F  F36  1  0.50334400  0.40581700  0.17730400  1
  F  F37  1  0.59418300  0.49665600  0.32269600  1
  F  F38  1  0.00334400  0.09418300  0.57269600  1
  F  F39  1  0.99665600  0.90581700  0.07269600  1
loop_
_geom_bond_atom_site_label_1
_geom_bond_atom_site_label_2
_geom_bond_distance
_geom_bond_site_symmetry_2
C0 F36 1.350982 1_555
C1 F34 1.350982 1_555
C2 F32 1.350982 1_565
C3 F39 1.350982 1_455
C4 F33 1.350982 1_545
C5 F38 1.350982 1_655
C6 F35 1.350982 1_555
C7 F37 1.350982 1_555
C8 F4 1.349731 1_555
C9 F2 1.349731 1_555
C10 F0 1.349731 1_565
C10 C47 1.401545 1_555
C11 F7 1.349731 1_455
C11 C40 1.401545 1_555
C12 F1 1.349731 1_545
C12 C46 1.401545 1_555
C13 F6 1.349731 1_655
C13 C41 1.401545 1_555
C14 F3 1.349731 1_555
C14 C44 1.401545 1_455
C15 F5 1.349731 1_555
C15 C42 1.401545 1_655
C16 F16 1.345311 1_555
C17 F17 1.345311 1_555
C18 F18 1.345311 1_555
C19 F19 1.345311 1_555
C20 F20 1.345311 1_555
C21 F21 1.345311 1_555
C22 F22 1.345311 1_555
C23 F23 1.345311 1_555
C24 F31 1.345959 1_445
C25 F30 1.345959 1_665
C26 F29 1.345959 1_555
C27 F28 1.345959 1_555
C28 F27 1.345959 1_555
C29 F26 1.345959 1_555
C30 F25 1.345959 1_445
C31 F24 1.345959 1_665
C32 F12 1.349257 1_555
C32 C40 1.403438 1_555
C33 F10 1.349257 1_555
C33 C41 1.403438 1_555
C34 F8 1.349257 1_565
C34 C42 1.403438 1_555
C35 F15 1.349257 1_455
C35 C43 1.403438 1_555
C36 F9 1.349257 1_545
C36 C44 1.403438 1_555
C37 F14 1.349257 1_655
C37 C45 1.403438 1_555
C38 F11 1.349257 1_555
C38 C46 1.403438 1_555
C39 F13 1.349257 1_555
C39 C47 1.403438 1_555
C40 S0 1.772374 1_555
C41 S1 1.772374 1_555
C42 S2 1.772374 1_555
C43 C8 1.401545 1_565
C43 S2 1.772374 1_555
C44 S3 1.772374 1_555
C45 C9 1.401545 1_545
C45 S3 1.772374 1_555
C46 S0 1.772374 1_556
C47 S1 1.772374 1_555
