# generated using pymatgen
data_Mn2Cr3(NO6)2
_symmetry_space_group_name_H-M   'P 1'
_cell_length_a   10.40062800
_cell_length_b   10.40062800
_cell_length_c   10.40062800
_cell_angle_alpha   90.00000000
_cell_angle_beta   90.00000000
_cell_angle_gamma   90.00000000
_symmetry_Int_Tables_number   1
_chemical_formula_structural   Mn2Cr3(NO6)2
_chemical_formula_sum   'Mn8 Cr12 N8 O48'
_cell_volume   1125.06778575
_cell_formula_units_Z   4
loop_
 _symmetry_equiv_pos_site_id
 _symmetry_equiv_pos_as_xyz
  1  'x, y, z'
loop_
 _atom_site_type_symbol
 _atom_site_label
 _atom_site_symmetry_multiplicity
 _atom_site_fract_x
 _atom_site_fract_y
 _atom_site_fract_z
 _atom_site_occupancy
  Mn  Mn0  1  0.33671500  0.33671500  0.33671500  1
  Mn  Mn1  1  0.16328500  0.66328500  0.83671500  1
  Mn  Mn2  1  0.66328500  0.83671500  0.16328500  1
  Mn  Mn3  1  0.83671500  0.16328500  0.66328500  1
  Mn  Mn4  1  0.60234500  0.60234500  0.60234500  1
  Mn  Mn5  1  0.89765500  0.39765500  0.10234500  1
  Mn  Mn6  1  0.39765500  0.10234500  0.89765500  1
  Mn  Mn7  1  0.10234500  0.89765500  0.39765500  1
  Cr  Cr0  1  0.01886300  0.21047900  0.37506200  1
  Cr  Cr1  1  0.48113700  0.78952100  0.87506200  1
  Cr  Cr2  1  0.98113700  0.71047900  0.12493800  1
  Cr  Cr3  1  0.37506200  0.01886300  0.21047900  1
  Cr  Cr4  1  0.51886300  0.28952100  0.62493800  1
  Cr  Cr5  1  0.87506200  0.48113700  0.78952100  1
  Cr  Cr6  1  0.12493800  0.98113700  0.71047900  1
  Cr  Cr7  1  0.62493800  0.51886300  0.28952100  1
  Cr  Cr8  1  0.21047900  0.37506200  0.01886300  1
  Cr  Cr9  1  0.71047900  0.12493800  0.98113700  1
  Cr  Cr10  1  0.28952100  0.62493800  0.51886300  1
  Cr  Cr11  1  0.78952100  0.87506200  0.48113700  1
  N  N0  1  0.04714600  0.04714600  0.04714600  1
  N  N1  1  0.45285400  0.95285400  0.54714600  1
  N  N2  1  0.95285400  0.54714600  0.45285400  1
  N  N3  1  0.54714600  0.45285400  0.95285400  1
  N  N4  1  0.81830700  0.81830700  0.81830700  1
  N  N5  1  0.68169300  0.18169300  0.31830700  1
  N  N6  1  0.18169300  0.31830700  0.68169300  1
  N  N7  1  0.31830700  0.68169300  0.18169300  1
  O  O0  1  0.01400600  0.05298700  0.33168700  1
  O  O1  1  0.48599400  0.94701300  0.83168700  1
  O  O2  1  0.98599400  0.55298700  0.16831300  1
  O  O3  1  0.33168700  0.01400600  0.05298700  1
  O  O4  1  0.51400600  0.44701300  0.66831300  1
  O  O5  1  0.83168700  0.48599400  0.94701300  1
  O  O6  1  0.16831300  0.98599400  0.55298700  1
  O  O7  1  0.66831300  0.51400600  0.44701300  1
  O  O8  1  0.05298700  0.33168700  0.01400600  1
  O  O9  1  0.55298700  0.16831300  0.98599400  1
  O  O10  1  0.44701300  0.66831300  0.51400600  1
  O  O11  1  0.94701300  0.83168700  0.48599400  1
  O  O12  1  0.26984300  0.48893500  0.43719100  1
  O  O13  1  0.23015700  0.51106500  0.93719100  1
  O  O14  1  0.73015700  0.98893500  0.06280900  1
  O  O15  1  0.43719100  0.26984300  0.48893500  1
  O  O16  1  0.76984300  0.01106500  0.56280900  1
  O  O17  1  0.93719100  0.23015700  0.51106500  1
  O  O18  1  0.06280900  0.73015700  0.98893500  1
  O  O19  1  0.56280900  0.76984300  0.01106500  1
  O  O20  1  0.48893500  0.43719100  0.26984300  1
  O  O21  1  0.98893500  0.06280900  0.73015700  1
  O  O22  1  0.01106500  0.56280900  0.76984300  1
  O  O23  1  0.51106500  0.93719100  0.23015700  1
  O  O24  1  0.04727500  0.80175700  0.23880500  1
  O  O25  1  0.45272500  0.19824300  0.73880500  1
  O  O26  1  0.95272500  0.30175700  0.26119500  1
  O  O27  1  0.23880500  0.04727500  0.80175700  1
  O  O28  1  0.54727500  0.69824300  0.76119500  1
  O  O29  1  0.73880500  0.45272500  0.19824300  1
  O  O30  1  0.26119500  0.95272500  0.30175700  1
  O  O31  1  0.76119500  0.54727500  0.69824300  1
  O  O32  1  0.80175700  0.23880500  0.04727500  1
  O  O33  1  0.30175700  0.26119500  0.95272500  1
  O  O34  1  0.69824300  0.76119500  0.54727500  1
  O  O35  1  0.19824300  0.73880500  0.45272500  1
  O  O36  1  0.17154800  0.25051700  0.39823600  1
  O  O37  1  0.32845200  0.74948300  0.89823600  1
  O  O38  1  0.82845200  0.75051700  0.10176400  1
  O  O39  1  0.39823600  0.17154800  0.25051700  1
  O  O40  1  0.67154800  0.24948300  0.60176400  1
  O  O41  1  0.89823600  0.32845200  0.74948300  1
  O  O42  1  0.10176400  0.82845200  0.75051700  1
  O  O43  1  0.60176400  0.67154800  0.24948300  1
  O  O44  1  0.25051700  0.39823600  0.17154800  1
  O  O45  1  0.75051700  0.10176400  0.82845200  1
  O  O46  1  0.24948300  0.60176400  0.67154800  1
  O  O47  1  0.74948300  0.89823600  0.32845200  1
loop_
_geom_bond_atom_site_label_1
_geom_bond_atom_site_label_2
_geom_bond_distance
_geom_bond_site_symmetry_2
Mn0 O15 2.020460 1_555
Mn0 O12 2.020460 1_555
Mn0 O20 2.020460 1_555
Mn0 O44 2.040620 1_555
Mn0 O39 2.040620 1_555
Mn0 O36 2.040620 1_555
Mn1 O18 2.020460 1_555
Mn1 O22 2.020460 1_555
Mn1 O13 2.020460 1_555
Mn1 O42 2.040620 1_555
Mn1 O37 2.040620 1_555
Mn1 O46 2.040620 1_555
Mn2 O14 2.020460 1_555
Mn2 O19 2.020460 1_555
Mn2 O23 2.020460 1_555
Mn2 O38 2.040620 1_555
Mn2 O47 2.040620 1_555
Mn2 O43 2.040620 1_555
Mn3 O21 2.020460 1_555
Mn3 O16 2.020460 1_555
Mn3 O17 2.020460 1_555
Mn3 O45 2.040620 1_555
Mn3 O41 2.040620 1_555
Mn3 O40 2.040620 1_555
Mn4 O4 1.981138 1_555
Mn4 O10 1.981138 1_555
Mn4 O7 1.981138 1_555
Mn4 O28 2.013064 1_555
Mn4 O34 2.013064 1_555
Mn4 O31 2.013064 1_555
Mn5 O5 1.981138 1_554
Mn5 O8 1.981138 1_655
Mn5 O2 1.981138 1_555
Mn5 O32 2.013064 1_555
Mn5 O26 2.013064 1_555
Mn5 O29 2.013064 1_555
Mn6 O1 1.981138 1_545
Mn6 O3 1.981138 1_556
Mn6 O9 1.981138 1_555
Mn6 O27 2.013064 1_555
Mn6 O33 2.013064 1_555
Mn6 O25 2.013064 1_555
Mn7 O11 1.981138 1_455
Mn7 O0 1.981138 1_565
Mn7 O6 1.981138 1_555
Mn7 O24 2.013064 1_555
Mn7 O30 2.013064 1_555
Mn7 O35 2.013064 1_555
Cr0 O36 1.659309 1_555
Cr0 O17 1.662616 1_455
Cr0 O26 1.666426 1_455
Cr0 O0 1.699754 1_555
Cr1 O37 1.659309 1_555
Cr1 O19 1.662616 1_556
Cr1 O28 1.666426 1_555
Cr1 O1 1.699754 1_555
Cr2 O38 1.659309 1_555
Cr2 O18 1.662616 1_654
Cr2 O24 1.666426 1_655
Cr2 O2 1.699754 1_555
Cr3 O39 1.659309 1_555
Cr3 O23 1.662616 1_545
Cr3 O30 1.666426 1_545
Cr3 O3 1.699754 1_555
Cr4 O40 1.659309 1_555
Cr4 O15 1.662616 1_555
Cr4 O25 1.666426 1_555
Cr4 O4 1.699754 1_555
Cr5 O41 1.659309 1_555
Cr5 O22 1.662616 1_655
Cr5 O31 1.666426 1_555
Cr5 O5 1.699754 1_555
Cr6 O42 1.659309 1_555
Cr6 O21 1.662616 1_465
Cr6 O27 1.666426 1_565
Cr6 O6 1.699754 1_555
Cr7 O43 1.659309 1_555
Cr7 O20 1.662616 1_555
Cr7 O29 1.666426 1_555
Cr7 O7 1.699754 1_555
Cr8 O44 1.659309 1_555
Cr8 O13 1.662616 1_554
Cr8 O33 1.666426 1_554
Cr8 O8 1.699754 1_555
Cr9 O45 1.659309 1_555
Cr9 O14 1.662616 1_546
Cr9 O32 1.666426 1_556
Cr9 O9 1.699754 1_555
Cr10 O46 1.659309 1_555
Cr10 O12 1.662616 1_555
Cr10 O35 1.666426 1_555
Cr10 O10 1.699754 1_555
Cr11 O47 1.659309 1_555
Cr11 O16 1.662616 1_565
Cr11 O34 1.666426 1_555
Cr11 O11 1.699754 1_555
