# generated using pymatgen
data_Mg5Hg
_symmetry_space_group_name_H-M   'P 1'
_cell_length_a   16.24450924
_cell_length_b   16.24450924
_cell_length_c   9.93641664
_cell_angle_alpha   90.00000000
_cell_angle_beta   90.00000000
_cell_angle_gamma   156.79385822
_symmetry_Int_Tables_number   1
_chemical_formula_structural   Mg5Hg
_chemical_formula_sum   'Mg40 Hg8'
_cell_volume   1033.19851315
_cell_formula_units_Z   8
loop_
 _symmetry_equiv_pos_site_id
 _symmetry_equiv_pos_as_xyz
  1  'x, y, z'
loop_
 _atom_site_type_symbol
 _atom_site_label
 _atom_site_symmetry_multiplicity
 _atom_site_fract_x
 _atom_site_fract_y
 _atom_site_fract_z
 _atom_site_occupancy
  Mg  Mg0_0  1  0.99999038  0.00000962  0.25000000  1
  Mg  Mg0_1  1  0.99999038  0.00000962  0.75000000  1
  Mg  Mg0_2  1  0.99999038  0.50000962  0.25000000  1
  Mg  Mg0_3  1  0.99999038  0.50000962  0.75000000  1
  Mg  Mg0_4  1  0.49999038  0.00000962  0.25000000  1
  Mg  Mg0_5  1  0.49999038  0.00000962  0.75000000  1
  Mg  Mg0_6  1  0.49999038  0.50000962  0.25000000  1
  Mg  Mg0_7  1  0.49999038  0.50000962  0.75000000  1
  Mg  Mg1_0  1  0.33583363  0.16416637  0.25000000  1
  Mg  Mg1_1  1  0.33583363  0.16416637  0.75000000  1
  Mg  Mg1_2  1  0.33583363  0.66416637  0.25000000  1
  Mg  Mg1_3  1  0.33583363  0.66416637  0.75000000  1
  Mg  Mg1_4  1  0.83583363  0.16416637  0.25000000  1
  Mg  Mg1_5  1  0.83583363  0.16416637  0.75000000  1
  Mg  Mg1_6  1  0.83583363  0.66416637  0.25000000  1
  Mg  Mg1_7  1  0.83583363  0.66416637  0.75000000  1
  Mg  Mg2_0  1  0.16706185  0.33293815  0.25000000  1
  Mg  Mg2_1  1  0.16706185  0.33293815  0.75000000  1
  Mg  Mg2_2  1  0.16706185  0.83293815  0.25000000  1
  Mg  Mg2_3  1  0.16706185  0.83293815  0.75000000  1
  Mg  Mg2_4  1  0.66706185  0.33293815  0.25000000  1
  Mg  Mg2_5  1  0.66706185  0.33293815  0.75000000  1
  Mg  Mg2_6  1  0.66706185  0.83293815  0.25000000  1
  Mg  Mg2_7  1  0.66706185  0.83293815  0.75000000  1
  Mg  Mg3_0  1  0.27860217  0.22139783  0.00000000  1
  Mg  Mg3_1  1  0.27860217  0.22139783  0.50000000  1
  Mg  Mg3_2  1  0.27860217  0.72139783  0.00000000  1
  Mg  Mg3_3  1  0.27860217  0.72139783  0.50000000  1
  Mg  Mg3_4  1  0.77860217  0.22139783  0.00000000  1
  Mg  Mg3_5  1  0.77860217  0.22139783  0.50000000  1
  Mg  Mg3_6  1  0.77860217  0.72139783  0.00000000  1
  Mg  Mg3_7  1  0.77860217  0.72139783  0.50000000  1
  Mg  Mg4_0  1  0.44099496  0.05900504  0.00000000  1
  Mg  Mg4_1  1  0.44099496  0.05900504  0.50000000  1
  Mg  Mg4_2  1  0.44099497  0.55900503  0.00000000  1
  Mg  Mg4_3  1  0.44099497  0.55900503  0.50000000  1
  Mg  Mg4_4  1  0.94099497  0.05900504  0.00000000  1
  Mg  Mg4_5  1  0.94099497  0.05900504  0.50000000  1
  Mg  Mg4_6  1  0.94099497  0.55900503  0.00000000  1
  Mg  Mg4_7  1  0.94099497  0.55900503  0.50000000  1
  Hg  Hg0_0  1  0.11085251  0.38914749  0.00000000  1
  Hg  Hg0_1  1  0.11085251  0.38914749  0.50000000  1
  Hg  Hg0_2  1  0.11085252  0.88914748  0.00000000  1
  Hg  Hg0_3  1  0.11085252  0.88914748  0.50000000  1
  Hg  Hg0_4  1  0.61085251  0.38914749  0.00000000  1
  Hg  Hg0_5  1  0.61085251  0.38914749  0.50000000  1
  Hg  Hg0_6  1  0.61085252  0.88914748  0.00000000  1
  Hg  Hg0_7  1  0.61085252  0.88914748  0.50000000  1
loop_
_geom_bond_atom_site_label_1
_geom_bond_atom_site_label_2
_geom_bond_distance
_geom_bond_site_symmetry_2
Mg0_0 Mg2_6 3.103896 1_545
Mg0_0 Mg2_0 3.103896 1_655
Mg0_0 Mg3_6 3.109449 1_545
Mg0_0 Mg3_7 3.109449 1_545
Mg0_0 Mg3_0 3.109449 1_655
Mg0_0 Mg3_1 3.109449 1_655
Mg0_0 Mg4_4 3.113825 1_555
Mg0_0 Mg4_5 3.113825 1_555
Mg0_0 Mg1_0 3.183145 1_655
Mg0_0 Mg1_6 3.183145 1_545
Mg0_0 Mg0_6 3.267265 1_545
Mg0_0 Mg0_6 3.267265 1_655
Mg0_1 Mg2_7 3.103896 1_545
Mg0_1 Mg2_1 3.103896 1_655
Mg0_1 Mg3_6 3.109449 1_546
Mg0_1 Mg3_0 3.109449 1_656
Mg0_1 Mg3_7 3.109449 1_545
Mg0_1 Mg3_1 3.109449 1_655
Mg0_1 Mg4_4 3.113825 1_556
Mg0_1 Mg4_5 3.113825 1_555
Mg0_1 Mg1_1 3.183145 1_655
Mg0_1 Mg1_7 3.183145 1_545
Mg0_1 Mg0_7 3.267265 1_545
Mg0_1 Mg0_7 3.267265 1_655
Mg0_2 Mg2_2 3.103896 1_655
Mg0_2 Mg2_4 3.103896 1_555
Mg0_2 Mg3_4 3.109449 1_555
Mg0_2 Mg3_5 3.109449 1_555
Mg0_2 Mg3_3 3.109449 1_655
Mg0_2 Mg3_2 3.109449 1_655
Mg0_2 Mg4_6 3.113825 1_555
Mg0_2 Mg4_7 3.113825 1_555
Mg0_2 Mg1_2 3.183145 1_655
Mg0_2 Mg1_4 3.183145 1_555
Mg0_2 Mg0_4 3.267265 1_665
Mg0_2 Mg0_4 3.267265 1_555
Mg0_3 Mg2_3 3.103896 1_655
Mg0_3 Mg2_5 3.103896 1_555
Mg0_3 Mg3_4 3.109449 1_556
Mg0_3 Mg3_2 3.109449 1_656
Mg0_3 Mg3_5 3.109449 1_555
Mg0_3 Mg3_3 3.109449 1_655
Mg0_3 Mg4_6 3.113825 1_556
Mg0_3 Mg4_7 3.113825 1_555
Mg0_3 Mg1_3 3.183145 1_655
Mg0_3 Mg1_5 3.183145 1_555
Mg0_3 Mg0_5 3.267265 1_665
Mg0_3 Mg0_5 3.267265 1_555
Mg0_4 Mg2_2 3.103896 1_545
Mg0_4 Mg2_4 3.103896 1_555
Mg0_4 Mg3_3 3.109449 1_545
Mg0_4 Mg3_2 3.109449 1_545
Mg0_4 Mg3_4 3.109449 1_555
Mg0_4 Mg3_5 3.109449 1_555
Mg0_4 Mg4_0 3.113825 1_555
Mg0_4 Mg4_1 3.113825 1_555
Mg0_4 Mg1_2 3.183145 1_545
Mg0_4 Mg1_4 3.183145 1_555
Mg0_5 Mg2_3 3.103896 1_545
Mg0_5 Mg2_5 3.103896 1_555
Mg0_5 Mg3_4 3.109449 1_556
Mg0_5 Mg3_2 3.109449 1_546
Mg0_5 Mg3_5 3.109449 1_555
Mg0_5 Mg3_3 3.109449 1_545
Mg0_5 Mg4_0 3.113825 1_556
Mg0_5 Mg4_1 3.113825 1_555
Mg0_5 Mg1_3 3.183145 1_545
Mg0_5 Mg1_5 3.183145 1_555
Mg0_6 Mg2_6 3.103896 1_555
Mg0_6 Mg2_0 3.103896 1_555
Mg0_6 Mg3_0 3.109449 1_555
Mg0_6 Mg3_7 3.109449 1_555
Mg0_6 Mg3_1 3.109449 1_555
Mg0_6 Mg3_6 3.109449 1_555
Mg0_6 Mg4_2 3.113825 1_555
Mg0_6 Mg4_3 3.113825 1_555
Mg0_6 Mg1_6 3.183145 1_555
Mg0_6 Mg1_0 3.183145 1_555
Mg0_7 Mg2_7 3.103896 1_555
Mg0_7 Mg2_1 3.103896 1_555
Mg0_7 Mg3_6 3.109449 1_556
Mg0_7 Mg3_0 3.109449 1_556
Mg0_7 Mg3_7 3.109449 1_555
Mg0_7 Mg3_1 3.109449 1_555
Mg0_7 Mg4_2 3.113825 1_556
Mg0_7 Mg4_3 3.113825 1_555
Mg0_7 Mg1_7 3.183145 1_555
Mg0_7 Mg1_1 3.183145 1_555
Hg0_0 Mg4_4 3.028863 1_455
Hg0_0 Mg4_2 3.028863 1_555
Hg0_0 Mg2_1 3.061179 1_554
Hg0_0 Mg2_0 3.061179 1_555
Hg0_0 Mg1_5 3.077906 1_454
Hg0_0 Mg1_3 3.077906 1_554
Hg0_0 Mg1_4 3.077906 1_455
Hg0_0 Mg1_2 3.077906 1_555
Hg0_0 Mg3_2 3.085565 1_555
Hg0_0 Mg3_4 3.085565 1_455
Hg0_1 Mg4_5 3.028863 1_455
Hg0_1 Mg4_3 3.028863 1_555
Hg0_1 Mg2_0 3.061179 1_555
Hg0_1 Mg2_1 3.061179 1_555
Hg0_1 Mg1_4 3.077906 1_455
Hg0_1 Mg1_2 3.077906 1_555
Hg0_1 Mg1_5 3.077906 1_455
Hg0_1 Mg1_3 3.077906 1_555
Hg0_1 Mg3_5 3.085565 1_455
Hg0_1 Mg3_3 3.085565 1_555
Hg0_2 Mg4_0 3.028863 1_565
Hg0_2 Mg4_6 3.028863 1_455
Hg0_2 Mg2_3 3.061179 1_554
Hg0_2 Mg2_2 3.061179 1_555
Hg0_2 Mg1_7 3.077906 1_454
Hg0_2 Mg1_1 3.077906 1_564
Hg0_2 Mg1_0 3.077906 1_565
Hg0_2 Mg1_6 3.077906 1_455
Hg0_2 Mg3_0 3.085565 1_565
Hg0_2 Mg3_6 3.085565 1_455
Hg0_3 Mg4_1 3.028863 1_565
Hg0_3 Mg4_7 3.028863 1_455
Hg0_3 Mg2_2 3.061179 1_555
Hg0_3 Mg2_3 3.061179 1_555
Hg0_3 Mg1_0 3.077906 1_565
Hg0_3 Mg1_6 3.077906 1_455
Hg0_3 Mg1_7 3.077906 1_455
Hg0_3 Mg1_1 3.077906 1_565
Hg0_3 Mg3_1 3.085565 1_565
Hg0_3 Mg3_7 3.085565 1_455
Hg0_4 Mg4_0 3.028863 1_555
Hg0_4 Mg4_6 3.028863 1_555
Hg0_4 Mg2_5 3.061179 1_554
Hg0_4 Mg2_4 3.061179 1_555
Hg0_4 Mg1_7 3.077906 1_554
Hg0_4 Mg1_1 3.077906 1_554
Hg0_4 Mg1_6 3.077906 1_555
Hg0_4 Mg1_0 3.077906 1_555
Hg0_4 Mg3_6 3.085565 1_555
Hg0_4 Mg3_0 3.085565 1_555
Hg0_5 Mg4_1 3.028863 1_555
Hg0_5 Mg4_7 3.028863 1_555
Hg0_5 Mg2_4 3.061179 1_555
Hg0_5 Mg2_5 3.061179 1_555
Hg0_5 Mg1_6 3.077906 1_555
Hg0_5 Mg1_0 3.077906 1_555
Hg0_5 Mg1_1 3.077906 1_555
Hg0_5 Mg1_7 3.077906 1_555
Hg0_5 Mg3_7 3.085565 1_555
Hg0_5 Mg3_1 3.085565 1_555
Hg0_6 Mg4_2 3.028863 1_555
Hg0_6 Mg4_4 3.028863 1_565
Hg0_6 Mg2_7 3.061179 1_554
Hg0_6 Mg2_6 3.061179 1_555
Hg0_6 Mg1_3 3.077906 1_554
Hg0_6 Mg1_5 3.077906 1_564
Hg0_6 Mg1_4 3.077906 1_565
Hg0_6 Mg1_2 3.077906 1_555
Hg0_6 Mg3_4 3.085565 1_565
Hg0_6 Mg3_2 3.085565 1_555
Hg0_7 Mg4_5 3.028863 1_565
Hg0_7 Mg4_3 3.028863 1_555
Hg0_7 Mg2_6 3.061179 1_555
Hg0_7 Mg2_7 3.061179 1_555
Hg0_7 Mg1_4 3.077906 1_565
Hg0_7 Mg1_2 3.077906 1_555
Hg0_7 Mg1_3 3.077906 1_555
Hg0_7 Mg1_5 3.077906 1_565
Hg0_7 Mg3_5 3.085565 1_565
Hg0_7 Mg3_3 3.085565 1_555
