# generated using pymatgen
data_NaDyP2H2CO7
_symmetry_space_group_name_H-M   'P 1'
_cell_length_a   15.16064100
_cell_length_b   6.61542000
_cell_length_c   6.71855826
_cell_angle_alpha   88.60080198
_cell_angle_beta   90.00000000
_cell_angle_gamma   90.00000000
_symmetry_Int_Tables_number   1
_chemical_formula_structural   NaDyP2H2CO7
_chemical_formula_sum   'Na4 Dy4 P8 H8 C4 O28'
_cell_volume   673.63021878
_cell_formula_units_Z   4
loop_
 _symmetry_equiv_pos_site_id
 _symmetry_equiv_pos_as_xyz
  1  'x, y, z'
loop_
 _atom_site_type_symbol
 _atom_site_label
 _atom_site_symmetry_multiplicity
 _atom_site_fract_x
 _atom_site_fract_y
 _atom_site_fract_z
 _atom_site_occupancy
  Na  Na0  1  0.52770400  0.86072700  0.20385500  1
  Na  Na1  1  0.02770400  0.63927300  0.79614500  1
  Na  Na2  1  0.47229600  0.13927300  0.79614500  1
  Na  Na3  1  0.97229600  0.36072700  0.20385500  1
  Dy  Dy0  1  0.39758400  0.40322800  0.32528300  1
  Dy  Dy1  1  0.89758400  0.09677200  0.67471700  1
  Dy  Dy2  1  0.60241600  0.59677200  0.67471700  1
  Dy  Dy3  1  0.10241600  0.90322800  0.32528300  1
  P  P0  1  0.59210000  0.36866700  0.18164500  1
  P  P1  1  0.09210000  0.13133300  0.81835500  1
  P  P2  1  0.40790000  0.63133300  0.81835500  1
  P  P3  1  0.90790000  0.86866700  0.18164500  1
  P  P4  1  0.33899400  0.89755500  0.46748200  1
  P  P5  1  0.83899400  0.60244500  0.53251800  1
  P  P6  1  0.66100600  0.10244500  0.53251800  1
  P  P7  1  0.16100600  0.39755500  0.46748200  1
  H  H0  1  0.70052400  0.10610900  0.17774000  1
  H  H1  1  0.20052400  0.39389100  0.82226000  1
  H  H2  1  0.29947600  0.89389100  0.82226000  1
  H  H3  1  0.79947600  0.60610900  0.17774000  1
  H  H4  1  0.73876600  0.32140300  0.30274900  1
  H  H5  1  0.23876600  0.17859700  0.69725100  1
  H  H6  1  0.26123400  0.67859700  0.69725100  1
  H  H7  1  0.76123400  0.82140300  0.30274900  1
  C  C0  1  0.68183600  0.22053000  0.28681500  1
  C  C1  1  0.18183600  0.27947000  0.71318500  1
  C  C2  1  0.31816400  0.77947000  0.71318500  1
  C  C3  1  0.81816400  0.72053000  0.28681500  1
  O  O0  1  0.39608800  0.75307600  0.34765000  1
  O  O1  1  0.89608800  0.74692400  0.65235000  1
  O  O2  1  0.60391200  0.24692400  0.65235000  1
  O  O3  1  0.10391200  0.25307600  0.34765000  1
  O  O4  1  0.55778000  0.52322200  0.33368800  1
  O  O5  1  0.05778000  0.97677800  0.66631200  1
  O  O6  1  0.44222000  0.47677800  0.66631200  1
  O  O7  1  0.94222000  0.02322200  0.33368800  1
  O  O8  1  0.38781700  0.09838600  0.50249000  1
  O  O9  1  0.88781700  0.40161400  0.49751000  1
  O  O10  1  0.61218300  0.90161400  0.49751000  1
  O  O11  1  0.11218300  0.59838600  0.50249000  1
  O  O12  1  0.24710900  0.93379300  0.37568300  1
  O  O13  1  0.74710900  0.56620700  0.62431700  1
  O  O14  1  0.75289100  0.06620700  0.62431700  1
  O  O15  1  0.25289100  0.43379300  0.37568300  1
  O  O16  1  0.51413000  0.22258900  0.14040700  1
  O  O17  1  0.01413000  0.27741100  0.85959300  1
  O  O18  1  0.48587000  0.77741100  0.85959300  1
  O  O19  1  0.98587000  0.72258900  0.14040700  1
  O  O20  1  0.62631600  0.47874300  0.99285300  1
  O  O21  1  0.12631600  0.02125700  0.00714700  1
  O  O22  1  0.37368400  0.52125700  0.00714700  1
  O  O23  1  0.87368400  0.97874300  0.99285300  1
  O  O24  1  0.33872000  0.17004800  0.08967600  1
  O  O25  1  0.83872000  0.32995200  0.91032400  1
  O  O26  1  0.66128000  0.82995200  0.91032400  1
  O  O27  1  0.16128000  0.67004800  0.08967600  1
loop_
_geom_bond_atom_site_label_1
_geom_bond_atom_site_label_2
_geom_bond_distance
_geom_bond_site_symmetry_2
Na0 O0 2.321306 1_555
Na0 O10 2.373193 1_555
Na0 O4 2.420496 1_555
Na0 O16 2.429987 1_565
Na0 O18 2.473460 1_554
Na0 O26 2.837477 1_554
Na1 O1 2.321306 1_455
Na1 O11 2.373193 1_555
Na1 O5 2.420496 1_555
Na1 O17 2.429987 1_555
Na1 O19 2.473460 1_456
Na1 O27 2.837477 1_556
Na2 O2 2.321306 1_555
Na2 O8 2.373193 1_555
Na2 O6 2.420496 1_555
Na2 O18 2.429987 1_545
Na2 O16 2.473460 1_556
Na2 O24 2.837477 1_556
Na3 O3 2.321306 1_655
Na3 O9 2.373193 1_555
Na3 O7 2.420496 1_555
Na3 O19 2.429987 1_555
Na3 O17 2.473460 1_654
Na3 O25 2.837477 1_554
Dy0 O15 2.229560 1_555
Dy0 O22 2.286481 1_555
Dy0 O8 2.321433 1_555
Dy0 O0 2.323035 1_555
Dy0 O24 2.408509 1_555
Dy0 O6 2.449251 1_555
Dy0 O16 2.483005 1_555
Dy0 O4 2.556163 1_555
Dy1 O14 2.229560 1_555
Dy1 O23 2.286481 1_545
Dy1 O9 2.321433 1_555
Dy1 O1 2.323035 1_545
Dy1 O25 2.408509 1_555
Dy1 O7 2.449251 1_555
Dy1 O17 2.483005 1_655
Dy1 O5 2.556163 1_645
Dy2 O13 2.229560 1_555
Dy2 O20 2.286481 1_555
Dy2 O10 2.321433 1_555
Dy2 O2 2.323035 1_555
Dy2 O26 2.408509 1_555
Dy2 O4 2.449251 1_555
Dy2 O18 2.483005 1_555
Dy2 O6 2.556163 1_555
Dy3 O12 2.229560 1_555
Dy3 O21 2.286481 1_565
Dy3 O11 2.321433 1_555
Dy3 O3 2.323035 1_565
Dy3 O27 2.408509 1_555
Dy3 O5 2.449251 1_555
Dy3 O19 2.483005 1_455
Dy3 O7 2.556163 1_465
C0 H4 1.097814 1_555
C0 H0 1.103340 1_555
C0 P0 1.810157 1_555
C0 P6 1.836311 1_555
C1 H5 1.097814 1_555
C1 H1 1.103340 1_555
C1 P1 1.810157 1_555
C1 P7 1.836311 1_555
C2 H6 1.097814 1_555
C2 H2 1.103340 1_555
C2 P2 1.810157 1_555
C2 P4 1.836311 1_555
C3 H7 1.097814 1_555
C3 H3 1.103340 1_555
C3 P3 1.810157 1_555
C3 P5 1.836311 1_555
O0 P4 1.532491 1_555
O1 P5 1.532491 1_555
O2 P6 1.532491 1_555
O3 P7 1.532491 1_555
O4 P0 1.552614 1_555
O5 P1 1.552614 1_565
O6 P2 1.552614 1_555
O7 P3 1.552614 1_545
O8 P4 1.543887 1_545
O9 P5 1.543887 1_555
O10 P6 1.543887 1_565
O11 P7 1.543887 1_555
O12 P4 1.539866 1_555
O13 P5 1.539866 1_555
O14 P6 1.539866 1_555
O15 P7 1.539866 1_555
O16 P0 1.555958 1_555
O17 P1 1.555958 1_555
O18 P2 1.555958 1_555
O19 P3 1.555958 1_555
O20 P0 1.537243 1_556
O21 P1 1.537243 1_554
O22 P2 1.537243 1_554
O23 P3 1.537243 1_556
