# generated using pymatgen
data_SnO2
_symmetry_space_group_name_H-M   'P 1'
_cell_length_a   10.74358461
_cell_length_b   10.73813333
_cell_length_c   10.86256744
_cell_angle_alpha   89.35655089
_cell_angle_beta   86.09035637
_cell_angle_gamma   94.92151976
_symmetry_Int_Tables_number   1
_chemical_formula_structural   SnO2
_chemical_formula_sum   'Sn30 O60'
_cell_volume   1245.46166297
_cell_formula_units_Z   30
loop_
 _symmetry_equiv_pos_site_id
 _symmetry_equiv_pos_as_xyz
  1  'x, y, z'
loop_
 _atom_site_type_symbol
 _atom_site_label
 _atom_site_symmetry_multiplicity
 _atom_site_fract_x
 _atom_site_fract_y
 _atom_site_fract_z
 _atom_site_occupancy
  Sn  Sn0  1  0.97946500  0.24955800  0.17356700  1
  Sn  Sn1  1  0.54699800  0.49213600  0.96362300  1
  Sn  Sn2  1  0.94472000  0.82873900  0.71168400  1
  Sn  Sn3  1  0.38884200  0.64069700  0.73965400  1
  Sn  Sn4  1  0.06078700  0.51454100  0.86405700  1
  Sn  Sn5  1  0.80089900  0.54708200  0.70881300  1
  Sn  Sn6  1  0.33672800  0.30232900  0.71204100  1
  Sn  Sn7  1  0.64575900  0.31595500  0.23096600  1
  Sn  Sn8  1  0.09032800  0.59979000  0.51890600  1
  Sn  Sn9  1  0.49530600  0.07647900  0.10425900  1
  Sn  Sn10  1  0.86294600  0.67293200  0.02157600  1
  Sn  Sn11  1  0.38167400  0.77790600  0.30222300  1
  Sn  Sn12  1  0.20785000  0.74052800  0.01492300  1
  Sn  Sn13  1  0.55675700  0.80126800  0.95402300  1
  Sn  Sn14  1  0.45697200  0.46251000  0.48961500  1
  Sn  Sn15  1  0.27702000  0.30276500  0.99724300  1
  Sn  Sn16  1  0.95907600  0.98844600  0.01311400  1
  Sn  Sn17  1  0.13713900  0.26124700  0.45956700  1
  Sn  Sn18  1  0.88057100  0.76684900  0.33154000  1
  Sn  Sn19  1  0.60874600  0.78551900  0.56760400  1
  Sn  Sn20  1  0.20498600  0.01212100  0.24702600  1
  Sn  Sn21  1  0.27208400  0.49309000  0.24376200  1
  Sn  Sn22  1  0.00972900  0.12812000  0.73311000  1
  Sn  Sn23  1  0.62440600  0.62133300  0.25527000  1
  Sn  Sn24  1  0.24385800  0.00772200  0.87800400  1
  Sn  Sn25  1  0.26205800  0.90010100  0.57172100  1
  Sn  Sn26  1  0.84816900  0.05768800  0.48233800  1
  Sn  Sn27  1  0.54229800  0.07261700  0.47262000  1
  Sn  Sn28  1  0.78371200  0.28898300  0.93241500  1
  Sn  Sn29  1  0.85875400  0.34650700  0.45301600  1
  O  O0  1  0.89849800  0.44288900  0.97087600  1
  O  O1  1  0.21626600  0.64602200  0.84217700  1
  O  O2  1  0.31302900  0.48112400  0.63686000  1
  O  O3  1  0.63180600  0.47836100  0.12536400  1
  O  O4  1  0.83365300  0.35388300  0.25502900  1
  O  O5  1  0.61029100  0.44232300  0.36468900  1
  O  O6  1  0.21398800  0.62148800  0.37292900  1
  O  O7  1  0.86554000  0.16257300  0.05392300  1
  O  O8  1  0.50206800  0.87539900  0.42574400  1
  O  O9  1  0.44396900  0.59736900  0.34177000  1
  O  O10  1  0.34883000  0.17272800  0.85046800  1
  O  O11  1  0.90628500  0.97067500  0.82658500  1
  O  O12  1  0.41561700  0.40137100  0.85899200  1
  O  O13  1  0.09552800  0.76340000  0.61548100  1
  O  O14  1  0.34418700  0.74224700  0.59493300  1
  O  O15  1  0.04875800  0.61819400  0.03087900  1
  O  O16  1  0.35080600  0.87288800  0.94375500  1
  O  O17  1  0.04622600  0.42281600  0.44279700  1
  O  O18  1  0.93620400  0.64322100  0.44327100  1
  O  O19  1  0.99836600  0.50649300  0.68354000  1
  O  O20  1  0.14470300  0.36012100  0.14670300  1
  O  O21  1  0.23562100  0.87164500  0.39261400  1
  O  O22  1  0.96666800  0.98037500  0.59262100  1
  O  O23  1  0.46956100  0.29240700  0.57144900  1
  O  O24  1  0.81350600  0.63819800  0.20452400  1
  O  O25  1  0.68763000  0.42937000  0.83751600  1
  O  O26  1  0.97944800  0.20450600  0.35242500  1
  O  O27  1  0.09301400  0.12214100  0.90672000  1
  O  O28  1  0.75550100  0.44056300  0.56858700  1
  O  O29  1  0.72114200  0.18852800  0.44285700  1
  O  O30  1  0.16667900  0.36671500  0.86768000  1
  O  O31  1  0.67788100  0.97434100  0.56399000  1
  O  O32  1  0.13667300  0.83165800  0.18764200  1
  O  O33  1  0.61878200  0.24451700  0.04965000  1
  O  O34  1  0.17120300  0.23286000  0.64137800  1
  O  O35  1  0.68147200  0.65864600  0.95129600  1
  O  O36  1  0.54326400  0.75827000  0.16194000  1
  O  O37  1  0.53298400  0.79505900  0.75325200  1
  O  O38  1  0.37603800  0.94223500  0.19897300  1
  O  O39  1  0.44163900  0.63738100  0.92611200  1
  O  O40  1  0.10337400  0.87761500  0.94860500  1
  O  O41  1  0.59752800  0.98368400  0.98299300  1
  O  O42  1  0.86830400  0.23344400  0.78361100  1
  O  O43  1  0.06241100  0.07841700  0.15166200  1
  O  O44  1  0.94479300  0.21140400  0.56683900  1
  O  O45  1  0.86961500  0.94965500  0.33956300  1
  O  O46  1  0.38802200  0.41716100  0.10409800  1
  O  O47  1  0.78216200  0.73189900  0.65279400  1
  O  O48  1  0.21544800  0.11122300  0.39868100  1
  O  O49  1  0.54236500  0.59569900  0.60763600  1
  O  O50  1  0.92000100  0.66949200  0.83259900  1
  O  O51  1  0.16743700  0.97781100  0.71495500  1
  O  O52  1  0.30165000  0.66357400  0.15014500  1
  O  O53  1  0.00229800  0.82265200  0.17385000  1
  O  O54  1  0.30158200  0.37297300  0.38692100  1
  O  O55  1  0.69468400  0.72339800  0.40090600  1
  O  O56  1  0.31394800  0.13585000  0.08885000  1
  O  O57  1  0.82160600  0.85247800  0.04478800  1
  O  O58  1  0.39591500  0.04292400  0.59557100  1
  O  O59  1  0.54027100  0.14882100  0.28111400  1
loop_
_geom_bond_atom_site_label_1
_geom_bond_atom_site_label_2
_geom_bond_distance
_geom_bond_site_symmetry_2
O0 Sn28 2.040275 1_555
O0 Sn4 2.110037 1_655
O0 Sn10 2.591333 1_556
O1 Sn4 2.091351 1_555
O1 Sn3 2.102188 1_555
O1 Sn12 2.143485 1_556
O2 Sn6 2.120114 1_555
O2 Sn14 2.170872 1_555
O2 Sn3 2.184923 1_555
O3 Sn1 2.043140 1_554
O3 Sn7 2.098338 1_555
O3 Sn23 2.099729 1_555
O4 Sn7 2.059719 1_555
O4 Sn0 2.150907 1_555
O4 Sn29 2.187055 1_555
O5 Sn7 2.038141 1_555
O5 Sn14 2.089209 1_555
O5 Sn23 2.237134 1_555
O6 Sn8 1.996258 1_555
O6 Sn21 2.081075 1_555
O6 Sn11 2.433063 1_555
O7 Sn0 2.026731 1_555
O7 Sn28 2.163393 1_554
O7 Sn16 2.232212 1_545
O8 Sn11 2.145975 1_555
O8 Sn27 2.197304 1_565
O8 Sn19 2.239834 1_555
O9 Sn23 2.089884 1_555
O9 Sn11 2.152644 1_555
O9 Sn14 2.169986 1_555
O9 Sn21 2.395309 1_555
O10 Sn24 2.024858 1_555
O10 Sn6 2.055577 1_555
O10 Sn15 2.270261 1_555
O11 Sn2 2.032661 1_555
O11 Sn22 2.147005 1_665
O11 Sn16 2.147169 1_556
O12 Sn1 2.059526 1_555
O12 Sn6 2.113162 1_555
O12 Sn15 2.232144 1_555
O13 Sn2 2.046963 1_455
O13 Sn8 2.054935 1_555
O13 Sn25 2.235942 1_555
O14 Sn25 1.998179 1_555
O14 Sn3 2.011140 1_555
O15 Sn12 2.060667 1_555
O15 Sn10 2.137375 1_455
O15 Sn4 2.139478 1_554
O16 Sn24 2.073830 1_565
O16 Sn12 2.101297 1_556
O16 Sn13 2.413179 1_555
O17 Sn17 2.074889 1_555
O17 Sn29 2.103506 1_455
O17 Sn8 2.110359 1_555
O18 Sn18 1.947178 1_555
O18 Sn8 1.985886 1_655
O19 Sn4 2.115522 1_655
O19 Sn8 2.174164 1_655
O19 Sn5 2.201824 1_555
O20 Sn0 2.050888 1_455
O20 Sn15 2.212224 1_554
O20 Sn21 2.217759 1_555
O21 Sn25 2.008250 1_555
O21 Sn11 2.126635 1_555
O21 Sn20 2.233237 1_565
O22 Sn26 2.027834 1_565
O22 Sn2 2.055446 1_555
O22 Sn22 2.254914 1_665
O23 Sn6 2.028009 1_555
O23 Sn14 2.041379 1_555
O24 Sn10 2.043517 1_555
O24 Sn23 2.060586 1_555
O24 Sn18 2.082984 1_555
O25 Sn5 2.120733 1_555
O25 Sn1 2.127619 1_555
O25 Sn28 2.185856 1_555
O26 Sn0 1.996887 1_555
O26 Sn17 2.168789 1_655
O26 Sn29 2.320322 1_555
O26 Sn26 2.400688 1_555
O27 Sn24 2.124748 1_555
O27 Sn22 2.144395 1_555
O27 Sn16 2.202011 1_446
O28 Sn29 1.964044 1_555
O28 Sn5 1.977651 1_555
O29 Sn26 2.101341 1_555
O29 Sn29 2.161451 1_555
O29 Sn27 2.200342 1_555
O30 Sn4 2.032275 1_555
O30 Sn15 2.050145 1_555
O30 Sn6 2.548678 1_555
O31 Sn19 2.097667 1_555
O31 Sn26 2.101123 1_565
O31 Sn27 2.158227 1_565
O32 O53 1.456654 1_555
O32 Sn20 2.135080 1_565
O32 Sn12 2.244183 1_555
O33 Sn28 2.126723 1_554
O33 Sn7 2.150638 1_555
O33 Sn9 2.196708 1_555
O34 Sn17 2.057036 1_555
O34 Sn6 2.068695 1_555
O34 Sn22 2.161425 1_555
O35 Sn13 2.118807 1_555
O35 Sn10 2.135857 1_556
O35 Sn1 2.197080 1_555
O36 Sn23 2.063239 1_555
O36 Sn11 2.256034 1_555
O36 Sn13 2.292493 1_554
O37 Sn19 2.129521 1_555
O37 Sn3 2.182601 1_555
O37 Sn13 2.214104 1_555
O38 Sn9 2.061163 1_565
O38 Sn20 2.080248 1_565
O38 Sn11 2.087696 1_555
O39 Sn1 2.057032 1_555
O39 Sn13 2.099583 1_555
O39 Sn3 2.140987 1_555
O40 Sn24 2.067445 1_565
O40 Sn12 2.077438 1_556
O40 Sn16 2.120833 1_456
O41 Sn9 1.988507 1_566
O41 Sn13 2.003308 1_555
O42 Sn28 1.925795 1_555
O42 Sn22 2.020839 1_655
O43 Sn20 2.076802 1_555
O43 Sn0 2.118942 1_455
O43 Sn16 2.123054 1_445
O44 Sn26 2.124778 1_555
O44 Sn22 2.188884 1_655
O44 Sn29 2.198525 1_555
O44 Sn17 2.320018 1_655
O45 Sn26 1.960025 1_565
O45 Sn18 1.979113 1_555
O46 Sn15 2.061034 1_554
O46 Sn21 2.112400 1_555
O46 Sn1 2.296702 1_554
O47 Sn2 2.096747 1_555
O47 Sn5 2.099412 1_555
O47 Sn19 2.250830 1_555
O48 Sn20 1.975600 1_555
O48 Sn17 1.980175 1_555
O49 Sn14 2.123001 1_555
O49 Sn19 2.130916 1_555
O49 Sn3 2.200052 1_555
O50 Sn10 2.103566 1_556
O50 Sn2 2.131641 1_555
O50 Sn5 2.271320 1_555
O50 Sn4 2.379624 1_655
O51 Sn24 2.019899 1_565
O51 Sn25 2.027203 1_555
O51 Sn22 2.438370 1_565
O52 Sn12 2.042895 1_555
O52 Sn21 2.073832 1_555
O52 Sn11 2.243551 1_555
O53 Sn18 2.130836 1_455
O53 Sn16 2.572215 1_455
O54 Sn21 2.067523 1_555
O54 Sn17 2.146685 1_555
O54 Sn14 2.226764 1_555
O55 Sn23 2.081772 1_555
O55 Sn18 2.097820 1_555
O55 Sn19 2.116867 1_555
O56 Sn9 2.118037 1_555
O56 Sn15 2.120360 1_554
O56 Sn20 2.344228 1_555
O57 Sn16 1.995200 1_555
O57 Sn10 2.029914 1_555
O58 Sn27 1.994162 1_555
O58 Sn25 2.041727 1_545
O59 Sn7 2.084942 1_555
O59 Sn9 2.150145 1_555
O59 Sn27 2.229013 1_555
