# generated using pymatgen
data_Cu2TeO6
_symmetry_space_group_name_H-M   'P 1'
_cell_length_a   4.70249024
_cell_length_b   5.04234300
_cell_length_c   9.10624737
_cell_angle_alpha   90.00000000
_cell_angle_beta   97.38496790
_cell_angle_gamma   90.00000000
_symmetry_Int_Tables_number   1
_chemical_formula_structural   Cu2TeO6
_chemical_formula_sum   'Cu4 Te2 O12'
_cell_volume   214.13230825
_cell_formula_units_Z   2
loop_
 _symmetry_equiv_pos_site_id
 _symmetry_equiv_pos_as_xyz
  1  'x, y, z'
loop_
 _atom_site_type_symbol
 _atom_site_label
 _atom_site_symmetry_multiplicity
 _atom_site_fract_x
 _atom_site_fract_y
 _atom_site_fract_z
 _atom_site_occupancy
  Cu  Cu0  1  0.51664000  0.98087300  0.67897200  1
  Cu  Cu1  1  0.01664000  0.51912700  0.17897200  1
  Cu  Cu2  1  0.48336000  0.01912700  0.32102800  1
  Cu  Cu3  1  0.98336000  0.48087300  0.82102800  1
  Te  Te0  1  0.50000000  0.50000000  0.50000000  1
  Te  Te1  1  0.00000000  0.00000000  0.00000000  1
  O  O0  1  0.73234700  0.19529600  0.46706100  1
  O  O1  1  0.23234700  0.30470400  0.96706100  1
  O  O2  1  0.26765300  0.80470400  0.53293900  1
  O  O3  1  0.76765300  0.69529600  0.03293900  1
  O  O4  1  0.80522800  0.20658800  0.13847900  1
  O  O5  1  0.30522800  0.29341200  0.63847900  1
  O  O6  1  0.19477200  0.79341200  0.86152100  1
  O  O7  1  0.69477200  0.70658800  0.36152100  1
  O  O8  1  0.75136500  0.16871100  0.82878200  1
  O  O9  1  0.25136500  0.33128900  0.32878200  1
  O  O10  1  0.24863500  0.83128900  0.17121800  1
  O  O11  1  0.74863500  0.66871100  0.67121800  1
loop_
_geom_bond_atom_site_label_1
_geom_bond_atom_site_label_2
_geom_bond_distance
_geom_bond_site_symmetry_2
Cu0 O5 1.874471 1_565
Cu0 O2 1.878332 1_555
Cu0 O8 1.894571 1_565
Cu0 O11 1.921597 1_555
Cu0 O0 2.534739 1_565
Cu0 O6 2.567992 1_555
Cu1 O4 1.874471 1_455
Cu1 O3 1.878332 1_455
Cu1 O9 1.894571 1_555
Cu1 O10 1.921597 1_555
Cu1 O1 2.534739 1_554
Cu1 O7 2.567992 1_455
Cu2 O7 1.874471 1_545
Cu2 O0 1.878332 1_555
Cu2 O10 1.894571 1_545
Cu2 O9 1.921597 1_555
Cu2 O2 2.534739 1_545
Cu2 O4 2.567992 1_555
Cu3 O6 1.874471 1_655
Cu3 O1 1.878332 1_655
Cu3 O11 1.894571 1_555
Cu3 O8 1.921597 1_555
Cu3 O3 2.534739 1_556
Cu3 O5 2.567992 1_655
O0 Te0 1.930960 1_555
O1 Te1 1.930960 1_556
O2 Te0 1.930960 1_555
O3 Te1 1.930960 1_665
O4 Te1 1.952205 1_655
O5 Te0 1.952205 1_555
O6 Te1 1.952205 1_566
O7 Te0 1.952205 1_555
O8 Te1 2.013220 1_656
O9 Te0 2.013220 1_555
O10 Te1 2.013220 1_565
O11 Te0 2.013220 1_555
