# generated using pymatgen
data_Sc44Ru7
_symmetry_space_group_name_H-M   'P 1'
_cell_length_a   14.69144587
_cell_length_b   14.69144587
_cell_length_c   14.69144587
_cell_angle_alpha   60.00000000
_cell_angle_beta   60.00000000
_cell_angle_gamma   60.00000000
_symmetry_Int_Tables_number   1
_chemical_formula_structural   Sc44Ru7
_chemical_formula_sum   'Sc88 Ru14'
_cell_volume   2242.22205523
_cell_formula_units_Z   2
loop_
 _symmetry_equiv_pos_site_id
 _symmetry_equiv_pos_as_xyz
  1  'x, y, z'
loop_
 _atom_site_type_symbol
 _atom_site_label
 _atom_site_symmetry_multiplicity
 _atom_site_fract_x
 _atom_site_fract_y
 _atom_site_fract_z
 _atom_site_occupancy
  Sc  Sc0  1  0.91336400  0.91336400  0.69840500  1
  Sc  Sc1  1  0.91336400  0.91336400  0.47486600  1
  Sc  Sc2  1  0.69840500  0.47486600  0.91336400  1
  Sc  Sc3  1  0.69840500  0.91336400  0.91336400  1
  Sc  Sc4  1  0.47486600  0.69840500  0.91336400  1
  Sc  Sc5  1  0.47486600  0.91336400  0.91336400  1
  Sc  Sc6  1  0.91336400  0.69840500  0.47486600  1
  Sc  Sc7  1  0.91336400  0.47486600  0.69840500  1
  Sc  Sc8  1  0.91336400  0.69840500  0.91336400  1
  Sc  Sc9  1  0.47486600  0.91336400  0.69840500  1
  Sc  Sc10  1  0.69840500  0.91336400  0.47486600  1
  Sc  Sc11  1  0.91336400  0.47486600  0.91336400  1
  Sc  Sc12  1  0.10758200  0.89241800  0.89241800  1
  Sc  Sc13  1  0.89241800  0.10758200  0.10758200  1
  Sc  Sc14  1  0.89241800  0.10758200  0.89241800  1
  Sc  Sc15  1  0.10758200  0.89241800  0.10758200  1
  Sc  Sc16  1  0.89241800  0.89241800  0.10758200  1
  Sc  Sc17  1  0.10758200  0.10758200  0.89241800  1
  Sc  Sc18  1  0.68832300  0.68832300  0.68832300  1
  Sc  Sc19  1  0.68832300  0.68832300  0.93503000  1
  Sc  Sc20  1  0.68832300  0.93503000  0.68832300  1
  Sc  Sc21  1  0.93503000  0.68832300  0.68832300  1
  Sc  Sc22  1  0.53539400  0.53539400  0.14267800  1
  Sc  Sc23  1  0.53539400  0.53539400  0.78653300  1
  Sc  Sc24  1  0.14267800  0.78653300  0.53539400  1
  Sc  Sc25  1  0.14267800  0.53539400  0.53539400  1
  Sc  Sc26  1  0.78653300  0.14267800  0.53539400  1
  Sc  Sc27  1  0.78653300  0.53539400  0.53539400  1
  Sc  Sc28  1  0.53539400  0.14267800  0.78653300  1
  Sc  Sc29  1  0.53539400  0.78653300  0.14267800  1
  Sc  Sc30  1  0.53539400  0.14267800  0.53539400  1
  Sc  Sc31  1  0.78653300  0.53539400  0.14267800  1
  Sc  Sc32  1  0.14267800  0.53539400  0.78653300  1
  Sc  Sc33  1  0.53539400  0.78653300  0.53539400  1
  Sc  Sc34  1  0.76359900  0.76359900  0.13058400  1
  Sc  Sc35  1  0.76359900  0.76359900  0.34221900  1
  Sc  Sc36  1  0.13058400  0.34221900  0.76359900  1
  Sc  Sc37  1  0.13058400  0.76359900  0.76359900  1
  Sc  Sc38  1  0.34221900  0.13058400  0.76359900  1
  Sc  Sc39  1  0.34221900  0.76359900  0.76359900  1
  Sc  Sc40  1  0.76359900  0.13058400  0.34221900  1
  Sc  Sc41  1  0.76359900  0.34221900  0.13058400  1
  Sc  Sc42  1  0.76359900  0.13058400  0.76359900  1
  Sc  Sc43  1  0.34221900  0.76359900  0.13058400  1
  Sc  Sc44  1  0.13058400  0.76359900  0.34221900  1
  Sc  Sc45  1  0.76359900  0.34221900  0.76359900  1
  Sc  Sc46  1  0.41219600  0.41219600  0.41219600  1
  Sc  Sc47  1  0.41219600  0.41219600  0.76341100  1
  Sc  Sc48  1  0.41219600  0.76341100  0.41219600  1
  Sc  Sc49  1  0.76341100  0.41219600  0.41219600  1
  Sc  Sc50  1  0.30697300  0.30697300  0.30697300  1
  Sc  Sc51  1  0.30697300  0.30697300  0.07908200  1
  Sc  Sc52  1  0.30697300  0.07908200  0.30697300  1
  Sc  Sc53  1  0.07908200  0.30697300  0.30697300  1
  Sc  Sc54  1  0.55861000  0.55861000  0.55861000  1
  Sc  Sc55  1  0.55861000  0.55861000  0.32417000  1
  Sc  Sc56  1  0.55861000  0.32417000  0.55861000  1
  Sc  Sc57  1  0.32417000  0.55861000  0.55861000  1
  Sc  Sc58  1  0.03785000  0.03785000  0.67583400  1
  Sc  Sc59  1  0.03785000  0.03785000  0.24846600  1
  Sc  Sc60  1  0.67583400  0.24846600  0.03785000  1
  Sc  Sc61  1  0.67583400  0.03785000  0.03785000  1
  Sc  Sc62  1  0.24846600  0.67583400  0.03785000  1
  Sc  Sc63  1  0.24846600  0.03785000  0.03785000  1
  Sc  Sc64  1  0.03785000  0.67583400  0.24846600  1
  Sc  Sc65  1  0.03785000  0.24846600  0.67583400  1
  Sc  Sc66  1  0.03785000  0.67583400  0.03785000  1
  Sc  Sc67  1  0.24846600  0.03785000  0.67583400  1
  Sc  Sc68  1  0.67583400  0.03785000  0.24846600  1
  Sc  Sc69  1  0.03785000  0.24846600  0.03785000  1
  Sc  Sc70  1  0.27069700  0.27069700  0.54820600  1
  Sc  Sc71  1  0.27069700  0.27069700  0.91040000  1
  Sc  Sc72  1  0.54820600  0.91040000  0.27069700  1
  Sc  Sc73  1  0.54820600  0.27069700  0.27069700  1
  Sc  Sc74  1  0.91040000  0.54820600  0.27069700  1
  Sc  Sc75  1  0.91040000  0.27069700  0.27069700  1
  Sc  Sc76  1  0.27069700  0.54820600  0.91040000  1
  Sc  Sc77  1  0.27069700  0.91040000  0.54820600  1
  Sc  Sc78  1  0.27069700  0.54820600  0.27069700  1
  Sc  Sc79  1  0.91040000  0.27069700  0.54820600  1
  Sc  Sc80  1  0.54820600  0.27069700  0.91040000  1
  Sc  Sc81  1  0.27069700  0.91040000  0.27069700  1
  Sc  Sc82  1  0.05809700  0.44190300  0.44190300  1
  Sc  Sc83  1  0.44190300  0.05809700  0.05809700  1
  Sc  Sc84  1  0.44190300  0.05809700  0.44190300  1
  Sc  Sc85  1  0.05809700  0.44190300  0.05809700  1
  Sc  Sc86  1  0.44190300  0.44190300  0.05809700  1
  Sc  Sc87  1  0.05809700  0.05809700  0.44190300  1
  Ru  Ru0  1  0.89981400  0.89981400  0.89981400  1
  Ru  Ru1  1  0.89981400  0.89981400  0.30055900  1
  Ru  Ru2  1  0.89981400  0.30055900  0.89981400  1
  Ru  Ru3  1  0.30055900  0.89981400  0.89981400  1
  Ru  Ru4  1  0.65941400  0.34058600  0.34058600  1
  Ru  Ru5  1  0.34058600  0.65941400  0.65941400  1
  Ru  Ru6  1  0.34058600  0.65941400  0.34058600  1
  Ru  Ru7  1  0.65941400  0.34058600  0.65941400  1
  Ru  Ru8  1  0.34058600  0.34058600  0.65941400  1
  Ru  Ru9  1  0.65941400  0.65941400  0.34058600  1
  Ru  Ru10  1  0.16787700  0.16787700  0.16787700  1
  Ru  Ru11  1  0.16787700  0.16787700  0.49636900  1
  Ru  Ru12  1  0.16787700  0.49636900  0.16787700  1
  Ru  Ru13  1  0.49636900  0.16787700  0.16787700  1
loop_
_geom_bond_atom_site_label_1
_geom_bond_atom_site_label_2
_geom_bond_distance
_geom_bond_site_symmetry_2
Sc0 Sc58 2.988552 1_665
Sc0 Sc42 3.141705 1_565
Sc0 Sc37 3.141705 1_655
Sc0 Sc3 3.158059 1_555
Sc0 Sc8 3.158059 1_555
Sc0 Sc20 3.231758 1_555
Sc0 Sc21 3.231758 1_555
Sc0 Sc24 3.267109 1_655
Sc0 Sc26 3.267109 1_565
Sc0 Sc1 3.284111 1_555
Sc0 Sc87 3.426214 1_665
Sc1 Sc59 2.988545 1_665
Sc1 Sc44 3.141691 1_655
Sc1 Sc40 3.141691 1_565
Sc1 Sc10 3.158059 1_555
Sc1 Sc6 3.158059 1_555
Sc1 Sc20 3.231758 1_555
Sc1 Sc21 3.231758 1_555
Sc1 Sc24 3.267109 1_655
Sc1 Sc26 3.267109 1_565
Sc1 Sc87 3.426221 1_665
Sc2 Sc60 2.988539 1_556
Sc2 Sc45 3.141681 1_555
Sc2 Sc41 3.141706 1_556
Sc2 Sc7 3.158059 1_555
Sc2 Sc22 3.267109 1_556
Sc2 Sc23 3.267109 1_555
Sc2 Sc4 3.284111 1_555
Sc2 Sc86 3.426208 1_556
Sc3 Sc61 2.988552 1_566
Sc3 Sc42 3.141705 1_565
Sc3 Sc34 3.141705 1_556
Sc3 Sc8 3.158059 1_555
Sc3 Sc5 3.284111 1_555
Sc3 Sc83 3.426214 1_566
Sc4 Sc62 2.988539 1_556
Sc4 Sc43 3.141706 1_556
Sc4 Sc9 3.158059 1_555
Sc4 Sc5 3.158059 1_555
Sc4 Sc86 3.426208 1_556
Sc5 Sc63 2.988545 1_566
Sc5 Sc9 3.158059 1_555
Sc5 Sc83 3.426221 1_566
Sc6 Sc64 2.988539 1_655
Sc6 Sc7 3.284111 1_555
Sc6 Sc82 3.426208 1_655
Sc7 Sc82 3.426208 1_655
Sc8 Sc85 3.426214 1_656
Sc10 Sc68 2.988539 1_565
Sc10 Sc35 3.141681 1_555
Sc10 Sc40 3.141706 1_565
Sc10 Sc6 3.158059 1_555
Sc10 Sc18 3.231758 1_555
Sc10 Sc20 3.231758 1_555
Sc10 Sc30 3.267109 1_565
Sc10 Sc33 3.267109 1_555
Sc10 Sc9 3.284111 1_555
Sc10 Sc84 3.426208 1_565
Sc11 Sc69 2.988545 1_656
Sc11 Sc36 3.141691 1_655
Sc11 Sc41 3.141691 1_556
Sc11 Sc7 3.158059 1_555
Sc11 Sc2 3.158059 1_555
Sc11 Sc19 3.231758 1_555
Sc11 Sc21 3.231758 1_555
Sc11 Sc31 3.267109 1_556
Sc11 Sc32 3.267109 1_655
Sc11 Sc8 3.284111 1_555
Sc11 Sc85 3.426221 1_656
Sc12 Sc37 3.095188 1_555
Sc12 Sc39 3.095196 1_555
Sc12 Sc16 3.161070 1_456
Sc12 Sc14 3.161070 1_465
Sc12 Sc17 3.161070 1_565
Sc12 Sc15 3.161070 1_556
Sc12 Sc58 3.164122 1_565
Sc12 Sc66 3.164122 1_556
Sc12 Sc67 3.164122 1_565
Sc12 Sc62 3.164122 1_556
Sc13 Sc41 3.095201 1_555
Sc13 Sc40 3.095201 1_555
Sc13 Sc16 3.161070 1_545
Sc13 Sc14 3.161070 1_554
Sc13 Sc17 3.161070 1_654
Sc13 Sc15 3.161070 1_645
Sc13 Sc68 3.164122 1_555
Sc13 Sc60 3.164122 1_555
Sc13 Sc69 3.164122 1_655
Sc13 Sc59 3.164122 1_655
Sc14 Sc42 3.095188 1_555
Sc14 Sc45 3.095196 1_555
Sc14 Sc16 3.161070 1_546
Sc14 Sc17 3.161070 1_655
Sc14 Sc58 3.164122 1_655
Sc14 Sc61 3.164122 1_556
Sc14 Sc65 3.164122 1_655
Sc14 Sc60 3.164122 1_556
Sc15 Sc43 3.095201 1_555
Sc15 Sc44 3.095201 1_555
Sc15 Sc16 3.161070 1_455
Sc15 Sc17 3.161070 1_564
Sc15 Sc64 3.164122 1_555
Sc15 Sc62 3.164122 1_555
Sc15 Sc59 3.164122 1_565
Sc15 Sc63 3.164122 1_565
Sc16 Sc34 3.095188 1_555
Sc16 Sc35 3.095196 1_555
Sc16 Sc66 3.164122 1_655
Sc16 Sc61 3.164122 1_565
Sc16 Sc64 3.164122 1_655
Sc16 Sc68 3.164122 1_565
Sc17 Sc36 3.095201 1_555
Sc17 Sc38 3.095201 1_555
Sc17 Sc67 3.164122 1_555
Sc17 Sc65 3.164122 1_555
Sc17 Sc63 3.164122 1_556
Sc17 Sc69 3.164122 1_556
Sc18 Sc4 3.231758 1_555
Sc18 Sc9 3.231758 1_555
Sc18 Sc7 3.231758 1_555
Sc18 Sc6 3.231758 1_555
Sc18 Sc2 3.231758 1_555
Sc18 Sc27 3.277501 1_555
Sc18 Sc33 3.277501 1_555
Sc18 Sc23 3.277501 1_555
Sc18 Sc20 3.624483 1_555
Sc18 Sc19 3.624483 1_555
Sc18 Sc21 3.624483 1_555
Sc19 Sc8 3.231758 1_555
Sc19 Sc3 3.231758 1_555
Sc19 Sc5 3.231758 1_555
Sc19 Sc4 3.231758 1_555
Sc19 Sc2 3.231758 1_555
Sc19 Sc31 3.277501 1_556
Sc19 Sc29 3.277501 1_556
Sc19 Sc22 3.277501 1_556
Sc19 Sc21 3.624483 1_555
Sc19 Sc20 3.624483 1_555
Sc20 Sc3 3.231758 1_555
Sc20 Sc5 3.231758 1_555
Sc20 Sc9 3.231758 1_555
Sc20 Sc28 3.277501 1_565
Sc20 Sc26 3.277501 1_565
Sc20 Sc30 3.277501 1_565
Sc20 Sc21 3.624483 1_555
Sc21 Sc8 3.231758 1_555
Sc21 Sc7 3.231758 1_555
Sc21 Sc6 3.231758 1_555
Sc21 Sc32 3.277501 1_655
Sc21 Sc24 3.277501 1_655
Sc21 Sc25 3.277501 1_655
Sc22 Sc55 3.045892 1_555
Sc22 Sc43 3.117676 1_555
Sc22 Sc41 3.117676 1_555
Sc22 Sc86 3.258415 1_555
Sc22 Sc4 3.267109 1_554
Sc22 Sc73 3.317150 1_555
Sc22 Sc78 3.317150 1_555
Sc22 Sc46 3.342588 1_555
Sc22 Sc31 3.689595 1_555
Sc22 Sc29 3.689595 1_555
Sc23 Sc54 3.045878 1_555
Sc23 Sc45 3.117675 1_555
Sc23 Sc39 3.117675 1_555
Sc23 Sc86 3.258426 1_556
Sc23 Sc4 3.267109 1_555
Sc23 Sc76 3.317150 1_555
Sc23 Sc80 3.317150 1_555
Sc23 Sc47 3.342588 1_555
Sc23 Sc27 3.689595 1_555
Sc23 Sc33 3.689595 1_555
Sc24 Sc57 3.045884 1_555
Sc24 Sc44 3.117659 1_555
Sc24 Sc37 3.117688 1_555
Sc24 Sc87 3.258427 1_565
Sc24 Sc81 3.317153 1_555
Sc24 Sc77 3.317163 1_555
Sc24 Sc48 3.342588 1_555
Sc24 Sc25 3.689595 1_555
Sc24 Sc32 3.689595 1_555
Sc25 Sc57 3.045892 1_555
Sc25 Sc36 3.117676 1_555
Sc25 Sc44 3.117676 1_555
Sc25 Sc82 3.258415 1_555
Sc25 Sc6 3.267109 1_455
Sc25 Sc7 3.267109 1_455
Sc25 Sc78 3.317150 1_555
Sc25 Sc70 3.317150 1_555
Sc25 Sc46 3.342588 1_555
Sc25 Sc32 3.689595 1_555
Sc26 Sc56 3.045884 1_555
Sc26 Sc40 3.117659 1_555
Sc26 Sc42 3.117688 1_555
Sc26 Sc87 3.258427 1_655
Sc26 Sc75 3.317153 1_555
Sc26 Sc79 3.317163 1_555
Sc26 Sc49 3.342588 1_555
Sc26 Sc30 3.689595 1_555
Sc26 Sc28 3.689595 1_555
Sc27 Sc54 3.045878 1_555
Sc27 Sc35 3.117675 1_555
Sc27 Sc45 3.117675 1_555
Sc27 Sc82 3.258426 1_655
Sc27 Sc6 3.267109 1_555
Sc27 Sc7 3.267109 1_555
Sc27 Sc74 3.317150 1_555
Sc27 Sc79 3.317150 1_555
Sc27 Sc49 3.342588 1_555
Sc27 Sc33 3.689595 1_555
Sc28 Sc56 3.045884 1_555
Sc28 Sc38 3.117659 1_555
Sc28 Sc42 3.117688 1_555
Sc28 Sc83 3.258427 1_556
Sc28 Sc5 3.267109 1_545
Sc28 Sc3 3.267109 1_545
Sc28 Sc71 3.317153 1_555
Sc28 Sc80 3.317163 1_555
Sc28 Sc47 3.342588 1_555
Sc28 Sc30 3.689595 1_555
Sc29 Sc55 3.045884 1_555
Sc29 Sc43 3.117659 1_555
Sc29 Sc34 3.117688 1_555
Sc29 Sc83 3.258427 1_565
Sc29 Sc5 3.267109 1_554
Sc29 Sc3 3.267109 1_554
Sc29 Sc81 3.317153 1_555
Sc29 Sc72 3.317163 1_555
Sc29 Sc48 3.342588 1_555
Sc29 Sc31 3.689595 1_555
Sc30 Sc56 3.045892 1_555
Sc30 Sc38 3.117676 1_555
Sc30 Sc40 3.117676 1_555
Sc30 Sc84 3.258415 1_555
Sc30 Sc9 3.267109 1_545
Sc30 Sc73 3.317150 1_555
Sc30 Sc70 3.317150 1_555
Sc30 Sc46 3.342588 1_555
Sc31 Sc55 3.045884 1_555
Sc31 Sc41 3.117659 1_555
Sc31 Sc34 3.117688 1_555
Sc31 Sc85 3.258427 1_655
Sc31 Sc8 3.267109 1_554
Sc31 Sc75 3.317153 1_555
Sc31 Sc74 3.317163 1_555
Sc31 Sc49 3.342588 1_555
Sc32 Sc57 3.045884 1_555
Sc32 Sc36 3.117659 1_555
Sc32 Sc37 3.117688 1_555
Sc32 Sc85 3.258427 1_556
Sc32 Sc8 3.267109 1_455
Sc32 Sc71 3.317153 1_555
Sc32 Sc76 3.317163 1_555
Sc32 Sc47 3.342588 1_555
Sc33 Sc54 3.045878 1_555
Sc33 Sc35 3.117675 1_555
Sc33 Sc39 3.117675 1_555
Sc33 Sc84 3.258426 1_565
Sc33 Sc9 3.267109 1_555
Sc33 Sc72 3.317150 1_555
Sc33 Sc77 3.317150 1_555
Sc33 Sc48 3.342588 1_555
Sc34 Sc35 3.109224 1_555
Sc34 Sc8 3.141705 1_554
Sc34 Sc72 3.162785 1_555
Sc34 Sc74 3.162785 1_555
Sc34 Sc66 3.290119 1_655
Sc34 Sc61 3.290119 1_565
Sc35 Sc6 3.141681 1_555
Sc35 Sc74 3.162792 1_555
Sc35 Sc72 3.162792 1_555
Sc35 Sc68 3.290119 1_565
Sc35 Sc64 3.290119 1_655
Sc36 Sc38 3.109224 1_555
Sc36 Sc7 3.141706 1_455
Sc36 Sc71 3.162780 1_555
Sc36 Sc70 3.162793 1_555
Sc36 Sc69 3.290119 1_556
Sc36 Sc65 3.290131 1_555
Sc37 Sc39 3.109224 1_555
Sc37 Sc8 3.141705 1_455
Sc37 Sc76 3.162785 1_555
Sc37 Sc77 3.162785 1_555
Sc37 Sc58 3.290119 1_565
Sc37 Sc66 3.290119 1_556
Sc38 Sc5 3.141691 1_545
Sc38 Sc9 3.141706 1_545
Sc38 Sc71 3.162780 1_555
Sc38 Sc70 3.162793 1_555
Sc38 Sc63 3.290119 1_556
Sc38 Sc67 3.290131 1_555
Sc39 Sc4 3.141681 1_555
Sc39 Sc9 3.141681 1_555
Sc39 Sc77 3.162792 1_555
Sc39 Sc76 3.162792 1_555
Sc39 Sc62 3.290119 1_556
Sc39 Sc67 3.290119 1_565
Sc40 Sc41 3.109224 1_555
Sc40 Sc75 3.162780 1_555
Sc40 Sc73 3.162793 1_555
Sc40 Sc59 3.290119 1_655
Sc40 Sc68 3.290131 1_555
Sc41 Sc75 3.162780 1_555
Sc41 Sc73 3.162793 1_555
Sc41 Sc69 3.290119 1_655
Sc41 Sc60 3.290131 1_555
Sc42 Sc45 3.109224 1_555
Sc42 Sc79 3.162785 1_555
Sc42 Sc80 3.162785 1_555
Sc42 Sc58 3.290119 1_655
Sc42 Sc61 3.290119 1_556
Sc43 Sc44 3.109224 1_555
Sc43 Sc5 3.141691 1_554
Sc43 Sc81 3.162780 1_555
Sc43 Sc78 3.162793 1_555
Sc43 Sc63 3.290119 1_565
Sc43 Sc62 3.290131 1_555
Sc44 Sc6 3.141706 1_455
Sc44 Sc81 3.162780 1_555
Sc44 Sc78 3.162793 1_555
Sc44 Sc59 3.290119 1_565
Sc44 Sc64 3.290131 1_555
Sc45 Sc7 3.141681 1_555
Sc45 Sc79 3.162792 1_555
Sc45 Sc80 3.162792 1_555
Sc45 Sc65 3.290119 1_655
Sc45 Sc60 3.290119 1_556
Sc46 Sc78 2.941008 1_555
Sc46 Sc73 2.941008 1_555
Sc46 Sc70 2.941008 1_555
Sc46 Sc56 3.160651 1_555
Sc46 Sc57 3.160651 1_555
Sc46 Sc55 3.160651 1_555
Sc47 Sc71 2.941009 1_555
Sc47 Sc76 2.941019 1_555
Sc47 Sc80 2.941019 1_555
Sc47 Sc56 3.160639 1_555
Sc47 Sc57 3.160639 1_555
Sc47 Sc54 3.160647 1_555
Sc48 Sc81 2.941009 1_555
Sc48 Sc72 2.941019 1_555
Sc48 Sc77 2.941019 1_555
Sc48 Sc57 3.160639 1_555
Sc48 Sc55 3.160639 1_555
Sc48 Sc54 3.160647 1_555
Sc49 Sc75 2.941009 1_555
Sc49 Sc74 2.941019 1_555
Sc49 Sc79 2.941019 1_555
Sc49 Sc56 3.160639 1_555
Sc49 Sc55 3.160639 1_555
Sc49 Sc54 3.160647 1_555
Sc50 Sc78 3.104010 1_555
Sc50 Sc70 3.104010 1_555
Sc50 Sc73 3.104010 1_555
Sc50 Sc82 3.265202 1_555
Sc50 Sc86 3.265202 1_555
Sc50 Sc84 3.265202 1_555
Sc50 Sc52 3.348048 1_555
Sc50 Sc53 3.348048 1_555
Sc50 Sc51 3.348048 1_555
Sc51 Sc76 3.104014 1_554
Sc51 Sc80 3.104014 1_554
Sc51 Sc71 3.104024 1_554
Sc51 Sc86 3.265194 1_555
Sc51 Sc85 3.265207 1_555
Sc51 Sc83 3.265207 1_555
Sc51 Sc52 3.348048 1_555
Sc51 Sc53 3.348048 1_555
Sc52 Sc72 3.104014 1_545
Sc52 Sc77 3.104014 1_545
Sc52 Sc81 3.104024 1_545
Sc52 Sc84 3.265194 1_555
Sc52 Sc83 3.265207 1_555
Sc52 Sc87 3.265207 1_555
Sc52 Sc53 3.348048 1_555
Sc53 Sc79 3.104014 1_455
Sc53 Sc74 3.104014 1_455
Sc53 Sc75 3.104024 1_455
Sc53 Sc82 3.265194 1_555
Sc53 Sc85 3.265207 1_555
Sc53 Sc87 3.265207 1_555
Sc54 Sc56 3.444263 1_555
Sc54 Sc57 3.444263 1_555
Sc54 Sc55 3.444263 1_555
Sc55 Sc56 3.444263 1_555
Sc55 Sc57 3.444263 1_555
Sc56 Sc57 3.444263 1_555
Sc58 Sc77 3.068444 1_545
Sc58 Sc79 3.068444 1_455
Sc58 Sc67 3.094254 1_555
Sc58 Sc65 3.094254 1_555
Sc58 Sc87 3.167386 1_555
Sc59 Sc81 3.068444 1_545
Sc59 Sc75 3.068444 1_455
Sc59 Sc63 3.094254 1_555
Sc59 Sc69 3.094254 1_555
Sc59 Sc87 3.167386 1_555
Sc60 Sc73 3.068444 1_555
Sc60 Sc80 3.068444 1_554
Sc60 Sc61 3.094254 1_555
Sc60 Sc68 3.094254 1_555
Sc60 Sc86 3.167386 1_555
Sc61 Sc72 3.068444 1_545
Sc61 Sc80 3.068444 1_554
Sc61 Sc68 3.094254 1_555
Sc61 Sc83 3.167386 1_555
Sc62 Sc78 3.068444 1_555
Sc62 Sc76 3.068444 1_554
Sc62 Sc64 3.094254 1_555
Sc62 Sc66 3.094254 1_555
Sc62 Sc86 3.167386 1_555
Sc63 Sc81 3.068444 1_545
Sc63 Sc71 3.068444 1_554
Sc63 Sc69 3.094254 1_555
Sc63 Sc83 3.167386 1_555
Sc64 Sc78 3.068444 1_555
Sc64 Sc74 3.068444 1_455
Sc64 Sc66 3.094254 1_555
Sc64 Sc82 3.167386 1_555
Sc65 Sc7 2.988539 1_455
Sc65 Sc70 3.068444 1_555
Sc65 Sc79 3.068444 1_455
Sc65 Sc67 3.094254 1_555
Sc65 Sc82 3.167386 1_555
Sc66 Sc8 2.988552 1_454
Sc66 Sc74 3.068444 1_455
Sc66 Sc76 3.068444 1_554
Sc66 Sc85 3.167386 1_555
Sc67 Sc9 2.988539 1_545
Sc67 Sc70 3.068444 1_555
Sc67 Sc77 3.068444 1_545
Sc67 Sc84 3.167386 1_555
Sc68 Sc73 3.068444 1_555
Sc68 Sc72 3.068444 1_545
Sc68 Sc84 3.167386 1_555
Sc69 Sc75 3.068444 1_455
Sc69 Sc71 3.068444 1_554
Sc69 Sc85 3.167386 1_555
Sc70 Sc84 3.408051 1_555
Sc70 Sc82 3.408051 1_555
Sc71 Sc83 3.408051 1_556
Sc71 Sc85 3.408051 1_556
Sc72 Sc84 3.408051 1_565
Sc72 Sc83 3.408051 1_565
Sc73 Sc84 3.408051 1_555
Sc73 Sc86 3.408051 1_555
Sc74 Sc82 3.408051 1_655
Sc74 Sc85 3.408051 1_655
Sc75 Sc85 3.408051 1_655
Sc75 Sc87 3.408051 1_655
Sc76 Sc86 3.408051 1_556
Sc76 Sc85 3.408051 1_556
Sc77 Sc84 3.408051 1_565
Sc77 Sc87 3.408051 1_565
Sc78 Sc86 3.408051 1_555
Sc78 Sc82 3.408051 1_555
Sc79 Sc82 3.408051 1_655
Sc79 Sc87 3.408051 1_655
Sc80 Sc86 3.408051 1_556
Sc80 Sc83 3.408051 1_556
Sc81 Sc83 3.408051 1_565
Sc81 Sc87 3.408051 1_565
Sc84 Sc9 3.426208 1_545
Ru0 Sc3 2.774242 1_555
Ru0 Sc0 2.774242 1_555
Ru0 Sc8 2.774242 1_555
Ru0 Sc16 2.947762 1_556
Ru0 Sc14 2.947762 1_565
Ru0 Sc12 2.947762 1_655
Ru0 Sc58 3.133594 1_665
Ru0 Sc66 3.133594 1_656
Ru0 Sc61 3.133594 1_566
Ru0 Sc37 3.152666 1_655
Ru0 Sc42 3.152666 1_565
Ru0 Sc34 3.152666 1_556
Ru1 Sc1 2.774213 1_555
Ru1 Sc6 2.774229 1_555
Ru1 Sc10 2.774229 1_555
Ru1 Sc15 2.947769 1_655
Ru1 Sc13 2.947769 1_565
Ru1 Sc16 2.947777 1_555
Ru1 Sc59 3.133588 1_665
Ru1 Sc64 3.133601 1_655
Ru1 Sc68 3.133601 1_565
Ru1 Sc40 3.152666 1_565
Ru1 Sc44 3.152666 1_655
Ru1 Sc35 3.152666 1_555
Ru2 Sc11 2.774213 1_555
Ru2 Sc2 2.774229 1_555
Ru2 Sc7 2.774229 1_555
Ru2 Sc17 2.947769 1_655
Ru2 Sc13 2.947769 1_556
Ru2 Sc14 2.947777 1_555
Ru2 Sc69 3.133588 1_656
Ru2 Sc60 3.133601 1_556
Ru2 Sc65 3.133601 1_655
Ru2 Sc41 3.152666 1_556
Ru2 Sc36 3.152666 1_655
Ru2 Sc45 3.152666 1_555
Ru3 Sc5 2.774213 1_555
Ru3 Sc4 2.774229 1_555
Ru3 Sc9 2.774229 1_555
Ru3 Sc17 2.947769 1_565
Ru3 Sc15 2.947769 1_556
Ru3 Sc12 2.947777 1_555
Ru3 Sc63 3.133588 1_566
Ru3 Sc62 3.133601 1_556
Ru3 Sc67 3.133601 1_565
Ru3 Sc38 3.152666 1_565
Ru3 Sc43 3.152666 1_556
Ru3 Sc39 3.152666 1_555
Ru4 Sc41 2.665037 1_555
Ru4 Sc40 2.665037 1_555
Ru4 Sc56 2.711494 1_555
Ru4 Sc55 2.711494 1_555
Ru4 Sc49 2.978192 1_555
Ru4 Sc46 2.978205 1_555
Ru4 Sc75 3.031037 1_555
Ru4 Sc73 3.031037 1_555
Ru4 Sc26 3.424363 1_555
Ru4 Sc31 3.424363 1_555
Ru4 Sc30 3.424371 1_555
Ru4 Sc22 3.424371 1_555
Ru5 Sc37 2.665041 1_555
Ru5 Sc39 2.665049 1_555
Ru5 Sc57 2.711494 1_555
Ru5 Sc54 2.711494 1_555
Ru5 Sc48 2.978204 1_555
Ru5 Sc47 2.978204 1_555
Ru5 Sc77 3.031037 1_555
Ru5 Sc76 3.031037 1_555
Ru5 Sc33 3.424360 1_555
Ru5 Sc23 3.424360 1_555
Ru5 Sc32 3.424373 1_555
Ru5 Sc24 3.424373 1_555
Ru6 Sc44 2.665037 1_555
Ru6 Sc43 2.665037 1_555
Ru6 Sc57 2.711494 1_555
Ru6 Sc55 2.711494 1_555
Ru6 Sc48 2.978192 1_555
Ru6 Sc46 2.978205 1_555
Ru6 Sc81 3.031037 1_555
Ru6 Sc78 3.031037 1_555
Ru6 Sc24 3.424363 1_555
Ru6 Sc29 3.424363 1_555
Ru6 Sc25 3.424371 1_555
Ru6 Sc22 3.424371 1_555
Ru7 Sc42 2.665041 1_555
Ru7 Sc45 2.665049 1_555
Ru7 Sc56 2.711494 1_555
Ru7 Sc54 2.711494 1_555
Ru7 Sc49 2.978204 1_555
Ru7 Sc47 2.978204 1_555
Ru7 Sc80 3.031037 1_555
Ru7 Sc79 3.031037 1_555
Ru7 Sc27 3.424360 1_555
Ru7 Sc23 3.424360 1_555
Ru7 Sc26 3.424373 1_555
Ru7 Sc28 3.424373 1_555
Ru8 Sc38 2.665037 1_555
Ru8 Sc36 2.665037 1_555
Ru8 Sc57 2.711494 1_555
Ru8 Sc56 2.711494 1_555
Ru8 Sc47 2.978192 1_555
Ru8 Sc46 2.978205 1_555
Ru8 Sc71 3.031037 1_555
Ru8 Sc70 3.031037 1_555
Ru8 Sc32 3.424363 1_555
Ru8 Sc28 3.424363 1_555
Ru8 Sc25 3.424371 1_555
Ru8 Sc30 3.424371 1_555
Ru9 Sc34 2.665041 1_555
Ru9 Sc35 2.665049 1_555
Ru9 Sc55 2.711494 1_555
Ru9 Sc54 2.711494 1_555
Ru9 Sc49 2.978204 1_555
Ru9 Sc48 2.978204 1_555
Ru9 Sc74 3.031037 1_555
Ru9 Sc72 3.031037 1_555
Ru9 Sc33 3.424360 1_555
Ru9 Sc27 3.424360 1_555
Ru9 Sc31 3.424373 1_555
Ru9 Sc29 3.424373 1_555
Ru10 Sc69 2.797483 1_555
Ru10 Sc63 2.797483 1_555
Ru10 Sc59 2.797483 1_555
Ru10 Sc53 2.982964 1_555
Ru10 Sc52 2.982964 1_555
Ru10 Sc51 2.982964 1_555
Ru10 Sc71 3.118696 1_554
Ru10 Sc81 3.118696 1_545
Ru10 Sc75 3.118696 1_455
Ru10 Sc83 3.320398 1_555
Ru10 Sc85 3.320398 1_555
Ru10 Sc87 3.320398 1_555
Ru11 Sc67 2.797483 1_555
Ru11 Sc65 2.797483 1_555
Ru11 Sc58 2.797483 1_555
Ru11 Sc52 2.982952 1_555
Ru11 Sc53 2.982952 1_555
Ru11 Sc50 2.982960 1_555
Ru11 Sc70 3.118696 1_555
Ru11 Sc79 3.118696 1_455
Ru11 Sc77 3.118696 1_545
Ru11 Sc82 3.320398 1_555
Ru11 Sc84 3.320398 1_555
Ru11 Sc87 3.320398 1_555
Ru12 Sc64 2.797483 1_555
Ru12 Sc62 2.797483 1_555
Ru12 Sc66 2.797483 1_555
Ru12 Sc53 2.982952 1_555
Ru12 Sc51 2.982952 1_555
Ru12 Sc50 2.982960 1_555
Ru12 Sc78 3.118696 1_555
Ru12 Sc76 3.118696 1_554
Ru12 Sc74 3.118696 1_455
Ru12 Sc82 3.320398 1_555
Ru12 Sc86 3.320398 1_555
Ru12 Sc85 3.320398 1_555
Ru13 Sc60 2.797483 1_555
Ru13 Sc68 2.797483 1_555
Ru13 Sc61 2.797483 1_555
Ru13 Sc52 2.982952 1_555
Ru13 Sc51 2.982952 1_555
Ru13 Sc50 2.982960 1_555
Ru13 Sc73 3.118696 1_555
Ru13 Sc80 3.118696 1_554
Ru13 Sc72 3.118696 1_545
Ru13 Sc84 3.320398 1_555
Ru13 Sc86 3.320398 1_555
Ru13 Sc83 3.320398 1_555
