# generated using pymatgen
data_NbN
_symmetry_space_group_name_H-M   'P 1'
_cell_length_a   3.14837032
_cell_length_b   3.14837032
_cell_length_c   3.14837032
_cell_angle_alpha   60.00000000
_cell_angle_beta   60.00000000
_cell_angle_gamma   60.00000000
_symmetry_Int_Tables_number   1
_chemical_formula_structural   NbN
_chemical_formula_sum   'Nb1 N1'
_cell_volume   22.06695601
_cell_formula_units_Z   1
loop_
 _symmetry_equiv_pos_site_id
 _symmetry_equiv_pos_as_xyz
  1  'x, y, z'
loop_
 _atom_site_type_symbol
 _atom_site_label
 _atom_site_symmetry_multiplicity
 _atom_site_fract_x
 _atom_site_fract_y
 _atom_site_fract_z
 _atom_site_occupancy
  Nb  Nb0  1  0.50000000  0.50000000  0.50000000  1
  N  N0  1  0.00000000  0.00000000  0.00000000  1
loop_
_geom_bond_atom_site_label_1
_geom_bond_atom_site_label_2
_geom_bond_distance
_geom_bond_site_symmetry_2
N0 Nb0 2.226234 1_445
N0 Nb0 2.226234 1_455
N0 Nb0 2.226234 1_554
N0 Nb0 2.226234 1_454
N0 Nb0 2.226234 1_545
N0 Nb0 2.226234 1_544
