# generated using pymatgen
data_Y3Mg2(GeO4)3
_symmetry_space_group_name_H-M   'P 1'
_cell_length_a   10.83686863
_cell_length_b   10.83686863
_cell_length_c   10.83686863
_cell_angle_alpha   109.47122063
_cell_angle_beta   109.47122063
_cell_angle_gamma   109.47122063
_symmetry_Int_Tables_number   1
_chemical_formula_structural   Y3Mg2(GeO4)3
_chemical_formula_sum   'Y12 Mg8 Ge12 O48'
_cell_volume   979.69194000
_cell_formula_units_Z   4
loop_
 _symmetry_equiv_pos_site_id
 _symmetry_equiv_pos_as_xyz
  1  'x, y, z'
loop_
 _atom_site_type_symbol
 _atom_site_label
 _atom_site_symmetry_multiplicity
 _atom_site_fract_x
 _atom_site_fract_y
 _atom_site_fract_z
 _atom_site_occupancy
  Y  Y0  1  0.87500000  0.62500000  0.75000000  1
  Y  Y1  1  0.12500000  0.37500000  0.25000000  1
  Y  Y2  1  0.62500000  0.87500000  0.25000000  1
  Y  Y3  1  0.62500000  0.75000000  0.87500000  1
  Y  Y4  1  0.87500000  0.25000000  0.62500000  1
  Y  Y5  1  0.37500000  0.12500000  0.75000000  1
  Y  Y6  1  0.37500000  0.25000000  0.12500000  1
  Y  Y7  1  0.12500000  0.75000000  0.37500000  1
  Y  Y8  1  0.75000000  0.87500000  0.62500000  1
  Y  Y9  1  0.25000000  0.12500000  0.37500000  1
  Y  Y10  1  0.25000000  0.62500000  0.87500000  1
  Y  Y11  1  0.75000000  0.37500000  0.12500000  1
  Mg  Mg0  1  -0.00000000  0.00000000  0.00000000  1
  Mg  Mg1  1  0.50000000  0.00000000  0.50000000  1
  Mg  Mg2  1  0.50000000  0.50000000  0.00000000  1
  Mg  Mg3  1  -0.00000000  0.00000000  0.50000000  1
  Mg  Mg4  1  -0.00000000  0.50000000  0.50000000  1
  Mg  Mg5  1  0.50000000  0.50000000  0.50000000  1
  Mg  Mg6  1  0.50000000  0.00000000  0.00000000  1
  Mg  Mg7  1  -0.00000000  0.50000000  0.00000000  1
  Ge  Ge0  1  0.62500000  0.37500000  0.75000000  1
  Ge  Ge1  1  0.37500000  0.62500000  0.25000000  1
  Ge  Ge2  1  0.87500000  0.12500000  0.25000000  1
  Ge  Ge3  1  0.37500000  0.75000000  0.62500000  1
  Ge  Ge4  1  0.62500000  0.25000000  0.37500000  1
  Ge  Ge5  1  0.12500000  0.87500000  0.75000000  1
  Ge  Ge6  1  0.12500000  0.25000000  0.87500000  1
  Ge  Ge7  1  0.87500000  0.75000000  0.12500000  1
  Ge  Ge8  1  0.75000000  0.62500000  0.37500000  1
  Ge  Ge9  1  0.25000000  0.37500000  0.62500000  1
  Ge  Ge10  1  0.25000000  0.87500000  0.12500000  1
  Ge  Ge11  1  0.75000000  0.12500000  0.87500000  1
  O  O0  1  0.71207209  0.62528614  0.52561480  1
  O  O1  1  0.28792791  0.37471386  0.47438520  1
  O  O2  1  0.78792791  0.81354271  0.41321405  1
  O  O3  1  0.40032866  0.87471386  0.08678595  1
  O  O4  1  0.62528614  0.52561480  0.71207209  1
  O  O5  1  0.71207209  0.08678595  0.68645729  1
  O  O6  1  0.21207209  0.18645729  0.58678595  1
  O  O7  1  0.59967134  0.12528614  0.91321405  1
  O  O8  1  0.37471386  0.47438520  0.28792791  1
  O  O9  1  0.28792791  0.91321405  0.31354271  1
  O  O10  1  0.09967134  0.68645729  0.97438520  1
  O  O11  1  0.81354271  0.41321405  0.78792791  1
  O  O12  1  0.78792791  0.97438520  0.87471386  1
  O  O13  1  0.90032866  0.31354271  0.02561480  1
  O  O14  1  0.18645729  0.58678595  0.21207209  1
  O  O15  1  0.21207209  0.02561480  0.12528614  1
  O  O16  1  0.87471386  0.08678595  0.40032866  1
  O  O17  1  0.40032866  0.52561480  0.81354271  1
  O  O18  1  0.12528614  0.91321405  0.59967134  1
  O  O19  1  0.59967134  0.47438520  0.18645729  1
  O  O20  1  0.68645729  0.97438520  0.09967134  1
  O  O21  1  0.09967134  0.41321405  0.62528614  1
  O  O22  1  0.31354271  0.02561480  0.90032866  1
  O  O23  1  0.90032866  0.58678595  0.37471386  1
  O  O24  1  0.52561480  0.71207209  0.62528614  1
  O  O25  1  0.62528614  0.09967134  0.41321405  1
  O  O26  1  0.47438520  0.28792791  0.37471386  1
  O  O27  1  0.37471386  0.90032866  0.58678595  1
  O  O28  1  0.08678595  0.40032866  0.87471386  1
  O  O29  1  0.87471386  0.78792791  0.97438520  1
  O  O30  1  0.91321405  0.59967134  0.12528614  1
  O  O31  1  0.12528614  0.21207209  0.02561480  1
  O  O32  1  0.97438520  0.09967134  0.68645729  1
  O  O33  1  0.68645729  0.71207209  0.08678595  1
  O  O34  1  0.02561480  0.90032866  0.31354271  1
  O  O35  1  0.31354271  0.28792791  0.91321405  1
  O  O36  1  0.41321405  0.78792791  0.81354271  1
  O  O37  1  0.81354271  0.40032866  0.52561480  1
  O  O38  1  0.58678595  0.21207209  0.18645729  1
  O  O39  1  0.18645729  0.59967134  0.47438520  1
  O  O40  1  0.08678595  0.68645729  0.71207209  1
  O  O41  1  0.91321405  0.31354271  0.28792791  1
  O  O42  1  0.97438520  0.87471386  0.78792791  1
  O  O43  1  0.02561480  0.12528614  0.21207209  1
  O  O44  1  0.41321405  0.62528614  0.09967134  1
  O  O45  1  0.58678595  0.37471386  0.90032866  1
  O  O46  1  0.52561480  0.81354271  0.40032866  1
  O  O47  1  0.47438520  0.18645729  0.59967134  1
loop_
_geom_bond_atom_site_label_1
_geom_bond_atom_site_label_2
_geom_bond_distance
_geom_bond_site_symmetry_2
Mg0 O42 2.108412 1_444
Mg0 O29 2.108412 1_444
Mg0 O12 2.108412 1_444
Mg0 O15 2.108412 1_555
Mg0 O43 2.108412 1_555
Mg0 O31 2.108412 1_555
Mg1 O46 2.108412 1_545
Mg1 O27 2.108412 1_545
Mg1 O9 2.108412 1_545
Mg1 O5 2.108412 1_555
Mg1 O25 2.108412 1_555
Mg1 O47 2.108412 1_555
Mg2 O17 2.108412 1_554
Mg2 O45 2.108412 1_554
Mg2 O35 2.108412 1_554
Mg2 O44 2.108412 1_555
Mg2 O33 2.108412 1_555
Mg2 O19 2.108412 1_555
Mg3 O2 2.108412 1_445
Mg3 O18 2.108412 1_545
Mg3 O16 2.108412 1_455
Mg3 O32 2.108412 1_455
Mg3 O6 2.108412 1_555
Mg3 O34 2.108412 1_545
Mg4 O37 2.108412 1_455
Mg4 O23 2.108412 1_455
Mg4 O41 2.108412 1_455
Mg4 O40 2.108412 1_555
Mg4 O21 2.108412 1_555
Mg4 O39 2.108412 1_555
Mg5 O26 2.108412 1_555
Mg5 O8 2.108412 1_555
Mg5 O1 2.108412 1_555
Mg5 O0 2.108412 1_555
Mg5 O4 2.108412 1_555
Mg5 O24 2.108412 1_555
Mg6 O36 2.108412 1_544
Mg6 O3 2.108412 1_545
Mg6 O7 2.108412 1_554
Mg6 O22 2.108412 1_554
Mg6 O38 2.108412 1_555
Mg6 O20 2.108412 1_545
Mg7 O11 2.108412 1_454
Mg7 O28 2.108412 1_554
Mg7 O14 2.108412 1_555
Mg7 O13 2.108412 1_455
Mg7 O30 2.108412 1_455
Mg7 O10 2.108412 1_554
Ge0 O4 1.810447 1_555
Ge0 O11 1.810447 1_555
Ge0 O45 1.810447 1_555
Ge0 O47 1.810447 1_555
Ge1 O46 1.810447 1_555
Ge1 O14 1.810447 1_555
Ge1 O44 1.810447 1_555
Ge1 O8 1.810447 1_555
Ge2 O16 1.810447 1_555
Ge2 O41 1.810447 1_555
Ge2 O20 1.810447 1_545
Ge2 O43 1.810447 1_655
Ge3 O24 1.810447 1_555
Ge3 O36 1.810447 1_555
Ge3 O27 1.810447 1_555
Ge3 O39 1.810447 1_555
Ge4 O37 1.810447 1_555
Ge4 O38 1.810447 1_555
Ge4 O25 1.810447 1_555
Ge4 O26 1.810447 1_555
Ge5 O18 1.810447 1_555
Ge5 O22 1.810447 1_565
Ge5 O40 1.810447 1_555
Ge5 O42 1.810447 1_455
Ge6 O28 1.810447 1_555
Ge6 O35 1.810447 1_555
Ge6 O32 1.810447 1_455
Ge6 O31 1.810447 1_556
Ge7 O30 1.810447 1_555
Ge7 O33 1.810447 1_555
Ge7 O34 1.810447 1_655
Ge7 O29 1.810447 1_554
Ge8 O0 1.810447 1_555
Ge8 O2 1.810447 1_555
Ge8 O23 1.810447 1_555
Ge8 O19 1.810447 1_555
Ge9 O17 1.810447 1_555
Ge9 O6 1.810447 1_555
Ge9 O21 1.810447 1_555
Ge9 O1 1.810447 1_555
Ge10 O3 1.810447 1_555
Ge10 O9 1.810447 1_555
Ge10 O10 1.810447 1_554
Ge10 O15 1.810447 1_565
Ge11 O13 1.810447 1_556
Ge11 O5 1.810447 1_555
Ge11 O7 1.810447 1_555
Ge11 O12 1.810447 1_545
O0 Y8 2.381663 1_555
O0 Y0 2.485303 1_555
O1 Y9 2.381663 1_555
O1 Y1 2.485303 1_555
O2 Y8 2.381663 1_555
O2 Y2 2.485303 1_555
O3 Y10 2.381663 1_554
O3 Y2 2.485303 1_555
O4 Y0 2.381663 1_555
O4 Y3 2.485303 1_555
O5 Y8 2.381663 1_545
O5 Y4 2.485303 1_555
O6 Y9 2.381663 1_555
O6 Y5 2.485303 1_555
O7 Y11 2.381663 1_556
O7 Y5 2.485303 1_555
O8 Y1 2.381663 1_555
O8 Y6 2.485303 1_555
O9 Y9 2.381663 1_565
O9 Y7 2.485303 1_555
O10 Y10 2.381663 1_555
O10 Y0 2.485303 1_455
O11 Y0 2.381663 1_555
O11 Y4 2.485303 1_555
O12 Y8 2.381663 1_555
O12 Y3 2.485303 1_555
O13 Y11 2.381663 1_555
O13 Y1 2.485303 1_655
O14 Y1 2.381663 1_555
O14 Y7 2.485303 1_555
O15 Y9 2.381663 1_555
O15 Y6 2.485303 1_555
O16 Y2 2.381663 1_545
O16 Y4 2.485303 1_555
O17 Y10 2.381663 1_555
O17 Y3 2.485303 1_555
O18 Y5 2.381663 1_565
O18 Y7 2.485303 1_555
O19 Y11 2.381663 1_555
O19 Y6 2.485303 1_555
O20 Y2 2.381663 1_555
O20 Y3 2.485303 1_554
O21 Y10 2.381663 1_555
O21 Y4 2.485303 1_455
O22 Y5 2.381663 1_555
O22 Y6 2.485303 1_556
O23 Y11 2.381663 1_555
O23 Y7 2.485303 1_655
O24 Y3 2.381663 1_555
O24 Y8 2.485303 1_555
O25 Y4 2.381663 1_555
O25 Y2 2.485303 1_545
O26 Y6 2.381663 1_555
O26 Y9 2.485303 1_555
O27 Y7 2.381663 1_555
O27 Y5 2.485303 1_565
O28 Y4 2.381663 1_455
O28 Y10 2.485303 1_555
O29 Y3 2.381663 1_555
O29 Y0 2.485303 1_555
O30 Y7 2.381663 1_655
O30 Y11 2.485303 1_555
O31 Y6 2.381663 1_555
O31 Y1 2.485303 1_555
O32 Y4 2.381663 1_555
O32 Y8 2.485303 1_545
O33 Y3 2.381663 1_554
O33 Y2 2.485303 1_555
O34 Y7 2.381663 1_555
O34 Y9 2.485303 1_565
O35 Y6 2.381663 1_556
O35 Y5 2.485303 1_555
O36 Y3 2.381663 1_555
O36 Y10 2.485303 1_555
O37 Y4 2.381663 1_555
O37 Y0 2.485303 1_555
O38 Y6 2.381663 1_555
O38 Y11 2.485303 1_555
O39 Y7 2.381663 1_555
O39 Y1 2.485303 1_555
O40 Y0 2.381663 1_455
O40 Y10 2.485303 1_555
O41 Y1 2.381663 1_655
O41 Y11 2.485303 1_555
O42 Y0 2.381663 1_555
O42 Y8 2.485303 1_555
O43 Y1 2.381663 1_555
O43 Y9 2.485303 1_555
O44 Y2 2.381663 1_555
O44 Y10 2.485303 1_554
O45 Y5 2.381663 1_555
O45 Y11 2.485303 1_556
O46 Y2 2.381663 1_555
O46 Y8 2.485303 1_555
O47 Y5 2.381663 1_555
O47 Y9 2.485303 1_555
