# generated using pymatgen
data_BaTb
_symmetry_space_group_name_H-M   'P 1'
_cell_length_a   7.78407200
_cell_length_b   7.78361912
_cell_length_c   12.95842400
_cell_angle_alpha   90.00000000
_cell_angle_beta   90.00000000
_cell_angle_gamma   120.00194171
_symmetry_Int_Tables_number   1
_chemical_formula_structural   BaTb
_chemical_formula_sum   'Ba8 Tb8'
_cell_volume   679.92770968
_cell_formula_units_Z   8
loop_
 _symmetry_equiv_pos_site_id
 _symmetry_equiv_pos_as_xyz
  1  'x, y, z'
loop_
 _atom_site_type_symbol
 _atom_site_label
 _atom_site_symmetry_multiplicity
 _atom_site_fract_x
 _atom_site_fract_y
 _atom_site_fract_z
 _atom_site_occupancy
  Ba  Ba0_0  1  0.33332350  0.16664600  0.37500000  1
  Ba  Ba0_1  1  0.33332350  0.16664600  0.87500000  1
  Ba  Ba0_2  1  0.33332350  0.66664600  0.37500000  1
  Ba  Ba0_3  1  0.33332350  0.66664600  0.87500000  1
  Ba  Ba0_4  1  0.83332350  0.16664600  0.37500000  1
  Ba  Ba0_5  1  0.83332350  0.16664600  0.87500000  1
  Ba  Ba0_6  1  0.83332350  0.66664600  0.37500000  1
  Ba  Ba0_7  1  0.83332350  0.66664600  0.87500000  1
  Tb  Tb0_0  1  0.16667750  0.33335450  0.12499950  1
  Tb  Tb0_1  1  0.16667750  0.33335450  0.62499950  1
  Tb  Tb0_2  1  0.16667750  0.83335450  0.12499950  1
  Tb  Tb0_3  1  0.16667750  0.83335450  0.62499950  1
  Tb  Tb0_4  1  0.66667750  0.33335450  0.12499950  1
  Tb  Tb0_5  1  0.66667750  0.33335450  0.62499950  1
  Tb  Tb0_6  1  0.66667750  0.83335450  0.12499950  1
  Tb  Tb0_7  1  0.66667750  0.83335450  0.62499950  1
loop_
_geom_bond_atom_site_label_1
_geom_bond_atom_site_label_2
_geom_bond_distance
_geom_bond_site_symmetry_2
Ba0_0 Ba0_6 3.891809 1_445
Ba0_0 Ba0_6 3.891809 1_555
Ba0_0 Ba0_2 3.891810 1_545
Ba0_0 Ba0_2 3.891810 1_555
Ba0_0 Ba0_4 3.892036 1_455
Ba0_0 Ba0_4 3.892036 1_555
Ba0_0 Tb0_3 3.942368 1_545
Ba0_0 Tb0_2 3.942379 1_545
Ba0_0 Tb0_5 3.942683 1_555
Ba0_0 Tb0_1 3.942685 1_555
Ba0_0 Tb0_4 3.942694 1_555
Ba0_0 Tb0_0 3.942696 1_555
Ba0_1 Ba0_7 3.891809 1_445
Ba0_1 Ba0_7 3.891809 1_555
Ba0_1 Ba0_3 3.891810 1_545
Ba0_1 Ba0_3 3.891810 1_555
Ba0_1 Ba0_5 3.892036 1_555
Ba0_1 Ba0_5 3.892036 1_455
Ba0_1 Tb0_2 3.942368 1_546
Ba0_1 Tb0_3 3.942379 1_545
Ba0_1 Tb0_4 3.942683 1_556
Ba0_1 Tb0_0 3.942685 1_556
Ba0_1 Tb0_5 3.942694 1_555
Ba0_1 Tb0_1 3.942696 1_555
Ba0_2 Ba0_4 3.891809 1_565
Ba0_2 Ba0_4 3.891809 1_455
Ba0_2 Ba0_6 3.892036 1_555
Ba0_2 Ba0_6 3.892036 1_455
Ba0_2 Tb0_1 3.942368 1_555
Ba0_2 Tb0_0 3.942379 1_555
Ba0_2 Tb0_7 3.942683 1_555
Ba0_2 Tb0_3 3.942685 1_555
Ba0_2 Tb0_6 3.942694 1_555
Ba0_2 Tb0_2 3.942696 1_555
Ba0_3 Ba0_5 3.891809 1_565
Ba0_3 Ba0_5 3.891809 1_455
Ba0_3 Ba0_7 3.892036 1_555
Ba0_3 Ba0_7 3.892036 1_455
Ba0_3 Tb0_0 3.942368 1_556
Ba0_3 Tb0_1 3.942379 1_555
Ba0_3 Tb0_6 3.942683 1_556
Ba0_3 Tb0_2 3.942685 1_556
Ba0_3 Tb0_7 3.942694 1_555
Ba0_3 Tb0_3 3.942696 1_555
Ba0_4 Ba0_6 3.891810 1_545
Ba0_4 Ba0_6 3.891810 1_555
Ba0_4 Tb0_7 3.942368 1_545
Ba0_4 Tb0_6 3.942379 1_545
Ba0_4 Tb0_1 3.942683 1_655
Ba0_4 Tb0_5 3.942685 1_555
Ba0_4 Tb0_0 3.942694 1_655
Ba0_4 Tb0_4 3.942696 1_555
Ba0_5 Ba0_7 3.891810 1_545
Ba0_5 Ba0_7 3.891810 1_555
Ba0_5 Tb0_6 3.942368 1_546
Ba0_5 Tb0_7 3.942379 1_545
Ba0_5 Tb0_0 3.942683 1_656
Ba0_5 Tb0_4 3.942685 1_556
Ba0_5 Tb0_1 3.942694 1_655
Ba0_5 Tb0_5 3.942696 1_555
Ba0_6 Tb0_5 3.942368 1_555
Ba0_6 Tb0_4 3.942379 1_555
Ba0_6 Tb0_3 3.942683 1_655
Ba0_6 Tb0_7 3.942685 1_555
Ba0_6 Tb0_2 3.942694 1_655
Ba0_6 Tb0_6 3.942696 1_555
Ba0_7 Tb0_4 3.942368 1_556
Ba0_7 Tb0_5 3.942379 1_555
Ba0_7 Tb0_2 3.942683 1_656
Ba0_7 Tb0_6 3.942685 1_556
Ba0_7 Tb0_3 3.942694 1_655
Ba0_7 Tb0_7 3.942696 1_555
Tb0_0 Tb0_6 3.891809 1_555
Tb0_0 Tb0_6 3.891809 1_445
Tb0_0 Tb0_2 3.891810 1_545
Tb0_0 Tb0_2 3.891810 1_555
Tb0_0 Tb0_4 3.892036 1_555
Tb0_0 Tb0_4 3.892036 1_455
Tb0_1 Tb0_7 3.891809 1_555
Tb0_1 Tb0_7 3.891809 1_445
Tb0_1 Tb0_3 3.891810 1_545
Tb0_1 Tb0_3 3.891810 1_555
Tb0_1 Tb0_5 3.892036 1_555
Tb0_1 Tb0_5 3.892036 1_455
Tb0_2 Tb0_4 3.891809 1_455
Tb0_2 Tb0_4 3.891809 1_565
Tb0_2 Tb0_6 3.892036 1_555
Tb0_2 Tb0_6 3.892036 1_455
Tb0_3 Tb0_5 3.891809 1_455
Tb0_3 Tb0_5 3.891809 1_565
Tb0_3 Tb0_7 3.892036 1_555
Tb0_3 Tb0_7 3.892036 1_455
Tb0_4 Tb0_6 3.891810 1_545
Tb0_4 Tb0_6 3.891810 1_555
Tb0_5 Tb0_7 3.891810 1_555
Tb0_5 Tb0_7 3.891810 1_545
