# generated using pymatgen
data_PrAlCo4
_symmetry_space_group_name_H-M   'P 1'
_cell_length_a   5.19150283
_cell_length_b   5.19150283
_cell_length_c   3.88254200
_cell_angle_alpha   90.00000000
_cell_angle_beta   90.00000000
_cell_angle_gamma   119.99998512
_symmetry_Int_Tables_number   1
_chemical_formula_structural   PrAlCo4
_chemical_formula_sum   'Pr1 Al1 Co4'
_cell_volume   90.62187631
_cell_formula_units_Z   1
loop_
 _symmetry_equiv_pos_site_id
 _symmetry_equiv_pos_as_xyz
  1  'x, y, z'
loop_
 _atom_site_type_symbol
 _atom_site_label
 _atom_site_symmetry_multiplicity
 _atom_site_fract_x
 _atom_site_fract_y
 _atom_site_fract_z
 _atom_site_occupancy
  Pr  Pr0  1  0.33333300  0.66666700  0.00000000  1
  Al  Al0  1  0.66666700  0.33333300  0.00000000  1
  Co  Co0  1  0.00000000  0.00000000  0.00000000  1
  Co  Co1  1  0.32520200  0.16260100  0.50000000  1
  Co  Co2  1  0.83739900  0.16260100  0.50000000  1
  Co  Co3  1  0.83739900  0.67479800  0.50000000  1
loop_
_geom_bond_atom_site_label_1
_geom_bond_atom_site_label_2
_geom_bond_distance
_geom_bond_site_symmetry_2
Al0 Co2 2.474957 1_555
Al0 Co2 2.474957 1_554
Al0 Co1 2.474960 1_554
Al0 Co1 2.474960 1_555
Al0 Co3 2.474960 1_554
Al0 Co3 2.474960 1_555
Al0 Co0 2.997312 1_655
Al0 Pr0 2.997313 1_545
Al0 Pr0 2.997313 1_655
Al0 Co0 2.997318 1_555
Al0 Co0 2.997318 1_665
Al0 Pr0 2.997321 1_555
Co0 Co2 2.430281 1_454
Co0 Co2 2.430281 1_455
Co0 Co1 2.430282 1_554
Co0 Co3 2.430282 1_444
Co0 Co3 2.430282 1_445
Co0 Co1 2.430282 1_555
Co0 Pr0 2.997312 1_545
Co0 Pr0 2.997318 1_445
Co0 Pr0 2.997318 1_555
Co1 Co2 2.532431 1_455
Co1 Co3 2.532431 1_445
Co1 Co2 2.659072 1_555
Co1 Co3 2.659073 1_555
Co1 Pr0 3.241571 1_545
Co1 Pr0 3.241571 1_546
Co1 Pr0 3.241575 1_555
Co1 Pr0 3.241575 1_556
Co2 Co3 2.532431 1_545
Co2 Co3 2.659072 1_555
Co2 Pr0 3.241573 1_545
Co2 Pr0 3.241573 1_546
Co2 Pr0 3.241573 1_656
Co2 Pr0 3.241573 1_655
Co3 Pr0 3.241571 1_656
Co3 Pr0 3.241571 1_655
Co3 Pr0 3.241575 1_555
Co3 Pr0 3.241575 1_556
