# generated using pymatgen
data_Ho2Mn3Co14
_symmetry_space_group_name_H-M   'P 1'
_cell_length_a   8.30622090
_cell_length_b   8.30622090
_cell_length_c   8.17347000
_cell_angle_alpha   90.00000000
_cell_angle_beta   90.00000000
_cell_angle_gamma   120.02888634
_symmetry_Int_Tables_number   1
_chemical_formula_structural   Ho2Mn3Co14
_chemical_formula_sum   'Ho4 Mn6 Co28'
_cell_volume   488.22225359
_cell_formula_units_Z   2
loop_
 _symmetry_equiv_pos_site_id
 _symmetry_equiv_pos_as_xyz
  1  'x, y, z'
loop_
 _atom_site_type_symbol
 _atom_site_label
 _atom_site_symmetry_multiplicity
 _atom_site_fract_x
 _atom_site_fract_y
 _atom_site_fract_z
 _atom_site_occupancy
  Ho  Ho0  1  0.99998400  0.00001600  0.75000000  1
  Ho  Ho1  1  0.00001600  0.99998400  0.25000000  1
  Ho  Ho2  1  0.66665100  0.33334900  0.25000000  1
  Ho  Ho3  1  0.33334900  0.66665100  0.75000000  1
  Mn  Mn0  1  0.50000000  0.00000000  0.50000000  1
  Mn  Mn1  1  0.50000000  0.50000000  0.50000000  1
  Mn  Mn2  1  0.00000000  0.50000000  0.50000000  1
  Mn  Mn3  1  0.50000000  0.00000000  0.00000000  1
  Mn  Mn4  1  0.50000000  0.50000000  0.00000000  1
  Mn  Mn5  1  0.00000000  0.50000000  0.00000000  1
  Co  Co0  1  0.66668700  0.33331300  0.60950600  1
  Co  Co1  1  0.33331300  0.66668700  0.39049400  1
  Co  Co2  1  0.33331300  0.66668700  0.10950600  1
  Co  Co3  1  0.66668700  0.33331300  0.89049400  1
  Co  Co4  1  0.67177600  0.04317800  0.75000000  1
  Co  Co5  1  0.37155100  0.32827700  0.75000000  1
  Co  Co6  1  0.95680400  0.62863600  0.75000000  1
  Co  Co7  1  0.37136400  0.04319600  0.75000000  1
  Co  Co8  1  0.95682200  0.32822400  0.75000000  1
  Co  Co9  1  0.67172300  0.62844900  0.75000000  1
  Co  Co10  1  0.32822400  0.95682200  0.25000000  1
  Co  Co11  1  0.62844900  0.67172300  0.25000000  1
  Co  Co12  1  0.04319600  0.37136400  0.25000000  1
  Co  Co13  1  0.62863600  0.95680400  0.25000000  1
  Co  Co14  1  0.04317800  0.67177600  0.25000000  1
  Co  Co15  1  0.32827700  0.37155100  0.25000000  1
  Co  Co16  1  0.83681900  0.67361000  0.48706900  1
  Co  Co17  1  0.83683500  0.16316500  0.48716100  1
  Co  Co18  1  0.32639000  0.16318100  0.48706900  1
  Co  Co19  1  0.16318100  0.32639000  0.51293100  1
  Co  Co20  1  0.16316500  0.83683500  0.51283900  1
  Co  Co21  1  0.67361000  0.83681900  0.51293100  1
  Co  Co22  1  0.16318100  0.32639000  0.98706900  1
  Co  Co23  1  0.16316500  0.83683500  0.98716100  1
  Co  Co24  1  0.67361000  0.83681900  0.98706900  1
  Co  Co25  1  0.83681900  0.67361000  0.01293100  1
  Co  Co26  1  0.83683500  0.16316500  0.01283900  1
  Co  Co27  1  0.32639000  0.16318100  0.01293100  1
loop_
_geom_bond_atom_site_label_1
_geom_bond_atom_site_label_2
_geom_bond_distance
_geom_bond_site_symmetry_2
Ho2 Mn0 3.149919 1_555
Ho2 Mn2 3.149919 1_655
Ho2 Mn3 3.149919 1_555
Ho2 Mn5 3.149919 1_655
Ho2 Mn1 3.150458 1_555
Ho2 Mn4 3.150458 1_555
Ho3 Mn3 3.149919 1_566
Ho3 Mn2 3.149919 1_555
Ho3 Mn0 3.149919 1_565
Ho3 Mn5 3.149919 1_556
Ho3 Mn1 3.150458 1_555
Ho3 Mn4 3.150458 1_556
Co0 Co3 2.296647 1_555
Co0 Mn0 2.558612 1_555
Co0 Mn2 2.558612 1_655
Co0 Mn1 2.560004 1_555
Co0 Co16 2.643891 1_555
Co0 Co18 2.643891 1_555
Co0 Co17 2.644589 1_555
Co0 Co6 2.688230 1_555
Co0 Co7 2.688230 1_555
Co0 Co5 2.688390 1_555
Co0 Co9 2.688390 1_555
Co0 Co8 2.688890 1_555
Co0 Co4 2.688890 1_555
Co0 Ho2 2.938412 1_555
Co1 Co2 2.296647 1_555
Co1 Mn0 2.558612 1_565
Co1 Mn2 2.558612 1_555
Co1 Mn1 2.560004 1_555
Co1 Co19 2.643891 1_555
Co1 Co21 2.643891 1_555
Co1 Co20 2.644589 1_555
Co1 Co13 2.688230 1_555
Co1 Co12 2.688230 1_555
Co1 Co15 2.688390 1_555
Co1 Co11 2.688390 1_555
Co1 Co10 2.688890 1_555
Co1 Co14 2.688890 1_555
Co1 Ho3 2.938412 1_555
Co2 Mn3 2.558612 1_565
Co2 Mn5 2.558612 1_555
Co2 Mn4 2.560004 1_555
Co2 Co22 2.643891 1_554
Co2 Co24 2.643891 1_554
Co2 Co23 2.644589 1_554
Co2 Ho3 2.938412 1_554
Co3 Mn5 2.558612 1_656
Co3 Mn3 2.558612 1_556
Co3 Mn4 2.560004 1_556
Co3 Co6 2.688230 1_555
Co3 Co7 2.688230 1_555
Co3 Co5 2.688390 1_555
Co3 Co9 2.688390 1_555
Co3 Co8 2.688890 1_555
Co3 Co4 2.688890 1_555
Co3 Ho2 2.938412 1_556
Co4 Co8 2.366621 1_555
Co4 Mn3 2.414042 1_556
Co4 Mn0 2.414042 1_555
Co4 Co7 2.495363 1_555
Co4 Ho0 2.922113 1_555
Co4 Ho3 2.980617 1_545
Co5 Co7 2.367169 1_555
Co5 Mn4 2.413514 1_556
Co5 Mn1 2.413514 1_555
Co5 Co9 2.492206 1_555
Co5 Ho0 2.921853 1_455
Co5 Ho3 2.982086 1_555
Co6 Co9 2.367169 1_555
Co6 Mn2 2.414422 1_655
Co6 Mn5 2.414422 1_656
Co6 Co8 2.495363 1_555
Co6 Ho0 2.921824 1_565
Co6 Ho3 2.982204 1_655
Co7 Mn3 2.414422 1_556
Co7 Mn0 2.414422 1_555
Co7 Ho0 2.921824 1_455
Co7 Ho3 2.982204 1_545
Co8 Mn2 2.414042 1_655
Co8 Mn5 2.414042 1_656
Co8 Ho0 2.922113 1_555
Co8 Ho3 2.980617 1_655
Co9 Mn4 2.413514 1_556
Co9 Mn1 2.413514 1_555
Co9 Ho0 2.921853 1_565
Co9 Ho3 2.982086 1_555
Co10 Co14 2.366621 1_555
Co10 Mn3 2.414042 1_565
Co10 Mn0 2.414042 1_565
Co10 Co23 2.473984 1_554
Co10 Co20 2.473984 1_555
Co10 Co13 2.495363 1_555
Co10 Co18 2.592097 1_565
Co10 Co27 2.592097 1_565
Co10 Co2 2.688890 1_555
Co10 Ho1 2.922113 1_555
Co10 Ho2 2.980617 1_565
Co11 Co13 2.367169 1_555
Co11 Mn4 2.413514 1_555
Co11 Mn1 2.413514 1_555
Co11 Co21 2.474841 1_555
Co11 Co24 2.474841 1_554
Co11 Co15 2.492206 1_555
Co11 Co16 2.592921 1_555
Co11 Co25 2.592921 1_555
Co11 Co2 2.688390 1_555
Co11 Ho1 2.921853 1_655
Co11 Ho2 2.982086 1_555
Co12 Co15 2.367169 1_555
Co12 Mn5 2.414422 1_555
Co12 Mn2 2.414422 1_555
Co12 Co19 2.474649 1_555
Co12 Co22 2.474649 1_554
Co12 Co14 2.495363 1_555
Co12 Co17 2.592178 1_455
Co12 Co26 2.592178 1_455
Co12 Co2 2.688230 1_555
Co12 Ho1 2.921824 1_545
Co12 Ho2 2.982204 1_455
Co13 Mn3 2.414422 1_565
Co13 Mn0 2.414422 1_565
Co13 Co24 2.474649 1_554
Co13 Co21 2.474649 1_555
Co13 Co26 2.592178 1_565
Co13 Co17 2.592178 1_565
Co13 Co2 2.688230 1_555
Co13 Ho1 2.921824 1_655
Co13 Ho2 2.982204 1_565
Co14 Mn5 2.414042 1_555
Co14 Mn2 2.414042 1_555
Co14 Co23 2.473984 1_554
Co14 Co20 2.473984 1_555
Co14 Co25 2.592097 1_455
Co14 Co16 2.592097 1_455
Co14 Co2 2.688890 1_555
Co14 Ho1 2.922113 1_555
Co14 Ho2 2.980617 1_455
Co15 Mn4 2.413514 1_555
Co15 Mn1 2.413514 1_555
Co15 Co19 2.474841 1_555
Co15 Co22 2.474841 1_554
Co15 Co18 2.592921 1_555
Co15 Co27 2.592921 1_555
Co15 Co2 2.688390 1_555
Co15 Ho1 2.921853 1_545
Co15 Ho2 2.982086 1_555
Co16 Co20 2.356286 1_655
Co16 Co21 2.357891 1_555
Co16 Mn1 2.424836 1_555
Co16 Mn2 2.425715 1_655
Co16 Co6 2.474649 1_555
Co16 Co9 2.474841 1_555
Co16 Ho1 3.043560 1_655
Co16 Ho2 3.121219 1_555
Co16 Ho0 3.182483 1_565
Co17 Co21 2.356286 1_545
Co17 Co19 2.356286 1_655
Co17 Mn2 2.424970 1_655
Co17 Mn0 2.424970 1_555
Co17 Co8 2.473984 1_555
Co17 Co4 2.473984 1_555
Co17 Ho1 3.044762 1_645
Co17 Ho2 3.123127 1_555
Co17 Ho0 3.182159 1_555
Co18 Co20 2.356286 1_545
Co18 Co19 2.357891 1_555
Co18 Mn1 2.424836 1_555
Co18 Mn0 2.425715 1_555
Co18 Co7 2.474649 1_555
Co18 Co5 2.474841 1_555
Co18 Ho1 3.043560 1_545
Co18 Ho2 3.121219 1_555
Co18 Ho0 3.182483 1_455
Co19 Mn1 2.424836 1_555
Co19 Mn2 2.425715 1_555
Co19 Co8 2.592097 1_455
Co19 Co5 2.592921 1_555
Co19 Ho0 3.043560 1_455
Co19 Ho3 3.121219 1_555
Co19 Ho1 3.182483 1_545
Co20 Mn2 2.424970 1_555
Co20 Mn0 2.424970 1_565
Co20 Co6 2.592178 1_455
Co20 Co7 2.592178 1_565
Co20 Ho0 3.044762 1_465
Co20 Ho3 3.123127 1_555
Co20 Ho1 3.182159 1_555
Co21 Mn1 2.424836 1_555
Co21 Mn0 2.425715 1_565
Co21 Co4 2.592097 1_565
Co21 Co9 2.592921 1_555
Co21 Ho0 3.043560 1_565
Co21 Ho3 3.121219 1_555
Co21 Ho1 3.182483 1_655
Co22 Co26 2.356286 1_456
Co22 Co27 2.357891 1_556
Co22 Mn4 2.424836 1_556
Co22 Mn5 2.425715 1_556
Co22 Co8 2.592097 1_455
Co22 Co5 2.592921 1_555
Co22 Ho0 3.043560 1_455
Co22 Ho3 3.121219 1_555
Co22 Ho1 3.182483 1_546
Co23 Co25 2.356286 1_456
Co23 Co27 2.356286 1_566
Co23 Mn5 2.424970 1_556
Co23 Mn3 2.424970 1_566
Co23 Co7 2.592178 1_565
Co23 Co6 2.592178 1_455
Co23 Ho0 3.044762 1_465
Co23 Ho3 3.123127 1_555
Co23 Ho1 3.182159 1_556
Co24 Co26 2.356286 1_566
Co24 Co25 2.357891 1_556
Co24 Mn4 2.424836 1_556
Co24 Mn3 2.425715 1_566
Co24 Co4 2.592097 1_565
Co24 Co9 2.592921 1_555
Co24 Ho0 3.043560 1_565
Co24 Ho3 3.121219 1_555
Co24 Ho1 3.182483 1_656
Co25 Mn4 2.424836 1_555
Co25 Mn5 2.425715 1_655
Co25 Co6 2.474649 1_554
Co25 Co9 2.474841 1_554
Co25 Co3 2.643891 1_554
Co25 Ho1 3.043560 1_655
Co25 Ho2 3.121219 1_555
Co25 Ho0 3.182483 1_564
Co26 Mn5 2.424970 1_655
Co26 Mn3 2.424970 1_555
Co26 Co8 2.473984 1_554
Co26 Co4 2.473984 1_554
Co26 Co3 2.644589 1_554
Co26 Ho1 3.044762 1_645
Co26 Ho2 3.123127 1_555
Co26 Ho0 3.182159 1_554
Co27 Mn4 2.424836 1_555
Co27 Mn3 2.425715 1_555
Co27 Co7 2.474649 1_554
Co27 Co5 2.474841 1_554
Co27 Co3 2.643891 1_554
Co27 Ho1 3.043560 1_545
Co27 Ho2 3.121219 1_555
Co27 Ho0 3.182483 1_454
