# generated using pymatgen
data_Co3I
_symmetry_space_group_name_H-M   'P 1'
_cell_length_a   6.39008307
_cell_length_b   6.39008307
_cell_length_c   3.87323300
_cell_angle_alpha   90.00000000
_cell_angle_beta   90.00000000
_cell_angle_gamma   119.99999035
_symmetry_Int_Tables_number   1
_chemical_formula_structural   Co3I
_chemical_formula_sum   'Co6 I2'
_cell_volume   136.96742937
_cell_formula_units_Z   2
loop_
 _symmetry_equiv_pos_site_id
 _symmetry_equiv_pos_as_xyz
  1  'x, y, z'
loop_
 _atom_site_type_symbol
 _atom_site_label
 _atom_site_symmetry_multiplicity
 _atom_site_fract_x
 _atom_site_fract_y
 _atom_site_fract_z
 _atom_site_occupancy
  Co  Co0  1  0.12694500  0.25388900  0.25000000  1
  Co  Co1  1  0.74611100  0.87305500  0.25000000  1
  Co  Co2  1  0.12694500  0.87305500  0.25000000  1
  Co  Co3  1  0.87305500  0.74611100  0.75000000  1
  Co  Co4  1  0.25388900  0.12694500  0.75000000  1
  Co  Co5  1  0.87305500  0.12694500  0.75000000  1
  I  I0  1  0.33333300  0.66666700  0.75000000  1
  I  I1  1  0.66666700  0.33333300  0.25000000  1
loop_
_geom_bond_atom_site_label_1
_geom_bond_atom_site_label_2
_geom_bond_distance
_geom_bond_site_symmetry_2
Co0 Co4 2.392600 1_554
Co0 Co4 2.392600 1_555
Co0 Co5 2.392607 1_454
Co0 Co5 2.392607 1_455
Co0 Co2 2.433561 1_545
Co0 Co1 2.433561 1_445
Co0 I0 2.994749 1_555
Co0 I0 2.994749 1_554
Co0 I1 3.225147 1_455
Co0 I1 3.225147 1_555
Co1 Co3 2.392600 1_554
Co1 Co3 2.392600 1_555
Co1 Co5 2.392607 1_565
Co1 Co5 2.392607 1_564
Co1 Co2 2.433561 1_655
Co1 I0 2.994749 1_555
Co1 I0 2.994749 1_554
Co1 I1 3.225147 1_565
Co1 I1 3.225147 1_555
Co2 Co3 2.392607 1_454
Co2 Co3 2.392607 1_455
Co2 Co4 2.392607 1_565
Co2 Co4 2.392607 1_564
Co2 I0 2.994741 1_555
Co2 I0 2.994741 1_554
Co2 I1 3.225148 1_455
Co2 I1 3.225148 1_565
Co3 Co5 2.433561 1_565
Co3 Co4 2.433561 1_665
Co3 I1 2.994749 1_555
Co3 I1 2.994749 1_556
Co3 I0 3.225147 1_655
Co3 I0 3.225147 1_555
Co4 Co5 2.433561 1_455
Co4 I1 2.994749 1_555
Co4 I1 2.994749 1_556
Co4 I0 3.225147 1_545
Co4 I0 3.225147 1_555
Co5 I1 2.994741 1_555
Co5 I1 2.994741 1_556
Co5 I0 3.225148 1_545
Co5 I0 3.225148 1_655
