# generated using pymatgen
data_TmAlCu4
_symmetry_space_group_name_H-M   'P 1'
_cell_length_a   5.11309374
_cell_length_b   5.11309374
_cell_length_c   4.03332000
_cell_angle_alpha   90.00000000
_cell_angle_beta   90.00000000
_cell_angle_gamma   119.99999668
_symmetry_Int_Tables_number   1
_chemical_formula_structural   TmAlCu4
_chemical_formula_sum   'Tm1 Al1 Cu4'
_cell_volume   91.31893469
_cell_formula_units_Z   1
loop_
 _symmetry_equiv_pos_site_id
 _symmetry_equiv_pos_as_xyz
  1  'x, y, z'
loop_
 _atom_site_type_symbol
 _atom_site_label
 _atom_site_symmetry_multiplicity
 _atom_site_fract_x
 _atom_site_fract_y
 _atom_site_fract_z
 _atom_site_occupancy
  Tm  Tm0  1  0.33333300  0.66666700  0.00000000  1
  Al  Al0  1  0.66666700  0.33333300  0.00000000  1
  Cu  Cu0  1  0.00000000  0.00000000  0.00000000  1
  Cu  Cu1  1  0.33189600  0.16594800  0.50000000  1
  Cu  Cu2  1  0.83405200  0.16594800  0.50000000  1
  Cu  Cu3  1  0.83405200  0.66810400  0.50000000  1
loop_
_geom_bond_atom_site_label_1
_geom_bond_atom_site_label_2
_geom_bond_distance
_geom_bond_site_symmetry_2
Al0 Cu2 2.502875 1_554
Al0 Cu2 2.502875 1_555
Al0 Cu1 2.502877 1_555
Al0 Cu3 2.502877 1_554
Al0 Cu1 2.502877 1_554
Al0 Cu3 2.502877 1_555
Al0 Cu0 2.952043 1_655
Al0 Tm0 2.952043 1_545
Al0 Tm0 2.952043 1_655
Al0 Cu0 2.952048 1_665
Al0 Cu0 2.952048 1_555
Al0 Tm0 2.952052 1_555
Cu0 Cu2 2.495358 1_455
Cu0 Cu2 2.495358 1_454
Cu0 Cu1 2.495358 1_554
Cu0 Cu3 2.495358 1_445
Cu0 Cu3 2.495358 1_444
Cu0 Cu1 2.495358 1_555
Cu0 Tm0 2.952043 1_545
Cu0 Tm0 2.952048 1_445
Cu0 Tm0 2.952048 1_555
Cu1 Cu2 2.545523 1_455
Cu1 Cu3 2.545523 1_445
Cu1 Cu2 2.567571 1_555
Cu1 Cu3 2.567571 1_555
Cu1 Tm0 3.256206 1_545
Cu1 Tm0 3.256206 1_546
Cu1 Tm0 3.256210 1_555
Cu1 Tm0 3.256210 1_556
Cu2 Cu3 2.545523 1_545
Cu2 Cu3 2.567571 1_555
Cu2 Tm0 3.256208 1_655
Cu2 Tm0 3.256208 1_656
Cu2 Tm0 3.256208 1_545
Cu2 Tm0 3.256208 1_546
Cu3 Tm0 3.256206 1_655
Cu3 Tm0 3.256206 1_656
Cu3 Tm0 3.256210 1_555
Cu3 Tm0 3.256210 1_556
