# generated using pymatgen
data_Er3Tm
_symmetry_space_group_name_H-M   'P 1'
_cell_length_a   7.08966783
_cell_length_b   7.08967558
_cell_length_c   5.69341945
_cell_angle_alpha   90.00000000
_cell_angle_beta   90.00000000
_cell_angle_gamma   120.00005119
_symmetry_Int_Tables_number   1
_chemical_formula_structural   Er3Tm
_chemical_formula_sum   'Er6 Tm2'
_cell_volume   247.83111951
_cell_formula_units_Z   2
loop_
 _symmetry_equiv_pos_site_id
 _symmetry_equiv_pos_as_xyz
  1  'x, y, z'
loop_
 _atom_site_type_symbol
 _atom_site_label
 _atom_site_symmetry_multiplicity
 _atom_site_fract_x
 _atom_site_fract_y
 _atom_site_fract_z
 _atom_site_occupancy
  Er  Er0  1  0.16689210  0.33378248  0.25000000  1
  Er  Er1  1  0.66621787  0.83310944  0.25000000  1
  Er  Er2  1  0.16689210  0.83310961  0.25000000  1
  Er  Er3  1  0.83310590  0.66621452  0.75000000  1
  Er  Er4  1  0.33378513  0.16689356  0.75000000  1
  Er  Er5  1  0.83310690  0.16689239  0.75000000  1
  Tm  Tm0  1  0.33333197  0.66666598  0.75000000  1
  Tm  Tm1  1  0.66666803  0.33333502  0.25000000  1
loop_
_geom_bond_atom_site_label_1
_geom_bond_atom_site_label_2
_geom_bond_distance
_geom_bond_site_symmetry_2
Er0 Tm0 3.504437 1_554
Er0 Tm0 3.504437 1_555
Er0 Er4 3.507657 1_555
Er0 Er4 3.507657 1_554
Er0 Er5 3.507668 1_454
Er0 Er5 3.507668 1_455
Er0 Er1 3.540057 1_555
Er0 Er2 3.540067 1_555
Er0 Tm1 3.544833 1_555
Er0 Tm1 3.544837 1_455
Er0 Er2 3.549608 1_545
Er0 Er1 3.549609 1_445
Er1 Tm0 3.504444 1_555
Er1 Tm0 3.504444 1_554
Er1 Er5 3.507661 1_565
Er1 Er5 3.507661 1_564
Er1 Er3 3.507661 1_554
Er1 Er3 3.507661 1_555
Er1 Er2 3.540054 1_555
Er1 Tm1 3.544835 1_555
Er1 Tm1 3.544842 1_565
Er1 Er2 3.549613 1_655
Er2 Tm0 3.504437 1_555
Er2 Tm0 3.504437 1_554
Er2 Er4 3.507664 1_565
Er2 Er4 3.507664 1_564
Er2 Er3 3.507671 1_455
Er2 Er3 3.507671 1_454
Er2 Tm1 3.544829 1_455
Er2 Tm1 3.544839 1_565
Er3 Tm1 3.504423 1_556
Er3 Tm1 3.504423 1_555
Er3 Er4 3.540018 1_555
Er3 Er5 3.540035 1_555
Er3 Tm0 3.544833 1_555
Er3 Tm0 3.544837 1_655
Er3 Er5 3.549640 1_565
Er3 Er4 3.549648 1_665
Er4 Tm1 3.504434 1_555
Er4 Tm1 3.504434 1_556
Er4 Er5 3.540030 1_555
Er4 Tm0 3.544832 1_555
Er4 Tm0 3.544846 1_545
Er4 Er5 3.549638 1_455
Er5 Tm1 3.504430 1_556
Er5 Tm1 3.504430 1_555
Er5 Tm0 3.544829 1_655
Er5 Tm0 3.544839 1_545
