# generated using pymatgen
data_Cs3ErO3
_symmetry_space_group_name_H-M   'P 1'
_cell_length_a   12.07558175
_cell_length_b   7.52651645
_cell_length_c   8.18988772
_cell_angle_alpha   90.00204727
_cell_angle_beta   95.19083961
_cell_angle_gamma   90.00046137
_symmetry_Int_Tables_number   1
_chemical_formula_structural   Cs3ErO3
_chemical_formula_sum   'Cs12 Er4 O12'
_cell_volume   741.30216306
_cell_formula_units_Z   4
loop_
 _symmetry_equiv_pos_site_id
 _symmetry_equiv_pos_as_xyz
  1  'x, y, z'
loop_
 _atom_site_type_symbol
 _atom_site_label
 _atom_site_symmetry_multiplicity
 _atom_site_fract_x
 _atom_site_fract_y
 _atom_site_fract_z
 _atom_site_occupancy
  Cs  Cs0  1  0.07677210  0.33876669  0.64880608  1
  Cs  Cs1  1  0.15596982  0.62108932  0.05848789  1
  Cs  Cs2  1  0.19089783  0.81846938  0.62095734  1
  Cs  Cs3  1  0.30910708  0.31846108  0.37903951  1
  Cs  Cs4  1  0.34403653  0.12110959  0.94151645  1
  Cs  Cs5  1  0.42322437  0.83875410  0.35117801  1
  Cs  Cs6  1  0.57676674  0.16123496  0.64881159  1
  Cs  Cs7  1  0.65596455  0.87890760  0.05848204  1
  Cs  Cs8  1  0.69089249  0.68153415  0.62095829  1
  Cs  Cs9  1  0.80910406  0.18153808  0.37904314  1
  Cs  Cs10  1  0.84403367  0.37890908  0.94150679  1
  Cs  Cs11  1  0.92323501  0.66124334  0.35119319  1
  Er  Er0  1  0.06834729  0.08650257  0.15552010  1
  Er  Er1  1  0.43160557  0.58651003  0.84446096  1
  Er  Er2  1  0.56838735  0.41349617  0.15553722  1
  Er  Er3  1  0.93164757  0.91350457  0.84447836  1
  O  O0  1  0.04720386  0.34334222  0.24587940  1
  O  O1  1  0.08675321  0.05454166  0.89560692  1
  O  O2  1  0.19173511  0.94669688  0.29491939  1
  O  O3  1  0.30826528  0.44675447  0.70510711  1
  O  O4  1  0.41324844  0.55449687  0.10443946  1
  O  O5  1  0.45280976  0.84337311  0.75417080  1
  O  O6  1  0.54720301  0.15662974  0.24585239  1
  O  O7  1  0.58672433  0.44547623  0.89554879  1
  O  O8  1  0.69171453  0.55327754  0.29486751  1
  O  O9  1  0.80828423  0.05327251  0.70509072  1
  O  O10  1  0.91324268  0.94548266  0.10439154  1
  O  O11  1  0.95282556  0.65662141  0.75414801  1
loop_
_geom_bond_atom_site_label_1
_geom_bond_atom_site_label_2
_geom_bond_distance
_geom_bond_site_symmetry_2
Cs0 O3 2.907621 1_555
Cs0 O1 2.938125 1_555
Cs0 O11 2.990210 1_455
Cs0 O0 3.287093 1_555
Cs1 O0 2.969071 1_555
Cs1 O2 3.128925 1_555
Cs1 O4 3.135834 1_555
Cs1 O11 3.345959 1_454
Cs2 O2 2.840184 1_555
Cs2 O3 3.183447 1_555
Cs2 O1 3.210885 1_565
Cs2 O5 3.256370 1_555
Cs2 O11 3.392061 1_455
Cs3 O3 2.840521 1_555
Cs3 O2 3.183691 1_545
Cs3 O4 3.210495 1_555
Cs3 O0 3.256161 1_555
Cs3 O6 3.392244 1_555
Cs4 O5 2.968786 1_545
Cs4 O3 3.129155 1_555
Cs4 O1 3.135837 1_555
Cs4 O6 3.346091 1_556
Cs5 O2 2.907478 1_555
Cs5 O4 2.937847 1_555
Cs5 O6 2.990526 1_565
Cs5 O5 3.287636 1_555
Cs6 O9 2.907854 1_555
Cs6 O7 2.937756 1_555
Cs6 O5 2.990397 1_545
Cs6 O6 3.287357 1_555
Cs7 O6 2.968754 1_565
Cs7 O8 3.128928 1_555
Cs7 O10 3.135784 1_555
Cs7 O5 3.345868 1_554
Cs8 O8 2.840584 1_555
Cs8 O9 3.183639 1_565
Cs8 O7 3.210676 1_555
Cs8 O11 3.256574 1_555
Cs8 O5 3.392207 1_555
Cs9 O9 2.840337 1_555
Cs9 O8 3.183761 1_555
Cs9 O10 3.210794 1_545
Cs9 O6 3.256203 1_555
Cs9 O0 3.392146 1_655
Cs10 O11 2.968891 1_555
Cs10 O9 3.129004 1_555
Cs10 O7 3.136169 1_555
Cs10 O0 3.346370 1_656
Cs11 O8 2.907901 1_555
Cs11 O10 2.938205 1_555
Cs11 O0 2.990555 1_655
Cs11 O11 3.287331 1_555
Er0 O2 2.079177 1_545
Er0 O0 2.093761 1_555
Er0 O10 2.160546 1_445
Er0 O1 2.173484 1_554
Er1 O3 2.078370 1_555
Er1 O5 2.093876 1_555
Er1 O7 2.160733 1_555
Er1 O4 2.173961 1_556
Er2 O8 2.078269 1_555
Er2 O6 2.093937 1_555
Er2 O4 2.160827 1_555
Er2 O7 2.173967 1_554
Er3 O9 2.078790 1_565
Er3 O11 2.094042 1_555
Er3 O1 2.160620 1_665
Er3 O10 2.173496 1_556
