# generated using pymatgen
data_UTeP
_symmetry_space_group_name_H-M   'P 1'
_cell_length_a   10.54883602
_cell_length_b   10.54883602
_cell_length_c   3.98215300
_cell_angle_alpha   90.00000000
_cell_angle_beta   90.00000000
_cell_angle_gamma   158.27979784
_symmetry_Int_Tables_number   1
_chemical_formula_structural   UTeP
_chemical_formula_sum   'U2 Te2 P2'
_cell_volume   163.98948414
_cell_formula_units_Z   2
loop_
 _symmetry_equiv_pos_site_id
 _symmetry_equiv_pos_as_xyz
  1  'x, y, z'
loop_
 _atom_site_type_symbol
 _atom_site_label
 _atom_site_symmetry_multiplicity
 _atom_site_fract_x
 _atom_site_fract_y
 _atom_site_fract_z
 _atom_site_occupancy
  U  U0  1  0.58937100  0.41062900  0.50000000  1
  U  U1  1  0.41062900  0.58937100  0.50000000  1
  Te  Te0  1  0.84226300  0.15773700  0.00000000  1
  Te  Te1  1  0.15773700  0.84226300  0.00000000  1
  P  P0  1  0.50000000  0.50000000  0.00000000  1
  P  P1  1  0.00000000  0.00000000  0.50000000  1
loop_
_geom_bond_atom_site_label_1
_geom_bond_atom_site_label_2
_geom_bond_distance
_geom_bond_site_symmetry_2
Te0 U1 3.149793 1_544
Te0 U1 3.149793 1_545
Te0 U1 3.149793 1_655
Te0 U1 3.149793 1_654
Te1 U0 3.149793 1_455
Te1 U0 3.149793 1_454
Te1 U0 3.149793 1_565
Te1 U0 3.149793 1_564
P0 U1 2.719075 1_555
P0 U1 2.719075 1_554
P0 U0 2.719075 1_554
P0 U0 2.719075 1_555
P1 U0 2.716473 1_555
P1 U1 2.716473 1_445
P1 U1 2.716473 1_555
P1 U0 2.716473 1_445
