# generated using pymatgen
data_BaMgVF7
_symmetry_space_group_name_H-M   'P 1'
_cell_length_a   10.03027900
_cell_length_b   5.66080200
_cell_length_c   9.72827836
_cell_angle_alpha   87.02939224
_cell_angle_beta   90.00000000
_cell_angle_gamma   90.00000000
_symmetry_Int_Tables_number   1
_chemical_formula_structural   BaMgVF7
_chemical_formula_sum   'Ba4 Mg4 V4 F28'
_cell_volume   551.62379512
_cell_formula_units_Z   4
loop_
 _symmetry_equiv_pos_site_id
 _symmetry_equiv_pos_as_xyz
  1  'x, y, z'
loop_
 _atom_site_type_symbol
 _atom_site_label
 _atom_site_symmetry_multiplicity
 _atom_site_fract_x
 _atom_site_fract_y
 _atom_site_fract_z
 _atom_site_occupancy
  Ba  Ba0  1  0.32077600  0.73554500  0.49878400  1
  Ba  Ba1  1  0.82077600  0.26445500  0.00121600  1
  Ba  Ba2  1  0.67922400  0.26445500  0.50121600  1
  Ba  Ba3  1  0.17922400  0.73554500  0.99878400  1
  Mg  Mg0  1  0.39589300  0.30627500  0.81053300  1
  Mg  Mg1  1  0.89589300  0.69372500  0.68946700  1
  Mg  Mg2  1  0.10410700  0.30627500  0.31053300  1
  Mg  Mg3  1  0.60410700  0.69372500  0.18946700  1
  V  V0  1  0.61211300  0.80667800  0.81201900  1
  V  V1  1  0.38788700  0.19332200  0.18798100  1
  V  V2  1  0.88788700  0.80667800  0.31201900  1
  V  V3  1  0.11211300  0.19332200  0.68798100  1
  F  F0  1  0.44820500  0.88470100  0.12542000  1
  F  F1  1  0.05236300  0.62795500  0.36950800  1
  F  F2  1  0.71301400  0.52534400  0.75080700  1
  F  F3  1  0.28698600  0.47465600  0.24919300  1
  F  F4  1  0.45765200  0.11193700  0.36816700  1
  F  F5  1  0.81056500  0.74235600  0.49910000  1
  F  F6  1  0.78195000  0.97337600  0.75038900  1
  F  F7  1  0.95765200  0.88806300  0.13183300  1
  F  F8  1  0.44763700  0.62795500  0.86950800  1
  F  F9  1  0.21301400  0.47465600  0.74919300  1
  F  F10  1  0.05179500  0.88470100  0.62542000  1
  F  F11  1  0.55179500  0.11529900  0.87458000  1
  F  F12  1  0.28195000  0.02662400  0.74961100  1
  F  F13  1  0.95825200  0.61369500  0.87345800  1
  F  F14  1  0.54234800  0.88806300  0.63183300  1
  F  F15  1  0.04234800  0.11193700  0.86816700  1
  F  F16  1  0.21805000  0.02662400  0.24961100  1
  F  F17  1  0.94820500  0.11529900  0.37458000  1
  F  F18  1  0.45825200  0.38630500  0.62654200  1
  F  F19  1  0.94763700  0.37204500  0.63049200  1
  F  F20  1  0.04174800  0.38630500  0.12654200  1
  F  F21  1  0.71805000  0.97337600  0.25038900  1
  F  F22  1  0.54174800  0.61369500  0.37345800  1
  F  F23  1  0.31056500  0.25764400  0.00090000  1
  F  F24  1  0.18943500  0.25764400  0.50090000  1
  F  F25  1  0.68943500  0.74235600  0.99910000  1
  F  F26  1  0.55236300  0.37204500  0.13049200  1
  F  F27  1  0.78698600  0.52534400  0.25080700  1
loop_
_geom_bond_atom_site_label_1
_geom_bond_atom_site_label_2
_geom_bond_distance
_geom_bond_site_symmetry_2
Ba0 F22 2.638539 1_555
Ba0 F18 2.664566 1_555
Ba0 F14 2.734180 1_555
Ba0 F4 2.785440 1_565
Ba0 F3 2.926298 1_555
Ba0 F9 2.985098 1_555
Ba0 F24 3.008126 1_555
Ba0 F12 3.039342 1_565
Ba0 F16 3.039510 1_565
Ba0 F1 3.046345 1_555
Ba0 F10 3.101191 1_555
Ba0 F24 3.236852 1_565
Ba1 F20 2.638539 1_655
Ba1 F13 2.664566 1_554
Ba1 F15 2.734180 1_654
Ba1 F7 2.785440 1_545
Ba1 F27 2.926298 1_555
Ba1 F2 2.985098 1_554
Ba1 F25 3.008126 1_554
Ba1 F6 3.039342 1_544
Ba1 F21 3.039510 1_545
Ba1 F26 3.046345 1_555
Ba1 F11 3.101191 1_554
Ba1 F25 3.236852 1_544
Ba2 F18 2.638539 1_555
Ba2 F22 2.664566 1_555
Ba2 F4 2.734180 1_555
Ba2 F14 2.785440 1_545
Ba2 F2 2.926298 1_555
Ba2 F27 2.985098 1_555
Ba2 F5 3.008126 1_555
Ba2 F21 3.039342 1_545
Ba2 F6 3.039510 1_545
Ba2 F19 3.046345 1_555
Ba2 F17 3.101191 1_555
Ba2 F5 3.236852 1_545
Ba3 F13 2.638539 1_455
Ba3 F20 2.664566 1_556
Ba3 F7 2.734180 1_456
Ba3 F15 2.785440 1_565
Ba3 F9 2.926298 1_555
Ba3 F3 2.985098 1_556
Ba3 F23 3.008126 1_556
Ba3 F16 3.039342 1_566
Ba3 F12 3.039510 1_565
Ba3 F8 3.046345 1_555
Ba3 F0 3.101191 1_556
Ba3 F23 3.236852 1_566
F0 V1 1.974538 1_565
F0 Mg3 1.983031 1_555
F1 V2 1.999837 1_455
F1 Mg2 2.005675 1_555
F2 V0 2.003366 1_555
F2 Mg1 2.137856 1_555
F3 V1 2.003366 1_555
F3 Mg2 2.137856 1_555
F4 V1 1.921164 1_555
F5 V2 1.994418 1_555
F5 Mg1 2.045761 1_555
F6 V0 2.023177 1_555
F6 Mg1 2.064150 1_555
F7 V2 1.921164 1_555
F8 V0 1.999837 1_555
F8 Mg0 2.005675 1_555
F9 V3 2.003366 1_555
F9 Mg0 2.137856 1_555
F10 V3 1.974538 1_565
F10 Mg1 1.983031 1_455
F11 V0 1.974538 1_545
F11 Mg0 1.983031 1_555
F12 V3 2.023177 1_555
F12 Mg0 2.064150 1_555
F13 Mg1 1.927748 1_555
F14 V0 1.921164 1_555
F15 V3 1.921164 1_555
F16 V1 2.023177 1_555
F16 Mg2 2.064150 1_555
F17 V2 1.974538 1_545
F17 Mg2 1.983031 1_655
F18 Mg0 1.927748 1_555
F19 V3 1.999837 1_655
F19 Mg1 2.005675 1_555
F20 Mg2 1.927748 1_555
F21 V2 2.023177 1_555
F21 Mg3 2.064150 1_555
F22 Mg3 1.927748 1_555
F23 V1 1.994418 1_555
F23 Mg0 2.045761 1_554
F24 V3 1.994418 1_555
F24 Mg2 2.045761 1_555
F25 V0 1.994418 1_555
F25 Mg3 2.045761 1_556
F26 V1 1.999837 1_555
F26 Mg3 2.005675 1_555
F27 V2 2.003366 1_555
F27 Mg3 2.137856 1_555
