# generated using pymatgen
data_Mn(CuSe)2
_symmetry_space_group_name_H-M   'P 1'
_cell_length_a   8.07802040
_cell_length_b   8.07802040
_cell_length_c   8.07802040
_cell_angle_alpha   60.00000000
_cell_angle_beta   60.00000000
_cell_angle_gamma   60.00000000
_symmetry_Int_Tables_number   1
_chemical_formula_structural   Mn(CuSe)2
_chemical_formula_sum   'Mn4 Cu8 Se8'
_cell_volume   372.73471079
_cell_formula_units_Z   4
loop_
 _symmetry_equiv_pos_site_id
 _symmetry_equiv_pos_as_xyz
  1  'x, y, z'
loop_
 _atom_site_type_symbol
 _atom_site_label
 _atom_site_symmetry_multiplicity
 _atom_site_fract_x
 _atom_site_fract_y
 _atom_site_fract_z
 _atom_site_occupancy
  Mn  Mn0  1  0.61339500  0.12886800  0.12886800  1
  Mn  Mn1  1  0.12886800  0.61339500  0.12886800  1
  Mn  Mn2  1  0.12886800  0.12886800  0.61339500  1
  Mn  Mn3  1  0.12886800  0.12886800  0.12886800  1
  Cu  Cu0  1  0.25706000  0.25706000  0.74294000  1
  Cu  Cu1  1  0.74294000  0.74294000  0.25706000  1
  Cu  Cu2  1  0.25706000  0.74294000  0.25706000  1
  Cu  Cu3  1  0.74294000  0.25706000  0.74294000  1
  Cu  Cu4  1  0.74294000  0.25706000  0.25706000  1
  Cu  Cu5  1  0.25706000  0.74294000  0.74294000  1
  Cu  Cu6  1  0.75000000  0.75000000  0.75000000  1
  Cu  Cu7  1  0.50000000  0.50000000  0.50000000  1
  Se  Se0  1  0.37773900  0.87408700  0.87408700  1
  Se  Se1  1  0.87408700  0.37773900  0.87408700  1
  Se  Se2  1  0.87408700  0.87408700  0.37773900  1
  Se  Se3  1  0.87408700  0.87408700  0.87408700  1
  Se  Se4  1  0.89146500  0.36951200  0.36951200  1
  Se  Se5  1  0.36951200  0.89146500  0.36951200  1
  Se  Se6  1  0.36951200  0.36951200  0.89146500  1
  Se  Se7  1  0.36951200  0.36951200  0.36951200  1
loop_
_geom_bond_atom_site_label_1
_geom_bond_atom_site_label_2
_geom_bond_distance
_geom_bond_site_symmetry_2
Mn0 Se6 2.749241 1_554
Mn0 Se5 2.749241 1_545
Mn0 Se7 2.749253 1_555
Mn0 Se3 2.911022 1_544
Mn0 Se1 2.911027 1_554
Mn0 Se2 2.911027 1_545
Mn1 Se4 2.749241 1_455
Mn1 Se6 2.749241 1_554
Mn1 Se7 2.749253 1_555
Mn1 Se3 2.911022 1_454
Mn1 Se0 2.911027 1_554
Mn1 Se2 2.911027 1_455
Mn2 Se4 2.749241 1_455
Mn2 Se5 2.749241 1_545
Mn2 Se7 2.749253 1_555
Mn2 Se3 2.911022 1_445
Mn2 Se1 2.911027 1_455
Mn2 Se0 2.911027 1_545
Mn3 Se6 2.749253 1_554
Mn3 Se5 2.749253 1_545
Mn3 Se4 2.749253 1_455
Mn3 Se1 2.911021 1_454
Mn3 Se2 2.911021 1_445
Mn3 Se0 2.911021 1_544
Cu0 Se7 2.468749 1_555
Cu0 Se6 2.468756 1_555
Cu0 Se1 2.526438 1_455
Cu0 Se0 2.526438 1_545
Cu0 Mn3 2.545464 1_556
Cu0 Mn2 2.545470 1_555
Cu1 Se4 2.468749 1_555
Cu1 Se5 2.468749 1_555
Cu1 Se2 2.526438 1_555
Cu1 Se3 2.526438 1_554
Cu1 Mn0 2.545464 1_565
Cu1 Mn1 2.545464 1_655
Cu2 Se7 2.468749 1_555
Cu2 Se5 2.468756 1_555
Cu2 Se0 2.526438 1_554
Cu2 Se2 2.526438 1_455
Cu2 Mn3 2.545464 1_565
Cu2 Mn1 2.545470 1_555
Cu3 Se6 2.468749 1_555
Cu3 Se4 2.468749 1_555
Cu3 Se1 2.526438 1_555
Cu3 Se3 2.526438 1_545
Cu3 Mn0 2.545464 1_556
Cu3 Mn2 2.545464 1_655
Cu4 Se7 2.468749 1_555
Cu4 Se4 2.468756 1_555
Cu4 Se1 2.526438 1_554
Cu4 Se2 2.526438 1_545
Cu4 Mn3 2.545464 1_655
Cu4 Mn0 2.545470 1_555
Cu5 Se6 2.468749 1_555
Cu5 Se5 2.468749 1_555
Cu5 Se0 2.526438 1_555
Cu5 Se3 2.526438 1_455
Cu5 Mn2 2.545464 1_565
Cu5 Mn1 2.545464 1_556
Cu6 Se3 2.455313 1_555
Cu6 Se0 2.455313 1_555
Cu6 Se1 2.455313 1_555
Cu6 Se2 2.455313 1_555
Cu7 Se7 2.581970 1_555
Cu7 Se6 2.581976 1_555
Cu7 Se5 2.581976 1_555
Cu7 Se4 2.581976 1_555
