# generated using pymatgen
data_Cr2HgS4
_symmetry_space_group_name_H-M   'P 1'
_cell_length_a   3.58445500
_cell_length_b   6.03099800
_cell_length_c   6.88749112
_cell_angle_alpha   77.54766876
_cell_angle_beta   90.00000000
_cell_angle_gamma   90.00000000
_symmetry_Int_Tables_number   1
_chemical_formula_structural   Cr2HgS4
_chemical_formula_sum   'Cr2 Hg1 S4'
_cell_volume   145.39009744
_cell_formula_units_Z   1
loop_
 _symmetry_equiv_pos_site_id
 _symmetry_equiv_pos_as_xyz
  1  'x, y, z'
loop_
 _atom_site_type_symbol
 _atom_site_label
 _atom_site_symmetry_multiplicity
 _atom_site_fract_x
 _atom_site_fract_y
 _atom_site_fract_z
 _atom_site_occupancy
  Cr  Cr0  1  0.50000000  0.00000000  0.50000000  1
  Cr  Cr1  1  0.00000000  0.50000000  0.50000000  1
  Hg  Hg0  1  0.00000000  0.50000000  0.00000000  1
  S  S0  1  0.00000000  0.79115900  0.68663100  1
  S  S1  1  0.50000000  0.29092700  0.69349500  1
  S  S2  1  0.50000000  0.70907300  0.30650500  1
  S  S3  1  0.00000000  0.20884100  0.31336900  1
loop_
_geom_bond_atom_site_label_1
_geom_bond_atom_site_label_2
_geom_bond_distance
_geom_bond_site_symmetry_2
Cr0 S0 2.398451 1_545
Cr0 S3 2.398451 1_555
Cr0 S0 2.398451 1_645
Cr0 S3 2.398451 1_655
Cr0 S1 2.421371 1_555
Cr0 S2 2.421371 1_545
Cr1 S0 2.389389 1_555
Cr1 S3 2.389389 1_555
Cr1 S1 2.419377 1_455
Cr1 S2 2.419377 1_455
Cr1 S1 2.419377 1_555
Cr1 S2 2.419377 1_555
Hg0 S0 2.471314 1_554
Hg0 S3 2.471314 1_555
