# generated using pymatgen
data_Li4MnCo2O7
_symmetry_space_group_name_H-M   'P 1'
_cell_length_a   5.11633491
_cell_length_b   5.11633491
_cell_length_c   18.34196859
_cell_angle_alpha   82.34067554
_cell_angle_beta   82.34067554
_cell_angle_gamma   32.85236052
_symmetry_Int_Tables_number   1
_chemical_formula_structural   Li4MnCo2O7
_chemical_formula_sum   'Li8 Mn2 Co4 O14'
_cell_volume   257.93530313
_cell_formula_units_Z   2
loop_
 _symmetry_equiv_pos_site_id
 _symmetry_equiv_pos_as_xyz
  1  'x, y, z'
loop_
 _atom_site_type_symbol
 _atom_site_label
 _atom_site_symmetry_multiplicity
 _atom_site_fract_x
 _atom_site_fract_y
 _atom_site_fract_z
 _atom_site_occupancy
  Li  Li0  1  0.50000000  0.50000000  0.50000000  1
  Li  Li1  1  0.92807200  0.92807200  0.65373400  1
  Li  Li2  1  0.36444400  0.36444400  0.79565000  1
  Li  Li3  1  0.79479700  0.79479700  0.93594300  1
  Li  Li4  1  0.20520300  0.20520300  0.06405700  1
  Li  Li5  1  0.63555600  0.63555600  0.20435000  1
  Li  Li6  1  0.07192800  0.07192800  0.34626600  1
  Li  Li7  1  0.50000000  0.50000000  0.00000000  1
  Mn  Mn0  1  0.78489000  0.78489000  0.42510200  1
  Mn  Mn1  1  0.21511000  0.21511000  0.57489800  1
  Co  Co0  1  0.64329200  0.64329200  0.72268200  1
  Co  Co1  1  0.08130600  0.08130600  0.87244100  1
  Co  Co2  1  0.91869400  0.91869400  0.12755900  1
  Co  Co3  1  0.35670800  0.35670800  0.27731800  1
  O  O0  1  0.41553600  0.41553600  0.39630600  1
  O  O1  1  0.84152900  0.84152900  0.53583400  1
  O  O2  1  0.27710400  0.27710400  0.67647800  1
  O  O3  1  0.70622100  0.70622100  0.82039100  1
  O  O4  1  0.14593500  0.14593500  0.95833000  1
  O  O5  1  0.55218700  0.55218700  0.11015700  1
  O  O6  1  0.98532400  0.98532400  0.25290100  1
  O  O7  1  0.58446400  0.58446400  0.60369400  1
  O  O8  1  0.01467600  0.01467600  0.74709900  1
  O  O9  1  0.44781300  0.44781300  0.88984300  1
  O  O10  1  0.85406500  0.85406500  0.04167000  1
  O  O11  1  0.29377900  0.29377900  0.17960900  1
  O  O12  1  0.72289600  0.72289600  0.32352200  1
  O  O13  1  0.15847100  0.15847100  0.46416600  1
loop_
_geom_bond_atom_site_label_1
_geom_bond_atom_site_label_2
_geom_bond_distance
_geom_bond_site_symmetry_2
Li0 O13 2.158788 1_565
Li0 O13 2.158788 1_655
Li0 O1 2.158788 1_545
Li0 O1 2.158788 1_455
Li0 O7 2.177816 1_555
Li0 O0 2.177816 1_555
Li1 O8 2.014875 1_665
Li1 O2 2.071487 1_565
Li1 O2 2.071487 1_655
Li1 O7 2.213661 1_655
Li1 O7 2.213661 1_565
Li1 O1 2.430738 1_555
Li2 O9 2.011800 1_555
Li2 O3 2.124851 1_545
Li2 O3 2.124851 1_455
Li2 O8 2.166925 1_655
Li2 O8 2.166925 1_565
Li2 O2 2.456328 1_555
Li3 O4 2.056663 1_655
Li3 O4 2.056663 1_565
Li3 O10 2.100609 1_556
Li3 O9 2.170449 1_565
Li3 O9 2.170449 1_655
Li3 O3 2.399992 1_555
Li4 O10 2.056663 1_455
Li4 O10 2.056663 1_545
Li4 O4 2.100609 1_554
Li4 O5 2.170449 1_545
Li4 O5 2.170449 1_455
Li4 O11 2.399992 1_555
Li5 O5 2.011800 1_555
Li5 O11 2.124851 1_565
Li5 O11 2.124851 1_655
Li5 O6 2.166925 1_545
Li5 O6 2.166925 1_455
Li5 O12 2.456328 1_555
Li6 O6 2.014875 1_445
Li6 O12 2.071487 1_545
Li6 O12 2.071487 1_455
Li6 O0 2.213661 1_545
Li6 O0 2.213661 1_455
Li6 O13 2.430738 1_555
Li7 O4 2.103518 1_654
Li7 O4 2.103518 1_564
Li7 O10 2.103518 1_455
Li7 O10 2.103518 1_545
Li7 O9 2.152298 1_554
Li7 O5 2.152298 1_555
Mn0 O0 1.956590 1_565
Mn0 O0 1.956590 1_655
Mn0 O13 1.974621 1_655
Mn0 O13 1.974621 1_565
Mn0 O12 2.038806 1_555
Mn0 O1 2.178980 1_555
Mn1 O7 1.956590 1_455
Mn1 O7 1.956590 1_545
Mn1 O1 1.974621 1_545
Mn1 O1 1.974621 1_455
Mn1 O2 2.038806 1_555
Mn1 O13 2.178980 1_555
Co0 O8 1.931386 1_565
Co0 O8 1.931386 1_655
Co0 O3 1.975098 1_555
Co0 O2 2.055976 1_655
Co0 O2 2.055976 1_565
Co0 O7 2.333836 1_555
Co1 O4 1.778173 1_555
Co1 O9 1.948229 1_455
Co1 O9 1.948229 1_545
Co1 O3 2.045131 1_455
Co1 O3 2.045131 1_545
Co1 O8 2.476087 1_555
Co2 O10 1.778173 1_555
Co2 O5 1.948229 1_655
Co2 O5 1.948229 1_565
Co2 O11 2.045131 1_565
Co2 O11 2.045131 1_655
Co2 O6 2.476087 1_555
Co3 O6 1.931386 1_545
Co3 O6 1.931386 1_455
Co3 O11 1.975098 1_555
Co3 O12 2.055976 1_545
Co3 O12 2.055976 1_455
Co3 O0 2.333836 1_555
