# generated using pymatgen
data_B11Rh18
_symmetry_space_group_name_H-M   'P 1'
_cell_length_a   5.49172852
_cell_length_b   6.85645979
_cell_length_c   9.11165981
_cell_angle_alpha   110.85524089
_cell_angle_beta   94.51988685
_cell_angle_gamma   90.57784167
_symmetry_Int_Tables_number   1
_chemical_formula_structural   B11Rh18
_chemical_formula_sum   'B11 Rh18'
_cell_volume   319.34549986
_cell_formula_units_Z   1
loop_
 _symmetry_equiv_pos_site_id
 _symmetry_equiv_pos_as_xyz
  1  'x, y, z'
loop_
 _atom_site_type_symbol
 _atom_site_label
 _atom_site_symmetry_multiplicity
 _atom_site_fract_x
 _atom_site_fract_y
 _atom_site_fract_z
 _atom_site_occupancy
  B  B0  1  0.65692983  0.96252932  0.45898833  1
  B  B1  1  0.35900389  0.05054366  0.54725896  1
  B  B2  1  0.98208528  0.61701287  0.18231353  1
  B  B3  1  0.02116633  0.37753735  0.80574875  1
  B  B4  1  0.90969930  0.90735169  0.78399611  1
  B  B5  1  0.09460973  0.09614169  0.22253717  1
  B  B6  1  0.53765528  0.23101858  0.94225810  1
  B  B7  1  0.46257532  0.76658185  0.05786973  1
  B  B8  1  0.79334474  0.23043686  0.26993481  1
  B  B9  1  0.20805883  0.76409331  0.72615424  1
  B  B10  1  0.85300313  0.47041947  0.45650328  1
  Rh  Rh0  1  0.73817685  0.52526062  0.97415307  1
  Rh  Rh1  1  0.25787087  0.47117867  0.01957955  1
  Rh  Rh2  1  0.57237131  0.85599395  0.86991020  1
  Rh  Rh3  1  0.42471395  0.14451239  0.13083798  1
  Rh  Rh4  1  0.84241119  0.56024836  0.69308784  1
  Rh  Rh5  1  0.15229920  0.44716752  0.31246544  1
  Rh  Rh6  1  0.45185866  0.74844401  0.54030119  1
  Rh  Rh7  1  0.53642563  0.25792068  0.45415106  1
  Rh  Rh8  1  0.33621566  0.48337923  0.72447742  1
  Rh  Rh9  1  0.65386187  0.52238324  0.27123365  1
  Rh  Rh10  1  0.89700654  0.18467612  0.03618531  1
  Rh  Rh11  1  0.10340775  0.81581262  0.96570806  1
  Rh  Rh12  1  0.72847853  0.14604738  0.72272151  1
  Rh  Rh13  1  0.27444522  0.85023497  0.27715364  1
  Rh  Rh14  1  0.23552763  0.09935590  0.76811977  1
  Rh  Rh15  1  0.76740880  0.89584137  0.23003443  1
  Rh  Rh16  1  0.95114640  0.79749827  0.52181536  1
  Rh  Rh17  1  0.04024028  0.19337704  0.48250054  1
loop_
_geom_bond_atom_site_label_1
_geom_bond_atom_site_label_2
_geom_bond_distance
_geom_bond_site_symmetry_2
B0 B1 1.889366 1_565
B0 Rh15 2.110713 1_555
B0 Rh16 2.138000 1_555
B0 Rh7 2.151252 1_565
B0 Rh6 2.200996 1_555
B0 Rh12 2.280478 1_565
B0 Rh13 2.502108 1_555
B0 Rh17 2.569554 1_665
B1 Rh14 2.088473 1_555
B1 Rh6 2.118343 1_545
B1 Rh7 2.156857 1_555
B1 Rh17 2.157534 1_555
B1 Rh13 2.357809 1_545
B1 Rh12 2.412132 1_555
B1 Rh16 2.763011 1_445
B1 Rh8 2.838611 1_555
B2 Rh5 2.113493 1_655
B2 Rh0 2.126122 1_554
B2 Rh13 2.151111 1_655
B2 Rh15 2.183631 1_555
B2 Rh1 2.195701 1_655
B2 Rh9 2.215254 1_555
B3 Rh4 2.090083 1_455
B3 Rh12 2.139411 1_455
B3 Rh1 2.142753 1_556
B3 Rh8 2.151213 1_555
B3 Rh14 2.187375 1_555
B3 Rh0 2.257572 1_455
B4 B9 1.930611 1_655
B4 Rh12 2.139282 1_565
B4 Rh2 2.140161 1_555
B4 Rh11 2.177771 1_655
B4 Rh4 2.239865 1_555
B4 Rh14 2.254930 1_665
B4 Rh16 2.265830 1_555
B4 Rh10 2.411949 1_566
B5 B8 1.905734 1_455
B5 Rh3 2.125656 1_555
B5 Rh13 2.149263 1_545
B5 Rh10 2.210429 1_455
B5 Rh5 2.259196 1_555
B5 Rh17 2.266150 1_555
B5 Rh15 2.270677 1_445
B5 Rh11 2.447455 1_544
B6 Rh3 2.138967 1_556
B6 Rh14 2.149527 1_555
B6 Rh10 2.160562 1_556
B6 Rh0 2.203305 1_555
B6 Rh12 2.225290 1_555
B6 Rh1 2.228064 1_556
B6 Rh2 2.430122 1_545
B7 Rh2 2.139006 1_554
B7 Rh15 2.148267 1_555
B7 Rh11 2.159599 1_554
B7 Rh1 2.208381 1_555
B7 Rh13 2.215828 1_555
B7 Rh0 2.223551 1_554
B7 Rh3 2.450694 1_565
B8 Rh9 2.146920 1_555
B8 Rh10 2.162791 1_555
B8 Rh15 2.192471 1_545
B8 Rh7 2.235411 1_555
B8 Rh3 2.256453 1_555
B8 Rh17 2.365956 1_655
B8 Rh5 2.377987 1_655
B9 Rh8 2.051375 1_555
B9 Rh14 2.193428 1_565
B9 Rh11 2.207052 1_555
B9 Rh6 2.214203 1_555
B9 Rh2 2.255981 1_555
B9 Rh16 2.325027 1_455
B9 Rh4 2.371632 1_455
B10 B8 1.901141 1_555
B10 Rh4 2.026035 1_555
B10 Rh9 2.077937 1_555
B10 Rh5 2.155404 1_655
B10 Rh16 2.156093 1_555
B10 Rh17 2.245667 1_655
B10 Rh7 2.250924 1_555
