# generated using pymatgen
data_Ba2MnN2
_symmetry_space_group_name_H-M   'P 1'
_cell_length_a   4.12853000
_cell_length_b   4.14789800
_cell_length_c   7.19318559
_cell_angle_alpha   106.75748452
_cell_angle_beta   106.67695308
_cell_angle_gamma   90.00000000
_symmetry_Int_Tables_number   1
_chemical_formula_structural   Ba2MnN2
_chemical_formula_sum   'Ba2 Mn1 N2'
_cell_volume   112.52839333
_cell_formula_units_Z   1
loop_
 _symmetry_equiv_pos_site_id
 _symmetry_equiv_pos_as_xyz
  1  'x, y, z'
loop_
 _atom_site_type_symbol
 _atom_site_label
 _atom_site_symmetry_multiplicity
 _atom_site_fract_x
 _atom_site_fract_y
 _atom_site_fract_z
 _atom_site_occupancy
  Ba  Ba0  1  0.14126700  0.14126700  0.78253500  1
  Ba  Ba1  1  0.85873300  0.85873300  0.21746500  1
  Mn  Mn0  1  0.50000000  0.50000000  0.50000000  1
  N  N0  1  0.63169100  0.63169100  0.76338100  1
  N  N1  1  0.36830900  0.36830900  0.23661900  1
loop_
_geom_bond_atom_site_label_1
_geom_bond_atom_site_label_2
_geom_bond_distance
_geom_bond_site_symmetry_2
Ba0 N0 2.928867 1_445
Ba0 N0 2.928873 1_545
Ba0 N0 2.928873 1_455
Ba0 N0 2.928879 1_555
Ba0 N1 2.983835 1_556
Ba1 N1 2.928867 1_665
Ba1 N1 2.928873 1_565
Ba1 N1 2.928873 1_655
Ba1 N1 2.928879 1_555
Ba1 N0 2.983835 1_554
Mn0 N0 1.730705 1_555
Mn0 N1 1.730705 1_555
