# generated using pymatgen
data_Ca(FeSb3)4
_symmetry_space_group_name_H-M   'P 1'
_cell_length_a   7.93189102
_cell_length_b   7.93189534
_cell_length_c   7.93207788
_cell_angle_alpha   109.47169206
_cell_angle_beta   109.47170313
_cell_angle_gamma   109.47074478
_symmetry_Int_Tables_number   1
_chemical_formula_structural   Ca(FeSb3)4
_chemical_formula_sum   'Ca1 Fe4 Sb12'
_cell_volume   384.16361564
_cell_formula_units_Z   1
loop_
 _symmetry_equiv_pos_site_id
 _symmetry_equiv_pos_as_xyz
  1  'x, y, z'
loop_
 _atom_site_type_symbol
 _atom_site_label
 _atom_site_symmetry_multiplicity
 _atom_site_fract_x
 _atom_site_fract_y
 _atom_site_fract_z
 _atom_site_occupancy
  Ca  Ca0  1  0.00000000  -0.00000000  -0.00000000  1
  Fe  Fe0  1  0.50000000  0.50000000  0.50000000  1
  Fe  Fe1  1  0.00000000  0.50000000  -0.00000000  1
  Fe  Fe2  1  0.00000000  -0.00000000  0.50000000  1
  Fe  Fe3  1  0.50000000  -0.00000000  -0.00000000  1
  Sb  Sb0  1  0.33488872  0.16057024  0.49544012  1
  Sb  Sb1  1  0.83943186  0.50456314  0.66512120  1
  Sb  Sb2  1  0.17431648  0.33488972  0.83944760  1
  Sb  Sb3  1  0.16057024  0.82568152  0.66512912  1
  Sb  Sb4  1  0.50456314  0.66513128  0.83944394  1
  Sb  Sb5  1  0.83942976  0.17431848  0.33487088  1
  Sb  Sb6  1  0.82568352  0.66511028  0.16055240  1
  Sb  Sb7  1  0.49543686  0.33486872  0.16055606  1
  Sb  Sb8  1  0.16056814  0.49543686  0.33487880  1
  Sb  Sb9  1  0.66511128  0.83942976  0.50455988  1
  Sb  Sb10  1  0.33486672  0.83942886  0.17431066  1
  Sb  Sb11  1  0.66513328  0.16057114  0.82568934  1
loop_
_geom_bond_atom_site_label_1
_geom_bond_atom_site_label_2
_geom_bond_distance
_geom_bond_site_symmetry_2
Ca0 Sb1 3.401426 1_444
Ca0 Sb8 3.401426 1_555
Ca0 Sb7 3.401429 1_555
Ca0 Sb4 3.401429 1_444
Ca0 Sb11 3.401431 1_454
Ca0 Sb10 3.401431 1_545
Ca0 Sb0 3.401507 1_555
Ca0 Sb9 3.401507 1_444
Ca0 Sb5 3.401514 1_455
Ca0 Sb3 3.401514 1_544
Ca0 Sb6 3.401517 1_445
Ca0 Sb2 3.401517 1_554
Fe0 Sb8 2.553028 1_555
Fe0 Sb1 2.553028 1_555
Fe0 Sb0 2.553031 1_555
Fe0 Sb9 2.553031 1_555
Fe0 Sb4 2.553176 1_555
Fe0 Sb7 2.553176 1_555
Fe1 Sb11 2.553008 1_454
Fe1 Sb10 2.553008 1_555
Fe1 Sb2 2.553017 1_554
Fe1 Sb6 2.553017 1_455
Fe1 Sb8 2.553161 1_555
Fe1 Sb1 2.553161 1_454
Fe2 Sb5 2.553183 1_455
Fe2 Sb3 2.553183 1_545
Fe2 Sb0 2.553186 1_555
Fe2 Sb9 2.553186 1_445
Fe2 Sb6 2.553189 1_445
Fe2 Sb2 2.553189 1_555
Fe3 Sb4 2.553027 1_544
Fe3 Sb7 2.553027 1_555
Fe3 Sb3 2.553034 1_544
Fe3 Sb5 2.553034 1_555
Fe3 Sb10 2.553182 1_545
Fe3 Sb11 2.553182 1_554
Sb0 Sb10 2.941184 1_545
Sb0 Sb11 3.024731 1_555
Sb1 Sb3 2.941183 1_655
Sb1 Sb5 3.024732 1_555
Sb2 Sb7 2.941187 1_556
Sb2 Sb4 3.024728 1_555
Sb3 Sb8 3.024732 1_555
Sb4 Sb6 2.941187 1_556
Sb5 Sb8 2.941183 1_655
Sb6 Sb7 3.024728 1_555
Sb10 Sb9 3.024731 1_555
Sb11 Sb9 2.941184 1_545
