# generated using pymatgen
data_Na7VN4
_symmetry_space_group_name_H-M   'P 1'
_cell_length_a   11.18733400
_cell_length_b   11.18733400
_cell_length_c   11.18733400
_cell_angle_alpha   90.00000000
_cell_angle_beta   90.00000000
_cell_angle_gamma   90.00000000
_symmetry_Int_Tables_number   1
_chemical_formula_structural   Na7VN4
_chemical_formula_sum   'Na56 V8 N32'
_cell_volume   1400.16691921
_cell_formula_units_Z   8
loop_
 _symmetry_equiv_pos_site_id
 _symmetry_equiv_pos_as_xyz
  1  'x, y, z'
loop_
 _atom_site_type_symbol
 _atom_site_label
 _atom_site_symmetry_multiplicity
 _atom_site_fract_x
 _atom_site_fract_y
 _atom_site_fract_z
 _atom_site_occupancy
  Na  Na0  1  0.36626000  0.63374000  0.13374000  1
  Na  Na1  1  0.63374000  0.13374000  0.36626000  1
  Na  Na2  1  0.13374000  0.36626000  0.63374000  1
  Na  Na3  1  0.86626000  0.86626000  0.86626000  1
  Na  Na4  1  0.63374000  0.36626000  0.86626000  1
  Na  Na5  1  0.36626000  0.86626000  0.63374000  1
  Na  Na6  1  0.86626000  0.63374000  0.36626000  1
  Na  Na7  1  0.13374000  0.13374000  0.13374000  1
  Na  Na8  1  0.36365700  0.61644800  0.38339800  1
  Na  Na9  1  0.63634300  0.11644800  0.11660200  1
  Na  Na10  1  0.13634300  0.38355200  0.88339800  1
  Na  Na11  1  0.86365700  0.88355200  0.61660200  1
  Na  Na12  1  0.38339800  0.36365700  0.61644800  1
  Na  Na13  1  0.11660200  0.63634300  0.11644800  1
  Na  Na14  1  0.88339800  0.13634300  0.38355200  1
  Na  Na15  1  0.61660200  0.86365700  0.88355200  1
  Na  Na16  1  0.61644800  0.38339800  0.36365700  1
  Na  Na17  1  0.11644800  0.11660200  0.63634300  1
  Na  Na18  1  0.38355200  0.88339800  0.13634300  1
  Na  Na19  1  0.88355200  0.61660200  0.86365700  1
  Na  Na20  1  0.63634300  0.38355200  0.61660200  1
  Na  Na21  1  0.36365700  0.88355200  0.88339800  1
  Na  Na22  1  0.86365700  0.61644800  0.11660200  1
  Na  Na23  1  0.13634300  0.11644800  0.38339800  1
  Na  Na24  1  0.61660200  0.63634300  0.38355200  1
  Na  Na25  1  0.88339800  0.36365700  0.88355200  1
  Na  Na26  1  0.11660200  0.86365700  0.61644800  1
  Na  Na27  1  0.38339800  0.13634300  0.11644800  1
  Na  Na28  1  0.38355200  0.61660200  0.63634300  1
  Na  Na29  1  0.88355200  0.88339800  0.36365700  1
  Na  Na30  1  0.61644800  0.11660200  0.86365700  1
  Na  Na31  1  0.11644800  0.38339800  0.13634300  1
  Na  Na32  1  0.40631200  0.85063700  0.38196700  1
  Na  Na33  1  0.59368800  0.35063700  0.11803300  1
  Na  Na34  1  0.09368800  0.14936300  0.88196700  1
  Na  Na35  1  0.90631200  0.64936300  0.61803300  1
  Na  Na36  1  0.38196700  0.40631200  0.85063700  1
  Na  Na37  1  0.11803300  0.59368800  0.35063700  1
  Na  Na38  1  0.88196700  0.09368800  0.14936300  1
  Na  Na39  1  0.61803300  0.90631200  0.64936300  1
  Na  Na40  1  0.85063700  0.38196700  0.40631200  1
  Na  Na41  1  0.35063700  0.11803300  0.59368800  1
  Na  Na42  1  0.14936300  0.88196700  0.09368800  1
  Na  Na43  1  0.64936300  0.61803300  0.90631200  1
  Na  Na44  1  0.59368800  0.14936300  0.61803300  1
  Na  Na45  1  0.40631200  0.64936300  0.88196700  1
  Na  Na46  1  0.90631200  0.85063700  0.11803300  1
  Na  Na47  1  0.09368800  0.35063700  0.38196700  1
  Na  Na48  1  0.61803300  0.59368800  0.14936300  1
  Na  Na49  1  0.88196700  0.40631200  0.64936300  1
  Na  Na50  1  0.11803300  0.90631200  0.85063700  1
  Na  Na51  1  0.38196700  0.09368800  0.35063700  1
  Na  Na52  1  0.14936300  0.61803300  0.59368800  1
  Na  Na53  1  0.64936300  0.88196700  0.40631200  1
  Na  Na54  1  0.85063700  0.11803300  0.90631200  1
  Na  Na55  1  0.35063700  0.38196700  0.09368800  1
  V  V0  1  0.13932400  0.86067600  0.36067600  1
  V  V1  1  0.86067600  0.36067600  0.13932400  1
  V  V2  1  0.36067600  0.13932400  0.86067600  1
  V  V3  1  0.63932400  0.63932400  0.63932400  1
  V  V4  1  0.86067600  0.13932400  0.63932400  1
  V  V5  1  0.13932400  0.63932400  0.86067600  1
  V  V6  1  0.63932400  0.86067600  0.13932400  1
  V  V7  1  0.36067600  0.36067600  0.36067600  1
  N  N0  1  0.23534100  0.76465900  0.26465900  1
  N  N1  1  0.76465900  0.26465900  0.23534100  1
  N  N2  1  0.26465900  0.23534100  0.76465900  1
  N  N3  1  0.73534100  0.73534100  0.73534100  1
  N  N4  1  0.76465900  0.23534100  0.73534100  1
  N  N5  1  0.23534100  0.73534100  0.76465900  1
  N  N6  1  0.73534100  0.76465900  0.23534100  1
  N  N7  1  0.26465900  0.26465900  0.26465900  1
  N  N8  1  0.04675400  0.96498900  0.26337300  1
  N  N9  1  0.95324600  0.46498900  0.23662700  1
  N  N10  1  0.45324600  0.03501100  0.76337300  1
  N  N11  1  0.54675400  0.53501100  0.73662700  1
  N  N12  1  0.26337300  0.04675400  0.96498900  1
  N  N13  1  0.23662700  0.95324600  0.46498900  1
  N  N14  1  0.76337300  0.45324600  0.03501100  1
  N  N15  1  0.73662700  0.54675400  0.53501100  1
  N  N16  1  0.96498900  0.26337300  0.04675400  1
  N  N17  1  0.46498900  0.23662700  0.95324600  1
  N  N18  1  0.03501100  0.76337300  0.45324600  1
  N  N19  1  0.53501100  0.73662700  0.54675400  1
  N  N20  1  0.95324600  0.03501100  0.73662700  1
  N  N21  1  0.04675400  0.53501100  0.76337300  1
  N  N22  1  0.54675400  0.96498900  0.23662700  1
  N  N23  1  0.45324600  0.46498900  0.26337300  1
  N  N24  1  0.73662700  0.95324600  0.03501100  1
  N  N25  1  0.76337300  0.04675400  0.53501100  1
  N  N26  1  0.23662700  0.54675400  0.96498900  1
  N  N27  1  0.26337300  0.45324600  0.46498900  1
  N  N28  1  0.03501100  0.73662700  0.95324600  1
  N  N29  1  0.53501100  0.76337300  0.04675400  1
  N  N30  1  0.96498900  0.23662700  0.54675400  1
  N  N31  1  0.46498900  0.26337300  0.45324600  1
loop_
_geom_bond_atom_site_label_1
_geom_bond_atom_site_label_2
_geom_bond_distance
_geom_bond_site_symmetry_2
N0 V0 1.860524 1_555
N0 Na42 2.511163 1_555
N0 Na37 2.511163 1_555
N0 Na32 2.511163 1_555
N0 Na0 2.536822 1_555
N0 Na13 2.564083 1_555
N0 Na18 2.564083 1_555
N0 Na8 2.564083 1_555
N1 V1 1.860524 1_555
N1 Na38 2.511163 1_555
N1 Na33 2.511163 1_555
N1 Na40 2.511163 1_555
N1 Na1 2.536822 1_555
N1 Na9 2.564083 1_555
N1 Na16 2.564083 1_555
N1 Na14 2.564083 1_555
N2 V2 1.860524 1_555
N2 Na34 2.511163 1_555
N2 Na41 2.511163 1_555
N2 Na36 2.511163 1_555
N2 Na2 2.536822 1_555
N2 Na17 2.564083 1_555
N2 Na10 2.564083 1_555
N2 Na12 2.564083 1_555
N3 V3 1.860524 1_555
N3 Na43 2.511163 1_555
N3 Na39 2.511163 1_555
N3 Na35 2.511163 1_555
N3 Na3 2.536822 1_555
N3 Na15 2.564083 1_555
N3 Na19 2.564083 1_555
N3 Na11 2.564083 1_555
N4 V4 1.860524 1_555
N4 Na44 2.511163 1_555
N4 Na54 2.511163 1_555
N4 Na49 2.511163 1_555
N4 Na4 2.536822 1_555
N4 Na30 2.564083 1_555
N4 Na20 2.564083 1_555
N4 Na25 2.564083 1_555
N5 V5 1.860524 1_555
N5 Na52 2.511163 1_555
N5 Na45 2.511163 1_555
N5 Na50 2.511163 1_555
N5 Na5 2.536822 1_555
N5 Na26 2.564083 1_555
N5 Na21 2.564083 1_555
N5 Na28 2.564083 1_555
N6 V6 1.860524 1_555
N6 Na48 2.511163 1_555
N6 Na46 2.511163 1_555
N6 Na53 2.511163 1_555
N6 Na6 2.536822 1_555
N6 Na22 2.564083 1_555
N6 Na29 2.564083 1_555
N6 Na24 2.564083 1_555
N7 V7 1.860524 1_555
N7 Na51 2.511163 1_555
N7 Na55 2.511163 1_555
N7 Na47 2.511163 1_555
N7 Na7 2.536822 1_555
N7 Na27 2.564083 1_555
N7 Na31 2.564083 1_555
N7 Na23 2.564083 1_555
N8 V0 1.902448 1_555
N8 Na29 2.329247 1_455
N8 Na23 2.382981 1_565
N8 Na42 2.404997 1_555
N8 Na7 2.571826 1_565
N8 Na46 2.597873 1_455
N8 Na38 2.664288 1_465
N9 V1 1.902448 1_555
N9 Na31 2.329247 1_655
N9 Na22 2.382981 1_555
N9 Na40 2.404997 1_555
N9 Na6 2.571826 1_555
N9 Na47 2.597873 1_655
N9 Na37 2.664288 1_655
N10 V2 1.902448 1_555
N10 Na30 2.329247 1_555
N10 Na21 2.382981 1_545
N10 Na41 2.404997 1_555
N10 Na5 2.571826 1_545
N10 Na44 2.597873 1_555
N10 Na39 2.664288 1_545
N11 V3 1.902448 1_555
N11 Na28 2.329247 1_555
N11 Na20 2.382981 1_555
N11 Na43 2.404997 1_555
N11 Na4 2.571826 1_555
N11 Na45 2.597873 1_555
N11 Na36 2.664288 1_555
N12 V2 1.902448 1_555
N12 Na21 2.329247 1_545
N12 Na27 2.382981 1_556
N12 Na34 2.404997 1_555
N12 Na7 2.571826 1_556
N12 Na50 2.597873 1_545
N12 Na42 2.664288 1_546
N13 V0 1.902448 1_555
N13 Na23 2.329247 1_565
N13 Na26 2.382981 1_555
N13 Na32 2.404997 1_555
N13 Na5 2.571826 1_555
N13 Na51 2.597873 1_565
N13 Na41 2.664288 1_565
N14 V1 1.902448 1_555
N14 Na22 2.329247 1_555
N14 Na25 2.382981 1_554
N14 Na33 2.404997 1_555
N14 Na4 2.571826 1_554
N14 Na48 2.597873 1_555
N14 Na43 2.664288 1_554
N15 V3 1.902448 1_555
N15 Na20 2.329247 1_555
N15 Na24 2.382981 1_555
N15 Na35 2.404997 1_555
N15 Na6 2.571826 1_555
N15 Na49 2.597873 1_555
N15 Na40 2.664288 1_555
N16 V1 1.902448 1_555
N16 Na25 2.329247 1_554
N16 Na31 2.382981 1_655
N16 Na38 2.404997 1_555
N16 Na7 2.571826 1_655
N16 Na54 2.597873 1_554
N16 Na34 2.664288 1_654
N17 V2 1.902448 1_555
N17 Na27 2.329247 1_556
N17 Na30 2.382981 1_555
N17 Na36 2.404997 1_555
N17 Na4 2.571826 1_555
N17 Na55 2.597873 1_556
N17 Na33 2.664288 1_556
N18 V0 1.902448 1_555
N18 Na26 2.329247 1_555
N18 Na29 2.382981 1_455
N18 Na37 2.404997 1_555
N18 Na6 2.571826 1_455
N18 Na52 2.597873 1_555
N18 Na35 2.664288 1_455
N19 V3 1.902448 1_555
N19 Na24 2.329247 1_555
N19 Na28 2.382981 1_555
N19 Na39 2.404997 1_555
N19 Na5 2.571826 1_555
N19 Na53 2.597873 1_555
N19 Na32 2.664288 1_555
N20 V4 1.902448 1_555
N20 Na17 2.329247 1_655
N20 Na11 2.382981 1_545
N20 Na54 2.404997 1_555
N20 Na3 2.571826 1_545
N20 Na34 2.597873 1_655
N20 Na50 2.664288 1_645
N21 V5 1.902448 1_555
N21 Na19 2.329247 1_455
N21 Na10 2.382981 1_555
N21 Na52 2.404997 1_555
N21 Na2 2.571826 1_555
N21 Na35 2.597873 1_455
N21 Na49 2.664288 1_455
N22 V6 1.902448 1_555
N22 Na18 2.329247 1_555
N22 Na9 2.382981 1_565
N22 Na53 2.404997 1_555
N22 Na1 2.571826 1_565
N22 Na32 2.597873 1_555
N22 Na51 2.664288 1_565
N23 V7 1.902448 1_555
N23 Na16 2.329247 1_555
N23 Na8 2.382981 1_555
N23 Na55 2.404997 1_555
N23 Na0 2.571826 1_555
N23 Na33 2.597873 1_555
N23 Na48 2.664288 1_555
N24 V6 1.902448 1_555
N24 Na9 2.329247 1_565
N24 Na15 2.382981 1_554
N24 Na46 2.404997 1_555
N24 Na3 2.571826 1_554
N24 Na38 2.597873 1_565
N24 Na54 2.664288 1_564
N25 V4 1.902448 1_555
N25 Na11 2.329247 1_545
N25 Na14 2.382981 1_555
N25 Na44 2.404997 1_555
N25 Na1 2.571826 1_555
N25 Na39 2.597873 1_545
N25 Na53 2.664288 1_545
N26 V5 1.902448 1_555
N26 Na10 2.329247 1_555
N26 Na13 2.382981 1_556
N26 Na45 2.404997 1_555
N26 Na0 2.571826 1_556
N26 Na36 2.597873 1_555
N26 Na55 2.664288 1_556
N27 V7 1.902448 1_555
N27 Na8 2.329247 1_555
N27 Na12 2.382981 1_555
N27 Na47 2.404997 1_555
N27 Na2 2.571826 1_555
N27 Na37 2.597873 1_555
N27 Na52 2.664288 1_555
N28 V5 1.902448 1_555
N28 Na13 2.329247 1_556
N28 Na19 2.382981 1_455
N28 Na50 2.404997 1_555
N28 Na3 2.571826 1_455
N28 Na42 2.597873 1_556
N28 Na46 2.664288 1_456
N29 V6 1.902448 1_555
N29 Na15 2.329247 1_554
N29 Na18 2.382981 1_555
N29 Na48 2.404997 1_555
N29 Na0 2.571826 1_555
N29 Na43 2.597873 1_554
N29 Na45 2.664288 1_554
N30 V4 1.902448 1_555
N30 Na14 2.329247 1_555
N30 Na17 2.382981 1_655
N30 Na49 2.404997 1_555
N30 Na2 2.571826 1_655
N30 Na40 2.597873 1_555
N30 Na47 2.664288 1_655
N31 V7 1.902448 1_555
N31 Na12 2.329247 1_555
N31 Na16 2.382981 1_555
N31 Na51 2.404997 1_555
N31 Na1 2.571826 1_555
N31 Na41 2.597873 1_555
N31 Na44 2.664288 1_555
