# generated using pymatgen
data_V2CdO10
_symmetry_space_group_name_H-M   'P 1'
_cell_length_a   6.98927857
_cell_length_b   8.49287016
_cell_length_c   8.49287016
_cell_angle_alpha   74.79571750
_cell_angle_beta   71.45964979
_cell_angle_gamma   71.45964979
_symmetry_Int_Tables_number   1
_chemical_formula_structural   V2CdO10
_chemical_formula_sum   'V4 Cd2 O20'
_cell_volume   445.81578680
_cell_formula_units_Z   2
loop_
 _symmetry_equiv_pos_site_id
 _symmetry_equiv_pos_as_xyz
  1  'x, y, z'
loop_
 _atom_site_type_symbol
 _atom_site_label
 _atom_site_symmetry_multiplicity
 _atom_site_fract_x
 _atom_site_fract_y
 _atom_site_fract_z
 _atom_site_occupancy
  V  V0  1  0.54092100  0.39002400  0.32354000  1
  V  V1  1  0.04092100  0.32354000  0.39002400  1
  V  V2  1  0.94292500  0.11390500  0.17615200  1
  V  V3  1  0.44292500  0.17615200  0.11390500  1
  Cd  Cd0  1  0.74698500  0.74847200  0.25227700  1
  Cd  Cd1  1  0.24698500  0.25227700  0.74847200  1
  O  O0  1  0.56932500  0.58293800  0.22379100  1
  O  O1  1  0.06932500  0.22379100  0.58293800  1
  O  O2  1  0.91394500  0.52935300  0.40052000  1
  O  O3  1  0.41394500  0.40052000  0.52935300  1
  O  O4  1  0.66812200  0.23081900  0.15403900  1
  O  O5  1  0.16812200  0.15403900  0.23081900  1
  O  O6  1  0.81254700  0.26649100  0.35497100  1
  O  O7  1  0.31254700  0.35497100  0.26649100  1
  O  O8  1  0.56443200  0.96789300  0.11574300  1
  O  O9  1  0.06443200  0.11574300  0.96789300  1
  O  O10  1  0.93094300  0.91494600  0.26631100  1
  O  O11  1  0.43094300  0.26631100  0.91494600  1
  O  O12  1  0.10726300  0.69275400  0.96470000  1
  O  O13  1  0.60726300  0.96470000  0.69275400  1
  O  O14  1  0.78704800  0.93601700  0.70421400  1
  O  O15  1  0.28704800  0.70421400  0.93601700  1
  O  O16  1  0.39740900  0.78396500  0.53448500  1
  O  O17  1  0.89740900  0.53448500  0.78396500  1
  O  O18  1  0.72093600  0.54407800  0.77600300  1
  O  O19  1  0.22093600  0.77600300  0.54407800  1
loop_
_geom_bond_atom_site_label_1
_geom_bond_atom_site_label_2
_geom_bond_distance
_geom_bond_site_symmetry_2
Cd0 O2 2.175851 1_555
Cd0 O8 2.177296 1_555
Cd0 O10 2.237889 1_555
Cd0 O0 2.248648 1_555
Cd0 O16 2.826916 1_555
Cd1 O3 2.175851 1_555
Cd1 O9 2.177296 1_555
Cd1 O11 2.237889 1_555
Cd1 O1 2.248648 1_555
Cd1 O17 2.826916 1_455
O0 V0 1.677286 1_555
O1 V1 1.677286 1_555
O2 V1 1.701695 1_655
O3 V0 1.701695 1_555
O4 V2 1.904980 1_555
O4 V3 1.923021 1_555
O4 V0 2.033098 1_555
O5 V3 1.904980 1_555
O5 V2 1.923021 1_455
O5 V1 2.033098 1_555
O6 V0 1.919605 1_555
O6 V1 1.934113 1_655
O6 V2 2.053619 1_555
O7 V1 1.919605 1_555
O7 V0 1.934113 1_555
O7 V3 2.053619 1_555
O8 V3 1.699568 1_565
O9 V2 1.699568 1_456
O10 V2 1.679012 1_565
O11 V3 1.679012 1_556
O12 O15 1.232255 1_555
O13 O14 1.232255 1_555
O16 O19 1.232387 1_555
O17 O18 1.232387 1_555
