# generated using pymatgen
data_Tb2(SO4)3
_symmetry_space_group_name_H-M   'P 1'
_cell_length_a   9.26022594
_cell_length_b   9.35300390
_cell_length_c   12.81916248
_cell_angle_alpha   90.00000000
_cell_angle_beta   90.00000000
_cell_angle_gamma   90.00000000
_symmetry_Int_Tables_number   1
_chemical_formula_structural   Tb2(SO4)3
_chemical_formula_sum   'Tb8 S12 O48'
_cell_volume   1110.27957565
_cell_formula_units_Z   4
loop_
 _symmetry_equiv_pos_site_id
 _symmetry_equiv_pos_as_xyz
  1  'x, y, z'
loop_
 _atom_site_type_symbol
 _atom_site_label
 _atom_site_symmetry_multiplicity
 _atom_site_fract_x
 _atom_site_fract_y
 _atom_site_fract_z
 _atom_site_occupancy
  Tb  Tb0  1  0.25095991  0.46280683  0.11798215  1
  Tb  Tb1  1  0.74904009  0.53719317  0.88201785  1
  Tb  Tb2  1  0.24904009  0.96280683  0.38201785  1
  Tb  Tb3  1  0.25095991  0.03719317  0.88201785  1
  Tb  Tb4  1  0.75095991  0.03719317  0.61798215  1
  Tb  Tb5  1  0.74904009  0.96280683  0.11798215  1
  Tb  Tb6  1  0.24904009  0.53719317  0.61798215  1
  Tb  Tb7  1  0.75095991  0.46280683  0.38201785  1
  S  S0  1  0.53201976  0.25000000  -0.00000000  1
  S  S1  1  0.46798024  0.75000000  -0.00000000  1
  S  S2  1  0.96798024  0.75000000  0.50000000  1
  S  S3  1  0.03201976  0.25000000  0.50000000  1
  S  S4  1  0.10505132  0.11410359  0.14571218  1
  S  S5  1  0.89494868  0.88589641  0.85428782  1
  S  S6  1  0.39494868  0.61410359  0.35428782  1
  S  S7  1  0.10505132  0.38589641  0.85428782  1
  S  S8  1  0.60505132  0.38589641  0.64571218  1
  S  S9  1  0.89494868  0.61410359  0.14571218  1
  S  S10  1  0.39494868  0.88589641  0.64571218  1
  S  S11  1  0.60505132  0.11410359  0.35428782  1
  O  O0  1  0.16352579  0.08160625  0.04209630  1
  O  O1  1  0.83647421  0.91839375  0.95790370  1
  O  O2  1  0.33647421  0.58160625  0.45790370  1
  O  O3  1  0.16352579  0.41839375  0.95790370  1
  O  O4  1  0.66352579  0.41839375  0.54209630  1
  O  O5  1  0.83647421  0.58160625  0.04209630  1
  O  O6  1  0.33647421  0.91839375  0.54209630  1
  O  O7  1  0.66352579  0.08160625  0.45790370  1
  O  O8  1  0.17000966  0.01657524  0.22220506  1
  O  O9  1  0.82999034  0.98342476  0.77779494  1
  O  O10  1  0.32999034  0.51657524  0.27779494  1
  O  O11  1  0.17000966  0.48342476  0.77779494  1
  O  O12  1  0.67000966  0.48342476  0.72220506  1
  O  O13  1  0.82999034  0.51657524  0.22220506  1
  O  O14  1  0.32999034  0.98342476  0.72220506  1
  O  O15  1  0.67000966  0.01657524  0.27779494  1
  O  O16  1  0.12367670  0.14658908  0.44541983  1
  O  O17  1  0.87632330  0.85341092  0.55458017  1
  O  O18  1  0.37632330  0.64658908  0.05458017  1
  O  O19  1  0.12367670  0.35341092  0.55458017  1
  O  O20  1  0.62367670  0.35341092  0.94541983  1
  O  O21  1  0.87632330  0.64658908  0.44541983  1
  O  O22  1  0.37632330  0.85341092  0.94541983  1
  O  O23  1  0.62367670  0.14658908  0.05458017  1
  O  O24  1  0.13868060  0.26261224  0.17369340  1
  O  O25  1  0.86131940  0.73738776  0.82630660  1
  O  O26  1  0.36131940  0.76261224  0.32630660  1
  O  O27  1  0.13868060  0.23738776  0.82630660  1
  O  O28  1  0.63868060  0.23738776  0.67369340  1
  O  O29  1  0.86131940  0.76261224  0.17369340  1
  O  O30  1  0.36131940  0.73738776  0.67369340  1
  O  O31  1  0.63868060  0.26261224  0.32630660  1
  O  O32  1  0.44097527  0.32385926  0.07667039  1
  O  O33  1  0.55902473  0.67614074  0.92332961  1
  O  O34  1  0.05902473  0.82385926  0.42332961  1
  O  O35  1  0.44097527  0.17614074  0.92332961  1
  O  O36  1  0.94097527  0.17614074  0.57667039  1
  O  O37  1  0.55902473  0.82385926  0.07667039  1
  O  O38  1  0.05902473  0.67614074  0.57667039  1
  O  O39  1  0.94097527  0.32385926  0.42332961  1
  O  O40  1  0.44794152  0.09490947  0.35452662  1
  O  O41  1  0.55205848  0.90509053  0.64547338  1
  O  O42  1  0.05205848  0.59490947  0.14547338  1
  O  O43  1  0.44794152  0.40509053  0.64547338  1
  O  O44  1  0.94794152  0.40509053  0.85452662  1
  O  O45  1  0.55205848  0.59490947  0.35452662  1
  O  O46  1  0.05205848  0.90509053  0.85452662  1
  O  O47  1  0.94794152  0.09490947  0.14547338  1
loop_
_geom_bond_atom_site_label_1
_geom_bond_atom_site_label_2
_geom_bond_distance
_geom_bond_site_symmetry_2
O0 S4 1.466250 1_555
O0 Tb3 2.244794 1_554
O1 S5 1.466250 1_555
O1 Tb5 2.244794 1_556
O2 S6 1.466250 1_555
O2 Tb6 2.244794 1_555
O3 S7 1.466250 1_555
O3 Tb0 2.244794 1_556
O4 S8 1.466250 1_555
O4 Tb7 2.244794 1_555
O5 S9 1.466250 1_555
O5 Tb1 2.244794 1_554
O6 S10 1.466250 1_555
O6 Tb2 2.244794 1_555
O7 S11 1.466250 1_555
O7 Tb4 2.244794 1_555
O8 S4 1.468142 1_555
O8 Tb2 2.232829 1_545
O9 S5 1.468142 1_555
O9 Tb4 2.232829 1_565
O10 S6 1.468142 1_555
O10 Tb0 2.232829 1_555
O11 S7 1.468142 1_555
O11 Tb6 2.232829 1_555
O12 S8 1.468142 1_555
O12 Tb1 2.232829 1_555
O13 S9 1.468142 1_555
O13 Tb7 2.232829 1_555
O14 S10 1.468142 1_555
O14 Tb3 2.232829 1_565
O15 S11 1.468142 1_555
O15 Tb5 2.232829 1_545
O16 S3 1.464726 1_555
O16 Tb2 2.227762 1_545
O17 S2 1.464726 1_555
O17 Tb4 2.227762 1_565
O18 S1 1.464726 1_555
O18 Tb0 2.227762 1_555
O19 S3 1.464726 1_555
O19 Tb6 2.227762 1_555
O20 S0 1.464726 1_556
O20 Tb1 2.227762 1_555
O21 S2 1.464726 1_555
O21 Tb7 2.227762 1_555
O22 S1 1.464726 1_556
O22 Tb3 2.227762 1_565
O23 S0 1.464726 1_555
O23 Tb5 2.227762 1_545
O24 S4 1.467981 1_555
O24 Tb0 2.257663 1_555
O25 S5 1.467981 1_555
O25 Tb1 2.257663 1_555
O26 S6 1.467981 1_555
O26 Tb2 2.257663 1_555
O27 S7 1.467981 1_555
O27 Tb3 2.257663 1_555
O28 S8 1.467981 1_555
O28 Tb4 2.257663 1_555
O29 S9 1.467981 1_555
O29 Tb5 2.257663 1_555
O30 S10 1.467981 1_555
O30 Tb6 2.257663 1_555
O31 S11 1.467981 1_555
O31 Tb7 2.257663 1_555
O32 S0 1.467655 1_555
O32 Tb0 2.250666 1_555
O33 S1 1.467655 1_556
O33 Tb1 2.250666 1_555
O34 S2 1.467655 1_455
O34 Tb2 2.250666 1_555
O35 S0 1.467655 1_556
O35 Tb3 2.250666 1_555
O36 S3 1.467655 1_655
O36 Tb4 2.250666 1_555
O37 S1 1.467655 1_555
O37 Tb5 2.250666 1_555
O38 S2 1.467655 1_455
O38 Tb6 2.250666 1_555
O39 S3 1.467655 1_655
O39 Tb7 2.250666 1_555
O40 S11 1.465910 1_555
O40 Tb2 2.245727 1_545
O41 S10 1.465910 1_555
O41 Tb4 2.245727 1_565
O42 S9 1.465910 1_455
O42 Tb0 2.245727 1_555
O43 S8 1.465910 1_555
O43 Tb6 2.245727 1_555
O44 S7 1.465910 1_655
O44 Tb1 2.245727 1_555
O45 S6 1.465910 1_555
O45 Tb7 2.245727 1_555
O46 S5 1.465910 1_455
O46 Tb3 2.245727 1_565
O47 S4 1.465910 1_655
O47 Tb5 2.245727 1_545
