# generated using pymatgen
data_LuTiClO3
_symmetry_space_group_name_H-M   'P 1'
_cell_length_a   5.28812744
_cell_length_b   5.28812744
_cell_length_c   9.67548808
_cell_angle_alpha   74.38525241
_cell_angle_beta   74.38525241
_cell_angle_gamma   42.87285888
_symmetry_Int_Tables_number   1
_chemical_formula_structural   LuTiClO3
_chemical_formula_sum   'Lu2 Ti2 Cl2 O6'
_cell_volume   176.22277482
_cell_formula_units_Z   2
loop_
 _symmetry_equiv_pos_site_id
 _symmetry_equiv_pos_as_xyz
  1  'x, y, z'
loop_
 _atom_site_type_symbol
 _atom_site_label
 _atom_site_symmetry_multiplicity
 _atom_site_fract_x
 _atom_site_fract_y
 _atom_site_fract_z
 _atom_site_occupancy
  Lu  Lu0  1  0.27626200  0.27626200  0.20458400  1
  Lu  Lu1  1  0.72373800  0.72373800  0.79541600  1
  Ti  Ti0  1  0.88332300  0.88332300  0.42657100  1
  Ti  Ti1  1  0.11667700  0.11667700  0.57342900  1
  Cl  Cl0  1  0.61559800  0.61559800  0.09262100  1
  Cl  Cl1  1  0.38440200  0.38440200  0.90737900  1
  O  O0  1  0.84725000  0.84725000  0.24616000  1
  O  O1  1  0.15275000  0.15275000  0.75384000  1
  O  O2  1  0.66794700  0.66794700  0.56800500  1
  O  O3  1  0.33205300  0.33205300  0.43199500  1
  O  O4  1  0.92074800  0.92074800  0.62765400  1
  O  O5  1  0.07925200  0.07925200  0.37234600  1
loop_
_geom_bond_atom_site_label_1
_geom_bond_atom_site_label_2
_geom_bond_distance
_geom_bond_site_symmetry_2
Lu0 O0 2.132584 1_545
Lu0 O0 2.132584 1_455
Lu0 O5 2.139072 1_555
Lu0 O3 2.417017 1_555
Lu1 O1 2.132584 1_655
Lu1 O1 2.132584 1_565
Lu1 O4 2.139072 1_555
Lu1 O2 2.417017 1_555
Cl0 Lu1 2.762598 1_554
Cl0 Lu0 2.898500 1_565
Cl0 Lu0 2.898500 1_655
Cl0 Lu0 3.200065 1_555
Cl1 Lu0 2.762598 1_556
Cl1 Lu1 2.898500 1_545
Cl1 Lu1 2.898500 1_455
Cl1 Lu1 3.200065 1_555
O0 Ti0 1.879261 1_555
O1 Ti1 1.879261 1_555
O2 Ti1 1.994319 1_655
O2 Ti1 1.994319 1_565
O2 Ti0 2.165694 1_555
O3 Ti0 1.994319 1_545
O3 Ti0 1.994319 1_455
O3 Ti1 2.165694 1_555
O4 Ti1 1.846739 1_665
O4 Ti0 2.082205 1_555
O5 Ti0 1.846739 1_445
O5 Ti1 2.082205 1_555
