# generated using pymatgen
data_Nd2FeSi3
_symmetry_space_group_name_H-M   'P 1'
_cell_length_a   4.02985319
_cell_length_b   4.02985319
_cell_length_c   8.55329700
_cell_angle_alpha   90.00000000
_cell_angle_beta   90.00000000
_cell_angle_gamma   119.99998667
_symmetry_Int_Tables_number   1
_chemical_formula_structural   Nd2FeSi3
_chemical_formula_sum   'Nd2 Fe1 Si3'
_cell_volume   120.29364698
_cell_formula_units_Z   1
loop_
 _symmetry_equiv_pos_site_id
 _symmetry_equiv_pos_as_xyz
  1  'x, y, z'
loop_
 _atom_site_type_symbol
 _atom_site_label
 _atom_site_symmetry_multiplicity
 _atom_site_fract_x
 _atom_site_fract_y
 _atom_site_fract_z
 _atom_site_occupancy
  Nd  Nd0  1  0.33333300  0.66666700  0.24398400  1
  Nd  Nd1  1  0.33333300  0.66666700  0.75601600  1
  Fe  Fe0  1  0.66666700  0.33333300  0.00000000  1
  Si  Si0  1  0.66666700  0.33333300  0.50000000  1
  Si  Si1  1  0.00000000  0.00000000  0.00000000  1
  Si  Si2  1  0.00000000  0.00000000  0.50000000  1
loop_
_geom_bond_atom_site_label_1
_geom_bond_atom_site_label_2
_geom_bond_distance
_geom_bond_site_symmetry_2
Nd0 Si1 3.125419 1_565
Nd0 Si1 3.125422 1_555
Nd0 Si1 3.125422 1_665
Nd0 Si2 3.195054 1_565
Nd0 Si0 3.195054 1_455
Nd0 Si0 3.195054 1_565
Nd0 Si2 3.195057 1_555
Nd0 Si2 3.195057 1_665
Nd0 Si0 3.195059 1_555
Nd1 Si1 3.125419 1_566
Nd1 Si1 3.125422 1_666
Nd1 Si1 3.125422 1_556
Nd1 Si2 3.195054 1_565
Nd1 Si0 3.195054 1_455
Nd1 Si0 3.195054 1_565
Nd1 Si2 3.195057 1_555
Nd1 Si2 3.195057 1_665
Nd1 Si0 3.195059 1_555
Fe0 Si1 2.326634 1_655
Fe0 Si1 2.326638 1_555
Fe0 Si1 2.326638 1_665
Fe0 Nd1 3.125419 1_544
Fe0 Nd1 3.125419 1_654
Fe0 Nd0 3.125419 1_655
Fe0 Nd0 3.125419 1_545
Fe0 Nd1 3.125424 1_554
Fe0 Nd0 3.125424 1_555
Si0 Si2 2.326634 1_655
Si0 Si2 2.326638 1_665
Si0 Si2 2.326638 1_555
