# generated using pymatgen
data_NbSb2
_symmetry_space_group_name_H-M   'P 1'
_cell_length_a   3.68289932
_cell_length_b   5.46984277
_cell_length_c   7.56370240
_cell_angle_alpha   78.55851203
_cell_angle_beta   75.93905965
_cell_angle_gamma   70.26549683
_symmetry_Int_Tables_number   1
_chemical_formula_structural   NbSb2
_chemical_formula_sum   'Nb2 Sb4'
_cell_volume   137.98981958
_cell_formula_units_Z   2
loop_
 _symmetry_equiv_pos_site_id
 _symmetry_equiv_pos_as_xyz
  1  'x, y, z'
loop_
 _atom_site_type_symbol
 _atom_site_label
 _atom_site_symmetry_multiplicity
 _atom_site_fract_x
 _atom_site_fract_y
 _atom_site_fract_z
 _atom_site_occupancy
  Nb  Nb0  1  0.84771201  0.11339675  0.19069606  1
  Nb  Nb1  1  0.15228799  0.88660325  0.80930394  1
  Sb  Sb0  1  0.59488133  0.69975771  0.10992569  1
  Sb  Sb1  1  0.40511867  0.30024229  0.89007431  1
  Sb  Sb2  1  0.14819921  0.23791407  0.46427491  1
  Sb  Sb3  1  0.85180079  0.76208593  0.53572509  1
loop_
_geom_bond_atom_site_label_1
_geom_bond_atom_site_label_2
_geom_bond_distance
_geom_bond_site_symmetry_2
Nb0 Sb2 2.855056 1_655
Nb0 Sb2 2.857725 1_555
Nb0 Sb3 2.917764 1_545
Nb0 Sb0 2.931114 1_645
Nb0 Sb0 2.933752 1_545
Nb0 Sb1 2.936953 1_554
Nb0 Sb1 2.942075 1_654
Nb0 Sb0 3.001543 1_555
Nb1 Sb3 2.855056 1_455
Nb1 Sb3 2.857725 1_555
Nb1 Sb2 2.917764 1_565
Nb1 Sb1 2.931114 1_465
Nb1 Sb1 2.933752 1_565
Nb1 Sb0 2.936953 1_556
Nb1 Sb0 2.942075 1_456
Nb1 Sb1 3.001543 1_555
Sb2 Sb3 2.814001 1_455
Sb2 Sb3 3.054788 1_445
Sb2 Sb3 3.057570 1_545
