# generated using pymatgen
data_CaNd3Mn4O12
_symmetry_space_group_name_H-M   'P 1'
_cell_length_a   7.74918200
_cell_length_b   5.43699100
_cell_length_c   5.69207704
_cell_angle_alpha   89.32925465
_cell_angle_beta   90.00000000
_cell_angle_gamma   90.00000000
_symmetry_Int_Tables_number   1
_chemical_formula_structural   CaNd3Mn4O12
_chemical_formula_sum   'Ca1 Nd3 Mn4 O12'
_cell_volume   239.80348166
_cell_formula_units_Z   1
loop_
 _symmetry_equiv_pos_site_id
 _symmetry_equiv_pos_as_xyz
  1  'x, y, z'
loop_
 _atom_site_type_symbol
 _atom_site_label
 _atom_site_symmetry_multiplicity
 _atom_site_fract_x
 _atom_site_fract_y
 _atom_site_fract_z
 _atom_site_occupancy
  Ca  Ca0  1  0.50000000  0.48845700  0.55766400  1
  Nd  Nd0  1  0.50000000  0.01319000  0.06008900  1
  Nd  Nd1  1  0.00000000  0.51458900  0.44007700  1
  Nd  Nd2  1  0.00000000  0.98684400  0.94015100  1
  Mn  Mn0  1  0.25360000  0.00187000  0.50135900  1
  Mn  Mn1  1  0.74730000  0.49903800  0.99798800  1
  Mn  Mn2  1  0.74640000  0.00187000  0.50135900  1
  Mn  Mn3  1  0.25270000  0.49903800  0.99798800  1
  O  O0  1  0.50000000  0.58602600  0.97246700  1
  O  O1  1  0.50000000  0.91277900  0.47690400  1
  O  O2  1  0.00000000  0.41658400  0.02108200  1
  O  O3  1  0.00000000  0.08432300  0.51738800  1
  O  O4  1  0.79877100  0.71042400  0.70509900  1
  O  O5  1  0.20587700  0.78655800  0.19697100  1
  O  O6  1  0.29494600  0.29375200  0.29752200  1
  O  O7  1  0.71051100  0.20696400  0.80815100  1
  O  O8  1  0.70505400  0.29375200  0.29752200  1
  O  O9  1  0.28948900  0.20696400  0.80815100  1
  O  O10  1  0.20122900  0.71042400  0.70509900  1
  O  O11  1  0.79412300  0.78655800  0.19697100  1
loop_
_geom_bond_atom_site_label_1
_geom_bond_atom_site_label_2
_geom_bond_distance
_geom_bond_site_symmetry_2
Ca0 O1 2.347104 1_555
Ca0 O8 2.423818 1_555
Ca0 O6 2.423818 1_555
Ca0 O0 2.426002 1_555
Ca0 O9 2.642961 1_555
Ca0 O7 2.642961 1_555
Ca0 O4 2.746767 1_555
Ca0 O10 2.746767 1_555
Nd0 O0 2.381138 1_544
Nd0 O7 2.406697 1_554
Nd0 O9 2.406697 1_554
Nd0 O1 2.428308 1_545
Nd0 O8 2.593568 1_555
Nd0 O6 2.593568 1_555
Nd0 O5 2.701426 1_545
Nd0 O11 2.701426 1_545
Nd1 O3 2.375315 1_555
Nd1 O10 2.424574 1_555
Nd1 O4 2.424574 1_455
Nd1 O2 2.449833 1_555
Nd1 O5 2.568793 1_555
Nd1 O11 2.568793 1_455
Nd1 O6 2.710500 1_555
Nd1 O8 2.710500 1_455
Nd2 O2 2.386757 1_566
Nd2 O11 2.414696 1_456
Nd2 O5 2.414696 1_556
Nd2 O3 2.458005 1_565
Nd2 O10 2.554885 1_555
Nd2 O4 2.554885 1_455
Nd2 O7 2.647300 1_465
Nd2 O9 2.647300 1_565
Mn0 O1 1.975193 1_545
Mn0 O6 1.980954 1_555
Mn0 O10 1.994370 1_545
Mn0 O3 2.017978 1_555
Mn0 O9 2.101399 1_555
Mn0 O5 2.134613 1_545
Mn1 O7 1.952134 1_555
Mn1 O11 1.974761 1_556
Mn1 O0 1.978803 1_555
Mn1 O2 2.012832 1_656
Mn1 O4 2.052926 1_555
Mn1 O8 2.053121 1_556
Mn2 O1 1.975193 1_545
Mn2 O8 1.980954 1_555
Mn2 O4 1.994370 1_545
Mn2 O3 2.017978 1_655
Mn2 O7 2.101399 1_555
Mn2 O11 2.134613 1_545
Mn3 O9 1.952134 1_555
Mn3 O5 1.974761 1_556
Mn3 O0 1.978803 1_555
Mn3 O2 2.012832 1_556
Mn3 O10 2.052926 1_555
Mn3 O6 2.053121 1_556
