# generated using pymatgen
data_Tb2Mn12P7
_symmetry_space_group_name_H-M   'P 1'
_cell_length_a   3.60483700
_cell_length_b   9.31733353
_cell_length_c   9.31204191
_cell_angle_alpha   120.00111050
_cell_angle_beta   90.00000000
_cell_angle_gamma   90.00000000
_symmetry_Int_Tables_number   1
_chemical_formula_structural   Tb2Mn12P7
_chemical_formula_sum   'Tb2 Mn12 P7'
_cell_volume   270.86192946
_cell_formula_units_Z   1
loop_
 _symmetry_equiv_pos_site_id
 _symmetry_equiv_pos_as_xyz
  1  'x, y, z'
loop_
 _atom_site_type_symbol
 _atom_site_label
 _atom_site_symmetry_multiplicity
 _atom_site_fract_x
 _atom_site_fract_y
 _atom_site_fract_z
 _atom_site_occupancy
  Tb  Tb0  1  0.00000000  0.66682200  0.33326700  1
  Tb  Tb1  1  0.50000000  0.33340800  0.66672500  1
  Mn  Mn0  1  0.00000000  0.37710100  0.95105200  1
  Mn  Mn1  1  0.00000000  0.04893500  0.42590900  1
  Mn  Mn2  1  0.00000000  0.57389400  0.62289800  1
  Mn  Mn3  1  0.00000000  0.87906500  0.72385500  1
  Mn  Mn4  1  0.00000000  0.27637000  0.15538200  1
  Mn  Mn5  1  0.00000000  0.84458400  0.12080500  1
  Mn  Mn6  1  0.50000000  0.95437400  0.56472300  1
  Mn  Mn7  1  0.50000000  0.43511200  0.38947100  1
  Mn  Mn8  1  0.50000000  0.61023900  0.04550600  1
  Mn  Mn9  1  0.50000000  0.12410700  0.89647900  1
  Mn  Mn10  1  0.50000000  0.10379200  0.22773300  1
  Mn  Mn11  1  0.50000000  0.77220900  0.87615000  1
  P  P0  1  0.00000000  0.11895200  0.70962800  1
  P  P1  1  0.00000000  0.29047600  0.40951400  1
  P  P2  1  0.00000000  0.59042200  0.88092000  1
  P  P3  1  0.50000000  0.71704100  0.59201700  1
  P  P4  1  0.50000000  0.40812000  0.12512000  1
  P  P5  1  0.50000000  0.87481700  0.28267500  1
  P  P6  1  0.00000000  0.00016000  0.00016900  1
loop_
_geom_bond_atom_site_label_1
_geom_bond_atom_site_label_2
_geom_bond_distance
_geom_bond_site_symmetry_2
Mn0 P0 2.330641 1_555
Mn0 P4 2.343323 1_556
Mn0 P4 2.343323 1_456
Mn0 P2 2.382240 1_555
Mn1 P1 2.330609 1_555
Mn1 P5 2.344297 1_445
Mn1 P5 2.344297 1_545
Mn1 P0 2.383725 1_555
Mn2 P2 2.329531 1_555
Mn2 P3 2.343895 1_455
Mn2 P3 2.343895 1_555
Mn2 P1 2.382073 1_555
Mn3 P6 2.233914 1_566
Mn3 P3 2.276289 1_455
Mn3 P3 2.276289 1_555
Mn3 P0 2.304209 1_565
Mn4 P6 2.234358 1_555
Mn4 P4 2.276173 1_555
Mn4 P4 2.276173 1_455
Mn4 P1 2.303584 1_555
Mn5 P6 2.234188 1_565
Mn5 P5 2.274977 1_455
Mn5 P5 2.274977 1_555
Mn5 P2 2.303864 1_554
Mn6 P0 2.313368 1_565
Mn6 P0 2.313368 1_665
Mn6 P5 2.345363 1_555
Mn6 P3 2.348733 1_555
Mn7 P1 2.313258 1_555
Mn7 P1 2.313258 1_655
Mn7 P3 2.345844 1_555
Mn7 P4 2.346028 1_555
Mn8 P2 2.312740 1_654
Mn8 P2 2.312740 1_554
Mn8 P4 2.343567 1_555
Mn8 P5 2.347351 1_555
Mn9 P4 2.429278 1_556
Mn9 P0 2.488960 1_655
Mn9 P0 2.488960 1_555
Mn9 P6 2.574849 1_656
Mn9 P6 2.574849 1_556
Mn10 P5 2.429991 1_545
Mn10 P1 2.489007 1_555
Mn10 P1 2.489007 1_655
Mn10 P6 2.573979 1_555
Mn10 P6 2.573979 1_655
Mn11 P3 2.429962 1_555
Mn11 P2 2.488931 1_555
Mn11 P2 2.488931 1_655
Mn11 P6 2.576910 1_666
Mn11 P6 2.576910 1_566
P0 Tb1 2.863438 1_455
P0 Tb1 2.863438 1_555
P1 Tb1 2.861361 1_455
P1 Tb1 2.861361 1_555
P2 Tb1 2.860952 1_555
P2 Tb1 2.860952 1_455
P3 Tb0 2.854092 1_655
P3 Tb0 2.854092 1_555
P4 Tb0 2.853684 1_555
P4 Tb0 2.853684 1_655
P5 Tb0 2.852959 1_655
P5 Tb0 2.852959 1_555
