# generated using pymatgen
data_Dy(VFe5)2
_symmetry_space_group_name_H-M   'P 1'
_cell_length_a   4.68213400
_cell_length_b   6.42235692
_cell_length_c   6.42235692
_cell_angle_alpha   97.18244037
_cell_angle_beta   111.37793507
_cell_angle_gamma   68.62206493
_symmetry_Int_Tables_number   1
_chemical_formula_structural   Dy(VFe5)2
_chemical_formula_sum   'Dy1 V2 Fe10'
_cell_volume   167.45471934
_cell_formula_units_Z   1
loop_
 _symmetry_equiv_pos_site_id
 _symmetry_equiv_pos_as_xyz
  1  'x, y, z'
loop_
 _atom_site_type_symbol
 _atom_site_label
 _atom_site_symmetry_multiplicity
 _atom_site_fract_x
 _atom_site_fract_y
 _atom_site_fract_z
 _atom_site_occupancy
  Dy  Dy0  1  0.00000000  0.00000000  0.00000000  1
  V  V0  1  0.00000000  0.35851000  0.35851000  1
  V  V1  1  0.00000000  0.64149000  0.64149000  1
  Fe  Fe0  1  0.50000000  0.00000000  0.50000000  1
  Fe  Fe1  1  0.00000000  0.00000000  0.50000000  1
  Fe  Fe2  1  0.50000000  0.50000000  0.00000000  1
  Fe  Fe3  1  0.00000000  0.50000000  0.00000000  1
  Fe  Fe4  1  0.72497300  0.77502700  0.22497300  1
  Fe  Fe5  1  0.27502700  0.22497300  0.77502700  1
  Fe  Fe6  1  0.50000000  0.77255600  0.77255600  1
  Fe  Fe7  1  0.50000000  0.22744400  0.22744400  1
  Fe  Fe8  1  0.64081200  0.35918800  0.64081200  1
  Fe  Fe9  1  0.35918800  0.64081200  0.35918800  1
loop_
_geom_bond_atom_site_label_1
_geom_bond_atom_site_label_2
_geom_bond_distance
_geom_bond_site_symmetry_2
Dy0 Fe4 3.011360 1_445
Dy0 Fe5 3.011360 1_554
Dy0 Fe5 3.011360 1_454
Dy0 Fe4 3.011360 1_545
Dy0 Fe8 3.024121 1_454
Dy0 Fe9 3.024121 1_545
Dy0 Fe6 3.035537 1_444
Dy0 Fe6 3.035537 1_544
Dy0 Fe7 3.035537 1_455
Dy0 Fe7 3.035537 1_555
Dy0 V1 3.045843 1_544
Dy0 V0 3.045843 1_555
Dy0 Fe1 3.211178 1_554
Dy0 Fe3 3.211178 1_545
Dy0 Fe3 3.211178 1_555
Dy0 Fe1 3.211178 1_555
Dy0 Fe2 3.211179 1_455
Dy0 Fe0 3.211179 1_454
Dy0 Fe0 3.211179 1_555
Dy0 Fe2 3.211179 1_545
V0 V1 2.404152 1_555
Fe0 Fe1 2.341067 1_555
Fe0 Fe1 2.341067 1_655
Fe0 Fe7 2.416027 1_555
Fe0 Fe6 2.416027 1_545
Fe0 Fe4 2.434287 1_545
Fe0 Fe5 2.434287 1_555
Fe0 V1 2.578824 1_645
Fe0 V0 2.578824 1_555
Fe0 Fe9 2.593539 1_545
Fe0 Fe8 2.593539 1_555
Fe1 Fe7 2.416027 1_455
Fe1 Fe6 2.416027 1_545
Fe1 Fe5 2.434287 1_555
Fe1 Fe4 2.434287 1_445
Fe1 V1 2.578824 1_545
Fe1 V0 2.578824 1_555
Fe1 Fe9 2.593539 1_545
Fe1 Fe8 2.593539 1_455
Fe2 Fe3 2.341067 1_555
Fe2 Fe3 2.341067 1_655
Fe2 Fe6 2.416027 1_554
Fe2 Fe7 2.416027 1_555
Fe2 Fe5 2.434287 1_554
Fe2 Fe4 2.434287 1_555
Fe2 V1 2.578824 1_554
Fe2 V0 2.578824 1_655
Fe2 Fe9 2.593539 1_555
Fe2 Fe8 2.593539 1_554
Fe3 Fe6 2.416027 1_454
Fe3 Fe7 2.416027 1_555
Fe3 Fe5 2.434287 1_554
Fe3 Fe4 2.434287 1_455
Fe3 V1 2.578824 1_554
Fe3 V0 2.578824 1_555
Fe3 Fe8 2.593539 1_454
Fe3 Fe9 2.593539 1_555
Fe4 Fe9 2.599518 1_555
Fe4 Fe9 2.599518 1_655
Fe4 V0 2.608969 1_655
Fe4 V1 2.608969 1_655
Fe4 Fe7 2.705842 1_565
Fe4 Fe6 2.705842 1_554
Fe5 Fe8 2.599518 1_555
Fe5 Fe8 2.599518 1_455
Fe5 V0 2.608969 1_555
Fe5 V1 2.608969 1_555
Fe5 Fe7 2.705842 1_556
Fe5 Fe6 2.705842 1_545
Fe6 V1 2.592395 1_555
Fe6 V1 2.592395 1_655
Fe6 Fe8 2.601437 1_555
Fe6 Fe9 2.601437 1_555
Fe7 V0 2.592395 1_655
Fe7 V0 2.592395 1_555
Fe7 Fe8 2.601437 1_555
Fe7 Fe9 2.601437 1_555
Fe8 Fe9 2.371084 1_555
Fe8 V1 2.886363 1_655
Fe8 V0 2.886363 1_655
Fe8 V1 2.886363 1_555
Fe8 V0 2.886363 1_555
Fe9 V1 2.886363 1_555
Fe9 V0 2.886363 1_555
Fe9 V1 2.886363 1_655
Fe9 V0 2.886363 1_655
