# generated using pymatgen
data_Zn4P6SN12
_symmetry_space_group_name_H-M   'P 1'
_cell_length_a   7.14230549
_cell_length_b   7.14230549
_cell_length_c   7.14230549
_cell_angle_alpha   109.47122063
_cell_angle_beta   109.47122063
_cell_angle_gamma   109.47122063
_symmetry_Int_Tables_number   1
_chemical_formula_structural   Zn4P6SN12
_chemical_formula_sum   'Zn4 P6 S1 N12'
_cell_volume   280.47449560
_cell_formula_units_Z   1
loop_
 _symmetry_equiv_pos_site_id
 _symmetry_equiv_pos_as_xyz
  1  'x, y, z'
loop_
 _atom_site_type_symbol
 _atom_site_label
 _atom_site_symmetry_multiplicity
 _atom_site_fract_x
 _atom_site_fract_y
 _atom_site_fract_z
 _atom_site_occupancy
  Zn  Zn0  1  0.00000000  0.33198300  0.00000000  1
  Zn  Zn1  1  0.66801700  0.66801700  0.66801700  1
  Zn  Zn2  1  0.33198300  0.00000000  0.00000000  1
  Zn  Zn3  1  0.00000000  0.00000000  0.33198300  1
  P  P0  1  0.75000000  0.25000000  0.50000000  1
  P  P1  1  0.25000000  0.75000000  0.50000000  1
  P  P2  1  0.50000000  0.75000000  0.25000000  1
  P  P3  1  0.50000000  0.25000000  0.75000000  1
  P  P4  1  0.75000000  0.50000000  0.25000000  1
  P  P5  1  0.25000000  0.50000000  0.75000000  1
  S  S0  1  0.00000000  0.00000000  0.00000000  1
  N  N0  1  0.55143500  0.27051400  0.00000000  1
  N  N1  1  0.44856500  0.44856500  0.71907900  1
  N  N2  1  0.00000000  0.27051400  0.55143500  1
  N  N3  1  0.27051400  0.00000000  0.55143500  1
  N  N4  1  0.71907900  0.44856500  0.44856500  1
  N  N5  1  0.00000000  0.55143500  0.27051400  1
  N  N6  1  0.55143500  0.00000000  0.27051400  1
  N  N7  1  0.44856500  0.71907900  0.44856500  1
  N  N8  1  0.27051400  0.55143500  0.00000000  1
  N  N9  1  0.72948600  0.28092100  0.72948600  1
  N  N10  1  0.72948600  0.72948600  0.28092100  1
  N  N11  1  0.28092100  0.72948600  0.72948600  1
loop_
_geom_bond_atom_site_label_1
_geom_bond_atom_site_label_2
_geom_bond_distance
_geom_bond_site_symmetry_2
S0 Zn3 2.371124 1_555
S0 Zn2 2.371124 1_555
S0 Zn0 2.371124 1_555
S0 Zn1 2.371124 1_444
N0 P4 1.642287 1_555
N0 P3 1.642287 1_554
N0 Zn2 2.042255 1_555
N1 P3 1.642287 1_555
N1 P5 1.642287 1_555
N1 Zn1 2.042255 1_555
N2 P5 1.642287 1_555
N2 P0 1.642287 1_455
N2 Zn3 2.042255 1_555
N3 P1 1.642287 1_545
N3 P3 1.642287 1_555
N3 Zn3 2.042255 1_555
N4 P4 1.642287 1_555
N4 P0 1.642287 1_555
N4 Zn1 2.042255 1_555
N5 P4 1.642287 1_455
N5 P1 1.642287 1_555
N5 Zn0 2.042255 1_555
N6 P2 1.642287 1_545
N6 P0 1.642287 1_555
N6 Zn2 2.042255 1_555
N7 P1 1.642287 1_555
N7 P2 1.642287 1_555
N7 Zn1 2.042255 1_555
N8 P5 1.642287 1_554
N8 P2 1.642287 1_555
N8 Zn0 2.042255 1_555
N9 P0 1.642287 1_555
N9 P3 1.642287 1_555
N9 Zn0 2.042255 1_656
N10 P4 1.642287 1_555
N10 P2 1.642287 1_555
N10 Zn3 2.042255 1_665
N11 P1 1.642287 1_555
N11 P5 1.642287 1_555
N11 Zn2 2.042255 1_566
