# generated using pymatgen
data_Mg6MnCr
_symmetry_space_group_name_H-M   'P 1'
_cell_length_a   4.94766700
_cell_length_b   6.22548000
_cell_length_c   10.59554000
_cell_angle_alpha   90.00000000
_cell_angle_beta   90.00000000
_cell_angle_gamma   90.00000000
_symmetry_Int_Tables_number   1
_chemical_formula_structural   Mg6MnCr
_chemical_formula_sum   'Mg12 Mn2 Cr2'
_cell_volume   326.35960558
_cell_formula_units_Z   2
loop_
 _symmetry_equiv_pos_site_id
 _symmetry_equiv_pos_as_xyz
  1  'x, y, z'
loop_
 _atom_site_type_symbol
 _atom_site_label
 _atom_site_symmetry_multiplicity
 _atom_site_fract_x
 _atom_site_fract_y
 _atom_site_fract_z
 _atom_site_occupancy
  Mg  Mg0  1  0.00000000  0.25000300  0.58254100  1
  Mg  Mg1  1  0.00000000  0.74999700  0.58254100  1
  Mg  Mg2  1  0.50000000  0.25015100  0.41315200  1
  Mg  Mg3  1  0.50000000  0.74984900  0.41315200  1
  Mg  Mg4  1  0.50000000  0.00000000  0.67027100  1
  Mg  Mg5  1  0.50000000  0.00000000  0.17019100  1
  Mg  Mg6  1  0.00000000  0.75000300  0.08254100  1
  Mg  Mg7  1  0.00000000  0.24999700  0.08254100  1
  Mg  Mg8  1  0.50000000  0.75015100  0.91315200  1
  Mg  Mg9  1  0.50000000  0.24984900  0.91315200  1
  Mg  Mg10  1  0.50000000  0.50000000  0.17027100  1
  Mg  Mg11  1  0.50000000  0.50000000  0.67019100  1
  Mn  Mn0  1  0.00000000  0.00000000  0.83419400  1
  Mn  Mn1  1  0.00000000  0.50000000  0.33419400  1
  Cr  Cr0  1  0.00000000  0.00000000  0.33396200  1
  Cr  Cr1  1  0.00000000  0.50000000  0.83396200  1
loop_
_geom_bond_atom_site_label_1
_geom_bond_atom_site_label_2
_geom_bond_distance
_geom_bond_site_symmetry_2
Mg0 Mg2 3.056312 1_455
Mg0 Mg2 3.056312 1_555
Mg0 Mn1 3.057179 1_555
Mg0 Mg11 3.066686 1_455
Mg0 Mg11 3.066686 1_555
Mg0 Mg4 3.066962 1_455
Mg0 Mg4 3.066962 1_555
Mg0 Mn0 3.087399 1_555
Mg0 Mg1 3.112703 1_555
Mg0 Mg1 3.112777 1_545
Mg1 Mg3 3.056312 1_555
Mg1 Mg3 3.056312 1_455
Mg1 Mn1 3.057179 1_555
Mg1 Mg11 3.066686 1_455
Mg1 Mg11 3.066686 1_555
Mg1 Mg4 3.066962 1_565
Mg1 Mg4 3.066962 1_465
Mg1 Mn0 3.087399 1_565
Mg2 Mg5 3.008696 1_555
Mg2 Mn1 3.039592 1_555
Mg2 Mn1 3.039592 1_655
Mg2 Mg3 3.110860 1_555
Mg2 Mg3 3.114620 1_545
Mg2 Mg4 3.138010 1_555
Mg3 Mg5 3.008696 1_565
Mg3 Mn1 3.039592 1_555
Mg3 Mn1 3.039592 1_655
Mg3 Mg4 3.138010 1_565
Mg4 Mg9 3.006998 1_555
Mg4 Mg8 3.006998 1_545
Mg4 Mn0 3.022666 1_655
Mg4 Mn0 3.022666 1_555
Mg5 Mg6 3.066686 1_545
Mg5 Mg7 3.066686 1_555
Mg5 Mg7 3.066686 1_655
Mg5 Mg6 3.066686 1_645
Mg5 Mg8 3.136341 1_544
Mg5 Mg9 3.136341 1_554
Mg6 Mg8 3.056312 1_554
Mg6 Mg8 3.056312 1_454
Mg6 Mn0 3.057179 1_564
Mg6 Mn1 3.087399 1_555
Mg6 Mg7 3.112703 1_565
Mg6 Mg7 3.112777 1_555
Mg7 Mg9 3.056312 1_454
Mg7 Mg9 3.056312 1_554
Mg7 Mn0 3.057179 1_554
Mg7 Mn1 3.087399 1_555
Mg8 Mn0 3.039592 1_665
Mg8 Mn0 3.039592 1_565
Mg8 Mg9 3.110860 1_565
Mg8 Mg9 3.114620 1_555
Mg9 Mn0 3.039592 1_655
Mg9 Mn0 3.039592 1_555
Mg10 Mg2 3.006998 1_555
Mg10 Mg3 3.006998 1_555
Mg10 Mn1 3.022666 1_555
Mg10 Mn1 3.022666 1_655
Mg10 Mg7 3.066962 1_655
Mg10 Mg6 3.066962 1_555
Mg10 Mg6 3.066962 1_655
Mg10 Mg7 3.066962 1_555
Mg10 Mg5 3.112740 1_555
Mg10 Mg5 3.112740 1_565
Mg10 Mg8 3.138010 1_554
Mg10 Mg9 3.138010 1_554
Mg11 Mg9 3.008696 1_555
Mg11 Mg8 3.008696 1_555
Mg11 Mg4 3.112740 1_555
Mg11 Mg4 3.112740 1_565
Mg11 Mg3 3.136341 1_555
Mg11 Mg2 3.136341 1_555
Cr0 Mg5 3.021741 1_455
Cr0 Mg5 3.021741 1_555
Cr0 Mg3 3.041232 1_545
Cr0 Mg2 3.041232 1_455
Cr0 Mg2 3.041232 1_555
Cr0 Mg3 3.041232 1_445
Cr0 Mg0 3.059314 1_555
Cr0 Mg1 3.059314 1_545
Cr0 Mg6 3.085257 1_545
Cr0 Mg7 3.085257 1_555
Cr0 Mn1 3.112741 1_555
Cr0 Mn1 3.112741 1_545
Cr1 Mg11 3.021741 1_555
Cr1 Mg11 3.021741 1_455
Cr1 Mg9 3.041232 1_555
Cr1 Mg8 3.041232 1_555
Cr1 Mg8 3.041232 1_455
Cr1 Mg9 3.041232 1_455
Cr1 Mg6 3.059314 1_556
Cr1 Mg7 3.059314 1_556
Cr1 Mg1 3.085257 1_555
Cr1 Mg0 3.085257 1_555
Cr1 Mn0 3.112741 1_565
Cr1 Mn0 3.112741 1_555
