# generated using pymatgen
data_YZnRh
_symmetry_space_group_name_H-M   'P 1'
_cell_length_a   4.08184037
_cell_length_b   6.89023754
_cell_length_c   7.98968110
_cell_angle_alpha   90.00000000
_cell_angle_beta   90.00000000
_cell_angle_gamma   90.00000000
_symmetry_Int_Tables_number   1
_chemical_formula_structural   YZnRh
_chemical_formula_sum   'Y4 Zn4 Rh4'
_cell_volume   224.70858049
_cell_formula_units_Z   4
loop_
 _symmetry_equiv_pos_site_id
 _symmetry_equiv_pos_as_xyz
  1  'x, y, z'
loop_
 _atom_site_type_symbol
 _atom_site_label
 _atom_site_symmetry_multiplicity
 _atom_site_fract_x
 _atom_site_fract_y
 _atom_site_fract_z
 _atom_site_occupancy
  Y  Y0  1  0.25000000  0.53278169  0.18522174  1
  Y  Y1  1  0.75000000  0.46721831  0.81477826  1
  Y  Y2  1  0.75000000  0.96721831  0.68522174  1
  Y  Y3  1  0.25000000  0.03278169  0.31477826  1
  Zn  Zn0  1  0.25000000  0.64257147  0.56476422  1
  Zn  Zn1  1  0.75000000  0.35742853  0.43523578  1
  Zn  Zn2  1  0.75000000  0.85742853  0.06476422  1
  Zn  Zn3  1  0.25000000  0.14257147  0.93523578  1
  Rh  Rh0  1  0.25000000  0.76142452  0.87922586  1
  Rh  Rh1  1  0.75000000  0.23857548  0.12077414  1
  Rh  Rh2  1  0.75000000  0.73857548  0.37922586  1
  Rh  Rh3  1  0.25000000  0.26142452  0.62077414  1
loop_
_geom_bond_atom_site_label_1
_geom_bond_atom_site_label_2
_geom_bond_distance
_geom_bond_site_symmetry_2
Y0 Zn1 3.100854 1_555
Y0 Zn1 3.100854 1_455
Y0 Zn0 3.125356 1_555
Y0 Zn2 3.177310 1_455
Y0 Zn2 3.177310 1_555
Y0 Zn3 3.349333 1_554
Y0 Y3 3.597264 1_565
Y0 Y3 3.597264 1_555
Y0 Y1 3.623452 1_554
Y0 Y1 3.623452 1_454
Y1 Zn0 3.100854 1_555
Y1 Zn0 3.100854 1_655
Y1 Zn1 3.125356 1_555
Y1 Zn3 3.177310 1_555
Y1 Zn3 3.177310 1_655
Y1 Zn2 3.349333 1_556
Y1 Y2 3.597264 1_545
Y1 Y2 3.597264 1_555
Y2 Zn3 3.100854 1_665
Y2 Zn3 3.100854 1_565
Y2 Zn2 3.125356 1_556
Y2 Zn0 3.177310 1_655
Y2 Zn0 3.177310 1_555
Y2 Zn1 3.349333 1_565
Y2 Y3 3.623452 1_565
Y2 Y3 3.623452 1_665
Y3 Zn2 3.100854 1_545
Y3 Zn2 3.100854 1_445
Y3 Zn3 3.125356 1_554
Y3 Zn1 3.177310 1_555
Y3 Zn1 3.177310 1_455
Y3 Zn0 3.349333 1_545
Rh0 Zn2 2.607760 1_556
Rh0 Zn2 2.607760 1_456
Rh0 Zn0 2.642543 1_555
Rh0 Zn3 2.664047 1_565
Rh0 Y0 2.908434 1_556
Rh0 Y1 2.922299 1_455
Rh0 Y1 2.922299 1_555
Rh0 Y2 2.928922 1_455
Rh0 Y2 2.928922 1_555
Rh1 Zn3 2.607760 1_554
Rh1 Zn3 2.607760 1_654
Rh1 Zn1 2.642543 1_555
Rh1 Zn2 2.664047 1_545
Rh1 Y1 2.908434 1_554
Rh1 Y0 2.922299 1_655
Rh1 Y0 2.922299 1_555
Rh1 Y3 2.928922 1_655
Rh1 Y3 2.928922 1_555
Rh2 Zn0 2.607760 1_555
Rh2 Zn0 2.607760 1_655
Rh2 Zn2 2.642543 1_555
Rh2 Zn1 2.664047 1_555
Rh2 Y2 2.908434 1_555
Rh2 Y3 2.922299 1_665
Rh2 Y3 2.922299 1_565
Rh2 Y0 2.928922 1_655
Rh2 Y0 2.928922 1_555
Rh3 Zn1 2.607760 1_555
Rh3 Zn1 2.607760 1_455
Rh3 Zn3 2.642543 1_555
Rh3 Zn0 2.664047 1_555
Rh3 Y3 2.908434 1_555
Rh3 Y2 2.922299 1_545
Rh3 Y2 2.922299 1_445
Rh3 Y1 2.928922 1_555
Rh3 Y1 2.928922 1_455
