# generated using pymatgen
data_Ca5CuN4
_symmetry_space_group_name_H-M   'P 1'
_cell_length_a   8.34135600
_cell_length_b   7.33416400
_cell_length_c   6.21807200
_cell_angle_alpha   90.00000000
_cell_angle_beta   90.00000000
_cell_angle_gamma   90.00000000
_symmetry_Int_Tables_number   1
_chemical_formula_structural   Ca5CuN4
_chemical_formula_sum   'Ca10 Cu2 N8'
_cell_volume   380.40220034
_cell_formula_units_Z   2
loop_
 _symmetry_equiv_pos_site_id
 _symmetry_equiv_pos_as_xyz
  1  'x, y, z'
loop_
 _atom_site_type_symbol
 _atom_site_label
 _atom_site_symmetry_multiplicity
 _atom_site_fract_x
 _atom_site_fract_y
 _atom_site_fract_z
 _atom_site_occupancy
  Ca  Ca0  1  0.53885600  0.51923900  0.26007300  1
  Ca  Ca1  1  0.96114400  0.51923900  0.26007300  1
  Ca  Ca2  1  0.53885600  0.98076100  0.26007300  1
  Ca  Ca3  1  0.96114400  0.98076100  0.26007300  1
  Ca  Ca4  1  0.46114400  0.48076100  0.73992700  1
  Ca  Ca5  1  0.03885600  0.48076100  0.73992700  1
  Ca  Ca6  1  0.46114400  0.01923900  0.73992700  1
  Ca  Ca7  1  0.03885600  0.01923900  0.73992700  1
  Ca  Ca8  1  0.75000000  0.75000000  0.75516400  1
  Ca  Ca9  1  0.25000000  0.25000000  0.24483600  1
  Cu  Cu0  1  0.75000000  0.25000000  0.98321100  1
  Cu  Cu1  1  0.25000000  0.75000000  0.01678900  1
  N  N0  1  0.75000000  0.00243200  0.98173700  1
  N  N1  1  0.75000000  0.49756800  0.98173700  1
  N  N2  1  0.25000000  0.99756800  0.01826300  1
  N  N3  1  0.25000000  0.50243200  0.01826300  1
  N  N4  1  0.52918300  0.75000000  0.52851500  1
  N  N5  1  0.97081700  0.75000000  0.52851500  1
  N  N6  1  0.47081700  0.25000000  0.47148500  1
  N  N7  1  0.02918300  0.25000000  0.47148500  1
loop_
_geom_bond_atom_site_label_1
_geom_bond_atom_site_label_2
_geom_bond_distance
_geom_bond_site_symmetry_2
Ca0 N4 2.378458 1_555
Ca0 N6 2.439144 1_555
Ca0 N1 2.474379 1_554
Ca0 N3 2.842787 1_555
Ca1 N5 2.378458 1_555
Ca1 N7 2.439144 1_655
Ca1 N1 2.474379 1_554
Ca1 N3 2.842787 1_655
Ca2 N4 2.378458 1_555
Ca2 N6 2.439144 1_565
Ca2 N0 2.474379 1_564
Ca2 N2 2.842787 1_555
Ca3 N5 2.378458 1_555
Ca3 N7 2.439144 1_665
Ca3 N0 2.474379 1_564
Ca3 N2 2.842787 1_655
Ca4 N6 2.378458 1_555
Ca4 N4 2.439144 1_555
Ca4 N3 2.474379 1_556
Ca4 N1 2.842787 1_555
Ca5 N7 2.378458 1_555
Ca5 N5 2.439144 1_455
Ca5 N3 2.474379 1_556
Ca5 N1 2.842787 1_455
Ca6 N6 2.378458 1_555
Ca6 N4 2.439144 1_545
Ca6 N2 2.474379 1_546
Ca6 N0 2.842787 1_555
Ca7 N7 2.378458 1_555
Ca7 N5 2.439144 1_445
Ca7 N2 2.474379 1_546
Ca7 N0 2.842787 1_455
Ca8 N5 2.319230 1_555
Ca8 N4 2.319230 1_555
Ca8 N0 2.326467 1_565
Ca8 N1 2.326467 1_555
Ca9 N6 2.319230 1_555
Ca9 N7 2.319230 1_555
Ca9 N3 2.326467 1_555
Ca9 N2 2.326467 1_545
Cu0 N0 1.815727 1_555
Cu0 N1 1.815727 1_555
Cu1 N2 1.815727 1_555
Cu1 N3 1.815727 1_555
