# generated using pymatgen
data_CsYMg6
_symmetry_space_group_name_H-M   'P 1'
_cell_length_a   5.45835600
_cell_length_b   7.19017800
_cell_length_c   11.88796800
_cell_angle_alpha   90.00000000
_cell_angle_beta   90.00000000
_cell_angle_gamma   90.00000000
_symmetry_Int_Tables_number   1
_chemical_formula_structural   CsYMg6
_chemical_formula_sum   'Cs2 Y2 Mg12'
_cell_volume   466.56174510
_cell_formula_units_Z   2
loop_
 _symmetry_equiv_pos_site_id
 _symmetry_equiv_pos_as_xyz
  1  'x, y, z'
loop_
 _atom_site_type_symbol
 _atom_site_label
 _atom_site_symmetry_multiplicity
 _atom_site_fract_x
 _atom_site_fract_y
 _atom_site_fract_z
 _atom_site_occupancy
  Cs  Cs0  1  0.50000000  0.50000000  0.14692000  1
  Cs  Cs1  1  0.50000000  0.00000000  0.64692000  1
  Y  Y0  1  0.00000000  0.50000000  0.34712900  1
  Y  Y1  1  0.00000000  0.00000000  0.84712900  1
  Mg  Mg0  1  0.00000000  0.21718600  0.08645300  1
  Mg  Mg1  1  0.00000000  0.78281400  0.08645300  1
  Mg  Mg2  1  0.00000000  0.50000000  0.84257700  1
  Mg  Mg3  1  0.50000000  0.23484200  0.91078000  1
  Mg  Mg4  1  0.50000000  0.76515800  0.91078000  1
  Mg  Mg5  1  0.50000000  0.50000000  0.66890700  1
  Mg  Mg6  1  0.00000000  0.71718600  0.58645300  1
  Mg  Mg7  1  0.00000000  0.28281400  0.58645300  1
  Mg  Mg8  1  0.00000000  0.00000000  0.34257700  1
  Mg  Mg9  1  0.50000000  0.73484200  0.41078000  1
  Mg  Mg10  1  0.50000000  0.26515800  0.41078000  1
  Mg  Mg11  1  0.50000000  0.00000000  0.16890700  1
loop_
_geom_bond_atom_site_label_1
_geom_bond_atom_site_label_2
_geom_bond_distance
_geom_bond_site_symmetry_2
Cs0 Mg3 3.393432 1_554
Cs0 Mg4 3.393432 1_554
Cs0 Mg0 3.478532 1_655
Cs0 Mg1 3.478532 1_555
Cs0 Mg0 3.478532 1_555
Cs0 Mg1 3.478532 1_655
Cs0 Mg9 3.562370 1_555
Cs0 Mg10 3.562370 1_555
Cs0 Mg11 3.604578 1_565
Cs0 Mg11 3.604578 1_555
Cs0 Y0 3.621213 1_555
Cs0 Y0 3.621213 1_655
Cs1 Mg9 3.393432 1_545
Cs1 Mg10 3.393432 1_555
Cs1 Mg7 3.478532 1_555
Cs1 Mg7 3.478532 1_655
Cs1 Mg6 3.478532 1_645
Cs1 Mg6 3.478532 1_545
Cs1 Mg3 3.562370 1_555
Cs1 Mg4 3.562370 1_545
Cs1 Mg5 3.604578 1_545
Cs1 Mg5 3.604578 1_555
Cs1 Y1 3.621213 1_555
Cs1 Y1 3.621213 1_655
Mg0 Mg1 3.123212 1_545
Mg0 Y1 3.245469 1_554
Mg0 Mg11 3.293606 1_455
Mg0 Mg11 3.293606 1_555
Mg0 Mg8 3.421898 1_555
Mg0 Mg3 3.438884 1_554
Mg0 Mg3 3.438884 1_454
Mg0 Mg2 3.541237 1_554
Mg0 Y0 3.706519 1_555
Mg1 Y1 3.245469 1_564
Mg1 Mg11 3.293606 1_465
Mg1 Mg11 3.293606 1_565
Mg1 Mg8 3.421898 1_565
Mg1 Mg4 3.438884 1_554
Mg1 Mg4 3.438884 1_454
Mg1 Mg2 3.541237 1_554
Mg1 Y0 3.706519 1_555
Mg2 Mg7 3.421898 1_555
Mg2 Mg6 3.421898 1_555
Mg2 Mg5 3.422122 1_455
Mg2 Mg5 3.422122 1_555
Mg2 Mg3 3.426466 1_455
Mg2 Mg3 3.426466 1_555
Mg2 Mg4 3.426466 1_555
Mg2 Mg4 3.426466 1_455
Mg2 Y1 3.595496 1_555
Mg2 Y1 3.595496 1_565
Mg3 Y1 3.297302 1_555
Mg3 Y1 3.297302 1_655
Mg3 Mg5 3.450025 1_555
Mg4 Y1 3.297302 1_565
Mg4 Y1 3.297302 1_665
Mg4 Mg5 3.450025 1_555
Mg5 Mg7 3.293606 1_655
Mg5 Mg6 3.293606 1_555
Mg5 Mg6 3.293606 1_655
Mg5 Mg7 3.293606 1_555
Mg5 Mg9 3.502508 1_555
Mg6 Mg7 3.123212 1_555
Mg6 Y0 3.245469 1_555
Mg6 Mg9 3.438884 1_455
Mg6 Mg9 3.438884 1_555
Mg6 Mg8 3.541237 1_565
Mg6 Y1 3.706519 1_565
Mg7 Y0 3.245469 1_555
Mg7 Mg8 3.541237 1_555
Mg7 Y1 3.706519 1_555
Mg8 Mg9 3.426466 1_445
Mg8 Mg9 3.426466 1_545
Mg8 Y0 3.595496 1_555
Mg8 Y0 3.595496 1_545
Mg9 Y0 3.297302 1_655
Mg9 Y0 3.297302 1_555
Mg10 Y0 3.297302 1_655
Mg10 Y0 3.297302 1_555
Mg10 Mg8 3.426466 1_555
Mg10 Mg8 3.426466 1_655
Mg10 Mg7 3.438884 1_555
Mg10 Mg7 3.438884 1_655
Mg10 Mg11 3.450025 1_555
Mg10 Mg5 3.502508 1_555
Mg11 Mg8 3.422122 1_555
Mg11 Mg8 3.422122 1_655
Mg11 Mg9 3.450025 1_545
Mg11 Mg3 3.502508 1_554
Mg11 Mg4 3.502508 1_544
