# generated using pymatgen
data_ZnH9C4NO6
_symmetry_space_group_name_H-M   'P 1'
_cell_length_a   8.12984137
_cell_length_b   11.62606600
_cell_length_c   8.23110841
_cell_angle_alpha   90.00000000
_cell_angle_beta   90.00000000
_cell_angle_gamma   90.00000000
_symmetry_Int_Tables_number   1
_chemical_formula_structural   ZnH9C4NO6
_chemical_formula_sum   'Zn4 H36 C16 N4 O24'
_cell_volume   777.98850093
_cell_formula_units_Z   4
loop_
 _symmetry_equiv_pos_site_id
 _symmetry_equiv_pos_as_xyz
  1  'x, y, z'
loop_
 _atom_site_type_symbol
 _atom_site_label
 _atom_site_symmetry_multiplicity
 _atom_site_fract_x
 _atom_site_fract_y
 _atom_site_fract_z
 _atom_site_occupancy
  Zn  Zn0  1  0.00000000  0.00000000  0.50000000  1
  Zn  Zn1  1  0.50000000  0.50000000  0.00000000  1
  Zn  Zn2  1  0.00000000  0.50000000  0.50000000  1
  Zn  Zn3  1  0.50000000  0.00000000  0.00000000  1
  H  H0  1  0.28534516  0.96229864  0.71714668  1
  H  H1  1  0.78534519  0.53770136  0.78285332  1
  H  H2  1  0.71465481  0.46229867  0.28285332  1
  H  H3  1  0.21465482  0.03770134  0.21714668  1
  H  H4  1  0.71465481  0.03770134  0.28285332  1
  H  H5  1  0.21465482  0.46229867  0.21714668  1
  H  H6  1  0.28534516  0.53770136  0.71714668  1
  H  H7  1  0.78534519  0.96229864  0.78285332  1
  H  H8  1  0.98285998  0.25000000  0.57374927  1
  H  H9  1  0.48285998  0.25000000  0.92625073  1
  H  H10  1  0.01714003  0.75000000  0.42625073  1
  H  H11  1  0.51714002  0.75000000  0.07374926  1
  H  H12  1  0.08483706  0.25000000  0.15507586  1
  H  H13  1  0.58483707  0.25000000  0.34492414  1
  H  H14  1  0.91516293  0.75000000  0.84492414  1
  H  H15  1  0.41516293  0.75000000  0.65507586  1
  H  H16  1  0.14669674  0.17731651  0.98885535  1
  H  H17  1  0.64669672  0.32268349  0.51114465  1
  H  H18  1  0.85330328  0.67731654  0.01114466  1
  H  H19  1  0.35330325  0.82268346  0.48885535  1
  H  H20  1  0.85330328  0.82268346  0.01114466  1
  H  H21  1  0.35330325  0.67731654  0.48885535  1
  H  H22  1  0.14669674  0.32268349  0.98885535  1
  H  H23  1  0.64669672  0.17731651  0.51114465  1
  H  H24  1  0.91100525  0.25000000  0.84085998  1
  H  H25  1  0.41100525  0.25000000  0.65914002  1
  H  H26  1  0.08899476  0.75000000  0.15914002  1
  H  H27  1  0.58899475  0.75000000  0.34085998  1
  H  H28  1  0.84968858  0.17330799  0.01793800  1
  H  H29  1  0.34968858  0.32669202  0.48206200  1
  H  H30  1  0.15031142  0.67330798  0.98206203  1
  H  H31  1  0.65031142  0.82669202  0.51793797  1
  H  H32  1  0.15031142  0.82669202  0.98206203  1
  H  H33  1  0.65031142  0.67330798  0.51793797  1
  H  H34  1  0.84968858  0.32669202  0.01793800  1
  H  H35  1  0.34968858  0.17330799  0.48206200  1
  C  C0  1  0.21607622  0.02979317  0.78063157  1
  C  C1  1  0.71607622  0.47020681  0.71936843  1
  C  C2  1  0.78392378  0.52979316  0.21936841  1
  C  C3  1  0.28392378  0.97020684  0.28063160  1
  C  C4  1  0.78392378  0.97020684  0.21936841  1
  C  C5  1  0.28392378  0.52979316  0.28063160  1
  C  C6  1  0.21607622  0.47020681  0.78063157  1
  C  C7  1  0.71607622  0.02979317  0.71936843  1
  C  C8  1  0.00830589  0.25000000  0.44260123  1
  C  C9  1  0.50830590  0.25000000  0.05739878  1
  C  C10  1  0.99169410  0.75000000  0.55739880  1
  C  C11  1  0.49169410  0.75000000  0.94260120  1
  C  C12  1  0.91113603  0.25000000  0.97271118  1
  C  C13  1  0.41113603  0.25000000  0.52728882  1
  C  C14  1  0.08886397  0.75000000  0.02728879  1
  C  C15  1  0.58886397  0.75000000  0.47271121  1
  N  N0  1  0.08402174  0.25000000  0.03015608  1
  N  N1  1  0.58402175  0.25000000  0.46984394  1
  N  N2  1  0.91597825  0.75000000  0.96984391  1
  N  N3  1  0.41597825  0.75000000  0.53015609  1
  O  O0  1  0.09378138  0.07435171  0.71172741  1
  O  O1  1  0.59378138  0.42564828  0.78827259  1
  O  O2  1  0.90621862  0.57435169  0.28827259  1
  O  O3  1  0.40621862  0.92564831  0.21172741  1
  O  O4  1  0.90621862  0.92564831  0.28827259  1
  O  O5  1  0.40621862  0.57435169  0.21172741  1
  O  O6  1  0.09378138  0.42564828  0.71172741  1
  O  O7  1  0.59378138  0.07435171  0.78827259  1
  O  O8  1  0.26575439  0.05830346  0.92148052  1
  O  O9  1  0.76575439  0.44169654  0.57851948  1
  O  O10  1  0.73424561  0.55830349  0.07851946  1
  O  O11  1  0.23424561  0.94169651  0.42148055  1
  O  O12  1  0.73424561  0.94169651  0.07851946  1
  O  O13  1  0.23424561  0.55830349  0.42148055  1
  O  O14  1  0.26575439  0.44169654  0.92148052  1
  O  O15  1  0.76575439  0.05830346  0.57851948  1
  O  O16  1  0.97698891  0.84548630  0.62934124  1
  O  O17  1  0.47698888  0.65451370  0.87065876  1
  O  O18  1  0.02301112  0.34548630  0.37065873  1
  O  O19  1  0.52301109  0.15451372  0.12934127  1
  O  O20  1  0.02301112  0.15451372  0.37065873  1
  O  O21  1  0.52301109  0.34548630  0.12934127  1
  O  O22  1  0.97698891  0.65451370  0.62934124  1
  O  O23  1  0.47698888  0.84548630  0.87065876  1
loop_
_geom_bond_atom_site_label_1
_geom_bond_atom_site_label_2
_geom_bond_distance
_geom_bond_site_symmetry_2
H12 N0 1.028250 1_555
H13 N1 1.028250 1_555
H14 N2 1.028249 1_555
H15 N3 1.028249 1_555
H16 N0 1.043676 1_556
H17 N1 1.043676 1_555
H18 N2 1.043676 1_554
H19 N3 1.043676 1_555
H20 N2 1.043676 1_554
H21 N3 1.043676 1_555
H22 N0 1.043676 1_556
H23 N1 1.043676 1_555
C0 H0 1.098153 1_545
C0 O0 1.256400 1_555
C0 O8 1.271636 1_555
C1 H1 1.098153 1_555
C1 O1 1.256400 1_555
C1 O9 1.271636 1_555
C2 H2 1.098153 1_555
C2 O2 1.256401 1_555
C2 O10 1.271637 1_555
C3 H3 1.098153 1_565
C3 O3 1.256401 1_555
C3 O11 1.271636 1_555
C4 H4 1.098153 1_565
C4 O4 1.256401 1_555
C4 O12 1.271637 1_555
C5 H5 1.098153 1_555
C5 O5 1.256401 1_555
C5 O13 1.271636 1_555
C6 H6 1.098153 1_555
C6 O6 1.256400 1_555
C6 O14 1.271636 1_555
C7 H7 1.098153 1_545
C7 O7 1.256400 1_555
C7 O15 1.271636 1_555
C8 H8 1.099137 1_455
C8 O20 1.263860 1_555
C8 O18 1.263860 1_555
C9 H9 1.099137 1_554
C9 O19 1.263860 1_555
C9 O21 1.263860 1_555
C10 H10 1.099137 1_655
C10 O16 1.263860 1_555
C10 O22 1.263860 1_555
C11 H11 1.099137 1_556
C11 O23 1.263860 1_555
C11 O17 1.263860 1_555
C12 H24 1.085282 1_555
C12 H28 1.087722 1_556
C12 H34 1.087722 1_556
C12 N0 1.482935 1_656
C13 H25 1.085282 1_555
C13 H35 1.087722 1_555
C13 H29 1.087722 1_555
C13 N1 1.482935 1_555
C14 H26 1.085282 1_555
C14 H32 1.087722 1_554
C14 H30 1.087722 1_554
C14 N2 1.482935 1_454
C15 H27 1.085282 1_555
C15 H31 1.087722 1_555
C15 H33 1.087722 1_555
C15 N3 1.482935 1_555
O0 Zn0 2.089425 1_555
O1 Zn1 2.089425 1_556
O2 Zn2 2.089425 1_655
O3 Zn3 2.089425 1_565
O4 Zn0 2.089425 1_665
O5 Zn1 2.089425 1_555
O6 Zn2 2.089425 1_555
O7 Zn3 2.089425 1_556
O8 Zn3 2.122224 1_556
O9 Zn2 2.122224 1_655
O10 Zn1 2.122224 1_555
O11 Zn0 2.122224 1_565
O12 Zn3 2.122224 1_565
O13 Zn2 2.122224 1_555
O14 Zn1 2.122224 1_556
O15 Zn0 2.122224 1_655
O16 Zn0 2.096526 1_665
O17 Zn1 2.096526 1_556
O18 Zn2 2.096526 1_555
O19 Zn3 2.096526 1_555
O20 Zn0 2.096526 1_555
O21 Zn1 2.096526 1_555
O22 Zn2 2.096526 1_655
O23 Zn3 2.096526 1_566
