# generated using pymatgen
data_TeMoWSe2S
_symmetry_space_group_name_H-M   'P 1'
_cell_length_a   3.34269270
_cell_length_b   3.34269270
_cell_length_c   38.08723100
_cell_angle_alpha   90.00000000
_cell_angle_beta   90.00000000
_cell_angle_gamma   120.00001390
_symmetry_Int_Tables_number   1
_chemical_formula_structural   TeMoWSe2S
_chemical_formula_sum   'Te2 Mo2 W2 Se4 S2'
_cell_volume   368.55548356
_cell_formula_units_Z   2
loop_
 _symmetry_equiv_pos_site_id
 _symmetry_equiv_pos_as_xyz
  1  'x, y, z'
loop_
 _atom_site_type_symbol
 _atom_site_label
 _atom_site_symmetry_multiplicity
 _atom_site_fract_x
 _atom_site_fract_y
 _atom_site_fract_z
 _atom_site_occupancy
  Te  Te0  1  0.33333300  0.66666700  0.33157000  1
  Te  Te1  1  0.33333300  0.66666700  0.23194200  1
  Mo  Mo0  1  0.33333300  0.66666700  0.09392300  1
  Mo  Mo1  1  0.66666700  0.33333300  0.28176700  1
  W  W0  1  0.33333300  0.66666700  0.46970000  1
  W  W1  1  0.66666700  0.33333300  0.65753200  1
  Se  Se0  1  0.33333300  0.66666700  0.70148800  1
  Se  Se1  1  0.66666700  0.33333300  0.42574700  1
  Se  Se2  1  0.66666700  0.33333300  0.51364900  1
  Se  Se3  1  0.33333300  0.66666700  0.61358500  1
  S  S0  1  0.66666700  0.33333300  0.05404500  1
  S  S1  1  0.66666700  0.33333300  0.13380200  1
loop_
_geom_bond_atom_site_label_1
_geom_bond_atom_site_label_2
_geom_bond_distance
_geom_bond_site_symmetry_2
Mo0 S0 2.455892 1_455
Mo0 S0 2.455892 1_565
Mo0 S0 2.455897 1_555
Mo0 S1 2.455916 1_455
Mo0 S1 2.455916 1_565
Mo0 S1 2.455920 1_555
Mo1 Te0 2.706029 1_545
Mo1 Te0 2.706029 1_655
Mo1 Te0 2.706034 1_555
Mo1 Te1 2.706617 1_545
Mo1 Te1 2.706617 1_655
Mo1 Te1 2.706621 1_555
Se0 W1 2.554866 1_455
Se0 W1 2.554866 1_565
Se0 W1 2.554871 1_555
Se1 W0 2.554792 1_545
Se1 W0 2.554792 1_655
Se1 W0 2.554796 1_555
Se2 W0 2.554692 1_545
Se2 W0 2.554692 1_655
Se2 W0 2.554696 1_555
Se3 W1 2.554642 1_455
Se3 W1 2.554642 1_565
Se3 W1 2.554647 1_555
