# generated using pymatgen
data_LiMn2N3
_symmetry_space_group_name_H-M   'P 1'
_cell_length_a   5.46405454
_cell_length_b   5.48557631
_cell_length_c   4.95189200
_cell_angle_alpha   90.00000000
_cell_angle_beta   90.00000000
_cell_angle_gamma   120.13038041
_symmetry_Int_Tables_number   1
_chemical_formula_structural   LiMn2N3
_chemical_formula_sum   'Li2 Mn4 N6'
_cell_volume   128.37102430
_cell_formula_units_Z   2
loop_
 _symmetry_equiv_pos_site_id
 _symmetry_equiv_pos_as_xyz
  1  'x, y, z'
loop_
 _atom_site_type_symbol
 _atom_site_label
 _atom_site_symmetry_multiplicity
 _atom_site_fract_x
 _atom_site_fract_y
 _atom_site_fract_z
 _atom_site_occupancy
  Li  Li0  1  0.00000000  0.66556400  0.46112800  1
  Li  Li1  1  0.00000000  0.33443600  0.96112800  1
  Mn  Mn0  1  0.33810800  0.33070200  0.48960600  1
  Mn  Mn1  1  0.66189100  0.99259400  0.48960600  1
  Mn  Mn2  1  0.66189100  0.66929800  0.98960600  1
  Mn  Mn3  1  0.33810800  0.00740600  0.98960600  1
  N  N0  1  0.38060700  0.33741700  0.85596600  1
  N  N1  1  0.61939300  0.95680900  0.85596600  1
  N  N2  1  0.61939300  0.66258300  0.35596600  1
  N  N3  1  0.38060700  0.04319100  0.35596600  1
  N  N4  1  0.00000000  0.71927800  0.91972700  1
  N  N5  1  0.00000000  0.28072200  0.41972700  1
loop_
_geom_bond_atom_site_label_1
_geom_bond_atom_site_label_2
_geom_bond_distance
_geom_bond_site_symmetry_2
Li0 N5 2.121012 1_555
Li0 N2 2.135950 1_455
Li0 N3 2.135953 1_565
Li0 N4 2.289968 1_555
Li1 N4 2.121012 1_555
Li1 N0 2.135950 1_555
Li1 N1 2.135953 1_445
Li1 N5 2.289968 1_556
Mn0 N5 1.760522 1_555
Mn0 N2 1.818095 1_555
Mn0 N0 1.826999 1_555
Mn0 N3 1.829480 1_555
Mn1 N5 1.760525 1_665
Mn1 N3 1.818093 1_565
Mn1 N1 1.826999 1_555
Mn1 N2 1.829487 1_555
Mn2 N4 1.760527 1_655
Mn2 N0 1.818093 1_555
Mn2 N2 1.826998 1_556
Mn2 N1 1.829477 1_555
Mn3 N4 1.760522 1_545
Mn3 N1 1.818098 1_545
Mn3 N3 1.826999 1_556
Mn3 N0 1.829485 1_555
