# generated using pymatgen
data_AlAgO3
_symmetry_space_group_name_H-M   'P 1'
_cell_length_a   4.72799100
_cell_length_b   5.29331400
_cell_length_c   9.49694400
_cell_angle_alpha   90.00000000
_cell_angle_beta   90.00000000
_cell_angle_gamma   90.00000000
_symmetry_Int_Tables_number   1
_chemical_formula_structural   AlAgO3
_chemical_formula_sum   'Al4 Ag4 O12'
_cell_volume   237.67755733
_cell_formula_units_Z   4
loop_
 _symmetry_equiv_pos_site_id
 _symmetry_equiv_pos_as_xyz
  1  'x, y, z'
loop_
 _atom_site_type_symbol
 _atom_site_label
 _atom_site_symmetry_multiplicity
 _atom_site_fract_x
 _atom_site_fract_y
 _atom_site_fract_z
 _atom_site_occupancy
  Al  Al0  1  0.96871500  0.57293400  0.75000000  1
  Al  Al1  1  0.46871500  0.92706600  0.25000000  1
  Al  Al2  1  0.53128500  0.07293400  0.75000000  1
  Al  Al3  1  0.03128500  0.42706600  0.25000000  1
  Ag  Ag0  1  0.00000000  0.00000000  0.50000000  1
  Ag  Ag1  1  0.50000000  0.50000000  0.50000000  1
  Ag  Ag2  1  0.50000000  0.50000000  0.00000000  1
  Ag  Ag3  1  0.00000000  0.00000000  0.00000000  1
  O  O0  1  0.65901100  0.82097000  0.40506100  1
  O  O1  1  0.15901100  0.67903000  0.59493900  1
  O  O2  1  0.84098900  0.32097000  0.09493900  1
  O  O3  1  0.34098900  0.17903000  0.90506100  1
  O  O4  1  0.34098900  0.17903000  0.59493900  1
  O  O5  1  0.84098900  0.32097000  0.40506100  1
  O  O6  1  0.15901100  0.67903000  0.90506100  1
  O  O7  1  0.65901100  0.82097000  0.09493900  1
  O  O8  1  0.17485600  0.72882700  0.25000000  1
  O  O9  1  0.67485600  0.77117300  0.75000000  1
  O  O10  1  0.32514400  0.22882700  0.25000000  1
  O  O11  1  0.82514400  0.27117300  0.75000000  1
loop_
_geom_bond_atom_site_label_1
_geom_bond_atom_site_label_2
_geom_bond_distance
_geom_bond_site_symmetry_2
Al0 O11 1.735566 1_555
Al0 O9 1.741105 1_555
Al0 O1 1.814787 1_655
Al0 O6 1.814787 1_655
Al1 O10 1.735566 1_565
Al1 O8 1.741105 1_555
Al1 O7 1.814787 1_555
Al1 O0 1.814787 1_555
Al2 O9 1.735566 1_545
Al2 O11 1.741105 1_555
Al2 O3 1.814787 1_555
Al2 O4 1.814787 1_555
Al3 O8 1.735566 1_555
Al3 O10 1.741105 1_555
Al3 O2 1.814787 1_455
Al3 O5 1.814787 1_455
Ag0 O1 2.065122 1_545
Ag0 O5 2.065122 1_455
Ag0 O0 2.076094 1_445
Ag0 O4 2.076094 1_555
Ag1 O4 2.065122 1_555
Ag1 O0 2.065122 1_555
Ag1 O5 2.076094 1_555
Ag1 O1 2.076094 1_555
Ag2 O3 2.065122 1_554
Ag2 O7 2.065122 1_555
Ag2 O2 2.076094 1_555
Ag2 O6 2.076094 1_554
Ag3 O6 2.065122 1_544
Ag3 O2 2.065122 1_455
Ag3 O7 2.076094 1_445
Ag3 O3 2.076094 1_554
