# generated using pymatgen
data_ZrTiNi2
_symmetry_space_group_name_H-M   'P 1'
_cell_length_a   3.11420900
_cell_length_b   4.08356100
_cell_length_c   5.09120609
_cell_angle_alpha   90.00000000
_cell_angle_beta   72.19116809
_cell_angle_gamma   90.00000000
_symmetry_Int_Tables_number   1
_chemical_formula_structural   ZrTiNi2
_chemical_formula_sum   'Zr1 Ti1 Ni2'
_cell_volume   61.64274266
_cell_formula_units_Z   1
loop_
 _symmetry_equiv_pos_site_id
 _symmetry_equiv_pos_as_xyz
  1  'x, y, z'
loop_
 _atom_site_type_symbol
 _atom_site_label
 _atom_site_symmetry_multiplicity
 _atom_site_fract_x
 _atom_site_fract_y
 _atom_site_fract_z
 _atom_site_occupancy
  Zr  Zr0  1  0.85558800  0.25000000  0.28882500  1
  Ti  Ti0  1  0.13797700  0.75000000  0.72404600  1
  Ni  Ni0  1  0.42090900  0.75000000  0.15818100  1
  Ni  Ni1  1  0.58552600  0.25000000  0.82894800  1
loop_
_geom_bond_atom_site_label_1
_geom_bond_atom_site_label_2
_geom_bond_distance
_geom_bond_site_symmetry_2
Ni0 Ti0 2.617804 1_554
Ni0 Ti0 2.617806 1_654
Ni0 Zr0 2.644703 1_465
Ni0 Zr0 2.644703 1_455
Ni0 Zr0 2.644707 1_555
Ni0 Zr0 2.644707 1_565
Ni0 Ti0 2.742887 1_555
Ni1 Ti0 2.617632 1_655
Ni1 Ti0 2.617632 1_645
Ni1 Ti0 2.617633 1_545
Ni1 Ti0 2.617633 1_555
Ni1 Zr0 2.618110 1_555
Ni1 Zr0 2.719122 1_456
Ni1 Zr0 2.719124 1_556
