# generated using pymatgen
data_MgFe4CoO8
_symmetry_space_group_name_H-M   'P 1'
_cell_length_a   6.04748214
_cell_length_b   6.04748214
_cell_length_c   6.04748303
_cell_angle_alpha   59.80435623
_cell_angle_beta   59.80435623
_cell_angle_gamma   59.80435629
_symmetry_Int_Tables_number   1
_chemical_formula_structural   MgFe4CoO8
_chemical_formula_sum   'Mg1 Fe4 Co1 O8'
_cell_volume   155.69540018
_cell_formula_units_Z   1
loop_
 _symmetry_equiv_pos_site_id
 _symmetry_equiv_pos_as_xyz
  1  'x, y, z'
loop_
 _atom_site_type_symbol
 _atom_site_label
 _atom_site_symmetry_multiplicity
 _atom_site_fract_x
 _atom_site_fract_y
 _atom_site_fract_z
 _atom_site_occupancy
  Mg  Mg0  1  0.00068500  0.00068500  0.00068500  1
  Fe  Fe0  1  0.62319900  0.62319900  0.62319900  1
  Fe  Fe1  1  0.49353900  0.00149200  0.00149200  1
  Fe  Fe2  1  0.00149200  0.00149200  0.49353900  1
  Fe  Fe3  1  0.00149200  0.49353900  0.00149200  1
  Co  Co0  1  0.37709500  0.37709500  0.37709500  1
  O  O0  1  0.23032200  0.75400300  0.75400300  1
  O  O1  1  0.75400300  0.75400300  0.23032200  1
  O  O2  1  0.75400300  0.23032200  0.75400300  1
  O  O3  1  0.75709400  0.75709400  0.75709400  1
  O  O4  1  0.78054100  0.24291600  0.24291600  1
  O  O5  1  0.24291600  0.24291600  0.78054100  1
  O  O6  1  0.24291600  0.78054100  0.24291600  1
  O  O7  1  0.24070400  0.24070400  0.24070400  1
loop_
_geom_bond_atom_site_label_1
_geom_bond_atom_site_label_2
_geom_bond_distance
_geom_bond_site_symmetry_2
Mg0 O5 2.073467 1_554
Mg0 O4 2.073467 1_455
Mg0 O6 2.073467 1_545
Mg0 O1 2.109563 1_445
Mg0 O0 2.109564 1_544
Mg0 O2 2.109564 1_454
Fe0 O2 1.935151 1_555
Fe0 O0 1.935151 1_555
Fe0 O1 1.935152 1_555
Fe0 O3 1.986347 1_555
Fe1 O6 2.015703 1_545
Fe1 O5 2.015703 1_554
Fe1 O7 2.044136 1_555
Fe1 O3 2.089836 1_544
Fe1 O2 2.091408 1_554
Fe1 O1 2.091408 1_545
Fe2 O6 2.015703 1_545
Fe2 O4 2.015703 1_455
Fe2 O7 2.044136 1_555
Fe2 O3 2.089836 1_445
Fe2 O2 2.091408 1_455
Fe2 O0 2.091408 1_545
Fe3 O4 2.015703 1_455
Fe3 O5 2.015703 1_554
Fe3 O7 2.044136 1_555
Fe3 O3 2.089836 1_454
Fe3 O0 2.091408 1_554
Fe3 O1 2.091408 1_455
Co0 O4 1.987216 1_555
Co0 O6 1.987216 1_555
Co0 O5 1.987216 1_555
Co0 O7 2.023376 1_555
