# generated using pymatgen
data_CeSi2Rh3
_symmetry_space_group_name_H-M   'P 1'
_cell_length_a   6.65000064
_cell_length_b   6.64916850
_cell_length_c   6.65054132
_cell_angle_alpha   130.16823713
_cell_angle_beta   115.22183637
_cell_angle_gamma   85.90417782
_symmetry_Int_Tables_number   1
_chemical_formula_structural   CeSi2Rh3
_chemical_formula_sum   'Ce2 Si4 Rh6'
_cell_volume   194.28715232
_cell_formula_units_Z   2
loop_
 _symmetry_equiv_pos_site_id
 _symmetry_equiv_pos_as_xyz
  1  'x, y, z'
loop_
 _atom_site_type_symbol
 _atom_site_label
 _atom_site_symmetry_multiplicity
 _atom_site_fract_x
 _atom_site_fract_y
 _atom_site_fract_z
 _atom_site_occupancy
  Ce  Ce0  1  0.25020232  0.95952791  0.70985329  1
  Ce  Ce1  1  0.74979768  0.04047209  0.29014671  1
  Si  Si0  1  0.07776909  0.27365035  0.19581311  1
  Si  Si1  1  0.92223091  0.72634965  0.80418689  1
  Si  Si2  1  0.42212657  0.61771436  0.19556355  1
  Si  Si3  1  0.57787343  0.38228564  0.80443645  1
  Rh  Rh0  1  0.50000000  0.50000000  0.50000000  1
  Rh  Rh1  1  -0.00000000  0.50000000  -0.00000000  1
  Rh  Rh2  1  0.28492107  -0.00003497  0.28510785  1
  Rh  Rh3  1  0.71507893  0.00003497  0.71489215  1
  Rh  Rh4  1  0.21482222  0.49952370  0.71479163  1
  Rh  Rh5  1  0.78517778  0.50047630  0.28520837  1
loop_
_geom_bond_atom_site_label_1
_geom_bond_atom_site_label_2
_geom_bond_distance
_geom_bond_site_symmetry_2
Ce0 Rh5 3.104859 1_455
Ce0 Rh2 3.106370 1_565
Ce0 Rh3 3.106382 1_565
Ce0 Rh4 3.106561 1_555
Ce0 Rh0 3.129325 1_555
Ce0 Rh1 3.132806 1_555
Ce0 Si2 3.197538 1_566
Ce0 Si0 3.198500 1_566
Ce0 Si1 3.233929 1_455
Ce0 Si3 3.235919 1_565
Ce0 Si0 3.330656 1_555
Ce0 Si2 3.332286 1_555
Ce0 Rh0 3.512702 1_566
Ce0 Rh1 3.513201 1_566
Ce0 Rh4 3.561190 1_565
Ce0 Rh3 3.562326 1_465
Ce0 Rh2 3.562451 1_566
Ce0 Rh5 3.564603 1_566
Ce0 Ce1 3.587467 1_566
Ce0 Ce1 3.594514 1_465
Ce1 Rh4 3.104859 1_655
Ce1 Rh3 3.106370 1_555
Ce1 Rh2 3.106382 1_555
Ce1 Rh5 3.106561 1_555
Ce1 Rh0 3.129325 1_555
Ce1 Rh1 3.132806 1_656
Ce1 Si3 3.197538 1_544
Ce1 Si1 3.198500 1_544
Ce1 Si0 3.233929 1_655
Ce1 Si2 3.235919 1_545
Ce1 Si1 3.330656 1_555
Ce1 Si3 3.332286 1_555
Ce1 Rh0 3.512702 1_544
Ce1 Rh1 3.513201 1_645
Ce1 Rh5 3.561190 1_545
Ce1 Rh2 3.562326 1_655
Ce1 Rh3 3.562451 1_554
Ce1 Rh4 3.564603 1_544
Rh0 Si3 2.464344 1_555
Rh0 Si2 2.464344 1_555
Rh0 Si0 2.465042 1_555
Rh0 Si1 2.465042 1_555
Rh1 Si1 2.464102 1_454
Rh1 Si0 2.464102 1_555
Rh1 Si3 2.464405 1_454
Rh1 Si2 2.464405 1_555
Rh2 Si2 2.413770 1_545
Rh2 Si3 2.415102 1_555
Rh2 Si0 2.429156 1_555
Rh2 Si1 2.429505 1_444
Rh3 Si3 2.413770 1_555
Rh3 Si2 2.415102 1_545
Rh3 Si1 2.429156 1_545
Rh3 Si0 2.429505 1_656
Rh4 Si1 2.413281 1_455
Rh4 Si0 2.413783 1_555
Rh4 Si3 2.428153 1_555
Rh4 Si2 2.428573 1_556
Rh5 Si0 2.413281 1_655
Rh5 Si1 2.413783 1_555
Rh5 Si2 2.428153 1_555
Rh5 Si3 2.428573 1_554
