# generated using pymatgen
data_NbTeN
_symmetry_space_group_name_H-M   'P 1'
_cell_length_a   3.58427300
_cell_length_b   3.58427300
_cell_length_c   9.54610400
_cell_angle_alpha   90.00000000
_cell_angle_beta   90.00000000
_cell_angle_gamma   90.00000000
_symmetry_Int_Tables_number   1
_chemical_formula_structural   NbTeN
_chemical_formula_sum   'Nb2 Te2 N2'
_cell_volume   122.63892160
_cell_formula_units_Z   2
loop_
 _symmetry_equiv_pos_site_id
 _symmetry_equiv_pos_as_xyz
  1  'x, y, z'
loop_
 _atom_site_type_symbol
 _atom_site_label
 _atom_site_symmetry_multiplicity
 _atom_site_fract_x
 _atom_site_fract_y
 _atom_site_fract_z
 _atom_site_occupancy
  Nb  Nb0  1  0.50000000  0.00000000  0.11437500  1
  Nb  Nb1  1  0.00000000  0.50000000  0.88562500  1
  Te  Te0  1  0.50000000  0.00000000  0.69862700  1
  Te  Te1  1  0.00000000  0.50000000  0.30137300  1
  N  N0  1  0.50000000  0.50000000  0.00000000  1
  N  N1  1  0.00000000  0.00000000  0.00000000  1
loop_
_geom_bond_atom_site_label_1
_geom_bond_atom_site_label_2
_geom_bond_distance
_geom_bond_site_symmetry_2
Nb0 Te1 3.100016 1_655
Nb0 Te1 3.100016 1_645
Nb0 Te1 3.100016 1_545
Nb0 Te1 3.100016 1_555
Nb1 Te0 3.100016 1_555
Nb1 Te0 3.100016 1_465
Nb1 Te0 3.100016 1_565
Nb1 Te0 3.100016 1_455
N0 Nb0 2.098537 1_565
N0 Nb0 2.098537 1_555
N0 Nb1 2.098537 1_554
N0 Nb1 2.098537 1_654
N1 Nb1 2.098537 1_554
N1 Nb0 2.098537 1_555
N1 Nb1 2.098537 1_544
N1 Nb0 2.098537 1_455
