# generated using pymatgen
data_NaLaS2
_symmetry_space_group_name_H-M   'P 1'
_cell_length_a   7.05085545
_cell_length_b   7.05085545
_cell_length_c   7.05085637
_cell_angle_alpha   34.80047311
_cell_angle_beta   34.80047311
_cell_angle_gamma   34.80046822
_symmetry_Int_Tables_number   1
_chemical_formula_structural   NaLaS2
_chemical_formula_sum   'Na1 La1 S2'
_cell_volume   101.91026226
_cell_formula_units_Z   1
loop_
 _symmetry_equiv_pos_site_id
 _symmetry_equiv_pos_as_xyz
  1  'x, y, z'
loop_
 _atom_site_type_symbol
 _atom_site_label
 _atom_site_symmetry_multiplicity
 _atom_site_fract_x
 _atom_site_fract_y
 _atom_site_fract_z
 _atom_site_occupancy
  Na  Na0  1  0.50000000  0.50000000  0.50000000  1
  La  La0  1  0.00000000  0.00000000  -0.00000000  1
  S  S0  1  0.25436809  0.25436809  0.25436809  1
  S  S1  1  0.74563191  0.74563191  0.74563191  1
loop_
_geom_bond_atom_site_label_1
_geom_bond_atom_site_label_2
_geom_bond_distance
_geom_bond_site_symmetry_2
Na0 S0 2.993142 1_655
Na0 S0 2.993142 1_565
Na0 S1 2.993142 1_455
Na0 S1 2.993142 1_545
Na0 S1 2.993143 1_554
Na0 S0 2.993143 1_556
La0 S1 2.895705 1_454
La0 S1 2.895705 1_544
La0 S0 2.895705 1_545
La0 S0 2.895705 1_455
La0 S1 2.895706 1_445
La0 S0 2.895706 1_554
