# generated using pymatgen
data_Yb2Pb
_symmetry_space_group_name_H-M   'P 1'
_cell_length_a   5.30879600
_cell_length_b   7.34614600
_cell_length_c   9.57219400
_cell_angle_alpha   90.00000000
_cell_angle_beta   90.00000000
_cell_angle_gamma   90.00000000
_symmetry_Int_Tables_number   1
_chemical_formula_structural   Yb2Pb
_chemical_formula_sum   'Yb8 Pb4'
_cell_volume   373.30781731
_cell_formula_units_Z   4
loop_
 _symmetry_equiv_pos_site_id
 _symmetry_equiv_pos_as_xyz
  1  'x, y, z'
loop_
 _atom_site_type_symbol
 _atom_site_label
 _atom_site_symmetry_multiplicity
 _atom_site_fract_x
 _atom_site_fract_y
 _atom_site_fract_z
 _atom_site_occupancy
  Yb  Yb0  1  0.25000000  0.98538300  0.28947600  1
  Yb  Yb1  1  0.75000000  0.01461700  0.71052400  1
  Yb  Yb2  1  0.25000000  0.48538300  0.21052400  1
  Yb  Yb3  1  0.75000000  0.51461700  0.78947600  1
  Yb  Yb4  1  0.75000000  0.69111700  0.42331000  1
  Yb  Yb5  1  0.25000000  0.30888300  0.57669000  1
  Yb  Yb6  1  0.75000000  0.19111700  0.07669000  1
  Yb  Yb7  1  0.25000000  0.80888300  0.92331000  1
  Pb  Pb0  1  0.25000000  0.26109400  0.90483700  1
  Pb  Pb1  1  0.75000000  0.73890600  0.09516300  1
  Pb  Pb2  1  0.25000000  0.76109400  0.59516300  1
  Pb  Pb3  1  0.75000000  0.23890600  0.40483700  1
loop_
_geom_bond_atom_site_label_1
_geom_bond_atom_site_label_2
_geom_bond_distance
_geom_bond_site_symmetry_2
Pb0 Yb5 3.160644 1_555
Pb0 Yb6 3.164830 1_456
Pb0 Yb6 3.164830 1_556
Pb0 Yb7 3.326711 1_545
Pb0 Yb2 3.358097 1_556
Pb0 Yb3 3.425465 1_555
Pb0 Yb3 3.425465 1_455
Pb0 Yb1 3.712669 1_555
Pb0 Yb1 3.712669 1_455
Pb1 Yb4 3.160644 1_555
Pb1 Yb7 3.164830 1_654
Pb1 Yb7 3.164830 1_554
Pb1 Yb6 3.326711 1_565
Pb1 Yb3 3.358097 1_554
Pb1 Yb2 3.425465 1_555
Pb1 Yb2 3.425465 1_655
Pb1 Yb0 3.712669 1_555
Pb1 Yb0 3.712669 1_655
Pb2 Yb7 3.160644 1_555
Pb2 Yb4 3.164830 1_455
Pb2 Yb4 3.164830 1_555
Pb2 Yb5 3.326711 1_555
Pb2 Yb0 3.358097 1_555
Pb2 Yb1 3.425465 1_565
Pb2 Yb1 3.425465 1_465
Pb2 Yb3 3.712669 1_455
Pb2 Yb3 3.712669 1_555
Pb3 Yb6 3.160644 1_555
Pb3 Yb5 3.164830 1_655
Pb3 Yb5 3.164830 1_555
Pb3 Yb4 3.326711 1_555
Pb3 Yb1 3.358097 1_555
Pb3 Yb0 3.425465 1_545
Pb3 Yb0 3.425465 1_645
Pb3 Yb2 3.712669 1_555
Pb3 Yb2 3.712669 1_655
