# generated using pymatgen
data_Li4Co3Sn5O16
_symmetry_space_group_name_H-M   'P 1'
_cell_length_a   6.16179381
_cell_length_b   9.86410178
_cell_length_c   10.58330125
_cell_angle_alpha   89.82903668
_cell_angle_beta   89.39167595
_cell_angle_gamma   89.50776396
_symmetry_Int_Tables_number   1
_chemical_formula_structural   Li4Co3Sn5O16
_chemical_formula_sum   'Li8 Co6 Sn10 O32'
_cell_volume   643.19630579
_cell_formula_units_Z   2
loop_
 _symmetry_equiv_pos_site_id
 _symmetry_equiv_pos_as_xyz
  1  'x, y, z'
loop_
 _atom_site_type_symbol
 _atom_site_label
 _atom_site_symmetry_multiplicity
 _atom_site_fract_x
 _atom_site_fract_y
 _atom_site_fract_z
 _atom_site_occupancy
  Li  Li0  1  0.50338700  0.89345300  0.16835900  1
  Li  Li1  1  0.00583300  0.89015900  0.67312800  1
  Li  Li2  1  0.50463800  0.98438800  0.48141900  1
  Li  Li3  1  0.00196400  0.98650800  0.97785100  1
  Li  Li4  1  0.49395900  0.49794600  0.49099700  1
  Li  Li5  1  0.99539700  0.49965300  0.99031700  1
  Li  Li6  1  0.99514900  0.40442700  0.33129000  1
  Li  Li7  1  0.49985500  0.40447200  0.83600700  1
  Co  Co0  1  0.00014000  0.21551400  0.82918000  1
  Co  Co1  1  0.75442300  0.70934400  0.41790400  1
  Co  Co2  1  0.25502700  0.71254700  0.91643700  1
  Co  Co3  1  0.49926700  0.21569500  0.32960100  1
  Co  Co4  1  0.24274000  0.71465400  0.42017500  1
  Co  Co5  1  0.73988100  0.71617600  0.91996900  1
  Sn  Sn0  1  0.74617300  0.21584700  0.08305800  1
  Sn  Sn1  1  0.24781300  0.21285400  0.58623200  1
  Sn  Sn2  1  0.49394200  0.49559900  0.17086400  1
  Sn  Sn3  1  0.99713000  0.49600600  0.67334900  1
  Sn  Sn4  1  0.25278800  0.21567700  0.08339400  1
  Sn  Sn5  1  0.75472000  0.21317100  0.58617600  1
  Sn  Sn6  1  0.99910600  0.71497000  0.17034400  1
  Sn  Sn7  1  0.50234600  0.71348400  0.67298200  1
  Sn  Sn8  1  0.00482900  0.98466500  0.34082700  1
  Sn  Sn9  1  0.50425100  0.98537200  0.83675000  1
  O  O0  1  0.75014200  0.59837700  0.08308000  1
  O  O1  1  0.25627600  0.59458600  0.58402800  1
  O  O2  1  0.49916100  0.34464300  0.01346700  1
  O  O3  1  0.00095600  0.34411000  0.51783500  1
  O  O4  1  0.50055100  0.10015700  0.15971700  1
  O  O5  1  0.00161600  0.10551600  0.67751200  1
  O  O6  1  0.50098500  0.31388500  0.50459800  1
  O  O7  1  0.99950100  0.31137200  0.98747000  1
  O  O8  1  0.51584900  0.80063700  0.49570000  1
  O  O9  1  0.99417100  0.80607700  0.99932100  1
  O  O10  1  0.23667200  0.59217800  0.08315300  1
  O  O11  1  0.74201700  0.59198800  0.57512400  1
  O  O12  1  0.72561500  0.34621400  0.23751400  1
  O  O13  1  0.21298800  0.33497500  0.74906900  1
  O  O14  1  0.26780100  0.34355800  0.23848800  1
  O  O15  1  0.78449700  0.33369300  0.74936800  1
  O  O16  1  0.99924100  0.09495900  0.16112100  1
  O  O17  1  0.50238900  0.09294700  0.66104500  1
  O  O18  1  0.47786100  0.60317100  0.33847100  1
  O  O19  1  0.98337800  0.60386200  0.83628200  1
  O  O20  1  0.22487700  0.84454400  0.25869400  1
  O  O21  1  0.72868500  0.84472100  0.75703700  1
  O  O22  1  0.77242400  0.84092200  0.27118600  1
  O  O23  1  0.28071400  0.84836200  0.75760900  1
  O  O24  1  0.98536500  0.60953200  0.34042400  1
  O  O25  1  0.50792700  0.60322200  0.83473100  1
  O  O26  1  0.25609800  0.09563900  0.42232500  1
  O  O27  1  0.76735000  0.10289700  0.91254900  1
  O  O28  1  0.02366000  0.83505800  0.48662200  1
  O  O29  1  0.51803600  0.84332300  0.98385400  1
  O  O30  1  0.75143800  0.09561600  0.42269900  1
  O  O31  1  0.23759400  0.10235000  0.91329800  1
loop_
_geom_bond_atom_site_label_1
_geom_bond_atom_site_label_2
_geom_bond_distance
_geom_bond_site_symmetry_2
Li0 O29 2.016642 1_554
Li0 O20 2.017046 1_555
Li0 O4 2.040660 1_565
Li0 O22 2.054533 1_555
Li1 O23 1.963710 1_555
Li1 O21 1.970889 1_455
Li1 O28 2.050448 1_555
Li1 O5 2.124878 1_565
Li2 O8 1.819161 1_555
Li2 O30 1.976645 1_565
Li2 O26 1.981948 1_565
Li2 O17 2.184527 1_565
Li3 O9 1.794550 1_455
Li3 O27 1.968134 1_465
Li3 O31 1.970599 1_565
Li3 O16 2.217686 1_466
Li4 O6 1.821045 1_555
Li4 O18 1.919517 1_555
Li4 O1 1.993494 1_555
Li4 O11 2.011882 1_555
Li5 O7 1.857508 1_555
Li5 O19 1.926376 1_555
Li5 O10 2.016984 1_656
Li5 O0 2.035882 1_556
Li6 O14 2.024539 1_655
Li6 O24 2.026122 1_555
Li6 O12 2.031696 1_555
Li6 O3 2.060851 1_655
Li7 O25 1.961551 1_555
Li7 O2 1.966945 1_556
Li7 O15 2.086388 1_555
Li7 O13 2.121343 1_555
Co0 O7 1.926067 1_455
Co0 O5 1.940049 1_555
Co0 O13 1.955628 1_555
Co0 O15 1.956863 1_455
Co0 O27 2.016105 1_455
Co0 O31 2.042799 1_555
Co1 O8 1.898904 1_555
Co1 O24 1.903335 1_555
Co1 O22 2.023536 1_555
Co1 O11 2.025295 1_555
Co1 O18 2.184928 1_555
Co1 O28 2.210254 1_655
Co2 O9 2.038034 1_455
Co2 O25 2.070532 1_555
Co2 O10 2.126322 1_556
Co2 O23 2.151718 1_555
Co2 O19 2.176498 1_455
Co2 O29 2.205782 1_555
Co3 O6 2.092746 1_555
Co3 O4 2.131494 1_555
Co3 O14 2.132089 1_555
Co3 O12 2.132385 1_555
Co3 O26 2.145423 1_555
Co3 O30 2.186791 1_555
Co4 O28 1.919554 1_555
Co4 O18 2.001905 1_555
Co4 O8 2.060903 1_555
Co4 O24 2.089155 1_455
Co4 O1 2.099026 1_555
Co4 O20 2.136095 1_555
Co5 O29 1.963337 1_555
Co5 O9 2.000764 1_555
Co5 O25 2.039290 1_555
Co5 O19 2.052326 1_555
Co5 O0 2.079238 1_556
Co5 O21 2.138673 1_555
O0 Sn2 2.091367 1_555
O0 Sn6 2.143762 1_555
O1 Sn3 2.092392 1_455
O1 Sn7 2.151328 1_555
O2 Sn0 2.111418 1_555
O2 Sn4 2.115265 1_555
O2 Sn2 2.237399 1_555
O3 Sn1 2.120832 1_555
O3 Sn5 2.120897 1_455
O3 Sn3 2.228817 1_455
O4 Sn0 2.061354 1_555
O4 Sn4 2.066985 1_555
O5 Sn1 2.084705 1_555
O5 Sn5 2.091369 1_455
O6 Sn1 2.041110 1_555
O6 Sn5 2.042944 1_555
O7 Sn0 2.081805 1_556
O7 Sn4 2.088074 1_656
O8 Sn7 2.062645 1_555
O9 Sn6 2.018815 1_556
O10 Sn2 2.069367 1_555
O10 Sn6 2.099742 1_455
O11 Sn3 2.109818 1_555
O11 Sn7 2.152752 1_555
O12 Sn0 2.084986 1_555
O12 Sn2 2.164661 1_555
O13 Sn1 2.113571 1_555
O13 Sn3 2.216555 1_455
O14 Sn4 2.076431 1_555
O14 Sn2 2.170584 1_555
O15 Sn5 2.110130 1_555
O15 Sn3 2.221104 1_555
O16 Sn0 2.127345 1_555
O16 Sn4 2.129379 1_655
O16 Sn8 2.188694 1_645
O17 Sn5 2.109870 1_555
O17 Sn1 2.115515 1_555
O17 Sn9 2.138337 1_545
O18 Sn2 2.070734 1_555
O19 Sn3 2.029486 1_555
O20 Sn8 2.110532 1_555
O20 Sn6 2.123328 1_455
O21 Sn7 2.115767 1_555
O21 Sn9 2.120914 1_555
O22 Sn6 2.140087 1_555
O22 Sn8 2.160531 1_655
O23 Sn7 2.094559 1_555
O23 Sn9 2.118600 1_555
O24 Sn6 2.077500 1_555
O25 Sn7 2.025838 1_555
O26 Sn1 2.087494 1_555
O26 Sn8 2.098204 1_545
O27 Sn0 2.125853 1_556
O27 Sn9 2.163580 1_545
O28 Sn8 2.135267 1_555
O29 Sn9 2.093335 1_555
O30 Sn8 2.081808 1_645
O30 Sn5 2.086020 1_555
O31 Sn4 2.125187 1_556
O31 Sn9 2.152260 1_545
