# generated using pymatgen
data_TiGeSb
_symmetry_space_group_name_H-M   'P 1'
_cell_length_a   3.69986300
_cell_length_b   3.69986300
_cell_length_c   8.25510970
_cell_angle_alpha   90.00000000
_cell_angle_beta   90.00000000
_cell_angle_gamma   90.00000000
_symmetry_Int_Tables_number   1
_chemical_formula_structural   TiGeSb
_chemical_formula_sum   'Ti2 Ge2 Sb2'
_cell_volume   113.00408292
_cell_formula_units_Z   2
loop_
 _symmetry_equiv_pos_site_id
 _symmetry_equiv_pos_as_xyz
  1  'x, y, z'
loop_
 _atom_site_type_symbol
 _atom_site_label
 _atom_site_symmetry_multiplicity
 _atom_site_fract_x
 _atom_site_fract_y
 _atom_site_fract_z
 _atom_site_occupancy
  Ti  Ti0  1  -0.00000000  0.50000000  0.75285313  1
  Ti  Ti1  1  0.50000000  -0.00000000  0.24714687  1
  Ge  Ge0  1  0.00000000  0.00000000  0.00000000  1
  Ge  Ge1  1  0.50000000  0.50000000  0.00000000  1
  Sb  Sb0  1  0.00000000  0.50000000  0.38354487  1
  Sb  Sb1  1  0.50000000  0.00000000  0.61645513  1
loop_
_geom_bond_atom_site_label_1
_geom_bond_atom_site_label_2
_geom_bond_distance
_geom_bond_site_symmetry_2
Ge0 Ge1 2.616198 1_545
Ge0 Ge1 2.616198 1_455
Ge0 Ge1 2.616198 1_555
Ge0 Ge1 2.616198 1_445
Ge0 Ti0 2.754045 1_554
Ge0 Ti1 2.754045 1_455
Ge0 Ti1 2.754045 1_555
Ge0 Ti0 2.754045 1_544
Ge1 Ti0 2.754045 1_554
Ge1 Ti0 2.754045 1_654
Ge1 Ti1 2.754045 1_555
Ge1 Ti1 2.754045 1_565
Sb0 Ti1 2.848214 1_455
Sb0 Ti1 2.848214 1_555
Sb0 Ti1 2.848214 1_465
Sb0 Ti1 2.848214 1_565
Sb0 Ti0 3.048680 1_555
Sb1 Ti0 2.848214 1_545
Sb1 Ti0 2.848214 1_655
Sb1 Ti0 2.848214 1_555
Sb1 Ti0 2.848214 1_645
Sb1 Ti1 3.048680 1_555
