# generated using pymatgen
data_Ca4Tl3O9
_symmetry_space_group_name_H-M   'P 1'
_cell_length_a   5.89516341
_cell_length_b   5.89516341
_cell_length_c   12.38886902
_cell_angle_alpha   78.53852266
_cell_angle_beta   78.53852266
_cell_angle_gamma   33.46009134
_symmetry_Int_Tables_number   1
_chemical_formula_structural   Ca4Tl3O9
_chemical_formula_sum   'Ca4 Tl3 O9'
_cell_volume   232.21990984
_cell_formula_units_Z   1
loop_
 _symmetry_equiv_pos_site_id
 _symmetry_equiv_pos_as_xyz
  1  'x, y, z'
loop_
 _atom_site_type_symbol
 _atom_site_label
 _atom_site_symmetry_multiplicity
 _atom_site_fract_x
 _atom_site_fract_y
 _atom_site_fract_z
 _atom_site_occupancy
  Ca  Ca0  1  0.45275600  0.45275600  0.28571800  1
  Ca  Ca1  1  0.54724400  0.54724400  0.71428200  1
  Ca  Ca2  1  0.23798400  0.23798400  0.12761700  1
  Ca  Ca3  1  0.76201600  0.76201600  0.87238300  1
  Tl  Tl0  1  0.85096100  0.85096100  0.56322400  1
  Tl  Tl1  1  0.14903900  0.14903900  0.43677600  1
  Tl  Tl2  1  0.00000000  0.00000000  0.00000000  1
  O  O0  1  0.80691800  0.80691800  0.39859200  1
  O  O1  1  0.19308200  0.19308200  0.60140800  1
  O  O2  1  0.62581500  0.62581500  0.05263900  1
  O  O3  1  0.37418500  0.37418500  0.94736100  1
  O  O4  1  0.90691300  0.90691300  0.71538000  1
  O  O5  1  0.09308700  0.09308700  0.28462000  1
  O  O6  1  0.87585500  0.87585500  0.16424200  1
  O  O7  1  0.12414500  0.12414500  0.83575800  1
  O  O8  1  0.50000000  0.50000000  0.50000000  1
loop_
_geom_bond_atom_site_label_1
_geom_bond_atom_site_label_2
_geom_bond_distance
_geom_bond_site_symmetry_2
Ca0 O5 2.319855 1_655
Ca0 O5 2.319855 1_565
Ca0 O6 2.537897 1_545
Ca0 O6 2.537897 1_455
Ca0 O0 2.567351 1_455
Ca0 O0 2.567351 1_545
Ca0 O8 2.814202 1_555
Ca1 O4 2.319855 1_545
Ca1 O4 2.319855 1_455
Ca1 O7 2.537897 1_565
Ca1 O7 2.537897 1_655
Ca1 O1 2.567351 1_565
Ca1 O1 2.567351 1_655
Ca1 O8 2.814202 1_555
Ca2 O5 2.267045 1_555
Ca2 O6 2.408785 1_455
Ca2 O6 2.408785 1_545
Ca2 O2 2.415565 1_455
Ca2 O2 2.415565 1_545
Ca2 O3 2.434527 1_554
Ca3 O4 2.267045 1_555
Ca3 O7 2.408785 1_565
Ca3 O7 2.408785 1_655
Ca3 O3 2.415565 1_565
Ca3 O3 2.415565 1_655
Ca3 O2 2.434527 1_556
O0 Tl0 2.197319 1_555
O0 Tl1 2.435464 1_565
O0 Tl1 2.435464 1_655
O1 Tl1 2.197319 1_555
O1 Tl0 2.435464 1_545
O1 Tl0 2.435464 1_455
O2 Tl2 2.389074 1_565
O2 Tl2 2.389074 1_655
O3 Tl2 2.389074 1_656
O3 Tl2 2.389074 1_566
O4 Tl0 2.108724 1_555
O5 Tl1 2.108724 1_555
O6 Tl2 2.218463 1_665
O7 Tl2 2.218463 1_556
O8 Tl0 2.403802 1_455
O8 Tl1 2.403802 1_565
O8 Tl1 2.403802 1_655
O8 Tl0 2.403802 1_545
