# generated using pymatgen
data_GaSiCN
_symmetry_space_group_name_H-M   'P 1'
_cell_length_a   3.14871700
_cell_length_b   5.08975700
_cell_length_c   5.60280700
_cell_angle_alpha   90.00000000
_cell_angle_beta   90.00000000
_cell_angle_gamma   90.00000000
_symmetry_Int_Tables_number   1
_chemical_formula_structural   GaSiCN
_chemical_formula_sum   'Ga2 Si2 C2 N2'
_cell_volume   89.79173015
_cell_formula_units_Z   2
loop_
 _symmetry_equiv_pos_site_id
 _symmetry_equiv_pos_as_xyz
  1  'x, y, z'
loop_
 _atom_site_type_symbol
 _atom_site_label
 _atom_site_symmetry_multiplicity
 _atom_site_fract_x
 _atom_site_fract_y
 _atom_site_fract_z
 _atom_site_occupancy
  Ga  Ga0  1  0.50000000  0.51448000  0.93409300  1
  Ga  Ga1  1  0.00000000  0.01448000  0.06590700  1
  Si  Si0  1  0.50000000  0.99454300  0.59178200  1
  Si  Si1  1  0.00000000  0.49454300  0.40821800  1
  C  C0  1  0.50000000  0.89489200  0.89410600  1
  C  C1  1  0.00000000  0.39489200  0.10589400  1
  N  N0  1  0.50000000  0.36018500  0.55544200  1
  N  N1  1  0.00000000  0.86018500  0.44455800  1
loop_
_geom_bond_atom_site_label_1
_geom_bond_atom_site_label_2
_geom_bond_distance
_geom_bond_site_symmetry_2
Ga0 N0 2.262196 1_555
Ga1 N1 2.262196 1_545
C0 Si0 1.768169 1_555
C0 Ga1 1.943097 1_666
C0 Ga1 1.943097 1_566
C0 Ga0 1.949123 1_555
C1 Si1 1.768169 1_555
C1 Ga0 1.943097 1_554
C1 Ga0 1.943097 1_454
C1 Ga1 1.949123 1_555
N0 Si0 1.872134 1_545
N0 Si1 1.904380 1_555
N0 Si1 1.904380 1_655
N1 Si1 1.872134 1_555
N1 Si0 1.904380 1_455
N1 Si0 1.904380 1_555
