# generated using pymatgen
data_Li8(CoO2)5
_symmetry_space_group_name_H-M   'P 1'
_cell_length_a   5.35824096
_cell_length_b   6.64714517
_cell_length_c   15.81540756
_cell_angle_alpha   98.00303809
_cell_angle_beta   83.30949349
_cell_angle_gamma   113.66484719
_symmetry_Int_Tables_number   1
_chemical_formula_structural   Li8(CoO2)5
_chemical_formula_sum   'Li16 Co10 O20'
_cell_volume   509.76190554
_cell_formula_units_Z   2
loop_
 _symmetry_equiv_pos_site_id
 _symmetry_equiv_pos_as_xyz
  1  'x, y, z'
loop_
 _atom_site_type_symbol
 _atom_site_label
 _atom_site_symmetry_multiplicity
 _atom_site_fract_x
 _atom_site_fract_y
 _atom_site_fract_z
 _atom_site_occupancy
  Li  Li0  1  0.87073300  0.34366200  0.03478800  1
  Li  Li1  1  0.36643600  0.34037300  0.53018900  1
  Li  Li2  1  0.43347400  0.05959000  0.06991300  1
  Li  Li3  1  0.92920900  0.05633600  0.56520800  1
  Li  Li4  1  0.49070100  0.16176200  0.22147700  1
  Li  Li5  1  0.98827300  0.15953500  0.72000200  1
  Li  Li6  1  0.30932100  0.23826900  0.37857500  1
  Li  Li7  1  0.81163300  0.24036700  0.87994500  1
  Li  Li8  1  0.12719800  0.70735700  0.13496200  1
  Li  Li9  1  0.63826900  0.71113100  0.63369300  1
  Li  Li10  1  0.67280100  0.69263700  0.46507100  1
  Li  Li11  1  0.16188400  0.68878300  0.96631300  1
  Li  Li12  1  0.04189500  0.87908000  0.27503200  1
  Li  Li13  1  0.53848000  0.87676000  0.77429400  1
  Li  Li14  1  0.75809200  0.52091500  0.32501300  1
  Li  Li15  1  0.26150200  0.52341800  0.82564900  1
  Co  Co0  1  0.90002800  0.70007900  0.79998200  1
  Co  Co1  1  0.39997300  0.69998900  0.30000800  1
  Co  Co2  1  0.80204700  0.89929800  0.09856400  1
  Co  Co3  1  0.30378400  0.89885500  0.59955400  1
  Co  Co4  1  0.49629400  0.50113700  0.00039400  1
  Co  Co5  1  0.99791900  0.50061300  0.50146100  1
  Co  Co6  1  0.08649700  0.29618000  0.20263000  1
  Co  Co7  1  0.58686200  0.29936200  0.70268600  1
  Co  Co8  1  0.71348400  0.10383800  0.39739600  1
  Co  Co9  1  0.21303600  0.10058800  0.89731600  1
  O  O0  1  0.77431700  0.18304500  0.13120200  1
  O  O1  1  0.27076500  0.16916100  0.63068100  1
  O  O2  1  0.02576300  0.21699400  0.46880800  1
  O  O3  1  0.52910800  0.23061000  0.96940400  1
  O  O4  1  0.83701200  0.62574900  0.04376700  1
  O  O5  1  0.36460000  0.65087400  0.55298400  1
  O  O6  1  0.43533300  0.74896100  0.04709100  1
  O  O7  1  0.96306700  0.77424600  0.55615400  1
  O  O8  1  0.39488100  0.41490900  0.27942400  1
  O  O9  1  0.89568500  0.41472400  0.78077600  1
  O  O10  1  0.40515400  0.98510300  0.32059800  1
  O  O11  1  0.90443800  0.98542200  0.81909900  1
  O  O12  1  0.13909300  0.01321100  0.16282000  1
  O  O13  1  0.62162000  0.01090700  0.66223500  1
  O  O14  1  0.66087500  0.38675600  0.43721900  1
  O  O15  1  0.17867500  0.38929600  0.93756900  1
  O  O16  1  0.07944800  0.59278000  0.24429400  1
  O  O17  1  0.57950600  0.59269100  0.74451400  1
  O  O18  1  0.72053500  0.80724900  0.35573100  1
  O  O19  1  0.22029900  0.80739700  0.85551800  1
loop_
_geom_bond_atom_site_label_1
_geom_bond_atom_site_label_2
_geom_bond_distance
_geom_bond_site_symmetry_2
Li0 O0 1.886486 1_555
Li0 O4 1.939218 1_555
Li0 O3 2.026128 1_554
Li0 O15 2.077403 1_654
Li1 O1 1.982272 1_555
Li1 O2 1.984068 1_555
Li1 O14 1.985268 1_555
Li1 O5 2.048956 1_555
Li2 O3 1.981772 1_554
Li2 O0 1.984011 1_555
Li2 O12 1.984401 1_555
Li2 O6 2.049857 1_545
Li3 O2 1.886417 1_655
Li3 O7 1.939500 1_545
Li3 O1 2.026717 1_655
Li3 O13 2.074242 1_555
Li4 O0 1.935450 1_555
Li4 O10 1.989869 1_545
Li4 O12 2.010932 1_555
Li4 O8 2.022251 1_555
Li5 O1 1.933911 1_655
Li5 O11 1.980210 1_545
Li5 O9 2.039066 1_555
Li5 O13 2.068624 1_555
Li6 O2 1.934813 1_555
Li6 O8 1.990185 1_555
Li6 O14 2.010577 1_555
Li6 O10 2.022544 1_545
Li7 O3 1.935282 1_555
Li7 O9 1.982037 1_555
Li7 O11 2.038645 1_545
Li7 O15 2.069285 1_655
Li8 O16 1.934576 1_555
Li8 O6 1.984847 1_555
Li8 O12 1.996145 1_565
Li8 O4 2.102311 1_455
Li9 O5 1.939667 1_555
Li9 O7 1.941258 1_555
Li9 O17 1.961500 1_555
Li9 O13 2.016247 1_565
Li10 O18 1.934814 1_555
Li10 O5 1.985403 1_555
Li10 O14 1.996254 1_555
Li10 O7 2.101313 1_555
Li11 O6 1.939665 1_556
Li11 O4 1.940831 1_456
Li11 O19 1.961848 1_555
Li11 O15 2.014952 1_555
Li12 O18 1.954354 1_455
Li12 O10 1.972008 1_555
Li12 O16 1.981294 1_555
Li12 O12 2.016956 1_565
Li13 O19 1.947557 1_555
Li13 O17 1.974105 1_555
Li13 O11 1.978178 1_555
Li13 O13 2.017836 1_565
Li14 O16 1.954519 1_655
Li14 O8 1.971946 1_555
Li14 O18 1.981491 1_555
Li14 O14 2.016953 1_555
Li15 O17 1.946072 1_555
Li15 O19 1.974100 1_555
Li15 O9 1.977945 1_455
Li15 O15 2.015847 1_555
Co0 O19 1.849136 1_655
Co0 O17 1.849657 1_555
Co0 O11 1.869628 1_555
Co0 O9 1.869873 1_555
Co1 O16 1.851793 1_555
Co1 O18 1.852015 1_555
Co1 O8 1.867195 1_555
Co1 O10 1.867243 1_555
Co2 O0 1.944719 1_565
Co2 O4 1.972131 1_555
Co2 O12 1.995803 1_665
Co2 O6 2.022922 1_555
Co3 O5 1.844720 1_555
Co3 O7 1.846599 1_455
Co3 O1 1.868317 1_565
Co3 O13 1.899300 1_565
Co4 O6 1.844663 1_555
Co4 O4 1.846422 1_555
Co4 O3 1.868982 1_554
Co4 O15 1.899731 1_554
Co5 O2 1.944194 1_655
Co5 O7 1.971889 1_555
Co5 O14 1.995690 1_555
Co5 O5 2.023106 1_655
Co6 O0 1.957968 1_455
Co6 O8 1.995542 1_555
Co6 O16 2.003707 1_555
Co6 O12 2.016976 1_555
Co7 O1 1.978084 1_555
Co7 O17 1.984276 1_555
Co7 O13 2.009413 1_555
Co7 O9 2.011305 1_555
Co8 O2 1.958212 1_655
Co8 O10 1.995368 1_545
Co8 O18 2.003645 1_545
Co8 O14 2.016723 1_555
Co9 O3 1.978775 1_555
Co9 O19 1.983131 1_545
Co9 O15 2.009529 1_555
Co9 O11 2.011777 1_445
