# generated using pymatgen
data_YbRu2
_symmetry_space_group_name_H-M   'P 1'
_cell_length_a   5.21618443
_cell_length_b   5.21618443
_cell_length_c   8.87281800
_cell_angle_alpha   90.00000000
_cell_angle_beta   90.00000000
_cell_angle_gamma   119.94403798
_symmetry_Int_Tables_number   1
_chemical_formula_structural   YbRu2
_chemical_formula_sum   'Yb4 Ru8'
_cell_volume   209.19086187
_cell_formula_units_Z   4
loop_
 _symmetry_equiv_pos_site_id
 _symmetry_equiv_pos_as_xyz
  1  'x, y, z'
loop_
 _atom_site_type_symbol
 _atom_site_label
 _atom_site_symmetry_multiplicity
 _atom_site_fract_x
 _atom_site_fract_y
 _atom_site_fract_z
 _atom_site_occupancy
  Yb  Yb0  1  0.66666800  0.33333200  0.56453800  1
  Yb  Yb1  1  0.33333200  0.66666800  0.43546200  1
  Yb  Yb2  1  0.33333200  0.66666800  0.06453800  1
  Yb  Yb3  1  0.66666800  0.33333200  0.93546200  1
  Ru  Ru0  1  0.00000000  0.00000000  0.50000000  1
  Ru  Ru1  1  0.00000000  0.00000000  0.00000000  1
  Ru  Ru2  1  0.17172800  0.34356600  0.75000000  1
  Ru  Ru3  1  0.17180800  0.82819200  0.75000000  1
  Ru  Ru4  1  0.65643400  0.82827200  0.75000000  1
  Ru  Ru5  1  0.82827200  0.65643400  0.25000000  1
  Ru  Ru6  1  0.82819200  0.17180800  0.25000000  1
  Ru  Ru7  1  0.34356600  0.17172800  0.25000000  1
loop_
_geom_bond_atom_site_label_1
_geom_bond_atom_site_label_2
_geom_bond_distance
_geom_bond_site_symmetry_2
Ru0 Ru6 2.707120 1_455
Ru0 Ru3 2.707120 1_545
Ru0 Ru2 2.707743 1_555
Ru0 Ru5 2.707743 1_445
Ru0 Ru4 2.707743 1_445
Ru0 Ru7 2.707743 1_555
Ru0 Yb0 3.064677 1_455
Ru0 Yb1 3.064677 1_545
Ru0 Yb0 3.067198 1_555
Ru0 Yb1 3.067198 1_445
Ru0 Yb0 3.067198 1_445
Ru0 Yb1 3.067198 1_555
Ru1 Ru6 2.707120 1_455
Ru1 Ru3 2.707120 1_544
Ru1 Ru5 2.707743 1_445
Ru1 Ru2 2.707743 1_554
Ru1 Ru4 2.707743 1_444
Ru1 Ru7 2.707743 1_555
Ru1 Yb3 3.064677 1_454
Ru1 Yb2 3.064677 1_545
Ru1 Yb2 3.067198 1_555
Ru1 Yb3 3.067198 1_554
Ru1 Yb2 3.067198 1_445
Ru1 Yb3 3.067198 1_444
Ru2 Ru3 2.527690 1_555
Ru2 Ru4 2.530454 1_555
Ru2 Ru3 2.688494 1_545
Ru2 Ru4 2.690142 1_445
Ru2 Yb3 3.083970 1_455
Ru2 Yb0 3.083970 1_455
Ru2 Yb3 3.084397 1_555
Ru2 Yb0 3.084397 1_555
Ru2 Yb2 3.149843 1_556
Ru2 Yb1 3.149843 1_555
Ru3 Ru4 2.527690 1_555
Ru3 Ru4 2.688494 1_455
Ru3 Yb3 3.086051 1_455
Ru3 Yb0 3.086051 1_455
Ru3 Yb3 3.086051 1_565
Ru3 Yb0 3.086051 1_565
Ru3 Yb2 3.149158 1_556
Ru3 Yb1 3.149158 1_555
Ru4 Yb0 3.083970 1_565
Ru4 Yb3 3.083970 1_565
Ru4 Yb3 3.084397 1_555
Ru4 Yb0 3.084397 1_555
Ru4 Yb2 3.149843 1_556
Ru4 Yb1 3.149843 1_555
Ru5 Ru6 2.527690 1_555
Ru5 Ru7 2.530454 1_555
Ru5 Ru6 2.688494 1_565
Ru5 Ru7 2.690142 1_665
Ru5 Yb1 3.083970 1_655
Ru5 Yb2 3.083970 1_655
Ru5 Yb1 3.084397 1_555
Ru5 Yb2 3.084397 1_555
Ru5 Yb3 3.149843 1_554
Ru5 Yb0 3.149843 1_555
Ru6 Ru7 2.527690 1_555
Ru6 Ru7 2.688494 1_655
Ru6 Yb2 3.086051 1_545
Ru6 Yb2 3.086051 1_655
Ru6 Yb1 3.086051 1_545
Ru6 Yb1 3.086051 1_655
Ru6 Yb3 3.149158 1_554
Ru6 Yb0 3.149158 1_555
Ru7 Yb1 3.083970 1_545
Ru7 Yb2 3.083970 1_545
Ru7 Yb1 3.084397 1_555
Ru7 Yb2 3.084397 1_555
Ru7 Yb3 3.149843 1_554
Ru7 Yb0 3.149843 1_555
