# generated using pymatgen
data_Mg5Al4Fe(SiO4)6
_symmetry_space_group_name_H-M   'P 1'
_cell_length_a   7.66752057
_cell_length_b   15.10360077
_cell_length_c   9.13049949
_cell_angle_alpha   110.74044808
_cell_angle_beta   111.68173207
_cell_angle_gamma   78.36439458
_symmetry_Int_Tables_number   1
_chemical_formula_structural   Mg5Al4Fe(SiO4)6
_chemical_formula_sum   'Mg10 Al8 Fe2 Si12 O48'
_cell_volume   915.83320287
_cell_formula_units_Z   2
loop_
 _symmetry_equiv_pos_site_id
 _symmetry_equiv_pos_as_xyz
  1  'x, y, z'
loop_
 _atom_site_type_symbol
 _atom_site_label
 _atom_site_symmetry_multiplicity
 _atom_site_fract_x
 _atom_site_fract_y
 _atom_site_fract_z
 _atom_site_occupancy
  Mg  Mg0  1  0.00881100  0.98137200  0.95582400  1
  Mg  Mg1  1  0.99685400  0.29266200  0.12445900  1
  Mg  Mg2  1  0.00759200  0.79549600  0.10116900  1
  Mg  Mg3  1  0.34305400  0.14529800  0.59580800  1
  Mg  Mg4  1  0.34205500  0.62098600  0.61183200  1
  Mg  Mg5  1  0.60674100  0.51528100  0.05796600  1
  Mg  Mg6  1  0.72986500  0.42812000  0.51418500  1
  Mg  Mg7  1  0.77536400  0.92502700  0.52920500  1
  Mg  Mg8  1  0.71986800  0.12300500  0.46669600  1
  Mg  Mg9  1  0.69006200  0.62015300  0.45659700  1
  Al  Al0  1  0.11108700  0.07012400  0.70992200  1
  Al  Al1  1  0.09468400  0.56780200  0.72605500  1
  Al  Al2  1  0.42534300  0.42032800  0.21640000  1
  Al  Al3  1  0.45278000  0.92748300  0.20789200  1
  Al  Al4  1  0.60471100  0.34757700  0.73058600  1
  Al  Al5  1  0.60360600  0.84176200  0.69950100  1
  Al  Al6  1  0.77246700  0.17480300  0.21691600  1
  Al  Al7  1  0.89410600  0.67349300  0.22298200  1
  Fe  Fe0  1  0.98534200  0.46307600  0.95884900  1
  Fe  Fe1  1  0.61582300  0.98828600  0.99494300  1
  Si  Si0  1  0.95794000  0.27663100  0.64008500  1
  Si  Si1  1  0.97222400  0.76838500  0.62434600  1
  Si  Si2  1  0.29446900  0.39763700  0.49161000  1
  Si  Si3  1  0.31394300  0.91250600  0.47449000  1
  Si  Si4  1  0.32836500  0.11432900  0.10982600  1
  Si  Si5  1  0.28221500  0.60536000  0.12819200  1
  Si  Si6  1  0.70068500  0.08244200  0.78817800  1
  Si  Si7  1  0.70383500  0.57863000  0.80059800  1
  Si  Si8  1  0.55389000  0.28377600  0.98111700  1
  Si  Si9  1  0.56471700  0.77210000  0.97901200  1
  Si  Si10  1  0.90392200  0.47247500  0.31592300  1
  Si  Si11  1  0.91567100  0.97709200  0.29034400  1
  O  O0  1  0.11001600  0.18453000  0.66667900  1
  O  O1  1  0.11549100  0.67840200  0.67466700  1
  O  O2  1  0.03740600  0.37905000  0.74981800  1
  O  O3  1  0.02163000  0.87425900  0.74498600  1
  O  O4  1  0.08223900  0.38232400  0.35746500  1
  O  O5  1  0.10946000  0.89424300  0.32440100  1
  O  O6  1  0.28648400  0.01927100  0.59777100  1
  O  O7  1  0.27978400  0.50264300  0.62637800  1
  O  O8  1  0.17553100  0.19396200  0.16320200  1
  O  O9  1  0.11533200  0.68253500  0.18464500  1
  O  O10  1  0.31167200  0.07272900  0.91152300  1
  O  O11  1  0.27765500  0.57534600  0.93522300  1
  O  O12  1  0.37661300  0.82786100  0.55800300  1
  O  O13  1  0.38640100  0.31195900  0.57512800  1
  O  O14  1  0.55958500  0.37220800  0.91663300  1
  O  O15  1  0.57684700  0.84394400  0.88319700  1
  O  O16  1  0.43996200  0.40056600  0.39784400  1
  O  O17  1  0.47662700  0.90758300  0.39194500  1
  O  O18  1  0.60002900  0.08071500  0.58315200  1
  O  O19  1  0.59066300  0.57465300  0.58922400  1
  O  O20  1  0.28733400  0.01651300  0.14086000  1
  O  O21  1  0.24785100  0.50621000  0.15464100  1
  O  O22  1  0.38349900  0.31243200  0.05683900  1
  O  O23  1  0.39684500  0.81666200  0.05715800  1
  O  O24  1  0.53833100  0.18688300  0.82226200  1
  O  O25  1  0.52671200  0.66750100  0.83954500  1
  O  O26  1  0.68101000  0.45539300  0.74095100  1
  O  O27  1  0.67096800  0.95772300  0.73527600  1
  O  O28  1  0.55189300  0.14212100  0.22426600  1
  O  O29  1  0.49875100  0.62861200  0.23797900  1
  O  O30  1  0.66012100  0.45567900  0.26729000  1
  O  O31  1  0.67867800  0.95917800  0.23709700  1
  O  O32  1  0.78049600  0.25654600  0.68787800  1
  O  O33  1  0.76262500  0.75029700  0.62730100  1
  O  O34  1  0.92693200  0.00839600  0.50497900  1
  O  O35  1  0.91404700  0.51047400  0.52368500  1
  O  O36  1  0.90097700  0.42264800  0.11247900  1
  O  O37  1  0.91003400  0.92627600  0.08070600  1
  O  O38  1  0.93204500  0.07917400  0.81181400  1
  O  O39  1  0.91497100  0.60223400  0.82448400  1
  O  O40  1  0.75298200  0.26621800  0.12470900  1
  O  O41  1  0.77234100  0.76296700  0.11510100  1
  O  O42  1  0.75375800  0.08768700  0.99622900  1
  O  O43  1  0.77565400  0.57928500  0.01219300  1
  O  O44  1  0.92335300  0.09072700  0.31448500  1
  O  O45  1  0.89652500  0.58628100  0.32205800  1
  O  O46  1  0.84273800  0.27385400  0.44285200  1
  O  O47  1  0.91700900  0.76975300  0.43148800  1
loop_
_geom_bond_atom_site_label_1
_geom_bond_atom_site_label_2
_geom_bond_distance
_geom_bond_site_symmetry_2
Mg0 O37 2.032385 1_456
Mg0 O3 2.050031 1_555
Mg0 O38 2.170360 1_465
Mg0 O20 2.202924 1_566
Mg0 O42 2.320734 1_465
Mg0 O27 2.627224 1_455
Mg1 O8 1.848218 1_655
Mg1 O36 1.979212 1_555
Mg1 O40 1.990246 1_555
Mg1 O4 2.019041 1_655
Mg2 O37 2.014493 1_455
Mg2 O9 2.015302 1_555
Mg2 O41 2.020522 1_455
Mg2 O5 2.032071 1_555
Mg3 O24 2.020770 1_555
Mg3 O0 2.029350 1_555
Mg3 O18 2.039678 1_555
Mg3 O6 2.043177 1_555
Mg3 O13 2.683802 1_555
Mg4 O19 1.953535 1_555
Mg4 O1 1.968591 1_555
Mg4 O7 1.999917 1_555
Mg4 O25 2.003136 1_555
Mg5 O43 1.994412 1_555
Mg5 O14 2.112085 1_554
Mg5 O29 2.181342 1_555
Mg5 O30 2.263327 1_555
Mg5 O36 2.384383 1_555
Mg5 O11 2.480551 1_554
Mg6 O35 2.022538 1_555
Mg6 O26 2.122192 1_555
Mg6 O16 2.134927 1_555
Mg6 O19 2.240599 1_555
Mg6 O46 2.265010 1_555
Mg6 O30 2.285833 1_555
Mg7 O34 1.990609 1_565
Mg7 O27 2.172572 1_555
Mg7 O17 2.185225 1_555
Mg7 O47 2.383719 1_555
Mg7 O3 2.402533 1_655
Mg7 O18 2.443990 1_565
Mg7 O31 2.699660 1_555
Mg8 O18 1.955150 1_555
Mg8 O34 2.132878 1_555
Mg8 O28 2.199526 1_555
Mg8 O32 2.272037 1_555
Mg8 O44 2.327856 1_555
Mg9 O19 2.000538 1_555
Mg9 O29 2.023351 1_555
Mg9 O33 2.057440 1_555
Mg9 O35 2.205141 1_555
Mg9 O45 2.223038 1_555
Mg9 O30 2.471233 1_555
Al0 O6 1.868419 1_555
Al0 O38 1.883275 1_455
Al0 O0 1.901798 1_555
Al0 O10 1.906957 1_555
Al0 O34 1.925502 1_455
Al1 O39 1.808820 1_455
Al1 O35 1.881965 1_455
Al1 O11 1.886575 1_555
Al1 O7 1.888845 1_555
Al1 O1 1.937515 1_555
Al2 O16 1.745205 1_555
Al2 O22 1.750730 1_555
Al2 O21 1.758286 1_555
Al2 O30 1.826338 1_555
Al3 O17 1.748246 1_555
Al3 O23 1.761112 1_555
Al3 O20 1.764403 1_565
Al3 O31 1.789730 1_555
Al4 O14 1.754562 1_555
Al4 O32 1.766402 1_555
Al4 O13 1.781256 1_555
Al4 O26 1.799207 1_555
Al5 O12 1.742483 1_555
Al5 O15 1.751771 1_555
Al5 O33 1.760425 1_555
Al5 O27 1.809975 1_555
Al6 O44 1.786530 1_555
Al6 O40 1.812341 1_555
Al6 O28 1.884829 1_555
Al6 O42 1.948520 1_554
Al6 O46 2.025342 1_555
Al7 O45 1.837233 1_555
Al7 O41 1.849994 1_555
Al7 O9 1.893272 1_655
Al7 O47 1.914285 1_555
Al7 O43 1.960534 1_555
Fe0 O2 2.013861 1_655
Fe0 O36 2.048251 1_556
Fe0 O21 2.171839 1_656
Fe0 O43 2.176623 1_556
Fe0 O26 2.435592 1_555
Fe0 O39 2.663352 1_555
Fe1 O42 1.997864 1_565
Fe1 O15 2.084504 1_555
Fe1 O37 2.222891 1_556
Fe1 O31 2.264874 1_556
Fe1 O10 2.412708 1_565
Fe1 O27 2.428956 1_555
Fe1 O28 2.622246 1_566
O0 Si0 1.652090 1_455
O1 Si1 1.652874 1_455
O2 Si0 1.612257 1_455
O3 Si1 1.613181 1_455
O4 Si2 1.637118 1_555
O4 Si10 1.760359 1_455
O5 Si3 1.652697 1_555
O5 Si11 1.747720 1_455
O6 Si3 1.632237 1_545
O7 Si2 1.640193 1_555
O8 Si4 1.579764 1_555
O9 Si5 1.649803 1_555
O10 Si4 1.656776 1_556
O11 Si5 1.645053 1_556
O12 Si3 1.618227 1_555
O13 Si2 1.639122 1_555
O14 Si8 1.652875 1_555
O15 Si9 1.650644 1_555
O16 Si2 1.652831 1_555
O17 Si3 1.657431 1_555
O18 Si6 1.733975 1_555
O19 Si7 1.784033 1_555
O20 Si4 1.706386 1_555
O21 Si5 1.683043 1_555
O22 Si8 1.612330 1_554
O23 Si9 1.614902 1_554
O24 Si8 1.642801 1_555
O24 Si6 1.811429 1_555
O25 Si9 1.639804 1_555
O25 Si7 1.748149 1_555
O26 Si7 1.770524 1_555
O27 Si6 1.811340 1_565
O28 Si4 1.691674 1_555
O29 Si5 1.625069 1_555
O30 Si10 1.803928 1_555
O31 Si11 1.750421 1_555
O32 Si0 1.683002 1_555
O33 Si1 1.694848 1_555
O34 Si11 1.818433 1_545
O35 Si10 1.752702 1_555
O36 Si10 1.732943 1_555
O37 Si11 1.779453 1_555
O38 Si6 1.698612 1_555
O39 Si7 1.646912 1_555
O40 Si8 1.650356 1_554
O41 Si9 1.633560 1_554
O42 Si6 1.765113 1_555
O43 Si7 1.799554 1_554
O44 Si11 1.661618 1_545
O45 Si10 1.689891 1_555
O46 Si0 1.676630 1_555
O47 Si1 1.658852 1_555
