# generated using pymatgen
data_Ca21(Zn2Sb9)2
_symmetry_space_group_name_H-M   'P 1'
_cell_length_a   12.04613800
_cell_length_b   12.04613800
_cell_length_c   17.11544659
_cell_angle_alpha   88.60079381
_cell_angle_beta   88.60079381
_cell_angle_gamma   87.33206417
_symmetry_Int_Tables_number   1
_chemical_formula_structural   Ca21(Zn2Sb9)2
_chemical_formula_sum   'Ca42 Zn8 Sb36'
_cell_volume   2479.50697662
_cell_formula_units_Z   2
loop_
 _symmetry_equiv_pos_site_id
 _symmetry_equiv_pos_as_xyz
  1  'x, y, z'
loop_
 _atom_site_type_symbol
 _atom_site_label
 _atom_site_symmetry_multiplicity
 _atom_site_fract_x
 _atom_site_fract_y
 _atom_site_fract_z
 _atom_site_occupancy
  Ca  Ca0  1  0.92818099  0.24023003  0.64931899  1
  Ca  Ca1  1  0.24023003  0.92818099  0.64931899  1
  Ca  Ca2  1  0.07181901  0.75976997  0.35068101  1
  Ca  Ca3  1  0.75976997  0.07181901  0.35068101  1
  Ca  Ca4  1  0.92298391  0.24820539  0.85415886  1
  Ca  Ca5  1  0.24820539  0.92298391  0.85415886  1
  Ca  Ca6  1  0.07701609  0.75179461  0.14584114  1
  Ca  Ca7  1  0.75179461  0.07701609  0.14584114  1
  Ca  Ca8  1  0.99110231  0.22970205  0.42238172  1
  Ca  Ca9  1  0.22970205  0.99110231  0.42238172  1
  Ca  Ca10  1  0.00889769  0.77029795  0.57761828  1
  Ca  Ca11  1  0.77029795  0.00889769  0.57761828  1
  Ca  Ca12  1  0.74358960  0.49066504  0.94271491  1
  Ca  Ca13  1  0.49066504  0.74358960  0.94271491  1
  Ca  Ca14  1  0.25641040  0.50933496  0.05728509  1
  Ca  Ca15  1  0.50933496  0.25641040  0.05728509  1
  Ca  Ca16  1  0.82087317  0.49543232  0.56424625  1
  Ca  Ca17  1  0.49543232  0.82087317  0.56424625  1
  Ca  Ca18  1  0.17912683  0.50456768  0.43575375  1
  Ca  Ca19  1  0.50456768  0.17912683  0.43575375  1
  Ca  Ca20  1  0.92587373  0.58192089  0.75679569  1
  Ca  Ca21  1  0.58192089  0.92587373  0.75679569  1
  Ca  Ca22  1  0.07412627  0.41807911  0.24320431  1
  Ca  Ca23  1  0.41807911  0.07412627  0.24320431  1
  Ca  Ca24  1  0.99628359  0.72927277  0.94209848  1
  Ca  Ca25  1  0.72927277  0.99628359  0.94209848  1
  Ca  Ca26  1  0.00371641  0.27072723  0.05790152  1
  Ca  Ca27  1  0.27072723  0.00371641  0.05790152  1
  Ca  Ca28  1  0.25783803  0.59740487  0.84236230  1
  Ca  Ca29  1  0.59740487  0.25783803  0.84236230  1
  Ca  Ca30  1  0.74216197  0.40259513  0.15763770  1
  Ca  Ca31  1  0.40259513  0.74216197  0.15763770  1
  Ca  Ca32  1  0.32250011  0.57033152  0.61755754  1
  Ca  Ca33  1  0.57033152  0.32250011  0.61755754  1
  Ca  Ca34  1  0.67749989  0.42966848  0.38244246  1
  Ca  Ca35  1  0.42966848  0.67749989  0.38244246  1
  Ca  Ca36  1  0.25301932  0.25301932  0.58183612  1
  Ca  Ca37  1  0.74698068  0.74698068  0.41816388  1
  Ca  Ca38  1  0.26458045  0.26458045  0.90561324  1
  Ca  Ca39  1  0.73541955  0.73541955  0.09438676  1
  Ca  Ca40  1  0.59176528  0.59176528  0.74575255  1
  Ca  Ca41  1  0.40823472  0.40823472  0.25424745  1
  Zn  Zn0  1  0.14452728  0.38422635  0.75270277  1
  Zn  Zn1  1  0.38422635  0.14452728  0.75270277  1
  Zn  Zn2  1  0.85547272  0.61577365  0.24729723  1
  Zn  Zn3  1  0.61577365  0.85547272  0.24729723  1
  Zn  Zn4  1  -0.00058695  -0.00058695  0.20102819  1
  Zn  Zn5  1  0.00058695  0.00058695  0.79897181  1
  Zn  Zn6  1  0.15345936  0.15345936  0.24262666  1
  Zn  Zn7  1  0.84654064  0.84654064  0.75737334  1
  Sb  Sb0  1  0.05059444  0.05059444  0.56403792  1
  Sb  Sb1  1  0.94940556  0.94940556  0.43596208  1
  Sb  Sb2  1  0.06174903  0.06174903  0.94324646  1
  Sb  Sb3  1  0.93825097  0.93825097  0.05675354  1
  Sb  Sb4  1  0.42536840  0.42536840  0.46443324  1
  Sb  Sb5  1  0.57463160  0.57463160  0.53556676  1
  Sb  Sb6  1  0.46362752  0.46362752  0.92381008  1
  Sb  Sb7  1  0.53637248  0.53637248  0.07618992  1
  Sb  Sb8  1  0.76088274  0.39755510  0.74381998  1
  Sb  Sb9  1  0.39755510  0.76088274  0.74381998  1
  Sb  Sb10  1  0.23911726  0.60244490  0.25618002  1
  Sb  Sb11  1  0.60244490  0.23911726  0.25618002  1
  Sb  Sb12  1  0.05927307  0.45428000  0.90029796  1
  Sb  Sb13  1  0.45428000  0.05927307  0.90029796  1
  Sb  Sb14  1  0.94072693  0.54572000  0.09970204  1
  Sb  Sb15  1  0.54572000  0.94072693  0.09970204  1
  Sb  Sb16  1  0.07336330  0.46504396  0.61193064  1
  Sb  Sb17  1  0.46504396  0.07336330  0.61193064  1
  Sb  Sb18  1  0.92663670  0.53495604  0.38806936  1
  Sb  Sb19  1  0.53495604  0.92663670  0.38806936  1
  Sb  Sb20  1  0.06958365  0.79061575  0.76045391  1
  Sb  Sb21  1  0.79061575  0.06958365  0.76045391  1
  Sb  Sb22  1  0.93041635  0.20938425  0.23954609  1
  Sb  Sb23  1  0.20938425  0.93041635  0.23954609  1
  Sb  Sb24  1  0.15238299  0.15238299  0.74765860  1
  Sb  Sb25  1  0.84761701  0.84761701  0.25234140  1
  Sb  Sb26  1  0.24731518  0.24731518  0.37145111  1
  Sb  Sb27  1  0.75268482  0.75268482  0.62854889  1
  Sb  Sb28  1  0.37779823  0.37779823  0.74086892  1
  Sb  Sb29  1  0.62220177  0.62220177  0.25913108  1
  Sb  Sb30  1  0.74004314  0.74004314  0.88337002  1
  Sb  Sb31  1  0.25995686  0.25995686  0.11662998  1
  Sb  Sb32  1  0.75495149  0.24504851  0.50000000  1
  Sb  Sb33  1  0.24504851  0.75495149  0.50000000  1
  Sb  Sb34  1  0.75509073  0.24490927  0.00000000  1
  Sb  Sb35  1  0.24490927  0.75509073  0.00000000  1
loop_
_geom_bond_atom_site_label_1
_geom_bond_atom_site_label_2
_geom_bond_distance
_geom_bond_site_symmetry_2
Ca0 Sb0 3.044253 1_655
Ca0 Sb8 3.147074 1_555
Ca0 Sb21 3.249923 1_555
Ca0 Sb16 3.332229 1_655
Ca0 Sb24 3.334042 1_655
Ca0 Sb32 3.336347 1_555
Ca1 Sb0 3.044253 1_565
Ca1 Sb9 3.147074 1_555
Ca1 Sb20 3.249923 1_555
Ca1 Sb17 3.332229 1_565
Ca1 Sb24 3.334042 1_565
Ca1 Sb33 3.336347 1_555
Ca2 Sb1 3.044253 1_455
Ca2 Sb10 3.147074 1_555
Ca2 Sb23 3.249923 1_555
Ca2 Sb18 3.332229 1_455
Ca2 Sb25 3.334042 1_455
Ca2 Sb33 3.336347 1_555
Ca3 Sb1 3.044253 1_545
Ca3 Sb11 3.147074 1_555
Ca3 Sb22 3.249923 1_555
Ca3 Sb19 3.332229 1_545
Ca3 Sb25 3.334042 1_545
Ca3 Sb32 3.336347 1_555
Ca4 Sb2 3.125971 1_655
Ca4 Sb12 3.165402 1_655
Ca4 Sb34 3.174701 1_556
Ca4 Sb8 3.209871 1_555
Ca4 Sb21 3.218282 1_555
Ca4 Zn5 3.240110 1_655
Ca4 Sb24 3.442532 1_655
Ca5 Sb2 3.125971 1_565
Ca5 Sb13 3.165402 1_565
Ca5 Sb35 3.174701 1_556
Ca5 Sb9 3.209871 1_555
Ca5 Sb20 3.218282 1_555
Ca5 Zn5 3.240110 1_565
Ca5 Sb24 3.442532 1_565
Ca6 Sb3 3.125971 1_455
Ca6 Sb14 3.165402 1_455
Ca6 Sb35 3.174701 1_555
Ca6 Sb10 3.209871 1_555
Ca6 Sb23 3.218282 1_555
Ca6 Zn4 3.240110 1_565
Ca6 Sb25 3.442532 1_455
Ca7 Sb3 3.125971 1_545
Ca7 Sb15 3.165402 1_545
Ca7 Sb34 3.174701 1_555
Ca7 Sb11 3.209871 1_555
Ca7 Sb22 3.218282 1_555
Ca7 Zn4 3.240110 1_655
Ca7 Sb25 3.442532 1_545
Ca8 Sb32 3.109636 1_555
Ca8 Sb26 3.201739 1_655
Ca8 Sb22 3.248491 1_555
Ca8 Sb0 3.276022 1_655
Ca8 Sb1 3.438147 1_545
Ca8 Sb18 3.757687 1_555
Ca9 Sb33 3.109636 1_555
Ca9 Sb26 3.201739 1_565
Ca9 Sb23 3.248491 1_555
Ca9 Sb0 3.276022 1_565
Ca9 Sb1 3.438147 1_455
Ca9 Sb19 3.757687 1_555
Ca10 Sb33 3.109636 1_555
Ca10 Sb27 3.201739 1_455
Ca10 Sb20 3.248491 1_555
Ca10 Sb1 3.276022 1_455
Ca10 Sb0 3.438147 1_565
Ca10 Sb16 3.757687 1_555
Ca11 Sb32 3.109636 1_555
Ca11 Sb27 3.201739 1_545
Ca11 Sb21 3.248491 1_555
Ca11 Sb1 3.276022 1_545
Ca11 Sb0 3.438147 1_655
Ca11 Sb17 3.757687 1_555
Ca12 Sb34 3.093737 1_556
Ca12 Sb30 3.146257 1_555
Ca12 Sb7 3.377553 1_556
Ca12 Sb6 3.427093 1_555
Ca12 Sb8 3.608311 1_555
Ca12 Sb14 3.720746 1_556
Ca12 Sb12 3.860796 1_655
Ca13 Sb35 3.093737 1_556
Ca13 Sb30 3.146257 1_555
Ca13 Sb7 3.377553 1_556
Ca13 Sb6 3.427093 1_555
Ca13 Sb9 3.608311 1_555
Ca13 Sb15 3.720746 1_556
Ca13 Sb13 3.860796 1_565
Ca14 Sb35 3.093737 1_555
Ca14 Sb31 3.146257 1_555
Ca14 Sb6 3.377553 1_554
Ca14 Sb7 3.427093 1_555
Ca14 Sb10 3.608311 1_555
Ca14 Sb12 3.720746 1_554
Ca14 Sb14 3.860796 1_455
Ca15 Sb34 3.093737 1_555
Ca15 Sb31 3.146257 1_555
Ca15 Sb6 3.377553 1_554
Ca15 Sb7 3.427093 1_555
Ca15 Sb11 3.608311 1_555
Ca15 Sb13 3.720746 1_554
Ca15 Sb15 3.860796 1_545
Ca16 Sb5 3.120037 1_555
Ca16 Sb16 3.170802 1_655
Ca16 Sb18 3.277334 1_555
Ca16 Sb8 3.339544 1_555
Ca16 Sb32 3.371131 1_555
Ca16 Sb27 3.372622 1_555
Ca17 Sb5 3.120037 1_555
Ca17 Sb17 3.170802 1_565
Ca17 Sb19 3.277334 1_555
Ca17 Sb9 3.339544 1_555
Ca17 Sb33 3.371131 1_555
Ca17 Sb27 3.372622 1_555
Ca18 Sb4 3.120037 1_555
Ca18 Sb18 3.170802 1_455
Ca18 Sb16 3.277334 1_555
Ca18 Sb10 3.339544 1_555
Ca18 Sb33 3.371131 1_555
Ca18 Sb26 3.372622 1_555
Ca19 Sb4 3.120037 1_555
Ca19 Sb19 3.170802 1_545
Ca19 Sb17 3.277334 1_555
Ca19 Sb11 3.339544 1_555
Ca19 Sb32 3.371131 1_555
Ca19 Sb26 3.372622 1_555
Ca20 Sb8 3.064056 1_555
Ca20 Sb20 3.120731 1_655
Ca20 Sb12 3.279815 1_655
Ca20 Zn7 3.285110 1_555
Ca20 Sb16 3.317962 1_655
Ca20 Zn0 3.468288 1_655
Ca20 Sb30 3.591673 1_555
Ca20 Sb27 3.606321 1_555
Ca21 Sb9 3.064056 1_555
Ca21 Sb21 3.120731 1_565
Ca21 Sb13 3.279815 1_565
Ca21 Zn7 3.285110 1_555
Ca21 Sb17 3.317962 1_565
Ca21 Zn1 3.468288 1_565
Ca21 Sb30 3.591673 1_555
Ca21 Sb27 3.606321 1_555
Ca22 Sb10 3.064056 1_555
Ca22 Sb22 3.120731 1_455
Ca22 Sb14 3.279815 1_455
Ca22 Zn6 3.285110 1_555
Ca22 Sb18 3.317962 1_455
Ca22 Zn2 3.468288 1_455
Ca22 Sb31 3.591673 1_555
Ca22 Sb26 3.606321 1_555
Ca23 Sb11 3.064056 1_555
Ca23 Sb23 3.120731 1_545
Ca23 Sb15 3.279815 1_545
Ca23 Zn6 3.285110 1_555
Ca23 Sb19 3.317962 1_545
Ca23 Zn3 3.468288 1_545
Ca23 Sb31 3.591673 1_555
Ca23 Sb26 3.606321 1_555
Ca24 Sb35 3.208651 1_656
Ca24 Sb30 3.265398 1_555
Ca24 Sb3 3.269134 1_556
Ca24 Sb20 3.287190 1_655
Ca24 Sb12 3.451978 1_655
Ca24 Sb14 3.517306 1_556
Ca25 Sb34 3.208651 1_566
Ca25 Sb30 3.265398 1_555
Ca25 Sb3 3.269134 1_556
Ca25 Sb21 3.287190 1_565
Ca25 Sb13 3.451978 1_565
Ca25 Sb15 3.517306 1_556
Ca26 Sb34 3.208651 1_455
Ca26 Sb31 3.265398 1_555
Ca26 Sb2 3.269134 1_554
Ca26 Sb22 3.287190 1_455
Ca26 Sb14 3.451978 1_455
Ca26 Sb12 3.517306 1_554
Ca27 Sb35 3.208651 1_545
Ca27 Sb31 3.265398 1_555
Ca27 Sb2 3.269134 1_554
Ca27 Sb23 3.287190 1_545
Ca27 Sb15 3.451978 1_545
Ca27 Sb13 3.517306 1_554
Ca28 Sb9 3.092416 1_555
Ca28 Sb12 3.140344 1_555
Ca28 Sb6 3.220660 1_555
Ca28 Sb35 3.333769 1_556
Ca28 Zn0 3.381355 1_555
Ca28 Sb28 3.442365 1_555
Ca28 Sb20 3.468358 1_555
Ca29 Sb8 3.092416 1_555
Ca29 Sb13 3.140344 1_555
Ca29 Sb6 3.220660 1_555
Ca29 Sb34 3.333769 1_556
Ca29 Zn1 3.381355 1_555
Ca29 Sb28 3.442365 1_555
Ca29 Sb21 3.468358 1_555
Ca30 Sb11 3.092416 1_555
Ca30 Sb14 3.140344 1_555
Ca30 Sb7 3.220660 1_555
Ca30 Sb34 3.333769 1_555
Ca30 Zn2 3.381355 1_555
Ca30 Sb29 3.442365 1_555
Ca30 Sb22 3.468358 1_555
Ca31 Sb10 3.092416 1_555
Ca31 Sb15 3.140344 1_555
Ca31 Sb7 3.220660 1_555
Ca31 Sb35 3.333769 1_555
Ca31 Zn3 3.381355 1_555
Ca31 Sb29 3.442365 1_555
Ca31 Sb23 3.468358 1_555
Ca32 Sb33 3.089464 1_555
Ca32 Sb28 3.156409 1_555
Ca32 Sb16 3.316494 1_555
Ca32 Sb5 3.316558 1_555
Ca32 Sb9 3.359656 1_555
Ca32 Sb4 3.364061 1_555
Ca33 Sb32 3.089464 1_555
Ca33 Sb28 3.156409 1_555
Ca33 Sb17 3.316494 1_555
Ca33 Sb5 3.316558 1_555
Ca33 Sb8 3.359656 1_555
Ca33 Sb4 3.364061 1_555
Ca34 Sb32 3.089464 1_555
Ca34 Sb29 3.156409 1_555
Ca34 Sb18 3.316494 1_555
Ca34 Sb4 3.316558 1_555
Ca34 Sb11 3.359656 1_555
Ca34 Sb5 3.364061 1_555
Ca35 Sb33 3.089464 1_555
Ca35 Sb29 3.156409 1_555
Ca35 Sb19 3.316494 1_555
Ca35 Sb4 3.316558 1_555
Ca35 Sb10 3.359656 1_555
Ca35 Sb5 3.364061 1_555
Ca36 Sb24 3.285568 1_555
Ca36 Sb16 3.311714 1_555
Ca36 Sb17 3.311714 1_555
Ca36 Sb28 3.540822 1_555
Ca36 Zn0 3.550402 1_555
Ca36 Zn1 3.550402 1_555
Ca36 Sb0 3.551176 1_555
Ca36 Sb4 3.556996 1_555
Ca36 Sb26 3.605558 1_555
Ca37 Sb25 3.285568 1_555
Ca37 Sb18 3.311714 1_555
Ca37 Sb19 3.311714 1_555
Ca37 Sb29 3.540822 1_555
Ca37 Zn2 3.550402 1_555
Ca37 Zn3 3.550402 1_555
Ca37 Sb1 3.551176 1_555
Ca37 Sb5 3.556996 1_555
Ca37 Sb27 3.605558 1_555
Ca38 Sb12 3.289590 1_555
Ca38 Sb13 3.289590 1_555
Ca38 Zn0 3.290084 1_555
Ca38 Zn1 3.290084 1_555
Ca38 Sb28 3.386474 1_555
Ca38 Sb24 3.389544 1_555
Ca38 Sb6 3.493359 1_555
Ca38 Sb2 3.571652 1_555
Ca38 Sb31 3.609824 1_556
Ca39 Sb14 3.289590 1_555
Ca39 Sb15 3.289590 1_555
Ca39 Zn2 3.290084 1_555
Ca39 Zn3 3.290084 1_555
Ca39 Sb29 3.386474 1_555
Ca39 Sb25 3.389544 1_555
Ca39 Sb7 3.493359 1_555
Ca39 Sb3 3.571652 1_555
Ca39 Sb30 3.609824 1_554
Ca40 Sb8 3.030066 1_555
Ca40 Sb9 3.030066 1_555
Ca40 Sb27 3.392531 1_555
Ca40 Sb30 3.554802 1_555
Ca40 Sb5 3.619826 1_555
Ca40 Sb6 3.716853 1_555
Ca40 Sb28 3.732729 1_555
Ca41 Sb10 3.030066 1_555
Ca41 Sb11 3.030066 1_555
Ca41 Sb26 3.392531 1_555
Ca41 Sb31 3.554802 1_555
Ca41 Sb4 3.619826 1_555
Ca41 Sb7 3.716853 1_555
Ca41 Sb29 3.732729 1_555
Zn4 Zn6 2.800624 1_555
Zn5 Zn7 2.800624 1_445
Sb0 Sb1 2.859389 1_445
Sb2 Zn5 2.722398 1_555
Sb2 Sb3 2.850311 1_446
Sb3 Zn4 2.722398 1_665
Sb4 Sb5 2.909121 1_555
Sb6 Sb7 2.938098 1_556
Sb12 Zn0 2.836375 1_555
Sb13 Zn1 2.836375 1_555
Sb14 Zn2 2.836375 1_555
Sb15 Zn3 2.836375 1_555
Sb16 Zn0 2.719629 1_555
Sb17 Zn1 2.719629 1_555
Sb18 Zn2 2.719629 1_555
Sb19 Zn3 2.719629 1_555
Sb20 Zn5 2.716974 1_565
Sb20 Zn7 2.740845 1_455
Sb21 Zn5 2.716974 1_655
Sb21 Zn7 2.740845 1_545
Sb22 Zn4 2.716974 1_655
Sb22 Zn6 2.740845 1_655
Sb23 Zn4 2.716974 1_565
Sb23 Zn6 2.740845 1_565
Sb24 Zn5 2.759162 1_555
Sb24 Zn1 2.793387 1_555
Sb24 Zn0 2.793387 1_555
Sb25 Zn4 2.759162 1_665
Sb25 Zn2 2.793387 1_555
Sb25 Zn3 2.793387 1_555
Sb26 Zn6 2.789360 1_555
Sb27 Zn7 2.789360 1_555
Sb28 Zn0 2.809967 1_555
Sb28 Zn1 2.809967 1_555
Sb29 Zn2 2.809967 1_555
Sb29 Zn3 2.809967 1_555
Sb30 Zn7 2.797325 1_555
Sb31 Zn6 2.797325 1_555
