# generated using pymatgen
data_Er2Si3Pd
_symmetry_space_group_name_H-M   'P 1'
_cell_length_a   8.18804750
_cell_length_b   8.18804750
_cell_length_c   7.78528000
_cell_angle_alpha   90.00000000
_cell_angle_beta   90.00000000
_cell_angle_gamma   119.99999597
_symmetry_Int_Tables_number   1
_chemical_formula_structural   Er2Si3Pd
_chemical_formula_sum   'Er8 Si12 Pd4'
_cell_volume   452.02826629
_cell_formula_units_Z   4
loop_
 _symmetry_equiv_pos_site_id
 _symmetry_equiv_pos_as_xyz
  1  'x, y, z'
loop_
 _atom_site_type_symbol
 _atom_site_label
 _atom_site_symmetry_multiplicity
 _atom_site_fract_x
 _atom_site_fract_y
 _atom_site_fract_z
 _atom_site_occupancy
  Er  Er0  1  0.51188100  0.02376300  0.25000000  1
  Er  Er1  1  0.48811900  0.97623700  0.75000000  1
  Er  Er2  1  0.97623700  0.48811900  0.25000000  1
  Er  Er3  1  0.02376300  0.51188100  0.75000000  1
  Er  Er4  1  0.51188100  0.48811900  0.25000000  1
  Er  Er5  1  0.48811900  0.51188100  0.75000000  1
  Er  Er6  1  0.00000000  0.00000000  0.25000000  1
  Er  Er7  1  0.00000000  0.00000000  0.75000000  1
  Si  Si0  1  0.16554900  0.33109800  0.00181200  1
  Si  Si1  1  0.83445100  0.66890200  0.99818800  1
  Si  Si2  1  0.66890200  0.83445100  0.00181200  1
  Si  Si3  1  0.83445100  0.66890200  0.50181200  1
  Si  Si4  1  0.33109800  0.16554900  0.99818800  1
  Si  Si5  1  0.16554900  0.33109800  0.49818800  1
  Si  Si6  1  0.16554900  0.83445100  0.00181200  1
  Si  Si7  1  0.33109800  0.16554900  0.50181200  1
  Si  Si8  1  0.83445100  0.16554900  0.99818800  1
  Si  Si9  1  0.66890200  0.83445100  0.49818800  1
  Si  Si10  1  0.83445100  0.16554900  0.50181200  1
  Si  Si11  1  0.16554900  0.83445100  0.49818800  1
  Pd  Pd0  1  0.33333300  0.66666700  0.04337200  1
  Pd  Pd1  1  0.66666700  0.33333300  0.95662800  1
  Pd  Pd2  1  0.66666700  0.33333300  0.54337200  1
  Pd  Pd3  1  0.33333300  0.66666700  0.45662800  1
loop_
_geom_bond_atom_site_label_1
_geom_bond_atom_site_label_2
_geom_bond_distance
_geom_bond_site_symmetry_2
Er0 Pd3 2.999959 1_545
Er0 Pd0 2.999959 1_545
Er0 Si7 3.016746 1_555
Er0 Si4 3.016746 1_554
Er0 Si8 3.016752 1_554
Er0 Si10 3.016752 1_555
Er0 Si6 3.127647 1_545
Er0 Si11 3.127647 1_545
Er0 Si2 3.127652 1_545
Er0 Si9 3.127652 1_545
Er0 Pd1 3.167868 1_554
Er0 Pd2 3.167868 1_555
Er1 Pd1 2.999959 1_565
Er1 Pd2 2.999959 1_565
Er1 Si2 3.016746 1_556
Er1 Si9 3.016746 1_555
Er1 Si6 3.016752 1_556
Er1 Si11 3.016752 1_555
Er1 Si8 3.127647 1_565
Er1 Si10 3.127647 1_565
Er1 Si7 3.127652 1_565
Er1 Si4 3.127652 1_565
Er1 Pd0 3.167868 1_556
Er1 Pd3 3.167868 1_555
Er2 Pd3 2.999959 1_655
Er2 Pd0 2.999959 1_655
Er2 Si1 3.016746 1_554
Er2 Si3 3.016746 1_555
Er2 Si8 3.016752 1_554
Er2 Si10 3.016752 1_555
Er2 Si6 3.127647 1_655
Er2 Si11 3.127647 1_655
Er2 Si5 3.127652 1_655
Er2 Si0 3.127652 1_655
Er2 Pd1 3.167868 1_554
Er2 Pd2 3.167868 1_555
Er3 Pd1 2.999959 1_455
Er3 Pd2 2.999959 1_455
Er3 Si0 3.016746 1_556
Er3 Si5 3.016746 1_555
Er3 Si6 3.016752 1_556
Er3 Si11 3.016752 1_555
Er3 Si10 3.127647 1_455
Er3 Si8 3.127647 1_455
Er3 Si1 3.127652 1_455
Er3 Si3 3.127652 1_455
Er3 Pd0 3.167868 1_556
Er3 Pd3 3.167868 1_555
Er4 Pd0 2.999959 1_555
Er4 Pd3 2.999959 1_555
Er4 Si7 3.016751 1_555
Er4 Si1 3.016751 1_554
Er4 Si4 3.016751 1_554
Er4 Si3 3.016751 1_555
Er4 Si0 3.127646 1_555
Er4 Si9 3.127646 1_555
Er4 Si2 3.127646 1_555
Er4 Si5 3.127646 1_555
Er4 Pd1 3.167878 1_554
Er4 Pd2 3.167878 1_555
Er5 Pd1 2.999959 1_555
Er5 Pd2 2.999959 1_555
Er5 Si5 3.016751 1_555
Er5 Si9 3.016751 1_555
Er5 Si2 3.016751 1_556
Er5 Si0 3.016751 1_556
Er5 Si7 3.127646 1_555
Er5 Si4 3.127646 1_555
Er5 Si1 3.127646 1_555
Er5 Si3 3.127646 1_555
Er5 Pd3 3.167878 1_555
Er5 Pd0 3.167878 1_556
Er6 Si11 3.040687 1_545
Er6 Si6 3.040687 1_545
Er6 Si9 3.040687 1_445
Er6 Si0 3.040687 1_555
Er6 Si2 3.040687 1_445
Er6 Si5 3.040687 1_555
Er6 Si10 3.058693 1_455
Er6 Si8 3.058693 1_454
Er6 Si3 3.058693 1_445
Er6 Si7 3.058693 1_555
Er6 Si1 3.058693 1_444
Er6 Si4 3.058693 1_554
Er7 Si8 3.040687 1_455
Er7 Si10 3.040687 1_455
Er7 Si1 3.040687 1_445
Er7 Si3 3.040687 1_445
Er7 Si7 3.040687 1_555
Er7 Si4 3.040687 1_555
Er7 Si6 3.058693 1_546
Er7 Si11 3.058693 1_545
Er7 Si0 3.058693 1_556
Er7 Si2 3.058693 1_446
Er7 Si5 3.058693 1_555
Er7 Si9 3.058693 1_445
Si0 Si4 2.348004 1_554
Si0 Si8 2.348004 1_454
Si1 Si2 2.348004 1_556
Si1 Si6 2.348004 1_656
Si2 Si8 2.348004 1_564
Si3 Si9 2.348004 1_555
Si4 Si6 2.348004 1_546
Si5 Si7 2.348004 1_555
Si10 Si9 2.348004 1_545
Si10 Si5 2.348004 1_655
Si11 Si3 2.348004 1_455
Si11 Si7 2.348004 1_565
Pd0 Si6 2.401429 1_555
Pd0 Si2 2.401436 1_555
Pd0 Si0 2.401436 1_555
Pd1 Si8 2.401429 1_555
Pd1 Si4 2.401436 1_555
Pd1 Si1 2.401436 1_555
Pd2 Si10 2.401429 1_555
Pd2 Si7 2.401436 1_555
Pd2 Si3 2.401436 1_555
Pd3 Si11 2.401429 1_555
Pd3 Si9 2.401436 1_555
Pd3 Si5 2.401436 1_555
