# generated using pymatgen
data_Ge3Mo5
_symmetry_space_group_name_H-M   'P 1'
_cell_length_a   5.12920500
_cell_length_b   7.47604398
_cell_length_c   7.47920147
_cell_angle_alpha   119.98603790
_cell_angle_beta   90.00000000
_cell_angle_gamma   90.00000000
_symmetry_Int_Tables_number   1
_chemical_formula_structural   Ge3Mo5
_chemical_formula_sum   'Ge6 Mo10'
_cell_volume   248.40987275
_cell_formula_units_Z   2
loop_
 _symmetry_equiv_pos_site_id
 _symmetry_equiv_pos_as_xyz
  1  'x, y, z'
loop_
 _atom_site_type_symbol
 _atom_site_label
 _atom_site_symmetry_multiplicity
 _atom_site_fract_x
 _atom_site_fract_y
 _atom_site_fract_z
 _atom_site_occupancy
  Ge  Ge0  1  0.75000300  0.60643700  0.00000000  1
  Ge  Ge1  1  0.74999900  0.39233300  0.39204000  1
  Ge  Ge2  1  0.74999900  0.00029400  0.60796000  1
  Ge  Ge3  1  0.25000300  0.39356300  0.00000000  1
  Ge  Ge4  1  0.24999900  0.60766700  0.60796000  1
  Ge  Ge5  1  0.24999900  0.99970600  0.39204000  1
  Mo  Mo0  1  0.49999900  0.33293800  0.66587600  1
  Mo  Mo1  1  0.49999900  0.66706200  0.33412400  1
  Mo  Mo2  1  0.99999900  0.66706200  0.33412400  1
  Mo  Mo3  1  0.99999900  0.33293800  0.66587600  1
  Mo  Mo4  1  0.74999700  0.23265400  0.00000000  1
  Mo  Mo5  1  0.75000200  0.76647900  0.76777400  1
  Mo  Mo6  1  0.75000200  0.99870500  0.23222600  1
  Mo  Mo7  1  0.24999700  0.76734600  0.00000000  1
  Mo  Mo8  1  0.25000200  0.23352100  0.23222600  1
  Mo  Mo9  1  0.25000200  0.00129500  0.76777400  1
loop_
_geom_bond_atom_site_label_1
_geom_bond_atom_site_label_2
_geom_bond_distance
_geom_bond_site_symmetry_2
Ge0 Mo6 2.554509 1_555
Ge0 Mo5 2.554509 1_554
Ge0 Mo3 2.638640 1_554
Ge0 Mo2 2.638640 1_555
Ge0 Mo0 2.638660 1_554
Ge0 Mo1 2.638660 1_555
Ge0 Mo4 2.794418 1_555
Ge0 Mo7 2.832693 1_655
Ge0 Mo7 2.832748 1_555
Ge1 Mo4 2.554161 1_555
Ge1 Mo6 2.563725 1_545
Ge1 Mo2 2.634326 1_555
Ge1 Mo1 2.634326 1_555
Ge1 Mo3 2.635360 1_555
Ge1 Mo0 2.635360 1_555
Ge1 Mo5 2.804276 1_555
Ge1 Mo8 2.827881 1_555
Ge1 Mo8 2.827909 1_655
Ge2 Mo4 2.554160 1_556
Ge2 Mo5 2.563732 1_545
Ge2 Mo3 2.634320 1_555
Ge2 Mo0 2.634320 1_555
Ge2 Mo2 2.635364 1_545
Ge2 Mo1 2.635364 1_545
Ge2 Mo6 2.804272 1_545
Ge2 Mo9 2.827882 1_555
Ge2 Mo9 2.827910 1_655
Ge3 Mo9 2.554509 1_554
Ge3 Mo8 2.554509 1_555
Ge3 Mo1 2.638640 1_555
Ge3 Mo0 2.638640 1_554
Ge3 Mo2 2.638660 1_455
Ge3 Mo3 2.638660 1_454
Ge3 Mo7 2.794418 1_555
Ge3 Mo4 2.832693 1_555
Ge3 Mo4 2.832748 1_455
Ge4 Mo7 2.554161 1_556
Ge4 Mo9 2.563725 1_565
Ge4 Mo0 2.634326 1_555
Ge4 Mo3 2.634326 1_455
Ge4 Mo1 2.635360 1_555
Ge4 Mo2 2.635360 1_455
Ge4 Mo8 2.804276 1_555
Ge4 Mo5 2.827881 1_455
Ge4 Mo5 2.827909 1_555
Ge5 Mo7 2.554160 1_555
Ge5 Mo8 2.563732 1_565
Ge5 Mo1 2.634320 1_555
Ge5 Mo2 2.634320 1_455
Ge5 Mo0 2.635364 1_565
Ge5 Mo3 2.635364 1_465
Ge5 Mo9 2.804272 1_565
Ge5 Mo6 2.827882 1_455
Ge5 Mo6 2.827910 1_555
Mo0 Mo3 2.564602 1_455
Mo0 Mo3 2.564603 1_555
Mo1 Mo2 2.564602 1_455
Mo1 Mo2 2.564603 1_555
