# generated using pymatgen
data_Na6Zn3As4O19
_symmetry_space_group_name_H-M   'P 1'
_cell_length_a   12.33895401
_cell_length_b   12.33895401
_cell_length_c   12.33895401
_cell_angle_alpha   90.00000000
_cell_angle_beta   90.00000000
_cell_angle_gamma   90.00000000
_symmetry_Int_Tables_number   1
_chemical_formula_structural   Na6Zn3As4O19
_chemical_formula_sum   'Na24 Zn12 As16 O76'
_cell_volume   1878.60310824
_cell_formula_units_Z   4
loop_
 _symmetry_equiv_pos_site_id
 _symmetry_equiv_pos_as_xyz
  1  'x, y, z'
loop_
 _atom_site_type_symbol
 _atom_site_label
 _atom_site_symmetry_multiplicity
 _atom_site_fract_x
 _atom_site_fract_y
 _atom_site_fract_z
 _atom_site_occupancy
  Na  Na0  1  0.25172852  0.92398739  0.50878838  1
  Na  Na1  1  0.49121162  0.75172852  0.57601261  1
  Na  Na2  1  0.42398739  0.99121162  0.74827148  1
  Na  Na3  1  0.75172852  0.57601261  0.49121162  1
  Na  Na4  1  0.99121162  0.74827148  0.42398739  1
  Na  Na5  1  0.92398739  0.50878838  0.25172852  1
  Na  Na6  1  0.74827148  0.42398739  0.99121162  1
  Na  Na7  1  0.50878838  0.25172852  0.92398739  1
  Na  Na8  1  0.57601261  0.49121162  0.75172852  1
  Na  Na9  1  0.24827148  0.07601261  0.00878838  1
  Na  Na10  1  0.00878838  0.24827148  0.07601261  1
  Na  Na11  1  0.07601261  0.00878838  0.24827148  1
  Na  Na12  1  0.24653404  0.67515600  0.99304295  1
  Na  Na13  1  0.00695705  0.74653404  0.82484400  1
  Na  Na14  1  0.17515600  0.50695705  0.75346596  1
  Na  Na15  1  0.74653404  0.82484400  0.00695705  1
  Na  Na16  1  0.50695705  0.75346596  0.17515600  1
  Na  Na17  1  0.67515600  0.99304295  0.24653404  1
  Na  Na18  1  0.75346596  0.17515600  0.50695705  1
  Na  Na19  1  0.99304295  0.24653404  0.67515600  1
  Na  Na20  1  0.82484400  0.00695705  0.74653404  1
  Na  Na21  1  0.25346596  0.32484400  0.49304295  1
  Na  Na22  1  0.49304295  0.25346596  0.32484400  1
  Na  Na23  1  0.32484400  0.49304295  0.25346596  1
  Zn  Zn0  1  0.23763046  0.62619233  0.49480078  1
  Zn  Zn1  1  0.50519922  0.73763046  0.87380767  1
  Zn  Zn2  1  0.12619233  0.00519922  0.76236954  1
  Zn  Zn3  1  0.73763046  0.87380767  0.50519922  1
  Zn  Zn4  1  0.00519922  0.76236954  0.12619233  1
  Zn  Zn5  1  0.62619233  0.49480078  0.23763046  1
  Zn  Zn6  1  0.76236954  0.12619233  0.00519922  1
  Zn  Zn7  1  0.49480078  0.23763046  0.62619233  1
  Zn  Zn8  1  0.87380767  0.50519922  0.73763046  1
  Zn  Zn9  1  0.26236954  0.37380767  0.99480078  1
  Zn  Zn10  1  0.99480078  0.26236954  0.37380767  1
  Zn  Zn11  1  0.37380767  0.99480078  0.26236954  1
  As  As0  1  0.28029139  0.78029139  0.71970861  1
  As  As1  1  0.78029139  0.71970861  0.28029139  1
  As  As2  1  0.71970861  0.28029139  0.78029139  1
  As  As3  1  0.21970861  0.21970861  0.21970861  1
  As  As4  1  0.02687366  0.52687366  0.97312634  1
  As  As5  1  0.52687366  0.97312634  0.02687366  1
  As  As6  1  0.97312634  0.02687366  0.52687366  1
  As  As7  1  0.47312634  0.47312634  0.47312634  1
  As  As8  1  0.76354502  0.26354502  0.23645498  1
  As  As9  1  0.26354502  0.23645498  0.76354502  1
  As  As10  1  0.23645498  0.76354502  0.26354502  1
  As  As11  1  0.73645498  0.73645498  0.73645498  1
  As  As12  1  0.51740134  0.01740134  0.48259866  1
  As  As13  1  0.01740134  0.48259866  0.51740134  1
  As  As14  1  0.48259866  0.51740134  0.01740134  1
  As  As15  1  0.98259866  0.98259866  0.98259866  1
  O  O0  1  0.43883143  0.93883143  0.56116857  1
  O  O1  1  0.93883143  0.56116857  0.43883143  1
  O  O2  1  0.56116857  0.43883143  0.93883143  1
  O  O3  1  0.06116857  0.06116857  0.06116857  1
  O  O4  1  0.20121031  0.70121031  0.79878969  1
  O  O5  1  0.70121031  0.79878969  0.20121031  1
  O  O6  1  0.79878969  0.20121031  0.70121031  1
  O  O7  1  0.29878969  0.29878969  0.29878969  1
  O  O8  1  0.94732950  0.44732950  0.05267050  1
  O  O9  1  0.44732950  0.05267050  0.94732950  1
  O  O10  1  0.05267050  0.94732950  0.44732950  1
  O  O11  1  0.55267050  0.55267050  0.55267050  1
  O  O12  1  0.68433975  0.18433975  0.31566025  1
  O  O13  1  0.18433975  0.31566025  0.68433975  1
  O  O14  1  0.31566025  0.68433975  0.18433975  1
  O  O15  1  0.81566025  0.81566025  0.81566025  1
  O  O16  1  0.41391469  0.79492195  0.76038978  1
  O  O17  1  0.23961022  0.91391469  0.70507805  1
  O  O18  1  0.29492195  0.73961022  0.58608531  1
  O  O19  1  0.91391469  0.70507805  0.23961022  1
  O  O20  1  0.73961022  0.58608531  0.29492195  1
  O  O21  1  0.79492195  0.76038978  0.41391469  1
  O  O22  1  0.58608531  0.29492195  0.73961022  1
  O  O23  1  0.76038978  0.41391469  0.79492195  1
  O  O24  1  0.70507805  0.23961022  0.91391469  1
  O  O25  1  0.08608531  0.20507805  0.26038978  1
  O  O26  1  0.26038978  0.08608531  0.20507805  1
  O  O27  1  0.20507805  0.26038978  0.08608531  1
  O  O28  1  0.97248209  0.56065534  0.84806139  1
  O  O29  1  0.15193861  0.47248209  0.93934466  1
  O  O30  1  0.06065534  0.65193861  0.02751791  1
  O  O31  1  0.47248209  0.93934466  0.15193861  1
  O  O32  1  0.65193861  0.02751791  0.06065534  1
  O  O33  1  0.56065534  0.84806139  0.97248209  1
  O  O34  1  0.02751791  0.06065534  0.65193861  1
  O  O35  1  0.84806139  0.97248209  0.56065534  1
  O  O36  1  0.93934466  0.15193861  0.47248209  1
  O  O37  1  0.52751791  0.43934466  0.34806139  1
  O  O38  1  0.34806139  0.52751791  0.43934466  1
  O  O39  1  0.43934466  0.34806139  0.52751791  1
  O  O40  1  0.86354525  0.33181711  0.30924031  1
  O  O41  1  0.69075969  0.36354525  0.16818289  1
  O  O42  1  0.83181711  0.19075969  0.13645475  1
  O  O43  1  0.36354525  0.16818289  0.69075969  1
  O  O44  1  0.19075969  0.13645475  0.83181711  1
  O  O45  1  0.33181711  0.30924031  0.86354525  1
  O  O46  1  0.13645475  0.83181711  0.19075969  1
  O  O47  1  0.30924031  0.86354525  0.33181711  1
  O  O48  1  0.16818289  0.69075969  0.36354525  1
  O  O49  1  0.63645475  0.66818289  0.80924031  1
  O  O50  1  0.80924031  0.63645475  0.66818289  1
  O  O51  1  0.66818289  0.80924031  0.63645475  1
  O  O52  1  0.44524346  0.07862998  0.37827971  1
  O  O53  1  0.62172029  0.94524346  0.42137002  1
  O  O54  1  0.57862998  0.12172029  0.55475654  1
  O  O55  1  0.94524346  0.42137002  0.62172029  1
  O  O56  1  0.12172029  0.55475654  0.57862998  1
  O  O57  1  0.07862998  0.37827971  0.44524346  1
  O  O58  1  0.55475654  0.57862998  0.12172029  1
  O  O59  1  0.37827971  0.44524346  0.07862998  1
  O  O60  1  0.42137002  0.62172029  0.94524346  1
  O  O61  1  0.05475654  0.92137002  0.87827971  1
  O  O62  1  0.87827971  0.05475654  0.92137002  1
  O  O63  1  0.92137002  0.87827971  0.05475654  1
  O  O64  1  0.26521312  0.12357336  0.50246563  1
  O  O65  1  0.49753437  0.76521312  0.37642664  1
  O  O66  1  0.62357336  0.99753437  0.73478688  1
  O  O67  1  0.76521312  0.37642664  0.49753437  1
  O  O68  1  0.99753437  0.73478688  0.62357336  1
  O  O69  1  0.12357336  0.50246563  0.26521312  1
  O  O70  1  0.73478688  0.62357336  0.99753437  1
  O  O71  1  0.50246563  0.26521312  0.12357336  1
  O  O72  1  0.37642664  0.49753437  0.76521312  1
  O  O73  1  0.23478688  0.87642664  0.00246563  1
  O  O74  1  0.00246563  0.23478688  0.87642664  1
  O  O75  1  0.87642664  0.00246563  0.23478688  1
loop_
_geom_bond_atom_site_label_1
_geom_bond_atom_site_label_2
_geom_bond_distance
_geom_bond_site_symmetry_2
Na0 O0 2.404404 1_555
Na0 O47 2.414141 1_555
Na0 O17 2.429801 1_555
Na0 O64 2.469529 1_565
Na0 O18 2.523774 1_555
Na0 O10 2.586656 1_555
Na1 O0 2.404404 1_555
Na1 O51 2.414141 1_555
Na1 O18 2.429801 1_555
Na1 O65 2.469529 1_555
Na1 O16 2.523774 1_555
Na1 O11 2.586656 1_555
Na2 O0 2.404404 1_555
Na2 O43 2.414141 1_565
Na2 O16 2.429801 1_555
Na2 O66 2.469529 1_555
Na2 O17 2.523774 1_555
Na2 O9 2.586656 1_565
Na3 O1 2.404404 1_555
Na3 O50 2.414141 1_555
Na3 O20 2.429801 1_555
Na3 O67 2.469529 1_555
Na3 O21 2.523774 1_555
Na3 O11 2.586656 1_555
Na4 O1 2.404404 1_555
Na4 O48 2.414141 1_655
Na4 O21 2.429801 1_555
Na4 O68 2.469529 1_555
Na4 O19 2.523774 1_555
Na4 O10 2.586656 1_655
Na5 O1 2.404404 1_555
Na5 O40 2.414141 1_555
Na5 O19 2.429801 1_555
Na5 O69 2.469529 1_655
Na5 O20 2.523774 1_555
Na5 O8 2.586656 1_555
Na6 O2 2.404404 1_555
Na6 O41 2.414141 1_556
Na6 O23 2.429801 1_555
Na6 O70 2.469529 1_555
Na6 O24 2.523774 1_555
Na6 O8 2.586656 1_556
Na7 O2 2.404404 1_555
Na7 O45 2.414141 1_555
Na7 O24 2.429801 1_555
Na7 O71 2.469529 1_556
Na7 O22 2.523774 1_555
Na7 O9 2.586656 1_555
Na8 O2 2.404404 1_555
Na8 O49 2.414141 1_555
Na8 O22 2.429801 1_555
Na8 O72 2.469529 1_555
Na8 O23 2.523774 1_555
Na8 O11 2.586656 1_555
Na9 O3 2.404404 1_555
Na9 O44 2.414141 1_554
Na9 O26 2.429801 1_555
Na9 O73 2.469529 1_545
Na9 O27 2.523774 1_555
Na9 O9 2.586656 1_554
Na10 O3 2.404404 1_555
Na10 O42 2.414141 1_455
Na10 O27 2.429801 1_555
Na10 O74 2.469529 1_554
Na10 O25 2.523774 1_555
Na10 O8 2.586656 1_455
Na11 O3 2.404404 1_555
Na11 O46 2.414141 1_545
Na11 O25 2.429801 1_555
Na11 O75 2.469529 1_455
Na11 O26 2.523774 1_555
Na11 O10 2.586656 1_545
Na12 O60 2.331631 1_555
Na12 O30 2.350189 1_556
Na12 O4 2.482167 1_555
Na12 O73 2.490411 1_556
Na12 O14 2.512341 1_556
Na12 O29 2.838188 1_555
Na13 O61 2.331631 1_555
Na13 O28 2.350189 1_455
Na13 O4 2.482167 1_555
Na13 O68 2.490411 1_455
Na13 O15 2.512341 1_455
Na13 O30 2.838188 1_556
Na14 O56 2.331631 1_555
Na14 O29 2.350189 1_555
Na14 O4 2.482167 1_555
Na14 O72 2.490411 1_555
Na14 O13 2.512341 1_555
Na14 O28 2.838188 1_455
Na15 O63 2.331631 1_555
Na15 O33 2.350189 1_554
Na15 O5 2.482167 1_555
Na15 O70 2.490411 1_554
Na15 O15 2.512341 1_554
Na15 O32 2.838188 1_565
Na16 O58 2.331631 1_555
Na16 O31 2.350189 1_555
Na16 O5 2.482167 1_555
Na16 O65 2.490411 1_555
Na16 O14 2.512341 1_555
Na16 O33 2.838188 1_554
Na17 O53 2.331631 1_555
Na17 O32 2.350189 1_565
Na17 O5 2.482167 1_555
Na17 O75 2.490411 1_565
Na17 O12 2.512341 1_565
Na17 O31 2.838188 1_555
Na18 O54 2.331631 1_555
Na18 O36 2.350189 1_555
Na18 O6 2.482167 1_555
Na18 O67 2.490411 1_555
Na18 O12 2.512341 1_555
Na18 O35 2.838188 1_545
Na19 O55 2.331631 1_555
Na19 O34 2.350189 1_655
Na19 O6 2.482167 1_555
Na19 O74 2.490411 1_655
Na19 O13 2.512341 1_655
Na19 O36 2.838188 1_555
Na20 O62 2.331631 1_555
Na20 O35 2.350189 1_545
Na20 O6 2.482167 1_555
Na20 O66 2.490411 1_545
Na20 O15 2.512341 1_545
Na20 O34 2.838188 1_655
Na21 O57 2.331631 1_555
Na21 O39 2.350189 1_555
Na21 O7 2.482167 1_555
Na21 O64 2.490411 1_555
Na21 O13 2.512341 1_555
Na21 O38 2.838188 1_555
Na22 O52 2.331631 1_555
Na22 O37 2.350189 1_555
Na22 O7 2.482167 1_555
Na22 O71 2.490411 1_555
Na22 O12 2.512341 1_555
Na22 O39 2.838188 1_555
Na23 O59 2.331631 1_555
Na23 O38 2.350189 1_555
Na23 O7 2.482167 1_555
Na23 O69 2.490411 1_555
Na23 O14 2.512341 1_555
Na23 O37 2.838188 1_555
As0 O4 1.690097 1_555
As0 O17 1.732918 1_555
As0 O18 1.732918 1_555
As0 O16 1.732918 1_555
As1 O5 1.690097 1_555
As1 O19 1.732918 1_555
As1 O21 1.732918 1_555
As1 O20 1.732918 1_555
As2 O6 1.690097 1_555
As2 O24 1.732918 1_555
As2 O23 1.732918 1_555
As2 O22 1.732918 1_555
As3 O7 1.690097 1_555
As3 O26 1.732918 1_555
As3 O25 1.732918 1_555
As3 O27 1.732918 1_555
As4 O8 1.699994 1_456
As4 O30 1.733651 1_556
As4 O28 1.733651 1_455
As4 O29 1.733651 1_555
As5 O9 1.699994 1_564
As5 O32 1.733651 1_565
As5 O33 1.733651 1_554
As5 O31 1.733651 1_555
As6 O10 1.699994 1_645
As6 O34 1.733651 1_655
As6 O36 1.733651 1_555
As6 O35 1.733651 1_545
As7 O11 1.699994 1_555
As7 O39 1.733651 1_555
As7 O37 1.733651 1_555
As7 O38 1.733651 1_555
As8 O12 1.692751 1_555
As8 O41 1.743195 1_555
As8 O42 1.743195 1_555
As8 O40 1.743195 1_555
As9 O13 1.692751 1_555
As9 O43 1.743195 1_555
As9 O44 1.743195 1_555
As9 O45 1.743195 1_555
As10 O14 1.692751 1_555
As10 O48 1.743195 1_555
As10 O46 1.743195 1_555
As10 O47 1.743195 1_555
As11 O15 1.692751 1_555
As11 O51 1.743195 1_555
As11 O49 1.743195 1_555
As11 O50 1.743195 1_555
As12 O0 1.679172 1_545
As12 O54 1.737917 1_555
As12 O53 1.737917 1_545
As12 O52 1.737917 1_555
As13 O1 1.679172 1_455
As13 O56 1.737917 1_555
As13 O55 1.737917 1_455
As13 O57 1.737917 1_555
As14 O2 1.679172 1_554
As14 O58 1.737917 1_555
As14 O60 1.737917 1_554
As14 O59 1.737917 1_555
As15 O3 1.679172 1_666
As15 O62 1.737917 1_565
As15 O61 1.737917 1_655
As15 O63 1.737917 1_556
O16 Zn1 1.930516 1_555
O17 Zn2 1.930516 1_565
O18 Zn0 1.930516 1_555
O19 Zn4 1.930516 1_655
O20 Zn5 1.930516 1_555
O21 Zn3 1.930516 1_555
O22 Zn7 1.930516 1_555
O23 Zn8 1.930516 1_555
O24 Zn6 1.930516 1_556
O25 Zn10 1.930516 1_455
O26 Zn11 1.930516 1_545
O27 Zn9 1.930516 1_554
O28 Zn8 1.951234 1_555
O29 Zn9 1.951234 1_555
O30 Zn4 1.951234 1_555
O31 Zn11 1.951234 1_555
O32 Zn6 1.951234 1_555
O33 Zn1 1.951234 1_555
O34 Zn2 1.951234 1_555
O35 Zn3 1.951234 1_555
O36 Zn10 1.951234 1_555
O37 Zn5 1.951234 1_555
O38 Zn0 1.951234 1_555
O39 Zn7 1.951234 1_555
O40 Zn10 1.997993 1_555
O41 Zn5 1.997993 1_555
O42 Zn6 1.997993 1_555
O43 Zn7 1.997993 1_555
O44 Zn2 1.997993 1_555
O45 Zn9 1.997993 1_555
O46 Zn4 1.997993 1_555
O47 Zn11 1.997993 1_555
O48 Zn0 1.997993 1_555
O49 Zn1 1.997993 1_555
O50 Zn8 1.997993 1_555
O51 Zn3 1.997993 1_555
O52 Zn11 1.972905 1_545
O53 Zn3 1.972905 1_555
O54 Zn7 1.972905 1_555
O55 Zn8 1.972905 1_555
O56 Zn0 1.972905 1_555
O57 Zn10 1.972905 1_455
O58 Zn5 1.972905 1_555
O59 Zn9 1.972905 1_554
O60 Zn1 1.972905 1_555
O61 Zn2 1.972905 1_565
O62 Zn6 1.972905 1_556
O63 Zn4 1.972905 1_655
