# generated using pymatgen
data_UGaAu
_symmetry_space_group_name_H-M   'P 1'
_cell_length_a   4.82568773
_cell_length_b   4.82568773
_cell_length_c   5.88827840
_cell_angle_alpha   90.00000000
_cell_angle_beta   90.00000000
_cell_angle_gamma   119.99999059
_symmetry_Int_Tables_number   1
_chemical_formula_structural   UGaAu
_chemical_formula_sum   'U2 Ga2 Au2'
_cell_volume   118.75104486
_cell_formula_units_Z   2
loop_
 _symmetry_equiv_pos_site_id
 _symmetry_equiv_pos_as_xyz
  1  'x, y, z'
loop_
 _atom_site_type_symbol
 _atom_site_label
 _atom_site_symmetry_multiplicity
 _atom_site_fract_x
 _atom_site_fract_y
 _atom_site_fract_z
 _atom_site_occupancy
  U  U0  1  0.00000000  0.00000000  0.00000000  1
  U  U1  1  0.00000000  0.00000000  0.50000000  1
  Ga  Ga0  1  0.66666700  0.33333300  0.25007216  1
  Ga  Ga1  1  0.33333300  0.66666700  0.74992784  1
  Au  Au0  1  0.33333300  0.66666700  0.25002441  1
  Au  Au1  1  0.66666700  0.33333300  0.74997559  1
loop_
_geom_bond_atom_site_label_1
_geom_bond_atom_site_label_2
_geom_bond_distance
_geom_bond_site_symmetry_2
U0 U1 2.944139 1_555
U0 U1 2.944139 1_554
Ga0 U1 3.150896 1_655
Ga0 U1 3.150900 1_665
Ga0 U1 3.150900 1_555
Ga0 U0 3.151293 1_655
Ga0 U0 3.151297 1_555
Ga0 U0 3.151297 1_665
Ga1 U1 3.150896 1_565
Ga1 U1 3.150900 1_665
Ga1 U1 3.150900 1_555
Ga1 U0 3.151293 1_566
Ga1 U0 3.151297 1_666
Ga1 U0 3.151297 1_556
Au0 Ga0 2.786110 1_455
Au0 Ga0 2.786110 1_565
Au0 Ga0 2.786118 1_555
Au0 Ga1 2.943571 1_555
Au0 Ga1 2.944708 1_554
Au0 U1 3.151027 1_565
Au0 U1 3.151031 1_665
Au0 U1 3.151031 1_555
Au0 U0 3.151161 1_565
Au0 U0 3.151165 1_555
Au0 U0 3.151165 1_665
Au1 Ga1 2.786110 1_545
Au1 Ga1 2.786110 1_655
Au1 Ga1 2.786118 1_555
Au1 Ga0 2.943571 1_555
Au1 Ga0 2.944708 1_556
Au1 U1 3.151027 1_655
Au1 U1 3.151031 1_665
Au1 U1 3.151031 1_555
Au1 U0 3.151161 1_656
Au1 U0 3.151165 1_666
Au1 U0 3.151165 1_556
