# generated using pymatgen
data_Sr2Mg3In5
_symmetry_space_group_name_H-M   'P 1'
_cell_length_a   4.66160900
_cell_length_b   4.66160900
_cell_length_c   13.35286400
_cell_angle_alpha   90.00000000
_cell_angle_beta   90.00000000
_cell_angle_gamma   90.00000000
_symmetry_Int_Tables_number   1
_chemical_formula_structural   Sr2Mg3In5
_chemical_formula_sum   'Sr2 Mg3 In5'
_cell_volume   290.16572599
_cell_formula_units_Z   1
loop_
 _symmetry_equiv_pos_site_id
 _symmetry_equiv_pos_as_xyz
  1  'x, y, z'
loop_
 _atom_site_type_symbol
 _atom_site_label
 _atom_site_symmetry_multiplicity
 _atom_site_fract_x
 _atom_site_fract_y
 _atom_site_fract_z
 _atom_site_occupancy
  Sr  Sr0  1  0.50000000  0.00000000  0.75100600  1
  Sr  Sr1  1  0.00000000  0.50000000  0.24899400  1
  Mg  Mg0  1  0.00000000  0.00000000  0.50000000  1
  Mg  Mg1  1  0.00000000  0.00000000  0.00000000  1
  Mg  Mg2  1  0.50000000  0.50000000  0.50000000  1
  In  In0  1  0.50000000  0.00000000  0.14318200  1
  In  In1  1  0.00000000  0.50000000  0.64006300  1
  In  In2  1  0.00000000  0.50000000  0.85681800  1
  In  In3  1  0.50000000  0.00000000  0.35993700  1
  In  In4  1  0.50000000  0.50000000  0.00000000  1
loop_
_geom_bond_atom_site_label_1
_geom_bond_atom_site_label_2
_geom_bond_distance
_geom_bond_site_symmetry_2
Mg0 Mg2 3.296255 1_555
Mg0 Mg2 3.296255 1_455
Mg0 Mg2 3.296255 1_445
Mg0 Mg2 3.296255 1_545
In0 In3 2.894300 1_555
In0 Mg1 3.014626 1_555
In0 In4 3.014626 1_555
In0 Mg1 3.014626 1_655
In0 In4 3.014626 1_545
In0 Sr1 3.586303 1_645
In0 Sr1 3.586303 1_555
In0 Sr1 3.586303 1_655
In0 Sr1 3.586303 1_545
In1 In2 2.894300 1_555
In1 Mg0 2.988387 1_555
In1 Mg0 2.988387 1_565
In1 Mg2 2.988387 1_455
In1 Mg2 2.988387 1_555
In1 Sr0 3.613844 1_455
In1 Sr0 3.613844 1_465
In1 Sr0 3.613844 1_555
In1 Sr0 3.613844 1_565
In2 Mg1 3.014626 1_566
In2 In4 3.014626 1_556
In2 Mg1 3.014626 1_556
In2 In4 3.014626 1_456
In2 Sr0 3.586303 1_465
In2 Sr0 3.586303 1_555
In2 Sr0 3.586303 1_565
In2 Sr0 3.586303 1_455
In3 Mg2 2.988387 1_545
In3 Mg0 2.988387 1_655
In3 Mg2 2.988387 1_555
In3 Mg0 2.988387 1_555
In3 Sr1 3.613844 1_555
In3 Sr1 3.613844 1_655
In3 Sr1 3.613844 1_545
In3 Sr1 3.613844 1_645
In4 Mg1 3.296255 1_555
In4 Mg1 3.296255 1_655
In4 Mg1 3.296255 1_665
In4 Mg1 3.296255 1_565
