# generated using pymatgen
data_Mn7CoSb4
_symmetry_space_group_name_H-M   'P 1'
_cell_length_a   3.95022100
_cell_length_b   3.95022100
_cell_length_c   12.83912400
_cell_angle_alpha   90.00000000
_cell_angle_beta   90.00000000
_cell_angle_gamma   90.00000000
_symmetry_Int_Tables_number   1
_chemical_formula_structural   Mn7CoSb4
_chemical_formula_sum   'Mn7 Co1 Sb4'
_cell_volume   200.34484866
_cell_formula_units_Z   1
loop_
 _symmetry_equiv_pos_site_id
 _symmetry_equiv_pos_as_xyz
  1  'x, y, z'
loop_
 _atom_site_type_symbol
 _atom_site_label
 _atom_site_symmetry_multiplicity
 _atom_site_fract_x
 _atom_site_fract_y
 _atom_site_fract_z
 _atom_site_occupancy
  Mn  Mn0  1  0.50000000  0.00000000  0.35700000  1
  Mn  Mn1  1  0.50000000  0.00000000  0.86386100  1
  Mn  Mn2  1  0.00000000  0.50000000  0.13613900  1
  Mn  Mn3  1  0.00000000  0.50000000  0.64300000  1
  Mn  Mn4  1  0.50000000  0.50000000  0.50000000  1
  Mn  Mn5  1  0.00000000  0.00000000  0.00000000  1
  Mn  Mn6  1  0.00000000  0.00000000  0.50000000  1
  Co  Co0  1  0.50000000  0.50000000  0.00000000  1
  Sb  Sb0  1  0.50000000  0.00000000  0.14405900  1
  Sb  Sb1  1  0.50000000  0.00000000  0.64445000  1
  Sb  Sb2  1  0.00000000  0.50000000  0.35555000  1
  Sb  Sb3  1  0.00000000  0.50000000  0.85594100  1
loop_
_geom_bond_atom_site_label_1
_geom_bond_atom_site_label_2
_geom_bond_distance
_geom_bond_site_symmetry_2
Mn0 Mn4 2.696653 1_555
Mn0 Mn6 2.696653 1_655
Mn0 Mn4 2.696653 1_545
Mn0 Mn6 2.696653 1_555
Mn0 Sb0 2.733976 1_555
Mn0 Sb2 2.793290 1_545
Mn0 Sb2 2.793290 1_645
Mn0 Sb2 2.793290 1_555
Mn0 Sb2 2.793290 1_655
Mn1 Mn5 2.637468 1_556
Mn1 Mn5 2.637468 1_656
Mn1 Sb3 2.795078 1_645
Mn1 Sb3 2.795078 1_555
Mn1 Sb3 2.795078 1_545
Mn1 Sb3 2.795078 1_655
Mn1 Sb1 2.817045 1_555
Mn2 Mn5 2.637468 1_555
Mn2 Mn5 2.637468 1_565
Mn2 Sb0 2.795078 1_465
Mn2 Sb0 2.795078 1_455
Mn2 Sb0 2.795078 1_555
Mn2 Sb0 2.795078 1_565
Mn2 Sb2 2.817045 1_555
Mn3 Mn4 2.696653 1_555
Mn3 Mn6 2.696653 1_565
Mn3 Mn6 2.696653 1_555
Mn3 Mn4 2.696653 1_455
Mn3 Sb3 2.733976 1_555
Mn3 Sb1 2.793290 1_455
Mn3 Sb1 2.793290 1_565
Mn3 Sb1 2.793290 1_555
Mn3 Sb1 2.793290 1_465
Mn4 Sb2 2.709363 1_555
Mn4 Sb2 2.709363 1_655
Mn4 Sb1 2.709363 1_565
Mn4 Sb1 2.709363 1_555
Mn4 Mn6 2.793228 1_555
Mn4 Mn6 2.793228 1_565
Mn4 Mn6 2.793228 1_655
Mn4 Mn6 2.793228 1_665
Mn5 Sb0 2.705929 1_455
Mn5 Sb0 2.705929 1_555
Mn5 Sb3 2.705929 1_554
Mn5 Sb3 2.705929 1_544
Mn6 Sb2 2.709363 1_545
Mn6 Sb2 2.709363 1_555
Mn6 Sb1 2.709363 1_455
Mn6 Sb1 2.709363 1_555
Co0 Mn2 2.637468 1_555
Co0 Mn2 2.637468 1_655
Co0 Mn1 2.637468 1_564
Co0 Mn1 2.637468 1_554
Co0 Sb0 2.705929 1_555
Co0 Sb0 2.705929 1_565
Co0 Sb3 2.705929 1_554
Co0 Sb3 2.705929 1_654
Co0 Mn5 2.793228 1_655
Co0 Mn5 2.793228 1_565
Co0 Mn5 2.793228 1_665
Co0 Mn5 2.793228 1_555
