# generated using pymatgen
data_MgSi2
_symmetry_space_group_name_H-M   'P 1'
_cell_length_a   4.77117900
_cell_length_b   5.93448144
_cell_length_c   7.69555819
_cell_angle_alpha   109.16152187
_cell_angle_beta   92.88740946
_cell_angle_gamma   89.44001710
_symmetry_Int_Tables_number   1
_chemical_formula_structural   MgSi2
_chemical_formula_sum   'Mg4 Si8'
_cell_volume   205.55702323
_cell_formula_units_Z   4
loop_
 _symmetry_equiv_pos_site_id
 _symmetry_equiv_pos_as_xyz
  1  'x, y, z'
loop_
 _atom_site_type_symbol
 _atom_site_label
 _atom_site_symmetry_multiplicity
 _atom_site_fract_x
 _atom_site_fract_y
 _atom_site_fract_z
 _atom_site_occupancy
  Mg  Mg0  1  0.87120500  0.34995300  0.07122900  1
  Mg  Mg1  1  0.86073800  0.36105600  0.70006200  1
  Mg  Mg2  1  0.36615900  0.68619500  0.73896900  1
  Mg  Mg3  1  0.80719400  0.97003700  0.31738400  1
  Si  Si0  1  0.90044900  0.82204200  0.95495700  1
  Si  Si1  1  0.36195400  0.32110000  0.89594400  1
  Si  Si2  1  0.72463200  0.52727100  0.41615300  1
  Si  Si3  1  0.32582400  0.02109900  0.55510500  1
  Si  Si4  1  0.32463500  0.67971800  0.22453700  1
  Si  Si5  1  0.35500500  0.03515000  0.08119900  1
  Si  Si6  1  0.85357600  0.89037900  0.65885200  1
  Si  Si7  1  0.24886000  0.33603100  0.38534100  1
loop_
_geom_bond_atom_site_label_1
_geom_bond_atom_site_label_2
_geom_bond_distance
_geom_bond_site_symmetry_2
Mg0 Si2 2.642182 1_555
Mg0 Si1 2.697921 1_554
Mg0 Si1 2.736791 1_654
Mg0 Si4 2.865645 1_655
Mg0 Mg1 2.876563 1_554
Mg0 Si7 2.964134 1_655
Mg0 Si0 2.966283 1_544
Mg0 Si5 2.969212 1_655
Mg0 Si5 3.124883 1_555
Mg0 Si0 3.214799 1_554
Mg1 Si6 2.706123 1_545
Mg1 Si2 2.725345 1_555
Mg1 Si0 2.796009 1_555
Mg1 Si1 2.812060 1_655
Mg1 Si1 2.932409 1_555
Mg1 Si3 2.987148 1_655
Mg1 Si7 3.086653 1_655
Mg1 Si3 3.188192 1_555
Mg2 Si5 2.767505 1_566
Mg2 Si3 2.792908 1_565
Mg2 Si0 2.794154 1_455
Mg2 Si1 2.806339 1_555
Mg2 Si6 2.818967 1_555
Mg2 Si6 2.847822 1_455
Mg2 Si7 2.862553 1_555
Mg2 Si0 2.940185 1_555
Mg2 Si2 2.974005 1_555
Mg3 Si0 2.693996 1_554
Mg3 Si4 2.807756 1_555
Mg3 Si6 2.816480 1_555
Mg3 Si5 2.856096 1_565
Mg3 Si7 2.943529 1_665
Mg3 Si3 2.959093 1_665
Mg3 Si3 2.959583 1_565
Mg3 Si4 2.976630 1_655
Mg3 Si2 2.999764 1_555
Mg3 Si2 3.165931 1_565
Si0 Si6 2.441405 1_555
Si0 Si5 2.506308 1_666
Si1 Si5 2.550934 1_556
Si1 Si3 2.640856 1_555
Si1 Si4 2.731383 1_556
Si2 Si6 2.403818 1_555
Si2 Si7 2.513282 1_555
Si2 Si4 2.682087 1_555
Si2 Si7 2.725396 1_655
Si3 Si7 2.622160 1_555
Si3 Si6 2.634014 1_445
Si3 Si4 2.681670 1_545
Si3 Si6 2.783058 1_545
Si4 Si5 2.690054 1_565
Si4 Si7 2.745618 1_555
Si5 Si7 2.506218 1_555
