# generated using pymatgen
data_Cd2Se3N2O15
_symmetry_space_group_name_H-M   'P 1'
_cell_length_a   19.23317300
_cell_length_b   5.23722400
_cell_length_c   7.11281697
_cell_angle_alpha   85.85966956
_cell_angle_beta   90.00000000
_cell_angle_gamma   90.00000000
_symmetry_Int_Tables_number   1
_chemical_formula_structural   Cd2Se3N2O15
_chemical_formula_sum   'Cd4 Se6 N4 O30'
_cell_volume   714.59310456
_cell_formula_units_Z   2
loop_
 _symmetry_equiv_pos_site_id
 _symmetry_equiv_pos_as_xyz
  1  'x, y, z'
loop_
 _atom_site_type_symbol
 _atom_site_label
 _atom_site_symmetry_multiplicity
 _atom_site_fract_x
 _atom_site_fract_y
 _atom_site_fract_z
 _atom_site_occupancy
  Cd  Cd0  1  0.57413500  0.78607800  0.24163600  1
  Cd  Cd1  1  0.07413500  0.21392200  0.75836400  1
  Cd  Cd2  1  0.42586500  0.21392200  0.75836400  1
  Cd  Cd3  1  0.92586500  0.78607800  0.24163600  1
  Se  Se0  1  0.25000000  0.03275400  0.66393700  1
  Se  Se1  1  0.75000000  0.96724600  0.33606300  1
  Se  Se2  1  0.55194600  0.68665100  0.76253000  1
  Se  Se3  1  0.05194600  0.31334900  0.23747000  1
  Se  Se4  1  0.44805400  0.31334900  0.23747000  1
  Se  Se5  1  0.94805400  0.68665100  0.76253000  1
  N  N0  1  0.69872300  0.31078200  0.80864000  1
  N  N1  1  0.19872300  0.68921800  0.19136000  1
  N  N2  1  0.30127700  0.68921800  0.19136000  1
  N  N3  1  0.80127700  0.31078200  0.80864000  1
  O  O0  1  0.25000000  0.34657300  0.58024700  1
  O  O1  1  0.75000000  0.65342700  0.41975300  1
  O  O2  1  0.25000000  0.84589200  0.25296100  1
  O  O3  1  0.75000000  0.15410800  0.74703900  1
  O  O4  1  0.32158000  0.97232900  0.79729700  1
  O  O5  1  0.82158000  0.02767100  0.20270300  1
  O  O6  1  0.67842000  0.02767100  0.20270300  1
  O  O7  1  0.17842000  0.97232900  0.79729700  1
  O  O8  1  0.47580200  0.82321000  0.80768300  1
  O  O9  1  0.97580200  0.17679000  0.19231700  1
  O  O10  1  0.52419800  0.17679000  0.19231700  1
  O  O11  1  0.02419800  0.82321000  0.80768300  1
  O  O12  1  0.46520600  0.61652200  0.28256200  1
  O  O13  1  0.96520600  0.38347800  0.71743800  1
  O  O14  1  0.53479400  0.38347800  0.71743800  1
  O  O15  1  0.03479400  0.61652200  0.28256200  1
  O  O16  1  0.59299800  0.83335600  0.57191000  1
  O  O17  1  0.09299800  0.16664400  0.42809000  1
  O  O18  1  0.40700200  0.16664400  0.42809000  1
  O  O19  1  0.90700200  0.83335600  0.57191000  1
  O  O20  1  0.60667000  0.70283600  0.94336700  1
  O  O21  1  0.10667000  0.29716400  0.05663300  1
  O  O22  1  0.39333000  0.29716400  0.05663300  1
  O  O23  1  0.89333000  0.70283600  0.94336700  1
  O  O24  1  0.63841100  0.48959400  0.43523400  1
  O  O25  1  0.13841100  0.51040600  0.56476600  1
  O  O26  1  0.36158900  0.51040600  0.56476600  1
  O  O27  1  0.86158900  0.48959400  0.43523400  1
  O  O28  1  0.25000000  0.53190800  0.13156600  1
  O  O29  1  0.75000000  0.46809200  0.86843400  1
loop_
_geom_bond_atom_site_label_1
_geom_bond_atom_site_label_2
_geom_bond_distance
_geom_bond_site_symmetry_2
Cd0 O10 2.264727 1_565
Cd0 O20 2.283874 1_554
Cd0 O12 2.285869 1_555
Cd0 O24 2.350907 1_555
Cd0 O6 2.376968 1_565
Cd0 O16 2.407397 1_555
Cd1 O11 2.264727 1_545
Cd1 O21 2.283874 1_556
Cd1 O13 2.285869 1_455
Cd1 O25 2.350907 1_555
Cd1 O7 2.376968 1_545
Cd1 O17 2.407397 1_555
Cd2 O8 2.264727 1_545
Cd2 O22 2.283874 1_556
Cd2 O14 2.285869 1_555
Cd2 O26 2.350907 1_555
Cd2 O4 2.376968 1_545
Cd2 O18 2.407397 1_555
Cd3 O9 2.264727 1_565
Cd3 O23 2.283874 1_554
Cd3 O15 2.285869 1_655
Cd3 O27 2.350907 1_555
Cd3 O5 2.376968 1_565
Cd3 O19 2.407397 1_555
N0 O29 1.372176 1_555
N0 O3 1.374702 1_555
N1 O28 1.372176 1_555
N1 O2 1.374702 1_555
N2 O28 1.372176 1_555
N2 O2 1.374702 1_555
N3 O29 1.372176 1_555
N3 O3 1.374702 1_555
O0 Se0 1.707132 1_555
O1 Se1 1.707132 1_555
O4 Se0 1.688759 1_565
O5 Se1 1.688759 1_545
O6 Se1 1.688759 1_545
O7 Se0 1.688759 1_565
O8 Se2 1.671091 1_555
O9 Se3 1.671091 1_655
O10 Se4 1.671091 1_555
O11 Se5 1.671091 1_455
O12 Se4 1.675199 1_555
O13 Se5 1.675199 1_555
O14 Se2 1.675199 1_555
O15 Se3 1.675199 1_555
O16 Se2 1.703415 1_555
O17 Se3 1.703415 1_555
O18 Se4 1.703415 1_555
O19 Se5 1.703415 1_555
O20 Se2 1.668887 1_555
O21 Se3 1.668887 1_555
O22 Se4 1.668887 1_555
O23 Se5 1.668887 1_555
