# generated using pymatgen
data_Y5Zr3(Ni4As3)4
_symmetry_space_group_name_H-M   'P 1'
_cell_length_a   12.83682873
_cell_length_b   12.83682873
_cell_length_c   3.93939600
_cell_angle_alpha   90.00000000
_cell_angle_beta   90.00000000
_cell_angle_gamma   120.00000378
_symmetry_Int_Tables_number   1
_chemical_formula_structural   Y5Zr3(Ni4As3)4
_chemical_formula_sum   'Y5 Zr3 Ni16 As12'
_cell_volume   562.18046284
_cell_formula_units_Z   1
loop_
 _symmetry_equiv_pos_site_id
 _symmetry_equiv_pos_as_xyz
  1  'x, y, z'
loop_
 _atom_site_type_symbol
 _atom_site_label
 _atom_site_symmetry_multiplicity
 _atom_site_fract_x
 _atom_site_fract_y
 _atom_site_fract_z
 _atom_site_occupancy
  Y  Y0  1  0.18222200  0.18222200  0.50000000  1
  Y  Y1  1  0.81777800  0.00000000  0.50000000  1
  Y  Y2  1  0.00000000  0.81777800  0.50000000  1
  Y  Y3  1  0.33333300  0.66666700  0.00000000  1
  Y  Y4  1  0.66666700  0.33333300  0.00000000  1
  Zr  Zr0  1  0.56232900  0.56232900  0.00000000  1
  Zr  Zr1  1  0.43767100  0.00000000  0.00000000  1
  Zr  Zr2  1  0.00000000  0.43767100  0.00000000  1
  Ni  Ni0  1  0.72302900  0.72302900  0.50000000  1
  Ni  Ni1  1  0.27697100  0.00000000  0.50000000  1
  Ni  Ni2  1  0.00000000  0.27697100  0.50000000  1
  Ni  Ni3  1  0.18211600  0.37472700  0.00000000  1
  Ni  Ni4  1  0.62527300  0.80738900  0.00000000  1
  Ni  Ni5  1  0.19261100  0.81788400  0.00000000  1
  Ni  Ni6  1  0.80738900  0.62527300  0.00000000  1
  Ni  Ni7  1  0.81788400  0.19261100  0.00000000  1
  Ni  Ni8  1  0.37472700  0.18211600  0.00000000  1
  Ni  Ni9  1  0.36051700  0.48150300  0.50000000  1
  Ni  Ni10  1  0.51849700  0.87901500  0.50000000  1
  Ni  Ni11  1  0.12098500  0.63948300  0.50000000  1
  Ni  Ni12  1  0.87901500  0.51849700  0.50000000  1
  Ni  Ni13  1  0.63948300  0.12098500  0.50000000  1
  Ni  Ni14  1  0.48150300  0.36051700  0.50000000  1
  Ni  Ni15  1  0.00000000  0.00000000  0.00000000  1
  As  As0  1  0.82178500  0.82178500  0.00000000  1
  As  As1  1  0.17821500  0.00000000  0.00000000  1
  As  As2  1  0.00000000  0.17821500  0.00000000  1
  As  As3  1  0.17186600  0.47940600  0.50000000  1
  As  As4  1  0.52059400  0.69246000  0.50000000  1
  As  As5  1  0.30754000  0.82813400  0.50000000  1
  As  As6  1  0.69246000  0.52059400  0.50000000  1
  As  As7  1  0.82813400  0.30754000  0.50000000  1
  As  As8  1  0.47940600  0.17186600  0.50000000  1
  As  As9  1  0.35488800  0.35488800  0.00000000  1
  As  As10  1  0.64511200  0.00000000  0.00000000  1
  As  As11  1  0.00000000  0.64511200  0.00000000  1
loop_
_geom_bond_atom_site_label_1
_geom_bond_atom_site_label_2
_geom_bond_distance
_geom_bond_site_symmetry_2
Ni0 Zr0 2.852223 1_556
Ni0 Zr0 2.852223 1_555
Ni0 Y1 3.129859 1_565
Ni0 Y2 3.129859 1_655
Ni1 Zr1 2.852223 1_556
Ni1 Zr1 2.852223 1_555
Ni1 Y2 3.129859 1_545
Ni1 Y0 3.129860 1_555
Ni2 Zr2 2.852223 1_555
Ni2 Zr2 2.852223 1_556
Ni2 Y1 3.129859 1_455
Ni2 Y0 3.129860 1_555
Ni3 Zr2 2.829678 1_555
Ni3 Y0 3.160645 1_554
Ni3 Y0 3.160645 1_555
Ni3 Y3 3.246201 1_555
Ni4 Zr0 2.829678 1_555
Ni4 Y1 3.160645 1_565
Ni4 Y1 3.160645 1_564
Ni4 Y3 3.246202 1_555
Ni5 Zr1 2.829678 1_565
Ni5 Y2 3.160645 1_555
Ni5 Y2 3.160645 1_554
Ni5 Y3 3.246191 1_555
Ni6 Zr0 2.829678 1_555
Ni6 Y2 3.160645 1_654
Ni6 Y2 3.160645 1_655
Ni6 Y4 3.246202 1_555
Ni7 Zr2 2.829678 1_655
Ni7 Y1 3.160645 1_555
Ni7 Y1 3.160645 1_554
Ni7 Y4 3.246191 1_555
Ni8 Zr1 2.829678 1_555
Ni8 Y0 3.160645 1_554
Ni8 Y0 3.160645 1_555
Ni8 Y4 3.246201 1_555
Ni9 Zr0 2.996608 1_556
Ni9 Zr0 2.996608 1_555
Ni9 Y3 3.237385 1_556
Ni9 Y3 3.237385 1_555
Ni9 Y0 3.347384 1_555
Ni10 Zr1 2.996599 1_566
Ni10 Zr1 2.996599 1_565
Ni10 Y3 3.237385 1_555
Ni10 Y3 3.237385 1_556
Ni10 Y1 3.347385 1_565
Ni11 Zr2 2.996607 1_555
Ni11 Zr2 2.996607 1_556
Ni11 Y3 3.237385 1_555
Ni11 Y3 3.237385 1_556
Ni11 Y2 3.347374 1_555
Ni12 Zr2 2.996599 1_656
Ni12 Zr2 2.996599 1_655
Ni12 Y4 3.237385 1_556
Ni12 Y4 3.237385 1_555
Ni12 Y2 3.347385 1_655
Ni13 Zr1 2.996607 1_556
Ni13 Zr1 2.996607 1_555
Ni13 Y4 3.237385 1_556
Ni13 Y4 3.237385 1_555
Ni13 Y1 3.347374 1_555
Ni14 Zr0 2.996608 1_556
Ni14 Zr0 2.996608 1_555
Ni14 Y4 3.237385 1_556
Ni14 Y4 3.237385 1_555
Ni14 Y0 3.347384 1_555
Ni15 Y0 3.057997 1_554
Ni15 Y0 3.057997 1_555
Ni15 Y2 3.057997 1_544
Ni15 Y2 3.057997 1_545
Ni15 Y1 3.057997 1_455
Ni15 Y1 3.057997 1_454
As0 Ni15 2.287715 1_665
As0 Ni0 2.342394 1_554
As0 Ni0 2.342394 1_555
As0 Ni4 2.435455 1_555
As0 Ni6 2.435455 1_555
As0 Y2 3.038696 1_655
As0 Y1 3.038696 1_564
As0 Y2 3.038696 1_654
As0 Y1 3.038696 1_565
As1 Ni15 2.287715 1_555
As1 Ni1 2.342394 1_554
As1 Ni1 2.342394 1_555
As1 Ni8 2.435455 1_555
As1 Ni5 2.435455 1_545
As1 Y2 3.038696 1_544
As1 Y2 3.038696 1_545
As1 Y0 3.038696 1_555
As1 Y0 3.038696 1_554
As2 Ni15 2.287715 1_555
As2 Ni2 2.342394 1_555
As2 Ni2 2.342394 1_554
As2 Ni3 2.435455 1_555
As2 Ni7 2.435455 1_455
As2 Y1 3.038696 1_454
As2 Y1 3.038696 1_455
As2 Y0 3.038696 1_555
As2 Y0 3.038696 1_554
As3 Ni9 2.408334 1_555
As3 Ni3 2.424765 1_556
As3 Ni3 2.424765 1_555
As3 Ni2 2.426336 1_555
As3 Ni11 2.447711 1_555
As3 Zr2 2.802168 1_555
As3 Zr2 2.802168 1_556
As3 Y3 2.995303 1_555
As3 Y3 2.995303 1_556
As4 Ni10 2.408347 1_555
As4 Ni4 2.424765 1_556
As4 Ni4 2.424765 1_555
As4 Ni0 2.426336 1_555
As4 Ni9 2.447702 1_555
As4 Zr0 2.802168 1_556
As4 Zr0 2.802168 1_555
As4 Y3 2.995306 1_556
As4 Y3 2.995306 1_555
As5 Ni11 2.408340 1_555
As5 Ni5 2.424765 1_555
As5 Ni5 2.424765 1_556
As5 Ni1 2.426336 1_565
As5 Ni10 2.447698 1_555
As5 Zr1 2.802168 1_566
As5 Zr1 2.802168 1_565
As5 Y3 2.995297 1_555
As5 Y3 2.995297 1_556
As6 Ni12 2.408347 1_555
As6 Ni6 2.424765 1_555
As6 Ni6 2.424765 1_556
As6 Ni0 2.426336 1_555
As6 Ni14 2.447702 1_555
As6 Zr0 2.802168 1_556
As6 Zr0 2.802168 1_555
As6 Y4 2.995306 1_555
As6 Y4 2.995306 1_556
As7 Ni13 2.408340 1_555
As7 Ni7 2.424765 1_556
As7 Ni7 2.424765 1_555
As7 Ni2 2.426336 1_655
As7 Ni12 2.447698 1_555
As7 Zr2 2.802168 1_656
As7 Zr2 2.802168 1_655
As7 Y4 2.995297 1_555
As7 Y4 2.995297 1_556
As8 Ni14 2.408334 1_555
As8 Ni8 2.424765 1_555
As8 Ni8 2.424765 1_556
As8 Ni1 2.426336 1_555
As8 Ni13 2.447711 1_555
As8 Zr1 2.802168 1_556
As8 Zr1 2.802168 1_555
As8 Y4 2.995303 1_556
As8 Y4 2.995303 1_555
As9 Ni8 2.355527 1_555
As9 Ni3 2.355527 1_555
As9 Ni14 2.531640 1_555
As9 Ni9 2.531640 1_554
As9 Ni14 2.531640 1_554
As9 Ni9 2.531640 1_555
As9 Zr0 2.662884 1_555
As9 Y0 2.965217 1_555
As9 Y0 2.965217 1_554
As10 Ni7 2.355527 1_555
As10 Ni4 2.355527 1_545
As10 Ni13 2.531632 1_555
As10 Ni13 2.531632 1_554
As10 Ni10 2.531636 1_544
As10 Ni10 2.531636 1_545
As10 Zr1 2.662885 1_555
As10 Y1 2.965217 1_555
As10 Y1 2.965217 1_554
As11 Ni5 2.355527 1_555
As11 Ni6 2.355527 1_455
As11 Ni11 2.531632 1_554
As11 Ni11 2.531632 1_555
As11 Ni12 2.531636 1_454
As11 Ni12 2.531636 1_455
As11 Zr2 2.662885 1_555
As11 Y2 2.965217 1_555
As11 Y2 2.965217 1_554
