# generated using pymatgen
data_MnTc2Sb
_symmetry_space_group_name_H-M   'P 1'
_cell_length_a   4.40930648
_cell_length_b   4.40930648
_cell_length_c   4.40930648
_cell_angle_alpha   60.00000000
_cell_angle_beta   60.00000000
_cell_angle_gamma   60.00000000
_symmetry_Int_Tables_number   1
_chemical_formula_structural   MnTc2Sb
_chemical_formula_sum   'Mn1 Tc2 Sb1'
_cell_volume   60.61719850
_cell_formula_units_Z   1
loop_
 _symmetry_equiv_pos_site_id
 _symmetry_equiv_pos_as_xyz
  1  'x, y, z'
loop_
 _atom_site_type_symbol
 _atom_site_label
 _atom_site_symmetry_multiplicity
 _atom_site_fract_x
 _atom_site_fract_y
 _atom_site_fract_z
 _atom_site_occupancy
  Mn  Mn0  1  0.50000000  0.50000000  0.50000000  1
  Tc  Tc0  1  0.25000000  0.25000000  0.25000000  1
  Tc  Tc1  1  0.75000000  0.75000000  0.75000000  1
  Sb  Sb0  1  -0.00000000  0.00000000  0.00000000  1
loop_
_geom_bond_atom_site_label_1
_geom_bond_atom_site_label_2
_geom_bond_distance
_geom_bond_site_symmetry_2
Mn0 Tc1 2.700138 1_455
Mn0 Tc0 2.700138 1_655
Mn0 Tc1 2.700138 1_555
Mn0 Tc1 2.700138 1_545
Mn0 Tc0 2.700138 1_555
Mn0 Tc0 2.700138 1_556
Mn0 Tc1 2.700138 1_554
Mn0 Tc0 2.700138 1_565
Mn0 Sb0 3.117851 1_556
Mn0 Sb0 3.117851 1_565
Mn0 Sb0 3.117851 1_656
Mn0 Sb0 3.117851 1_655
Mn0 Sb0 3.117851 1_566
Mn0 Sb0 3.117851 1_665
Sb0 Tc0 2.700138 1_455
Sb0 Tc1 2.700138 1_544
Sb0 Tc0 2.700138 1_545
Sb0 Tc1 2.700138 1_445
Sb0 Tc1 2.700138 1_444
Sb0 Tc0 2.700138 1_555
Sb0 Tc0 2.700138 1_554
Sb0 Tc1 2.700138 1_454
