# generated using pymatgen
data_Gd2CoB3
_symmetry_space_group_name_H-M   'P 1'
_cell_length_a   3.39918067
_cell_length_b   3.39918067
_cell_length_c   8.19269100
_cell_angle_alpha   90.00000000
_cell_angle_beta   90.00000000
_cell_angle_gamma   120.00001294
_symmetry_Int_Tables_number   1
_chemical_formula_structural   Gd2CoB3
_chemical_formula_sum   'Gd2 Co1 B3'
_cell_volume   81.97957182
_cell_formula_units_Z   1
loop_
 _symmetry_equiv_pos_site_id
 _symmetry_equiv_pos_as_xyz
  1  'x, y, z'
loop_
 _atom_site_type_symbol
 _atom_site_label
 _atom_site_symmetry_multiplicity
 _atom_site_fract_x
 _atom_site_fract_y
 _atom_site_fract_z
 _atom_site_occupancy
  Gd  Gd0  1  0.33333300  0.66666700  0.76469900  1
  Gd  Gd1  1  0.33333300  0.66666700  0.23530100  1
  Co  Co0  1  0.66666700  0.33333300  0.50000000  1
  B  B0  1  0.66666700  0.33333300  0.00000000  1
  B  B1  1  0.00000000  0.00000000  0.50000000  1
  B  B2  1  0.00000000  0.00000000  0.00000000  1
loop_
_geom_bond_atom_site_label_1
_geom_bond_atom_site_label_2
_geom_bond_distance
_geom_bond_site_symmetry_2
Co0 Gd0 2.924770 1_545
Co0 Gd0 2.924770 1_655
Co0 Gd1 2.924770 1_545
Co0 Gd1 2.924770 1_655
Co0 Gd0 2.924774 1_555
Co0 Gd1 2.924774 1_555
B0 B2 1.962516 1_655
B0 B2 1.962519 1_555
B0 B2 1.962519 1_665
B0 Gd1 2.750942 1_655
B0 Gd1 2.750942 1_545
B0 Gd0 2.750942 1_544
B0 Gd0 2.750942 1_654
B0 Gd1 2.750946 1_555
B0 Gd0 2.750946 1_554
B1 Co0 1.962516 1_455
B1 Co0 1.962519 1_445
B1 Co0 1.962519 1_555
B1 Gd0 2.924771 1_545
B1 Gd1 2.924771 1_545
B1 Gd0 2.924772 1_555
B1 Gd0 2.924772 1_445
B1 Gd1 2.924772 1_555
B1 Gd1 2.924772 1_445
B2 Gd1 2.750942 1_545
B2 Gd0 2.750942 1_544
B2 Gd1 2.750944 1_555
B2 Gd1 2.750944 1_445
B2 Gd0 2.750944 1_554
B2 Gd0 2.750944 1_444
