# generated using pymatgen
data_Ti4Fe2O
_symmetry_space_group_name_H-M   'P 1'
_cell_length_a   8.20971903
_cell_length_b   8.20971903
_cell_length_c   8.20971903
_cell_angle_alpha   60.00000000
_cell_angle_beta   60.00000000
_cell_angle_gamma   60.00000000
_symmetry_Int_Tables_number   1
_chemical_formula_structural   Ti4Fe2O
_chemical_formula_sum   'Ti16 Fe8 O4'
_cell_volume   391.26399486
_cell_formula_units_Z   4
loop_
 _symmetry_equiv_pos_site_id
 _symmetry_equiv_pos_as_xyz
  1  'x, y, z'
loop_
 _atom_site_type_symbol
 _atom_site_label
 _atom_site_symmetry_multiplicity
 _atom_site_fract_x
 _atom_site_fract_y
 _atom_site_fract_z
 _atom_site_occupancy
  Ti  Ti0  1  0.06969000  0.06969000  0.43031000  1
  Ti  Ti1  1  0.43031000  0.06969000  0.43031000  1
  Ti  Ti2  1  0.06969000  0.43031000  0.43031000  1
  Ti  Ti3  1  0.43031000  0.43031000  0.06969000  1
  Ti  Ti4  1  0.06969000  0.43031000  0.06969000  1
  Ti  Ti5  1  0.43031000  0.06969000  0.06969000  1
  Ti  Ti6  1  0.18070600  0.18070600  0.81929400  1
  Ti  Ti7  1  0.81929400  0.18070600  0.81929400  1
  Ti  Ti8  1  0.18070600  0.81929400  0.81929400  1
  Ti  Ti9  1  0.81929400  0.81929400  0.18070600  1
  Ti  Ti10  1  0.18070600  0.81929400  0.18070600  1
  Ti  Ti11  1  0.81929400  0.18070600  0.18070600  1
  Ti  Ti12  1  0.83476600  0.83476600  0.49570100  1
  Ti  Ti13  1  0.83476600  0.49570100  0.83476600  1
  Ti  Ti14  1  0.49570100  0.83476600  0.83476600  1
  Ti  Ti15  1  0.83476600  0.83476600  0.83476600  1
  Fe  Fe0  1  0.62360700  0.62360700  0.12917800  1
  Fe  Fe1  1  0.62360700  0.12917800  0.62360700  1
  Fe  Fe2  1  0.12917800  0.62360700  0.62360700  1
  Fe  Fe3  1  0.62360700  0.62360700  0.62360700  1
  Fe  Fe4  1  0.41596200  0.41596200  0.75211300  1
  Fe  Fe5  1  0.41596200  0.75211300  0.41596200  1
  Fe  Fe6  1  0.75211300  0.41596200  0.41596200  1
  Fe  Fe7  1  0.41596200  0.41596200  0.41596200  1
  O  O0  1  0.12548700  0.12548700  0.62353900  1
  O  O1  1  0.12548700  0.62353900  0.12548700  1
  O  O2  1  0.62353900  0.12548700  0.12548700  1
  O  O3  1  0.12548700  0.12548700  0.12548700  1
loop_
_geom_bond_atom_site_label_1
_geom_bond_atom_site_label_2
_geom_bond_distance
_geom_bond_site_symmetry_2
Fe0 Fe5 2.496833 1_555
Fe0 Fe6 2.496833 1_555
Fe0 Fe7 2.496833 1_555
Fe0 Ti15 2.545110 1_554
Fe0 Ti13 2.545110 1_554
Fe0 Ti14 2.545110 1_554
Fe0 Ti11 3.046474 1_555
Fe0 Ti10 3.046474 1_555
Fe0 Ti9 3.046481 1_555
Fe0 Ti3 3.056704 1_555
Fe0 Ti5 3.056711 1_565
Fe0 Ti4 3.056711 1_655
Fe1 Fe4 2.496833 1_555
Fe1 Fe6 2.496833 1_555
Fe1 Fe7 2.496833 1_555
Fe1 Ti15 2.545110 1_545
Fe1 Ti14 2.545110 1_545
Fe1 Ti12 2.545110 1_545
Fe1 Ti11 3.046474 1_555
Fe1 Ti6 3.046474 1_555
Fe1 Ti7 3.046481 1_555
Fe1 Ti1 3.056704 1_555
Fe1 Ti0 3.056711 1_655
Fe1 Ti5 3.056711 1_556
Fe2 Fe4 2.496833 1_555
Fe2 Fe5 2.496833 1_555
Fe2 Fe7 2.496833 1_555
Fe2 Ti15 2.545110 1_455
Fe2 Ti12 2.545110 1_455
Fe2 Ti13 2.545110 1_455
Fe2 Ti6 3.046474 1_555
Fe2 Ti10 3.046474 1_555
Fe2 Ti8 3.046481 1_555
Fe2 Ti2 3.056704 1_555
Fe2 Ti4 3.056711 1_556
Fe2 Ti0 3.056711 1_565
Fe3 Fe4 2.496833 1_555
Fe3 Fe5 2.496833 1_555
Fe3 Fe6 2.496833 1_555
Fe3 Ti13 2.545110 1_555
Fe3 Ti12 2.545110 1_555
Fe3 Ti14 2.545110 1_555
Fe3 Ti9 3.046476 1_555
Fe3 Ti8 3.046476 1_555
Fe3 Ti7 3.046476 1_555
Fe3 Ti2 3.056709 1_655
Fe3 Ti1 3.056709 1_565
Fe3 Ti3 3.056709 1_556
Fe4 Ti4 2.730094 1_556
Fe4 Ti5 2.730094 1_556
Fe4 Ti3 2.730098 1_556
Fe4 Fe5 2.759705 1_555
Fe4 Fe6 2.759705 1_555
Fe4 Fe7 2.759705 1_555
Fe4 Ti6 3.060144 1_555
Fe4 Ti7 3.060151 1_555
Fe4 Ti8 3.060151 1_555
Fe5 Ti0 2.730094 1_565
Fe5 Ti5 2.730094 1_565
Fe5 Ti1 2.730098 1_565
Fe5 Fe6 2.759705 1_555
Fe5 Fe7 2.759705 1_555
Fe5 Ti10 3.060144 1_555
Fe5 Ti9 3.060151 1_555
Fe5 Ti8 3.060151 1_555
Fe6 Ti0 2.730094 1_655
Fe6 Ti4 2.730094 1_655
Fe6 Ti2 2.730098 1_655
Fe6 Fe7 2.759705 1_555
Fe6 Ti11 3.060144 1_555
Fe6 Ti9 3.060151 1_555
Fe6 Ti7 3.060151 1_555
Fe7 Ti2 2.730090 1_555
Fe7 Ti1 2.730090 1_555
Fe7 Ti3 2.730090 1_555
Fe7 Ti6 3.060148 1_555
Fe7 Ti10 3.060148 1_555
Fe7 Ti11 3.060148 1_555
O0 Ti0 2.144616 1_555
O0 Ti1 2.144616 1_555
O0 Ti2 2.144616 1_555
O0 Ti6 2.157864 1_555
O0 Ti8 2.157864 1_545
O0 Ti7 2.157864 1_455
O1 Ti4 2.144616 1_555
O1 Ti3 2.144616 1_555
O1 Ti2 2.144616 1_555
O1 Ti8 2.157864 1_554
O1 Ti10 2.157864 1_555
O1 Ti9 2.157864 1_455
O2 Ti5 2.144616 1_555
O2 Ti3 2.144616 1_555
O2 Ti1 2.144616 1_555
O2 Ti9 2.157864 1_545
O2 Ti11 2.157864 1_555
O2 Ti7 2.157864 1_554
O3 Ti5 2.144616 1_555
O3 Ti0 2.144616 1_555
O3 Ti4 2.144616 1_555
O3 Ti10 2.157864 1_545
O3 Ti11 2.157864 1_455
O3 Ti6 2.157864 1_554
