# generated using pymatgen
data_Sr2Nd(FeO3)3
_symmetry_space_group_name_H-M   'P 1'
_cell_length_a   5.53971834
_cell_length_b   5.53971834
_cell_length_c   13.49056496
_cell_angle_alpha   89.98127728
_cell_angle_beta   89.98127728
_cell_angle_gamma   60.45245039
_symmetry_Int_Tables_number   1
_chemical_formula_structural   Sr2Nd(FeO3)3
_chemical_formula_sum   'Sr4 Nd2 Fe6 O18'
_cell_volume   360.16220528
_cell_formula_units_Z   2
loop_
 _symmetry_equiv_pos_site_id
 _symmetry_equiv_pos_as_xyz
  1  'x, y, z'
loop_
 _atom_site_type_symbol
 _atom_site_label
 _atom_site_symmetry_multiplicity
 _atom_site_fract_x
 _atom_site_fract_y
 _atom_site_fract_z
 _atom_site_occupancy
  Sr  Sr0  1  0.33059100  0.33581100  0.41671900  1
  Sr  Sr1  1  0.66418900  0.66940900  0.08328100  1
  Sr  Sr2  1  0.33581100  0.33059100  0.91671900  1
  Sr  Sr3  1  0.66940900  0.66418900  0.58328100  1
  Nd  Nd0  1  0.99970500  0.00029500  0.75000000  1
  Nd  Nd1  1  0.00029500  0.99970500  0.25000000  1
  Fe  Fe0  1  0.33389500  0.33279200  0.66586100  1
  Fe  Fe1  1  0.66610500  0.66720800  0.33413900  1
  Fe  Fe2  1  0.00000000  0.00000000  0.00000000  1
  Fe  Fe3  1  0.00000000  0.00000000  0.50000000  1
  Fe  Fe4  1  0.33279200  0.33389500  0.16586100  1
  Fe  Fe5  1  0.66720800  0.66610500  0.83413900  1
  O  O0  1  0.11858300  0.20552700  0.08855400  1
  O  O1  1  0.44187500  0.55812500  0.75000000  1
  O  O2  1  0.79447300  0.88141700  0.41144600  1
  O  O3  1  0.20552700  0.11858300  0.58855400  1
  O  O4  1  0.55812500  0.44187500  0.25000000  1
  O  O5  1  0.88141700  0.79447300  0.91144600  1
  O  O6  1  0.01387500  0.53434700  0.25599500  1
  O  O7  1  0.34496100  0.84794600  0.92072500  1
  O  O8  1  0.69279900  0.17335500  0.59419700  1
  O  O9  1  0.46565300  0.98612500  0.24400500  1
  O  O10  1  0.82664500  0.30720100  0.90580300  1
  O  O11  1  0.15205400  0.65503900  0.57927500  1
  O  O12  1  0.84794600  0.34496100  0.42072500  1
  O  O13  1  0.17335500  0.69279900  0.09419700  1
  O  O14  1  0.53434700  0.01387500  0.75599500  1
  O  O15  1  0.30720100  0.82664500  0.40580300  1
  O  O16  1  0.65503900  0.15205400  0.07927500  1
  O  O17  1  0.98612500  0.46565300  0.74400500  1
loop_
_geom_bond_atom_site_label_1
_geom_bond_atom_site_label_2
_geom_bond_distance
_geom_bond_site_symmetry_2
Nd0 O1 2.466230 1_645
Nd0 O14 2.542956 1_555
Nd0 O17 2.542956 1_555
Nd0 O8 2.573123 1_555
Nd0 O10 2.573123 1_555
Nd0 O5 2.684673 1_545
Nd0 O3 2.684673 1_655
Nd0 O11 2.843338 1_645
Nd0 O7 2.843338 1_645
Nd0 O14 3.000696 1_655
Nd0 O17 3.000696 1_545
Nd0 O1 3.111330 1_555
Nd1 O4 2.466230 1_465
Nd1 O6 2.542956 1_555
Nd1 O9 2.542956 1_555
Nd1 O15 2.573123 1_555
Nd1 O13 2.573123 1_555
Nd1 O2 2.684673 1_455
Nd1 O0 2.684673 1_565
Nd1 O16 2.843338 1_465
Nd1 O12 2.843338 1_465
Nd1 O6 3.000696 1_565
Nd1 O9 3.000696 1_455
Nd1 O4 3.111330 1_555
Fe0 O11 1.947245 1_555
Fe0 O3 1.958343 1_555
Fe0 O14 1.974196 1_555
Fe0 O8 1.983717 1_555
Fe0 O1 1.985514 1_555
Fe0 O17 1.991308 1_455
Fe1 O12 1.947245 1_555
Fe1 O2 1.958343 1_555
Fe1 O9 1.974196 1_555
Fe1 O15 1.983717 1_555
Fe1 O4 1.985514 1_555
Fe1 O6 1.991308 1_655
Fe2 O13 1.954669 1_545
Fe2 O10 1.954669 1_454
Fe2 O0 1.973353 1_555
Fe2 O5 1.973353 1_444
Fe2 O16 1.979086 1_455
Fe2 O7 1.979086 1_544
Fe3 O8 1.954669 1_455
Fe3 O15 1.954669 1_545
Fe3 O3 1.973353 1_555
Fe3 O2 1.973353 1_445
Fe3 O11 1.979086 1_545
Fe3 O12 1.979086 1_455
Fe4 O16 1.947245 1_555
Fe4 O0 1.958343 1_555
Fe4 O6 1.974196 1_555
Fe4 O13 1.983717 1_555
Fe4 O4 1.985514 1_555
Fe4 O9 1.991308 1_545
Fe5 O7 1.947245 1_555
Fe5 O5 1.958343 1_555
Fe5 O17 1.974196 1_555
Fe5 O10 1.983717 1_555
Fe5 O1 1.985514 1_555
Fe5 O14 1.991308 1_565
O0 Sr1 2.562260 1_455
O0 Sr2 2.849803 1_554
O0 Sr1 3.017870 1_545
O1 Sr2 2.778555 1_555
O1 Sr3 2.778555 1_555
O2 Sr0 2.562260 1_565
O2 Sr3 2.849803 1_555
O2 Sr0 3.017870 1_655
O3 Sr3 2.562260 1_545
O3 Sr0 2.849803 1_555
O3 Sr3 3.017870 1_455
O4 Sr0 2.778555 1_555
O4 Sr1 2.778555 1_555
O5 Sr2 2.562260 1_655
O5 Sr1 2.849803 1_556
O5 Sr2 3.017870 1_565
O6 Sr0 2.662144 1_555
O6 Sr1 2.883338 1_455
O7 Sr2 2.649621 1_565
O7 Sr1 2.681553 1_556
O7 Sr2 2.891857 1_555
O8 Sr3 2.661605 1_555
O8 Sr3 2.890540 1_545
O8 Sr0 2.964684 1_555
O9 Sr1 2.662144 1_555
O9 Sr0 2.883338 1_565
O10 Sr2 2.661605 1_555
O10 Sr2 2.890540 1_655
O10 Sr1 2.964684 1_556
O11 Sr3 2.649621 1_455
O11 Sr0 2.681553 1_555
O11 Sr3 2.891857 1_555
O12 Sr0 2.649621 1_655
O12 Sr3 2.681553 1_555
O12 Sr0 2.891857 1_555
O13 Sr1 2.661605 1_555
O13 Sr1 2.890540 1_455
O13 Sr2 2.964684 1_554
O14 Sr2 2.662144 1_555
O14 Sr3 2.883338 1_545
O15 Sr0 2.661605 1_555
O15 Sr0 2.890540 1_565
O15 Sr3 2.964684 1_555
O16 Sr1 2.649621 1_545
O16 Sr2 2.681553 1_554
O16 Sr1 2.891857 1_555
O17 Sr3 2.662144 1_555
O17 Sr2 2.883338 1_655
