# generated using pymatgen
data_Ba6Sn7S20
_symmetry_space_group_name_H-M   'P 1'
_cell_length_a   12.85713101
_cell_length_b   12.85713101
_cell_length_c   23.50235175
_cell_angle_alpha   89.90063299
_cell_angle_beta   89.90063299
_cell_angle_gamma   29.26514995
_symmetry_Int_Tables_number   1
_chemical_formula_structural   Ba6Sn7S20
_chemical_formula_sum   'Ba12 Sn14 S40'
_cell_volume   1899.22358251
_cell_formula_units_Z   2
loop_
 _symmetry_equiv_pos_site_id
 _symmetry_equiv_pos_as_xyz
  1  'x, y, z'
loop_
 _atom_site_type_symbol
 _atom_site_label
 _atom_site_symmetry_multiplicity
 _atom_site_fract_x
 _atom_site_fract_y
 _atom_site_fract_z
 _atom_site_occupancy
  Ba  Ba0  1  0.08039700  0.44688200  0.60091500  1
  Ba  Ba1  1  0.55311800  0.91960300  0.89908500  1
  Ba  Ba2  1  0.91960300  0.55311800  0.39908500  1
  Ba  Ba3  1  0.44688200  0.08039700  0.10091500  1
  Ba  Ba4  1  0.45641600  0.85516000  0.70086600  1
  Ba  Ba5  1  0.14484000  0.54358400  0.79913400  1
  Ba  Ba6  1  0.54358400  0.14484000  0.29913400  1
  Ba  Ba7  1  0.85516000  0.45641600  0.20086600  1
  Ba  Ba8  1  0.78078700  0.29386700  0.42442700  1
  Ba  Ba9  1  0.70613300  0.21921300  0.07557300  1
  Ba  Ba10  1  0.21921300  0.70613300  0.57557300  1
  Ba  Ba11  1  0.29386700  0.78078700  0.92442700  1
  Sn  Sn0  1  0.37366200  0.97331800  0.49966100  1
  Sn  Sn1  1  0.02668200  0.62633800  0.00033900  1
  Sn  Sn2  1  0.62633800  0.02668200  0.50033900  1
  Sn  Sn3  1  0.97331800  0.37366200  0.99966100  1
  Sn  Sn4  1  0.84844000  0.15156000  0.75000000  1
  Sn  Sn5  1  0.15156000  0.84844000  0.25000000  1
  Sn  Sn6  1  0.62266200  0.09227000  0.67546000  1
  Sn  Sn7  1  0.90773000  0.37733800  0.82454000  1
  Sn  Sn8  1  0.37733800  0.90773000  0.32454000  1
  Sn  Sn9  1  0.09227000  0.62266200  0.17546000  1
  Sn  Sn10  1  0.98529600  0.19030600  0.59828700  1
  Sn  Sn11  1  0.80969400  0.01470400  0.90171300  1
  Sn  Sn12  1  0.01470400  0.80969400  0.40171300  1
  Sn  Sn13  1  0.19030600  0.98529600  0.09828700  1
  S  S0  1  0.56653000  0.91218600  0.56914700  1
  S  S1  1  0.08781400  0.43347000  0.93085300  1
  S  S2  1  0.43347000  0.08781400  0.43085300  1
  S  S3  1  0.91218600  0.56653000  0.06914700  1
  S  S4  1  0.99198100  0.32641600  0.50524900  1
  S  S5  1  0.67358400  0.00801900  0.99475100  1
  S  S6  1  0.00801900  0.67358400  0.49475100  1
  S  S7  1  0.32641600  0.99198100  0.00524900  1
  S  S8  1  0.38101000  0.17759900  0.71277100  1
  S  S9  1  0.82240100  0.61899000  0.78722900  1
  S  S10  1  0.61899000  0.82240100  0.28722900  1
  S  S11  1  0.17759900  0.38101000  0.21277100  1
  S  S12  1  0.76467000  0.25395600  0.55655800  1
  S  S13  1  0.74604400  0.23533000  0.94344200  1
  S  S14  1  0.23533000  0.74604400  0.44344200  1
  S  S15  1  0.25395600  0.76467000  0.05655800  1
  S  S16  1  0.36496100  0.83018800  0.57156300  1
  S  S17  1  0.16981200  0.63503900  0.92843700  1
  S  S18  1  0.63503900  0.16981200  0.42843700  1
  S  S19  1  0.83018800  0.36496100  0.07156300  1
  S  S20  1  0.99181400  0.73860100  0.66973300  1
  S  S21  1  0.26139900  0.00818600  0.83026700  1
  S  S22  1  0.00818600  0.26139900  0.33026700  1
  S  S23  1  0.73860100  0.99181400  0.16973300  1
  S  S24  1  0.94491900  0.36333800  0.66589100  1
  S  S25  1  0.63666200  0.05508100  0.83410900  1
  S  S26  1  0.05508100  0.63666200  0.33410900  1
  S  S27  1  0.36333800  0.94491900  0.16589100  1
  S  S28  1  0.47801400  0.26228100  0.57848200  1
  S  S29  1  0.73771900  0.52198600  0.92151800  1
  S  S30  1  0.52198600  0.73771900  0.42151800  1
  S  S31  1  0.26228100  0.47801400  0.07848200  1
  S  S32  1  0.64663800  0.47845900  0.78658500  1
  S  S33  1  0.52154100  0.35336200  0.71341500  1
  S  S34  1  0.35336200  0.52154100  0.21341500  1
  S  S35  1  0.47845900  0.64663800  0.28658500  1
  S  S36  1  0.12527800  0.94365800  0.68151600  1
  S  S37  1  0.05634200  0.87472200  0.81848400  1
  S  S38  1  0.87472200  0.05634200  0.31848400  1
  S  S39  1  0.94365800  0.12527800  0.18151600  1
loop_
_geom_bond_atom_site_label_1
_geom_bond_atom_site_label_2
_geom_bond_distance
_geom_bond_site_symmetry_2
Ba0 S24 3.125589 1_455
Ba0 S8 3.239257 1_555
Ba0 S20 3.246880 1_455
Ba0 S6 3.292059 1_555
Ba0 S28 3.297140 1_555
Ba0 S0 3.322410 1_455
Ba0 S4 3.440823 1_455
Ba0 S0 3.452149 1_545
Ba1 S25 3.125589 1_565
Ba1 S9 3.239257 1_555
Ba1 S21 3.246880 1_565
Ba1 S7 3.292059 1_556
Ba1 S29 3.297140 1_555
Ba1 S1 3.322410 1_565
Ba1 S5 3.440823 1_565
Ba1 S1 3.452149 1_655
Ba2 S26 3.125589 1_655
Ba2 S10 3.239257 1_555
Ba2 S22 3.246880 1_655
Ba2 S4 3.292059 1_555
Ba2 S30 3.297140 1_555
Ba2 S2 3.322410 1_655
Ba2 S6 3.440823 1_655
Ba2 S2 3.452149 1_565
Ba3 S27 3.125589 1_545
Ba3 S11 3.239257 1_555
Ba3 S23 3.246880 1_545
Ba3 S5 3.292059 1_554
Ba3 S31 3.297140 1_555
Ba3 S3 3.322410 1_545
Ba3 S7 3.440823 1_545
Ba3 S3 3.452149 1_455
Ba4 S9 3.250320 1_555
Ba4 S21 3.285440 1_565
Ba4 S24 3.288728 1_555
Ba4 S36 3.343735 1_555
Ba4 S8 3.345919 1_565
Ba4 S16 3.375682 1_555
Ba4 S24 3.412617 1_465
Ba4 S32 3.579661 1_555
Ba4 S0 3.730054 1_555
Ba5 S8 3.250320 1_555
Ba5 S20 3.285440 1_455
Ba5 S25 3.288728 1_555
Ba5 S37 3.343735 1_555
Ba5 S9 3.345919 1_455
Ba5 S17 3.375682 1_555
Ba5 S25 3.412617 1_465
Ba5 S33 3.579661 1_555
Ba5 S1 3.730054 1_555
Ba6 S11 3.250320 1_555
Ba6 S23 3.285440 1_545
Ba6 S26 3.288728 1_555
Ba6 S38 3.343735 1_555
Ba6 S10 3.345919 1_545
Ba6 S18 3.375682 1_555
Ba6 S26 3.412617 1_645
Ba6 S34 3.579661 1_555
Ba6 S2 3.730054 1_555
Ba7 S10 3.250320 1_555
Ba7 S22 3.285440 1_655
Ba7 S27 3.288728 1_555
Ba7 S39 3.343735 1_555
Ba7 S11 3.345919 1_655
Ba7 S19 3.375682 1_555
Ba7 S27 3.412617 1_645
Ba7 S35 3.579661 1_555
Ba7 S3 3.730054 1_555
Ba8 S12 3.182367 1_555
Ba8 S30 3.242216 1_555
Ba8 S38 3.250443 1_555
Ba8 S18 3.358275 1_555
Ba8 S22 3.386872 1_655
Ba8 S14 3.470420 1_555
Ba8 S14 3.484775 1_645
Ba8 S4 3.627621 1_555
Ba9 S13 3.182367 1_554
Ba9 S31 3.242216 1_555
Ba9 S39 3.250443 1_555
Ba9 S19 3.358275 1_555
Ba9 S23 3.386872 1_545
Ba9 S15 3.470420 1_555
Ba9 S15 3.484775 1_645
Ba9 S5 3.627621 1_554
Ba10 S14 3.182367 1_555
Ba10 S28 3.242216 1_555
Ba10 S36 3.250443 1_555
Ba10 S16 3.358275 1_555
Ba10 S20 3.386872 1_455
Ba10 S12 3.470420 1_555
Ba10 S12 3.484775 1_465
Ba10 S6 3.627621 1_555
Ba11 S15 3.182367 1_556
Ba11 S29 3.242216 1_555
Ba11 S37 3.250443 1_555
Ba11 S17 3.358275 1_555
Ba11 S21 3.386872 1_565
Ba11 S13 3.470420 1_555
Ba11 S13 3.484775 1_465
Ba11 S7 3.627621 1_556
S0 Sn0 2.458223 1_555
S0 Sn2 2.708496 1_565
S1 Sn1 2.458223 1_556
S1 Sn3 2.708496 1_455
S2 Sn2 2.458223 1_555
S2 Sn0 2.708496 1_545
S3 Sn3 2.458223 1_554
S3 Sn1 2.708496 1_655
S4 Sn0 2.416415 1_645
S4 Sn10 2.845981 1_555
S5 Sn1 2.416415 1_646
S5 Sn11 2.845981 1_555
S6 Sn2 2.416415 1_465
S6 Sn12 2.845981 1_555
S7 Sn3 2.416415 1_464
S7 Sn13 2.845981 1_555
S8 Sn6 2.381699 1_555
S9 Sn7 2.381699 1_555
S10 Sn8 2.381699 1_555
S11 Sn9 2.381699 1_555
S12 Sn10 2.373740 1_555
S13 Sn11 2.373740 1_555
S14 Sn12 2.373740 1_555
S15 Sn13 2.373740 1_555
S16 Sn10 2.495285 1_465
S16 Sn0 2.569512 1_555
S17 Sn11 2.495285 1_465
S17 Sn1 2.569512 1_556
S18 Sn12 2.495285 1_645
S18 Sn2 2.569512 1_555
S19 Sn13 2.495285 1_645
S19 Sn3 2.569512 1_554
S20 Sn6 2.359406 1_565
S21 Sn7 2.359406 1_455
S22 Sn8 2.359406 1_545
S23 Sn9 2.359406 1_655
S24 Sn10 2.395330 1_555
S25 Sn11 2.395330 1_555
S26 Sn12 2.395330 1_555
S27 Sn13 2.395330 1_555
S28 Sn2 2.472598 1_555
S28 Sn6 2.517193 1_555
S29 Sn3 2.472598 1_555
S29 Sn7 2.517193 1_555
S30 Sn0 2.472598 1_555
S30 Sn8 2.517193 1_555
S31 Sn1 2.472598 1_555
S31 Sn9 2.517193 1_555
S32 Sn4 2.472795 1_555
S32 Sn7 2.479206 1_555
S33 Sn4 2.472795 1_555
S33 Sn6 2.479206 1_555
S34 Sn5 2.472795 1_555
S34 Sn9 2.479206 1_555
S35 Sn5 2.472795 1_555
S35 Sn8 2.479206 1_555
S36 Sn4 2.408293 1_465
S36 Sn10 2.674814 1_465
S37 Sn4 2.408293 1_465
S37 Sn11 2.674814 1_465
S38 Sn5 2.408293 1_645
S38 Sn12 2.674814 1_645
S39 Sn5 2.408293 1_645
S39 Sn13 2.674814 1_645
