# generated using pymatgen
data_KGe2(PO4)3
_symmetry_space_group_name_H-M   'P 1'
_cell_length_a   8.95146308
_cell_length_b   8.95146308
_cell_length_c   8.95146382
_cell_angle_alpha   54.02689292
_cell_angle_beta   54.02689292
_cell_angle_gamma   54.02689451
_symmetry_Int_Tables_number   1
_chemical_formula_structural   KGe2(PO4)3
_chemical_formula_sum   'K2 Ge4 P6 O24'
_cell_volume   436.43175868
_cell_formula_units_Z   2
loop_
 _symmetry_equiv_pos_site_id
 _symmetry_equiv_pos_as_xyz
  1  'x, y, z'
loop_
 _atom_site_type_symbol
 _atom_site_label
 _atom_site_symmetry_multiplicity
 _atom_site_fract_x
 _atom_site_fract_y
 _atom_site_fract_z
 _atom_site_occupancy
  K  K0  1  0.00000000  0.00000000  0.00000000  1
  K  K1  1  0.50000000  0.50000000  0.50000000  1
  Ge  Ge0  1  0.14797800  0.14797800  0.14797800  1
  Ge  Ge1  1  0.85202200  0.85202200  0.85202200  1
  Ge  Ge2  1  0.34718700  0.34718700  0.34718700  1
  Ge  Ge3  1  0.65281300  0.65281300  0.65281300  1
  P  P0  1  0.25165000  0.53390700  0.96616100  1
  P  P1  1  0.53390700  0.96616100  0.25165000  1
  P  P2  1  0.96616100  0.25165000  0.53390700  1
  P  P3  1  0.74835000  0.46609300  0.03383900  1
  P  P4  1  0.46609300  0.03383900  0.74835000  1
  P  P5  1  0.03383900  0.74835000  0.46609300  1
  O  O0  1  0.81302900  0.46359400  0.52810900  1
  O  O1  1  0.46359400  0.52810900  0.81302900  1
  O  O2  1  0.52810900  0.81302900  0.46359400  1
  O  O3  1  0.18697100  0.53640600  0.47189100  1
  O  O4  1  0.53640600  0.47189100  0.18697100  1
  O  O5  1  0.47189100  0.18697100  0.53640600  1
  O  O6  1  0.90484800  0.26789300  0.11208100  1
  O  O7  1  0.26789300  0.11208100  0.90484800  1
  O  O8  1  0.11208100  0.90484800  0.26789300  1
  O  O9  1  0.09515200  0.73210700  0.88791900  1
  O  O10  1  0.73210700  0.88791900  0.09515200  1
  O  O11  1  0.88791900  0.09515200  0.73210700  1
  O  O12  1  0.01633400  0.76806000  0.63614300  1
  O  O13  1  0.63614300  0.01633400  0.76806000  1
  O  O14  1  0.76806000  0.63614300  0.01633400  1
  O  O15  1  0.98366600  0.23194000  0.36385600  1
  O  O16  1  0.36385700  0.98366600  0.23194000  1
  O  O17  1  0.23194000  0.36385600  0.98366600  1
  O  O18  1  0.52186100  0.16479000  0.21498800  1
  O  O19  1  0.21498800  0.52186100  0.16479000  1
  O  O20  1  0.16479000  0.21498800  0.52186100  1
  O  O21  1  0.47813900  0.83521000  0.78501200  1
  O  O22  1  0.78501200  0.47813900  0.83521000  1
  O  O23  1  0.83521000  0.78501200  0.47813900  1
loop_
_geom_bond_atom_site_label_1
_geom_bond_atom_site_label_2
_geom_bond_distance
_geom_bond_site_symmetry_2
K0 O7 2.627855 1_554
K0 O10 2.627855 1_445
K0 O6 2.627855 1_455
K0 O9 2.627855 1_544
K0 O8 2.627855 1_545
K0 O11 2.627855 1_454
K0 O18 3.231014 1_455
K0 O21 3.231014 1_544
K0 O19 3.231014 1_545
K0 O22 3.231014 1_454
K0 O20 3.231014 1_554
K0 O23 3.231014 1_445
K1 O2 2.771330 1_555
K1 O5 2.771330 1_555
K1 O0 2.771330 1_555
K1 O3 2.771330 1_555
K1 O1 2.771331 1_555
K1 O4 2.771331 1_555
Ge0 O17 1.879076 1_554
Ge0 O15 1.879076 1_455
Ge0 O16 1.879083 1_545
Ge0 O8 1.914130 1_545
Ge0 O6 1.914130 1_455
Ge0 O7 1.914130 1_554
Ge1 O14 1.879083 1_556
Ge1 O13 1.879083 1_565
Ge1 O12 1.879083 1_655
Ge1 O11 1.914130 1_565
Ge1 O9 1.914130 1_655
Ge1 O10 1.914130 1_556
Ge2 O20 1.899445 1_555
Ge2 O18 1.899445 1_555
Ge2 O19 1.899445 1_555
Ge2 O4 1.912718 1_555
Ge2 O3 1.912718 1_555
Ge2 O5 1.912718 1_555
Ge3 O23 1.899445 1_555
Ge3 O21 1.899445 1_555
Ge3 O22 1.899445 1_555
Ge3 O1 1.912718 1_555
Ge3 O0 1.912718 1_555
Ge3 O2 1.912718 1_555
O0 P2 1.547172 1_555
O1 P0 1.547172 1_555
O2 P1 1.547172 1_555
O3 P5 1.547172 1_555
O4 P3 1.547172 1_555
O5 P4 1.547172 1_555
O6 P3 1.540673 1_555
O7 P4 1.540673 1_555
O8 P5 1.540673 1_555
O9 P0 1.540673 1_555
O10 P1 1.540673 1_555
O11 P2 1.540673 1_555
O12 P5 1.541292 1_555
O13 P4 1.541292 1_555
O14 P3 1.541292 1_555
O15 P2 1.541301 1_555
O16 P1 1.541292 1_555
O17 P0 1.541301 1_555
O18 P1 1.552903 1_545
O19 P0 1.552903 1_554
O20 P2 1.552903 1_455
O21 P4 1.552903 1_565
O22 P3 1.552903 1_556
O23 P5 1.552903 1_655
