# generated using pymatgen
data_VPt8
_symmetry_space_group_name_H-M   'P 1'
_cell_length_a   3.88989350
_cell_length_b   6.20206052
_cell_length_c   6.20205983
_cell_angle_alpha   84.38980268
_cell_angle_beta   71.81425027
_cell_angle_gamma   71.81425235
_symmetry_Int_Tables_number   1
_chemical_formula_structural   VPt8
_chemical_formula_sum   'V1 Pt8'
_cell_volume   135.05239422
_cell_formula_units_Z   1
loop_
 _symmetry_equiv_pos_site_id
 _symmetry_equiv_pos_as_xyz
  1  'x, y, z'
loop_
 _atom_site_type_symbol
 _atom_site_label
 _atom_site_symmetry_multiplicity
 _atom_site_fract_x
 _atom_site_fract_y
 _atom_site_fract_z
 _atom_site_occupancy
  V  V0  1  -0.00000504  1.00000634  1.00000634  1
  Pt  Pt0  1  0.33931833  0.99999430  0.32110573  1
  Pt  Pt1  1  0.66068001  0.00000476  0.67889468  1
  Pt  Pt2  1  0.66068001  0.67889468  0.00000476  1
  Pt  Pt3  1  0.33931833  0.32110573  0.99999430  1
  Pt  Pt4  1  1.00000156  0.32800392  0.67199295  1
  Pt  Pt5  1  1.00000156  0.67199295  0.32800392  1
  Pt  Pt6  1  0.67217672  0.32799787  0.32799787  1
  Pt  Pt7  1  0.32782954  0.67199845  0.67199845  1
loop_
_geom_bond_atom_site_label_1
_geom_bond_atom_site_label_2
_geom_bond_distance
_geom_bond_site_symmetry_2
Pt0 Pt3 2.675271 1_564
Pt0 Pt2 2.676238 1_555
Pt0 V0 2.710883 1_554
Pt0 V0 2.715902 1_654
Pt0 Pt5 2.739715 1_455
Pt0 Pt6 2.740863 1_565
Pt0 Pt6 2.743587 1_465
Pt0 Pt5 2.744674 1_555
Pt0 Pt7 2.829616 1_555
Pt0 Pt4 2.830763 1_465
Pt0 Pt1 2.866758 1_565
Pt0 Pt1 2.869888 1_465
Pt1 Pt2 2.675260 1_546
Pt1 Pt3 2.676238 1_555
Pt1 V0 2.710946 1_645
Pt1 V0 2.715940 1_545
Pt1 Pt4 2.739712 1_555
Pt1 Pt7 2.740862 1_545
Pt1 Pt7 2.743612 1_645
Pt1 Pt4 2.744660 1_455
Pt1 Pt6 2.829623 1_555
Pt1 Pt5 2.830787 1_545
Pt2 V0 2.710946 1_654
Pt2 V0 2.715940 1_554
Pt2 Pt5 2.739712 1_555
Pt2 Pt7 2.740862 1_554
Pt2 Pt7 2.743611 1_654
Pt2 Pt5 2.744660 1_455
Pt2 Pt6 2.829623 1_555
Pt2 Pt4 2.830787 1_554
Pt2 Pt3 2.866758 1_554
Pt2 Pt3 2.869888 1_654
Pt3 V0 2.710883 1_545
Pt3 V0 2.715902 1_645
Pt3 Pt4 2.739715 1_455
Pt3 Pt6 2.740863 1_556
Pt3 Pt6 2.743587 1_456
Pt3 Pt4 2.744674 1_555
Pt3 Pt7 2.829616 1_555
Pt3 Pt5 2.830763 1_456
Pt4 V0 2.732707 1_645
Pt4 Pt6 2.806443 1_555
Pt4 Pt7 2.806448 1_655
Pt4 Pt7 2.811801 1_555
Pt4 Pt6 2.811810 1_655
Pt4 Pt5 2.865871 1_555
Pt5 V0 2.732707 1_654
Pt5 Pt6 2.806443 1_555
Pt5 Pt7 2.806448 1_655
Pt5 Pt7 2.811800 1_555
Pt5 Pt6 2.811810 1_655
Pt6 V0 2.733670 1_644
Pt6 Pt7 2.867103 1_555
Pt7 V0 2.733806 1_555
