# generated using pymatgen
data_Mo3W(SeS)4
_symmetry_space_group_name_H-M   'P 1'
_cell_length_a   3.25699216
_cell_length_b   3.25699216
_cell_length_c   41.62656300
_cell_angle_alpha   90.00000000
_cell_angle_beta   90.00000000
_cell_angle_gamma   120.00000331
_symmetry_Int_Tables_number   1
_chemical_formula_structural   Mo3W(SeS)4
_chemical_formula_sum   'Mo3 W1 Se4 S4'
_cell_volume   382.41471752
_cell_formula_units_Z   1
loop_
 _symmetry_equiv_pos_site_id
 _symmetry_equiv_pos_as_xyz
  1  'x, y, z'
loop_
 _atom_site_type_symbol
 _atom_site_label
 _atom_site_symmetry_multiplicity
 _atom_site_fract_x
 _atom_site_fract_y
 _atom_site_fract_z
 _atom_site_occupancy
  Mo  Mo0  1  0.00000000  0.00000000  0.09255500  1
  Mo  Mo1  1  0.00000000  0.00000000  0.46680600  1
  Mo  Mo2  1  0.33333300  0.66666700  0.28017800  1
  W  W0  1  0.33333300  0.66666700  0.66337900  1
  Se  Se0  1  0.00000000  0.00000000  0.70439700  1
  Se  Se1  1  0.33333300  0.66666700  0.42601600  1
  Se  Se2  1  0.33333300  0.66666700  0.50761100  1
  Se  Se3  1  0.00000000  0.00000000  0.62232500  1
  S  S0  1  0.00000000  0.00000000  0.31727000  1
  S  S1  1  0.33333300  0.66666700  0.05547200  1
  S  S2  1  0.33333300  0.66666700  0.12965000  1
  S  S3  1  0.00000000  0.00000000  0.24309000  1
loop_
_geom_bond_atom_site_label_1
_geom_bond_atom_site_label_2
_geom_bond_distance
_geom_bond_site_symmetry_2
Mo0 S1 2.432860 1_545
Mo0 S1 2.432863 1_445
Mo0 S1 2.432863 1_555
Mo0 S2 2.433177 1_545
Mo0 S2 2.433180 1_555
Mo0 S2 2.433180 1_445
Mo1 Se1 2.533578 1_545
Mo1 Se1 2.533580 1_555
Mo1 Se1 2.533580 1_445
Mo1 Se2 2.533997 1_545
Mo1 Se2 2.533999 1_445
Mo1 Se2 2.533999 1_555
Mo2 S3 2.432993 1_565
Mo2 S3 2.432995 1_665
Mo2 S3 2.432995 1_555
Mo2 S0 2.433098 1_565
Mo2 S0 2.433100 1_555
Mo2 S0 2.433100 1_665
Se0 W0 2.539948 1_545
Se0 W0 2.539950 1_555
Se0 W0 2.539950 1_445
Se3 W0 2.540956 1_545
Se3 W0 2.540958 1_445
Se3 W0 2.540958 1_555
