# generated using pymatgen
data_Dy(CuS)2
_symmetry_space_group_name_H-M   'P 1'
_cell_length_a   3.94531524
_cell_length_b   3.94531524
_cell_length_c   6.35603300
_cell_angle_alpha   90.00000000
_cell_angle_beta   90.00000000
_cell_angle_gamma   119.99998719
_symmetry_Int_Tables_number   1
_chemical_formula_structural   Dy(CuS)2
_chemical_formula_sum   'Dy1 Cu2 S2'
_cell_volume   85.68015637
_cell_formula_units_Z   1
loop_
 _symmetry_equiv_pos_site_id
 _symmetry_equiv_pos_as_xyz
  1  'x, y, z'
loop_
 _atom_site_type_symbol
 _atom_site_label
 _atom_site_symmetry_multiplicity
 _atom_site_fract_x
 _atom_site_fract_y
 _atom_site_fract_z
 _atom_site_occupancy
  Dy  Dy0  1  0.00000000  0.00000000  0.00000000  1
  Cu  Cu0  1  0.66666700  0.33333300  0.66054600  1
  Cu  Cu1  1  0.33333300  0.66666700  0.33945400  1
  S  S0  1  0.66666700  0.33333300  0.26604300  1
  S  S1  1  0.33333300  0.66666700  0.73395700  1
loop_
_geom_bond_atom_site_label_1
_geom_bond_atom_site_label_2
_geom_bond_distance
_geom_bond_site_symmetry_2
Dy0 S1 2.836882 1_544
Dy0 S0 2.836882 1_455
Dy0 S0 2.836885 1_555
Dy0 S1 2.836885 1_444
Dy0 S1 2.836885 1_554
Dy0 S0 2.836885 1_445
Cu0 S1 2.325126 1_545
Cu0 S1 2.325126 1_655
Cu0 S1 2.325133 1_555
Cu0 S0 2.507474 1_555
Cu1 S0 2.325126 1_455
Cu1 S0 2.325126 1_565
Cu1 S0 2.325133 1_555
Cu1 S1 2.507474 1_555
