# generated using pymatgen
data_MgMn8O13F3
_symmetry_space_group_name_H-M   'P 1'
_cell_length_a   6.71532396
_cell_length_b   5.75810320
_cell_length_c   7.05613845
_cell_angle_alpha   84.81229484
_cell_angle_beta   94.04898019
_cell_angle_gamma   90.09076225
_symmetry_Int_Tables_number   1
_chemical_formula_structural   MgMn8O13F3
_chemical_formula_sum   'Mg1 Mn8 O13 F3'
_cell_volume   271.04444125
_cell_formula_units_Z   1
loop_
 _symmetry_equiv_pos_site_id
 _symmetry_equiv_pos_as_xyz
  1  'x, y, z'
loop_
 _atom_site_type_symbol
 _atom_site_label
 _atom_site_symmetry_multiplicity
 _atom_site_fract_x
 _atom_site_fract_y
 _atom_site_fract_z
 _atom_site_occupancy
  Mg  Mg0  1  0.87963100  0.90068500  0.60792600  1
  Mn  Mn0  1  0.36507300  0.34475300  0.11529300  1
  Mn  Mn1  1  0.13319600  0.66672600  0.37172100  1
  Mn  Mn2  1  0.86094600  0.16215800  0.12822700  1
  Mn  Mn3  1  0.39685200  0.13394800  0.63423000  1
  Mn  Mn4  1  0.16056600  0.87126000  0.91431200  1
  Mn  Mn5  1  0.59208500  0.82322400  0.32905900  1
  Mn  Mn6  1  0.60846000  0.61917000  0.86725800  1
  Mn  Mn7  1  0.87872200  0.38017600  0.64620800  1
  O  O0  1  0.14481800  0.12524600  0.08982300  1
  O  O1  1  0.18060600  0.61841300  0.10820400  1
  O  O2  1  0.57495300  0.57565500  0.13309800  1
  O  O3  1  0.07125400  0.62765600  0.64119700  1
  O  O4  1  0.34523600  0.87195500  0.42637600  1
  O  O5  1  0.10152400  0.11245500  0.69146100  1
  O  O6  1  0.57585700  0.10755400  0.15919700  1
  O  O7  1  0.42848900  0.87794200  0.83135700  1
  O  O8  1  0.67550000  0.14995400  0.58964700  1
  O  O9  1  0.88122200  0.88734500  0.31858300  1
  O  O10  1  0.41389700  0.38696300  0.85143400  1
  O  O11  1  0.67796400  0.63182900  0.59893700  1
  O  O12  1  0.82389800  0.39185700  0.90260200  1
  F  F0  1  0.33674500  0.36309100  0.40501000  1
  F  F1  1  0.93118300  0.39204800  0.36666900  1
  F  F2  1  0.84132500  0.85889000  0.90217200  1
loop_
_geom_bond_atom_site_label_1
_geom_bond_atom_site_label_2
_geom_bond_distance
_geom_bond_site_symmetry_2
Mg0 O8 1.975770 1_565
Mg0 O5 2.013676 1_665
Mg0 O3 2.019799 1_655
Mg0 O9 2.050797 1_555
Mg0 O11 2.057581 1_555
Mn0 O10 1.907115 1_554
Mn0 O2 1.941446 1_555
Mn0 O0 1.953243 1_555
Mn0 O6 1.957729 1_555
Mn0 O1 2.000806 1_555
Mn1 O4 1.890050 1_555
Mn1 O1 1.952841 1_555
Mn1 O3 1.968051 1_555
Mn1 O9 2.109172 1_455
Mn2 O0 1.958879 1_655
Mn2 O6 1.963807 1_555
Mn2 O12 1.977414 1_554
Mn2 O9 1.979181 1_545
Mn3 O8 1.919956 1_555
Mn3 O7 1.934259 1_545
Mn3 O5 2.053011 1_555
Mn3 O10 2.205228 1_555
Mn3 O4 2.207642 1_545
Mn4 O1 1.903681 1_556
Mn4 O7 1.930187 1_555
Mn4 O0 2.007548 1_566
Mn4 O5 2.019273 1_565
Mn4 O3 2.522712 1_555
Mn5 O4 1.869547 1_555
Mn5 O6 1.938075 1_565
Mn5 O9 1.981122 1_555
Mn5 O2 2.071417 1_555
Mn5 O11 2.154276 1_555
Mn6 O10 1.873011 1_555
Mn6 O2 1.899074 1_556
Mn6 O7 1.907673 1_555
Mn6 O12 1.940221 1_555
Mn6 O11 1.976743 1_555
Mn7 O12 1.878627 1_555
Mn7 O3 1.922252 1_655
Mn7 O8 1.947318 1_555
Mn7 O11 1.970733 1_555
Mn7 O5 2.137238 1_655
F0 Mn3 2.010821 1_555
F0 Mn0 2.078569 1_555
F0 Mn1 2.206426 1_555
F1 Mn7 2.023135 1_555
F1 Mn1 2.083193 1_655
F1 Mn2 2.257028 1_555
F2 Mn6 2.100386 1_555
F2 Mg0 2.102316 1_555
F2 Mn4 2.140795 1_655
F2 Mn2 2.466639 1_566
