# generated using pymatgen
data_AgPb2Cl3OF
_symmetry_space_group_name_H-M   'P 1'
_cell_length_a   10.15335708
_cell_length_b   10.15335708
_cell_length_c   10.15335708
_cell_angle_alpha   120.25458121
_cell_angle_beta   120.25458121
_cell_angle_gamma   89.55961512
_symmetry_Int_Tables_number   1
_chemical_formula_structural   AgPb2Cl3OF
_chemical_formula_sum   'Ag4 Pb8 Cl12 O4 F4'
_cell_volume   737.26852359
_cell_formula_units_Z   4
loop_
 _symmetry_equiv_pos_site_id
 _symmetry_equiv_pos_as_xyz
  1  'x, y, z'
loop_
 _atom_site_type_symbol
 _atom_site_label
 _atom_site_symmetry_multiplicity
 _atom_site_fract_x
 _atom_site_fract_y
 _atom_site_fract_z
 _atom_site_occupancy
  Ag  Ag0  1  0.25147400  0.50224100  0.25076700  1
  Ag  Ag1  1  0.25147400  0.00070700  0.74923300  1
  Ag  Ag2  1  0.75070700  0.50147400  0.24923300  1
  Ag  Ag3  1  0.25224100  0.50147400  0.75076700  1
  Pb  Pb0  1  0.53878900  0.22657500  0.68778600  1
  Pb  Pb1  1  0.53878900  0.85100200  0.31221400  1
  Pb  Pb2  1  0.91309500  0.22109000  0.69200500  1
  Pb  Pb3  1  0.52908500  0.22109000  0.30799500  1
  Pb  Pb4  1  0.97109000  0.77908500  0.80799500  1
  Pb  Pb5  1  0.97109000  0.16309500  0.19200500  1
  Pb  Pb6  1  0.60100200  0.78878900  0.81221400  1
  Pb  Pb7  1  0.97657500  0.78878900  0.18778600  1
  Cl  Cl0  1  0.93260400  0.43260400  0.50000000  1
  Cl  Cl1  1  0.31960000  0.81960000  0.50000000  1
  Cl  Cl2  1  0.32571800  0.82699400  0.90318600  1
  Cl  Cl3  1  0.92380800  0.42253200  0.09681400  1
  Cl  Cl4  1  0.32571800  0.42253200  0.49872300  1
  Cl  Cl5  1  0.92380800  0.82699400  0.50127700  1
  Cl  Cl6  1  0.56960000  0.56960000  0.00000000  1
  Cl  Cl7  1  0.18260400  0.18260400  0.00000000  1
  Cl  Cl8  1  0.17253200  0.17380800  0.59681400  1
  Cl  Cl9  1  0.57699400  0.57571800  0.40318600  1
  Cl  Cl10  1  0.17253200  0.57571800  0.99872300  1
  Cl  Cl11  1  0.57699400  0.17380800  0.00127700  1
  O  O0  1  0.69358500  0.07566400  0.38207900  1
  O  O1  1  0.69358500  0.31150600  0.61792100  1
  O  O2  1  0.06150600  0.94358500  0.11792100  1
  O  O3  1  0.82566400  0.94358500  0.88207900  1
  F  F0  1  0.39973600  0.04443400  0.35530200  1
  F  F1  1  0.68913200  0.04443400  0.64469800  1
  F  F2  1  0.79443400  0.93913200  0.14469800  1
  F  F3  1  0.79443400  0.64973600  0.85530200  1
loop_
_geom_bond_atom_site_label_1
_geom_bond_atom_site_label_2
_geom_bond_distance
_geom_bond_site_symmetry_2
Ag0 Cl1 2.705318 1_555
Ag0 Cl7 2.723671 1_555
Ag0 Cl9 2.756019 1_555
Ag0 Cl10 2.756028 1_554
Ag0 Cl4 2.773603 1_555
Ag0 Cl3 2.773612 1_455
Ag1 Cl1 2.705318 1_545
Ag1 Cl7 2.723671 1_556
Ag1 Cl8 2.756019 1_555
Ag1 Cl11 2.756019 1_556
Ag1 Cl2 2.773612 1_545
Ag1 Cl5 2.773612 1_445
Ag2 Cl6 2.705318 1_555
Ag2 Cl0 2.723671 1_555
Ag2 Cl3 2.756019 1_555
Ag2 Cl5 2.756019 1_555
Ag2 Cl9 2.773612 1_555
Ag2 Cl11 2.773612 1_555
Ag3 Cl6 2.705318 1_556
Ag3 Cl0 2.723671 1_455
Ag3 Cl2 2.756019 1_555
Ag3 Cl4 2.756028 1_555
Ag3 Cl10 2.773603 1_555
Ag3 Cl8 2.773612 1_555
Cl0 Pb4 3.164150 1_555
Cl0 Pb5 3.164150 1_555
Cl7 Pb3 3.164150 1_555
Cl7 Pb2 3.164150 1_454
O0 Pb2 2.313222 1_555
O0 Pb3 2.313222 1_555
O0 Pb1 2.340474 1_545
O1 Pb2 2.313222 1_555
O1 Pb3 2.313222 1_555
O1 Pb0 2.340466 1_555
O2 Pb5 2.313222 1_465
O2 Pb4 2.313222 1_454
O2 Pb7 2.340466 1_455
O3 Pb4 2.313222 1_555
O3 Pb5 2.313222 1_566
O3 Pb6 2.340474 1_555
F0 Pb0 2.399145 1_555
F0 Pb1 2.399152 1_545
F0 Pb3 2.590900 1_555
F1 Pb0 2.399145 1_555
F1 Pb1 2.399146 1_545
F1 Pb2 2.590900 1_555
F2 Pb7 2.399145 1_555
F2 Pb6 2.399146 1_554
F2 Pb5 2.590900 1_565
F3 Pb7 2.399145 1_556
F3 Pb6 2.399152 1_555
F3 Pb4 2.590900 1_555
