# generated using pymatgen
data_Na4Eu2GeAs4
_symmetry_space_group_name_H-M   'P 1'
_cell_length_a   9.61708843
_cell_length_b   9.61708843
_cell_length_c   7.35238859
_cell_angle_alpha   89.66773291
_cell_angle_beta   89.66773291
_cell_angle_gamma   119.53001103
_symmetry_Int_Tables_number   1
_chemical_formula_structural   Na4Eu2GeAs4
_chemical_formula_sum   'Na8 Eu4 Ge2 As8'
_cell_volume   591.63637100
_cell_formula_units_Z   2
loop_
 _symmetry_equiv_pos_site_id
 _symmetry_equiv_pos_as_xyz
  1  'x, y, z'
loop_
 _atom_site_type_symbol
 _atom_site_label
 _atom_site_symmetry_multiplicity
 _atom_site_fract_x
 _atom_site_fract_y
 _atom_site_fract_z
 _atom_site_occupancy
  Na  Na0  1  0.47688800  0.95320300  0.37981500  1
  Na  Na1  1  0.95320300  0.47688800  0.87981500  1
  Na  Na2  1  0.85742400  0.71241500  0.19905000  1
  Na  Na3  1  0.28921500  0.14083900  0.20456100  1
  Na  Na4  1  0.85252300  0.14235900  0.20298400  1
  Na  Na5  1  0.14083900  0.28921500  0.70456100  1
  Na  Na6  1  0.71241500  0.85742400  0.69905000  1
  Na  Na7  1  0.14235900  0.85252300  0.70298400  1
  Eu  Eu0  1  0.04590300  0.52437900  0.37977200  1
  Eu  Eu1  1  0.47881800  0.52582300  0.38001600  1
  Eu  Eu2  1  0.52437900  0.04590300  0.87977200  1
  Eu  Eu3  1  0.52582300  0.47881800  0.88001600  1
  Ge  Ge0  1  0.66541000  0.33025100  0.50203500  1
  Ge  Ge1  1  0.33025100  0.66541000  0.00203500  1
  As  As0  1  0.66465900  0.33562500  0.15719600  1
  As  As1  1  0.33562500  0.66465900  0.65719600  1
  As  As2  1  0.19364200  0.38160100  0.10827200  1
  As  As3  1  0.61787800  0.80750400  0.10052200  1
  As  As4  1  0.19273000  0.81049900  0.10374200  1
  As  As5  1  0.80750400  0.61787800  0.60052200  1
  As  As6  1  0.38160100  0.19364200  0.60827200  1
  As  As7  1  0.81049900  0.19273000  0.60374200  1
loop_
_geom_bond_atom_site_label_1
_geom_bond_atom_site_label_2
_geom_bond_distance
_geom_bond_site_symmetry_2
Eu0 Ge0 3.300248 1_455
Eu0 Na2 3.398904 1_455
Eu0 Na4 3.463240 1_455
Eu0 Ge1 3.639082 1_555
Eu0 Na5 3.694443 1_555
Eu0 Na7 3.700476 1_555
Eu0 Na1 3.749832 1_455
Eu0 Na1 3.764514 1_454
Eu2 Ge1 3.300248 1_546
Eu2 Na6 3.398904 1_545
Eu2 Na7 3.463240 1_545
Eu2 Ge0 3.639082 1_555
Eu2 Na3 3.694443 1_556
Eu2 Na4 3.700476 1_556
Eu2 Na0 3.749832 1_546
Eu2 Na0 3.764514 1_545
Ge0 Na0 3.289268 1_545
Ge1 Na1 3.289268 1_454
As0 Ge0 2.535742 1_555
As0 Eu3 3.105457 1_554
As0 Na1 3.145033 1_554
As0 Na3 3.158768 1_555
As0 Na2 3.171697 1_555
As0 Eu2 3.183760 1_554
As0 Na4 3.184672 1_555
As0 Eu0 3.599910 1_655
As1 Ge1 2.535742 1_556
As1 Eu1 3.105457 1_555
As1 Na0 3.145033 1_555
As1 Na5 3.158768 1_555
As1 Na6 3.171697 1_555
As1 Eu0 3.183760 1_555
As1 Na7 3.184672 1_555
As1 Eu2 3.599910 1_565
As2 Ge1 2.492875 1_555
As2 Na3 2.965407 1_555
As2 Na4 3.009192 1_455
As2 Na5 3.075880 1_554
As2 Eu1 3.127815 1_555
As2 Eu0 3.132238 1_555
As2 Eu3 3.297195 1_554
As2 Na1 3.335266 1_454
As3 Ge1 2.520274 1_555
As3 Na2 2.959161 1_555
As3 Na4 2.985740 1_565
As3 Na6 3.048318 1_554
As3 Eu1 3.111603 1_555
As3 Na0 3.145240 1_555
As3 Eu2 3.271891 1_564
As3 Eu3 3.274390 1_554
As4 Ge1 2.464759 1_555
As4 Na3 2.938133 1_565
As4 Na2 2.957528 1_455
As4 Na7 3.045614 1_554
As4 Eu0 3.123472 1_555
As4 Na0 3.141846 1_555
As4 Eu2 3.284476 1_564
As4 Na1 3.336234 1_454
As5 Ge0 2.520274 1_555
As5 Na6 2.959161 1_555
As5 Na7 2.985740 1_655
As5 Na2 3.048318 1_555
As5 Eu3 3.111603 1_555
As5 Na1 3.145240 1_555
As5 Eu0 3.271891 1_655
As5 Eu1 3.274390 1_555
As6 Ge0 2.492875 1_555
As6 Na5 2.965407 1_555
As6 Na7 3.009192 1_545
As6 Na3 3.075880 1_555
As6 Eu3 3.127815 1_555
As6 Eu2 3.132238 1_555
As6 Eu1 3.297195 1_555
As6 Na0 3.335266 1_545
As7 Ge0 2.464759 1_555
As7 Na5 2.938133 1_655
As7 Na6 2.957528 1_545
As7 Na4 3.045614 1_555
As7 Eu2 3.123472 1_555
As7 Na1 3.141846 1_555
As7 Eu0 3.284476 1_655
As7 Na0 3.336234 1_545
