# generated using pymatgen
data_CeSe2
_symmetry_space_group_name_H-M   'P 1'
_cell_length_a   16.90655441
_cell_length_b   16.90655441
_cell_length_c   17.30894381
_cell_angle_alpha   90.00000000
_cell_angle_beta   90.00000000
_cell_angle_gamma   120.00000255
_symmetry_Int_Tables_number   1
_chemical_formula_structural   CeSe2
_chemical_formula_sum   'Ce12 Se24'
_cell_volume   4284.61103289
_cell_formula_units_Z   12
loop_
 _symmetry_equiv_pos_site_id
 _symmetry_equiv_pos_as_xyz
  1  'x, y, z'
loop_
 _atom_site_type_symbol
 _atom_site_label
 _atom_site_symmetry_multiplicity
 _atom_site_fract_x
 _atom_site_fract_y
 _atom_site_fract_z
 _atom_site_occupancy
  Ce  Ce0  1  0.56960610  0.13921220  0.89555253  1
  Ce  Ce1  1  0.56960610  0.43039390  0.89555253  1
  Ce  Ce2  1  0.86078780  0.43039390  0.89555253  1
  Ce  Ce3  1  0.43039390  0.86078780  0.10444747  1
  Ce  Ce4  1  0.43039390  0.56960610  0.10444747  1
  Ce  Ce5  1  0.13921220  0.56960610  0.10444747  1
  Ce  Ce6  1  0.43039390  0.86078780  0.39555253  1
  Ce  Ce7  1  0.43039390  0.56960610  0.39555253  1
  Ce  Ce8  1  0.13921220  0.56960610  0.39555253  1
  Ce  Ce9  1  0.56960610  0.13921220  0.60444747  1
  Ce  Ce10  1  0.56960610  0.43039390  0.60444747  1
  Ce  Ce11  1  0.86078780  0.43039390  0.60444747  1
  Se  Se0  1  0.00000000  0.50000000  0.00000000  1
  Se  Se1  1  0.50000000  0.00000000  0.00000000  1
  Se  Se2  1  0.50000000  0.50000000  0.00000000  1
  Se  Se3  1  0.00000000  0.50000000  0.50000000  1
  Se  Se4  1  0.50000000  0.00000000  0.50000000  1
  Se  Se5  1  0.50000000  0.50000000  0.50000000  1
  Se  Se6  1  0.49482584  0.24741292  0.91499511  1
  Se  Se7  1  0.75258708  0.50517416  0.91499511  1
  Se  Se8  1  0.75258708  0.24741292  0.91499511  1
  Se  Se9  1  0.50517416  0.75258708  0.08500489  1
  Se  Se10  1  0.24741292  0.49482584  0.08500489  1
  Se  Se11  1  0.24741292  0.75258708  0.08500489  1
  Se  Se12  1  0.50517416  0.75258708  0.41499511  1
  Se  Se13  1  0.24741292  0.49482584  0.41499511  1
  Se  Se14  1  0.24741292  0.75258708  0.41499511  1
  Se  Se15  1  0.49482584  0.24741292  0.58500489  1
  Se  Se16  1  0.75258708  0.50517416  0.58500489  1
  Se  Se17  1  0.75258708  0.24741292  0.58500489  1
  Se  Se18  1  0.06919854  0.53459927  0.25000000  1
  Se  Se19  1  0.46540073  0.93080146  0.25000000  1
  Se  Se20  1  0.46540073  0.53459927  0.25000000  1
  Se  Se21  1  0.93080146  0.46540073  0.75000000  1
  Se  Se22  1  0.53459927  0.06919854  0.75000000  1
  Se  Se23  1  0.53459927  0.46540073  0.75000000  1
loop_
_geom_bond_atom_site_label_1
_geom_bond_atom_site_label_2
_geom_bond_distance
_geom_bond_site_symmetry_2
Ce0 Se8 2.714910 1_555
Ce0 Se6 2.714910 1_555
Ce0 Se22 2.719930 1_555
Ce0 Se1 2.724515 1_556
Ce1 Se7 2.714910 1_555
Ce1 Se6 2.714910 1_555
Ce1 Se23 2.719930 1_555
Ce1 Se2 2.724515 1_556
Ce2 Se8 2.714910 1_555
Ce2 Se7 2.714910 1_555
Ce2 Se21 2.719930 1_555
Ce2 Se0 2.724515 1_656
Ce3 Se11 2.714910 1_555
Ce3 Se9 2.714910 1_555
Ce3 Se19 2.719930 1_555
Ce3 Se1 2.724515 1_565
Ce4 Se9 2.714910 1_555
Ce4 Se10 2.714910 1_555
Ce4 Se20 2.719930 1_555
Ce4 Se2 2.724515 1_555
Ce5 Se11 2.714910 1_555
Ce5 Se10 2.714910 1_555
Ce5 Se18 2.719930 1_555
Ce5 Se0 2.724515 1_555
Ce6 Se14 2.714910 1_555
Ce6 Se12 2.714910 1_555
Ce6 Se19 2.719930 1_555
Ce6 Se4 2.724515 1_565
Ce7 Se12 2.714910 1_555
Ce7 Se13 2.714910 1_555
Ce7 Se20 2.719930 1_555
Ce7 Se5 2.724515 1_555
Ce8 Se14 2.714910 1_555
Ce8 Se13 2.714910 1_555
Ce8 Se18 2.719930 1_555
Ce8 Se3 2.724515 1_555
Ce9 Se17 2.714910 1_555
Ce9 Se15 2.714910 1_555
Ce9 Se22 2.719930 1_555
Ce9 Se4 2.724515 1_555
Ce10 Se16 2.714910 1_555
Ce10 Se15 2.714910 1_555
Ce10 Se23 2.719930 1_555
Ce10 Se5 2.724515 1_555
Ce11 Se17 2.714910 1_555
Ce11 Se16 2.714910 1_555
Ce11 Se21 2.719930 1_555
Ce11 Se3 2.724515 1_655
