# generated using pymatgen
data_Sr6Yb4(CdSb2)5
_symmetry_space_group_name_H-M   'P 1'
_cell_length_a   9.41845066
_cell_length_b   9.41845066
_cell_length_c   37.13293143
_cell_angle_alpha   89.94475147
_cell_angle_beta   89.94475147
_cell_angle_gamma   29.15348585
_symmetry_Int_Tables_number   1
_chemical_formula_structural   Sr6Yb4(CdSb2)5
_chemical_formula_sum   'Sr12 Yb8 Cd10 Sb20'
_cell_volume   1604.65401880
_cell_formula_units_Z   2
loop_
 _symmetry_equiv_pos_site_id
 _symmetry_equiv_pos_as_xyz
  1  'x, y, z'
loop_
 _atom_site_type_symbol
 _atom_site_label
 _atom_site_symmetry_multiplicity
 _atom_site_fract_x
 _atom_site_fract_y
 _atom_site_fract_z
 _atom_site_occupancy
  Sr  Sr0  1  0.30181200  0.30181200  0.80531200  1
  Sr  Sr1  1  0.30143600  0.30143600  0.60491000  1
  Sr  Sr2  1  0.30152900  0.30152900  0.40478300  1
  Sr  Sr3  1  0.30191800  0.30191800  0.20518900  1
  Sr  Sr4  1  0.30193300  0.30193300  0.00518200  1
  Sr  Sr5  1  0.69807800  0.69807800  0.90516700  1
  Sr  Sr6  1  0.69884000  0.69884000  0.70573300  1
  Sr  Sr7  1  0.69904300  0.69904300  0.50564500  1
  Sr  Sr8  1  0.69827800  0.69827800  0.30508400  1
  Sr  Sr9  1  0.69804300  0.69804300  0.10519200  1
  Sr  Sr10  1  0.52045500  0.52045500  0.64479700  1
  Sr  Sr11  1  0.52042100  0.52042100  0.44464100  1
  Yb  Yb0  1  0.47918700  0.47918700  0.94446400  1
  Yb  Yb1  1  0.47913200  0.47913200  0.74519500  1
  Yb  Yb2  1  0.47865100  0.47865100  0.54452300  1
  Yb  Yb3  1  0.47870800  0.47870800  0.34379500  1
  Yb  Yb4  1  0.47921000  0.47921000  0.14445900  1
  Yb  Yb5  1  0.52081300  0.52081300  0.84454800  1
  Yb  Yb6  1  0.52076500  0.52076500  0.24440700  1
  Yb  Yb7  1  0.52077000  0.52077000  0.04447400  1
  Cd  Cd0  1  0.09518400  0.09518400  0.97864000  1
  Cd  Cd1  1  0.09543000  0.09543000  0.77924400  1
  Cd  Cd2  1  0.09594900  0.09594900  0.57868800  1
  Cd  Cd3  1  0.09565800  0.09565800  0.37805000  1
  Cd  Cd4  1  0.09518400  0.09518400  0.17862500  1
  Cd  Cd5  1  0.90482700  0.90482700  0.87866100  1
  Cd  Cd6  1  0.90324700  0.90324700  0.67891400  1
  Cd  Cd7  1  0.90319900  0.90319900  0.47885700  1
  Cd  Cd8  1  0.90478700  0.90478700  0.27859800  1
  Cd  Cd9  1  0.90485500  0.90485500  0.07865000  1
  Sb  Sb0  1  0.32839100  0.32839100  0.90174200  1
  Sb  Sb1  1  0.32829000  0.32829000  0.70193500  1
  Sb  Sb2  1  0.32820300  0.32820300  0.50176400  1
  Sb  Sb3  1  0.32831100  0.32831100  0.30155100  1
  Sb  Sb4  1  0.32837700  0.32837700  0.10174100  1
  Sb  Sb5  1  0.67186400  0.67186400  0.80187100  1
  Sb  Sb6  1  0.67478300  0.67478300  0.60049700  1
  Sb  Sb7  1  0.67455600  0.67455600  0.40027600  1
  Sb  Sb8  1  0.67162200  0.67162200  0.20169000  1
  Sb  Sb9  1  0.67164700  0.67164700  0.00169900  1
  Sb  Sb10  1  0.06263500  0.06263500  0.90058800  1
  Sb  Sb11  1  0.06356300  0.06356300  0.70250600  1
  Sb  Sb12  1  0.06364700  0.06364700  0.50232200  1
  Sb  Sb13  1  0.06270700  0.06270700  0.30042800  1
  Sb  Sb14  1  0.06266100  0.06266100  0.10058600  1
  Sb  Sb15  1  0.93725100  0.93725100  0.80074200  1
  Sb  Sb16  1  0.93461900  0.93461900  0.59933300  1
  Sb  Sb17  1  0.93473400  0.93473400  0.39920200  1
  Sb  Sb18  1  0.93742100  0.93742100  0.20061200  1
  Sb  Sb19  1  0.93737400  0.93737400  0.00060900  1
loop_
_geom_bond_atom_site_label_1
_geom_bond_atom_site_label_2
_geom_bond_distance
_geom_bond_site_symmetry_2
Cd0 Sb9 2.880536 1_546
Cd0 Sb9 2.880536 1_456
Cd0 Sb10 2.958999 1_555
Cd0 Sb19 2.989606 1_446
Cd1 Sb5 2.875544 1_455
Cd1 Sb5 2.875544 1_545
Cd1 Sb11 2.908693 1_555
Cd1 Sb15 2.991380 1_445
Cd2 Sb6 2.888333 1_545
Cd2 Sb6 2.888333 1_455
Cd2 Sb12 2.896769 1_555
Cd2 Sb16 3.038665 1_445
Cd3 Sb7 2.893301 1_545
Cd3 Sb7 2.893301 1_455
Cd3 Sb13 2.944851 1_555
Cd3 Sb17 3.036301 1_445
Cd4 Sb8 2.880381 1_545
Cd4 Sb8 2.880381 1_455
Cd4 Sb14 2.958431 1_555
Cd4 Sb18 2.988963 1_445
Cd5 Sb0 2.879714 1_565
Cd5 Sb0 2.879714 1_655
Cd5 Sb15 2.952548 1_555
Cd5 Sb10 2.990708 1_665
Cd6 Sb1 2.866108 1_565
Cd6 Sb1 2.866108 1_655
Cd6 Sb16 3.009353 1_555
Cd6 Sb11 3.051957 1_665
Cd6 Sr10 3.432804 1_565
Cd6 Sr10 3.432804 1_655
Cd7 Sb2 2.865189 1_565
Cd7 Sb2 2.865189 1_655
Cd7 Sb17 3.012614 1_555
Cd7 Sb12 3.052908 1_665
Cd7 Sr11 3.434318 1_655
Cd7 Sr11 3.434318 1_565
Cd8 Sb3 2.878658 1_565
Cd8 Sb3 2.878658 1_655
Cd8 Sb18 2.955750 1_555
Cd8 Sb13 2.991691 1_665
Cd9 Sb4 2.880195 1_565
Cd9 Sb4 2.880195 1_655
Cd9 Sb19 2.957331 1_555
Cd9 Sb14 2.990764 1_665
Sb0 Yb0 3.175353 1_555
Sb0 Sr5 3.358309 1_545
Sb0 Sr5 3.358309 1_455
Sb0 Sr0 3.613843 1_555
Sb0 Sr4 3.870721 1_556
Sb1 Yb1 3.186122 1_555
Sb1 Sr6 3.347744 1_455
Sb1 Sr6 3.347744 1_545
Sb1 Sr1 3.636416 1_555
Sb1 Sr0 3.868445 1_555
Sb2 Yb2 3.170548 1_555
Sb2 Sr7 3.344148 1_545
Sb2 Sr7 3.344148 1_455
Sb2 Sr2 3.634353 1_555
Sb2 Sr1 3.860591 1_555
Sb3 Yb3 3.160191 1_555
Sb3 Sr8 3.354852 1_455
Sb3 Sr8 3.354852 1_545
Sb3 Sr3 3.610884 1_555
Sb3 Sr2 3.863794 1_555
Sb4 Yb4 3.175863 1_555
Sb4 Sr9 3.358616 1_455
Sb4 Sr9 3.358616 1_545
Sb4 Sr4 3.618259 1_555
Sb4 Sr3 3.871018 1_555
Sb5 Yb5 3.175809 1_555
Sb5 Sr0 3.353807 1_565
Sb5 Sr0 3.353807 1_655
Sb5 Sr6 3.603115 1_555
Sb5 Sr5 3.865812 1_555
Sb6 Sr10 3.257679 1_555
Sb6 Sr1 3.313261 1_565
Sb6 Sr1 3.313261 1_655
Sb6 Sr7 3.549355 1_555
Sb6 Sr6 3.932689 1_555
Sb7 Sr11 3.255862 1_555
Sb7 Sr2 3.317506 1_565
Sb7 Sr2 3.317506 1_655
Sb7 Sr8 3.560687 1_555
Sb7 Sr7 3.938486 1_555
Sb8 Yb6 3.173485 1_555
Sb8 Sr3 3.358376 1_655
Sb8 Sr3 3.358376 1_565
Sb8 Sr9 3.615007 1_555
Sb8 Sr8 3.870435 1_555
Sb9 Yb7 3.174876 1_555
Sb9 Sr4 3.358224 1_565
Sb9 Sr4 3.358224 1_655
Sb9 Sr5 3.616282 1_554
Sb9 Sr9 3.873485 1_555
Sb10 Yb5 3.245543 1_455
Sb10 Yb5 3.245543 1_545
Sb10 Yb0 3.253103 1_455
Sb10 Yb0 3.253103 1_545
Sb10 Sr5 3.427174 1_545
Sb10 Sr5 3.427174 1_455
Sb11 Yb1 3.239741 1_455
Sb11 Yb1 3.239741 1_545
Sb11 Sr10 3.291173 1_545
Sb11 Sr10 3.291173 1_455
Sb11 Sr6 3.422833 1_455
Sb11 Sr6 3.422833 1_545
Sb12 Yb2 3.235836 1_545
Sb12 Yb2 3.235836 1_455
Sb12 Sr11 3.291011 1_455
Sb12 Sr11 3.291011 1_545
Sb12 Sr7 3.424526 1_545
Sb12 Sr7 3.424526 1_455
Sb13 Yb6 3.245607 1_545
Sb13 Yb6 3.245607 1_455
Sb13 Yb3 3.248405 1_455
Sb13 Yb3 3.248405 1_545
Sb13 Sr8 3.429001 1_455
Sb13 Sr8 3.429001 1_545
Sb14 Yb7 3.247555 1_545
Sb14 Yb7 3.247555 1_455
Sb14 Yb4 3.253072 1_455
Sb14 Yb4 3.253072 1_545
Sb14 Sr9 3.426423 1_545
Sb14 Sr9 3.426423 1_455
Sb15 Yb1 3.233116 1_565
Sb15 Yb1 3.233116 1_655
Sb15 Yb5 3.254292 1_655
Sb15 Yb5 3.254292 1_565
Sb15 Sr0 3.426861 1_565
Sb15 Sr0 3.426861 1_655
Sb16 Yb2 3.225243 1_565
Sb16 Yb2 3.225243 1_655
Sb16 Sr10 3.304974 1_655
Sb16 Sr10 3.304974 1_565
Sb16 Sr1 3.399395 1_655
Sb16 Sr1 3.399395 1_565
Sb17 Yb3 3.239011 1_655
Sb17 Yb3 3.239011 1_565
Sb17 Sr11 3.303213 1_565
Sb17 Sr11 3.303213 1_655
Sb17 Sr2 3.399691 1_655
Sb17 Sr2 3.399691 1_565
Sb18 Yb4 3.247120 1_565
Sb18 Yb4 3.247120 1_655
Sb18 Yb6 3.252227 1_565
Sb18 Yb6 3.252227 1_655
Sb18 Sr3 3.427714 1_565
Sb18 Sr3 3.427714 1_655
Sb19 Yb0 3.247032 1_564
Sb19 Yb0 3.247032 1_654
Sb19 Yb7 3.253972 1_565
Sb19 Yb7 3.253972 1_655
Sb19 Sr4 3.426893 1_655
Sb19 Sr4 3.426893 1_565
