# generated using pymatgen
data_Li7Mn5O12
_symmetry_space_group_name_H-M   'P 1'
_cell_length_a   2.99948900
_cell_length_b   5.07303000
_cell_length_c   14.49907286
_cell_angle_alpha   87.35294249
_cell_angle_beta   90.00000000
_cell_angle_gamma   90.00000000
_symmetry_Int_Tables_number   1
_chemical_formula_structural   Li7Mn5O12
_chemical_formula_sum   'Li7 Mn5 O12'
_cell_volume   220.38969626
_cell_formula_units_Z   1
loop_
 _symmetry_equiv_pos_site_id
 _symmetry_equiv_pos_as_xyz
  1  'x, y, z'
loop_
 _atom_site_type_symbol
 _atom_site_label
 _atom_site_symmetry_multiplicity
 _atom_site_fract_x
 _atom_site_fract_y
 _atom_site_fract_z
 _atom_site_occupancy
  Li  Li0  1  0.00000000  0.00000000  0.50000000  1
  Li  Li1  1  0.50000000  0.82325100  0.66012600  1
  Li  Li2  1  0.00000000  0.67361700  0.83231100  1
  Li  Li3  1  0.50000000  0.50000000  0.00000000  1
  Li  Li4  1  0.00000000  0.32638300  0.16768900  1
  Li  Li5  1  0.50000000  0.17674900  0.33987400  1
  Li  Li6  1  0.50000000  0.50000000  0.50000000  1
  Mn  Mn0  1  0.00000000  0.66330300  0.33987700  1
  Mn  Mn1  1  0.00000000  0.33669700  0.66012300  1
  Mn  Mn2  1  0.50000000  0.16260000  0.83113500  1
  Mn  Mn3  1  0.00000000  0.00000000  0.00000000  1
  Mn  Mn4  1  0.50000000  0.83740000  0.16886500  1
  O  O0  1  0.00000000  0.64526600  0.59083300  1
  O  O1  1  0.50000000  0.46630400  0.74435800  1
  O  O2  1  0.00000000  0.31580800  0.91905600  1
  O  O3  1  0.50000000  0.14666700  0.08632300  1
  O  O4  1  0.00000000  0.98047900  0.24962900  1
  O  O5  1  0.50000000  0.81434000  0.40626500  1
  O  O6  1  0.00000000  0.35473400  0.40916700  1
  O  O7  1  0.50000000  0.18566000  0.59373500  1
  O  O8  1  0.00000000  0.01952100  0.75037100  1
  O  O9  1  0.50000000  0.85333300  0.91367700  1
  O  O10  1  0.00000000  0.68419200  0.08094400  1
  O  O11  1  0.50000000  0.53369600  0.25564200  1
loop_
_geom_bond_atom_site_label_1
_geom_bond_atom_site_label_2
_geom_bond_distance
_geom_bond_site_symmetry_2
Li0 O6 2.180375 1_555
Li0 O0 2.180375 1_545
Li0 O5 2.258681 1_445
Li0 O7 2.258681 1_455
Li0 O5 2.258681 1_545
Li0 O7 2.258681 1_555
Li1 O7 2.035503 1_565
Li1 O0 2.039040 1_555
Li1 O0 2.039040 1_655
Li1 O1 2.136885 1_555
Li1 O8 2.252343 1_665
Li1 O8 2.252343 1_565
Li2 O8 2.073202 1_565
Li2 O9 2.138119 1_455
Li2 O9 2.138119 1_555
Li2 O2 2.160059 1_555
Li2 O1 2.259519 1_555
Li2 O1 2.259519 1_455
Li3 O3 2.138278 1_555
Li3 O9 2.138278 1_554
Li3 O10 2.144999 1_655
Li3 O10 2.144999 1_555
Li3 O2 2.144999 1_554
Li3 O2 2.144999 1_654
Li4 O4 2.073202 1_545
Li4 O3 2.138119 1_455
Li4 O3 2.138119 1_555
Li4 O10 2.160059 1_555
Li4 O11 2.259519 1_555
Li4 O11 2.259519 1_455
Li5 O5 2.035503 1_545
Li5 O6 2.039040 1_655
Li5 O6 2.039040 1_555
Li5 O11 2.136885 1_555
Li5 O4 2.252343 1_545
Li5 O4 2.252343 1_645
Li6 O5 2.046905 1_555
Li6 O7 2.046905 1_555
Li6 O6 2.148588 1_655
Li6 O6 2.148588 1_555
Li6 O0 2.148588 1_555
Li6 O0 2.148588 1_655
Mn0 O6 1.820565 1_555
Mn0 O5 1.957287 1_555
Mn0 O5 1.957287 1_455
Mn0 O4 2.026512 1_555
Mn0 O11 2.060912 1_555
Mn0 O11 2.060912 1_455
Mn1 O0 1.820565 1_555
Mn1 O7 1.957287 1_455
Mn1 O7 1.957287 1_555
Mn1 O8 2.026512 1_555
Mn1 O1 2.060912 1_555
Mn1 O1 2.060912 1_455
Mn2 O9 1.928825 1_545
Mn2 O1 1.943640 1_555
Mn2 O8 2.055685 1_555
Mn2 O8 2.055685 1_655
Mn2 O2 2.137728 1_555
Mn2 O2 2.137728 1_655
Mn3 O2 1.941760 1_554
Mn3 O10 1.941760 1_545
Mn3 O3 2.110774 1_455
Mn3 O3 2.110774 1_555
Mn3 O9 2.110774 1_444
Mn3 O9 2.110774 1_544
Mn4 O3 1.928825 1_565
Mn4 O11 1.943640 1_555
Mn4 O4 2.055685 1_555
Mn4 O4 2.055685 1_655
Mn4 O10 2.137728 1_555
Mn4 O10 2.137728 1_655
