# generated using pymatgen
data_Ca4Mn3CrO11
_symmetry_space_group_name_H-M   'P 1'
_cell_length_a   5.42484265
_cell_length_b   10.83761839
_cell_length_c   15.49698513
_cell_angle_alpha   90.45154304
_cell_angle_beta   89.76428544
_cell_angle_gamma   90.55215167
_symmetry_Int_Tables_number   1
_chemical_formula_structural   Ca4Mn3CrO11
_chemical_formula_sum   'Ca16 Mn12 Cr4 O44'
_cell_volume   911.02652571
_cell_formula_units_Z   4
loop_
 _symmetry_equiv_pos_site_id
 _symmetry_equiv_pos_as_xyz
  1  'x, y, z'
loop_
 _atom_site_type_symbol
 _atom_site_label
 _atom_site_symmetry_multiplicity
 _atom_site_fract_x
 _atom_site_fract_y
 _atom_site_fract_z
 _atom_site_occupancy
  Ca  Ca0  1  0.01100100  0.99804000  0.10922000  1
  Ca  Ca1  1  0.99464700  0.01643300  0.62975200  1
  Ca  Ca2  1  0.96569900  0.54210300  0.12684300  1
  Ca  Ca3  1  0.99719800  0.52310300  0.62406800  1
  Ca  Ca4  1  0.99990600  0.49670300  0.39066600  1
  Ca  Ca5  1  0.00072700  0.49748400  0.85771900  1
  Ca  Ca6  1  0.00702900  0.96414600  0.38629900  1
  Ca  Ca7  1  0.01445400  0.97072300  0.87406300  1
  Ca  Ca8  1  0.50989900  0.23604400  0.39780300  1
  Ca  Ca9  1  0.50687800  0.22638900  0.87339600  1
  Ca  Ca10  1  0.49911000  0.73019500  0.38558700  1
  Ca  Ca11  1  0.50068200  0.73992400  0.86297000  1
  Ca  Ca12  1  0.46712700  0.22129800  0.11223100  1
  Ca  Ca13  1  0.51783900  0.26878000  0.63165700  1
  Ca  Ca14  1  0.50588900  0.77963200  0.11821200  1
  Ca  Ca15  1  0.51062800  0.77137400  0.62534500  1
  Mn  Mn0  1  0.50383300  0.00075000  0.50255000  1
  Mn  Mn1  1  0.47072800  0.50658900  0.98679000  1
  Mn  Mn2  1  0.50448400  0.49715300  0.50419700  1
  Mn  Mn3  1  0.01279200  0.24835300  0.51159200  1
  Mn  Mn4  1  0.99467200  0.74393200  0.99757200  1
  Mn  Mn5  1  0.00504500  0.74957800  0.50321600  1
  Mn  Mn6  1  0.01144200  0.25194200  0.75444600  1
  Mn  Mn7  1  0.00462400  0.75213000  0.25024700  1
  Mn  Mn8  1  0.00354900  0.75142100  0.74719300  1
  Mn  Mn9  1  0.50377900  0.00285000  0.75056500  1
  Mn  Mn10  1  0.49892200  0.51467700  0.25354400  1
  Mn  Mn11  1  0.50811700  0.50038500  0.74654800  1
  Cr  Cr0  1  0.50826200  0.99332300  0.99484500  1
  Cr  Cr1  1  0.01994100  0.23897700  0.99562900  1
  Cr  Cr2  1  0.88060400  0.26693900  0.23361600  1
  Cr  Cr3  1  0.52907200  0.98562500  0.25526000  1
  O  O0  1  0.21372900  0.10915700  0.77903300  1
  O  O1  1  0.16787300  0.58278800  0.25783600  1
  O  O2  1  0.22649800  0.61207300  0.76449500  1
  O  O3  1  0.69563100  0.39260900  0.18358600  1
  O  O4  1  0.80027600  0.39786100  0.72837100  1
  O  O5  1  0.84749900  0.91867400  0.23778400  1
  O  O6  1  0.78493900  0.89345900  0.72964700  1
  O  O7  1  0.61380400  0.16846800  0.24883900  1
  O  O8  1  0.71244200  0.14847800  0.73528700  1
  O  O9  1  0.70218900  0.66137900  0.22472900  1
  O  O10  1  0.71917400  0.64407400  0.72562600  1
  O  O11  1  0.29871300  0.35844400  0.77503100  1
  O  O12  1  0.30555600  0.85136200  0.27936100  1
  O  O13  1  0.28354600  0.86149200  0.76966100  1
  O  O14  1  0.28271600  0.35781200  0.48581800  1
  O  O15  1  0.32962900  0.34867000  0.99962100  1
  O  O16  1  0.29156600  0.85808800  0.48089000  1
  O  O17  1  0.29075900  0.84116500  0.97761700  1
  O  O18  1  0.72533100  0.14269200  0.01445900  1
  O  O19  1  0.71331800  0.14814800  0.52055000  1
  O  O20  1  0.69047300  0.62989000  0.02851900  1
  O  O21  1  0.71793000  0.64123800  0.52013400  1
  O  O22  1  0.79276600  0.39122900  0.51550200  1
  O  O23  1  0.79061300  0.88375300  0.01628500  1
  O  O24  1  0.79263700  0.89557700  0.51971300  1
  O  O25  1  0.21518600  0.10922000  0.47553400  1
  O  O26  1  0.21727800  0.09855700  0.98200400  1
  O  O27  1  0.22591100  0.60955200  0.48455200  1
  O  O28  1  0.15820600  0.58478600  0.99186700  1
  O  O29  1  0.58413500  0.01695500  0.38032300  1
  O  O30  1  0.58973200  0.00555700  0.87113700  1
  O  O31  1  0.56204800  0.48959400  0.37719100  1
  O  O32  1  0.57804100  0.51564400  0.86984100  1
  O  O33  1  0.42479700  0.48615700  0.62634700  1
  O  O34  1  0.43785800  0.99645600  0.12949500  1
  O  O35  1  0.42373800  0.99466500  0.62600300  1
  O  O36  1  0.05594400  0.22532900  0.13781500  1
  O  O37  1  0.08817100  0.23512500  0.63518100  1
  O  O38  1  0.08061600  0.74960500  0.12484900  1
  O  O39  1  0.07885900  0.74612300  0.62465100  1
  O  O40  1  0.02106600  0.28961200  0.33332600  1
  O  O41  1  0.92734300  0.28375300  0.88279400  1
  O  O42  1  0.92889500  0.74701700  0.37606900  1
  O  O43  1  0.92771600  0.74595000  0.87384900  1
loop_
_geom_bond_atom_site_label_1
_geom_bond_atom_site_label_2
_geom_bond_distance
_geom_bond_site_symmetry_2
Ca0 O23 2.235003 1_455
Ca0 O34 2.338377 1_555
Ca0 O5 2.343886 1_455
Ca0 O36 2.509109 1_565
Ca0 O26 2.513523 1_564
Ca0 O18 2.667884 1_465
Ca0 O38 2.735172 1_555
Ca1 O6 2.335755 1_545
Ca1 O35 2.342373 1_645
Ca1 O24 2.403529 1_545
Ca1 O37 2.419895 1_655
Ca1 O8 2.655397 1_555
Ca1 O19 2.707780 1_555
Ca1 O0 2.781572 1_655
Ca1 O25 2.854017 1_655
Ca2 O38 2.328247 1_655
Ca2 O3 2.347492 1_555
Ca2 O1 2.347995 1_655
Ca2 O20 2.350547 1_555
Ca2 O28 2.380725 1_654
Ca2 O9 2.449985 1_555
Ca3 O33 2.358216 1_655
Ca3 O4 2.364033 1_555
Ca3 O39 2.453018 1_655
Ca3 O22 2.459684 1_555
Ca3 O10 2.540991 1_555
Ca3 O21 2.572655 1_555
Ca3 O27 2.660682 1_655
Ca3 O2 2.679359 1_655
Ca4 O27 2.252455 1_655
Ca4 O31 2.385780 1_555
Ca4 O40 2.410951 1_655
Ca4 O1 2.436475 1_655
Ca4 O22 2.510811 1_555
Ca4 O14 2.625262 1_655
Ca4 O42 2.754891 1_555
Ca5 O2 2.261382 1_555
Ca5 O32 2.310079 1_455
Ca5 O41 2.381183 1_455
Ca5 O28 2.432043 1_555
Ca5 O4 2.515433 1_455
Ca5 O11 2.554464 1_555
Ca5 O43 2.734877 1_455
Ca6 O25 2.367240 1_565
Ca6 O29 2.372144 1_465
Ca6 O42 2.391153 1_455
Ca6 O16 2.435553 1_555
Ca6 O24 2.483404 1_455
Ca6 O5 2.505828 1_455
Ca6 O12 2.616717 1_555
Ca7 O30 2.339042 1_465
Ca7 O0 2.361942 1_565
Ca7 O26 2.424330 1_565
Ca7 O43 2.476556 1_455
Ca7 O13 2.476629 1_555
Ca7 O17 2.624767 1_555
Ca7 O23 2.685006 1_456
Ca7 O6 2.689497 1_455
Ca8 O14 2.260527 1_555
Ca8 O19 2.410322 1_555
Ca8 O25 2.421609 1_555
Ca8 O29 2.425025 1_555
Ca8 O7 2.480689 1_555
Ca8 O31 2.780469 1_555
Ca8 O40 2.903157 1_555
Ca8 O22 2.904329 1_555
Ca8 O40 2.996713 1_655
Ca9 O41 2.363143 1_555
Ca9 O11 2.393080 1_555
Ca9 O30 2.439341 1_555
Ca9 O0 2.496513 1_555
Ca9 O15 2.544681 1_555
Ca9 O8 2.550945 1_555
Ca9 O18 2.660694 1_556
Ca9 O26 2.682038 1_555
Ca10 O16 2.313909 1_555
Ca10 O42 2.341017 1_555
Ca10 O12 2.368898 1_555
Ca10 O27 2.496735 1_555
Ca10 O21 2.600040 1_555
Ca10 O31 2.635189 1_555
Ca10 O9 2.819212 1_555
Ca11 O13 2.299616 1_555
Ca11 O43 2.323663 1_555
Ca11 O17 2.373615 1_555
Ca11 O32 2.473797 1_555
Ca11 O2 2.531159 1_555
Ca11 O10 2.642397 1_555
Ca12 O18 2.229053 1_555
Ca12 O36 2.264734 1_555
Ca12 O7 2.341888 1_555
Ca12 O15 2.361325 1_554
Ca12 O34 2.457034 1_545
Ca12 O3 2.478086 1_555
Ca12 O26 2.761313 1_554
Ca13 O8 2.338142 1_555
Ca13 O37 2.356248 1_555
Ca13 O19 2.403046 1_555
Ca13 O33 2.416169 1_555
Ca13 O4 2.548614 1_555
Ca13 O22 2.683852 1_555
Ca13 O11 2.694538 1_555
Ca13 O14 2.783458 1_555
Ca14 O38 2.328736 1_555
Ca14 O20 2.356405 1_555
Ca14 O9 2.361218 1_555
Ca14 O34 2.387113 1_555
Ca14 O23 2.475584 1_555
Ca14 O17 2.571517 1_554
Ca14 O12 2.825842 1_555
Ca15 O39 2.355649 1_555
Ca15 O10 2.382584 1_555
Ca15 O21 2.427226 1_555
Ca15 O35 2.469811 1_555
Ca15 O6 2.554569 1_555
Ca15 O24 2.608922 1_555
Ca15 O16 2.717240 1_555
Ca15 O13 2.727503 1_555
Mn0 O16 1.946746 1_545
Mn0 O29 1.950743 1_555
Mn0 O35 1.961601 1_545
Mn0 O24 1.966512 1_545
Mn0 O19 1.970200 1_555
Mn0 O25 2.014392 1_555
Mn1 O15 1.879738 1_555
Mn1 O20 1.893921 1_556
Mn1 O28 1.903749 1_555
Mn1 O32 1.904257 1_555
Mn2 O14 1.941641 1_555
Mn2 O33 1.944271 1_555
Mn2 O21 1.949765 1_555
Mn2 O22 1.958130 1_555
Mn2 O27 1.976214 1_555
Mn2 O31 1.992730 1_555
Mn3 O14 1.918364 1_555
Mn3 O19 1.950505 1_455
Mn3 O25 1.950642 1_555
Mn3 O22 1.964578 1_455
Mn3 O37 1.966692 1_555
Mn4 O23 1.904861 1_556
Mn4 O17 1.937642 1_655
Mn4 O28 1.948357 1_655
Mn4 O43 1.953234 1_555
Mn4 O38 2.028954 1_656
Mn4 O20 2.108161 1_556
Mn5 O39 1.926345 1_555
Mn5 O21 1.959484 1_455
Mn5 O27 1.961499 1_555
Mn5 O16 1.971132 1_555
Mn5 O24 1.980672 1_455
Mn5 O42 2.014819 1_455
Mn6 O37 1.900610 1_555
Mn6 O0 1.946657 1_555
Mn6 O11 1.956077 1_555
Mn6 O8 1.984971 1_455
Mn6 O4 2.006295 1_455
Mn6 O41 2.065890 1_455
Mn7 O9 1.945144 1_455
Mn7 O38 1.984909 1_555
Mn7 O42 1.992103 1_455
Mn7 O12 1.997446 1_555
Mn7 O5 2.014488 1_455
Mn7 O1 2.049853 1_555
Mn8 O39 1.941359 1_555
Mn8 O10 1.951560 1_455
Mn8 O13 1.953029 1_555
Mn8 O2 1.964600 1_555
Mn8 O6 1.973423 1_455
Mn8 O43 2.004994 1_455
Mn9 O30 1.927595 1_555
Mn9 O8 1.948732 1_555
Mn9 O13 1.957266 1_545
Mn9 O6 1.965119 1_545
Mn9 O35 1.981428 1_545
Mn9 O0 2.004754 1_555
Mn10 O1 1.948927 1_555
Mn10 O31 1.969321 1_555
Mn10 O9 1.979006 1_555
Mn10 O3 2.014773 1_555
Mn11 O33 1.923275 1_555
Mn11 O10 1.952330 1_555
Mn11 O32 1.954909 1_555
Mn11 O11 1.955649 1_555
Mn11 O4 1.962453 1_555
Mn11 O2 1.975683 1_555
Cr0 O26 1.967985 1_565
Cr0 O30 1.970810 1_565
Cr0 O23 1.977901 1_556
Cr0 O18 2.014454 1_566
Cr0 O17 2.034931 1_555
Cr0 O34 2.119856 1_556
Cr1 O26 1.879097 1_555
Cr1 O41 1.889637 1_455
Cr1 O18 1.922797 1_456
Cr1 O15 2.049568 1_555
Cr1 O36 2.219115 1_556
Cr2 O40 1.740330 1_655
Cr2 O7 1.805756 1_555
Cr2 O36 1.816132 1_655
Cr2 O3 1.874127 1_555
Cr3 O5 1.897631 1_555
Cr3 O12 1.922985 1_555
Cr3 O29 1.988261 1_565
Cr3 O34 2.017376 1_555
Cr3 O7 2.032986 1_565
