# generated using pymatgen
data_Sr2CeYCu2RuO10
_symmetry_space_group_name_H-M   'P 1'
_cell_length_a   14.89575256
_cell_length_b   14.89575256
_cell_length_c   14.89575256
_cell_angle_alpha   165.10828077
_cell_angle_beta   165.10828077
_cell_angle_gamma   21.12021496
_symmetry_Int_Tables_number   1
_chemical_formula_structural   Sr2CeYCu2RuO10
_chemical_formula_sum   'Sr2 Ce1 Y1 Cu2 Ru1 O10'
_cell_volume   218.25640378
_cell_formula_units_Z   1
loop_
 _symmetry_equiv_pos_site_id
 _symmetry_equiv_pos_as_xyz
  1  'x, y, z'
loop_
 _atom_site_type_symbol
 _atom_site_label
 _atom_site_symmetry_multiplicity
 _atom_site_fract_x
 _atom_site_fract_y
 _atom_site_fract_z
 _atom_site_occupancy
  Sr  Sr0  1  0.41994000  0.41994000  0.00000000  1
  Sr  Sr1  1  0.57690700  0.57690700  0.00000000  1
  Ce  Ce0  1  0.70711400  0.70711400  0.00000000  1
  Y  Y0  1  0.29466700  0.29466700  0.00000000  1
  Cu  Cu0  1  0.85549800  0.85549800  0.00000000  1
  Cu  Cu1  1  0.14389800  0.14389800  0.00000000  1
  Ru  Ru0  1  0.99997100  0.99997100  0.00000000  1
  O  O0  1  0.93107600  0.93107600  0.00000000  1
  O  O1  1  0.06978900  0.06978900  0.00000000  1
  O  O2  1  0.84747500  0.34747500  0.50000000  1
  O  O3  1  0.34747500  0.84747500  0.50000000  1
  O  O4  1  0.15320100  0.65320100  0.50000000  1
  O  O5  1  0.65320100  0.15320100  0.50000000  1
  O  O6  1  0.74941400  0.24941400  0.50000000  1
  O  O7  1  0.24941400  0.74941400  0.50000000  1
  O  O8  1  0.00048000  0.50048000  0.50000000  1
  O  O9  1  0.50048000  0.00048000  0.50000000  1
loop_
_geom_bond_atom_site_label_1
_geom_bond_atom_site_label_2
_geom_bond_distance
_geom_bond_site_symmetry_2
Ce0 O6 2.293663 1_554
Ce0 O6 2.293663 1_565
Ce0 O7 2.293663 1_554
Ce0 O7 2.293663 1_655
Ce0 O4 2.493842 1_554
Ce0 O5 2.493842 1_554
Ce0 O4 2.493842 1_655
Ce0 O5 2.493842 1_565
Cu0 O3 1.944578 1_554
Cu0 O2 1.944578 1_554
Cu0 O2 1.944578 1_565
Cu0 O3 1.944578 1_655
Cu0 O0 2.213448 1_555
Cu1 O5 1.949463 1_555
Cu1 O5 1.949463 1_454
Cu1 O4 1.949463 1_555
Cu1 O4 1.949463 1_544
Cu1 O1 2.170425 1_555
O0 Ru0 2.017723 1_555
O0 Sr0 2.749312 1_554
O0 Sr0 2.749312 1_565
O0 Sr0 2.749312 1_666
O0 Sr0 2.749312 1_655
O1 Ru0 2.044755 1_445
O1 Sr1 2.737847 1_556
O1 Sr1 2.737847 1_444
O1 Sr1 2.737847 1_545
O1 Sr1 2.737847 1_455
O2 Y0 2.473479 1_555
O2 Y0 2.473479 1_656
O2 Sr0 2.868839 1_555
O2 Sr0 2.868839 1_656
O3 Y0 2.473479 1_555
O3 Y0 2.473479 1_566
O3 Sr0 2.868839 1_555
O3 Sr0 2.868839 1_566
O4 Sr1 2.952760 1_455
O4 Sr1 2.952760 1_556
O5 Sr1 2.952760 1_545
O5 Sr1 2.952760 1_556
O6 Y0 2.341506 1_656
O6 Y0 2.341506 1_555
O7 Y0 2.341506 1_566
O7 Y0 2.341506 1_555
O8 Ru0 1.930388 1_445
O8 Ru0 1.930388 1_456
O8 Sr1 2.955709 1_556
O8 Sr1 2.955709 1_455
O8 Sr0 3.047945 1_556
O8 Sr0 3.047945 1_455
O9 Ru0 1.930388 1_445
O9 Ru0 1.930388 1_546
O9 Sr1 2.955709 1_556
O9 Sr1 2.955709 1_545
O9 Sr0 3.047945 1_556
O9 Sr0 3.047945 1_545
