# generated using pymatgen
data_LaCeCo10
_symmetry_space_group_name_H-M   'P 1'
_cell_length_a   4.00201900
_cell_length_b   4.92733900
_cell_length_c   8.55130800
_cell_angle_alpha   90.00000000
_cell_angle_beta   90.00000000
_cell_angle_gamma   90.00000000
_symmetry_Int_Tables_number   1
_chemical_formula_structural   LaCeCo10
_chemical_formula_sum   'La1 Ce1 Co10'
_cell_volume   168.62584459
_cell_formula_units_Z   1
loop_
 _symmetry_equiv_pos_site_id
 _symmetry_equiv_pos_as_xyz
  1  'x, y, z'
loop_
 _atom_site_type_symbol
 _atom_site_label
 _atom_site_symmetry_multiplicity
 _atom_site_fract_x
 _atom_site_fract_y
 _atom_site_fract_z
 _atom_site_occupancy
  La  La0  1  0.00000000  0.00000000  0.50000000  1
  Ce  Ce0  1  0.00000000  0.50000000  0.00000000  1
  Co  Co0  1  0.00000000  0.50000000  0.32012500  1
  Co  Co1  1  0.00000000  0.00000000  0.84372100  1
  Co  Co2  1  0.00000000  0.00000000  0.15627900  1
  Co  Co3  1  0.00000000  0.50000000  0.67987500  1
  Co  Co4  1  0.50000000  0.00000000  0.00000000  1
  Co  Co5  1  0.50000000  0.50000000  0.50000000  1
  Co  Co6  1  0.50000000  0.74971600  0.24701800  1
  Co  Co7  1  0.50000000  0.25028400  0.75298200  1
  Co  Co8  1  0.50000000  0.25028400  0.24701800  1
  Co  Co9  1  0.50000000  0.74971600  0.75298200  1
loop_
_geom_bond_atom_site_label_1
_geom_bond_atom_site_label_2
_geom_bond_distance
_geom_bond_site_symmetry_2
Ce0 Co3 2.737487 1_554
Ce0 Co0 2.737487 1_555
Ce0 Co2 2.802785 1_565
Ce0 Co2 2.802785 1_555
Ce0 Co1 2.802785 1_554
Ce0 Co1 2.802785 1_564
Co0 Co6 2.430810 1_455
Co0 Co6 2.430810 1_555
Co0 Co8 2.430810 1_455
Co0 Co8 2.430810 1_555
Co0 Co5 2.523885 1_555
Co0 Co5 2.523885 1_455
Co0 Co2 2.834209 1_565
Co0 Co2 2.834209 1_555
Co0 La0 2.904415 1_565
Co0 La0 2.904415 1_555
Co0 Co3 3.076333 1_555
Co1 Co4 2.406237 1_456
Co1 Co4 2.406237 1_556
Co1 Co7 2.475274 1_455
Co1 Co7 2.475274 1_555
Co1 Co9 2.475274 1_545
Co1 Co9 2.475274 1_445
Co1 Co2 2.672780 1_556
Co1 Co3 2.834209 1_555
Co1 Co3 2.834209 1_545
Co1 La0 2.939264 1_555
Co2 Co4 2.406237 1_455
Co2 Co4 2.406237 1_555
Co2 Co8 2.475274 1_455
Co2 Co8 2.475274 1_555
Co2 Co6 2.475274 1_445
Co2 Co6 2.475274 1_545
Co2 La0 2.939264 1_555
Co3 Co9 2.430810 1_455
Co3 Co9 2.430810 1_555
Co3 Co7 2.430810 1_455
Co3 Co7 2.430810 1_555
Co3 Co5 2.523885 1_555
Co3 Co5 2.523885 1_455
Co3 La0 2.904415 1_565
Co3 La0 2.904415 1_555
Co4 Co8 2.445975 1_555
Co4 Co6 2.445975 1_545
Co4 Co7 2.445975 1_554
Co4 Co9 2.445975 1_544
Co5 Co9 2.488766 1_555
Co5 Co7 2.488766 1_555
Co5 Co6 2.488766 1_555
Co5 Co8 2.488766 1_555
Co5 La0 3.173910 1_555
Co5 La0 3.173910 1_565
Co5 La0 3.173910 1_655
Co5 La0 3.173910 1_665
Co6 Co8 2.460871 1_555
Co6 Co8 2.466468 1_565
Co6 La0 3.194509 1_565
Co6 La0 3.194509 1_665
Co7 Co9 2.460871 1_555
Co7 Co9 2.466468 1_545
Co7 La0 3.194509 1_555
Co7 La0 3.194509 1_655
Co8 La0 3.194509 1_655
Co8 La0 3.194509 1_555
Co9 La0 3.194509 1_565
Co9 La0 3.194509 1_665
