# generated using pymatgen
data_GdZr6(PO4)9
_symmetry_space_group_name_H-M   'P 1'
_cell_length_a   8.93087980
_cell_length_b   8.93087980
_cell_length_c   23.13728797
_cell_angle_alpha   90.00000000
_cell_angle_beta   90.00000000
_cell_angle_gamma   120.00000221
_symmetry_Int_Tables_number   1
_chemical_formula_structural   GdZr6(PO4)9
_chemical_formula_sum   'Gd2 Zr12 P18 O72'
_cell_volume   1598.20160448
_cell_formula_units_Z   2
loop_
 _symmetry_equiv_pos_site_id
 _symmetry_equiv_pos_as_xyz
  1  'x, y, z'
loop_
 _atom_site_type_symbol
 _atom_site_label
 _atom_site_symmetry_multiplicity
 _atom_site_fract_x
 _atom_site_fract_y
 _atom_site_fract_z
 _atom_site_occupancy
  Gd  Gd0  1  -0.00000000  -0.00000000  -0.00000000  1
  Gd  Gd1  1  -0.00000000  -0.00000000  0.50000000  1
  Zr  Zr0  1  0.66666700  0.33333300  0.97359597  1
  Zr  Zr1  1  0.33333300  0.66666700  0.02640403  1
  Zr  Zr2  1  0.33333300  0.66666700  0.52640403  1
  Zr  Zr3  1  0.66666700  0.33333300  0.47359597  1
  Zr  Zr4  1  -0.00000000  -0.00000000  0.85016391  1
  Zr  Zr5  1  -0.00000000  -0.00000000  0.14983609  1
  Zr  Zr6  1  -0.00000000  -0.00000000  0.64983609  1
  Zr  Zr7  1  -0.00000000  -0.00000000  0.35016391  1
  Zr  Zr8  1  0.66666700  0.33333300  0.68699121  1
  Zr  Zr9  1  0.33333300  0.66666700  0.31300879  1
  Zr  Zr10  1  0.33333300  0.66666700  0.81300879  1
  Zr  Zr11  1  0.66666700  0.33333300  0.18699121  1
  P  P0  1  0.62638988  0.94730100  0.92082252  1
  P  P1  1  0.37361012  0.05269900  0.07917748  1
  P  P2  1  0.32091112  0.37361012  0.92082252  1
  P  P3  1  0.67908888  0.05269900  0.57917748  1
  P  P4  1  0.67908888  0.62638988  0.07917748  1
  P  P5  1  0.32091112  0.94730100  0.42082252  1
  P  P6  1  0.05269900  0.67908888  0.92082252  1
  P  P7  1  0.94730100  0.62638988  0.57917748  1
  P  P8  1  0.94730100  0.32091112  0.07917748  1
  P  P9  1  0.05269900  0.37361012  0.42082252  1
  P  P10  1  0.37361012  0.32091112  0.57917748  1
  P  P11  1  0.62638988  0.67908888  0.42082252  1
  P  P12  1  0.70763913  0.70763913  0.75000000  1
  P  P13  1  0.29236087  0.29236087  0.25000000  1
  P  P14  1  0.00000000  0.29236087  0.75000000  1
  P  P15  1  1.00000000  0.70763913  0.25000000  1
  P  P16  1  0.29236087  0.00000000  0.75000000  1
  P  P17  1  0.70763913  1.00000000  0.25000000  1
  O  O0  1  0.54725818  0.82779237  0.97327783  1
  O  O1  1  0.45274182  0.17220763  0.02672217  1
  O  O2  1  0.28053419  0.45274182  0.97327783  1
  O  O3  1  0.71946581  0.17220763  0.52672217  1
  O  O4  1  0.71946581  0.54725818  0.02672217  1
  O  O5  1  0.28053419  0.82779237  0.47327783  1
  O  O6  1  0.17220763  0.71946581  0.97327783  1
  O  O7  1  0.82779237  0.54725818  0.52672217  1
  O  O8  1  0.82779237  0.28053419  0.02672217  1
  O  O9  1  0.17220763  0.45274182  0.47327783  1
  O  O10  1  0.45274182  0.28053419  0.52672217  1
  O  O11  1  0.54725818  0.71946581  0.47327783  1
  O  O12  1  0.62335109  0.11649066  0.92728201  1
  O  O13  1  0.37664891  0.88350934  0.07271799  1
  O  O14  1  0.49313958  0.37664891  0.92728201  1
  O  O15  1  0.50686042  0.88350934  0.57271799  1
  O  O16  1  0.50686042  0.62335109  0.07271799  1
  O  O17  1  0.49313958  0.11649066  0.42728201  1
  O  O18  1  0.88350934  0.50686042  0.92728201  1
  O  O19  1  0.11649066  0.62335109  0.57271799  1
  O  O20  1  0.11649066  0.49313958  0.07271799  1
  O  O21  1  0.88350934  0.37664891  0.42728201  1
  O  O22  1  0.37664891  0.49313958  0.57271799  1
  O  O23  1  0.62335109  0.50686042  0.42728201  1
  O  O24  1  0.82316030  0.99356251  0.92018620  1
  O  O25  1  0.17683970  0.00643749  0.07981380  1
  O  O26  1  0.17040221  0.17683970  0.92018620  1
  O  O27  1  0.82959779  0.00643749  0.57981380  1
  O  O28  1  0.82959779  0.82316030  0.07981380  1
  O  O29  1  0.17040221  0.99356251  0.42018620  1
  O  O30  1  0.00643749  0.82959779  0.92018620  1
  O  O31  1  0.99356251  0.82316030  0.57981380  1
  O  O32  1  0.99356251  0.17040221  0.07981380  1
  O  O33  1  0.00643749  0.17683970  0.42018620  1
  O  O34  1  0.17683970  0.17040221  0.57981380  1
  O  O35  1  0.82316030  0.82959779  0.42018620  1
  O  O36  1  0.96965510  0.17450980  0.80366623  1
  O  O37  1  0.03034490  0.82549020  0.19633377  1
  O  O38  1  0.20485470  0.03034490  0.80366623  1
  O  O39  1  0.79514530  0.82549020  0.69633377  1
  O  O40  1  0.79514530  0.96965510  0.19633377  1
  O  O41  1  0.20485470  0.17450980  0.30366623  1
  O  O42  1  0.82549020  0.79514530  0.80366623  1
  O  O43  1  0.17450980  0.96965510  0.69633377  1
  O  O44  1  0.17450980  0.20485470  0.19633377  1
  O  O45  1  0.82549020  0.03034490  0.30366623  1
  O  O46  1  0.03034490  0.20485470  0.69633377  1
  O  O47  1  0.96965510  0.79514530  0.30366623  1
  O  O48  1  0.53532682  0.85688035  0.86466270  1
  O  O49  1  0.46467318  0.14311965  0.13533730  1
  O  O50  1  0.32155353  0.46467317  0.86466270  1
  O  O51  1  0.67844647  0.14311965  0.63533730  1
  O  O52  1  0.67844647  0.53532683  0.13533730  1
  O  O53  1  0.32155353  0.85688035  0.36466270  1
  O  O54  1  0.14311965  0.67844647  0.86466270  1
  O  O55  1  0.85688035  0.53532682  0.63533730  1
  O  O56  1  0.85688035  0.32155353  0.13533730  1
  O  O57  1  0.14311965  0.46467318  0.36466270  1
  O  O58  1  0.46467317  0.32155353  0.63533730  1
  O  O59  1  0.53532683  0.67844647  0.36466270  1
  O  O60  1  0.53149808  0.69081305  0.76013800  1
  O  O61  1  0.46850192  0.30918695  0.23986200  1
  O  O62  1  0.15931498  0.46850192  0.76013800  1
  O  O63  1  0.84068502  0.30918695  0.73986200  1
  O  O64  1  0.84068502  0.53149808  0.23986200  1
  O  O65  1  0.15931498  0.69081305  0.26013800  1
  O  O66  1  0.30918695  0.84068502  0.76013800  1
  O  O67  1  0.69081305  0.53149808  0.73986200  1
  O  O68  1  0.69081305  0.15931498  0.23986200  1
  O  O69  1  0.30918695  0.46850192  0.26013800  1
  O  O70  1  0.46850192  0.15931498  0.73986200  1
  O  O71  1  0.53149808  0.84068502  0.26013800  1
loop_
_geom_bond_atom_site_label_1
_geom_bond_atom_site_label_2
_geom_bond_distance
_geom_bond_site_symmetry_2
Gd0 O28 2.411848 1_445
Gd0 O26 2.411848 1_554
Gd0 O25 2.411848 1_555
Gd0 O24 2.411848 1_444
Gd0 O32 2.411848 1_455
Gd0 O30 2.411848 1_544
Gd1 O35 2.411848 1_445
Gd1 O34 2.411848 1_555
Gd1 O33 2.411848 1_555
Gd1 O31 2.411848 1_445
Gd1 O29 2.411848 1_545
Gd1 O27 2.411848 1_455
O0 P0 1.535359 1_555
O0 Zr1 2.117199 1_556
O1 P1 1.535359 1_555
O1 Zr0 2.117199 1_554
O2 P2 1.535359 1_555
O2 Zr1 2.117201 1_556
O3 P3 1.535359 1_555
O3 Zr3 2.117194 1_555
O4 P4 1.535359 1_555
O4 Zr0 2.117201 1_554
O5 P5 1.535359 1_555
O5 Zr2 2.117194 1_555
O6 P6 1.535359 1_555
O6 Zr1 2.117194 1_556
O7 P7 1.535359 1_555
O7 Zr3 2.117199 1_555
O8 P8 1.535359 1_555
O8 Zr0 2.117194 1_554
O9 P9 1.535359 1_555
O9 Zr2 2.117199 1_555
O10 P10 1.535359 1_555
O10 Zr3 2.117201 1_555
O11 P11 1.535359 1_555
O11 Zr2 2.117201 1_555
O12 P0 1.532070 1_545
O12 Zr0 2.073441 1_555
O13 P1 1.532070 1_565
O13 Zr1 2.073441 1_555
O14 P2 1.532070 1_555
O14 Zr0 2.073448 1_555
O15 P3 1.532070 1_565
O15 Zr2 2.073443 1_555
O16 P4 1.532070 1_555
O16 Zr1 2.073448 1_555
O17 P5 1.532070 1_545
O17 Zr3 2.073443 1_555
O18 P6 1.532070 1_655
O18 Zr0 2.073443 1_555
O19 P7 1.532070 1_455
O19 Zr2 2.073441 1_555
O20 P8 1.532070 1_455
O20 Zr1 2.073443 1_555
O21 P9 1.532070 1_655
O21 Zr3 2.073441 1_555
O22 P10 1.532070 1_555
O22 Zr2 2.073448 1_555
O23 P11 1.532070 1_555
O23 Zr3 2.073448 1_555
O24 P0 1.591566 1_555
O24 Zr4 2.243125 1_665
O25 P1 1.591566 1_555
O25 Zr5 2.243125 1_555
O26 P2 1.591566 1_555
O26 Zr4 2.243125 1_555
O27 P3 1.591566 1_555
O27 Zr6 2.243125 1_655
O28 P4 1.591566 1_555
O28 Zr5 2.243125 1_665
O29 P5 1.591566 1_555
O29 Zr7 2.243125 1_565
O30 P6 1.591566 1_555
O30 Zr4 2.243125 1_565
O31 P7 1.591566 1_555
O31 Zr6 2.243125 1_665
O32 P8 1.591566 1_555
O32 Zr5 2.243125 1_655
O33 P9 1.591566 1_555
O33 Zr7 2.243125 1_555
O34 P10 1.591566 1_555
O34 Zr6 2.243125 1_555
O35 P11 1.591566 1_555
O35 Zr7 2.243125 1_665
O36 P14 1.561342 1_655
O36 Zr4 2.020453 1_655
O37 P15 1.561342 1_455
O37 Zr5 2.020453 1_565
O38 P16 1.561342 1_555
O38 Zr4 2.020453 1_555
O39 P12 1.561342 1_555
O39 Zr6 2.020453 1_665
O40 P17 1.561342 1_555
O40 Zr5 2.020453 1_665
O41 P13 1.561342 1_555
O41 Zr7 2.020453 1_555
O42 P12 1.561342 1_555
O42 Zr4 2.020453 1_665
O43 P16 1.561342 1_565
O43 Zr6 2.020453 1_565
O44 P13 1.561342 1_555
O44 Zr5 2.020453 1_555
O45 P17 1.561342 1_545
O45 Zr7 2.020453 1_655
O46 P14 1.561342 1_555
O46 Zr6 2.020453 1_555
O47 P15 1.561342 1_555
O47 Zr7 2.020453 1_665
O48 P0 1.531399 1_555
O48 Zr10 2.122254 1_555
O49 P1 1.531399 1_555
O49 Zr11 2.122254 1_555
O50 P2 1.531399 1_555
O50 Zr10 2.122258 1_555
O51 P3 1.531399 1_555
O51 Zr8 2.122250 1_555
O52 P4 1.531399 1_555
O52 Zr11 2.122258 1_555
O53 P5 1.531399 1_555
O53 Zr9 2.122250 1_555
O54 P6 1.531399 1_555
O54 Zr10 2.122250 1_555
O55 P7 1.531399 1_555
O55 Zr8 2.122254 1_555
O56 P8 1.531399 1_555
O56 Zr11 2.122250 1_555
O57 P9 1.531399 1_555
O57 Zr9 2.122254 1_555
O58 P10 1.531399 1_555
O58 Zr8 2.122258 1_555
O59 P11 1.531399 1_555
O59 Zr9 2.122258 1_555
O60 P12 1.521788 1_555
O60 Zr10 2.072061 1_555
O61 P13 1.521788 1_555
O61 Zr11 2.072061 1_555
O62 P14 1.521788 1_555
O62 Zr10 2.072058 1_555
O63 P14 1.521788 1_655
O63 Zr8 2.072054 1_555
O64 P15 1.521788 1_555
O64 Zr11 2.072058 1_555
O65 P15 1.521788 1_455
O65 Zr9 2.072054 1_555
O66 P16 1.521788 1_565
O66 Zr10 2.072054 1_555
O67 P12 1.521788 1_555
O67 Zr8 2.072061 1_555
O68 P17 1.521788 1_545
O68 Zr11 2.072054 1_555
O69 P13 1.521788 1_555
O69 Zr9 2.072061 1_555
O70 P16 1.521788 1_555
O70 Zr8 2.072058 1_555
O71 P17 1.521788 1_555
O71 Zr9 2.072058 1_555
