# generated using pymatgen
data_NaSrMg6
_symmetry_space_group_name_H-M   'P 1'
_cell_length_a   5.40691600
_cell_length_b   6.84841700
_cell_length_c   11.96787300
_cell_angle_alpha   90.00000000
_cell_angle_beta   90.00000000
_cell_angle_gamma   90.00000000
_symmetry_Int_Tables_number   1
_chemical_formula_structural   NaSrMg6
_chemical_formula_sum   'Na2 Sr2 Mg12'
_cell_volume   443.15616067
_cell_formula_units_Z   2
loop_
 _symmetry_equiv_pos_site_id
 _symmetry_equiv_pos_as_xyz
  1  'x, y, z'
loop_
 _atom_site_type_symbol
 _atom_site_label
 _atom_site_symmetry_multiplicity
 _atom_site_fract_x
 _atom_site_fract_y
 _atom_site_fract_z
 _atom_site_occupancy
  Na  Na0  1  0.00000000  0.50000000  0.33960600  1
  Na  Na1  1  0.00000000  0.00000000  0.83960600  1
  Sr  Sr0  1  0.50000000  0.50000000  0.16614600  1
  Sr  Sr1  1  0.50000000  0.00000000  0.66614600  1
  Mg  Mg0  1  0.00000000  0.23970200  0.07953700  1
  Mg  Mg1  1  0.00000000  0.76029800  0.07953700  1
  Mg  Mg2  1  0.00000000  0.00000000  0.33244600  1
  Mg  Mg3  1  0.50000000  0.74980200  0.41969000  1
  Mg  Mg4  1  0.50000000  0.25019800  0.41969000  1
  Mg  Mg5  1  0.50000000  0.00000000  0.16334800  1
  Mg  Mg6  1  0.00000000  0.73970200  0.57953700  1
  Mg  Mg7  1  0.00000000  0.26029800  0.57953700  1
  Mg  Mg8  1  0.00000000  0.50000000  0.83244600  1
  Mg  Mg9  1  0.50000000  0.24980200  0.91969000  1
  Mg  Mg10  1  0.50000000  0.75019800  0.91969000  1
  Mg  Mg11  1  0.50000000  0.50000000  0.66334800  1
loop_
_geom_bond_atom_site_label_1
_geom_bond_atom_site_label_2
_geom_bond_distance
_geom_bond_site_symmetry_2
Na0 Sr0 3.408554 1_455
Na0 Sr0 3.408554 1_555
Na1 Sr1 3.408554 1_555
Na1 Sr1 3.408554 1_455
Mg0 Mg1 3.283159 1_545
Mg0 Na1 3.307580 1_554
Mg0 Mg9 3.312574 1_554
Mg0 Mg9 3.312574 1_454
Mg0 Mg5 3.318065 1_555
Mg0 Mg5 3.318065 1_455
Mg0 Sr0 3.400123 1_455
Mg0 Sr0 3.400123 1_555
Mg0 Mg2 3.443283 1_555
Mg0 Mg8 3.452901 1_554
Mg0 Mg1 3.565258 1_555
Mg0 Na0 3.586817 1_555
Mg1 Na1 3.307580 1_564
Mg1 Mg10 3.312574 1_554
Mg1 Mg10 3.312574 1_454
Mg1 Mg5 3.318065 1_465
Mg1 Mg5 3.318065 1_565
Mg1 Sr0 3.400123 1_455
Mg1 Sr0 3.400123 1_555
Mg1 Mg2 3.443283 1_565
Mg1 Mg8 3.452901 1_554
Mg1 Na0 3.586817 1_555
Mg2 Mg4 3.366724 1_555
Mg2 Mg4 3.366724 1_455
Mg2 Mg3 3.366724 1_545
Mg2 Mg3 3.366724 1_445
Mg2 Mg5 3.377014 1_455
Mg2 Mg5 3.377014 1_555
Mg2 Na0 3.425281 1_555
Mg2 Na0 3.425281 1_545
Mg2 Mg6 3.452901 1_545
Mg2 Mg7 3.452901 1_555
Mg3 Mg6 3.312574 1_555
Mg3 Mg6 3.312574 1_655
Mg3 Na0 3.339752 1_555
Mg3 Na0 3.339752 1_655
Mg3 Sr1 3.411131 1_565
Mg3 Mg4 3.421497 1_555
Mg3 Mg4 3.426920 1_565
Mg3 Sr0 3.483409 1_555
Mg3 Mg5 3.513938 1_565
Mg4 Mg7 3.312574 1_555
Mg4 Mg7 3.312574 1_655
Mg4 Na0 3.339752 1_555
Mg4 Na0 3.339752 1_655
Mg4 Sr1 3.411131 1_555
Mg4 Sr0 3.483409 1_555
Mg4 Mg5 3.513938 1_555
Mg5 Mg9 3.380845 1_554
Mg5 Sr0 3.424372 1_555
Mg5 Sr0 3.424372 1_545
Mg6 Mg7 3.283159 1_555
Mg6 Na0 3.307580 1_555
Mg6 Sr1 3.400123 1_565
Mg6 Sr1 3.400123 1_465
Mg6 Mg8 3.443283 1_555
Mg6 Mg7 3.565258 1_565
Mg6 Na1 3.586817 1_565
Mg7 Na0 3.307580 1_555
Mg7 Sr1 3.400123 1_555
Mg7 Sr1 3.400123 1_455
Mg7 Mg8 3.443283 1_555
Mg7 Na1 3.586817 1_555
Mg8 Mg9 3.366724 1_555
Mg8 Mg9 3.366724 1_455
Mg8 Na1 3.425281 1_555
Mg8 Na1 3.425281 1_565
Mg9 Na1 3.339752 1_555
Mg9 Na1 3.339752 1_655
Mg9 Sr0 3.411131 1_556
Mg9 Sr1 3.483409 1_555
Mg10 Na1 3.339752 1_665
Mg10 Na1 3.339752 1_565
Mg10 Mg8 3.366724 1_655
Mg10 Mg8 3.366724 1_555
Mg10 Mg5 3.380845 1_566
Mg10 Sr0 3.411131 1_556
Mg10 Mg9 3.421497 1_565
Mg10 Mg9 3.426920 1_555
Mg10 Sr1 3.483409 1_565
Mg10 Mg11 3.513938 1_555
Mg11 Mg6 3.318065 1_555
Mg11 Mg6 3.318065 1_655
Mg11 Mg7 3.318065 1_655
Mg11 Mg7 3.318065 1_555
Mg11 Mg8 3.377014 1_555
Mg11 Mg8 3.377014 1_655
Mg11 Mg3 3.380845 1_555
Mg11 Mg4 3.380845 1_555
Mg11 Sr1 3.424372 1_565
Mg11 Sr1 3.424372 1_555
Mg11 Mg9 3.513938 1_555
