# generated using pymatgen
data_Sb2Te3
_symmetry_space_group_name_H-M   'P 1'
_cell_length_a   5.72067500
_cell_length_b   5.73572042
_cell_length_c   9.16281524
_cell_angle_alpha   103.74292843
_cell_angle_beta   108.18993484
_cell_angle_gamma   90.00000000
_symmetry_Int_Tables_number   1
_chemical_formula_structural   Sb2Te3
_chemical_formula_sum   'Sb4 Te6'
_cell_volume   276.55307697
_cell_formula_units_Z   2
loop_
 _symmetry_equiv_pos_site_id
 _symmetry_equiv_pos_as_xyz
  1  'x, y, z'
loop_
 _atom_site_type_symbol
 _atom_site_label
 _atom_site_symmetry_multiplicity
 _atom_site_fract_x
 _atom_site_fract_y
 _atom_site_fract_z
 _atom_site_occupancy
  Sb  Sb0  1  0.82245600  0.24130800  0.64491300  1
  Sb  Sb1  1  0.17754400  0.75869200  0.35508700  1
  Sb  Sb2  1  0.99049100  0.74648900  0.98098200  1
  Sb  Sb3  1  0.00950900  0.25351100  0.01901800  1
  Te  Te0  1  0.80926700  0.73612900  0.61853500  1
  Te  Te1  1  0.19073300  0.26387100  0.38146500  1
  Te  Te2  1  0.62155700  0.68676200  0.24311500  1
  Te  Te3  1  0.37844300  0.31323800  0.75688500  1
  Te  Te4  1  0.61616800  0.18893000  0.23233500  1
  Te  Te5  1  0.38383200  0.81107000  0.76766500  1
loop_
_geom_bond_atom_site_label_1
_geom_bond_atom_site_label_2
_geom_bond_distance
_geom_bond_site_symmetry_2
Sb0 Te0 2.848835 1_545
Sb0 Te0 2.904096 1_555
Sb0 Te3 3.016728 1_555
Sb0 Te3 3.016739 1_655
Sb0 Sb3 3.239761 1_656
Sb0 Te4 3.528344 1_555
Sb1 Te1 2.848835 1_565
Sb1 Te1 2.904096 1_555
Sb1 Te2 3.016728 1_555
Sb1 Te2 3.016739 1_455
Sb1 Sb2 3.239761 1_454
Sb1 Te5 3.528344 1_555
Sb2 Sb3 2.843470 1_666
Sb2 Sb3 2.927983 1_656
Sb2 Te0 3.140740 1_555
Sb2 Te5 3.480062 1_655
Sb2 Te5 3.480067 1_555
Sb3 Te1 3.140740 1_555
Sb3 Te4 3.480062 1_455
Sb3 Te4 3.480067 1_555
Te0 Te5 3.126092 1_655
Te0 Te5 3.126093 1_555
Te0 Te2 3.208928 1_555
Te1 Te4 3.126092 1_455
Te1 Te4 3.126093 1_555
Te1 Te3 3.208928 1_555
Te2 Te4 2.833417 1_555
Te2 Te4 2.905182 1_565
Te3 Te5 2.833417 1_555
Te3 Te5 2.905182 1_545
