# generated using pymatgen
data_Ti3MoAs4
_symmetry_space_group_name_H-M   'P 1'
_cell_length_a   3.51454453
_cell_length_b   3.51454453
_cell_length_c   12.93069400
_cell_angle_alpha   90.00000000
_cell_angle_beta   90.00000000
_cell_angle_gamma   120.00001000
_symmetry_Int_Tables_number   1
_chemical_formula_structural   Ti3MoAs4
_chemical_formula_sum   'Ti3 Mo1 As4'
_cell_volume   138.32176540
_cell_formula_units_Z   1
loop_
 _symmetry_equiv_pos_site_id
 _symmetry_equiv_pos_as_xyz
  1  'x, y, z'
loop_
 _atom_site_type_symbol
 _atom_site_label
 _atom_site_symmetry_multiplicity
 _atom_site_fract_x
 _atom_site_fract_y
 _atom_site_fract_z
 _atom_site_occupancy
  Ti  Ti0  1  0.00000000  0.00000000  0.50000000  1
  Ti  Ti1  1  0.00000000  0.00000000  0.25286300  1
  Ti  Ti2  1  0.00000000  0.00000000  0.74713700  1
  Mo  Mo0  1  0.00000000  0.00000000  0.00000000  1
  As  As0  1  0.33333300  0.66666700  0.87392300  1
  As  As1  1  0.33333300  0.66666700  0.37642700  1
  As  As2  1  0.66666700  0.33333300  0.12607700  1
  As  As3  1  0.66666700  0.33333300  0.62357300  1
loop_
_geom_bond_atom_site_label_1
_geom_bond_atom_site_label_2
_geom_bond_distance
_geom_bond_site_symmetry_2
As0 Mo0 2.602901 1_566
As0 Mo0 2.602903 1_666
As0 Mo0 2.602903 1_556
As0 Ti2 2.608652 1_565
As0 Ti2 2.608654 1_555
As0 Ti2 2.608654 1_665
As1 Ti1 2.582672 1_565
As1 Ti1 2.582675 1_665
As1 Ti1 2.582675 1_555
As1 Ti0 2.582744 1_565
As1 Ti0 2.582747 1_555
As1 Ti0 2.582747 1_665
As2 Mo0 2.602901 1_655
As2 Mo0 2.602903 1_665
As2 Mo0 2.602903 1_555
As2 Ti1 2.608652 1_655
As2 Ti1 2.608654 1_555
As2 Ti1 2.608654 1_665
As3 Ti2 2.582672 1_655
As3 Ti2 2.582675 1_665
As3 Ti2 2.582675 1_555
As3 Ti0 2.582744 1_655
As3 Ti0 2.582747 1_555
As3 Ti0 2.582747 1_665
