# generated using pymatgen
data_Li3SmBi2
_symmetry_space_group_name_H-M   'P 1'
_cell_length_a   4.67071309
_cell_length_b   4.67086421
_cell_length_c   7.41031132
_cell_angle_alpha   90.00061134
_cell_angle_beta   89.99429672
_cell_angle_gamma   120.00182404
_symmetry_Int_Tables_number   1
_chemical_formula_structural   Li3SmBi2
_chemical_formula_sum   'Li3 Sm1 Bi2'
_cell_volume   140.00370620
_cell_formula_units_Z   1
loop_
 _symmetry_equiv_pos_site_id
 _symmetry_equiv_pos_as_xyz
  1  'x, y, z'
loop_
 _atom_site_type_symbol
 _atom_site_label
 _atom_site_symmetry_multiplicity
 _atom_site_fract_x
 _atom_site_fract_y
 _atom_site_fract_z
 _atom_site_occupancy
  Li  Li0  1  0.66674236  0.33337284  0.64771035  1
  Li  Li1  1  0.33325827  0.66662686  0.35228970  1
  Li  Li2  1  0.00000012  -0.00000012  0.50000000  1
  Sm  Sm0  1  0.00000037  -0.00000032  0.00000003  1
  Bi  Bi0  1  0.66661602  0.33330420  0.25128285  1
  Bi  Bi1  1  0.33338387  0.66669654  0.74871707  1
loop_
_geom_bond_atom_site_label_1
_geom_bond_atom_site_label_2
_geom_bond_distance
_geom_bond_site_symmetry_2
Li0 Li2 2.910160 1_665
Li0 Li2 2.910183 1_655
Li0 Li2 2.910667 1_555
Li1 Li2 2.910160 1_555
Li1 Li2 2.910185 1_565
Li1 Li2 2.910665 1_665
Bi0 Li1 2.798523 1_655
Bi0 Li1 2.798633 1_545
Bi0 Li1 2.798661 1_555
Bi0 Li0 2.937651 1_555
Bi0 Li2 3.265932 1_555
Bi0 Li2 3.266504 1_665
Bi0 Li2 3.266534 1_655
Bi0 Sm0 3.277029 1_555
Bi0 Sm0 3.277106 1_655
Bi0 Sm0 3.277131 1_665
Bi1 Li0 2.798520 1_455
Bi1 Li0 2.798629 1_565
Bi1 Li0 2.798668 1_555
Bi1 Li1 2.937650 1_555
Bi1 Li2 3.265933 1_665
Bi1 Li2 3.266507 1_555
Bi1 Li2 3.266529 1_565
Bi1 Sm0 3.277033 1_666
Bi1 Sm0 3.277099 1_566
Bi1 Sm0 3.277136 1_556
