# generated using pymatgen
data_Er2MgCu2
_symmetry_space_group_name_H-M   'P 1'
_cell_length_a   3.62832828
_cell_length_b   7.54030664
_cell_length_c   7.54030664
_cell_angle_alpha   90.00000000
_cell_angle_beta   90.00000000
_cell_angle_gamma   90.00000000
_symmetry_Int_Tables_number   1
_chemical_formula_structural   Er2MgCu2
_chemical_formula_sum   'Er4 Mg2 Cu4'
_cell_volume   206.29304625
_cell_formula_units_Z   2
loop_
 _symmetry_equiv_pos_site_id
 _symmetry_equiv_pos_as_xyz
  1  'x, y, z'
loop_
 _atom_site_type_symbol
 _atom_site_label
 _atom_site_symmetry_multiplicity
 _atom_site_fract_x
 _atom_site_fract_y
 _atom_site_fract_z
 _atom_site_occupancy
  Er  Er0  1  0.50000000  0.17020570  0.67020570  1
  Er  Er1  1  0.50000000  0.82979430  0.32979430  1
  Er  Er2  1  0.50000000  0.32979430  0.17020570  1
  Er  Er3  1  0.50000000  0.67020570  0.82979430  1
  Mg  Mg0  1  -0.00000000  0.00000000  0.00000000  1
  Mg  Mg1  1  -0.00000000  0.50000000  0.50000000  1
  Cu  Cu0  1  -0.00000000  0.62229255  0.12229255  1
  Cu  Cu1  1  0.00000000  0.37770745  0.87770745  1
  Cu  Cu2  1  0.00000000  0.87770745  0.62229255  1
  Cu  Cu3  1  0.00000000  0.12229255  0.37770745  1
loop_
_geom_bond_atom_site_label_1
_geom_bond_atom_site_label_2
_geom_bond_distance
_geom_bond_site_symmetry_2
Cu0 Cu1 2.608159 1_554
Cu0 Er1 2.861347 1_455
Cu0 Er1 2.861347 1_555
Cu0 Er3 2.878552 1_554
Cu0 Er3 2.878552 1_454
Cu0 Er2 2.878552 1_455
Cu0 Er2 2.878552 1_555
Cu0 Mg0 2.993591 1_565
Cu0 Mg1 2.993591 1_555
Cu1 Er0 2.861347 1_555
Cu1 Er0 2.861347 1_455
Cu1 Er2 2.878552 1_456
Cu1 Er2 2.878552 1_556
Cu1 Er3 2.878552 1_455
Cu1 Er3 2.878552 1_555
Cu1 Mg0 2.993591 1_556
Cu1 Mg1 2.993591 1_555
Cu2 Cu3 2.608159 1_565
Cu2 Er3 2.861347 1_555
Cu2 Er3 2.861347 1_455
Cu2 Er0 2.878552 1_465
Cu2 Er0 2.878552 1_565
Cu2 Er1 2.878552 1_455
Cu2 Er1 2.878552 1_555
Cu2 Mg0 2.993591 1_566
Cu2 Mg1 2.993591 1_555
Cu3 Er2 2.861347 1_455
Cu3 Er2 2.861347 1_555
Cu3 Er0 2.878552 1_555
Cu3 Er1 2.878552 1_545
Cu3 Er1 2.878552 1_445
Cu3 Er0 2.878552 1_455
Cu3 Mg1 2.993591 1_555
Cu3 Mg0 2.993591 1_555
