# generated using pymatgen
data_BaLiMg6
_symmetry_space_group_name_H-M   'P 1'
_cell_length_a   5.17425400
_cell_length_b   6.56820600
_cell_length_c   13.11709000
_cell_angle_alpha   90.00000000
_cell_angle_beta   90.00000000
_cell_angle_gamma   90.00000000
_symmetry_Int_Tables_number   1
_chemical_formula_structural   BaLiMg6
_chemical_formula_sum   'Ba2 Li2 Mg12'
_cell_volume   445.79173013
_cell_formula_units_Z   2
loop_
 _symmetry_equiv_pos_site_id
 _symmetry_equiv_pos_as_xyz
  1  'x, y, z'
loop_
 _atom_site_type_symbol
 _atom_site_label
 _atom_site_symmetry_multiplicity
 _atom_site_fract_x
 _atom_site_fract_y
 _atom_site_fract_z
 _atom_site_occupancy
  Ba  Ba0  1  0.50000000  0.50000000  0.20057100  1
  Ba  Ba1  1  0.50000000  0.00000000  0.70057100  1
  Li  Li0  1  0.00000000  0.50000000  0.36877200  1
  Li  Li1  1  0.00000000  0.00000000  0.86877200  1
  Mg  Mg0  1  0.00000000  0.74949100  0.06057700  1
  Mg  Mg1  1  0.00000000  0.25050900  0.06057700  1
  Mg  Mg2  1  0.00000000  0.00000000  0.30614400  1
  Mg  Mg3  1  0.50000000  0.23841900  0.43423100  1
  Mg  Mg4  1  0.50000000  0.76158100  0.43423100  1
  Mg  Mg5  1  0.50000000  0.00000000  0.13489800  1
  Mg  Mg6  1  0.00000000  0.24949100  0.56057700  1
  Mg  Mg7  1  0.00000000  0.75050900  0.56057700  1
  Mg  Mg8  1  0.00000000  0.50000000  0.80614400  1
  Mg  Mg9  1  0.50000000  0.73841900  0.93423100  1
  Mg  Mg10  1  0.50000000  0.26158100  0.93423100  1
  Mg  Mg11  1  0.50000000  0.50000000  0.63489800  1
loop_
_geom_bond_atom_site_label_1
_geom_bond_atom_site_label_2
_geom_bond_distance
_geom_bond_site_symmetry_2
Ba0 Mg5 3.395204 1_565
Ba0 Mg5 3.395204 1_555
Ba0 Li0 3.400150 1_655
Ba0 Li0 3.400150 1_555
Ba0 Mg3 3.513656 1_555
Ba0 Mg4 3.513656 1_555
Ba0 Mg0 3.570804 1_655
Ba0 Mg1 3.570804 1_555
Ba0 Mg0 3.570804 1_555
Ba0 Mg1 3.570804 1_655
Ba0 Mg10 3.828523 1_554
Ba0 Mg9 3.828523 1_554
Ba1 Mg11 3.395204 1_555
Ba1 Mg11 3.395204 1_545
Ba1 Li1 3.400150 1_555
Ba1 Li1 3.400150 1_655
Ba1 Mg9 3.513656 1_545
Ba1 Mg10 3.513656 1_555
Ba1 Mg6 3.570804 1_655
Ba1 Mg7 3.570804 1_545
Ba1 Mg7 3.570804 1_645
Ba1 Mg6 3.570804 1_555
Ba1 Mg3 3.828523 1_555
Ba1 Mg4 3.828523 1_545
Li0 Mg6 3.006193 1_555
Li0 Mg7 3.006193 1_555
Li0 Mg3 3.222174 1_455
Li0 Mg3 3.222174 1_555
Li0 Mg4 3.222174 1_555
Li0 Mg4 3.222174 1_455
Li0 Mg2 3.385290 1_555
Li0 Mg2 3.385290 1_565
Li1 Mg0 3.006193 1_546
Li1 Mg1 3.006193 1_556
Li1 Mg10 3.222174 1_555
Li1 Mg10 3.222174 1_455
Li1 Mg9 3.222174 1_445
Li1 Mg9 3.222174 1_545
Li1 Mg8 3.385290 1_545
Li1 Mg8 3.385290 1_555
Mg0 Mg9 3.073293 1_454
Mg0 Mg9 3.073293 1_554
Mg0 Mg5 3.217286 1_565
Mg0 Mg5 3.217286 1_465
Mg0 Mg1 3.277417 1_555
Mg0 Mg1 3.290789 1_565
Mg1 Mg10 3.073293 1_554
Mg1 Mg10 3.073293 1_454
Mg1 Mg5 3.217286 1_455
Mg1 Mg5 3.217286 1_555
Mg2 Mg5 3.426202 1_455
Mg2 Mg5 3.426202 1_555
Mg2 Mg3 3.459533 1_455
Mg2 Mg3 3.459533 1_555
Mg2 Mg4 3.459533 1_445
Mg2 Mg4 3.459533 1_545
Mg3 Mg6 3.073293 1_555
Mg3 Mg6 3.073293 1_655
Mg3 Mg4 3.131970 1_545
Mg3 Mg4 3.436236 1_555
Mg4 Mg7 3.073293 1_655
Mg4 Mg7 3.073293 1_555
Mg5 Mg9 3.143284 1_544
Mg6 Mg7 3.277417 1_545
Mg6 Mg7 3.290789 1_555
Mg8 Mg9 3.459533 1_555
Mg8 Mg9 3.459533 1_455
Mg10 Mg9 3.131970 1_555
Mg10 Mg5 3.143284 1_556
Mg10 Mg9 3.436236 1_545
Mg10 Mg8 3.459533 1_555
Mg10 Mg8 3.459533 1_655
Mg11 Mg4 3.143284 1_555
Mg11 Mg3 3.143284 1_555
Mg11 Mg6 3.217286 1_555
Mg11 Mg6 3.217286 1_655
Mg11 Mg7 3.217286 1_555
Mg11 Mg7 3.217286 1_655
Mg11 Mg8 3.426202 1_555
Mg11 Mg8 3.426202 1_655
