# generated using pymatgen
data_CuH6(CN2)4
_symmetry_space_group_name_H-M   'P 1'
_cell_length_a   7.69990860
_cell_length_b   7.46266055
_cell_length_c   9.63161200
_cell_angle_alpha   90.00000000
_cell_angle_beta   90.00000000
_cell_angle_gamma   114.40149596
_symmetry_Int_Tables_number   1
_chemical_formula_structural   CuH6(CN2)4
_chemical_formula_sum   'Cu2 H12 C8 N16'
_cell_volume   504.01172211
_cell_formula_units_Z   2
loop_
 _symmetry_equiv_pos_site_id
 _symmetry_equiv_pos_as_xyz
  1  'x, y, z'
loop_
 _atom_site_type_symbol
 _atom_site_label
 _atom_site_symmetry_multiplicity
 _atom_site_fract_x
 _atom_site_fract_y
 _atom_site_fract_z
 _atom_site_occupancy
  Cu  Cu0  1  0.00000000  0.00000000  0.00000000  1
  Cu  Cu1  1  0.00000000  0.50000000  0.50000000  1
  H  H0  1  0.36494800  0.14345900  0.97779300  1
  H  H1  1  0.63505200  0.35654100  0.47779300  1
  H  H2  1  0.63505200  0.85654100  0.02220700  1
  H  H3  1  0.36494800  0.64345900  0.52220700  1
  H  H4  1  0.27749100  0.91398900  0.91985500  1
  H  H5  1  0.72250900  0.58601100  0.41985500  1
  H  H6  1  0.72250900  0.08601100  0.08014500  1
  H  H7  1  0.27749100  0.41398900  0.58014500  1
  H  H8  1  0.28173400  0.09287600  0.81589600  1
  H  H9  1  0.71826600  0.40712400  0.31589600  1
  H  H10  1  0.71826600  0.90712400  0.18410400  1
  H  H11  1  0.28173400  0.59287600  0.68410400  1
  C  C0  1  0.87694800  0.08185100  0.70962200  1
  C  C1  1  0.12305200  0.41814900  0.20962200  1
  C  C2  1  0.12305200  0.91814900  0.29037800  1
  C  C3  1  0.87694800  0.58185100  0.79037800  1
  C  C4  1  0.74312600  0.97376400  0.49491900  1
  C  C5  1  0.25687400  0.52623600  0.99491900  1
  C  C6  1  0.25687400  0.02623600  0.50508100  1
  C  C7  1  0.74312600  0.47376400  0.00508100  1
  N  N0  1  0.26009700  0.04346800  0.91679400  1
  N  N1  1  0.73990300  0.45653200  0.41679500  1
  N  N2  1  0.73990300  0.95653200  0.08320600  1
  N  N3  1  0.26009700  0.54346800  0.58320600  1
  N  N4  1  0.92000300  0.07788400  0.82671800  1
  N  N5  1  0.07999700  0.42211600  0.32671800  1
  N  N6  1  0.07999700  0.92211600  0.17328200  1
  N  N7  1  0.92000300  0.57788400  0.67328200  1
  N  N8  1  0.83918600  0.11061400  0.58349500  1
  N  N9  1  0.16081400  0.38938600  0.08349500  1
  N  N10  1  0.16081400  0.88938600  0.41650500  1
  N  N11  1  0.83918600  0.61061400  0.91650500  1
  N  N12  1  0.65879500  0.86157700  0.40658600  1
  N  N13  1  0.34120500  0.63842300  0.90658600  1
  N  N14  1  0.34120500  0.13842300  0.59341400  1
  N  N15  1  0.65879500  0.36157700  0.09341400  1
loop_
_geom_bond_atom_site_label_1
_geom_bond_atom_site_label_2
_geom_bond_distance
_geom_bond_site_symmetry_2
Cu0 N6 1.948990 1_545
Cu0 N4 1.948990 1_454
Cu0 N0 2.054653 1_554
Cu0 N2 2.054653 1_445
Cu1 N5 1.948990 1_555
Cu1 N7 1.948990 1_455
Cu1 N1 2.054649 1_455
Cu1 N3 2.054653 1_555
H0 N0 1.027631 1_555
H1 N1 1.027625 1_555
H2 N2 1.027631 1_555
H3 N3 1.027631 1_555
H4 N0 1.029267 1_565
H5 N1 1.029266 1_555
H6 N2 1.029267 1_545
H7 N3 1.029267 1_555
H8 N0 1.028283 1_555
H9 N1 1.028292 1_555
H10 N2 1.028283 1_555
H11 N3 1.028283 1_555
C0 N4 1.179354 1_555
C0 N8 1.287610 1_555
C1 N5 1.179354 1_555
C1 N9 1.287610 1_555
C2 N6 1.179354 1_555
C2 N10 1.287610 1_555
C3 N7 1.179354 1_555
C3 N11 1.287610 1_555
C4 N12 1.182044 1_555
C4 N8 1.301445 1_565
C5 N13 1.182044 1_555
C5 N9 1.301445 1_556
C6 N14 1.182044 1_555
C6 N10 1.301445 1_545
C7 N15 1.182044 1_555
C7 N11 1.301445 1_554
