# generated using pymatgen
data_Ta6Cr3Co3C2
_symmetry_space_group_name_H-M   'P 1'
_cell_length_a   8.07017853
_cell_length_b   8.07017853
_cell_length_c   8.07017853
_cell_angle_alpha   120.15868734
_cell_angle_beta   119.89963518
_cell_angle_gamma   89.94964517
_symmetry_Int_Tables_number   1
_chemical_formula_structural   Ta6Cr3Co3C2
_chemical_formula_sum   'Ta12 Cr6 Co6 C4'
_cell_volume   371.48390508
_cell_formula_units_Z   2
loop_
 _symmetry_equiv_pos_site_id
 _symmetry_equiv_pos_as_xyz
  1  'x, y, z'
loop_
 _atom_site_type_symbol
 _atom_site_label
 _atom_site_symmetry_multiplicity
 _atom_site_fract_x
 _atom_site_fract_y
 _atom_site_fract_z
 _atom_site_occupancy
  Ta  Ta0  1  0.57169200  0.07169200  0.50000000  1
  Ta  Ta1  1  0.17931400  0.67931400  0.50000000  1
  Ta  Ta2  1  0.17907200  0.07033700  0.50048900  1
  Ta  Ta3  1  0.56984900  0.67858400  0.49951100  1
  Ta  Ta4  1  0.56984900  0.07033700  0.89126500  1
  Ta  Ta5  1  0.17907200  0.67858400  0.10873500  1
  Ta  Ta6  1  0.92955300  0.92955300  0.00000000  1
  Ta  Ta7  1  0.31967500  0.31967500  0.00000000  1
  Ta  Ta8  1  0.31887800  0.92979200  0.99984800  1
  Ta  Ta9  1  0.92994500  0.31903100  0.00015200  1
  Ta  Ta10  1  0.92994500  0.92979200  0.61091400  1
  Ta  Ta11  1  0.31887800  0.31903100  0.38908600  1
  Cr  Cr0  1  0.75130900  0.50250300  0.24880600  1
  Cr  Cr1  1  0.25369700  0.50250300  0.75119400  1
  Cr  Cr2  1  0.74910500  0.50211600  0.75301100  1
  Cr  Cr3  1  0.74910500  0.99609400  0.24698900  1
  Cr  Cr4  1  0.95291300  0.29889500  0.65401800  1
  Cr  Cr5  1  0.64487600  0.29889500  0.34598200  1
  Co  Co0  1  0.95425400  0.29937100  0.34511700  1
  Co  Co1  1  0.95425400  0.60913700  0.65488300  1
  Co  Co2  1  0.54879300  0.70076800  0.84802500  1
  Co  Co3  1  0.85274300  0.70076800  0.15197500  1
  Co  Co4  1  0.54757900  0.70203100  0.15445200  1
  Co  Co5  1  0.54757900  0.39312700  0.84554800  1
  C  C0  1  0.24927900  0.99952100  0.24975900  1
  C  C1  1  0.74976200  0.99952100  0.75024100  1
  C  C2  1  0.24951500  0.99879200  0.74927800  1
  C  C3  1  0.24951500  0.50023700  0.25072200  1
loop_
_geom_bond_atom_site_label_1
_geom_bond_atom_site_label_2
_geom_bond_distance
_geom_bond_site_symmetry_2
Cr0 Cr5 2.453884 1_555
Cr0 Ta10 2.862213 1_555
Cr0 Ta9 2.862218 1_555
Cr0 Ta1 2.863142 1_655
Cr0 Ta3 2.884205 1_555
Cr0 Ta4 2.884210 1_554
Cr0 Ta7 2.898568 1_555
Cr1 Cr4 2.453880 1_455
Cr1 Ta11 2.862213 1_555
Cr1 Ta8 2.862213 1_555
Cr1 Ta1 2.863142 1_555
Cr1 Ta5 2.884210 1_556
Cr1 Ta2 2.884211 1_555
Cr1 Ta7 2.898568 1_556
Cr2 Cr5 2.453965 1_555
Cr2 Cr4 2.453968 1_555
Cr2 Ta6 2.863394 1_556
Cr2 Ta0 2.872732 1_555
Cr2 Ta5 2.877394 1_656
Cr2 Ta3 2.877400 1_555
Cr2 Ta9 2.888978 1_556
Cr2 Ta11 2.888984 1_555
Cr3 Cr4 2.453968 1_565
Cr3 Cr5 2.453972 1_565
Cr3 Ta6 2.863394 1_555
Cr3 Ta0 2.872732 1_565
Cr3 Ta4 2.877394 1_564
Cr3 Ta2 2.877394 1_665
Cr3 Ta10 2.888984 1_555
Cr3 Ta8 2.888984 1_554
Cr4 Cr5 2.489680 1_555
Cr4 Ta7 2.806419 1_656
Cr4 Ta9 2.814904 1_556
Cr4 Ta10 2.814912 1_545
Cr4 Ta2 2.867186 1_655
Cr4 Ta5 2.867190 1_656
Cr4 Ta0 2.877408 1_555
Cr5 Ta7 2.806415 1_555
Cr5 Ta11 2.814904 1_555
Cr5 Ta8 2.814908 1_544
Cr5 Ta3 2.867186 1_555
Cr5 Ta4 2.867193 1_554
Cr5 Ta0 2.877405 1_555
Co0 Cr0 2.445460 1_555
Co0 Cr1 2.445460 1_655
Co0 Cr3 2.472020 1_545
Co0 Co1 2.493868 1_555
Co0 Cr4 2.500226 1_555
Co0 Cr5 2.500234 1_555
Co0 Ta11 2.777255 1_655
Co0 Ta9 2.777263 1_555
Co0 Ta6 2.792750 1_545
Co0 Ta1 2.856282 1_655
Co0 Ta4 2.887060 1_554
Co0 Ta2 2.887064 1_655
Co1 Cr0 2.445460 1_555
Co1 Cr1 2.445460 1_655
Co1 Cr2 2.472020 1_555
Co1 Cr4 2.500226 1_555
Co1 Cr5 2.500230 1_555
Co1 Ta10 2.777255 1_555
Co1 Ta8 2.777255 1_655
Co1 Ta6 2.792750 1_556
Co1 Ta1 2.856282 1_655
Co1 Ta3 2.887060 1_555
Co1 Ta5 2.887060 1_656
Co2 Cr1 2.395250 1_555
Co2 Cr2 2.401535 1_555
Co2 Cr3 2.401535 1_556
Co2 Co3 2.456651 1_556
Co2 Co5 2.472724 1_555
Co2 Co4 2.472724 1_556
Co2 Ta4 2.818140 1_565
Co2 Ta3 2.818148 1_555
Co2 Ta1 2.823530 1_555
Co2 Ta6 2.886639 1_556
Co2 Ta11 2.888773 1_555
Co2 Ta8 2.888777 1_555
Co3 Cr0 2.395250 1_555
Co3 Cr3 2.401535 1_555
Co3 Cr2 2.401535 1_554
Co3 Co5 2.472724 1_554
Co3 Co4 2.472724 1_555
Co3 Ta5 2.818140 1_655
Co3 Ta2 2.818140 1_665
Co3 Ta1 2.823530 1_655
Co3 Ta6 2.886639 1_555
Co3 Ta9 2.888773 1_555
Co3 Ta10 2.888773 1_555
Co4 Cr3 2.418616 1_555
Co4 Cr1 2.419717 1_554
Co4 Cr0 2.419717 1_555
Co4 Co5 2.486929 1_554
Co4 Ta0 2.795533 1_565
Co4 Ta3 2.802325 1_555
Co4 Ta5 2.802333 1_555
Co4 Ta7 2.884034 1_555
Co4 Ta8 2.888637 1_554
Co4 Ta10 2.888641 1_555
Co5 Cr2 2.418616 1_555
Co5 Cr1 2.419717 1_555
Co5 Cr0 2.419717 1_556
Co5 Ta0 2.795533 1_555
Co5 Ta4 2.802333 1_555
Co5 Ta2 2.802333 1_555
Co5 Ta7 2.884034 1_556
Co5 Ta9 2.888641 1_556
Co5 Ta11 2.888641 1_555
C0 Ta8 2.165220 1_554
C0 Ta11 2.165222 1_565
C0 Ta6 2.170986 1_455
C0 Ta5 2.173103 1_555
C0 Ta2 2.173104 1_565
C0 Ta0 2.183986 1_565
C1 Ta10 2.165222 1_555
C1 Ta9 2.165222 1_566
C1 Ta6 2.170991 1_556
C1 Ta3 2.173103 1_555
C1 Ta4 2.173103 1_565
C1 Ta0 2.183980 1_565
C2 Ta1 2.161035 1_555
C2 Ta2 2.171173 1_565
C2 Ta4 2.171175 1_565
C2 Ta10 2.171369 1_455
C2 Ta8 2.171370 1_555
C2 Ta7 2.171674 1_566
C3 Ta1 2.161041 1_555
C3 Ta5 2.171175 1_555
C3 Ta3 2.171175 1_555
C3 Ta11 2.171368 1_555
C3 Ta9 2.171369 1_455
C3 Ta7 2.171669 1_555
