# generated using pymatgen
data_Be3Si3(BiO6)2
_symmetry_space_group_name_H-M   'P 1'
_cell_length_a   8.16070900
_cell_length_b   8.34221500
_cell_length_c   16.66916326
_cell_angle_alpha   60.52078548
_cell_angle_beta   90.00000000
_cell_angle_gamma   90.00000000
_symmetry_Int_Tables_number   1
_chemical_formula_structural   Be3Si3(BiO6)2
_chemical_formula_sum   'Be12 Si12 Bi8 O48'
_cell_volume   987.89081333
_cell_formula_units_Z   4
loop_
 _symmetry_equiv_pos_site_id
 _symmetry_equiv_pos_as_xyz
  1  'x, y, z'
loop_
 _atom_site_type_symbol
 _atom_site_label
 _atom_site_symmetry_multiplicity
 _atom_site_fract_x
 _atom_site_fract_y
 _atom_site_fract_z
 _atom_site_occupancy
  Be  Be0  1  0.66284900  0.66933500  0.26000300  1
  Be  Be1  1  0.83075900  0.02130800  0.90476700  1
  Be  Be2  1  0.33075900  0.97869200  0.59523300  1
  Be  Be3  1  0.16924100  0.97869200  0.09523300  1
  Be  Be4  1  0.66924100  0.02130800  0.40476700  1
  Be  Be5  1  0.33309300  0.68861300  0.91692500  1
  Be  Be6  1  0.83309300  0.31138700  0.58307500  1
  Be  Be7  1  0.66690700  0.31138700  0.08307500  1
  Be  Be8  1  0.16690700  0.68861300  0.41692500  1
  Be  Be9  1  0.83715100  0.66933500  0.76000300  1
  Be  Be10  1  0.33715100  0.33066500  0.73999700  1
  Be  Be11  1  0.16284900  0.33066500  0.23999700  1
  Si  Si0  1  0.27651500  0.66935800  0.26037900  1
  Si  Si1  1  0.77651500  0.33064200  0.23962100  1
  Si  Si2  1  0.72348500  0.33064200  0.73962100  1
  Si  Si3  1  0.22348500  0.66935800  0.76037900  1
  Si  Si4  1  0.79267900  0.69587700  0.41491100  1
  Si  Si5  1  0.29267900  0.30412300  0.08508900  1
  Si  Si6  1  0.20732100  0.30412300  0.58508900  1
  Si  Si7  1  0.70732100  0.69587700  0.91491100  1
  Si  Si8  1  0.28902900  0.02047700  0.40454300  1
  Si  Si9  1  0.78902900  0.97952300  0.09545700  1
  Si  Si10  1  0.71097100  0.97952300  0.59545700  1
  Si  Si11  1  0.21097100  0.02047700  0.90454300  1
  Bi  Bi0  1  0.02822800  0.66208700  0.59422000  1
  Bi  Bi1  1  0.47177200  0.66208700  0.09422000  1
  Bi  Bi2  1  0.97177200  0.33791300  0.40578000  1
  Bi  Bi3  1  0.52822800  0.33791300  0.90578000  1
  Bi  Bi4  1  0.96467100  0.33213400  0.92877300  1
  Bi  Bi5  1  0.46467100  0.66786600  0.57122700  1
  Bi  Bi6  1  0.03532900  0.66786600  0.07122700  1
  Bi  Bi7  1  0.53532900  0.33213400  0.42877300  1
  O  O0  1  0.32929800  0.20245700  0.54469600  1
  O  O1  1  0.46757800  0.60724400  0.29661100  1
  O  O2  1  0.96757800  0.39275600  0.20338900  1
  O  O3  1  0.53242200  0.39275600  0.70338900  1
  O  O4  1  0.03242200  0.60724400  0.79661100  1
  O  O5  1  0.97991100  0.72299100  0.44605500  1
  O  O6  1  0.47991100  0.27700900  0.05394500  1
  O  O7  1  0.02008900  0.27700900  0.55394500  1
  O  O8  1  0.52008900  0.72299100  0.94605500  1
  O  O9  1  0.47778900  0.10340000  0.39485600  1
  O  O10  1  0.97778900  0.89660000  0.10514400  1
  O  O11  1  0.52221100  0.89660000  0.60514400  1
  O  O12  1  0.33290400  0.20253800  0.85339400  1
  O  O13  1  0.83290400  0.79746200  0.64660600  1
  O  O14  1  0.66709600  0.79746200  0.14660600  1
  O  O15  1  0.16709600  0.20253800  0.35339400  1
  O  O16  1  0.82929800  0.79754300  0.95530400  1
  O  O17  1  0.02221100  0.10340000  0.89485600  1
  O  O18  1  0.17070200  0.20245700  0.04469600  1
  O  O19  1  0.67070200  0.79754300  0.45530400  1
  O  O20  1  0.74906900  0.08930100  0.98010900  1
  O  O21  1  0.84270500  0.41235900  0.64669200  1
  O  O22  1  0.65729500  0.41235900  0.14669200  1
  O  O23  1  0.15729500  0.58764100  0.35330800  1
  O  O24  1  0.77025900  0.11870500  0.31523300  1
  O  O25  1  0.27025900  0.88129500  0.18476700  1
  O  O26  1  0.22974100  0.88129500  0.68476700  1
  O  O27  1  0.72974100  0.11870500  0.81523300  1
  O  O28  1  0.77095400  0.74490700  0.31046600  1
  O  O29  1  0.27095400  0.25509300  0.18953400  1
  O  O30  1  0.22904600  0.25509300  0.68953400  1
  O  O31  1  0.72904600  0.74490700  0.81046600  1
  O  O32  1  0.28004500  0.86126400  0.37801400  1
  O  O33  1  0.78004500  0.13873600  0.12198600  1
  O  O34  1  0.71995500  0.13873600  0.62198600  1
  O  O35  1  0.21995500  0.86126400  0.87801400  1
  O  O36  1  0.72873200  0.44768600  0.29557600  1
  O  O37  1  0.22873200  0.55231400  0.20442400  1
  O  O38  1  0.27126800  0.55231400  0.70442400  1
  O  O39  1  0.77126800  0.44768600  0.79557600  1
  O  O40  1  0.75904000  0.46606800  0.47686800  1
  O  O41  1  0.25904000  0.53393200  0.02313200  1
  O  O42  1  0.24096000  0.53393200  0.52313200  1
  O  O43  1  0.74096000  0.46606800  0.97686800  1
  O  O44  1  0.75093100  0.08930100  0.48010900  1
  O  O45  1  0.25093100  0.91069900  0.01989100  1
  O  O46  1  0.24906900  0.91069900  0.51989100  1
  O  O47  1  0.34270500  0.58764100  0.85330800  1
loop_
_geom_bond_atom_site_label_1
_geom_bond_atom_site_label_2
_geom_bond_distance
_geom_bond_site_symmetry_2
Be0 O28 1.550893 1_555
Be0 O14 1.651709 1_555
Be0 O1 1.693807 1_555
Be0 O36 1.726419 1_555
Be1 O27 1.540683 1_555
Be1 O16 1.626852 1_545
Be1 O17 1.681064 1_655
Be1 O20 1.744854 1_555
Be2 O26 1.540683 1_555
Be2 O0 1.626852 1_565
Be2 O11 1.681064 1_555
Be2 O46 1.744854 1_555
Be3 O25 1.540683 1_555
Be3 O18 1.626852 1_565
Be3 O10 1.681064 1_455
Be3 O45 1.744854 1_555
Be4 O24 1.540683 1_555
Be4 O19 1.626852 1_545
Be4 O9 1.681064 1_555
Be4 O44 1.744854 1_555
Be5 O35 1.558252 1_555
Be5 O47 1.649046 1_555
Be5 O8 1.668480 1_555
Be5 O41 1.707670 1_556
Be6 O34 1.558252 1_555
Be6 O21 1.649046 1_555
Be6 O7 1.668480 1_655
Be6 O40 1.707670 1_555
Be7 O33 1.558252 1_555
Be7 O22 1.649046 1_555
Be7 O6 1.668480 1_555
Be7 O43 1.707670 1_554
Be8 O32 1.558252 1_555
Be8 O23 1.649046 1_555
Be8 O5 1.668480 1_455
Be8 O42 1.707670 1_555
Be9 O31 1.550893 1_555
Be9 O13 1.651709 1_555
Be9 O4 1.693807 1_655
Be9 O39 1.726419 1_555
Be10 O30 1.550893 1_555
Be10 O12 1.651709 1_555
Be10 O3 1.693807 1_555
Be10 O38 1.726419 1_555
Be11 O29 1.550893 1_555
Be11 O15 1.651709 1_555
Be11 O2 1.693807 1_455
Be11 O37 1.726419 1_555
Bi0 O5 2.297483 1_455
Bi0 O13 2.355693 1_455
Bi0 O21 2.367254 1_455
Bi0 O38 2.547803 1_555
Bi0 O46 2.560350 1_555
Bi0 O42 2.609185 1_555
Bi1 O8 2.297483 1_554
Bi1 O14 2.355693 1_555
Bi1 O22 2.367254 1_555
Bi1 O37 2.547803 1_555
Bi1 O45 2.560350 1_555
Bi1 O41 2.609185 1_555
Bi2 O7 2.297483 1_655
Bi2 O15 2.355693 1_655
Bi2 O23 2.367254 1_655
Bi2 O36 2.547803 1_555
Bi2 O44 2.560350 1_555
Bi2 O40 2.609185 1_555
Bi3 O6 2.297483 1_556
Bi3 O12 2.355693 1_555
Bi3 O47 2.367254 1_555
Bi3 O39 2.547803 1_555
Bi3 O20 2.560350 1_555
Bi3 O43 2.609185 1_555
Bi4 O17 2.289747 1_655
Bi4 O4 2.334518 1_655
Bi4 O18 2.381971 1_656
Bi4 O43 2.470966 1_555
Bi4 O20 2.495109 1_555
Bi4 O39 2.498688 1_555
Bi5 O11 2.289747 1_555
Bi5 O3 2.334518 1_555
Bi5 O19 2.381971 1_555
Bi5 O42 2.470966 1_555
Bi5 O46 2.495109 1_555
Bi5 O38 2.498688 1_555
Bi6 O10 2.289747 1_455
Bi6 O2 2.334518 1_455
Bi6 O16 2.381971 1_454
Bi6 O41 2.470966 1_555
Bi6 O45 2.495109 1_555
Bi6 O37 2.498688 1_555
Bi7 O9 2.289747 1_555
Bi7 O1 2.334518 1_555
Bi7 O0 2.381971 1_555
Bi7 O40 2.470966 1_555
Bi7 O44 2.495109 1_555
Bi7 O36 2.498688 1_555
O0 Si6 1.650928 1_555
O1 Si0 1.660237 1_555
O2 Si1 1.660237 1_555
O3 Si2 1.660237 1_555
O4 Si3 1.660237 1_555
O5 Si4 1.664591 1_555
O6 Si5 1.664591 1_555
O7 Si6 1.664591 1_555
O8 Si7 1.664591 1_555
O9 Si8 1.663595 1_555
O10 Si9 1.663595 1_555
O11 Si10 1.663595 1_555
O12 Si11 1.658107 1_555
O13 Si10 1.658107 1_555
O14 Si9 1.658107 1_555
O15 Si8 1.658107 1_555
O16 Si7 1.650928 1_555
O17 Si11 1.663595 1_555
O18 Si5 1.650928 1_555
O19 Si4 1.650928 1_555
O20 Si9 1.705565 1_546
O21 Si2 1.664789 1_555
O22 Si1 1.664789 1_555
O23 Si0 1.664789 1_555
O24 Si1 1.588670 1_555
O25 Si0 1.588670 1_555
O26 Si3 1.588670 1_555
O27 Si2 1.588670 1_555
O28 Si4 1.590277 1_555
O29 Si5 1.590277 1_555
O30 Si6 1.590277 1_555
O31 Si7 1.590277 1_555
O32 Si8 1.594708 1_565
O33 Si9 1.594708 1_545
O34 Si10 1.594708 1_545
O35 Si11 1.594708 1_565
O36 Si1 1.694620 1_555
O37 Si0 1.694620 1_555
O38 Si3 1.694620 1_555
O39 Si2 1.694620 1_555
O40 Si4 1.693700 1_555
O41 Si5 1.693700 1_555
O42 Si6 1.693700 1_555
O43 Si7 1.693700 1_555
O44 Si10 1.705565 1_545
O45 Si11 1.705565 1_564
O46 Si8 1.705565 1_565
O47 Si3 1.664789 1_555
