# generated using pymatgen
data_Mn7CdO12
_symmetry_space_group_name_H-M   'P 1'
_cell_length_a   6.50132026
_cell_length_b   6.50132026
_cell_length_c   6.50132026
_cell_angle_alpha   109.47122063
_cell_angle_beta   109.47122063
_cell_angle_gamma   109.47122063
_symmetry_Int_Tables_number   1
_chemical_formula_structural   Mn7CdO12
_chemical_formula_sum   'Mn7 Cd1 O12'
_cell_volume   211.53527003
_cell_formula_units_Z   1
loop_
 _symmetry_equiv_pos_site_id
 _symmetry_equiv_pos_as_xyz
  1  'x, y, z'
loop_
 _atom_site_type_symbol
 _atom_site_label
 _atom_site_symmetry_multiplicity
 _atom_site_fract_x
 _atom_site_fract_y
 _atom_site_fract_z
 _atom_site_occupancy
  Mn  Mn0  1  0.50000000  0.00000000  0.50000000  1
  Mn  Mn1  1  0.00000000  0.50000000  0.50000000  1
  Mn  Mn2  1  0.50000000  0.50000000  0.00000000  1
  Mn  Mn3  1  0.00000000  0.00000000  0.50000000  1
  Mn  Mn4  1  0.50000000  0.00000000  0.00000000  1
  Mn  Mn5  1  0.00000000  0.50000000  0.00000000  1
  Mn  Mn6  1  0.50000000  0.50000000  0.50000000  1
  Cd  Cd0  1  0.00000000  0.00000000  0.00000000  1
  O  O0  1  0.17933800  0.86996900  0.69063100  1
  O  O1  1  0.82066200  0.13003100  0.30936900  1
  O  O2  1  0.82066200  0.51129400  0.69063100  1
  O  O3  1  0.17933800  0.48870600  0.30936900  1
  O  O4  1  0.86996900  0.69063100  0.17933800  1
  O  O5  1  0.13003100  0.30936900  0.82066200  1
  O  O6  1  0.51129400  0.69063100  0.82066200  1
  O  O7  1  0.48870600  0.30936900  0.17933800  1
  O  O8  1  0.69063100  0.17933800  0.86996900  1
  O  O9  1  0.30936900  0.82066200  0.13003100  1
  O  O10  1  0.69063100  0.82066200  0.51129400  1
  O  O11  1  0.30936900  0.17933800  0.48870600  1
loop_
_geom_bond_atom_site_label_1
_geom_bond_atom_site_label_2
_geom_bond_distance
_geom_bond_site_symmetry_2
Mn0 O9 1.964823 1_545
Mn0 O8 1.964823 1_555
Mn0 O10 1.964823 1_545
Mn0 O11 1.964823 1_555
Mn1 O0 1.964823 1_555
Mn1 O1 1.964823 1_455
Mn1 O3 1.964823 1_555
Mn1 O2 1.964823 1_455
Mn2 O5 1.964823 1_554
Mn2 O4 1.964823 1_555
Mn2 O6 1.964823 1_554
Mn2 O7 1.964823 1_555
Mn3 O1 2.000574 1_455
Mn3 O4 2.000574 1_445
Mn3 O0 2.000574 1_545
Mn3 O5 2.000574 1_555
Mn3 O10 2.000577 1_445
Mn3 O11 2.000577 1_555
Mn4 O1 2.000574 1_555
Mn4 O9 2.000574 1_545
Mn4 O0 2.000574 1_544
Mn4 O8 2.000574 1_554
Mn4 O7 2.000577 1_555
Mn4 O6 2.000577 1_544
Mn5 O8 2.000574 1_454
Mn5 O9 2.000574 1_555
Mn5 O4 2.000574 1_455
Mn5 O5 2.000574 1_554
Mn5 O3 2.000577 1_555
Mn5 O2 2.000577 1_454
Mn6 O6 2.000570 1_555
Mn6 O7 2.000570 1_555
Mn6 O10 2.000570 1_555
Mn6 O2 2.000570 1_555
Mn6 O11 2.000570 1_555
Mn6 O3 2.000570 1_555
Cd0 O7 2.684458 1_555
Cd0 O6 2.684458 1_444
Cd0 O2 2.684458 1_444
Cd0 O10 2.684458 1_444
Cd0 O11 2.684458 1_555
Cd0 O3 2.684458 1_555
Cd0 O0 2.684463 1_544
Cd0 O9 2.684463 1_545
Cd0 O4 2.684463 1_445
Cd0 O5 2.684463 1_554
Cd0 O8 2.684463 1_454
Cd0 O1 2.684463 1_455
