# generated using pymatgen
data_Ti3FeS6
_symmetry_space_group_name_H-M   'P 1'
_cell_length_a   6.66803633
_cell_length_b   6.66803683
_cell_length_c   6.66803744
_cell_angle_alpha   53.15585904
_cell_angle_beta   53.15585394
_cell_angle_gamma   53.15585729
_symmetry_Int_Tables_number   1
_chemical_formula_structural   Ti3FeS6
_chemical_formula_sum   'Ti3 Fe1 S6'
_cell_volume   176.02916077
_cell_formula_units_Z   1
loop_
 _symmetry_equiv_pos_site_id
 _symmetry_equiv_pos_as_xyz
  1  'x, y, z'
loop_
 _atom_site_type_symbol
 _atom_site_label
 _atom_site_symmetry_multiplicity
 _atom_site_fract_x
 _atom_site_fract_y
 _atom_site_fract_z
 _atom_site_occupancy
  Ti  Ti0  1  0.00000000  -0.00000000  -0.00000000  1
  Ti  Ti1  1  0.33259814  0.33259814  0.33259814  1
  Ti  Ti2  1  0.66740186  0.66740186  0.66740186  1
  Fe  Fe0  1  0.50000000  0.50000000  0.50000000  1
  S  S0  1  0.91544295  0.58528104  0.24916605  1
  S  S1  1  0.58528104  0.24916605  0.91544295  1
  S  S2  1  0.24916605  0.91544295  0.58528104  1
  S  S3  1  0.75083395  0.08455705  0.41471896  1
  S  S4  1  0.41471896  0.75083395  0.08455705  1
  S  S5  1  0.08455705  0.41471896  0.75083395  1
loop_
_geom_bond_atom_site_label_1
_geom_bond_atom_site_label_2
_geom_bond_distance
_geom_bond_site_symmetry_2
Fe0 S5 2.446772 1_555
Fe0 S0 2.446772 1_555
Fe0 S2 2.446772 1_555
Fe0 S3 2.446772 1_555
Fe0 S4 2.446772 1_555
Fe0 S1 2.446772 1_555
S0 Ti0 2.441698 1_665
S0 Ti1 2.448823 1_655
S0 Ti2 2.454872 1_555
S1 Ti0 2.441698 1_656
S1 Ti1 2.448823 1_556
S1 Ti2 2.454872 1_555
S2 Ti0 2.441699 1_566
S2 Ti1 2.448823 1_565
S2 Ti2 2.454872 1_555
S3 Ti0 2.441699 1_655
S3 Ti2 2.448823 1_545
S3 Ti1 2.454872 1_555
S4 Ti0 2.441698 1_565
S4 Ti2 2.448823 1_554
S4 Ti1 2.454872 1_555
S5 Ti0 2.441698 1_556
S5 Ti2 2.448823 1_455
S5 Ti1 2.454872 1_555
