# generated using pymatgen
data_Mo3W(SeS)4
_symmetry_space_group_name_H-M   'P 1'
_cell_length_a   3.25715391
_cell_length_b   3.25715391
_cell_length_c   36.88678700
_cell_angle_alpha   90.00000000
_cell_angle_beta   90.00000000
_cell_angle_gamma   119.99999810
_symmetry_Int_Tables_number   1
_chemical_formula_structural   Mo3W(SeS)4
_chemical_formula_sum   'Mo3 W1 Se4 S4'
_cell_volume   338.90504077
_cell_formula_units_Z   1
loop_
 _symmetry_equiv_pos_site_id
 _symmetry_equiv_pos_as_xyz
  1  'x, y, z'
loop_
 _atom_site_type_symbol
 _atom_site_label
 _atom_site_symmetry_multiplicity
 _atom_site_fract_x
 _atom_site_fract_y
 _atom_site_fract_z
 _atom_site_occupancy
  Mo  Mo0  1  0.00000000  0.00000000  0.09391300  1
  Mo  Mo1  1  0.33333300  0.66666700  0.28176000  1
  Mo  Mo2  1  0.33333300  0.66666700  0.65752700  1
  W  W0  1  0.00000000  0.00000000  0.46967300  1
  Se  Se0  1  0.00000000  0.00000000  0.32778400  1
  Se  Se1  1  0.33333300  0.66666700  0.42339000  1
  Se  Se2  1  0.33333300  0.66666700  0.51600200  1
  Se  Se3  1  0.00000000  0.00000000  0.23577600  1
  S  S0  1  0.00000000  0.00000000  0.69940600  1
  S  S1  1  0.33333300  0.66666700  0.05205600  1
  S  S2  1  0.33333300  0.66666700  0.13578000  1
  S  S3  1  0.00000000  0.00000000  0.61568100  1
loop_
_geom_bond_atom_site_label_1
_geom_bond_atom_site_label_2
_geom_bond_distance
_geom_bond_site_symmetry_2
Mo0 S1 2.433144 1_545
Mo0 S1 2.433146 1_445
Mo0 S1 2.433146 1_555
Mo0 S2 2.433378 1_545
Mo0 S2 2.433380 1_445
Mo0 S2 2.433380 1_555
Mo1 Se3 2.532478 1_565
Mo1 Se3 2.532480 1_555
Mo1 Se3 2.532480 1_665
Mo1 Se0 2.533466 1_565
Mo1 Se0 2.533469 1_555
Mo1 Se0 2.533469 1_665
Mo2 S3 2.432886 1_565
Mo2 S3 2.432888 1_555
Mo2 S3 2.432888 1_665
Mo2 S0 2.433659 1_565
Mo2 S0 2.433661 1_665
Mo2 S0 2.433661 1_555
Se1 W0 2.539878 1_565
Se1 W0 2.539880 1_555
Se1 W0 2.539880 1_665
Se2 W0 2.541019 1_565
Se2 W0 2.541021 1_555
Se2 W0 2.541021 1_665
