# generated using pymatgen
data_Mg5Ag
_symmetry_space_group_name_H-M   'P 1'
_cell_length_a   11.68659264
_cell_length_b   11.68659264
_cell_length_c   14.52194620
_cell_angle_alpha   75.56511336
_cell_angle_beta   75.56511336
_cell_angle_gamma   31.28618602
_symmetry_Int_Tables_number   1
_chemical_formula_structural   Mg5Ag
_chemical_formula_sum   'Mg40 Ag8'
_cell_volume   994.87330010
_cell_formula_units_Z   8
loop_
 _symmetry_equiv_pos_site_id
 _symmetry_equiv_pos_as_xyz
  1  'x, y, z'
loop_
 _atom_site_type_symbol
 _atom_site_label
 _atom_site_symmetry_multiplicity
 _atom_site_fract_x
 _atom_site_fract_y
 _atom_site_fract_z
 _atom_site_occupancy
  Mg  Mg0_0  1  0.00245083  0.00245083  0.01031829  1
  Mg  Mg0_1  1  0.00245082  0.00245082  0.51031829  1
  Mg  Mg0_2  1  0.00245082  0.50245083  0.01031829  1
  Mg  Mg0_3  1  0.00245082  0.50245082  0.51031829  1
  Mg  Mg0_4  1  0.50245083  0.00245082  0.01031829  1
  Mg  Mg0_5  1  0.50245082  0.00245082  0.51031829  1
  Mg  Mg0_6  1  0.50245083  0.50245083  0.01031829  1
  Mg  Mg0_7  1  0.50245083  0.50245083  0.51031829  1
  Mg  Mg1_0  1  0.14016074  0.14016074  0.47264186  1
  Mg  Mg1_1  1  0.14016074  0.14016074  0.97264186  1
  Mg  Mg1_2  1  0.14016074  0.64016074  0.47264186  1
  Mg  Mg1_3  1  0.14016074  0.64016074  0.97264186  1
  Mg  Mg1_4  1  0.64016074  0.14016074  0.47264186  1
  Mg  Mg1_5  1  0.64016074  0.14016074  0.97264186  1
  Mg  Mg1_6  1  0.64016074  0.64016074  0.47264186  1
  Mg  Mg1_7  1  0.64016073  0.64016074  0.97264186  1
  Mg  Mg2_0  1  0.33245104  0.33245104  0.33515729  1
  Mg  Mg2_1  1  0.33245104  0.33245104  0.83515729  1
  Mg  Mg2_2  1  0.33245104  0.83245104  0.33515729  1
  Mg  Mg2_3  1  0.33245104  0.83245104  0.83515729  1
  Mg  Mg2_4  1  0.83245104  0.33245104  0.33515729  1
  Mg  Mg2_5  1  0.83245104  0.33245104  0.83515729  1
  Mg  Mg2_6  1  0.83245104  0.83245104  0.33515729  1
  Mg  Mg2_7  1  0.83245104  0.83245104  0.83515729  1
  Mg  Mg3_0  1  0.47713603  0.47713603  0.29268289  1
  Mg  Mg3_1  1  0.47713602  0.47713602  0.79268289  1
  Mg  Mg3_2  1  0.47713603  0.97713602  0.29268289  1
  Mg  Mg3_3  1  0.47713602  0.97713602  0.79268289  1
  Mg  Mg3_4  1  0.97713602  0.47713603  0.29268289  1
  Mg  Mg3_5  1  0.97713602  0.47713602  0.79268289  1
  Mg  Mg3_6  1  0.97713602  0.97713602  0.29268289  1
  Mg  Mg3_7  1  0.97713602  0.97713602  0.79268289  1
  Mg  Mg4_0  1  0.15908801  0.15908801  0.16706394  1
  Mg  Mg4_1  1  0.15908801  0.15908801  0.66706394  1
  Mg  Mg4_2  1  0.15908801  0.65908800  0.16706394  1
  Mg  Mg4_3  1  0.15908801  0.65908801  0.66706394  1
  Mg  Mg4_4  1  0.65908800  0.15908801  0.16706394  1
  Mg  Mg4_5  1  0.65908801  0.15908801  0.66706394  1
  Mg  Mg4_6  1  0.65908800  0.65908800  0.16706394  1
  Mg  Mg4_7  1  0.65908801  0.65908800  0.66706394  1
  Ag  Ag0_0  1  0.30537837  0.30537837  0.13880023  1
  Ag  Ag0_1  1  0.30537837  0.30537837  0.63880023  1
  Ag  Ag0_2  1  0.30537837  0.80537837  0.13880023  1
  Ag  Ag0_3  1  0.30537837  0.80537837  0.63880023  1
  Ag  Ag0_4  1  0.80537837  0.30537837  0.13880023  1
  Ag  Ag0_5  1  0.80537837  0.30537837  0.63880023  1
  Ag  Ag0_6  1  0.80537837  0.80537837  0.13880024  1
  Ag  Ag0_7  1  0.80537837  0.80537837  0.63880023  1
loop_
_geom_bond_atom_site_label_1
_geom_bond_atom_site_label_2
_geom_bond_distance
_geom_bond_site_symmetry_2
Mg0_0 Mg1_1 3.004704 1_554
Mg0_0 Mg4_2 3.098892 1_545
Mg0_0 Mg4_4 3.098892 1_455
Mg0_0 Mg2_3 3.134279 1_544
Mg0_0 Mg2_5 3.134279 1_454
Mg0_0 Mg1_5 3.144105 1_454
Mg0_0 Mg1_3 3.144105 1_544
Mg0_1 Mg1_0 3.004704 1_555
Mg0_1 Mg4_3 3.098892 1_545
Mg0_1 Mg4_5 3.098892 1_455
Mg0_1 Mg2_2 3.134279 1_545
Mg0_1 Mg2_4 3.134279 1_455
Mg0_1 Mg1_2 3.144105 1_545
Mg0_1 Mg1_4 3.144105 1_455
Mg0_2 Mg1_3 3.004704 1_554
Mg0_2 Mg4_0 3.098892 1_555
Mg0_2 Mg4_6 3.098892 1_455
Mg0_2 Mg2_1 3.134279 1_554
Mg0_2 Mg2_7 3.134279 1_454
Mg0_2 Mg1_1 3.144105 1_554
Mg0_2 Mg1_7 3.144105 1_454
Mg0_3 Mg1_2 3.004704 1_555
Mg0_3 Mg4_7 3.098892 1_455
Mg0_3 Mg4_1 3.098892 1_555
Mg0_3 Mg2_6 3.134279 1_455
Mg0_3 Mg2_0 3.134279 1_555
Mg0_3 Mg1_6 3.144105 1_455
Mg0_3 Mg1_0 3.144105 1_555
Mg0_4 Mg1_5 3.004704 1_554
Mg0_4 Mg4_0 3.098892 1_555
Mg0_4 Mg4_6 3.098892 1_545
Mg0_4 Mg2_1 3.134279 1_554
Mg0_4 Mg2_7 3.134279 1_544
Mg0_4 Mg1_1 3.144105 1_554
Mg0_4 Mg1_7 3.144105 1_544
Mg0_5 Mg1_4 3.004704 1_555
Mg0_5 Mg4_1 3.098892 1_555
Mg0_5 Mg4_7 3.098892 1_545
Mg0_5 Mg2_6 3.134279 1_545
Mg0_5 Mg2_0 3.134279 1_555
Mg0_5 Mg1_6 3.144105 1_545
Mg0_5 Mg1_0 3.144105 1_555
Mg0_6 Mg1_7 3.004704 1_554
Mg0_6 Mg4_4 3.098892 1_555
Mg0_6 Mg4_2 3.098892 1_555
Mg0_6 Mg2_3 3.134279 1_554
Mg0_6 Mg2_5 3.134279 1_554
Mg0_6 Mg1_3 3.144105 1_554
Mg0_6 Mg1_5 3.144105 1_554
Mg0_7 Mg1_6 3.004704 1_555
Mg0_7 Mg4_5 3.098892 1_555
Mg0_7 Mg4_3 3.098892 1_555
Mg0_7 Mg2_2 3.134279 1_555
Mg0_7 Mg2_4 3.134279 1_555
Mg0_7 Mg1_2 3.144105 1_555
Mg0_7 Mg1_4 3.144105 1_555
Mg1_0 Mg4_1 2.962383 1_555
Mg1_0 Mg2_2 3.081967 1_545
Mg1_0 Mg2_4 3.081967 1_455
Mg1_0 Mg1_6 3.151221 1_455
Mg1_0 Mg1_6 3.151221 1_545
Mg1_0 Mg3_4 3.239700 1_455
Mg1_0 Mg3_2 3.239700 1_545
Mg1_1 Mg4_0 2.962383 1_556
Mg1_1 Mg2_3 3.081967 1_545
Mg1_1 Mg2_5 3.081967 1_455
Mg1_1 Mg1_7 3.151221 1_545
Mg1_1 Mg1_7 3.151221 1_455
Mg1_1 Mg3_3 3.239700 1_545
Mg1_1 Mg3_5 3.239700 1_455
Mg1_2 Mg4_3 2.962383 1_555
Mg1_2 Mg2_0 3.081967 1_555
Mg1_2 Mg2_6 3.081967 1_455
Mg1_2 Mg1_4 3.151221 1_465
Mg1_2 Mg1_4 3.151221 1_555
Mg1_2 Mg3_6 3.239700 1_455
Mg1_2 Mg3_0 3.239700 1_555
Mg1_3 Mg4_2 2.962383 1_556
Mg1_3 Mg2_7 3.081967 1_455
Mg1_3 Mg2_1 3.081967 1_555
Mg1_3 Mg1_5 3.151221 1_465
Mg1_3 Mg1_5 3.151221 1_555
Mg1_3 Mg3_7 3.239700 1_455
Mg1_3 Mg3_1 3.239700 1_555
Mg1_4 Mg4_5 2.962383 1_555
Mg1_4 Mg2_0 3.081967 1_555
Mg1_4 Mg2_6 3.081967 1_545
Mg1_4 Mg3_6 3.239700 1_545
Mg1_4 Mg3_0 3.239700 1_555
Mg1_5 Mg4_4 2.962383 1_556
Mg1_5 Mg2_7 3.081967 1_545
Mg1_5 Mg2_1 3.081967 1_555
Mg1_5 Mg3_1 3.239700 1_555
Mg1_5 Mg3_7 3.239700 1_545
Mg1_6 Mg4_7 2.962383 1_555
Mg1_6 Mg2_4 3.081967 1_555
Mg1_6 Mg2_2 3.081967 1_555
Mg1_6 Mg3_4 3.239700 1_555
Mg1_6 Mg3_2 3.239700 1_555
Mg1_7 Mg4_6 2.962383 1_556
Mg1_7 Mg2_3 3.081967 1_555
Mg1_7 Mg2_5 3.081967 1_555
Mg1_7 Mg3_5 3.239700 1_555
Mg1_7 Mg3_3 3.239700 1_555
Mg2_0 Mg4_4 3.039172 1_555
Mg2_0 Mg4_2 3.039172 1_555
Mg2_0 Mg3_4 3.039512 1_455
Mg2_0 Mg3_2 3.039512 1_545
Mg2_0 Mg2_6 3.151221 1_545
Mg2_0 Mg2_6 3.151221 1_455
Mg2_0 Mg3_0 3.153606 1_555
Mg2_1 Mg4_5 3.039172 1_555
Mg2_1 Mg4_3 3.039172 1_555
Mg2_1 Mg3_5 3.039512 1_455
Mg2_1 Mg3_3 3.039512 1_545
Mg2_1 Mg2_7 3.151221 1_545
Mg2_1 Mg2_7 3.151221 1_455
Mg2_1 Mg3_1 3.153606 1_555
Mg2_2 Mg4_6 3.039172 1_555
Mg2_2 Mg4_0 3.039172 1_565
Mg2_2 Mg3_0 3.039512 1_555
Mg2_2 Mg3_6 3.039512 1_455
Mg2_2 Mg2_4 3.151221 1_555
Mg2_2 Mg2_4 3.151221 1_465
Mg2_2 Mg3_2 3.153606 1_555
Mg2_3 Mg4_7 3.039172 1_555
Mg2_3 Mg4_1 3.039172 1_565
Mg2_3 Mg3_7 3.039512 1_455
Mg2_3 Mg3_1 3.039512 1_555
Mg2_3 Mg2_5 3.151221 1_465
Mg2_3 Mg2_5 3.151221 1_555
Mg2_3 Mg3_3 3.153606 1_555
Mg2_4 Mg4_6 3.039172 1_555
Mg2_4 Mg4_0 3.039172 1_655
Mg2_4 Mg3_0 3.039512 1_555
Mg2_4 Mg3_6 3.039512 1_545
Mg2_4 Mg3_4 3.153606 1_555
Mg2_5 Mg4_7 3.039172 1_555
Mg2_5 Mg4_1 3.039172 1_655
Mg2_5 Mg3_1 3.039512 1_555
Mg2_5 Mg3_7 3.039512 1_545
Mg2_5 Mg3_5 3.153606 1_555
Mg2_6 Mg4_2 3.039172 1_655
Mg2_6 Mg4_4 3.039172 1_565
Mg2_6 Mg3_2 3.039512 1_555
Mg2_6 Mg3_4 3.039512 1_555
Mg2_6 Mg3_6 3.153606 1_555
Mg2_7 Mg4_3 3.039172 1_655
Mg2_7 Mg4_5 3.039172 1_565
Mg2_7 Mg3_3 3.039512 1_555
Mg2_7 Mg3_5 3.039512 1_555
Mg2_7 Mg3_7 3.153606 1_555
Mg3_0 Mg4_4 3.098817 1_555
Mg3_0 Mg4_2 3.098817 1_555
Mg3_1 Mg4_5 3.098817 1_555
Mg3_1 Mg4_3 3.098817 1_555
Mg3_2 Mg4_0 3.098817 1_565
Mg3_2 Mg4_6 3.098817 1_555
Mg3_3 Mg4_1 3.098817 1_565
Mg3_3 Mg4_7 3.098817 1_555
Mg3_4 Mg4_0 3.098817 1_655
Mg3_4 Mg4_6 3.098817 1_555
Mg3_5 Mg4_1 3.098817 1_655
Mg3_5 Mg4_7 3.098817 1_555
Mg3_6 Mg4_2 3.098817 1_655
Mg3_6 Mg4_4 3.098817 1_565
Mg3_7 Mg4_3 3.098817 1_655
Mg3_7 Mg4_5 3.098817 1_565
Mg4_0 Mg4_6 3.151221 1_455
Mg4_0 Mg4_6 3.151221 1_545
Mg4_1 Mg4_7 3.151221 1_455
Mg4_1 Mg4_7 3.151221 1_545
Mg4_2 Mg4_4 3.151221 1_555
Mg4_2 Mg4_4 3.151221 1_465
Mg4_3 Mg4_5 3.151221 1_465
Mg4_3 Mg4_5 3.151221 1_555
Ag0_0 Mg0_4 2.921242 1_555
Ag0_0 Mg0_2 2.921242 1_555
Ag0_0 Mg3_2 2.922345 1_545
Ag0_0 Mg3_4 2.922345 1_455
Ag0_0 Mg4_4 2.931845 1_555
Ag0_0 Mg4_2 2.931845 1_555
Ag0_0 Mg2_0 3.066242 1_555
Ag0_0 Mg1_5 3.092298 1_554
Ag0_0 Mg1_3 3.092298 1_554
Ag0_0 Mg4_0 3.210940 1_555
Ag0_1 Mg0_5 2.921242 1_555
Ag0_1 Mg0_3 2.921242 1_555
Ag0_1 Mg3_5 2.922345 1_455
Ag0_1 Mg3_3 2.922345 1_545
Ag0_1 Mg4_3 2.931845 1_555
Ag0_1 Mg4_5 2.931845 1_555
Ag0_1 Mg2_1 3.066242 1_555
Ag0_1 Mg1_2 3.092298 1_555
Ag0_1 Mg1_4 3.092298 1_555
Ag0_1 Mg4_1 3.210940 1_555
Ag0_2 Mg0_6 2.921242 1_555
Ag0_2 Mg0_0 2.921242 1_565
Ag0_2 Mg3_6 2.922345 1_455
Ag0_2 Mg3_0 2.922345 1_555
Ag0_2 Mg4_6 2.931845 1_555
Ag0_2 Mg4_0 2.931845 1_565
Ag0_2 Mg2_2 3.066242 1_555
Ag0_2 Mg1_7 3.092298 1_554
Ag0_2 Mg1_1 3.092298 1_564
Ag0_2 Mg4_2 3.210940 1_555
Ag0_3 Mg0_7 2.921242 1_555
Ag0_3 Mg0_1 2.921242 1_565
Ag0_3 Mg3_1 2.922345 1_555
Ag0_3 Mg3_7 2.922345 1_455
Ag0_3 Mg4_7 2.931845 1_555
Ag0_3 Mg4_1 2.931845 1_565
Ag0_3 Mg2_3 3.066242 1_555
Ag0_3 Mg1_6 3.092298 1_555
Ag0_3 Mg1_0 3.092298 1_565
Ag0_3 Mg4_3 3.210940 1_555
Ag0_4 Mg0_6 2.921242 1_555
Ag0_4 Mg0_0 2.921242 1_655
Ag0_4 Mg3_6 2.922345 1_545
Ag0_4 Mg3_0 2.922345 1_555
Ag0_4 Mg4_6 2.931845 1_555
Ag0_4 Mg4_0 2.931845 1_655
Ag0_4 Mg2_4 3.066242 1_555
Ag0_4 Mg1_7 3.092298 1_554
Ag0_4 Mg1_1 3.092298 1_654
Ag0_4 Mg4_4 3.210940 1_555
Ag0_5 Mg0_7 2.921242 1_555
Ag0_5 Mg0_1 2.921242 1_655
Ag0_5 Mg3_7 2.922345 1_545
Ag0_5 Mg3_1 2.922345 1_555
Ag0_5 Mg4_7 2.931845 1_555
Ag0_5 Mg4_1 2.931845 1_655
Ag0_5 Mg2_5 3.066242 1_555
Ag0_5 Mg1_6 3.092298 1_555
Ag0_5 Mg1_0 3.092298 1_655
Ag0_5 Mg4_5 3.210940 1_555
Ag0_6 Mg0_4 2.921242 1_565
Ag0_6 Mg0_2 2.921242 1_655
Ag0_6 Mg3_4 2.922345 1_555
Ag0_6 Mg3_2 2.922345 1_555
Ag0_6 Mg4_2 2.931845 1_655
Ag0_6 Mg4_4 2.931845 1_565
Ag0_6 Mg2_6 3.066242 1_555
Ag0_6 Mg1_5 3.092298 1_564
Ag0_6 Mg1_3 3.092298 1_654
Ag0_6 Mg4_6 3.210940 1_555
Ag0_7 Mg0_5 2.921242 1_565
Ag0_7 Mg0_3 2.921242 1_655
Ag0_7 Mg3_5 2.922345 1_555
Ag0_7 Mg3_3 2.922345 1_555
Ag0_7 Mg4_3 2.931845 1_655
Ag0_7 Mg4_5 2.931845 1_565
Ag0_7 Mg2_7 3.066242 1_555
Ag0_7 Mg1_4 3.092298 1_565
Ag0_7 Mg1_2 3.092298 1_655
Ag0_7 Mg4_7 3.210940 1_555
