# generated using pymatgen
data_Sr3Mo3N5
_symmetry_space_group_name_H-M   'P 1'
_cell_length_a   6.12973440
_cell_length_b   7.36117150
_cell_length_c   8.92538232
_cell_angle_alpha   108.37442678
_cell_angle_beta   104.28570472
_cell_angle_gamma   95.51903775
_symmetry_Int_Tables_number   1
_chemical_formula_structural   Sr3Mo3N5
_chemical_formula_sum   'Sr6 Mo6 N10'
_cell_volume   363.69378334
_cell_formula_units_Z   2
loop_
 _symmetry_equiv_pos_site_id
 _symmetry_equiv_pos_as_xyz
  1  'x, y, z'
loop_
 _atom_site_type_symbol
 _atom_site_label
 _atom_site_symmetry_multiplicity
 _atom_site_fract_x
 _atom_site_fract_y
 _atom_site_fract_z
 _atom_site_occupancy
  Sr  Sr0  1  0.82014900  0.43971100  0.61938200  1
  Sr  Sr1  1  0.17985100  0.56028900  0.38061800  1
  Sr  Sr2  1  0.66203300  0.86853000  0.89076800  1
  Sr  Sr3  1  0.33796700  0.13147000  0.10923100  1
  Sr  Sr4  1  0.65333100  0.65542200  0.20657000  1
  Sr  Sr5  1  0.34666900  0.34457800  0.79343000  1
  Mo  Mo0  1  0.90168000  0.32209700  0.96468800  1
  Mo  Mo1  1  0.09832000  0.67790300  0.03531200  1
  Mo  Mo2  1  0.70406000  0.96263600  0.57453100  1
  Mo  Mo3  1  0.29594000  0.03736400  0.42546900  1
  Mo  Mo4  1  0.12470600  0.88416500  0.69996900  1
  Mo  Mo5  1  0.87529400  0.11583500  0.30003100  1
  N  N0  1  0.97504800  0.10818800  0.79662700  1
  N  N1  1  0.02495200  0.89181200  0.20337300  1
  N  N2  1  0.85212800  0.72538900  0.51010300  1
  N  N3  1  0.14787200  0.27461100  0.48989700  1
  N  N4  1  0.75581800  0.54137200  0.91094800  1
  N  N5  1  0.24418200  0.45862800  0.08905200  1
  N  N6  1  0.39620800  0.93978400  0.62353800  1
  N  N7  1  0.60379200  0.06021600  0.37646200  1
  N  N8  1  0.19387600  0.76033600  0.86786100  1
  N  N9  1  0.80612400  0.23966400  0.13213900  1
loop_
_geom_bond_atom_site_label_1
_geom_bond_atom_site_label_2
_geom_bond_distance
_geom_bond_site_symmetry_2
Mo0 N9 1.969883 1_556
Mo0 N0 1.977816 1_555
Mo0 N4 2.046684 1_555
Mo0 N5 2.095374 1_656
Mo1 N8 1.969883 1_554
Mo1 N1 1.977816 1_555
Mo1 N5 2.046684 1_555
Mo1 N4 2.095374 1_454
Mo2 N2 2.033161 1_555
Mo2 N6 2.042856 1_555
Mo2 N7 2.090035 1_565
Mo2 N0 2.128446 1_565
Mo3 N3 2.033161 1_555
Mo3 N7 2.042856 1_555
Mo3 N6 2.090035 1_545
Mo3 N1 2.128446 1_545
Mo4 N8 1.969286 1_555
Mo4 N2 2.001947 1_455
Mo4 N6 2.001993 1_555
Mo4 N0 2.022352 1_465
Mo5 N9 1.969286 1_555
Mo5 N3 2.001947 1_655
Mo5 N7 2.001993 1_555
Mo5 N1 2.022352 1_645
N0 Sr5 2.742027 1_655
N0 Sr2 2.928952 1_545
N0 Sr3 3.053676 1_656
N1 Sr4 2.742027 1_455
N1 Sr3 2.928958 1_565
N1 Sr2 3.053682 1_454
N2 Sr4 2.541659 1_555
N2 Sr0 2.592339 1_555
N2 Sr1 2.752825 1_655
N3 Sr5 2.541659 1_555
N3 Sr1 2.592339 1_555
N3 Sr0 2.752825 1_455
N4 Sr5 2.556096 1_555
N4 Sr2 2.579019 1_555
N4 Sr0 2.612109 1_555
N4 Sr4 2.753963 1_556
N5 Sr4 2.556096 1_555
N5 Sr3 2.579017 1_555
N5 Sr1 2.612109 1_555
N5 Sr5 2.753963 1_554
N6 Sr2 2.766610 1_555
N6 Sr1 2.883282 1_555
N6 Sr5 2.970383 1_565
N7 Sr3 2.766617 1_555
N7 Sr0 2.883282 1_555
N7 Sr4 2.970383 1_545
N8 Sr3 2.787682 1_566
N8 Sr2 2.842415 1_555
N8 Sr0 2.981539 1_455
N8 Sr5 3.203370 1_555
N9 Sr2 2.787686 1_544
N9 Sr3 2.842413 1_555
N9 Sr1 2.981539 1_655
N9 Sr4 3.203370 1_555
