# generated using pymatgen
data_Li2Cd
_symmetry_space_group_name_H-M   'P 1'
_cell_length_a   7.13552767
_cell_length_b   7.13552767
_cell_length_c   7.13552767
_cell_angle_alpha   60.00000000
_cell_angle_beta   60.00000000
_cell_angle_gamma   60.00000000
_symmetry_Int_Tables_number   1
_chemical_formula_structural   Li2Cd
_chemical_formula_sum   'Li8 Cd4'
_cell_volume   256.89951548
_cell_formula_units_Z   4
loop_
 _symmetry_equiv_pos_site_id
 _symmetry_equiv_pos_as_xyz
  1  'x, y, z'
loop_
 _atom_site_type_symbol
 _atom_site_label
 _atom_site_symmetry_multiplicity
 _atom_site_fract_x
 _atom_site_fract_y
 _atom_site_fract_z
 _atom_site_occupancy
  Li  Li0  1  0.39838400  0.39838400  0.39838400  1
  Li  Li1  1  0.39838400  0.39838400  0.80484900  1
  Li  Li2  1  0.39838400  0.80484900  0.39838400  1
  Li  Li3  1  0.85161600  0.85161600  0.44515100  1
  Li  Li4  1  0.85161600  0.85161600  0.85161600  1
  Li  Li5  1  0.80484900  0.39838400  0.39838400  1
  Li  Li6  1  0.85161600  0.44515100  0.85161600  1
  Li  Li7  1  0.44515100  0.85161600  0.85161600  1
  Cd  Cd0  1  0.12500000  0.12500000  0.12500000  1
  Cd  Cd1  1  0.12500000  0.12500000  0.62500000  1
  Cd  Cd2  1  0.12500000  0.62500000  0.12500000  1
  Cd  Cd3  1  0.62500000  0.12500000  0.12500000  1
loop_
_geom_bond_atom_site_label_1
_geom_bond_atom_site_label_2
_geom_bond_distance
_geom_bond_site_symmetry_2
Li0 Li2 2.900342 1_555
Li0 Li1 2.900342 1_555
Li0 Li5 2.900342 1_555
Li1 Li2 2.900342 1_555
Li1 Li5 2.900342 1_555
Li2 Li5 2.900342 1_555
Li3 Li6 2.900342 1_555
Li3 Li7 2.900342 1_555
Li3 Li4 2.900342 1_555
Li4 Li6 2.900342 1_555
Li4 Li7 2.900342 1_555
Li6 Li7 2.900342 1_555
Cd0 Li1 2.778871 1_554
Cd0 Li2 2.778871 1_545
Cd0 Li5 2.778871 1_455
Cd0 Li3 2.778871 1_445
Cd0 Li6 2.778871 1_454
Cd0 Li7 2.778871 1_544
Cd1 Li7 2.778867 1_545
Cd1 Li6 2.778867 1_455
Cd1 Li2 2.778867 1_545
Cd1 Li5 2.778867 1_455
Cd1 Li0 2.778872 1_555
Cd1 Li4 2.778872 1_445
Cd2 Li3 2.778867 1_455
Cd2 Li7 2.778867 1_554
Cd2 Li1 2.778867 1_554
Cd2 Li5 2.778867 1_455
Cd2 Li0 2.778872 1_555
Cd2 Li4 2.778872 1_454
Cd3 Li3 2.778867 1_545
Cd3 Li6 2.778867 1_554
Cd3 Li1 2.778867 1_554
Cd3 Li2 2.778867 1_545
Cd3 Li0 2.778872 1_555
Cd3 Li4 2.778872 1_544
