# generated using pymatgen
data_CeBi2SeO4
_symmetry_space_group_name_H-M   'P 1'
_cell_length_a   3.90025300
_cell_length_b   3.90025300
_cell_length_c   8.95771100
_cell_angle_alpha   90.00000000
_cell_angle_beta   90.00000000
_cell_angle_gamma   90.00000000
_symmetry_Int_Tables_number   1
_chemical_formula_structural   CeBi2SeO4
_chemical_formula_sum   'Ce1 Bi2 Se1 O4'
_cell_volume   136.26446203
_cell_formula_units_Z   1
loop_
 _symmetry_equiv_pos_site_id
 _symmetry_equiv_pos_as_xyz
  1  'x, y, z'
loop_
 _atom_site_type_symbol
 _atom_site_label
 _atom_site_symmetry_multiplicity
 _atom_site_fract_x
 _atom_site_fract_y
 _atom_site_fract_z
 _atom_site_occupancy
  Ce  Ce0  1  0.00000000  0.00000000  0.00000000  1
  Bi  Bi0  1  0.50000000  0.50000000  0.29459600  1
  Bi  Bi1  1  0.50000000  0.50000000  0.70540400  1
  Se  Se0  1  0.00000000  0.00000000  0.50000000  1
  O  O0  1  0.00000000  0.50000000  0.15265500  1
  O  O1  1  0.00000000  0.50000000  0.84734500  1
  O  O2  1  0.50000000  0.00000000  0.15265500  1
  O  O3  1  0.50000000  0.00000000  0.84734500  1
loop_
_geom_bond_atom_site_label_1
_geom_bond_atom_site_label_2
_geom_bond_distance
_geom_bond_site_symmetry_2
Ce0 O1 2.381782 1_544
Ce0 O2 2.381782 1_555
Ce0 O0 2.381782 1_555
Ce0 O3 2.381782 1_554
Ce0 O3 2.381782 1_454
Ce0 O1 2.381782 1_554
Ce0 O2 2.381782 1_455
Ce0 O0 2.381782 1_545
Bi0 O0 2.328008 1_555
Bi0 O2 2.328008 1_565
Bi0 O2 2.328008 1_555
Bi0 O0 2.328008 1_655
Bi0 Se0 3.315328 1_555
Bi0 Se0 3.315328 1_655
Bi0 Se0 3.315328 1_665
Bi0 Se0 3.315328 1_565
Bi1 O1 2.328008 1_555
Bi1 O1 2.328008 1_655
Bi1 O3 2.328008 1_555
Bi1 O3 2.328008 1_565
Bi1 Se0 3.315328 1_555
Bi1 Se0 3.315328 1_655
Bi1 Se0 3.315328 1_665
Bi1 Se0 3.315328 1_565
