# generated using pymatgen
data_Th5Bi3
_symmetry_space_group_name_H-M   'P 1'
_cell_length_a   6.56107900
_cell_length_b   9.54489874
_cell_length_c   9.53926885
_cell_angle_alpha   120.01952698
_cell_angle_beta   90.00000000
_cell_angle_gamma   90.00000000
_symmetry_Int_Tables_number   1
_chemical_formula_structural   Th5Bi3
_chemical_formula_sum   'Th10 Bi6'
_cell_volume   517.25753342
_cell_formula_units_Z   2
loop_
 _symmetry_equiv_pos_site_id
 _symmetry_equiv_pos_as_xyz
  1  'x, y, z'
loop_
 _atom_site_type_symbol
 _atom_site_label
 _atom_site_symmetry_multiplicity
 _atom_site_fract_x
 _atom_site_fract_y
 _atom_site_fract_z
 _atom_site_occupancy
  Th  Th0  1  0.50000000  0.33329500  0.66662300  1
  Th  Th1  1  0.50000000  0.66667200  0.33337700  1
  Th  Th2  1  0.00000000  0.66670500  0.33337700  1
  Th  Th3  1  0.00000000  0.33332800  0.66662300  1
  Th  Th4  1  0.74999300  0.25250000  0.00000000  1
  Th  Th5  1  0.75000400  0.74769900  0.74772000  1
  Th  Th6  1  0.75000400  0.99997900  0.25228000  1
  Th  Th7  1  0.24999300  0.74750000  0.00000000  1
  Th  Th8  1  0.25000400  0.25230100  0.25228000  1
  Th  Th9  1  0.25000400  0.00002100  0.74772000  1
  Bi  Bi0  1  0.74999100  0.61100000  0.00000000  1
  Bi  Bi1  1  0.75000400  0.38897400  0.38896500  1
  Bi  Bi2  1  0.75000400  0.00001000  0.61103500  1
  Bi  Bi3  1  0.24999100  0.38900000  0.00000000  1
  Bi  Bi4  1  0.25000400  0.61102600  0.61103500  1
  Bi  Bi5  1  0.25000400  0.99999000  0.38896500  1
loop_
_geom_bond_atom_site_label_1
_geom_bond_atom_site_label_2
_geom_bond_distance
_geom_bond_site_symmetry_2
Th0 Th3 3.280540 1_655
Th0 Th3 3.280540 1_555
Th1 Th2 3.280540 1_655
Th1 Th2 3.280540 1_555
Bi0 Th6 3.261272 1_555
Bi0 Th5 3.261273 1_554
Bi0 Th3 3.375647 1_654
Bi0 Th2 3.375647 1_655
Bi0 Th0 3.375688 1_554
Bi0 Th1 3.375688 1_555
Bi0 Th4 3.421846 1_555
Bi0 Th7 3.529780 1_555
Bi0 Th7 3.529804 1_655
Bi1 Th4 3.260067 1_555
Bi1 Th6 3.262179 1_545
Bi1 Th3 3.375722 1_655
Bi1 Th0 3.375921 1_555
Bi1 Th1 3.376950 1_555
Bi1 Th2 3.377197 1_655
Bi1 Th5 3.422117 1_555
Bi1 Th8 3.530139 1_555
Bi1 Th8 3.530139 1_655
Bi2 Th4 3.260065 1_556
Bi2 Th5 3.262188 1_545
Bi2 Th2 3.375727 1_645
Bi2 Th1 3.375926 1_545
Bi2 Th0 3.376942 1_555
Bi2 Th3 3.377188 1_655
Bi2 Th6 3.422112 1_545
Bi2 Th9 3.530141 1_555
Bi2 Th9 3.530141 1_655
Bi3 Th9 3.261272 1_554
Bi3 Th8 3.261273 1_555
Bi3 Th1 3.375647 1_555
Bi3 Th0 3.375647 1_554
Bi3 Th2 3.375688 1_555
Bi3 Th3 3.375688 1_554
Bi3 Th7 3.421846 1_555
Bi3 Th4 3.529780 1_455
Bi3 Th4 3.529804 1_555
Bi4 Th7 3.260067 1_556
Bi4 Th9 3.262179 1_565
Bi4 Th1 3.375722 1_555
Bi4 Th2 3.375921 1_555
Bi4 Th3 3.376950 1_555
Bi4 Th0 3.377197 1_555
Bi4 Th8 3.422117 1_555
Bi4 Th5 3.530139 1_455
Bi4 Th5 3.530139 1_555
Bi5 Th7 3.260065 1_555
Bi5 Th8 3.262188 1_565
Bi5 Th0 3.375727 1_565
Bi5 Th3 3.375926 1_565
Bi5 Th2 3.376942 1_555
Bi5 Th1 3.377188 1_555
Bi5 Th9 3.422112 1_565
Bi5 Th6 3.530141 1_555
Bi5 Th6 3.530141 1_455
