# generated using pymatgen
data_CeYRh4
_symmetry_space_group_name_H-M   'P 1'
_cell_length_a   5.36908866
_cell_length_b   5.36908866
_cell_length_c   5.36908866
_cell_angle_alpha   60.00000000
_cell_angle_beta   60.00000000
_cell_angle_gamma   60.00000000
_symmetry_Int_Tables_number   1
_chemical_formula_structural   CeYRh4
_chemical_formula_sum   'Ce1 Y1 Rh4'
_cell_volume   109.44268235
_cell_formula_units_Z   1
loop_
 _symmetry_equiv_pos_site_id
 _symmetry_equiv_pos_as_xyz
  1  'x, y, z'
loop_
 _atom_site_type_symbol
 _atom_site_label
 _atom_site_symmetry_multiplicity
 _atom_site_fract_x
 _atom_site_fract_y
 _atom_site_fract_z
 _atom_site_occupancy
  Ce  Ce0  1  0.25000000  0.25000000  0.25000000  1
  Y  Y0  1  0.00000000  0.00000000  0.00000000  1
  Rh  Rh0  1  0.62515200  0.62515200  0.12454500  1
  Rh  Rh1  1  0.62515200  0.12454500  0.62515200  1
  Rh  Rh2  1  0.12454500  0.62515200  0.62515200  1
  Rh  Rh3  1  0.62515200  0.62515200  0.62515200  1
loop_
_geom_bond_atom_site_label_1
_geom_bond_atom_site_label_2
_geom_bond_distance
_geom_bond_site_symmetry_2
Ce0 Rh1 3.148254 1_554
Ce0 Rh2 3.148254 1_554
Ce0 Rh0 3.148254 1_545
Ce0 Rh0 3.148254 1_455
Ce0 Rh2 3.148254 1_545
Ce0 Rh1 3.148254 1_455
Ce0 Rh3 3.148256 1_554
Ce0 Rh3 3.148256 1_455
Ce0 Rh3 3.148256 1_545
Ce0 Rh1 3.148258 1_555
Ce0 Rh2 3.148258 1_555
Ce0 Rh0 3.148258 1_555
Ce0 Y0 3.287882 1_556
Ce0 Y0 3.287882 1_565
Ce0 Y0 3.287882 1_555
Ce0 Y0 3.287882 1_655
Rh0 Rh3 2.681285 1_554
Rh0 Rh1 2.681285 1_564
Rh0 Rh2 2.681285 1_654
Rh0 Rh1 2.687803 1_555
Rh0 Rh3 2.687803 1_555
Rh0 Rh2 2.687803 1_555
Rh0 Y0 3.147558 1_665
Rh0 Y0 3.147562 1_565
Rh0 Y0 3.147562 1_655
Rh1 Rh2 2.681285 1_645
Rh1 Rh3 2.681285 1_545
Rh1 Rh3 2.687803 1_555
Rh1 Rh2 2.687803 1_555
Rh1 Y0 3.147558 1_656
Rh1 Y0 3.147562 1_556
Rh1 Y0 3.147562 1_655
Rh2 Rh3 2.681285 1_455
Rh2 Rh3 2.687803 1_555
Rh2 Y0 3.147558 1_566
Rh2 Y0 3.147562 1_556
Rh2 Y0 3.147562 1_565
Rh3 Y0 3.147560 1_656
Rh3 Y0 3.147560 1_566
Rh3 Y0 3.147560 1_665
