# generated using pymatgen
data_K2AgF4
_symmetry_space_group_name_H-M   'P 1'
_cell_length_a   6.16318100
_cell_length_b   6.48302500
_cell_length_c   7.19765512
_cell_angle_alpha   90.00000000
_cell_angle_beta   115.34945378
_cell_angle_gamma   90.00000000
_symmetry_Int_Tables_number   1
_chemical_formula_structural   K2AgF4
_chemical_formula_sum   'K4 Ag2 F8'
_cell_volume   259.89884438
_cell_formula_units_Z   2
loop_
 _symmetry_equiv_pos_site_id
 _symmetry_equiv_pos_as_xyz
  1  'x, y, z'
loop_
 _atom_site_type_symbol
 _atom_site_label
 _atom_site_symmetry_multiplicity
 _atom_site_fract_x
 _atom_site_fract_y
 _atom_site_fract_z
 _atom_site_occupancy
  K  K0  1  0.64256600  0.01988100  0.28513100  1
  K  K1  1  0.35743400  0.98011900  0.71486900  1
  K  K2  1  0.85743400  0.51988100  0.71486900  1
  K  K3  1  0.14256600  0.48011900  0.28513100  1
  Ag  Ag0  1  0.00000000  0.00000000  0.00000000  1
  Ag  Ag1  1  0.50000000  0.50000000  0.00000000  1
  F  F0  1  0.22387500  0.25000000  0.94775000  1
  F  F1  1  0.77612500  0.75000000  0.05225000  1
  F  F2  1  0.27612500  0.75000000  0.05225000  1
  F  F3  1  0.72387500  0.25000000  0.94775000  1
  F  F4  1  0.66310600  0.42857200  0.32621200  1
  F  F5  1  0.33689400  0.57142800  0.67378800  1
  F  F6  1  0.83689400  0.92857200  0.67378800  1
  F  F7  1  0.16310600  0.07142800  0.32621200  1
loop_
_geom_bond_atom_site_label_1
_geom_bond_atom_site_label_2
_geom_bond_distance
_geom_bond_site_symmetry_2
Ag0 F6 2.171825 1_444
Ag0 F7 2.171825 1_555
Ag0 F0 2.261948 1_554
Ag0 F1 2.261948 1_445
Ag0 F3 2.261948 1_454
Ag0 F2 2.261948 1_545
Ag1 F5 2.171825 1_554
Ag1 F4 2.171825 1_555
Ag1 F2 2.261948 1_555
Ag1 F3 2.261948 1_554
Ag1 F1 2.261948 1_555
Ag1 F0 2.261948 1_554
F0 K1 2.780274 1_545
F0 K2 2.780277 1_455
F0 K3 3.068499 1_556
F0 K0 3.068503 1_556
F1 K0 2.780274 1_565
F1 K3 2.780277 1_655
F1 K2 3.068499 1_554
F1 K1 3.068503 1_554
F2 K3 2.780274 1_555
F2 K0 2.780277 1_565
F2 K1 3.068499 1_554
F2 K2 3.068503 1_454
F3 K2 2.780274 1_555
F3 K1 2.780277 1_545
F3 K0 3.068499 1_556
F3 K3 3.068503 1_656
F4 K2 2.596445 1_555
F4 K0 2.662995 1_555
F4 K3 3.111151 1_555
F4 K3 3.111157 1_655
F5 K3 2.596445 1_555
F5 K1 2.662995 1_555
F5 K2 3.111151 1_555
F5 K2 3.111157 1_455
F6 K0 2.596445 1_565
F6 K2 2.662995 1_555
F6 K1 3.111151 1_655
F6 K1 3.111157 1_555
F7 K1 2.596445 1_545
F7 K3 2.662995 1_555
F7 K0 3.111151 1_455
F7 K0 3.111157 1_555
