# generated using pymatgen
data_CdCo3N
_symmetry_space_group_name_H-M   'P 1'
_cell_length_a   3.85504400
_cell_length_b   3.85504400
_cell_length_c   3.85504400
_cell_angle_alpha   90.00000000
_cell_angle_beta   90.00000000
_cell_angle_gamma   90.00000000
_symmetry_Int_Tables_number   1
_chemical_formula_structural   CdCo3N
_chemical_formula_sum   'Cd1 Co3 N1'
_cell_volume   57.29121305
_cell_formula_units_Z   1
loop_
 _symmetry_equiv_pos_site_id
 _symmetry_equiv_pos_as_xyz
  1  'x, y, z'
loop_
 _atom_site_type_symbol
 _atom_site_label
 _atom_site_symmetry_multiplicity
 _atom_site_fract_x
 _atom_site_fract_y
 _atom_site_fract_z
 _atom_site_occupancy
  Cd  Cd0  1  0.00000000  0.00000000  0.00000000  1
  Co  Co0  1  0.50000000  0.50000000  0.00000000  1
  Co  Co1  1  0.50000000  0.00000000  0.50000000  1
  Co  Co2  1  0.00000000  0.50000000  0.50000000  1
  N  N0  1  0.50000000  0.50000000  0.50000000  1
loop_
_geom_bond_atom_site_label_1
_geom_bond_atom_site_label_2
_geom_bond_distance
_geom_bond_site_symmetry_2
Cd0 Co0 2.725928 1_445
Cd0 Co1 2.725928 1_555
Cd0 Co2 2.725928 1_545
Cd0 Co0 2.725928 1_455
Cd0 Co2 2.725928 1_554
Cd0 Co0 2.725928 1_545
Cd0 Co2 2.725928 1_555
Cd0 Co1 2.725928 1_454
Cd0 Co2 2.725928 1_544
Cd0 Co1 2.725928 1_554
Cd0 Co1 2.725928 1_455
Cd0 Co0 2.725928 1_555
Co0 N0 1.927522 1_555
Co0 N0 1.927522 1_554
Co1 N0 1.927522 1_555
Co1 N0 1.927522 1_545
Co2 N0 1.927522 1_555
Co2 N0 1.927522 1_455
