# generated using pymatgen
data_Nd3(Al3Os)4
_symmetry_space_group_name_H-M   'P 1'
_cell_length_a   8.86020727
_cell_length_b   8.86014879
_cell_length_c   9.65418650
_cell_angle_alpha   90.00000000
_cell_angle_beta   90.00000000
_cell_angle_gamma   119.99977570
_symmetry_Int_Tables_number   1
_chemical_formula_structural   Nd3(Al3Os)4
_chemical_formula_sum   'Nd6 Al24 Os8'
_cell_volume   656.34502000
_cell_formula_units_Z   2
loop_
 _symmetry_equiv_pos_site_id
 _symmetry_equiv_pos_as_xyz
  1  'x, y, z'
loop_
 _atom_site_type_symbol
 _atom_site_label
 _atom_site_symmetry_multiplicity
 _atom_site_fract_x
 _atom_site_fract_y
 _atom_site_fract_z
 _atom_site_occupancy
  Nd  Nd0  1  0.19275694  0.38550722  0.25000000  1
  Nd  Nd1  1  0.80724306  0.61449278  0.75000000  1
  Nd  Nd2  1  0.61449388  0.80725220  0.25000000  1
  Nd  Nd3  1  0.38550612  0.19274780  0.75000000  1
  Nd  Nd4  1  0.19275893  0.80725410  0.25000000  1
  Nd  Nd5  1  0.80724107  0.19274590  0.75000000  1
  Al  Al0  1  0.33333893  0.66666868  0.00458414  1
  Al  Al1  1  0.66666107  0.33333132  0.99541586  1
  Al  Al2  1  0.66666107  0.33333132  0.50458414  1
  Al  Al3  1  0.33333893  0.66666868  0.49541586  1
  Al  Al4  1  0.16315160  0.32629172  0.57372293  1
  Al  Al5  1  0.83684840  0.67370828  0.42627707  1
  Al  Al6  1  0.67370724  0.83685493  0.57372113  1
  Al  Al7  1  0.83684840  0.67370828  0.07372293  1
  Al  Al8  1  0.32629276  0.16314507  0.42627887  1
  Al  Al9  1  0.16315160  0.32629172  0.92627707  1
  Al  Al10  1  0.16314822  0.83685286  0.57372291  1
  Al  Al11  1  0.32629276  0.16314507  0.07372113  1
  Al  Al12  1  0.83685178  0.16314714  0.42627709  1
  Al  Al13  1  0.67370724  0.83685493  0.92627887  1
  Al  Al14  1  0.83685178  0.16314714  0.07372291  1
  Al  Al15  1  0.16314822  0.83685286  0.92627709  1
  Al  Al16  1  0.56222974  0.12446205  0.25000000  1
  Al  Al17  1  0.43777026  0.87553795  0.75000000  1
  Al  Al18  1  0.87552949  0.43776741  0.25000000  1
  Al  Al19  1  0.12447051  0.56223259  0.75000000  1
  Al  Al20  1  0.56222986  0.43777457  0.25000000  1
  Al  Al21  1  0.43777014  0.56222543  0.75000000  1
  Al  Al22  1  0.00000277  0.00000493  0.25000000  1
  Al  Al23  1  -0.00000277  -0.00000493  0.75000000  1
  Os  Os0  1  0.50000000  0.00000000  0.00000000  1
  Os  Os1  1  0.00000000  0.50000000  0.00000000  1
  Os  Os2  1  0.50000000  0.00000000  0.50000000  1
  Os  Os3  1  0.50000000  0.50000000  0.00000000  1
  Os  Os4  1  0.00000000  0.50000000  0.50000000  1
  Os  Os5  1  0.50000000  0.50000000  0.50000000  1
  Os  Os6  1  0.00000000  0.00000000  0.00000000  1
  Os  Os7  1  0.00000000  0.00000000  0.50000000  1
loop_
_geom_bond_atom_site_label_1
_geom_bond_atom_site_label_2
_geom_bond_distance
_geom_bond_site_symmetry_2
Nd0 Os3 3.391660 1_555
Nd0 Os5 3.391660 1_555
Nd0 Os4 3.391689 1_555
Nd0 Os1 3.391689 1_555
Nd1 Os5 3.391660 1_555
Nd1 Os3 3.391660 1_556
Nd1 Os1 3.391689 1_656
Nd1 Os4 3.391689 1_655
Nd2 Os0 3.391638 1_565
Nd2 Os2 3.391638 1_565
Nd2 Os5 3.391699 1_555
Nd2 Os3 3.391699 1_555
Nd3 Os2 3.391638 1_555
Nd3 Os0 3.391638 1_556
Nd3 Os5 3.391699 1_555
Nd3 Os3 3.391699 1_556
Nd4 Os0 3.391646 1_565
Nd4 Os2 3.391646 1_565
Nd4 Os4 3.391713 1_555
Nd4 Os1 3.391713 1_555
Nd5 Os0 3.391646 1_556
Nd5 Os2 3.391646 1_555
Nd5 Os1 3.391713 1_656
Nd5 Os4 3.391713 1_655
Al0 Os3 2.558066 1_555
Al0 Os0 2.558078 1_565
Al0 Os1 2.558153 1_555
Al0 Nd2 3.204327 1_555
Al0 Nd0 3.204351 1_555
Al0 Nd4 3.204371 1_555
Al1 Os3 2.558066 1_556
Al1 Os0 2.558078 1_556
Al1 Os1 2.558153 1_656
Al1 Nd3 3.204327 1_555
Al1 Nd1 3.204351 1_555
Al1 Nd5 3.204371 1_555
Al2 Os5 2.558066 1_555
Al2 Os2 2.558078 1_555
Al2 Os4 2.558153 1_655
Al2 Nd3 3.204327 1_555
Al2 Nd1 3.204351 1_555
Al2 Nd5 3.204371 1_555
Al3 Os5 2.558066 1_555
Al3 Os2 2.558078 1_565
Al3 Os4 2.558153 1_555
Al3 Nd2 3.204327 1_555
Al3 Nd0 3.204351 1_555
Al3 Nd4 3.204371 1_555
Al4 Os7 2.602878 1_555
Al4 Os5 2.681311 1_555
Al4 Os4 2.681378 1_555
Al4 Nd0 3.158138 1_555
Al4 Nd3 3.241689 1_555
Al4 Nd5 3.241784 1_455
Al5 Os7 2.602878 1_665
Al5 Os5 2.681311 1_555
Al5 Os4 2.681378 1_655
Al5 Nd1 3.158138 1_555
Al5 Nd2 3.241689 1_555
Al5 Nd4 3.241784 1_655
Al6 Os7 2.602897 1_665
Al6 Os2 2.681318 1_565
Al6 Os5 2.681338 1_555
Al6 Nd2 3.158119 1_555
Al6 Nd5 3.241651 1_565
Al6 Nd1 3.241698 1_555
Al7 Os6 2.602878 1_665
Al7 Os3 2.681311 1_555
Al7 Os1 2.681378 1_655
Al7 Nd1 3.158138 1_554
Al7 Nd2 3.241689 1_555
Al7 Nd4 3.241784 1_655
Al8 Os7 2.602897 1_555
Al8 Os2 2.681318 1_555
Al8 Os5 2.681338 1_555
Al8 Nd3 3.158119 1_555
Al8 Nd4 3.241651 1_545
Al8 Nd0 3.241698 1_555
Al9 Os6 2.602878 1_556
Al9 Os3 2.681311 1_556
Al9 Os1 2.681378 1_556
Al9 Nd0 3.158138 1_556
Al9 Nd3 3.241689 1_555
Al9 Nd5 3.241784 1_455
Al10 Os7 2.602905 1_565
Al10 Os4 2.681326 1_555
Al10 Os2 2.681335 1_565
Al10 Nd4 3.158131 1_555
Al10 Nd3 3.241672 1_565
Al10 Nd1 3.241747 1_455
Al11 Os6 2.602897 1_555
Al11 Os0 2.681318 1_555
Al11 Os3 2.681338 1_555
Al11 Nd3 3.158119 1_554
Al11 Nd4 3.241651 1_545
Al11 Nd0 3.241698 1_555
Al12 Os7 2.602905 1_655
Al12 Os4 2.681326 1_655
Al12 Os2 2.681335 1_555
Al12 Nd5 3.158131 1_555
Al12 Nd2 3.241672 1_545
Al12 Nd0 3.241747 1_655
Al13 Os6 2.602897 1_666
Al13 Os0 2.681318 1_566
Al13 Os3 2.681338 1_556
Al13 Nd2 3.158119 1_556
Al13 Nd5 3.241651 1_565
Al13 Nd1 3.241698 1_555
Al14 Os6 2.602905 1_655
Al14 Os1 2.681326 1_655
Al14 Os0 2.681335 1_555
Al14 Nd5 3.158131 1_554
Al14 Nd2 3.241672 1_545
Al14 Nd0 3.241747 1_655
Al15 Os6 2.602905 1_566
Al15 Os1 2.681326 1_556
Al15 Os0 2.681335 1_566
Al15 Nd4 3.158131 1_556
Al15 Nd3 3.241672 1_565
Al15 Nd1 3.241747 1_455
Al16 Os2 2.595623 1_555
Al16 Os0 2.595623 1_555
Al16 Nd4 3.068380 1_545
Al16 Nd2 3.068380 1_545
Al17 Os0 2.595623 1_566
Al17 Os2 2.595623 1_565
Al17 Nd5 3.068380 1_565
Al17 Nd3 3.068380 1_565
Al18 Os1 2.595649 1_655
Al18 Os4 2.595649 1_655
Al18 Nd0 3.068530 1_655
Al18 Nd4 3.068532 1_655
Al19 Os1 2.595649 1_556
Al19 Os4 2.595649 1_555
Al19 Nd1 3.068530 1_455
Al19 Nd5 3.068532 1_455
Al20 Os5 2.595604 1_555
Al20 Os3 2.595604 1_555
Al20 Nd0 3.068383 1_555
Al20 Nd2 3.068413 1_555
Al21 Os5 2.595604 1_555
Al21 Os3 2.595604 1_556
Al21 Nd1 3.068383 1_555
Al21 Nd3 3.068413 1_555
Al22 Os6 2.413547 1_555
Al22 Os7 2.413547 1_555
Al22 Nd0 2.958010 1_555
Al22 Nd4 2.958045 1_545
Al22 Nd2 2.958080 1_445
Al23 Os6 2.413547 1_556
Al23 Os7 2.413547 1_555
Al23 Nd1 2.958010 1_445
Al23 Nd5 2.958045 1_455
Al23 Nd3 2.958080 1_555
