# generated using pymatgen
data_Sr2CaWO6
_symmetry_space_group_name_H-M   'P 1'
_cell_length_a   5.83868000
_cell_length_b   6.10664400
_cell_length_c   8.36580900
_cell_angle_alpha   90.00000000
_cell_angle_beta   90.00000000
_cell_angle_gamma   90.00000000
_symmetry_Int_Tables_number   1
_chemical_formula_structural   Sr2CaWO6
_chemical_formula_sum   'Sr4 Ca2 W2 O12'
_cell_volume   298.28074637
_cell_formula_units_Z   2
loop_
 _symmetry_equiv_pos_site_id
 _symmetry_equiv_pos_as_xyz
  1  'x, y, z'
loop_
 _atom_site_type_symbol
 _atom_site_label
 _atom_site_symmetry_multiplicity
 _atom_site_fract_x
 _atom_site_fract_y
 _atom_site_fract_z
 _atom_site_occupancy
  Sr  Sr0  1  0.50000000  0.79573900  0.76762700  1
  Sr  Sr1  1  0.00000000  0.20426100  0.26762700  1
  Sr  Sr2  1  0.50000000  0.79573900  0.23237300  1
  Sr  Sr3  1  0.00000000  0.20426100  0.73237300  1
  Ca  Ca0  1  0.00000000  0.72460200  0.50000000  1
  Ca  Ca1  1  0.50000000  0.27539800  0.00000000  1
  W  W0  1  0.50000000  0.23496500  0.50000000  1
  W  W1  1  0.00000000  0.76503500  0.00000000  1
  O  O0  1  0.50000000  0.21795000  0.73262800  1
  O  O1  1  0.50000000  0.21795000  0.26737200  1
  O  O2  1  0.00000000  0.78205000  0.76737200  1
  O  O3  1  0.00000000  0.78205000  0.23262800  1
  O  O4  1  0.73298500  0.99803800  0.50000000  1
  O  O5  1  0.26701500  0.99803800  0.50000000  1
  O  O6  1  0.74460100  0.44483000  0.50000000  1
  O  O7  1  0.25539900  0.44483000  0.50000000  1
  O  O8  1  0.24460100  0.55517000  0.00000000  1
  O  O9  1  0.75539900  0.55517000  0.00000000  1
  O  O10  1  0.76701500  0.00196200  0.00000000  1
  O  O11  1  0.23298500  0.00196200  0.00000000  1
loop_
_geom_bond_atom_site_label_1
_geom_bond_atom_site_label_2
_geom_bond_distance
_geom_bond_site_symmetry_2
Ca0 O2 2.264127 1_555
Ca0 O3 2.264127 1_555
Ca0 O7 2.267712 1_555
Ca0 O6 2.267712 1_455
Ca0 O4 2.284443 1_455
Ca0 O5 2.284443 1_555
Ca1 O1 2.264127 1_555
Ca1 O0 2.264127 1_554
Ca1 O9 2.267712 1_555
Ca1 O8 2.267712 1_555
Ca1 O11 2.284443 1_555
Ca1 O10 2.284443 1_555
O0 W0 1.948893 1_555
O0 Sr0 2.594864 1_545
O0 Sr3 2.920537 1_655
O0 Sr3 2.920537 1_555
O1 W0 1.948893 1_555
O1 Sr2 2.594864 1_545
O1 Sr1 2.920537 1_655
O1 Sr1 2.920537 1_555
O2 W1 1.948893 1_556
O2 Sr3 2.594864 1_565
O2 Sr0 2.920537 1_555
O2 Sr0 2.920537 1_455
O3 W1 1.948893 1_555
O3 Sr1 2.594864 1_565
O3 Sr2 2.920537 1_455
O3 Sr2 2.920537 1_555
O4 W0 1.985900 1_565
O4 Sr3 2.792048 1_665
O4 Sr1 2.792048 1_665
O4 Sr0 2.896440 1_555
O4 Sr2 2.896440 1_555
O5 W0 1.985900 1_565
O5 Sr3 2.792048 1_565
O5 Sr1 2.792048 1_565
O5 Sr0 2.896440 1_555
O5 Sr2 2.896440 1_555
O6 W0 1.918861 1_555
O6 Sr3 2.856731 1_655
O6 Sr1 2.856731 1_655
O7 W0 1.918861 1_555
O7 Sr3 2.856731 1_555
O7 Sr1 2.856731 1_555
O8 W1 1.918861 1_555
O8 Sr2 2.856731 1_555
O8 Sr0 2.856731 1_554
O9 W1 1.918861 1_655
O9 Sr2 2.856731 1_555
O9 Sr0 2.856731 1_554
O10 W1 1.985900 1_645
O10 Sr2 2.792048 1_545
O10 Sr0 2.792048 1_544
O10 Sr1 2.896440 1_655
O10 Sr3 2.896440 1_654
O11 W1 1.985900 1_545
O11 Sr2 2.792048 1_545
O11 Sr0 2.792048 1_544
O11 Sr1 2.896440 1_555
O11 Sr3 2.896440 1_554
