# generated using pymatgen
data_Zr9BMo4
_symmetry_space_group_name_H-M   'P 1'
_cell_length_a   8.64167022
_cell_length_b   8.64167022
_cell_length_c   8.61280900
_cell_angle_alpha   90.00000000
_cell_angle_beta   90.00000000
_cell_angle_gamma   120.00000165
_symmetry_Int_Tables_number   1
_chemical_formula_structural   Zr9BMo4
_chemical_formula_sum   'Zr18 B2 Mo8'
_cell_volume   557.02003745
_cell_formula_units_Z   2
loop_
 _symmetry_equiv_pos_site_id
 _symmetry_equiv_pos_as_xyz
  1  'x, y, z'
loop_
 _atom_site_type_symbol
 _atom_site_label
 _atom_site_symmetry_multiplicity
 _atom_site_fract_x
 _atom_site_fract_y
 _atom_site_fract_z
 _atom_site_occupancy
  Zr  Zr0  1  0.20307800  0.79692200  0.44392600  1
  Zr  Zr1  1  0.20307800  0.40615600  0.44392600  1
  Zr  Zr2  1  0.59384400  0.79692200  0.44392600  1
  Zr  Zr3  1  0.79692200  0.20307800  0.55607400  1
  Zr  Zr4  1  0.79692200  0.59384400  0.55607400  1
  Zr  Zr5  1  0.40615600  0.20307800  0.55607400  1
  Zr  Zr6  1  0.79692200  0.20307800  0.94392600  1
  Zr  Zr7  1  0.79692200  0.59384400  0.94392600  1
  Zr  Zr8  1  0.40615600  0.20307800  0.94392600  1
  Zr  Zr9  1  0.20307800  0.79692200  0.05607400  1
  Zr  Zr10  1  0.20307800  0.40615600  0.05607400  1
  Zr  Zr11  1  0.59384400  0.79692200  0.05607400  1
  Zr  Zr12  1  0.53845400  0.46154600  0.25000000  1
  Zr  Zr13  1  0.53845400  0.07690800  0.25000000  1
  Zr  Zr14  1  0.92309200  0.46154600  0.25000000  1
  Zr  Zr15  1  0.46154600  0.53845400  0.75000000  1
  Zr  Zr16  1  0.46154600  0.92309200  0.75000000  1
  Zr  Zr17  1  0.07690800  0.53845400  0.75000000  1
  B  B0  1  0.33333300  0.66666700  0.25000000  1
  B  B1  1  0.66666700  0.33333300  0.75000000  1
  Mo  Mo0  1  0.88988700  0.11011300  0.25000000  1
  Mo  Mo1  1  0.88988700  0.77977300  0.25000000  1
  Mo  Mo2  1  0.22022700  0.11011300  0.25000000  1
  Mo  Mo3  1  0.11011300  0.88988700  0.75000000  1
  Mo  Mo4  1  0.11011300  0.22022700  0.75000000  1
  Mo  Mo5  1  0.77977300  0.88988700  0.75000000  1
  Mo  Mo6  1  0.00000000  0.00000000  0.50000000  1
  Mo  Mo7  1  0.00000000  0.00000000  0.00000000  1
loop_
_geom_bond_atom_site_label_1
_geom_bond_atom_site_label_2
_geom_bond_distance
_geom_bond_site_symmetry_2
B0 Zr9 2.567254 1_555
B0 Zr0 2.567254 1_555
B0 Zr11 2.567260 1_555
B0 Zr2 2.567260 1_555
B0 Zr1 2.567260 1_555
B0 Zr10 2.567260 1_555
B0 Zr13 3.070205 1_565
B0 Zr14 3.070205 1_455
B0 Zr12 3.070213 1_555
B1 Zr6 2.567254 1_555
B1 Zr3 2.567254 1_555
B1 Zr7 2.567260 1_555
B1 Zr4 2.567260 1_555
B1 Zr8 2.567260 1_555
B1 Zr5 2.567260 1_555
B1 Zr17 3.070205 1_655
B1 Zr16 3.070205 1_545
B1 Zr15 3.070213 1_555
Mo0 Mo7 2.711583 1_655
Mo0 Mo6 2.711583 1_655
Mo0 Mo2 2.854689 1_655
Mo0 Mo1 2.854689 1_545
Mo0 Zr13 2.904146 1_555
Mo0 Zr14 2.904146 1_555
Mo0 Zr3 2.980863 1_555
Mo0 Zr6 2.980863 1_554
Mo0 Zr10 3.120212 1_655
Mo0 Zr1 3.120212 1_655
Mo0 Zr11 3.120212 1_545
Mo0 Zr2 3.120212 1_545
Mo1 Mo7 2.711587 1_665
Mo1 Mo6 2.711587 1_665
Mo1 Mo2 2.854689 1_665
Mo1 Zr14 2.904138 1_555
Mo1 Zr12 2.904143 1_555
Mo1 Zr4 2.980860 1_555
Mo1 Zr7 2.980860 1_554
Mo1 Zr0 3.120209 1_655
Mo1 Zr9 3.120209 1_655
Mo1 Zr11 3.120216 1_555
Mo1 Zr2 3.120216 1_555
Mo2 Mo6 2.711587 1_555
Mo2 Mo7 2.711587 1_555
Mo2 Zr13 2.904138 1_555
Mo2 Zr12 2.904143 1_555
Mo2 Zr5 2.980860 1_555
Mo2 Zr8 2.980860 1_554
Mo2 Zr9 3.120209 1_545
Mo2 Zr0 3.120209 1_545
Mo2 Zr10 3.120216 1_555
Mo2 Zr1 3.120216 1_555
Mo3 Mo6 2.711583 1_565
Mo3 Mo7 2.711583 1_566
Mo3 Mo4 2.854689 1_565
Mo3 Mo5 2.854689 1_455
Mo3 Zr17 2.904146 1_555
Mo3 Zr16 2.904146 1_555
Mo3 Zr9 2.980863 1_556
Mo3 Zr0 2.980863 1_555
Mo3 Zr8 3.120212 1_565
Mo3 Zr7 3.120212 1_455
Mo3 Zr5 3.120212 1_565
Mo3 Zr4 3.120212 1_455
Mo4 Mo6 2.711587 1_555
Mo4 Mo7 2.711587 1_556
Mo4 Mo5 2.854689 1_445
Mo4 Zr17 2.904138 1_555
Mo4 Zr15 2.904143 1_555
Mo4 Zr10 2.980860 1_556
Mo4 Zr1 2.980860 1_555
Mo4 Zr6 3.120209 1_455
Mo4 Zr3 3.120209 1_455
Mo4 Zr8 3.120216 1_555
Mo4 Zr5 3.120216 1_555
Mo5 Mo7 2.711587 1_666
Mo5 Mo6 2.711587 1_665
Mo5 Zr16 2.904138 1_555
Mo5 Zr15 2.904143 1_555
Mo5 Zr11 2.980860 1_556
Mo5 Zr2 2.980860 1_555
Mo5 Zr6 3.120209 1_565
Mo5 Zr3 3.120209 1_565
Mo5 Zr7 3.120216 1_555
Mo5 Zr4 3.120216 1_555
Mo6 Zr5 3.077761 1_555
Mo6 Zr1 3.077761 1_555
Mo6 Zr4 3.077761 1_445
Mo6 Zr2 3.077761 1_445
Mo6 Zr0 3.077762 1_545
Mo6 Zr3 3.077762 1_455
Mo7 Zr10 3.077761 1_555
Mo7 Zr8 3.077761 1_554
Mo7 Zr11 3.077761 1_445
Mo7 Zr7 3.077761 1_444
Mo7 Zr9 3.077762 1_545
Mo7 Zr6 3.077762 1_454
