# generated using pymatgen
data_Li2Ni2BiO6
_symmetry_space_group_name_H-M   'P 1'
_cell_length_a   5.31231912
_cell_length_b   5.31326073
_cell_length_c   10.17680555
_cell_angle_alpha   90.06368940
_cell_angle_beta   90.06070790
_cell_angle_gamma   119.23947717
_symmetry_Int_Tables_number   1
_chemical_formula_structural   Li2Ni2BiO6
_chemical_formula_sum   'Li4 Ni4 Bi2 O12'
_cell_volume   250.64778294
_cell_formula_units_Z   2
loop_
 _symmetry_equiv_pos_site_id
 _symmetry_equiv_pos_as_xyz
  1  'x, y, z'
loop_
 _atom_site_type_symbol
 _atom_site_label
 _atom_site_symmetry_multiplicity
 _atom_site_fract_x
 _atom_site_fract_y
 _atom_site_fract_z
 _atom_site_occupancy
  Li  Li0  1  0.64800400  0.14992100  0.74992300  1
  Li  Li1  1  0.85009700  0.35195100  0.25007500  1
  Li  Li2  1  0.14996900  0.64798300  0.74999200  1
  Li  Li3  1  0.35193500  0.84998500  0.25000800  1
  Ni  Ni0  1  0.83930600  0.16013200  0.50003100  1
  Ni  Ni1  1  0.33131900  0.66869700  0.99999400  1
  Ni  Ni2  1  0.66046000  0.33958700  0.99998700  1
  Ni  Ni3  1  0.16869800  0.83139500  0.50006300  1
  Bi  Bi0  1  0.99208400  0.00804800  0.99998200  1
  Bi  Bi1  1  0.50793100  0.49197600  0.49997100  1
  O  O0  1  0.16628600  0.13546300  0.60092300  1
  O  O1  1  0.33479200  0.36570500  0.10084500  1
  O  O2  1  0.63442900  0.66530400  0.89910300  1
  O  O3  1  0.86464700  0.83372600  0.39913700  1
  O  O4  1  0.32967100  0.96940700  0.89311500  1
  O  O5  1  0.52127400  0.16319000  0.38427700  1
  O  O6  1  0.83677100  0.47867700  0.61572500  1
  O  O7  1  0.03059200  0.67035900  0.10684000  1
  O  O8  1  0.66397600  0.02204900  0.11569500  1
  O  O9  1  0.97800600  0.33601500  0.88425000  1
  O  O10  1  0.16969000  0.53007600  0.39316100  1
  O  O11  1  0.47006100  0.83035500  0.60690200  1
loop_
_geom_bond_atom_site_label_1
_geom_bond_atom_site_label_2
_geom_bond_distance
_geom_bond_site_symmetry_2
Li0 O9 2.053829 1_555
Li0 O6 2.054003 1_555
Li0 O11 2.078130 1_545
Li0 O4 2.080151 1_545
Li1 O8 2.054023 1_555
Li1 O5 2.054043 1_555
Li1 O10 2.078589 1_655
Li1 O7 2.080879 1_655
Li2 O6 1.993699 1_455
Li2 O9 1.994311 1_455
Li2 O4 2.085245 1_555
Li2 O11 2.085577 1_555
Li3 O5 1.993890 1_565
Li3 O8 1.994763 1_565
Li3 O7 2.085143 1_555
Li3 O10 2.085600 1_555
Ni0 O5 2.065181 1_555
Ni0 O6 2.066134 1_555
Ni0 O3 2.074738 1_545
Ni0 O0 2.075476 1_655
Ni0 O11 2.179862 1_545
Ni0 O10 2.182989 1_655
Ni1 O1 1.917828 1_556
Ni1 O2 1.918113 1_555
Ni1 O7 1.937019 1_556
Ni1 O4 1.937383 1_555
Ni1 O8 2.187150 1_566
Ni1 O9 2.187311 1_455
Ni2 O8 2.066063 1_556
Ni2 O9 2.066093 1_555
Ni2 O1 2.074572 1_556
Ni2 O2 2.075012 1_555
Ni2 O7 2.180070 1_656
Ni2 O4 2.180386 1_545
Ni3 O3 1.918352 1_455
Ni3 O0 1.918445 1_565
Ni3 O11 1.936536 1_555
Ni3 O10 1.936786 1_555
Ni3 O6 2.188128 1_455
Ni3 O5 2.188152 1_565
Bi0 O9 2.135654 1_555
Bi0 O8 2.135691 1_556
Bi0 O1 2.142712 1_656
Bi0 O2 2.142842 1_545
Bi0 O4 2.191908 1_645
Bi0 O7 2.192291 1_646
Bi1 O5 2.135323 1_555
Bi1 O6 2.135597 1_555
Bi1 O0 2.141802 1_555
Bi1 O3 2.141938 1_555
Bi1 O10 2.191544 1_555
Bi1 O11 2.192391 1_555
