# generated using pymatgen
data_Ba4Yb8Mg(CoO5)4
_symmetry_space_group_name_H-M   'P 1'
_cell_length_a   5.76543785
_cell_length_b   7.06068510
_cell_length_c   12.63607480
_cell_angle_alpha   90.57798143
_cell_angle_beta   83.74075934
_cell_angle_gamma   91.02581141
_symmetry_Int_Tables_number   1
_chemical_formula_structural   Ba4Yb8Mg(CoO5)4
_chemical_formula_sum   'Ba4 Yb8 Mg1 Co4 O20'
_cell_volume   511.22312220
_cell_formula_units_Z   1
loop_
 _symmetry_equiv_pos_site_id
 _symmetry_equiv_pos_as_xyz
  1  'x, y, z'
loop_
 _atom_site_type_symbol
 _atom_site_label
 _atom_site_symmetry_multiplicity
 _atom_site_fract_x
 _atom_site_fract_y
 _atom_site_fract_z
 _atom_site_occupancy
  Ba  Ba0  1  0.14024465  0.96853556  0.85306024  1
  Ba  Ba1  1  0.82165401  0.07403495  0.11503517  1
  Ba  Ba2  1  0.72789803  0.42815768  0.60469605  1
  Ba  Ba3  1  0.26454218  0.56690547  0.40307749  1
  Yb  Yb0  1  0.23316680  0.10999132  0.56997937  1
  Yb  Yb1  1  0.75529049  0.89682045  0.42898186  1
  Yb  Yb2  1  0.81860698  0.58066274  0.94127937  1
  Yb  Yb3  1  0.28384104  0.39463650  0.06905776  1
  Yb  Yb4  1  0.22082135  0.40038160  0.79238594  1
  Yb  Yb5  1  0.79988858  0.61263373  0.21047530  1
  Yb  Yb6  1  0.69363155  0.88291917  0.69788208  1
  Yb  Yb7  1  0.28735555  0.12633993  0.30111775  1
  Mg  Mg0  1  0.41976255  0.82885893  0.99810583  1
  Co  Co0  1  0.20838134  0.69658294  0.64673679  1
  Co  Co1  1  0.77897991  0.30842809  0.35132243  1
  Co  Co2  1  0.67972099  0.20020925  0.83837967  1
  Co  Co3  1  0.30366957  0.80316114  0.18644392  1
  O  O0  1  0.22776481  0.44787706  0.60058771  1
  O  O1  1  0.76809479  0.55411328  0.40136170  1
  O  O2  1  0.66303854  0.94088190  0.89716947  1
  O  O3  1  0.33764625  0.04180321  0.10333745  1
  O  O4  1  0.03731100  0.84804406  0.27333385  1
  O  O5  1  0.45504508  0.15420170  0.72444149  1
  O  O6  1  0.03402813  0.34589959  0.23774290  1
  O  O7  1  0.40330333  0.68113420  0.75308569  1
  O  O8  1  0.93072967  0.17121555  0.73027585  1
  O  O9  1  0.52441786  0.84179124  0.28335744  1
  O  O10  1  0.95863327  0.65745426  0.75934368  1
  O  O11  1  0.57954326  0.33492838  0.24494186  1
  O  O12  1  0.55356028  0.65165748  0.08709619  1
  O  O13  1  0.00143670  0.30631845  0.95378896  1
  O  O14  1  0.53260941  0.18426976  0.43559628  1
  O  O15  1  -0.00009629  0.82084586  0.56526311  1
  O  O16  1  0.98722491  0.18833656  0.43497050  1
  O  O17  1  0.45269026  0.82257504  0.56205772  1
  O  O18  1  0.10131090  0.69978739  0.04564116  1
  O  O19  1  0.51425223  0.38130859  0.90970097  1
loop_
_geom_bond_atom_site_label_1
_geom_bond_atom_site_label_2
_geom_bond_distance
_geom_bond_site_symmetry_2
Ba0 O8 2.535668 1_465
Ba0 O5 2.639812 1_565
Ba0 O10 2.731051 1_455
Ba0 O2 2.750822 1_455
Ba0 O7 2.766707 1_555
Ba0 O13 2.780940 1_565
Ba0 O18 3.087334 1_556
Ba1 O13 2.731623 1_654
Ba1 O11 2.750951 1_555
Ba1 O6 2.803189 1_655
Ba1 O3 2.815519 1_555
Ba1 O4 2.961567 1_645
Ba1 O3 2.975143 1_655
Ba1 O9 3.053604 1_545
Ba1 O2 3.124894 1_544
Ba1 O18 3.185683 1_645
Ba2 O1 2.712020 1_555
Ba2 O8 2.777684 1_555
Ba2 O5 2.817241 1_555
Ba2 O0 2.877651 1_655
Ba2 O0 2.895469 1_555
Ba2 O10 2.938599 1_555
Ba2 O16 3.003408 1_555
Ba2 O14 3.029805 1_555
Ba2 O7 3.081482 1_555
Ba2 O15 3.177578 1_655
Ba2 O17 3.307296 1_555
Ba3 O0 2.626899 1_555
Ba3 O9 2.785915 1_555
Ba3 O1 2.864483 1_455
Ba3 O1 2.903934 1_555
Ba3 O17 2.966980 1_555
Ba3 O4 2.995261 1_555
Ba3 O6 3.005225 1_555
Ba3 O15 3.014091 1_555
Ba3 O11 3.036952 1_555
Ba3 O16 3.097039 1_455
Ba3 O14 3.188558 1_555
Mg0 O12 1.917560 1_556
Mg0 O2 1.951967 1_555
Mg0 O3 2.025036 1_566
Mg0 O18 2.067105 1_556
Co0 O0 1.846174 1_555
Co0 O7 1.848618 1_555
Co0 O17 1.888385 1_555
Co0 O15 1.897423 1_555
Co0 O10 1.929056 1_455
Co1 O1 1.840126 1_555
Co1 O11 1.874545 1_555
Co1 O14 1.888000 1_555
Co1 O16 1.899723 1_555
Co1 O6 1.955917 1_655
Co2 O19 1.786143 1_555
Co2 O8 1.891059 1_555
Co2 O2 1.979731 1_545
Co2 O5 2.058751 1_555
Co2 O13 2.578067 1_655
Co3 O4 1.818504 1_555
Co3 O9 1.874709 1_555
Co3 O3 1.989808 1_565
Co3 O12 2.104674 1_555
Co3 O18 2.335673 1_555
O0 Yb0 2.413207 1_555
O0 Yb4 2.445925 1_555
O1 Yb5 2.437893 1_555
O1 Yb1 2.442576 1_555
O2 Yb6 2.534744 1_555
O2 Yb2 2.793435 1_555
O3 Yb7 2.550347 1_555
O3 Yb3 2.562987 1_555
O4 Yb5 2.323009 1_455
O4 Yb1 2.437145 1_455
O4 Yb7 2.461219 1_565
O5 Yb4 2.320164 1_555
O5 Yb6 2.377899 1_545
O5 Yb0 2.461952 1_555
O6 Yb7 2.353485 1_555
O6 Yb5 2.386096 1_455
O6 Yb3 2.462483 1_555
O7 Yb6 2.235702 1_555
O7 Yb4 2.261481 1_555
O8 Yb6 2.487023 1_545
O8 Yb4 2.488992 1_655
O8 Yb0 2.563047 1_655
O9 Yb5 2.394057 1_555
O9 Yb1 2.410382 1_555
O9 Yb7 2.444847 1_565
O10 Yb2 2.415718 1_555
O10 Yb6 2.417131 1_555
O10 Yb4 2.450536 1_655
O11 Yb7 2.276467 1_555
O11 Yb5 2.335734 1_555
O11 Yb3 2.982371 1_555
O12 Yb5 2.242522 1_555
O12 Yb2 2.318669 1_554
O12 Yb3 2.394020 1_555
O13 Yb2 2.236943 1_455
O13 Yb3 2.371458 1_556
O13 Yb4 2.373867 1_555
O14 Yb0 2.342079 1_555
O14 Yb7 2.354452 1_555
O14 Yb1 2.416811 1_545
O15 Yb6 2.342224 1_455
O15 Yb1 2.411950 1_455
O15 Yb0 2.428356 1_565
O16 Yb7 2.328216 1_655
O16 Yb0 2.408650 1_655
O16 Yb1 2.439431 1_545
O17 Yb1 2.343392 1_555
O17 Yb6 2.353889 1_555
O17 Yb0 2.406328 1_565
O18 Yb2 2.345276 1_454
O18 Yb3 2.449319 1_555
O18 Yb5 2.633498 1_455
O19 Yb3 2.290346 1_556
O19 Yb2 2.296195 1_555
O19 Yb4 2.374180 1_555
