# generated using pymatgen
data_S
_symmetry_space_group_name_H-M   'P 1'
_cell_length_a   5.15709972
_cell_length_b   5.15710099
_cell_length_c   5.15710089
_cell_angle_alpha   90.06743750
_cell_angle_beta   90.06744194
_cell_angle_gamma   90.06744284
_symmetry_Int_Tables_number   1
_chemical_formula_structural   S
_chemical_formula_sum   S8
_cell_volume   137.15634103
_cell_formula_units_Z   8
loop_
 _symmetry_equiv_pos_site_id
 _symmetry_equiv_pos_as_xyz
  1  'x, y, z'
loop_
 _atom_site_type_symbol
 _atom_site_label
 _atom_site_symmetry_multiplicity
 _atom_site_fract_x
 _atom_site_fract_y
 _atom_site_fract_z
 _atom_site_occupancy
  S  S0_0  1  0.00000000  0.00000000  0.00000000  1
  S  S0_1  1  0.00000000  0.00000000  0.50000000  1
  S  S0_2  1  0.00000000  0.50000000  0.00000000  1
  S  S0_3  1  0.00000000  0.50000000  0.50000000  1
  S  S0_4  1  0.50000000  0.00000000  0.00000000  1
  S  S0_5  1  0.50000000  0.00000000  0.50000000  1
  S  S0_6  1  0.50000000  0.50000000  0.00000000  1
  S  S0_7  1  0.50000000  0.50000000  0.50000000  1
loop_
_geom_bond_atom_site_label_1
_geom_bond_atom_site_label_2
_geom_bond_distance
_geom_bond_site_symmetry_2
S0_0 S0_4 2.578550 1_555
S0_0 S0_4 2.578550 1_455
S0_0 S0_1 2.578550 1_554
S0_0 S0_1 2.578550 1_555
S0_0 S0_2 2.578550 1_545
S0_0 S0_2 2.578550 1_555
S0_1 S0_5 2.578550 1_455
S0_1 S0_5 2.578550 1_555
S0_1 S0_3 2.578550 1_545
S0_1 S0_3 2.578550 1_555
S0_2 S0_6 2.578550 1_555
S0_2 S0_6 2.578550 1_455
S0_2 S0_3 2.578550 1_555
S0_2 S0_3 2.578550 1_554
S0_3 S0_7 2.578550 1_455
S0_3 S0_7 2.578550 1_555
S0_4 S0_5 2.578550 1_555
S0_4 S0_5 2.578550 1_554
S0_4 S0_6 2.578550 1_545
S0_4 S0_6 2.578550 1_555
S0_5 S0_7 2.578550 1_545
S0_5 S0_7 2.578550 1_555
S0_6 S0_7 2.578550 1_555
S0_6 S0_7 2.578550 1_554
