# generated using pymatgen
data_Ba3Er4O9
_symmetry_space_group_name_H-M   'P 1'
_cell_length_a   9.08031180
_cell_length_b   9.08031154
_cell_length_c   9.08031113
_cell_angle_alpha   38.92124730
_cell_angle_beta   38.92124063
_cell_angle_gamma   38.92124136
_symmetry_Int_Tables_number   1
_chemical_formula_structural   Ba3Er4O9
_chemical_formula_sum   'Ba3 Er4 O9'
_cell_volume   265.71574722
_cell_formula_units_Z   1
loop_
 _symmetry_equiv_pos_site_id
 _symmetry_equiv_pos_as_xyz
  1  'x, y, z'
loop_
 _atom_site_type_symbol
 _atom_site_label
 _atom_site_symmetry_multiplicity
 _atom_site_fract_x
 _atom_site_fract_y
 _atom_site_fract_z
 _atom_site_occupancy
  Ba  Ba0  1  0.00082370  0.00082370  0.00082370  1
  Ba  Ba1  1  0.16452218  0.16452218  0.16452218  1
  Ba  Ba2  1  0.57928927  0.57928927  0.57928927  1
  Er  Er0  1  0.42581167  0.42581167  0.42581167  1
  Er  Er1  1  0.86510338  0.86510338  0.86510338  1
  Er  Er2  1  0.73981141  0.73981141  0.73981141  1
  Er  Er3  1  0.30099376  0.30099376  0.30099376  1
  O  O0  1  0.46814970  0.57284907  0.04099395  1
  O  O1  1  0.57284907  0.04099395  0.46814970  1
  O  O2  1  0.04099395  0.46814970  0.57284907  1
  O  O3  1  0.60220120  0.68892000  0.12819922  1
  O  O4  1  0.68892000  0.12819922  0.60220120  1
  O  O5  1  0.12819922  0.60220120  0.68892000  1
  O  O6  1  0.03183721  0.58182216  0.13487213  1
  O  O7  1  0.13487213  0.03183721  0.58182216  1
  O  O8  1  0.58182216  0.13487213  0.03183721  1
loop_
_geom_bond_atom_site_label_1
_geom_bond_atom_site_label_2
_geom_bond_distance
_geom_bond_site_symmetry_2
Ba0 O7 2.774265 1_554
Ba0 O8 2.774265 1_455
Ba0 O6 2.774265 1_545
Ba0 O1 2.790174 1_455
Ba0 O0 2.790174 1_545
Ba0 O2 2.790175 1_554
Ba1 O7 2.774131 1_555
Ba1 O6 2.774131 1_555
Ba1 O8 2.774131 1_555
Ba1 O3 2.832710 1_545
Ba1 O4 2.832710 1_455
Ba1 O5 2.832711 1_554
Ba1 O4 3.346455 1_554
Ba1 O3 3.346455 1_455
Ba1 O5 3.346456 1_545
Ba2 O6 2.714964 1_655
Ba2 O7 2.714964 1_565
Ba2 O8 2.714964 1_556
Ba2 O3 3.234709 1_555
Ba2 O4 3.234709 1_555
Ba2 O5 3.234710 1_555
Ba2 O6 3.338087 1_556
Ba2 O7 3.338088 1_655
Ba2 O8 3.338088 1_565
Ba2 O0 3.424211 1_556
Ba2 O1 3.424211 1_565
Ba2 O2 3.424211 1_655
Er0 O5 2.179258 1_555
Er0 O4 2.179258 1_555
Er0 O3 2.179258 1_555
Er0 O0 2.364176 1_555
Er0 O1 2.364176 1_555
Er0 O2 2.364176 1_555
Er1 O8 2.194472 1_566
Er1 O6 2.194472 1_656
Er1 O7 2.194472 1_665
Er1 O5 2.255446 1_655
Er1 O4 2.255446 1_565
Er1 O3 2.255446 1_556
Er2 O2 2.175578 1_655
Er2 O1 2.175579 1_565
Er2 O0 2.175579 1_556
Er2 O3 2.391240 1_556
Er2 O5 2.391240 1_655
Er2 O4 2.391240 1_565
Er3 O8 2.191998 1_555
Er3 O6 2.191999 1_555
Er3 O7 2.191999 1_555
Er3 O2 2.270927 1_555
Er3 O1 2.270927 1_555
Er3 O0 2.270927 1_555
