# generated using pymatgen
data_Nd2(WO4)3
_symmetry_space_group_name_H-M   'P 1'
_cell_length_a   7.10546041
_cell_length_b   7.10546041
_cell_length_c   11.70481039
_cell_angle_alpha   79.23239655
_cell_angle_beta   79.23239655
_cell_angle_gamma   111.92586864
_symmetry_Int_Tables_number   1
_chemical_formula_structural   Nd2(WO4)3
_chemical_formula_sum   'Nd4 W6 O24'
_cell_volume   516.76414644
_cell_formula_units_Z   2
loop_
 _symmetry_equiv_pos_site_id
 _symmetry_equiv_pos_as_xyz
  1  'x, y, z'
loop_
 _atom_site_type_symbol
 _atom_site_label
 _atom_site_symmetry_multiplicity
 _atom_site_fract_x
 _atom_site_fract_y
 _atom_site_fract_z
 _atom_site_occupancy
  Nd  Nd0  1  0.54052100  0.78714100  0.40580800  1
  Nd  Nd1  1  0.21285900  0.45947900  0.09419200  1
  Nd  Nd2  1  0.45947900  0.21285900  0.59419200  1
  Nd  Nd3  1  0.78714100  0.54052100  0.90580800  1
  W  W0  1  0.96054700  0.75240800  0.54703200  1
  W  W1  1  0.24759200  0.03945300  0.95296800  1
  W  W2  1  0.75240800  0.96054700  0.04703200  1
  W  W3  1  0.03945300  0.24759200  0.45296800  1
  W  W4  1  0.36586400  0.63413600  0.75000000  1
  W  W5  1  0.63413600  0.36586400  0.25000000  1
  O  O0  1  0.89717700  0.97219200  0.42797300  1
  O  O1  1  0.02780800  0.10282300  0.07202700  1
  O  O2  1  0.10282300  0.02780800  0.57202700  1
  O  O3  1  0.97219200  0.89717700  0.92797300  1
  O  O4  1  0.16168100  0.73125500  0.44043300  1
  O  O5  1  0.26874500  0.83831900  0.05956700  1
  O  O6  1  0.83831900  0.26874500  0.55956700  1
  O  O7  1  0.73125500  0.16168100  0.94043300  1
  O  O8  1  0.04370700  0.39013200  0.30436000  1
  O  O9  1  0.60986800  0.95629300  0.19564000  1
  O  O10  1  0.41922400  0.83892800  0.60965000  1
  O  O11  1  0.16107200  0.58077600  0.89035000  1
  O  O12  1  0.58077600  0.16107200  0.39035000  1
  O  O13  1  0.83892800  0.41922400  0.10965000  1
  O  O14  1  0.68877900  0.58605900  0.53912200  1
  O  O15  1  0.41394100  0.31122100  0.96087800  1
  O  O16  1  0.31122100  0.41394100  0.46087800  1
  O  O17  1  0.58605900  0.68877900  0.03912200  1
  O  O18  1  0.29410000  0.38320100  0.71773000  1
  O  O19  1  0.61679900  0.70590000  0.78227000  1
  O  O20  1  0.70590000  0.61679900  0.28227000  1
  O  O21  1  0.38320100  0.29410000  0.21773000  1
  O  O22  1  0.39013200  0.04370700  0.80436000  1
  O  O23  1  0.95629300  0.60986800  0.69564000  1
loop_
_geom_bond_atom_site_label_1
_geom_bond_atom_site_label_2
_geom_bond_distance
_geom_bond_site_symmetry_2
Nd0 O9 2.395598 1_555
Nd0 O16 2.417478 1_555
Nd0 O20 2.453147 1_555
Nd0 O0 2.470429 1_555
Nd0 O4 2.510349 1_555
Nd0 O10 2.523376 1_555
Nd0 O12 2.531289 1_565
Nd0 O14 2.547795 1_555
Nd1 O8 2.395598 1_555
Nd1 O17 2.417478 1_555
Nd1 O21 2.453147 1_555
Nd1 O1 2.470429 1_555
Nd1 O5 2.510349 1_555
Nd1 O11 2.523376 1_554
Nd1 O13 2.531289 1_455
Nd1 O15 2.547795 1_554
Nd2 O22 2.395598 1_555
Nd2 O14 2.417478 1_555
Nd2 O18 2.453147 1_555
Nd2 O2 2.470429 1_555
Nd2 O6 2.510349 1_555
Nd2 O12 2.523376 1_555
Nd2 O10 2.531289 1_545
Nd2 O16 2.547795 1_555
Nd3 O23 2.395598 1_555
Nd3 O15 2.417478 1_555
Nd3 O19 2.453147 1_555
Nd3 O3 2.470429 1_555
Nd3 O7 2.510349 1_555
Nd3 O13 2.523376 1_556
Nd3 O11 2.531289 1_655
Nd3 O17 2.547795 1_556
O0 W3 1.945217 1_665
O0 W0 2.128379 1_555
O1 W2 1.945217 1_445
O1 W1 2.128379 1_554
O2 W0 1.945217 1_445
O2 W3 2.128379 1_555
O3 W1 1.945217 1_665
O3 W2 2.128379 1_556
O4 W0 1.784957 1_455
O5 W1 1.784957 1_564
O6 W3 1.784957 1_655
O7 W2 1.784957 1_546
O8 W3 1.830721 1_555
O9 W2 1.830721 1_555
O10 W4 1.849845 1_555
O11 W4 1.849845 1_555
O12 W5 1.849845 1_555
O13 W5 1.849845 1_555
O14 W0 1.880875 1_555
O15 W1 1.880875 1_555
O16 W3 1.880875 1_555
O17 W2 1.880875 1_555
O18 W4 1.796224 1_555
O19 W4 1.796224 1_555
O20 W5 1.796224 1_555
O21 W5 1.796224 1_555
O22 W1 1.830721 1_555
O23 W0 1.830721 1_555
