# generated using pymatgen
data_Cr4InCuS8
_symmetry_space_group_name_H-M   'P 1'
_cell_length_a   7.23193573
_cell_length_b   7.23193573
_cell_length_c   7.23193615
_cell_angle_alpha   58.98759711
_cell_angle_beta   58.98759711
_cell_angle_gamma   58.98759269
_symmetry_Int_Tables_number   1
_chemical_formula_structural   Cr4InCuS8
_chemical_formula_sum   'Cr4 In1 Cu1 S8'
_cell_volume   261.27688716
_cell_formula_units_Z   1
loop_
 _symmetry_equiv_pos_site_id
 _symmetry_equiv_pos_as_xyz
  1  'x, y, z'
loop_
 _atom_site_type_symbol
 _atom_site_label
 _atom_site_symmetry_multiplicity
 _atom_site_fract_x
 _atom_site_fract_y
 _atom_site_fract_z
 _atom_site_occupancy
  Cr  Cr0  1  0.37273800  0.37273800  0.37273800  1
  Cr  Cr1  1  0.50917100  0.99673800  0.99673800  1
  Cr  Cr2  1  0.99673800  0.99673800  0.50917100  1
  Cr  Cr3  1  0.99673800  0.50917100  0.99673800  1
  In  In0  1  0.99718000  0.99718000  0.99718000  1
  Cu  Cu0  1  0.62594700  0.62594700  0.62594700  1
  S  S0  1  0.23248200  0.74505800  0.74505800  1
  S  S1  1  0.74505800  0.74505800  0.23248200  1
  S  S2  1  0.74505800  0.23248200  0.74505800  1
  S  S3  1  0.75888600  0.75888600  0.75888600  1
  S  S4  1  0.76925700  0.25502100  0.25502100  1
  S  S5  1  0.25502100  0.25502100  0.76925700  1
  S  S6  1  0.25502100  0.76925700  0.25502100  1
  S  S7  1  0.24070600  0.24070600  0.24070600  1
loop_
_geom_bond_atom_site_label_1
_geom_bond_atom_site_label_2
_geom_bond_distance
_geom_bond_site_symmetry_2
Cr0 S4 2.321267 1_555
Cr0 S6 2.321267 1_555
Cr0 S5 2.321268 1_555
Cr0 S7 2.356624 1_555
Cr1 S1 2.393636 1_556
Cr1 S2 2.393636 1_565
Cr1 S3 2.413707 1_555
Cr1 S5 2.446489 1_565
Cr1 S6 2.446489 1_556
Cr1 S7 2.478610 1_566
Cr2 S0 2.393636 1_655
Cr2 S2 2.393636 1_565
Cr2 S3 2.413707 1_555
Cr2 S4 2.446489 1_565
Cr2 S6 2.446489 1_655
Cr2 S7 2.478610 1_665
Cr3 S1 2.393636 1_556
Cr3 S0 2.393636 1_655
Cr3 S3 2.413707 1_555
Cr3 S5 2.446489 1_655
Cr3 S4 2.446489 1_556
Cr3 S7 2.478610 1_656
In0 S2 2.564400 1_565
In0 S0 2.564400 1_655
In0 S1 2.564400 1_556
In0 S4 2.630523 1_566
In0 S6 2.630523 1_656
In0 S5 2.630523 1_665
Cu0 S2 2.300882 1_555
Cu0 S0 2.300882 1_555
Cu0 S1 2.300882 1_555
Cu0 S3 2.372813 1_555
