# generated using pymatgen
data_Na2CeO3
_symmetry_space_group_name_H-M   'P 1'
_cell_length_a   6.05012612
_cell_length_b   6.05012556
_cell_length_c   33.67972471
_cell_angle_alpha   94.99590251
_cell_angle_beta   94.99591124
_cell_angle_gamma   119.76280398
_symmetry_Int_Tables_number   1
_chemical_formula_structural   Na2CeO3
_chemical_formula_sum   'Na24 Ce12 O36'
_cell_volume   1053.95083517
_cell_formula_units_Z   12
loop_
 _symmetry_equiv_pos_site_id
 _symmetry_equiv_pos_as_xyz
  1  'x, y, z'
loop_
 _atom_site_type_symbol
 _atom_site_label
 _atom_site_symmetry_multiplicity
 _atom_site_fract_x
 _atom_site_fract_y
 _atom_site_fract_z
 _atom_site_occupancy
  Na  Na0  1  0.17556100  0.81739500  0.83285300  1
  Na  Na1  1  0.18777600  0.85118700  0.49913600  1
  Na  Na2  1  0.08162600  0.41837400  0.75000000  1
  Na  Na3  1  0.16627200  0.83017600  0.16668300  1
  Na  Na4  1  0.33017600  0.66627200  0.66668300  1
  Na  Na5  1  0.98002400  0.00083300  0.66577300  1
  Na  Na6  1  0.31739500  0.67556100  0.33285300  1
  Na  Na7  1  0.59022400  0.91366000  0.91682200  1
  Na  Na8  1  0.01997600  0.99916700  0.33422700  1
  Na  Na9  1  0.35118700  0.68777600  0.99913600  1
  Na  Na10  1  0.58634000  0.90977600  0.58317800  1
  Na  Na11  1  0.00000000  0.00000000  0.00000000  1
  Na  Na12  1  0.49916700  0.51997600  0.83422700  1
  Na  Na13  1  0.50000000  0.50000000  0.50000000  1
  Na  Na14  1  0.50083300  0.48002400  0.16577300  1
  Na  Na15  1  0.41366000  0.09022400  0.41682200  1
  Na  Na16  1  0.64881300  0.31222400  0.00086400  1
  Na  Na17  1  0.40977600  0.08634000  0.08317800  1
  Na  Na18  1  0.68260500  0.32443900  0.66714700  1
  Na  Na19  1  0.66982400  0.33372800  0.33331700  1
  Na  Na20  1  0.83372800  0.16982400  0.83331700  1
  Na  Na21  1  0.91837400  0.58162600  0.25000000  1
  Na  Na22  1  0.81222400  0.14881300  0.50086400  1
  Na  Na23  1  0.82443900  0.18260500  0.16714700  1
  Ce  Ce0  1  0.08004400  0.42217700  0.41724600  1
  Ce  Ce1  1  0.07782300  0.41995600  0.08275400  1
  Ce  Ce2  1  0.25575400  0.24587200  0.91621400  1
  Ce  Ce3  1  0.25412800  0.24424600  0.58378600  1
  Ce  Ce4  1  0.25166600  0.24833400  0.25000000  1
  Ce  Ce5  1  0.58659700  0.91340300  0.25000000  1
  Ce  Ce6  1  0.41340300  0.08659700  0.75000000  1
  Ce  Ce7  1  0.74833400  0.75166600  0.75000000  1
  Ce  Ce8  1  0.74587200  0.75575400  0.41621400  1
  Ce  Ce9  1  0.74424600  0.75412800  0.08378600  1
  Ce  Ce10  1  0.92217700  0.58004400  0.91724600  1
  Ce  Ce11  1  0.91995600  0.57782300  0.58275400  1
  O  O0  1  0.26139400  0.94988600  0.95386500  1
  O  O1  1  0.25517600  0.94411200  0.61926400  1
  O  O2  1  0.99251400  0.31485900  0.95265300  1
  O  O3  1  0.32022700  0.98256700  0.28710600  1
  O  O4  1  0.98478600  0.31066600  0.62034000  1
  O  O5  1  0.18933400  0.51521400  0.87966000  1
  O  O6  1  0.95261500  0.25074700  0.28596000  1
  O  O7  1  0.18514100  0.50748600  0.54734700  1
  O  O8  1  0.11445500  0.08701400  0.78597300  1
  O  O9  1  0.48256700  0.82022700  0.78710600  1
  O  O10  1  0.24925300  0.54738500  0.21404000  1
  O  O11  1  0.08241100  0.12157500  0.45265100  1
  O  O12  1  0.44988600  0.76139400  0.45386500  1
  O  O13  1  0.08079900  0.12246300  0.11902400  1
  O  O14  1  0.41298500  0.38554500  0.71402700  1
  O  O15  1  0.62157500  0.58241100  0.95265100  1
  O  O16  1  0.44411200  0.75517600  0.11926400  1
  O  O17  1  0.37753700  0.41920100  0.38097600  1
  O  O18  1  0.62246300  0.58079900  0.61902400  1
  O  O19  1  0.55588800  0.24482400  0.88073600  1
  O  O20  1  0.37842500  0.41758900  0.04734900  1
  O  O21  1  0.58701400  0.61445500  0.28597300  1
  O  O22  1  0.91920100  0.87753700  0.88097600  1
  O  O23  1  0.55011400  0.23860600  0.54613500  1
  O  O24  1  0.91758900  0.87842500  0.54734900  1
  O  O25  1  0.75074700  0.45261500  0.78596000  1
  O  O26  1  0.51743300  0.17977300  0.21289400  1
  O  O27  1  0.88554500  0.91298600  0.21402700  1
  O  O28  1  0.81485900  0.49251400  0.45265300  1
  O  O29  1  0.04738500  0.74925300  0.71404000  1
  O  O30  1  0.81066600  0.48478600  0.12034000  1
  O  O31  1  0.01521400  0.68933400  0.37966000  1
  O  O32  1  0.67977300  0.01743300  0.71289400  1
  O  O33  1  0.00748600  0.68514100  0.04734700  1
  O  O34  1  0.74482400  0.05588800  0.38073600  1
  O  O35  1  0.73860600  0.05011400  0.04613500  1
loop_
_geom_bond_atom_site_label_1
_geom_bond_atom_site_label_2
_geom_bond_distance
_geom_bond_site_symmetry_2
Na0 O22 2.461778 1_455
Na0 O8 2.497234 1_565
Na0 O9 2.509116 1_555
Na0 O5 2.542619 1_555
Na0 O25 2.650510 1_455
Na0 O19 2.702308 1_565
Na1 O24 2.453399 1_455
Na1 O28 2.486477 1_455
Na1 O12 2.503360 1_555
Na1 O23 2.540333 1_565
Na1 O11 2.615564 1_565
Na1 O7 2.742349 1_555
Na2 O14 2.510550 1_555
Na2 O8 2.510555 1_555
Na2 O29 2.511470 1_555
Na2 O25 2.511471 1_455
Na2 O9 2.538621 1_555
Na2 O32 2.538621 1_455
Na3 O26 2.408127 1_565
Na3 O30 2.411458 1_455
Na3 O16 2.584721 1_555
Na3 O27 2.618319 1_455
Na3 O10 2.629039 1_555
Na3 O13 2.688633 1_565
Na4 O32 2.408127 1_565
Na4 O4 2.411458 1_455
Na4 O1 2.584721 1_555
Na4 O14 2.618316 1_555
Na4 O29 2.629039 1_555
Na4 O18 2.688633 1_555
Na5 O29 2.461080 1_645
Na5 O1 2.504069 1_645
Na5 O4 2.511921 1_555
Na5 O32 2.546388 1_555
Na5 O18 2.620823 1_545
Na5 O14 2.732557 1_655
Na6 O17 2.461778 1_555
Na6 O21 2.497234 1_555
Na6 O3 2.509116 1_555
Na6 O31 2.542619 1_555
Na6 O6 2.650510 1_455
Na6 O34 2.702308 1_565
Na7 O15 2.503454 1_555
Na7 O22 2.504242 1_555
Na7 O19 2.515550 1_565
Na7 O0 2.525881 1_555
Na7 O2 2.526826 1_565
Na7 O5 2.530091 1_555
Na8 O6 2.461080 1_465
Na8 O34 2.504069 1_465
Na8 O31 2.511921 1_555
Na8 O3 2.546388 1_555
Na8 O17 2.620823 1_565
Na8 O21 2.732560 1_455
Na9 O20 2.453399 1_556
Na9 O2 2.486477 1_455
Na9 O0 2.503360 1_555
Na9 O35 2.540333 1_566
Na9 O15 2.615564 1_555
Na9 O33 2.742349 1_556
Na10 O24 2.503454 1_555
Na10 O18 2.504241 1_555
Na10 O1 2.515550 1_555
Na10 O23 2.525881 1_565
Na10 O7 2.526826 1_555
Na10 O4 2.530091 1_565
Na11 O35 2.414392 1_455
Na11 O0 2.414392 1_544
Na11 O33 2.603044 1_545
Na11 O2 2.603044 1_454
Na11 O20 2.662237 1_555
Na11 O15 2.662237 1_444
Na12 O25 2.461081 1_555
Na12 O19 2.504069 1_555
Na12 O5 2.511921 1_555
Na12 O9 2.546387 1_555
Na12 O22 2.620823 1_555
Na12 O8 2.732560 1_555
Na13 O12 2.414392 1_555
Na13 O23 2.414392 1_555
Na13 O28 2.603045 1_555
Na13 O7 2.603045 1_555
Na13 O11 2.662237 1_555
Na13 O24 2.662237 1_555
Na14 O10 2.461081 1_555
Na14 O16 2.504069 1_555
Na14 O30 2.511921 1_555
Na14 O26 2.546387 1_555
Na14 O13 2.620823 1_555
Na14 O27 2.732560 1_555
Na15 O11 2.503454 1_555
Na15 O17 2.504241 1_555
Na15 O34 2.515550 1_555
Na15 O12 2.525881 1_545
Na15 O28 2.526826 1_555
Na15 O31 2.530091 1_545
Na16 O15 2.453399 1_554
Na16 O33 2.486477 1_655
Na16 O35 2.503360 1_555
Na16 O0 2.540333 1_544
Na16 O20 2.615564 1_555
Na16 O2 2.742349 1_554
Na17 O20 2.503454 1_555
Na17 O13 2.504242 1_555
Na17 O16 2.515550 1_545
Na17 O35 2.525881 1_555
Na17 O33 2.526826 1_545
Na17 O30 2.530091 1_555
Na18 O18 2.461778 1_555
Na18 O14 2.497239 1_555
Na18 O32 2.509116 1_555
Na18 O4 2.542619 1_555
Na18 O29 2.650510 1_655
Na18 O1 2.702308 1_545
Na19 O3 2.408127 1_545
Na19 O31 2.411458 1_655
Na19 O34 2.584721 1_555
Na19 O21 2.618319 1_555
Na19 O6 2.629039 1_555
Na19 O17 2.688633 1_555
Na20 O9 2.408127 1_545
Na20 O5 2.411458 1_655
Na20 O19 2.584721 1_555
Na20 O8 2.618319 1_655
Na20 O25 2.629039 1_555
Na20 O22 2.688633 1_545
Na21 O27 2.510555 1_555
Na21 O21 2.510555 1_555
Na21 O6 2.511470 1_555
Na21 O10 2.511471 1_655
Na21 O26 2.538621 1_555
Na21 O3 2.538621 1_655
Na22 O11 2.453399 1_655
Na22 O7 2.486477 1_655
Na22 O23 2.503360 1_555
Na22 O12 2.540333 1_545
Na22 O24 2.615564 1_545
Na22 O28 2.742349 1_555
Na23 O13 2.461778 1_655
Na23 O27 2.497234 1_545
Na23 O26 2.509116 1_555
Na23 O30 2.542619 1_555
Na23 O10 2.650510 1_655
Na23 O16 2.702308 1_545
Ce0 O28 2.258305 1_455
Ce0 O11 2.265014 1_555
Ce0 O17 2.267897 1_555
Ce0 O34 2.272702 1_455
Ce0 O12 2.293272 1_555
Ce0 O31 2.295246 1_555
Ce1 O33 2.258305 1_555
Ce1 O20 2.265014 1_555
Ce1 O13 2.267897 1_555
Ce1 O16 2.272702 1_555
Ce1 O35 2.293272 1_455
Ce1 O30 2.295247 1_455
Ce2 O19 2.261221 1_555
Ce2 O2 2.264514 1_455
Ce2 O22 2.265860 1_445
Ce2 O15 2.273303 1_555
Ce2 O5 2.290412 1_555
Ce2 O0 2.294473 1_545
Ce3 O1 2.261221 1_545
Ce3 O7 2.264513 1_555
Ce3 O18 2.265860 1_555
Ce3 O24 2.273303 1_445
Ce3 O4 2.290412 1_455
Ce3 O23 2.294474 1_555
Ce4 O21 2.265706 1_555
Ce4 O27 2.265706 1_445
Ce4 O10 2.268343 1_555
Ce4 O6 2.268344 1_455
Ce4 O3 2.289358 1_545
Ce4 O26 2.289358 1_555
Ce5 O21 2.263811 1_555
Ce5 O27 2.263811 1_555
Ce5 O10 2.269662 1_555
Ce5 O6 2.269662 1_565
Ce5 O26 2.294185 1_565
Ce5 O3 2.294185 1_555
Ce6 O8 2.263811 1_555
Ce6 O14 2.263813 1_555
Ce6 O25 2.269662 1_555
Ce6 O29 2.269662 1_545
Ce6 O9 2.294185 1_545
Ce6 O32 2.294185 1_555
Ce7 O8 2.265706 1_665
Ce7 O14 2.265708 1_555
Ce7 O25 2.268343 1_555
Ce7 O29 2.268344 1_655
Ce7 O32 2.289358 1_565
Ce7 O9 2.289358 1_555
Ce8 O34 2.261221 1_565
Ce8 O28 2.264513 1_555
Ce8 O17 2.265860 1_555
Ce8 O11 2.273303 1_665
Ce8 O31 2.290412 1_655
Ce8 O12 2.294474 1_555
Ce9 O16 2.261221 1_555
Ce9 O33 2.264514 1_655
Ce9 O13 2.265860 1_665
Ce9 O20 2.273303 1_555
Ce9 O30 2.290412 1_555
Ce9 O35 2.294473 1_565
Ce10 O2 2.258305 1_555
Ce10 O15 2.265014 1_555
Ce10 O22 2.267897 1_555
Ce10 O19 2.272702 1_555
Ce10 O0 2.293272 1_655
Ce10 O5 2.295247 1_655
Ce11 O7 2.258305 1_655
Ce11 O24 2.265014 1_555
Ce11 O18 2.267897 1_555
Ce11 O1 2.272702 1_655
Ce11 O23 2.293272 1_555
Ce11 O4 2.295246 1_555
