# generated using pymatgen
data_Li2Re2O11
_symmetry_space_group_name_H-M   'P 1'
_cell_length_a   12.40327521
_cell_length_b   14.08696771
_cell_length_c   12.81390191
_cell_angle_alpha   90.00000000
_cell_angle_beta   89.27895369
_cell_angle_gamma   90.00000000
_symmetry_Int_Tables_number   1
_chemical_formula_structural   Li2Re2O11
_chemical_formula_sum   'Li16 Re16 O88'
_cell_volume   2238.72579436
_cell_formula_units_Z   8
loop_
 _symmetry_equiv_pos_site_id
 _symmetry_equiv_pos_as_xyz
  1  'x, y, z'
loop_
 _atom_site_type_symbol
 _atom_site_label
 _atom_site_symmetry_multiplicity
 _atom_site_fract_x
 _atom_site_fract_y
 _atom_site_fract_z
 _atom_site_occupancy
  Li  Li0  1  0.27204532  0.13980921  0.87010733  1
  Li  Li1  1  0.72795468  0.63980921  0.62989267  1
  Li  Li2  1  0.72795468  0.86019079  0.12989267  1
  Li  Li3  1  0.27204532  0.36019079  0.37010733  1
  Li  Li4  1  0.51107925  0.86492016  0.11261328  1
  Li  Li5  1  0.48892075  0.36492016  0.38738672  1
  Li  Li6  1  0.48892075  0.13507984  0.88738672  1
  Li  Li7  1  0.51107925  0.63507984  0.61261328  1
  Li  Li8  1  0.98960152  0.14190160  0.37123756  1
  Li  Li9  1  0.01039848  0.64190160  0.12876244  1
  Li  Li10  1  0.01039848  0.85809840  0.62876244  1
  Li  Li11  1  0.98960152  0.35809840  0.87123756  1
  Li  Li12  1  0.22856921  0.86353449  0.62170970  1
  Li  Li13  1  0.77143079  0.36353449  0.87829030  1
  Li  Li14  1  0.77143079  0.13646551  0.37829030  1
  Li  Li15  1  0.22856921  0.63646551  0.12170970  1
  Re  Re0  1  0.08926918  0.91718189  0.38420675  1
  Re  Re1  1  0.91073082  0.41718189  0.11579325  1
  Re  Re2  1  0.91073082  0.08281811  0.61579325  1
  Re  Re3  1  0.08926918  0.58281811  0.88420675  1
  Re  Re4  1  0.34724278  0.07153933  0.11560646  1
  Re  Re5  1  0.65275722  0.57153933  0.38439354  1
  Re  Re6  1  0.65275722  0.92846067  0.88439354  1
  Re  Re7  1  0.34724278  0.42846067  0.61560646  1
  Re  Re8  1  0.15826187  0.91708106  0.86384979  1
  Re  Re9  1  0.84173813  0.41708106  0.63615021  1
  Re  Re10  1  0.84173813  0.08291894  0.13615021  1
  Re  Re11  1  0.15826187  0.58291894  0.36384979  1
  Re  Re12  1  0.40172468  0.07233259  0.63930693  1
  Re  Re13  1  0.59827532  0.57233259  0.86069307  1
  Re  Re14  1  0.59827532  0.92766741  0.36069307  1
  Re  Re15  1  0.40172468  0.42766741  0.13930693  1
  O  O0  1  0.09906442  0.04177528  0.38096577  1
  O  O1  1  0.90093558  0.54177528  0.11903423  1
  O  O2  1  0.90093558  0.95822472  0.61903423  1
  O  O3  1  0.09906442  0.45822472  0.88096577  1
  O  O4  1  0.17734099  0.86659132  0.29378725  1
  O  O5  1  0.82265901  0.36659132  0.20621275  1
  O  O6  1  0.82265901  0.13340868  0.70621275  1
  O  O7  1  0.17734099  0.63340868  0.79378725  1
  O  O8  1  0.11939629  0.87628941  0.51346407  1
  O  O9  1  0.88060371  0.37628941  0.98653593  1
  O  O10  1  0.88060371  0.12371059  0.48653593  1
  O  O11  1  0.11939629  0.62371059  0.01346407  1
  O  O12  1  0.95819579  0.88597756  0.35432723  1
  O  O13  1  0.04180421  0.38597756  0.14567277  1
  O  O14  1  0.04180421  0.11402244  0.64567277  1
  O  O15  1  0.95819579  0.61402244  0.85432723  1
  O  O16  1  0.39259492  0.95325225  0.11167849  1
  O  O17  1  0.60740508  0.45325225  0.38832151  1
  O  O18  1  0.60740508  0.04674775  0.88832151  1
  O  O19  1  0.39259492  0.54674775  0.61167849  1
  O  O20  1  0.21099406  0.07541535  0.14645750  1
  O  O21  1  0.78900594  0.57541535  0.35354250  1
  O  O22  1  0.78900594  0.92458465  0.85354250  1
  O  O23  1  0.21099406  0.42458465  0.64645750  1
  O  O24  1  0.36960367  0.12377283  0.98975696  1
  O  O25  1  0.63039633  0.62377283  0.51024304  1
  O  O26  1  0.63039633  0.87622717  0.01024304  1
  O  O27  1  0.36960367  0.37622717  0.48975696  1
  O  O28  1  0.41968212  0.13314609  0.20919007  1
  O  O29  1  0.58031788  0.63314609  0.29080993  1
  O  O30  1  0.58031788  0.86685391  0.79080993  1
  O  O31  1  0.41968212  0.36685391  0.70919007  1
  O  O32  1  0.15963211  0.04197395  0.86632459  1
  O  O33  1  0.84036789  0.54197395  0.63367541  1
  O  O34  1  0.84036789  0.95802605  0.13367541  1
  O  O35  1  0.15963211  0.45802605  0.36632459  1
  O  O36  1  0.11901467  0.87626055  0.73738953  1
  O  O37  1  0.88098533  0.37626055  0.76261047  1
  O  O38  1  0.88098533  0.12373945  0.26261047  1
  O  O39  1  0.11901467  0.62373945  0.23738953  1
  O  O40  1  0.28762768  0.87766163  0.88882430  1
  O  O41  1  0.71237232  0.37766163  0.61117570  1
  O  O42  1  0.71237232  0.12233837  0.11117570  1
  O  O43  1  0.28762768  0.62233837  0.38882430  1
  O  O44  1  0.07051396  0.87344606  0.95943789  1
  O  O45  1  0.92948604  0.37344606  0.54056211  1
  O  O46  1  0.92948604  0.12655394  0.04056211  1
  O  O47  1  0.07051396  0.62655394  0.45943789  1
  O  O48  1  0.33705266  0.96119282  0.63733067  1
  O  O49  1  0.66294734  0.46119282  0.86266933  1
  O  O50  1  0.66294734  0.03880718  0.36266933  1
  O  O51  1  0.33705266  0.53880718  0.13733067  1
  O  O52  1  0.53652289  0.06106038  0.60449540  1
  O  O53  1  0.46347711  0.56106038  0.89550460  1
  O  O54  1  0.46347711  0.93893962  0.39550460  1
  O  O55  1  0.53652289  0.43893962  0.10449540  1
  O  O56  1  0.39122668  0.12079671  0.76834116  1
  O  O57  1  0.60877332  0.62079671  0.73165884  1
  O  O58  1  0.60877332  0.87920329  0.23165884  1
  O  O59  1  0.39122668  0.37920329  0.26834116  1
  O  O60  1  0.33861623  0.14819658  0.55237657  1
  O  O61  1  0.66138377  0.64819658  0.94762343  1
  O  O62  1  0.66138377  0.85180342  0.44762343  1
  O  O63  1  0.33861623  0.35180342  0.05237657  1
  O  O64  1  0.37746910  0.28080727  0.87497104  1
  O  O65  1  0.62253090  0.78080727  0.62502896  1
  O  O66  1  0.62253090  0.71919273  0.12502896  1
  O  O67  1  0.37746910  0.21919273  0.37497104  1
  O  O68  1  0.11859401  0.72975119  0.61444541  1
  O  O69  1  0.88140599  0.22975119  0.88555459  1
  O  O70  1  0.88140599  0.27024881  0.38555459  1
  O  O71  1  0.11859401  0.77024881  0.11444541  1
  O  O72  1  0.36919547  0.75387327  0.65692264  1
  O  O73  1  0.63080453  0.25387327  0.84307736  1
  O  O74  1  0.63080453  0.24612673  0.34307736  1
  O  O75  1  0.36919547  0.74612673  0.15692264  1
  O  O76  1  0.12132342  0.24737863  0.90859428  1
  O  O77  1  0.87867658  0.74737863  0.59140572  1
  O  O78  1  0.87867658  0.75262137  0.09140572  1
  O  O79  1  0.12132342  0.25262137  0.40859428  1
  O  O80  1  0.14520574  0.25390309  0.81462503  1
  O  O81  1  0.85479426  0.75390309  0.68537497  1
  O  O82  1  0.85479426  0.74609691  0.18537497  1
  O  O83  1  0.14520574  0.24609691  0.31462503  1
  O  O84  1  0.38993674  0.76218961  0.56256949  1
  O  O85  1  0.61006326  0.26218961  0.93743051  1
  O  O86  1  0.61006326  0.23781039  0.43743051  1
  O  O87  1  0.38993674  0.73781039  0.06256949  1
loop_
_geom_bond_atom_site_label_1
_geom_bond_atom_site_label_2
_geom_bond_distance
_geom_bond_site_symmetry_2
Li0 O32 1.961515 1_555
Li0 O56 1.977089 1_555
Li0 O24 1.978021 1_555
Li0 O80 2.364708 1_555
Li0 O64 2.379261 1_555
Li0 O76 2.451745 1_555
Li1 O33 1.961515 1_555
Li1 O57 1.977089 1_555
Li1 O25 1.978021 1_555
Li1 O81 2.364708 1_555
Li1 O65 2.379261 1_555
Li1 O77 2.451745 1_555
Li2 O34 1.961515 1_555
Li2 O58 1.977089 1_555
Li2 O26 1.978021 1_555
Li2 O82 2.364708 1_555
Li2 O66 2.379261 1_555
Li2 O78 2.451745 1_555
Li3 O35 1.961515 1_555
Li3 O59 1.977089 1_555
Li3 O27 1.978021 1_555
Li3 O83 2.364708 1_555
Li3 O67 2.379261 1_555
Li3 O79 2.451745 1_555
Li4 O16 1.925786 1_555
Li4 O58 1.970342 1_555
Li4 O26 1.971649 1_555
Li4 O87 2.428863 1_555
Li4 O66 2.481130 1_555
Li4 O75 2.488895 1_555
Li5 O17 1.925786 1_555
Li5 O59 1.970342 1_555
Li5 O27 1.971649 1_555
Li5 O86 2.428863 1_555
Li5 O67 2.481130 1_555
Li5 O74 2.488895 1_555
Li6 O18 1.925786 1_555
Li6 O56 1.970342 1_555
Li6 O24 1.971649 1_555
Li6 O85 2.428863 1_555
Li6 O64 2.481130 1_555
Li6 O73 2.488895 1_555
Li7 O19 1.925786 1_555
Li7 O57 1.970342 1_555
Li7 O25 1.971649 1_555
Li7 O84 2.428863 1_555
Li7 O65 2.481130 1_555
Li7 O72 2.488895 1_555
Li8 O0 1.962801 1_655
Li8 O38 1.965981 1_555
Li8 O10 2.006461 1_555
Li8 O70 2.257723 1_555
Li8 O79 2.313169 1_655
Li8 O83 2.523953 1_655
Li9 O1 1.962801 1_455
Li9 O39 1.965981 1_555
Li9 O11 2.006461 1_555
Li9 O71 2.257723 1_555
Li9 O78 2.313169 1_455
Li9 O82 2.523953 1_455
Li10 O2 1.962801 1_455
Li10 O36 1.965981 1_555
Li10 O8 2.006461 1_555
Li10 O68 2.257723 1_555
Li10 O77 2.313169 1_455
Li10 O81 2.523953 1_455
Li11 O3 1.962801 1_655
Li11 O37 1.965981 1_555
Li11 O9 2.006461 1_555
Li11 O69 2.257723 1_555
Li11 O76 2.313169 1_655
Li11 O80 2.523953 1_655
Li12 O48 1.936473 1_555
Li12 O8 1.958840 1_555
Li12 O36 2.006270 1_555
Li12 O68 2.328996 1_555
Li12 O72 2.377418 1_555
Li12 O84 2.565194 1_555
Li13 O49 1.936473 1_555
Li13 O9 1.958840 1_555
Li13 O37 2.006270 1_555
Li13 O69 2.328996 1_555
Li13 O73 2.377418 1_555
Li13 O85 2.565194 1_555
Li14 O50 1.936473 1_555
Li14 O10 1.958840 1_555
Li14 O38 2.006270 1_555
Li14 O70 2.328996 1_555
Li14 O74 2.377418 1_555
Li14 O86 2.565194 1_555
Li15 O51 1.936473 1_555
Li15 O11 1.958840 1_555
Li15 O39 2.006270 1_555
Li15 O71 2.328996 1_555
Li15 O75 2.377418 1_555
Li15 O87 2.565194 1_555
O0 Re0 1.759797 1_545
O1 Re1 1.759797 1_555
O2 Re2 1.759797 1_565
O3 Re3 1.759797 1_555
O4 Re0 1.735439 1_555
O5 Re1 1.735439 1_555
O6 Re2 1.735439 1_555
O7 Re3 1.735439 1_555
O8 Re0 1.797316 1_555
O9 Re1 1.797316 1_556
O10 Re2 1.797316 1_555
O11 Re3 1.797316 1_554
O12 Re0 1.731621 1_655
O13 Re1 1.731621 1_455
O14 Re2 1.731621 1_455
O15 Re3 1.731621 1_655
O16 Re4 1.759210 1_565
O17 Re5 1.759210 1_555
O18 Re6 1.759210 1_545
O19 Re7 1.759210 1_555
O20 Re4 1.731563 1_555
O21 Re5 1.731563 1_555
O22 Re6 1.731563 1_555
O23 Re7 1.731563 1_555
O24 Re4 1.790988 1_556
O25 Re5 1.790988 1_555
O26 Re6 1.790988 1_554
O27 Re7 1.790988 1_555
O28 Re4 1.739417 1_555
O29 Re5 1.739417 1_555
O30 Re6 1.739417 1_555
O31 Re7 1.739417 1_555
O32 Re8 1.759734 1_545
O33 Re9 1.759734 1_555
O34 Re10 1.759734 1_565
O35 Re11 1.759734 1_555
O36 Re8 1.792581 1_555
O37 Re9 1.792581 1_555
O38 Re10 1.792581 1_555
O39 Re11 1.792581 1_555
O40 Re8 1.731562 1_555
O41 Re9 1.731562 1_555
O42 Re10 1.731562 1_555
O43 Re11 1.731562 1_555
O44 Re8 1.740428 1_555
O45 Re9 1.740428 1_555
O46 Re10 1.740428 1_555
O47 Re11 1.740428 1_555
O48 Re12 1.759478 1_565
O49 Re13 1.759478 1_555
O50 Re14 1.759478 1_545
O51 Re15 1.759478 1_555
O52 Re12 1.732283 1_555
O53 Re13 1.732283 1_555
O54 Re14 1.732283 1_555
O55 Re15 1.732283 1_555
O56 Re12 1.792057 1_555
O57 Re13 1.792057 1_555
O58 Re14 1.792057 1_555
O59 Re15 1.792057 1_555
O60 Re12 1.737113 1_555
O61 Re13 1.737113 1_555
O62 Re14 1.737113 1_555
O63 Re15 1.737113 1_555
O72 O84 1.238482 1_555
O73 O85 1.238482 1_555
O74 O86 1.238482 1_555
O75 O87 1.238482 1_555
O76 O80 1.239800 1_555
O77 O81 1.239800 1_555
O78 O82 1.239800 1_555
O79 O83 1.239800 1_555
