# generated using pymatgen
data_Ca2Sb2O7
_symmetry_space_group_name_H-M   'P 1'
_cell_length_a   7.31744879
_cell_length_b   7.31744986
_cell_length_c   7.31744580
_cell_angle_alpha   119.99792605
_cell_angle_beta   118.45951360
_cell_angle_gamma   91.34617962
_symmetry_Int_Tables_number   1
_chemical_formula_structural   Ca2Sb2O7
_chemical_formula_sum   'Ca4 Sb4 O14'
_cell_volume   280.13860191
_cell_formula_units_Z   2
loop_
 _symmetry_equiv_pos_site_id
 _symmetry_equiv_pos_as_xyz
  1  'x, y, z'
loop_
 _atom_site_type_symbol
 _atom_site_label
 _atom_site_symmetry_multiplicity
 _atom_site_fract_x
 _atom_site_fract_y
 _atom_site_fract_z
 _atom_site_occupancy
  Ca  Ca0  1  0.00000017  0.00000041  0.50000038  1
  Ca  Ca1  1  -0.00000027  0.50000004  -0.00000004  1
  Ca  Ca2  1  0.00000023  0.00000002  0.00000004  1
  Ca  Ca3  1  0.50000009  0.50000014  -0.00000008  1
  Sb  Sb0  1  0.49999989  0.00000002  -0.00000009  1
  Sb  Sb1  1  0.49999978  0.49999991  0.49999967  1
  Sb  Sb2  1  0.49999941  -0.00000018  0.49999959  1
  Sb  Sb3  1  -0.00000003  0.50000002  0.49999998  1
  O  O0  1  0.44515242  0.09020643  0.77178235  1
  O  O1  1  0.55484753  0.32662993  0.64505398  1
  O  O2  1  0.18157595  0.40979395  0.35494604  1
  O  O3  1  0.81842417  0.17336996  0.22821781  1
  O  O4  1  0.55484776  0.90979392  0.22821763  1
  O  O5  1  0.44515262  0.67337017  0.35494609  1
  O  O6  1  0.81842409  0.59020596  0.64505401  1
  O  O7  1  0.18157591  0.82662994  0.77178207  1
  O  O8  1  0.59716481  0.75000011  0.84716498  1
  O  O9  1  0.40283504  0.25000010  0.15283518  1
  O  O10  1  0.17773621  0.90619168  0.27154522  1
  O  O11  1  0.82226433  0.09380866  0.72845531  1
  O  O12  1  0.86535333  0.59380829  0.27154439  1
  O  O13  1  0.13464657  0.40619152  0.72845550  1
loop_
_geom_bond_atom_site_label_1
_geom_bond_atom_site_label_2
_geom_bond_distance
_geom_bond_site_symmetry_2
Ca0 O11 2.433915 1_455
Ca0 O10 2.433917 1_545
Ca0 O13 2.433918 1_555
Ca0 O12 2.433924 1_445
Ca0 O3 2.722780 1_455
Ca0 O7 2.722781 1_545
Ca0 O0 2.722782 1_555
Ca0 O4 2.722783 1_445
Ca1 O12 2.433915 1_455
Ca1 O13 2.433918 1_554
Ca1 O11 2.433920 1_454
Ca1 O10 2.433922 1_555
Ca1 O6 2.722779 1_454
Ca1 O2 2.722780 1_555
Ca1 O1 2.722782 1_454
Ca1 O5 2.722786 1_555
Ca2 O11 2.248055 1_454
Ca2 O10 2.248056 1_545
Ca2 O7 2.497814 1_544
Ca2 O3 2.497815 1_455
Ca2 O2 2.497817 1_555
Ca2 O6 2.497818 1_444
Ca2 O9 2.800948 1_555
Ca2 O8 2.800952 1_444
Ca3 O12 2.248056 1_555
Ca3 O13 2.248057 1_554
Ca3 O1 2.497813 1_554
Ca3 O5 2.497814 1_555
Ca3 O0 2.497816 1_554
Ca3 O4 2.497816 1_555
Ca3 O8 2.800947 1_554
Ca3 O9 2.800950 1_555
O0 Sb0 1.965069 1_556
O0 Sb2 2.003106 1_555
O1 Sb1 1.965070 1_555
O1 Sb2 2.003108 1_555
O2 Sb1 1.965069 1_555
O2 Sb3 2.003106 1_555
O3 Sb0 1.965072 1_555
O3 Sb3 2.003108 1_655
O4 Sb0 1.965067 1_565
O4 Sb2 2.003108 1_565
O5 Sb1 1.965068 1_555
O5 Sb2 2.003107 1_565
O6 Sb1 1.965071 1_555
O6 Sb3 2.003106 1_655
O7 Sb0 1.965070 1_566
O7 Sb3 2.003108 1_555
O8 Sb0 1.968759 1_566
O8 Sb1 1.968762 1_555
O9 Sb1 1.968758 1_555
O9 Sb0 1.968760 1_555
O10 Sb2 1.961120 1_565
O11 Sb2 1.961131 1_555
O12 Sb3 1.961123 1_655
O13 Sb3 1.961124 1_555
