# generated using pymatgen
data_B3Pb6O10F
_symmetry_space_group_name_H-M   'P 1'
_cell_length_a   6.86310000
_cell_length_b   11.40344900
_cell_length_c   17.27905200
_cell_angle_alpha   90.00000000
_cell_angle_beta   90.00000000
_cell_angle_gamma   90.00000000
_symmetry_Int_Tables_number   1
_chemical_formula_structural   B3Pb6O10F
_chemical_formula_sum   'B12 Pb24 O40 F4'
_cell_volume   1352.31063384
_cell_formula_units_Z   4
loop_
 _symmetry_equiv_pos_site_id
 _symmetry_equiv_pos_as_xyz
  1  'x, y, z'
loop_
 _atom_site_type_symbol
 _atom_site_label
 _atom_site_symmetry_multiplicity
 _atom_site_fract_x
 _atom_site_fract_y
 _atom_site_fract_z
 _atom_site_occupancy
  B  B0  1  0.80601900  0.75000000  0.72510300  1
  B  B1  1  0.19398100  0.25000000  0.27489700  1
  B  B2  1  0.80601900  0.25000000  0.77489700  1
  B  B3  1  0.19398100  0.75000000  0.22510300  1
  B  B4  1  0.22618500  0.99649000  0.49396900  1
  B  B5  1  0.77381500  0.49649000  0.50603100  1
  B  B6  1  0.22618500  0.00351000  0.00603100  1
  B  B7  1  0.77381500  0.50351000  0.99396900  1
  B  B8  1  0.77381500  0.00351000  0.50603100  1
  B  B9  1  0.22618500  0.50351000  0.49396900  1
  B  B10  1  0.77381500  0.99649000  0.99396900  1
  B  B11  1  0.22618500  0.49649000  0.00603100  1
  Pb  Pb0  1  0.03246400  0.93537000  0.65514100  1
  Pb  Pb1  1  0.96753600  0.43537000  0.34485900  1
  Pb  Pb2  1  0.03246400  0.06463000  0.84485900  1
  Pb  Pb3  1  0.96753600  0.56463000  0.15514100  1
  Pb  Pb4  1  0.96753600  0.06463000  0.34485900  1
  Pb  Pb5  1  0.03246400  0.56463000  0.65514100  1
  Pb  Pb6  1  0.96753600  0.93537000  0.15514100  1
  Pb  Pb7  1  0.03246400  0.43537000  0.84485900  1
  Pb  Pb8  1  0.43006900  0.25000000  0.46960500  1
  Pb  Pb9  1  0.56993100  0.75000000  0.53039500  1
  Pb  Pb10  1  0.43006900  0.75000000  0.03039500  1
  Pb  Pb11  1  0.56993100  0.25000000  0.96960500  1
  Pb  Pb12  1  0.91592900  0.25000000  0.56432300  1
  Pb  Pb13  1  0.08407100  0.75000000  0.43567700  1
  Pb  Pb14  1  0.91592900  0.75000000  0.93567700  1
  Pb  Pb15  1  0.08407100  0.25000000  0.06432300  1
  Pb  Pb16  1  0.50461700  0.09192800  0.66629600  1
  Pb  Pb17  1  0.49538300  0.59192800  0.33370400  1
  Pb  Pb18  1  0.50461700  0.90807200  0.83370400  1
  Pb  Pb19  1  0.49538300  0.40807200  0.16629600  1
  Pb  Pb20  1  0.49538300  0.90807200  0.33370400  1
  Pb  Pb21  1  0.50461700  0.40807200  0.66629600  1
  Pb  Pb22  1  0.49538300  0.09192800  0.16629600  1
  Pb  Pb23  1  0.50461700  0.59192800  0.83370400  1
  O  O0  1  0.58157900  0.25000000  0.59131800  1
  O  O1  1  0.41842100  0.75000000  0.40868200  1
  O  O2  1  0.58157900  0.75000000  0.90868200  1
  O  O3  1  0.41842100  0.25000000  0.09131800  1
  O  O4  1  0.90075100  0.75000000  0.65089700  1
  O  O5  1  0.09924900  0.25000000  0.34910300  1
  O  O6  1  0.90075100  0.25000000  0.84910300  1
  O  O7  1  0.09924900  0.75000000  0.15089700  1
  O  O8  1  0.77203600  0.00581200  0.58711900  1
  O  O9  1  0.22796400  0.50581200  0.41288100  1
  O  O10  1  0.77203600  0.99418800  0.91288100  1
  O  O11  1  0.22796400  0.49418800  0.08711900  1
  O  O12  1  0.22796400  0.99418800  0.41288100  1
  O  O13  1  0.77203600  0.49418800  0.58711900  1
  O  O14  1  0.22796400  0.00581200  0.08711900  1
  O  O15  1  0.77203600  0.50581200  0.91288100  1
  O  O16  1  0.17771900  0.89200100  0.53222600  1
  O  O17  1  0.82228100  0.39200100  0.46777400  1
  O  O18  1  0.17771900  0.10799900  0.96777400  1
  O  O19  1  0.82228100  0.60799900  0.03222600  1
  O  O20  1  0.82228100  0.10799900  0.46777400  1
  O  O21  1  0.17771900  0.60799900  0.53222600  1
  O  O22  1  0.82228100  0.89200100  0.03222600  1
  O  O23  1  0.17771900  0.39200100  0.96777400  1
  O  O24  1  0.26991000  0.09644400  0.53531100  1
  O  O25  1  0.73009000  0.59644400  0.46468900  1
  O  O26  1  0.26991000  0.90355600  0.96468900  1
  O  O27  1  0.73009000  0.40355600  0.03531100  1
  O  O28  1  0.73009000  0.90355600  0.46468900  1
  O  O29  1  0.26991000  0.40355600  0.53531100  1
  O  O30  1  0.73009000  0.09644400  0.03531100  1
  O  O31  1  0.26991000  0.59644400  0.96468900  1
  O  O32  1  0.77370500  0.14172800  0.74284600  1
  O  O33  1  0.22629500  0.64172800  0.25715400  1
  O  O34  1  0.77370500  0.85827200  0.75715400  1
  O  O35  1  0.22629500  0.35827200  0.24284600  1
  O  O36  1  0.22629500  0.85827200  0.25715400  1
  O  O37  1  0.77370500  0.35827200  0.74284600  1
  O  O38  1  0.22629500  0.14172800  0.24284600  1
  O  O39  1  0.77370500  0.64172800  0.75715400  1
  F  F0  1  0.33708100  0.25000000  0.73331500  1
  F  F1  1  0.66291900  0.75000000  0.26668500  1
  F  F2  1  0.33708100  0.75000000  0.76668500  1
  F  F3  1  0.66291900  0.25000000  0.23331500  1
loop_
_geom_bond_atom_site_label_1
_geom_bond_atom_site_label_2
_geom_bond_distance
_geom_bond_site_symmetry_2
B0 O39 1.371244 1_555
B0 O34 1.371244 1_555
B0 O4 1.437624 1_555
B1 O35 1.371244 1_555
B1 O38 1.371244 1_555
B1 O5 1.437624 1_555
B2 O37 1.371244 1_555
B2 O32 1.371244 1_555
B2 O6 1.437624 1_555
B3 O36 1.371244 1_555
B3 O33 1.371244 1_555
B3 O7 1.437624 1_555
B4 O24 1.378238 1_565
B4 O12 1.401423 1_555
B4 O16 1.402632 1_555
B5 O25 1.378238 1_555
B5 O13 1.401423 1_555
B5 O17 1.402632 1_555
B6 O26 1.378238 1_544
B6 O14 1.401423 1_555
B6 O18 1.402632 1_554
B7 O27 1.378238 1_556
B7 O15 1.401423 1_555
B7 O19 1.402632 1_556
B8 O28 1.378238 1_545
B8 O8 1.401423 1_555
B8 O20 1.402632 1_555
B9 O29 1.378238 1_555
B9 O9 1.401423 1_555
B9 O21 1.402632 1_555
B10 O30 1.378238 1_566
B10 O10 1.401423 1_555
B10 O22 1.402632 1_556
B11 O31 1.378238 1_554
B11 O11 1.401423 1_555
B11 O23 1.402632 1_554
O0 Pb16 2.281816 1_555
O0 Pb21 2.281816 1_555
O0 Pb12 2.341606 1_555
O0 Pb8 2.346105 1_555
O1 Pb20 2.281816 1_555
O1 Pb17 2.281816 1_555
O1 Pb13 2.341606 1_555
O1 Pb9 2.346105 1_555
O2 Pb23 2.281816 1_555
O2 Pb18 2.281816 1_555
O2 Pb14 2.341606 1_555
O2 Pb10 2.346105 1_556
O3 Pb22 2.281816 1_555
O3 Pb19 2.281816 1_555
O3 Pb15 2.341606 1_555
O3 Pb11 2.346105 1_554
O4 Pb5 2.300199 1_655
O4 Pb0 2.300199 1_655
O5 Pb4 2.300199 1_455
O5 Pb1 2.300199 1_455
O6 Pb7 2.300199 1_655
O6 Pb2 2.300199 1_655
O7 Pb6 2.300199 1_455
O7 Pb3 2.300199 1_455
O8 Pb0 2.285021 1_645
O8 Pb16 2.490880 1_555
O9 Pb1 2.285021 1_455
O9 Pb17 2.490880 1_555
O10 Pb2 2.285021 1_665
O10 Pb18 2.490880 1_555
O11 Pb3 2.285021 1_455
O11 Pb19 2.490880 1_555
O12 Pb4 2.285021 1_465
O12 Pb20 2.490880 1_555
O13 Pb5 2.285021 1_655
O13 Pb21 2.490880 1_555
O14 Pb6 2.285021 1_445
O14 Pb22 2.490880 1_555
O15 Pb7 2.285021 1_655
O15 Pb23 2.490880 1_555
O16 Pb0 2.397739 1_555
O16 Pb13 2.412128 1_555
O17 Pb1 2.397739 1_555
O17 Pb12 2.412128 1_555
O18 Pb2 2.397739 1_555
O18 Pb15 2.412128 1_556
O19 Pb3 2.397739 1_555
O19 Pb14 2.412128 1_554
O20 Pb4 2.397739 1_555
O20 Pb12 2.412128 1_555
O21 Pb5 2.397739 1_555
O21 Pb13 2.412128 1_555
O22 Pb6 2.397739 1_555
O22 Pb14 2.412128 1_554
O23 Pb7 2.397739 1_555
O23 Pb15 2.412128 1_556
O24 Pb8 2.358695 1_555
O24 Pb16 2.778470 1_555
O25 Pb9 2.358695 1_555
O25 Pb17 2.778470 1_555
O26 Pb10 2.358695 1_556
O26 Pb18 2.778470 1_555
O27 Pb11 2.358695 1_554
O27 Pb19 2.778470 1_555
O28 Pb9 2.358695 1_555
O28 Pb20 2.778470 1_555
O29 Pb8 2.358695 1_555
O29 Pb21 2.778470 1_555
O30 Pb11 2.358695 1_554
O30 Pb22 2.778470 1_555
O31 Pb10 2.358695 1_556
O31 Pb23 2.778470 1_555
O32 Pb16 2.341507 1_555
O32 Pb2 2.652134 1_655
O33 Pb17 2.341507 1_555
O33 Pb3 2.652134 1_455
O34 Pb18 2.341507 1_555
O34 Pb0 2.652134 1_655
O35 Pb19 2.341507 1_555
O35 Pb1 2.652134 1_455
O36 Pb20 2.341507 1_555
O36 Pb6 2.652134 1_455
O37 Pb21 2.341507 1_555
O37 Pb7 2.652134 1_655
O38 Pb22 2.341507 1_555
O38 Pb4 2.652134 1_455
O39 Pb23 2.341507 1_555
O39 Pb5 2.652134 1_655
F0 Pb21 2.431531 1_555
F0 Pb16 2.431531 1_555
F1 Pb17 2.431531 1_555
F1 Pb20 2.431531 1_555
F2 Pb18 2.431531 1_555
F2 Pb23 2.431531 1_555
F3 Pb22 2.431531 1_555
F3 Pb19 2.431531 1_555
