# generated using pymatgen
data_Cs2P4Pd3O14
_symmetry_space_group_name_H-M   'P 1'
_cell_length_a   8.29385941
_cell_length_b   8.29385941
_cell_length_c   14.63633200
_cell_angle_alpha   90.00000000
_cell_angle_beta   90.00000000
_cell_angle_gamma   124.33695532
_symmetry_Int_Tables_number   1
_chemical_formula_structural   Cs2P4Pd3O14
_chemical_formula_sum   'Cs4 P8 Pd6 O28'
_cell_volume   831.35421126
_cell_formula_units_Z   2
loop_
 _symmetry_equiv_pos_site_id
 _symmetry_equiv_pos_as_xyz
  1  'x, y, z'
loop_
 _atom_site_type_symbol
 _atom_site_label
 _atom_site_symmetry_multiplicity
 _atom_site_fract_x
 _atom_site_fract_y
 _atom_site_fract_z
 _atom_site_occupancy
  Cs  Cs0  1  0.93345800  0.06654200  0.08978500  1
  Cs  Cs1  1  0.06654200  0.93345800  0.58978500  1
  Cs  Cs2  1  0.78241500  0.21758500  0.82493600  1
  Cs  Cs3  1  0.21758500  0.78241500  0.32493600  1
  P  P0  1  0.30288900  0.32826000  0.29456600  1
  P  P1  1  0.67174000  0.69711100  0.29456600  1
  P  P2  1  0.69711100  0.67174000  0.79456600  1
  P  P3  1  0.32826000  0.30288900  0.79456600  1
  P  P4  1  0.59806800  0.03228200  0.55091700  1
  P  P5  1  0.96771800  0.40193200  0.55091700  1
  P  P6  1  0.40193200  0.96771800  0.05091700  1
  P  P7  1  0.03228200  0.59806800  0.05091700  1
  Pd  Pd0  1  0.88883500  0.11116500  0.39559600  1
  Pd  Pd1  1  0.11116500  0.88883500  0.89559600  1
  Pd  Pd2  1  0.62060600  0.37939400  0.16182200  1
  Pd  Pd3  1  0.37939400  0.62060600  0.66182200  1
  Pd  Pd4  1  0.62594100  0.37405900  0.43357400  1
  Pd  Pd5  1  0.37405900  0.62594100  0.93357400  1
  O  O0  1  0.43378100  0.56621900  0.30276600  1
  O  O1  1  0.56621900  0.43378100  0.80276600  1
  O  O2  1  0.35650100  0.24773200  0.37484600  1
  O  O3  1  0.75226800  0.64349900  0.37484600  1
  O  O4  1  0.64349900  0.75226800  0.87484600  1
  O  O5  1  0.24773200  0.35650100  0.87484600  1
  O  O6  1  0.34169800  0.27722000  0.19913600  1
  O  O7  1  0.72278000  0.65830200  0.19913600  1
  O  O8  1  0.65830200  0.72278000  0.69913600  1
  O  O9  1  0.27722000  0.34169800  0.69913600  1
  O  O10  1  0.09126500  0.26815600  0.29647900  1
  O  O11  1  0.73184400  0.90873500  0.29647900  1
  O  O12  1  0.90873500  0.73184400  0.79647900  1
  O  O13  1  0.26815600  0.09126500  0.79647900  1
  O  O14  1  0.78078700  0.21921300  0.60551500  1
  O  O15  1  0.21921300  0.78078700  0.10551500  1
  O  O16  1  0.46246700  0.89508400  0.62599000  1
  O  O17  1  0.10491600  0.53753300  0.62599000  1
  O  O18  1  0.53753300  0.10491600  0.12599000  1
  O  O19  1  0.89508400  0.46246700  0.12599000  1
  O  O20  1  0.49418300  0.10930300  0.49745600  1
  O  O21  1  0.89069700  0.50581700  0.49745600  1
  O  O22  1  0.50581700  0.89069700  0.99745600  1
  O  O23  1  0.10930300  0.49418300  0.99745600  1
  O  O24  1  0.68150000  0.94320700  0.49104000  1
  O  O25  1  0.05679300  0.31850000  0.49104000  1
  O  O26  1  0.31850000  0.05679300  0.99104000  1
  O  O27  1  0.94320700  0.68150000  0.99104000  1
loop_
_geom_bond_atom_site_label_1
_geom_bond_atom_site_label_2
_geom_bond_distance
_geom_bond_site_symmetry_2
Cs0 O6 3.225637 1_655
Cs0 O7 3.225637 1_545
Cs0 O23 3.270697 1_654
Cs0 O22 3.270697 1_544
Cs0 O10 3.345485 1_655
Cs0 O11 3.345485 1_545
Cs0 O19 3.513417 1_555
Cs0 O18 3.513417 1_555
Cs0 O27 3.547530 1_544
Cs0 O26 3.547530 1_654
Cs1 O9 3.225637 1_565
Cs1 O8 3.225637 1_455
Cs1 O21 3.270697 1_455
Cs1 O20 3.270697 1_565
Cs1 O13 3.345485 1_565
Cs1 O12 3.345485 1_455
Cs1 O16 3.513417 1_555
Cs1 O17 3.513417 1_555
Cs1 O24 3.547530 1_455
Cs1 O25 3.547530 1_565
Cs2 O1 3.187919 1_555
Cs2 O14 3.211607 1_555
Cs2 O5 3.426214 1_655
Cs2 O4 3.426214 1_545
Cs2 O23 3.460151 1_655
Cs2 O22 3.460151 1_545
Cs3 O0 3.187919 1_555
Cs3 O15 3.211607 1_555
Cs3 O2 3.426214 1_565
Cs3 O3 3.426214 1_455
Cs3 O20 3.460151 1_565
Cs3 O21 3.460151 1_455
O0 P0 1.634316 1_555
O0 P1 1.634316 1_555
O1 P3 1.634316 1_555
O1 P2 1.634316 1_555
O2 P0 1.536050 1_555
O2 Pd4 2.046736 1_555
O3 P1 1.536050 1_555
O3 Pd4 2.046736 1_555
O4 P2 1.536050 1_555
O4 Pd5 2.046736 1_555
O5 P3 1.536050 1_555
O5 Pd5 2.046736 1_555
O6 P0 1.545126 1_555
O6 Pd2 2.038622 1_555
O7 P1 1.545126 1_555
O7 Pd2 2.038622 1_555
O8 P2 1.545126 1_555
O8 Pd3 2.038622 1_555
O9 P3 1.545126 1_555
O9 Pd3 2.038622 1_555
O10 P0 1.530651 1_555
O10 Pd0 2.037787 1_455
O11 P1 1.530651 1_555
O11 Pd0 2.037787 1_565
O12 P2 1.530651 1_555
O12 Pd1 2.037787 1_655
O13 P3 1.530651 1_555
O13 Pd1 2.037787 1_545
O14 P5 1.639605 1_555
O14 P4 1.639605 1_555
O15 P6 1.639605 1_555
O15 P7 1.639605 1_555
O16 P4 1.524241 1_565
O16 Pd3 2.040268 1_555
O17 P5 1.524241 1_455
O17 Pd3 2.040268 1_555
O18 P6 1.524241 1_545
O18 Pd2 2.040268 1_555
O19 P7 1.524241 1_655
O19 Pd2 2.040268 1_555
O20 P4 1.543894 1_555
O20 Pd4 2.045271 1_555
O21 P5 1.543894 1_555
O21 Pd4 2.045271 1_555
O22 P6 1.543894 1_556
O22 Pd5 2.045271 1_555
O23 P7 1.543894 1_556
O23 Pd5 2.045271 1_555
O24 P4 1.539274 1_565
O24 Pd0 2.036339 1_565
O25 P5 1.539274 1_455
O25 Pd0 2.036339 1_455
O26 P6 1.539274 1_546
O26 Pd1 2.036339 1_545
O27 P7 1.539274 1_656
O27 Pd1 2.036339 1_655
