# generated using pymatgen
data_SrC6
_symmetry_space_group_name_H-M   'P 1'
_cell_length_a   4.32363887
_cell_length_b   4.32363887
_cell_length_c   9.79122364
_cell_angle_alpha   90.00000000
_cell_angle_beta   90.00000000
_cell_angle_gamma   120.00001569
_symmetry_Int_Tables_number   1
_chemical_formula_structural   SrC6
_chemical_formula_sum   'Sr2 C12'
_cell_volume   158.51353728
_cell_formula_units_Z   2
loop_
 _symmetry_equiv_pos_site_id
 _symmetry_equiv_pos_as_xyz
  1  'x, y, z'
loop_
 _atom_site_type_symbol
 _atom_site_label
 _atom_site_symmetry_multiplicity
 _atom_site_fract_x
 _atom_site_fract_y
 _atom_site_fract_z
 _atom_site_occupancy
  Sr  Sr0  1  0.66666700  0.33333300  0.75000000  1
  Sr  Sr1  1  0.33333300  0.66666700  0.25000000  1
  C  C0  1  0.66664027  0.66664027  0.00000000  1
  C  C1  1  0.33335973  0.33335973  -0.00000000  1
  C  C2  1  -0.00000000  0.33335973  -0.00000000  1
  C  C3  1  0.33335973  0.33335973  0.50000000  1
  C  C4  1  0.00000000  0.66664027  0.00000000  1
  C  C5  1  0.66664027  0.66664027  0.50000000  1
  C  C6  1  0.33335973  -0.00000000  0.00000000  1
  C  C7  1  0.00000000  0.66664027  0.50000000  1
  C  C8  1  0.66664027  0.00000000  -0.00000000  1
  C  C9  1  -0.00000000  0.33335973  0.50000000  1
  C  C10  1  0.66664027  0.00000000  0.50000000  1
  C  C11  1  0.33335973  -0.00000000  0.50000000  1
loop_
_geom_bond_atom_site_label_1
_geom_bond_atom_site_label_2
_geom_bond_distance
_geom_bond_site_symmetry_2
C0 C1 1.440984 1_555
C0 C4 1.441327 1_655
C0 C8 1.441327 1_565
C0 Sr0 2.840544 1_554
C0 Sr1 2.840544 1_555
C1 C2 1.441327 1_555
C1 C6 1.441327 1_555
C1 Sr1 2.840544 1_555
C1 Sr0 2.840544 1_554
C2 C4 1.440985 1_555
C2 C8 1.441327 1_455
C2 Sr0 2.840542 1_454
C2 Sr1 2.840543 1_555
C3 C5 1.440984 1_555
C3 C9 1.441327 1_555
C3 Sr1 2.840544 1_555
C3 Sr0 2.840544 1_555
C4 C6 1.441327 1_565
C4 Sr1 2.840542 1_555
C4 Sr0 2.840543 1_454
C5 C7 1.441327 1_655
C5 Sr1 2.840544 1_555
C5 Sr0 2.840544 1_555
C6 C8 1.440985 1_555
C6 Sr1 2.840542 1_545
C6 Sr0 2.840543 1_554
C7 C9 1.440985 1_555
C7 Sr1 2.840542 1_555
C7 Sr0 2.840543 1_455
C8 Sr0 2.840542 1_554
C8 Sr1 2.840543 1_545
C9 Sr0 2.840542 1_455
C9 Sr1 2.840543 1_555
C10 C11 1.440985 1_555
C10 C9 1.441327 1_655
C10 C5 1.441327 1_545
C10 Sr0 2.840542 1_555
C10 Sr1 2.840543 1_545
C11 C7 1.441327 1_545
C11 C3 1.441327 1_555
C11 Sr1 2.840542 1_545
C11 Sr0 2.840543 1_555
