# generated using pymatgen
data_Sr4Ti3Nb2O15
_symmetry_space_group_name_H-M   'P 1'
_cell_length_a   11.95525743
_cell_length_b   11.95525743
_cell_length_c   11.95525794
_cell_angle_alpha   27.18025983
_cell_angle_beta   27.18025983
_cell_angle_gamma   27.18026259
_symmetry_Int_Tables_number   1
_chemical_formula_structural   Sr4Ti3Nb2O15
_chemical_formula_sum   'Sr4 Ti3 Nb2 O15'
_cell_volume   314.56091367
_cell_formula_units_Z   1
loop_
 _symmetry_equiv_pos_site_id
 _symmetry_equiv_pos_as_xyz
  1  'x, y, z'
loop_
 _atom_site_type_symbol
 _atom_site_label
 _atom_site_symmetry_multiplicity
 _atom_site_fract_x
 _atom_site_fract_y
 _atom_site_fract_z
 _atom_site_occupancy
  Sr  Sr0  1  0.40095200  0.40095200  0.40095200  1
  Sr  Sr1  1  0.80130800  0.80130800  0.80130800  1
  Sr  Sr2  1  0.19869200  0.19869200  0.19869200  1
  Sr  Sr3  1  0.59904800  0.59904800  0.59904800  1
  Ti  Ti0  1  0.10034600  0.10034600  0.10034600  1
  Ti  Ti1  1  0.50000000  0.50000000  0.50000000  1
  Ti  Ti2  1  0.89965400  0.89965400  0.89965400  1
  Nb  Nb0  1  0.29965100  0.29965100  0.29965100  1
  Nb  Nb1  1  0.70034900  0.70034900  0.70034900  1
  O  O0  1  0.89975100  0.89975100  0.40865900  1
  O  O1  1  0.10024900  0.10024900  0.59134100  1
  O  O2  1  0.50000000  0.50000000  0.00000000  1
  O  O3  1  0.30042600  0.30042600  0.79982300  1
  O  O4  1  0.69957400  0.69957400  0.20017700  1
  O  O5  1  0.00000000  0.50000000  0.50000000  1
  O  O6  1  0.20017700  0.69957400  0.69957400  1
  O  O7  1  0.59134100  0.10024900  0.10024900  1
  O  O8  1  0.40865900  0.89975100  0.89975100  1
  O  O9  1  0.79982300  0.30042600  0.30042600  1
  O  O10  1  0.50000000  0.00000000  0.50000000  1
  O  O11  1  0.69957400  0.20017700  0.69957400  1
  O  O12  1  0.10024900  0.59134100  0.10024900  1
  O  O13  1  0.89975100  0.40865900  0.89975100  1
  O  O14  1  0.30042600  0.79982300  0.30042600  1
loop_
_geom_bond_atom_site_label_1
_geom_bond_atom_site_label_2
_geom_bond_distance
_geom_bond_site_symmetry_2
Nb0 O2 1.995604 1_555
Nb0 O5 1.995604 1_555
Nb0 O10 1.995604 1_555
Nb0 O1 2.014139 1_555
Nb0 O7 2.014140 1_555
Nb0 O12 2.014140 1_555
Nb1 O2 1.995604 1_556
Nb1 O5 1.995604 1_655
Nb1 O10 1.995604 1_565
Nb1 O0 2.014139 1_555
Nb1 O13 2.014140 1_555
Nb1 O8 2.014140 1_555
O0 Ti0 1.966525 1_665
O0 Sr1 2.758955 1_555
O0 Sr0 2.809995 1_655
O0 Sr0 2.809995 1_565
O1 Ti2 1.966525 1_445
O1 Sr2 2.758955 1_555
O1 Sr3 2.809995 1_545
O1 Sr3 2.809995 1_455
O2 Sr3 2.842374 1_554
O2 Sr0 2.842374 1_555
O3 Ti1 1.982526 1_555
O3 Ti0 1.987792 1_556
O3 Sr2 2.773504 1_556
O3 Sr0 2.793838 1_555
O3 Sr1 2.809432 1_455
O3 Sr1 2.809432 1_545
O4 Ti1 1.982526 1_555
O4 Ti2 1.987792 1_554
O4 Sr1 2.773504 1_554
O4 Sr3 2.793838 1_555
O4 Sr2 2.809432 1_655
O4 Sr2 2.809432 1_565
O5 Sr3 2.842374 1_455
O5 Sr0 2.842374 1_555
O6 Ti1 1.982526 1_555
O6 Ti2 1.987792 1_455
O6 Sr1 2.773504 1_455
O6 Sr3 2.793837 1_555
O6 Sr2 2.809432 1_556
O6 Sr2 2.809432 1_565
O7 Ti2 1.966525 1_544
O7 Sr2 2.758954 1_555
O7 Sr3 2.809995 1_554
O7 Sr3 2.809995 1_545
O8 Ti0 1.966525 1_566
O8 Sr1 2.758954 1_555
O8 Sr0 2.809995 1_556
O8 Sr0 2.809995 1_565
O9 Ti1 1.982526 1_555
O9 Ti0 1.987792 1_655
O9 Sr2 2.773504 1_655
O9 Sr0 2.793837 1_555
O9 Sr1 2.809432 1_554
O9 Sr1 2.809432 1_545
O10 Sr0 2.842374 1_555
O10 Sr3 2.842374 1_545
O11 Ti1 1.982526 1_555
O11 Ti2 1.987792 1_545
O11 Sr1 2.773504 1_545
O11 Sr3 2.793837 1_555
O11 Sr2 2.809432 1_556
O11 Sr2 2.809432 1_655
O12 Ti2 1.966525 1_454
O12 Sr2 2.758954 1_555
O12 Sr3 2.809995 1_554
O12 Sr3 2.809995 1_455
O13 Ti0 1.966525 1_656
O13 Sr1 2.758954 1_555
O13 Sr0 2.809995 1_556
O13 Sr0 2.809995 1_655
O14 Ti1 1.982526 1_555
O14 Ti0 1.987792 1_565
O14 Sr2 2.773504 1_565
O14 Sr0 2.793837 1_555
O14 Sr1 2.809432 1_554
O14 Sr1 2.809432 1_455
