# generated using pymatgen
data_Tb5Ge3C
_symmetry_space_group_name_H-M   'P 1'
_cell_length_a   8.54581845
_cell_length_b   8.54581845
_cell_length_c   6.49644700
_cell_angle_alpha   90.00000000
_cell_angle_beta   90.00000000
_cell_angle_gamma   120.00000346
_symmetry_Int_Tables_number   1
_chemical_formula_structural   Tb5Ge3C
_chemical_formula_sum   'Tb10 Ge6 C2'
_cell_volume   410.87890108
_cell_formula_units_Z   2
loop_
 _symmetry_equiv_pos_site_id
 _symmetry_equiv_pos_as_xyz
  1  'x, y, z'
loop_
 _atom_site_type_symbol
 _atom_site_label
 _atom_site_symmetry_multiplicity
 _atom_site_fract_x
 _atom_site_fract_y
 _atom_site_fract_z
 _atom_site_occupancy
  Tb  Tb0  1  0.66666700  0.33333300  0.00000000  1
  Tb  Tb1  1  0.33333300  0.66666700  0.00000000  1
  Tb  Tb2  1  0.33333300  0.66666700  0.50000000  1
  Tb  Tb3  1  0.66666700  0.33333300  0.50000000  1
  Tb  Tb4  1  0.77754400  0.77754400  0.75000000  1
  Tb  Tb5  1  0.22245600  0.00000000  0.75000000  1
  Tb  Tb6  1  0.00000000  0.22245600  0.75000000  1
  Tb  Tb7  1  0.22245600  0.22245600  0.25000000  1
  Tb  Tb8  1  0.77754400  0.00000000  0.25000000  1
  Tb  Tb9  1  0.00000000  0.77754400  0.25000000  1
  Ge  Ge0  1  0.40827000  0.40827000  0.75000000  1
  Ge  Ge1  1  0.59173000  0.00000000  0.75000000  1
  Ge  Ge2  1  0.00000000  0.59173000  0.75000000  1
  Ge  Ge3  1  0.59173000  0.59173000  0.25000000  1
  Ge  Ge4  1  0.40827000  0.00000000  0.25000000  1
  Ge  Ge5  1  0.00000000  0.40827000  0.25000000  1
  C  C0  1  0.00000000  0.00000000  0.00000000  1
  C  C1  1  0.00000000  0.00000000  0.50000000  1
loop_
_geom_bond_atom_site_label_1
_geom_bond_atom_site_label_2
_geom_bond_distance
_geom_bond_site_symmetry_2
Ge0 Tb5 3.025617 1_555
Ge0 Tb6 3.025617 1_555
Ge0 Tb0 3.055846 1_556
Ge0 Tb3 3.055846 1_555
Ge0 Tb1 3.055846 1_556
Ge0 Tb2 3.055846 1_555
Ge0 Tb4 3.155748 1_555
Ge0 Tb7 3.615589 1_556
Ge0 Tb7 3.615589 1_555
Ge1 Tb6 3.025617 1_655
Ge1 Tb4 3.025618 1_545
Ge1 Tb3 3.055839 1_555
Ge1 Tb0 3.055839 1_556
Ge1 Tb1 3.055841 1_546
Ge1 Tb2 3.055841 1_545
Ge1 Tb5 3.155749 1_555
Ge1 Tb8 3.615589 1_555
Ge1 Tb8 3.615589 1_556
Ge2 Tb5 3.025617 1_565
Ge2 Tb4 3.025618 1_455
Ge2 Tb2 3.055839 1_555
Ge2 Tb1 3.055839 1_556
Ge2 Tb0 3.055841 1_456
Ge2 Tb3 3.055841 1_455
Ge2 Tb6 3.155749 1_555
Ge2 Tb9 3.615589 1_555
Ge2 Tb9 3.615589 1_556
Ge3 Tb8 3.025617 1_565
Ge3 Tb9 3.025617 1_655
Ge3 Tb0 3.055846 1_555
Ge3 Tb3 3.055846 1_555
Ge3 Tb1 3.055846 1_555
Ge3 Tb2 3.055846 1_555
Ge3 Tb7 3.155748 1_555
Ge3 Tb4 3.615589 1_555
Ge3 Tb4 3.615589 1_554
Ge4 Tb9 3.025617 1_545
Ge4 Tb7 3.025618 1_555
Ge4 Tb1 3.055839 1_545
Ge4 Tb2 3.055839 1_545
Ge4 Tb0 3.055841 1_555
Ge4 Tb3 3.055841 1_555
Ge4 Tb8 3.155749 1_555
Ge4 Tb5 3.615589 1_554
Ge4 Tb5 3.615589 1_555
Ge5 Tb8 3.025617 1_455
Ge5 Tb7 3.025618 1_555
Ge5 Tb3 3.055839 1_455
Ge5 Tb0 3.055839 1_455
Ge5 Tb1 3.055841 1_555
Ge5 Tb2 3.055841 1_555
Ge5 Tb9 3.155749 1_555
Ge5 Tb6 3.615589 1_555
Ge5 Tb6 3.615589 1_554
C0 Tb7 2.500360 1_555
C0 Tb4 2.500360 1_444
C0 Tb8 2.500360 1_455
C0 Tb6 2.500360 1_554
C0 Tb9 2.500360 1_545
C0 Tb5 2.500360 1_554
C1 Tb7 2.500360 1_555
C1 Tb4 2.500360 1_445
C1 Tb5 2.500360 1_555
C1 Tb8 2.500360 1_455
C1 Tb6 2.500360 1_555
C1 Tb9 2.500360 1_545
