# generated using pymatgen
data_Ti3NbNi2(PO4)6
_symmetry_space_group_name_H-M   'P 1'
_cell_length_a   8.63109050
_cell_length_b   8.63109050
_cell_length_c   8.63109059
_cell_angle_alpha   60.68437447
_cell_angle_beta   60.68437447
_cell_angle_gamma   60.68436856
_symmetry_Int_Tables_number   1
_chemical_formula_structural   Ti3NbNi2(PO4)6
_chemical_formula_sum   'Ti3 Nb1 Ni2 P6 O24'
_cell_volume   461.67856165
_cell_formula_units_Z   1
loop_
 _symmetry_equiv_pos_site_id
 _symmetry_equiv_pos_as_xyz
  1  'x, y, z'
loop_
 _atom_site_type_symbol
 _atom_site_label
 _atom_site_symmetry_multiplicity
 _atom_site_fract_x
 _atom_site_fract_y
 _atom_site_fract_z
 _atom_site_occupancy
  Ti  Ti0  1  0.85800200  0.85800200  0.85800200  1
  Ti  Ti1  1  0.64508900  0.64508900  0.64508900  1
  Ti  Ti2  1  0.35422400  0.35422400  0.35422400  1
  Nb  Nb0  1  0.14065300  0.14065300  0.14065300  1
  Ni  Ni0  1  0.99861200  0.99861200  0.99861200  1
  Ni  Ni1  1  0.50017100  0.50017100  0.50017100  1
  P  P0  1  0.95127700  0.25175200  0.54565100  1
  P  P1  1  0.54565100  0.95127700  0.25175200  1
  P  P2  1  0.74263000  0.46516700  0.04665800  1
  P  P3  1  0.46516700  0.04665800  0.74263000  1
  P  P4  1  0.04665800  0.74263000  0.46516700  1
  P  P5  1  0.25175200  0.54565100  0.95127700  1
  O  O0  1  0.88922300  0.67868300  0.50468600  1
  O  O1  1  0.67868300  0.50468600  0.88922300  1
  O  O2  1  0.93611500  0.09043700  0.73423300  1
  O  O3  1  0.50468600  0.88922300  0.67868300  1
  O  O4  1  0.99488200  0.18762400  0.38531200  1
  O  O5  1  0.75844000  0.41377100  0.55644000  1
  O  O6  1  0.73423300  0.93611500  0.09043700  1
  O  O7  1  0.55644000  0.75844000  0.41377100  1
  O  O8  1  0.81072600  0.62066400  0.00169500  1
  O  O9  1  0.41377100  0.55644000  0.75844000  1
  O  O10  1  0.90367300  0.27171600  0.06340000  1
  O  O11  1  0.62066400  0.00169500  0.81072600  1
  O  O12  1  0.38531200  0.99488200  0.18762400  1
  O  O13  1  0.09043700  0.73423300  0.93611500  1
  O  O14  1  0.58281900  0.44828500  0.24137300  1
  O  O15  1  0.18762400  0.38531200  0.99488200  1
  O  O16  1  0.44828500  0.24137300  0.58281900  1
  O  O17  1  0.27171600  0.06340000  0.90367300  1
  O  O18  1  0.24137300  0.58281900  0.44828500  1
  O  O19  1  0.00169500  0.81072600  0.62066400  1
  O  O20  1  0.49783800  0.11294000  0.31513700  1
  O  O21  1  0.06340000  0.90367300  0.27171600  1
  O  O22  1  0.31513700  0.49783800  0.11294000  1
  O  O23  1  0.11294000  0.31513700  0.49783800  1
loop_
_geom_bond_atom_site_label_1
_geom_bond_atom_site_label_2
_geom_bond_distance
_geom_bond_site_symmetry_2
Nb0 O12 1.985866 1_545
Nb0 O4 1.985866 1_455
Nb0 O15 1.985866 1_554
Nb0 O10 2.058892 1_455
Nb0 O17 2.058892 1_554
Nb0 O21 2.058892 1_545
Ni0 O13 2.267556 1_655
Ni0 O2 2.267556 1_565
Ni0 O6 2.267556 1_556
Ni0 O10 2.343306 1_566
Ni0 O21 2.343306 1_656
Ni0 O17 2.343306 1_665
Ni1 O18 2.192095 1_555
Ni1 O14 2.192095 1_555
Ni1 O16 2.192095 1_555
Ni1 O5 2.199709 1_555
Ni1 O9 2.199709 1_555
Ni1 O7 2.199709 1_555
O0 P4 1.537402 1_655
O0 Ti1 1.935555 1_555
O1 P2 1.537402 1_556
O1 Ti1 1.935555 1_555
O2 P0 1.534810 1_555
O2 Ti0 2.034951 1_545
O3 P3 1.537402 1_565
O3 Ti1 1.935555 1_555
O4 P0 1.548949 1_555
O5 P0 1.559158 1_555
O5 Ti1 2.092570 1_555
O6 P1 1.534810 1_555
O6 Ti0 2.034951 1_554
O7 P1 1.559158 1_555
O7 Ti1 2.092570 1_555
O8 P2 1.528514 1_555
O8 Ti0 1.932891 1_554
O9 P5 1.559158 1_555
O9 Ti1 2.092570 1_555
O10 P2 1.558382 1_555
O11 P3 1.528514 1_555
O11 Ti0 1.932891 1_545
O12 P1 1.548949 1_555
O13 P5 1.534810 1_555
O13 Ti0 2.034951 1_455
O14 P2 1.560530 1_555
O14 Ti2 2.100706 1_555
O15 P5 1.548949 1_555
O16 P3 1.560530 1_555
O16 Ti2 2.100706 1_555
O17 P3 1.558382 1_555
O18 P4 1.560530 1_555
O18 Ti2 2.100706 1_555
O19 P4 1.528514 1_555
O19 Ti0 1.932891 1_455
O20 P1 1.542434 1_545
O20 Ti2 1.933378 1_555
O21 P4 1.558382 1_555
O22 P5 1.542434 1_554
O22 Ti2 1.933378 1_555
O23 P0 1.542434 1_455
O23 Ti2 1.933378 1_555
