# generated using pymatgen
data_NbAlVC
_symmetry_space_group_name_H-M   'P 1'
_cell_length_a   6.08973147
_cell_length_b   6.08973147
_cell_length_c   26.92155200
_cell_angle_alpha   90.00000000
_cell_angle_beta   90.00000000
_cell_angle_gamma   119.99999422
_symmetry_Int_Tables_number   1
_chemical_formula_structural   NbAlVC
_chemical_formula_sum   'Nb16 Al16 V16 C16'
_cell_volume   864.62349916
_cell_formula_units_Z   16
loop_
 _symmetry_equiv_pos_site_id
 _symmetry_equiv_pos_as_xyz
  1  'x, y, z'
loop_
 _atom_site_type_symbol
 _atom_site_label
 _atom_site_symmetry_multiplicity
 _atom_site_fract_x
 _atom_site_fract_y
 _atom_site_fract_z
 _atom_site_occupancy
  Nb  Nb0_0  1  0.16666650  0.33333350  0.20251100  1
  Nb  Nb0_1  1  0.16666650  0.33333350  0.70251100  1
  Nb  Nb0_2  1  0.16666650  0.83333350  0.20251100  1
  Nb  Nb0_3  1  0.16666650  0.83333350  0.70251100  1
  Nb  Nb0_4  1  0.66666650  0.33333350  0.20251100  1
  Nb  Nb0_5  1  0.66666650  0.33333350  0.70251100  1
  Nb  Nb0_6  1  0.66666650  0.83333350  0.20251100  1
  Nb  Nb0_7  1  0.66666650  0.83333350  0.70251100  1
  Nb  Nb1_0  1  0.33333350  0.16666650  0.29748900  1
  Nb  Nb1_1  1  0.33333350  0.16666650  0.79748900  1
  Nb  Nb1_2  1  0.33333350  0.66666650  0.29748900  1
  Nb  Nb1_3  1  0.33333350  0.66666650  0.79748900  1
  Nb  Nb1_4  1  0.83333350  0.16666650  0.29748900  1
  Nb  Nb1_5  1  0.83333350  0.16666650  0.79748900  1
  Nb  Nb1_6  1  0.83333350  0.66666650  0.29748900  1
  Nb  Nb1_7  1  0.83333350  0.66666650  0.79748900  1
  Al  Al0_0  1  0.16666650  0.33333350  0.38184350  1
  Al  Al0_1  1  0.16666650  0.33333350  0.88184350  1
  Al  Al0_2  1  0.16666650  0.83333350  0.38184350  1
  Al  Al0_3  1  0.16666650  0.83333350  0.88184350  1
  Al  Al0_4  1  0.66666650  0.33333350  0.38184350  1
  Al  Al0_5  1  0.66666650  0.33333350  0.88184350  1
  Al  Al0_6  1  0.66666650  0.83333350  0.38184350  1
  Al  Al0_7  1  0.66666650  0.83333350  0.88184350  1
  Al  Al1_0  1  0.33333350  0.16666650  0.11815650  1
  Al  Al1_1  1  0.33333350  0.16666650  0.61815650  1
  Al  Al1_2  1  0.33333350  0.66666650  0.11815650  1
  Al  Al1_3  1  0.33333350  0.66666650  0.61815650  1
  Al  Al1_4  1  0.83333350  0.16666650  0.11815650  1
  Al  Al1_5  1  0.83333350  0.16666650  0.61815650  1
  Al  Al1_6  1  0.83333350  0.66666650  0.11815650  1
  Al  Al1_7  1  0.83333350  0.66666650  0.61815650  1
  V  V0_0  1  0.33333350  0.16666650  0.46082600  1
  V  V0_1  1  0.33333350  0.16666650  0.96082600  1
  V  V0_2  1  0.33333350  0.66666650  0.46082600  1
  V  V0_3  1  0.33333350  0.66666650  0.96082600  1
  V  V0_4  1  0.83333350  0.16666650  0.46082600  1
  V  V0_5  1  0.83333350  0.16666650  0.96082600  1
  V  V0_6  1  0.83333350  0.66666650  0.46082600  1
  V  V0_7  1  0.83333350  0.66666650  0.96082600  1
  V  V1_0  1  0.16666650  0.33333350  0.03917400  1
  V  V1_1  1  0.16666650  0.33333350  0.53917400  1
  V  V1_2  1  0.16666650  0.83333350  0.03917400  1
  V  V1_3  1  0.16666650  0.83333350  0.53917400  1
  V  V1_4  1  0.66666650  0.33333350  0.03917400  1
  V  V1_5  1  0.66666650  0.33333350  0.53917400  1
  V  V1_6  1  0.66666650  0.83333350  0.03917400  1
  V  V1_7  1  0.66666650  0.83333350  0.53917400  1
  C  C0_0  1  0.00000000  0.00000000  0.25000000  1
  C  C0_1  1  0.00000000  0.00000000  0.75000000  1
  C  C0_2  1  0.00000000  0.50000000  0.25000000  1
  C  C0_3  1  0.00000000  0.50000000  0.75000000  1
  C  C0_4  1  0.50000000  0.00000000  0.25000000  1
  C  C0_5  1  0.50000000  0.00000000  0.75000000  1
  C  C0_6  1  0.50000000  0.50000000  0.25000000  1
  C  C0_7  1  0.50000000  0.50000000  0.75000000  1
  C  C1_0  1  0.00000000  0.00000000  0.00000000  1
  C  C1_1  1  0.00000000  0.00000000  0.50000000  1
  C  C1_2  1  0.00000000  0.50000000  0.00000000  1
  C  C1_3  1  0.00000000  0.50000000  0.50000000  1
  C  C1_4  1  0.50000000  0.00000000  0.00000000  1
  C  C1_5  1  0.50000000  0.00000000  0.50000000  1
  C  C1_6  1  0.50000000  0.50000000  0.00000000  1
  C  C1_7  1  0.50000000  0.50000000  0.50000000  1
loop_
_geom_bond_atom_site_label_1
_geom_bond_atom_site_label_2
_geom_bond_distance
_geom_bond_site_symmetry_2
Al0_0 V0_2 2.758928 1_555
Al0_0 V0_4 2.758928 1_455
Al0_0 V0_0 2.758931 1_555
Al0_0 Nb1_2 2.871869 1_555
Al0_0 Nb1_4 2.871869 1_455
Al0_0 Nb1_0 2.871872 1_555
Al0_0 Al0_2 3.044866 1_555
Al0_0 Al0_4 3.044866 1_455
Al0_0 Al0_4 3.044866 1_555
Al0_0 Al0_2 3.044866 1_545
Al0_0 Al0_6 3.044866 1_555
Al0_0 Al0_6 3.044866 1_445
Al0_1 V0_5 2.758928 1_455
Al0_1 V0_3 2.758928 1_555
Al0_1 V0_1 2.758931 1_555
Al0_1 Nb1_5 2.871869 1_455
Al0_1 Nb1_3 2.871869 1_555
Al0_1 Nb1_1 2.871872 1_555
Al0_1 Al0_3 3.044866 1_555
Al0_1 Al0_5 3.044866 1_455
Al0_1 Al0_5 3.044866 1_555
Al0_1 Al0_3 3.044866 1_545
Al0_1 Al0_7 3.044866 1_555
Al0_1 Al0_7 3.044866 1_445
Al0_2 V0_0 2.758928 1_565
Al0_2 V0_6 2.758928 1_455
Al0_2 V0_2 2.758931 1_555
Al0_2 Nb1_6 2.871869 1_455
Al0_2 Nb1_0 2.871869 1_565
Al0_2 Nb1_2 2.871872 1_555
Al0_2 Al0_6 3.044866 1_455
Al0_2 Al0_6 3.044866 1_555
Al0_2 Al0_4 3.044866 1_565
Al0_2 Al0_4 3.044866 1_455
Al0_3 V0_1 2.758928 1_565
Al0_3 V0_7 2.758928 1_455
Al0_3 V0_3 2.758931 1_555
Al0_3 Nb1_1 2.871869 1_565
Al0_3 Nb1_7 2.871869 1_455
Al0_3 Nb1_3 2.871872 1_555
Al0_3 Al0_7 3.044866 1_555
Al0_3 Al0_7 3.044866 1_455
Al0_3 Al0_5 3.044866 1_565
Al0_3 Al0_5 3.044866 1_455
Al0_4 V0_0 2.758928 1_555
Al0_4 V0_6 2.758928 1_555
Al0_4 V0_4 2.758931 1_555
Al0_4 Nb1_0 2.871869 1_555
Al0_4 Nb1_6 2.871869 1_555
Al0_4 Nb1_4 2.871872 1_555
Al0_4 Al0_6 3.044866 1_555
Al0_4 Al0_6 3.044866 1_545
Al0_5 V0_1 2.758928 1_555
Al0_5 V0_7 2.758928 1_555
Al0_5 V0_5 2.758931 1_555
Al0_5 Nb1_1 2.871869 1_555
Al0_5 Nb1_7 2.871869 1_555
Al0_5 Nb1_5 2.871872 1_555
Al0_5 Al0_7 3.044866 1_555
Al0_5 Al0_7 3.044866 1_545
Al0_6 V0_4 2.758928 1_565
Al0_6 V0_2 2.758928 1_555
Al0_6 V0_6 2.758931 1_555
Al0_6 Nb1_4 2.871869 1_565
Al0_6 Nb1_2 2.871869 1_555
Al0_6 Nb1_6 2.871872 1_555
Al0_7 V0_5 2.758928 1_565
Al0_7 V0_3 2.758928 1_555
Al0_7 V0_7 2.758931 1_555
Al0_7 Nb1_3 2.871869 1_555
Al0_7 Nb1_5 2.871869 1_565
Al0_7 Nb1_7 2.871872 1_555
Al1_0 V1_4 2.758928 1_555
Al1_0 V1_2 2.758928 1_545
Al1_0 V1_0 2.758931 1_555
Al1_0 Nb0_4 2.871869 1_555
Al1_0 Nb0_2 2.871869 1_545
Al1_0 Nb0_0 2.871872 1_555
Al1_0 Al1_4 3.044866 1_555
Al1_0 Al1_2 3.044866 1_555
Al1_0 Al1_4 3.044866 1_455
Al1_0 Al1_2 3.044866 1_545
Al1_0 Al1_6 3.044866 1_555
Al1_0 Al1_6 3.044866 1_445
Al1_1 V1_5 2.758928 1_555
Al1_1 V1_3 2.758928 1_545
Al1_1 V1_1 2.758931 1_555
Al1_1 Nb0_5 2.871869 1_555
Al1_1 Nb0_3 2.871869 1_545
Al1_1 Nb0_1 2.871872 1_555
Al1_1 Al1_3 3.044866 1_555
Al1_1 Al1_5 3.044866 1_555
Al1_1 Al1_5 3.044866 1_455
Al1_1 Al1_3 3.044866 1_545
Al1_1 Al1_7 3.044866 1_445
Al1_1 Al1_7 3.044866 1_555
Al1_2 V1_0 2.758928 1_555
Al1_2 V1_6 2.758928 1_555
Al1_2 V1_2 2.758931 1_555
Al1_2 Nb0_6 2.871869 1_555
Al1_2 Nb0_0 2.871869 1_555
Al1_2 Nb0_2 2.871872 1_555
Al1_2 Al1_6 3.044866 1_555
Al1_2 Al1_6 3.044866 1_455
Al1_2 Al1_4 3.044866 1_455
Al1_2 Al1_4 3.044866 1_565
Al1_3 V1_1 2.758928 1_555
Al1_3 V1_7 2.758928 1_555
Al1_3 V1_3 2.758931 1_555
Al1_3 Nb0_7 2.871869 1_555
Al1_3 Nb0_1 2.871869 1_555
Al1_3 Nb0_3 2.871872 1_555
Al1_3 Al1_7 3.044866 1_555
Al1_3 Al1_7 3.044866 1_455
Al1_3 Al1_5 3.044866 1_455
Al1_3 Al1_5 3.044866 1_565
Al1_4 V1_0 2.758928 1_655
Al1_4 V1_6 2.758928 1_545
Al1_4 V1_4 2.758931 1_555
Al1_4 Nb0_0 2.871869 1_655
Al1_4 Nb0_6 2.871869 1_545
Al1_4 Nb0_4 2.871872 1_555
Al1_4 Al1_6 3.044866 1_555
Al1_4 Al1_6 3.044866 1_545
Al1_5 V1_1 2.758928 1_655
Al1_5 V1_7 2.758928 1_545
Al1_5 V1_5 2.758931 1_555
Al1_5 Nb0_1 2.871869 1_655
Al1_5 Nb0_7 2.871869 1_545
Al1_5 Nb0_5 2.871872 1_555
Al1_5 Al1_7 3.044866 1_545
Al1_5 Al1_7 3.044866 1_555
Al1_6 V1_2 2.758928 1_655
Al1_6 V1_4 2.758928 1_555
Al1_6 V1_6 2.758931 1_555
Al1_6 Nb0_4 2.871869 1_555
Al1_6 Nb0_2 2.871869 1_655
Al1_6 Nb0_6 2.871872 1_555
Al1_7 V1_5 2.758928 1_555
Al1_7 V1_3 2.758928 1_655
Al1_7 V1_7 2.758931 1_555
Al1_7 Nb0_5 2.871869 1_555
Al1_7 Nb0_3 2.871869 1_655
Al1_7 Nb0_7 2.871872 1_555
C0_0 Nb1_4 2.173684 1_455
C0_0 Nb0_2 2.173684 1_545
C0_0 Nb0_0 2.173686 1_555
C0_0 Nb0_6 2.173686 1_445
C0_0 Nb1_0 2.173686 1_555
C0_0 Nb1_6 2.173686 1_445
C0_1 Nb1_5 2.173684 1_455
C0_1 Nb0_3 2.173684 1_545
C0_1 Nb1_1 2.173686 1_555
C0_1 Nb1_7 2.173686 1_445
C0_1 Nb0_1 2.173686 1_555
C0_1 Nb0_7 2.173686 1_445
C0_2 Nb0_0 2.173684 1_555
C0_2 Nb1_6 2.173684 1_455
C0_2 Nb0_2 2.173686 1_555
C0_2 Nb1_4 2.173686 1_455
C0_2 Nb0_4 2.173686 1_455
C0_2 Nb1_2 2.173686 1_555
C0_3 Nb1_7 2.173684 1_455
C0_3 Nb0_1 2.173684 1_555
C0_3 Nb1_3 2.173686 1_555
C0_3 Nb1_5 2.173686 1_455
C0_3 Nb0_3 2.173686 1_555
C0_3 Nb0_5 2.173686 1_455
C0_4 Nb1_0 2.173684 1_555
C0_4 Nb0_6 2.173684 1_545
C0_4 Nb0_4 2.173686 1_555
C0_4 Nb0_2 2.173686 1_545
C0_4 Nb1_4 2.173686 1_555
C0_4 Nb1_2 2.173686 1_545
C0_5 Nb1_1 2.173684 1_555
C0_5 Nb0_7 2.173684 1_545
C0_5 Nb1_5 2.173686 1_555
C0_5 Nb1_3 2.173686 1_545
C0_5 Nb0_5 2.173686 1_555
C0_5 Nb0_3 2.173686 1_545
C0_6 Nb1_2 2.173684 1_555
C0_6 Nb0_4 2.173684 1_555
C0_6 Nb1_6 2.173686 1_555
C0_6 Nb1_0 2.173686 1_555
C0_6 Nb0_6 2.173686 1_555
C0_6 Nb0_0 2.173686 1_555
C0_7 Nb1_3 2.173684 1_555
C0_7 Nb0_5 2.173684 1_555
C0_7 Nb1_7 2.173686 1_555
C0_7 Nb1_1 2.173686 1_555
C0_7 Nb0_7 2.173686 1_555
C0_7 Nb0_1 2.173686 1_555
C1_0 V1_2 2.050032 1_545
C1_0 V0_5 2.050032 1_454
C1_0 V1_6 2.050034 1_445
C1_0 V1_0 2.050034 1_555
C1_0 V0_1 2.050034 1_554
C1_0 V0_7 2.050034 1_444
C1_1 V1_3 2.050032 1_545
C1_1 V0_4 2.050032 1_455
C1_1 V1_7 2.050034 1_445
C1_1 V1_1 2.050034 1_555
C1_1 V0_0 2.050034 1_555
C1_1 V0_6 2.050034 1_445
C1_2 V1_0 2.050032 1_555
C1_2 V0_7 2.050032 1_454
C1_2 V1_2 2.050034 1_555
C1_2 V1_4 2.050034 1_455
C1_2 V0_3 2.050034 1_554
C1_2 V0_5 2.050034 1_454
C1_3 V1_1 2.050032 1_555
C1_3 V0_6 2.050032 1_455
C1_3 V1_3 2.050034 1_555
C1_3 V1_5 2.050034 1_455
C1_3 V0_2 2.050034 1_555
C1_3 V0_4 2.050034 1_455
C1_4 V1_6 2.050032 1_545
C1_4 V0_1 2.050032 1_554
C1_4 V1_2 2.050034 1_545
C1_4 V1_4 2.050034 1_555
C1_4 V0_5 2.050034 1_554
C1_4 V0_3 2.050034 1_544
C1_5 V1_7 2.050032 1_545
C1_5 V0_0 2.050032 1_555
C1_5 V1_5 2.050034 1_555
C1_5 V1_3 2.050034 1_545
C1_5 V0_4 2.050034 1_555
C1_5 V0_2 2.050034 1_545
C1_6 V1_4 2.050032 1_555
C1_6 V0_3 2.050032 1_554
C1_6 V1_6 2.050034 1_555
C1_6 V1_0 2.050034 1_555
C1_6 V0_7 2.050034 1_554
C1_6 V0_1 2.050034 1_554
C1_7 V1_5 2.050032 1_555
C1_7 V0_2 2.050032 1_555
C1_7 V1_7 2.050034 1_555
C1_7 V1_1 2.050034 1_555
C1_7 V0_6 2.050034 1_555
C1_7 V0_0 2.050034 1_555
