# generated using pymatgen
data_HfCrCuS4
_symmetry_space_group_name_H-M   'P 1'
_cell_length_a   11.52753834
_cell_length_b   3.57571100
_cell_length_c   12.43886993
_cell_angle_alpha   90.00000000
_cell_angle_beta   91.00820997
_cell_angle_gamma   90.00000000
_symmetry_Int_Tables_number   1
_chemical_formula_structural   HfCrCuS4
_chemical_formula_sum   'Hf4 Cr4 Cu4 S16'
_cell_volume   512.64021434
_cell_formula_units_Z   4
loop_
 _symmetry_equiv_pos_site_id
 _symmetry_equiv_pos_as_xyz
  1  'x, y, z'
loop_
 _atom_site_type_symbol
 _atom_site_label
 _atom_site_symmetry_multiplicity
 _atom_site_fract_x
 _atom_site_fract_y
 _atom_site_fract_z
 _atom_site_occupancy
  Hf  Hf0  1  0.88526800  0.75000000  0.92485800  1
  Hf  Hf1  1  0.15939300  0.25000000  0.67476100  1
  Hf  Hf2  1  0.85091800  0.75000000  0.30813900  1
  Hf  Hf3  1  0.35056900  0.75000000  0.19814200  1
  Cr  Cr0  1  0.11401700  0.25000000  0.06809000  1
  Cr  Cr1  1  0.39439200  0.75000000  0.56993300  1
  Cr  Cr2  1  0.61561500  0.25000000  0.43779600  1
  Cr  Cr3  1  0.64164100  0.25000000  0.80517600  1
  Cu  Cu0  1  0.10999900  0.75000000  0.46685000  1
  Cu  Cu1  1  0.88299800  0.25000000  0.54699000  1
  Cu  Cu2  1  0.40442000  0.25000000  0.93760300  1
  Cu  Cu3  1  0.59743200  0.75000000  0.05786200  1
  S  S0  1  0.00931000  0.75000000  0.62729500  1
  S  S1  1  0.98743300  0.25000000  0.38260900  1
  S  S2  1  0.47885500  0.25000000  0.11907600  1
  S  S3  1  0.52423800  0.75000000  0.88092200  1
  S  S4  1  0.03558300  0.25000000  0.87883200  1
  S  S5  1  0.97603600  0.75000000  0.12155200  1
  S  S6  1  0.47888000  0.75000000  0.38934600  1
  S  S7  1  0.52757100  0.25000000  0.61713800  1
  S  S8  1  0.20851900  0.25000000  0.24421600  1
  S  S9  1  0.76812300  0.75000000  0.75462900  1
  S  S10  1  0.29182300  0.75000000  0.74174000  1
  S  S11  1  0.71038500  0.25000000  0.25688600  1
  S  S12  1  0.24289300  0.75000000  0.01723900  1
  S  S13  1  0.74417000  0.25000000  0.98092700  1
  S  S14  1  0.26141600  0.25000000  0.50392900  1
  S  S15  1  0.74810300  0.75000000  0.48746500  1
loop_
_geom_bond_atom_site_label_1
_geom_bond_atom_site_label_2
_geom_bond_distance
_geom_bond_site_symmetry_2
Hf0 S9 2.491296 1_555
Hf0 S13 2.523550 1_565
Hf0 S13 2.523550 1_555
Hf0 S4 2.561556 1_655
Hf0 S4 2.561556 1_665
Hf0 S5 2.644016 1_556
Hf1 S14 2.446741 1_555
Hf1 S10 2.485212 1_555
Hf1 S10 2.485212 1_545
Hf1 S0 2.549957 1_555
Hf1 S0 2.549957 1_545
Hf1 S4 2.933940 1_555
Hf2 S11 2.488157 1_555
Hf2 S11 2.488157 1_565
Hf2 S15 2.544283 1_555
Hf2 S1 2.545521 1_565
Hf2 S1 2.545521 1_555
Hf2 S5 2.754045 1_555
Hf3 S8 2.497853 1_555
Hf3 S8 2.497853 1_565
Hf3 S2 2.530174 1_555
Hf3 S2 2.530174 1_565
Hf3 S12 2.550669 1_555
Hf3 S6 2.778592 1_555
Cr0 S12 2.415919 1_545
Cr0 S12 2.415919 1_555
Cr0 S8 2.429484 1_555
Cr0 S5 2.491151 1_455
Cr0 S5 2.491151 1_445
Cr0 S4 2.506917 1_554
Cr1 S7 2.422065 1_555
Cr1 S7 2.422065 1_565
Cr1 S10 2.460498 1_555
Cr1 S6 2.464022 1_555
Cr1 S14 2.485145 1_555
Cr1 S14 2.485145 1_565
Cr2 S15 2.424346 1_555
Cr2 S15 2.424346 1_545
Cr2 S6 2.451666 1_555
Cr2 S6 2.451666 1_545
Cr2 S7 2.467039 1_555
Cr2 S11 2.518713 1_555
Cr3 S9 2.397885 1_555
Cr3 S9 2.397885 1_545
Cr3 S3 2.441441 1_555
Cr3 S3 2.441441 1_545
Cr3 S13 2.466820 1_555
Cr3 S7 2.663020 1_555
Cu0 S0 2.326321 1_555
Cu0 S1 2.497716 1_455
Cu0 S1 2.497716 1_465
Cu0 S14 2.535246 1_555
Cu0 S14 2.535246 1_565
Cu1 S1 2.390984 1_555
Cu1 S15 2.474305 1_545
Cu1 S15 2.474305 1_555
Cu1 S0 2.502635 1_655
Cu1 S0 2.502635 1_645
Cu2 S3 2.373925 1_555
Cu2 S3 2.373925 1_545
Cu2 S2 2.400746 1_556
Cu2 S12 2.776628 1_556
Cu2 S12 2.776628 1_546
Cu3 S3 2.343217 1_554
Cu3 S2 2.383538 1_555
Cu3 S2 2.383538 1_565
Cu3 S13 2.651505 1_564
Cu3 S13 2.651505 1_554
