# generated using pymatgen
data_Bi2O3
_symmetry_space_group_name_H-M   'P 1'
_cell_length_a   9.61360608
_cell_length_b   9.61360608
_cell_length_c   9.61360608
_cell_angle_alpha   109.47122063
_cell_angle_beta   109.47122063
_cell_angle_gamma   109.47122063
_symmetry_Int_Tables_number   1
_chemical_formula_structural   Bi2O3
_chemical_formula_sum   'Bi16 O24'
_cell_volume   683.97003916
_cell_formula_units_Z   8
loop_
 _symmetry_equiv_pos_site_id
 _symmetry_equiv_pos_as_xyz
  1  'x, y, z'
loop_
 _atom_site_type_symbol
 _atom_site_label
 _atom_site_symmetry_multiplicity
 _atom_site_fract_x
 _atom_site_fract_y
 _atom_site_fract_z
 _atom_site_occupancy
  Bi  Bi0  1  0.50000000  -0.00000000  0.50000000  1
  Bi  Bi1  1  0.50000000  0.50000000  -0.00000000  1
  Bi  Bi2  1  0.00000000  0.50000000  0.50000000  1
  Bi  Bi3  1  0.00000000  -0.00000000  -0.00000000  1
  Bi  Bi4  1  0.77674071  0.25000000  0.02674071  1
  Bi  Bi5  1  0.72325929  0.75000000  0.47325929  1
  Bi  Bi6  1  0.25000000  0.02674071  0.77674071  1
  Bi  Bi7  1  0.75000000  0.47325929  0.72325929  1
  Bi  Bi8  1  0.02674071  0.77674071  0.25000000  1
  Bi  Bi9  1  0.47325929  0.72325929  0.75000000  1
  Bi  Bi10  1  0.22325929  0.75000000  0.97325929  1
  Bi  Bi11  1  0.27674071  0.25000000  0.52674071  1
  Bi  Bi12  1  0.75000000  0.97325929  0.22325929  1
  Bi  Bi13  1  0.25000000  0.52674071  0.27674071  1
  Bi  Bi14  1  0.97325929  0.22325929  0.75000000  1
  Bi  Bi15  1  0.52674071  0.27674071  0.25000000  1
  O  O0  1  0.03279906  0.05142393  0.27466457  1
  O  O1  1  0.22324064  0.44857607  0.48137513  1
  O  O2  1  0.46720094  0.74186651  0.01862487  1
  O  O3  1  0.27675936  0.75813349  0.22533543  1
  O  O4  1  0.05142393  0.27466457  0.03279906  1
  O  O5  1  0.44857607  0.48137513  0.22324064  1
  O  O6  1  0.74186651  0.01862487  0.46720094  1
  O  O7  1  0.75813349  0.22533543  0.27675936  1
  O  O8  1  0.27466457  0.03279906  0.05142393  1
  O  O9  1  0.48137513  0.22324064  0.44857607  1
  O  O10  1  0.01862487  0.46720094  0.74186651  1
  O  O11  1  0.22533543  0.27675936  0.75813349  1
  O  O12  1  0.96720094  0.94857607  0.72533543  1
  O  O13  1  0.77675936  0.55142393  0.51862487  1
  O  O14  1  0.53279906  0.25813349  0.98137513  1
  O  O15  1  0.72324064  0.24186651  0.77466457  1
  O  O16  1  0.94857607  0.72533543  0.96720094  1
  O  O17  1  0.55142393  0.51862487  0.77675936  1
  O  O18  1  0.25813349  0.98137513  0.53279906  1
  O  O19  1  0.24186651  0.77466457  0.72324064  1
  O  O20  1  0.72533543  0.96720094  0.94857607  1
  O  O21  1  0.51862487  0.77675936  0.55142393  1
  O  O22  1  0.98137513  0.53279906  0.25813349  1
  O  O23  1  0.77466457  0.72324064  0.24186651  1
loop_
_geom_bond_atom_site_label_1
_geom_bond_atom_site_label_2
_geom_bond_distance
_geom_bond_site_symmetry_2
Bi0 O21 2.405599 1_545
Bi0 O9 2.405599 1_555
Bi0 O15 2.405602 1_555
Bi0 O3 2.405602 1_545
Bi0 O18 2.405608 1_545
Bi0 O6 2.405608 1_555
Bi1 O5 2.405599 1_555
Bi1 O17 2.405599 1_554
Bi1 O11 2.405602 1_554
Bi1 O23 2.405602 1_555
Bi1 O14 2.405608 1_554
Bi1 O2 2.405608 1_555
Bi2 O13 2.405599 1_455
Bi2 O1 2.405599 1_555
Bi2 O19 2.405602 1_555
Bi2 O7 2.405602 1_455
Bi2 O22 2.405608 1_455
Bi2 O10 2.405608 1_555
Bi3 O8 2.405599 1_555
Bi3 O12 2.405599 1_444
Bi3 O0 2.405599 1_555
Bi3 O4 2.405599 1_555
Bi3 O16 2.405599 1_444
Bi3 O20 2.405599 1_444
Bi4 O14 2.271391 1_554
Bi4 O15 2.271399 1_554
Bi4 O22 2.386431 1_555
Bi4 O20 2.386434 1_544
Bi4 O4 2.550239 1_655
Bi4 O7 2.550242 1_555
Bi5 O12 2.271395 1_555
Bi5 O13 2.271395 1_555
Bi5 O23 2.386425 1_555
Bi5 O21 2.386434 1_555
Bi5 O6 2.550236 1_565
Bi5 O5 2.550239 1_555
Bi6 O18 2.271391 1_545
Bi6 O19 2.271399 1_545
Bi6 O14 2.386431 1_555
Bi6 O12 2.386434 1_445
Bi6 O8 2.550239 1_556
Bi6 O11 2.550242 1_555
Bi7 O17 2.271395 1_555
Bi7 O16 2.271395 1_555
Bi7 O15 2.386425 1_555
Bi7 O13 2.386434 1_555
Bi7 O10 2.550236 1_655
Bi7 O9 2.550239 1_555
Bi8 O22 2.271391 1_455
Bi8 O23 2.271399 1_455
Bi8 O18 2.386431 1_555
Bi8 O16 2.386434 1_454
Bi8 O0 2.550239 1_565
Bi8 O3 2.550242 1_555
Bi9 O20 2.271395 1_555
Bi9 O21 2.271395 1_555
Bi9 O19 2.386425 1_555
Bi9 O17 2.386434 1_555
Bi9 O2 2.550236 1_556
Bi9 O1 2.550239 1_555
Bi10 O2 2.271391 1_556
Bi10 O3 2.271399 1_556
Bi10 O10 2.386431 1_555
Bi10 O8 2.386434 1_566
Bi10 O16 2.550239 1_455
Bi10 O19 2.550242 1_555
Bi11 O0 2.271395 1_555
Bi11 O1 2.271395 1_555
Bi11 O11 2.386425 1_555
Bi11 O9 2.386434 1_555
Bi11 O18 2.550236 1_545
Bi11 O17 2.550239 1_555
Bi12 O6 2.271391 1_565
Bi12 O7 2.271399 1_565
Bi12 O2 2.386431 1_555
Bi12 O0 2.386434 1_665
Bi12 O20 2.550239 1_554
Bi12 O23 2.550242 1_555
Bi13 O5 2.271395 1_555
Bi13 O4 2.271395 1_555
Bi13 O3 2.386425 1_555
Bi13 O1 2.386434 1_555
Bi13 O22 2.550236 1_455
Bi13 O21 2.550239 1_555
Bi14 O10 2.271391 1_655
Bi14 O11 2.271399 1_655
Bi14 O6 2.386431 1_555
Bi14 O4 2.386434 1_656
Bi14 O12 2.550239 1_545
Bi14 O15 2.550242 1_555
Bi15 O8 2.271395 1_555
Bi15 O9 2.271395 1_555
Bi15 O7 2.386425 1_555
Bi15 O5 2.386434 1_555
Bi15 O14 2.550236 1_554
Bi15 O13 2.550239 1_555
