# generated using pymatgen
data_CsLu(NbBr3)6
_symmetry_space_group_name_H-M   'P 1'
_cell_length_a   9.80909084
_cell_length_b   9.80909084
_cell_length_c   18.29688726
_cell_angle_alpha   90.00000000
_cell_angle_beta   90.00000000
_cell_angle_gamma   120.00000311
_symmetry_Int_Tables_number   1
_chemical_formula_structural   CsLu(NbBr3)6
_chemical_formula_sum   'Cs2 Lu2 Nb12 Br36'
_cell_volume   1524.63309684
_cell_formula_units_Z   2
loop_
 _symmetry_equiv_pos_site_id
 _symmetry_equiv_pos_as_xyz
  1  'x, y, z'
loop_
 _atom_site_type_symbol
 _atom_site_label
 _atom_site_symmetry_multiplicity
 _atom_site_fract_x
 _atom_site_fract_y
 _atom_site_fract_z
 _atom_site_occupancy
  Cs  Cs0  1  0.33333300  0.66666700  0.75000000  1
  Cs  Cs1  1  0.66666700  0.33333300  0.25000000  1
  Lu  Lu0  1  0.66666700  0.33333300  0.75000000  1
  Lu  Lu1  1  0.33333300  0.66666700  0.25000000  1
  Nb  Nb0  1  0.84954957  0.03966579  0.56572778  1
  Nb  Nb1  1  0.15045043  0.96033421  0.43427222  1
  Nb  Nb2  1  0.96033421  0.80988378  0.56572778  1
  Nb  Nb3  1  0.84954957  0.80988378  0.93427222  1
  Nb  Nb4  1  0.03966579  0.19011622  0.43427222  1
  Nb  Nb5  1  0.15045043  0.19011622  0.06572778  1
  Nb  Nb6  1  0.19011622  0.15045043  0.56572778  1
  Nb  Nb7  1  0.96033421  0.15045043  0.93427222  1
  Nb  Nb8  1  0.80988378  0.84954957  0.43427222  1
  Nb  Nb9  1  0.03966579  0.84954957  0.06572778  1
  Nb  Nb10  1  0.19011622  0.03966579  0.93427222  1
  Nb  Nb11  1  0.80988378  0.96033421  0.06572778  1
  Br  Br0  1  0.63635359  0.08917723  0.66337850  1
  Br  Br1  1  0.36364641  0.91082277  0.33662150  1
  Br  Br2  1  0.91082277  0.54717636  0.66337850  1
  Br  Br3  1  0.63635359  0.54717636  0.83662150  1
  Br  Br4  1  0.08917723  0.45282364  0.33662150  1
  Br  Br5  1  0.36364641  0.45282364  0.16337850  1
  Br  Br6  1  0.45282364  0.36364641  0.66337850  1
  Br  Br7  1  0.91082277  0.36364641  0.83662150  1
  Br  Br8  1  0.54717636  0.63635359  0.33662150  1
  Br  Br9  1  0.08917723  0.63635359  0.16337850  1
  Br  Br10  1  0.45282364  0.08917723  0.83662150  1
  Br  Br11  1  0.54717636  0.91082277  0.16337850  1
  Br  Br12  1  0.04738345  0.23466546  0.66100431  1
  Br  Br13  1  0.95261655  0.76533454  0.33899569  1
  Br  Br14  1  0.76533454  0.81271699  0.66100431  1
  Br  Br15  1  0.04738345  0.81271699  0.83899569  1
  Br  Br16  1  0.23466546  0.18728301  0.33899569  1
  Br  Br17  1  0.95261655  0.18728301  0.16100431  1
  Br  Br18  1  0.18728301  0.95261655  0.66100431  1
  Br  Br19  1  0.76533454  0.95261655  0.83899569  1
  Br  Br20  1  0.81271699  0.04738345  0.33899569  1
  Br  Br21  1  0.23466546  0.04738345  0.16100431  1
  Br  Br22  1  0.18728301  0.23466546  0.83899569  1
  Br  Br23  1  0.81271699  0.76533454  0.16100431  1
  Br  Br24  1  0.28027777  0.41932742  0.50098986  1
  Br  Br25  1  0.71972223  0.58067258  0.49901014  1
  Br  Br26  1  0.58067258  0.86095035  0.50098986  1
  Br  Br27  1  0.28027777  0.86095035  0.99901014  1
  Br  Br28  1  0.41932742  0.13904965  0.49901014  1
  Br  Br29  1  0.71972223  0.13904965  0.00098986  1
  Br  Br30  1  0.13904965  0.71972223  0.50098986  1
  Br  Br31  1  0.58067258  0.71972223  0.99901014  1
  Br  Br32  1  0.86095035  0.28027777  0.49901014  1
  Br  Br33  1  0.41932742  0.28027777  0.00098986  1
  Br  Br34  1  0.13904965  0.41932742  0.99901014  1
  Br  Br35  1  0.86095035  0.58067258  0.00098986  1
loop_
_geom_bond_atom_site_label_1
_geom_bond_atom_site_label_2
_geom_bond_distance
_geom_bond_site_symmetry_2
Br0 Lu0 2.761154 1_555
Br0 Nb0 2.969375 1_555
Br0 Cs0 4.025476 1_545
Br1 Lu1 2.761154 1_555
Br1 Nb1 2.969375 1_555
Br1 Cs1 4.025476 1_565
Br2 Lu0 2.761157 1_555
Br2 Nb2 2.969375 1_555
Br2 Cs0 4.025474 1_655
Br3 Lu0 2.761162 1_555
Br3 Nb3 2.969375 1_555
Br3 Cs0 4.025483 1_555
Br4 Lu1 2.761157 1_555
Br4 Nb4 2.969375 1_555
Br4 Cs1 4.025474 1_455
Br5 Lu1 2.761162 1_555
Br5 Nb5 2.969375 1_555
Br5 Cs1 4.025483 1_555
Br6 Lu0 2.761162 1_555
Br6 Nb6 2.969375 1_555
Br6 Cs0 4.025483 1_555
Br7 Lu0 2.761154 1_555
Br7 Nb7 2.969375 1_555
Br7 Cs0 4.025476 1_655
Br8 Lu1 2.761162 1_555
Br8 Nb8 2.969375 1_555
Br8 Cs1 4.025483 1_555
Br9 Lu1 2.761154 1_555
Br9 Nb9 2.969375 1_555
Br9 Cs1 4.025476 1_455
Br10 Lu0 2.761157 1_555
Br10 Nb10 2.969375 1_555
Br10 Cs0 4.025474 1_545
Br11 Lu1 2.761157 1_555
Br11 Nb11 2.969375 1_555
Br11 Cs1 4.025474 1_565
Br12 Nb0 2.598385 1_455
Br12 Nb6 2.614986 1_555
Br12 Cs0 4.073065 1_555
Br13 Nb1 2.598385 1_655
Br13 Nb8 2.614986 1_555
Br13 Cs1 4.073065 1_555
Br14 Nb2 2.598382 1_555
Br14 Nb0 2.614993 1_565
Br14 Cs0 4.073068 1_555
Br15 Nb3 2.598389 1_455
Br15 Nb10 2.614992 1_565
Br15 Cs0 4.073051 1_555
Br16 Nb4 2.598382 1_555
Br16 Nb1 2.614993 1_545
Br16 Cs1 4.073068 1_555
Br17 Nb5 2.598389 1_655
Br17 Nb11 2.614992 1_545
Br17 Cs1 4.073051 1_555
Br18 Nb6 2.598389 1_565
Br18 Nb2 2.614992 1_455
Br18 Cs0 4.073051 1_555
Br19 Nb7 2.598385 1_565
Br19 Nb3 2.614986 1_555
Br19 Cs0 4.073065 1_555
Br20 Nb8 2.598389 1_545
Br20 Nb4 2.614992 1_655
Br20 Cs1 4.073051 1_555
Br21 Nb9 2.598385 1_545
Br21 Nb5 2.614986 1_555
Br21 Cs1 4.073065 1_555
Br22 Nb10 2.598382 1_555
Br22 Nb7 2.614993 1_455
Br22 Cs0 4.073068 1_555
Br23 Nb11 2.598382 1_555
Br23 Nb9 2.614993 1_655
Br23 Cs1 4.073068 1_555
Br24 Nb6 2.609356 1_555
Br24 Nb4 2.609445 1_555
Br25 Nb8 2.609356 1_555
Br25 Nb2 2.609445 1_555
Br26 Nb0 2.609356 1_565
Br26 Nb8 2.609445 1_555
Br27 Nb10 2.609356 1_565
Br27 Nb9 2.609445 1_556
Br28 Nb1 2.609356 1_545
Br28 Nb6 2.609445 1_555
Br29 Nb11 2.609356 1_545
Br29 Nb7 2.609445 1_554
Br30 Nb2 2.609356 1_455
Br30 Nb1 2.609445 1_555
Br31 Nb3 2.609356 1_555
Br31 Nb11 2.609445 1_556
Br32 Nb4 2.609356 1_655
Br32 Nb0 2.609445 1_555
Br33 Nb5 2.609356 1_555
Br33 Nb10 2.609445 1_554
Br34 Nb7 2.609356 1_455
Br34 Nb5 2.609445 1_556
Br35 Nb9 2.609356 1_655
Br35 Nb3 2.609445 1_554
