# generated using pymatgen
data_TeC12(ClF5)2
_symmetry_space_group_name_H-M   'P 1'
_cell_length_a   12.94591400
_cell_length_b   6.70857700
_cell_length_c   18.47711488
_cell_angle_alpha   87.70041505
_cell_angle_beta   90.00000000
_cell_angle_gamma   90.00000000
_symmetry_Int_Tables_number   1
_chemical_formula_structural   TeC12(ClF5)2
_chemical_formula_sum   'Te4 C48 Cl8 F40'
_cell_volume   1603.42038705
_cell_formula_units_Z   4
loop_
 _symmetry_equiv_pos_site_id
 _symmetry_equiv_pos_as_xyz
  1  'x, y, z'
loop_
 _atom_site_type_symbol
 _atom_site_label
 _atom_site_symmetry_multiplicity
 _atom_site_fract_x
 _atom_site_fract_y
 _atom_site_fract_z
 _atom_site_occupancy
  Te  Te0  1  0.88639700  0.74499600  0.49642100  1
  Te  Te1  1  0.11360300  0.25500400  0.50357900  1
  Te  Te2  1  0.38639700  0.25500400  0.00357900  1
  Te  Te3  1  0.61360300  0.74499600  0.99642100  1
  C  C0  1  0.62334900  0.44836500  0.38522400  1
  C  C1  1  0.37665100  0.55163500  0.61477600  1
  C  C2  1  0.12334900  0.55163500  0.11477600  1
  C  C3  1  0.87665100  0.44836500  0.88522400  1
  C  C4  1  0.78162000  0.61587400  0.41984200  1
  C  C5  1  0.21838000  0.38412600  0.58015800  1
  C  C6  1  0.28162000  0.38412600  0.08015800  1
  C  C7  1  0.71838000  0.61587400  0.91984200  1
  C  C8  1  0.66052700  0.43323200  0.31467600  1
  C  C9  1  0.33947300  0.56676800  0.68532400  1
  C  C10  1  0.16052700  0.56676800  0.18532400  1
  C  C11  1  0.83947300  0.43323200  0.81467600  1
  C  C12  1  0.38087400  0.92768900  0.41206600  1
  C  C13  1  0.61912600  0.07231100  0.58793400  1
  C  C14  1  0.88087400  0.07231100  0.08793400  1
  C  C15  1  0.11912600  0.92768900  0.91206600  1
  C  C16  1  0.68410000  0.53817900  0.43705000  1
  C  C17  1  0.31590000  0.46182100  0.56295000  1
  C  C18  1  0.18410000  0.46182100  0.06295000  1
  C  C19  1  0.81590000  0.53817900  0.93705000  1
  C  C20  1  0.81252400  0.98343800  0.04074500  1
  C  C21  1  0.18747600  0.01656200  0.95925500  1
  C  C22  1  0.31252400  0.01656200  0.45925500  1
  C  C23  1  0.68747600  0.98343800  0.54074500  1
  C  C24  1  0.72280300  0.88801900  0.06591900  1
  C  C25  1  0.27719700  0.11198100  0.93408100  1
  C  C26  1  0.22280300  0.11198100  0.43408100  1
  C  C27  1  0.77719700  0.88801900  0.56591900  1
  C  C28  1  0.70049600  0.89343400  0.13989900  1
  C  C29  1  0.29950400  0.10656600  0.86010100  1
  C  C30  1  0.20049600  0.10656600  0.36010100  1
  C  C31  1  0.79950400  0.89343400  0.63989900  1
  C  C32  1  0.76747600  0.98337800  0.18783400  1
  C  C33  1  0.23252400  0.01662200  0.81216600  1
  C  C34  1  0.26747600  0.01662200  0.31216600  1
  C  C35  1  0.73252400  0.98337800  0.68783400  1
  C  C36  1  0.81796100  0.59550700  0.34928300  1
  C  C37  1  0.18203900  0.40449300  0.65071700  1
  C  C38  1  0.31796100  0.40449300  0.15071700  1
  C  C39  1  0.68203900  0.59550700  0.84928300  1
  C  C40  1  0.35906000  0.93039000  0.33799400  1
  C  C41  1  0.64094000  0.06961000  0.66200600  1
  C  C42  1  0.85906000  0.06961000  0.16200600  1
  C  C43  1  0.14094000  0.93039000  0.83799400  1
  C  C44  1  0.75833600  0.50658700  0.29669900  1
  C  C45  1  0.24166400  0.49341300  0.70330100  1
  C  C46  1  0.25833600  0.49341300  0.20330100  1
  C  C47  1  0.74166400  0.50658700  0.79669900  1
  Cl  Cl0  1  0.39719000  0.93596100  0.08087800  1
  Cl  Cl1  1  0.60281000  0.06403900  0.91912200  1
  Cl  Cl2  1  0.89719000  0.06403900  0.41912200  1
  Cl  Cl3  1  0.10281000  0.93596100  0.58087800  1
  Cl  Cl4  1  0.62826500  0.42517600  0.07244000  1
  Cl  Cl5  1  0.37173500  0.57482400  0.92756000  1
  Cl  Cl6  1  0.12826500  0.57482400  0.42756000  1
  Cl  Cl7  1  0.87173500  0.42517600  0.57244000  1
  F  F0  1  0.61313000  0.81109200  0.16751300  1
  F  F1  1  0.38687000  0.18890800  0.83248700  1
  F  F2  1  0.11313000  0.18890800  0.33248700  1
  F  F3  1  0.88687000  0.81109200  0.66751300  1
  F  F4  1  0.42605900  0.84963400  0.29227200  1
  F  F5  1  0.57394100  0.15036600  0.70772800  1
  F  F6  1  0.92605900  0.15036600  0.20772800  1
  F  F7  1  0.07394100  0.84963400  0.79227200  1
  F  F8  1  0.60192200  0.34815100  0.26472800  1
  F  F9  1  0.39807800  0.65184900  0.73527200  1
  F  F10  1  0.10192200  0.65184900  0.23527200  1
  F  F11  1  0.89807800  0.34815100  0.76472800  1
  F  F12  1  0.79436600  0.49325400  0.22858700  1
  F  F13  1  0.20563400  0.50674600  0.77141300  1
  F  F14  1  0.29436600  0.50674600  0.27141300  1
  F  F15  1  0.70563400  0.49325400  0.72858700  1
  F  F16  1  0.85477300  0.54787600  0.00451900  1
  F  F17  1  0.14522700  0.45212400  0.99548100  1
  F  F18  1  0.35477300  0.45212400  0.49548100  1
  F  F19  1  0.64522700  0.54787600  0.50451900  1
  F  F20  1  0.74457000  0.98580300  0.25900800  1
  F  F21  1  0.25543000  0.01419700  0.74099200  1
  F  F22  1  0.24457000  0.01419700  0.24099200  1
  F  F23  1  0.75543000  0.98580300  0.75900800  1
  F  F24  1  0.52903900  0.37609900  0.40217100  1
  F  F25  1  0.47096100  0.62390100  0.59782900  1
  F  F26  1  0.02903900  0.62390100  0.09782900  1
  F  F27  1  0.97096100  0.37609900  0.90217100  1
  F  F28  1  0.66353200  0.99111300  0.46964700  1
  F  F29  1  0.33646800  0.00888700  0.53035300  1
  F  F30  1  0.16353200  0.00888700  0.03035300  1
  F  F31  1  0.83646800  0.99111300  0.96964700  1
  F  F32  1  0.91285600  0.66163300  0.32988800  1
  F  F33  1  0.08714400  0.33836700  0.67011200  1
  F  F34  1  0.41285600  0.33836700  0.17011200  1
  F  F35  1  0.58714400  0.66163300  0.82988800  1
  F  F36  1  0.46781000  0.83927000  0.43705200  1
  F  F37  1  0.53219000  0.16073000  0.56294800  1
  F  F38  1  0.96781000  0.16073000  0.06294800  1
  F  F39  1  0.03219000  0.83927000  0.93705200  1
loop_
_geom_bond_atom_site_label_1
_geom_bond_atom_site_label_2
_geom_bond_distance
_geom_bond_site_symmetry_2
C0 F24 1.345946 1_555
C1 F25 1.345946 1_555
C2 F26 1.345946 1_555
C3 F27 1.345946 1_555
C4 Te0 2.165809 1_555
C5 Te1 2.165809 1_555
C6 Te2 2.165809 1_555
C7 Te3 2.165809 1_555
C8 F8 1.339928 1_555
C9 F9 1.339928 1_555
C10 F10 1.339928 1_555
C11 F11 1.339928 1_555
C12 F36 1.345244 1_555
C13 F37 1.345244 1_555
C14 F38 1.345244 1_555
C15 F39 1.345244 1_555
C16 F19 1.348365 1_555
C16 C4 1.397619 1_555
C17 F18 1.348365 1_555
C17 C5 1.397619 1_555
C18 F17 1.348365 1_554
C18 C6 1.397619 1_555
C19 F16 1.348365 1_556
C19 C7 1.397619 1_555
C20 F31 1.348733 1_554
C20 C24 1.396909 1_555
C21 F30 1.348733 1_556
C21 C25 1.396909 1_555
C22 F29 1.348733 1_555
C22 C26 1.396909 1_555
C23 F28 1.348733 1_555
C23 C27 1.396909 1_555
C24 C28 1.399006 1_555
C24 Te3 2.160319 1_554
C25 C29 1.399006 1_555
C25 Te2 2.160319 1_556
C26 C30 1.399006 1_555
C26 Te1 2.160319 1_555
C27 C31 1.399006 1_555
C27 Te0 2.160319 1_555
C28 F0 1.349849 1_555
C29 F1 1.349849 1_555
C30 F2 1.349849 1_555
C31 F3 1.349849 1_555
C32 F20 1.348844 1_555
C33 F21 1.348844 1_555
C34 F22 1.348844 1_555
C35 F23 1.348844 1_555
C36 F32 1.349695 1_555
C36 C4 1.397858 1_555
C37 F33 1.349695 1_555
C37 C5 1.397858 1_555
C38 F34 1.349695 1_555
C38 C6 1.397858 1_555
C39 F35 1.349695 1_555
C39 C7 1.397858 1_555
C40 F4 1.340244 1_555
C41 F5 1.340244 1_555
C42 F6 1.340244 1_555
C43 F7 1.340244 1_555
C44 F12 1.348502 1_555
C45 F13 1.348502 1_555
C46 F14 1.348502 1_555
C47 F15 1.348502 1_555
Cl0 Te2 2.528859 1_565
Cl1 Te3 2.528859 1_545
Cl2 Te0 2.528859 1_545
Cl3 Te1 2.528859 1_565
Cl4 Te3 2.523975 1_554
Cl5 Te2 2.523975 1_556
Cl6 Te1 2.523975 1_555
Cl7 Te0 2.523975 1_555
