# generated using pymatgen
data_NaYGeO4
_symmetry_space_group_name_H-M   'P 1'
_cell_length_a   5.33502400
_cell_length_b   6.52651400
_cell_length_c   11.53200200
_cell_angle_alpha   90.00000000
_cell_angle_beta   90.00000000
_cell_angle_gamma   90.00000000
_symmetry_Int_Tables_number   1
_chemical_formula_structural   NaYGeO4
_chemical_formula_sum   'Na4 Y4 Ge4 O16'
_cell_volume   401.53403262
_cell_formula_units_Z   4
loop_
 _symmetry_equiv_pos_site_id
 _symmetry_equiv_pos_as_xyz
  1  'x, y, z'
loop_
 _atom_site_type_symbol
 _atom_site_label
 _atom_site_symmetry_multiplicity
 _atom_site_fract_x
 _atom_site_fract_y
 _atom_site_fract_z
 _atom_site_occupancy
  Na  Na0  1  0.00000000  0.00000000  0.00000000  1
  Na  Na1  1  0.00000000  0.50000000  0.00000000  1
  Na  Na2  1  0.50000000  0.00000000  0.50000000  1
  Na  Na3  1  0.50000000  0.50000000  0.50000000  1
  Y  Y0  1  0.00394200  0.75000000  0.27766700  1
  Y  Y1  1  0.99605800  0.25000000  0.72233300  1
  Y  Y2  1  0.49605800  0.75000000  0.77766700  1
  Y  Y3  1  0.50394200  0.25000000  0.22233300  1
  Ge  Ge0  1  0.94568500  0.25000000  0.40272100  1
  Ge  Ge1  1  0.55431500  0.25000000  0.90272100  1
  Ge  Ge2  1  0.05431500  0.75000000  0.59727900  1
  Ge  Ge3  1  0.44568500  0.75000000  0.09727900  1
  O  O0  1  0.79233100  0.45720400  0.32605800  1
  O  O1  1  0.29233100  0.54279600  0.17394200  1
  O  O2  1  0.20766900  0.95720400  0.67394200  1
  O  O3  1  0.70766900  0.04279600  0.82605800  1
  O  O4  1  0.20766900  0.54279600  0.67394200  1
  O  O5  1  0.70766900  0.45720400  0.82605800  1
  O  O6  1  0.79233100  0.04279600  0.32605800  1
  O  O7  1  0.29233100  0.95720400  0.17394200  1
  O  O8  1  0.17417200  0.75000000  0.45471500  1
  O  O9  1  0.67417200  0.25000000  0.04528500  1
  O  O10  1  0.82582800  0.25000000  0.54528500  1
  O  O11  1  0.32582800  0.75000000  0.95471500  1
  O  O12  1  0.72803300  0.75000000  0.61052400  1
  O  O13  1  0.22803300  0.25000000  0.88947600  1
  O  O14  1  0.27196700  0.25000000  0.38947600  1
  O  O15  1  0.77196700  0.75000000  0.11052400  1
loop_
_geom_bond_atom_site_label_1
_geom_bond_atom_site_label_2
_geom_bond_distance
_geom_bond_site_symmetry_2
Na0 O15 2.401405 1_445
Na0 O13 2.401405 1_554
Na0 O11 2.440619 1_544
Na0 O9 2.440619 1_455
Na0 O7 2.556164 1_545
Na0 O3 2.556164 1_454
Na1 O15 2.401405 1_455
Na1 O13 2.401405 1_554
Na1 O11 2.440619 1_554
Na1 O9 2.440619 1_455
Na1 O1 2.556164 1_555
Na1 O5 2.556164 1_454
Na2 O12 2.401405 1_545
Na2 O14 2.401405 1_555
Na2 O10 2.440619 1_555
Na2 O8 2.440619 1_545
Na2 O2 2.556164 1_545
Na2 O6 2.556164 1_555
Na3 O12 2.401405 1_555
Na3 O14 2.401405 1_555
Na3 O10 2.440619 1_555
Na3 O8 2.440619 1_555
Na3 O4 2.556164 1_555
Na3 O0 2.556164 1_555
Ge0 O14 1.747411 1_655
Ge0 O10 1.764023 1_555
Ge0 O0 1.811002 1_555
Ge0 O6 1.811002 1_555
Ge1 O13 1.747411 1_555
Ge1 O9 1.764023 1_556
Ge1 O3 1.811002 1_555
Ge1 O5 1.811002 1_555
Ge2 O12 1.747411 1_455
Ge2 O8 1.764023 1_555
Ge2 O2 1.811002 1_555
Ge2 O4 1.811002 1_555
Ge3 O15 1.747411 1_555
Ge3 O11 1.764023 1_554
Ge3 O7 1.811002 1_555
Ge3 O1 1.811002 1_555
O0 Y0 2.288585 1_655
O0 Y3 2.372074 1_555
O1 Y3 2.288585 1_555
O1 Y0 2.372074 1_555
O2 Y1 2.288585 1_465
O2 Y2 2.372074 1_555
O3 Y2 2.288585 1_545
O3 Y1 2.372074 1_555
O4 Y1 2.288585 1_455
O4 Y2 2.372074 1_555
O5 Y2 2.288585 1_555
O5 Y1 2.372074 1_555
O6 Y0 2.288585 1_645
O6 Y3 2.372074 1_555
O7 Y3 2.288585 1_565
O7 Y0 2.372074 1_555
O8 Y0 2.234593 1_555
O9 Y3 2.234593 1_555
O10 Y1 2.234593 1_555
O11 Y2 2.234593 1_555
O12 Y2 2.290604 1_555
O13 Y1 2.290604 1_455
O14 Y3 2.290604 1_555
O15 Y0 2.290604 1_655
