# generated using pymatgen
data_BaNaPrNbO6
_symmetry_space_group_name_H-M   'P 1'
_cell_length_a   8.63740882
_cell_length_b   8.61397828
_cell_length_c   8.61377572
_cell_angle_alpha   90.00000000
_cell_angle_beta   90.00000000
_cell_angle_gamma   90.00000000
_symmetry_Int_Tables_number   1
_chemical_formula_structural   BaNaPrNbO6
_chemical_formula_sum   'Ba4 Na4 Pr4 Nb4 O24'
_cell_volume   640.88603430
_cell_formula_units_Z   4
loop_
 _symmetry_equiv_pos_site_id
 _symmetry_equiv_pos_as_xyz
  1  'x, y, z'
loop_
 _atom_site_type_symbol
 _atom_site_label
 _atom_site_symmetry_multiplicity
 _atom_site_fract_x
 _atom_site_fract_y
 _atom_site_fract_z
 _atom_site_occupancy
  Ba  Ba0  1  0.00000000  -0.00000000  -0.00000000  1
  Ba  Ba1  1  0.50000000  0.50000000  0.50000000  1
  Ba  Ba2  1  0.00000000  0.50000000  0.50000000  1
  Ba  Ba3  1  0.50000000  -0.00000000  -0.00000000  1
  Na  Na0  1  0.50000000  -0.00000000  0.50000000  1
  Na  Na1  1  0.50000000  0.50000000  -0.00000000  1
  Na  Na2  1  0.00000000  0.50000000  -0.00000000  1
  Na  Na3  1  0.00000000  -0.00000000  0.50000000  1
  Pr  Pr0  1  0.25000000  0.25000000  0.25000000  1
  Pr  Pr1  1  0.75000000  0.75000000  0.25000000  1
  Pr  Pr2  1  0.75000000  0.25000000  0.75000000  1
  Pr  Pr3  1  0.25000000  0.75000000  0.75000000  1
  Nb  Nb0  1  0.75000000  0.75000000  0.75000000  1
  Nb  Nb1  1  0.25000000  0.25000000  0.75000000  1
  Nb  Nb2  1  0.25000000  0.75000000  0.25000000  1
  Nb  Nb3  1  0.75000000  0.25000000  0.25000000  1
  O  O0  1  0.97805635  0.21828854  0.29437780  1
  O  O1  1  0.02194365  0.78171146  0.29437780  1
  O  O2  1  0.02194365  0.21828854  0.70562220  1
  O  O3  1  0.97805635  0.78171146  0.70562220  1
  O  O4  1  0.27192544  0.98003488  0.20970862  1
  O  O5  1  0.27192544  0.01996512  0.79029138  1
  O  O6  1  0.72807456  0.01996512  0.20970862  1
  O  O7  1  0.72807456  0.98003488  0.79029138  1
  O  O8  1  0.20006951  0.27547235  0.97765016  1
  O  O9  1  0.79993049  0.27547235  0.02234984  1
  O  O10  1  0.20006951  0.72452765  0.02234984  1
  O  O11  1  0.79993049  0.72452765  0.97765016  1
  O  O12  1  0.52194365  0.28171146  0.20562220  1
  O  O13  1  0.47805635  0.71828854  0.20562220  1
  O  O14  1  0.47805635  0.28171146  0.79437780  1
  O  O15  1  0.52194365  0.71828854  0.79437780  1
  O  O16  1  0.22807456  0.51996512  0.29029138  1
  O  O17  1  0.22807456  0.48003488  0.70970862  1
  O  O18  1  0.77192544  0.48003488  0.29029138  1
  O  O19  1  0.77192544  0.51996512  0.70970862  1
  O  O20  1  0.29993049  0.22452765  0.52234984  1
  O  O21  1  0.70006951  0.22452765  0.47765016  1
  O  O22  1  0.29993049  0.77547235  0.47765016  1
  O  O23  1  0.70006951  0.77547235  0.52234984  1
loop_
_geom_bond_atom_site_label_1
_geom_bond_atom_site_label_2
_geom_bond_distance
_geom_bond_site_symmetry_2
Ba0 O9 2.941776 1_455
Ba0 O11 2.941776 1_444
Ba0 O10 2.941776 1_545
Ba0 O8 2.941776 1_554
Ba0 O5 2.968019 1_554
Ba0 O7 2.968019 1_444
Ba0 O6 2.968019 1_455
Ba0 O4 2.968019 1_545
Ba0 O1 3.162495 1_545
Ba0 O0 3.162495 1_455
Ba0 O3 3.162495 1_444
Ba0 O2 3.162495 1_554
Ba1 O22 2.941776 1_555
Ba1 O20 2.941776 1_555
Ba1 O21 2.941776 1_555
Ba1 O23 2.941776 1_555
Ba1 O18 2.968019 1_555
Ba1 O16 2.968019 1_555
Ba1 O19 2.968019 1_555
Ba1 O17 2.968019 1_555
Ba1 O15 3.162495 1_555
Ba1 O14 3.162495 1_555
Ba1 O12 3.162495 1_555
Ba1 O13 3.162495 1_555
Ba2 O16 2.678319 1_555
Ba2 O17 2.678319 1_555
Ba2 O18 2.678319 1_455
Ba2 O19 2.678319 1_455
Ba2 O2 3.010262 1_555
Ba2 O3 3.010262 1_455
Ba2 O1 3.010262 1_555
Ba2 O0 3.010262 1_455
Ba3 O4 2.678319 1_545
Ba3 O5 2.678319 1_554
Ba3 O7 2.678319 1_544
Ba3 O6 2.678319 1_555
Ba3 O12 3.010262 1_555
Ba3 O13 3.010262 1_545
Ba3 O14 3.010262 1_554
Ba3 O15 3.010262 1_544
Na0 O22 2.600766 1_545
Na0 O23 2.600766 1_545
Na0 O21 2.600766 1_555
Na0 O20 2.600766 1_555
Na1 O12 2.590109 1_555
Na1 O13 2.590109 1_555
Na1 O15 2.590109 1_554
Na1 O14 2.590109 1_554
Na2 O11 2.600766 1_454
Na2 O9 2.600766 1_455
Na2 O10 2.600766 1_555
Na2 O8 2.600766 1_554
Na3 O3 2.590109 1_445
Na3 O2 2.590109 1_555
Na3 O1 2.590109 1_545
Na3 O0 2.590109 1_455
Nb0 O23 2.019746 1_555
Nb0 O11 2.019746 1_555
Nb0 O19 2.020574 1_555
Nb0 O7 2.020574 1_555
Nb0 O15 2.025072 1_555
Nb0 O3 2.025072 1_555
Nb1 O20 2.019746 1_555
Nb1 O8 2.019746 1_555
Nb1 O5 2.020574 1_555
Nb1 O17 2.020574 1_555
Nb1 O14 2.025072 1_555
Nb1 O2 2.025072 1_555
Nb2 O22 2.019746 1_555
Nb2 O10 2.019746 1_555
Nb2 O16 2.020574 1_555
Nb2 O4 2.020574 1_555
Nb2 O1 2.025072 1_555
Nb2 O13 2.025072 1_555
Nb3 O21 2.019746 1_555
Nb3 O9 2.019746 1_555
Nb3 O18 2.020574 1_555
Nb3 O6 2.020574 1_555
Nb3 O0 2.025072 1_555
Nb3 O12 2.025072 1_555
O0 Pr0 2.395416 1_655
O1 Pr1 2.395416 1_455
O2 Pr2 2.395416 1_455
O3 Pr3 2.395416 1_655
O4 Pr0 2.358844 1_565
O5 Pr3 2.358844 1_545
O6 Pr1 2.358844 1_545
O7 Pr2 2.358844 1_565
O8 Pr0 2.395343 1_556
O9 Pr2 2.395343 1_554
O10 Pr3 2.395343 1_554
O11 Pr1 2.395343 1_556
O12 Pr0 2.395416 1_555
O13 Pr1 2.395416 1_555
O14 Pr2 2.395416 1_555
O15 Pr3 2.395416 1_555
O16 Pr0 2.358844 1_555
O17 Pr3 2.358844 1_555
O18 Pr1 2.358844 1_555
O19 Pr2 2.358844 1_555
O20 Pr0 2.395343 1_555
O21 Pr2 2.395343 1_555
O22 Pr3 2.395343 1_555
O23 Pr1 2.395343 1_555
