# generated using pymatgen
data_Tb2MoO6
_symmetry_space_group_name_H-M   'P 1'
_cell_length_a   5.36693496
_cell_length_b   9.89345551
_cell_length_c   9.89346451
_cell_angle_alpha   68.03281483
_cell_angle_beta   74.90699333
_cell_angle_gamma   74.90701552
_symmetry_Int_Tables_number   1
_chemical_formula_structural   Tb2MoO6
_chemical_formula_sum   'Tb8 Mo4 O24'
_cell_volume   462.51628634
_cell_formula_units_Z   4
loop_
 _symmetry_equiv_pos_site_id
 _symmetry_equiv_pos_as_xyz
  1  'x, y, z'
loop_
 _atom_site_type_symbol
 _atom_site_label
 _atom_site_symmetry_multiplicity
 _atom_site_fract_x
 _atom_site_fract_y
 _atom_site_fract_z
 _atom_site_occupancy
  Tb  Tb0  1  0.62035934  0.78482401  0.55165210  1
  Tb  Tb1  1  0.12036040  0.55165071  0.78482413  1
  Tb  Tb2  1  0.37963819  0.21517646  0.44834797  1
  Tb  Tb3  1  0.87964060  0.44834712  0.21517593  1
  Tb  Tb4  1  0.75000097  0.86447520  0.13552426  1
  Tb  Tb5  1  0.24999971  0.13552530  0.86447452  1
  Tb  Tb6  1  0.74999976  0.39179361  0.60820650  1
  Tb  Tb7  1  0.25000143  0.60820656  0.39179321  1
  Mo  Mo0  1  0.06156751  0.01340943  0.29549969  1
  Mo  Mo1  1  0.43843207  0.70450072  0.98659048  1
  Mo  Mo2  1  0.93843136  0.98658994  0.70450100  1
  Mo  Mo3  1  0.56156865  0.29549976  0.01340996  1
  O  O0  1  0.92050572  0.57359142  0.60994610  1
  O  O1  1  0.57949486  0.39005452  0.42640769  1
  O  O2  1  0.07949520  0.42640741  0.39005345  1
  O  O3  1  0.42050472  0.60994693  0.57359175  1
  O  O4  1  0.91600397  0.80853296  0.33676855  1
  O  O5  1  0.58399271  0.66323103  0.19146737  1
  O  O6  1  0.08399444  0.19146771  0.66323133  1
  O  O7  1  0.41600350  0.33676961  0.80853293  1
  O  O8  1  0.36671669  0.88540591  0.32632380  1
  O  O9  1  0.13328118  0.67367799  0.11459324  1
  O  O10  1  0.63328182  0.11459395  0.67367813  1
  O  O11  1  0.86671876  0.32632359  0.88540607  1
  O  O12  1  0.63874707  0.28765700  0.18223486  1
  O  O13  1  0.86125464  0.81776526  0.71234419  1
  O  O14  1  0.36125485  0.71234302  0.81776612  1
  O  O15  1  0.13874633  0.18223391  0.28765698  1
  O  O16  1  0.51593661  0.11236765  0.04818198  1
  O  O17  1  0.98406492  0.95181816  0.88763249  1
  O  O18  1  0.76057720  0.02507186  0.43105294  1
  O  O19  1  0.01593600  0.04818198  0.11236741  1
  O  O20  1  0.26057657  0.43105194  0.02507270  1
  O  O21  1  0.23942296  0.97492787  0.56894865  1
  O  O22  1  0.73942325  0.56894752  0.97492803  1
  O  O23  1  0.48406507  0.88763298  0.95181747  1
loop_
_geom_bond_atom_site_label_1
_geom_bond_atom_site_label_2
_geom_bond_distance
_geom_bond_site_symmetry_2
Mo0 O19 1.783779 1_555
Mo0 O15 1.792749 1_555
Mo0 O8 1.808300 1_545
Mo0 O18 1.819847 1_455
Mo0 O4 2.219205 1_445
Mo1 O23 1.783779 1_555
Mo1 O14 1.792747 1_555
Mo1 O9 1.808302 1_556
Mo1 O22 1.819850 1_555
Mo1 O5 2.219201 1_556
Mo2 O17 1.783777 1_555
Mo2 O13 1.792744 1_555
Mo2 O10 1.808302 1_565
Mo2 O21 1.819847 1_655
Mo2 O6 2.219214 1_665
Mo3 O16 1.783778 1_555
Mo3 O12 1.792754 1_555
Mo3 O11 1.808305 1_554
Mo3 O20 1.819848 1_555
Mo3 O7 2.219215 1_554
O0 Tb1 2.180649 1_655
O0 Tb6 2.227372 1_555
O0 Tb0 2.263584 1_555
O0 Tb7 2.382737 1_655
O1 Tb2 2.180656 1_555
O1 Tb6 2.227377 1_555
O1 Tb3 2.263576 1_555
O1 Tb7 2.382725 1_555
O2 Tb3 2.180647 1_455
O2 Tb7 2.227386 1_555
O2 Tb2 2.263565 1_555
O2 Tb6 2.382738 1_455
O3 Tb0 2.180642 1_555
O3 Tb7 2.227375 1_555
O3 Tb1 2.263580 1_555
O3 Tb6 2.382738 1_555
O4 Tb4 2.215112 1_555
O4 Tb0 2.270756 1_555
O4 Tb7 2.299657 1_655
O5 Tb4 2.215124 1_555
O5 Tb3 2.270767 1_555
O5 Tb7 2.299633 1_555
O6 Tb5 2.215109 1_555
O6 Tb2 2.270753 1_555
O6 Tb6 2.299645 1_455
O7 Tb5 2.215114 1_555
O7 Tb1 2.270734 1_555
O7 Tb6 2.299653 1_555
O8 Tb4 2.426129 1_555
O8 Tb0 2.651088 1_555
O8 Tb7 2.772610 1_555
O9 Tb4 2.426102 1_455
O9 Tb3 2.651099 1_455
O9 Tb7 2.772626 1_555
O10 Tb5 2.426104 1_555
O10 Tb2 2.651106 1_555
O10 Tb6 2.772614 1_555
O11 Tb5 2.426111 1_655
O11 Tb1 2.651072 1_655
O11 Tb6 2.772622 1_555
O12 Tb3 2.445921 1_555
O12 Tb2 2.565106 1_555
O13 Tb0 2.445946 1_555
O13 Tb1 2.565110 1_655
O14 Tb1 2.445947 1_555
O14 Tb0 2.565105 1_555
O15 Tb2 2.445930 1_555
O15 Tb3 2.565100 1_455
O16 Tb4 2.390591 1_545
O16 Tb5 2.502396 1_554
O17 Tb4 2.390587 1_556
O17 Tb5 2.502382 1_665
O18 Tb2 2.408865 1_555
O18 Tb0 2.445742 1_545
O19 Tb5 2.390595 1_554
O19 Tb4 2.502384 1_445
O20 Tb3 2.408847 1_455
O20 Tb1 2.445747 1_554
O21 Tb0 2.408854 1_555
O21 Tb2 2.445743 1_565
O22 Tb1 2.408857 1_655
O22 Tb3 2.445744 1_556
O23 Tb5 2.390593 1_565
O23 Tb4 2.502386 1_556
