# generated using pymatgen
data_Fe7Sb3P3(ClO6)3
_symmetry_space_group_name_H-M   'P 1'
_cell_length_a   5.26816800
_cell_length_b   15.10095300
_cell_length_c   26.03856100
_cell_angle_alpha   90.00000000
_cell_angle_beta   90.00000000
_cell_angle_gamma   90.00000000
_symmetry_Int_Tables_number   1
_chemical_formula_structural   Fe7Sb3P3(ClO6)3
_chemical_formula_sum   'Fe28 Sb12 P12 Cl12 O72'
_cell_volume   2071.48098704
_cell_formula_units_Z   4
loop_
 _symmetry_equiv_pos_site_id
 _symmetry_equiv_pos_as_xyz
  1  'x, y, z'
loop_
 _atom_site_type_symbol
 _atom_site_label
 _atom_site_symmetry_multiplicity
 _atom_site_fract_x
 _atom_site_fract_y
 _atom_site_fract_z
 _atom_site_occupancy
  Fe  Fe0  1  0.18685200  0.35446300  0.07174000  1
  Fe  Fe1  1  0.68685200  0.14553700  0.42826000  1
  Fe  Fe2  1  0.81314800  0.85446300  0.92826000  1
  Fe  Fe3  1  0.31314800  0.64553700  0.57174000  1
  Fe  Fe4  1  0.81314800  0.64553700  0.92826000  1
  Fe  Fe5  1  0.31314800  0.85446300  0.57174000  1
  Fe  Fe6  1  0.18685200  0.14553700  0.07174000  1
  Fe  Fe7  1  0.68685200  0.35446300  0.42826000  1
  Fe  Fe8  1  0.19265800  0.93109300  0.28612900  1
  Fe  Fe9  1  0.69265800  0.56890700  0.21387100  1
  Fe  Fe10  1  0.80734200  0.43109300  0.71387100  1
  Fe  Fe11  1  0.30734200  0.06890700  0.78612900  1
  Fe  Fe12  1  0.80734200  0.06890700  0.71387100  1
  Fe  Fe13  1  0.30734200  0.43109300  0.78612900  1
  Fe  Fe14  1  0.19265800  0.56890700  0.28612900  1
  Fe  Fe15  1  0.69265800  0.93109300  0.21387100  1
  Fe  Fe16  1  0.31447900  0.96481800  0.89171400  1
  Fe  Fe17  1  0.81447900  0.53518200  0.60828600  1
  Fe  Fe18  1  0.68552100  0.46481800  0.10828600  1
  Fe  Fe19  1  0.18552100  0.03518200  0.39171400  1
  Fe  Fe20  1  0.68552100  0.03518200  0.10828600  1
  Fe  Fe21  1  0.18552100  0.46481800  0.39171400  1
  Fe  Fe22  1  0.31447900  0.53518200  0.89171400  1
  Fe  Fe23  1  0.81447900  0.96481800  0.60828600  1
  Fe  Fe24  1  0.59432700  0.75000000  0.75025800  1
  Fe  Fe25  1  0.09432700  0.75000000  0.74974200  1
  Fe  Fe26  1  0.40567300  0.25000000  0.24974200  1
  Fe  Fe27  1  0.90567300  0.25000000  0.25025800  1
  Sb  Sb0  1  0.74984100  0.44087500  0.97976600  1
  Sb  Sb1  1  0.24984100  0.05912500  0.52023400  1
  Sb  Sb2  1  0.25015900  0.94087500  0.02023400  1
  Sb  Sb3  1  0.75015900  0.55912500  0.47976600  1
  Sb  Sb4  1  0.25015900  0.55912500  0.02023400  1
  Sb  Sb5  1  0.75015900  0.94087500  0.47976600  1
  Sb  Sb6  1  0.74984100  0.05912500  0.97976600  1
  Sb  Sb7  1  0.24984100  0.44087500  0.52023400  1
  Sb  Sb8  1  0.72623600  0.75000000  0.29068100  1
  Sb  Sb9  1  0.22623600  0.75000000  0.20931900  1
  Sb  Sb10  1  0.27376400  0.25000000  0.70931900  1
  Sb  Sb11  1  0.77376400  0.25000000  0.79068100  1
  P  P0  1  0.81639900  0.75000000  0.62647700  1
  P  P1  1  0.31639900  0.75000000  0.87352300  1
  P  P2  1  0.18360100  0.25000000  0.37352300  1
  P  P3  1  0.68360100  0.25000000  0.12647700  1
  P  P4  1  0.68020700  0.06461400  0.31168100  1
  P  P5  1  0.18020700  0.43538600  0.18831900  1
  P  P6  1  0.31979300  0.56461400  0.68831900  1
  P  P7  1  0.81979300  0.93538600  0.81168100  1
  P  P8  1  0.31979300  0.93538600  0.68831900  1
  P  P9  1  0.81979300  0.56461400  0.81168100  1
  P  P10  1  0.68020700  0.43538600  0.31168100  1
  P  P11  1  0.18020700  0.06461400  0.18831900  1
  Cl  Cl0  1  0.37747800  0.12465200  0.87528400  1
  Cl  Cl1  1  0.87747800  0.37534800  0.62471600  1
  Cl  Cl2  1  0.62252200  0.62465200  0.12471600  1
  Cl  Cl3  1  0.12252200  0.87534800  0.37528400  1
  Cl  Cl4  1  0.62252200  0.87534800  0.12471600  1
  Cl  Cl5  1  0.12252200  0.62465200  0.37528400  1
  Cl  Cl6  1  0.37747800  0.37534800  0.87528400  1
  Cl  Cl7  1  0.87747800  0.12465200  0.62471600  1
  Cl  Cl8  1  0.38997900  0.75000000  0.49989200  1
  Cl  Cl9  1  0.88997900  0.75000000  0.00010800  1
  Cl  Cl10  1  0.61002100  0.25000000  0.50010800  1
  Cl  Cl11  1  0.11002100  0.25000000  0.99989200  1
  O  O0  1  0.05328300  0.52777200  0.95401200  1
  O  O1  1  0.55328400  0.97222800  0.54598800  1
  O  O2  1  0.94671600  0.02777200  0.04598800  1
  O  O3  1  0.44671700  0.47222800  0.45401200  1
  O  O4  1  0.94671600  0.47222800  0.04598800  1
  O  O5  1  0.44671700  0.02777200  0.45401200  1
  O  O6  1  0.05328300  0.97222800  0.95401200  1
  O  O7  1  0.55328400  0.52777200  0.54598800  1
  O  O8  1  0.47163800  0.83452600  0.25315200  1
  O  O9  1  0.97163800  0.66547400  0.24684800  1
  O  O10  1  0.52836200  0.33452600  0.74684800  1
  O  O11  1  0.02836200  0.16547400  0.75315200  1
  O  O12  1  0.52836200  0.16547400  0.74684800  1
  O  O13  1  0.02836200  0.33452600  0.75315200  1
  O  O14  1  0.47163800  0.66547400  0.25315200  1
  O  O15  1  0.97163800  0.83452600  0.24684800  1
  O  O16  1  0.55301200  0.55614800  0.96371400  1
  O  O17  1  0.05301200  0.94385200  0.53628600  1
  O  O18  1  0.44698800  0.05614800  0.03628600  1
  O  O19  1  0.94698800  0.44385200  0.46371400  1
  O  O20  1  0.44698800  0.44385200  0.03628600  1
  O  O21  1  0.94698800  0.05614800  0.46371400  1
  O  O22  1  0.55301200  0.94385200  0.96371400  1
  O  O23  1  0.05301200  0.55614800  0.53628600  1
  O  O24  1  0.84129000  0.75000000  0.68655400  1
  O  O25  1  0.34129000  0.75000000  0.81344600  1
  O  O26  1  0.15871000  0.25000000  0.31344600  1
  O  O27  1  0.65871000  0.25000000  0.18655400  1
  O  O28  1  0.66613100  0.83233300  0.60823900  1
  O  O29  1  0.16613100  0.66766700  0.89176100  1
  O  O30  1  0.33386900  0.33233300  0.39176100  1
  O  O31  1  0.83386900  0.16766700  0.10823900  1
  O  O32  1  0.33386900  0.16766700  0.39176100  1
  O  O33  1  0.83386900  0.33233300  0.10823900  1
  O  O34  1  0.66613100  0.66766700  0.60823900  1
  O  O35  1  0.16613100  0.83233300  0.89176100  1
  O  O36  1  0.08301000  0.75000000  0.60115500  1
  O  O37  1  0.58301000  0.75000000  0.89884500  1
  O  O38  1  0.91699000  0.25000000  0.39884500  1
  O  O39  1  0.41699000  0.25000000  0.10115500  1
  O  O40  1  0.41253400  0.02630000  0.32418200  1
  O  O41  1  0.91253400  0.47370000  0.17581800  1
  O  O42  1  0.58746600  0.52630000  0.67581800  1
  O  O43  1  0.08746600  0.97370000  0.82418200  1
  O  O44  1  0.58746600  0.97370000  0.67581800  1
  O  O45  1  0.08746600  0.52630000  0.82418200  1
  O  O46  1  0.41253400  0.47370000  0.32418200  1
  O  O47  1  0.91253400  0.02630000  0.17581800  1
  O  O48  1  0.82915100  0.99587900  0.27981900  1
  O  O49  1  0.32915100  0.50412100  0.22018100  1
  O  O50  1  0.17084900  0.49587900  0.72018100  1
  O  O51  1  0.67084900  0.00412100  0.77981900  1
  O  O52  1  0.17084900  0.00412100  0.72018100  1
  O  O53  1  0.67084900  0.49587900  0.77981900  1
  O  O54  1  0.82915100  0.50412100  0.27981900  1
  O  O55  1  0.32915100  0.99587900  0.22018100  1
  O  O56  1  0.83028700  0.07806700  0.36222100  1
  O  O57  1  0.33028700  0.42193300  0.13777900  1
  O  O58  1  0.16971300  0.57806700  0.63777900  1
  O  O59  1  0.66971300  0.92193300  0.86222100  1
  O  O60  1  0.16971300  0.92193300  0.63777900  1
  O  O61  1  0.66971300  0.57806700  0.86222100  1
  O  O62  1  0.83028700  0.42193300  0.36222100  1
  O  O63  1  0.33028700  0.07806700  0.13777900  1
  O  O64  1  0.65533500  0.15447300  0.28192300  1
  O  O65  1  0.15533500  0.34552700  0.21807700  1
  O  O66  1  0.34466500  0.65447300  0.71807700  1
  O  O67  1  0.84466500  0.84552700  0.78192300  1
  O  O68  1  0.34466500  0.84552700  0.71807700  1
  O  O69  1  0.84466500  0.65447300  0.78192300  1
  O  O70  1  0.65533500  0.34552700  0.28192300  1
  O  O71  1  0.15533500  0.15447300  0.21807700  1
loop_
_geom_bond_atom_site_label_1
_geom_bond_atom_site_label_2
_geom_bond_distance
_geom_bond_site_symmetry_2
Fe0 O33 2.114928 1_455
Fe0 O39 2.131911 1_555
Fe0 O20 2.133652 1_555
Fe0 O57 2.136810 1_555
Fe0 O4 2.283118 1_455
Fe1 O32 2.114928 1_555
Fe1 O38 2.131911 1_555
Fe1 O21 2.133652 1_555
Fe1 O56 2.136810 1_555
Fe1 O5 2.283115 1_555
Fe2 O35 2.114928 1_655
Fe2 O37 2.131911 1_555
Fe2 O22 2.133652 1_555
Fe2 O59 2.136810 1_555
Fe2 O6 2.283115 1_655
Fe3 O34 2.114928 1_555
Fe3 O36 2.131911 1_555
Fe3 O23 2.133652 1_555
Fe3 O58 2.136810 1_555
Fe3 O7 2.283118 1_555
Fe4 O29 2.114928 1_655
Fe4 O37 2.131911 1_555
Fe4 O16 2.133652 1_555
Fe4 O61 2.136810 1_555
Fe4 O0 2.283115 1_655
Fe5 O28 2.114928 1_555
Fe5 O36 2.131911 1_555
Fe5 O17 2.133652 1_555
Fe5 O60 2.136810 1_555
Fe5 O1 2.283118 1_555
Fe6 O31 2.114928 1_455
Fe6 O39 2.131911 1_555
Fe6 O18 2.133652 1_555
Fe6 O63 2.136810 1_555
Fe6 O2 2.283118 1_455
Fe7 O30 2.114928 1_555
Fe7 O38 2.131911 1_555
Fe7 O19 2.133652 1_555
Fe7 O62 2.136810 1_555
Fe7 O3 2.283115 1_555
Fe8 O40 2.095367 1_565
Fe8 O55 2.103077 1_555
Fe8 O15 2.128010 1_455
Fe8 O48 2.156713 1_455
Fe8 O8 2.241402 1_555
Fe9 O41 2.095367 1_555
Fe9 O54 2.103077 1_555
Fe9 O14 2.128010 1_555
Fe9 O49 2.156713 1_555
Fe9 O9 2.241402 1_555
Fe10 O42 2.095367 1_555
Fe10 O53 2.103077 1_555
Fe10 O13 2.128010 1_655
Fe10 O50 2.156713 1_655
Fe10 O10 2.241402 1_555
Fe11 O43 2.095367 1_545
Fe11 O52 2.103077 1_555
Fe11 O12 2.128010 1_555
Fe11 O51 2.156713 1_555
Fe11 O11 2.241402 1_555
Fe12 O44 2.095367 1_545
Fe12 O51 2.103077 1_555
Fe12 O11 2.128010 1_655
Fe12 O52 2.156713 1_655
Fe12 O12 2.241402 1_555
Fe13 O45 2.095367 1_555
Fe13 O50 2.103077 1_555
Fe13 O10 2.128010 1_555
Fe13 O53 2.156713 1_555
Fe13 O13 2.241402 1_555
Fe14 O46 2.095367 1_555
Fe14 O49 2.103077 1_555
Fe14 O9 2.128010 1_455
Fe14 O54 2.156713 1_455
Fe14 O14 2.241402 1_555
Fe15 O47 2.095367 1_565
Fe15 O48 2.103077 1_555
Fe15 O8 2.128010 1_555
Fe15 O55 2.156713 1_555
Fe15 O15 2.241402 1_555
Fe16 O59 2.124007 1_555
Fe16 O6 2.130102 1_555
Fe16 O43 2.130814 1_555
Fe16 O35 2.147878 1_555
Fe16 O22 2.279068 1_555
Fe17 O58 2.124007 1_655
Fe17 O7 2.130099 1_555
Fe17 O42 2.130814 1_555
Fe17 O34 2.147878 1_555
Fe17 O23 2.279068 1_655
Fe18 O57 2.124007 1_555
Fe18 O4 2.130099 1_555
Fe18 O41 2.130814 1_555
Fe18 O33 2.147878 1_555
Fe18 O20 2.279068 1_555
Fe19 O56 2.124007 1_455
Fe19 O5 2.130102 1_555
Fe19 O40 2.130814 1_555
Fe19 O32 2.147878 1_555
Fe19 O21 2.279068 1_455
Fe20 O63 2.124007 1_555
Fe20 O2 2.130099 1_555
Fe20 O47 2.130814 1_555
Fe20 O31 2.147878 1_555
Fe20 O18 2.279068 1_555
Fe21 O62 2.124007 1_455
Fe21 O3 2.130102 1_555
Fe21 O46 2.130814 1_555
Fe21 O30 2.147878 1_555
Fe21 O19 2.279068 1_455
Fe22 O61 2.124007 1_555
Fe22 O0 2.130102 1_555
Fe22 O45 2.130814 1_555
Fe22 O29 2.147878 1_555
Fe22 O16 2.279068 1_555
Fe23 O60 2.124007 1_655
Fe23 O1 2.130099 1_555
Fe23 O44 2.130814 1_555
Fe23 O28 2.147878 1_555
Fe23 O17 2.279068 1_655
Fe24 O24 2.108127 1_555
Fe24 O25 2.117568 1_555
Fe24 O67 2.121334 1_555
Fe24 O69 2.121334 1_555
Fe24 O68 2.124386 1_555
Fe24 O66 2.124386 1_555
Fe25 O25 2.108127 1_555
Fe25 O24 2.117568 1_455
Fe25 O68 2.121334 1_555
Fe25 O66 2.121334 1_555
Fe25 O67 2.124386 1_455
Fe25 O69 2.124386 1_455
Fe26 O26 2.108127 1_555
Fe26 O27 2.117568 1_555
Fe26 O65 2.121334 1_555
Fe26 O71 2.121334 1_555
Fe26 O70 2.124386 1_555
Fe26 O64 2.124386 1_555
Fe27 O27 2.108127 1_555
Fe27 O26 2.117568 1_655
Fe27 O70 2.121334 1_555
Fe27 O64 2.121334 1_555
Fe27 O71 2.124386 1_655
Fe27 O65 2.124386 1_655
Cl0 Fe16 2.473633 1_545
Cl0 Fe11 2.496871 1_555
Cl1 Fe17 2.473633 1_555
Cl1 Fe10 2.496871 1_555
Cl2 Fe18 2.473633 1_555
Cl2 Fe9 2.496871 1_555
Cl3 Fe19 2.473633 1_565
Cl3 Fe8 2.496871 1_555
Cl4 Fe20 2.473633 1_565
Cl4 Fe15 2.496871 1_555
Cl5 Fe21 2.473633 1_555
Cl5 Fe14 2.496871 1_555
Cl6 Fe22 2.473633 1_555
Cl6 Fe13 2.496871 1_555
Cl7 Fe23 2.473633 1_545
Cl7 Fe12 2.496871 1_555
Cl8 Fe5 2.480377 1_555
Cl8 Fe3 2.480377 1_555
Cl9 Fe2 2.480377 1_554
Cl9 Fe4 2.480377 1_554
Cl10 Fe7 2.480377 1_555
Cl10 Fe1 2.480377 1_555
Cl11 Fe0 2.480377 1_556
Cl11 Fe6 2.480377 1_556
O0 Sb4 2.067171 1_556
O0 Sb0 2.174192 1_455
O1 Sb5 2.067169 1_555
O1 Sb1 2.174196 1_565
O2 Sb6 2.067169 1_554
O2 Sb2 2.174196 1_645
O3 Sb7 2.067171 1_555
O3 Sb3 2.174192 1_555
O4 Sb0 2.067169 1_554
O4 Sb4 2.174196 1_655
O5 Sb1 2.067171 1_555
O5 Sb5 2.174192 1_545
O6 Sb2 2.067171 1_556
O6 Sb6 2.174192 1_465
O7 Sb3 2.067169 1_555
O7 Sb7 2.174196 1_555
O8 Sb8 2.093602 1_555
O8 Sb9 2.145533 1_555
O9 Sb9 2.093602 1_655
O9 Sb8 2.145533 1_555
O10 Sb10 2.093602 1_555
O10 Sb11 2.145533 1_555
O11 Sb11 2.093602 1_455
O11 Sb10 2.145533 1_555
O12 Sb10 2.093602 1_555
O12 Sb11 2.145533 1_555
O13 Sb11 2.093602 1_455
O13 Sb10 2.145533 1_555
O14 Sb8 2.093602 1_555
O14 Sb9 2.145533 1_555
O15 Sb9 2.093602 1_655
O15 Sb8 2.145533 1_555
O16 Sb0 2.068833 1_555
O16 Sb4 2.171055 1_556
O17 Sb1 2.068833 1_565
O17 Sb5 2.171055 1_455
O18 Sb2 2.068833 1_545
O18 Sb6 2.171055 1_554
O19 Sb3 2.068833 1_555
O19 Sb7 2.171055 1_655
O20 Sb4 2.068833 1_555
O20 Sb0 2.171055 1_554
O21 Sb5 2.068833 1_545
O21 Sb1 2.171055 1_655
O22 Sb6 2.068833 1_565
O22 Sb2 2.171055 1_556
O23 Sb7 2.068833 1_555
O23 Sb3 2.171055 1_455
O24 P0 1.569805 1_555
O25 P1 1.569805 1_555
O26 P2 1.569805 1_555
O27 P3 1.569805 1_555
O28 P0 1.548555 1_555
O29 P1 1.548555 1_555
O30 P2 1.548555 1_555
O31 P3 1.548555 1_555
O32 P2 1.548555 1_555
O33 P3 1.548555 1_555
O34 P0 1.548555 1_555
O35 P1 1.548555 1_555
O36 P0 1.551614 1_455
O37 P1 1.551614 1_555
O38 P2 1.551614 1_655
O39 P3 1.551614 1_555
O40 P4 1.558596 1_555
O41 P5 1.558596 1_655
O42 P6 1.558596 1_555
O43 P7 1.558596 1_455
O44 P8 1.558596 1_555
O45 P9 1.558596 1_455
O46 P10 1.558596 1_555
O47 P11 1.558596 1_655
O48 P4 1.543168 1_565
O49 P5 1.543168 1_555
O50 P6 1.543168 1_555
O51 P7 1.543168 1_545
O52 P8 1.543168 1_545
O53 P9 1.543168 1_555
O54 P10 1.543168 1_555
O55 P11 1.543168 1_565
O56 P4 1.548619 1_555
O57 P5 1.548619 1_555
O58 P6 1.548619 1_555
O59 P7 1.548619 1_555
O60 P8 1.548619 1_555
O61 P9 1.548619 1_555
O62 P10 1.548619 1_555
O63 P11 1.548619 1_555
O64 P4 1.568088 1_555
O65 P5 1.568088 1_555
O66 P6 1.568088 1_555
O67 P7 1.568088 1_555
O68 P8 1.568088 1_555
O69 P9 1.568088 1_555
O70 P10 1.568088 1_555
O71 P11 1.568088 1_555
