# generated using pymatgen
data_Pr4FeAs4Ru3O4
_symmetry_space_group_name_H-M   'P 1'
_cell_length_a   4.11998000
_cell_length_b   4.11998000
_cell_length_c   17.38463800
_cell_angle_alpha   90.00000000
_cell_angle_beta   90.00000000
_cell_angle_gamma   90.00000000
_symmetry_Int_Tables_number   1
_chemical_formula_structural   Pr4FeAs4Ru3O4
_chemical_formula_sum   'Pr4 Fe1 As4 Ru3 O4'
_cell_volume   295.09093429
_cell_formula_units_Z   1
loop_
 _symmetry_equiv_pos_site_id
 _symmetry_equiv_pos_as_xyz
  1  'x, y, z'
loop_
 _atom_site_type_symbol
 _atom_site_label
 _atom_site_symmetry_multiplicity
 _atom_site_fract_x
 _atom_site_fract_y
 _atom_site_fract_z
 _atom_site_occupancy
  Pr  Pr0  1  0.50000000  0.00000000  0.18278400  1
  Pr  Pr1  1  0.50000000  0.00000000  0.68026200  1
  Pr  Pr2  1  0.00000000  0.50000000  0.81721600  1
  Pr  Pr3  1  0.00000000  0.50000000  0.31973800  1
  Fe  Fe0  1  0.50000000  0.50000000  0.00000000  1
  As  As0  1  0.50000000  0.00000000  0.91474400  1
  As  As1  1  0.50000000  0.00000000  0.42378700  1
  As  As2  1  0.00000000  0.50000000  0.08525600  1
  As  As3  1  0.00000000  0.50000000  0.57621300  1
  Ru  Ru0  1  0.50000000  0.50000000  0.50000000  1
  Ru  Ru1  1  0.00000000  0.00000000  0.00000000  1
  Ru  Ru2  1  0.00000000  0.00000000  0.50000000  1
  O  O0  1  0.50000000  0.50000000  0.74798600  1
  O  O1  1  0.50000000  0.50000000  0.25201400  1
  O  O2  1  0.00000000  0.00000000  0.74924000  1
  O  O3  1  0.00000000  0.00000000  0.25076000  1
loop_
_geom_bond_atom_site_label_1
_geom_bond_atom_site_label_2
_geom_bond_distance
_geom_bond_site_symmetry_2
Fe0 Ru1 2.913266 1_565
Fe0 Ru1 2.913266 1_655
Fe0 Ru1 2.913266 1_555
Fe0 Ru1 2.913266 1_665
As0 Ru1 2.537777 1_556
As0 Fe0 2.537777 1_556
As0 Ru1 2.537777 1_656
As0 Fe0 2.537777 1_546
As0 Pr2 3.370727 1_645
As0 Pr2 3.370727 1_655
As0 Pr2 3.370727 1_545
As0 Pr2 3.370727 1_555
As1 Ru2 2.449288 1_555
As1 Ru0 2.449288 1_545
As1 Ru0 2.449288 1_555
As1 Ru2 2.449288 1_655
As1 Pr3 3.429150 1_545
As1 Pr3 3.429150 1_655
As1 Pr3 3.429150 1_645
As1 Pr3 3.429150 1_555
As2 Ru1 2.537777 1_565
As2 Ru1 2.537777 1_555
As2 Fe0 2.537777 1_555
As2 Fe0 2.537777 1_455
As2 Pr0 3.370727 1_555
As2 Pr0 3.370727 1_565
As2 Pr0 3.370727 1_465
As2 Pr0 3.370727 1_455
As3 Ru2 2.449288 1_555
As3 Ru0 2.449288 1_455
As3 Ru0 2.449288 1_555
As3 Ru2 2.449288 1_565
As3 Pr1 3.429150 1_565
As3 Pr1 3.429150 1_465
As3 Pr1 3.429150 1_555
As3 Pr1 3.429150 1_455
O0 Pr1 2.372705 1_555
O0 Pr1 2.372705 1_565
O0 Pr2 2.385805 1_655
O0 Pr2 2.385805 1_555
O1 Pr3 2.372705 1_555
O1 Pr3 2.372705 1_655
O1 Pr0 2.385805 1_565
O1 Pr0 2.385805 1_555
O2 Pr2 2.374882 1_555
O2 Pr2 2.374882 1_545
O2 Pr1 2.383598 1_555
O2 Pr1 2.383598 1_455
O3 Pr0 2.374882 1_555
O3 Pr0 2.374882 1_455
O3 Pr3 2.383598 1_555
O3 Pr3 2.383598 1_545
