# generated using pymatgen
data_W3Se2ClO8
_symmetry_space_group_name_H-M   'P 1'
_cell_length_a   11.67600700
_cell_length_b   5.79840600
_cell_length_c   8.57626981
_cell_angle_alpha   89.94595953
_cell_angle_beta   90.00000000
_cell_angle_gamma   90.00000000
_symmetry_Int_Tables_number   1
_chemical_formula_structural   W3Se2ClO8
_chemical_formula_sum   'W6 Se4 Cl2 O16'
_cell_volume   580.63232508
_cell_formula_units_Z   2
loop_
 _symmetry_equiv_pos_site_id
 _symmetry_equiv_pos_as_xyz
  1  'x, y, z'
loop_
 _atom_site_type_symbol
 _atom_site_label
 _atom_site_symmetry_multiplicity
 _atom_site_fract_x
 _atom_site_fract_y
 _atom_site_fract_z
 _atom_site_occupancy
  W  W0  1  0.25064300  0.49875900  0.99868500  1
  W  W1  1  0.74935700  0.49875900  0.99868500  1
  W  W2  1  0.25166900  0.99966100  0.99837600  1
  W  W3  1  0.50000000  0.72461000  0.22176200  1
  W  W4  1  0.00000000  0.24645700  0.78203000  1
  W  W5  1  0.74833100  0.99966100  0.99837600  1
  Se  Se0  1  0.21921700  0.74998600  0.35360300  1
  Se  Se1  1  0.27852700  0.25052400  0.64258500  1
  Se  Se2  1  0.78078300  0.74998600  0.35360300  1
  Se  Se3  1  0.72147300  0.25052400  0.64258500  1
  Cl  Cl0  1  0.50000000  0.28799500  0.22376700  1
  Cl  Cl1  1  0.00000000  0.75257700  0.80346300  1
  O  O0  1  0.13227800  0.25166200  0.95436500  1
  O  O1  1  0.13280400  0.24997900  0.61026900  1
  O  O2  1  0.63637300  0.74955200  0.39060800  1
  O  O3  1  0.20134400  0.51500300  0.22905100  1
  O  O4  1  0.70070500  0.48518600  0.76709300  1
  O  O5  1  0.70072300  0.01527700  0.76686500  1
  O  O6  1  0.36921500  0.74510700  0.04445900  1
  O  O7  1  0.20229700  0.98542300  0.22870100  1
  O  O8  1  0.79770300  0.98542300  0.22870100  1
  O  O9  1  0.29927700  0.01527700  0.76686500  1
  O  O10  1  0.86772200  0.25166200  0.95436500  1
  O  O11  1  0.63078500  0.74510700  0.04445900  1
  O  O12  1  0.29929500  0.48518600  0.76709300  1
  O  O13  1  0.79865600  0.51500300  0.22905100  1
  O  O14  1  0.36362700  0.74955200  0.39060800  1
  O  O15  1  0.86719600  0.24997900  0.61026900  1
loop_
_geom_bond_atom_site_label_1
_geom_bond_atom_site_label_2
_geom_bond_distance
_geom_bond_site_symmetry_2
Cl0 W3 2.531713 1_555
Cl1 W4 2.869437 1_565
Cl1 W4 2.940613 1_555
O0 W0 2.026904 1_555
O0 W2 2.054218 1_545
O0 W4 2.137959 1_555
O1 Se1 1.723891 1_555
O1 W4 2.138858 1_555
O2 Se2 1.715741 1_555
O2 W3 2.157222 1_555
O3 Se0 1.744651 1_555
O3 W0 2.060066 1_554
O4 Se3 1.747335 1_555
O4 W1 2.067403 1_555
O5 Se3 1.747187 1_555
O5 W5 2.063751 1_545
O6 W0 2.027872 1_554
O6 W2 2.053622 1_554
O6 W3 2.158211 1_555
O7 Se0 1.745676 1_555
O7 W2 2.059308 1_554
O8 Se2 1.745676 1_555
O8 W5 2.059308 1_554
O9 Se1 1.747187 1_555
O9 W2 2.063751 1_545
O10 W1 2.026904 1_555
O10 W5 2.054218 1_545
O10 W4 2.137959 1_655
O11 W1 2.027872 1_554
O11 W5 2.053622 1_554
O11 W3 2.158211 1_555
O12 Se1 1.747335 1_555
O12 W0 2.067403 1_555
O13 Se2 1.744651 1_555
O13 W1 2.060066 1_554
O14 Se0 1.715741 1_555
O14 W3 2.157222 1_555
O15 Se3 1.723891 1_555
O15 W4 2.138858 1_655
