# generated using pymatgen
data_UH12N5F4
_symmetry_space_group_name_H-M   'P 1'
_cell_length_a   9.52740500
_cell_length_b   9.52740500
_cell_length_c   11.38183400
_cell_angle_alpha   90.00000000
_cell_angle_beta   90.00000000
_cell_angle_gamma   90.00000000
_symmetry_Int_Tables_number   1
_chemical_formula_structural   UH12N5F4
_chemical_formula_sum   'U4 H48 N20 F16'
_cell_volume   1033.14553070
_cell_formula_units_Z   4
loop_
 _symmetry_equiv_pos_site_id
 _symmetry_equiv_pos_as_xyz
  1  'x, y, z'
loop_
 _atom_site_type_symbol
 _atom_site_label
 _atom_site_symmetry_multiplicity
 _atom_site_fract_x
 _atom_site_fract_y
 _atom_site_fract_z
 _atom_site_occupancy
  U  U0  1  0.75000000  0.25000000  0.25000000  1
  U  U1  1  0.75000000  0.25000000  0.75000000  1
  U  U2  1  0.25000000  0.75000000  0.75000000  1
  U  U3  1  0.25000000  0.75000000  0.25000000  1
  H  H0  1  0.51022500  0.04731100  0.35437200  1
  H  H1  1  0.98977500  0.04731100  0.85437200  1
  H  H2  1  0.51022500  0.45268900  0.85437200  1
  H  H3  1  0.98977500  0.45268900  0.35437200  1
  H  H4  1  0.04731100  0.51022500  0.85437200  1
  H  H5  1  0.45268900  0.51022500  0.35437200  1
  H  H6  1  0.04731100  0.98977500  0.35437200  1
  H  H7  1  0.45268900  0.98977500  0.85437200  1
  H  H8  1  0.48977500  0.95268900  0.64562800  1
  H  H9  1  0.01022500  0.95268900  0.14562800  1
  H  H10  1  0.48977500  0.54731100  0.14562800  1
  H  H11  1  0.01022500  0.54731100  0.64562800  1
  H  H12  1  0.95268900  0.48977500  0.14562800  1
  H  H13  1  0.54731100  0.48977500  0.64562800  1
  H  H14  1  0.95268900  0.01022500  0.64562800  1
  H  H15  1  0.54731100  0.01022500  0.14562800  1
  H  H16  1  0.43510600  0.19965700  0.32966600  1
  H  H17  1  0.06489400  0.19965700  0.82966600  1
  H  H18  1  0.43510600  0.30034300  0.82966600  1
  H  H19  1  0.06489400  0.30034300  0.32966600  1
  H  H20  1  0.19965700  0.43510600  0.82966600  1
  H  H21  1  0.30034300  0.43510600  0.32966600  1
  H  H22  1  0.19965700  0.06489400  0.32966600  1
  H  H23  1  0.30034300  0.06489400  0.82966600  1
  H  H24  1  0.56489400  0.80034300  0.67033400  1
  H  H25  1  0.93510600  0.80034300  0.17033400  1
  H  H26  1  0.56489400  0.69965700  0.17033400  1
  H  H27  1  0.93510600  0.69965700  0.67033400  1
  H  H28  1  0.80034300  0.56489400  0.17033400  1
  H  H29  1  0.69965700  0.56489400  0.67033400  1
  H  H30  1  0.80034300  0.93510600  0.67033400  1
  H  H31  1  0.69965700  0.93510600  0.17033400  1
  H  H32  1  0.53206000  0.17570600  0.44841800  1
  H  H33  1  0.96794000  0.17570600  0.94841800  1
  H  H34  1  0.53206000  0.32429400  0.94841800  1
  H  H35  1  0.96794000  0.32429400  0.44841800  1
  H  H36  1  0.17570600  0.53206000  0.94841800  1
  H  H37  1  0.32429400  0.53206000  0.44841800  1
  H  H38  1  0.17570600  0.96794000  0.44841800  1
  H  H39  1  0.32429400  0.96794000  0.94841800  1
  H  H40  1  0.46794000  0.82429400  0.55158200  1
  H  H41  1  0.03206000  0.82429400  0.05158200  1
  H  H42  1  0.46794000  0.67570600  0.05158200  1
  H  H43  1  0.03206000  0.67570600  0.55158200  1
  H  H44  1  0.82429400  0.46794000  0.05158200  1
  H  H45  1  0.67570600  0.46794000  0.55158200  1
  H  H46  1  0.82429400  0.03206000  0.55158200  1
  H  H47  1  0.67570600  0.03206000  0.05158200  1
  N  N0  1  0.52550100  0.15367300  0.36019500  1
  N  N1  1  0.97449900  0.15367300  0.86019500  1
  N  N2  1  0.52550100  0.34632700  0.86019500  1
  N  N3  1  0.97449900  0.34632700  0.36019500  1
  N  N4  1  0.15367300  0.52550100  0.86019500  1
  N  N5  1  0.34632700  0.52550100  0.36019500  1
  N  N6  1  0.15367300  0.97449900  0.36019500  1
  N  N7  1  0.34632700  0.97449900  0.86019500  1
  N  N8  1  0.47449900  0.84632700  0.63980500  1
  N  N9  1  0.02550100  0.84632700  0.13980500  1
  N  N10  1  0.47449900  0.65367300  0.13980500  1
  N  N11  1  0.02550100  0.65367300  0.63980500  1
  N  N12  1  0.84632700  0.47449900  0.13980500  1
  N  N13  1  0.65367300  0.47449900  0.63980500  1
  N  N14  1  0.84632700  0.02550100  0.63980500  1
  N  N15  1  0.65367300  0.02550100  0.13980500  1
  N  N16  1  0.75000000  0.75000000  0.31826800  1
  N  N17  1  0.75000000  0.75000000  0.81826800  1
  N  N18  1  0.25000000  0.25000000  0.68173200  1
  N  N19  1  0.25000000  0.25000000  0.18173200  1
  F  F0  1  0.67595500  0.40782900  0.36817900  1
  F  F1  1  0.82404500  0.40782900  0.86817900  1
  F  F2  1  0.67595500  0.09217100  0.86817900  1
  F  F3  1  0.82404500  0.09217100  0.36817900  1
  F  F4  1  0.40782900  0.67595500  0.86817900  1
  F  F5  1  0.09217100  0.67595500  0.36817900  1
  F  F6  1  0.40782900  0.82404500  0.36817900  1
  F  F7  1  0.09217100  0.82404500  0.86817900  1
  F  F8  1  0.32404500  0.59217100  0.63182100  1
  F  F9  1  0.17595500  0.59217100  0.13182100  1
  F  F10  1  0.32404500  0.90782900  0.13182100  1
  F  F11  1  0.17595500  0.90782900  0.63182100  1
  F  F12  1  0.59217100  0.32404500  0.13182100  1
  F  F13  1  0.90782900  0.32404500  0.63182100  1
  F  F14  1  0.59217100  0.17595500  0.63182100  1
  F  F15  1  0.90782900  0.17595500  0.13182100  1
loop_
_geom_bond_atom_site_label_1
_geom_bond_atom_site_label_2
_geom_bond_distance
_geom_bond_site_symmetry_2
H0 N0 1.025895 1_555
H1 N1 1.025895 1_555
H2 N2 1.025895 1_555
H3 N3 1.025895 1_555
H4 N4 1.025895 1_555
H5 N5 1.025895 1_555
H6 N6 1.025895 1_555
H7 N7 1.025895 1_555
H8 N8 1.025895 1_555
H9 N9 1.025895 1_555
H10 N10 1.025895 1_555
H11 N11 1.025895 1_555
H12 N12 1.025895 1_555
H13 N13 1.025895 1_555
H14 N14 1.025895 1_555
H15 N15 1.025895 1_555
H16 N0 1.026837 1_555
H17 N1 1.026837 1_455
H18 N2 1.026837 1_555
H19 N3 1.026837 1_455
H20 N4 1.026837 1_555
H21 N5 1.026837 1_555
H22 N6 1.026837 1_545
H23 N7 1.026837 1_545
H24 N8 1.026837 1_555
H25 N9 1.026837 1_655
H26 N10 1.026837 1_555
H27 N11 1.026837 1_655
H28 N12 1.026837 1_555
H29 N13 1.026837 1_555
H30 N14 1.026837 1_565
H31 N15 1.026837 1_565
H32 N0 1.027748 1_555
H33 N1 1.027748 1_555
H34 N2 1.027748 1_555
H35 N3 1.027748 1_555
H36 N4 1.027748 1_555
H37 N5 1.027748 1_555
H38 N6 1.027748 1_555
H39 N7 1.027748 1_555
H40 N8 1.027748 1_555
H41 N9 1.027748 1_555
H42 N10 1.027748 1_555
H43 N11 1.027748 1_555
H44 N12 1.027748 1_555
H45 N13 1.027748 1_555
H46 N14 1.027748 1_555
H47 N15 1.027748 1_555
F0 U0 2.137303 1_555
F1 U1 2.137303 1_555
F2 U1 2.137303 1_555
F3 U0 2.137303 1_555
F4 U2 2.137303 1_555
F5 U3 2.137303 1_555
F6 U3 2.137303 1_555
F7 U2 2.137303 1_555
F8 U2 2.137303 1_555
F9 U3 2.137303 1_555
F10 U3 2.137303 1_555
F11 U2 2.137303 1_555
F12 U0 2.137303 1_555
F13 U1 2.137303 1_555
F14 U1 2.137303 1_555
F15 U0 2.137303 1_555
