# generated using pymatgen
data_La3Co2Sn7
_symmetry_space_group_name_H-M   'P 1'
_cell_length_a   4.60401554
_cell_length_b   4.63127843
_cell_length_c   14.06091742
_cell_angle_alpha   90.00000000
_cell_angle_beta   99.42270640
_cell_angle_gamma   90.00000000
_symmetry_Int_Tables_number   1
_chemical_formula_structural   La3Co2Sn7
_chemical_formula_sum   'La3 Co2 Sn7'
_cell_volume   295.76832287
_cell_formula_units_Z   1
loop_
 _symmetry_equiv_pos_site_id
 _symmetry_equiv_pos_as_xyz
  1  'x, y, z'
loop_
 _atom_site_type_symbol
 _atom_site_label
 _atom_site_symmetry_multiplicity
 _atom_site_fract_x
 _atom_site_fract_y
 _atom_site_fract_z
 _atom_site_occupancy
  La  La0  1  0.50003403  0.50000000  0.00006805  1
  La  La1  1  0.18465404  -0.00000000  0.36930808  1
  La  La2  1  0.81527508  -0.00000000  0.63055015  1
  Co  Co0  1  0.62751794  0.50000000  0.25503489  1
  Co  Co1  1  0.37246586  0.50000000  0.74493271  1
  Sn  Sn0  1  0.71724319  0.50000000  0.43448837  1
  Sn  Sn1  1  0.28271473  0.50000000  0.56542846  1
  Sn  Sn2  1  0.59102379  -0.00000000  0.18204657  1
  Sn  Sn3  1  0.00004339  -0.00000000  0.00008578  1
  Sn  Sn4  1  0.40899780  -0.00000000  0.81799559  1
  Sn  Sn5  1  0.90929426  0.50000000  0.81858853  1
  Sn  Sn6  1  0.09073590  0.50000000  0.18147181  1
loop_
_geom_bond_atom_site_label_1
_geom_bond_atom_site_label_2
_geom_bond_distance
_geom_bond_site_symmetry_2
La0 Sn3 3.265182 1_555
La0 Sn3 3.265182 1_565
La0 Sn3 3.265185 1_655
La0 Sn3 3.265185 1_665
La0 Sn6 3.410416 1_655
La0 Sn6 3.410417 1_555
La0 Sn5 3.411192 1_454
La0 Sn5 3.411193 1_554
La0 Sn2 3.425504 1_565
La0 Sn2 3.425504 1_555
La0 Sn4 3.426464 1_564
La0 Sn4 3.426464 1_554
La1 Sn0 3.388045 1_545
La1 Sn0 3.388045 1_555
La1 Sn0 3.388052 1_445
La1 Sn0 3.388052 1_455
La1 Sn2 3.470800 1_455
La1 Sn2 3.470803 1_555
La1 Sn6 3.485813 1_545
La1 Sn6 3.485813 1_555
La1 Sn1 3.572520 1_555
La1 Sn1 3.572520 1_545
La2 Sn1 3.387830 1_555
La2 Sn1 3.387830 1_545
La2 Sn1 3.387833 1_655
La2 Sn1 3.387833 1_645
La2 Sn4 3.472711 1_655
La2 Sn4 3.472711 1_555
La2 Sn5 3.487909 1_545
La2 Sn5 3.487909 1_555
La2 Sn0 3.571901 1_545
La2 Sn0 3.571901 1_555
Co0 Sn0 2.489235 1_555
Co0 Sn6 2.518028 1_655
Co0 Sn6 2.518031 1_555
Co0 Sn2 2.527293 1_565
Co0 Sn2 2.527293 1_555
Co0 La0 3.536696 1_555
Co1 Sn1 2.489939 1_555
Co1 Sn5 2.518549 1_455
Co1 Sn5 2.518553 1_555
Co1 Sn4 2.527708 1_555
Co1 Sn4 2.527708 1_565
Co1 La0 3.539033 1_556
Sn0 Sn1 2.932259 1_555
Sn0 Sn1 2.932269 1_655
Sn2 Sn3 3.416121 1_555
Sn2 Sn3 3.416122 1_655
Sn3 Sn4 3.417447 1_554
Sn3 Sn4 3.417449 1_454
Sn3 Sn6 3.419452 1_545
Sn3 Sn6 3.419452 1_555
Sn3 Sn5 3.420587 1_454
Sn3 Sn5 3.420587 1_444
