# generated using pymatgen
data_MnSeO5
_symmetry_space_group_name_H-M   'P 1'
_cell_length_a   5.48502157
_cell_length_b   5.48502157
_cell_length_c   7.58179151
_cell_angle_alpha   70.39948251
_cell_angle_beta   109.60051749
_cell_angle_gamma   78.04541479
_symmetry_Int_Tables_number   1
_chemical_formula_structural   MnSeO5
_chemical_formula_sum   'Mn2 Se2 O10'
_cell_volume   188.84397353
_cell_formula_units_Z   2
loop_
 _symmetry_equiv_pos_site_id
 _symmetry_equiv_pos_as_xyz
  1  'x, y, z'
loop_
 _atom_site_type_symbol
 _atom_site_label
 _atom_site_symmetry_multiplicity
 _atom_site_fract_x
 _atom_site_fract_y
 _atom_site_fract_z
 _atom_site_occupancy
  Mn  Mn0  1  0.00000000  0.50000000  0.50000000  1
  Mn  Mn1  1  0.50000000  0.00000000  0.00000000  1
  Se  Se0  1  0.92131900  0.92131900  0.75000000  1
  Se  Se1  1  0.07868100  0.07868100  0.25000000  1
  O  O0  1  0.26746500  0.79076600  0.89146500  1
  O  O1  1  0.79076600  0.26746500  0.60853500  1
  O  O2  1  0.73253500  0.20923400  0.10853500  1
  O  O3  1  0.20923400  0.73253500  0.39146500  1
  O  O4  1  0.82381500  0.78433300  0.58189400  1
  O  O5  1  0.78433300  0.82381500  0.91810600  1
  O  O6  1  0.17618500  0.21566700  0.41810600  1
  O  O7  1  0.21566700  0.17618500  0.08189400  1
  O  O8  1  0.31617100  0.31617100  0.75000000  1
  O  O9  1  0.68382900  0.68382900  0.25000000  1
loop_
_geom_bond_atom_site_label_1
_geom_bond_atom_site_label_2
_geom_bond_distance
_geom_bond_site_symmetry_2
Mn0 O9 1.845219 1_455
Mn0 O8 1.845219 1_555
Mn0 O3 2.038847 1_555
Mn0 O1 2.038847 1_455
Mn0 O6 2.044398 1_555
Mn0 O4 2.044398 1_455
Mn1 O9 1.845219 1_545
Mn1 O8 1.845219 1_554
Mn1 O2 2.038847 1_555
Mn1 O0 2.038847 1_544
Mn1 O7 2.044398 1_555
Mn1 O5 2.044398 1_544
O0 Se0 1.680218 1_455
O1 Se0 1.680218 1_545
O2 Se1 1.680218 1_655
O3 Se1 1.680218 1_565
O4 Se0 1.681280 1_555
O5 Se0 1.681280 1_555
O6 Se1 1.681280 1_555
O7 Se1 1.681280 1_555
