# generated using pymatgen
data_BaSrLiNdTlCu2O7
_symmetry_space_group_name_H-M   'P 1'
_cell_length_a   3.89498500
_cell_length_b   4.02463695
_cell_length_c   13.05510099
_cell_angle_alpha   86.16013427
_cell_angle_beta   90.00000000
_cell_angle_gamma   90.00000000
_symmetry_Int_Tables_number   1
_chemical_formula_structural   BaSrLiNdTlCu2O7
_chemical_formula_sum   'Ba1 Sr1 Li1 Nd1 Tl1 Cu2 O7'
_cell_volume   204.19104800
_cell_formula_units_Z   1
loop_
 _symmetry_equiv_pos_site_id
 _symmetry_equiv_pos_as_xyz
  1  'x, y, z'
loop_
 _atom_site_type_symbol
 _atom_site_label
 _atom_site_symmetry_multiplicity
 _atom_site_fract_x
 _atom_site_fract_y
 _atom_site_fract_z
 _atom_site_occupancy
  Ba  Ba0  1  0.50000000  0.42850600  0.75899500  1
  Sr  Sr0  1  0.50000000  0.57014000  0.21962900  1
  Li  Li0  1  0.50000000  0.86067500  0.92827600  1
  Nd  Nd0  1  0.50000000  0.49739100  0.48514100  1
  Tl  Tl0  1  0.00000000  0.19215500  0.02440900  1
  Cu  Cu0  1  0.00000000  0.97118400  0.60774500  1
  Cu  Cu1  1  0.00000000  0.02359700  0.35952000  1
  O  O0  1  0.50000000  0.97055300  0.61364300  1
  O  O1  1  0.00000000  0.47065000  0.60944200  1
  O  O2  1  0.50000000  0.02077800  0.37628100  1
  O  O3  1  0.00000000  0.52056300  0.36910300  1
  O  O4  1  0.00000000  0.97642400  0.86392900  1
  O  O5  1  0.00000000  0.01330200  0.18532800  1
  O  O6  1  0.50000000  0.48175100  0.01522600  1
loop_
_geom_bond_atom_site_label_1
_geom_bond_atom_site_label_2
_geom_bond_distance
_geom_bond_site_symmetry_2
Ba0 O0 2.732446 1_545
Ba0 O1 2.754836 1_555
Ba0 O1 2.754836 1_655
Ba0 O0 2.793833 1_555
Ba0 O4 2.940414 1_645
Ba0 O4 2.940414 1_545
Ba0 O4 3.307085 1_555
Ba0 O4 3.307085 1_655
Li0 O6 1.839132 1_556
Li0 O4 2.159403 1_655
Li0 O4 2.159403 1_555
Nd0 O2 2.460872 1_565
Nd0 O2 2.462588 1_555
Nd0 O3 2.465236 1_655
Nd0 O3 2.465236 1_555
Nd0 O1 2.532642 1_655
Nd0 O1 2.532642 1_555
Nd0 O0 2.614144 1_545
Nd0 O0 2.620806 1_555
Cu0 O0 1.949009 1_555
Cu0 O0 1.949009 1_455
Cu0 O1 2.011774 1_565
Cu0 O1 2.013105 1_555
Cu1 O2 1.959695 1_455
Cu1 O2 1.959695 1_555
Cu1 O3 2.012361 1_555
Cu1 O3 2.020012 1_545
Cu1 O5 2.277244 1_555
O2 Sr0 2.822870 1_545
O2 Sr0 2.909517 1_555
O3 Sr0 2.754695 1_555
O3 Sr0 2.754695 1_455
O4 Tl0 2.320958 1_566
O5 Tl0 2.174631 1_555
O5 Sr0 2.658456 1_445
O5 Sr0 2.658456 1_545
O5 Sr0 3.024908 1_555
O5 Sr0 3.024908 1_455
O6 Tl0 2.268660 1_555
O6 Tl0 2.268660 1_655
O6 Sr0 2.715620 1_555
