# generated using pymatgen
data_SrPrEuNbO6
_symmetry_space_group_name_H-M   'P 1'
_cell_length_a   5.89005702
_cell_length_b   6.08225445
_cell_length_c   8.46081121
_cell_angle_alpha   89.78754349
_cell_angle_beta   89.42071875
_cell_angle_gamma   90.06830465
_symmetry_Int_Tables_number   1
_chemical_formula_structural   SrPrEuNbO6
_chemical_formula_sum   'Sr2 Pr2 Eu2 Nb2 O12'
_cell_volume   303.08928088
_cell_formula_units_Z   2
loop_
 _symmetry_equiv_pos_site_id
 _symmetry_equiv_pos_as_xyz
  1  'x, y, z'
loop_
 _atom_site_type_symbol
 _atom_site_label
 _atom_site_symmetry_multiplicity
 _atom_site_fract_x
 _atom_site_fract_y
 _atom_site_fract_z
 _atom_site_occupancy
  Sr  Sr0  1  0.51405205  0.55273188  0.25038651  1
  Sr  Sr1  1  0.48594795  0.44726812  0.74961349  1
  Pr  Pr0  1  0.50000000  0.00000000  -0.00000000  1
  Pr  Pr1  1  0.00000000  0.50000000  0.50000000  1
  Eu  Eu0  1  0.98357885  0.05552909  0.24865494  1
  Eu  Eu1  1  0.01642115  0.94447091  0.75134506  1
  Nb  Nb0  1  0.00000000  0.50000000  -0.00000000  1
  Nb  Nb1  1  0.50000000  0.00000000  0.50000000  1
  O  O0  1  0.17333112  0.21816690  0.94123483  1
  O  O1  1  0.32379418  0.72133506  0.55757955  1
  O  O2  1  0.82666888  0.78183310  0.05876517  1
  O  O3  1  0.67620582  0.27866494  0.44242045  1
  O  O4  1  0.27869266  0.68267541  0.94603396  1
  O  O5  1  0.22046724  0.18073009  0.55716605  1
  O  O6  1  0.72130734  0.31732459  0.05396604  1
  O  O7  1  0.77953276  0.81926991  0.44283395  1
  O  O8  1  0.38973717  0.96663194  0.27243042  1
  O  O9  1  0.10237901  0.46056965  0.22799546  1
  O  O10  1  0.61026283  0.03336806  0.72756958  1
  O  O11  1  0.89762099  0.53943035  0.77200454  1
loop_
_geom_bond_atom_site_label_1
_geom_bond_atom_site_label_2
_geom_bond_distance
_geom_bond_site_symmetry_2
Eu0 O8 2.463311 1_645
Eu0 O7 2.479309 1_545
Eu0 O2 2.500555 1_545
Eu0 O9 2.565061 1_655
Eu0 O6 2.770027 1_555
Eu0 O3 2.787407 1_555
Eu0 O0 2.985380 1_654
Eu0 O5 3.070178 1_655
Eu1 O10 2.463311 1_465
Eu1 O5 2.479309 1_565
Eu1 O0 2.500555 1_565
Eu1 O11 2.565061 1_455
Eu1 O4 2.770027 1_555
Eu1 O1 2.787407 1_555
Eu1 O2 2.985380 1_456
Eu1 O7 3.070178 1_455
Nb0 O4 2.028369 1_554
Nb0 O6 2.028369 1_455
Nb0 O9 2.040276 1_555
Nb0 O11 2.040276 1_454
Nb0 O2 2.056247 1_455
Nb0 O0 2.056247 1_554
Nb1 O5 2.035996 1_555
Nb1 O7 2.035996 1_545
Nb1 O1 2.041243 1_545
Nb1 O3 2.041243 1_555
Nb1 O8 2.048928 1_545
Nb1 O10 2.048928 1_555
O0 Pr0 2.393886 1_556
O0 Sr1 2.806688 1_555
O1 Pr1 2.388398 1_555
O1 Sr1 2.519098 1_555
O1 Sr0 3.004393 1_555
O2 Pr0 2.393886 1_565
O2 Sr0 2.806688 1_555
O3 Pr1 2.388398 1_655
O3 Sr0 2.519098 1_555
O3 Sr1 3.004393 1_555
O4 Pr0 2.375981 1_566
O4 Sr1 2.506575 1_555
O4 Sr0 3.039261 1_556
O5 Pr1 2.388065 1_555
O5 Sr1 2.790973 1_555
O6 Pr0 2.375981 1_555
O6 Sr0 2.506575 1_555
O6 Sr1 3.039261 1_554
O7 Pr1 2.388065 1_655
O7 Sr0 2.790973 1_555
O8 Pr0 2.396220 1_565
O8 Sr0 2.629369 1_555
O9 Pr1 2.386183 1_555
O9 Sr0 2.497297 1_555
O10 Pr0 2.396220 1_556
O10 Sr1 2.629369 1_555
O11 Pr1 2.386183 1_655
O11 Sr1 2.497297 1_555
