# generated using pymatgen
data_CaSnO6
_symmetry_space_group_name_H-M   'P 1'
_cell_length_a   6.22438664
_cell_length_b   6.22438664
_cell_length_c   6.22438664
_cell_angle_alpha   60.00000000
_cell_angle_beta   60.00000000
_cell_angle_gamma   60.00000000
_symmetry_Int_Tables_number   1
_chemical_formula_structural   CaSnO6
_chemical_formula_sum   'Ca1 Sn1 O6'
_cell_volume   170.51974999
_cell_formula_units_Z   1
loop_
 _symmetry_equiv_pos_site_id
 _symmetry_equiv_pos_as_xyz
  1  'x, y, z'
loop_
 _atom_site_type_symbol
 _atom_site_label
 _atom_site_symmetry_multiplicity
 _atom_site_fract_x
 _atom_site_fract_y
 _atom_site_fract_z
 _atom_site_occupancy
  Ca  Ca0  1  0.50000000  0.50000000  0.50000000  1
  Sn  Sn0  1  0.00000000  0.00000000  0.00000000  1
  O  O0  1  0.23417500  0.23417500  0.76582500  1
  O  O1  1  0.76582500  0.76582500  0.23417500  1
  O  O2  1  0.23417500  0.76582500  0.76582500  1
  O  O3  1  0.76582500  0.23417500  0.23417500  1
  O  O4  1  0.76582500  0.23417500  0.76582500  1
  O  O5  1  0.23417500  0.76582500  0.23417500  1
loop_
_geom_bond_atom_site_label_1
_geom_bond_atom_site_label_2
_geom_bond_distance
_geom_bond_site_symmetry_2
Ca0 O3 2.339954 1_555
Ca0 O1 2.339954 1_555
Ca0 O0 2.339954 1_555
Ca0 O5 2.339954 1_555
Ca0 O2 2.339954 1_555
Ca0 O4 2.339954 1_555
O0 Sn0 2.061352 1_556
O1 Sn0 2.061352 1_665
O2 Sn0 2.061352 1_566
O3 Sn0 2.061352 1_655
O4 Sn0 2.061352 1_656
O5 Sn0 2.061352 1_565
