# generated using pymatgen
data_LiMn2F7
_symmetry_space_group_name_H-M   'P 1'
_cell_length_a   8.10370144
_cell_length_b   8.09998600
_cell_length_c   8.30155857
_cell_angle_alpha   90.00000000
_cell_angle_beta   80.22921723
_cell_angle_gamma   90.00000000
_symmetry_Int_Tables_number   1
_chemical_formula_structural   LiMn2F7
_chemical_formula_sum   'Li4 Mn8 F28'
_cell_volume   537.00900809
_cell_formula_units_Z   4
loop_
 _symmetry_equiv_pos_site_id
 _symmetry_equiv_pos_as_xyz
  1  'x, y, z'
loop_
 _atom_site_type_symbol
 _atom_site_label
 _atom_site_symmetry_multiplicity
 _atom_site_fract_x
 _atom_site_fract_y
 _atom_site_fract_z
 _atom_site_occupancy
  Li  Li0  1  0.12778500  0.09164600  0.65197000  1
  Li  Li1  1  0.37221500  0.59164600  0.84803000  1
  Li  Li2  1  0.62778500  0.40835400  0.15197000  1
  Li  Li3  1  0.87221500  0.90835400  0.34803000  1
  Mn  Mn0  1  0.03511800  0.71820800  0.70684500  1
  Mn  Mn1  1  0.30150400  0.38188500  0.41889600  1
  Mn  Mn2  1  0.19849600  0.88188500  0.08110400  1
  Mn  Mn3  1  0.46488200  0.21820800  0.79315500  1
  Mn  Mn4  1  0.53511800  0.78179200  0.20684500  1
  Mn  Mn5  1  0.80150400  0.11811500  0.91889600  1
  Mn  Mn6  1  0.69849600  0.61811500  0.58110400  1
  Mn  Mn7  1  0.96488200  0.28179200  0.29315500  1
  F  F0  1  0.05228900  0.06247000  0.14424000  1
  F  F1  1  0.14484300  0.42348000  0.22933000  1
  F  F2  1  0.05064900  0.76513900  0.22946600  1
  F  F3  1  0.11212100  0.21318800  0.44575400  1
  F  F4  1  0.15188000  0.69240800  0.88736900  1
  F  F5  1  0.19267800  0.86570200  0.61065500  1
  F  F6  1  0.17231900  0.51485900  0.57745500  1
  F  F7  1  0.38787900  0.71318800  0.05424600  1
  F  F8  1  0.44935100  0.26513900  0.27053400  1
  F  F9  1  0.35515700  0.92348000  0.27067000  1
  F  F10  1  0.32768100  0.01485900  0.92254500  1
  F  F11  1  0.30732200  0.36570200  0.88934500  1
  F  F12  1  0.34812000  0.19240800  0.61263100  1
  F  F13  1  0.44771100  0.56247000  0.35576000  1
  F  F14  1  0.55228900  0.43753000  0.64424000  1
  F  F15  1  0.65188000  0.80759200  0.38736900  1
  F  F16  1  0.69267800  0.63429800  0.11065500  1
  F  F17  1  0.67231900  0.98514100  0.07745500  1
  F  F18  1  0.64484300  0.07652000  0.72933000  1
  F  F19  1  0.55064900  0.73486100  0.72946600  1
  F  F20  1  0.61212100  0.28681200  0.94575400  1
  F  F21  1  0.82768100  0.48514100  0.42254500  1
  F  F22  1  0.80732200  0.13429800  0.38934500  1
  F  F23  1  0.84812000  0.30759200  0.11263100  1
  F  F24  1  0.88787900  0.78681200  0.55424600  1
  F  F25  1  0.94935100  0.23486100  0.77053400  1
  F  F26  1  0.85515700  0.57652000  0.77067000  1
  F  F27  1  0.94771100  0.93753000  0.85576000  1
loop_
_geom_bond_atom_site_label_1
_geom_bond_atom_site_label_2
_geom_bond_distance
_geom_bond_site_symmetry_2
F0 Mn2 1.899296 1_545
F0 Mn7 2.211049 1_455
F0 Li3 2.389974 1_445
F1 Mn7 1.860754 1_455
F1 Mn1 2.209036 1_555
F2 Mn2 1.829146 1_555
F2 Li3 1.980468 1_455
F3 Mn7 1.962222 1_455
F3 Li0 1.997433 1_555
F3 Mn1 2.038640 1_555
F4 Mn0 1.914722 1_555
F4 Li1 1.939841 1_555
F4 Mn2 2.300227 1_556
F5 Mn0 1.830071 1_555
F5 Li0 1.918954 1_565
F6 Mn1 1.876425 1_555
F6 Mn0 2.167399 1_555
F7 Mn4 1.962222 1_555
F7 Li1 1.997433 1_554
F7 Mn2 2.038640 1_555
F8 Mn1 1.829146 1_555
F8 Li2 1.980468 1_555
F9 Mn4 1.860754 1_555
F9 Mn2 2.209036 1_555
F10 Mn2 1.876425 1_546
F10 Mn3 2.167399 1_555
F11 Mn3 1.830071 1_555
F11 Li1 1.918954 1_555
F12 Mn3 1.914722 1_555
F12 Li0 1.939841 1_555
F12 Mn1 2.300227 1_555
F13 Mn1 1.899296 1_555
F13 Mn4 2.211049 1_555
F13 Li2 2.389974 1_555
F14 Mn6 1.899296 1_555
F14 Mn3 2.211049 1_555
F14 Li1 2.389974 1_555
F15 Mn4 1.914722 1_555
F15 Li3 1.939841 1_555
F15 Mn6 2.300227 1_555
F16 Mn4 1.830071 1_555
F16 Li2 1.918954 1_555
F17 Mn5 1.876425 1_564
F17 Mn4 2.167399 1_555
F18 Mn3 1.860754 1_555
F18 Mn5 2.209036 1_555
F19 Mn6 1.829146 1_555
F19 Li1 1.980468 1_555
F20 Mn3 1.962222 1_555
F20 Li2 1.997433 1_556
F20 Mn5 2.038640 1_555
F21 Mn6 1.876425 1_555
F21 Mn7 2.167399 1_555
F22 Mn7 1.830071 1_555
F22 Li3 1.918954 1_545
F23 Mn7 1.914722 1_555
F23 Li2 1.939841 1_555
F23 Mn5 2.300227 1_554
F24 Mn0 1.962222 1_655
F24 Li3 1.997433 1_555
F24 Mn6 2.038640 1_555
F25 Mn5 1.829146 1_555
F25 Li0 1.980468 1_655
F26 Mn0 1.860754 1_655
F26 Mn6 2.209036 1_555
F27 Mn5 1.899296 1_565
F27 Mn0 2.211049 1_655
F27 Li0 2.389974 1_665
