# generated using pymatgen
data_CoP(H4O3)3
_symmetry_space_group_name_H-M   'P 1'
_cell_length_a   7.17389800
_cell_length_b   10.80000500
_cell_length_c   13.21919900
_cell_angle_alpha   90.00000000
_cell_angle_beta   90.00000000
_cell_angle_gamma   90.00000000
_symmetry_Int_Tables_number   1
_chemical_formula_structural   CoP(H4O3)3
_chemical_formula_sum   'Co4 P4 H48 O36'
_cell_volume   1024.19887506
_cell_formula_units_Z   4
loop_
 _symmetry_equiv_pos_site_id
 _symmetry_equiv_pos_as_xyz
  1  'x, y, z'
loop_
 _atom_site_type_symbol
 _atom_site_label
 _atom_site_symmetry_multiplicity
 _atom_site_fract_x
 _atom_site_fract_y
 _atom_site_fract_z
 _atom_site_occupancy
  Co  Co0  1  0.50000000  0.35887200  0.50000000  1
  Co  Co1  1  0.00000000  0.64112800  0.00000000  1
  Co  Co2  1  0.50000000  0.64112800  0.50000000  1
  Co  Co3  1  0.00000000  0.35887200  0.00000000  1
  P  P0  1  0.13499200  0.50000000  0.45379100  1
  P  P1  1  0.86500800  0.50000000  0.54620900  1
  P  P2  1  0.63499200  0.50000000  0.04620900  1
  P  P3  1  0.36500800  0.50000000  0.95379100  1
  H  H0  1  0.94780800  0.18148000  0.35692400  1
  H  H1  1  0.05219200  0.18148000  0.64307600  1
  H  H2  1  0.44780800  0.81852000  0.14307600  1
  H  H3  1  0.55219200  0.81852000  0.85692400  1
  H  H4  1  0.05219200  0.81852000  0.64307600  1
  H  H5  1  0.94780800  0.81852000  0.35692400  1
  H  H6  1  0.55219200  0.18148000  0.85692400  1
  H  H7  1  0.44780800  0.18148000  0.14307600  1
  H  H8  1  0.54776000  0.07512400  0.38737900  1
  H  H9  1  0.45224000  0.07512400  0.61262100  1
  H  H10  1  0.04776000  0.92487600  0.11262100  1
  H  H11  1  0.95224000  0.92487600  0.88737900  1
  H  H12  1  0.45224000  0.92487600  0.61262100  1
  H  H13  1  0.54776000  0.92487600  0.38737900  1
  H  H14  1  0.95224000  0.07512400  0.88737900  1
  H  H15  1  0.04776000  0.07512400  0.11262100  1
  H  H16  1  0.89915700  0.28079800  0.64912200  1
  H  H17  1  0.10084300  0.28079800  0.35087800  1
  H  H18  1  0.39915700  0.71920200  0.85087800  1
  H  H19  1  0.60084300  0.71920200  0.14912200  1
  H  H20  1  0.10084300  0.71920200  0.35087800  1
  H  H21  1  0.89915700  0.71920200  0.64912200  1
  H  H22  1  0.60084300  0.28079800  0.14912200  1
  H  H23  1  0.39915700  0.28079800  0.85087800  1
  H  H24  1  0.53640100  0.26013800  0.71391000  1
  H  H25  1  0.46359900  0.26013800  0.28609000  1
  H  H26  1  0.03640100  0.73986200  0.78609000  1
  H  H27  1  0.96359900  0.73986200  0.21391000  1
  H  H28  1  0.46359900  0.73986200  0.28609000  1
  H  H29  1  0.53640100  0.73986200  0.71391000  1
  H  H30  1  0.96359900  0.26013800  0.21391000  1
  H  H31  1  0.03640100  0.26013800  0.78609000  1
  H  H32  1  0.51760100  0.00000000  0.18893200  1
  H  H33  1  0.48239900  0.00000000  0.81106800  1
  H  H34  1  0.01760100  0.00000000  0.31106800  1
  H  H35  1  0.98239900  0.00000000  0.68893200  1
  H  H36  1  0.29222200  0.00000000  0.27218000  1
  H  H37  1  0.70777800  0.00000000  0.72782000  1
  H  H38  1  0.79222200  0.00000000  0.22782000  1
  H  H39  1  0.20777800  0.00000000  0.77218000  1
  H  H40  1  0.15435200  0.00000000  0.61192700  1
  H  H41  1  0.84564800  0.00000000  0.38807300  1
  H  H42  1  0.65435200  0.00000000  0.88807300  1
  H  H43  1  0.34564800  0.00000000  0.11192700  1
  H  H44  1  0.29399900  0.00000000  0.32875600  1
  H  H45  1  0.70600100  0.00000000  0.67124400  1
  H  H46  1  0.79399900  0.00000000  0.17124400  1
  H  H47  1  0.20600100  0.00000000  0.82875600  1
  O  O0  1  0.70132000  0.50000000  0.46830700  1
  O  O1  1  0.29868000  0.50000000  0.53169300  1
  O  O2  1  0.20132000  0.50000000  0.03169300  1
  O  O3  1  0.79868000  0.50000000  0.96830700  1
  O  O4  1  0.69342100  0.28000000  0.58473900  1
  O  O5  1  0.30657900  0.28000000  0.41526100  1
  O  O6  1  0.19342100  0.72000000  0.91526100  1
  O  O7  1  0.80657900  0.72000000  0.08473900  1
  O  O8  1  0.30657900  0.72000000  0.41526100  1
  O  O9  1  0.69342100  0.72000000  0.58473900  1
  O  O10  1  0.80657900  0.28000000  0.08473900  1
  O  O11  1  0.19342100  0.28000000  0.91526100  1
  O  O12  1  0.03063200  0.73521900  0.67134300  1
  O  O13  1  0.96936800  0.73521900  0.32865700  1
  O  O14  1  0.53063200  0.26478100  0.82865700  1
  O  O15  1  0.46936800  0.26478100  0.17134300  1
  O  O16  1  0.96936800  0.26478100  0.32865700  1
  O  O17  1  0.03063200  0.26478100  0.67134300  1
  O  O18  1  0.46936800  0.73521900  0.17134300  1
  O  O19  1  0.53063200  0.73521900  0.82865700  1
  O  O20  1  0.51974500  0.24168700  0.63673800  1
  O  O21  1  0.48025500  0.24168700  0.36326200  1
  O  O22  1  0.01974500  0.75831300  0.86326200  1
  O  O23  1  0.98025500  0.75831300  0.13673800  1
  O  O24  1  0.48025500  0.75831300  0.36326200  1
  O  O25  1  0.51974500  0.75831300  0.63673800  1
  O  O26  1  0.98025500  0.24168700  0.13673800  1
  O  O27  1  0.01974500  0.24168700  0.86326200  1
  O  O28  1  0.62480800  0.00000000  0.39142800  1
  O  O29  1  0.37519200  0.00000000  0.60857200  1
  O  O30  1  0.12480800  0.00000000  0.10857200  1
  O  O31  1  0.87519200  0.00000000  0.89142800  1
  O  O32  1  0.98574400  0.00000000  0.38249900  1
  O  O33  1  0.01425600  0.00000000  0.61750100  1
  O  O34  1  0.48574400  0.00000000  0.11750100  1
  O  O35  1  0.51425600  0.00000000  0.88249900  1
loop_
_geom_bond_atom_site_label_1
_geom_bond_atom_site_label_2
_geom_bond_distance
_geom_bond_site_symmetry_2
Co0 O4 1.976306 1_555
Co0 O5 1.976306 1_555
Co0 O1 2.141148 1_555
Co0 O0 2.141148 1_555
Co0 O21 2.211131 1_555
Co0 O20 2.211131 1_555
Co1 O7 1.976306 1_455
Co1 O6 1.976306 1_554
Co1 O3 2.141148 1_454
Co1 O2 2.141148 1_555
Co1 O23 2.211131 1_455
Co1 O22 2.211131 1_554
Co2 O9 1.976306 1_555
Co2 O8 1.976306 1_555
Co2 O1 2.141148 1_555
Co2 O0 2.141148 1_555
Co2 O24 2.211131 1_555
Co2 O25 2.211131 1_555
Co3 O10 1.976306 1_455
Co3 O11 1.976306 1_554
Co3 O2 2.141148 1_555
Co3 O3 2.141148 1_454
Co3 O27 2.211131 1_554
Co3 O26 2.211131 1_455
H0 O16 0.986368 1_555
H1 O17 0.986368 1_555
H2 O18 0.986368 1_555
H3 O19 0.986368 1_555
H4 O12 0.986368 1_555
H5 O13 0.986368 1_555
H6 O14 0.986368 1_555
H7 O15 0.986368 1_555
H8 O28 0.983185 1_555
H9 O29 0.983185 1_555
H10 O30 0.983185 1_565
H11 O31 0.983185 1_565
H12 O29 0.983185 1_565
H13 O28 0.983185 1_565
H14 O31 0.983185 1_555
H15 O30 0.983185 1_555
H16 O17 1.002902 1_655
H16 O4 1.703760 1_555
H17 O16 1.002902 1_455
H17 O5 1.703760 1_555
H18 O19 1.002902 1_555
H18 O6 1.703760 1_555
H19 O18 1.002902 1_555
H19 O7 1.703760 1_555
H20 O13 1.002902 1_455
H20 O8 1.703760 1_555
H21 O12 1.002902 1_655
H21 O9 1.703760 1_555
H22 O15 1.002902 1_555
H22 O10 1.703760 1_555
H23 O14 1.002902 1_555
H23 O11 1.703760 1_555
H24 O20 1.046277 1_555
H24 O14 1.518256 1_555
H25 O21 1.046277 1_555
H25 O15 1.518256 1_555
H26 O22 1.046277 1_555
H26 O12 1.518256 1_555
H27 O23 1.046277 1_555
H27 O13 1.518256 1_555
H28 O24 1.046277 1_555
H28 O18 1.518256 1_555
H29 O25 1.046277 1_555
H29 O19 1.518256 1_555
H30 O26 1.046277 1_555
H30 O16 1.518256 1_555
H31 O27 1.046277 1_555
H31 O17 1.518256 1_555
H32 O34 0.971524 1_555
H33 O35 0.971524 1_555
H34 O32 0.971524 1_455
H35 O33 0.971524 1_655
H36 H44 0.747998 1_555
H37 H45 0.747998 1_555
H38 H46 0.747998 1_555
H39 H47 0.747998 1_555
H40 O33 1.007732 1_555
H40 O29 1.584904 1_555
H41 O32 1.007732 1_555
H41 O28 1.584904 1_555
H42 O35 1.007732 1_555
H42 O31 1.584904 1_555
H43 O34 1.007732 1_555
H43 O30 1.584904 1_555
O0 P1 1.561867 1_555
O1 P0 1.561867 1_555
O2 P3 1.561867 1_554
O3 P2 1.561867 1_556
O10 O26 1.481912 1_555
O11 O27 1.481912 1_555
O20 O4 1.481912 1_555
O21 O5 1.481912 1_555
O22 O6 1.481912 1_555
O23 O7 1.481912 1_555
O24 O8 1.481912 1_555
O25 O9 1.481912 1_555
