# generated using pymatgen
data_Cu7Si2
_symmetry_space_group_name_H-M   'P 1'
_cell_length_a   4.08476812
_cell_length_b   4.08476812
_cell_length_c   7.58739400
_cell_angle_alpha   90.00000000
_cell_angle_beta   90.00000000
_cell_angle_gamma   120.00000201
_symmetry_Int_Tables_number   1
_chemical_formula_structural   Cu7Si2
_chemical_formula_sum   'Cu7 Si2'
_cell_volume   109.63723556
_cell_formula_units_Z   1
loop_
 _symmetry_equiv_pos_site_id
 _symmetry_equiv_pos_as_xyz
  1  'x, y, z'
loop_
 _atom_site_type_symbol
 _atom_site_label
 _atom_site_symmetry_multiplicity
 _atom_site_fract_x
 _atom_site_fract_y
 _atom_site_fract_z
 _atom_site_occupancy
  Cu  Cu0  1  0.33333300  0.66666700  0.15486200  1
  Cu  Cu1  1  0.66666700  0.33333300  0.84513800  1
  Cu  Cu2  1  0.33333300  0.66666700  0.49575800  1
  Cu  Cu3  1  0.66666700  0.33333300  0.50424200  1
  Cu  Cu4  1  0.00000000  0.00000000  0.33047000  1
  Cu  Cu5  1  0.00000000  0.00000000  0.66953000  1
  Cu  Cu6  1  0.00000000  0.00000000  0.00000000  1
  Si  Si0  1  0.33333300  0.66666700  0.80870500  1
  Si  Si1  1  0.66666700  0.33333300  0.19129500  1
loop_
_geom_bond_atom_site_label_1
_geom_bond_atom_site_label_2
_geom_bond_distance
_geom_bond_site_symmetry_2
Cu0 Si1 2.374485 1_455
Cu0 Si1 2.374485 1_565
Cu0 Si1 2.374492 1_555
Cu0 Cu2 2.586512 1_555
Cu0 Si0 2.626430 1_554
Cu0 Cu6 2.634841 1_565
Cu0 Cu6 2.634844 1_665
Cu0 Cu6 2.634844 1_555
Cu0 Cu4 2.708703 1_565
Cu0 Cu4 2.708706 1_665
Cu0 Cu4 2.708706 1_555
Cu1 Si0 2.374485 1_545
Cu1 Si0 2.374485 1_655
Cu1 Si0 2.374492 1_555
Cu1 Cu3 2.586512 1_555
Cu1 Si1 2.626430 1_556
Cu1 Cu6 2.634841 1_656
Cu1 Cu6 2.634844 1_666
Cu1 Cu6 2.634844 1_556
Cu1 Cu5 2.708703 1_655
Cu1 Cu5 2.708706 1_665
Cu1 Cu5 2.708706 1_555
Cu2 Cu3 2.359218 1_455
Cu2 Cu3 2.359218 1_565
Cu2 Cu3 2.359225 1_555
Cu2 Si0 2.374452 1_555
Cu2 Cu4 2.671057 1_565
Cu2 Cu4 2.671060 1_665
Cu2 Cu4 2.671060 1_555
Cu2 Cu5 2.701878 1_565
Cu2 Cu5 2.701881 1_555
Cu2 Cu5 2.701881 1_665
Cu3 Si1 2.374452 1_555
Cu3 Cu5 2.671057 1_655
Cu3 Cu5 2.671060 1_665
Cu3 Cu5 2.671060 1_555
Cu3 Cu4 2.701878 1_655
Cu3 Cu4 2.701881 1_555
Cu3 Cu4 2.701881 1_665
Cu4 Cu6 2.507406 1_555
Cu4 Cu5 2.572582 1_555
Cu4 Si1 2.583960 1_455
Cu4 Si1 2.583963 1_555
Cu4 Si1 2.583963 1_445
Cu5 Cu6 2.507406 1_556
Cu5 Si0 2.583960 1_545
Cu5 Si0 2.583963 1_555
Cu5 Si0 2.583963 1_445
Cu6 Si1 2.769191 1_455
Cu6 Si0 2.769191 1_544
Cu6 Si1 2.769194 1_555
Cu6 Si1 2.769194 1_445
Cu6 Si0 2.769194 1_444
Cu6 Si0 2.769194 1_554
