# generated using pymatgen
data_SiO2
_symmetry_space_group_name_H-M   'P 1'
_cell_length_a   13.03419535
_cell_length_b   13.03434875
_cell_length_c   7.59682931
_cell_angle_alpha   89.99873325
_cell_angle_beta   89.99964009
_cell_angle_gamma   119.99926192
_symmetry_Int_Tables_number   1
_chemical_formula_structural   SiO2
_chemical_formula_sum   'Si18 O36'
_cell_volume   1117.73742507
_cell_formula_units_Z   18
loop_
 _symmetry_equiv_pos_site_id
 _symmetry_equiv_pos_as_xyz
  1  'x, y, z'
loop_
 _atom_site_type_symbol
 _atom_site_label
 _atom_site_symmetry_multiplicity
 _atom_site_fract_x
 _atom_site_fract_y
 _atom_site_fract_z
 _atom_site_occupancy
  Si  Si0  1  0.99514899  0.22834590  0.19271224  1
  Si  Si1  1  0.75697973  0.75204289  0.19271423  1
  Si  Si2  1  0.23331137  0.99018075  0.19272769  1
  Si  Si3  1  0.99516434  0.22836390  0.78703281  1
  Si  Si4  1  0.75698691  0.75204502  0.78705897  1
  Si  Si5  1  0.23330399  0.99018983  0.78705769  1
  Si  Si6  1  0.75696888  0.99017850  0.19272970  1
  Si  Si7  1  0.23329073  0.22834777  0.19271066  1
  Si  Si8  1  0.99516111  0.75204468  0.19271342  1
  Si  Si9  1  0.75698506  0.99019210  0.78705644  1
  Si  Si10  1  0.23330472  0.22836635  0.78703184  1
  Si  Si11  1  0.99516088  0.75204619  0.78705286  1
  Si  Si12  1  0.08624354  0.41362732  0.48986809  1
  Si  Si13  1  0.57170962  0.65784487  0.48990064  1
  Si  Si14  1  0.32749252  0.89910089  0.48990316  1
  Si  Si15  1  0.57170459  0.89909587  0.48990355  1
  Si  Si16  1  0.32748504  0.41362769  0.48985751  1
  Si  Si17  1  0.08623594  0.65784530  0.48990375  1
  O  O0  1  0.09654750  0.19300000  0.22237809  1
  O  O1  1  0.79233274  0.88879354  0.22235670  1
  O  O2  1  0.09656339  0.88879322  0.22236161  1
  O  O3  1  0.09654860  0.19299549  0.75734637  1
  O  O4  1  0.79233143  0.88878751  0.75736781  1
  O  O5  1  0.09655891  0.88878845  0.75736437  1
  O  O6  1  0.86902764  0.11630619  0.24397328  1
  O  O7  1  0.86903846  0.73797839  0.24394630  1
  O  O8  1  0.24737698  0.11630412  0.24396469  1
  O  O9  1  0.86904899  0.11630807  0.73578341  1
  O  O10  1  0.86903919  0.73797995  0.73578452  1
  O  O11  1  0.24736431  0.11630555  0.73578860  1
  O  O12  1  0.02035014  0.33874419  0.31567082  1
  O  O13  1  0.64656669  0.66683829  0.31566870  1
  O  O14  1  0.31852206  0.96500127  0.31567514  1
  O  O15  1  0.02035236  0.33876092  0.66408395  1
  O  O16  1  0.64660843  0.66681830  0.66407680  1
  O  O17  1  0.31851233  0.96499549  0.66409332  1
  O  O18  1  0.64657866  0.96499517  0.31568465  1
  O  O19  1  0.31849722  0.33874610  0.31566986  1
  O  O20  1  0.02037129  0.66683966  0.31566853  1
  O  O21  1  0.64658188  0.96499265  0.66409635  1
  O  O22  1  0.31851169  0.33876493  0.66408518  1
  O  O23  1  0.02030734  0.66681409  0.66408341  1
  O  O24  1  0.99493826  0.26509071  0.98987439  1
  O  O25  1  0.72022597  0.71506375  0.98988142  1
  O  O26  1  0.27027681  0.99043001  0.98989472  1
  O  O27  1  0.72025625  0.99043616  0.98989053  1
  O  O28  1  0.27025279  0.26509786  0.98987486  1
  O  O29  1  0.99494160  0.71507409  0.98988215  1
  O  O30  1  0.22274143  0.44538152  0.48988780  1
  O  O31  1  0.53994665  0.76259263  0.48992985  1
  O  O32  1  0.22274556  0.76259293  0.48992943  1
  O  O33  1  0.08053551  0.53288692  0.48990506  1
  O  O34  1  0.45245408  0.53289037  0.48989531  1
  O  O35  1  0.45245390  0.90480867  0.48987175  1
loop_
_geom_bond_atom_site_label_1
_geom_bond_atom_site_label_2
_geom_bond_distance
_geom_bond_site_symmetry_2
O0 Si7 1.618216 1_555
O0 Si0 1.618234 1_455
O1 Si6 1.618193 1_555
O1 Si1 1.618295 1_555
O2 Si2 1.618210 1_555
O2 Si8 1.618304 1_455
O3 Si3 1.618281 1_455
O3 Si10 1.618322 1_555
O4 Si4 1.618262 1_555
O4 Si9 1.618353 1_555
O5 Si11 1.618262 1_455
O5 Si5 1.618306 1_555
O6 Si0 1.608114 1_555
O6 Si6 1.608253 1_545
O7 Si8 1.608143 1_555
O7 Si1 1.608160 1_555
O8 Si7 1.608179 1_555
O8 Si2 1.608195 1_545
O9 Si3 1.608152 1_555
O9 Si9 1.608225 1_545
O10 Si4 1.608159 1_555
O10 Si11 1.608203 1_555
O11 Si5 1.608167 1_545
O11 Si10 1.608192 1_555
O12 Si0 1.605762 1_455
O12 Si12 1.613496 1_555
O13 Si1 1.605831 1_555
O13 Si13 1.613469 1_555
O14 Si2 1.605660 1_555
O14 Si14 1.613613 1_555
O15 Si3 1.605708 1_455
O15 Si12 1.613487 1_555
O16 Si4 1.605815 1_555
O16 Si13 1.613505 1_555
O17 Si5 1.605818 1_555
O17 Si14 1.613407 1_555
O18 Si6 1.605675 1_555
O18 Si15 1.613564 1_555
O19 Si7 1.605801 1_555
O19 Si16 1.613424 1_555
O20 Si8 1.605851 1_455
O20 Si17 1.613510 1_555
O21 Si9 1.605800 1_555
O21 Si15 1.613449 1_555
O22 Si10 1.605704 1_555
O22 Si16 1.613541 1_555
O23 Si11 1.605764 1_455
O23 Si17 1.613520 1_555
O24 Si0 1.614041 1_556
O24 Si3 1.614048 1_555
O25 Si4 1.614008 1_555
O25 Si1 1.614091 1_556
O26 Si2 1.613975 1_556
O26 Si5 1.614056 1_555
O27 Si9 1.614022 1_555
O27 Si6 1.614028 1_556
O28 Si7 1.614046 1_556
O28 Si10 1.614062 1_555
O29 Si11 1.614026 1_555
O29 Si8 1.614055 1_556
O30 Si16 1.612532 1_555
O30 Si12 1.612541 1_555
O31 Si15 1.612616 1_555
O31 Si13 1.612678 1_555
O32 Si14 1.612670 1_555
O32 Si17 1.612678 1_555
O33 Si17 1.592902 1_555
O33 Si12 1.592974 1_555
O34 Si13 1.592868 1_555
O34 Si16 1.593011 1_555
O35 Si15 1.592873 1_555
O35 Si14 1.592877 1_555
