# generated using pymatgen
data_LiFeP
_symmetry_space_group_name_H-M   'P 1'
_cell_length_a   5.96623253
_cell_length_b   5.96623253
_cell_length_c   3.75363900
_cell_angle_alpha   90.00000000
_cell_angle_beta   90.00000000
_cell_angle_gamma   144.01210161
_symmetry_Int_Tables_number   1
_chemical_formula_structural   LiFeP
_chemical_formula_sum   'Li2 Fe2 P2'
_cell_volume   78.51366638
_cell_formula_units_Z   2
loop_
 _symmetry_equiv_pos_site_id
 _symmetry_equiv_pos_as_xyz
  1  'x, y, z'
loop_
 _atom_site_type_symbol
 _atom_site_label
 _atom_site_symmetry_multiplicity
 _atom_site_fract_x
 _atom_site_fract_y
 _atom_site_fract_z
 _atom_site_occupancy
  Li  Li0  1  0.08122700  0.91877300  0.75000000  1
  Li  Li1  1  0.91877300  0.08122700  0.25000000  1
  Fe  Fe0  1  0.75124800  0.24875200  0.75000000  1
  Fe  Fe1  1  0.24875200  0.75124800  0.25000000  1
  P  P0  1  0.35514900  0.64485100  0.75000000  1
  P  P1  1  0.64485100  0.35514900  0.25000000  1
loop_
_geom_bond_atom_site_label_1
_geom_bond_atom_site_label_2
_geom_bond_distance
_geom_bond_site_symmetry_2
Li0 Li1 2.630884 1_465
Li0 Li1 2.630884 1_466
Li0 P1 2.727768 1_565
Li0 P1 2.727768 1_566
Li0 P1 2.727768 1_455
Li0 P1 2.727768 1_456
Li1 P0 2.727768 1_655
Li1 P0 2.727768 1_544
Li1 P0 2.727768 1_545
Li1 P0 2.727768 1_654
Fe0 P0 2.187992 1_545
Fe0 P0 2.187992 1_655
Fe0 P1 2.231696 1_556
Fe0 P1 2.231696 1_555
Fe0 Li0 2.668338 1_545
Fe0 Li0 2.668338 1_655
Fe0 Li1 2.671529 1_555
Fe0 Li1 2.671529 1_556
Fe1 P1 2.187992 1_455
Fe1 P1 2.187992 1_565
Fe1 P0 2.231696 1_554
Fe1 P0 2.231696 1_555
Fe1 Li1 2.668338 1_455
Fe1 Li1 2.668338 1_565
Fe1 Li0 2.671529 1_555
Fe1 Li0 2.671529 1_554
