# generated using pymatgen
data_Nd6TlFe13
_symmetry_space_group_name_H-M   'P 1'
_cell_length_a   8.07536800
_cell_length_b   8.07536800
_cell_length_c   13.04421097
_cell_angle_alpha   108.03141365
_cell_angle_beta   108.03141365
_cell_angle_gamma   90.00000000
_symmetry_Int_Tables_number   1
_chemical_formula_structural   Nd6TlFe13
_chemical_formula_sum   'Nd12 Tl2 Fe26'
_cell_volume   764.80036048
_cell_formula_units_Z   2
loop_
 _symmetry_equiv_pos_site_id
 _symmetry_equiv_pos_as_xyz
  1  'x, y, z'
loop_
 _atom_site_type_symbol
 _atom_site_label
 _atom_site_symmetry_multiplicity
 _atom_site_fract_x
 _atom_site_fract_y
 _atom_site_fract_z
 _atom_site_occupancy
  Nd  Nd0  1  0.60483600  0.60483600  0.20967200  1
  Nd  Nd1  1  0.10483600  0.10483600  0.20967200  1
  Nd  Nd2  1  0.39516400  0.39516400  0.79032800  1
  Nd  Nd3  1  0.89516400  0.89516400  0.79032800  1
  Nd  Nd4  1  0.97784000  0.47784000  0.63005400  1
  Nd  Nd5  1  0.65221400  0.15221400  0.63005400  1
  Nd  Nd6  1  0.15221400  0.97784000  0.63005400  1
  Nd  Nd7  1  0.47784000  0.65221400  0.63005400  1
  Nd  Nd8  1  0.02216000  0.52216000  0.36994600  1
  Nd  Nd9  1  0.34778600  0.84778600  0.36994600  1
  Nd  Nd10  1  0.84778600  0.02216000  0.36994600  1
  Nd  Nd11  1  0.52216000  0.34778600  0.36994600  1
  Tl  Tl0  1  0.25000000  0.25000000  0.50000000  1
  Tl  Tl1  1  0.75000000  0.75000000  0.50000000  1
  Fe  Fe0  1  0.00000000  0.50000000  0.00000000  1
  Fe  Fe1  1  0.50000000  0.00000000  0.00000000  1
  Fe  Fe2  1  0.71016900  0.56606600  0.00000000  1
  Fe  Fe3  1  0.28983100  0.43393400  0.00000000  1
  Fe  Fe4  1  0.78983100  0.06606600  0.00000000  1
  Fe  Fe5  1  0.21016900  0.93393400  0.00000000  1
  Fe  Fe6  1  0.56606600  0.28983100  0.00000000  1
  Fe  Fe7  1  0.43393400  0.71016900  0.00000000  1
  Fe  Fe8  1  0.06606600  0.21016900  0.00000000  1
  Fe  Fe9  1  0.93393400  0.78983100  0.00000000  1
  Fe  Fe10  1  0.12048300  0.62048300  0.88279500  1
  Fe  Fe11  1  0.76231200  0.26231200  0.88279500  1
  Fe  Fe12  1  0.26231200  0.12048300  0.88279500  1
  Fe  Fe13  1  0.62048300  0.76231200  0.88279500  1
  Fe  Fe14  1  0.87951700  0.37951700  0.11720500  1
  Fe  Fe15  1  0.23768800  0.73768800  0.11720500  1
  Fe  Fe16  1  0.73768800  0.87951700  0.11720500  1
  Fe  Fe17  1  0.37951700  0.23768800  0.11720500  1
  Fe  Fe18  1  0.29328700  0.79328800  0.81244900  1
  Fe  Fe19  1  0.51916200  0.01916200  0.81244900  1
  Fe  Fe20  1  0.01916200  0.29328700  0.81244900  1
  Fe  Fe21  1  0.79328800  0.51916200  0.81244900  1
  Fe  Fe22  1  0.70671200  0.20671200  0.18755100  1
  Fe  Fe23  1  0.48083800  0.98083800  0.18755100  1
  Fe  Fe24  1  0.98083800  0.70671200  0.18755100  1
  Fe  Fe25  1  0.20671200  0.48083800  0.18755100  1
loop_
_geom_bond_atom_site_label_1
_geom_bond_atom_site_label_2
_geom_bond_distance
_geom_bond_site_symmetry_2
Nd0 Tl1 3.404963 1_555
Nd1 Tl0 3.404963 1_555
Nd2 Tl0 3.404963 1_555
Nd3 Tl1 3.404963 1_555
Nd4 Tl0 3.386638 1_655
Nd4 Tl1 3.386638 1_555
Nd5 Tl0 3.386638 1_555
Nd5 Tl1 3.386638 1_545
Nd6 Tl0 3.386638 1_565
Nd6 Tl1 3.386638 1_455
Nd7 Tl0 3.386638 1_555
Nd7 Tl1 3.386638 1_555
Nd8 Tl0 3.386638 1_555
Nd8 Tl1 3.386638 1_455
Nd9 Tl0 3.386638 1_565
Nd9 Tl1 3.386638 1_555
Nd10 Tl0 3.386638 1_655
Nd10 Tl1 3.386638 1_545
Nd11 Tl0 3.386638 1_555
Nd11 Tl1 3.386638 1_555
Fe0 Fe2 2.400528 1_455
Fe0 Fe9 2.400528 1_455
Fe0 Fe8 2.400528 1_555
Fe0 Fe3 2.400528 1_555
Fe0 Fe15 2.464213 1_555
Fe0 Fe11 2.464213 1_454
Fe0 Fe10 2.464213 1_554
Fe0 Fe14 2.464213 1_455
Fe0 Fe24 2.549850 1_455
Fe0 Fe25 2.549850 1_555
Fe0 Fe21 2.549850 1_454
Fe0 Fe20 2.549853 1_554
Fe1 Fe4 2.400528 1_555
Fe1 Fe7 2.400528 1_545
Fe1 Fe6 2.400528 1_555
Fe1 Fe5 2.400528 1_545
Fe1 Fe17 2.464213 1_555
Fe1 Fe13 2.464213 1_544
Fe1 Fe16 2.464213 1_545
Fe1 Fe12 2.464213 1_554
Fe1 Fe22 2.549847 1_555
Fe1 Fe18 2.549850 1_544
Fe1 Fe23 2.549853 1_545
Fe1 Fe19 2.549853 1_554
Fe2 Fe6 2.515985 1_555
Fe2 Fe7 2.515985 1_555
Fe2 Fe9 2.555462 1_555
Fe2 Fe24 2.649912 1_555
Fe2 Fe21 2.649918 1_554
Fe2 Nd2 3.035115 1_554
Fe2 Nd0 3.035115 1_555
Fe3 Fe6 2.515985 1_555
Fe3 Fe7 2.515985 1_555
Fe3 Fe8 2.555462 1_555
Fe3 Nd2 3.035115 1_554
Fe3 Nd0 3.035115 1_555
Fe4 Fe8 2.515985 1_655
Fe4 Fe9 2.515985 1_545
Fe4 Fe6 2.555462 1_555
Fe4 Nd1 3.035115 1_655
Fe4 Nd3 3.035115 1_544
Fe5 Fe8 2.515985 1_565
Fe5 Fe9 2.515985 1_455
Fe5 Fe7 2.555462 1_555
Fe5 Nd1 3.035115 1_565
Fe5 Nd3 3.035115 1_454
Fe6 Nd2 3.035115 1_554
Fe6 Nd0 3.035115 1_555
Fe7 Nd0 3.035115 1_555
Fe7 Nd2 3.035115 1_554
Fe8 Nd1 3.035115 1_555
Fe8 Nd3 3.035115 1_444
Fe9 Nd3 3.035115 1_554
Fe9 Nd1 3.035115 1_665
Fe10 Fe7 2.487532 1_556
Fe10 Fe5 2.487532 1_556
Fe10 Fe18 2.514370 1_555
Fe10 Fe21 2.554805 1_455
Fe10 Fe20 2.554812 1_555
Fe10 Fe9 2.570686 1_456
Fe10 Fe3 2.570686 1_556
Fe10 Fe15 2.749157 1_556
Fe10 Nd4 2.969963 1_455
Fe10 Nd2 3.159646 1_555
Fe10 Nd3 3.159646 1_455
Fe11 Fe4 2.487532 1_556
Fe11 Fe6 2.487532 1_556
Fe11 Fe19 2.514365 1_555
Fe11 Fe20 2.554812 1_655
Fe11 Fe21 2.554814 1_555
Fe11 Fe2 2.570686 1_556
Fe11 Fe8 2.570686 1_656
Fe11 Fe14 2.749157 1_556
Fe11 Nd5 2.969963 1_555
Fe11 Nd3 3.159646 1_545
Fe11 Nd2 3.159646 1_555
Fe12 Fe8 2.487532 1_556
Fe12 Fe3 2.487532 1_556
Fe12 Fe20 2.514365 1_555
Fe12 Fe18 2.554805 1_545
Fe12 Fe19 2.554812 1_555
Fe12 Fe5 2.570686 1_546
Fe12 Fe6 2.570686 1_556
Fe12 Fe17 2.749157 1_556
Fe12 Nd6 2.969963 1_545
Fe12 Nd2 3.159646 1_555
Fe12 Nd3 3.159646 1_445
Fe13 Fe9 2.487532 1_556
Fe13 Fe2 2.487532 1_556
Fe13 Fe21 2.514370 1_555
Fe13 Fe19 2.554812 1_565
Fe13 Fe18 2.554814 1_555
Fe13 Fe7 2.570686 1_556
Fe13 Fe4 2.570686 1_566
Fe13 Fe16 2.749157 1_556
Fe13 Nd7 2.969963 1_555
Fe13 Nd3 3.159646 1_555
Fe13 Nd2 3.159646 1_555
Fe14 Fe4 2.487532 1_555
Fe14 Fe6 2.487532 1_555
Fe14 Fe22 2.514376 1_555
Fe14 Fe24 2.554805 1_555
Fe14 Fe25 2.554805 1_655
Fe14 Fe2 2.570686 1_555
Fe14 Fe8 2.570686 1_655
Fe14 Nd8 2.969963 1_655
Fe14 Nd0 3.159646 1_555
Fe14 Nd1 3.159646 1_655
Fe15 Fe7 2.487532 1_555
Fe15 Fe5 2.487532 1_555
Fe15 Fe23 2.514365 1_555
Fe15 Fe24 2.554814 1_455
Fe15 Fe25 2.554814 1_555
Fe15 Fe9 2.570686 1_455
Fe15 Fe3 2.570686 1_555
Fe15 Nd9 2.969963 1_555
Fe15 Nd1 3.159646 1_565
Fe15 Nd0 3.159646 1_555
Fe16 Fe9 2.487532 1_555
Fe16 Fe2 2.487532 1_555
Fe16 Fe24 2.514370 1_555
Fe16 Fe22 2.554806 1_565
Fe16 Fe23 2.554812 1_555
Fe16 Fe4 2.570686 1_565
Fe16 Fe7 2.570686 1_555
Fe16 Nd10 2.969963 1_565
Fe16 Nd1 3.159646 1_665
Fe16 Nd0 3.159646 1_555
Fe17 Fe3 2.487532 1_555
Fe17 Fe8 2.487532 1_555
Fe17 Fe25 2.514370 1_555
Fe17 Fe22 2.554806 1_555
Fe17 Fe23 2.554812 1_545
Fe17 Fe5 2.570686 1_545
Fe17 Fe6 2.570686 1_555
Fe17 Nd11 2.969963 1_555
Fe17 Nd0 3.159646 1_555
Fe17 Nd1 3.159646 1_555
Fe18 Fe19 2.579553 1_565
Fe18 Fe5 2.649912 1_556
Fe18 Fe7 2.649918 1_556
Fe18 Nd6 3.113940 1_555
Fe18 Nd7 3.113947 1_555
Fe18 Nd3 3.266326 1_455
Fe18 Nd2 3.266336 1_555
Fe18 Nd4 3.336853 1_455
Fe19 Fe4 2.649913 1_556
Fe19 Fe6 2.649913 1_556
Fe19 Nd6 3.113946 1_545
Fe19 Nd7 3.113946 1_545
Fe19 Nd3 3.266328 1_545
Fe19 Nd2 3.266328 1_555
Fe19 Nd5 3.336848 1_555
Fe20 Fe21 2.579553 1_455
Fe20 Fe3 2.649913 1_556
Fe20 Fe8 2.649913 1_556
Fe20 Nd4 3.113946 1_455
Fe20 Nd5 3.113946 1_455
Fe20 Nd2 3.266328 1_555
Fe20 Nd3 3.266328 1_445
Fe20 Nd6 3.336848 1_545
Fe21 Fe9 2.649912 1_556
Fe21 Nd4 3.113940 1_555
Fe21 Nd5 3.113947 1_555
Fe21 Nd3 3.266326 1_555
Fe21 Nd2 3.266336 1_555
Fe21 Nd7 3.336853 1_555
Fe22 Fe23 2.579548 1_545
Fe22 Fe4 2.649917 1_555
Fe22 Fe6 2.649917 1_555
Fe22 Nd10 3.113941 1_555
Fe22 Nd11 3.113941 1_555
Fe22 Nd1 3.266333 1_655
Fe22 Nd0 3.266333 1_555
Fe22 Nd8 3.336857 1_655
Fe23 Fe7 2.649913 1_555
Fe23 Fe5 2.649913 1_555
Fe23 Nd11 3.113946 1_565
Fe23 Nd10 3.113946 1_565
Fe23 Nd1 3.266328 1_565
Fe23 Nd0 3.266328 1_555
Fe23 Nd9 3.336848 1_555
Fe24 Fe25 2.579548 1_655
Fe24 Fe9 2.649918 1_555
Fe24 Nd8 3.113940 1_655
Fe24 Nd9 3.113947 1_655
Fe24 Nd0 3.266326 1_555
Fe24 Nd1 3.266336 1_665
Fe24 Nd10 3.336853 1_565
Fe25 Fe8 2.649912 1_555
Fe25 Fe3 2.649918 1_555
Fe25 Nd8 3.113940 1_555
Fe25 Nd9 3.113947 1_555
Fe25 Nd1 3.266326 1_555
Fe25 Nd0 3.266336 1_555
Fe25 Nd11 3.336853 1_555
