# generated using pymatgen
data_Ba5BiPb4O15
_symmetry_space_group_name_H-M   'P 1'
_cell_length_a   6.17113000
_cell_length_b   6.17253418
_cell_length_c   25.42433837
_cell_angle_alpha   83.09670670
_cell_angle_beta   83.11750072
_cell_angle_gamma   60.44610859
_symmetry_Int_Tables_number   1
_chemical_formula_structural   Ba5BiPb4O15
_chemical_formula_sum   'Ba10 Bi2 Pb8 O30'
_cell_volume   834.28272402
_cell_formula_units_Z   2
loop_
 _symmetry_equiv_pos_site_id
 _symmetry_equiv_pos_as_xyz
  1  'x, y, z'
loop_
 _atom_site_type_symbol
 _atom_site_label
 _atom_site_symmetry_multiplicity
 _atom_site_fract_x
 _atom_site_fract_y
 _atom_site_fract_z
 _atom_site_occupancy
  Ba  Ba0  1  0.74796700  0.75523900  0.24686000  1
  Ba  Ba1  1  0.34763400  0.35328800  0.44915200  1
  Ba  Ba2  1  0.54426500  0.55388500  0.85184300  1
  Ba  Ba3  1  0.94540000  0.95185900  0.65295000  1
  Ba  Ba4  1  0.14532500  0.15528400  0.04943700  1
  Ba  Ba5  1  0.85467500  0.84471600  0.95056300  1
  Ba  Ba6  1  0.45573500  0.44611500  0.14815700  1
  Ba  Ba7  1  0.65236600  0.64671200  0.55084800  1
  Ba  Ba8  1  0.05460000  0.04814100  0.34705000  1
  Ba  Ba9  1  0.25203300  0.24476100  0.75314000  1
  Bi  Bi0  1  0.70054300  0.69986900  0.39951300  1
  Bi  Bi1  1  0.29945700  0.30013100  0.60048700  1
  Pb  Pb0  1  0.80010000  0.80041900  0.09946400  1
  Pb  Pb1  1  0.39988800  0.40141200  0.29849200  1
  Pb  Pb2  1  0.00000000  0.00000000  0.50000000  1
  Pb  Pb3  1  0.60011200  0.59858800  0.70150800  1
  Pb  Pb4  1  0.19990000  0.19958100  0.90053600  1
  Pb  Pb5  1  0.89901100  0.90012900  0.80089600  1
  Pb  Pb6  1  0.50000000  0.50000000  0.00000000  1
  Pb  Pb7  1  0.10098900  0.09987100  0.19910400  1
  O  O0  1  0.66990600  0.17089200  0.05689700  1
  O  O1  1  0.26754900  0.77291900  0.25758700  1
  O  O2  1  0.46772200  0.96829800  0.65453200  1
  O  O3  1  0.86526100  0.37200300  0.45610400  1
  O  O4  1  0.07207700  0.56727800  0.85596300  1
  O  O5  1  0.13078200  0.62901900  0.04346900  1
  O  O6  1  0.73488300  0.22695700  0.24480400  1
  O  O7  1  0.93253000  0.43269000  0.64259900  1
  O  O8  1  0.33575900  0.82999100  0.44404300  1
  O  O9  1  0.52804000  0.03101900  0.84288700  1
  O  O10  1  0.47196000  0.96898100  0.15711300  1
  O  O11  1  0.06747000  0.56731000  0.35740100  1
  O  O12  1  0.26511700  0.77304300  0.75519600  1
  O  O13  1  0.66424100  0.17000900  0.55595700  1
  O  O14  1  0.86921800  0.37098100  0.95653100  1
  O  O15  1  0.92792300  0.43272200  0.14403700  1
  O  O16  1  0.53227800  0.03170200  0.34546800  1
  O  O17  1  0.73245100  0.22708100  0.74241300  1
  O  O18  1  0.13473900  0.62799700  0.54389600  1
  O  O19  1  0.33009400  0.82910800  0.94310300  1
  O  O20  1  0.58791300  0.71078800  0.05025700  1
  O  O21  1  0.18719900  0.30615500  0.25154900  1
  O  O22  1  0.79277100  0.90322800  0.45005700  1
  O  O23  1  0.39609400  0.50653200  0.64819900  1
  O  O24  1  0.99083900  0.11305500  0.84916900  1
  O  O25  1  0.00916100  0.88694500  0.15083100  1
  O  O26  1  0.60390600  0.49346800  0.35180100  1
  O  O27  1  0.20722900  0.09677200  0.54994300  1
  O  O28  1  0.81280100  0.69384500  0.74845100  1
  O  O29  1  0.41208700  0.28921200  0.94974300  1
loop_
_geom_bond_atom_site_label_1
_geom_bond_atom_site_label_2
_geom_bond_distance
_geom_bond_site_symmetry_2
Ba0 O21 2.762458 1_655
Ba0 O10 2.799854 1_555
Ba0 O6 2.867006 1_565
Ba0 O1 2.893107 1_555
Ba0 O16 2.992821 1_565
Ba0 O25 3.015323 1_655
Ba0 O26 3.214329 1_555
Ba0 O15 3.225642 1_555
Ba0 O1 3.305944 1_655
Ba0 O6 3.308178 1_555
Ba0 O11 3.379325 1_655
Ba0 O21 3.455906 1_565
Ba1 O22 2.781296 1_545
Ba1 O11 2.854572 1_555
Ba1 O8 2.894483 1_555
Ba1 O18 2.903341 1_555
Ba1 O3 2.906101 1_455
Ba1 O26 3.045127 1_555
Ba1 O27 3.109705 1_555
Ba1 O16 3.239493 1_555
Ba1 O3 3.279125 1_555
Ba1 O8 3.285153 1_545
Ba1 O13 3.289911 1_555
Ba1 O22 3.432447 1_455
Ba2 O24 2.757820 1_555
Ba2 O19 2.830882 1_555
Ba2 O4 2.863583 1_555
Ba2 O9 2.879062 1_565
Ba2 O12 2.958356 1_555
Ba2 O29 3.062703 1_555
Ba2 O28 3.197629 1_555
Ba2 O14 3.271644 1_555
Ba2 O4 3.313098 1_655
Ba2 O9 3.313448 1_555
Ba2 O17 3.379665 1_555
Ba2 O24 3.457205 1_465
Ba3 O23 2.786302 1_655
Ba3 O17 2.792246 1_565
Ba3 O2 2.894652 1_555
Ba3 O7 2.910152 1_565
Ba3 O13 2.971056 1_565
Ba3 O28 2.996872 1_555
Ba3 O27 3.180860 1_665
Ba3 O12 3.203103 1_655
Ba3 O2 3.279693 1_655
Ba3 O7 3.286908 1_555
Ba3 O18 3.361643 1_655
Ba3 O23 3.431799 1_565
Ba4 O20 2.755986 1_545
Ba4 O5 2.866954 1_555
Ba4 O14 2.868095 1_454
Ba4 O0 2.871421 1_455
Ba4 O15 2.909911 1_455
Ba4 O29 3.107520 1_554
Ba4 O25 3.149979 1_545
Ba4 O19 3.311705 1_544
Ba4 O0 3.314258 1_555
Ba4 O5 3.315486 1_545
Ba4 O10 3.340508 1_545
Ba4 O20 3.457572 1_455
Ba5 O29 2.755986 1_565
Ba5 O14 2.866954 1_555
Ba5 O5 2.868095 1_656
Ba5 O19 2.871421 1_655
Ba5 O4 2.909911 1_655
Ba5 O20 3.107520 1_556
Ba5 O24 3.149979 1_565
Ba5 O0 3.311705 1_566
Ba5 O19 3.314258 1_555
Ba5 O14 3.315486 1_565
Ba5 O9 3.340508 1_565
Ba5 O29 3.457572 1_655
Ba6 O25 2.757820 1_555
Ba6 O0 2.830882 1_555
Ba6 O15 2.863583 1_555
Ba6 O10 2.879062 1_545
Ba6 O6 2.958356 1_555
Ba6 O20 3.062703 1_555
Ba6 O21 3.197629 1_555
Ba6 O5 3.271644 1_555
Ba6 O15 3.313098 1_455
Ba6 O10 3.313448 1_555
Ba6 O1 3.379665 1_555
Ba6 O25 3.457205 1_645
Ba7 O27 2.781296 1_565
Ba7 O7 2.854572 1_555
Ba7 O13 2.894483 1_555
Ba7 O3 2.903341 1_555
Ba7 O18 2.906101 1_655
Ba7 O23 3.045127 1_555
Ba7 O22 3.109705 1_555
Ba7 O2 3.239493 1_555
Ba7 O18 3.279125 1_555
Ba7 O13 3.285153 1_565
Ba7 O8 3.289911 1_555
Ba7 O27 3.432447 1_655
Ba8 O26 2.786302 1_455
Ba8 O1 2.792246 1_545
Ba8 O16 2.894652 1_555
Ba8 O11 2.910152 1_545
Ba8 O8 2.971056 1_545
Ba8 O21 2.996872 1_555
Ba8 O22 3.180860 1_445
Ba8 O6 3.203103 1_455
Ba8 O16 3.279693 1_455
Ba8 O11 3.286908 1_555
Ba8 O3 3.361643 1_455
Ba8 O26 3.431799 1_545
Ba9 O28 2.762458 1_455
Ba9 O9 2.799854 1_555
Ba9 O12 2.867006 1_545
Ba9 O17 2.893107 1_555
Ba9 O2 2.992821 1_545
Ba9 O24 3.015323 1_455
Ba9 O23 3.214329 1_555
Ba9 O4 3.225642 1_555
Ba9 O17 3.305944 1_455
Ba9 O12 3.308178 1_555
Ba9 O7 3.379325 1_455
Ba9 O28 3.455906 1_545
Bi0 O16 2.174601 1_565
Bi0 O26 2.178218 1_555
Bi0 O11 2.178294 1_655
Bi0 O8 2.195127 1_555
Bi0 O22 2.195158 1_555
Bi0 O3 2.195500 1_555
Bi1 O2 2.174601 1_545
Bi1 O23 2.178218 1_555
Bi1 O7 2.178294 1_455
Bi1 O13 2.195127 1_555
Bi1 O27 2.195158 1_555
Bi1 O18 2.195500 1_555
O0 Pb0 2.201602 1_545
O0 Pb6 2.207842 1_555
O1 Pb1 2.188571 1_555
O1 Pb7 2.222341 1_565
O2 Pb3 2.245241 1_555
O3 Pb2 2.220889 1_655
O4 Pb5 2.196400 1_455
O4 Pb4 2.210767 1_555
O5 Pb0 2.201456 1_455
O5 Pb6 2.205719 1_555
O6 Pb1 2.185739 1_555
O6 Pb7 2.216158 1_655
O7 Pb3 2.249456 1_555
O8 Pb2 2.219432 1_565
O9 Pb5 2.197825 1_545
O9 Pb4 2.215447 1_555
O10 Pb7 2.197825 1_565
O10 Pb0 2.215447 1_555
O11 Pb1 2.249456 1_555
O12 Pb3 2.185739 1_555
O12 Pb5 2.216158 1_455
O13 Pb2 2.219432 1_655
O14 Pb4 2.201456 1_655
O14 Pb6 2.205719 1_556
O15 Pb7 2.196400 1_655
O15 Pb0 2.210767 1_555
O16 Pb1 2.245241 1_555
O17 Pb3 2.188571 1_555
O17 Pb5 2.222341 1_545
O18 Pb2 2.220889 1_565
O19 Pb4 2.201602 1_565
O19 Pb6 2.207842 1_556
O20 Pb0 2.204426 1_555
O20 Pb6 2.209512 1_555
O21 Pb1 2.190508 1_555
O21 Pb7 2.220048 1_555
O22 Pb2 2.220271 1_665
O23 Pb3 2.246064 1_555
O24 Pb5 2.200897 1_545
O24 Pb4 2.215060 1_655
O25 Pb7 2.200897 1_565
O25 Pb0 2.215060 1_455
O26 Pb1 2.246064 1_555
O27 Pb2 2.220271 1_555
O28 Pb3 2.190508 1_555
O28 Pb5 2.220048 1_555
O29 Pb4 2.204426 1_555
O29 Pb6 2.209512 1_556
