# generated using pymatgen
data_Zn3B7IO13
_symmetry_space_group_name_H-M   'P 1'
_cell_length_a   8.65055203
_cell_length_b   8.65055203
_cell_length_c   8.65055203
_cell_angle_alpha   60.00000000
_cell_angle_beta   60.00000000
_cell_angle_gamma   60.00000000
_symmetry_Int_Tables_number   1
_chemical_formula_structural   Zn3B7IO13
_chemical_formula_sum   'Zn6 B14 I2 O26'
_cell_volume   457.73747507
_cell_formula_units_Z   2
loop_
 _symmetry_equiv_pos_site_id
 _symmetry_equiv_pos_as_xyz
  1  'x, y, z'
loop_
 _atom_site_type_symbol
 _atom_site_label
 _atom_site_symmetry_multiplicity
 _atom_site_fract_x
 _atom_site_fract_y
 _atom_site_fract_z
 _atom_site_occupancy
  Zn  Zn0  1  0.50000000  0.00000000  0.00000000  1
  Zn  Zn1  1  0.00000000  0.50000000  0.50000000  1
  Zn  Zn2  1  0.00000000  0.50000000  0.00000000  1
  Zn  Zn3  1  0.50000000  0.00000000  0.50000000  1
  Zn  Zn4  1  0.00000000  0.00000000  0.50000000  1
  Zn  Zn5  1  0.50000000  0.50000000  0.00000000  1
  B  B0  1  0.08008400  0.08008400  0.08008400  1
  B  B1  1  0.08008400  0.08008400  0.75974700  1
  B  B2  1  0.08008400  0.75974700  0.08008400  1
  B  B3  1  0.58008400  0.58008400  0.58008400  1
  B  B4  1  0.75974700  0.08008400  0.08008400  1
  B  B5  1  0.58008400  0.58008400  0.25974700  1
  B  B6  1  0.25974700  0.58008400  0.58008400  1
  B  B7  1  0.58008400  0.25974700  0.58008400  1
  B  B8  1  0.75000000  0.25000000  0.25000000  1
  B  B9  1  0.25000000  0.75000000  0.75000000  1
  B  B10  1  0.25000000  0.75000000  0.25000000  1
  B  B11  1  0.75000000  0.25000000  0.75000000  1
  B  B12  1  0.25000000  0.25000000  0.75000000  1
  B  B13  1  0.75000000  0.75000000  0.25000000  1
  I  I0  1  0.25000000  0.25000000  0.25000000  1
  I  I1  1  0.75000000  0.75000000  0.75000000  1
  O  O0  1  0.25701700  0.10302800  0.93607800  1
  O  O1  1  0.10302800  0.25701700  0.70387700  1
  O  O2  1  0.93607800  0.70387700  0.25701700  1
  O  O3  1  0.93607800  0.25701700  0.10302800  1
  O  O4  1  0.60302800  0.75701700  0.43607800  1
  O  O5  1  0.70387700  0.93607800  0.10302800  1
  O  O6  1  0.70387700  0.10302800  0.25701700  1
  O  O7  1  0.75701700  0.60302800  0.20387700  1
  O  O8  1  0.25701700  0.93607800  0.70387700  1
  O  O9  1  0.20387700  0.43607800  0.75701700  1
  O  O10  1  0.10302800  0.70387700  0.93607800  1
  O  O11  1  0.43607800  0.20387700  0.60302800  1
  O  O12  1  0.10302800  0.93607800  0.25701700  1
  O  O13  1  0.75701700  0.43607800  0.60302800  1
  O  O14  1  0.70387700  0.25701700  0.93607800  1
  O  O15  1  0.43607800  0.75701700  0.20387700  1
  O  O16  1  0.93607800  0.10302800  0.70387700  1
  O  O17  1  0.20387700  0.60302800  0.43607800  1
  O  O18  1  0.25701700  0.70387700  0.10302800  1
  O  O19  1  0.60302800  0.20387700  0.75701700  1
  O  O20  1  0.43607800  0.60302800  0.75701700  1
  O  O21  1  0.20387700  0.75701700  0.60302800  1
  O  O22  1  0.60302800  0.43607800  0.20387700  1
  O  O23  1  0.75701700  0.20387700  0.43607800  1
  O  O24  1  0.00000000  0.00000000  0.00000000  1
  O  O25  1  0.50000000  0.50000000  0.50000000  1
loop_
_geom_bond_atom_site_label_1
_geom_bond_atom_site_label_2
_geom_bond_distance
_geom_bond_site_symmetry_2
B0 O12 1.443515 1_545
B0 O0 1.443515 1_554
B0 O3 1.443515 1_455
B0 O24 1.696935 1_555
B1 O16 1.443509 1_455
B1 O8 1.443513 1_545
B1 O1 1.443518 1_555
B1 O24 1.696942 1_556
B2 O10 1.443509 1_554
B2 O2 1.443513 1_455
B2 O18 1.443518 1_555
B2 O24 1.696942 1_565
B3 O20 1.443515 1_555
B3 O4 1.443515 1_555
B3 O13 1.443515 1_555
B3 O25 1.696935 1_555
B4 O5 1.443509 1_545
B4 O14 1.443513 1_554
B4 O6 1.443518 1_555
B4 O24 1.696942 1_655
B5 O22 1.443509 1_555
B5 O15 1.443513 1_555
B5 O7 1.443518 1_555
B5 O25 1.696942 1_555
B6 O17 1.443509 1_555
B6 O9 1.443513 1_555
B6 O21 1.443518 1_555
B6 O25 1.696942 1_555
B7 O11 1.443509 1_555
B7 O23 1.443513 1_555
B7 O19 1.443518 1_555
B7 O25 1.696942 1_555
B8 O3 1.478237 1_555
B8 O22 1.478237 1_555
B8 O6 1.478237 1_555
B8 O23 1.478237 1_555
B9 O8 1.478237 1_555
B9 O10 1.478237 1_555
B9 O21 1.478237 1_555
B9 O20 1.478237 1_555
B10 O12 1.478237 1_555
B10 O17 1.478237 1_555
B10 O18 1.478237 1_555
B10 O15 1.478237 1_555
B11 O14 1.478237 1_555
B11 O19 1.478237 1_555
B11 O16 1.478237 1_555
B11 O13 1.478237 1_555
B12 O0 1.478237 1_555
B12 O11 1.478237 1_555
B12 O1 1.478237 1_555
B12 O9 1.478237 1_555
B13 O2 1.478237 1_555
B13 O7 1.478237 1_555
B13 O5 1.478237 1_555
B13 O4 1.478237 1_555
I0 Zn4 3.058432 1_555
I0 Zn5 3.058432 1_555
I0 Zn2 3.058432 1_555
I0 Zn0 3.058432 1_555
I0 Zn3 3.058432 1_555
I0 Zn1 3.058432 1_555
I1 Zn2 3.058432 1_656
I1 Zn1 3.058432 1_655
I1 Zn3 3.058432 1_565
I1 Zn5 3.058432 1_556
I1 Zn0 3.058432 1_566
I1 Zn4 3.058432 1_665
O0 Zn0 2.077100 1_556
O1 Zn1 2.077100 1_555
O2 Zn1 2.077100 1_655
O3 Zn2 2.077100 1_655
O4 Zn3 2.077100 1_565
O5 Zn0 2.077100 1_565
O6 Zn3 2.077100 1_555
O7 Zn2 2.077100 1_655
O8 Zn3 2.077100 1_565
O9 Zn2 2.077100 1_556
O10 Zn2 2.077100 1_556
O11 Zn3 2.077100 1_555
O12 Zn4 2.077100 1_565
O13 Zn1 2.077100 1_655
O14 Zn5 2.077100 1_556
O15 Zn0 2.077100 1_565
O16 Zn4 2.077100 1_655
O17 Zn1 2.077100 1_555
O18 Zn5 2.077100 1_555
O19 Zn0 2.077100 1_556
O20 Zn5 2.077100 1_556
O21 Zn4 2.077100 1_565
O22 Zn5 2.077100 1_555
O23 Zn4 2.077100 1_655
