# generated using pymatgen
data_CaCu2(SbO4)2
_symmetry_space_group_name_H-M   'P 1'
_cell_length_a   9.12161500
_cell_length_b   6.69058400
_cell_length_c   12.72305921
_cell_angle_alpha   87.72556387
_cell_angle_beta   90.00000000
_cell_angle_gamma   90.00000000
_symmetry_Int_Tables_number   1
_chemical_formula_structural   CaCu2(SbO4)2
_chemical_formula_sum   'Ca4 Cu8 Sb8 O32'
_cell_volume   775.86300159
_cell_formula_units_Z   4
loop_
 _symmetry_equiv_pos_site_id
 _symmetry_equiv_pos_as_xyz
  1  'x, y, z'
loop_
 _atom_site_type_symbol
 _atom_site_label
 _atom_site_symmetry_multiplicity
 _atom_site_fract_x
 _atom_site_fract_y
 _atom_site_fract_z
 _atom_site_occupancy
  Ca  Ca0  1  0.16581100  0.12486800  0.03489800  1
  Ca  Ca1  1  0.83418900  0.87513200  0.96510200  1
  Ca  Ca2  1  0.66581100  0.87513200  0.46510200  1
  Ca  Ca3  1  0.33418900  0.12486800  0.53489800  1
  Cu  Cu0  1  0.18083100  0.75723800  0.84890200  1
  Cu  Cu1  1  0.05570000  0.39226800  0.62901200  1
  Cu  Cu2  1  0.94430000  0.60773200  0.37098800  1
  Cu  Cu3  1  0.81916900  0.24276200  0.15109800  1
  Cu  Cu4  1  0.31916900  0.75723800  0.34890200  1
  Cu  Cu5  1  0.44430000  0.39226800  0.12901200  1
  Cu  Cu6  1  0.68083100  0.24276200  0.65109800  1
  Cu  Cu7  1  0.55570000  0.60773200  0.87098800  1
  Sb  Sb0  1  0.45882800  0.09125600  0.83896900  1
  Sb  Sb1  1  0.04117200  0.09125600  0.33896900  1
  Sb  Sb2  1  0.08535000  0.59903800  0.14237400  1
  Sb  Sb3  1  0.95882800  0.90874400  0.66103100  1
  Sb  Sb4  1  0.91465000  0.40096200  0.85762600  1
  Sb  Sb5  1  0.58535000  0.40096200  0.35762600  1
  Sb  Sb6  1  0.41465000  0.59903800  0.64237400  1
  Sb  Sb7  1  0.54117200  0.90874400  0.16103100  1
  O  O0  1  0.23804400  0.01652000  0.37675900  1
  O  O1  1  0.00460700  0.66604900  0.59415200  1
  O  O2  1  0.57389300  0.19411900  0.46388800  1
  O  O3  1  0.07389300  0.80588100  0.03611200  1
  O  O4  1  0.26195600  0.01652000  0.87675900  1
  O  O5  1  0.76195600  0.98348000  0.62324100  1
  O  O6  1  0.09727100  0.10595400  0.60994800  1
  O  O7  1  0.88571100  0.51116300  0.14452400  1
  O  O8  1  0.61428900  0.51116300  0.64452400  1
  O  O9  1  0.87938800  0.31226600  0.71456800  1
  O  O10  1  0.37938800  0.68773400  0.78543200  1
  O  O11  1  0.11428900  0.48883700  0.85547600  1
  O  O12  1  0.90272900  0.89404600  0.39005200  1
  O  O13  1  0.51975500  0.86379000  0.30981900  1
  O  O14  1  0.26359500  0.42831400  0.59586300  1
  O  O15  1  0.23640500  0.42831400  0.09586300  1
  O  O16  1  0.01975500  0.13621000  0.19018100  1
  O  O17  1  0.38571100  0.48883700  0.35547600  1
  O  O18  1  0.48024500  0.13621000  0.69018100  1
  O  O19  1  0.42610700  0.80588100  0.53611200  1
  O  O20  1  0.49539300  0.66604900  0.09415200  1
  O  O21  1  0.12061200  0.68773400  0.28543200  1
  O  O22  1  0.73804400  0.98348000  0.12324100  1
  O  O23  1  0.40272900  0.10595400  0.10994800  1
  O  O24  1  0.92610700  0.19411900  0.96388800  1
  O  O25  1  0.76359500  0.57168600  0.90413700  1
  O  O26  1  0.99539300  0.33395100  0.40584800  1
  O  O27  1  0.50460700  0.33395100  0.90584800  1
  O  O28  1  0.59727100  0.89404600  0.89005200  1
  O  O29  1  0.73640500  0.57168600  0.40413700  1
  O  O30  1  0.62061200  0.31226600  0.21456800  1
  O  O31  1  0.98024500  0.86379000  0.80981900  1
loop_
_geom_bond_atom_site_label_1
_geom_bond_atom_site_label_2
_geom_bond_distance
_geom_bond_site_symmetry_2
Ca0 O3 2.292478 1_545
Ca0 O15 2.294151 1_555
Ca0 O4 2.336360 1_554
Ca0 O23 2.363987 1_555
Ca0 O16 2.386605 1_555
Ca0 O24 2.403836 1_454
Ca1 O24 2.292478 1_565
Ca1 O25 2.294151 1_555
Ca1 O22 2.336360 1_556
Ca1 O28 2.363987 1_555
Ca1 O31 2.386605 1_555
Ca1 O3 2.403836 1_656
Ca2 O2 2.292478 1_565
Ca2 O29 2.294151 1_555
Ca2 O5 2.336360 1_555
Ca2 O12 2.363987 1_555
Ca2 O13 2.386605 1_555
Ca2 O19 2.403836 1_555
Ca3 O19 2.292478 1_545
Ca3 O14 2.294151 1_555
Ca3 O0 2.336360 1_555
Ca3 O6 2.363987 1_555
Ca3 O18 2.386605 1_555
Ca3 O2 2.403836 1_555
Cu0 O11 1.894265 1_555
Cu0 O4 1.931672 1_565
Cu0 O31 2.018671 1_455
Cu0 O10 2.044129 1_555
Cu0 O3 2.606207 1_556
Cu1 O1 1.924775 1_555
Cu1 O14 1.955522 1_555
Cu1 O6 1.977132 1_555
Cu1 O9 2.002906 1_455
Cu2 O26 1.924775 1_555
Cu2 O29 1.955522 1_555
Cu2 O12 1.977132 1_555
Cu2 O21 2.002906 1_655
Cu3 O7 1.894265 1_555
Cu3 O22 1.931672 1_545
Cu3 O16 2.018671 1_655
Cu3 O30 2.044129 1_555
Cu3 O24 2.606207 1_554
Cu4 O17 1.894265 1_555
Cu4 O0 1.931672 1_565
Cu4 O13 2.018671 1_555
Cu4 O21 2.044129 1_555
Cu4 O19 2.606207 1_555
Cu5 O20 1.924775 1_555
Cu5 O15 1.955522 1_555
Cu5 O23 1.977132 1_555
Cu5 O30 2.002906 1_555
Cu6 O8 1.894265 1_555
Cu6 O5 1.931672 1_545
Cu6 O18 2.018671 1_555
Cu6 O9 2.044129 1_555
Cu6 O2 2.606207 1_555
Cu7 O27 1.924775 1_555
Cu7 O25 1.955522 1_555
Cu7 O28 1.977132 1_555
Cu7 O10 2.002906 1_555
O0 Sb1 1.920152 1_555
O1 Sb3 1.909113 1_455
O2 Sb5 1.898800 1_555
O3 Sb2 1.898800 1_555
O4 Sb0 1.920152 1_555
O5 Sb3 1.920152 1_555
O6 Sb3 1.920942 1_445
O7 Sb2 1.913450 1_655
O8 Sb6 1.913450 1_555
O9 Sb4 1.963221 1_555
O10 Sb6 1.963221 1_555
O11 Sb4 1.913450 1_455
O12 Sb1 1.920942 1_665
O13 Sb7 1.914949 1_555
O14 Sb6 1.899228 1_555
O15 Sb2 1.899228 1_555
O16 Sb1 1.914949 1_555
O17 Sb5 1.913450 1_555
O18 Sb0 1.914949 1_555
O19 Sb6 1.898800 1_555
O20 Sb7 1.909113 1_555
O21 Sb2 1.963221 1_555
O22 Sb7 1.920152 1_555
O23 Sb7 1.920942 1_545
O24 Sb4 1.898800 1_555
O25 Sb4 1.899228 1_555
O26 Sb1 1.909113 1_655
O27 Sb0 1.909113 1_555
O28 Sb0 1.920942 1_565
O29 Sb5 1.899228 1_555
O30 Sb5 1.963221 1_555
O31 Sb3 1.914949 1_555
