# generated using pymatgen
data_Te4MoW3Se4
_symmetry_space_group_name_H-M   'P 1'
_cell_length_a   3.43981956
_cell_length_b   3.43981956
_cell_length_c   39.16529700
_cell_angle_alpha   90.00000000
_cell_angle_beta   90.00000000
_cell_angle_gamma   119.99999160
_symmetry_Int_Tables_number   1
_chemical_formula_structural   Te4MoW3Se4
_chemical_formula_sum   'Te4 Mo1 W3 Se4'
_cell_volume   401.33165584
_cell_formula_units_Z   1
loop_
 _symmetry_equiv_pos_site_id
 _symmetry_equiv_pos_as_xyz
  1  'x, y, z'
loop_
 _atom_site_type_symbol
 _atom_site_label
 _atom_site_symmetry_multiplicity
 _atom_site_fract_x
 _atom_site_fract_y
 _atom_site_fract_z
 _atom_site_occupancy
  Te  Te0  1  0.00000000  0.00000000  0.32942000  1
  Te  Te1  1  0.00000000  0.00000000  0.70514900  1
  Te  Te2  1  0.00000000  0.00000000  0.23418000  1
  Te  Te3  1  0.00000000  0.00000000  0.60991100  1
  Mo  Mo0  1  0.00000000  0.00000000  0.46967500  1
  W  W0  1  0.00000000  0.00000000  0.09391500  1
  W  W1  1  0.33333300  0.66666700  0.28182800  1
  W  W2  1  0.33333300  0.66666700  0.65753700  1
  Se  Se0  1  0.33333300  0.66666700  0.05205200  1
  Se  Se1  1  0.33333300  0.66666700  0.42787700  1
  Se  Se2  1  0.33333300  0.66666700  0.13577900  1
  Se  Se3  1  0.33333300  0.66666700  0.51142500  1
loop_
_geom_bond_atom_site_label_1
_geom_bond_atom_site_label_2
_geom_bond_distance
_geom_bond_site_symmetry_2
Te0 W1 2.723681 1_545
Te0 W1 2.723683 1_555
Te0 W1 2.723683 1_445
Te1 W2 2.724217 1_545
Te1 W2 2.724220 1_555
Te1 W2 2.724220 1_445
Te2 W1 2.725183 1_545
Te2 W1 2.725185 1_555
Te2 W1 2.725185 1_445
Te3 W2 2.724593 1_545
Te3 W2 2.724595 1_555
Te3 W2 2.724595 1_445
Mo0 Se3 2.572514 1_545
Mo0 Se3 2.572517 1_555
Mo0 Se3 2.572517 1_445
Mo0 Se1 2.573710 1_545
Mo0 Se1 2.573712 1_445
Mo0 Se1 2.573712 1_555
Se0 W0 2.575330 1_565
Se0 W0 2.575332 1_555
Se0 W0 2.575332 1_665
Se2 W0 2.575355 1_565
Se2 W0 2.575357 1_555
Se2 W0 2.575357 1_665
