# generated using pymatgen
data_CrAgSn(SeS)2
_symmetry_space_group_name_H-M   'P 1'
_cell_length_a   7.67460988
_cell_length_b   7.67460988
_cell_length_c   7.67460988
_cell_angle_alpha   120.63305236
_cell_angle_beta   119.10150359
_cell_angle_gamma   90.23513224
_symmetry_Int_Tables_number   1
_chemical_formula_structural   CrAgSn(SeS)2
_chemical_formula_sum   'Cr2 Ag2 Sn2 Se4 S4'
_cell_volume   320.20184466
_cell_formula_units_Z   2
loop_
 _symmetry_equiv_pos_site_id
 _symmetry_equiv_pos_as_xyz
  1  'x, y, z'
loop_
 _atom_site_type_symbol
 _atom_site_label
 _atom_site_symmetry_multiplicity
 _atom_site_fract_x
 _atom_site_fract_y
 _atom_site_fract_z
 _atom_site_occupancy
  Cr  Cr0  1  0.37048800  0.62971100  0.25922300  1
  Cr  Cr1  1  0.37048800  0.11126600  0.74077700  1
  Ag  Ag0  1  0.75823900  0.25823900  0.50000000  1
  Ag  Ag1  1  0.99386600  0.99386600  0.00000000  1
  Sn  Sn0  1  0.88713600  0.62976300  0.25737300  1
  Sn  Sn1  1  0.37239000  0.62976300  0.74262700  1
  Se  Se0  1  0.60542900  0.36315700  0.75772800  1
  Se  Se1  1  0.60542900  0.84770100  0.24227200  1
  Se  Se2  1  0.16336400  0.37814100  0.78522400  1
  Se  Se3  1  0.59291700  0.37814100  0.21477600  1
  S  S0  1  0.14562100  0.88350300  0.73788100  1
  S  S1  1  0.14562100  0.40774000  0.26211900  1
  S  S2  1  0.58103300  0.86950500  0.71152700  1
  S  S3  1  0.15797800  0.86950500  0.28847300  1
loop_
_geom_bond_atom_site_label_1
_geom_bond_atom_site_label_2
_geom_bond_distance
_geom_bond_site_symmetry_2
Cr0 S1 2.435689 1_555
Cr0 S2 2.461074 1_555
Cr0 S3 2.461074 1_555
Cr0 Se1 2.547963 1_555
Cr0 Se2 2.584631 1_554
Cr0 Se3 2.584631 1_555
Cr1 S0 2.435689 1_545
Cr1 S3 2.461075 1_545
Cr1 S2 2.461085 1_545
Cr1 Se0 2.547958 1_555
Cr1 Se3 2.584631 1_556
Cr1 Se2 2.584631 1_555
Ag0 Se0 2.564592 1_555
Ag0 Se1 2.564592 1_545
Ag0 Se2 2.570785 1_655
Ag0 Se3 2.570791 1_555
Ag1 S1 2.582890 1_665
Ag1 S0 2.582890 1_654
Ag1 S2 2.617154 1_554
Ag1 S3 2.617160 1_655
Se0 Sn0 2.732890 1_556
Se0 Sn1 2.732890 1_555
Se1 Sn0 2.732890 1_555
Se1 Sn1 2.732890 1_554
Se2 Sn1 2.745452 1_555
Se3 Sn0 2.745447 1_555
S0 Sn0 2.619312 1_455
S0 Sn1 2.619318 1_555
S1 Sn1 2.619312 1_555
S1 Sn0 2.619312 1_455
S2 Sn1 2.607953 1_555
S3 Sn0 2.607948 1_455
