# generated using pymatgen
data_Tb(BRh)4
_symmetry_space_group_name_H-M   'P 1'
_cell_length_a   5.34757300
_cell_length_b   5.34757300
_cell_length_c   7.47643800
_cell_angle_alpha   90.00000000
_cell_angle_beta   90.00000000
_cell_angle_gamma   90.00000000
_symmetry_Int_Tables_number   1
_chemical_formula_structural   Tb(BRh)4
_chemical_formula_sum   'Tb2 B8 Rh8'
_cell_volume   213.80023582
_cell_formula_units_Z   2
loop_
 _symmetry_equiv_pos_site_id
 _symmetry_equiv_pos_as_xyz
  1  'x, y, z'
loop_
 _atom_site_type_symbol
 _atom_site_label
 _atom_site_symmetry_multiplicity
 _atom_site_fract_x
 _atom_site_fract_y
 _atom_site_fract_z
 _atom_site_occupancy
  Tb  Tb0  1  0.00000000  0.00000000  0.00000000  1
  Tb  Tb1  1  0.50000000  0.50000000  0.50000000  1
  B  B0  1  0.83115000  0.50000000  0.15139100  1
  B  B1  1  0.16885000  0.50000000  0.15139100  1
  B  B2  1  0.00000000  0.33115000  0.65139100  1
  B  B3  1  0.00000000  0.66885000  0.65139100  1
  B  B4  1  0.66885000  0.00000000  0.34860900  1
  B  B5  1  0.33115000  0.00000000  0.34860900  1
  B  B6  1  0.50000000  0.16885000  0.84860900  1
  B  B7  1  0.50000000  0.83115000  0.84860900  1
  Rh  Rh0  1  0.25100500  0.50000000  0.85573100  1
  Rh  Rh1  1  0.74899500  0.50000000  0.85573100  1
  Rh  Rh2  1  0.00000000  0.75100500  0.35573100  1
  Rh  Rh3  1  0.00000000  0.24899500  0.35573100  1
  Rh  Rh4  1  0.24899500  0.00000000  0.64426900  1
  Rh  Rh5  1  0.75100500  0.00000000  0.64426900  1
  Rh  Rh6  1  0.50000000  0.74899500  0.14426900  1
  Rh  Rh7  1  0.50000000  0.25100500  0.14426900  1
loop_
_geom_bond_atom_site_label_1
_geom_bond_atom_site_label_2
_geom_bond_distance
_geom_bond_site_symmetry_2
B0 B1 1.805875 1_655
B0 Rh6 2.216232 1_555
B0 Rh7 2.216232 1_555
B0 Rh3 2.225074 1_655
B0 Rh2 2.225074 1_655
B0 Rh1 2.253719 1_554
B0 Tb0 3.040650 1_665
B0 Tb0 3.040650 1_655
B0 Tb1 3.151029 1_555
B1 Rh6 2.216232 1_555
B1 Rh7 2.216232 1_555
B1 Rh3 2.225074 1_555
B1 Rh2 2.225074 1_555
B1 Rh0 2.253719 1_554
B1 Tb0 3.040650 1_565
B1 Tb0 3.040650 1_555
B1 Tb1 3.151029 1_555
B2 B3 1.805875 1_555
B2 Rh4 2.216232 1_555
B2 Rh5 2.216232 1_455
B2 Rh1 2.225074 1_455
B2 Rh0 2.225074 1_555
B2 Rh3 2.253719 1_555
B2 Tb1 3.040650 1_555
B2 Tb1 3.040650 1_455
B2 Tb0 3.151029 1_556
B3 Rh4 2.216232 1_565
B3 Rh5 2.216232 1_465
B3 Rh0 2.225074 1_555
B3 Rh1 2.225074 1_455
B3 Rh2 2.253719 1_555
B3 Tb1 3.040650 1_455
B3 Tb1 3.040650 1_555
B3 Tb0 3.151029 1_566
B4 B5 1.805875 1_555
B4 Rh2 2.216232 1_645
B4 Rh3 2.216232 1_655
B4 Rh6 2.225074 1_545
B4 Rh7 2.225074 1_555
B4 Rh5 2.253719 1_555
B4 Tb1 3.040650 1_545
B4 Tb1 3.040650 1_555
B4 Tb0 3.151029 1_655
B5 Rh2 2.216232 1_545
B5 Rh3 2.216232 1_555
B5 Rh7 2.225074 1_555
B5 Rh6 2.225074 1_545
B5 Rh4 2.253719 1_555
B5 Tb1 3.040650 1_545
B5 Tb1 3.040650 1_555
B5 Tb0 3.151029 1_555
B6 B7 1.805875 1_545
B6 Rh1 2.216232 1_555
B6 Rh0 2.216232 1_555
B6 Rh5 2.225074 1_555
B6 Rh4 2.225074 1_555
B6 Rh7 2.253719 1_556
B6 Tb0 3.040650 1_656
B6 Tb0 3.040650 1_556
B6 Tb1 3.151029 1_555
B7 Rh1 2.216232 1_555
B7 Rh0 2.216232 1_555
B7 Rh4 2.225074 1_565
B7 Rh5 2.225074 1_565
B7 Rh6 2.253719 1_556
B7 Tb0 3.040650 1_566
B7 Tb0 3.040650 1_666
B7 Tb1 3.151029 1_555
Rh0 Tb1 2.974293 1_555
Rh0 Tb0 3.180288 1_556
Rh0 Tb0 3.180288 1_566
Rh1 Tb1 2.974293 1_555
Rh1 Tb0 3.180288 1_666
Rh1 Tb0 3.180288 1_656
Rh2 Tb0 2.974293 1_565
Rh2 Tb1 3.180288 1_455
Rh2 Tb1 3.180288 1_555
Rh3 Tb0 2.974293 1_555
Rh3 Tb1 3.180288 1_455
Rh3 Tb1 3.180288 1_555
Rh4 Tb0 2.974293 1_556
Rh4 Tb1 3.180288 1_545
Rh4 Tb1 3.180288 1_555
Rh5 Tb0 2.974293 1_656
Rh5 Tb1 3.180288 1_545
Rh5 Tb1 3.180288 1_555
Rh6 Tb1 2.974293 1_555
Rh6 Tb0 3.180288 1_565
Rh6 Tb0 3.180288 1_665
Rh7 Tb1 2.974293 1_555
Rh7 Tb0 3.180288 1_555
Rh7 Tb0 3.180288 1_655
