# generated using pymatgen
data_CaMn6(OF2)4
_symmetry_space_group_name_H-M   'P 1'
_cell_length_a   5.54001248
_cell_length_b   7.82449543
_cell_length_c   6.17074606
_cell_angle_alpha   96.72275619
_cell_angle_beta   99.16581303
_cell_angle_gamma   83.06900203
_symmetry_Int_Tables_number   1
_chemical_formula_structural   CaMn6(OF2)4
_chemical_formula_sum   'Ca1 Mn6 O4 F8'
_cell_volume   260.83332210
_cell_formula_units_Z   1
loop_
 _symmetry_equiv_pos_site_id
 _symmetry_equiv_pos_as_xyz
  1  'x, y, z'
loop_
 _atom_site_type_symbol
 _atom_site_label
 _atom_site_symmetry_multiplicity
 _atom_site_fract_x
 _atom_site_fract_y
 _atom_site_fract_z
 _atom_site_occupancy
  Ca  Ca0  1  0.46878756  0.49152165  0.46711561  1
  Mn  Mn0  1  0.47532175  0.99496723  0.51347507  1
  Mn  Mn1  1  0.69593818  0.68521439  0.14824184  1
  Mn  Mn2  1  0.43193419  0.30993067  0.89203084  1
  Mn  Mn3  1  0.96882318  0.68391390  0.66250870  1
  Mn  Mn4  1  0.97151276  0.29979937  0.34363030  1
  Mn  Mn5  1  0.02413606  0.99029552  0.99007292  1
  O  O0  1  0.88216978  0.75866494  0.93731051  1
  O  O1  1  0.65882838  0.76050255  0.48480310  1
  O  O2  1  0.64203911  0.43090068  0.15895206  1
  O  O3  1  0.32471022  0.23289572  0.53366897  1
  F  F0  1  0.84620163  0.42419607  0.64204523  1
  F  F1  1  0.83696248  0.06156348  0.27592628  1
  F  F2  1  0.67785698  0.08137699  0.79547292  1
  F  F3  1  0.30819761  0.57015695  0.79333604  1
  F  F4  1  0.35946586  0.91757056  0.19598938  1
  F  F5  1  0.07456187  0.58968635  0.36625857  1
  F  F6  1  0.14619614  0.24036141  0.04150854  1
  F  F7  1  0.19246326  0.90981158  0.68473712  1
loop_
_geom_bond_atom_site_label_1
_geom_bond_atom_site_label_2
_geom_bond_distance
_geom_bond_site_symmetry_2
Ca0 F0 2.227722 1_555
Ca0 F5 2.240812 1_555
Ca0 O2 2.241144 1_555
Ca0 F3 2.317500 1_555
Ca0 O3 2.364242 1_555
Ca0 O1 2.448318 1_555
Mn0 O3 1.944598 1_565
Mn0 O1 1.990390 1_555
Mn1 O0 1.958315 1_554
Mn1 O2 2.057576 1_555
Mn1 O1 2.126708 1_555
Mn2 O2 2.062479 1_556
Mn2 O3 2.227587 1_555
Mn3 O0 1.845922 1_555
Mn3 O1 1.953581 1_555
Mn4 O3 2.154867 1_655
Mn4 O2 2.200399 1_555
Mn5 O0 2.033134 1_455
F0 Mn4 2.155179 1_555
F0 Mn3 2.202925 1_555
F1 Mn4 2.063677 1_555
F1 Mn5 2.170374 1_644
F2 Mn0 2.007433 1_545
F2 Mn5 2.183253 1_645
F2 Mn2 2.197814 1_555
F3 Mn3 2.063905 1_455
F3 Mn2 2.192520 1_555
F4 Mn0 2.008058 1_555
F4 Mn5 2.133463 1_554
F4 Mn1 2.469523 1_555
F5 Mn3 2.037154 1_455
F5 Mn4 2.388139 1_455
F5 Mn1 2.393001 1_455
F6 Mn2 2.108003 1_554
F6 Mn5 2.119433 1_544
F6 Mn4 2.211711 1_455
F7 Mn5 2.226308 1_555
F7 Mn0 2.227304 1_555
F7 Mn3 2.257358 1_455
