# generated using pymatgen
data_Ti3AlSe2ClO8
_symmetry_space_group_name_H-M   'P 1'
_cell_length_a   7.57809400
_cell_length_b   8.28796730
_cell_length_c   9.04292969
_cell_angle_alpha   89.24659744
_cell_angle_beta   81.41590180
_cell_angle_gamma   89.62102647
_symmetry_Int_Tables_number   1
_chemical_formula_structural   Ti3AlSe2ClO8
_chemical_formula_sum   'Ti6 Al2 Se4 Cl2 O16'
_cell_volume   561.54210871
_cell_formula_units_Z   2
loop_
 _symmetry_equiv_pos_site_id
 _symmetry_equiv_pos_as_xyz
  1  'x, y, z'
loop_
 _atom_site_type_symbol
 _atom_site_label
 _atom_site_symmetry_multiplicity
 _atom_site_fract_x
 _atom_site_fract_y
 _atom_site_fract_z
 _atom_site_occupancy
  Ti  Ti0  1  0.60960700  0.96110200  0.01576700  1
  Ti  Ti1  1  0.43387500  0.06735000  0.53621300  1
  Ti  Ti2  1  0.97399400  0.96070900  0.01858300  1
  Ti  Ti3  1  0.79507600  0.23105500  0.73817300  1
  Ti  Ti4  1  0.29447500  0.77575300  0.25538500  1
  Ti  Ti5  1  0.05295400  0.04253100  0.51368000  1
  Al  Al0  1  0.19075500  0.10389400  0.20456200  1
  Al  Al1  1  0.68096900  0.88783300  0.69640900  1
  Se  Se0  1  0.86576600  0.32254100  0.08517000  1
  Se  Se1  1  0.19202000  0.60409800  0.93168000  1
  Se  Se2  1  0.67865400  0.40542900  0.41732100  1
  Se  Se3  1  0.33520400  0.67668400  0.60574200  1
  Cl  Cl0  1  0.20221100  0.17535600  0.70119100  1
  Cl  Cl1  1  0.61963100  0.77828100  0.21940800  1
  O  O0  1  0.09608200  0.90118000  0.19336600  1
  O  O1  1  0.28254500  0.63378000  0.09886400  1
  O  O2  1  0.77498200  0.37829500  0.58236500  1
  O  O3  1  0.41088600  0.07011100  0.11265300  1
  O  O4  1  0.51262400  0.83337900  0.57688400  1
  O  O5  1  0.88920300  0.88784400  0.58160500  1
  O  O6  1  0.81855900  0.04898700  0.88192900  1
  O  O7  1  0.07192800  0.17699200  0.05093800  1
  O  O8  1  0.04649600  0.18306000  0.36091600  1
  O  O9  1  0.03832200  0.76582400  0.92601900  1
  O  O10  1  0.28914100  0.96597900  0.40400500  1
  O  O11  1  0.60797200  0.09746100  0.68198500  1
  O  O12  1  0.58317300  0.81598600  0.87379300  1
  O  O13  1  0.52224800  0.24241700  0.42549700  1
  O  O14  1  0.84774200  0.36765100  0.89351200  1
  O  O15  1  0.28290600  0.63844000  0.41638500  1
loop_
_geom_bond_atom_site_label_1
_geom_bond_atom_site_label_2
_geom_bond_distance
_geom_bond_site_symmetry_2
Al0 O3 1.771446 1_555
Al0 O8 1.782751 1_555
Al0 O0 1.841132 1_545
Al0 O7 1.857929 1_555
Al0 O10 2.334767 1_545
Al1 O5 1.754671 1_555
Al1 O12 1.761449 1_555
Al1 O11 1.828773 1_565
Al1 O4 1.852432 1_555
Cl0 Ti1 2.311172 1_555
Cl0 Ti5 2.450417 1_555
Cl1 Ti0 2.379005 1_555
Cl1 Ti4 2.437023 1_555
O0 Ti4 1.967537 1_555
O0 Ti2 2.001882 1_455
O1 Se1 1.771548 1_554
O1 Ti4 1.865343 1_555
O2 Se2 1.767819 1_555
O2 Ti3 1.874543 1_555
O3 Ti0 1.860274 1_545
O4 Se3 1.863282 1_555
O4 Ti1 2.069573 1_565
O5 Ti5 1.825815 1_665
O6 Ti2 1.961935 1_546
O6 Ti0 1.980570 1_546
O6 Ti3 2.003129 1_555
O7 Se0 1.957637 1_455
O7 Ti2 1.986412 1_445
O8 Ti5 1.801221 1_555
O9 Se1 1.775161 1_555
O9 Ti2 1.857550 1_456
O10 Ti1 1.941196 1_565
O10 Ti5 2.015275 1_565
O10 Ti4 2.081382 1_555
O11 Ti3 1.935241 1_555
O11 Ti1 2.018103 1_555
O12 Ti0 1.804307 1_556
O13 Se2 1.796665 1_555
O13 Ti1 1.825004 1_555
O14 Se0 1.793097 1_556
O14 Ti3 1.905083 1_555
O15 Ti4 1.828157 1_555
O15 Se3 1.846124 1_555
