# generated using pymatgen
data_CaMn7O12
_symmetry_space_group_name_H-M   'P 1'
_cell_length_a   7.63604202
_cell_length_b   7.43215312
_cell_length_c   7.43609379
_cell_angle_alpha   90.17018372
_cell_angle_beta   90.08935948
_cell_angle_gamma   89.87507836
_symmetry_Int_Tables_number   1
_chemical_formula_structural   CaMn7O12
_chemical_formula_sum   'Ca2 Mn14 O24'
_cell_volume   422.01155770
_cell_formula_units_Z   2
loop_
 _symmetry_equiv_pos_site_id
 _symmetry_equiv_pos_as_xyz
  1  'x, y, z'
loop_
 _atom_site_type_symbol
 _atom_site_label
 _atom_site_symmetry_multiplicity
 _atom_site_fract_x
 _atom_site_fract_y
 _atom_site_fract_z
 _atom_site_occupancy
  Ca  Ca0  1  0.99978400  0.99869700  0.00298300  1
  Ca  Ca1  1  0.50070800  0.50160300  0.49638700  1
  Mn  Mn0  1  0.99859700  0.49937300  0.50600200  1
  Mn  Mn1  1  0.49798800  0.99899800  0.49634300  1
  Mn  Mn2  1  0.49912300  0.49876600  0.00155700  1
  Mn  Mn3  1  0.75068300  0.75016200  0.75008600  1
  Mn  Mn4  1  0.74988800  0.24945200  0.24956500  1
  Mn  Mn5  1  0.25041000  0.75025000  0.24982000  1
  Mn  Mn6  1  0.24935500  0.25019600  0.75013400  1
  Mn  Mn7  1  0.50118000  0.00054100  0.99079400  1
  Mn  Mn8  1  0.00170500  0.50112200  0.00429500  1
  Mn  Mn9  1  0.00122800  0.00177000  0.49910300  1
  Mn  Mn10  1  0.25084400  0.24957700  0.24988100  1
  Mn  Mn11  1  0.25016300  0.74979700  0.75005500  1
  Mn  Mn12  1  0.74969300  0.25005800  0.75012500  1
  Mn  Mn13  1  0.74960200  0.75073600  0.24993100  1
  O  O0  1  0.98394000  0.69053100  0.82508400  1
  O  O1  1  0.51707300  0.18222300  0.31486100  1
  O  O2  1  0.51509100  0.81088200  0.67626500  1
  O  O3  1  0.98234000  0.31678900  0.18476200  1
  O  O4  1  0.48367400  0.19342300  0.67033700  1
  O  O5  1  0.01697100  0.69267900  0.17839300  1
  O  O6  1  0.01701000  0.30656100  0.82991600  1
  O  O7  1  0.48362800  0.80692300  0.32289600  1
  O  O8  1  0.17587900  0.98603800  0.31158100  1
  O  O9  1  0.67690400  0.50202100  0.80842800  1
  O  O10  1  0.32442000  0.51359200  0.18845300  1
  O  O11  1  0.82328300  0.99833300  0.69241100  1
  O  O12  1  0.32305300  0.49897100  0.80619200  1
  O  O13  1  0.83120300  0.01511300  0.30659400  1
  O  O14  1  0.17694300  0.00079800  0.69484100  1
  O  O15  1  0.66904600  0.48503900  0.19317300  1
  O  O16  1  0.69490900  0.17710600  0.99966000  1
  O  O17  1  0.19158300  0.67532800  0.49835500  1
  O  O18  1  0.80559200  0.32287700  0.49981200  1
  O  O19  1  0.30762600  0.82438000  0.00198600  1
  O  O20  1  0.17959300  0.31782600  0.51484700  1
  O  O21  1  0.68523100  0.82130700  0.98556500  1
  O  O22  1  0.31870300  0.18117200  0.98443300  1
  O  O23  1  0.81535200  0.67899000  0.51409200  1
loop_
_geom_bond_atom_site_label_1
_geom_bond_atom_site_label_2
_geom_bond_distance
_geom_bond_site_symmetry_2
Ca0 O13 2.603050 1_565
Ca0 O5 2.628146 1_655
Ca0 O6 2.632152 1_664
Ca0 O0 2.644425 1_554
Ca0 O8 2.659705 1_655
Ca0 O14 2.662829 1_664
Ca0 O11 2.672131 1_554
Ca0 O16 2.676771 1_564
Ca0 O19 2.681602 1_655
Ca0 O3 2.722888 1_565
Ca0 O21 2.745190 1_554
Ca0 O22 2.793815 1_664
Ca1 O15 2.599615 1_555
Ca1 O7 2.616511 1_555
Ca1 O4 2.637352 1_555
Ca1 O10 2.656015 1_555
Ca1 O2 2.658419 1_555
Ca1 O12 2.675451 1_555
Ca1 O18 2.678002 1_555
Ca1 O9 2.680402 1_555
Ca1 O17 2.688105 1_555
Ca1 O1 2.729882 1_555
Ca1 O23 2.745883 1_555
Ca1 O20 2.813133 1_555
Mn0 O20 1.930593 1_655
Mn0 O23 1.932686 1_555
Mn0 O17 1.973354 1_655
Mn0 O18 1.975531 1_555
Mn1 O7 1.924233 1_555
Mn1 O1 1.925931 1_565
Mn1 O4 1.939747 1_565
Mn1 O2 1.942048 1_555
Mn2 O15 1.928420 1_555
Mn2 O10 1.930677 1_555
Mn2 O12 1.977884 1_554
Mn2 O9 1.977978 1_554
Mn3 O21 1.895155 1_555
Mn3 O23 1.897178 1_555
Mn3 O0 1.917001 1_555
Mn3 O2 1.932927 1_555
Mn3 O11 1.975638 1_555
Mn3 O9 1.979094 1_555
Mn4 O13 1.896723 1_555
Mn4 O15 1.903017 1_555
Mn4 O3 1.908223 1_555
Mn4 O1 1.911528 1_555
Mn4 O16 1.977704 1_554
Mn4 O18 1.983440 1_555
Mn5 O8 1.896696 1_555
Mn5 O10 1.900784 1_555
Mn5 O5 1.908322 1_555
Mn5 O7 1.908680 1_555
Mn5 O19 1.974933 1_555
Mn5 O17 1.984244 1_555
Mn6 O22 1.892177 1_555
Mn6 O20 1.897031 1_555
Mn6 O6 1.916714 1_555
Mn6 O4 1.931361 1_555
Mn6 O12 1.976929 1_555
Mn6 O14 1.977304 1_555
Mn7 O22 1.933408 1_555
Mn7 O21 1.934656 1_545
Mn7 O19 1.978633 1_546
Mn7 O16 1.980508 1_555
Mn8 O5 1.925038 1_555
Mn8 O3 1.926668 1_455
Mn8 O6 1.942838 1_554
Mn8 O0 1.945692 1_454
Mn9 O13 1.933697 1_455
Mn9 O8 1.934131 1_545
Mn9 O14 1.978099 1_555
Mn9 O11 1.979828 1_445
Mn10 O10 2.094150 1_555
Mn10 O8 2.094180 1_545
Mn10 O22 2.102217 1_554
Mn10 O20 2.105146 1_555
Mn10 O1 2.147284 1_555
Mn10 O3 2.163711 1_455
Mn11 O12 1.989618 1_555
Mn11 O14 1.990093 1_565
Mn11 O19 2.000422 1_556
Mn11 O17 2.000465 1_555
Mn11 O2 2.146782 1_555
Mn11 O0 2.155653 1_455
Mn12 O16 1.980274 1_555
Mn12 O18 1.987258 1_555
Mn12 O11 1.997866 1_545
Mn12 O9 1.998755 1_555
Mn12 O4 2.157310 1_555
Mn12 O6 2.166460 1_655
Mn13 O21 2.093624 1_554
Mn13 O23 2.096893 1_555
Mn13 O13 2.103853 1_565
Mn13 O15 2.110804 1_555
Mn13 O7 2.142913 1_555
Mn13 O5 2.153055 1_655
