# generated using pymatgen
data_Hf2TaN3
_symmetry_space_group_name_H-M   'P 1'
_cell_length_a   5.34913492
_cell_length_b   5.34913492
_cell_length_c   3.03304300
_cell_angle_alpha   90.00000000
_cell_angle_beta   90.00000000
_cell_angle_gamma   120.00001144
_symmetry_Int_Tables_number   1
_chemical_formula_structural   Hf2TaN3
_chemical_formula_sum   'Hf2 Ta1 N3'
_cell_volume   75.15817987
_cell_formula_units_Z   1
loop_
 _symmetry_equiv_pos_site_id
 _symmetry_equiv_pos_as_xyz
  1  'x, y, z'
loop_
 _atom_site_type_symbol
 _atom_site_label
 _atom_site_symmetry_multiplicity
 _atom_site_fract_x
 _atom_site_fract_y
 _atom_site_fract_z
 _atom_site_occupancy
  Hf  Hf0  1  0.66666700  0.33333300  0.50000000  1
  Hf  Hf1  1  0.33333300  0.66666700  0.50000000  1
  Ta  Ta0  1  0.00000000  0.00000000  0.00000000  1
  N  N0  1  0.50000000  0.50000000  0.00000000  1
  N  N1  1  0.50000000  0.00000000  0.00000000  1
  N  N2  1  0.00000000  0.50000000  0.00000000  1
loop_
_geom_bond_atom_site_label_1
_geom_bond_atom_site_label_2
_geom_bond_distance
_geom_bond_site_symmetry_2
Hf0 N2 2.164317 1_655
Hf0 N1 2.164317 1_555
Hf0 N2 2.164317 1_656
Hf0 N1 2.164317 1_556
Hf0 N0 2.164321 1_556
Hf0 N0 2.164321 1_555
Hf1 N1 2.164317 1_565
Hf1 N2 2.164317 1_556
Hf1 N1 2.164317 1_566
Hf1 N2 2.164317 1_555
Hf1 N0 2.164321 1_556
Hf1 N0 2.164321 1_555
N0 Ta0 2.674567 1_665
N0 Ta0 2.674567 1_555
N1 Ta0 2.674567 1_655
N1 Ta0 2.674567 1_555
N2 Ta0 2.674567 1_565
N2 Ta0 2.674567 1_555
