# generated using pymatgen
data_Zn2Te15(H3N)8
_symmetry_space_group_name_H-M   'P 1'
_cell_length_a   13.11903500
_cell_length_b   9.84007900
_cell_length_c   13.52827099
_cell_angle_alpha   83.41512638
_cell_angle_beta   90.00000000
_cell_angle_gamma   90.00000000
_symmetry_Int_Tables_number   1
_chemical_formula_structural   Zn2Te15(H3N)8
_chemical_formula_sum   'Zn4 Te30 H48 N16'
_cell_volume   1734.87532446
_cell_formula_units_Z   2
loop_
 _symmetry_equiv_pos_site_id
 _symmetry_equiv_pos_as_xyz
  1  'x, y, z'
loop_
 _atom_site_type_symbol
 _atom_site_label
 _atom_site_symmetry_multiplicity
 _atom_site_fract_x
 _atom_site_fract_y
 _atom_site_fract_z
 _atom_site_occupancy
  Zn  Zn0  1  0.01192100  0.75309500  0.76845200  1
  Zn  Zn1  1  0.51192100  0.24690500  0.73154800  1
  Zn  Zn2  1  0.98807900  0.24690500  0.23154800  1
  Zn  Zn3  1  0.48807900  0.75309500  0.26845200  1
  Te  Te0  1  0.80439300  0.24873300  0.93262000  1
  Te  Te1  1  0.30439300  0.75126700  0.56738000  1
  Te  Te2  1  0.19560700  0.75126700  0.06738000  1
  Te  Te3  1  0.69560700  0.24873300  0.43262000  1
  Te  Te4  1  0.00469100  0.14664800  0.92505200  1
  Te  Te5  1  0.50469100  0.85335200  0.57494800  1
  Te  Te6  1  0.99530900  0.85335200  0.07494800  1
  Te  Te7  1  0.49530900  0.14664800  0.42505200  1
  Te  Te8  1  0.07373000  0.27577000  0.73739300  1
  Te  Te9  1  0.57373000  0.72423000  0.76260700  1
  Te  Te10  1  0.92627000  0.72423000  0.26260700  1
  Te  Te11  1  0.42627000  0.27577000  0.23739300  1
  Te  Te12  1  0.89930100  0.24165000  0.62307300  1
  Te  Te13  1  0.39930100  0.75835000  0.87692700  1
  Te  Te14  1  0.10069900  0.75835000  0.37692700  1
  Te  Te15  1  0.60069900  0.24165000  0.12307300  1
  Te  Te16  1  0.78458500  0.45785500  0.69927200  1
  Te  Te17  1  0.28458500  0.54214500  0.80072800  1
  Te  Te18  1  0.21541500  0.54214500  0.30072800  1
  Te  Te19  1  0.71541500  0.45785500  0.19927200  1
  Te  Te20  1  0.76864200  0.61241000  0.50477000  1
  Te  Te21  1  0.26864200  0.38759000  0.99523000  1
  Te  Te22  1  0.23135800  0.38759000  0.49523000  1
  Te  Te23  1  0.73135800  0.61241000  0.00477000  1
  Te  Te24  1  0.77632300  0.89840300  0.50935900  1
  Te  Te25  1  0.27632300  0.10159700  0.99064100  1
  Te  Te26  1  0.22367700  0.10159700  0.49064100  1
  Te  Te27  1  0.72367700  0.89840300  0.00935900  1
  Te  Te28  1  0.00000000  0.00000000  0.50000000  1
  Te  Te29  1  0.50000000  0.00000000  0.00000000  1
  H  H0  1  0.00012300  0.50690600  0.85789000  1
  H  H1  1  0.50012300  0.49309400  0.64211000  1
  H  H2  1  0.99987700  0.49309400  0.14211000  1
  H  H3  1  0.49987700  0.50690600  0.35789000  1
  H  H4  1  0.94497400  0.61125100  0.93008500  1
  H  H5  1  0.44497400  0.38874900  0.56991500  1
  H  H6  1  0.05502600  0.38874900  0.06991500  1
  H  H7  1  0.55502600  0.61125100  0.43008500  1
  H  H8  1  0.07149600  0.59980700  0.92655000  1
  H  H9  1  0.57149600  0.40019300  0.57345000  1
  H  H10  1  0.92850400  0.40019300  0.07345000  1
  H  H11  1  0.42850400  0.59980700  0.42655000  1
  H  H12  1  0.19151900  0.85114200  0.72773000  1
  H  H13  1  0.69151900  0.14885800  0.77227000  1
  H  H14  1  0.80848100  0.14885800  0.27227000  1
  H  H15  1  0.30848100  0.85114200  0.22773000  1
  H  H16  1  0.16116500  0.88533500  0.84152300  1
  H  H17  1  0.66116500  0.11466500  0.65847700  1
  H  H18  1  0.83883500  0.11466500  0.15847700  1
  H  H19  1  0.33883500  0.88533500  0.34152300  1
  H  H20  1  0.11488400  0.98080600  0.74273200  1
  H  H21  1  0.61488400  0.01919400  0.75726800  1
  H  H22  1  0.88511600  0.01919400  0.25726800  1
  H  H23  1  0.38511600  0.98080600  0.24273200  1
  H  H24  1  0.84549300  0.87733700  0.70378400  1
  H  H25  1  0.34549300  0.12266300  0.79621600  1
  H  H26  1  0.15450700  0.12266300  0.29621600  1
  H  H27  1  0.65450700  0.87733700  0.20378400  1
  H  H28  1  0.89974200  0.96303100  0.78851800  1
  H  H29  1  0.39974200  0.03696900  0.71148200  1
  H  H30  1  0.10025800  0.03696900  0.21148200  1
  H  H31  1  0.60025800  0.96303100  0.28851800  1
  H  H32  1  0.83060800  0.82815100  0.82495000  1
  H  H33  1  0.33060800  0.17184900  0.67505000  1
  H  H34  1  0.16939200  0.17184900  0.17505000  1
  H  H35  1  0.66939200  0.82815100  0.32495000  1
  H  H36  1  0.03600400  0.72661300  0.58240400  1
  H  H37  1  0.53600400  0.27338700  0.91759600  1
  H  H38  1  0.96399600  0.27338700  0.41759600  1
  H  H39  1  0.46399600  0.72661300  0.08240400  1
  H  H40  1  0.96204800  0.60026400  0.63224800  1
  H  H41  1  0.46204800  0.39973600  0.86775200  1
  H  H42  1  0.03795200  0.39973600  0.36775200  1
  H  H43  1  0.53795200  0.60026400  0.13224800  1
  H  H44  1  0.08665900  0.59060800  0.64891400  1
  H  H45  1  0.58665900  0.40939200  0.85108600  1
  H  H46  1  0.91334100  0.40939200  0.35108600  1
  H  H47  1  0.41334100  0.59060800  0.14891400  1
  N  N0  1  0.00633100  0.60060400  0.88408200  1
  N  N1  1  0.50633100  0.39939600  0.61591800  1
  N  N2  1  0.99366900  0.39939600  0.11591800  1
  N  N3  1  0.49366900  0.60060400  0.38408200  1
  N  N4  1  0.13294600  0.88207500  0.77092500  1
  N  N5  1  0.63294600  0.11792500  0.72907500  1
  N  N6  1  0.86705400  0.11792500  0.22907500  1
  N  N7  1  0.36705400  0.88207500  0.27092500  1
  N  N8  1  0.88235800  0.86636200  0.77174600  1
  N  N9  1  0.38235800  0.13363800  0.72825400  1
  N  N10  1  0.11764200  0.13363800  0.22825400  1
  N  N11  1  0.61764200  0.86636200  0.27174600  1
  N  N12  1  0.02596000  0.65676100  0.64442800  1
  N  N13  1  0.52596000  0.34323900  0.85557200  1
  N  N14  1  0.97404000  0.34323900  0.35557200  1
  N  N15  1  0.47404000  0.65676100  0.14442800  1
loop_
_geom_bond_atom_site_label_1
_geom_bond_atom_site_label_2
_geom_bond_distance
_geom_bond_site_symmetry_2
Te0 Te4 2.819226 1_655
Te1 Te5 2.819226 1_555
Te2 Te6 2.819226 1_455
Te3 Te7 2.819226 1_555
Te4 Te8 2.853052 1_555
Te4 Te6 3.333815 1_446
Te5 Te9 2.853052 1_555
Te5 Te7 3.333815 1_565
Te10 Te14 2.803593 1_655
Te10 Te6 2.853052 1_555
Te11 Te15 2.803593 1_555
Te11 Te7 2.853052 1_555
Te12 Te8 2.803593 1_655
Te12 Te16 2.890792 1_555
Te12 Te28 3.328595 1_655
Te13 Te9 2.803593 1_555
Te13 Te17 2.890792 1_555
Te13 Te29 3.328595 1_566
Te14 Te18 2.890792 1_555
Te14 Te28 3.328595 1_565
Te15 Te19 2.890792 1_555
Te15 Te29 3.328595 1_555
Te16 Te20 2.891798 1_555
Te17 Te21 2.891798 1_555
Te18 Te22 2.891798 1_555
Te19 Te23 2.891798 1_555
Te20 Te24 2.823785 1_555
Te21 Te25 2.823785 1_555
Te22 Te26 2.823785 1_555
Te23 Te27 2.823785 1_555
Te24 Te28 3.097952 1_665
Te25 Te29 3.097952 1_556
Te26 Te28 3.097952 1_555
Te27 Te29 3.097952 1_565
H0 N0 1.028196 1_555
H1 N1 1.028196 1_555
H2 N2 1.028196 1_555
H3 N3 1.028196 1_555
H4 N0 1.030133 1_655
H5 N1 1.030133 1_555
H6 N2 1.030133 1_455
H7 N3 1.030133 1_555
H8 N0 1.029542 1_555
H9 N1 1.029542 1_555
H10 N2 1.029542 1_555
H11 N3 1.029542 1_555
H12 N4 1.032174 1_555
H13 N5 1.032174 1_555
H14 N6 1.032174 1_555
H15 N7 1.032174 1_555
H16 N4 1.028234 1_555
H17 N5 1.028234 1_555
H18 N6 1.028234 1_555
H19 N7 1.028234 1_555
H20 N4 1.029799 1_555
H21 N5 1.029799 1_555
H22 N6 1.029799 1_555
H23 N7 1.029799 1_555
H24 N8 1.033491 1_555
H25 N9 1.033491 1_555
H26 N10 1.033491 1_555
H27 N11 1.033491 1_555
H28 N8 1.028511 1_555
H29 N9 1.028511 1_555
H30 N10 1.028511 1_555
H31 N11 1.028511 1_555
H32 N8 1.028726 1_555
H33 N9 1.028726 1_555
H34 N10 1.028726 1_555
H35 N11 1.028726 1_555
H36 N12 1.030334 1_555
H37 N13 1.030334 1_555
H38 N14 1.030334 1_555
H39 N15 1.030334 1_555
H40 N12 1.029682 1_655
H41 N13 1.029682 1_555
H42 N14 1.029682 1_455
H43 N15 1.029682 1_555
H44 N12 1.025901 1_555
H45 N13 1.025901 1_555
H46 N14 1.025901 1_555
H47 N15 1.025901 1_555
N0 Zn0 2.040972 1_555
N1 Zn1 2.040972 1_555
N2 Zn2 2.040972 1_555
N3 Zn3 2.040972 1_555
N4 Zn0 2.035325 1_555
N5 Zn1 2.035325 1_555
N6 Zn2 2.035325 1_555
N7 Zn3 2.035325 1_555
N8 Zn0 2.035862 1_655
N9 Zn1 2.035862 1_555
N10 Zn2 2.035862 1_455
N11 Zn3 2.035862 1_555
N12 Zn0 2.027903 1_555
N13 Zn1 2.027903 1_555
N14 Zn2 2.027903 1_555
N15 Zn3 2.027903 1_555
