# generated using pymatgen
data_Mn2TeSO8
_symmetry_space_group_name_H-M   'P 1'
_cell_length_a   7.39018200
_cell_length_b   8.60449100
_cell_length_c   9.92692600
_cell_angle_alpha   90.00000000
_cell_angle_beta   90.00000000
_cell_angle_gamma   90.00000000
_symmetry_Int_Tables_number   1
_chemical_formula_structural   Mn2TeSO8
_chemical_formula_sum   'Mn8 Te4 S4 O32'
_cell_volume   631.24086043
_cell_formula_units_Z   4
loop_
 _symmetry_equiv_pos_site_id
 _symmetry_equiv_pos_as_xyz
  1  'x, y, z'
loop_
 _atom_site_type_symbol
 _atom_site_label
 _atom_site_symmetry_multiplicity
 _atom_site_fract_x
 _atom_site_fract_y
 _atom_site_fract_z
 _atom_site_occupancy
  Mn  Mn0  1  0.31907800  0.05001500  0.08714700  1
  Mn  Mn1  1  0.68092200  0.55001500  0.91285300  1
  Mn  Mn2  1  0.31907800  0.94998500  0.41285300  1
  Mn  Mn3  1  0.68092200  0.44998500  0.58714700  1
  Mn  Mn4  1  0.68092200  0.94998500  0.91285300  1
  Mn  Mn5  1  0.31907800  0.44998500  0.08714700  1
  Mn  Mn6  1  0.68092200  0.05001500  0.58714700  1
  Mn  Mn7  1  0.31907800  0.55001500  0.41285300  1
  Te  Te0  1  0.64757600  0.25000000  0.28119000  1
  Te  Te1  1  0.35242400  0.75000000  0.71881000  1
  Te  Te2  1  0.64757600  0.75000000  0.21881000  1
  Te  Te3  1  0.35242400  0.25000000  0.78119000  1
  S  S0  1  0.94568900  0.25000000  0.96908300  1
  S  S1  1  0.05431100  0.75000000  0.03091700  1
  S  S2  1  0.94568900  0.75000000  0.53091700  1
  S  S3  1  0.05431100  0.25000000  0.46908300  1
  O  O0  1  0.12631700  0.25000000  0.04240600  1
  O  O1  1  0.87368300  0.75000000  0.95759400  1
  O  O2  1  0.12631700  0.75000000  0.45759400  1
  O  O3  1  0.87368300  0.25000000  0.54240600  1
  O  O4  1  0.44311600  0.25000000  0.16301500  1
  O  O5  1  0.55688400  0.75000000  0.83698500  1
  O  O6  1  0.44311600  0.75000000  0.33698500  1
  O  O7  1  0.55688400  0.25000000  0.66301500  1
  O  O8  1  0.98134600  0.25000000  0.82563600  1
  O  O9  1  0.01865400  0.75000000  0.17436400  1
  O  O10  1  0.98134600  0.75000000  0.67436400  1
  O  O11  1  0.01865400  0.25000000  0.32563600  1
  O  O12  1  0.22272000  0.00000000  0.25000000  1
  O  O13  1  0.77728000  0.50000000  0.75000000  1
  O  O14  1  0.77728000  0.00000000  0.75000000  1
  O  O15  1  0.22272000  0.50000000  0.25000000  1
  O  O16  1  0.56819600  0.08492600  0.39801900  1
  O  O17  1  0.43180400  0.58492600  0.60198100  1
  O  O18  1  0.56819600  0.91507400  0.10198100  1
  O  O19  1  0.43180400  0.41507400  0.89801900  1
  O  O20  1  0.43180400  0.91507400  0.60198100  1
  O  O21  1  0.56819600  0.41507400  0.39801900  1
  O  O22  1  0.43180400  0.08492600  0.89801900  1
  O  O23  1  0.56819600  0.58492600  0.10198100  1
  O  O24  1  0.15824900  0.88971100  0.98343200  1
  O  O25  1  0.84175100  0.38971100  0.01656800  1
  O  O26  1  0.15824900  0.11028900  0.51656800  1
  O  O27  1  0.84175100  0.61028900  0.48343200  1
  O  O28  1  0.84175100  0.11028900  0.01656800  1
  O  O29  1  0.15824900  0.61028900  0.98343200  1
  O  O30  1  0.84175100  0.88971100  0.48343200  1
  O  O31  1  0.15824900  0.38971100  0.51656800  1
loop_
_geom_bond_atom_site_label_1
_geom_bond_atom_site_label_2
_geom_bond_distance
_geom_bond_site_symmetry_2
Mn0 O12 1.818182 1_555
Mn0 O22 2.075834 1_554
Mn0 O4 2.090103 1_555
Mn0 O24 2.091708 1_544
Mn0 O18 2.181563 1_545
Mn0 O0 2.277634 1_555
Mn1 O13 1.818182 1_555
Mn1 O23 2.075834 1_556
Mn1 O5 2.090103 1_555
Mn1 O25 2.091708 1_556
Mn1 O19 2.181563 1_555
Mn1 O1 2.277634 1_555
Mn2 O12 1.818182 1_565
Mn2 O20 2.075834 1_555
Mn2 O6 2.090103 1_555
Mn2 O26 2.091708 1_565
Mn2 O16 2.181563 1_565
Mn2 O2 2.277634 1_555
Mn3 O13 1.818182 1_555
Mn3 O21 2.075834 1_555
Mn3 O7 2.090103 1_555
Mn3 O27 2.091708 1_555
Mn3 O17 2.181563 1_555
Mn3 O3 2.277634 1_555
Mn4 O14 1.818182 1_565
Mn4 O18 2.075834 1_556
Mn4 O5 2.090103 1_555
Mn4 O28 2.091708 1_566
Mn4 O22 2.181563 1_565
Mn4 O1 2.277634 1_555
Mn5 O15 1.818182 1_555
Mn5 O19 2.075834 1_554
Mn5 O4 2.090103 1_555
Mn5 O29 2.091708 1_554
Mn5 O23 2.181563 1_555
Mn5 O0 2.277634 1_555
Mn6 O14 1.818182 1_555
Mn6 O16 2.075834 1_555
Mn6 O7 2.090103 1_555
Mn6 O30 2.091708 1_545
Mn6 O20 2.181563 1_545
Mn6 O3 2.277634 1_555
Mn7 O15 1.818182 1_555
Mn7 O17 2.075834 1_555
Mn7 O6 2.090103 1_555
Mn7 O31 2.091708 1_555
Mn7 O21 2.181563 1_555
Mn7 O2 2.277634 1_555
O0 S0 1.520423 1_454
O1 S1 1.520423 1_656
O2 S2 1.520423 1_455
O3 S3 1.520423 1_655
O4 Te0 1.912932 1_555
O5 Te1 1.912932 1_555
O6 Te2 1.912932 1_555
O7 Te3 1.912932 1_555
O8 S0 1.448164 1_555
O9 S1 1.448164 1_555
O10 S2 1.448164 1_555
O11 S3 1.448164 1_555
O16 Te0 1.925263 1_555
O17 Te1 1.925263 1_555
O18 Te2 1.925263 1_555
O19 Te3 1.925263 1_555
O20 Te1 1.925263 1_555
O21 Te0 1.925263 1_555
O22 Te3 1.925263 1_555
O23 Te2 1.925263 1_555
O24 S1 1.502449 1_556
O25 S0 1.502449 1_554
O26 S3 1.502449 1_555
O27 S2 1.502449 1_555
O28 S0 1.502449 1_554
O29 S1 1.502449 1_556
O30 S2 1.502449 1_555
O31 S3 1.502449 1_555
