# generated using pymatgen
data_Ta5Ga3
_symmetry_space_group_name_H-M   'P 1'
_cell_length_a   6.77982300
_cell_length_b   7.60985619
_cell_length_c   6.77982300
_cell_angle_alpha   116.45297891
_cell_angle_beta   90.00000000
_cell_angle_gamma   116.45297891
_symmetry_Int_Tables_number   1
_chemical_formula_structural   Ta5Ga3
_chemical_formula_sum   'Ta10 Ga6'
_cell_volume   271.65446288
_cell_formula_units_Z   2
loop_
 _symmetry_equiv_pos_site_id
 _symmetry_equiv_pos_as_xyz
  1  'x, y, z'
loop_
 _atom_site_type_symbol
 _atom_site_label
 _atom_site_symmetry_multiplicity
 _atom_site_fract_x
 _atom_site_fract_y
 _atom_site_fract_z
 _atom_site_occupancy
  Ta  Ta0  1  0.00000000  0.00000000  0.00000000  1
  Ta  Ta1  1  0.50000000  0.00000000  0.50000000  1
  Ta  Ta2  1  0.50494400  0.68754000  0.68259500  1
  Ta  Ta3  1  0.18259500  0.68754000  0.00494400  1
  Ta  Ta4  1  0.68259500  0.68754000  0.18259500  1
  Ta  Ta5  1  0.00494400  0.68754000  0.50494400  1
  Ta  Ta6  1  0.49505600  0.31246000  0.31740500  1
  Ta  Ta7  1  0.81740500  0.31246000  0.99505600  1
  Ta  Ta8  1  0.31740500  0.31246000  0.81740500  1
  Ta  Ta9  1  0.99505600  0.31246000  0.49505600  1
  Ga  Ga0  1  0.75000000  0.50000000  0.75000000  1
  Ga  Ga1  1  0.25000000  0.50000000  0.25000000  1
  Ga  Ga2  1  0.86623600  0.00000000  0.63376400  1
  Ga  Ga3  1  0.13376400  0.00000000  0.36623600  1
  Ga  Ga4  1  0.63376400  0.00000000  0.13376400  1
  Ga  Ga5  1  0.36623600  0.00000000  0.86623600  1
loop_
_geom_bond_atom_site_label_1
_geom_bond_atom_site_label_2
_geom_bond_distance
_geom_bond_site_symmetry_2
Ga0 Ta6 2.774796 1_555
Ga0 Ta3 2.774796 1_656
Ga0 Ta8 2.774798 1_555
Ga0 Ta4 2.774798 1_556
Ga0 Ta9 2.774801 1_555
Ga0 Ta5 2.774801 1_655
Ga0 Ta7 2.774804 1_555
Ga0 Ta2 2.774804 1_555
Ga0 Ta1 2.954950 1_555
Ga0 Ta0 2.954950 1_666
Ga1 Ta7 2.774796 1_454
Ga1 Ta2 2.774796 1_555
Ga1 Ta8 2.774798 1_554
Ga1 Ta4 2.774798 1_555
Ga1 Ta9 2.774801 1_455
Ga1 Ta5 2.774801 1_555
Ga1 Ta6 2.774804 1_555
Ga1 Ta3 2.774804 1_555
Ga1 Ta1 2.954950 1_565
Ga1 Ta0 2.954950 1_555
Ga2 Ga3 2.565090 1_655
Ga2 Ta1 2.643450 1_555
Ga2 Ta0 2.643450 1_656
Ga2 Ta2 2.697354 1_545
Ga2 Ta7 2.697354 1_555
Ga2 Ta9 2.728187 1_555
Ga2 Ta5 2.728187 1_645
Ga2 Ta8 2.728192 1_655
Ga2 Ta4 2.728192 1_545
Ga3 Ta1 2.643450 1_555
Ga3 Ta0 2.643450 1_555
Ga3 Ta3 2.697354 1_545
Ga3 Ta6 2.697354 1_555
Ga3 Ta5 2.728187 1_545
Ga3 Ta9 2.728187 1_455
Ga3 Ta8 2.728192 1_555
Ga3 Ta4 2.728192 1_445
Ga4 Ga5 2.565090 1_554
Ga4 Ta1 2.643450 1_555
Ga4 Ta0 2.643450 1_655
Ga4 Ta4 2.697350 1_545
Ga4 Ta9 2.697358 1_555
Ga4 Ta7 2.728187 1_554
Ga4 Ta6 2.728187 1_555
Ga4 Ta3 2.728192 1_545
Ga4 Ta2 2.728192 1_544
Ga5 Ta1 2.643450 1_555
Ga5 Ta0 2.643450 1_556
Ga5 Ta8 2.697350 1_555
Ga5 Ta5 2.697358 1_545
Ga5 Ta2 2.728187 1_545
Ga5 Ta3 2.728187 1_546
Ga5 Ta6 2.728192 1_556
Ga5 Ta7 2.728192 1_555
