# generated using pymatgen
data_K38Nb7As24
_symmetry_space_group_name_H-M   'P 1'
_cell_length_a   10.58266497
_cell_length_b   13.24444777
_cell_length_c   36.52699305
_cell_angle_alpha   90.00000000
_cell_angle_beta   90.00000000
_cell_angle_gamma   66.45224658
_symmetry_Int_Tables_number   1
_chemical_formula_structural   K38Nb7As24
_chemical_formula_sum   'K76 Nb14 As48'
_cell_volume   4693.35110258
_cell_formula_units_Z   2
loop_
 _symmetry_equiv_pos_site_id
 _symmetry_equiv_pos_as_xyz
  1  'x, y, z'
loop_
 _atom_site_type_symbol
 _atom_site_label
 _atom_site_symmetry_multiplicity
 _atom_site_fract_x
 _atom_site_fract_y
 _atom_site_fract_z
 _atom_site_occupancy
  K  K0  1  0.83790438  0.32419124  0.09724516  1
  K  K1  1  0.16194108  0.67611785  0.90285343  1
  K  K2  1  0.83805892  0.32388215  0.40285343  1
  K  K3  1  0.16209562  0.67580876  0.59724516  1
  K  K4  1  0.31102111  0.79677969  0.08619878  1
  K  K5  1  0.10590824  0.20394815  0.91318899  1
  K  K6  1  0.30985639  0.79605185  0.41318899  1
  K  K7  1  0.10780080  0.20322031  0.58619878  1
  K  K8  1  0.69014361  0.20394815  0.91318899  1
  K  K9  1  0.89219920  0.79677969  0.08619878  1
  K  K10  1  0.68897889  0.20322031  0.58619878  1
  K  K11  1  0.89409176  0.79605185  0.41318899  1
  K  K12  1  0.79987307  0.83765853  0.30766864  1
  K  K13  1  0.63711386  0.16247337  0.69263807  1
  K  K14  1  0.79958723  0.83752663  0.19263807  1
  K  K15  1  0.63753161  0.16234147  0.80766864  1
  K  K16  1  0.20041277  0.16247337  0.69263807  1
  K  K17  1  0.36246839  0.83765853  0.30766864  1
  K  K18  1  0.20012693  0.16234147  0.80766864  1
  K  K19  1  0.36288614  0.83752663  0.19263807  1
  K  K20  1  0.40282445  0.70421650  0.98196000  1
  K  K21  1  0.08850497  0.30061314  0.01291115  1
  K  K22  1  0.38911811  0.69938686  0.51291115  1
  K  K23  1  0.10704095  0.29578350  0.48196000  1
  K  K24  1  0.61088189  0.30061314  0.01291115  1
  K  K25  1  0.89295905  0.70421650  0.98196000  1
  K  K26  1  0.59717555  0.29578350  0.48196000  1
  K  K27  1  0.91149503  0.69938686  0.51291115  1
  K  K28  1  0.54194278  0.36418949  0.25006251  1
  K  K29  1  0.90613227  0.63581051  0.75006251  1
  K  K30  1  0.45805722  0.63581051  0.75006251  1
  K  K31  1  0.09386773  0.36418949  0.25006251  1
  K  K32  1  0.75561596  0.48876808  0.99269949  1
  K  K33  1  0.23949238  0.52101524  0.00585336  1
  K  K34  1  0.76050762  0.47898476  0.50585336  1
  K  K35  1  0.24438404  0.51123192  0.49269949  1
  K  K36  1  0.06723497  0.86553007  0.25016608  1
  K  K37  1  0.93276503  0.13446993  0.75016608  1
  K  K38  1  0.62929531  0.21047399  0.16475851  1
  K  K39  1  0.83391392  0.78738850  0.83804707  1
  K  K40  1  0.62130242  0.21261150  0.33804707  1
  K  K41  1  0.83976930  0.78952601  0.66475851  1
  K  K42  1  0.37869758  0.78738850  0.83804707  1
  K  K43  1  0.16023070  0.21047399  0.16475851  1
  K  K44  1  0.37070469  0.78952601  0.66475851  1
  K  K45  1  0.16608608  0.21261150  0.33804707  1
  K  K46  1  0.30790708  0.99866190  0.99980307  1
  K  K47  1  0.30656898  0.00133810  0.49980307  1
  K  K48  1  0.69343102  0.99866190  0.99980307  1
  K  K49  1  0.69209292  0.00133810  0.49980307  1
  K  K50  1  0.98472804  0.03054393  0.15621175  1
  K  K51  1  0.01530231  0.96939538  0.84376858  1
  K  K52  1  0.98469769  0.03060462  0.34376858  1
  K  K53  1  0.01527196  0.96945607  0.65621175  1
  K  K54  1  0.51621756  0.96756489  0.09089530  1
  K  K55  1  0.49268656  0.01462688  0.91089216  1
  K  K56  1  0.50731344  0.98537312  0.41089216  1
  K  K57  1  0.48378244  0.03243511  0.59089530  1
  K  K58  1  0.22885477  0.54229046  0.10253751  1
  K  K59  1  0.75791832  0.48416336  0.89756691  1
  K  K60  1  0.24208168  0.51583664  0.39756691  1
  K  K61  1  0.77114523  0.45770954  0.60253751  1
  K  K62  1  0.53192448  0.53622174  0.15785287  1
  K  K63  1  0.06834116  0.46224023  0.84257201  1
  K  K64  1  0.53058140  0.53775977  0.34257201  1
  K  K65  1  0.06814623  0.46377826  0.65785287  1
  K  K66  1  0.46941860  0.46224023  0.84257201  1
  K  K67  1  0.93185377  0.53622174  0.15785287  1
  K  K68  1  0.46807552  0.46377826  0.65785287  1
  K  K69  1  0.93165884  0.53775977  0.34257201  1
  K  K70  1  0.42587878  0.14824245  0.25015030  1
  K  K71  1  0.57412122  0.85175755  0.75015030  1
  K  K72  1  0.72672015  0.54655969  0.24993363  1
  K  K73  1  0.27327985  0.45344031  0.74993363  1
  K  K74  1  0.37236215  0.25527571  0.07748211  1
  K  K75  1  0.62763785  0.74472429  0.57748211  1
  Nb  Nb0  1  0.90316579  0.19366842  0.25020928  1
  Nb  Nb1  1  0.09683421  0.80633158  0.75020928  1
  Nb  Nb2  1  0.67981973  0.64036053  0.07417565  1
  Nb  Nb3  1  0.32287352  0.35425297  0.92727082  1
  Nb  Nb4  1  0.67712648  0.64574703  0.42727082  1
  Nb  Nb5  1  0.32018027  0.35963947  0.57417565  1
  Nb  Nb6  1  0.20529261  0.58941478  0.20613478  1
  Nb  Nb7  1  0.79564687  0.40870627  0.79303718  1
  Nb  Nb8  1  0.20435313  0.59129373  0.29303718  1
  Nb  Nb9  1  0.79470739  0.41058522  0.70613478  1
  Nb  Nb10  1  0.97625057  0.04749885  0.04660568  1
  Nb  Nb11  1  0.02298791  0.95402418  0.95384205  1
  Nb  Nb12  1  0.97701209  0.04597582  0.45384205  1
  Nb  Nb13  1  0.02374943  0.95250115  0.54660568  1
  As  As0  1  0.76079528  0.07550305  0.24994549  1
  As  As1  1  0.83629833  0.92449695  0.74994549  1
  As  As2  1  0.23920472  0.92449695  0.74994549  1
  As  As3  1  0.16370167  0.07550305  0.24994549  1
  As  As4  1  0.53384707  0.52814908  0.06498993  1
  As  As5  1  0.06671699  0.46907139  0.93499888  1
  As  As6  1  0.53578839  0.53092861  0.43499888  1
  As  As7  1  0.06199615  0.47185092  0.56498993  1
  As  As8  1  0.46421161  0.46907139  0.93499888  1
  As  As9  1  0.93800385  0.52814908  0.06498993  1
  As  As10  1  0.46615293  0.47185092  0.56498993  1
  As  As11  1  0.93328301  0.53092861  0.43499888  1
  As  As12  1  0.13001762  0.73996475  0.16068044  1
  As  As13  1  0.86800773  0.26398455  0.84058320  1
  As  As14  1  0.13199227  0.73601545  0.34058320  1
  As  As15  1  0.86998238  0.26003525  0.66068044  1
  As  As16  1  0.75739135  0.09074645  0.08229058  1
  As  As17  1  0.85010846  0.91594495  0.91715190  1
  As  As18  1  0.76605341  0.08405505  0.41715190  1
  As  As19  1  0.84813780  0.90925355  0.58229058  1
  As  As20  1  0.23394659  0.91594495  0.91715190  1
  As  As21  1  0.15186220  0.09074645  0.08229058  1
  As  As22  1  0.24260865  0.90925355  0.58229058  1
  As  As23  1  0.14989154  0.08405505  0.41715190  1
  As  As24  1  0.30201984  0.39596031  0.18004874  1
  As  As25  1  0.69889846  0.60220309  0.81641626  1
  As  As26  1  0.30110154  0.39779691  0.31641626  1
  As  As27  1  0.69798016  0.60403969  0.68004874  1
  As  As28  1  0.63014663  0.73970673  0.13585717  1
  As  As29  1  0.37246060  0.25507881  0.86562210  1
  As  As30  1  0.62753940  0.74492119  0.36562210  1
  As  As31  1  0.36985337  0.26029327  0.63585717  1
  As  As32  1  0.07206564  0.85586872  0.01644276  1
  As  As33  1  0.92740703  0.14518594  0.98477894  1
  As  As34  1  0.07259297  0.85481406  0.48477894  1
  As  As35  1  0.92793436  0.14413128  0.51644276  1
  As  As36  1  0.60697523  0.78604954  0.02643405  1
  As  As37  1  0.39326125  0.21347750  0.97798690  1
  As  As38  1  0.60673875  0.78652250  0.47798690  1
  As  As39  1  0.39302477  0.21395046  0.52643405  1
  As  As40  1  0.84074961  0.31850078  0.19498721  1
  As  As41  1  0.15898805  0.68202390  0.80550502  1
  As  As42  1  0.84101195  0.31797610  0.30550502  1
  As  As43  1  0.15925039  0.68149922  0.69498721  1
  As  As44  1  0.37116598  0.63162441  0.24947457  1
  As  As45  1  0.00279039  0.36837559  0.74947457  1
  As  As46  1  0.62883402  0.36837559  0.74947457  1
  As  As47  1  0.99720961  0.63162441  0.24947457  1
loop_
_geom_bond_atom_site_label_1
_geom_bond_atom_site_label_2
_geom_bond_distance
_geom_bond_site_symmetry_2
K4 Nb2 3.640963 1_555
K7 Nb5 3.640963 1_555
K9 Nb2 3.640963 1_555
K10 Nb5 3.640963 1_555
K62 Nb6 3.689052 1_555
K63 Nb7 3.706675 1_455
K64 Nb8 3.706676 1_555
K65 Nb9 3.689052 1_455
K66 Nb7 3.706676 1_555
K67 Nb6 3.689052 1_655
K68 Nb9 3.689052 1_555
K69 Nb8 3.706675 1_655
As0 Nb0 2.569734 1_555
As0 K70 3.280546 1_555
As0 K36 3.323332 1_645
As0 K38 3.581432 1_555
As0 K28 3.592700 1_555
As0 K14 3.667518 1_545
As0 K12 3.674090 1_545
As0 K40 3.700123 1_555
As1 Nb1 2.569734 1_655
As1 K71 3.280546 1_555
As1 K37 3.323332 1_565
As1 K41 3.581432 1_555
As1 K29 3.592700 1_555
As1 K13 3.667518 1_565
As1 K15 3.674090 1_565
As1 K39 3.700123 1_555
As2 Nb1 2.569734 1_555
As2 K71 3.280546 1_555
As2 K37 3.323332 1_465
As2 K44 3.581432 1_555
As2 K30 3.592700 1_555
As2 K16 3.667518 1_565
As2 K18 3.674090 1_565
As2 K42 3.700123 1_555
As3 Nb0 2.569734 1_455
As3 K70 3.280546 1_555
As3 K36 3.323332 1_545
As3 K43 3.581432 1_555
As3 K31 3.592700 1_555
As3 K19 3.667518 1_545
As3 K17 3.674090 1_545
As3 K45 3.700123 1_555
As4 Nb2 2.557747 1_555
As4 K24 3.376679 1_555
As4 K62 3.393493 1_555
As4 K32 3.431391 1_554
As4 K58 3.442480 1_555
As4 K0 3.477615 1_555
As4 K4 3.480733 1_555
As4 K20 3.738307 1_554
As4 K33 3.822778 1_555
As5 Nb3 2.539074 1_555
As5 K63 3.377148 1_555
As5 K25 3.383361 1_455
As5 K33 3.394082 1_556
As5 K5 3.460204 1_555
As5 K59 3.473719 1_455
As5 K1 3.481663 1_555
As5 K21 3.566403 1_556
As5 K32 3.829229 1_455
As6 Nb4 2.539074 1_555
As6 K64 3.377148 1_555
As6 K26 3.383361 1_555
As6 K34 3.394082 1_555
As6 K6 3.460204 1_555
As6 K60 3.473720 1_555
As6 K2 3.481663 1_555
As6 K22 3.566403 1_555
As6 K35 3.829229 1_555
As7 Nb5 2.557747 1_555
As7 K27 3.376679 1_455
As7 K65 3.393493 1_555
As7 K35 3.431391 1_555
As7 K61 3.442480 1_455
As7 K3 3.477615 1_555
As7 K7 3.480733 1_555
As7 K23 3.738307 1_555
As7 K34 3.822778 1_455
As8 Nb3 2.539074 1_555
As8 K66 3.377148 1_555
As8 K20 3.383361 1_555
As8 K33 3.394082 1_556
As8 K8 3.460204 1_555
As8 K59 3.473720 1_555
As8 K1 3.481663 1_555
As8 K24 3.566403 1_556
As8 K32 3.829229 1_555
As9 Nb2 2.557747 1_555
As9 K21 3.376679 1_655
As9 K67 3.393493 1_555
As9 K32 3.431391 1_554
As9 K58 3.442480 1_655
As9 K0 3.477615 1_555
As9 K9 3.480733 1_555
As9 K25 3.738307 1_554
As9 K33 3.822778 1_655
As10 Nb5 2.557747 1_555
As10 K22 3.376679 1_555
As10 K68 3.393493 1_555
As10 K35 3.431391 1_555
As10 K61 3.442480 1_555
As10 K3 3.477615 1_555
As10 K10 3.480733 1_555
As10 K26 3.738307 1_555
As10 K34 3.822778 1_555
As11 Nb4 2.539074 1_555
As11 K69 3.377148 1_555
As11 K23 3.383361 1_655
As11 K34 3.394082 1_555
As11 K11 3.460204 1_555
As11 K60 3.473719 1_655
As11 K2 3.481663 1_555
As11 K27 3.566403 1_555
As11 K35 3.829229 1_655
As12 Nb6 2.469390 1_555
As12 K58 3.204811 1_555
As12 K14 3.413177 1_455
As12 K19 3.413177 1_555
As12 K50 3.531855 1_465
As12 K9 3.576127 1_455
As12 K4 3.576127 1_555
As12 K36 3.606701 1_555
As13 Nb7 2.470574 1_555
As13 K59 3.388068 1_555
As13 K15 3.439517 1_555
As13 K18 3.439517 1_655
As13 K5 3.522017 1_655
As13 K8 3.522017 1_555
As13 K51 3.578661 1_645
As13 K37 3.657920 1_555
As14 Nb8 2.470574 1_555
As14 K60 3.388068 1_555
As14 K17 3.439517 1_555
As14 K12 3.439517 1_455
As14 K11 3.522017 1_455
As14 K6 3.522017 1_555
As14 K52 3.578661 1_465
As14 K36 3.657920 1_555
As15 Nb9 2.469390 1_555
As15 K61 3.204811 1_555
As15 K16 3.413177 1_655
As15 K13 3.413177 1_555
As15 K53 3.531855 1_645
As15 K7 3.576127 1_655
As15 K10 3.576127 1_555
As15 K37 3.606701 1_555
As16 Nb10 2.516239 1_555
As16 K48 3.418114 1_544
As16 K38 3.421778 1_555
As16 K50 3.490222 1_555
As16 K54 3.549877 1_545
As16 K0 3.562138 1_555
As16 K9 3.574388 1_545
As16 K24 3.620596 1_555
As16 K74 3.779866 1_555
As17 Nb11 2.476866 1_655
As17 K39 3.392723 1_555
As17 K48 3.407687 1_555
As17 K51 3.425072 1_655
As17 K55 3.481022 1_565
As17 K8 3.503874 1_565
As17 K25 3.557681 1_555
As17 K1 3.588426 1_655
As18 Nb12 2.476866 1_555
As18 K40 3.392723 1_555
As18 K49 3.407687 1_555
As18 K52 3.425072 1_555
As18 K56 3.481022 1_545
As18 K11 3.503874 1_545
As18 K26 3.557681 1_555
As18 K2 3.588426 1_555
As19 Nb13 2.516239 1_655
As19 K49 3.418114 1_565
As19 K41 3.421778 1_555
As19 K53 3.490222 1_655
As19 K57 3.549877 1_565
As19 K3 3.562138 1_655
As19 K10 3.574388 1_565
As19 K27 3.620596 1_555
As19 K75 3.779866 1_555
As20 Nb11 2.476866 1_555
As20 K42 3.392723 1_555
As20 K46 3.407687 1_555
As20 K51 3.425072 1_555
As20 K55 3.481022 1_565
As20 K5 3.503874 1_565
As20 K20 3.557681 1_555
As20 K1 3.588426 1_555
As21 Nb10 2.516239 1_455
As21 K46 3.418114 1_544
As21 K43 3.421778 1_555
As21 K50 3.490222 1_455
As21 K54 3.549877 1_545
As21 K0 3.562138 1_455
As21 K4 3.574388 1_545
As21 K21 3.620596 1_555
As21 K74 3.779866 1_555
As22 Nb13 2.516239 1_555
As22 K47 3.418114 1_565
As22 K44 3.421778 1_555
As22 K53 3.490222 1_555
As22 K57 3.549877 1_565
As22 K3 3.562138 1_555
As22 K7 3.574388 1_565
As22 K22 3.620596 1_555
As22 K75 3.779866 1_555
As23 Nb12 2.476866 1_455
As23 K45 3.392723 1_555
As23 K47 3.407687 1_555
As23 K52 3.425072 1_455
As23 K56 3.481022 1_545
As23 K6 3.503874 1_545
As23 K23 3.557681 1_555
As23 K2 3.588426 1_455
As24 Nb6 2.534748 1_555
As24 K58 3.342538 1_555
As24 K43 3.397654 1_555
As24 K38 3.397654 1_555
As24 K31 3.508602 1_555
As24 K28 3.508602 1_555
As24 K62 3.693131 1_555
As24 K67 3.693131 1_455
As25 Nb7 2.499742 1_555
As25 K59 3.292482 1_555
As25 K39 3.388449 1_555
As25 K42 3.388449 1_555
As25 K29 3.414977 1_555
As25 K30 3.414978 1_555
As25 K63 3.720726 1_655
As25 K66 3.720726 1_555
As25 K71 3.878088 1_555
As26 Nb8 2.499742 1_555
As26 K60 3.292482 1_555
As26 K45 3.388449 1_555
As26 K40 3.388449 1_555
As26 K31 3.414977 1_555
As26 K28 3.414978 1_555
As26 K69 3.720726 1_455
As26 K64 3.720726 1_555
As26 K70 3.878088 1_555
As27 Nb9 2.534748 1_555
As27 K61 3.342538 1_555
As27 K41 3.397654 1_555
As27 K44 3.397654 1_555
As27 K29 3.508602 1_555
As27 K30 3.508602 1_555
As27 K68 3.693131 1_555
As27 K65 3.693131 1_655
As28 Nb2 2.555611 1_555
As28 K54 3.217301 1_555
As28 K19 3.324409 1_555
As28 K14 3.324409 1_555
As28 K62 3.350764 1_555
As28 K67 3.350764 1_555
As28 K4 3.636923 1_555
As28 K9 3.636923 1_555
As29 Nb3 2.553570 1_555
As29 K18 3.332512 1_555
As29 K15 3.332512 1_555
As29 K55 3.355229 1_555
As29 K66 3.396953 1_555
As29 K63 3.396954 1_555
As29 K8 3.600121 1_555
As29 K5 3.600121 1_555
As30 Nb4 2.553570 1_555
As30 K12 3.332512 1_555
As30 K17 3.332512 1_555
As30 K56 3.355229 1_555
As30 K64 3.396953 1_555
As30 K69 3.396954 1_555
As30 K6 3.600121 1_555
As30 K11 3.600121 1_555
As31 Nb5 2.555611 1_555
As31 K57 3.217301 1_555
As31 K13 3.324409 1_555
As31 K16 3.324409 1_555
As31 K68 3.350764 1_555
As31 K65 3.350764 1_555
As31 K10 3.636923 1_555
As31 K7 3.636923 1_555
As32 Nb10 2.574363 1_465
As32 Nb11 2.578546 1_554
As32 K9 3.452262 1_455
As32 K4 3.452262 1_555
As32 K25 3.500760 1_454
As32 K20 3.500760 1_554
As32 K46 3.734544 1_554
As32 K48 3.734544 1_454
As33 Nb10 2.550861 1_556
As33 Nb11 2.581475 1_645
As33 K21 3.317263 1_656
As33 K24 3.317263 1_556
As33 K5 3.490967 1_655
As33 K8 3.490967 1_555
As33 K48 3.746691 1_545
As33 K46 3.746691 1_645
As34 Nb13 2.550861 1_555
As34 Nb12 2.581475 1_465
As34 K27 3.317263 1_455
As34 K22 3.317263 1_555
As34 K11 3.490967 1_455
As34 K6 3.490967 1_555
As34 K47 3.746691 1_565
As34 K49 3.746691 1_465
As35 Nb13 2.574363 1_645
As35 Nb12 2.578546 1_555
As35 K7 3.452262 1_655
As35 K10 3.452262 1_555
As35 K23 3.500760 1_655
As35 K26 3.500760 1_555
As35 K49 3.734544 1_555
As35 K47 3.734544 1_655
As36 Nb2 2.483950 1_555
As36 K20 3.217495 1_554
As36 K25 3.217495 1_554
As36 K54 3.225074 1_555
As36 K48 3.430951 1_554
As36 K46 3.430951 1_554
As36 K9 3.773522 1_555
As36 K4 3.773522 1_555
As37 Nb3 2.520566 1_555
As37 K24 3.222843 1_556
As37 K21 3.222843 1_556
As37 K46 3.405735 1_545
As37 K48 3.405735 1_545
As37 K55 3.440258 1_555
As37 K74 3.669524 1_556
As38 Nb4 2.520566 1_555
As38 K22 3.222843 1_555
As38 K27 3.222843 1_555
As38 K49 3.405735 1_565
As38 K47 3.405735 1_565
As38 K56 3.440258 1_555
As38 K75 3.669524 1_555
As39 Nb5 2.483950 1_555
As39 K26 3.217495 1_555
As39 K23 3.217495 1_555
As39 K57 3.225074 1_555
As39 K47 3.430951 1_555
As39 K49 3.430951 1_555
As39 K7 3.773522 1_555
As39 K10 3.773522 1_555
As40 Nb0 2.523073 1_555
As40 K38 3.291198 1_555
As40 K43 3.291198 1_655
As40 K72 3.419862 1_555
As40 K0 3.570892 1_555
As40 K31 3.589380 1_655
As40 K28 3.589380 1_555
As40 K67 3.647725 1_555
As40 K62 3.647725 1_555
As40 K50 3.772235 1_555
As41 Nb1 2.521406 1_555
As41 K42 3.370321 1_555
As41 K39 3.370321 1_455
As41 K73 3.438449 1_555
As41 K1 3.556568 1_555
As41 K29 3.597903 1_455
As41 K30 3.597903 1_555
As41 K66 3.668517 1_555
As41 K63 3.668517 1_555
As41 K51 3.758656 1_555
As42 Nb0 2.521406 1_555
As42 K40 3.370321 1_555
As42 K45 3.370321 1_655
As42 K72 3.438449 1_555
As42 K2 3.556568 1_555
As42 K31 3.597903 1_655
As42 K28 3.597903 1_555
As42 K64 3.668517 1_555
As42 K69 3.668517 1_555
As42 K52 3.758656 1_555
As43 Nb1 2.523073 1_555
As43 K44 3.291198 1_555
As43 K41 3.291198 1_455
As43 K73 3.419862 1_555
As43 K3 3.570892 1_555
As43 K29 3.589380 1_455
As43 K30 3.589380 1_555
As43 K65 3.647725 1_555
As43 K68 3.647725 1_555
As43 K53 3.772235 1_555
As44 Nb6 2.585368 1_555
As44 Nb8 2.585943 1_555
As44 K28 3.270743 1_555
As44 K19 3.400539 1_555
As44 K17 3.431120 1_555
As44 K36 3.461426 1_555
As44 K72 3.469920 1_555
As44 K62 3.738100 1_555
As44 K64 3.778847 1_555
As45 Nb9 2.585368 1_455
As45 Nb7 2.585943 1_455
As45 K29 3.270743 1_455
As45 K16 3.400539 1_555
As45 K18 3.431120 1_555
As45 K37 3.461426 1_455
As45 K73 3.469920 1_555
As45 K65 3.738100 1_555
As45 K63 3.778847 1_555
As46 Nb9 2.585368 1_555
As46 Nb7 2.585943 1_555
As46 K30 3.270743 1_555
As46 K13 3.400539 1_555
As46 K15 3.431120 1_555
As46 K37 3.461426 1_555
As46 K73 3.469920 1_555
As46 K68 3.738100 1_555
As46 K66 3.778847 1_555
As47 Nb6 2.585368 1_655
As47 Nb8 2.585943 1_655
As47 K31 3.270743 1_655
As47 K14 3.400539 1_555
As47 K12 3.431120 1_555
As47 K36 3.461426 1_655
As47 K72 3.469920 1_555
As47 K67 3.738100 1_555
As47 K69 3.778847 1_555
