# generated using pymatgen
data_MgTi4MnZnNiO12
_symmetry_space_group_name_H-M   'P 1'
_cell_length_a   5.12644924
_cell_length_b   5.56283515
_cell_length_c   17.15460939
_cell_angle_alpha   87.09281265
_cell_angle_beta   81.38167779
_cell_angle_gamma   62.58817317
_symmetry_Int_Tables_number   1
_chemical_formula_structural   MgTi4MnZnNiO12
_chemical_formula_sum   'Mg2 Ti8 Mn2 Zn2 Ni2 O24'
_cell_volume   429.28333128
_cell_formula_units_Z   2
loop_
 _symmetry_equiv_pos_site_id
 _symmetry_equiv_pos_as_xyz
  1  'x, y, z'
loop_
 _atom_site_type_symbol
 _atom_site_label
 _atom_site_symmetry_multiplicity
 _atom_site_fract_x
 _atom_site_fract_y
 _atom_site_fract_z
 _atom_site_occupancy
  Mg  Mg0  1  0.53221300  0.52745700  0.41007100  1
  Mg  Mg1  1  0.53222200  0.02745400  0.91005800  1
  Ti  Ti0  1  0.71372200  0.35031500  0.21444500  1
  Ti  Ti1  1  0.71370800  0.85031500  0.71445400  1
  Ti  Ti2  1  0.22078200  0.10372800  0.46332000  1
  Ti  Ti3  1  0.22077200  0.60371000  0.96330200  1
  Ti  Ti4  1  0.78485100  0.39849900  0.03406200  1
  Ti  Ti5  1  0.78479800  0.89857700  0.53406700  1
  Ti  Ti6  1  0.28181500  0.14647300  0.28812600  1
  Ti  Ti7  1  0.28177400  0.64649500  0.78815500  1
  Mn  Mn0  1  0.46158600  0.48522800  0.59052400  1
  Mn  Mn1  1  0.46170000  0.98502000  0.09042300  1
  Zn  Zn0  1  0.04026200  0.75784000  0.16111300  1
  Zn  Zn1  1  0.04032100  0.25784400  0.66109600  1
  Ni  Ni0  1  0.97425700  0.71611900  0.33746800  1
  Ni  Ni1  1  0.97435100  0.21598100  0.83743500  1
  O  O0  1  0.50858600  0.90227100  0.35964500  1
  O  O1  1  0.50851800  0.40231100  0.85962200  1
  O  O2  1  0.99284100  0.15720000  0.10957700  1
  O  O3  1  0.99275900  0.65722200  0.60953800  1
  O  O4  1  0.03648700  0.00187800  0.26425400  1
  O  O5  1  0.03649500  0.50188800  0.76418500  1
  O  O6  1  0.54077900  0.25303300  0.00924400  1
  O  O7  1  0.54085600  0.75298000  0.50923700  1
  O  O8  1  0.06531600  0.81716400  0.44270400  1
  O  O9  1  0.06534500  0.31711500  0.94272000  1
  O  O10  1  0.56116900  0.07104800  0.19702900  1
  O  O11  1  0.56112200  0.57120700  0.69697400  1
  O  O12  1  0.99328200  0.35019200  0.39102100  1
  O  O13  1  0.99328400  0.85018800  0.89099400  1
  O  O14  1  0.49281400  0.59443900  0.14085400  1
  O  O15  1  0.49287800  0.09446100  0.64077100  1
  O  O16  1  0.46442900  0.25075500  0.48615900  1
  O  O17  1  0.46437000  0.75076600  0.98617700  1
  O  O18  1  0.95746100  0.50288100  0.23835000  1
  O  O19  1  0.95763700  0.00279000  0.73827300  1
  O  O20  1  0.43361700  0.43697300  0.30662400  1
  O  O21  1  0.43366500  0.93698000  0.80658100  1
  O  O22  1  0.94356300  0.67655400  0.05569500  1
  O  O23  1  0.94359700  0.17665200  0.55565400  1
loop_
_geom_bond_atom_site_label_1
_geom_bond_atom_site_label_2
_geom_bond_distance
_geom_bond_site_symmetry_2
Mg0 O20 2.061966 1_555
Mg0 O12 2.078723 1_555
Mg0 O16 2.084826 1_555
Mg0 O0 2.173987 1_555
Mg0 O7 2.181750 1_555
Mg0 O8 2.185809 1_555
Mg1 O21 2.062314 1_545
Mg1 O13 2.078693 1_545
Mg1 O17 2.085208 1_545
Mg1 O1 2.174138 1_555
Mg1 O6 2.182046 1_556
Mg1 O9 2.185736 1_555
Mn0 O11 2.101518 1_555
Mn0 O3 2.116035 1_455
Mn0 O7 2.122480 1_555
Mn0 O15 2.241496 1_555
Mn0 O16 2.262382 1_555
Mn0 O23 2.272856 1_555
Mn1 O10 2.103912 1_565
Mn1 O2 2.116137 1_465
Mn1 O6 2.122074 1_565
Mn1 O14 2.241931 1_555
Mn1 O17 2.260296 1_554
Mn1 O22 2.271825 1_555
Ni0 O4 2.085777 1_665
Ni0 O8 2.095235 1_655
Ni0 O0 2.099417 1_555
Ni0 O20 2.140013 1_655
Ni0 O18 2.155955 1_555
Ni0 O12 2.156729 1_555
Ni1 O5 2.086589 1_655
Ni1 O9 2.096045 1_655
Ni1 O1 2.100135 1_555
Ni1 O21 2.139675 1_645
Ni1 O19 2.156244 1_555
Ni1 O13 2.156250 1_545
O0 Ti6 1.872538 1_565
O0 Ti2 2.118756 1_565
O1 Ti7 1.871810 1_555
O1 Ti3 2.118643 1_555
O2 Ti4 1.880576 1_555
O2 Ti0 2.108787 1_555
O2 Zn0 2.268038 1_645
O3 Ti5 1.880099 1_555
O3 Ti1 2.109288 1_555
O3 Zn1 2.268057 1_655
O4 Ti6 1.875002 1_555
O4 Ti0 2.127811 1_455
O4 Zn0 2.276635 1_545
O5 Ti7 1.875399 1_555
O5 Ti1 2.127197 1_455
O5 Zn1 2.275837 1_555
O6 Ti4 1.878428 1_555
O6 Ti3 2.098264 1_554
O7 Ti5 1.878447 1_555
O7 Ti2 2.098431 1_565
O8 Ti5 1.877865 1_455
O8 Ti2 2.147773 1_565
O9 Ti4 1.877548 1_456
O9 Ti3 2.147634 1_555
O10 Ti6 1.873924 1_555
O10 Ti0 2.085680 1_555
O10 Zn0 2.272151 1_645
O11 Ti7 1.875026 1_555
O11 Ti1 2.085248 1_555
O11 Zn1 2.272672 1_655
O12 Ti2 1.888623 1_655
O12 Ti6 2.113005 1_655
O13 Ti3 1.888741 1_655
O13 Ti7 2.112168 1_655
O14 Ti0 1.886515 1_555
O14 Zn0 2.044022 1_555
O14 Ti4 2.159531 1_555
O15 Ti1 1.887559 1_545
O15 Zn1 2.044078 1_555
O15 Ti5 2.158097 1_545
O16 Ti2 1.871458 1_555
O16 Ti5 2.118833 1_545
O17 Ti3 1.871559 1_555
O17 Ti4 2.119159 1_556
O18 Ti0 1.901330 1_555
O18 Zn0 2.035298 1_655
O18 Ti6 2.154796 1_655
O19 Ti1 1.901321 1_545
O19 Zn1 2.034840 1_655
O19 Ti7 2.154847 1_645
O20 Ti0 1.885271 1_555
O20 Ti6 2.145165 1_555
O21 Ti1 1.884446 1_555
O21 Ti7 2.145125 1_555
O22 Ti3 1.885659 1_654
O22 Zn0 2.068466 1_655
O22 Ti4 2.121256 1_555
O23 Ti2 1.884807 1_655
O23 Zn1 2.068711 1_655
O23 Ti5 2.121477 1_545
