# generated using pymatgen
data_Ca8Mn6Cr2O21
_symmetry_space_group_name_H-M   'P 1'
_cell_length_a   7.78522135
_cell_length_b   7.78560100
_cell_length_c   7.69715558
_cell_angle_alpha   90.00000000
_cell_angle_beta   89.76752453
_cell_angle_gamma   90.00000000
_symmetry_Int_Tables_number   1
_chemical_formula_structural   Ca8Mn6Cr2O21
_chemical_formula_sum   'Ca8 Mn6 Cr2 O21'
_cell_volume   466.54098091
_cell_formula_units_Z   1
loop_
 _symmetry_equiv_pos_site_id
 _symmetry_equiv_pos_as_xyz
  1  'x, y, z'
loop_
 _atom_site_type_symbol
 _atom_site_label
 _atom_site_symmetry_multiplicity
 _atom_site_fract_x
 _atom_site_fract_y
 _atom_site_fract_z
 _atom_site_occupancy
  Ca  Ca0  1  0.23168600  0.26548300  0.24784700  1
  Ca  Ca1  1  0.26528400  0.27158000  0.69521100  1
  Ca  Ca2  1  0.23168600  0.73451700  0.24784700  1
  Ca  Ca3  1  0.26528400  0.72842000  0.69521100  1
  Ca  Ca4  1  0.73735600  0.25746200  0.25672500  1
  Ca  Ca5  1  0.74588100  0.24571800  0.72036600  1
  Ca  Ca6  1  0.73735600  0.74253800  0.25672500  1
  Ca  Ca7  1  0.74588100  0.75428200  0.72036600  1
  Mn  Mn0  1  0.00760900  0.00000000  0.50256800  1
  Mn  Mn1  1  0.99213400  0.50000000  0.00790000  1
  Mn  Mn2  1  0.00021600  0.50000000  0.49777100  1
  Mn  Mn3  1  0.51078300  0.00000000  0.47858200  1
  Mn  Mn4  1  0.49754800  0.50000000  0.99140300  1
  Mn  Mn5  1  0.50555400  0.50000000  0.49571500  1
  Cr  Cr0  1  0.02038800  0.00000000  0.98843100  1
  Cr  Cr1  1  0.47880000  0.00000000  0.00026700  1
  O  O0  1  0.96275500  0.00000000  0.76698900  1
  O  O1  1  0.01034700  0.50000000  0.25428100  1
  O  O2  1  0.01042800  0.50000000  0.75590300  1
  O  O3  1  0.56662200  0.00000000  0.23154500  1
  O  O4  1  0.52699500  0.00000000  0.74883600  1
  O  O5  1  0.48966700  0.50000000  0.74501100  1
  O  O6  1  0.24254800  0.00000000  0.06403000  1
  O  O7  1  0.25705000  0.00000000  0.48294200  1
  O  O8  1  0.25212500  0.50000000  0.03080900  1
  O  O9  1  0.25935400  0.50000000  0.48226000  1
  O  O10  1  0.76219700  0.00000000  0.48665900  1
  O  O11  1  0.74004500  0.50000000  0.03617900  1
  O  O12  1  0.74878000  0.50000000  0.49288100  1
  O  O13  1  0.95575500  0.20418000  0.06803400  1
  O  O14  1  0.01278600  0.24834000  0.49826300  1
  O  O15  1  0.95575500  0.79582000  0.06803400  1
  O  O16  1  0.01278600  0.75166000  0.49826300  1
  O  O17  1  0.50572800  0.25486400  0.01957900  1
  O  O18  1  0.49955000  0.25585300  0.47349500  1
  O  O19  1  0.50572800  0.74513600  0.01957900  1
  O  O20  1  0.49955000  0.74414700  0.47349500  1
loop_
_geom_bond_atom_site_label_1
_geom_bond_atom_site_label_2
_geom_bond_distance
_geom_bond_site_symmetry_2
Ca0 O8 2.479462 1_555
Ca0 O6 2.506051 1_555
Ca0 O1 2.510943 1_555
Ca0 O14 2.571114 1_555
Ca0 O9 2.576596 1_555
Ca0 O13 2.604267 1_455
Ca0 O18 2.720380 1_555
Ca0 O7 2.754754 1_555
Ca0 O17 2.759573 1_555
Ca1 O9 2.419113 1_555
Ca1 O14 2.493828 1_555
Ca1 O18 2.495687 1_555
Ca1 O5 2.523210 1_555
Ca1 O7 2.673056 1_555
Ca1 O2 2.703714 1_555
Ca1 O4 2.966354 1_555
Ca2 O8 2.479462 1_555
Ca2 O6 2.506051 1_565
Ca2 O1 2.510943 1_555
Ca2 O16 2.571114 1_555
Ca2 O9 2.576596 1_555
Ca2 O15 2.604267 1_455
Ca2 O20 2.720380 1_555
Ca2 O7 2.754754 1_565
Ca2 O19 2.759573 1_555
Ca3 O9 2.419113 1_555
Ca3 O16 2.493828 1_555
Ca3 O20 2.495687 1_555
Ca3 O5 2.523210 1_555
Ca3 O7 2.673056 1_565
Ca3 O2 2.703714 1_555
Ca3 O4 2.966354 1_565
Ca4 O13 2.269897 1_555
Ca4 O3 2.413387 1_555
Ca4 O18 2.487288 1_555
Ca4 O11 2.539214 1_555
Ca4 O17 2.571152 1_555
Ca4 O12 2.622795 1_555
Ca4 O10 2.681513 1_555
Ca4 O1 2.842992 1_655
Ca4 O14 2.844610 1_655
Ca5 O4 2.570734 1_555
Ca5 O0 2.577643 1_555
Ca5 O10 2.628698 1_555
Ca5 O12 2.643011 1_555
Ca5 O14 2.685502 1_655
Ca5 O18 2.706346 1_555
Ca5 O5 2.816210 1_555
Ca5 O2 2.870632 1_655
Ca5 O17 2.961405 1_556
Ca6 O15 2.269897 1_555
Ca6 O3 2.413387 1_565
Ca6 O20 2.487288 1_555
Ca6 O11 2.539214 1_555
Ca6 O19 2.571152 1_555
Ca6 O12 2.622795 1_555
Ca6 O10 2.681513 1_565
Ca6 O1 2.842992 1_655
Ca6 O16 2.844610 1_655
Ca7 O4 2.570734 1_565
Ca7 O0 2.577643 1_565
Ca7 O10 2.628698 1_565
Ca7 O12 2.643011 1_555
Ca7 O16 2.685502 1_655
Ca7 O20 2.706346 1_555
Ca7 O5 2.816210 1_555
Ca7 O2 2.870632 1_655
Ca7 O19 2.961405 1_556
Mn0 O10 1.915003 1_455
Mn0 O16 1.934177 1_545
Mn0 O14 1.934177 1_555
Mn0 O7 1.947209 1_555
Mn0 O0 2.063632 1_455
Mn1 O1 1.902300 1_655
Mn1 O2 1.944305 1_654
Mn1 O11 1.973725 1_555
Mn1 O8 2.032467 1_655
Mn1 O15 2.365973 1_555
Mn1 O13 2.365973 1_555
Mn2 O1 1.875520 1_555
Mn2 O12 1.957999 1_455
Mn2 O14 1.961771 1_555
Mn2 O16 1.961771 1_555
Mn2 O2 1.988794 1_555
Mn2 O9 2.020493 1_555
Mn3 O3 1.948822 1_555
Mn3 O10 1.958553 1_555
Mn3 O7 1.975516 1_555
Mn3 O18 1.994279 1_555
Mn3 O20 1.994279 1_545
Mn3 O4 2.084524 1_555
Mn4 O5 1.897759 1_555
Mn4 O11 1.920469 1_556
Mn4 O17 1.921898 1_556
Mn4 O19 1.921898 1_556
Mn4 O8 1.933382 1_556
Mn5 O12 1.893605 1_555
Mn5 O18 1.909099 1_555
Mn5 O20 1.909099 1_555
Mn5 O9 1.919937 1_555
Mn5 O5 1.922351 1_555
Cr0 O0 1.764300 1_455
Cr0 O13 1.775709 1_456
Cr0 O15 1.775709 1_446
Cr0 O6 1.827065 1_556
Cr1 O6 1.901705 1_555
Cr1 O3 1.909553 1_555
Cr1 O4 1.969845 1_554
Cr1 O19 2.000906 1_545
Cr1 O17 2.000906 1_555
