# generated using pymatgen
data_Tl2V9CrS16
_symmetry_space_group_name_H-M   'P 1'
_cell_length_a   6.52046600
_cell_length_b   17.10055897
_cell_length_c   34.91347022
_cell_angle_alpha   104.62320895
_cell_angle_beta   90.00000000
_cell_angle_gamma   90.00000000
_symmetry_Int_Tables_number   1
_chemical_formula_structural   Tl2V9CrS16
_chemical_formula_sum   'Tl16 V72 Cr8 S128'
_cell_volume   3766.87278445
_cell_formula_units_Z   8
loop_
 _symmetry_equiv_pos_site_id
 _symmetry_equiv_pos_as_xyz
  1  'x, y, z'
loop_
 _atom_site_type_symbol
 _atom_site_label
 _atom_site_symmetry_multiplicity
 _atom_site_fract_x
 _atom_site_fract_y
 _atom_site_fract_z
 _atom_site_occupancy
  Tl  Tl0_0  1  0.25000000  0.00000000  0.00000000  1
  Tl  Tl0_1  1  0.25000000  0.00000000  0.50000000  1
  Tl  Tl0_2  1  0.25000000  0.50000000  0.00000000  1
  Tl  Tl0_3  1  0.25000000  0.50000000  0.50000000  1
  Tl  Tl0_4  1  0.75000000  0.00000000  0.00000000  1
  Tl  Tl0_5  1  0.75000000  0.00000000  0.50000000  1
  Tl  Tl0_6  1  0.75000000  0.50000000  0.00000000  1
  Tl  Tl0_7  1  0.75000000  0.50000000  0.50000000  1
  Tl  Tl1_0  1  0.00000000  0.00000000  0.25000000  1
  Tl  Tl1_1  1  0.00000000  0.00000000  0.75000000  1
  Tl  Tl1_2  1  0.00000000  0.50000000  0.25000000  1
  Tl  Tl1_3  1  0.00000000  0.50000000  0.75000000  1
  Tl  Tl1_4  1  0.50000000  0.00000000  0.25000000  1
  Tl  Tl1_5  1  0.50000000  0.00000000  0.75000000  1
  Tl  Tl1_6  1  0.50000000  0.50000000  0.25000000  1
  Tl  Tl1_7  1  0.50000000  0.50000000  0.75000000  1
  V  V0_0  1  0.25000000  0.42990600  0.10565500  1
  V  V0_1  1  0.25000000  0.42990600  0.60565500  1
  V  V0_2  1  0.25000000  0.92990600  0.10565500  1
  V  V0_3  1  0.25000000  0.92990600  0.60565500  1
  V  V0_4  1  0.75000000  0.42990600  0.10565500  1
  V  V0_5  1  0.75000000  0.42990600  0.60565500  1
  V  V0_6  1  0.75000000  0.92990600  0.10565500  1
  V  V0_7  1  0.75000000  0.92990600  0.60565500  1
  V  V1_0  1  0.00000000  0.43014100  0.35569800  1
  V  V1_1  1  0.00000000  0.43014100  0.85569800  1
  V  V1_2  1  0.00000000  0.93014100  0.35569800  1
  V  V1_3  1  0.00000000  0.93014100  0.85569800  1
  V  V1_4  1  0.50000000  0.43014100  0.35569800  1
  V  V1_5  1  0.50000000  0.43014100  0.85569800  1
  V  V1_6  1  0.50000000  0.93014100  0.35569800  1
  V  V1_7  1  0.50000000  0.93014100  0.85569800  1
  V  V2_0  1  0.00000000  0.06985900  0.14430200  1
  V  V2_1  1  0.00000000  0.06985900  0.64430200  1
  V  V2_2  1  0.00000000  0.56985900  0.14430200  1
  V  V2_3  1  0.00000000  0.56985900  0.64430200  1
  V  V2_4  1  0.50000000  0.06985900  0.14430200  1
  V  V2_5  1  0.50000000  0.06985900  0.64430200  1
  V  V2_6  1  0.50000000  0.56985900  0.14430200  1
  V  V2_7  1  0.50000000  0.56985900  0.64430200  1
  V  V3_0  1  0.25000000  0.07009400  0.39434500  1
  V  V3_1  1  0.25000000  0.07009400  0.89434500  1
  V  V3_2  1  0.25000000  0.57009400  0.39434500  1
  V  V3_3  1  0.25000000  0.57009400  0.89434500  1
  V  V3_4  1  0.75000000  0.07009400  0.39434500  1
  V  V3_5  1  0.75000000  0.07009400  0.89434500  1
  V  V3_6  1  0.75000000  0.57009400  0.39434500  1
  V  V3_7  1  0.75000000  0.57009400  0.89434500  1
  V  V4_0  1  0.25000000  0.24755850  0.07396250  1
  V  V4_1  1  0.25000000  0.24755850  0.57396250  1
  V  V4_2  1  0.25000000  0.74755850  0.07396250  1
  V  V4_3  1  0.25000000  0.74755850  0.57396250  1
  V  V4_4  1  0.75000000  0.24755850  0.07396250  1
  V  V4_5  1  0.75000000  0.24755850  0.57396250  1
  V  V4_6  1  0.75000000  0.74755850  0.07396250  1
  V  V4_7  1  0.75000000  0.74755850  0.57396250  1
  V  V5_0  1  0.00000000  0.24799650  0.32325050  1
  V  V5_1  1  0.00000000  0.24799650  0.82325050  1
  V  V5_2  1  0.00000000  0.74799650  0.32325050  1
  V  V5_3  1  0.00000000  0.74799650  0.82325050  1
  V  V5_4  1  0.50000000  0.24799650  0.32325050  1
  V  V5_5  1  0.50000000  0.24799650  0.82325050  1
  V  V5_6  1  0.50000000  0.74799650  0.32325050  1
  V  V5_7  1  0.50000000  0.74799650  0.82325050  1
  V  V6_0  1  0.00000000  0.25200350  0.17674950  1
  V  V6_1  1  0.00000000  0.25200350  0.67674950  1
  V  V6_2  1  0.00000000  0.75200350  0.17674950  1
  V  V6_3  1  0.00000000  0.75200350  0.67674950  1
  V  V6_4  1  0.50000000  0.25200350  0.17674950  1
  V  V6_5  1  0.50000000  0.25200350  0.67674950  1
  V  V6_6  1  0.50000000  0.75200350  0.17674950  1
  V  V6_7  1  0.50000000  0.75200350  0.67674950  1
  V  V7_0  1  0.25000000  0.25244150  0.42603750  1
  V  V7_1  1  0.25000000  0.25244150  0.92603750  1
  V  V7_2  1  0.25000000  0.75244150  0.42603750  1
  V  V7_3  1  0.25000000  0.75244150  0.92603750  1
  V  V7_4  1  0.75000000  0.25244150  0.42603750  1
  V  V7_5  1  0.75000000  0.25244150  0.92603750  1
  V  V7_6  1  0.75000000  0.75244150  0.42603750  1
  V  V7_7  1  0.75000000  0.75244150  0.92603750  1
  V  V8_0  1  0.00000000  0.25000000  0.00000000  1
  V  V8_1  1  0.00000000  0.25000000  0.50000000  1
  V  V8_2  1  0.00000000  0.75000000  0.00000000  1
  V  V8_3  1  0.00000000  0.75000000  0.50000000  1
  V  V8_4  1  0.50000000  0.25000000  0.00000000  1
  V  V8_5  1  0.50000000  0.25000000  0.50000000  1
  V  V8_6  1  0.50000000  0.75000000  0.00000000  1
  V  V8_7  1  0.50000000  0.75000000  0.50000000  1
  Cr  Cr0_0  1  0.25000000  0.25000000  0.25000000  1
  Cr  Cr0_1  1  0.25000000  0.25000000  0.75000000  1
  Cr  Cr0_2  1  0.25000000  0.75000000  0.25000000  1
  Cr  Cr0_3  1  0.25000000  0.75000000  0.75000000  1
  Cr  Cr0_4  1  0.75000000  0.25000000  0.25000000  1
  Cr  Cr0_5  1  0.75000000  0.25000000  0.75000000  1
  Cr  Cr0_6  1  0.75000000  0.75000000  0.25000000  1
  Cr  Cr0_7  1  0.75000000  0.75000000  0.75000000  1
  S  S0_0  1  0.25000000  0.33984850  0.20808350  1
  S  S0_1  1  0.25000000  0.33984850  0.70808350  1
  S  S0_2  1  0.25000000  0.83984850  0.20808350  1
  S  S0_3  1  0.25000000  0.83984850  0.70808350  1
  S  S0_4  1  0.75000000  0.33984850  0.20808350  1
  S  S0_5  1  0.75000000  0.33984850  0.70808350  1
  S  S0_6  1  0.75000000  0.83984850  0.20808350  1
  S  S0_7  1  0.75000000  0.83984850  0.70808350  1
  S  S1_0  1  0.00000000  0.34081700  0.45745950  1
  S  S1_1  1  0.00000000  0.34081700  0.95745950  1
  S  S1_2  1  0.00000000  0.84081700  0.45745950  1
  S  S1_3  1  0.00000000  0.84081700  0.95745950  1
  S  S1_4  1  0.50000000  0.34081700  0.45745950  1
  S  S1_5  1  0.50000000  0.34081700  0.95745950  1
  S  S1_6  1  0.50000000  0.84081700  0.45745950  1
  S  S1_7  1  0.50000000  0.84081700  0.95745950  1
  S  S2_0  1  0.00000000  0.15918300  0.04254050  1
  S  S2_1  1  0.00000000  0.15918300  0.54254050  1
  S  S2_2  1  0.00000000  0.65918300  0.04254050  1
  S  S2_3  1  0.00000000  0.65918300  0.54254050  1
  S  S2_4  1  0.50000000  0.15918300  0.04254050  1
  S  S2_5  1  0.50000000  0.15918300  0.54254050  1
  S  S2_6  1  0.50000000  0.65918300  0.04254050  1
  S  S2_7  1  0.50000000  0.65918300  0.54254050  1
  S  S3_0  1  0.25000000  0.16015150  0.29191650  1
  S  S3_1  1  0.25000000  0.16015150  0.79191650  1
  S  S3_2  1  0.25000000  0.66015150  0.29191650  1
  S  S3_3  1  0.25000000  0.66015150  0.79191650  1
  S  S3_4  1  0.75000000  0.16015150  0.29191650  1
  S  S3_5  1  0.75000000  0.16015150  0.79191650  1
  S  S3_6  1  0.75000000  0.66015150  0.29191650  1
  S  S3_7  1  0.75000000  0.66015150  0.79191650  1
  S  S4_0  1  0.25000000  0.17006400  0.12994850  1
  S  S4_1  1  0.25000000  0.17006400  0.62994850  1
  S  S4_2  1  0.25000000  0.67006400  0.12994850  1
  S  S4_3  1  0.25000000  0.67006400  0.62994850  1
  S  S4_4  1  0.75000000  0.17006400  0.12994850  1
  S  S4_5  1  0.75000000  0.17006400  0.62994850  1
  S  S4_6  1  0.75000000  0.67006400  0.12994850  1
  S  S4_7  1  0.75000000  0.67006400  0.62994850  1
  S  S5_0  1  0.00000000  0.16992500  0.37950600  1
  S  S5_1  1  0.00000000  0.16992500  0.87950600  1
  S  S5_2  1  0.00000000  0.66992500  0.37950600  1
  S  S5_3  1  0.00000000  0.66992500  0.87950600  1
  S  S5_4  1  0.50000000  0.16992500  0.37950600  1
  S  S5_5  1  0.50000000  0.16992500  0.87950600  1
  S  S5_6  1  0.50000000  0.66992500  0.37950600  1
  S  S5_7  1  0.50000000  0.66992500  0.87950600  1
  S  S6_0  1  0.00000000  0.33007500  0.12049400  1
  S  S6_1  1  0.00000000  0.33007500  0.62049400  1
  S  S6_2  1  0.00000000  0.83007500  0.12049400  1
  S  S6_3  1  0.00000000  0.83007500  0.62049400  1
  S  S6_4  1  0.50000000  0.33007500  0.12049400  1
  S  S6_5  1  0.50000000  0.33007500  0.62049400  1
  S  S6_6  1  0.50000000  0.83007500  0.12049400  1
  S  S6_7  1  0.50000000  0.83007500  0.62049400  1
  S  S7_0  1  0.25000000  0.32993600  0.37005150  1
  S  S7_1  1  0.25000000  0.32993600  0.87005150  1
  S  S7_2  1  0.25000000  0.82993600  0.37005150  1
  S  S7_3  1  0.25000000  0.82993600  0.87005150  1
  S  S7_4  1  0.75000000  0.32993600  0.37005150  1
  S  S7_5  1  0.75000000  0.32993600  0.87005150  1
  S  S7_6  1  0.75000000  0.82993600  0.37005150  1
  S  S7_7  1  0.75000000  0.82993600  0.87005150  1
  S  S8_0  1  0.25000000  0.00050500  0.17024050  1
  S  S8_1  1  0.25000000  0.00050500  0.67024050  1
  S  S8_2  1  0.25000000  0.50050500  0.17024050  1
  S  S8_3  1  0.25000000  0.50050500  0.67024050  1
  S  S8_4  1  0.75000000  0.00050500  0.17024050  1
  S  S8_5  1  0.75000000  0.00050500  0.67024050  1
  S  S8_6  1  0.75000000  0.50050500  0.17024050  1
  S  S8_7  1  0.75000000  0.50050500  0.67024050  1
  S  S9_0  1  0.00000000  0.49988550  0.42001150  1
  S  S9_1  1  0.00000000  0.49988550  0.92001150  1
  S  S9_2  1  0.00000000  0.99988550  0.42001150  1
  S  S9_3  1  0.00000000  0.99988550  0.92001150  1
  S  S9_4  1  0.50000000  0.49988550  0.42001150  1
  S  S9_5  1  0.50000000  0.49988550  0.92001150  1
  S  S9_6  1  0.50000000  0.99988550  0.42001150  1
  S  S9_7  1  0.50000000  0.99988550  0.92001150  1
  S  S10_0  1  0.00000000  0.00011450  0.07998850  1
  S  S10_1  1  0.00000000  0.00011450  0.57998850  1
  S  S10_2  1  0.00000000  0.50011450  0.07998850  1
  S  S10_3  1  0.00000000  0.50011450  0.57998850  1
  S  S10_4  1  0.50000000  0.00011450  0.07998850  1
  S  S10_5  1  0.50000000  0.00011450  0.57998850  1
  S  S10_6  1  0.50000000  0.50011450  0.07998850  1
  S  S10_7  1  0.50000000  0.50011450  0.57998850  1
  S  S11_0  1  0.25000000  0.49949500  0.32975950  1
  S  S11_1  1  0.25000000  0.49949500  0.82975950  1
  S  S11_2  1  0.25000000  0.99949500  0.32975950  1
  S  S11_3  1  0.25000000  0.99949500  0.82975950  1
  S  S11_4  1  0.75000000  0.49949500  0.32975950  1
  S  S11_5  1  0.75000000  0.49949500  0.82975950  1
  S  S11_6  1  0.75000000  0.99949500  0.32975950  1
  S  S11_7  1  0.75000000  0.99949500  0.82975950  1
  S  S12_0  1  0.25000000  0.33930350  0.03719400  1
  S  S12_1  1  0.25000000  0.33930350  0.53719400  1
  S  S12_2  1  0.25000000  0.83930350  0.03719400  1
  S  S12_3  1  0.25000000  0.83930350  0.53719400  1
  S  S12_4  1  0.75000000  0.33930350  0.03719400  1
  S  S12_5  1  0.75000000  0.33930350  0.53719400  1
  S  S12_6  1  0.75000000  0.83930350  0.03719400  1
  S  S12_7  1  0.75000000  0.83930350  0.53719400  1
  S  S13_0  1  0.00000000  0.33768050  0.28611450  1
  S  S13_1  1  0.00000000  0.33768050  0.78611450  1
  S  S13_2  1  0.00000000  0.83768050  0.28611450  1
  S  S13_3  1  0.00000000  0.83768050  0.78611450  1
  S  S13_4  1  0.50000000  0.33768050  0.28611450  1
  S  S13_5  1  0.50000000  0.33768050  0.78611450  1
  S  S13_6  1  0.50000000  0.83768050  0.28611450  1
  S  S13_7  1  0.50000000  0.83768050  0.78611450  1
  S  S14_0  1  0.00000000  0.16231950  0.21388550  1
  S  S14_1  1  0.00000000  0.16231950  0.71388550  1
  S  S14_2  1  0.00000000  0.66231950  0.21388550  1
  S  S14_3  1  0.00000000  0.66231950  0.71388550  1
  S  S14_4  1  0.50000000  0.16231950  0.21388550  1
  S  S14_5  1  0.50000000  0.16231950  0.71388550  1
  S  S14_6  1  0.50000000  0.66231950  0.21388550  1
  S  S14_7  1  0.50000000  0.66231950  0.71388550  1
  S  S15_0  1  0.25000000  0.16069650  0.46280600  1
  S  S15_1  1  0.25000000  0.16069650  0.96280600  1
  S  S15_2  1  0.25000000  0.66069650  0.46280600  1
  S  S15_3  1  0.25000000  0.66069650  0.96280600  1
  S  S15_4  1  0.75000000  0.16069650  0.46280600  1
  S  S15_5  1  0.75000000  0.16069650  0.96280600  1
  S  S15_6  1  0.75000000  0.66069650  0.46280600  1
  S  S15_7  1  0.75000000  0.66069650  0.96280600  1
loop_
_geom_bond_atom_site_label_1
_geom_bond_atom_site_label_2
_geom_bond_distance
_geom_bond_site_symmetry_2
Tl0_0 Tl0_4 3.260233 1_455
Tl0_0 Tl0_4 3.260233 1_555
Tl0_1 Tl0_5 3.260233 1_455
Tl0_1 Tl0_5 3.260233 1_555
Tl0_2 Tl0_6 3.260233 1_455
Tl0_2 Tl0_6 3.260233 1_555
Tl0_3 Tl0_7 3.260233 1_455
Tl0_3 Tl0_7 3.260233 1_555
Tl1_0 Tl1_4 3.260233 1_555
Tl1_0 Tl1_4 3.260233 1_455
Tl1_1 Tl1_5 3.260233 1_555
Tl1_1 Tl1_5 3.260233 1_455
Tl1_2 Tl1_6 3.260233 1_555
Tl1_2 Tl1_6 3.260233 1_455
Tl1_3 Tl1_7 3.260233 1_555
Tl1_3 Tl1_7 3.260233 1_455
Cr0_0 S13_4 2.353865 1_555
Cr0_0 S13_0 2.353865 1_555
Cr0_0 S14_4 2.353865 1_555
Cr0_0 S14_0 2.353865 1_555
Cr0_0 S3_0 2.374391 1_555
Cr0_0 S0_0 2.374391 1_555
Cr0_1 S13_5 2.353865 1_555
Cr0_1 S13_1 2.353865 1_555
Cr0_1 S14_1 2.353865 1_555
Cr0_1 S14_5 2.353865 1_555
Cr0_1 S3_1 2.374391 1_555
Cr0_1 S0_1 2.374391 1_555
Cr0_2 S13_6 2.353865 1_555
Cr0_2 S13_2 2.353865 1_555
Cr0_2 S14_2 2.353865 1_555
Cr0_2 S14_6 2.353865 1_555
Cr0_2 S0_2 2.374391 1_555
Cr0_2 S3_2 2.374391 1_555
Cr0_3 S14_3 2.353865 1_555
Cr0_3 S14_7 2.353865 1_555
Cr0_3 S13_3 2.353865 1_555
Cr0_3 S13_7 2.353865 1_555
Cr0_3 S0_3 2.374391 1_555
Cr0_3 S3_3 2.374391 1_555
Cr0_4 S13_0 2.353865 1_655
Cr0_4 S13_4 2.353865 1_555
Cr0_4 S14_0 2.353865 1_655
Cr0_4 S14_4 2.353865 1_555
Cr0_4 S3_4 2.374391 1_555
Cr0_4 S0_4 2.374391 1_555
Cr0_5 S13_1 2.353865 1_655
Cr0_5 S13_5 2.353865 1_555
Cr0_5 S14_5 2.353865 1_555
Cr0_5 S14_1 2.353865 1_655
Cr0_5 S3_5 2.374391 1_555
Cr0_5 S0_5 2.374391 1_555
Cr0_6 S13_2 2.353865 1_655
Cr0_6 S14_2 2.353865 1_655
Cr0_6 S13_6 2.353865 1_555
Cr0_6 S14_6 2.353865 1_555
Cr0_6 S0_6 2.374391 1_555
Cr0_6 S3_6 2.374391 1_555
Cr0_7 S14_3 2.353865 1_655
Cr0_7 S14_7 2.353865 1_555
Cr0_7 S13_3 2.353865 1_655
Cr0_7 S13_7 2.353865 1_555
Cr0_7 S0_7 2.374391 1_555
Cr0_7 S3_7 2.374391 1_555
S0_0 V6_0 2.298019 1_555
S0_0 V6_4 2.298019 1_555
S0_0 Tl1_6 3.205565 1_555
S0_0 Tl1_2 3.205565 1_555
S0_1 V6_1 2.298019 1_555
S0_1 V6_5 2.298019 1_555
S0_1 Tl1_3 3.205565 1_555
S0_1 Tl1_7 3.205565 1_555
S0_2 V6_2 2.298019 1_555
S0_2 V6_6 2.298019 1_555
S0_2 Tl1_0 3.205565 1_565
S0_2 Tl1_4 3.205565 1_565
S0_3 V6_3 2.298019 1_555
S0_3 V6_7 2.298019 1_555
S0_3 Tl1_1 3.205565 1_565
S0_3 Tl1_5 3.205565 1_565
S0_4 V6_4 2.298019 1_555
S0_4 V6_0 2.298019 1_655
S0_4 Tl1_6 3.205565 1_555
S0_4 Tl1_2 3.205565 1_655
S0_5 V6_1 2.298019 1_655
S0_5 V6_5 2.298019 1_555
S0_5 Tl1_3 3.205565 1_655
S0_5 Tl1_7 3.205565 1_555
S0_6 V6_2 2.298019 1_655
S0_6 V6_6 2.298019 1_555
S0_6 Tl1_0 3.205565 1_665
S0_6 Tl1_4 3.205565 1_565
S0_7 V6_3 2.298019 1_655
S0_7 V6_7 2.298019 1_555
S0_7 Tl1_1 3.205565 1_665
S0_7 Tl1_5 3.205565 1_565
S1_0 V7_4 2.303824 1_455
S1_0 V7_0 2.303824 1_555
S1_0 V8_1 2.404675 1_555
S1_0 Tl0_3 3.198709 1_555
S1_0 Tl0_7 3.198709 1_455
S1_1 V7_1 2.303824 1_555
S1_1 V7_5 2.303824 1_455
S1_1 V8_0 2.404675 1_556
S1_1 Tl0_2 3.198709 1_556
S1_1 Tl0_6 3.198709 1_456
S1_2 V7_2 2.303824 1_555
S1_2 V7_6 2.303824 1_455
S1_2 V8_3 2.404675 1_555
S1_2 Tl0_1 3.198709 1_565
S1_2 Tl0_5 3.198709 1_465
S1_3 V7_3 2.303824 1_555
S1_3 V7_7 2.303824 1_455
S1_3 V8_2 2.404675 1_556
S1_3 Tl0_4 3.198709 1_466
S1_3 Tl0_0 3.198709 1_566
S1_4 V7_0 2.303824 1_555
S1_4 V7_4 2.303824 1_555
S1_4 V8_5 2.404675 1_555
S1_4 Tl0_3 3.198709 1_555
S1_4 Tl0_7 3.198709 1_555
S1_5 V7_1 2.303824 1_555
S1_5 V7_5 2.303824 1_555
S1_5 V8_4 2.404675 1_556
S1_5 Tl0_2 3.198709 1_556
S1_5 Tl0_6 3.198709 1_556
S1_6 V7_2 2.303824 1_555
S1_6 V7_6 2.303824 1_555
S1_6 V8_7 2.404675 1_555
S1_6 Tl0_1 3.198709 1_565
S1_6 Tl0_5 3.198709 1_565
S1_7 V7_3 2.303824 1_555
S1_7 V7_7 2.303824 1_555
S1_7 V8_6 2.404675 1_556
S1_7 Tl0_0 3.198709 1_566
S1_7 Tl0_4 3.198709 1_566
S2_0 V4_0 2.303824 1_555
S2_0 V4_4 2.303824 1_455
S2_0 V8_0 2.404675 1_555
S2_0 Tl0_4 3.198709 1_455
S2_0 Tl0_0 3.198709 1_555
S2_1 V4_1 2.303824 1_555
S2_1 V4_5 2.303824 1_455
S2_1 V8_1 2.404675 1_555
S2_1 Tl0_1 3.198709 1_555
S2_1 Tl0_5 3.198709 1_455
S2_2 V4_2 2.303824 1_555
S2_2 V4_6 2.303824 1_455
S2_2 V8_2 2.404675 1_555
S2_2 Tl0_2 3.198709 1_555
S2_2 Tl0_6 3.198709 1_455
S2_3 V4_7 2.303824 1_455
S2_3 V4_3 2.303824 1_555
S2_3 V8_3 2.404675 1_555
S2_3 Tl0_7 3.198709 1_455
S2_3 Tl0_3 3.198709 1_555
S2_4 V4_0 2.303824 1_555
S2_4 V4_4 2.303824 1_555
S2_4 V8_4 2.404675 1_555
S2_4 Tl0_0 3.198709 1_555
S2_4 Tl0_4 3.198709 1_555
S2_5 V4_1 2.303824 1_555
S2_5 V4_5 2.303824 1_555
S2_5 V8_5 2.404675 1_555
S2_5 Tl0_1 3.198709 1_555
S2_5 Tl0_5 3.198709 1_555
S2_6 V4_2 2.303824 1_555
S2_6 V4_6 2.303824 1_555
S2_6 V8_6 2.404675 1_555
S2_6 Tl0_2 3.198709 1_555
S2_6 Tl0_6 3.198709 1_555
S2_7 V4_3 2.303824 1_555
S2_7 V4_7 2.303824 1_555
S2_7 V8_7 2.404675 1_555
S2_7 Tl0_3 3.198709 1_555
S2_7 Tl0_7 3.198709 1_555
S3_0 V5_4 2.298019 1_555
S3_0 V5_0 2.298019 1_555
S3_0 Tl1_4 3.205565 1_555
S3_0 Tl1_0 3.205565 1_555
S3_1 V5_1 2.298019 1_555
S3_1 V5_5 2.298019 1_555
S3_1 Tl1_5 3.205565 1_555
S3_1 Tl1_1 3.205565 1_555
S3_2 V5_2 2.298019 1_555
S3_2 V5_6 2.298019 1_555
S3_2 Tl1_6 3.205565 1_555
S3_2 Tl1_2 3.205565 1_555
S3_3 V5_3 2.298019 1_555
S3_3 V5_7 2.298019 1_555
S3_3 Tl1_3 3.205565 1_555
S3_3 Tl1_7 3.205565 1_555
S3_4 V5_0 2.298019 1_655
S3_4 V5_4 2.298019 1_555
S3_4 Tl1_0 3.205565 1_655
S3_4 Tl1_4 3.205565 1_555
S3_5 V5_1 2.298019 1_655
S3_5 V5_5 2.298019 1_555
S3_5 Tl1_5 3.205565 1_555
S3_5 Tl1_1 3.205565 1_655
S3_6 V5_2 2.298019 1_655
S3_6 V5_6 2.298019 1_555
S3_6 Tl1_6 3.205565 1_555
S3_6 Tl1_2 3.205565 1_655
S3_7 V5_3 2.298019 1_655
S3_7 V5_7 2.298019 1_555
S3_7 Tl1_3 3.205565 1_655
S3_7 Tl1_7 3.205565 1_555
S4_0 V6_4 2.476798 1_555
S4_0 V6_0 2.476798 1_555
S4_0 V2_0 2.505652 1_555
S4_0 V2_4 2.505652 1_555
S4_0 V4_0 2.623887 1_555
S4_1 V6_5 2.476798 1_555
S4_1 V6_1 2.476798 1_555
S4_1 V2_5 2.505652 1_555
S4_1 V2_1 2.505652 1_555
S4_1 V4_1 2.623887 1_555
S4_2 V6_2 2.476798 1_555
S4_2 V6_6 2.476798 1_555
S4_2 V2_6 2.505652 1_555
S4_2 V2_2 2.505652 1_555
S4_2 V4_2 2.623887 1_555
S4_3 V6_3 2.476798 1_555
S4_3 V6_7 2.476798 1_555
S4_3 V2_3 2.505652 1_555
S4_3 V2_7 2.505652 1_555
S4_3 V4_3 2.623887 1_555
S4_4 V6_0 2.476798 1_655
S4_4 V6_4 2.476798 1_555
S4_4 V2_0 2.505652 1_655
S4_4 V2_4 2.505652 1_555
S4_4 V4_4 2.623887 1_555
S4_5 V6_5 2.476798 1_555
S4_5 V6_1 2.476798 1_655
S4_5 V2_1 2.505652 1_655
S4_5 V2_5 2.505652 1_555
S4_5 V4_5 2.623887 1_555
S4_6 V6_2 2.476798 1_655
S4_6 V6_6 2.476798 1_555
S4_6 V2_2 2.505652 1_655
S4_6 V2_6 2.505652 1_555
S4_6 V4_6 2.623887 1_555
S4_7 V6_3 2.476798 1_655
S4_7 V6_7 2.476798 1_555
S4_7 V2_3 2.505652 1_655
S4_7 V2_7 2.505652 1_555
S4_7 V4_7 2.623887 1_555
S5_0 V7_4 2.475921 1_455
S5_0 V7_0 2.475921 1_555
S5_0 V3_0 2.507326 1_555
S5_0 V3_4 2.507326 1_455
S5_0 V5_0 2.638936 1_555
S5_1 V7_1 2.475921 1_555
S5_1 V7_5 2.475921 1_455
S5_1 V3_5 2.507326 1_455
S5_1 V3_1 2.507326 1_555
S5_1 V5_1 2.638936 1_555
S5_2 V7_2 2.475921 1_555
S5_2 V7_6 2.475921 1_455
S5_2 V3_2 2.507326 1_555
S5_2 V3_6 2.507326 1_455
S5_2 V5_2 2.638936 1_555
S5_3 V7_7 2.475921 1_455
S5_3 V7_3 2.475921 1_555
S5_3 V3_3 2.507326 1_555
S5_3 V3_7 2.507326 1_455
S5_3 V5_3 2.638936 1_555
S5_4 V7_4 2.475921 1_555
S5_4 V7_0 2.475921 1_555
S5_4 V3_0 2.507326 1_555
S5_4 V3_4 2.507326 1_555
S5_4 V5_4 2.638936 1_555
S5_5 V7_1 2.475921 1_555
S5_5 V7_5 2.475921 1_555
S5_5 V3_1 2.507326 1_555
S5_5 V3_5 2.507326 1_555
S5_5 V5_5 2.638936 1_555
S5_6 V7_2 2.475921 1_555
S5_6 V7_6 2.475921 1_555
S5_6 V3_2 2.507326 1_555
S5_6 V3_6 2.507326 1_555
S5_6 V5_6 2.638936 1_555
S5_7 V7_7 2.475921 1_555
S5_7 V7_3 2.475921 1_555
S5_7 V3_3 2.507326 1_555
S5_7 V3_7 2.507326 1_555
S5_7 V5_7 2.638936 1_555
S6_0 V4_0 2.475921 1_555
S6_0 V4_4 2.475921 1_455
S6_0 V0_4 2.507326 1_455
S6_0 V0_0 2.507326 1_555
S6_0 V6_0 2.638936 1_555
S6_1 V4_1 2.475921 1_555
S6_1 V4_5 2.475921 1_455
S6_1 V0_1 2.507326 1_555
S6_1 V0_5 2.507326 1_455
S6_1 V6_1 2.638936 1_555
S6_2 V4_2 2.475921 1_555
S6_2 V4_6 2.475921 1_455
S6_2 V0_2 2.507326 1_555
S6_2 V0_6 2.507326 1_455
S6_2 V6_2 2.638936 1_555
S6_3 V4_7 2.475921 1_455
S6_3 V4_3 2.475921 1_555
S6_3 V0_7 2.507326 1_455
S6_3 V0_3 2.507326 1_555
S6_3 V6_3 2.638936 1_555
S6_4 V4_4 2.475921 1_555
S6_4 V4_0 2.475921 1_555
S6_4 V0_0 2.507326 1_555
S6_4 V0_4 2.507326 1_555
S6_4 V6_4 2.638936 1_555
S6_5 V4_1 2.475921 1_555
S6_5 V4_5 2.475921 1_555
S6_5 V0_1 2.507326 1_555
S6_5 V0_5 2.507326 1_555
S6_5 V6_5 2.638936 1_555
S6_6 V4_2 2.475921 1_555
S6_6 V4_6 2.475921 1_555
S6_6 V0_2 2.507326 1_555
S6_6 V0_6 2.507326 1_555
S6_6 V6_6 2.638936 1_555
S6_7 V4_3 2.475921 1_555
S6_7 V4_7 2.475921 1_555
S6_7 V0_3 2.507326 1_555
S6_7 V0_7 2.507326 1_555
S6_7 V6_7 2.638936 1_555
S7_0 V5_0 2.476798 1_555
S7_0 V5_4 2.476798 1_555
S7_0 V1_0 2.505652 1_555
S7_0 V1_4 2.505652 1_555
S7_0 V7_0 2.623887 1_555
S7_1 V5_1 2.476798 1_555
S7_1 V5_5 2.476798 1_555
S7_1 V1_1 2.505652 1_555
S7_1 V1_5 2.505652 1_555
S7_1 V7_1 2.623887 1_555
S7_2 V5_2 2.476798 1_555
S7_2 V5_6 2.476798 1_555
S7_2 V1_2 2.505652 1_555
S7_2 V1_6 2.505652 1_555
S7_2 V7_2 2.623887 1_555
S7_3 V5_7 2.476798 1_555
S7_3 V5_3 2.476798 1_555
S7_3 V1_3 2.505652 1_555
S7_3 V1_7 2.505652 1_555
S7_3 V7_3 2.623887 1_555
S7_4 V5_0 2.476798 1_655
S7_4 V5_4 2.476798 1_555
S7_4 V1_0 2.505652 1_655
S7_4 V1_4 2.505652 1_555
S7_4 V7_4 2.623887 1_555
S7_5 V5_1 2.476798 1_655
S7_5 V5_5 2.476798 1_555
S7_5 V1_1 2.505652 1_655
S7_5 V1_5 2.505652 1_555
S7_5 V7_5 2.623887 1_555
S7_6 V5_2 2.476798 1_655
S7_6 V5_6 2.476798 1_555
S7_6 V1_2 2.505652 1_655
S7_6 V1_6 2.505652 1_555
S7_6 V7_6 2.623887 1_555
S7_7 V5_3 2.476798 1_655
S7_7 V5_7 2.476798 1_555
S7_7 V1_3 2.505652 1_655
S7_7 V1_7 2.505652 1_555
S7_7 V7_7 2.623887 1_555
S8_0 V0_2 2.273229 1_545
S8_0 V2_0 2.329438 1_555
S8_0 V2_4 2.329438 1_555
S8_0 Tl1_0 3.228613 1_555
S8_0 Tl1_4 3.228613 1_555
S8_1 V0_3 2.273229 1_545
S8_1 V2_1 2.329438 1_555
S8_1 V2_5 2.329438 1_555
S8_1 Tl1_1 3.228613 1_555
S8_1 Tl1_5 3.228613 1_555
S8_2 V0_0 2.273229 1_555
S8_2 V2_2 2.329438 1_555
S8_2 V2_6 2.329438 1_555
S8_2 Tl1_2 3.228613 1_555
S8_2 Tl1_6 3.228613 1_555
S8_3 V0_1 2.273229 1_555
S8_3 V2_3 2.329438 1_555
S8_3 V2_7 2.329438 1_555
S8_3 Tl1_7 3.228613 1_555
S8_3 Tl1_3 3.228613 1_555
S8_4 V0_6 2.273229 1_545
S8_4 V2_0 2.329438 1_655
S8_4 V2_4 2.329438 1_555
S8_4 Tl1_0 3.228613 1_655
S8_4 Tl1_4 3.228613 1_555
S8_5 V0_7 2.273229 1_545
S8_5 V2_1 2.329438 1_655
S8_5 V2_5 2.329438 1_555
S8_5 Tl1_1 3.228613 1_655
S8_5 Tl1_5 3.228613 1_555
S8_6 V0_4 2.273229 1_555
S8_6 V2_2 2.329438 1_655
S8_6 V2_6 2.329438 1_555
S8_6 Tl1_2 3.228613 1_655
S8_6 Tl1_6 3.228613 1_555
S8_7 V0_5 2.273229 1_555
S8_7 V2_3 2.329438 1_655
S8_7 V2_7 2.329438 1_555
S8_7 Tl1_7 3.228613 1_555
S8_7 Tl1_3 3.228613 1_655
S9_0 V1_0 2.260999 1_555
S9_0 V3_2 2.333446 1_555
S9_0 V3_6 2.333446 1_455
S9_0 Tl0_3 3.233197 1_555
S9_0 Tl0_7 3.233197 1_455
S9_1 V1_1 2.260999 1_555
S9_1 V3_3 2.333446 1_555
S9_1 V3_7 2.333446 1_455
S9_1 Tl0_6 3.233197 1_456
S9_1 Tl0_2 3.233197 1_556
S9_2 V1_2 2.260999 1_555
S9_2 V3_0 2.333446 1_565
S9_2 V3_4 2.333446 1_465
S9_2 Tl0_1 3.233197 1_565
S9_2 Tl0_5 3.233197 1_465
S9_3 V1_3 2.260999 1_555
S9_3 V3_5 2.333446 1_465
S9_3 V3_1 2.333446 1_565
S9_3 Tl0_0 3.233197 1_566
S9_3 Tl0_4 3.233197 1_466
S9_4 V1_4 2.260999 1_555
S9_4 V3_6 2.333446 1_555
S9_4 V3_2 2.333446 1_555
S9_4 Tl0_3 3.233197 1_555
S9_4 Tl0_7 3.233197 1_555
S9_5 V1_5 2.260999 1_555
S9_5 V3_3 2.333446 1_555
S9_5 V3_7 2.333446 1_555
S9_5 Tl0_2 3.233197 1_556
S9_5 Tl0_6 3.233197 1_556
S9_6 V1_6 2.260999 1_555
S9_6 V3_0 2.333446 1_565
S9_6 V3_4 2.333446 1_565
S9_6 Tl0_1 3.233197 1_565
S9_6 Tl0_5 3.233197 1_565
S9_7 V1_7 2.260999 1_555
S9_7 V3_1 2.333446 1_565
S9_7 V3_5 2.333446 1_565
S9_7 Tl0_0 3.233197 1_566
S9_7 Tl0_4 3.233197 1_566
S10_0 V2_0 2.260999 1_555
S10_0 V0_6 2.333446 1_445
S10_0 V0_2 2.333446 1_545
S10_0 Tl0_4 3.233197 1_455
S10_0 Tl0_0 3.233197 1_555
S10_1 V2_1 2.260999 1_555
S10_1 V0_3 2.333446 1_545
S10_1 V0_7 2.333446 1_445
S10_1 Tl0_1 3.233197 1_555
S10_1 Tl0_5 3.233197 1_455
S10_2 V2_2 2.260999 1_555
S10_2 V0_0 2.333446 1_555
S10_2 V0_4 2.333446 1_455
S10_2 Tl0_2 3.233197 1_555
S10_2 Tl0_6 3.233197 1_455
S10_3 V2_3 2.260999 1_555
S10_3 V0_1 2.333446 1_555
S10_3 V0_5 2.333446 1_455
S10_3 Tl0_3 3.233197 1_555
S10_3 Tl0_7 3.233197 1_455
S10_4 V2_4 2.260999 1_555
S10_4 V0_2 2.333446 1_545
S10_4 V0_6 2.333446 1_545
S10_4 Tl0_0 3.233197 1_555
S10_4 Tl0_4 3.233197 1_555
S10_5 V2_5 2.260999 1_555
S10_5 V0_3 2.333446 1_545
S10_5 V0_7 2.333446 1_545
S10_5 Tl0_1 3.233197 1_555
S10_5 Tl0_5 3.233197 1_555
S10_6 V2_6 2.260999 1_555
S10_6 V0_0 2.333446 1_555
S10_6 V0_4 2.333446 1_555
S10_6 Tl0_2 3.233197 1_555
S10_6 Tl0_6 3.233197 1_555
S10_7 V2_7 2.260999 1_555
S10_7 V0_1 2.333446 1_555
S10_7 V0_5 2.333446 1_555
S10_7 Tl0_3 3.233197 1_555
S10_7 Tl0_7 3.233197 1_555
S11_0 V3_2 2.273229 1_555
S11_0 V1_0 2.329438 1_555
S11_0 V1_4 2.329438 1_555
S11_0 Tl1_2 3.228613 1_555
S11_0 Tl1_6 3.228613 1_555
S11_1 V3_3 2.273229 1_555
S11_1 V1_1 2.329438 1_555
S11_1 V1_5 2.329438 1_555
S11_1 Tl1_3 3.228613 1_555
S11_1 Tl1_7 3.228613 1_555
S11_2 V3_0 2.273229 1_565
S11_2 V1_2 2.329438 1_555
S11_2 V1_6 2.329438 1_555
S11_2 Tl1_0 3.228613 1_565
S11_2 Tl1_4 3.228613 1_565
S11_3 V3_1 2.273229 1_565
S11_3 V1_3 2.329438 1_555
S11_3 V1_7 2.329438 1_555
S11_3 Tl1_1 3.228613 1_565
S11_3 Tl1_5 3.228613 1_565
S11_4 V3_6 2.273229 1_555
S11_4 V1_0 2.329438 1_655
S11_4 V1_4 2.329438 1_555
S11_4 Tl1_2 3.228613 1_655
S11_4 Tl1_6 3.228613 1_555
S11_5 V3_7 2.273229 1_555
S11_5 V1_1 2.329438 1_655
S11_5 V1_5 2.329438 1_555
S11_5 Tl1_7 3.228613 1_555
S11_5 Tl1_3 3.228613 1_655
S11_6 V3_4 2.273229 1_565
S11_6 V1_2 2.329438 1_655
S11_6 V1_6 2.329438 1_555
S11_6 Tl1_4 3.228613 1_565
S11_6 Tl1_0 3.228613 1_665
S11_7 V3_5 2.273229 1_565
S11_7 V1_3 2.329438 1_655
S11_7 V1_7 2.329438 1_555
S11_7 Tl1_1 3.228613 1_665
S11_7 Tl1_5 3.228613 1_565
S12_0 V4_0 2.264125 1_555
S12_0 V8_0 2.382102 1_555
S12_0 V8_4 2.382102 1_555
S12_0 V0_0 2.498747 1_555
S12_0 Tl0_2 3.322589 1_555
S12_1 V4_1 2.264125 1_555
S12_1 V8_5 2.382102 1_555
S12_1 V8_1 2.382102 1_555
S12_1 V0_1 2.498747 1_555
S12_1 Tl0_3 3.322589 1_555
S12_2 V4_2 2.264125 1_555
S12_2 V8_2 2.382102 1_555
S12_2 V8_6 2.382102 1_555
S12_2 V0_2 2.498747 1_555
S12_2 Tl0_0 3.322589 1_565
S12_3 V4_3 2.264125 1_555
S12_3 V8_7 2.382102 1_555
S12_3 V8_3 2.382102 1_555
S12_3 V0_3 2.498747 1_555
S12_3 Tl0_1 3.322589 1_565
S12_4 V4_4 2.264125 1_555
S12_4 V8_0 2.382102 1_655
S12_4 V8_4 2.382102 1_555
S12_4 V0_4 2.498747 1_555
S12_4 Tl0_6 3.322589 1_555
S12_5 V4_5 2.264125 1_555
S12_5 V8_5 2.382102 1_555
S12_5 V8_1 2.382102 1_655
S12_5 V0_5 2.498747 1_555
S12_5 Tl0_7 3.322589 1_555
S12_6 V4_6 2.264125 1_555
S12_6 V8_2 2.382102 1_655
S12_6 V8_6 2.382102 1_555
S12_6 V0_6 2.498747 1_555
S12_6 Tl0_4 3.322589 1_565
S12_7 V4_7 2.264125 1_555
S12_7 V8_3 2.382102 1_655
S12_7 V8_7 2.382102 1_555
S12_7 V0_7 2.498747 1_555
S12_7 Tl0_5 3.322589 1_565
S13_0 V5_0 2.244352 1_555
S13_0 V1_0 2.542134 1_555
S13_0 Tl1_2 3.325931 1_555
S13_1 V5_1 2.244352 1_555
S13_1 V1_1 2.542134 1_555
S13_1 Tl1_3 3.325931 1_555
S13_2 V5_2 2.244352 1_555
S13_2 V1_2 2.542134 1_555
S13_2 Tl1_0 3.325931 1_565
S13_3 V5_3 2.244352 1_555
S13_3 V1_3 2.542134 1_555
S13_3 Tl1_1 3.325931 1_565
S13_4 V5_4 2.244352 1_555
S13_4 V1_4 2.542134 1_555
S13_4 Tl1_6 3.325931 1_555
S13_5 V5_5 2.244352 1_555
S13_5 V1_5 2.542134 1_555
S13_5 Tl1_7 3.325931 1_555
S13_6 V5_6 2.244352 1_555
S13_6 V1_6 2.542134 1_555
S13_6 Tl1_4 3.325931 1_565
S13_7 V5_7 2.244352 1_555
S13_7 V1_7 2.542134 1_555
S13_7 Tl1_5 3.325931 1_565
S14_0 V6_0 2.244352 1_555
S14_0 V2_0 2.542134 1_555
S14_0 Tl1_0 3.325931 1_555
S14_1 V6_1 2.244352 1_555
S14_1 V2_1 2.542134 1_555
S14_1 Tl1_1 3.325931 1_555
S14_2 V6_2 2.244352 1_555
S14_2 V2_2 2.542134 1_555
S14_2 Tl1_2 3.325931 1_555
S14_3 V6_3 2.244352 1_555
S14_3 V2_3 2.542134 1_555
S14_3 Tl1_3 3.325931 1_555
S14_4 V6_4 2.244352 1_555
S14_4 V2_4 2.542134 1_555
S14_4 Tl1_4 3.325931 1_555
S14_5 V6_5 2.244352 1_555
S14_5 V2_5 2.542134 1_555
S14_5 Tl1_5 3.325931 1_555
S14_6 V6_6 2.244352 1_555
S14_6 V2_6 2.542134 1_555
S14_6 Tl1_6 3.325931 1_555
S14_7 V6_7 2.244352 1_555
S14_7 V2_7 2.542134 1_555
S14_7 Tl1_7 3.325931 1_555
S15_0 V7_0 2.264125 1_555
S15_0 V8_5 2.382102 1_555
S15_0 V8_1 2.382102 1_555
S15_0 V3_0 2.498747 1_555
S15_0 Tl0_1 3.322589 1_555
S15_1 V7_1 2.264125 1_555
S15_1 V8_4 2.382102 1_556
S15_1 V8_0 2.382102 1_556
S15_1 V3_1 2.498747 1_555
S15_1 Tl0_0 3.322589 1_556
S15_2 V7_2 2.264125 1_555
S15_2 V8_3 2.382102 1_555
S15_2 V8_7 2.382102 1_555
S15_2 V3_2 2.498747 1_555
S15_2 Tl0_3 3.322589 1_555
S15_3 V7_3 2.264125 1_555
S15_3 V8_2 2.382102 1_556
S15_3 V8_6 2.382102 1_556
S15_3 V3_3 2.498747 1_555
S15_3 Tl0_2 3.322589 1_556
S15_4 V7_4 2.264125 1_555
S15_4 V8_1 2.382102 1_655
S15_4 V8_5 2.382102 1_555
S15_4 V3_4 2.498747 1_555
S15_4 Tl0_5 3.322589 1_555
S15_5 V7_5 2.264125 1_555
S15_5 V8_0 2.382102 1_656
S15_5 V8_4 2.382102 1_556
S15_5 V3_5 2.498747 1_555
S15_5 Tl0_4 3.322589 1_556
S15_6 V7_6 2.264125 1_555
S15_6 V8_3 2.382102 1_655
S15_6 V8_7 2.382102 1_555
S15_6 V3_6 2.498747 1_555
S15_6 Tl0_7 3.322589 1_555
S15_7 V7_7 2.264125 1_555
S15_7 V8_6 2.382102 1_556
S15_7 V8_2 2.382102 1_656
S15_7 V3_7 2.498747 1_555
S15_7 Tl0_6 3.322589 1_556
