# generated using pymatgen
data_LiTl4(NiO3)4
_symmetry_space_group_name_H-M   'P 1'
_cell_length_a   5.27533731
_cell_length_b   5.67661318
_cell_length_c   7.95934791
_cell_angle_alpha   91.29042827
_cell_angle_beta   91.04695103
_cell_angle_gamma   90.60869235
_symmetry_Int_Tables_number   1
_chemical_formula_structural   LiTl4(NiO3)4
_chemical_formula_sum   'Li1 Tl4 Ni4 O12'
_cell_volume   238.23627632
_cell_formula_units_Z   1
loop_
 _symmetry_equiv_pos_site_id
 _symmetry_equiv_pos_as_xyz
  1  'x, y, z'
loop_
 _atom_site_type_symbol
 _atom_site_label
 _atom_site_symmetry_multiplicity
 _atom_site_fract_x
 _atom_site_fract_y
 _atom_site_fract_z
 _atom_site_occupancy
  Li  Li0  1  0.13070100  0.75872700  0.35705600  1
  Tl  Tl0  1  0.55271900  0.55830300  0.24666700  1
  Tl  Tl1  1  0.02191900  0.93783800  0.74842400  1
  Tl  Tl2  1  0.47020800  0.43405100  0.75801100  1
  Tl  Tl3  1  0.98135400  0.11003800  0.21619000  1
  Ni  Ni0  1  0.49576300  0.99883000  0.99977200  1
  Ni  Ni1  1  0.51031900  0.99169200  0.50427500  1
  Ni  Ni2  1  0.98672000  0.46994800  0.52518400  1
  Ni  Ni3  1  0.00376900  0.51546000  0.99327700  1
  O  O0  1  0.72995800  0.26573700  0.42774400  1
  O  O1  1  0.70707700  0.32049700  0.04918800  1
  O  O2  1  0.20626800  0.20800600  0.57252800  1
  O  O3  1  0.79538900  0.74925900  0.44462600  1
  O  O4  1  0.79066600  0.81511600  0.06682500  1
  O  O5  1  0.37427100  0.95933200  0.25187700  1
  O  O6  1  0.20363800  0.19219300  0.94214500  1
  O  O7  1  0.61485200  0.04194400  0.75469200  1
  O  O8  1  0.87405800  0.54592400  0.76366500  1
  O  O9  1  0.28974300  0.70227100  0.93214800  1
  O  O10  1  0.13571500  0.48260600  0.22790800  1
  O  O11  1  0.27489100  0.69222800  0.56779800  1
loop_
_geom_bond_atom_site_label_1
_geom_bond_atom_site_label_2
_geom_bond_distance
_geom_bond_site_symmetry_2
Li0 O10 1.855666 1_555
Li0 O11 1.876872 1_555
Li0 O3 1.913732 1_455
Li0 O5 1.923476 1_555
Li0 Tl3 2.440631 1_465
Ni0 O4 1.954958 1_556
Ni0 O6 1.955212 1_565
Ni0 O9 2.050326 1_555
Ni0 O7 2.079119 1_565
Ni0 O5 2.133461 1_556
Ni0 O1 2.154055 1_566
Ni1 O0 2.040534 1_565
Ni1 O7 2.070995 1_565
Ni1 O2 2.102214 1_565
Ni1 O3 2.102736 1_555
Ni1 O5 2.124264 1_555
Ni1 O11 2.169033 1_555
Ni2 O0 1.915135 1_555
Ni2 O2 1.933981 1_655
Ni2 O11 1.984769 1_655
Ni2 O3 1.999991 1_555
Ni2 O8 2.037651 1_555
Ni3 O9 1.911351 1_555
Ni3 O8 1.951707 1_455
Ni3 O1 1.970639 1_456
Ni3 O10 1.994446 1_556
Ni3 O4 2.125988 1_456
Ni3 O6 2.160543 1_555
O0 Tl3 2.326961 1_555
O0 Tl0 2.408567 1_555
O1 Tl0 2.220476 1_555
O1 Tl3 2.307735 1_555
O1 Tl2 2.706782 1_554
O2 Tl1 2.317894 1_545
O2 Tl2 2.359312 1_555
O3 Tl0 2.261928 1_555
O4 Tl3 2.249213 1_565
O4 Tl0 2.422945 1_555
O5 Tl3 2.266284 1_465
O5 Tl0 2.472449 1_555
O6 Tl1 2.279798 1_545
O6 Tl2 2.476963 1_555
O6 Tl3 2.545177 1_456
O7 Tl1 2.234430 1_645
O7 Tl2 2.360397 1_555
O8 Tl2 2.215984 1_555
O8 Tl1 2.356135 1_655
O9 Tl2 2.264861 1_555
O9 Tl1 2.444473 1_555
O10 Tl0 2.238580 1_555
O10 Tl3 2.257531 1_455
O11 Tl2 2.361498 1_555
O11 Tl1 2.410613 1_555
