# generated using pymatgen
data_Pr(Co5Mo)2
_symmetry_space_group_name_H-M   'P 1'
_cell_length_a   4.66839500
_cell_length_b   6.46344455
_cell_length_c   6.46344455
_cell_angle_alpha   97.29867750
_cell_angle_beta   111.17012531
_cell_angle_gamma   68.82987469
_symmetry_Int_Tables_number   1
_chemical_formula_structural   Pr(Co5Mo)2
_chemical_formula_sum   'Pr1 Co10 Mo2'
_cell_volume   169.59046967
_cell_formula_units_Z   1
loop_
 _symmetry_equiv_pos_site_id
 _symmetry_equiv_pos_as_xyz
  1  'x, y, z'
loop_
 _atom_site_type_symbol
 _atom_site_label
 _atom_site_symmetry_multiplicity
 _atom_site_fract_x
 _atom_site_fract_y
 _atom_site_fract_z
 _atom_site_occupancy
  Pr  Pr0  1  0.00000000  0.00000000  0.00000000  1
  Co  Co0  1  0.71885500  0.78114500  0.21885500  1
  Co  Co1  1  0.28114500  0.21885500  0.78114500  1
  Co  Co2  1  0.50000000  0.77211100  0.77211100  1
  Co  Co3  1  0.50000000  0.22788900  0.22788900  1
  Co  Co4  1  0.50000000  0.00000000  0.50000000  1
  Co  Co5  1  0.00000000  0.00000000  0.50000000  1
  Co  Co6  1  0.50000000  0.50000000  0.00000000  1
  Co  Co7  1  0.00000000  0.50000000  0.00000000  1
  Co  Co8  1  0.63843700  0.36156300  0.63843700  1
  Co  Co9  1  0.36156300  0.63843700  0.36156300  1
  Mo  Mo0  1  0.00000000  0.36007800  0.36007800  1
  Mo  Mo1  1  0.00000000  0.63992200  0.63992200  1
loop_
_geom_bond_atom_site_label_1
_geom_bond_atom_site_label_2
_geom_bond_distance
_geom_bond_site_symmetry_2
Co0 Co5 2.447636 1_665
Co0 Co7 2.447636 1_655
Co0 Co4 2.447636 1_565
Co0 Co6 2.447636 1_555
Co0 Co9 2.631044 1_655
Co0 Co9 2.631044 1_555
Co0 Mo1 2.673672 1_655
Co0 Mo0 2.673672 1_655
Co0 Co2 2.693396 1_554
Co0 Co3 2.693396 1_565
Co0 Pr0 2.985793 1_565
Co0 Pr0 2.985793 1_665
Co1 Co7 2.447636 1_556
Co1 Co5 2.447636 1_555
Co1 Co6 2.447636 1_556
Co1 Co4 2.447636 1_555
Co1 Co8 2.631044 1_455
Co1 Co8 2.631044 1_555
Co1 Mo0 2.673672 1_555
Co1 Mo1 2.673672 1_555
Co1 Co2 2.693396 1_545
Co1 Co3 2.693396 1_556
Co1 Pr0 2.985793 1_656
Co1 Pr0 2.985793 1_556
Co2 Co7 2.433328 1_656
Co2 Co5 2.433328 1_565
Co2 Co4 2.433328 1_565
Co2 Co6 2.433328 1_556
Co2 Mo1 2.592872 1_555
Co2 Mo1 2.592872 1_655
Co2 Co9 2.605309 1_555
Co2 Co8 2.605309 1_555
Co2 Pr0 3.039141 1_566
Co2 Pr0 3.039141 1_666
Co3 Co7 2.433328 1_555
Co3 Co5 2.433328 1_655
Co3 Co4 2.433328 1_555
Co3 Co6 2.433328 1_555
Co3 Mo0 2.592872 1_655
Co3 Mo0 2.592872 1_555
Co3 Co8 2.605309 1_555
Co3 Co9 2.605309 1_555
Co3 Pr0 3.039141 1_555
Co3 Pr0 3.039141 1_655
Co4 Co5 2.334198 1_655
Co4 Co5 2.334198 1_555
Co4 Mo0 2.601773 1_555
Co4 Mo1 2.601773 1_645
Co4 Co8 2.611799 1_555
Co4 Co9 2.611799 1_545
Co4 Pr0 3.231722 1_555
Co4 Pr0 3.231722 1_656
Co5 Mo1 2.601773 1_545
Co5 Mo0 2.601773 1_555
Co5 Co9 2.611799 1_545
Co5 Co8 2.611799 1_455
Co5 Pr0 3.231722 1_555
Co5 Pr0 3.231722 1_556
Co6 Co7 2.334198 1_555
Co6 Co7 2.334198 1_655
Co6 Mo1 2.601773 1_554
Co6 Mo0 2.601773 1_655
Co6 Co8 2.611799 1_554
Co6 Co9 2.611799 1_555
Co6 Pr0 3.231722 1_565
Co6 Pr0 3.231722 1_655
Co7 Mo1 2.601773 1_554
Co7 Mo0 2.601773 1_555
Co7 Co8 2.611799 1_454
Co7 Co9 2.611799 1_555
Co7 Pr0 3.231722 1_565
Co7 Pr0 3.231722 1_555
Co8 Co9 2.355430 1_555
Co8 Mo1 2.874626 1_555
Co8 Mo0 2.874626 1_555
Co8 Mo0 2.874626 1_655
Co8 Mo1 2.874626 1_655
Co8 Pr0 3.075899 1_656
Co9 Mo1 2.874626 1_655
Co9 Mo0 2.874626 1_655
Co9 Mo0 2.874626 1_555
Co9 Mo1 2.874626 1_555
Co9 Pr0 3.075899 1_565
Mo0 Mo1 2.389966 1_555
Mo0 Pr0 3.075193 1_555
Mo1 Pr0 3.075193 1_566
