# generated using pymatgen
data_La2BrClO2
_symmetry_space_group_name_H-M   'P 1'
_cell_length_a   4.14307900
_cell_length_b   4.14307900
_cell_length_c   7.30543800
_cell_angle_alpha   90.00000000
_cell_angle_beta   90.00000000
_cell_angle_gamma   90.00000000
_symmetry_Int_Tables_number   1
_chemical_formula_structural   La2BrClO2
_chemical_formula_sum   'La2 Br1 Cl1 O2'
_cell_volume   125.39860012
_cell_formula_units_Z   1
loop_
 _symmetry_equiv_pos_site_id
 _symmetry_equiv_pos_as_xyz
  1  'x, y, z'
loop_
 _atom_site_type_symbol
 _atom_site_label
 _atom_site_symmetry_multiplicity
 _atom_site_fract_x
 _atom_site_fract_y
 _atom_site_fract_z
 _atom_site_occupancy
  La  La0  1  0.00000000  0.00000000  0.16199400  1
  La  La1  1  0.50000000  0.50000000  0.83048200  1
  Br  Br0  1  0.50000000  0.50000000  0.37095200  1
  Cl  Cl0  1  0.00000000  0.00000000  0.64138600  1
  O  O0  1  0.50000000  0.00000000  0.99759300  1
  O  O1  1  0.00000000  0.50000000  0.99759300  1
loop_
_geom_bond_atom_site_label_1
_geom_bond_atom_site_label_2
_geom_bond_distance
_geom_bond_site_symmetry_2
La0 O0 2.394520 1_454
La0 O1 2.394520 1_554
La0 O1 2.394520 1_544
La0 O0 2.394520 1_554
La1 O0 2.404511 1_555
La1 O1 2.404511 1_555
La1 O0 2.404511 1_565
La1 O1 2.404511 1_655
Br0 La0 3.303460 1_555
Br0 La0 3.303460 1_655
Br0 La0 3.303460 1_565
Br0 La0 3.303460 1_665
Br0 La1 3.357068 1_555
Cl0 La1 3.238966 1_445
Cl0 La1 3.238966 1_455
Cl0 La1 3.238966 1_555
Cl0 La1 3.238966 1_545
Cl0 La0 3.502169 1_555
