# generated using pymatgen
data_Ce2Nb2S7O30
_symmetry_space_group_name_H-M   'P 1'
_cell_length_a   7.20443380
_cell_length_b   12.92405787
_cell_length_c   12.92405787
_cell_angle_alpha   90.00000000
_cell_angle_beta   90.00000000
_cell_angle_gamma   90.00000000
_symmetry_Int_Tables_number   1
_chemical_formula_structural   Ce2Nb2S7O30
_chemical_formula_sum   'Ce4 Nb4 S14 O60'
_cell_volume   1203.36574041
_cell_formula_units_Z   2
loop_
 _symmetry_equiv_pos_site_id
 _symmetry_equiv_pos_as_xyz
  1  'x, y, z'
loop_
 _atom_site_type_symbol
 _atom_site_label
 _atom_site_symmetry_multiplicity
 _atom_site_fract_x
 _atom_site_fract_y
 _atom_site_fract_z
 _atom_site_occupancy
  Ce  Ce0  1  0.58981567  0.79818142  0.29818142  1
  Ce  Ce1  1  0.41018433  0.70181858  0.79818142  1
  Ce  Ce2  1  0.58981567  0.20181858  0.70181858  1
  Ce  Ce3  1  0.41018433  0.29818142  0.20181858  1
  Nb  Nb0  1  0.98224116  0.63914619  0.13914619  1
  Nb  Nb1  1  0.01775884  0.86085381  0.63914619  1
  Nb  Nb2  1  0.98224116  0.36085381  0.86085381  1
  Nb  Nb3  1  0.01775884  0.13914619  0.36085381  1
  S  S0  1  0.34233501  0.50000000  -0.00000000  1
  S  S1  1  0.65766499  0.00000000  0.50000000  1
  S  S2  1  0.89525168  0.37711346  0.12288654  1
  S  S3  1  0.10474832  0.12288654  0.62288654  1
  S  S4  1  0.89525168  0.62288654  0.87711346  1
  S  S5  1  0.10474832  0.87711346  0.37711346  1
  S  S6  1  0.29336723  0.56611664  0.32610941  1
  S  S7  1  0.70663277  0.93388336  0.82610941  1
  S  S8  1  0.29336723  0.43388336  0.67389059  1
  S  S9  1  0.70663277  0.06611664  0.17389059  1
  S  S10  1  0.70663277  0.67389059  0.56611664  1
  S  S11  1  0.29336723  0.82610941  0.06611664  1
  S  S12  1  0.70663277  0.32610941  0.43388336  1
  S  S13  1  0.29336723  0.17389059  0.93388336  1
  O  O0  1  0.78531222  0.70121303  0.20121303  1
  O  O1  1  0.21468778  0.79878697  0.70121303  1
  O  O2  1  0.78531222  0.29878697  0.79878697  1
  O  O3  1  0.21468778  0.20121303  0.29878697  1
  O  O4  1  0.45903178  0.56684964  0.93315036  1
  O  O5  1  0.54096822  0.93315036  0.43315036  1
  O  O6  1  0.45903178  0.43315036  0.06684964  1
  O  O7  1  0.54096822  0.06684964  0.56684964  1
  O  O8  1  0.22284171  0.56604393  0.06604393  1
  O  O9  1  0.77715829  0.93395607  0.56604393  1
  O  O10  1  0.22284171  0.43395607  0.93395607  1
  O  O11  1  0.77715829  0.06604393  0.43395607  1
  O  O12  1  0.07634488  0.34195512  0.15804488  1
  O  O13  1  0.92365512  0.15804488  0.65804488  1
  O  O14  1  0.07634488  0.65804488  0.84195512  1
  O  O15  1  0.92365512  0.84195512  0.34195512  1
  O  O16  1  0.74113600  0.32462876  0.17537124  1
  O  O17  1  0.25886400  0.17537124  0.67537124  1
  O  O18  1  0.74113600  0.67537124  0.82462876  1
  O  O19  1  0.25886400  0.82462876  0.32462876  1
  O  O20  1  0.87337914  0.49101345  0.14174730  1
  O  O21  1  0.12662086  0.00898655  0.64174730  1
  O  O22  1  0.87337914  0.50898655  0.85825270  1
  O  O23  1  0.12662086  0.99101345  0.35825270  1
  O  O24  1  0.12662086  0.85825270  0.49101345  1
  O  O25  1  0.87337914  0.64174730  0.99101345  1
  O  O26  1  0.12662086  0.14174730  0.50898655  1
  O  O27  1  0.87337914  0.35825270  0.00898655  1
  O  O28  1  0.44989315  0.63383675  0.29177626  1
  O  O29  1  0.55010685  0.86616325  0.79177626  1
  O  O30  1  0.44989315  0.36616325  0.70822374  1
  O  O31  1  0.55010685  0.13383675  0.20822374  1
  O  O32  1  0.55010685  0.70822374  0.63383675  1
  O  O33  1  0.44989315  0.79177626  0.13383675  1
  O  O34  1  0.55010685  0.29177626  0.36616325  1
  O  O35  1  0.44989315  0.20822374  0.86616325  1
  O  O36  1  0.32915284  0.45952921  0.28785689  1
  O  O37  1  0.67084716  0.04047079  0.78785689  1
  O  O38  1  0.32915284  0.54047079  0.71214311  1
  O  O39  1  0.67084716  0.95952921  0.21214311  1
  O  O40  1  0.67084716  0.71214311  0.45952921  1
  O  O41  1  0.32915284  0.78785689  0.95952921  1
  O  O42  1  0.67084716  0.28785689  0.54047079  1
  O  O43  1  0.32915284  0.21214311  0.04047079  1
  O  O44  1  0.24786947  0.57598744  0.43294057  1
  O  O45  1  0.75213053  0.92401256  0.93294057  1
  O  O46  1  0.24786947  0.42401256  0.56705943  1
  O  O47  1  0.75213053  0.07598744  0.06705943  1
  O  O48  1  0.75213053  0.56705943  0.57598744  1
  O  O49  1  0.24786947  0.93294057  0.07598744  1
  O  O50  1  0.75213053  0.43294057  0.42401256  1
  O  O51  1  0.24786947  0.06705943  0.92401256  1
  O  O52  1  0.11967200  0.60646281  0.26519193  1
  O  O53  1  0.88032800  0.89353719  0.76519193  1
  O  O54  1  0.11967200  0.39353719  0.73480807  1
  O  O55  1  0.88032800  0.10646281  0.23480807  1
  O  O56  1  0.88032800  0.73480807  0.60646281  1
  O  O57  1  0.11967200  0.76519193  0.10646281  1
  O  O58  1  0.88032800  0.26519193  0.39353719  1
  O  O59  1  0.11967200  0.23480807  0.89353719  1
loop_
_geom_bond_atom_site_label_1
_geom_bond_atom_site_label_2
_geom_bond_distance
_geom_bond_site_symmetry_2
Ce0 O0 2.263814 1_555
Ce0 O33 2.352535 1_555
Ce0 O28 2.352535 1_555
Ce0 O19 2.432826 1_555
Ce0 O39 2.434258 1_555
Ce0 O40 2.434258 1_555
Ce0 O5 2.491854 1_555
Ce0 O15 2.534706 1_555
Ce1 O1 2.263814 1_555
Ce1 O32 2.352535 1_555
Ce1 O29 2.352535 1_555
Ce1 O18 2.432826 1_555
Ce1 O41 2.434258 1_555
Ce1 O38 2.434258 1_555
Ce1 O4 2.491854 1_555
Ce1 O14 2.534706 1_555
Ce2 O2 2.263814 1_555
Ce2 O30 2.352535 1_555
Ce2 O35 2.352535 1_555
Ce2 O17 2.432826 1_555
Ce2 O42 2.434258 1_555
Ce2 O37 2.434258 1_555
Ce2 O7 2.491854 1_555
Ce2 O13 2.534706 1_555
Ce3 O3 2.263814 1_555
Ce3 O31 2.352535 1_555
Ce3 O34 2.352535 1_555
Ce3 O16 2.432826 1_555
Ce3 O43 2.434258 1_555
Ce3 O36 2.434258 1_555
Ce3 O6 2.491854 1_555
Ce3 O12 2.534706 1_555
Nb0 O0 1.816533 1_555
Nb0 O52 1.952552 1_655
Nb0 O57 1.952552 1_655
Nb0 O20 2.069169 1_555
Nb0 O25 2.069169 1_554
Nb0 O8 2.188573 1_655
Nb1 O1 1.816533 1_555
Nb1 O56 1.952552 1_455
Nb1 O53 1.952552 1_455
Nb1 O21 2.069169 1_565
Nb1 O24 2.069169 1_555
Nb1 O9 2.188573 1_455
Nb2 O2 1.816533 1_555
Nb2 O59 1.952552 1_655
Nb2 O54 1.952552 1_655
Nb2 O27 2.069169 1_556
Nb2 O22 2.069169 1_555
Nb2 O10 2.188573 1_655
Nb3 O3 1.816533 1_555
Nb3 O55 1.952552 1_455
Nb3 O58 1.952552 1_455
Nb3 O23 2.069169 1_545
Nb3 O26 2.069169 1_555
Nb3 O11 2.188573 1_455
O4 S0 1.483144 1_556
O5 S1 1.483144 1_565
O6 S0 1.483144 1_555
O7 S1 1.483144 1_555
O8 S0 1.482643 1_555
O9 S1 1.482643 1_565
O10 S0 1.482643 1_556
O11 S1 1.482643 1_555
O12 S2 1.454342 1_455
O13 S3 1.454342 1_655
O14 S4 1.454342 1_455
O15 S5 1.454342 1_655
O16 S2 1.467319 1_555
O17 S3 1.467319 1_555
O18 S4 1.467319 1_555
O19 S5 1.467319 1_555
O20 S2 1.500393 1_555
O21 S3 1.500393 1_555
O22 S4 1.500393 1_555
O23 S5 1.500393 1_555
O24 S5 1.500393 1_555
O25 S4 1.500393 1_555
O26 S3 1.500393 1_555
O27 S2 1.500393 1_555
O28 S6 1.494845 1_555
O29 S7 1.494845 1_555
O30 S8 1.494845 1_555
O31 S9 1.494845 1_555
O32 S10 1.494845 1_555
O33 S11 1.494845 1_555
O34 S12 1.494845 1_555
O35 S13 1.494845 1_555
O36 S6 1.486102 1_555
O37 S7 1.486102 1_545
O38 S8 1.486102 1_555
O39 S9 1.486102 1_565
O40 S10 1.486102 1_555
O41 S11 1.486102 1_556
O42 S12 1.486102 1_555
O43 S13 1.486102 1_554
O44 S6 1.424791 1_555
O45 S7 1.424791 1_555
O46 S8 1.424791 1_555
O47 S9 1.424791 1_555
O48 S10 1.424791 1_555
O49 S11 1.424791 1_555
O50 S12 1.424791 1_555
O51 S13 1.424791 1_555
O52 S6 1.567699 1_555
O53 S7 1.567699 1_555
O54 S8 1.567699 1_555
O55 S9 1.567699 1_555
O56 S10 1.567699 1_555
O57 S11 1.567699 1_555
O58 S12 1.567699 1_555
O59 S13 1.567699 1_555
