# generated using pymatgen
data_Yb2Mn17
_symmetry_space_group_name_H-M   'P 1'
_cell_length_a   8.21511000
_cell_length_b   8.24308900
_cell_length_c   8.47835714
_cell_angle_alpha   60.91377394
_cell_angle_beta   90.00000000
_cell_angle_gamma   90.00000000
_symmetry_Int_Tables_number   1
_chemical_formula_structural   Yb2Mn17
_chemical_formula_sum   'Yb4 Mn34'
_cell_volume   501.73154559
_cell_formula_units_Z   2
loop_
 _symmetry_equiv_pos_site_id
 _symmetry_equiv_pos_as_xyz
  1  'x, y, z'
loop_
 _atom_site_type_symbol
 _atom_site_label
 _atom_site_symmetry_multiplicity
 _atom_site_fract_x
 _atom_site_fract_y
 _atom_site_fract_z
 _atom_site_occupancy
  Yb  Yb0  1  0.25000000  0.99562700  0.00874600  1
  Yb  Yb1  1  0.75000000  0.00437300  0.99125400  1
  Yb  Yb2  1  0.75000000  0.66461300  0.67077500  1
  Yb  Yb3  1  0.25000000  0.33538700  0.32922500  1
  Mn  Mn0  1  0.38836800  0.66582000  0.66836100  1
  Mn  Mn1  1  0.61163200  0.33418000  0.33163900  1
  Mn  Mn2  1  0.88836800  0.33418000  0.33163900  1
  Mn  Mn3  1  0.11163200  0.66582000  0.66836100  1
  Mn  Mn4  1  0.50000000  0.00000000  0.50000000  1
  Mn  Mn5  1  0.50000000  0.50000000  0.00000000  1
  Mn  Mn6  1  0.50000000  0.50000000  0.50000000  1
  Mn  Mn7  1  0.00000000  0.00000000  0.50000000  1
  Mn  Mn8  1  0.00000000  0.50000000  0.00000000  1
  Mn  Mn9  1  0.00000000  0.50000000  0.50000000  1
  Mn  Mn10  1  0.25000000  0.95258700  0.38328900  1
  Mn  Mn11  1  0.25000000  0.67880500  0.94568000  1
  Mn  Mn12  1  0.25000000  0.35642200  0.67313500  1
  Mn  Mn13  1  0.25000000  0.97044300  0.67313500  1
  Mn  Mn14  1  0.25000000  0.66412400  0.38328900  1
  Mn  Mn15  1  0.25000000  0.37551400  0.94568000  1
  Mn  Mn16  1  0.75000000  0.04741300  0.61671100  1
  Mn  Mn17  1  0.75000000  0.32119500  0.05432000  1
  Mn  Mn18  1  0.75000000  0.64357800  0.32686500  1
  Mn  Mn19  1  0.75000000  0.02955700  0.32686500  1
  Mn  Mn20  1  0.75000000  0.33587600  0.61671100  1
  Mn  Mn21  1  0.75000000  0.62448600  0.05432000  1
  Mn  Mn22  1  0.52679200  0.33899500  0.82629100  1
  Mn  Mn23  1  0.51716300  0.82890000  0.34219900  1
  Mn  Mn24  1  0.52679200  0.83471400  0.82629100  1
  Mn  Mn25  1  0.47320800  0.66100500  0.17370900  1
  Mn  Mn26  1  0.48283700  0.17110000  0.65780100  1
  Mn  Mn27  1  0.47320800  0.16528600  0.17370900  1
  Mn  Mn28  1  0.02679200  0.66100500  0.17370900  1
  Mn  Mn29  1  0.01716300  0.17110000  0.65780100  1
  Mn  Mn30  1  0.02679200  0.16528600  0.17370900  1
  Mn  Mn31  1  0.97320800  0.33899500  0.82629100  1
  Mn  Mn32  1  0.98283700  0.82890000  0.34219900  1
  Mn  Mn33  1  0.97320800  0.83471400  0.82629100  1
loop_
_geom_bond_atom_site_label_1
_geom_bond_atom_site_label_2
_geom_bond_distance
_geom_bond_site_symmetry_2
Mn0 Mn3 2.273417 1_555
Mn0 Mn4 2.577560 1_565
Mn0 Mn6 2.577566 1_555
Mn0 Mn24 2.614709 1_555
Mn0 Mn22 2.614715 1_555
Mn0 Mn5 2.622719 1_556
Mn0 Mn23 2.638061 1_555
Mn0 Mn11 2.660156 1_555
Mn0 Mn15 2.660164 1_555
Mn0 Mn10 2.677078 1_555
Mn0 Mn14 2.677081 1_555
Mn0 Mn13 2.774501 1_555
Mn0 Mn12 2.774508 1_555
Mn0 Yb2 2.970900 1_555
Mn1 Mn2 2.273417 1_555
Mn1 Mn4 2.577560 1_555
Mn1 Mn6 2.577566 1_555
Mn1 Mn27 2.614709 1_555
Mn1 Mn25 2.614715 1_555
Mn1 Mn5 2.622719 1_555
Mn1 Mn26 2.638061 1_555
Mn1 Mn17 2.660156 1_555
Mn1 Mn21 2.660164 1_555
Mn1 Mn16 2.677078 1_555
Mn1 Mn20 2.677081 1_555
Mn1 Mn19 2.774501 1_555
Mn1 Mn18 2.774508 1_555
Mn1 Yb3 2.970900 1_555
Mn2 Mn7 2.577560 1_655
Mn2 Mn9 2.577566 1_655
Mn2 Mn30 2.614709 1_655
Mn2 Mn28 2.614715 1_655
Mn2 Mn8 2.622719 1_655
Mn2 Mn29 2.638061 1_655
Mn2 Mn21 2.660164 1_555
Mn2 Mn20 2.677081 1_555
Mn2 Yb3 2.970900 1_655
Mn3 Mn7 2.577560 1_565
Mn3 Mn9 2.577566 1_555
Mn3 Mn33 2.614709 1_455
Mn3 Mn31 2.614715 1_455
Mn3 Mn8 2.622719 1_556
Mn3 Mn32 2.638061 1_455
Mn3 Yb2 2.970900 1_455
Mn4 Yb2 3.172656 1_545
Mn4 Yb3 3.172656 1_555
Mn5 Yb3 3.188741 1_555
Mn5 Yb2 3.188741 1_554
Mn6 Yb2 3.172661 1_555
Mn6 Yb3 3.172661 1_555
Mn7 Yb2 3.172656 1_445
Mn7 Yb3 3.172656 1_555
Mn8 Yb3 3.188741 1_555
Mn8 Yb2 3.188741 1_454
Mn9 Yb2 3.172661 1_455
Mn9 Yb3 3.172661 1_555
Mn10 Mn14 2.377826 1_555
Mn10 Mn4 2.392884 1_565
Mn10 Mn7 2.392884 1_565
Mn10 Mn23 2.514605 1_555
Mn10 Mn32 2.514605 1_455
Mn10 Mn13 2.532239 1_555
Mn10 Mn27 2.562188 1_565
Mn10 Mn30 2.562188 1_565
Mn10 Mn3 2.677078 1_555
Mn10 Yb3 2.959858 1_565
Mn10 Yb0 3.019003 1_555
Mn11 Mn13 2.391202 1_555
Mn11 Mn8 2.437732 1_556
Mn11 Mn5 2.437732 1_556
Mn11 Mn15 2.500055 1_555
Mn11 Mn33 2.565540 1_455
Mn11 Mn24 2.565540 1_555
Mn11 Mn25 2.616448 1_556
Mn11 Mn28 2.616448 1_556
Mn11 Mn3 2.660156 1_555
Mn11 Yb0 2.909290 1_556
Mn11 Yb3 3.104522 1_556
Mn12 Mn15 2.391197 1_555
Mn12 Mn9 2.466653 1_555
Mn12 Mn6 2.466653 1_555
Mn12 Mn29 2.490455 1_555
Mn12 Mn26 2.490455 1_555
Mn12 Mn14 2.532239 1_555
Mn12 Mn31 2.587649 1_455
Mn12 Mn22 2.587649 1_555
Mn12 Mn3 2.774508 1_555
Mn12 Yb0 2.951927 1_546
Mn12 Yb3 3.003907 1_555
Mn13 Mn7 2.466653 1_565
Mn13 Mn4 2.466653 1_565
Mn13 Mn29 2.490460 1_565
Mn13 Mn26 2.490460 1_565
Mn13 Mn24 2.587649 1_555
Mn13 Mn33 2.587649 1_455
Mn13 Mn3 2.774501 1_555
Mn13 Yb0 2.951926 1_556
Mn13 Yb3 3.003903 1_565
Mn14 Mn9 2.392884 1_555
Mn14 Mn6 2.392884 1_555
Mn14 Mn32 2.514601 1_455
Mn14 Mn23 2.514601 1_555
Mn14 Mn28 2.562188 1_555
Mn14 Mn25 2.562188 1_555
Mn14 Mn3 2.677081 1_555
Mn14 Yb3 2.959866 1_555
Mn14 Yb0 3.019003 1_555
Mn15 Mn8 2.437736 1_556
Mn15 Mn5 2.437736 1_556
Mn15 Mn31 2.565537 1_455
Mn15 Mn22 2.565537 1_555
Mn15 Mn30 2.616446 1_556
Mn15 Mn27 2.616446 1_556
Mn15 Mn3 2.660164 1_555
Mn15 Yb0 2.909282 1_546
Mn15 Yb3 3.104522 1_556
Mn16 Mn20 2.377826 1_555
Mn16 Mn4 2.392884 1_555
Mn16 Mn7 2.392884 1_655
Mn16 Mn26 2.514605 1_555
Mn16 Mn29 2.514605 1_655
Mn16 Mn19 2.532239 1_555
Mn16 Mn24 2.562188 1_545
Mn16 Mn33 2.562188 1_545
Mn16 Mn2 2.677078 1_555
Mn16 Yb2 2.959858 1_545
Mn16 Yb1 3.019003 1_555
Mn17 Mn19 2.391202 1_555
Mn17 Mn5 2.437732 1_555
Mn17 Mn8 2.437732 1_655
Mn17 Mn21 2.500055 1_555
Mn17 Mn30 2.565540 1_655
Mn17 Mn27 2.565540 1_555
Mn17 Mn31 2.616448 1_554
Mn17 Mn22 2.616448 1_554
Mn17 Mn2 2.660156 1_555
Mn17 Yb1 2.909290 1_554
Mn17 Yb2 3.104522 1_554
Mn18 Mn21 2.391197 1_555
Mn18 Mn6 2.466653 1_555
Mn18 Mn9 2.466653 1_655
Mn18 Mn32 2.490455 1_555
Mn18 Mn23 2.490455 1_555
Mn18 Mn20 2.532239 1_555
Mn18 Mn28 2.587649 1_655
Mn18 Mn25 2.587649 1_555
Mn18 Mn2 2.774508 1_555
Mn18 Yb1 2.951927 1_564
Mn18 Yb2 3.003907 1_555
Mn19 Mn7 2.466653 1_655
Mn19 Mn4 2.466653 1_555
Mn19 Mn23 2.490460 1_545
Mn19 Mn32 2.490460 1_545
Mn19 Mn30 2.587649 1_655
Mn19 Mn27 2.587649 1_555
Mn19 Mn2 2.774501 1_555
Mn19 Yb1 2.951926 1_554
Mn19 Yb2 3.003903 1_545
Mn20 Mn6 2.392884 1_555
Mn20 Mn9 2.392884 1_655
Mn20 Mn26 2.514601 1_555
Mn20 Mn29 2.514601 1_655
Mn20 Mn31 2.562188 1_555
Mn20 Mn22 2.562188 1_555
Mn20 Yb2 2.959866 1_555
Mn20 Yb1 3.019003 1_555
Mn21 Mn5 2.437736 1_555
Mn21 Mn8 2.437736 1_655
Mn21 Mn28 2.565537 1_655
Mn21 Mn25 2.565537 1_555
Mn21 Mn33 2.616446 1_554
Mn21 Mn24 2.616446 1_554
Mn21 Yb1 2.909282 1_564
Mn21 Yb2 3.104522 1_554
Mn22 Mn5 2.424721 1_556
Mn22 Mn6 2.427600 1_555
Mn22 Mn26 2.451246 1_555
Mn22 Mn27 2.611438 1_556
Mn22 Yb2 2.977318 1_555
Mn22 Yb1 3.029199 1_555
Mn22 Yb0 3.364192 1_546
Mn23 Mn6 2.373522 1_555
Mn23 Mn4 2.373529 1_565
Mn23 Mn25 2.451246 1_555
Mn23 Mn27 2.451253 1_565
Mn23 Yb2 3.096024 1_555
Mn23 Yb1 3.227969 1_564
Mn23 Yb0 3.304679 1_555
Mn24 Mn5 2.424722 1_556
Mn24 Mn4 2.427600 1_565
Mn24 Mn26 2.451253 1_565
Mn24 Mn25 2.611438 1_556
Mn24 Yb2 2.977312 1_555
Mn24 Yb1 3.029199 1_565
Mn24 Yb0 3.364192 1_556
Mn25 Mn5 2.424721 1_555
Mn25 Mn6 2.427600 1_555
Mn25 Yb3 2.977318 1_555
Mn25 Yb0 3.029199 1_555
Mn25 Yb1 3.364192 1_564
Mn26 Mn6 2.373522 1_555
Mn26 Mn4 2.373529 1_555
Mn26 Yb3 3.096024 1_555
Mn26 Yb0 3.227969 1_546
Mn26 Yb1 3.304679 1_555
Mn27 Mn5 2.424722 1_555
Mn27 Mn4 2.427600 1_555
Mn27 Yb3 2.977312 1_555
Mn27 Yb0 3.029199 1_545
Mn27 Yb1 3.364192 1_554
Mn28 Mn8 2.424721 1_555
Mn28 Mn9 2.427600 1_555
Mn28 Mn32 2.451246 1_455
Mn28 Mn33 2.611438 1_454
Mn28 Yb3 2.977318 1_555
Mn28 Yb0 3.029199 1_555
Mn28 Yb1 3.364192 1_464
Mn29 Mn9 2.373522 1_555
Mn29 Mn7 2.373529 1_555
Mn29 Mn31 2.451246 1_455
Mn29 Mn33 2.451253 1_445
Mn29 Yb3 3.096024 1_555
Mn29 Yb0 3.227969 1_546
Mn29 Yb1 3.304679 1_455
Mn30 Mn8 2.424722 1_555
Mn30 Mn7 2.427600 1_555
Mn30 Mn32 2.451253 1_445
Mn30 Mn31 2.611438 1_454
Mn30 Yb3 2.977312 1_555
Mn30 Yb0 3.029199 1_545
Mn30 Yb1 3.364192 1_454
Mn31 Mn8 2.424721 1_656
Mn31 Mn9 2.427600 1_655
Mn31 Yb2 2.977318 1_555
Mn31 Yb1 3.029199 1_555
Mn31 Yb0 3.364192 1_646
Mn32 Mn9 2.373522 1_655
Mn32 Mn7 2.373529 1_665
Mn32 Yb2 3.096024 1_555
Mn32 Yb1 3.227969 1_564
Mn32 Yb0 3.304679 1_655
Mn33 Mn8 2.424722 1_656
Mn33 Mn7 2.427600 1_665
Mn33 Yb2 2.977312 1_555
Mn33 Yb1 3.029199 1_565
Mn33 Yb0 3.364192 1_656
