# generated using pymatgen
data_Na2Ca2Al6Si9(H8O19)2
_symmetry_space_group_name_H-M   'P 1'
_cell_length_a   6.60419734
_cell_length_b   9.89639273
_cell_length_c   28.84802090
_cell_angle_alpha   87.81115258
_cell_angle_beta   83.42721154
_cell_angle_gamma   70.50850524
_symmetry_Int_Tables_number   1
_chemical_formula_structural   Na2Ca2Al6Si9(H8O19)2
_chemical_formula_sum   'Na4 Ca4 Al12 Si18 H32 O76'
_cell_volume   1765.70614352
_cell_formula_units_Z   2
loop_
 _symmetry_equiv_pos_site_id
 _symmetry_equiv_pos_as_xyz
  1  'x, y, z'
loop_
 _atom_site_type_symbol
 _atom_site_label
 _atom_site_symmetry_multiplicity
 _atom_site_fract_x
 _atom_site_fract_y
 _atom_site_fract_z
 _atom_site_occupancy
  Na  Na0  1  0.17448973  0.43313040  0.97797887  1
  Na  Na1  1  0.58559900  0.56686960  0.02202113  1
  Na  Na2  1  0.35762013  0.06686960  0.47797887  1
  Na  Na3  1  0.90246860  0.93313040  0.52202113  1
  Ca  Ca0  1  0.22851626  0.95485071  0.84552503  1
  Ca  Ca1  1  0.02889201  0.04514929  0.15447497  1
  Ca  Ca2  1  0.93336697  0.54514929  0.34552503  1
  Ca  Ca3  1  0.82404129  0.45485071  0.65447497  1
  Al  Al0  1  0.35360732  0.07484097  0.93961042  1
  Al  Al1  1  0.36805870  0.92515903  0.06038958  1
  Al  Al2  1  0.17844829  0.42515903  0.43961042  1
  Al  Al3  1  0.04321774  0.57484097  0.56038958  1
  Al  Al4  1  0.55200490  0.40206138  0.77578077  1
  Al  Al5  1  0.72984705  0.59793862  0.22421923  1
  Al  Al6  1  0.70406628  0.09793862  0.27578077  1
  Al  Al7  1  0.07778567  0.90206138  0.72421923  1
  Al  Al8  1  0.40694245  0.57314286  0.89545261  1
  Al  Al9  1  0.87553792  0.42685714  0.10454739  1
  Al  Al10  1  0.73008531  0.92685714  0.39545261  1
  Al  Al11  1  0.05239506  0.07314286  0.60454739  1
  Si  Si0  1  0.74856549  0.00000000  1.00000000  1
  Si  Si1  1  0.49856549  0.50000000  0.50000000  1
  Si  Si2  1  0.85313234  0.50948748  0.83620634  1
  Si  Si3  1  0.19882616  0.49051252  0.16379366  1
  Si  Si4  1  0.11261982  0.99051252  0.33620634  1
  Si  Si5  1  0.43933869  0.00948748  0.66379366  1
  Si  Si6  1  0.22994992  0.81092733  0.97095414  1
  Si  Si7  1  0.01183139  0.18907267  0.02904586  1
  Si  Si8  1  0.79087725  0.68907267  0.47095414  1
  Si  Si9  1  0.95090406  0.31092733  0.52904586  1
  Si  Si10  1  0.16163361  0.67428295  0.80583975  1
  Si  Si11  1  0.64175631  0.32571705  0.19416025  1
  Si  Si12  1  0.58591656  0.82571705  0.30583975  1
  Si  Si13  1  0.71747336  0.17428295  0.69416025  1
  Si  Si14  1  0.31535300  0.30497399  0.86065865  1
  Si  Si15  1  0.48098565  0.69502601  0.13934135  1
  Si  Si16  1  0.37032699  0.19502601  0.36065865  1
  Si  Si17  1  0.92601166  0.80497399  0.63934135  1
  H  H0  1  0.77722052  0.05686764  0.90064264  1
  H  H1  1  0.73473080  0.94313236  0.09935736  1
  H  H2  1  0.58408816  0.44313236  0.40064264  1
  H  H3  1  0.42786316  0.55686764  0.59935736  1
  H  H4  1  0.75864366  0.13172816  0.85118215  1
  H  H5  1  0.74155397  0.86827184  0.14881785  1
  H  H6  1  0.64037182  0.36827184  0.35118215  1
  H  H7  1  0.35982582  0.63172816  0.64881785  1
  H  H8  1  0.70783204  0.81061318  0.81232448  1
  H  H9  1  0.33076969  0.18938682  0.18767552  1
  H  H10  1  0.26844521  0.68938682  0.31232448  1
  H  H11  1  0.27015651  0.31061318  0.68767552  1
  H  H12  1  0.63812098  0.95841807  0.78599342  1
  H  H13  1  0.38253247  0.04158193  0.21400658  1
  H  H14  1  0.34653905  0.54158193  0.28599342  1
  H  H15  1  0.17411440  0.45841807  0.71400658  1
  H  H16  1  0.79044830  0.59120466  0.93224405  1
  H  H17  1  0.31389702  0.40879534  0.06775595  1
  H  H18  1  0.13165296  0.90879534  0.43224405  1
  H  H19  1  0.47269236  0.09120466  0.56775595  1
  H  H20  1  0.86234802  0.69569944  0.96256535  1
  H  H21  1  0.52061281  0.30430056  0.03743465  1
  H  H22  1  0.30804746  0.80430056  0.46256535  1
  H  H23  1  0.57491337  0.19569944  0.53743465  1
  H  H24  1  0.08462336  0.23413951  0.79205989  1
  H  H25  1  0.11082276  0.76586049  0.20794011  1
  H  H26  1  0.06876286  0.26586049  0.29205989  1
  H  H27  1  0.62668325  0.73413951  0.70794011  1
  H  H28  1  0.19508587  0.10760062  0.75435262  1
  H  H29  1  0.05703912  0.89239938  0.24564738  1
  H  H30  1  0.05268649  0.39239938  0.25435262  1
  H  H31  1  0.69943849  0.60760062  0.74564738  1
  O  O0  1  0.68807930  0.54375911  0.88430092  1
  O  O1  1  0.11613933  0.45624089  0.11569908  1
  O  O2  1  0.98183842  0.95624089  0.38430092  1
  O  O3  1  0.32238022  0.04375911  0.61569908  1
  O  O4  1  0.74009191  0.47699454  0.79300256  1
  O  O5  1  0.01008901  0.52300546  0.20699744  1
  O  O6  1  0.96708646  0.02300546  0.29300256  1
  O  O7  1  0.28309447  0.97699454  0.70699744  1
  O  O8  1  0.61848987  0.03670088  0.95400240  1
  O  O9  1  0.60919315  0.96329912  0.04599760  1
  O  O10  1  0.40519075  0.46329912  0.45400240  1
  O  O11  1  0.32249227  0.53670088  0.54599760  1
  O  O12  1  0.32607259  0.15014083  0.88387853  1
  O  O13  1  0.36009195  0.84985917  0.11612147  1
  O  O14  1  0.22621342  0.34985917  0.38387853  1
  O  O15  1  0.95995112  0.65014083  0.61612147  1
  O  O16  1  0.11507288  0.82977660  0.78052908  1
  O  O17  1  0.72537856  0.17022340  0.21947092  1
  O  O18  1  0.69484948  0.67022340  0.28052908  1
  O  O19  1  0.64560196  0.32977660  0.71947092  1
  O  O20  1  0.31336295  0.64718067  0.95163509  1
  O  O21  1  0.91217871  0.35281933  0.04836491  1
  O  O22  1  0.71054362  0.85281933  0.45163509  1
  O  O23  1  0.01499804  0.14718067  0.54836491  1
  O  O24  1  0.27323562  0.69272208  0.85251847  1
  O  O25  1  0.81847616  0.30727792  0.14748153  1
  O  O26  1  0.71595769  0.80727792  0.35251847  1
  O  O27  1  0.87575409  0.19272208  0.64748153  1
  O  O28  1  0.50771962  0.27832367  0.81782120  1
  O  O29  1  0.60386449  0.72167633  0.18217880  1
  O  O30  1  0.53604329  0.22167633  0.31782120  1
  O  O31  1  0.07554082  0.77832367  0.68217880  1
  O  O32  1  0.17921664  0.18714144  0.98300465  1
  O  O33  1  0.34936273  0.81285856  0.01699535  1
  O  O34  1  0.11635807  0.31285856  0.48300465  1
  O  O35  1  0.91222129  0.68714144  0.51699535  1
  O  O36  1  0.28227321  0.92022363  0.93058672  1
  O  O37  1  0.13308356  0.07977637  0.06941328  1
  O  O38  1  0.95249684  0.57977637  0.43058672  1
  O  O39  1  0.96285993  0.42022363  0.56941328  1
  O  O40  1  0.30365045  0.54044545  0.77286805  1
  O  O41  1  0.61696395  0.45955455  0.22713195  1
  O  O42  1  0.59409589  0.95955455  0.27286805  1
  O  O43  1  0.82651850  0.04044545  0.72713195  1
  O  O44  1  0.33913262  0.41484514  0.89905596  1
  O  O45  1  0.65303372  0.58515486  0.10094404  1
  O  O46  1  0.50397776  0.08515486  0.39905596  1
  O  O47  1  0.98818858  0.91484514  0.60094404  1
  O  O48  1  0.07238268  0.37343983  0.84233559  1
  O  O49  1  0.28815811  0.62656017  0.15766441  1
  O  O50  1  0.19582252  0.12656017  0.34233559  1
  O  O51  1  0.66471828  0.87343983  0.65766441  1
  O  O52  1  0.92329283  0.65402036  0.82324587  1
  O  O53  1  0.40055906  0.34597964  0.17675413  1
  O  O54  1  0.32731319  0.84597964  0.32324587  1
  O  O55  1  0.49653869  0.15402036  0.67675413  1
  O  O56  1  0.96561905  0.85998912  0.98582857  1
  O  O57  1  0.81143674  0.14001088  0.01417143  1
  O  O58  1  0.57560817  0.64001088  0.48582857  1
  O  O59  1  0.70144762  0.35998912  0.51417143  1
  O  O60  1  0.86164293  0.06675046  0.87079707  1
  O  O61  1  0.79919045  0.93324954  0.12920293  1
  O  O62  1  0.67839338  0.43324954  0.37079707  1
  O  O63  1  0.48244000  0.56675046  0.62920293  1
  O  O64  1  0.58062751  0.89252275  0.80497389  1
  O  O65  1  0.27812415  0.10747725  0.19502611  1
  O  O66  1  0.22315026  0.60747725  0.30497389  1
  O  O67  1  0.13560140  0.39252275  0.69502611  1
  O  O68  1  0.84069821  0.60246886  0.96277355  1
  O  O69  1  0.40594062  0.39753114  0.03722645  1
  O  O70  1  0.19316707  0.89753114  0.46277355  1
  O  O71  1  0.55347176  0.10246886  0.53722645  1
  O  O72  1  0.14334048  0.13065397  0.78752914  1
  O  O73  1  0.06152359  0.86934603  0.21247086  1
  O  O74  1  0.02399445  0.36934603  0.28752914  1
  O  O75  1  0.68086962  0.63065397  0.71247086  1
loop_
_geom_bond_atom_site_label_1
_geom_bond_atom_site_label_2
_geom_bond_distance
_geom_bond_site_symmetry_2
Na0 O68 2.358017 1_455
Na0 O69 2.361056 1_556
Na0 O44 2.394190 1_555
Na0 O32 2.423154 1_555
Na0 O20 2.630585 1_555
Na0 O21 2.783153 1_456
Na1 O69 2.358017 1_555
Na1 O68 2.361056 1_554
Na1 O45 2.394190 1_555
Na1 O33 2.423154 1_555
Na1 O21 2.630585 1_555
Na1 O20 2.783153 1_554
Na2 O70 2.358017 1_545
Na2 O71 2.361056 1_555
Na2 O46 2.394190 1_555
Na2 O34 2.423154 1_555
Na2 O22 2.630585 1_545
Na2 O23 2.783153 1_555
Na3 O71 2.358017 1_565
Na3 O70 2.361056 1_655
Na3 O47 2.394190 1_555
Na3 O35 2.423154 1_555
Na3 O23 2.630585 1_665
Na3 O22 2.783153 1_555
Ca0 O72 2.341483 1_565
Ca0 O60 2.344154 1_465
Ca0 O64 2.373109 1_555
Ca0 O36 2.513747 1_555
Ca0 O24 2.513925 1_555
Ca0 O12 2.555770 1_565
Ca0 O16 2.593603 1_555
Ca1 O73 2.341483 1_545
Ca1 O61 2.344154 1_445
Ca1 O65 2.373109 1_555
Ca1 O37 2.513747 1_555
Ca1 O25 2.513925 1_455
Ca1 O13 2.555770 1_545
Ca1 O17 2.593603 1_455
Ca2 O74 2.341483 1_655
Ca2 O62 2.344154 1_555
Ca2 O66 2.373109 1_655
Ca2 O38 2.513747 1_555
Ca2 O26 2.513925 1_555
Ca2 O14 2.555770 1_655
Ca2 O18 2.593603 1_555
Ca3 O75 2.341483 1_555
Ca3 O63 2.344154 1_555
Ca3 O67 2.373109 1_655
Ca3 O39 2.513747 1_555
Ca3 O27 2.513925 1_555
Ca3 O15 2.555770 1_555
Ca3 O19 2.593603 1_555
Al0 O32 1.746630 1_555
Al0 O12 1.748783 1_555
Al0 O8 1.757467 1_555
Al0 O36 1.780627 1_545
Al1 O33 1.746630 1_555
Al1 O13 1.748783 1_555
Al1 O9 1.757467 1_555
Al1 O37 1.780627 1_565
Al2 O34 1.746630 1_555
Al2 O14 1.748783 1_555
Al2 O10 1.757467 1_555
Al2 O38 1.780627 1_455
Al3 O35 1.746630 1_455
Al3 O15 1.748783 1_455
Al3 O11 1.757467 1_555
Al3 O39 1.780627 1_455
Al4 O19 1.759659 1_555
Al4 O40 1.759707 1_555
Al4 O28 1.760760 1_555
Al4 O4 1.767443 1_555
Al5 O18 1.759659 1_555
Al5 O41 1.759707 1_555
Al5 O29 1.760760 1_555
Al5 O5 1.767443 1_655
Al6 O17 1.759659 1_555
Al6 O42 1.759707 1_545
Al6 O30 1.760760 1_555
Al6 O6 1.767443 1_555
Al7 O16 1.759659 1_555
Al7 O43 1.759707 1_465
Al7 O31 1.760760 1_555
Al7 O7 1.767443 1_555
Al8 O20 1.762062 1_555
Al8 O44 1.763688 1_555
Al8 O0 1.773536 1_555
Al8 O24 1.776314 1_555
Al9 O21 1.762062 1_555
Al9 O45 1.763688 1_555
Al9 O1 1.773536 1_655
Al9 O25 1.776314 1_555
Al10 O22 1.762062 1_555
Al10 O46 1.763688 1_565
Al10 O2 1.773536 1_555
Al10 O26 1.776314 1_555
Al11 O23 1.762062 1_555
Al11 O47 1.763688 1_445
Al11 O3 1.773536 1_555
Al11 O27 1.776314 1_455
H0 O60 0.990847 1_555
H1 O61 0.990847 1_555
H2 O62 0.990847 1_555
H3 O63 0.990847 1_555
H4 O60 0.982254 1_555
H5 O61 0.982254 1_555
H6 O62 0.982254 1_555
H7 O63 0.982254 1_555
H8 O64 0.990457 1_555
H9 O65 0.990457 1_555
H10 O66 0.990457 1_555
H11 O67 0.990457 1_555
H12 O64 0.979601 1_555
H13 O65 0.979601 1_555
H14 O66 0.979601 1_555
H15 O67 0.979601 1_555
H16 O68 0.998657 1_555
H17 O69 0.998657 1_555
H18 O70 0.998657 1_555
H19 O71 0.998657 1_555
H20 O68 0.979372 1_555
H21 O69 0.979372 1_555
H22 O70 0.979372 1_555
H23 O71 0.979372 1_555
H24 O72 0.974630 1_555
H25 O73 0.974630 1_555
H26 O74 0.974630 1_555
H27 O75 0.974630 1_555
H28 O72 0.987221 1_555
H29 O73 0.987221 1_555
H30 O74 0.987221 1_555
H31 O75 0.987221 1_555
O0 Si2 1.634381 1_555
O1 Si3 1.634381 1_555
O2 Si4 1.634381 1_655
O3 Si5 1.634381 1_555
O4 Si2 1.617999 1_555
O5 Si3 1.617999 1_555
O6 Si4 1.617999 1_645
O7 Si5 1.617999 1_565
O8 Si0 1.626830 1_555
O9 Si0 1.626830 1_564
O10 Si1 1.626830 1_555
O11 Si1 1.626830 1_555
O12 Si14 1.631466 1_555
O13 Si15 1.631466 1_555
O14 Si16 1.631466 1_555
O15 Si17 1.631466 1_555
O16 Si10 1.626493 1_555
O17 Si11 1.626493 1_555
O18 Si12 1.626493 1_555
O19 Si13 1.626493 1_555
O20 Si6 1.625751 1_555
O21 Si7 1.625751 1_655
O22 Si8 1.625751 1_555
O23 Si9 1.625751 1_455
O24 Si10 1.650929 1_555
O25 Si11 1.650929 1_555
O26 Si12 1.650929 1_555
O27 Si13 1.650929 1_555
O28 Si14 1.628671 1_555
O29 Si15 1.628671 1_555
O30 Si16 1.628671 1_555
O31 Si17 1.628671 1_455
O32 Si7 1.624253 1_556
O33 Si6 1.624253 1_554
O34 Si9 1.624252 1_455
O35 Si8 1.624253 1_555
O36 Si6 1.645158 1_555
O37 Si7 1.645158 1_555
O38 Si8 1.645158 1_555
O39 Si9 1.645158 1_555
O40 Si10 1.612982 1_555
O41 Si11 1.612982 1_555
O42 Si12 1.612982 1_555
O43 Si13 1.612982 1_555
O44 Si14 1.636977 1_555
O45 Si15 1.636977 1_555
O46 Si16 1.636977 1_555
O47 Si17 1.636977 1_555
O48 Si2 1.637094 1_455
O48 Si14 1.659693 1_555
O49 Si3 1.637094 1_555
O49 Si15 1.659693 1_555
O50 Si4 1.637094 1_545
O50 Si16 1.659693 1_555
O51 Si5 1.637094 1_565
O51 Si17 1.659693 1_555
O52 Si2 1.661978 1_555
O52 Si10 1.670923 1_655
O53 Si3 1.661978 1_555
O53 Si11 1.670923 1_555
O54 Si4 1.661978 1_555
O54 Si12 1.670923 1_555
O55 Si5 1.661978 1_555
O55 Si13 1.670923 1_555
O56 Si0 1.650906 1_565
O56 Si6 1.657140 1_655
O57 Si0 1.650906 1_554
O57 Si7 1.657140 1_655
O58 Si1 1.650906 1_555
O58 Si8 1.657140 1_555
O59 Si1 1.650906 1_555
O59 Si9 1.657140 1_555
