# generated using pymatgen
data_Co10SnSb30
_symmetry_space_group_name_H-M   'P 1'
_cell_length_a   7.90683442
_cell_length_b   7.90683442
_cell_length_c   32.89140105
_cell_angle_alpha   80.81886285
_cell_angle_beta   80.81886285
_cell_angle_gamma   70.50229905
_symmetry_Int_Tables_number   1
_chemical_formula_structural   Co10SnSb30
_chemical_formula_sum   'Co20 Sn2 Sb60'
_cell_volume   1901.02776840
_cell_formula_units_Z   2
loop_
 _symmetry_equiv_pos_site_id
 _symmetry_equiv_pos_as_xyz
  1  'x, y, z'
loop_
 _atom_site_type_symbol
 _atom_site_label
 _atom_site_symmetry_multiplicity
 _atom_site_fract_x
 _atom_site_fract_y
 _atom_site_fract_z
 _atom_site_occupancy
  Co  Co0  1  0.00000000  0.50000000  0.00000000  1
  Co  Co1  1  0.39968500  0.90003800  0.20011400  1
  Co  Co2  1  0.80005200  0.30003200  0.39996900  1
  Co  Co3  1  0.19994800  0.69996800  0.60003100  1
  Co  Co4  1  0.60031500  0.09996200  0.79988600  1
  Co  Co5  1  0.19991600  0.70008500  0.10004800  1
  Co  Co6  1  0.60009300  0.09994900  0.29994900  1
  Co  Co7  1  0.00000000  0.50000000  0.50000000  1
  Co  Co8  1  0.39990700  0.90005100  0.70005100  1
  Co  Co9  1  0.80008400  0.29991500  0.89995200  1
  Co  Co10  1  0.29991500  0.80008400  0.89995200  1
  Co  Co11  1  0.70008500  0.19991600  0.10004800  1
  Co  Co12  1  0.09994900  0.60009300  0.29994900  1
  Co  Co13  1  0.50000000  0.00000000  0.50000000  1
  Co  Co14  1  0.90005100  0.39990700  0.70005100  1
  Co  Co15  1  0.50000000  0.00000000  0.00000000  1
  Co  Co16  1  0.90003800  0.39968500  0.20011400  1
  Co  Co17  1  0.30003200  0.80005200  0.39996900  1
  Co  Co18  1  0.69996800  0.19994800  0.60003100  1
  Co  Co19  1  0.09996200  0.60031500  0.79988600  1
  Sn  Sn0  1  0.29979900  0.29979900  0.90027800  1
  Sn  Sn1  1  0.70020100  0.70020100  0.09972200  1
  Sb  Sb0  1  0.05933100  0.74094500  0.03335600  1
  Sb  Sb1  1  0.45927100  0.14085800  0.23334600  1
  Sb  Sb2  1  0.85957300  0.54132400  0.43317600  1
  Sb  Sb3  1  0.25969400  0.94126900  0.63315400  1
  Sb  Sb4  1  0.66059400  0.34122300  0.83299800  1
  Sb  Sb5  1  0.94066900  0.25905500  0.96664400  1
  Sb  Sb6  1  0.33940600  0.65877700  0.16700200  1
  Sb  Sb7  1  0.74030600  0.05873100  0.36684600  1
  Sb  Sb8  1  0.14042700  0.45867600  0.56682400  1
  Sb  Sb9  1  0.54072900  0.85914200  0.76665400  1
  Sb  Sb10  1  0.74094500  0.05933100  0.03335600  1
  Sb  Sb11  1  0.14085800  0.45927100  0.23334600  1
  Sb  Sb12  1  0.54132400  0.85957300  0.43317600  1
  Sb  Sb13  1  0.94126900  0.25969400  0.63315400  1
  Sb  Sb14  1  0.34122300  0.66059400  0.83299800  1
  Sb  Sb15  1  0.25905500  0.94066900  0.96664400  1
  Sb  Sb16  1  0.65877700  0.33940600  0.16700200  1
  Sb  Sb17  1  0.05873100  0.74030600  0.36684600  1
  Sb  Sb18  1  0.45867600  0.14042700  0.56682400  1
  Sb  Sb19  1  0.85914200  0.54072900  0.76665400  1
  Sb  Sb20  1  0.03032000  0.69694900  0.93173700  1
  Sb  Sb21  1  0.43025700  0.09656100  0.13177900  1
  Sb  Sb22  1  0.82963900  0.49767800  0.33186100  1
  Sb  Sb23  1  0.22952100  0.89778500  0.53183900  1
  Sb  Sb24  1  0.62970700  0.29780600  0.73181000  1
  Sb  Sb25  1  0.96968000  0.30305200  0.06826300  1
  Sb  Sb26  1  0.37029300  0.70219400  0.26819000  1
  Sb  Sb27  1  0.77047900  0.10221500  0.46816100  1
  Sb  Sb28  1  0.17036100  0.50232200  0.66813900  1
  Sb  Sb29  1  0.56974300  0.90343900  0.86822100  1
  Sb  Sb30  1  0.30305200  0.96968000  0.06826300  1
  Sb  Sb31  1  0.70219400  0.37029300  0.26819000  1
  Sb  Sb32  1  0.10221500  0.77047900  0.46816100  1
  Sb  Sb33  1  0.50232200  0.17036100  0.66813900  1
  Sb  Sb34  1  0.90343900  0.56974300  0.86822100  1
  Sb  Sb35  1  0.69694900  0.03032000  0.93173700  1
  Sb  Sb36  1  0.09656100  0.43025700  0.13177900  1
  Sb  Sb37  1  0.49767800  0.82963900  0.33186100  1
  Sb  Sb38  1  0.89778500  0.22952100  0.53183900  1
  Sb  Sb39  1  0.29780600  0.62970700  0.73181000  1
  Sb  Sb40  1  0.47127200  0.47127200  0.06508800  1
  Sb  Sb41  1  0.87127600  0.87127600  0.26515900  1
  Sb  Sb42  1  0.27091100  0.27091100  0.46500200  1
  Sb  Sb43  1  0.67085600  0.67085600  0.66499500  1
  Sb  Sb44  1  0.07029200  0.07029200  0.86492300  1
  Sb  Sb45  1  0.52872800  0.52872800  0.93491200  1
  Sb  Sb46  1  0.92970800  0.92970800  0.13507700  1
  Sb  Sb47  1  0.32914400  0.32914400  0.33500500  1
  Sb  Sb48  1  0.72908900  0.72908900  0.53499800  1
  Sb  Sb49  1  0.12872400  0.12872400  0.73484100  1
  Sb  Sb50  1  0.66209000  0.66209000  0.00150600  1
  Sb  Sb51  1  0.06218300  0.06218300  0.20146700  1
  Sb  Sb52  1  0.46183800  0.46183800  0.40134300  1
  Sb  Sb53  1  0.86188400  0.86188400  0.60132400  1
  Sb  Sb54  1  0.26193400  0.26193400  0.80111500  1
  Sb  Sb55  1  0.33791000  0.33791000  0.99849400  1
  Sb  Sb56  1  0.73806600  0.73806600  0.19888500  1
  Sb  Sb57  1  0.13811600  0.13811600  0.39867600  1
  Sb  Sb58  1  0.53816200  0.53816200  0.59865700  1
  Sb  Sb59  1  0.93781700  0.93781700  0.79853300  1
loop_
_geom_bond_atom_site_label_1
_geom_bond_atom_site_label_2
_geom_bond_distance
_geom_bond_site_symmetry_2
Co0 Sb55 2.544746 1_554
Co0 Sb50 2.544746 1_455
Co0 Sb0 2.545789 1_555
Co0 Sb5 2.545789 1_454
Co0 Sb25 2.546638 1_455
Co0 Sb20 2.546642 1_554
Co1 Sb51 2.542325 1_565
Co1 Sb1 2.543573 1_565
Co1 Sb26 2.544330 1_555
Co1 Sb21 2.547089 1_565
Co1 Sb6 2.547122 1_555
Co1 Sb56 2.548509 1_555
Co2 Sb22 2.544588 1_555
Co2 Sb7 2.545482 1_555
Co2 Sb57 2.546086 1_655
Co2 Sb2 2.546120 1_555
Co2 Sb52 2.546808 1_555
Co2 Sb27 2.547374 1_555
Co3 Sb28 2.544588 1_555
Co3 Sb3 2.545482 1_555
Co3 Sb53 2.546086 1_455
Co3 Sb8 2.546120 1_555
Co3 Sb58 2.546808 1_555
Co3 Sb23 2.547374 1_555
Co4 Sb59 2.542325 1_545
Co4 Sb9 2.543573 1_545
Co4 Sb24 2.544330 1_555
Co4 Sb29 2.547089 1_545
Co4 Sb4 2.547122 1_555
Co4 Sb54 2.548509 1_555
Co5 Sb0 2.542454 1_555
Co5 Sb6 2.545179 1_555
Co5 Sb30 2.545400 1_555
Co5 Sb46 2.545792 1_455
Co5 Sb40 2.546411 1_555
Co5 Sb36 2.547544 1_555
Co6 Sb1 2.540722 1_555
Co6 Sb41 2.542723 1_545
Co6 Sb31 2.546052 1_555
Co6 Sb7 2.546604 1_555
Co6 Sb47 2.547576 1_555
Co6 Sb37 2.548276 1_545
Co7 Sb2 2.545180 1_455
Co7 Sb8 2.545180 1_555
Co7 Sb42 2.546172 1_555
Co7 Sb48 2.546172 1_455
Co7 Sb38 2.548065 1_455
Co7 Sb32 2.548065 1_555
Co8 Sb9 2.540722 1_555
Co8 Sb49 2.542723 1_565
Co8 Sb39 2.546052 1_555
Co8 Sb3 2.546604 1_555
Co8 Sb43 2.547576 1_555
Co8 Sb33 2.548276 1_565
Co9 Sb5 2.542454 1_555
Co9 Sb4 2.545179 1_555
Co9 Sb35 2.545395 1_555
Co9 Sb44 2.545792 1_655
Co9 Sb45 2.546411 1_555
Co9 Sb34 2.547544 1_555
Co10 Sb15 2.542454 1_555
Co10 Sb14 2.545179 1_555
Co10 Sb20 2.545395 1_555
Co10 Sb44 2.545792 1_565
Co10 Sb45 2.546411 1_555
Co10 Sb29 2.547544 1_555
Co11 Sb10 2.542454 1_555
Co11 Sb16 2.545179 1_555
Co11 Sb25 2.545400 1_555
Co11 Sb46 2.545792 1_545
Co11 Sb40 2.546411 1_555
Co11 Sb21 2.547544 1_555
Co12 Sb11 2.540722 1_555
Co12 Sb41 2.542723 1_455
Co12 Sb26 2.546052 1_555
Co12 Sb17 2.546604 1_555
Co12 Sb47 2.547576 1_555
Co12 Sb22 2.548276 1_455
Co13 Sb18 2.545180 1_555
Co13 Sb12 2.545180 1_545
Co13 Sb48 2.546172 1_545
Co13 Sb42 2.546172 1_555
Co13 Sb23 2.548065 1_545
Co13 Sb27 2.548065 1_555
Co14 Sb19 2.540722 1_555
Co14 Sb49 2.542723 1_655
Co14 Sb24 2.546052 1_555
Co14 Sb13 2.546604 1_555
Co14 Sb43 2.547576 1_555
Co14 Sb28 2.548276 1_655
Co15 Sb55 2.544746 1_554
Co15 Sb50 2.544746 1_545
Co15 Sb10 2.545789 1_555
Co15 Sb15 2.545789 1_544
Co15 Sb30 2.546638 1_545
Co15 Sb35 2.546642 1_554
Co16 Sb51 2.542325 1_655
Co16 Sb11 2.543573 1_655
Co16 Sb31 2.544330 1_555
Co16 Sb36 2.547089 1_655
Co16 Sb16 2.547122 1_555
Co16 Sb56 2.548509 1_555
Co17 Sb37 2.544588 1_555
Co17 Sb17 2.545482 1_555
Co17 Sb57 2.546086 1_565
Co17 Sb12 2.546120 1_555
Co17 Sb52 2.546808 1_555
Co17 Sb32 2.547374 1_555
Co18 Sb33 2.544588 1_555
Co18 Sb13 2.545482 1_555
Co18 Sb53 2.546086 1_545
Co18 Sb18 2.546120 1_555
Co18 Sb58 2.546808 1_555
Co18 Sb38 2.547374 1_555
Co19 Sb59 2.542325 1_455
Co19 Sb19 2.543573 1_455
Co19 Sb39 2.544330 1_555
Co19 Sb34 2.547089 1_455
Co19 Sb14 2.547122 1_555
Co19 Sb54 2.548509 1_555
Sb0 Sn1 3.367519 1_455
Sb4 Sn0 3.394173 1_555
Sb5 Sn0 3.367519 1_655
Sb6 Sn1 3.394173 1_555
Sb10 Sn1 3.367519 1_545
Sb14 Sn0 3.394173 1_555
Sb15 Sn0 3.367519 1_565
Sb16 Sn1 3.394173 1_555
Sb20 Sn0 3.367254 1_555
Sb21 Sn1 3.370486 1_545
Sb25 Sn1 3.367248 1_555
Sb29 Sn0 3.370486 1_565
Sb30 Sn1 3.367248 1_555
Sb34 Sn0 3.370486 1_655
Sb35 Sn0 3.367254 1_555
Sb36 Sn1 3.370486 1_455
Sb40 Sn1 3.369544 1_555
Sb44 Sn0 3.388716 1_555
Sb45 Sn0 3.369544 1_555
Sb46 Sn1 3.388716 1_555
Sb50 Sn1 3.361457 1_555
Sb54 Sn0 3.391229 1_555
Sb55 Sn0 3.361457 1_555
Sb56 Sn1 3.391229 1_555
