# generated using pymatgen
data_Th2Tl
_symmetry_space_group_name_H-M   'P 1'
_cell_length_a   6.32289038
_cell_length_b   6.32289038
_cell_length_c   6.32289038
_cell_angle_alpha   103.77605531
_cell_angle_beta   103.77605531
_cell_angle_gamma   121.58378400
_symmetry_Int_Tables_number   1
_chemical_formula_structural   Th2Tl
_chemical_formula_sum   'Th4 Tl2'
_cell_volume   187.95940282
_cell_formula_units_Z   2
loop_
 _symmetry_equiv_pos_site_id
 _symmetry_equiv_pos_as_xyz
  1  'x, y, z'
loop_
 _atom_site_type_symbol
 _atom_site_label
 _atom_site_symmetry_multiplicity
 _atom_site_fract_x
 _atom_site_fract_y
 _atom_site_fract_z
 _atom_site_occupancy
  Th  Th0  1  0.15189163  0.65189163  0.80378525  1
  Th  Th1  1  0.84810837  0.34810837  0.19621475  1
  Th  Th2  1  0.34810837  0.15189163  0.50000000  1
  Th  Th3  1  0.65189163  0.84810837  0.50000000  1
  Tl  Tl0  1  0.25000000  0.25000000  0.00000000  1
  Tl  Tl1  1  0.75000000  0.75000000  0.00000000  1
loop_
_geom_bond_atom_site_label_1
_geom_bond_atom_site_label_2
_geom_bond_distance
_geom_bond_site_symmetry_2
Th0 Tl1 3.341764 1_456
Th0 Tl0 3.341764 1_556
Th0 Tl0 3.341770 1_566
Th0 Tl1 3.341770 1_556
Th0 Th1 3.353154 1_455
Th1 Tl0 3.341764 1_655
Th1 Tl1 3.341764 1_555
Th1 Tl1 3.341770 1_545
Th1 Tl0 3.341770 1_555
Th2 Tl0 3.341771 1_555
Th2 Tl0 3.341771 1_556
Th2 Tl1 3.341771 1_556
Th2 Tl1 3.341771 1_445
Th2 Th3 3.353132 1_545
Th3 Tl1 3.341771 1_555
Th3 Tl0 3.341771 1_666
Th3 Tl1 3.341771 1_556
Th3 Tl0 3.341771 1_555
Tl0 Tl1 3.085464 1_445
Tl0 Tl1 3.085464 1_555
