# generated using pymatgen
data_Sr2CeSnO6
_symmetry_space_group_name_H-M   'P 1'
_cell_length_a   8.48341292
_cell_length_b   8.48341292
_cell_length_c   8.48341292
_cell_angle_alpha   90.00000000
_cell_angle_beta   90.00000000
_cell_angle_gamma   90.00000000
_symmetry_Int_Tables_number   1
_chemical_formula_structural   Sr2CeSnO6
_chemical_formula_sum   'Sr8 Ce4 Sn4 O24'
_cell_volume   610.53676169
_cell_formula_units_Z   4
loop_
 _symmetry_equiv_pos_site_id
 _symmetry_equiv_pos_as_xyz
  1  'x, y, z'
loop_
 _atom_site_type_symbol
 _atom_site_label
 _atom_site_symmetry_multiplicity
 _atom_site_fract_x
 _atom_site_fract_y
 _atom_site_fract_z
 _atom_site_occupancy
  Sr  Sr0  1  0.50000000  0.50000000  0.50000000  1
  Sr  Sr1  1  0.00000000  0.00000000  0.00000000  1
  Sr  Sr2  1  0.00000000  0.00000000  0.50000000  1
  Sr  Sr3  1  0.00000000  0.50000000  0.00000000  1
  Sr  Sr4  1  0.50000000  0.00000000  0.00000000  1
  Sr  Sr5  1  0.50000000  0.50000000  0.00000000  1
  Sr  Sr6  1  0.50000000  0.00000000  0.50000000  1
  Sr  Sr7  1  0.00000000  0.50000000  0.50000000  1
  Ce  Ce0  1  0.75000000  0.75000000  0.75000000  1
  Ce  Ce1  1  0.75000000  0.25000000  0.25000000  1
  Ce  Ce2  1  0.25000000  0.75000000  0.25000000  1
  Ce  Ce3  1  0.25000000  0.25000000  0.75000000  1
  Sn  Sn0  1  0.25000000  0.25000000  0.25000000  1
  Sn  Sn1  1  0.25000000  0.75000000  0.75000000  1
  Sn  Sn2  1  0.75000000  0.25000000  0.75000000  1
  Sn  Sn3  1  0.75000000  0.75000000  0.25000000  1
  O  O0  1  0.21743665  0.29024271  0.49174779  1
  O  O1  1  0.21743665  0.70975729  0.50825221  1
  O  O2  1  0.78256335  0.29024271  0.50825221  1
  O  O3  1  0.78256335  0.70975729  0.49174779  1
  O  O4  1  0.29024271  0.49174779  0.21743665  1
  O  O5  1  0.70975729  0.50825221  0.21743665  1
  O  O6  1  0.29024271  0.50825221  0.78256335  1
  O  O7  1  0.70975729  0.49174779  0.78256335  1
  O  O8  1  0.49174779  0.21743665  0.29024271  1
  O  O9  1  0.50825221  0.21743665  0.70975729  1
  O  O10  1  0.50825221  0.78256335  0.29024271  1
  O  O11  1  0.49174779  0.78256335  0.70975729  1
  O  O12  1  0.28256335  0.20975729  0.00825221  1
  O  O13  1  0.28256335  0.79024271  0.99174779  1
  O  O14  1  0.71743665  0.20975729  0.99174779  1
  O  O15  1  0.71743665  0.79024271  0.00825221  1
  O  O16  1  0.20975729  0.00825221  0.28256335  1
  O  O17  1  0.79024271  0.99174779  0.28256335  1
  O  O18  1  0.20975729  0.99174779  0.71743665  1
  O  O19  1  0.79024271  0.00825221  0.71743665  1
  O  O20  1  0.00825221  0.28256335  0.20975729  1
  O  O21  1  0.99174779  0.28256335  0.79024271  1
  O  O22  1  0.99174779  0.71743665  0.20975729  1
  O  O23  1  0.00825221  0.71743665  0.79024271  1
loop_
_geom_bond_atom_site_label_1
_geom_bond_atom_site_label_2
_geom_bond_distance
_geom_bond_site_symmetry_2
Ce0 O3 2.234442 1_555
Ce0 O19 2.234442 1_565
Ce0 O23 2.234442 1_655
Ce0 O11 2.234442 1_555
Ce0 O15 2.234442 1_556
Ce0 O7 2.234442 1_555
Ce1 O2 2.234442 1_555
Ce1 O14 2.234442 1_554
Ce1 O20 2.234442 1_655
Ce1 O8 2.234442 1_555
Ce1 O5 2.234442 1_555
Ce1 O17 2.234442 1_545
Ce2 O13 2.234442 1_554
Ce2 O10 2.234442 1_555
Ce2 O4 2.234442 1_555
Ce2 O1 2.234442 1_555
Ce2 O16 2.234442 1_565
Ce2 O22 2.234442 1_455
Ce3 O0 2.234442 1_555
Ce3 O18 2.234442 1_545
Ce3 O21 2.234442 1_455
Ce3 O12 2.234442 1_556
Ce3 O6 2.234442 1_555
Ce3 O9 2.234442 1_555
O0 Sn0 2.097340 1_555
O0 Sr7 2.563969 1_555
O0 Sr0 2.986213 1_555
O0 Sr2 3.077359 1_555
O1 Sn1 2.097340 1_555
O1 Sr7 2.563969 1_555
O1 Sr0 2.986213 1_555
O1 Sr2 3.077359 1_565
O2 Sn2 2.097340 1_555
O2 Sr7 2.563969 1_655
O2 Sr0 2.986213 1_555
O2 Sr2 3.077359 1_655
O3 Sn3 2.097340 1_555
O3 Sr7 2.563969 1_655
O3 Sr0 2.986213 1_555
O3 Sr2 3.077359 1_665
O4 Sn0 2.097340 1_555
O4 Sr5 2.563969 1_555
O4 Sr0 2.986213 1_555
O4 Sr3 3.077359 1_555
O5 Sn3 2.097340 1_555
O5 Sr5 2.563969 1_555
O5 Sr0 2.986213 1_555
O5 Sr3 3.077359 1_655
O6 Sn1 2.097340 1_555
O6 Sr5 2.563969 1_556
O6 Sr0 2.986213 1_555
O6 Sr3 3.077359 1_556
O7 Sn2 2.097340 1_555
O7 Sr5 2.563969 1_556
O7 Sr0 2.986213 1_555
O7 Sr3 3.077359 1_656
O8 Sn0 2.097340 1_555
O8 Sr6 2.563969 1_555
O8 Sr0 2.986213 1_555
O8 Sr4 3.077359 1_555
O9 Sn2 2.097340 1_555
O9 Sr6 2.563969 1_555
O9 Sr0 2.986213 1_555
O9 Sr4 3.077359 1_556
O10 Sn3 2.097340 1_555
O10 Sr6 2.563969 1_565
O10 Sr0 2.986213 1_555
O10 Sr4 3.077359 1_565
O11 Sn1 2.097340 1_555
O11 Sr6 2.563969 1_565
O11 Sr0 2.986213 1_555
O11 Sr4 3.077359 1_566
O12 Sn0 2.097340 1_555
O12 Sr4 2.563969 1_555
O12 Sr1 2.986213 1_555
O12 Sr5 3.077359 1_555
O13 Sn1 2.097340 1_555
O13 Sr4 2.563969 1_566
O13 Sr1 2.986213 1_566
O13 Sr5 3.077359 1_556
O14 Sn2 2.097340 1_555
O14 Sr4 2.563969 1_556
O14 Sr1 2.986213 1_656
O14 Sr5 3.077359 1_556
O15 Sn3 2.097340 1_555
O15 Sr4 2.563969 1_565
O15 Sr1 2.986213 1_665
O15 Sr5 3.077359 1_555
O16 Sn0 2.097340 1_555
O16 Sr2 2.563969 1_555
O16 Sr1 2.986213 1_555
O16 Sr6 3.077359 1_555
O17 Sn3 2.097340 1_555
O17 Sr2 2.563969 1_665
O17 Sr1 2.986213 1_665
O17 Sr6 3.077359 1_565
O18 Sn1 2.097340 1_555
O18 Sr2 2.563969 1_565
O18 Sr1 2.986213 1_566
O18 Sr6 3.077359 1_565
O19 Sn2 2.097340 1_555
O19 Sr2 2.563969 1_655
O19 Sr1 2.986213 1_656
O19 Sr6 3.077359 1_555
O20 Sn0 2.097340 1_555
O20 Sr3 2.563969 1_555
O20 Sr1 2.986213 1_555
O20 Sr7 3.077359 1_555
O21 Sn2 2.097340 1_555
O21 Sr3 2.563969 1_656
O21 Sr1 2.986213 1_656
O21 Sr7 3.077359 1_655
O22 Sn3 2.097340 1_555
O22 Sr3 2.563969 1_655
O22 Sr1 2.986213 1_665
O22 Sr7 3.077359 1_655
O23 Sn1 2.097340 1_555
O23 Sr3 2.563969 1_556
O23 Sr1 2.986213 1_566
O23 Sr7 3.077359 1_555
