# generated using pymatgen
data_W
_symmetry_space_group_name_H-M   'P 1'
_cell_length_a   5.26688600
_cell_length_b   18.79781054
_cell_length_c   40.35075030
_cell_angle_alpha   115.11710070
_cell_angle_beta   90.00000000
_cell_angle_gamma   90.00000000
_symmetry_Int_Tables_number   1
_chemical_formula_structural   W
_chemical_formula_sum   W200
_cell_volume   3617.20821987
_cell_formula_units_Z   200
loop_
 _symmetry_equiv_pos_site_id
 _symmetry_equiv_pos_as_xyz
  1  'x, y, z'
loop_
 _atom_site_type_symbol
 _atom_site_label
 _atom_site_symmetry_multiplicity
 _atom_site_fract_x
 _atom_site_fract_y
 _atom_site_fract_z
 _atom_site_occupancy
  W  W0_0  1  0.25000000  0.25000000  0.00000000  1
  W  W0_1  1  0.25000000  0.25000000  0.50000000  1
  W  W0_2  1  0.25000000  0.75000000  0.00000000  1
  W  W0_3  1  0.25000000  0.75000000  0.50000000  1
  W  W0_4  1  0.75000000  0.25000000  0.00000000  1
  W  W0_5  1  0.75000000  0.25000000  0.50000000  1
  W  W0_6  1  0.75000000  0.75000000  0.00000000  1
  W  W0_7  1  0.75000000  0.75000000  0.50000000  1
  W  W1_0  1  0.25000000  0.43805050  0.46048850  1
  W  W1_1  1  0.25000000  0.43805050  0.96048850  1
  W  W1_2  1  0.25000000  0.93805050  0.46048850  1
  W  W1_3  1  0.25000000  0.93805050  0.96048850  1
  W  W1_4  1  0.75000000  0.43805050  0.46048850  1
  W  W1_5  1  0.75000000  0.43805050  0.96048850  1
  W  W1_6  1  0.75000000  0.93805050  0.46048850  1
  W  W1_7  1  0.75000000  0.93805050  0.96048850  1
  W  W2_0  1  0.25000000  0.06194950  0.03951150  1
  W  W2_1  1  0.25000000  0.06194950  0.53951150  1
  W  W2_2  1  0.25000000  0.56194950  0.03951150  1
  W  W2_3  1  0.25000000  0.56194950  0.53951150  1
  W  W2_4  1  0.75000000  0.06194950  0.03951150  1
  W  W2_5  1  0.75000000  0.06194950  0.53951150  1
  W  W2_6  1  0.75000000  0.56194950  0.03951150  1
  W  W2_7  1  0.75000000  0.56194950  0.53951150  1
  W  W3_0  1  0.25000000  0.30585350  0.19589450  1
  W  W3_1  1  0.25000000  0.30585350  0.69589450  1
  W  W3_2  1  0.25000000  0.80585350  0.19589450  1
  W  W3_3  1  0.25000000  0.80585350  0.69589450  1
  W  W3_4  1  0.75000000  0.30585350  0.19589450  1
  W  W3_5  1  0.75000000  0.30585350  0.69589450  1
  W  W3_6  1  0.75000000  0.80585350  0.19589450  1
  W  W3_7  1  0.75000000  0.80585350  0.69589450  1
  W  W4_0  1  0.25000000  0.19414650  0.30410550  1
  W  W4_1  1  0.25000000  0.19414650  0.80410550  1
  W  W4_2  1  0.25000000  0.69414650  0.30410550  1
  W  W4_3  1  0.25000000  0.69414650  0.80410550  1
  W  W4_4  1  0.75000000  0.19414650  0.30410550  1
  W  W4_5  1  0.75000000  0.19414650  0.80410550  1
  W  W4_6  1  0.75000000  0.69414650  0.30410550  1
  W  W4_7  1  0.75000000  0.69414650  0.80410550  1
  W  W5_0  1  0.25000000  0.47058350  0.40156050  1
  W  W5_1  1  0.25000000  0.47058350  0.90156050  1
  W  W5_2  1  0.25000000  0.97058350  0.40156050  1
  W  W5_3  1  0.25000000  0.97058350  0.90156050  1
  W  W5_4  1  0.75000000  0.47058350  0.40156050  1
  W  W5_5  1  0.75000000  0.47058350  0.90156050  1
  W  W5_6  1  0.75000000  0.97058350  0.40156050  1
  W  W5_7  1  0.75000000  0.97058350  0.90156050  1
  W  W6_0  1  0.25000000  0.02941650  0.09843950  1
  W  W6_1  1  0.25000000  0.02941650  0.59843950  1
  W  W6_2  1  0.25000000  0.52941650  0.09843950  1
  W  W6_3  1  0.25000000  0.52941650  0.59843950  1
  W  W6_4  1  0.75000000  0.02941650  0.09843950  1
  W  W6_5  1  0.75000000  0.02941650  0.59843950  1
  W  W6_6  1  0.75000000  0.52941650  0.09843950  1
  W  W6_7  1  0.75000000  0.52941650  0.59843950  1
  W  W7_0  1  0.25000000  0.31503050  0.38218650  1
  W  W7_1  1  0.25000000  0.31503050  0.88218650  1
  W  W7_2  1  0.25000000  0.81503050  0.38218650  1
  W  W7_3  1  0.25000000  0.81503050  0.88218650  1
  W  W7_4  1  0.75000000  0.31503050  0.38218650  1
  W  W7_5  1  0.75000000  0.31503050  0.88218650  1
  W  W7_6  1  0.75000000  0.81503050  0.38218650  1
  W  W7_7  1  0.75000000  0.81503050  0.88218650  1
  W  W8_0  1  0.25000000  0.18496950  0.11781350  1
  W  W8_1  1  0.25000000  0.18496950  0.61781350  1
  W  W8_2  1  0.25000000  0.68496950  0.11781350  1
  W  W8_3  1  0.25000000  0.68496950  0.61781350  1
  W  W8_4  1  0.75000000  0.18496950  0.11781350  1
  W  W8_5  1  0.75000000  0.18496950  0.61781350  1
  W  W8_6  1  0.75000000  0.68496950  0.11781350  1
  W  W8_7  1  0.75000000  0.68496950  0.61781350  1
  W  W9_0  1  0.25000000  0.28258300  0.44134800  1
  W  W9_1  1  0.25000000  0.28258300  0.94134800  1
  W  W9_2  1  0.25000000  0.78258300  0.44134800  1
  W  W9_3  1  0.25000000  0.78258300  0.94134800  1
  W  W9_4  1  0.75000000  0.28258300  0.44134800  1
  W  W9_5  1  0.75000000  0.28258300  0.94134800  1
  W  W9_6  1  0.75000000  0.78258300  0.44134800  1
  W  W9_7  1  0.75000000  0.78258300  0.94134800  1
  W  W10_0  1  0.25000000  0.21741700  0.05865200  1
  W  W10_1  1  0.25000000  0.21741700  0.55865200  1
  W  W10_2  1  0.25000000  0.71741700  0.05865200  1
  W  W10_3  1  0.25000000  0.71741700  0.55865200  1
  W  W10_4  1  0.75000000  0.21741700  0.05865200  1
  W  W10_5  1  0.75000000  0.21741700  0.55865200  1
  W  W10_6  1  0.75000000  0.71741700  0.05865200  1
  W  W10_7  1  0.75000000  0.71741700  0.55865200  1
  W  W11_0  1  0.25000000  0.46072450  0.21400350  1
  W  W11_1  1  0.25000000  0.46072450  0.71400350  1
  W  W11_2  1  0.25000000  0.96072450  0.21400350  1
  W  W11_3  1  0.25000000  0.96072450  0.71400350  1
  W  W11_4  1  0.75000000  0.46072450  0.21400350  1
  W  W11_5  1  0.75000000  0.46072450  0.71400350  1
  W  W11_6  1  0.75000000  0.96072450  0.21400350  1
  W  W11_7  1  0.75000000  0.96072450  0.71400350  1
  W  W12_0  1  0.25000000  0.03927550  0.28599650  1
  W  W12_1  1  0.25000000  0.03927550  0.78599650  1
  W  W12_2  1  0.25000000  0.53927550  0.28599650  1
  W  W12_3  1  0.25000000  0.53927550  0.78599650  1
  W  W12_4  1  0.75000000  0.03927550  0.28599650  1
  W  W12_5  1  0.75000000  0.03927550  0.78599650  1
  W  W12_6  1  0.75000000  0.53927550  0.28599650  1
  W  W12_7  1  0.75000000  0.53927550  0.78599650  1
  W  W13_0  1  0.25000000  0.49550050  0.15598300  1
  W  W13_1  1  0.25000000  0.49550050  0.65598300  1
  W  W13_2  1  0.25000000  0.99550050  0.15598300  1
  W  W13_3  1  0.25000000  0.99550050  0.65598300  1
  W  W13_4  1  0.75000000  0.49550050  0.15598300  1
  W  W13_5  1  0.75000000  0.49550050  0.65598300  1
  W  W13_6  1  0.75000000  0.99550050  0.15598300  1
  W  W13_7  1  0.75000000  0.99550050  0.65598300  1
  W  W14_0  1  0.25000000  0.00449950  0.34401700  1
  W  W14_1  1  0.25000000  0.00449950  0.84401700  1
  W  W14_2  1  0.25000000  0.50449950  0.34401700  1
  W  W14_3  1  0.25000000  0.50449950  0.84401700  1
  W  W14_4  1  0.75000000  0.00449950  0.34401700  1
  W  W14_5  1  0.75000000  0.00449950  0.84401700  1
  W  W14_6  1  0.75000000  0.50449950  0.34401700  1
  W  W14_7  1  0.75000000  0.50449950  0.84401700  1
  W  W15_0  1  0.25000000  0.40654250  0.01960650  1
  W  W15_1  1  0.25000000  0.40654250  0.51960650  1
  W  W15_2  1  0.25000000  0.90654250  0.01960650  1
  W  W15_3  1  0.25000000  0.90654250  0.51960650  1
  W  W15_4  1  0.75000000  0.40654250  0.01960650  1
  W  W15_5  1  0.75000000  0.40654250  0.51960650  1
  W  W15_6  1  0.75000000  0.90654250  0.01960650  1
  W  W15_7  1  0.75000000  0.90654250  0.51960650  1
  W  W16_0  1  0.25000000  0.09345750  0.48039350  1
  W  W16_1  1  0.25000000  0.09345750  0.98039350  1
  W  W16_2  1  0.25000000  0.59345750  0.48039350  1
  W  W16_3  1  0.25000000  0.59345750  0.98039350  1
  W  W16_4  1  0.75000000  0.09345750  0.48039350  1
  W  W16_5  1  0.75000000  0.09345750  0.98039350  1
  W  W16_6  1  0.75000000  0.59345750  0.48039350  1
  W  W16_7  1  0.75000000  0.59345750  0.98039350  1
  W  W17_0  1  0.25000000  0.38428900  0.26711750  1
  W  W17_1  1  0.25000000  0.38428900  0.76711750  1
  W  W17_2  1  0.25000000  0.88428900  0.26711750  1
  W  W17_3  1  0.25000000  0.88428900  0.76711750  1
  W  W17_4  1  0.75000000  0.38428900  0.26711750  1
  W  W17_5  1  0.75000000  0.38428900  0.76711750  1
  W  W17_6  1  0.75000000  0.88428900  0.26711750  1
  W  W17_7  1  0.75000000  0.88428900  0.76711750  1
  W  W18_0  1  0.25000000  0.11571100  0.23288250  1
  W  W18_1  1  0.25000000  0.11571100  0.73288250  1
  W  W18_2  1  0.25000000  0.61571100  0.23288250  1
  W  W18_3  1  0.25000000  0.61571100  0.73288250  1
  W  W18_4  1  0.75000000  0.11571100  0.23288250  1
  W  W18_5  1  0.75000000  0.11571100  0.73288250  1
  W  W18_6  1  0.75000000  0.61571100  0.23288250  1
  W  W18_7  1  0.75000000  0.61571100  0.73288250  1
  W  W19_0  1  0.25000000  0.34743550  0.32332850  1
  W  W19_1  1  0.25000000  0.34743550  0.82332850  1
  W  W19_2  1  0.25000000  0.84743550  0.32332850  1
  W  W19_3  1  0.25000000  0.84743550  0.82332850  1
  W  W19_4  1  0.75000000  0.34743550  0.32332850  1
  W  W19_5  1  0.75000000  0.34743550  0.82332850  1
  W  W19_6  1  0.75000000  0.84743550  0.32332850  1
  W  W19_7  1  0.75000000  0.84743550  0.82332850  1
  W  W20_0  1  0.25000000  0.15256450  0.17667150  1
  W  W20_1  1  0.25000000  0.15256450  0.67667150  1
  W  W20_2  1  0.25000000  0.65256450  0.17667150  1
  W  W20_3  1  0.25000000  0.65256450  0.67667150  1
  W  W20_4  1  0.75000000  0.15256450  0.17667150  1
  W  W20_5  1  0.75000000  0.15256450  0.67667150  1
  W  W20_6  1  0.75000000  0.65256450  0.17667150  1
  W  W20_7  1  0.75000000  0.65256450  0.67667150  1
  W  W21_0  1  0.25000000  0.37306050  0.07790800  1
  W  W21_1  1  0.25000000  0.37306050  0.57790800  1
  W  W21_2  1  0.25000000  0.87306050  0.07790800  1
  W  W21_3  1  0.25000000  0.87306050  0.57790800  1
  W  W21_4  1  0.75000000  0.37306050  0.07790800  1
  W  W21_5  1  0.75000000  0.37306050  0.57790800  1
  W  W21_6  1  0.75000000  0.87306050  0.07790800  1
  W  W21_7  1  0.75000000  0.87306050  0.57790800  1
  W  W22_0  1  0.25000000  0.12693950  0.42209200  1
  W  W22_1  1  0.25000000  0.12693950  0.92209200  1
  W  W22_2  1  0.25000000  0.62693950  0.42209200  1
  W  W22_3  1  0.25000000  0.62693950  0.92209200  1
  W  W22_4  1  0.75000000  0.12693950  0.42209200  1
  W  W22_5  1  0.75000000  0.12693950  0.92209200  1
  W  W22_6  1  0.75000000  0.62693950  0.42209200  1
  W  W22_7  1  0.75000000  0.62693950  0.92209200  1
  W  W23_0  1  0.25000000  0.33944150  0.13663350  1
  W  W23_1  1  0.25000000  0.33944150  0.63663350  1
  W  W23_2  1  0.25000000  0.83944150  0.13663350  1
  W  W23_3  1  0.25000000  0.83944150  0.63663350  1
  W  W23_4  1  0.75000000  0.33944150  0.13663350  1
  W  W23_5  1  0.75000000  0.33944150  0.63663350  1
  W  W23_6  1  0.75000000  0.83944150  0.13663350  1
  W  W23_7  1  0.75000000  0.83944150  0.63663350  1
  W  W24_0  1  0.25000000  0.16055850  0.36336650  1
  W  W24_1  1  0.25000000  0.16055850  0.86336650  1
  W  W24_2  1  0.25000000  0.66055850  0.36336650  1
  W  W24_3  1  0.25000000  0.66055850  0.86336650  1
  W  W24_4  1  0.75000000  0.16055850  0.36336650  1
  W  W24_5  1  0.75000000  0.16055850  0.86336650  1
  W  W24_6  1  0.75000000  0.66055850  0.36336650  1
  W  W24_7  1  0.75000000  0.66055850  0.86336650  1
loop_
_geom_bond_atom_site_label_1
_geom_bond_atom_site_label_2
_geom_bond_distance
_geom_bond_site_symmetry_2
W0_0 W0_4 2.633443 1_455
W0_0 W0_4 2.633443 1_555
W0_0 W9_1 2.684542 1_554
W0_0 W10_0 2.684542 1_555
W0_0 W16_1 2.703471 1_554
W0_0 W15_0 2.703471 1_555
W0_0 W22_1 3.010009 1_554
W0_0 W21_0 3.010009 1_555
W0_1 W0_5 2.633443 1_455
W0_1 W0_5 2.633443 1_555
W0_1 W9_0 2.684542 1_555
W0_1 W10_1 2.684542 1_555
W0_1 W16_0 2.703471 1_555
W0_1 W15_1 2.703471 1_555
W0_1 W22_0 3.010009 1_555
W0_1 W21_1 3.010009 1_555
W0_2 W0_6 2.633443 1_555
W0_2 W0_6 2.633443 1_455
W0_2 W9_3 2.684542 1_554
W0_2 W10_2 2.684542 1_555
W0_2 W16_3 2.703471 1_554
W0_2 W15_2 2.703471 1_555
W0_2 W22_3 3.010009 1_554
W0_2 W21_2 3.010009 1_555
W0_3 W0_7 2.633443 1_455
W0_3 W0_7 2.633443 1_555
W0_3 W10_3 2.684542 1_555
W0_3 W9_2 2.684542 1_555
W0_3 W16_2 2.703471 1_555
W0_3 W15_3 2.703471 1_555
W0_3 W22_2 3.010009 1_555
W0_3 W21_3 3.010009 1_555
W0_4 W9_5 2.684542 1_554
W0_4 W10_4 2.684542 1_555
W0_4 W16_5 2.703471 1_554
W0_4 W15_4 2.703471 1_555
W0_4 W22_5 3.010009 1_554
W0_4 W21_4 3.010009 1_555
W0_5 W9_4 2.684542 1_555
W0_5 W10_5 2.684542 1_555
W0_5 W15_5 2.703471 1_555
W0_5 W16_4 2.703471 1_555
W0_5 W22_4 3.010009 1_555
W0_5 W21_5 3.010009 1_555
W0_6 W9_7 2.684542 1_554
W0_6 W10_6 2.684542 1_555
W0_6 W15_6 2.703471 1_555
W0_6 W16_7 2.703471 1_554
W0_6 W22_7 3.010009 1_554
W0_6 W21_6 3.010009 1_555
W0_7 W10_7 2.684542 1_555
W0_7 W9_6 2.684542 1_555
W0_7 W16_6 2.703471 1_555
W0_7 W15_7 2.703471 1_555
W0_7 W22_6 3.010009 1_555
W0_7 W21_7 3.010009 1_555
W1_0 W1_4 2.633443 1_455
W1_0 W1_4 2.633443 1_555
W1_0 W9_0 2.687203 1_555
W1_0 W5_0 2.694874 1_555
W1_0 W7_0 3.021202 1_555
W1_0 W2_3 3.047490 1_555
W1_1 W1_5 2.633443 1_555
W1_1 W1_5 2.633443 1_455
W1_1 W9_1 2.687203 1_555
W1_1 W5_1 2.694874 1_555
W1_1 W7_1 3.021202 1_555
W1_1 W2_2 3.047490 1_556
W1_2 W1_6 2.633443 1_455
W1_2 W1_6 2.633443 1_555
W1_2 W9_2 2.687203 1_555
W1_2 W5_2 2.694874 1_555
W1_2 W7_2 3.021202 1_555
W1_2 W2_1 3.047490 1_565
W1_3 W1_7 2.633443 1_555
W1_3 W1_7 2.633443 1_455
W1_3 W9_3 2.687203 1_555
W1_3 W5_3 2.694874 1_555
W1_3 W7_3 3.021202 1_555
W1_3 W2_0 3.047490 1_566
W1_4 W9_4 2.687203 1_555
W1_4 W5_4 2.694874 1_555
W1_4 W7_4 3.021202 1_555
W1_4 W2_7 3.047490 1_555
W1_5 W9_5 2.687203 1_555
W1_5 W5_5 2.694874 1_555
W1_5 W7_5 3.021202 1_555
W1_5 W2_6 3.047490 1_556
W1_6 W9_6 2.687203 1_555
W1_6 W5_6 2.694874 1_555
W1_6 W7_6 3.021202 1_555
W1_6 W2_5 3.047490 1_565
W1_7 W9_7 2.687203 1_555
W1_7 W5_7 2.694874 1_555
W1_7 W7_7 3.021202 1_555
W1_7 W2_4 3.047490 1_566
W2_0 W2_4 2.633443 1_455
W2_0 W2_4 2.633443 1_555
W2_0 W6_0 2.694874 1_555
W2_0 W8_0 3.021202 1_555
W2_1 W2_5 2.633443 1_455
W2_1 W2_5 2.633443 1_555
W2_1 W6_1 2.694874 1_555
W2_1 W8_1 3.021202 1_555
W2_2 W2_6 2.633443 1_555
W2_2 W2_6 2.633443 1_455
W2_2 W6_2 2.694874 1_555
W2_2 W8_2 3.021202 1_555
W2_3 W2_7 2.633443 1_555
W2_3 W2_7 2.633443 1_455
W2_3 W6_3 2.694874 1_555
W2_3 W8_3 3.021202 1_555
W2_4 W6_4 2.694874 1_555
W2_4 W8_4 3.021202 1_555
W2_5 W6_5 2.694874 1_555
W2_5 W8_5 3.021202 1_555
W2_6 W6_6 2.694874 1_555
W2_6 W8_6 3.021202 1_555
W2_7 W6_7 2.694874 1_555
W2_7 W8_7 3.021202 1_555
W3_0 W3_4 2.633443 1_555
W3_0 W3_4 2.633443 1_455
W3_0 W8_0 3.002032 1_555
W3_1 W3_5 2.633443 1_455
W3_1 W3_5 2.633443 1_555
W3_1 W8_1 3.002032 1_555
W3_2 W3_6 2.633443 1_455
W3_2 W3_6 2.633443 1_555
W3_2 W8_2 3.002032 1_555
W3_3 W3_7 2.633443 1_555
W3_3 W3_7 2.633443 1_455
W3_3 W8_3 3.002032 1_555
W3_4 W8_4 3.002032 1_555
W3_5 W8_5 3.002032 1_555
W3_6 W8_6 3.002032 1_555
W3_7 W8_7 3.002032 1_555
W4_0 W4_4 2.633443 1_455
W4_0 W4_4 2.633443 1_555
W4_0 W7_0 3.002032 1_555
W4_1 W4_5 2.633443 1_555
W4_1 W4_5 2.633443 1_455
W4_1 W7_1 3.002032 1_555
W4_2 W4_6 2.633443 1_555
W4_2 W4_6 2.633443 1_455
W4_2 W7_2 3.002032 1_555
W4_3 W4_7 2.633443 1_455
W4_3 W4_7 2.633443 1_555
W4_3 W7_3 3.002032 1_555
W4_4 W7_4 3.002032 1_555
W4_5 W7_5 3.002032 1_555
W4_6 W7_6 3.002032 1_555
W4_7 W7_7 3.002032 1_555
W5_0 W5_4 2.633443 1_555
W5_0 W5_4 2.633443 1_455
W5_0 W7_0 2.687128 1_555
W5_1 W5_5 2.633443 1_555
W5_1 W5_5 2.633443 1_455
W5_1 W7_1 2.687128 1_555
W5_2 W5_6 2.633443 1_455
W5_2 W5_6 2.633443 1_555
W5_2 W7_2 2.687128 1_555
W5_3 W5_7 2.633443 1_555
W5_3 W5_7 2.633443 1_455
W5_3 W7_3 2.687128 1_555
W5_4 W7_4 2.687128 1_555
W5_5 W7_5 2.687128 1_555
W5_6 W7_6 2.687128 1_555
W5_7 W7_7 2.687128 1_555
W6_0 W6_4 2.633443 1_455
W6_0 W6_4 2.633443 1_555
W6_0 W8_0 2.687128 1_555
W6_1 W6_5 2.633443 1_455
W6_1 W6_5 2.633443 1_555
W6_1 W8_1 2.687128 1_555
W6_2 W6_6 2.633443 1_555
W6_2 W6_6 2.633443 1_455
W6_2 W8_2 2.687128 1_555
W6_3 W6_7 2.633443 1_455
W6_3 W6_7 2.633443 1_555
W6_3 W8_3 2.687128 1_555
W6_4 W8_4 2.687128 1_555
W6_5 W8_5 2.687128 1_555
W6_6 W8_6 2.687128 1_555
W6_7 W8_7 2.687128 1_555
W7_0 W7_4 2.633443 1_555
W7_0 W7_4 2.633443 1_455
W7_0 W9_0 2.703130 1_555
W7_1 W7_5 2.633443 1_455
W7_1 W7_5 2.633443 1_555
W7_1 W9_1 2.703130 1_555
W7_2 W7_6 2.633443 1_455
W7_2 W7_6 2.633443 1_555
W7_2 W9_2 2.703130 1_555
W7_3 W7_7 2.633443 1_555
W7_3 W7_7 2.633443 1_455
W7_3 W9_3 2.703130 1_555
W7_4 W9_4 2.703130 1_555
W7_5 W9_5 2.703130 1_555
W7_6 W9_6 2.703130 1_555
W7_7 W9_7 2.703130 1_555
W8_0 W8_4 2.633443 1_455
W8_0 W8_4 2.633443 1_555
W8_1 W8_5 2.633443 1_555
W8_1 W8_5 2.633443 1_455
W8_2 W8_6 2.633443 1_455
W8_2 W8_6 2.633443 1_555
W8_3 W8_7 2.633443 1_455
W8_3 W8_7 2.633443 1_555
W9_0 W9_4 2.633443 1_455
W9_0 W9_4 2.633443 1_555
W9_1 W9_5 2.633443 1_455
W9_1 W9_5 2.633443 1_555
W9_2 W9_6 2.633443 1_555
W9_2 W9_6 2.633443 1_455
W9_3 W9_7 2.633443 1_555
W9_3 W9_7 2.633443 1_455
W10_0 W10_4 2.633443 1_555
W10_0 W10_4 2.633443 1_455
W10_0 W2_0 2.687203 1_555
W10_0 W21_0 2.689588 1_555
W10_0 W8_0 2.703130 1_555
W10_0 W23_0 3.005875 1_555
W10_0 W16_1 3.025668 1_554
W10_1 W10_5 2.633443 1_455
W10_1 W10_5 2.633443 1_555
W10_1 W2_1 2.687203 1_555
W10_1 W21_1 2.689588 1_555
W10_1 W8_1 2.703130 1_555
W10_1 W23_1 3.005875 1_555
W10_1 W16_0 3.025668 1_555
W10_2 W10_6 2.633443 1_555
W10_2 W10_6 2.633443 1_455
W10_2 W2_2 2.687203 1_555
W10_2 W21_2 2.689588 1_555
W10_2 W8_2 2.703130 1_555
W10_2 W23_2 3.005875 1_555
W10_2 W16_3 3.025668 1_554
W10_3 W10_7 2.633443 1_455
W10_3 W10_7 2.633443 1_555
W10_3 W2_3 2.687203 1_555
W10_3 W21_3 2.689588 1_555
W10_3 W8_3 2.703130 1_555
W10_3 W23_3 3.005875 1_555
W10_3 W16_2 3.025668 1_555
W10_4 W2_4 2.687203 1_555
W10_4 W21_4 2.689588 1_555
W10_4 W8_4 2.703130 1_555
W10_4 W23_4 3.005875 1_555
W10_4 W16_5 3.025668 1_554
W10_5 W2_5 2.687203 1_555
W10_5 W21_5 2.689588 1_555
W10_5 W8_5 2.703130 1_555
W10_5 W23_5 3.005875 1_555
W10_5 W16_4 3.025668 1_555
W10_6 W2_6 2.687203 1_555
W10_6 W21_6 2.689588 1_555
W10_6 W8_6 2.703130 1_555
W10_6 W23_6 3.005875 1_555
W10_6 W16_7 3.025668 1_554
W10_7 W2_7 2.687203 1_555
W10_7 W21_7 2.689588 1_555
W10_7 W8_7 2.703130 1_555
W10_7 W23_7 3.005875 1_555
W10_7 W16_6 3.025668 1_555
W11_0 W11_4 2.633443 1_455
W11_0 W11_4 2.633443 1_555
W11_0 W12_2 2.641532 1_555
W11_0 W18_2 2.680323 1_555
W11_0 W3_0 2.683898 1_555
W11_0 W13_0 2.684713 1_555
W11_0 W23_0 2.983597 1_555
W11_0 W17_0 3.044983 1_555
W11_1 W11_5 2.633443 1_455
W11_1 W11_5 2.633443 1_555
W11_1 W12_3 2.641532 1_555
W11_1 W18_3 2.680323 1_555
W11_1 W3_1 2.683898 1_555
W11_1 W13_1 2.684713 1_555
W11_1 W23_1 2.983597 1_555
W11_1 W17_1 3.044983 1_555
W11_2 W11_6 2.633443 1_455
W11_2 W11_6 2.633443 1_555
W11_2 W12_0 2.641532 1_565
W11_2 W18_0 2.680323 1_565
W11_2 W3_2 2.683898 1_555
W11_2 W13_2 2.684713 1_555
W11_2 W23_2 2.983597 1_555
W11_2 W17_2 3.044983 1_555
W11_3 W11_7 2.633443 1_455
W11_3 W11_7 2.633443 1_555
W11_3 W12_1 2.641532 1_565
W11_3 W18_1 2.680323 1_565
W11_3 W3_3 2.683898 1_555
W11_3 W13_3 2.684713 1_555
W11_3 W23_3 2.983597 1_555
W11_3 W17_3 3.044983 1_555
W11_4 W12_6 2.641532 1_555
W11_4 W18_6 2.680323 1_555
W11_4 W3_4 2.683898 1_555
W11_4 W13_4 2.684713 1_555
W11_4 W23_4 2.983597 1_555
W11_4 W17_4 3.044983 1_555
W11_5 W12_7 2.641532 1_555
W11_5 W18_7 2.680323 1_555
W11_5 W3_5 2.683898 1_555
W11_5 W13_5 2.684713 1_555
W11_5 W23_5 2.983597 1_555
W11_5 W17_5 3.044983 1_555
W11_6 W12_4 2.641532 1_565
W11_6 W18_4 2.680323 1_565
W11_6 W3_6 2.683898 1_555
W11_6 W13_6 2.684713 1_555
W11_6 W23_6 2.983597 1_555
W11_6 W17_6 3.044983 1_555
W11_7 W12_5 2.641532 1_565
W11_7 W18_5 2.680323 1_565
W11_7 W3_7 2.683898 1_555
W11_7 W13_7 2.684713 1_555
W11_7 W23_7 2.983597 1_555
W11_7 W17_7 3.044983 1_555
W12_0 W12_4 2.633443 1_555
W12_0 W12_4 2.633443 1_455
W12_0 W17_2 2.680323 1_545
W12_0 W4_0 2.683898 1_555
W12_0 W14_0 2.684713 1_555
W12_0 W24_0 2.983597 1_555
W12_0 W18_0 3.044983 1_555
W12_1 W12_5 2.633443 1_555
W12_1 W12_5 2.633443 1_455
W12_1 W17_3 2.680323 1_545
W12_1 W4_1 2.683898 1_555
W12_1 W14_1 2.684713 1_555
W12_1 W24_1 2.983597 1_555
W12_1 W18_1 3.044983 1_555
W12_2 W12_6 2.633443 1_555
W12_2 W12_6 2.633443 1_455
W12_2 W17_0 2.680323 1_555
W12_2 W4_2 2.683898 1_555
W12_2 W14_2 2.684713 1_555
W12_2 W24_2 2.983597 1_555
W12_2 W18_2 3.044983 1_555
W12_3 W12_7 2.633443 1_455
W12_3 W12_7 2.633443 1_555
W12_3 W17_1 2.680323 1_555
W12_3 W4_3 2.683898 1_555
W12_3 W14_3 2.684713 1_555
W12_3 W24_3 2.983597 1_555
W12_3 W18_3 3.044983 1_555
W12_4 W17_6 2.680323 1_545
W12_4 W4_4 2.683898 1_555
W12_4 W14_4 2.684713 1_555
W12_4 W24_4 2.983597 1_555
W12_4 W18_4 3.044983 1_555
W12_5 W17_7 2.680323 1_545
W12_5 W4_5 2.683898 1_555
W12_5 W14_5 2.684713 1_555
W12_5 W24_5 2.983597 1_555
W12_5 W18_5 3.044983 1_555
W12_6 W17_4 2.680323 1_555
W12_6 W4_6 2.683898 1_555
W12_6 W14_6 2.684713 1_555
W12_6 W24_6 2.983597 1_555
W12_6 W18_6 3.044983 1_555
W12_7 W17_5 2.680323 1_555
W12_7 W4_7 2.683898 1_555
W12_7 W14_7 2.684713 1_555
W12_7 W24_7 2.983597 1_555
W12_7 W18_7 3.044983 1_555
W13_0 W13_4 2.633443 1_555
W13_0 W13_4 2.633443 1_455
W13_0 W6_2 2.656032 1_555
W13_0 W23_0 2.696475 1_555
W13_0 W20_2 2.705830 1_555
W13_0 W18_2 2.963445 1_555
W13_0 W21_0 3.011096 1_555
W13_1 W13_5 2.633443 1_555
W13_1 W13_5 2.633443 1_455
W13_1 W6_3 2.656032 1_555
W13_1 W23_1 2.696475 1_555
W13_1 W20_3 2.705830 1_555
W13_1 W18_3 2.963445 1_555
W13_1 W21_1 3.011096 1_555
W13_2 W13_6 2.633443 1_455
W13_2 W13_6 2.633443 1_555
W13_2 W6_0 2.656032 1_565
W13_2 W23_2 2.696475 1_555
W13_2 W20_0 2.705830 1_565
W13_2 W18_0 2.963445 1_565
W13_2 W21_2 3.011096 1_555
W13_3 W13_7 2.633443 1_455
W13_3 W13_7 2.633443 1_555
W13_3 W6_1 2.656032 1_565
W13_3 W23_3 2.696475 1_555
W13_3 W20_1 2.705830 1_565
W13_3 W18_1 2.963445 1_565
W13_3 W21_3 3.011096 1_555
W13_4 W6_6 2.656032 1_555
W13_4 W23_4 2.696475 1_555
W13_4 W20_6 2.705830 1_555
W13_4 W18_6 2.963445 1_555
W13_4 W21_4 3.011096 1_555
W13_5 W6_7 2.656032 1_555
W13_5 W23_5 2.696475 1_555
W13_5 W20_7 2.705830 1_555
W13_5 W18_7 2.963445 1_555
W13_5 W21_5 3.011096 1_555
W13_6 W6_4 2.656032 1_565
W13_6 W23_6 2.696475 1_555
W13_6 W20_4 2.705830 1_565
W13_6 W18_4 2.963445 1_565
W13_6 W21_6 3.011096 1_555
W13_7 W6_5 2.656032 1_565
W13_7 W23_7 2.696475 1_555
W13_7 W20_5 2.705830 1_565
W13_7 W18_5 2.963445 1_565
W13_7 W21_7 3.011096 1_555
W14_0 W14_4 2.633443 1_455
W14_0 W14_4 2.633443 1_555
W14_0 W5_2 2.656032 1_545
W14_0 W24_0 2.696475 1_555
W14_0 W19_2 2.705830 1_545
W14_0 W17_2 2.963445 1_545
W14_0 W22_0 3.011096 1_555
W14_1 W14_5 2.633443 1_455
W14_1 W14_5 2.633443 1_555
W14_1 W5_3 2.656032 1_545
W14_1 W24_1 2.696475 1_555
W14_1 W19_3 2.705830 1_545
W14_1 W17_3 2.963445 1_545
W14_1 W22_1 3.011096 1_555
W14_2 W14_6 2.633443 1_455
W14_2 W14_6 2.633443 1_555
W14_2 W5_0 2.656032 1_555
W14_2 W24_2 2.696475 1_555
W14_2 W19_0 2.705830 1_555
W14_2 W17_0 2.963445 1_555
W14_2 W22_2 3.011096 1_555
W14_3 W14_7 2.633443 1_455
W14_3 W14_7 2.633443 1_555
W14_3 W5_1 2.656032 1_555
W14_3 W24_3 2.696475 1_555
W14_3 W19_1 2.705830 1_555
W14_3 W17_1 2.963445 1_555
W14_3 W22_3 3.011096 1_555
W14_4 W5_6 2.656032 1_545
W14_4 W24_4 2.696475 1_555
W14_4 W19_6 2.705830 1_545
W14_4 W17_6 2.963445 1_545
W14_4 W22_4 3.011096 1_555
W14_5 W5_7 2.656032 1_545
W14_5 W24_5 2.696475 1_555
W14_5 W19_7 2.705830 1_545
W14_5 W17_7 2.963445 1_545
W14_5 W22_5 3.011096 1_555
W14_6 W5_4 2.656032 1_555
W14_6 W24_6 2.696475 1_555
W14_6 W19_4 2.705830 1_555
W14_6 W17_4 2.963445 1_555
W14_6 W22_6 3.011096 1_555
W14_7 W5_5 2.656032 1_555
W14_7 W24_7 2.696475 1_555
W14_7 W19_5 2.705830 1_555
W14_7 W17_5 2.963445 1_555
W14_7 W22_7 3.011096 1_555
W15_0 W15_4 2.633443 1_555
W15_0 W15_4 2.633443 1_455
W15_0 W2_2 2.680906 1_555
W15_0 W21_0 2.680934 1_555
W15_0 W1_1 2.690842 1_554
W15_0 W9_1 3.025668 1_554
W15_0 W6_2 3.035815 1_555
W15_1 W15_5 2.633443 1_555
W15_1 W15_5 2.633443 1_455
W15_1 W2_3 2.680906 1_555
W15_1 W21_1 2.680934 1_555
W15_1 W1_0 2.690842 1_555
W15_1 W9_0 3.025668 1_555
W15_1 W6_3 3.035815 1_555
W15_2 W15_6 2.633443 1_455
W15_2 W15_6 2.633443 1_555
W15_2 W2_0 2.680906 1_565
W15_2 W21_2 2.680934 1_555
W15_2 W1_3 2.690842 1_554
W15_2 W9_3 3.025668 1_554
W15_2 W6_0 3.035815 1_565
W15_3 W15_7 2.633443 1_455
W15_3 W15_7 2.633443 1_555
W15_3 W2_1 2.680906 1_565
W15_3 W21_3 2.680934 1_555
W15_3 W1_2 2.690842 1_555
W15_3 W9_2 3.025668 1_555
W15_3 W6_1 3.035815 1_565
W15_4 W2_6 2.680906 1_555
W15_4 W21_4 2.680934 1_555
W15_4 W1_5 2.690842 1_554
W15_4 W9_5 3.025668 1_554
W15_4 W6_6 3.035815 1_555
W15_5 W2_7 2.680906 1_555
W15_5 W21_5 2.680934 1_555
W15_5 W1_4 2.690842 1_555
W15_5 W9_4 3.025668 1_555
W15_5 W6_7 3.035815 1_555
W15_6 W2_4 2.680906 1_565
W15_6 W21_6 2.680934 1_555
W15_6 W1_7 2.690842 1_554
W15_6 W9_7 3.025668 1_554
W15_6 W6_4 3.035815 1_565
W15_7 W2_5 2.680906 1_565
W15_7 W21_7 2.680934 1_555
W15_7 W1_6 2.690842 1_555
W15_7 W9_6 3.025668 1_555
W15_7 W6_5 3.035815 1_565
W16_0 W16_4 2.633443 1_555
W16_0 W16_4 2.633443 1_455
W16_0 W1_2 2.680906 1_545
W16_0 W22_0 2.680934 1_555
W16_0 W2_1 2.690842 1_555
W16_0 W5_2 3.035815 1_545
W16_1 W16_5 2.633443 1_555
W16_1 W16_5 2.633443 1_455
W16_1 W1_3 2.680906 1_545
W16_1 W22_1 2.680934 1_555
W16_1 W2_0 2.690842 1_556
W16_1 W5_3 3.035815 1_545
W16_2 W16_6 2.633443 1_555
W16_2 W16_6 2.633443 1_455
W16_2 W1_0 2.680906 1_555
W16_2 W22_2 2.680934 1_555
W16_2 W2_3 2.690842 1_555
W16_2 W5_0 3.035815 1_555
W16_3 W16_7 2.633443 1_455
W16_3 W16_7 2.633443 1_555
W16_3 W1_1 2.680906 1_555
W16_3 W22_3 2.680934 1_555
W16_3 W2_2 2.690842 1_556
W16_3 W5_1 3.035815 1_555
W16_4 W1_6 2.680906 1_545
W16_4 W22_4 2.680934 1_555
W16_4 W2_5 2.690842 1_555
W16_4 W5_6 3.035815 1_545
W16_5 W1_7 2.680906 1_545
W16_5 W22_5 2.680934 1_555
W16_5 W2_4 2.690842 1_556
W16_5 W5_7 3.035815 1_545
W16_6 W1_4 2.680906 1_555
W16_6 W22_6 2.680934 1_555
W16_6 W2_7 2.690842 1_555
W16_6 W5_4 3.035815 1_555
W16_7 W1_5 2.680906 1_555
W16_7 W22_7 2.680934 1_555
W16_7 W2_6 2.690842 1_556
W16_7 W5_5 3.035815 1_555
W17_0 W3_0 2.614571 1_555
W17_0 W17_4 2.633443 1_555
W17_0 W17_4 2.633443 1_455
W17_0 W19_0 2.637877 1_555
W17_1 W3_1 2.614571 1_555
W17_1 W17_5 2.633443 1_555
W17_1 W17_5 2.633443 1_455
W17_1 W19_1 2.637877 1_555
W17_2 W3_2 2.614571 1_555
W17_2 W17_6 2.633443 1_455
W17_2 W17_6 2.633443 1_555
W17_2 W19_2 2.637877 1_555
W17_3 W3_3 2.614571 1_555
W17_3 W17_7 2.633443 1_555
W17_3 W17_7 2.633443 1_455
W17_3 W19_3 2.637877 1_555
W17_4 W3_4 2.614571 1_555
W17_4 W19_4 2.637877 1_555
W17_5 W3_5 2.614571 1_555
W17_5 W19_5 2.637877 1_555
W17_6 W3_6 2.614571 1_555
W17_6 W19_6 2.637877 1_555
W17_7 W3_7 2.614571 1_555
W17_7 W19_7 2.637877 1_555
W18_0 W4_0 2.614571 1_555
W18_0 W18_4 2.633443 1_455
W18_0 W18_4 2.633443 1_555
W18_0 W20_0 2.637877 1_555
W18_1 W4_1 2.614571 1_555
W18_1 W18_5 2.633443 1_455
W18_1 W18_5 2.633443 1_555
W18_1 W20_1 2.637877 1_555
W18_2 W4_2 2.614571 1_555
W18_2 W18_6 2.633443 1_455
W18_2 W18_6 2.633443 1_555
W18_2 W20_2 2.637877 1_555
W18_3 W4_3 2.614571 1_555
W18_3 W18_7 2.633443 1_555
W18_3 W18_7 2.633443 1_455
W18_3 W20_3 2.637877 1_555
W18_4 W4_4 2.614571 1_555
W18_4 W20_4 2.637877 1_555
W18_5 W4_5 2.614571 1_555
W18_5 W20_5 2.637877 1_555
W18_6 W4_6 2.614571 1_555
W18_6 W20_6 2.637877 1_555
W18_7 W4_7 2.614571 1_555
W18_7 W20_7 2.637877 1_555
W19_0 W19_4 2.633443 1_555
W19_0 W19_4 2.633443 1_455
W19_0 W4_0 2.647120 1_555
W19_0 W7_0 2.690663 1_555
W19_0 W5_0 3.019942 1_555
W19_1 W19_5 2.633443 1_455
W19_1 W19_5 2.633443 1_555
W19_1 W4_1 2.647120 1_555
W19_1 W7_1 2.690663 1_555
W19_1 W5_1 3.019942 1_555
W19_2 W19_6 2.633443 1_555
W19_2 W19_6 2.633443 1_455
W19_2 W4_2 2.647120 1_555
W19_2 W7_2 2.690663 1_555
W19_2 W5_2 3.019942 1_555
W19_3 W19_7 2.633443 1_555
W19_3 W19_7 2.633443 1_455
W19_3 W4_3 2.647120 1_555
W19_3 W7_3 2.690663 1_555
W19_3 W5_3 3.019942 1_555
W19_4 W4_4 2.647120 1_555
W19_4 W7_4 2.690663 1_555
W19_4 W5_4 3.019942 1_555
W19_5 W4_5 2.647120 1_555
W19_5 W7_5 2.690663 1_555
W19_5 W5_5 3.019942 1_555
W19_6 W4_6 2.647120 1_555
W19_6 W7_6 2.690663 1_555
W19_6 W5_6 3.019942 1_555
W19_7 W4_7 2.647120 1_555
W19_7 W7_7 2.690663 1_555
W19_7 W5_7 3.019942 1_555
W20_0 W20_4 2.633443 1_455
W20_0 W20_4 2.633443 1_555
W20_0 W3_0 2.647120 1_555
W20_0 W8_0 2.690663 1_555
W20_0 W6_0 3.019942 1_555
W20_1 W20_5 2.633443 1_455
W20_1 W20_5 2.633443 1_555
W20_1 W3_1 2.647120 1_555
W20_1 W8_1 2.690663 1_555
W20_1 W6_1 3.019942 1_555
W20_2 W20_6 2.633443 1_455
W20_2 W20_6 2.633443 1_555
W20_2 W3_2 2.647120 1_555
W20_2 W8_2 2.690663 1_555
W20_2 W6_2 3.019942 1_555
W20_3 W20_7 2.633443 1_555
W20_3 W20_7 2.633443 1_455
W20_3 W3_3 2.647120 1_555
W20_3 W8_3 2.690663 1_555
W20_3 W6_3 3.019942 1_555
W20_4 W3_4 2.647120 1_555
W20_4 W8_4 2.690663 1_555
W20_4 W6_4 3.019942 1_555
W20_5 W3_5 2.647120 1_555
W20_5 W8_5 2.690663 1_555
W20_5 W6_5 3.019942 1_555
W20_6 W3_6 2.647120 1_555
W20_6 W8_6 2.690663 1_555
W20_6 W6_6 3.019942 1_555
W20_7 W3_7 2.647120 1_555
W20_7 W8_7 2.690663 1_555
W20_7 W6_7 3.019942 1_555
W21_0 W21_4 2.633443 1_455
W21_0 W21_4 2.633443 1_555
W21_0 W6_2 2.694032 1_555
W21_0 W23_0 2.699216 1_555
W21_1 W21_5 2.633443 1_455
W21_1 W21_5 2.633443 1_555
W21_1 W6_3 2.694032 1_555
W21_1 W23_1 2.699216 1_555
W21_2 W21_6 2.633443 1_555
W21_2 W21_6 2.633443 1_455
W21_2 W6_0 2.694032 1_565
W21_2 W23_2 2.699216 1_555
W21_3 W21_7 2.633443 1_455
W21_3 W21_7 2.633443 1_555
W21_3 W6_1 2.694032 1_565
W21_3 W23_3 2.699216 1_555
W21_4 W6_6 2.694032 1_555
W21_4 W23_4 2.699216 1_555
W21_5 W6_7 2.694032 1_555
W21_5 W23_5 2.699216 1_555
W21_6 W6_4 2.694032 1_565
W21_6 W23_6 2.699216 1_555
W21_7 W6_5 2.694032 1_565
W21_7 W23_7 2.699216 1_555
W22_0 W22_4 2.633443 1_555
W22_0 W22_4 2.633443 1_455
W22_0 W9_0 2.689588 1_555
W22_0 W5_2 2.694032 1_545
W22_0 W24_0 2.699216 1_555
W22_1 W22_5 2.633443 1_555
W22_1 W22_5 2.633443 1_455
W22_1 W9_1 2.689588 1_555
W22_1 W5_3 2.694032 1_545
W22_1 W24_1 2.699216 1_555
W22_2 W22_6 2.633443 1_555
W22_2 W22_6 2.633443 1_455
W22_2 W9_2 2.689588 1_555
W22_2 W5_0 2.694032 1_555
W22_2 W24_2 2.699216 1_555
W22_3 W22_7 2.633443 1_455
W22_3 W22_7 2.633443 1_555
W22_3 W9_3 2.689588 1_555
W22_3 W5_1 2.694032 1_555
W22_3 W24_3 2.699216 1_555
W22_4 W9_4 2.689588 1_555
W22_4 W5_6 2.694032 1_545
W22_4 W24_4 2.699216 1_555
W22_5 W9_5 2.689588 1_555
W22_5 W5_7 2.694032 1_545
W22_5 W24_5 2.699216 1_555
W22_6 W9_6 2.689588 1_555
W22_6 W5_4 2.694032 1_555
W22_6 W24_6 2.699216 1_555
W22_7 W9_7 2.689588 1_555
W22_7 W5_5 2.694032 1_555
W22_7 W24_7 2.699216 1_555
W23_0 W23_4 2.633443 1_455
W23_0 W23_4 2.633443 1_555
W23_0 W8_0 2.671399 1_555
W23_0 W3_0 2.719983 1_555
W23_1 W23_5 2.633443 1_555
W23_1 W23_5 2.633443 1_455
W23_1 W8_1 2.671399 1_555
W23_1 W3_1 2.719983 1_555
W23_2 W23_6 2.633443 1_555
W23_2 W23_6 2.633443 1_455
W23_2 W8_2 2.671399 1_555
W23_2 W3_2 2.719983 1_555
W23_3 W23_7 2.633443 1_555
W23_3 W23_7 2.633443 1_455
W23_3 W8_3 2.671399 1_555
W23_3 W3_3 2.719983 1_555
W23_4 W8_4 2.671399 1_555
W23_4 W3_4 2.719983 1_555
W23_5 W8_5 2.671399 1_555
W23_5 W3_5 2.719983 1_555
W23_6 W8_6 2.671399 1_555
W23_6 W3_6 2.719983 1_555
W23_7 W8_7 2.671399 1_555
W23_7 W3_7 2.719983 1_555
W24_0 W24_4 2.633443 1_455
W24_0 W24_4 2.633443 1_555
W24_0 W7_0 2.671399 1_555
W24_0 W4_0 2.719983 1_555
W24_0 W9_0 3.005875 1_555
W24_1 W24_5 2.633443 1_555
W24_1 W24_5 2.633443 1_455
W24_1 W7_1 2.671399 1_555
W24_1 W4_1 2.719983 1_555
W24_1 W9_1 3.005875 1_555
W24_2 W24_6 2.633443 1_555
W24_2 W24_6 2.633443 1_455
W24_2 W7_2 2.671399 1_555
W24_2 W4_2 2.719983 1_555
W24_2 W9_2 3.005875 1_555
W24_3 W24_7 2.633443 1_455
W24_3 W24_7 2.633443 1_555
W24_3 W7_3 2.671399 1_555
W24_3 W4_3 2.719983 1_555
W24_3 W9_3 3.005875 1_555
W24_4 W7_4 2.671399 1_555
W24_4 W4_4 2.719983 1_555
W24_4 W9_4 3.005875 1_555
W24_5 W7_5 2.671399 1_555
W24_5 W4_5 2.719983 1_555
W24_5 W9_5 3.005875 1_555
W24_6 W7_6 2.671399 1_555
W24_6 W4_6 2.719983 1_555
W24_6 W9_6 3.005875 1_555
W24_7 W7_7 2.671399 1_555
W24_7 W4_7 2.719983 1_555
W24_7 W9_7 3.005875 1_555
