# generated using pymatgen
data_CaLaGa3S6O
_symmetry_space_group_name_H-M   'P 1'
_cell_length_a   9.38290800
_cell_length_b   6.08739700
_cell_length_c   9.37853701
_cell_angle_alpha   89.90831852
_cell_angle_beta   90.00000000
_cell_angle_gamma   90.00000000
_symmetry_Int_Tables_number   1
_chemical_formula_structural   CaLaGa3S6O
_chemical_formula_sum   'Ca2 La2 Ga6 S12 O2'
_cell_volume   535.67777049
_cell_formula_units_Z   2
loop_
 _symmetry_equiv_pos_site_id
 _symmetry_equiv_pos_as_xyz
  1  'x, y, z'
loop_
 _atom_site_type_symbol
 _atom_site_label
 _atom_site_symmetry_multiplicity
 _atom_site_fract_x
 _atom_site_fract_y
 _atom_site_fract_z
 _atom_site_occupancy
  Ca  Ca0  1  0.34824500  0.51445600  0.59657500  1
  Ca  Ca1  1  0.84824500  0.48554400  0.40342500  1
  La  La0  1  0.65075900  0.51345900  0.89870800  1
  La  La1  1  0.15075900  0.48654100  0.10129200  1
  Ga  Ga0  1  0.50042000  0.00004400  0.25314300  1
  Ga  Ga1  1  0.00042000  0.99995600  0.74685700  1
  Ga  Ga2  1  0.12616500  0.06946000  0.37844600  1
  Ga  Ga3  1  0.62616500  0.93054000  0.62155400  1
  Ga  Ga4  1  0.87260100  0.07131100  0.12488600  1
  Ga  Ga5  1  0.37260100  0.92868900  0.87511400  1
  S  S0  1  0.13401800  0.70538500  0.38269600  1
  S  S1  1  0.63401800  0.29461500  0.61730400  1
  S  S2  1  0.86539600  0.70651200  0.11452100  1
  S  S3  1  0.36539600  0.29348800  0.88547900  1
  S  S4  1  0.16710600  0.74953300  0.81811300  1
  S  S5  1  0.66710600  0.25046700  0.18188700  1
  S  S6  1  0.83263000  0.74921200  0.68258900  1
  S  S7  1  0.33263000  0.25078800  0.31741100  1
  S  S8  1  0.06781700  0.25127900  0.58216300  1
  S  S9  1  0.56781700  0.74872100  0.41783700  1
  S  S10  1  0.93235200  0.25008700  0.91671000  1
  S  S11  1  0.43235200  0.74991300  0.08329000  1
  O  O0  1  0.50249000  0.77679200  0.75289200  1
  O  O1  1  0.00249000  0.22320800  0.24710800  1
loop_
_geom_bond_atom_site_label_1
_geom_bond_atom_site_label_2
_geom_bond_distance
_geom_bond_site_symmetry_2
Ca0 O0 2.607974 1_555
Ca0 S1 3.002950 1_555
Ca0 S9 3.013389 1_555
Ca0 S3 3.027368 1_555
Ca0 S4 3.043488 1_555
Ca0 S0 3.067133 1_555
Ca0 S7 3.076656 1_555
Ca0 S8 3.083657 1_555
Ca1 O1 2.607974 1_655
Ca1 S0 3.002950 1_655
Ca1 S8 3.013389 1_655
Ca1 S2 3.027368 1_555
Ca1 S5 3.043488 1_555
Ca1 S1 3.067133 1_555
Ca1 S6 3.076656 1_555
Ca1 S9 3.083657 1_555
La0 O0 2.523534 1_555
La0 S1 2.962399 1_555
La0 S3 2.996360 1_555
La0 S6 3.011740 1_555
La0 S11 3.045678 1_556
La0 S2 3.088879 1_556
La0 S10 3.095006 1_555
La0 S5 3.102614 1_556
La1 O1 2.523534 1_555
La1 S0 2.962399 1_555
La1 S2 2.996360 1_455
La1 S7 3.011740 1_555
La1 S10 3.045678 1_454
La1 S3 3.088879 1_554
La1 S11 3.095006 1_555
La1 S4 3.102614 1_554
Ga0 S9 2.262454 1_545
Ga0 S7 2.274791 1_555
Ga0 S5 2.283265 1_555
Ga0 S11 2.296015 1_545
Ga1 S8 2.262454 1_565
Ga1 S6 2.274791 1_455
Ga1 S4 2.283265 1_555
Ga1 S10 2.296015 1_465
Ga2 O1 1.932898 1_555
Ga2 S0 2.217788 1_545
Ga2 S8 2.276352 1_555
Ga2 S7 2.301512 1_555
Ga3 O0 1.932898 1_555
Ga3 S1 2.217788 1_565
Ga3 S9 2.276352 1_555
Ga3 S6 2.301512 1_555
Ga4 O1 1.912491 1_655
Ga4 S2 2.223986 1_545
Ga4 S5 2.279204 1_555
Ga4 S10 2.302972 1_554
Ga5 O0 1.912491 1_555
Ga5 S3 2.223986 1_565
Ga5 S4 2.279204 1_555
Ga5 S11 2.302972 1_556
