# generated using pymatgen
data_Cr5Te6
_symmetry_space_group_name_H-M   'P 1'
_cell_length_a   7.51905200
_cell_length_b   8.14961440
_cell_length_c   9.42174038
_cell_angle_alpha   89.61199263
_cell_angle_beta   101.76162977
_cell_angle_gamma   106.34850094
_symmetry_Int_Tables_number   1
_chemical_formula_structural   Cr5Te6
_chemical_formula_sum   'Cr10 Te12'
_cell_volume   541.57703288
_cell_formula_units_Z   2
loop_
 _symmetry_equiv_pos_site_id
 _symmetry_equiv_pos_as_xyz
  1  'x, y, z'
loop_
 _atom_site_type_symbol
 _atom_site_label
 _atom_site_symmetry_multiplicity
 _atom_site_fract_x
 _atom_site_fract_y
 _atom_site_fract_z
 _atom_site_occupancy
  Cr  Cr0  1  0.65512100  0.42642300  0.17354600  1
  Cr  Cr1  1  0.98102300  0.75227700  0.49945300  1
  Cr  Cr2  1  0.31986400  0.09477200  0.82460700  1
  Cr  Cr3  1  0.68013600  0.90522800  0.17539300  1
  Cr  Cr4  1  0.01897700  0.24772300  0.50054700  1
  Cr  Cr5  1  0.34487900  0.57357700  0.82645400  1
  Cr  Cr6  1  0.00000000  0.50000000  0.00000000  1
  Cr  Cr7  1  0.33675600  0.83173400  0.33779000  1
  Cr  Cr8  1  0.66324400  0.16826600  0.66221000  1
  Cr  Cr9  1  0.00000000  0.00000000  0.00000000  1
  Te  Te0  1  0.72358200  0.67803100  0.97056200  1
  Te  Te1  1  0.06397500  0.01391800  0.30676100  1
  Te  Te2  1  0.39458900  0.34887900  0.63423200  1
  Te  Te3  1  0.60541100  0.65112100  0.36576800  1
  Te  Te4  1  0.93602500  0.98608200  0.69323900  1
  Te  Te5  1  0.27641800  0.32196900  0.02943800  1
  Te  Te6  1  0.71418200  0.18066400  0.97516600  1
  Te  Te7  1  0.04345200  0.51583400  0.30916800  1
  Te  Te8  1  0.37478600  0.84876000  0.64149400  1
  Te  Te9  1  0.62521400  0.15124000  0.35850600  1
  Te  Te10  1  0.95654800  0.48416600  0.69083200  1
  Te  Te11  1  0.28581800  0.81933600  0.02483400  1
loop_
_geom_bond_atom_site_label_1
_geom_bond_atom_site_label_2
_geom_bond_distance
_geom_bond_site_symmetry_2
Cr0 Te3 2.734807 1_555
Cr0 Te5 2.784100 1_555
Cr0 Te0 2.807329 1_554
Cr0 Te9 2.817750 1_555
Cr0 Te7 2.825457 1_655
Cr0 Te6 2.931187 1_554
Cr1 Te3 2.737800 1_555
Cr1 Te4 2.782184 1_555
Cr1 Te1 2.809296 1_665
Cr1 Te10 2.813344 1_555
Cr1 Te7 2.836658 1_655
Cr1 Te8 2.874625 1_655
Cr2 Te2 2.743530 1_555
Cr2 Te4 2.786667 1_445
Cr2 Te5 2.811640 1_556
Cr2 Te8 2.823126 1_545
Cr2 Te6 2.902291 1_555
Cr2 Te11 2.911884 1_546
Cr3 Te3 2.743530 1_555
Cr3 Te1 2.786667 1_665
Cr3 Te0 2.811640 1_554
Cr3 Te9 2.823126 1_565
Cr3 Te11 2.902291 1_555
Cr3 Te6 2.911884 1_564
Cr4 Te2 2.737800 1_555
Cr4 Te1 2.782184 1_555
Cr4 Te4 2.809296 1_445
Cr4 Te7 2.813344 1_555
Cr4 Te10 2.836658 1_455
Cr4 Te9 2.874625 1_455
Cr5 Te2 2.734807 1_555
Cr5 Te0 2.784100 1_555
Cr5 Te5 2.807329 1_556
Cr5 Te8 2.817750 1_555
Cr5 Te10 2.825457 1_455
Cr5 Te11 2.931187 1_556
Cr6 Te5 2.821151 1_555
Cr6 Te0 2.821151 1_454
Cr6 Te11 2.846189 1_555
Cr6 Te6 2.846189 1_454
Cr6 Te10 2.863871 1_454
Cr6 Te7 2.863871 1_555
Cr7 Te3 2.787132 1_555
Cr7 Te8 2.817484 1_555
Cr7 Te1 2.821477 1_565
Cr7 Te7 2.852175 1_555
Cr7 Te9 2.859606 1_565
Cr7 Te11 2.893602 1_555
Cr8 Te2 2.787132 1_555
Cr8 Te9 2.817484 1_555
Cr8 Te4 2.821477 1_545
Cr8 Te10 2.852175 1_555
Cr8 Te8 2.859606 1_545
Cr8 Te6 2.893602 1_555
Cr9 Te5 2.826016 1_555
Cr9 Te0 2.826016 1_444
Cr9 Te4 2.829235 1_444
Cr9 Te1 2.829235 1_555
Cr9 Te11 2.900469 1_545
Cr9 Te6 2.900469 1_454
