# generated using pymatgen
data_TiNb
_symmetry_space_group_name_H-M   'P 1'
_cell_length_a   5.68022191
_cell_length_b   5.68022191
_cell_length_c   9.29189194
_cell_angle_alpha   90.00000000
_cell_angle_beta   90.00000000
_cell_angle_gamma   109.40866811
_symmetry_Int_Tables_number   1
_chemical_formula_structural   TiNb
_chemical_formula_sum   'Ti8 Nb8'
_cell_volume   282.76512074
_cell_formula_units_Z   8
loop_
 _symmetry_equiv_pos_site_id
 _symmetry_equiv_pos_as_xyz
  1  'x, y, z'
loop_
 _atom_site_type_symbol
 _atom_site_label
 _atom_site_symmetry_multiplicity
 _atom_site_fract_x
 _atom_site_fract_y
 _atom_site_fract_z
 _atom_site_occupancy
  Ti  Ti0_0  1  0.25000000  0.25000000  0.25000000  1
  Ti  Ti0_1  1  0.25000000  0.25000000  0.75000000  1
  Ti  Ti0_2  1  0.25000000  0.75000000  0.25000000  1
  Ti  Ti0_3  1  0.25000000  0.75000000  0.75000000  1
  Ti  Ti0_4  1  0.75000000  0.25000000  0.25000000  1
  Ti  Ti0_5  1  0.75000000  0.25000000  0.75000000  1
  Ti  Ti0_6  1  0.75000000  0.75000000  0.25000000  1
  Ti  Ti0_7  1  0.75000000  0.75000000  0.75000000  1
  Nb  Nb0_0  1  0.00000000  0.00000000  0.00000000  1
  Nb  Nb0_1  1  0.00000000  0.00000000  0.50000000  1
  Nb  Nb0_2  1  0.00000000  0.50000000  0.00000000  1
  Nb  Nb0_3  1  0.00000000  0.50000000  0.50000000  1
  Nb  Nb0_4  1  0.50000000  0.00000000  0.00000000  1
  Nb  Nb0_5  1  0.50000000  0.00000000  0.50000000  1
  Nb  Nb0_6  1  0.50000000  0.50000000  0.00000000  1
  Nb  Nb0_7  1  0.50000000  0.50000000  0.50000000  1
loop_
_geom_bond_atom_site_label_1
_geom_bond_atom_site_label_2
_geom_bond_distance
_geom_bond_site_symmetry_2
Ti0_0 Ti0_2 2.840111 1_555
Ti0_0 Ti0_2 2.840111 1_545
Ti0_0 Ti0_4 2.840111 1_455
Ti0_0 Ti0_4 2.840111 1_555
Ti0_1 Ti0_3 2.840111 1_555
Ti0_1 Ti0_5 2.840111 1_555
Ti0_1 Ti0_3 2.840111 1_545
Ti0_1 Ti0_5 2.840111 1_455
Ti0_2 Ti0_6 2.840111 1_455
Ti0_2 Ti0_6 2.840111 1_555
Ti0_3 Ti0_7 2.840111 1_455
Ti0_3 Ti0_7 2.840111 1_555
Ti0_4 Ti0_6 2.840111 1_555
Ti0_4 Ti0_6 2.840111 1_545
Ti0_5 Ti0_7 2.840111 1_545
Ti0_5 Ti0_7 2.840111 1_555
Nb0_0 Nb0_4 2.840111 1_455
Nb0_0 Nb0_4 2.840111 1_555
Nb0_0 Nb0_2 2.840111 1_555
Nb0_0 Nb0_2 2.840111 1_545
Nb0_0 Ti0_6 2.844134 1_445
Nb0_0 Ti0_1 2.844134 1_554
Nb0_0 Ti0_7 2.844134 1_444
Nb0_0 Ti0_0 2.844134 1_555
Nb0_1 Nb0_3 2.840111 1_555
Nb0_1 Nb0_5 2.840111 1_455
Nb0_1 Nb0_3 2.840111 1_545
Nb0_1 Nb0_5 2.840111 1_555
Nb0_1 Ti0_6 2.844134 1_445
Nb0_1 Ti0_1 2.844134 1_555
Nb0_1 Ti0_7 2.844134 1_445
Nb0_1 Ti0_0 2.844134 1_555
Nb0_2 Nb0_6 2.840111 1_455
Nb0_2 Nb0_6 2.840111 1_555
Nb0_2 Ti0_2 2.844134 1_555
Nb0_2 Ti0_3 2.844134 1_554
Nb0_2 Ti0_5 2.844134 1_454
Nb0_2 Ti0_4 2.844134 1_455
Nb0_3 Nb0_7 2.840111 1_555
Nb0_3 Nb0_7 2.840111 1_455
Nb0_3 Ti0_5 2.844134 1_455
Nb0_3 Ti0_2 2.844134 1_555
Nb0_3 Ti0_4 2.844134 1_455
Nb0_3 Ti0_3 2.844134 1_555
Nb0_4 Nb0_6 2.840111 1_545
Nb0_4 Nb0_6 2.840111 1_555
Nb0_4 Ti0_4 2.844134 1_555
Nb0_4 Ti0_5 2.844134 1_554
Nb0_4 Ti0_3 2.844134 1_544
Nb0_4 Ti0_2 2.844134 1_545
Nb0_5 Nb0_7 2.840111 1_555
Nb0_5 Nb0_7 2.840111 1_545
Nb0_5 Ti0_4 2.844134 1_555
Nb0_5 Ti0_3 2.844134 1_545
Nb0_5 Ti0_5 2.844134 1_555
Nb0_5 Ti0_2 2.844134 1_545
Nb0_6 Ti0_6 2.844134 1_555
Nb0_6 Ti0_7 2.844134 1_554
Nb0_6 Ti0_1 2.844134 1_554
Nb0_6 Ti0_0 2.844134 1_555
Nb0_7 Ti0_6 2.844134 1_555
Nb0_7 Ti0_1 2.844134 1_555
Nb0_7 Ti0_0 2.844134 1_555
Nb0_7 Ti0_7 2.844134 1_555
