# generated using pymatgen
data_Pr2InNi2
_symmetry_space_group_name_H-M   'P 1'
_cell_length_a   7.55559697
_cell_length_b   7.55559697
_cell_length_c   3.83529637
_cell_angle_alpha   90.00000000
_cell_angle_beta   90.00000000
_cell_angle_gamma   90.00000000
_symmetry_Int_Tables_number   1
_chemical_formula_structural   Pr2InNi2
_chemical_formula_sum   'Pr4 In2 Ni4'
_cell_volume   218.94573866
_cell_formula_units_Z   2
loop_
 _symmetry_equiv_pos_site_id
 _symmetry_equiv_pos_as_xyz
  1  'x, y, z'
loop_
 _atom_site_type_symbol
 _atom_site_label
 _atom_site_symmetry_multiplicity
 _atom_site_fract_x
 _atom_site_fract_y
 _atom_site_fract_z
 _atom_site_occupancy
  Pr  Pr0  1  0.67747458  0.17747458  0.50000000  1
  Pr  Pr1  1  0.32252542  0.82252542  0.50000000  1
  Pr  Pr2  1  0.17747458  0.32252542  0.50000000  1
  Pr  Pr3  1  0.82252542  0.67747458  0.50000000  1
  In  In0  1  0.50000000  0.50000000  0.00000000  1
  In  In1  1  0.00000000  -0.00000000  0.00000000  1
  Ni  Ni0  1  0.11701723  0.61701723  0.00000000  1
  Ni  Ni1  1  0.88298277  0.38298277  -0.00000000  1
  Ni  Ni2  1  0.61701723  0.88298277  -0.00000000  1
  Ni  Ni3  1  0.38298277  0.11701723  0.00000000  1
loop_
_geom_bond_atom_site_label_1
_geom_bond_atom_site_label_2
_geom_bond_distance
_geom_bond_site_symmetry_2
In0 Ni3 3.025720 1_555
In0 Ni0 3.025720 1_555
In0 Ni1 3.025720 1_555
In0 Ni2 3.025720 1_555
In0 Pr3 3.378432 1_555
In0 Pr1 3.378432 1_554
In0 Pr3 3.378432 1_554
In0 Pr1 3.378432 1_555
In0 Pr2 3.378432 1_554
In0 Pr0 3.378432 1_554
In0 Pr2 3.378432 1_555
In0 Pr0 3.378432 1_555
In1 Ni3 3.025720 1_555
In1 Ni1 3.025720 1_455
In1 Ni0 3.025720 1_545
In1 Ni2 3.025720 1_445
In1 Pr0 3.378432 1_454
In1 Pr3 3.378432 1_444
In1 Pr3 3.378432 1_445
In1 Pr0 3.378432 1_455
In1 Pr2 3.378432 1_554
In1 Pr1 3.378432 1_544
In1 Pr1 3.378432 1_545
In1 Pr2 3.378432 1_555
Ni0 Ni1 2.500711 1_455
Ni0 Pr1 2.915366 1_554
Ni0 Pr1 2.915366 1_555
Ni0 Pr2 2.972698 1_554
Ni0 Pr3 2.972698 1_455
Ni0 Pr2 2.972698 1_555
Ni0 Pr3 2.972698 1_454
Ni1 Pr0 2.915366 1_554
Ni1 Pr0 2.915366 1_555
Ni1 Pr2 2.972698 1_655
Ni1 Pr2 2.972698 1_654
Ni1 Pr3 2.972698 1_554
Ni1 Pr3 2.972698 1_555
Ni2 Ni3 2.500711 1_565
Ni2 Pr3 2.915366 1_555
Ni2 Pr3 2.915366 1_554
Ni2 Pr0 2.972698 1_565
Ni2 Pr0 2.972698 1_564
Ni2 Pr1 2.972698 1_555
Ni2 Pr1 2.972698 1_554
Ni3 Pr2 2.915366 1_555
Ni3 Pr2 2.915366 1_554
Ni3 Pr1 2.972698 1_544
Ni3 Pr1 2.972698 1_545
Ni3 Pr0 2.972698 1_554
Ni3 Pr0 2.972698 1_555
