# generated using pymatgen
data_Er6CoBr10
_symmetry_space_group_name_H-M   'P 1'
_cell_length_a   7.18519524
_cell_length_b   8.85768399
_cell_length_c   9.02346607
_cell_angle_alpha   107.96717717
_cell_angle_beta   97.11317675
_cell_angle_gamma   105.12973168
_symmetry_Int_Tables_number   1
_chemical_formula_structural   Er6CoBr10
_chemical_formula_sum   'Er6 Co1 Br10'
_cell_volume   514.12614812
_cell_formula_units_Z   1
loop_
 _symmetry_equiv_pos_site_id
 _symmetry_equiv_pos_as_xyz
  1  'x, y, z'
loop_
 _atom_site_type_symbol
 _atom_site_label
 _atom_site_symmetry_multiplicity
 _atom_site_fract_x
 _atom_site_fract_y
 _atom_site_fract_z
 _atom_site_occupancy
  Er  Er0  1  0.64311398  0.86690421  0.32399003  1
  Er  Er1  1  0.35688602  0.13309579  0.67600997  1
  Er  Er2  1  0.96900512  0.28343831  0.58564387  1
  Er  Er3  1  0.03099488  0.71656169  0.41435613  1
  Er  Er4  1  0.87905248  0.95438638  0.74515561  1
  Er  Er5  1  0.12094752  0.04561362  0.25484439  1
  Co  Co0  1  -0.00000000  0.00000000  0.50000000  1
  Br  Br0  1  0.54922307  0.18384878  0.41311194  1
  Br  Br1  1  0.45077693  0.81615122  0.58688806  1
  Br  Br2  1  0.21407558  0.74015798  0.15105361  1
  Br  Br3  1  0.78592442  0.25984202  0.84894639  1
  Br  Br4  1  0.91320754  0.62642422  0.67598477  1
  Br  Br5  1  0.08679246  0.37357578  0.32401523  1
  Br  Br6  1  0.74251563  0.91227442  0.03705036  1
  Br  Br7  1  0.25748437  0.08772558  0.96294964  1
  Br  Br8  1  0.64914251  0.54266500  0.22518186  1
  Br  Br9  1  0.35085749  0.45733500  0.77481814  1
loop_
_geom_bond_atom_site_label_1
_geom_bond_atom_site_label_2
_geom_bond_distance
_geom_bond_site_symmetry_2
Co0 Er2 2.467278 1_455
Co0 Er3 2.467278 1_545
Co0 Er4 2.579983 1_445
Co0 Er5 2.579983 1_555
Co0 Er0 2.597311 1_445
Co0 Er1 2.597311 1_555
Br0 Er0 2.951857 1_545
Br0 Er5 2.978947 1_555
Br0 Er1 2.980789 1_555
Br0 Er2 2.983340 1_555
Br1 Er1 2.951857 1_565
Br1 Er4 2.978947 1_555
Br1 Er0 2.980789 1_555
Br1 Er3 2.983340 1_555
Br2 Er5 2.860469 1_565
Br2 Er3 2.890664 1_555
Br2 Er0 3.019912 1_555
Br3 Er4 2.860469 1_545
Br3 Er2 2.890664 1_555
Br3 Er1 3.019912 1_555
Br4 Er4 2.860104 1_555
Br4 Er3 2.869155 1_655
Br4 Er2 3.040381 1_555
Br5 Er5 2.860104 1_555
Br5 Er2 2.869155 1_455
Br5 Er3 3.040381 1_555
Br6 Er5 2.866857 1_665
Br6 Er0 2.885416 1_555
Br6 Er4 3.015640 1_554
Br7 Er4 2.866857 1_445
Br7 Er1 2.885416 1_555
Br7 Er5 3.015640 1_556
Br8 Er0 2.745900 1_555
Br8 Er3 2.797517 1_655
Br9 Er1 2.745900 1_555
Br9 Er2 2.797517 1_455
