# generated using pymatgen
data_Ba5Ho8Mn4O21
_symmetry_space_group_name_H-M   'P 1'
_cell_length_a   5.78201014
_cell_length_b   10.29325944
_cell_length_c   10.29325891
_cell_angle_alpha   85.47555029
_cell_angle_beta   73.68822462
_cell_angle_gamma   73.68822586
_symmetry_Int_Tables_number   1
_chemical_formula_structural   Ba5Ho8Mn4O21
_chemical_formula_sum   'Ba5 Ho8 Mn4 O21'
_cell_volume   564.28528821
_cell_formula_units_Z   1
loop_
 _symmetry_equiv_pos_site_id
 _symmetry_equiv_pos_as_xyz
  1  'x, y, z'
loop_
 _atom_site_type_symbol
 _atom_site_label
 _atom_site_symmetry_multiplicity
 _atom_site_fract_x
 _atom_site_fract_y
 _atom_site_fract_z
 _atom_site_occupancy
  Ba  Ba0  1  0.46532600  0.39529500  0.67405400  1
  Ba  Ba1  1  0.13937900  0.32594600  0.39529500  1
  Ba  Ba2  1  0.86062100  0.67405400  0.60470500  1
  Ba  Ba3  1  0.53467400  0.60470600  0.32594600  1
  Ba  Ba4  1  0.00000000  0.00000000  0.00000000  1
  Ho  Ho0  1  0.58948600  0.05134900  0.76968100  1
  Ho  Ho1  1  0.35916500  0.23032000  0.05134900  1
  Ho  Ho2  1  0.64083400  0.76968100  0.94865100  1
  Ho  Ho3  1  0.41051400  0.94865100  0.23031900  1
  Ho  Ho4  1  0.75165500  0.07793000  0.41875900  1
  Ho  Ho5  1  0.17041400  0.58124100  0.07793000  1
  Ho  Ho6  1  0.82958600  0.41875900  0.92207000  1
  Ho  Ho7  1  0.24834400  0.92207000  0.58124100  1
  Mn  Mn0  1  0.95999200  0.79200200  0.28801600  1
  Mn  Mn1  1  0.24800700  0.71198400  0.79200100  1
  Mn  Mn2  1  0.75199300  0.28801600  0.20799900  1
  Mn  Mn3  1  0.04000800  0.20799900  0.71198400  1
  O  O0  1  0.10203400  0.89384200  0.40575900  1
  O  O1  1  0.50779200  0.59424100  0.89384200  1
  O  O2  1  0.99587500  0.40575900  0.10615800  1
  O  O3  1  0.40163400  0.10615800  0.59424100  1
  O  O4  1  0.89796700  0.10615800  0.59424100  1
  O  O5  1  0.49220800  0.40575900  0.10615800  1
  O  O6  1  0.00412400  0.59424100  0.89384200  1
  O  O7  1  0.59836600  0.89384200  0.40575900  1
  O  O8  1  0.92504100  0.87181600  0.77390200  1
  O  O9  1  0.69894400  0.22609800  0.87181600  1
  O  O10  1  0.79685700  0.77390200  0.12818400  1
  O  O11  1  0.57076000  0.12818400  0.22609800  1
  O  O12  1  0.07495900  0.12818400  0.22609800  1
  O  O13  1  0.30105600  0.77390200  0.12818400  1
  O  O14  1  0.20314300  0.22609800  0.87181600  1
  O  O15  1  0.42924000  0.87181600  0.77390200  1
  O  O16  1  0.37275000  0.66650600  0.58799500  1
  O  O17  1  0.50000100  0.00000000  0.00000000  1
  O  O18  1  0.62725200  0.33349400  0.41200500  1
  O  O19  1  0.96074500  0.41200400  0.66650600  1
  O  O20  1  0.03925500  0.58799500  0.33349400  1
loop_
_geom_bond_atom_site_label_1
_geom_bond_atom_site_label_2
_geom_bond_distance
_geom_bond_site_symmetry_2
Ba0 O18 2.659782 1_555
Ba0 O16 2.810926 1_555
Ba0 O19 2.896671 1_555
Ba0 O19 2.896676 1_455
Ba0 O14 2.943679 1_555
Ba0 O9 2.943679 1_555
Ba0 O1 3.270679 1_555
Ba0 O6 3.270684 1_555
Ba0 O4 3.292329 1_555
Ba0 O3 3.292332 1_555
Ba1 O20 2.659783 1_555
Ba1 O19 2.810923 1_455
Ba1 O18 2.896663 1_455
Ba1 O18 2.896686 1_555
Ba1 O12 2.943676 1_555
Ba1 O11 2.943682 1_555
Ba1 O4 3.270679 1_455
Ba1 O3 3.270681 1_555
Ba1 O2 3.292329 1_455
Ba1 O5 3.292332 1_555
Ba2 O19 2.659792 1_555
Ba2 O20 2.810926 1_655
Ba2 O16 2.896674 1_655
Ba2 O16 2.896674 1_555
Ba2 O8 2.943676 1_555
Ba2 O15 2.943682 1_555
Ba2 O0 3.270681 1_655
Ba2 O7 3.270681 1_555
Ba2 O6 3.292327 1_655
Ba2 O1 3.292332 1_555
Ba3 O16 2.659780 1_555
Ba3 O18 2.810935 1_555
Ba3 O20 2.896672 1_655
Ba3 O20 2.896678 1_555
Ba3 O10 2.943672 1_555
Ba3 O13 2.943675 1_555
Ba3 O2 3.270686 1_555
Ba3 O5 3.270686 1_555
Ba3 O0 3.292319 1_555
Ba3 O7 3.292322 1_555
Ba4 O17 2.890999 1_455
Ba4 O17 2.891011 1_555
Ba4 O11 2.952503 1_455
Ba4 O15 2.952503 1_544
Ba4 O13 2.952504 1_545
Ba4 O9 2.952504 1_454
Ba4 O12 2.952506 1_555
Ba4 O8 2.952506 1_444
Ba4 O14 2.952507 1_554
Ba4 O10 2.952507 1_445
Ho0 O8 2.280763 1_545
Ho0 O15 2.280774 1_545
Ho0 O4 2.314290 1_555
Ho0 O3 2.314298 1_555
Ho0 O17 2.331167 1_556
Ho0 O9 2.460244 1_555
Ho0 O14 2.460247 1_555
Ho1 O14 2.280765 1_554
Ho1 O9 2.280772 1_554
Ho1 O2 2.314285 1_455
Ho1 O5 2.314288 1_555
Ho1 O17 2.331177 1_555
Ho1 O12 2.460246 1_555
Ho1 O11 2.460253 1_555
Ho2 O10 2.280767 1_556
Ho2 O13 2.280770 1_556
Ho2 O6 2.314290 1_655
Ho2 O1 2.314294 1_555
Ho2 O17 2.331167 1_566
Ho2 O8 2.460244 1_555
Ho2 O15 2.460247 1_555
Ho3 O12 2.280763 1_565
Ho3 O11 2.280774 1_565
Ho3 O0 2.314287 1_555
Ho3 O7 2.314298 1_555
Ho3 O17 2.331167 1_565
Ho3 O13 2.460244 1_555
Ho3 O10 2.460247 1_555
Ho4 O3 2.267593 1_555
Ho4 O4 2.267597 1_555
Ho4 O7 2.333239 1_545
Ho4 O0 2.333246 1_645
Ho4 O11 2.448196 1_555
Ho4 O12 2.448203 1_655
Ho4 O18 2.525581 1_555
Ho5 O2 2.267593 1_455
Ho5 O5 2.267597 1_555
Ho5 O1 2.333242 1_554
Ho5 O6 2.333242 1_554
Ho5 O10 2.448199 1_455
Ho5 O13 2.448200 1_555
Ho5 O20 2.525580 1_555
Ho6 O6 2.267589 1_655
Ho6 O1 2.267597 1_555
Ho6 O2 2.333239 1_556
Ho6 O5 2.333242 1_556
Ho6 O14 2.448199 1_655
Ho6 O9 2.448200 1_555
Ho6 O19 2.525581 1_555
Ho7 O0 2.267589 1_555
Ho7 O7 2.267597 1_555
Ho7 O4 2.333239 1_465
Ho7 O3 2.333242 1_565
Ho7 O8 2.448199 1_455
Ho7 O15 2.448199 1_555
Ho7 O16 2.525581 1_555
Mn0 O20 2.064841 1_655
Mn0 O0 2.117874 1_655
Mn0 O7 2.117878 1_555
Mn0 O13 2.156342 1_655
Mn0 O10 2.156354 1_555
Mn1 O16 2.064831 1_555
Mn1 O6 2.117881 1_555
Mn1 O1 2.117881 1_555
Mn1 O8 2.156347 1_455
Mn1 O15 2.156347 1_555
Mn2 O18 2.064831 1_555
Mn2 O2 2.117877 1_555
Mn2 O5 2.117881 1_555
Mn2 O12 2.156347 1_655
Mn2 O11 2.156347 1_555
Mn3 O19 2.064822 1_455
Mn3 O4 2.117877 1_455
Mn3 O3 2.117881 1_555
Mn3 O9 2.156343 1_455
Mn3 O14 2.156351 1_555
