# generated using pymatgen
data_Zr2CuH5
_symmetry_space_group_name_H-M   'P 1'
_cell_length_a   5.73691390
_cell_length_b   5.73691390
_cell_length_c   8.28658939
_cell_angle_alpha   58.67679848
_cell_angle_beta   58.67679848
_cell_angle_gamma   37.09708220
_symmetry_Int_Tables_number   1
_chemical_formula_structural   Zr2CuH5
_chemical_formula_sum   'Zr4 Cu2 H10'
_cell_volume   137.56441823
_cell_formula_units_Z   2
loop_
 _symmetry_equiv_pos_site_id
 _symmetry_equiv_pos_as_xyz
  1  'x, y, z'
loop_
 _atom_site_type_symbol
 _atom_site_label
 _atom_site_symmetry_multiplicity
 _atom_site_fract_x
 _atom_site_fract_y
 _atom_site_fract_z
 _atom_site_occupancy
  Zr  Zr0  1  0.91930500  0.91930500  0.84355700  1
  Zr  Zr1  1  0.08069500  0.08069500  0.15644300  1
  Zr  Zr2  1  0.32613200  0.32613200  0.57402500  1
  Zr  Zr3  1  0.67386800  0.67386800  0.42597500  1
  Cu  Cu0  1  0.62284500  0.62284500  0.84905600  1
  Cu  Cu1  1  0.37715500  0.37715500  0.15094400  1
  H  H0  1  0.86462500  0.86462500  0.42354100  1
  H  H1  1  0.13537500  0.13537500  0.57645900  1
  H  H2  1  0.53446000  0.53446000  0.32806000  1
  H  H3  1  0.46554000  0.46554000  0.67194000  1
  H  H4  1  0.68434900  0.68434900  0.01949600  1
  H  H5  1  0.31565100  0.31565100  0.98050400  1
  H  H6  1  0.81561700  0.81561700  0.70287600  1
  H  H7  1  0.18438300  0.18438300  0.29712400  1
  H  H8  1  0.11810100  0.11810100  0.85983800  1
  H  H9  1  0.88189900  0.88189900  0.14016200  1
loop_
_geom_bond_atom_site_label_1
_geom_bond_atom_site_label_2
_geom_bond_distance
_geom_bond_site_symmetry_2
Cu0 H6 1.754640 1_555
Cu0 H8 1.826489 1_655
Cu0 H8 1.826489 1_565
Cu0 H4 1.865118 1_556
Cu1 H7 1.754640 1_555
Cu1 H9 1.826489 1_545
Cu1 H9 1.826489 1_455
Cu1 H5 1.865118 1_554
H0 Zr3 2.064028 1_555
H0 Zr2 2.118530 1_565
H0 Zr2 2.118530 1_655
H0 Zr1 2.172069 1_665
H1 Zr2 2.064028 1_555
H1 Zr3 2.118530 1_455
H1 Zr3 2.118530 1_545
H1 Zr0 2.172069 1_445
H2 Zr2 2.055289 1_555
H2 Zr3 2.075422 1_555
H2 Zr1 2.195778 1_565
H2 Zr1 2.195778 1_655
H3 Zr3 2.055289 1_555
H3 Zr2 2.075422 1_555
H3 Zr0 2.195778 1_455
H3 Zr0 2.195778 1_545
H4 Zr1 2.118098 1_565
H4 Zr1 2.118098 1_655
H4 Zr0 2.138038 1_554
H5 Zr0 2.118098 1_455
H5 Zr0 2.118098 1_545
H5 Zr1 2.138038 1_556
H6 Zr0 2.018211 1_555
H6 Zr2 2.085588 1_655
H6 Zr2 2.085588 1_565
H7 Zr1 2.018211 1_555
H7 Zr3 2.085588 1_545
H7 Zr3 2.085588 1_455
H8 Zr2 2.202818 1_555
H8 Zr0 2.239290 1_445
H8 Zr1 2.260480 1_556
H9 Zr3 2.202818 1_555
H9 Zr1 2.239290 1_665
H9 Zr0 2.260480 1_554
