# generated using pymatgen
data_CrPH12(CO)4
_symmetry_space_group_name_H-M   'P 1'
_cell_length_a   12.90299838
_cell_length_b   12.86804648
_cell_length_c   13.37184192
_cell_angle_alpha   90.00000000
_cell_angle_beta   90.00000000
_cell_angle_gamma   90.00000000
_symmetry_Int_Tables_number   1
_chemical_formula_structural   CrPH12(CO)4
_chemical_formula_sum   'Cr8 P8 H96 C32 O32'
_cell_volume   2220.21226491
_cell_formula_units_Z   8
loop_
 _symmetry_equiv_pos_site_id
 _symmetry_equiv_pos_as_xyz
  1  'x, y, z'
loop_
 _atom_site_type_symbol
 _atom_site_label
 _atom_site_symmetry_multiplicity
 _atom_site_fract_x
 _atom_site_fract_y
 _atom_site_fract_z
 _atom_site_occupancy
  Cr  Cr0  1  0.91103529  0.08779456  0.60048537  1
  Cr  Cr1  1  0.58896471  0.58779456  0.39951463  1
  Cr  Cr2  1  0.41103529  0.91220544  0.89951463  1
  Cr  Cr3  1  0.08896471  0.41220544  0.10048537  1
  Cr  Cr4  1  0.08896471  0.91220544  0.39951463  1
  Cr  Cr5  1  0.41103529  0.41220544  0.60048537  1
  Cr  Cr6  1  0.58896471  0.08779456  0.10048537  1
  Cr  Cr7  1  0.91103529  0.58779456  0.89951463  1
  P  P0  1  0.70463591  0.29636707  0.79384094  1
  P  P1  1  0.79536409  0.79636707  0.20615906  1
  P  P2  1  0.20463591  0.70363293  0.70615906  1
  P  P3  1  0.29536409  0.20363293  0.29384094  1
  P  P4  1  0.29536409  0.70363293  0.20615906  1
  P  P5  1  0.20463591  0.20363293  0.79384094  1
  P  P6  1  0.79536409  0.29636707  0.29384094  1
  P  P7  1  0.70463591  0.79636707  0.70615906  1
  H  H0  1  0.59851767  0.14392281  0.80718794  1
  H  H1  1  0.90148233  0.64392281  0.19281206  1
  H  H2  1  0.09851767  0.85607719  0.69281206  1
  H  H3  1  0.40148233  0.35607719  0.30718794  1
  H  H4  1  0.40148233  0.85607719  0.19281206  1
  H  H5  1  0.09851767  0.35607719  0.80718794  1
  H  H6  1  0.90148233  0.14392281  0.30718794  1
  H  H7  1  0.59851767  0.64392281  0.69281206  1
  H  H8  1  0.56642169  0.22020343  0.69829213  1
  H  H9  1  0.93357831  0.72020343  0.30170787  1
  H  H10  1  0.06642169  0.77979657  0.80170787  1
  H  H11  1  0.43357831  0.27979657  0.19829213  1
  H  H12  1  0.43357831  0.77979657  0.30170787  1
  H  H13  1  0.06642169  0.27979657  0.69829213  1
  H  H14  1  0.93357831  0.22020343  0.19829213  1
  H  H15  1  0.56642169  0.72020343  0.80170787  1
  H  H16  1  0.68033253  0.14073333  0.69833630  1
  H  H17  1  0.81966747  0.64073333  0.30166370  1
  H  H18  1  0.18033253  0.85926667  0.80166370  1
  H  H19  1  0.31966747  0.35926667  0.19833630  1
  H  H20  1  0.31966747  0.85926667  0.30166370  1
  H  H21  1  0.18033253  0.35926667  0.69833630  1
  H  H22  1  0.81966747  0.14073333  0.19833630  1
  H  H23  1  0.68033253  0.64073333  0.80166370  1
  H  H24  1  0.80576892  0.32100689  0.64511889  1
  H  H25  1  0.69423108  0.82100689  0.35488111  1
  H  H26  1  0.30576892  0.67899311  0.85488111  1
  H  H27  1  0.19423108  0.17899311  0.14511889  1
  H  H28  1  0.19423108  0.67899311  0.35488111  1
  H  H29  1  0.30576892  0.17899311  0.64511889  1
  H  H30  1  0.69423108  0.32100689  0.14511889  1
  H  H31  1  0.80576892  0.82100689  0.85488111  1
  H  H32  1  0.69126265  0.40022531  0.64510309  1
  H  H33  1  0.80873735  0.90022531  0.35489691  1
  H  H34  1  0.19126265  0.59977469  0.85489691  1
  H  H35  1  0.30873735  0.09977469  0.14510309  1
  H  H36  1  0.30873735  0.59977469  0.35489691  1
  H  H37  1  0.19126265  0.09977469  0.64510309  1
  H  H38  1  0.80873735  0.40022531  0.14510309  1
  H  H39  1  0.69126265  0.90022531  0.85489691  1
  H  H40  1  0.80153421  0.43670320  0.71946615  1
  H  H41  1  0.69846579  0.93670320  0.28053385  1
  H  H42  1  0.30153421  0.56329680  0.78053385  1
  H  H43  1  0.19846579  0.06329680  0.21946615  1
  H  H44  1  0.19846579  0.56329680  0.28053385  1
  H  H45  1  0.30153421  0.06329680  0.71946615  1
  H  H46  1  0.69846579  0.43670320  0.21946615  1
  H  H47  1  0.80153421  0.93670320  0.78053385  1
  H  H48  1  0.77659849  0.19906419  0.92969974  1
  H  H49  1  0.72340151  0.69906419  0.07030026  1
  H  H50  1  0.27659849  0.80093581  0.57030026  1
  H  H51  1  0.22340151  0.30093581  0.42969974  1
  H  H52  1  0.22340151  0.80093581  0.07030026  1
  H  H53  1  0.27659849  0.30093581  0.92969974  1
  H  H54  1  0.72340151  0.19906419  0.42969974  1
  H  H55  1  0.77659849  0.69906419  0.57030026  1
  H  H56  1  0.85799460  0.19511828  0.82151941  1
  H  H57  1  0.64200540  0.69511828  0.17848059  1
  H  H58  1  0.35799460  0.80488172  0.67848059  1
  H  H59  1  0.14200540  0.30488172  0.32151941  1
  H  H60  1  0.14200540  0.80488172  0.17848059  1
  H  H61  1  0.35799460  0.30488172  0.82151941  1
  H  H62  1  0.64200540  0.19511828  0.32151941  1
  H  H63  1  0.85799460  0.69511828  0.67848059  1
  H  H64  1  0.85558654  0.30977029  0.89879608  1
  H  H65  1  0.64441346  0.80977029  0.10120392  1
  H  H66  1  0.35558654  0.69022971  0.60120392  1
  H  H67  1  0.14441346  0.19022971  0.39879608  1
  H  H68  1  0.14441346  0.69022971  0.10120392  1
  H  H69  1  0.35558654  0.19022971  0.89879608  1
  H  H70  1  0.64441346  0.30977029  0.39879608  1
  H  H71  1  0.85558654  0.80977029  0.60120392  1
  H  H72  1  0.59273381  0.32917613  0.93261610  1
  H  H73  1  0.90726619  0.82917613  0.06738390  1
  H  H74  1  0.09273381  0.67082387  0.56738390  1
  H  H75  1  0.40726619  0.17082387  0.43261610  1
  H  H76  1  0.40726619  0.67082387  0.06738390  1
  H  H77  1  0.09273381  0.17082387  0.93261610  1
  H  H78  1  0.90726619  0.32917613  0.43261610  1
  H  H79  1  0.59273381  0.82917613  0.56738390  1
  H  H80  1  0.67028549  0.44096945  0.90147286  1
  H  H81  1  0.82971451  0.94096945  0.09852714  1
  H  H82  1  0.17028549  0.55903055  0.59852714  1
  H  H83  1  0.32971451  0.05903055  0.40147286  1
  H  H84  1  0.32971451  0.55903055  0.09852714  1
  H  H85  1  0.17028549  0.05903055  0.90147286  1
  H  H86  1  0.82971451  0.44096945  0.40147286  1
  H  H87  1  0.67028549  0.94096945  0.59852714  1
  H  H88  1  0.55895301  0.40747031  0.82615101  1
  H  H89  1  0.94104699  0.90747031  0.17384899  1
  H  H90  1  0.05895301  0.59252969  0.67384899  1
  H  H91  1  0.44104699  0.09252969  0.32615101  1
  H  H92  1  0.44104699  0.59252969  0.17384899  1
  H  H93  1  0.05895301  0.09252969  0.82615101  1
  H  H94  1  0.94104699  0.40747031  0.32615101  1
  H  H95  1  0.55895301  0.90747031  0.67384899  1
  C  C0  1  0.62997172  0.18985690  0.74488235  1
  C  C1  1  0.87002828  0.68985690  0.25511765  1
  C  C2  1  0.12997172  0.81014310  0.75511765  1
  C  C3  1  0.37002828  0.31014310  0.24488235  1
  C  C4  1  0.37002828  0.81014310  0.25511765  1
  C  C5  1  0.12997172  0.31014310  0.74488235  1
  C  C6  1  0.87002828  0.18985690  0.24488235  1
  C  C7  1  0.62997172  0.68985690  0.75511765  1
  C  C8  1  0.75556406  0.37090896  0.69111664  1
  C  C9  1  0.74443594  0.87090896  0.30888336  1
  C  C10  1  0.25556406  0.62909104  0.80888336  1
  C  C11  1  0.24443594  0.12909104  0.19111664  1
  C  C12  1  0.24443594  0.62909104  0.30888336  1
  C  C13  1  0.25556406  0.12909104  0.69111664  1
  C  C14  1  0.74443594  0.37090896  0.19111664  1
  C  C15  1  0.75556406  0.87090896  0.80888336  1
  C  C16  1  0.80910288  0.24570700  0.86816439  1
  C  C17  1  0.69089712  0.74570700  0.13183561  1
  C  C18  1  0.30910288  0.75429300  0.63183561  1
  C  C19  1  0.19089712  0.25429300  0.36816439  1
  C  C20  1  0.19089712  0.75429300  0.13183561  1
  C  C21  1  0.30910288  0.25429300  0.86816439  1
  C  C22  1  0.69089712  0.24570700  0.36816439  1
  C  C23  1  0.80910288  0.74570700  0.63183561  1
  C  C24  1  0.62362763  0.37672359  0.87094538  1
  C  C25  1  0.87637237  0.87672359  0.12905462  1
  C  C26  1  0.12362763  0.62327641  0.62905462  1
  C  C27  1  0.37637237  0.12327641  0.37094538  1
  C  C28  1  0.37637237  0.62327641  0.12905462  1
  C  C29  1  0.12362763  0.12327641  0.87094538  1
  C  C30  1  0.87637237  0.37672359  0.37094538  1
  C  C31  1  0.62362763  0.87672359  0.62905462  1
  O  O0  1  0.95578683  0.20358368  0.57393813  1
  O  O1  1  0.54421317  0.70358368  0.42606187  1
  O  O2  1  0.45578683  0.79641632  0.92606187  1
  O  O3  1  0.04421317  0.29641632  0.07393813  1
  O  O4  1  0.04421317  0.79641632  0.42606187  1
  O  O5  1  0.45578683  0.29641632  0.57393813  1
  O  O6  1  0.54421317  0.20358368  0.07393813  1
  O  O7  1  0.95578683  0.70358368  0.92606187  1
  O  O8  1  0.79633335  0.06919039  0.55159433  1
  O  O9  1  0.70366665  0.56919039  0.44840567  1
  O  O10  1  0.29633335  0.93080961  0.94840567  1
  O  O11  1  0.20366665  0.43080961  0.05159433  1
  O  O12  1  0.20366665  0.93080961  0.44840567  1
  O  O13  1  0.29633335  0.43080961  0.55159433  1
  O  O14  1  0.70366665  0.06919039  0.05159433  1
  O  O15  1  0.79633335  0.56919039  0.94840567  1
  O  O16  1  0.91212036  0.06480263  0.72076952  1
  O  O17  1  0.58787964  0.56480263  0.27923048  1
  O  O18  1  0.41212036  0.93519737  0.77923048  1
  O  O19  1  0.08787964  0.43519737  0.22076952  1
  O  O20  1  0.08787964  0.93519737  0.27923048  1
  O  O21  1  0.41212036  0.43519737  0.72076952  1
  O  O22  1  0.58787964  0.06480263  0.22076952  1
  O  O23  1  0.91212036  0.56480263  0.77923048  1
  O  O24  1  0.00048046  0.98963310  0.55344077  1
  O  O25  1  0.49951954  0.48963310  0.44655923  1
  O  O26  1  0.50048046  0.01036690  0.94655923  1
  O  O27  1  0.99951954  0.51036690  0.05344077  1
  O  O28  1  0.99951954  0.01036690  0.44655923  1
  O  O29  1  0.50048046  0.51036690  0.55344077  1
  O  O30  1  0.49951954  0.98963310  0.05344077  1
  O  O31  1  0.00048046  0.48963310  0.94655923  1
loop_
_geom_bond_atom_site_label_1
_geom_bond_atom_site_label_2
_geom_bond_distance
_geom_bond_site_symmetry_2
Cr0 O16 1.635465 1_555
Cr0 O8 1.635578 1_555
Cr0 O0 1.636911 1_555
Cr0 O24 1.822976 1_645
Cr1 O17 1.635465 1_555
Cr1 O9 1.635578 1_555
Cr1 O1 1.636911 1_555
Cr1 O25 1.822976 1_555
Cr2 O18 1.635465 1_555
Cr2 O10 1.635578 1_555
Cr2 O2 1.636911 1_555
Cr2 O26 1.822976 1_565
Cr3 O19 1.635465 1_555
Cr3 O11 1.635578 1_555
Cr3 O3 1.636911 1_555
Cr3 O27 1.822976 1_455
Cr4 O20 1.635465 1_555
Cr4 O12 1.635578 1_555
Cr4 O4 1.636911 1_555
Cr4 O28 1.822976 1_465
Cr5 O21 1.635465 1_555
Cr5 O13 1.635578 1_555
Cr5 O5 1.636911 1_555
Cr5 O29 1.822976 1_555
Cr6 O22 1.635465 1_555
Cr6 O14 1.635578 1_555
Cr6 O6 1.636911 1_555
Cr6 O30 1.822976 1_545
Cr7 O23 1.635465 1_555
Cr7 O15 1.635578 1_555
Cr7 O7 1.636911 1_555
Cr7 O31 1.822976 1_655
C0 H0 1.099189 1_555
C0 H16 1.099645 1_555
C0 H8 1.101360 1_555
C0 P0 1.798665 1_555
C1 H1 1.099189 1_555
C1 H17 1.099645 1_555
C1 H9 1.101360 1_555
C1 P1 1.798665 1_555
C2 H2 1.099189 1_555
C2 H18 1.099645 1_555
C2 H10 1.101360 1_555
C2 P2 1.798665 1_555
C3 H3 1.099189 1_555
C3 H19 1.099645 1_555
C3 H11 1.101360 1_555
C3 P3 1.798665 1_555
C4 H4 1.099189 1_555
C4 H20 1.099645 1_555
C4 H12 1.101360 1_555
C4 P4 1.798665 1_555
C5 H5 1.099189 1_555
C5 H21 1.099645 1_555
C5 H13 1.101360 1_555
C5 P5 1.798665 1_555
C6 H6 1.099189 1_555
C6 H22 1.099645 1_555
C6 H14 1.101360 1_555
C6 P6 1.798665 1_555
C7 H7 1.099189 1_555
C7 H23 1.099645 1_555
C7 H15 1.101360 1_555
C7 P7 1.798665 1_555
C8 H32 1.099664 1_555
C8 H24 1.100136 1_555
C8 H40 1.101063 1_555
C8 P0 1.799641 1_555
C9 H33 1.099664 1_555
C9 H25 1.100136 1_555
C9 H41 1.101063 1_555
C9 P1 1.799641 1_555
C10 H34 1.099664 1_555
C10 H26 1.100136 1_555
C10 H42 1.101063 1_555
C10 P2 1.799641 1_555
C11 H35 1.099664 1_555
C11 H27 1.100136 1_555
C11 H43 1.101063 1_555
C11 P3 1.799641 1_555
C12 H36 1.099664 1_555
C12 H28 1.100136 1_555
C12 H44 1.101063 1_555
C12 P4 1.799641 1_555
C13 H37 1.099664 1_555
C13 H29 1.100136 1_555
C13 H45 1.101063 1_555
C13 P5 1.799641 1_555
C14 H38 1.099664 1_555
C14 H30 1.100136 1_555
C14 H46 1.101063 1_555
C14 P6 1.799641 1_555
C15 H39 1.099664 1_555
C15 H31 1.100136 1_555
C15 H47 1.101063 1_555
C15 P7 1.799641 1_555
C16 H64 1.098678 1_555
C16 H56 1.100355 1_555
C16 H48 1.101458 1_555
C16 P0 1.797115 1_555
C17 H65 1.098678 1_555
C17 H57 1.100355 1_555
C17 H49 1.101458 1_555
C17 P1 1.797115 1_555
C18 H66 1.098678 1_555
C18 H58 1.100355 1_555
C18 H50 1.101458 1_555
C18 P2 1.797115 1_555
C19 H67 1.098678 1_555
C19 H59 1.100355 1_555
C19 H51 1.101458 1_555
C19 P3 1.797115 1_555
C20 H68 1.098678 1_555
C20 H60 1.100355 1_555
C20 H52 1.101458 1_555
C20 P4 1.797115 1_555
C21 H69 1.098678 1_555
C21 H61 1.100355 1_555
C21 H53 1.101458 1_555
C21 P5 1.797115 1_555
C22 H70 1.098678 1_555
C22 H62 1.100355 1_555
C22 H54 1.101458 1_555
C22 P6 1.797115 1_555
C23 H71 1.098678 1_555
C23 H63 1.100355 1_555
C23 H55 1.101458 1_555
C23 P7 1.797115 1_555
C24 H88 1.100774 1_555
C24 H80 1.101151 1_555
C24 H72 1.101500 1_555
C24 P0 1.795769 1_555
C25 H89 1.100774 1_555
C25 H81 1.101151 1_555
C25 H73 1.101500 1_555
C25 P1 1.795769 1_555
C26 H90 1.100774 1_555
C26 H82 1.101151 1_555
C26 H74 1.101500 1_555
C26 P2 1.795769 1_555
C27 H91 1.100774 1_555
C27 H83 1.101151 1_555
C27 H75 1.101500 1_555
C27 P3 1.795769 1_555
C28 H92 1.100774 1_555
C28 H84 1.101151 1_555
C28 H76 1.101500 1_555
C28 P4 1.795769 1_555
C29 H93 1.100774 1_555
C29 H85 1.101151 1_555
C29 H77 1.101500 1_555
C29 P5 1.795769 1_555
C30 H94 1.100774 1_555
C30 H86 1.101151 1_555
C30 H78 1.101500 1_555
C30 P6 1.795769 1_555
C31 H95 1.100774 1_555
C31 H87 1.101151 1_555
C31 H79 1.101500 1_555
C31 P7 1.795769 1_555
