# generated using pymatgen
data_BaGe(PO4)2
_symmetry_space_group_name_H-M   'P 1'
_cell_length_a   4.80889670
_cell_length_b   4.80889670
_cell_length_c   7.88144248
_cell_angle_alpha   86.07746718
_cell_angle_beta   86.07746718
_cell_angle_gamma   64.62875045
_symmetry_Int_Tables_number   1
_chemical_formula_structural   BaGe(PO4)2
_chemical_formula_sum   'Ba1 Ge1 P2 O8'
_cell_volume   164.14270888
_cell_formula_units_Z   1
loop_
 _symmetry_equiv_pos_site_id
 _symmetry_equiv_pos_as_xyz
  1  'x, y, z'
loop_
 _atom_site_type_symbol
 _atom_site_label
 _atom_site_symmetry_multiplicity
 _atom_site_fract_x
 _atom_site_fract_y
 _atom_site_fract_z
 _atom_site_occupancy
  Ba  Ba0  1  0.00000000  0.00000000  0.50000000  1
  Ge  Ge0  1  0.00000000  0.00000000  0.00000000  1
  P  P0  1  0.36701200  0.36701200  0.80569300  1
  P  P1  1  0.63298800  0.63298800  0.19430700  1
  O  O0  1  0.22783200  0.22783200  0.94864000  1
  O  O1  1  0.77216800  0.77216800  0.05136000  1
  O  O2  1  0.31831500  0.31831500  0.62263700  1
  O  O3  1  0.68168500  0.68168500  0.37736300  1
  O  O4  1  0.23034700  0.72478000  0.82591100  1
  O  O5  1  0.72478000  0.23034700  0.82591100  1
  O  O6  1  0.76965300  0.27522000  0.17408900  1
  O  O7  1  0.27522000  0.76965300  0.17408900  1
loop_
_geom_bond_atom_site_label_1
_geom_bond_atom_site_label_2
_geom_bond_distance
_geom_bond_site_symmetry_2
Ba0 O2 2.834335 1_555
Ba0 O3 2.834335 1_445
Ba0 O5 2.871316 1_455
Ba0 O4 2.871316 1_545
Ba0 O7 2.871316 1_545
Ba0 O6 2.871316 1_455
Ba0 O3 3.080968 1_545
Ba0 O3 3.080968 1_455
Ba0 O2 3.080968 1_545
Ba0 O2 3.080968 1_455
Ge0 O0 1.863318 1_554
Ge0 O1 1.863318 1_445
Ge0 O4 1.909299 1_544
Ge0 O5 1.909299 1_454
Ge0 O7 1.909299 1_545
Ge0 O6 1.909299 1_455
O0 P0 1.530614 1_555
O1 P1 1.530614 1_555
O2 P0 1.526643 1_555
O3 P1 1.526643 1_555
O4 P0 1.572112 1_555
O5 P0 1.572112 1_555
O6 P1 1.572112 1_555
O7 P1 1.572112 1_555
