# generated using pymatgen
data_Nd4CdNi
_symmetry_space_group_name_H-M   'P 1'
_cell_length_a   9.82445356
_cell_length_b   9.82449155
_cell_length_c   9.82446496
_cell_angle_alpha   60.00166104
_cell_angle_beta   60.00149974
_cell_angle_gamma   60.00162992
_symmetry_Int_Tables_number   1
_chemical_formula_structural   Nd4CdNi
_chemical_formula_sum   'Nd16 Cd4 Ni4'
_cell_volume   670.54529741
_cell_formula_units_Z   4
loop_
 _symmetry_equiv_pos_site_id
 _symmetry_equiv_pos_as_xyz
  1  'x, y, z'
loop_
 _atom_site_type_symbol
 _atom_site_label
 _atom_site_symmetry_multiplicity
 _atom_site_fract_x
 _atom_site_fract_y
 _atom_site_fract_z
 _atom_site_occupancy
  Nd  Nd0  1  0.59784976  0.59784853  0.59784958  1
  Nd  Nd1  1  0.59784878  0.59784723  0.20645482  1
  Nd  Nd2  1  0.59784765  0.20645780  0.59784658  1
  Nd  Nd3  1  0.20645497  0.59784770  0.59784821  1
  Nd  Nd4  1  0.05896688  0.44103270  0.44103244  1
  Nd  Nd5  1  0.44103166  0.05897248  0.05896635  1
  Nd  Nd6  1  0.44103109  0.05897183  0.44102980  1
  Nd  Nd7  1  0.05896749  0.44103336  0.05896712  1
  Nd  Nd8  1  0.44103305  0.44103195  0.05896678  1
  Nd  Nd9  1  0.05896667  0.05897222  0.44103110  1
  Nd  Nd10  1  0.18732603  0.81267899  0.81267665  1
  Nd  Nd11  1  0.81267425  0.18732112  0.18732342  1
  Nd  Nd12  1  0.81267937  0.18732042  0.81268197  1
  Nd  Nd13  1  0.18732320  0.81267545  0.18732368  1
  Nd  Nd14  1  0.81267538  0.81268002  0.18732587  1
  Nd  Nd15  1  0.18732353  0.18732166  0.81267415  1
  Cd  Cd0  1  0.82930526  0.82931003  0.82930445  1
  Cd  Cd1  1  0.82930597  0.82931198  0.51208103  1
  Cd  Cd2  1  0.82930892  0.51207861  0.82930880  1
  Cd  Cd3  1  0.51208255  0.82931114  0.82930518  1
  Ni  Ni0  1  0.39224689  0.39224133  0.39225024  1
  Ni  Ni1  1  0.39224105  0.39223529  0.82326866  1
  Ni  Ni2  1  0.39223923  0.82326610  0.39224150  1
  Ni  Ni3  1  0.82327138  0.39223305  0.39224263  1
loop_
_geom_bond_atom_site_label_1
_geom_bond_atom_site_label_2
_geom_bond_distance
_geom_bond_site_symmetry_2
Nd0 Ni2 2.863378 1_555
Nd0 Ni1 2.863399 1_555
Nd0 Ni3 2.863404 1_555
Nd1 Ni2 2.863286 1_555
Nd1 Ni0 2.863288 1_555
Nd1 Ni3 2.863320 1_555
Nd2 Ni0 2.863219 1_555
Nd2 Ni3 2.863243 1_555
Nd2 Ni1 2.863247 1_555
Nd3 Ni0 2.863266 1_555
Nd3 Ni2 2.863266 1_555
Nd3 Ni1 2.863294 1_555
Nd4 Ni3 2.875989 1_455
Nd4 Ni0 2.876033 1_555
Nd5 Ni1 2.875953 1_554
Nd5 Ni2 2.876053 1_545
Nd6 Ni0 2.875978 1_555
Nd6 Ni2 2.876034 1_545
Nd7 Ni1 2.876008 1_554
Nd7 Ni3 2.876016 1_455
Nd8 Ni1 2.876011 1_554
Nd8 Ni0 2.876060 1_555
Nd9 Ni3 2.875931 1_455
Nd9 Ni2 2.876032 1_545
Nd10 Ni2 3.548207 1_555
Nd10 Ni1 3.548281 1_555
Nd11 Ni3 3.548040 1_555
Nd11 Ni0 3.548185 1_555
Nd12 Ni3 3.548235 1_555
Nd12 Ni1 3.548235 1_555
Nd13 Ni2 3.548022 1_555
Nd13 Ni0 3.548249 1_555
Nd14 Ni2 3.548214 1_555
Nd14 Ni3 3.548299 1_555
Nd15 Ni1 3.548024 1_555
Nd15 Ni0 3.548158 1_555
Cd0 Cd3 3.116531 1_555
Cd0 Cd1 3.116537 1_555
Cd0 Cd2 3.116598 1_555
Cd0 Nd12 3.361899 1_565
Cd0 Nd10 3.361940 1_655
Cd0 Nd14 3.361946 1_556
Cd0 Nd2 3.520086 1_565
Cd0 Nd3 3.520096 1_655
Cd0 Nd1 3.520104 1_556
Cd0 Nd9 3.551143 1_665
Cd0 Nd5 3.551144 1_566
Cd0 Nd7 3.551172 1_656
Cd1 Cd3 3.116623 1_555
Cd1 Cd2 3.116703 1_555
Cd1 Nd14 3.361882 1_555
Cd1 Nd11 3.361944 1_565
Cd1 Nd13 3.361971 1_655
Cd1 Nd0 3.520021 1_555
Cd1 Nd2 3.520029 1_565
Cd1 Nd3 3.520054 1_655
Cd1 Nd9 3.551029 1_665
Cd1 Nd6 3.551128 1_565
Cd1 Nd4 3.551164 1_655
Cd2 Cd3 3.116689 1_555
Cd2 Nd12 3.361887 1_555
Cd2 Nd15 3.361965 1_655
Cd2 Nd11 3.361971 1_556
Cd2 Nd0 3.520003 1_555
Cd2 Nd3 3.520032 1_655
Cd2 Nd1 3.520033 1_556
Cd2 Nd7 3.551013 1_656
Cd2 Nd8 3.551112 1_556
Cd2 Nd4 3.551116 1_655
Cd3 Nd10 3.361882 1_555
Cd3 Nd15 3.361955 1_565
Cd3 Nd13 3.361987 1_556
Cd3 Nd0 3.520016 1_555
Cd3 Nd2 3.520035 1_565
Cd3 Nd1 3.520059 1_556
Cd3 Nd5 3.551040 1_566
Cd3 Nd6 3.551138 1_565
Cd3 Nd8 3.551168 1_556
