# generated using pymatgen
data_Mo3W(SeS3)2
_symmetry_space_group_name_H-M   'P 1'
_cell_length_a   3.22227474
_cell_length_b   3.22227474
_cell_length_c   36.30303600
_cell_angle_alpha   90.00000000
_cell_angle_beta   90.00000000
_cell_angle_gamma   120.00001526
_symmetry_Int_Tables_number   1
_chemical_formula_structural   Mo3W(SeS3)2
_chemical_formula_sum   'Mo3 W1 Se2 S6'
_cell_volume   326.43644958
_cell_formula_units_Z   1
loop_
 _symmetry_equiv_pos_site_id
 _symmetry_equiv_pos_as_xyz
  1  'x, y, z'
loop_
 _atom_site_type_symbol
 _atom_site_label
 _atom_site_symmetry_multiplicity
 _atom_site_fract_x
 _atom_site_fract_y
 _atom_site_fract_z
 _atom_site_occupancy
  Mo  Mo0  1  0.00000000  0.00000000  0.09393200  1
  Mo  Mo1  1  0.33333300  0.66666700  0.28180400  1
  Mo  Mo2  1  0.33333300  0.66666700  0.65754300  1
  W  W0  1  0.00000000  0.00000000  0.46965600  1
  Se  Se0  1  0.33333300  0.66666700  0.42228800  1
  Se  Se1  1  0.33333300  0.66666700  0.51703300  1
  S  S0  1  0.00000000  0.00000000  0.32460400  1
  S  S1  1  0.00000000  0.00000000  0.70037600  1
  S  S2  1  0.33333300  0.66666700  0.05108200  1
  S  S3  1  0.33333300  0.66666700  0.13675600  1
  S  S4  1  0.00000000  0.00000000  0.23896500  1
  S  S5  1  0.00000000  0.00000000  0.61470800  1
loop_
_geom_bond_atom_site_label_1
_geom_bond_atom_site_label_2
_geom_bond_distance
_geom_bond_site_symmetry_2
Mo0 S3 2.424442 1_545
Mo0 S3 2.424444 1_445
Mo0 S3 2.424444 1_555
Mo0 S2 2.425048 1_545
Mo0 S2 2.425050 1_555
Mo0 S2 2.425050 1_445
Mo1 S0 2.423884 1_565
Mo1 S0 2.423886 1_555
Mo1 S0 2.423886 1_665
Mo1 S4 2.424792 1_565
Mo1 S4 2.424793 1_555
Mo1 S4 2.424793 1_665
Mo2 S1 2.424652 1_565
Mo2 S1 2.424654 1_665
Mo2 S1 2.424654 1_555
Mo2 S5 2.424699 1_565
Mo2 S5 2.424700 1_665
Mo2 S5 2.424700 1_555
Se0 W0 2.533386 1_565
Se0 W0 2.533388 1_665
Se0 W0 2.533388 1_555
Se1 W0 2.533608 1_565
Se1 W0 2.533609 1_555
Se1 W0 2.533609 1_665
