# generated using pymatgen
data_KNaV6(PbO3)8
_symmetry_space_group_name_H-M   'P 1'
_cell_length_a   10.29150048
_cell_length_b   10.29150048
_cell_length_c   7.49063400
_cell_angle_alpha   90.00000000
_cell_angle_beta   90.00000000
_cell_angle_gamma   120.00000310
_symmetry_Int_Tables_number   1
_chemical_formula_structural   KNaV6(PbO3)8
_chemical_formula_sum   'K1 Na1 V6 Pb8 O24'
_cell_volume   687.07887063
_cell_formula_units_Z   1
loop_
 _symmetry_equiv_pos_site_id
 _symmetry_equiv_pos_as_xyz
  1  'x, y, z'
loop_
 _atom_site_type_symbol
 _atom_site_label
 _atom_site_symmetry_multiplicity
 _atom_site_fract_x
 _atom_site_fract_y
 _atom_site_fract_z
 _atom_site_occupancy
  K  K0  1  0.33333300  0.66666700  0.48750100  1
  Na  Na0  1  0.00000000  0.00000000  0.01155400  1
  V  V0  1  0.27458300  0.31565400  0.75394300  1
  V  V1  1  0.04107100  0.72541700  0.75394300  1
  V  V2  1  0.68434600  0.95892900  0.75394300  1
  V  V3  1  0.05725000  0.34736700  0.24990500  1
  V  V4  1  0.29011800  0.94275000  0.24990500  1
  V  V5  1  0.65263300  0.70988200  0.24990500  1
  Pb  Pb0  1  0.66541200  0.07661900  0.24855800  1
  Pb  Pb1  1  0.41120800  0.33458800  0.24855800  1
  Pb  Pb2  1  0.92338100  0.58879200  0.24855800  1
  Pb  Pb3  1  0.66997500  0.59124400  0.75094600  1
  Pb  Pb4  1  0.92126900  0.33002500  0.75094600  1
  Pb  Pb5  1  0.40875600  0.07873100  0.75094600  1
  Pb  Pb6  1  0.33333300  0.66666700  0.97513700  1
  Pb  Pb7  1  0.00000000  0.00000000  0.47522900  1
  O  O0  1  0.17394600  0.74586900  0.24627200  1
  O  O1  1  0.57192300  0.82605400  0.24627200  1
  O  O2  1  0.25413100  0.42807700  0.24627200  1
  O  O3  1  0.15775300  0.92285500  0.75147500  1
  O  O4  1  0.76510300  0.84224700  0.75147500  1
  O  O5  1  0.07714500  0.23489700  0.75147500  1
  O  O6  1  0.40999900  0.99487600  0.43141500  1
  O  O7  1  0.58487700  0.59000100  0.43141500  1
  O  O8  1  0.00512400  0.41512300  0.43141500  1
  O  O9  1  0.91908200  0.67222400  0.93370900  1
  O  O10  1  0.75314200  0.08091800  0.93370900  1
  O  O11  1  0.32777600  0.24685800  0.93370900  1
  O  O12  1  0.92557900  0.67288400  0.56768300  1
  O  O13  1  0.74730400  0.07442100  0.56768300  1
  O  O14  1  0.32711600  0.25269600  0.56768300  1
  O  O15  1  0.40927700  0.99524500  0.06670100  1
  O  O16  1  0.58596800  0.59072300  0.06670100  1
  O  O17  1  0.00475500  0.41403200  0.06670100  1
  O  O18  1  0.14269700  0.63115200  0.76320700  1
  O  O19  1  0.48845500  0.85730300  0.76320700  1
  O  O20  1  0.36884800  0.51154500  0.76320700  1
  O  O21  1  0.18680800  0.03599600  0.25296700  1
  O  O22  1  0.84918800  0.81319200  0.25296700  1
  O  O23  1  0.96400400  0.15081200  0.25296700  1
loop_
_geom_bond_atom_site_label_1
_geom_bond_atom_site_label_2
_geom_bond_distance
_geom_bond_site_symmetry_2
K0 O18 2.744226 1_555
K0 O19 2.744228 1_555
K0 O20 2.744233 1_555
K0 O0 2.820856 1_555
K0 O1 2.820862 1_555
K0 O2 2.820864 1_555
K0 O6 3.089213 1_555
K0 O8 3.089216 1_555
K0 O7 3.089223 1_555
Na0 O22 2.528091 1_445
Na0 O21 2.528092 1_555
Na0 O23 2.528092 1_455
Na0 O5 2.889703 1_554
Na0 O4 2.889704 1_444
Na0 O3 2.889710 1_544
O0 V4 1.764414 1_555
O0 Pb2 2.257120 1_455
O1 V5 1.764423 1_555
O1 Pb0 2.257119 1_565
O2 V3 1.764413 1_555
O2 Pb1 2.257129 1_555
O3 V1 1.769486 1_555
O3 Pb5 2.258853 1_565
O4 V2 1.769495 1_555
O4 Pb3 2.258851 1_555
O5 V0 1.769485 1_555
O5 Pb4 2.258861 1_455
O6 V4 1.731087 1_555
O6 Pb5 2.546518 1_565
O6 Pb0 2.698512 1_565
O7 V5 1.731087 1_555
O7 Pb3 2.546518 1_555
O7 Pb1 2.698510 1_555
O8 V3 1.731093 1_555
O8 Pb4 2.546518 1_455
O8 Pb2 2.698503 1_455
O9 V1 1.732567 1_655
O9 Pb2 2.517806 1_556
O9 Pb3 2.646629 1_555
O10 V2 1.732567 1_545
O10 Pb0 2.517803 1_556
O10 Pb4 2.646629 1_555
O11 V0 1.732567 1_555
O11 Pb1 2.517804 1_556
O11 Pb5 2.646629 1_555
O12 V1 1.734655 1_655
O12 Pb2 2.538534 1_555
O12 Pb3 2.701851 1_555
O13 V2 1.734655 1_545
O13 Pb0 2.538527 1_555
O13 Pb4 2.701852 1_555
O14 V0 1.734650 1_555
O14 Pb1 2.538530 1_555
O14 Pb5 2.701859 1_555
O15 V4 1.736798 1_555
O15 Pb5 2.517350 1_564
O15 Pb0 2.701482 1_565
O16 V5 1.736798 1_555
O16 Pb3 2.517350 1_554
O16 Pb1 2.701480 1_555
O17 V3 1.736803 1_555
O17 Pb4 2.517350 1_454
O17 Pb2 2.701474 1_455
O18 V1 1.747707 1_555
O18 Pb6 2.405368 1_555
O18 Pb4 2.782695 1_455
O19 V2 1.747707 1_555
O19 Pb6 2.405371 1_555
O19 Pb5 2.782695 1_565
O20 V0 1.747707 1_555
O20 Pb6 2.405376 1_555
O20 Pb3 2.782695 1_555
O21 V4 1.752760 1_545
O21 Pb7 2.427551 1_555
O21 Pb1 2.771430 1_555
O22 V5 1.752751 1_555
O22 Pb7 2.427551 1_665
O22 Pb2 2.771438 1_555
O23 V3 1.752751 1_655
O23 Pb7 2.427551 1_655
O23 Pb0 2.771428 1_555
