# generated using pymatgen
data_Ca2La4Ti5O18
_symmetry_space_group_name_H-M   'P 1'
_cell_length_a   5.53541028
_cell_length_b   5.53541028
_cell_length_c   13.71159998
_cell_angle_alpha   78.35475578
_cell_angle_beta   78.35475578
_cell_angle_gamma   59.99999669
_symmetry_Int_Tables_number   1
_chemical_formula_structural   Ca2La4Ti5O18
_chemical_formula_sum   'Ca2 La4 Ti5 O18'
_cell_volume   353.82561182
_cell_formula_units_Z   1
loop_
 _symmetry_equiv_pos_site_id
 _symmetry_equiv_pos_as_xyz
  1  'x, y, z'
loop_
 _atom_site_type_symbol
 _atom_site_label
 _atom_site_symmetry_multiplicity
 _atom_site_fract_x
 _atom_site_fract_y
 _atom_site_fract_z
 _atom_site_occupancy
  Ca  Ca0  1  0.36087300  0.36087300  0.91738100  1
  Ca  Ca1  1  0.63912700  0.63912700  0.08261900  1
  La  La0  1  0.08700300  0.08700300  0.73899000  1
  La  La1  1  0.91299700  0.91299700  0.26101000  1
  La  La2  1  0.18722300  0.18722300  0.43833000  1
  La  La3  1  0.81277700  0.81277700  0.56167000  1
  Ti  Ti0  1  0.00000000  0.00000000  0.00000000  1
  Ti  Ti1  1  0.44960500  0.44960500  0.65118500  1
  Ti  Ti2  1  0.55039500  0.55039500  0.34881500  1
  Ti  Ti3  1  0.27685200  0.27685200  0.16944500  1
  Ti  Ti4  1  0.72314800  0.72314800  0.83055500  1
  O  O0  1  0.91589300  0.41689200  0.25032200  1
  O  O1  1  0.41689200  0.41689200  0.25032200  1
  O  O2  1  0.41689200  0.91589300  0.25032200  1
  O  O3  1  0.08410700  0.58310800  0.74967800  1
  O  O4  1  0.58310800  0.58310800  0.74967800  1
  O  O5  1  0.58310800  0.08410700  0.74967800  1
  O  O6  1  0.36016000  0.86181800  0.91620400  1
  O  O7  1  0.86181800  0.86181800  0.91620400  1
  O  O8  1  0.86181800  0.36016000  0.91620400  1
  O  O9  1  0.63984000  0.13818200  0.08379600  1
  O  O10  1  0.13818200  0.13818200  0.08379600  1
  O  O11  1  0.13818200  0.63984000  0.08379600  1
  O  O12  1  0.81751100  0.29780000  0.58688800  1
  O  O13  1  0.29780000  0.29780000  0.58688800  1
  O  O14  1  0.29780000  0.81751100  0.58688800  1
  O  O15  1  0.18248900  0.70220000  0.41311200  1
  O  O16  1  0.70220000  0.70220000  0.41311200  1
  O  O17  1  0.70220000  0.18248900  0.41311200  1
loop_
_geom_bond_atom_site_label_1
_geom_bond_atom_site_label_2
_geom_bond_distance
_geom_bond_site_symmetry_2
Ca0 O10 2.737552 1_556
Ca0 O9 2.737552 1_556
Ca0 O11 2.737552 1_556
Ca0 O3 2.746551 1_555
Ca0 O5 2.746551 1_555
Ca0 O4 2.746553 1_555
Ca0 O7 2.767755 1_545
Ca0 O7 2.767755 1_455
Ca0 O6 2.767755 1_555
Ca0 O8 2.767755 1_555
Ca0 O8 2.767755 1_455
Ca0 O6 2.767755 1_545
Ca1 O7 2.737552 1_554
Ca1 O8 2.737552 1_554
Ca1 O6 2.737552 1_554
Ca1 O2 2.746551 1_555
Ca1 O0 2.746551 1_555
Ca1 O1 2.746553 1_555
Ca1 O10 2.767755 1_655
Ca1 O10 2.767755 1_565
Ca1 O9 2.767755 1_555
Ca1 O11 2.767755 1_555
Ca1 O11 2.767755 1_655
Ca1 O9 2.767755 1_565
La0 O14 2.543486 1_545
La0 O12 2.543486 1_455
La0 O13 2.543486 1_555
La0 O5 2.771368 1_455
La0 O3 2.771368 1_545
La0 O4 2.771374 1_545
La0 O4 2.771374 1_455
La0 O5 2.771379 1_555
La0 O3 2.771379 1_555
La0 O7 2.849575 1_445
La0 O8 2.849578 1_455
La0 O6 2.849578 1_545
La1 O17 2.543486 1_565
La1 O15 2.543486 1_655
La1 O16 2.543486 1_555
La1 O0 2.771368 1_565
La1 O2 2.771368 1_655
La1 O1 2.771374 1_655
La1 O1 2.771374 1_565
La1 O2 2.771379 1_555
La1 O0 2.771379 1_555
La1 O10 2.849575 1_665
La1 O11 2.849578 1_655
La1 O9 2.849578 1_565
La2 O12 2.505968 1_455
La2 O14 2.505968 1_545
La2 O13 2.505968 1_555
La2 O17 2.788763 1_455
La2 O15 2.788763 1_545
La2 O16 2.788768 1_545
La2 O16 2.788768 1_455
La2 O15 2.788774 1_555
La2 O17 2.788774 1_555
La2 O1 2.974577 1_555
La2 O0 2.974577 1_455
La2 O2 2.974577 1_545
La3 O17 2.505968 1_565
La3 O15 2.505968 1_655
La3 O16 2.505968 1_555
La3 O14 2.788763 1_655
La3 O12 2.788763 1_565
La3 O13 2.788768 1_655
La3 O13 2.788768 1_565
La3 O12 2.788774 1_555
La3 O14 2.788774 1_555
La3 O4 2.974577 1_555
La3 O5 2.974577 1_565
La3 O3 2.974577 1_655
O0 Ti3 1.930438 1_655
O0 Ti2 2.065904 1_555
O1 Ti3 1.930430 1_555
O1 Ti2 2.065908 1_555
O2 Ti3 1.930438 1_565
O2 Ti2 2.065904 1_555
O3 Ti4 1.930438 1_455
O3 Ti1 2.065904 1_555
O4 Ti4 1.930430 1_555
O4 Ti1 2.065908 1_555
O5 Ti4 1.930438 1_545
O5 Ti1 2.065904 1_555
O6 Ti0 1.945488 1_566
O6 Ti4 1.968403 1_555
O7 Ti0 1.945488 1_666
O7 Ti4 1.968407 1_555
O8 Ti0 1.945488 1_656
O8 Ti4 1.968403 1_555
O9 Ti0 1.945488 1_655
O9 Ti3 1.968403 1_555
O10 Ti0 1.945488 1_555
O10 Ti3 1.968407 1_555
O11 Ti0 1.945488 1_565
O11 Ti3 1.968403 1_555
O12 Ti1 1.869144 1_555
O13 Ti1 1.869149 1_555
O14 Ti1 1.869144 1_555
O15 Ti2 1.869144 1_555
O16 Ti2 1.869149 1_555
O17 Ti2 1.869144 1_555
