# generated using pymatgen
data_Lu(Mg4Al3)4
_symmetry_space_group_name_H-M   'P 1'
_cell_length_a   9.26581809
_cell_length_b   9.26581809
_cell_length_c   9.26581825
_cell_angle_alpha   110.43016644
_cell_angle_beta   110.43016644
_cell_angle_gamma   110.43016546
_symmetry_Int_Tables_number   1
_chemical_formula_structural   Lu(Mg4Al3)4
_chemical_formula_sum   'Lu1 Mg16 Al12'
_cell_volume   589.64909731
_cell_formula_units_Z   1
loop_
 _symmetry_equiv_pos_site_id
 _symmetry_equiv_pos_as_xyz
  1  'x, y, z'
loop_
 _atom_site_type_symbol
 _atom_site_label
 _atom_site_symmetry_multiplicity
 _atom_site_fract_x
 _atom_site_fract_y
 _atom_site_fract_z
 _atom_site_occupancy
  Lu  Lu0  1  0.62797100  0.62797100  0.62797100  1
  Mg  Mg0  1  0.00473100  0.34473300  0.00473100  1
  Mg  Mg1  1  0.68518200  0.28265200  0.68518200  1
  Mg  Mg2  1  0.00233400  0.00233400  0.00233400  1
  Mg  Mg3  1  0.39091000  0.72052200  0.39091000  1
  Mg  Mg4  1  0.31080100  0.99822400  0.60602000  1
  Mg  Mg5  1  0.99822400  0.60602000  0.31080100  1
  Mg  Mg6  1  0.39091000  0.39091000  0.72052200  1
  Mg  Mg7  1  0.00473100  0.00473100  0.34473300  1
  Mg  Mg8  1  0.60602000  0.31080100  0.99822400  1
  Mg  Mg9  1  0.28265200  0.68518200  0.68518200  1
  Mg  Mg10  1  0.68518200  0.68518200  0.28265200  1
  Mg  Mg11  1  0.99822400  0.31080100  0.60602000  1
  Mg  Mg12  1  0.34473300  0.00473100  0.00473100  1
  Mg  Mg13  1  0.72052200  0.39091000  0.39091000  1
  Mg  Mg14  1  0.31080100  0.60602000  0.99822400  1
  Mg  Mg15  1  0.60602000  0.99822400  0.31080100  1
  Al  Al0  1  0.37084200  0.19156400  0.37084200  1
  Al  Al1  1  0.19009600  0.82548400  0.19009600  1
  Al  Al2  1  0.63583200  0.99566300  0.81406400  1
  Al  Al3  1  0.19156400  0.37084200  0.37084200  1
  Al  Al4  1  0.81406400  0.63583200  0.99566300  1
  Al  Al5  1  0.63583200  0.81406400  0.99566300  1
  Al  Al6  1  0.82548400  0.19009600  0.19009600  1
  Al  Al7  1  0.19009600  0.19009600  0.82548400  1
  Al  Al8  1  0.99566300  0.81406400  0.63583200  1
  Al  Al9  1  0.99566300  0.63583200  0.81406400  1
  Al  Al10  1  0.37084200  0.37084200  0.19156400  1
  Al  Al11  1  0.81406400  0.99566300  0.63583200  1
loop_
_geom_bond_atom_site_label_1
_geom_bond_atom_site_label_2
_geom_bond_distance
_geom_bond_site_symmetry_2
Lu0 Mg13 3.105948 1_555
Lu0 Mg3 3.105948 1_555
Lu0 Mg6 3.105948 1_555
Lu0 Mg2 3.301008 1_666
Lu0 Mg9 3.601663 1_555
Lu0 Mg1 3.601663 1_555
Lu0 Mg10 3.601663 1_555
Mg0 Mg5 3.055451 1_455
Mg0 Mg14 3.055451 1_554
Mg0 Mg1 3.060400 1_454
Mg0 Mg2 3.157165 1_555
Mg0 Mg3 3.375894 1_555
Mg1 Mg4 3.163671 1_545
Mg1 Mg15 3.163671 1_545
Mg1 Mg11 3.179655 1_555
Mg1 Mg8 3.179655 1_555
Mg1 Mg6 3.294186 1_555
Mg1 Mg13 3.294186 1_555
Mg2 Mg7 3.157165 1_555
Mg3 Mg5 3.128155 1_455
Mg3 Mg4 3.151271 1_555
Mg3 Mg9 3.294186 1_555
Mg4 Mg5 3.042796 1_455
Mg4 Mg8 3.042796 1_565
Mg4 Mg7 3.055451 1_565
Mg4 Mg6 3.128155 1_565
Mg4 Mg9 3.179655 1_555
Mg5 Mg8 3.042796 1_554
Mg5 Mg9 3.163671 1_655
Mg6 Mg8 3.151271 1_555
Mg6 Mg9 3.294186 1_555
Mg6 Mg7 3.375894 1_555
Mg10 Mg7 3.060400 1_665
Mg10 Mg14 3.163671 1_554
Mg10 Mg8 3.163671 1_554
Mg10 Mg15 3.179655 1_555
Mg10 Mg5 3.179655 1_555
Mg10 Mg3 3.294186 1_555
Mg10 Mg13 3.294186 1_555
Mg11 Mg15 3.042796 1_545
Mg11 Mg14 3.042796 1_655
Mg11 Mg7 3.055451 1_655
Mg11 Mg6 3.128155 1_655
Mg11 Mg13 3.151271 1_555
Mg11 Mg9 3.163671 1_655
Mg12 Mg15 3.055451 1_545
Mg12 Mg8 3.055451 1_554
Mg12 Mg9 3.060400 1_544
Mg12 Mg2 3.157165 1_555
Mg12 Mg13 3.375894 1_555
Mg13 Mg15 3.128155 1_545
Mg13 Mg8 3.128156 1_554
Mg13 Mg5 3.151271 1_555
Mg14 Mg15 3.042796 1_556
Mg14 Mg3 3.128156 1_556
Mg14 Mg6 3.151271 1_555
Mg14 Mg9 3.179655 1_555
Mg15 Mg3 3.151271 1_555
Al0 Al1 2.688019 1_545
Al0 Al3 2.728615 1_555
Al0 Al10 2.728615 1_555
Al0 Mg1 2.885162 1_555
Al0 Mg13 3.017599 1_555
Al0 Mg6 3.017599 1_555
Al0 Mg7 3.098075 1_555
Al0 Mg12 3.098075 1_555
Al0 Mg2 3.145390 1_555
Al0 Lu0 3.207713 1_555
Al1 Al4 2.758025 1_454
Al1 Al9 2.758025 1_454
Al1 Mg3 2.824885 1_555
Al1 Mg14 2.999805 1_554
Al1 Mg5 2.999805 1_455
Al1 Mg7 3.132051 1_565
Al1 Mg12 3.132051 1_565
Al1 Mg15 3.178023 1_555
Al1 Mg4 3.178023 1_555
Al1 Mg2 3.256729 1_565
Al2 Al6 2.758025 1_566
Al2 Al5 2.763941 1_555
Al2 Mg9 2.951672 1_555
Al2 Mg4 2.969098 1_555
Al2 Mg8 2.988004 1_565
Al2 Mg0 3.056619 1_666
Al2 Mg3 3.129427 1_555
Al2 Mg2 3.197152 1_666
Al2 Lu0 3.197460 1_555
Al2 Mg1 3.233541 1_565
Al3 Al6 2.688019 1_455
Al3 Mg9 2.885162 1_555
Al3 Mg3 3.017599 1_555
Al3 Mg6 3.017599 1_555
Al3 Mg7 3.098075 1_555
Al3 Mg0 3.098075 1_555
Al3 Mg2 3.145390 1_555
Al3 Lu0 3.207713 1_555
Al4 Al5 2.712695 1_555
Al4 Al9 2.763941 1_555
Al4 Mg1 2.951672 1_555
Al4 Mg8 2.969098 1_555
Al4 Mg5 2.988004 1_556
Al4 Mg7 3.056619 1_666
Al4 Mg6 3.129427 1_555
Al4 Mg2 3.197152 1_666
Al4 Lu0 3.197460 1_555
Al4 Mg10 3.233541 1_556
Al5 Al6 2.758025 1_566
Al5 Mg9 2.951672 1_555
Al5 Mg14 2.969098 1_555
Al5 Mg15 2.988004 1_556
Al5 Mg7 3.056619 1_666
Al5 Mg6 3.129427 1_555
Al5 Mg2 3.197152 1_666
Al5 Lu0 3.197460 1_555
Al5 Mg10 3.233541 1_556
Al6 Mg13 2.824885 1_555
Al6 Mg8 2.999805 1_554
Al6 Mg15 2.999805 1_545
Al6 Mg7 3.132051 1_655
Al6 Mg0 3.132051 1_655
Al6 Mg5 3.178023 1_555
Al6 Mg11 3.178023 1_555
Al6 Mg2 3.256729 1_655
Al7 Al8 2.758025 1_445
Al7 Mg6 2.824885 1_555
Al7 Mg4 2.999805 1_545
Al7 Mg11 2.999805 1_455
Al7 Mg0 3.132051 1_556
Al7 Mg12 3.132051 1_556
Al7 Mg14 3.178023 1_555
Al7 Mg8 3.178023 1_555
Al7 Mg2 3.256729 1_556
Al8 Al9 2.712695 1_555
Al8 Mg10 2.951672 1_555
Al8 Mg5 2.969098 1_555
Al8 Mg4 2.988004 1_655
Al8 Mg12 3.056619 1_666
Al8 Mg13 3.129427 1_555
Al8 Mg2 3.197152 1_666
Al8 Lu0 3.197460 1_555
Al8 Mg9 3.233541 1_655
Al9 Mg1 2.951672 1_555
Al9 Mg11 2.969098 1_555
Al9 Mg14 2.988004 1_655
Al9 Mg12 3.056619 1_666
Al9 Mg13 3.129427 1_555
Al9 Mg2 3.197152 1_666
Al9 Lu0 3.197460 1_555
Al9 Mg9 3.233541 1_655
Al10 Al7 2.688019 1_554
Al10 Al3 2.728615 1_555
Al10 Mg10 2.885162 1_555
Al10 Mg13 3.017599 1_555
Al10 Mg3 3.017599 1_555
Al10 Mg12 3.098075 1_555
Al10 Mg0 3.098075 1_555
Al10 Mg2 3.145390 1_555
Al10 Lu0 3.207713 1_555
Al11 Al2 2.712695 1_555
Al11 Al7 2.758025 1_665
Al11 Al8 2.763941 1_555
Al11 Mg10 2.951672 1_555
Al11 Mg15 2.969098 1_555
Al11 Mg11 2.988004 1_565
Al11 Mg0 3.056619 1_666
Al11 Mg3 3.129427 1_555
Al11 Mg2 3.197152 1_666
Al11 Lu0 3.197460 1_555
Al11 Mg1 3.233541 1_565
