# generated using pymatgen
data_Li3Mn4O8
_symmetry_space_group_name_H-M   'P 1'
_cell_length_a   5.76570659
_cell_length_b   9.95523043
_cell_length_c   11.44135934
_cell_angle_alpha   91.48276448
_cell_angle_beta   90.01613725
_cell_angle_gamma   90.02147815
_symmetry_Int_Tables_number   1
_chemical_formula_structural   Li3Mn4O8
_chemical_formula_sum   'Li12 Mn16 O32'
_cell_volume   656.50189671
_cell_formula_units_Z   4
loop_
 _symmetry_equiv_pos_site_id
 _symmetry_equiv_pos_as_xyz
  1  'x, y, z'
loop_
 _atom_site_type_symbol
 _atom_site_label
 _atom_site_symmetry_multiplicity
 _atom_site_fract_x
 _atom_site_fract_y
 _atom_site_fract_z
 _atom_site_occupancy
  Li  Li0  1  0.74861000  0.65527600  0.54073400  1
  Li  Li1  1  0.49984500  0.53092600  0.31795200  1
  Li  Li2  1  0.98486300  0.53470900  0.31503000  1
  Li  Li3  1  0.74093400  0.12768100  0.09286000  1
  Li  Li4  1  0.24630700  0.06666200  0.79604100  1
  Li  Li5  1  0.74434400  0.05326400  0.81358200  1
  Li  Li6  1  0.23505500  0.34507100  0.45936700  1
  Li  Li7  1  0.99818200  0.46533800  0.68499400  1
  Li  Li8  1  0.48325500  0.46920800  0.68193400  1
  Li  Li9  1  0.23811200  0.94676100  0.18646700  1
  Li  Li10  1  0.73601900  0.93303500  0.20395500  1
  Li  Li11  1  0.24301800  0.87211700  0.90744200  1
  Mn  Mn0  1  0.48936800  0.80484600  0.37753800  1
  Mn  Mn1  1  0.99203900  0.80636500  0.37224900  1
  Mn  Mn2  1  0.49464300  0.65863200  0.83875400  1
  Mn  Mn3  1  0.99076000  0.65561800  0.84123900  1
  Mn  Mn4  1  0.99222400  0.34426500  0.15867500  1
  Mn  Mn5  1  0.48838600  0.34111400  0.16115700  1
  Mn  Mn6  1  0.99174500  0.19378700  0.62777900  1
  Mn  Mn7  1  0.49455700  0.19530300  0.62258400  1
  Mn  Mn8  1  0.24423200  0.32529500  0.87567400  1
  Mn  Mn9  1  0.74139300  0.32639800  0.86422100  1
  Mn  Mn10  1  0.23572800  0.14070600  0.33498800  1
  Mn  Mn11  1  0.73864600  0.15799000  0.34284400  1
  Mn  Mn12  1  0.24519900  0.84206100  0.65722100  1
  Mn  Mn13  1  0.74827200  0.85953500  0.66507600  1
  Mn  Mn14  1  0.24159500  0.67346500  0.13566600  1
  Mn  Mn15  1  0.73864700  0.67456200  0.12423200  1
  O  O0  1  0.24373600  0.06662600  0.63268200  1
  O  O1  1  0.74310000  0.06661700  0.64069400  1
  O  O2  1  0.24222900  0.30316700  0.05438900  1
  O  O3  1  0.73827400  0.30374900  0.05011100  1
  O  O4  1  0.24468000  0.69592800  0.94981200  1
  O  O5  1  0.74068900  0.69653700  0.94555500  1
  O  O6  1  0.24064500  0.93356900  0.35920700  1
  O  O7  1  0.74004700  0.93353400  0.36730200  1
  O  O8  1  0.98902100  0.55067700  0.13936200  1
  O  O9  1  0.49034300  0.53917200  0.14432100  1
  O  O10  1  0.98911100  0.80145300  0.54786600  1
  O  O11  1  0.50624800  0.80336600  0.55964200  1
  O  O12  1  0.47771000  0.19698900  0.44041600  1
  O  O13  1  0.99483100  0.19888500  0.45221900  1
  O  O14  1  0.49253900  0.46065800  0.85559900  1
  O  O15  1  0.99386800  0.44917500  0.86067400  1
  O  O16  1  0.49295800  0.19161700  0.84633700  1
  O  O17  1  0.99543800  0.19453400  0.81933600  1
  O  O18  1  0.97660900  0.11434000  0.22031800  1
  O  O19  1  0.49744900  0.13284300  0.21244000  1
  O  O20  1  0.98758400  0.80536600  0.18058700  1
  O  O21  1  0.48993100  0.80824200  0.15341700  1
  O  O22  1  0.48616800  0.86710500  0.78761700  1
  O  O23  1  0.00721900  0.88579200  0.77981500  1
  O  O24  1  0.24075500  0.67052200  0.35585600  1
  O  O25  1  0.74262500  0.66660200  0.37057400  1
  O  O26  1  0.24220100  0.63278600  0.72534800  1
  O  O27  1  0.74285900  0.63334300  0.71867700  1
  O  O28  1  0.24102700  0.33357000  0.62953700  1
  O  O29  1  0.74296000  0.32959700  0.64425000  1
  O  O30  1  0.24030100  0.36657100  0.28126400  1
  O  O31  1  0.74087100  0.36714500  0.27456000  1
loop_
_geom_bond_atom_site_label_1
_geom_bond_atom_site_label_2
_geom_bond_distance
_geom_bond_site_symmetry_2
Li0 O25 1.953330 1_555
Li0 O10 2.009836 1_555
Li0 O11 2.039160 1_555
Li0 O27 2.053471 1_555
Li1 O9 1.991131 1_555
Li1 O25 2.025412 1_555
Li1 O24 2.078857 1_555
Li1 O31 2.190058 1_555
Li1 O30 2.248325 1_555
Li2 O25 2.009299 1_555
Li2 O8 2.020402 1_555
Li2 O24 2.046572 1_655
Li2 O31 2.221268 1_555
Li2 O30 2.255841 1_655
Li3 O3 1.831978 1_555
Li3 O19 1.960313 1_555
Li3 O18 1.999932 1_555
Li4 O0 1.869094 1_555
Li4 O17 1.941075 1_455
Li4 O16 1.965237 1_555
Li4 O23 2.271040 1_545
Li4 O22 2.420917 1_545
Li5 O1 1.985976 1_555
Li5 O17 2.017867 1_555
Li5 O16 2.028152 1_555
Li5 O23 2.279255 1_645
Li5 O22 2.389107 1_545
Li6 O28 1.953590 1_555
Li6 O13 2.008803 1_455
Li6 O12 2.040305 1_555
Li6 O30 2.054681 1_555
Li7 O28 2.010634 1_655
Li7 O15 2.020754 1_555
Li7 O29 2.043122 1_555
Li7 O26 2.220256 1_655
Li7 O27 2.254286 1_555
Li8 O14 1.991690 1_555
Li8 O28 2.022246 1_555
Li8 O29 2.081027 1_555
Li8 O26 2.188720 1_555
Li8 O27 2.247079 1_555
Li9 O6 1.984177 1_555
Li9 O20 2.016417 1_455
Li9 O21 2.031619 1_555
Li9 O18 2.274922 1_465
Li9 O19 2.392700 1_565
Li10 O7 1.868928 1_555
Li10 O20 1.942853 1_555
Li10 O21 1.962650 1_555
Li10 O18 2.279817 1_565
Li10 O19 2.418736 1_565
Li11 O4 1.831838 1_555
Li11 O22 1.960875 1_555
Li11 O23 2.002117 1_555
Mn0 O7 1.936612 1_555
Mn0 O6 1.938505 1_555
Mn0 O24 1.971200 1_555
Mn0 O25 2.007115 1_555
Mn0 O11 2.086195 1_555
Mn0 O21 2.565349 1_555
Mn1 O6 1.920687 1_655
Mn1 O7 1.929234 1_555
Mn1 O24 1.977100 1_655
Mn1 O25 2.000343 1_555
Mn1 O10 2.011232 1_555
Mn1 O20 2.192782 1_555
Mn2 O5 1.903371 1_555
Mn2 O4 1.951034 1_555
Mn2 O26 1.962049 1_555
Mn2 O14 1.985268 1_555
Mn2 O27 1.995613 1_555
Mn2 O22 2.171376 1_555
Mn3 O5 1.909336 1_555
Mn3 O4 1.954551 1_655
Mn3 O26 1.974151 1_655
Mn3 O27 2.010239 1_555
Mn3 O15 2.072978 1_555
Mn3 O23 2.415944 1_655
Mn4 O2 1.909188 1_655
Mn4 O3 1.955004 1_555
Mn4 O31 1.973780 1_555
Mn4 O30 2.011203 1_655
Mn4 O8 2.072491 1_555
Mn4 O18 2.414182 1_555
Mn5 O2 1.903683 1_555
Mn5 O3 1.950745 1_555
Mn5 O31 1.962421 1_555
Mn5 O9 1.986083 1_555
Mn5 O30 1.995489 1_555
Mn5 O19 2.170013 1_555
Mn6 O1 1.920494 1_555
Mn6 O0 1.929155 1_655
Mn6 O29 1.977234 1_555
Mn6 O28 1.999927 1_655
Mn6 O13 2.010682 1_555
Mn6 O17 2.191590 1_555
Mn7 O0 1.937028 1_555
Mn7 O1 1.937178 1_555
Mn7 O29 1.970099 1_555
Mn7 O28 2.008415 1_555
Mn7 O12 2.086986 1_555
Mn7 O16 2.561270 1_555
Mn8 O15 1.909524 1_455
Mn8 O16 1.979610 1_555
Mn8 O14 1.983210 1_555
Mn8 O17 2.030375 1_455
Mn8 O2 2.062269 1_556
Mn9 O15 1.901557 1_555
Mn9 O14 1.965474 1_555
Mn9 O16 1.969313 1_555
Mn9 O17 2.024715 1_555
Mn9 O3 2.144627 1_556
Mn9 O29 2.517811 1_555
Mn10 O12 1.918078 1_555
Mn10 O18 2.000754 1_455
Mn10 O13 2.006265 1_455
Mn10 O19 2.060281 1_555
Mn10 O6 2.087927 1_545
Mn10 O30 2.346473 1_555
Mn11 O12 1.907721 1_555
Mn11 O13 1.971211 1_555
Mn11 O18 2.001627 1_555
Mn11 O19 2.049863 1_555
Mn11 O31 2.242812 1_555
Mn11 O7 2.259156 1_545
Mn12 O11 1.907713 1_555
Mn12 O10 1.970108 1_455
Mn12 O23 2.002395 1_555
Mn12 O22 2.048800 1_555
Mn12 O26 2.243293 1_555
Mn12 O0 2.260373 1_565
Mn13 O11 1.917985 1_555
Mn13 O23 2.000406 1_655
Mn13 O10 2.005613 1_555
Mn13 O22 2.061787 1_555
Mn13 O1 2.087702 1_565
Mn13 O27 2.349270 1_555
Mn14 O8 1.902130 1_455
Mn14 O9 1.965278 1_555
Mn14 O21 1.968741 1_555
Mn14 O20 2.024908 1_455
Mn14 O4 2.143974 1_554
Mn14 O24 2.520207 1_555
Mn15 O8 1.909759 1_555
Mn15 O21 1.979317 1_555
Mn15 O9 1.983402 1_555
Mn15 O20 2.031287 1_555
Mn15 O5 2.061637 1_554
