# generated using pymatgen
data_SrCaYBiO6
_symmetry_space_group_name_H-M   'P 1'
_cell_length_a   8.47632255
_cell_length_b   8.46621624
_cell_length_c   8.47824276
_cell_angle_alpha   90.00000000
_cell_angle_beta   90.00000000
_cell_angle_gamma   90.00000000
_symmetry_Int_Tables_number   1
_chemical_formula_structural   SrCaYBiO6
_chemical_formula_sum   'Sr4 Ca4 Y4 Bi4 O24'
_cell_volume   608.41887552
_cell_formula_units_Z   4
loop_
 _symmetry_equiv_pos_site_id
 _symmetry_equiv_pos_as_xyz
  1  'x, y, z'
loop_
 _atom_site_type_symbol
 _atom_site_label
 _atom_site_symmetry_multiplicity
 _atom_site_fract_x
 _atom_site_fract_y
 _atom_site_fract_z
 _atom_site_occupancy
  Sr  Sr0  1  0.00000000  0.50000000  0.50000000  1
  Sr  Sr1  1  0.50000000  0.00000000  -0.00000000  1
  Sr  Sr2  1  0.00000000  0.50000000  -0.00000000  1
  Sr  Sr3  1  0.00000000  0.00000000  0.50000000  1
  Ca  Ca0  1  0.50000000  0.00000000  0.50000000  1
  Ca  Ca1  1  0.50000000  0.50000000  -0.00000000  1
  Ca  Ca2  1  0.00000000  0.00000000  -0.00000000  1
  Ca  Ca3  1  0.50000000  0.50000000  0.50000000  1
  Y  Y0  1  0.25225620  0.25033148  0.24992639  1
  Y  Y1  1  0.74774380  0.74966852  0.24992639  1
  Y  Y2  1  0.74774380  0.25033148  0.75007361  1
  Y  Y3  1  0.25225620  0.74966852  0.75007361  1
  Bi  Bi0  1  0.74743486  0.74970143  0.75018980  1
  Bi  Bi1  1  0.25256514  0.25029857  0.75018980  1
  Bi  Bi2  1  0.25256514  0.74970143  0.24981020  1
  Bi  Bi3  1  0.74743486  0.25029857  0.24981020  1
  O  O0  1  0.99274748  0.20555786  0.28642257  1
  O  O1  1  0.00725252  0.79444214  0.28642257  1
  O  O2  1  0.00725252  0.20555786  0.71357743  1
  O  O3  1  0.99274748  0.79444214  0.71357743  1
  O  O4  1  0.28649898  0.99351702  0.20327111  1
  O  O5  1  0.28649898  0.00648298  0.79672889  1
  O  O6  1  0.71350102  0.00648298  0.20327111  1
  O  O7  1  0.71350102  0.99351702  0.79672889  1
  O  O8  1  0.20260997  0.28396180  0.99347354  1
  O  O9  1  0.79739003  0.28396180  0.00652646  1
  O  O10  1  0.20260997  0.71603820  0.00652646  1
  O  O11  1  0.79739003  0.71603820  0.99347354  1
  O  O12  1  0.50678010  0.30593043  0.20411682  1
  O  O13  1  0.49321990  0.69406957  0.20411682  1
  O  O14  1  0.49321990  0.30593043  0.79588318  1
  O  O15  1  0.50678010  0.69406957  0.79588318  1
  O  O16  1  0.21515701  0.50684367  0.29988608  1
  O  O17  1  0.21515701  0.49315633  0.70011392  1
  O  O18  1  0.78484299  0.49315633  0.29988608  1
  O  O19  1  0.78484299  0.50684367  0.70011392  1
  O  O20  1  0.30762226  0.20652330  0.50757926  1
  O  O21  1  0.69237774  0.20652330  0.49242074  1
  O  O22  1  0.30762226  0.79347670  0.49242074  1
  O  O23  1  0.69237774  0.79347670  0.50757926  1
loop_
_geom_bond_atom_site_label_1
_geom_bond_atom_site_label_2
_geom_bond_distance
_geom_bond_site_symmetry_2
Ca0 O23 2.391719 1_545
Ca0 O22 2.391719 1_545
Ca0 O21 2.391719 1_555
Ca0 O20 2.391719 1_555
Ca1 O12 2.386981 1_555
Ca1 O14 2.386981 1_554
Ca1 O13 2.386981 1_555
Ca1 O15 2.386981 1_554
Ca2 O8 2.955011 1_554
Ca2 O9 2.955011 1_455
Ca2 O11 2.955011 1_444
Ca2 O10 2.955011 1_545
Ca2 O7 2.978333 1_444
Ca2 O5 2.978333 1_554
Ca2 O6 2.978333 1_455
Ca2 O4 2.978333 1_545
Ca2 O1 2.988201 1_545
Ca2 O0 2.988201 1_455
Ca2 O3 2.988201 1_444
Ca2 O2 2.988201 1_554
Ca3 O19 2.951489 1_555
Ca3 O17 2.951489 1_555
Ca3 O18 2.951489 1_555
Ca3 O16 2.951489 1_555
Ca3 O20 2.972640 1_555
Ca3 O23 2.972640 1_555
Ca3 O21 2.972640 1_555
Ca3 O22 2.972640 1_555
Ca3 O12 2.999298 1_555
Ca3 O14 2.999298 1_555
Ca3 O15 2.999298 1_555
Ca3 O13 2.999298 1_555
Bi0 O7 2.121160 1_555
Bi0 O19 2.123271 1_555
Bi0 O11 2.124834 1_555
Bi0 O15 2.129077 1_555
Bi0 O3 2.136240 1_555
Bi0 O23 2.141501 1_555
Bi1 O5 2.121160 1_555
Bi1 O17 2.123271 1_555
Bi1 O8 2.124834 1_555
Bi1 O14 2.129077 1_555
Bi1 O2 2.136240 1_555
Bi1 O20 2.141501 1_555
Bi2 O4 2.121160 1_555
Bi2 O16 2.123271 1_555
Bi2 O10 2.124834 1_555
Bi2 O13 2.129077 1_555
Bi2 O1 2.136240 1_555
Bi2 O22 2.141501 1_555
Bi3 O6 2.121160 1_555
Bi3 O18 2.123271 1_555
Bi3 O9 2.124834 1_555
Bi3 O12 2.129077 1_555
Bi3 O0 2.136240 1_555
Bi3 O21 2.141501 1_555
O0 Y0 2.253447 1_655
O0 Sr3 2.512224 1_655
O0 Sr0 3.081678 1_655
O1 Y1 2.253447 1_455
O1 Sr3 2.512224 1_565
O1 Sr0 3.081678 1_555
O2 Y2 2.253447 1_455
O2 Sr3 2.512224 1_555
O2 Sr0 3.081678 1_555
O3 Y3 2.253447 1_655
O3 Sr3 2.512224 1_665
O3 Sr0 3.081678 1_655
O4 Y0 2.228914 1_565
O4 Sr1 2.499617 1_565
O5 Y3 2.228914 1_545
O5 Sr1 2.499617 1_556
O6 Y1 2.228914 1_545
O6 Sr1 2.499617 1_555
O7 Y2 2.228914 1_565
O7 Sr1 2.499617 1_566
O8 Y0 2.232846 1_556
O8 Sr2 2.509545 1_556
O9 Y2 2.232846 1_554
O9 Sr2 2.509545 1_655
O10 Y3 2.232846 1_554
O10 Sr2 2.509545 1_555
O11 Y1 2.232846 1_556
O11 Sr2 2.509545 1_656
O12 Y0 2.242076 1_555
O13 Y1 2.242076 1_555
O14 Y2 2.242076 1_555
O15 Y3 2.242076 1_555
O16 Y0 2.234844 1_555
O16 Sr0 2.491563 1_555
O16 Sr2 3.129493 1_555
O17 Y3 2.234844 1_555
O17 Sr0 2.491563 1_555
O17 Sr2 3.129493 1_556
O18 Y1 2.234844 1_555
O18 Sr0 2.491563 1_655
O18 Sr2 3.129493 1_655
O19 Y2 2.234844 1_555
O19 Sr0 2.491563 1_655
O19 Sr2 3.129493 1_656
O20 Y0 2.264861 1_555
O21 Y2 2.264861 1_555
O22 Y3 2.264861 1_555
O23 Y1 2.264861 1_555
