# generated using pymatgen
data_ZrCoH3
_symmetry_space_group_name_H-M   'P 1'
_cell_length_a   5.51266328
_cell_length_b   5.51266328
_cell_length_c   4.36913105
_cell_angle_alpha   90.00000000
_cell_angle_beta   90.00000000
_cell_angle_gamma   143.17962871
_symmetry_Int_Tables_number   1
_chemical_formula_structural   ZrCoH3
_chemical_formula_sum   'Zr2 Co2 H6'
_cell_volume   79.57346426
_cell_formula_units_Z   2
loop_
 _symmetry_equiv_pos_site_id
 _symmetry_equiv_pos_as_xyz
  1  'x, y, z'
loop_
 _atom_site_type_symbol
 _atom_site_label
 _atom_site_symmetry_multiplicity
 _atom_site_fract_x
 _atom_site_fract_y
 _atom_site_fract_z
 _atom_site_occupancy
  Zr  Zr0  1  0.63219901  0.36780099  0.25000000  1
  Zr  Zr1  1  0.36780099  0.63219901  0.75000000  1
  Co  Co0  1  0.07577047  0.92422953  0.75000000  1
  Co  Co1  1  0.92422953  0.07577047  0.25000000  1
  H  H0  1  0.57446615  0.42553385  0.75000000  1
  H  H1  1  0.18857846  0.81142154  0.49664089  1
  H  H2  1  0.18857846  0.81142154  0.00335911  1
  H  H3  1  0.81142154  0.18857846  0.99664089  1
  H  H4  1  0.81142154  0.18857846  0.50335911  1
  H  H5  1  0.42553385  0.57446615  0.25000000  1
loop_
_geom_bond_atom_site_label_1
_geom_bond_atom_site_label_2
_geom_bond_distance
_geom_bond_site_symmetry_2
Co0 H1 1.618014 1_555
Co0 H2 1.618014 1_556
Co0 H0 1.741050 1_565
Co0 H0 1.741050 1_455
Co1 H3 1.618014 1_554
Co1 H4 1.618014 1_555
Co1 H5 1.741050 1_655
Co1 H5 1.741050 1_545
H0 Zr1 2.161934 1_555
H0 Zr0 2.266512 1_555
H0 Zr0 2.266512 1_556
H1 Zr0 2.130764 1_455
H1 Zr0 2.130764 1_565
H1 Zr1 2.177256 1_555
H2 Zr0 2.130764 1_455
H2 Zr0 2.130764 1_565
H2 Zr1 2.177256 1_554
H3 Zr1 2.130764 1_545
H3 Zr1 2.130764 1_655
H3 Zr0 2.177256 1_556
H4 Zr1 2.130764 1_545
H4 Zr1 2.130764 1_655
H4 Zr0 2.177256 1_555
H5 Zr0 2.161934 1_555
H5 Zr1 2.266512 1_555
H5 Zr1 2.266512 1_554
