# generated using pymatgen
data_CuSnPd2
_symmetry_space_group_name_H-M   'P 1'
_cell_length_a   3.94204400
_cell_length_b   12.37900900
_cell_length_c   15.59149600
_cell_angle_alpha   90.00000000
_cell_angle_beta   90.00000000
_cell_angle_gamma   90.00000000
_symmetry_Int_Tables_number   1
_chemical_formula_structural   CuSnPd2
_chemical_formula_sum   'Cu12 Sn12 Pd24'
_cell_volume   760.84314793
_cell_formula_units_Z   12
loop_
 _symmetry_equiv_pos_site_id
 _symmetry_equiv_pos_as_xyz
  1  'x, y, z'
loop_
 _atom_site_type_symbol
 _atom_site_label
 _atom_site_symmetry_multiplicity
 _atom_site_fract_x
 _atom_site_fract_y
 _atom_site_fract_z
 _atom_site_occupancy
  Cu  Cu0  1  0.50000000  0.50000000  0.00000000  1
  Cu  Cu1  1  0.50000000  0.50000000  0.50000000  1
  Cu  Cu2  1  0.50000000  0.50000000  0.24775600  1
  Cu  Cu3  1  0.50000000  0.50000000  0.75224400  1
  Cu  Cu4  1  0.50000000  0.16105600  0.50000000  1
  Cu  Cu5  1  0.50000000  0.83894400  0.50000000  1
  Cu  Cu6  1  0.50000000  0.00000000  0.37601800  1
  Cu  Cu7  1  0.50000000  0.00000000  0.62398200  1
  Cu  Cu8  1  0.00000000  0.16782000  0.12517900  1
  Cu  Cu9  1  0.00000000  0.83218000  0.87482100  1
  Cu  Cu10  1  0.00000000  0.83218000  0.12517900  1
  Cu  Cu11  1  0.00000000  0.16782000  0.87482100  1
  Sn  Sn0  1  0.00000000  0.00000000  0.00000000  1
  Sn  Sn1  1  0.00000000  0.32844800  0.25157500  1
  Sn  Sn2  1  0.00000000  0.67155200  0.74842500  1
  Sn  Sn3  1  0.00000000  0.67155200  0.25157500  1
  Sn  Sn4  1  0.00000000  0.32844800  0.74842500  1
  Sn  Sn5  1  0.00000000  0.33317000  0.00000000  1
  Sn  Sn6  1  0.00000000  0.66683000  0.00000000  1
  Sn  Sn7  1  0.00000000  0.00000000  0.50000000  1
  Sn  Sn8  1  0.00000000  0.33188100  0.50000000  1
  Sn  Sn9  1  0.00000000  0.66811900  0.50000000  1
  Sn  Sn10  1  0.00000000  0.00000000  0.25145700  1
  Sn  Sn11  1  0.00000000  0.00000000  0.74854300  1
  Pd  Pd0  1  0.50000000  0.16340100  0.24878200  1
  Pd  Pd1  1  0.50000000  0.83659900  0.75121800  1
  Pd  Pd2  1  0.50000000  0.83659900  0.24878200  1
  Pd  Pd3  1  0.50000000  0.16340100  0.75121800  1
  Pd  Pd4  1  0.00000000  0.15975000  0.38395600  1
  Pd  Pd5  1  0.00000000  0.84025000  0.61604400  1
  Pd  Pd6  1  0.00000000  0.84025000  0.38395600  1
  Pd  Pd7  1  0.00000000  0.15975000  0.61604400  1
  Pd  Pd8  1  0.00000000  0.50000000  0.37306100  1
  Pd  Pd9  1  0.00000000  0.50000000  0.62693900  1
  Pd  Pd10  1  0.00000000  0.50000000  0.12647200  1
  Pd  Pd11  1  0.00000000  0.50000000  0.87352800  1
  Pd  Pd12  1  0.50000000  0.33660900  0.37683300  1
  Pd  Pd13  1  0.50000000  0.66339100  0.62316700  1
  Pd  Pd14  1  0.50000000  0.66339100  0.37683300  1
  Pd  Pd15  1  0.50000000  0.33660900  0.62316700  1
  Pd  Pd16  1  0.50000000  0.16451900  0.00000000  1
  Pd  Pd17  1  0.50000000  0.83548100  0.00000000  1
  Pd  Pd18  1  0.50000000  0.33464000  0.12377200  1
  Pd  Pd19  1  0.50000000  0.66536000  0.87622800  1
  Pd  Pd20  1  0.50000000  0.66536000  0.12377200  1
  Pd  Pd21  1  0.50000000  0.33464000  0.87622800  1
  Pd  Pd22  1  0.50000000  0.00000000  0.12430200  1
  Pd  Pd23  1  0.50000000  0.00000000  0.87569800  1
loop_
_geom_bond_atom_site_label_1
_geom_bond_atom_site_label_2
_geom_bond_distance
_geom_bond_site_symmetry_2
Cu0 Pd10 2.788058 1_555
Cu0 Pd10 2.788058 1_655
Cu0 Pd11 2.788058 1_554
Cu0 Pd11 2.788058 1_654
Cu0 Pd21 2.813232 1_554
Cu0 Pd18 2.813232 1_555
Cu0 Pd20 2.813232 1_555
Cu0 Pd19 2.813232 1_554
Cu0 Sn5 2.854810 1_655
Cu0 Sn5 2.854810 1_555
Cu0 Sn6 2.854810 1_655
Cu0 Sn6 2.854810 1_555
Cu1 Pd12 2.789043 1_555
Cu1 Pd15 2.789043 1_555
Cu1 Pd13 2.789043 1_555
Cu1 Pd14 2.789043 1_555
Cu1 Pd8 2.793213 1_655
Cu1 Pd9 2.793213 1_555
Cu1 Pd9 2.793213 1_655
Cu1 Pd8 2.793213 1_555
Cu1 Sn8 2.866374 1_655
Cu1 Sn9 2.866374 1_655
Cu1 Sn8 2.866374 1_555
Cu1 Sn9 2.866374 1_555
Cu2 Pd10 2.731447 1_555
Cu2 Pd10 2.731447 1_655
Cu2 Pd8 2.775219 1_655
Cu2 Pd8 2.775219 1_555
Cu2 Pd18 2.815500 1_555
Cu2 Pd20 2.815500 1_555
Cu2 Pd14 2.853271 1_555
Cu2 Pd12 2.853271 1_555
Cu2 Sn3 2.897988 1_555
Cu2 Sn3 2.897988 1_655
Cu2 Sn1 2.897988 1_655
Cu2 Sn1 2.897988 1_555
Cu3 Pd11 2.731447 1_655
Cu3 Pd11 2.731447 1_555
Cu3 Pd9 2.775219 1_555
Cu3 Pd9 2.775219 1_655
Cu3 Pd21 2.815500 1_555
Cu3 Pd19 2.815500 1_555
Cu3 Pd13 2.853271 1_555
Cu3 Pd15 2.853271 1_555
Cu3 Sn2 2.897988 1_555
Cu3 Sn2 2.897988 1_655
Cu3 Sn4 2.897988 1_555
Cu3 Sn4 2.897988 1_655
Cu4 Pd7 2.675585 1_555
Cu4 Pd7 2.675585 1_655
Cu4 Pd4 2.675585 1_555
Cu4 Pd4 2.675585 1_655
Cu4 Cu7 2.776983 1_555
Cu4 Cu6 2.776983 1_555
Cu4 Sn7 2.803537 1_555
Cu4 Sn7 2.803537 1_655
Cu4 Sn8 2.890787 1_655
Cu4 Sn8 2.890787 1_555
Cu4 Pd12 2.900078 1_555
Cu4 Pd15 2.900078 1_555
Cu5 Pd5 2.675585 1_555
Cu5 Pd5 2.675585 1_655
Cu5 Pd6 2.675585 1_655
Cu5 Pd6 2.675585 1_555
Cu5 Cu7 2.776983 1_565
Cu5 Cu6 2.776983 1_565
Cu5 Sn7 2.803537 1_665
Cu5 Sn7 2.803537 1_565
Cu5 Sn9 2.890787 1_555
Cu5 Sn9 2.890787 1_655
Cu5 Pd14 2.900078 1_555
Cu5 Pd13 2.900078 1_555
Cu6 Sn7 2.760737 1_655
Cu6 Sn7 2.760737 1_555
Cu6 Sn10 2.767065 1_555
Cu6 Sn10 2.767065 1_655
Cu6 Pd6 2.794805 1_545
Cu6 Pd6 2.794805 1_645
Cu6 Pd4 2.794805 1_555
Cu6 Pd4 2.794805 1_655
Cu6 Pd0 2.833187 1_555
Cu6 Pd2 2.833187 1_545
Cu7 Sn7 2.760737 1_555
Cu7 Sn7 2.760737 1_655
Cu7 Sn11 2.767065 1_655
Cu7 Sn11 2.767065 1_555
Cu7 Pd5 2.794805 1_645
Cu7 Pd5 2.794805 1_545
Cu7 Pd7 2.794805 1_555
Cu7 Pd7 2.794805 1_655
Cu7 Pd3 2.833187 1_555
Cu7 Pd1 2.833187 1_545
Cu8 Pd0 2.757145 1_455
Cu8 Pd0 2.757145 1_555
Cu8 Pd16 2.774138 1_455
Cu8 Pd16 2.774138 1_555
Cu8 Sn1 2.799547 1_555
Cu8 Sn5 2.828235 1_555
Cu8 Sn0 2.850442 1_555
Cu8 Pd18 2.854804 1_455
Cu8 Pd18 2.854804 1_555
Cu8 Sn10 2.862202 1_555
Cu8 Pd22 2.863720 1_455
Cu8 Pd22 2.863720 1_555
Cu9 Pd1 2.757145 1_555
Cu9 Pd1 2.757145 1_455
Cu9 Pd17 2.774138 1_456
Cu9 Pd17 2.774138 1_556
Cu9 Sn2 2.799547 1_555
Cu9 Sn6 2.828235 1_556
Cu9 Sn0 2.850442 1_566
Cu9 Pd19 2.854804 1_455
Cu9 Pd19 2.854804 1_555
Cu9 Sn11 2.862202 1_565
Cu9 Pd23 2.863720 1_465
Cu9 Pd23 2.863720 1_565
Cu10 Pd2 2.757145 1_455
Cu10 Pd2 2.757145 1_555
Cu10 Pd17 2.774138 1_555
Cu10 Pd17 2.774138 1_455
Cu10 Sn3 2.799547 1_555
Cu10 Sn6 2.828235 1_555
Cu10 Sn0 2.850442 1_565
Cu10 Pd20 2.854804 1_555
Cu10 Pd20 2.854804 1_455
Cu10 Sn10 2.862202 1_565
Cu10 Pd22 2.863720 1_465
Cu10 Pd22 2.863720 1_565
Cu11 Pd3 2.757145 1_555
Cu11 Pd3 2.757145 1_455
Cu11 Pd16 2.774138 1_456
Cu11 Pd16 2.774138 1_556
Cu11 Sn4 2.799547 1_555
Cu11 Sn5 2.828235 1_556
Cu11 Sn0 2.850442 1_556
Cu11 Pd21 2.854804 1_555
Cu11 Pd21 2.854804 1_455
Cu11 Sn11 2.862202 1_555
Cu11 Pd23 2.863720 1_555
Cu11 Pd23 2.863720 1_455
Pd0 Pd22 2.803267 1_555
Pd0 Sn10 2.824563 1_555
Pd0 Sn10 2.824563 1_655
Pd0 Sn1 2.839218 1_655
Pd0 Sn1 2.839218 1_555
Pd0 Pd18 2.879650 1_555
Pd0 Pd4 2.885966 1_655
Pd0 Pd4 2.885966 1_555
Pd0 Pd12 2.929742 1_555
Pd1 Pd23 2.803267 1_565
Pd1 Sn11 2.824563 1_565
Pd1 Sn11 2.824563 1_665
Pd1 Sn2 2.839218 1_555
Pd1 Sn2 2.839218 1_655
Pd1 Pd19 2.879650 1_555
Pd1 Pd5 2.885966 1_555
Pd1 Pd5 2.885966 1_655
Pd1 Pd13 2.929742 1_555
Pd2 Pd22 2.803267 1_565
Pd2 Sn10 2.824563 1_665
Pd2 Sn10 2.824563 1_565
Pd2 Sn3 2.839218 1_555
Pd2 Sn3 2.839218 1_655
Pd2 Pd20 2.879650 1_555
Pd2 Pd6 2.885966 1_555
Pd2 Pd6 2.885966 1_655
Pd3 Sn11 2.824563 1_555
Pd3 Sn11 2.824563 1_655
Pd3 Sn4 2.839218 1_655
Pd3 Sn4 2.839218 1_555
Pd3 Pd7 2.885966 1_555
Pd3 Pd7 2.885966 1_655
Pd4 Sn7 2.680346 1_555
Pd4 Sn8 2.795339 1_555
Pd4 Sn10 2.859800 1_555
Pd4 Sn1 2.936192 1_555
Pd5 Sn7 2.680346 1_565
Pd5 Sn9 2.795339 1_555
Pd5 Sn11 2.859800 1_565
Pd5 Sn2 2.936192 1_555
Pd6 Sn7 2.680346 1_565
Pd6 Sn9 2.795339 1_555
Pd6 Sn10 2.859800 1_565
Pd6 Sn3 2.936192 1_555
Pd7 Sn7 2.680346 1_555
Pd7 Sn8 2.795339 1_555
Pd7 Sn11 2.859800 1_555
Pd7 Sn4 2.936192 1_555
Pd8 Sn3 2.845639 1_555
Pd8 Sn1 2.845639 1_555
Pd8 Sn9 2.871982 1_555
Pd8 Sn8 2.871982 1_555
Pd9 Sn2 2.845639 1_555
Pd9 Sn4 2.845639 1_555
Pd9 Sn9 2.871982 1_555
Pd9 Sn8 2.871982 1_555
Pd10 Pd18 2.841985 1_455
Pd10 Pd18 2.841985 1_555
Pd10 Pd20 2.841985 1_555
Pd10 Pd20 2.841985 1_455
Pd10 Sn5 2.855407 1_555
Pd10 Sn6 2.855407 1_555
Pd10 Sn3 2.883484 1_555
Pd10 Sn1 2.883484 1_555
Pd11 Pd21 2.841985 1_455
Pd11 Pd21 2.841985 1_555
Pd11 Pd19 2.841985 1_555
Pd11 Pd19 2.841985 1_455
Pd11 Sn5 2.855407 1_556
Pd11 Sn6 2.855407 1_556
Pd11 Sn2 2.883484 1_555
Pd11 Sn4 2.883484 1_555
Pd12 Sn8 2.752477 1_655
Pd12 Sn8 2.752477 1_555
Pd12 Sn1 2.776542 1_555
Pd12 Sn1 2.776542 1_655
Pd12 Pd8 2.824778 1_655
Pd12 Pd8 2.824778 1_555
Pd12 Pd4 2.947960 1_655
Pd12 Pd4 2.947960 1_555
Pd13 Sn9 2.752477 1_655
Pd13 Sn9 2.752477 1_555
Pd13 Sn2 2.776542 1_655
Pd13 Sn2 2.776542 1_555
Pd13 Pd9 2.824778 1_655
Pd13 Pd9 2.824778 1_555
Pd13 Pd5 2.947960 1_555
Pd13 Pd5 2.947960 1_655
Pd14 Sn9 2.752477 1_655
Pd14 Sn9 2.752477 1_555
Pd14 Sn3 2.776542 1_655
Pd14 Sn3 2.776542 1_555
Pd14 Pd8 2.824778 1_555
Pd14 Pd8 2.824778 1_655
Pd14 Pd2 2.929742 1_555
Pd14 Pd6 2.947960 1_655
Pd14 Pd6 2.947960 1_555
Pd15 Sn8 2.752477 1_655
Pd15 Sn8 2.752477 1_555
Pd15 Sn4 2.776542 1_655
Pd15 Sn4 2.776542 1_555
Pd15 Pd9 2.824778 1_555
Pd15 Pd9 2.824778 1_655
Pd15 Pd3 2.929742 1_555
Pd15 Pd7 2.947960 1_655
Pd15 Pd7 2.947960 1_555
Pd16 Pd23 2.811356 1_554
Pd16 Pd22 2.811356 1_555
Pd16 Sn0 2.834183 1_555
Pd16 Sn0 2.834183 1_655
Pd16 Pd21 2.856402 1_554
Pd16 Pd18 2.856402 1_555
Pd16 Sn5 2.871159 1_655
Pd16 Sn5 2.871159 1_555
Pd17 Pd22 2.811356 1_565
Pd17 Pd23 2.811356 1_564
Pd17 Sn0 2.834183 1_565
Pd17 Sn0 2.834183 1_665
Pd17 Pd19 2.856402 1_554
Pd17 Pd20 2.856402 1_555
Pd17 Sn6 2.871159 1_555
Pd17 Sn6 2.871159 1_655
Pd18 Sn5 2.758505 1_655
Pd18 Sn5 2.758505 1_555
Pd18 Sn1 2.803822 1_555
Pd18 Sn1 2.803822 1_655
Pd19 Sn6 2.758505 1_656
Pd19 Sn6 2.758505 1_556
Pd19 Sn2 2.803822 1_555
Pd19 Sn2 2.803822 1_655
Pd20 Sn6 2.758505 1_555
Pd20 Sn6 2.758505 1_655
Pd20 Sn3 2.803822 1_655
Pd20 Sn3 2.803822 1_555
Pd21 Sn5 2.758505 1_656
Pd21 Sn5 2.758505 1_556
Pd21 Sn4 2.803822 1_655
Pd21 Sn4 2.803822 1_555
Pd21 Pd3 2.879650 1_555
Pd22 Sn0 2.764233 1_555
Pd22 Sn0 2.764233 1_655
Pd22 Sn10 2.795600 1_555
Pd22 Sn10 2.795600 1_655
Pd23 Sn0 2.764233 1_556
Pd23 Sn0 2.764233 1_656
Pd23 Sn11 2.795600 1_555
Pd23 Sn11 2.795600 1_655
Pd23 Pd3 2.803267 1_555
