# generated using pymatgen
data_Nb2Ni3Ge
_symmetry_space_group_name_H-M   'P 1'
_cell_length_a   4.91391096
_cell_length_b   4.91391096
_cell_length_c   7.80119200
_cell_angle_alpha   90.00000000
_cell_angle_beta   90.00000000
_cell_angle_gamma   120.00001292
_symmetry_Int_Tables_number   1
_chemical_formula_structural   Nb2Ni3Ge
_chemical_formula_sum   'Nb4 Ni6 Ge2'
_cell_volume   163.13460940
_cell_formula_units_Z   2
loop_
 _symmetry_equiv_pos_site_id
 _symmetry_equiv_pos_as_xyz
  1  'x, y, z'
loop_
 _atom_site_type_symbol
 _atom_site_label
 _atom_site_symmetry_multiplicity
 _atom_site_fract_x
 _atom_site_fract_y
 _atom_site_fract_z
 _atom_site_occupancy
  Nb  Nb0  1  0.33333300  0.66666700  0.43906200  1
  Nb  Nb1  1  0.66666700  0.33333300  0.56093800  1
  Nb  Nb2  1  0.66666700  0.33333300  0.93906200  1
  Nb  Nb3  1  0.33333300  0.66666700  0.06093800  1
  Ni  Ni0  1  0.82902100  0.17097900  0.25000000  1
  Ni  Ni1  1  0.82902100  0.65804200  0.25000000  1
  Ni  Ni2  1  0.34195800  0.17097900  0.25000000  1
  Ni  Ni3  1  0.17097900  0.82902100  0.75000000  1
  Ni  Ni4  1  0.17097900  0.34195800  0.75000000  1
  Ni  Ni5  1  0.65804200  0.82902100  0.75000000  1
  Ge  Ge0  1  0.00000000  0.00000000  0.50000000  1
  Ge  Ge1  1  0.00000000  0.00000000  0.00000000  1
loop_
_geom_bond_atom_site_label_1
_geom_bond_atom_site_label_2
_geom_bond_distance
_geom_bond_site_symmetry_2
Nb0 Ni3 2.791662 1_555
Nb0 Ni4 2.791664 1_555
Nb0 Ni5 2.791664 1_555
Nb0 Ni1 2.865889 1_455
Nb0 Ni2 2.865889 1_565
Nb0 Ni0 2.865891 1_455
Nb0 Ni0 2.865891 1_565
Nb0 Ni2 2.865894 1_555
Nb0 Ni1 2.865894 1_555
Nb0 Nb3 2.949818 1_555
Nb0 Nb1 2.992123 1_455
Nb0 Nb1 2.992123 1_565
Nb0 Nb1 2.992132 1_555
Nb1 Ni0 2.791662 1_555
Nb1 Ni1 2.791664 1_555
Nb1 Ni2 2.791664 1_555
Nb1 Ni4 2.865889 1_655
Nb1 Ni5 2.865889 1_545
Nb1 Ni3 2.865891 1_545
Nb1 Ni3 2.865891 1_655
Nb1 Ni5 2.865894 1_555
Nb1 Ni4 2.865894 1_555
Nb1 Nb2 2.949818 1_555
Nb2 Ni0 2.791662 1_556
Nb2 Ni2 2.791664 1_556
Nb2 Ni1 2.791664 1_556
Nb2 Ni4 2.865889 1_655
Nb2 Ni5 2.865889 1_545
Nb2 Ni3 2.865891 1_655
Nb2 Ni3 2.865891 1_545
Nb2 Ni5 2.865894 1_555
Nb2 Ni4 2.865894 1_555
Nb2 Nb3 2.992123 1_546
Nb2 Nb3 2.992123 1_656
Nb2 Nb3 2.992132 1_556
Nb3 Ni3 2.791662 1_554
Nb3 Ni4 2.791664 1_554
Nb3 Ni5 2.791664 1_554
Nb3 Ni1 2.865889 1_455
Nb3 Ni2 2.865889 1_565
Nb3 Ni0 2.865891 1_455
Nb3 Ni0 2.865891 1_565
Nb3 Ni2 2.865894 1_555
Nb3 Ni1 2.865894 1_555
Ni0 Ni1 2.393384 1_555
Ni0 Ni2 2.393384 1_555
Ni0 Ni2 2.520527 1_655
Ni0 Ni1 2.520527 1_545
Ni1 Ni2 2.393384 1_555
Ni1 Ni2 2.520526 1_665
Ni3 Ni4 2.393384 1_555
Ni3 Ni5 2.393384 1_555
Ni3 Ni4 2.520527 1_565
Ni3 Ni5 2.520527 1_455
Ni4 Ni5 2.393384 1_555
Ni4 Ni5 2.520526 1_445
Ge0 Ni1 2.433382 1_445
Ge0 Ni4 2.433382 1_555
Ge0 Ni5 2.433382 1_445
Ge0 Ni2 2.433382 1_555
Ge0 Ni0 2.433382 1_455
Ge0 Ni3 2.433382 1_545
Ge0 Nb0 2.876599 1_545
Ge0 Nb1 2.876599 1_455
Ge0 Nb0 2.876602 1_445
Ge0 Nb1 2.876602 1_555
Ge0 Nb0 2.876602 1_555
Ge0 Nb1 2.876602 1_445
Ge1 Ni1 2.433382 1_445
Ge1 Ni5 2.433382 1_444
Ge1 Ni2 2.433382 1_555
Ge1 Ni4 2.433382 1_554
Ge1 Ni0 2.433382 1_455
Ge1 Ni3 2.433382 1_544
Ge1 Nb3 2.876599 1_545
Ge1 Nb2 2.876599 1_454
Ge1 Nb3 2.876602 1_445
Ge1 Nb2 2.876602 1_554
Ge1 Nb2 2.876602 1_444
Ge1 Nb3 2.876602 1_555
