# generated using pymatgen
data_Mg14NbCdO16
_symmetry_space_group_name_H-M   'P 1'
_cell_length_a   8.68629644
_cell_length_b   8.68629644
_cell_length_c   4.34916152
_cell_angle_alpha   90.00000000
_cell_angle_beta   90.00000000
_cell_angle_gamma   90.00000000
_symmetry_Int_Tables_number   1
_chemical_formula_structural   Mg14NbCdO16
_chemical_formula_sum   'Mg14 Nb1 Cd1 O16'
_cell_volume   328.15182964
_cell_formula_units_Z   1
loop_
 _symmetry_equiv_pos_site_id
 _symmetry_equiv_pos_as_xyz
  1  'x, y, z'
loop_
 _atom_site_type_symbol
 _atom_site_label
 _atom_site_symmetry_multiplicity
 _atom_site_fract_x
 _atom_site_fract_y
 _atom_site_fract_z
 _atom_site_occupancy
  Mg  Mg0  1  0.00000000  0.50000000  -0.00000000  1
  Mg  Mg1  1  0.50000000  -0.00000000  -0.00000000  1
  Mg  Mg2  1  0.00000000  0.25573879  0.50000000  1
  Mg  Mg3  1  0.00000000  0.74426121  0.50000000  1
  Mg  Mg4  1  0.50000000  0.24563473  0.50000000  1
  Mg  Mg5  1  0.50000000  0.75436527  0.50000000  1
  Mg  Mg6  1  0.25573879  -0.00000000  0.50000000  1
  Mg  Mg7  1  0.24563473  0.50000000  0.50000000  1
  Mg  Mg8  1  0.74426121  -0.00000000  0.50000000  1
  Mg  Mg9  1  0.75436527  0.50000000  0.50000000  1
  Mg  Mg10  1  0.25054919  0.25054919  -0.00000000  1
  Mg  Mg11  1  0.25054919  0.74945081  0.00000000  1
  Mg  Mg12  1  0.74945081  0.25054919  -0.00000000  1
  Mg  Mg13  1  0.74945081  0.74945081  -0.00000000  1
  Nb  Nb0  1  0.00000000  -0.00000000  -0.00000000  1
  Cd  Cd0  1  0.50000000  0.50000000  -0.00000000  1
  O  O0  1  0.25819353  -0.00000000  -0.00000000  1
  O  O1  1  0.23460316  0.50000000  -0.00000000  1
  O  O2  1  0.74180647  -0.00000000  0.00000000  1
  O  O3  1  0.76539684  0.50000000  0.00000000  1
  O  O4  1  0.24957534  0.24957534  0.50000000  1
  O  O5  1  0.24957534  0.75042466  0.50000000  1
  O  O6  1  0.75042466  0.24957534  0.50000000  1
  O  O7  1  0.75042466  0.75042466  0.50000000  1
  O  O8  1  0.00000000  -0.00000000  0.50000000  1
  O  O9  1  0.00000000  0.50000000  0.50000000  1
  O  O10  1  0.50000000  -0.00000000  0.50000000  1
  O  O11  1  0.50000000  0.50000000  0.50000000  1
  O  O12  1  0.00000000  0.25819353  -0.00000000  1
  O  O13  1  0.00000000  0.74180647  -0.00000000  1
  O  O14  1  0.50000000  0.23460316  -0.00000000  1
  O  O15  1  0.50000000  0.76539684  -0.00000000  1
loop_
_geom_bond_atom_site_label_1
_geom_bond_atom_site_label_2
_geom_bond_distance
_geom_bond_site_symmetry_2
Mg0 O1 2.037833 1_555
Mg0 O3 2.037833 1_455
Mg0 O13 2.100403 1_555
Mg0 O12 2.100403 1_555
Mg0 O9 2.174581 1_555
Mg0 O9 2.174581 1_554
Mg1 O14 2.037833 1_555
Mg1 O15 2.037833 1_545
Mg1 O2 2.100403 1_555
Mg1 O0 2.100403 1_555
Mg1 O10 2.174581 1_555
Mg1 O10 2.174581 1_554
Mg2 O9 2.121725 1_555
Mg2 O4 2.168546 1_555
Mg2 O6 2.168546 1_455
Mg2 O12 2.174685 1_556
Mg2 O12 2.174685 1_555
Mg2 O8 2.221423 1_555
Mg3 O9 2.121725 1_555
Mg3 O5 2.168546 1_555
Mg3 O7 2.168546 1_455
Mg3 O13 2.174685 1_555
Mg3 O13 2.174685 1_556
Mg3 O8 2.221423 1_565
Mg4 O10 2.133656 1_555
Mg4 O4 2.175532 1_555
Mg4 O6 2.175532 1_555
Mg4 O14 2.176691 1_556
Mg4 O14 2.176691 1_555
Mg4 O11 2.209492 1_555
Mg5 O10 2.133656 1_565
Mg5 O7 2.175532 1_555
Mg5 O5 2.175532 1_555
Mg5 O15 2.176691 1_556
Mg5 O15 2.176691 1_555
Mg5 O11 2.209492 1_555
Mg6 O10 2.121725 1_555
Mg6 O4 2.168546 1_555
Mg6 O5 2.168546 1_545
Mg6 O0 2.174685 1_555
Mg6 O0 2.174685 1_556
Mg6 O8 2.221423 1_555
Mg7 O9 2.133656 1_555
Mg7 O4 2.175532 1_555
Mg7 O5 2.175532 1_555
Mg7 O1 2.176691 1_556
Mg7 O1 2.176691 1_555
Mg7 O11 2.209492 1_555
Mg8 O10 2.121725 1_555
Mg8 O6 2.168546 1_555
Mg8 O7 2.168546 1_545
Mg8 O2 2.174685 1_556
Mg8 O2 2.174685 1_555
Mg8 O8 2.221423 1_655
Mg9 O9 2.133656 1_655
Mg9 O6 2.175532 1_555
Mg9 O7 2.175532 1_555
Mg9 O3 2.176691 1_556
Mg9 O3 2.176691 1_555
Mg9 O11 2.209492 1_555
Mg10 O14 2.171226 1_555
Mg10 O1 2.171226 1_555
Mg10 O4 2.174614 1_554
Mg10 O4 2.174614 1_555
Mg10 O12 2.177357 1_555
Mg10 O0 2.177357 1_555
Mg11 O15 2.171226 1_555
Mg11 O1 2.171226 1_555
Mg11 O5 2.174614 1_554
Mg11 O5 2.174614 1_555
Mg11 O0 2.177357 1_565
Mg11 O13 2.177357 1_555
Mg12 O14 2.171226 1_555
Mg12 O3 2.171226 1_555
Mg12 O6 2.174614 1_554
Mg12 O6 2.174614 1_555
Mg12 O12 2.177357 1_655
Mg12 O2 2.177357 1_555
Mg13 O15 2.171226 1_555
Mg13 O3 2.171226 1_555
Mg13 O7 2.174614 1_554
Mg13 O7 2.174614 1_555
Mg13 O2 2.177357 1_565
Mg13 O13 2.177357 1_655
Nb0 O8 2.174581 1_554
Nb0 O8 2.174581 1_555
Nb0 O13 2.242746 1_545
Nb0 O12 2.242746 1_555
Nb0 O0 2.242746 1_555
Nb0 O2 2.242746 1_455
Cd0 O11 2.174581 1_554
Cd0 O11 2.174581 1_555
Cd0 O3 2.305316 1_555
Cd0 O1 2.305316 1_555
Cd0 O14 2.305316 1_555
Cd0 O15 2.305316 1_555
