# generated using pymatgen
data_Al(WO2)2
_symmetry_space_group_name_H-M   'P 1'
_cell_length_a   6.49106219
_cell_length_b   6.49106219
_cell_length_c   6.49106199
_cell_angle_alpha   53.84985046
_cell_angle_beta   53.84985046
_cell_angle_gamma   53.84985430
_symmetry_Int_Tables_number   1
_chemical_formula_structural   Al(WO2)2
_chemical_formula_sum   'Al2 W4 O8'
_cell_volume   165.59321213
_cell_formula_units_Z   2
loop_
 _symmetry_equiv_pos_site_id
 _symmetry_equiv_pos_as_xyz
  1  'x, y, z'
loop_
 _atom_site_type_symbol
 _atom_site_label
 _atom_site_symmetry_multiplicity
 _atom_site_fract_x
 _atom_site_fract_y
 _atom_site_fract_z
 _atom_site_occupancy
  Al  Al0  1  0.62868400  0.62868400  0.62868400  1
  Al  Al1  1  0.37131600  0.37131600  0.37131600  1
  W  W0  1  0.50000000  0.00000000  0.00000000  1
  W  W1  1  0.00000000  0.00000000  0.00000000  1
  W  W2  1  0.00000000  0.50000000  0.00000000  1
  W  W3  1  0.00000000  0.00000000  0.50000000  1
  O  O0  1  0.74947000  0.26120700  0.74947000  1
  O  O1  1  0.25053000  0.25053000  0.73879300  1
  O  O2  1  0.73879300  0.25053000  0.25053000  1
  O  O3  1  0.26366900  0.26366900  0.26366900  1
  O  O4  1  0.74947000  0.74947000  0.26120700  1
  O  O5  1  0.25053000  0.73879300  0.25053000  1
  O  O6  1  0.26120700  0.74947000  0.74947000  1
  O  O7  1  0.73633100  0.73633100  0.73633100  1
loop_
_geom_bond_atom_site_label_1
_geom_bond_atom_site_label_2
_geom_bond_distance
_geom_bond_site_symmetry_2
Al0 O7 1.786847 1_555
Al0 O4 1.797642 1_555
Al0 O0 1.797642 1_555
Al0 O6 1.797642 1_555
Al1 O3 1.786847 1_555
Al1 O1 1.797642 1_555
Al1 O2 1.797642 1_555
Al1 O5 1.797642 1_555
O0 W1 2.185831 1_656
O0 W0 2.240737 1_556
O0 W3 2.240737 1_655
O1 W1 2.185831 1_556
O1 W0 2.240737 1_556
O1 W2 2.240737 1_556
O2 W1 2.185831 1_655
O2 W2 2.240737 1_655
O2 W3 2.240737 1_655
O3 W3 2.339322 1_555
O3 W2 2.339322 1_555
O3 W0 2.339322 1_555
O4 W1 2.185831 1_665
O4 W2 2.240737 1_655
O4 W0 2.240737 1_565
O5 W1 2.185831 1_565
O5 W0 2.240737 1_565
O5 W3 2.240737 1_565
O6 W1 2.185831 1_566
O6 W2 2.240737 1_556
O6 W3 2.240737 1_565
O7 W3 2.339322 1_665
O7 W2 2.339322 1_656
O7 W0 2.339322 1_566
