# generated using pymatgen
data_Ba8PrY3(Cu3O7)4
_symmetry_space_group_name_H-M   'P 1'
_cell_length_a   3.85647700
_cell_length_b   3.93759600
_cell_length_c   47.28324300
_cell_angle_alpha   90.00000000
_cell_angle_beta   90.00000000
_cell_angle_gamma   90.00000000
_symmetry_Int_Tables_number   1
_chemical_formula_structural   Ba8PrY3(Cu3O7)4
_chemical_formula_sum   'Ba8 Pr1 Y3 Cu12 O28'
_cell_volume   718.00779055
_cell_formula_units_Z   1
loop_
 _symmetry_equiv_pos_site_id
 _symmetry_equiv_pos_as_xyz
  1  'x, y, z'
loop_
 _atom_site_type_symbol
 _atom_site_label
 _atom_site_symmetry_multiplicity
 _atom_site_fract_x
 _atom_site_fract_y
 _atom_site_fract_z
 _atom_site_occupancy
  Ba  Ba0  1  0.50000000  0.50000000  0.17023700  1
  Ba  Ba1  1  0.50000000  0.50000000  0.92031000  1
  Ba  Ba2  1  0.50000000  0.50000000  0.67035100  1
  Ba  Ba3  1  0.50000000  0.50000000  0.41959700  1
  Ba  Ba4  1  0.50000000  0.50000000  0.32964900  1
  Ba  Ba5  1  0.50000000  0.50000000  0.07969000  1
  Ba  Ba6  1  0.50000000  0.50000000  0.82976300  1
  Ba  Ba7  1  0.50000000  0.50000000  0.58040300  1
  Pr  Pr0  1  0.50000000  0.50000000  0.50000000  1
  Y  Y0  1  0.50000000  0.50000000  0.24998800  1
  Y  Y1  1  0.50000000  0.50000000  0.00000000  1
  Y  Y2  1  0.50000000  0.50000000  0.75001200  1
  Cu  Cu0  1  0.00000000  0.00000000  0.37472900  1
  Cu  Cu1  1  0.00000000  0.00000000  0.12500100  1
  Cu  Cu2  1  0.00000000  0.00000000  0.87499900  1
  Cu  Cu3  1  0.00000000  0.00000000  0.62527100  1
  Cu  Cu4  1  0.00000000  0.00000000  0.21300200  1
  Cu  Cu5  1  0.00000000  0.00000000  0.96302100  1
  Cu  Cu6  1  0.00000000  0.00000000  0.71303300  1
  Cu  Cu7  1  0.00000000  0.00000000  0.46109400  1
  Cu  Cu8  1  0.00000000  0.00000000  0.28696700  1
  Cu  Cu9  1  0.00000000  0.00000000  0.03697900  1
  Cu  Cu10  1  0.00000000  0.00000000  0.78699800  1
  Cu  Cu11  1  0.00000000  0.00000000  0.53890600  1
  O  O0  1  0.50000000  0.00000000  0.21978800  1
  O  O1  1  0.50000000  0.00000000  0.96979200  1
  O  O2  1  0.50000000  0.00000000  0.71981200  1
  O  O3  1  0.50000000  0.00000000  0.46749600  1
  O  O4  1  0.50000000  0.00000000  0.28018800  1
  O  O5  1  0.50000000  0.00000000  0.03020800  1
  O  O6  1  0.50000000  0.00000000  0.78021200  1
  O  O7  1  0.50000000  0.00000000  0.53250400  1
  O  O8  1  0.00000000  0.00000000  0.16476100  1
  O  O9  1  0.00000000  0.00000000  0.91473000  1
  O  O10  1  0.00000000  0.00000000  0.66496900  1
  O  O11  1  0.00000000  0.00000000  0.41430000  1
  O  O12  1  0.00000000  0.00000000  0.33503100  1
  O  O13  1  0.00000000  0.00000000  0.08527000  1
  O  O14  1  0.00000000  0.00000000  0.83523900  1
  O  O15  1  0.00000000  0.00000000  0.58570000  1
  O  O16  1  0.00000000  0.50000000  0.37458400  1
  O  O17  1  0.00000000  0.50000000  0.12495000  1
  O  O18  1  0.00000000  0.50000000  0.87505000  1
  O  O19  1  0.00000000  0.50000000  0.62541600  1
  O  O20  1  0.00000000  0.50000000  0.21951000  1
  O  O21  1  0.00000000  0.50000000  0.96953000  1
  O  O22  1  0.00000000  0.50000000  0.71954300  1
  O  O23  1  0.00000000  0.50000000  0.46718000  1
  O  O24  1  0.00000000  0.50000000  0.28045700  1
  O  O25  1  0.00000000  0.50000000  0.03047000  1
  O  O26  1  0.00000000  0.50000000  0.78049000  1
  O  O27  1  0.00000000  0.50000000  0.53282000  1
loop_
_geom_bond_atom_site_label_1
_geom_bond_atom_site_label_2
_geom_bond_distance
_geom_bond_site_symmetry_2
Ba0 O8 2.767907 1_655
Ba0 O8 2.767907 1_665
Ba0 O8 2.767907 1_555
Ba0 O8 2.767907 1_565
Ba0 O17 2.881551 1_555
Ba0 O17 2.881551 1_655
Ba0 O20 3.024237 1_655
Ba0 O20 3.024237 1_555
Ba0 O0 3.060310 1_555
Ba0 O0 3.060310 1_565
Ba1 O9 2.768372 1_555
Ba1 O9 2.768372 1_565
Ba1 O9 2.768372 1_665
Ba1 O9 2.768372 1_655
Ba1 O18 2.880603 1_555
Ba1 O18 2.880603 1_655
Ba1 O21 3.022307 1_655
Ba1 O21 3.022307 1_555
Ba1 O1 3.057813 1_565
Ba1 O1 3.057813 1_555
Ba2 O10 2.767495 1_555
Ba2 O10 2.767495 1_565
Ba2 O10 2.767495 1_655
Ba2 O10 2.767495 1_665
Ba2 O19 2.869205 1_655
Ba2 O19 2.869205 1_555
Ba2 O22 3.021288 1_655
Ba2 O22 3.021288 1_555
Ba2 O2 3.057053 1_555
Ba2 O2 3.057053 1_565
Ba3 O11 2.767128 1_665
Ba3 O11 2.767128 1_555
Ba3 O11 2.767128 1_565
Ba3 O11 2.767128 1_655
Ba3 O16 2.871937 1_555
Ba3 O16 2.871937 1_655
Ba3 O23 2.963116 1_555
Ba3 O23 2.963116 1_655
Ba3 O3 3.000929 1_555
Ba3 O3 3.000929 1_565
Ba4 O12 2.767495 1_565
Ba4 O12 2.767495 1_655
Ba4 O12 2.767495 1_665
Ba4 O12 2.767495 1_555
Ba4 O16 2.869205 1_555
Ba4 O16 2.869205 1_655
Ba4 O24 3.021288 1_555
Ba4 O24 3.021288 1_655
Ba4 O4 3.057053 1_555
Ba4 O4 3.057053 1_565
Ba5 O13 2.768372 1_665
Ba5 O13 2.768372 1_565
Ba5 O13 2.768372 1_555
Ba5 O13 2.768372 1_655
Ba5 O17 2.880603 1_655
Ba5 O17 2.880603 1_555
Ba5 O25 3.022307 1_555
Ba5 O25 3.022307 1_655
Ba5 O5 3.057813 1_565
Ba5 O5 3.057813 1_555
Ba6 O14 2.767907 1_565
Ba6 O14 2.767907 1_655
Ba6 O14 2.767907 1_665
Ba6 O14 2.767907 1_555
Ba6 O18 2.881551 1_555
Ba6 O18 2.881551 1_655
Ba6 O26 3.024237 1_655
Ba6 O26 3.024237 1_555
Ba6 O6 3.060310 1_565
Ba6 O6 3.060310 1_555
Ba7 O15 2.767128 1_655
Ba7 O15 2.767128 1_555
Ba7 O15 2.767128 1_565
Ba7 O15 2.767128 1_665
Ba7 O19 2.871937 1_555
Ba7 O19 2.871937 1_655
Ba7 O27 2.963116 1_555
Ba7 O27 2.963116 1_655
Ba7 O7 3.000929 1_555
Ba7 O7 3.000929 1_565
Cu0 O11 1.871045 1_555
Cu0 O12 1.877050 1_555
Cu0 O16 1.968810 1_545
Cu0 O16 1.968810 1_555
Cu1 O13 1.878611 1_555
Cu1 O8 1.879982 1_555
Cu1 O17 1.968799 1_545
Cu1 O17 1.968799 1_555
Cu2 O9 1.878611 1_555
Cu2 O14 1.879982 1_555
Cu2 O18 1.968799 1_545
Cu2 O18 1.968799 1_555
Cu3 O15 1.871045 1_555
Cu3 O10 1.877050 1_555
Cu3 O19 1.968810 1_555
Cu3 O19 1.968810 1_545
Cu4 O0 1.954753 1_455
Cu4 O0 1.954753 1_555
Cu4 O20 1.992701 1_545
Cu4 O20 1.992701 1_555
Cu4 O8 2.280991 1_555
Cu5 O1 1.954636 1_555
Cu5 O1 1.954636 1_455
Cu5 O21 1.992708 1_555
Cu5 O21 1.992708 1_545
Cu5 O9 2.283355 1_555
Cu6 O2 1.954698 1_455
Cu6 O2 1.954698 1_555
Cu6 O22 1.992715 1_555
Cu6 O22 1.992715 1_545
Cu6 O10 2.272622 1_555
Cu7 O3 1.951854 1_455
Cu7 O3 1.951854 1_555
Cu7 O23 1.989717 1_555
Cu7 O23 1.989717 1_545
Cu7 O11 2.212572 1_555
Cu8 O4 1.954698 1_555
Cu8 O4 1.954698 1_455
Cu8 O24 1.992715 1_545
Cu8 O24 1.992715 1_555
Cu8 O12 2.272622 1_555
Cu9 O5 1.954636 1_455
Cu9 O5 1.954636 1_555
Cu9 O25 1.992708 1_555
Cu9 O25 1.992708 1_545
Cu9 O13 2.283355 1_555
Cu10 O6 1.954753 1_455
Cu10 O6 1.954753 1_555
Cu10 O26 1.992701 1_555
Cu10 O26 1.992701 1_545
Cu10 O14 2.280991 1_555
Cu11 O7 1.951854 1_455
Cu11 O7 1.951854 1_555
Cu11 O27 1.989717 1_555
Cu11 O27 1.989717 1_545
Cu11 O15 2.212572 1_555
O0 Y0 2.432122 1_545
O0 Y0 2.432122 1_555
O1 Y1 2.432344 1_546
O1 Y1 2.432344 1_556
O2 Y2 2.432122 1_555
O2 Y2 2.432122 1_545
O3 Pr0 2.497641 1_545
O3 Pr0 2.497641 1_555
O4 Y0 2.432122 1_545
O4 Y0 2.432122 1_555
O5 Y1 2.432344 1_555
O5 Y1 2.432344 1_545
O6 Y2 2.432122 1_555
O6 Y2 2.432122 1_545
O7 Pr0 2.497641 1_545
O7 Pr0 2.497641 1_555
O20 Y0 2.407253 1_555
O20 Y0 2.407253 1_455
O21 Y1 2.407027 1_456
O21 Y1 2.407027 1_556
O22 Y2 2.406999 1_555
O22 Y2 2.406999 1_455
O23 Pr0 2.475136 1_555
O23 Pr0 2.475136 1_455
O24 Y0 2.406999 1_455
O24 Y0 2.406999 1_555
O25 Y1 2.407027 1_555
O25 Y1 2.407027 1_455
O26 Y2 2.407253 1_555
O26 Y2 2.407253 1_455
O27 Pr0 2.475136 1_455
O27 Pr0 2.475136 1_555
