# generated using pymatgen
data_BaMnSbF
_symmetry_space_group_name_H-M   'P 1'
_cell_length_a   4.60523000
_cell_length_b   4.60523000
_cell_length_c   10.04867500
_cell_angle_alpha   90.00000000
_cell_angle_beta   90.00000000
_cell_angle_gamma   90.00000000
_symmetry_Int_Tables_number   1
_chemical_formula_structural   BaMnSbF
_chemical_formula_sum   'Ba2 Mn2 Sb2 F2'
_cell_volume   213.11373991
_cell_formula_units_Z   2
loop_
 _symmetry_equiv_pos_site_id
 _symmetry_equiv_pos_as_xyz
  1  'x, y, z'
loop_
 _atom_site_type_symbol
 _atom_site_label
 _atom_site_symmetry_multiplicity
 _atom_site_fract_x
 _atom_site_fract_y
 _atom_site_fract_z
 _atom_site_occupancy
  Ba  Ba0  1  0.00000000  0.50000000  0.64445800  1
  Ba  Ba1  1  0.50000000  0.00000000  0.35554200  1
  Mn  Mn0  1  0.50000000  0.50000000  0.00000000  1
  Mn  Mn1  1  0.00000000  0.00000000  0.00000000  1
  Sb  Sb0  1  0.00000000  0.50000000  0.17240100  1
  Sb  Sb1  1  0.50000000  0.00000000  0.82759900  1
  F  F0  1  0.50000000  0.50000000  0.50000000  1
  F  F1  1  0.00000000  0.00000000  0.50000000  1
loop_
_geom_bond_atom_site_label_1
_geom_bond_atom_site_label_2
_geom_bond_distance
_geom_bond_site_symmetry_2
Ba0 F0 2.721987 1_455
Ba0 F0 2.721987 1_555
Ba0 F1 2.721987 1_555
Ba0 F1 2.721987 1_565
Ba0 Sb1 3.740437 1_565
Ba0 Sb1 3.740437 1_465
Ba0 Sb1 3.740437 1_555
Ba0 Sb1 3.740437 1_455
Ba1 F0 2.721987 1_545
Ba1 F0 2.721987 1_555
Ba1 F1 2.721987 1_555
Ba1 F1 2.721987 1_655
Ba1 Sb0 3.740437 1_645
Ba1 Sb0 3.740437 1_545
Ba1 Sb0 3.740437 1_655
Ba1 Sb0 3.740437 1_555
Mn0 Sb1 2.881536 1_554
Mn0 Sb0 2.881536 1_555
Mn0 Sb0 2.881536 1_655
Mn0 Sb1 2.881536 1_564
Mn1 Sb1 2.881536 1_454
Mn1 Sb0 2.881536 1_545
Mn1 Sb0 2.881536 1_555
Mn1 Sb1 2.881536 1_554
