# generated using pymatgen
data_SrEu3
_symmetry_space_group_name_H-M   'P 1'
_cell_length_a   5.74443281
_cell_length_b   5.74406523
_cell_length_c   5.74403016
_cell_angle_alpha   90.00000000
_cell_angle_beta   90.00000000
_cell_angle_gamma   90.00000000
_symmetry_Int_Tables_number   1
_chemical_formula_structural   SrEu3
_chemical_formula_sum   'Sr1 Eu3'
_cell_volume   189.53229822
_cell_formula_units_Z   1
loop_
 _symmetry_equiv_pos_site_id
 _symmetry_equiv_pos_as_xyz
  1  'x, y, z'
loop_
 _atom_site_type_symbol
 _atom_site_label
 _atom_site_symmetry_multiplicity
 _atom_site_fract_x
 _atom_site_fract_y
 _atom_site_fract_z
 _atom_site_occupancy
  Sr  Sr0  1  -0.00000000  -0.00000000  0.00000000  1
  Eu  Eu0  1  -0.00000000  0.50000000  0.50000000  1
  Eu  Eu1  1  0.50000000  0.00000000  0.50000000  1
  Eu  Eu2  1  0.50000000  0.50000000  -0.00000000  1
loop_
_geom_bond_atom_site_label_1
_geom_bond_atom_site_label_2
_geom_bond_distance
_geom_bond_site_symmetry_2
Eu0 Sr0 4.061655 1_565
Eu0 Sr0 4.061655 1_556
Eu0 Sr0 4.061655 1_555
Eu0 Sr0 4.061655 1_566
Eu0 Eu2 4.061785 1_455
Eu0 Eu2 4.061785 1_456
Eu0 Eu2 4.061785 1_555
Eu0 Eu2 4.061785 1_556
Eu0 Eu1 4.061797 1_555
Eu0 Eu1 4.061797 1_565
Eu0 Eu1 4.061797 1_455
Eu0 Eu1 4.061797 1_465
Eu1 Eu2 4.061655 1_545
Eu1 Eu2 4.061655 1_555
Eu1 Eu2 4.061655 1_556
Eu1 Eu2 4.061655 1_546
Eu1 Sr0 4.061785 1_555
Eu1 Sr0 4.061785 1_556
Eu1 Sr0 4.061785 1_656
Eu1 Sr0 4.061785 1_655
Eu2 Sr0 4.061797 1_555
Eu2 Sr0 4.061797 1_565
Eu2 Sr0 4.061797 1_665
Eu2 Sr0 4.061797 1_655
