# generated using pymatgen
data_NaFe6H12S4O29
_symmetry_space_group_name_H-M   'P 1'
_cell_length_a   7.01104550
_cell_length_b   10.26026960
_cell_length_c   7.40539235
_cell_angle_alpha   89.99999715
_cell_angle_beta   90.00000769
_cell_angle_gamma   93.61807580
_symmetry_Int_Tables_number   1
_chemical_formula_structural   NaFe6H12S4O29
_chemical_formula_sum   'Na1 Fe6 H12 S4 O29'
_cell_volume   531.64674789
_cell_formula_units_Z   1
loop_
 _symmetry_equiv_pos_site_id
 _symmetry_equiv_pos_as_xyz
  1  'x, y, z'
loop_
 _atom_site_type_symbol
 _atom_site_label
 _atom_site_symmetry_multiplicity
 _atom_site_fract_x
 _atom_site_fract_y
 _atom_site_fract_z
 _atom_site_occupancy
  Na  Na0  1  0.00000000  0.00000000  0.00000000  1
  Fe  Fe0  1  0.50000300  0.00000000  0.00000000  1
  Fe  Fe1  1  0.00000300  0.50000000  0.50000000  1
  Fe  Fe2  1  0.24394800  0.24566300  0.25065400  1
  Fe  Fe3  1  0.75605600  0.75434100  0.74935000  1
  Fe  Fe4  1  0.75605600  0.75434100  0.25065000  1
  Fe  Fe5  1  0.24394800  0.24566300  0.74934600  1
  H  H0  1  0.98800300  0.69578700  0.00000000  1
  H  H1  1  0.47374300  0.18468900  0.50000000  1
  H  H2  1  0.18952500  0.49317200  0.78137200  1
  H  H3  1  0.68857200  0.99173600  0.29338300  1
  H  H4  1  0.18952500  0.49317200  0.21862800  1
  H  H5  1  0.68857200  0.99173600  0.70661700  1
  H  H6  1  0.01199700  0.30421300  0.00000000  1
  H  H7  1  0.52625700  0.81531100  0.50000000  1
  H  H8  1  0.81047500  0.50682800  0.21862800  1
  H  H9  1  0.31142800  0.00826400  0.70661700  1
  H  H10  1  0.81047500  0.50682800  0.78137200  1
  H  H11  1  0.31142800  0.00826400  0.29338300  1
  S  S0  1  0.38730000  0.69110500  0.00000000  1
  S  S1  1  0.87052400  0.18946100  0.50000000  1
  S  S2  1  0.61270000  0.30889500  0.00000000  1
  S  S3  1  0.12947600  0.81053900  0.50000000  1
  O  O0  1  0.86966900  0.74273100  0.00000000  1
  O  O1  1  0.34992600  0.22584300  0.50000000  1
  O  O2  1  0.16350600  0.42967600  0.68287500  1
  O  O3  1  0.67883700  0.93394700  0.18661800  1
  O  O4  1  0.16350600  0.42967600  0.31712500  1
  O  O5  1  0.67883700  0.93394700  0.81338200  1
  O  O6  1  0.13033100  0.25726900  0.00000000  1
  O  O7  1  0.65007400  0.77415700  0.50000000  1
  O  O8  1  0.83649400  0.57032400  0.31712500  1
  O  O9  1  0.32116300  0.06605300  0.81338200  1
  O  O10  1  0.83649400  0.57032400  0.68287500  1
  O  O11  1  0.32116300  0.06605300  0.18661800  1
  O  O12  1  0.21510000  0.60101100  0.00000000  1
  O  O13  1  0.69727400  0.09879700  0.50000000  1
  O  O14  1  0.78490000  0.39898900  0.00000000  1
  O  O15  1  0.30272600  0.90120300  0.50000000  1
  O  O16  1  0.32915500  0.82896900  0.00000000  1
  O  O17  1  0.81625100  0.32622000  0.50000000  1
  O  O18  1  0.50274300  0.66789000  0.83499000  1
  O  O19  1  0.98561500  0.16270300  0.33477100  1
  O  O20  1  0.50274300  0.66789000  0.16501000  1
  O  O21  1  0.98561500  0.16270300  0.66522900  1
  O  O22  1  0.67084500  0.17103100  0.00000000  1
  O  O23  1  0.18374900  0.67378000  0.50000000  1
  O  O24  1  0.49725700  0.33211000  0.16501000  1
  O  O25  1  0.01438500  0.83729700  0.66522900  1
  O  O26  1  0.49725700  0.33211000  0.83499000  1
  O  O27  1  0.01438500  0.83729700  0.33477100  1
  O  O28  1  0.50000000  0.50000000  0.50000000  1
loop_
_geom_bond_atom_site_label_1
_geom_bond_atom_site_label_2
_geom_bond_distance
_geom_bond_site_symmetry_2
Na0 O5 2.691965 1_444
Na0 O11 2.691965 1_555
Na0 O9 2.691965 1_554
Na0 O3 2.691965 1_445
Na0 O0 2.738299 1_445
Na0 O6 2.738299 1_555
Na0 O22 2.985982 1_455
Na0 O16 2.985982 1_545
Na0 O21 2.994032 1_454
Na0 O27 2.994032 1_545
Na0 O19 2.994032 1_455
Na0 O25 2.994032 1_544
Fe0 O3 2.012080 1_545
Fe0 O5 2.012081 1_544
Fe0 O9 2.012107 1_554
Fe0 O11 2.012108 1_555
Fe0 O22 2.061263 1_555
Fe0 O16 2.061285 1_545
Fe1 O2 1.942448 1_555
Fe1 O4 1.942448 1_555
Fe1 O8 1.942474 1_455
Fe1 O10 1.942474 1_455
Fe1 O23 2.132811 1_555
Fe1 O17 2.132834 1_455
Fe2 O1 2.005512 1_555
Fe2 O11 2.009961 1_555
Fe2 O6 2.026358 1_555
Fe2 O24 2.035728 1_555
Fe2 O19 2.048993 1_455
Fe2 O4 2.063832 1_555
Fe3 O7 2.005545 1_555
Fe3 O5 2.009925 1_555
Fe3 O0 2.026323 1_556
Fe3 O18 2.035758 1_555
Fe3 O25 2.048963 1_655
Fe3 O10 2.063868 1_555
Fe4 O7 2.005545 1_555
Fe4 O3 2.009925 1_555
Fe4 O0 2.026324 1_555
Fe4 O20 2.035758 1_555
Fe4 O27 2.048963 1_655
Fe4 O8 2.063868 1_555
Fe5 O1 2.005512 1_555
Fe5 O9 2.009961 1_555
Fe5 O6 2.026358 1_556
Fe5 O26 2.035727 1_555
Fe5 O21 2.048993 1_455
Fe5 O2 2.063832 1_555
H0 O0 0.985261 1_555
H1 O1 0.989006 1_555
H2 O2 0.987294 1_555
H3 O3 0.988041 1_555
H4 O4 0.987294 1_555
H5 O5 0.988040 1_555
H6 O6 0.985261 1_555
H7 O7 0.989006 1_555
H8 O8 0.987294 1_555
H9 O9 0.988041 1_555
H10 O10 0.987294 1_555
H11 O11 0.988040 1_555
O12 S0 1.473506 1_555
O13 S1 1.482613 1_555
O14 S2 1.473506 1_555
O15 S3 1.482613 1_555
O16 S0 1.496608 1_555
O17 S1 1.476855 1_555
O18 S0 1.493102 1_556
O19 S1 1.500532 1_555
O20 S0 1.493102 1_555
O21 S1 1.500532 1_555
O22 S2 1.496608 1_555
O23 S3 1.476855 1_555
O24 S2 1.493102 1_555
O25 S3 1.500532 1_555
O26 S2 1.493102 1_556
O27 S3 1.500532 1_555
