# generated using pymatgen
data_Nd3Ho2(GaO4)3
_symmetry_space_group_name_H-M   'P 1'
_cell_length_a   11.32427462
_cell_length_b   11.32427462
_cell_length_c   11.32427462
_cell_angle_alpha   109.47122063
_cell_angle_beta   109.47122063
_cell_angle_gamma   109.47122063
_symmetry_Int_Tables_number   1
_chemical_formula_structural   Nd3Ho2(GaO4)3
_chemical_formula_sum   'Nd12 Ho8 Ga12 O48'
_cell_volume   1117.91629692
_cell_formula_units_Z   4
loop_
 _symmetry_equiv_pos_site_id
 _symmetry_equiv_pos_as_xyz
  1  'x, y, z'
loop_
 _atom_site_type_symbol
 _atom_site_label
 _atom_site_symmetry_multiplicity
 _atom_site_fract_x
 _atom_site_fract_y
 _atom_site_fract_z
 _atom_site_occupancy
  Nd  Nd0  1  0.25000000  0.37500000  0.12500000  1
  Nd  Nd1  1  0.75000000  0.62500000  0.87500000  1
  Nd  Nd2  1  0.75000000  0.12500000  0.37500000  1
  Nd  Nd3  1  0.12500000  0.25000000  0.37500000  1
  Nd  Nd4  1  0.37500000  0.75000000  0.12500000  1
  Nd  Nd5  1  0.25000000  0.87500000  0.62500000  1
  Nd  Nd6  1  0.87500000  0.75000000  0.62500000  1
  Nd  Nd7  1  0.62500000  0.25000000  0.87500000  1
  Nd  Nd8  1  0.37500000  0.12500000  0.25000000  1
  Nd  Nd9  1  0.62500000  0.87500000  0.75000000  1
  Nd  Nd10  1  0.12500000  0.37500000  0.75000000  1
  Nd  Nd11  1  0.87500000  0.62500000  0.25000000  1
  Ho  Ho0  1  0.00000000  0.00000000  0.00000000  1
  Ho  Ho1  1  0.50000000  0.00000000  0.50000000  1
  Ho  Ho2  1  0.00000000  0.50000000  0.50000000  1
  Ho  Ho3  1  0.50000000  0.00000000  0.00000000  1
  Ho  Ho4  1  0.50000000  0.50000000  0.00000000  1
  Ho  Ho5  1  0.50000000  0.50000000  0.50000000  1
  Ho  Ho6  1  0.00000000  0.00000000  0.50000000  1
  Ho  Ho7  1  0.00000000  0.50000000  0.00000000  1
  Ga  Ga0  1  0.25000000  0.62500000  0.37500000  1
  Ga  Ga1  1  0.75000000  0.37500000  0.62500000  1
  Ga  Ga2  1  0.75000000  0.87500000  0.12500000  1
  Ga  Ga3  1  0.37500000  0.25000000  0.62500000  1
  Ga  Ga4  1  0.62500000  0.75000000  0.37500000  1
  Ga  Ga5  1  0.25000000  0.12500000  0.87500000  1
  Ga  Ga6  1  0.12500000  0.75000000  0.87500000  1
  Ga  Ga7  1  0.87500000  0.25000000  0.12500000  1
  Ga  Ga8  1  0.62500000  0.37500000  0.25000000  1
  Ga  Ga9  1  0.37500000  0.62500000  0.75000000  1
  Ga  Ga10  1  0.87500000  0.12500000  0.75000000  1
  Ga  Ga11  1  0.12500000  0.87500000  0.25000000  1
  O  O0  1  0.47174800  0.37182200  0.28325100  1
  O  O1  1  0.52825200  0.62817800  0.71674900  1
  O  O2  1  0.58857100  0.18849600  0.21674900  1
  O  O3  1  0.91142900  0.12817800  0.59992500  1
  O  O4  1  0.28325100  0.47174800  0.37182200  1
  O  O5  1  0.31150400  0.91142900  0.28325100  1
  O  O6  1  0.41142900  0.81150400  0.78325100  1
  O  O7  1  0.08857100  0.87182200  0.40007500  1
  O  O8  1  0.71674900  0.52825200  0.62817800  1
  O  O9  1  0.68849600  0.08857100  0.71674900  1
  O  O10  1  0.02825200  0.31150400  0.90007500  1
  O  O11  1  0.21674900  0.58857100  0.18849600  1
  O  O12  1  0.12817800  0.02825200  0.21674900  1
  O  O13  1  0.97174800  0.68849600  0.09992500  1
  O  O14  1  0.78325100  0.41142900  0.81150400  1
  O  O15  1  0.87182200  0.97174800  0.78325100  1
  O  O16  1  0.59992500  0.91142900  0.12817800  1
  O  O17  1  0.18849600  0.47174800  0.59992500  1
  O  O18  1  0.40007500  0.08857100  0.87182200  1
  O  O19  1  0.81150400  0.52825200  0.40007500  1
  O  O20  1  0.90007500  0.02825200  0.31150400  1
  O  O21  1  0.37182200  0.58857100  0.90007500  1
  O  O22  1  0.09992500  0.97174800  0.68849600  1
  O  O23  1  0.62817800  0.41142900  0.09992500  1
  O  O24  1  0.37182200  0.28325100  0.47174800  1
  O  O25  1  0.58857100  0.90007500  0.37182200  1
  O  O26  1  0.62817800  0.71674900  0.52825200  1
  O  O27  1  0.41142900  0.09992500  0.62817800  1
  O  O28  1  0.12817800  0.59992500  0.91142900  1
  O  O29  1  0.02825200  0.21674900  0.12817800  1
  O  O30  1  0.87182200  0.40007500  0.08857100  1
  O  O31  1  0.97174800  0.78325100  0.87182200  1
  O  O32  1  0.31150400  0.90007500  0.02825200  1
  O  O33  1  0.91142900  0.28325100  0.31150400  1
  O  O34  1  0.68849600  0.09992500  0.97174800  1
  O  O35  1  0.08857100  0.71674900  0.68849600  1
  O  O36  1  0.18849600  0.21674900  0.58857100  1
  O  O37  1  0.47174800  0.59992500  0.18849600  1
  O  O38  1  0.81150400  0.78325100  0.41142900  1
  O  O39  1  0.52825200  0.40007500  0.81150400  1
  O  O40  1  0.28325100  0.31150400  0.91142900  1
  O  O41  1  0.71674900  0.68849600  0.08857100  1
  O  O42  1  0.21674900  0.12817800  0.02825200  1
  O  O43  1  0.78325100  0.87182200  0.97174800  1
  O  O44  1  0.90007500  0.37182200  0.58857100  1
  O  O45  1  0.09992500  0.62817800  0.41142900  1
  O  O46  1  0.59992500  0.18849600  0.47174800  1
  O  O47  1  0.40007500  0.81150400  0.52825200  1
loop_
_geom_bond_atom_site_label_1
_geom_bond_atom_site_label_2
_geom_bond_distance
_geom_bond_site_symmetry_2
Nd0 O11 2.477175 1_555
Nd0 O40 2.477175 1_554
Nd0 O4 2.477175 1_555
Nd0 O42 2.477175 1_555
Nd0 O37 2.573280 1_555
Nd0 O10 2.573280 1_554
Nd0 O0 2.573282 1_555
Nd0 O29 2.573282 1_555
Nd1 O14 2.477175 1_555
Nd1 O41 2.477175 1_556
Nd1 O8 2.477175 1_555
Nd1 O43 2.477175 1_555
Nd1 O13 2.573280 1_556
Nd1 O39 2.573280 1_555
Nd1 O31 2.573282 1_555
Nd1 O1 2.573282 1_555
Nd2 O44 2.477175 1_555
Nd2 O16 2.477175 1_545
Nd2 O20 2.477182 1_555
Nd2 O46 2.477182 1_555
Nd2 O3 2.573274 1_555
Nd2 O33 2.573274 1_555
Nd2 O2 2.573274 1_555
Nd2 O25 2.573274 1_545
Nd3 O36 2.477175 1_555
Nd3 O33 2.477175 1_455
Nd3 O29 2.477175 1_555
Nd3 O24 2.477175 1_555
Nd3 O17 2.573280 1_555
Nd3 O20 2.573280 1_455
Nd3 O4 2.573282 1_555
Nd3 O12 2.573282 1_555
Nd4 O25 2.477175 1_555
Nd4 O28 2.477175 1_554
Nd4 O32 2.477182 1_555
Nd4 O37 2.477182 1_555
Nd4 O16 2.573274 1_555
Nd4 O5 2.573274 1_555
Nd4 O21 2.573274 1_554
Nd4 O11 2.573274 1_555
Nd5 O18 2.477175 1_565
Nd5 O45 2.477175 1_555
Nd5 O47 2.477182 1_555
Nd5 O22 2.477182 1_555
Nd5 O6 2.573274 1_555
Nd5 O35 2.573274 1_555
Nd5 O27 2.573274 1_565
Nd5 O7 2.573274 1_555
Nd6 O38 2.477175 1_555
Nd6 O35 2.477175 1_655
Nd6 O26 2.477175 1_555
Nd6 O31 2.477175 1_555
Nd6 O22 2.573280 1_655
Nd6 O19 2.573280 1_555
Nd6 O15 2.573282 1_555
Nd6 O8 2.573282 1_555
Nd7 O27 2.477175 1_555
Nd7 O30 2.477175 1_556
Nd7 O39 2.477182 1_555
Nd7 O34 2.477182 1_555
Nd7 O14 2.573274 1_555
Nd7 O9 2.573274 1_555
Nd7 O23 2.573274 1_556
Nd7 O18 2.573274 1_555
Nd8 O2 2.477175 1_555
Nd8 O5 2.477175 1_545
Nd8 O0 2.477175 1_555
Nd8 O12 2.477175 1_555
Nd8 O46 2.573280 1_555
Nd8 O32 2.573280 1_545
Nd8 O24 2.573282 1_555
Nd8 O42 2.573282 1_555
Nd9 O6 2.477175 1_555
Nd9 O9 2.477175 1_565
Nd9 O1 2.477175 1_555
Nd9 O15 2.477175 1_555
Nd9 O34 2.573280 1_565
Nd9 O47 2.573280 1_555
Nd9 O43 2.573282 1_555
Nd9 O26 2.573282 1_555
Nd10 O21 2.477175 1_555
Nd10 O3 2.477175 1_455
Nd10 O10 2.477182 1_555
Nd10 O17 2.477182 1_555
Nd10 O28 2.573274 1_555
Nd10 O40 2.573274 1_555
Nd10 O36 2.573274 1_555
Nd10 O44 2.573274 1_455
Nd11 O23 2.477175 1_555
Nd11 O7 2.477175 1_655
Nd11 O19 2.477182 1_555
Nd11 O13 2.477182 1_555
Nd11 O38 2.573274 1_555
Nd11 O41 2.573274 1_555
Nd11 O45 2.573274 1_655
Nd11 O30 2.573274 1_555
Ho0 O12 2.241797 1_555
Ho0 O42 2.241797 1_555
Ho0 O29 2.241797 1_555
Ho0 O31 2.241797 1_444
Ho0 O15 2.241797 1_444
Ho0 O43 2.241797 1_444
Ho1 O47 2.241785 1_545
Ho1 O46 2.241785 1_555
Ho1 O5 2.241792 1_545
Ho1 O27 2.241792 1_555
Ho1 O25 2.241792 1_545
Ho1 O9 2.241792 1_555
Ho2 O19 2.241785 1_455
Ho2 O17 2.241785 1_555
Ho2 O33 2.241792 1_455
Ho2 O35 2.241792 1_555
Ho2 O45 2.241792 1_555
Ho2 O44 2.241792 1_455
Ho3 O32 2.241785 1_545
Ho3 O34 2.241785 1_554
Ho3 O2 2.241792 1_555
Ho3 O16 2.241792 1_545
Ho3 O18 2.241792 1_554
Ho3 O6 2.241792 1_544
Ho4 O39 2.241785 1_554
Ho4 O37 2.241785 1_555
Ho4 O40 2.241792 1_554
Ho4 O41 2.241792 1_555
Ho4 O23 2.241792 1_555
Ho4 O21 2.241792 1_554
Ho5 O4 2.241797 1_555
Ho5 O0 2.241797 1_555
Ho5 O24 2.241797 1_555
Ho5 O1 2.241797 1_555
Ho5 O8 2.241797 1_555
Ho5 O26 2.241797 1_555
Ho6 O20 2.241785 1_455
Ho6 O22 2.241785 1_545
Ho6 O36 2.241792 1_555
Ho6 O3 2.241792 1_455
Ho6 O7 2.241792 1_545
Ho6 O38 2.241792 1_445
Ho7 O10 2.241785 1_554
Ho7 O13 2.241785 1_455
Ho7 O11 2.241792 1_555
Ho7 O28 2.241792 1_554
Ho7 O30 2.241792 1_455
Ho7 O14 2.241792 1_454
Ga0 O4 1.886260 1_555
Ga0 O47 1.886268 1_555
Ga0 O11 1.886271 1_555
Ga0 O45 1.886271 1_555
Ga1 O8 1.886260 1_555
Ga1 O46 1.886268 1_555
Ga1 O44 1.886271 1_555
Ga1 O14 1.886271 1_555
Ga2 O43 1.886260 1_554
Ga2 O20 1.886268 1_565
Ga2 O41 1.886271 1_555
Ga2 O16 1.886271 1_555
Ga3 O24 1.886260 1_555
Ga3 O39 1.886268 1_555
Ga3 O36 1.886271 1_555
Ga3 O27 1.886271 1_555
Ga4 O26 1.886260 1_555
Ga4 O37 1.886268 1_555
Ga4 O25 1.886271 1_555
Ga4 O38 1.886271 1_555
Ga5 O42 1.886260 1_556
Ga5 O22 1.886268 1_545
Ga5 O18 1.886271 1_555
Ga5 O40 1.886271 1_555
Ga6 O31 1.886260 1_455
Ga6 O32 1.886268 1_556
Ga6 O35 1.886271 1_555
Ga6 O28 1.886271 1_555
Ga7 O29 1.886260 1_655
Ga7 O34 1.886268 1_554
Ga7 O30 1.886271 1_555
Ga7 O33 1.886271 1_555
Ga8 O0 1.886260 1_555
Ga8 O19 1.886268 1_555
Ga8 O2 1.886271 1_555
Ga8 O23 1.886271 1_555
Ga9 O1 1.886260 1_555
Ga9 O17 1.886268 1_555
Ga9 O21 1.886271 1_555
Ga9 O6 1.886271 1_555
Ga10 O15 1.886260 1_545
Ga10 O10 1.886268 1_655
Ga10 O9 1.886271 1_555
Ga10 O3 1.886271 1_555
Ga11 O12 1.886260 1_565
Ga11 O13 1.886268 1_455
Ga11 O7 1.886271 1_555
Ga11 O5 1.886271 1_555
