# generated using pymatgen
data_KGd(MoO4)2
_symmetry_space_group_name_H-M   'P 1'
_cell_length_a   5.19307100
_cell_length_b   8.22557600
_cell_length_c   18.52048300
_cell_angle_alpha   90.00000000
_cell_angle_beta   90.00000000
_cell_angle_gamma   90.00000000
_symmetry_Int_Tables_number   1
_chemical_formula_structural   KGd(MoO4)2
_chemical_formula_sum   'K4 Gd4 Mo8 O32'
_cell_volume   791.12095523
_cell_formula_units_Z   4
loop_
 _symmetry_equiv_pos_site_id
 _symmetry_equiv_pos_as_xyz
  1  'x, y, z'
loop_
 _atom_site_type_symbol
 _atom_site_label
 _atom_site_symmetry_multiplicity
 _atom_site_fract_x
 _atom_site_fract_y
 _atom_site_fract_z
 _atom_site_occupancy
  K  K0  1  0.00000000  0.75000000  0.76990400  1
  K  K1  1  0.00000000  0.25000000  0.23009600  1
  K  K2  1  0.50000000  0.25000000  0.73009600  1
  K  K3  1  0.50000000  0.75000000  0.26990400  1
  Gd  Gd0  1  0.00000000  0.75000000  0.00619700  1
  Gd  Gd1  1  0.00000000  0.25000000  0.99380300  1
  Gd  Gd2  1  0.50000000  0.25000000  0.49380300  1
  Gd  Gd3  1  0.50000000  0.75000000  0.50619700  1
  Mo  Mo0  1  0.02336100  0.51654500  0.39887900  1
  Mo  Mo1  1  0.97663900  0.48345500  0.60112100  1
  Mo  Mo2  1  0.47663900  0.01654500  0.10112100  1
  Mo  Mo3  1  0.97663900  0.98345500  0.39887900  1
  Mo  Mo4  1  0.52336100  0.98345500  0.89887900  1
  Mo  Mo5  1  0.02336100  0.01654500  0.60112100  1
  Mo  Mo6  1  0.52336100  0.48345500  0.10112100  1
  Mo  Mo7  1  0.47663900  0.51654500  0.89887900  1
  O  O0  1  0.10210000  0.97467400  0.31094600  1
  O  O1  1  0.89790000  0.02532600  0.68905400  1
  O  O2  1  0.39790000  0.47467400  0.18905400  1
  O  O3  1  0.89790000  0.52532600  0.31094600  1
  O  O4  1  0.60210000  0.52532600  0.81094600  1
  O  O5  1  0.10210000  0.47467400  0.68905400  1
  O  O6  1  0.60210000  0.02532600  0.18905400  1
  O  O7  1  0.39790000  0.97467400  0.81094600  1
  O  O8  1  0.27215000  0.83993000  0.09953800  1
  O  O9  1  0.72785000  0.16007000  0.90046200  1
  O  O10  1  0.22785000  0.33993000  0.40046200  1
  O  O11  1  0.72785000  0.66007000  0.09953800  1
  O  O12  1  0.77215000  0.66007000  0.59953800  1
  O  O13  1  0.27215000  0.33993000  0.90046200  1
  O  O14  1  0.77215000  0.16007000  0.40046200  1
  O  O15  1  0.22785000  0.83993000  0.59953800  1
  O  O16  1  0.25223600  0.50372300  0.03539800  1
  O  O17  1  0.74776400  0.49627700  0.96460200  1
  O  O18  1  0.24776400  0.00372300  0.46460200  1
  O  O19  1  0.74776400  0.99627700  0.03539800  1
  O  O20  1  0.75223600  0.99627700  0.53539800  1
  O  O21  1  0.25223600  0.00372300  0.96460200  1
  O  O22  1  0.75223600  0.49627700  0.46460200  1
  O  O23  1  0.24776400  0.50372300  0.53539800  1
  O  O24  1  0.24349100  0.68776300  0.40693700  1
  O  O25  1  0.75650900  0.31223700  0.59306300  1
  O  O26  1  0.25650900  0.18776300  0.09306300  1
  O  O27  1  0.75650900  0.81223700  0.40693700  1
  O  O28  1  0.74349100  0.81223700  0.90693700  1
  O  O29  1  0.24349100  0.18776300  0.59306300  1
  O  O30  1  0.74349100  0.31223700  0.09306300  1
  O  O31  1  0.25650900  0.68776300  0.90693700  1
loop_
_geom_bond_atom_site_label_1
_geom_bond_atom_site_label_2
_geom_bond_distance
_geom_bond_site_symmetry_2
K0 O1 2.766263 1_465
K0 O5 2.766263 1_555
K0 O7 2.874516 1_555
K0 O4 2.874516 1_455
K0 O31 2.911617 1_555
K0 O28 2.911617 1_455
K1 O3 2.766263 1_455
K1 O0 2.766263 1_545
K1 O2 2.874516 1_555
K1 O6 2.874516 1_455
K1 O30 2.911617 1_455
K1 O26 2.911617 1_555
K2 O4 2.766263 1_555
K2 O7 2.766263 1_545
K2 O5 2.874516 1_555
K2 O1 2.874516 1_555
K2 O25 2.911617 1_555
K2 O29 2.911617 1_555
K3 O6 2.766263 1_565
K3 O2 2.766263 1_555
K3 O0 2.874516 1_555
K3 O3 2.874516 1_555
K3 O27 2.911617 1_555
K3 O24 2.911617 1_555
Gd0 O31 2.327228 1_554
Gd0 O28 2.327228 1_454
Gd0 O11 2.352248 1_455
Gd0 O8 2.352248 1_555
Gd0 O16 2.472248 1_555
Gd0 O19 2.472248 1_455
Gd0 O21 2.581643 1_564
Gd0 O17 2.581643 1_454
Gd1 O30 2.327228 1_456
Gd1 O26 2.327228 1_556
Gd1 O9 2.352248 1_455
Gd1 O13 2.352248 1_555
Gd1 O17 2.472248 1_455
Gd1 O21 2.472248 1_555
Gd1 O19 2.581643 1_446
Gd1 O16 2.581643 1_556
Gd2 O25 2.327228 1_555
Gd2 O29 2.327228 1_555
Gd2 O10 2.352248 1_555
Gd2 O14 2.352248 1_555
Gd2 O22 2.472248 1_555
Gd2 O18 2.472248 1_555
Gd2 O20 2.581643 1_545
Gd2 O23 2.581643 1_555
Gd3 O27 2.327228 1_555
Gd3 O24 2.327228 1_555
Gd3 O15 2.352248 1_555
Gd3 O12 2.352248 1_555
Gd3 O20 2.472248 1_555
Gd3 O23 2.472248 1_555
Gd3 O18 2.581643 1_565
Gd3 O22 2.581643 1_555
Mo0 O3 1.755539 1_455
Mo0 O10 1.799738 1_555
Mo0 O24 1.820045 1_555
Mo0 O22 1.868638 1_455
Mo1 O5 1.755539 1_655
Mo1 O12 1.799738 1_555
Mo1 O25 1.820045 1_555
Mo1 O23 1.868638 1_655
Mo2 O6 1.755539 1_555
Mo2 O8 1.799738 1_545
Mo2 O26 1.820045 1_555
Mo2 O19 1.868638 1_545
Mo3 O0 1.755539 1_655
Mo3 O14 1.799738 1_565
Mo3 O27 1.820045 1_555
Mo3 O18 1.868638 1_665
Mo4 O7 1.755539 1_555
Mo4 O9 1.799738 1_565
Mo4 O28 1.820045 1_555
Mo4 O21 1.868638 1_565
Mo5 O1 1.755539 1_455
Mo5 O15 1.799738 1_545
Mo5 O29 1.820045 1_555
Mo5 O20 1.868638 1_445
Mo6 O2 1.755539 1_555
Mo6 O11 1.799738 1_555
Mo6 O30 1.820045 1_555
Mo6 O16 1.868638 1_555
Mo7 O4 1.755539 1_555
Mo7 O13 1.799738 1_555
Mo7 O31 1.820045 1_555
Mo7 O17 1.868638 1_555
