# generated using pymatgen
data_Os2C3
_symmetry_space_group_name_H-M   'P 1'
_cell_length_a   5.01755300
_cell_length_b   5.01755300
_cell_length_c   7.91156400
_cell_angle_alpha   90.00000000
_cell_angle_beta   90.00000000
_cell_angle_gamma   90.00000000
_symmetry_Int_Tables_number   1
_chemical_formula_structural   Os2C3
_chemical_formula_sum   'Os8 C12'
_cell_volume   199.18025444
_cell_formula_units_Z   4
loop_
 _symmetry_equiv_pos_site_id
 _symmetry_equiv_pos_as_xyz
  1  'x, y, z'
loop_
 _atom_site_type_symbol
 _atom_site_label
 _atom_site_symmetry_multiplicity
 _atom_site_fract_x
 _atom_site_fract_y
 _atom_site_fract_z
 _atom_site_occupancy
  Os  Os0  1  0.50000000  0.00000000  0.39489900  1
  Os  Os1  1  0.50000000  0.00000000  0.89489900  1
  Os  Os2  1  0.00000000  0.50000000  0.60510100  1
  Os  Os3  1  0.00000000  0.50000000  0.10510100  1
  Os  Os4  1  0.00000000  0.00000000  0.50000000  1
  Os  Os5  1  0.00000000  0.00000000  0.00000000  1
  Os  Os6  1  0.50000000  0.50000000  0.25000000  1
  Os  Os7  1  0.50000000  0.50000000  0.75000000  1
  C  C0  1  0.22997400  0.66008400  0.41933100  1
  C  C1  1  0.77002600  0.33991600  0.41933100  1
  C  C2  1  0.22997400  0.33991600  0.91933100  1
  C  C3  1  0.77002600  0.66008400  0.91933100  1
  C  C4  1  0.66008400  0.77002600  0.58066900  1
  C  C5  1  0.33991600  0.22997400  0.58066900  1
  C  C6  1  0.33991600  0.77002600  0.08066900  1
  C  C7  1  0.66008400  0.22997400  0.08066900  1
  C  C8  1  0.16783700  0.16783700  0.25000000  1
  C  C9  1  0.83216300  0.83216300  0.25000000  1
  C  C10  1  0.16783700  0.83216300  0.75000000  1
  C  C11  1  0.83216300  0.16783700  0.75000000  1
loop_
_geom_bond_atom_site_label_1
_geom_bond_atom_site_label_2
_geom_bond_distance
_geom_bond_site_symmetry_2
C0 Os2 2.033910 1_555
C0 Os6 2.067746 1_555
C0 Os4 2.155855 1_565
C0 Os0 2.186761 1_565
C1 Os2 2.033910 1_655
C1 Os6 2.067746 1_555
C1 Os4 2.155855 1_655
C1 Os0 2.186761 1_555
C2 Os3 2.033910 1_556
C2 Os7 2.067746 1_555
C2 Os5 2.155855 1_556
C2 Os1 2.186761 1_555
C3 Os3 2.033910 1_656
C3 Os7 2.067746 1_555
C3 Os5 2.155855 1_666
C3 Os1 2.186761 1_565
C4 Os0 2.033910 1_565
C4 Os7 2.067746 1_555
C4 Os4 2.155855 1_665
C4 Os2 2.186761 1_655
C5 Os0 2.033910 1_555
C5 Os7 2.067746 1_555
C5 Os4 2.155855 1_555
C5 Os2 2.186761 1_555
C6 Os1 2.033910 1_564
C6 Os6 2.067746 1_555
C6 Os5 2.155855 1_565
C6 Os3 2.186761 1_555
C7 Os1 2.033910 1_554
C7 Os6 2.067746 1_555
C7 Os5 2.155855 1_655
C7 Os3 2.186761 1_655
C8 Os3 2.191135 1_555
C8 Os0 2.191135 1_555
C8 Os4 2.308771 1_555
C8 Os5 2.308771 1_555
C8 Os6 2.356993 1_555
C9 Os0 2.191135 1_565
C9 Os3 2.191135 1_655
C9 Os4 2.308771 1_665
C9 Os5 2.308771 1_665
C9 Os6 2.356993 1_555
C10 Os1 2.191135 1_565
C10 Os2 2.191135 1_555
C10 Os4 2.308771 1_565
C10 Os5 2.308771 1_566
C10 Os7 2.356993 1_555
C11 Os2 2.191135 1_655
C11 Os1 2.191135 1_555
C11 Os4 2.308771 1_655
C11 Os5 2.308771 1_656
C11 Os7 2.356993 1_555
