# generated using pymatgen
data_BaLa(FeO3)2
_symmetry_space_group_name_H-M   'P 1'
_cell_length_a   5.59558557
_cell_length_b   5.59558698
_cell_length_c   8.07407700
_cell_angle_alpha   89.99924019
_cell_angle_beta   90.00280800
_cell_angle_gamma   90.00059372
_symmetry_Int_Tables_number   1
_chemical_formula_structural   BaLa(FeO3)2
_chemical_formula_sum   'Ba2 La2 Fe4 O12'
_cell_volume   252.80408021
_cell_formula_units_Z   2
loop_
 _symmetry_equiv_pos_site_id
 _symmetry_equiv_pos_as_xyz
  1  'x, y, z'
loop_
 _atom_site_type_symbol
 _atom_site_label
 _atom_site_symmetry_multiplicity
 _atom_site_fract_x
 _atom_site_fract_y
 _atom_site_fract_z
 _atom_site_occupancy
  Ba  Ba0  1  0.99995600  0.49992300  0.24999400  1
  Ba  Ba1  1  0.50003700  0.00005700  0.75000800  1
  La  La0  1  0.00008600  0.50014400  0.74999400  1
  La  La1  1  0.49984000  0.99977600  0.25003400  1
  Fe  Fe0  1  0.99995400  0.00001200  0.50000800  1
  Fe  Fe1  1  0.49997700  0.49998400  0.50000200  1
  Fe  Fe2  1  0.49996700  0.50000200  0.99999700  1
  Fe  Fe3  1  0.99986500  0.00002600  0.00000300  1
  O  O0  1  0.74468300  0.74464000  0.99999700  1
  O  O1  1  0.24467300  0.24466100  0.49999700  1
  O  O2  1  0.25535700  0.25534300  0.99999300  1
  O  O3  1  0.75540000  0.75536800  0.49999700  1
  O  O4  1  0.49999100  0.50000500  0.74232100  1
  O  O5  1  0.00010900  0.99996600  0.24232900  1
  O  O6  1  0.50000100  0.50010200  0.25767600  1
  O  O7  1  0.00000800  0.99994800  0.75766400  1
  O  O8  1  0.74469200  0.25534300  0.99998800  1
  O  O9  1  0.24469600  0.75534000  0.49998700  1
  O  O10  1  0.25533300  0.74467900  0.00000300  1
  O  O11  1  0.75537400  0.24468200  0.50000700  1
loop_
_geom_bond_atom_site_label_1
_geom_bond_atom_site_label_2
_geom_bond_distance
_geom_bond_site_symmetry_2
Ba0 O6 2.798232 1_555
Ba0 O5 2.798238 1_645
Ba0 O5 2.798718 1_655
Ba0 O6 2.798729 1_655
Ba0 O8 2.826223 1_554
Ba0 O11 2.826275 1_555
Ba0 O0 2.826556 1_554
Ba0 O1 2.826561 1_655
Ba0 O2 2.826696 1_654
Ba0 O3 2.826765 1_555
Ba0 O10 2.827007 1_655
Ba0 O9 2.827017 1_655
Ba1 O4 2.798190 1_555
Ba1 O7 2.798310 1_645
Ba1 O7 2.798641 1_545
Ba1 O4 2.798774 1_545
Ba1 O8 2.826341 1_555
Ba1 O2 2.826548 1_555
Ba1 O1 2.826588 1_555
Ba1 O11 2.826596 1_555
Ba1 O0 2.826726 1_545
Ba1 O10 2.826889 1_546
Ba1 O9 2.826898 1_545
Ba1 O3 2.826941 1_545
La0 O7 2.797383 1_555
La0 O4 2.797950 1_555
La0 O4 2.799007 1_455
La0 O7 2.799574 1_545
La0 O10 2.826070 1_556
La0 O9 2.826189 1_555
La0 O3 2.826335 1_455
La0 O0 2.826485 1_455
La0 O2 2.826789 1_555
La0 O1 2.826922 1_555
La0 O11 2.827033 1_455
La0 O8 2.827194 1_455
La1 O6 2.796649 1_555
La1 O5 2.796977 1_555
La1 O5 2.799992 1_655
La1 O6 2.800298 1_565
La1 O9 2.825262 1_555
La1 O10 2.825699 1_555
La1 O3 2.826335 1_555
La1 O1 2.826642 1_565
La1 O0 2.826865 1_554
La1 O2 2.827009 1_564
La1 O11 2.827680 1_565
La1 O8 2.828119 1_564
Fe0 O3 1.935588 1_545
Fe0 O11 1.935814 1_555
Fe0 O1 1.936261 1_655
Fe0 O9 1.936463 1_645
Fe0 O7 2.080334 1_645
Fe0 O5 2.080520 1_645
Fe1 O4 1.956502 1_555
Fe1 O6 1.956559 1_555
Fe1 O1 2.020376 1_555
Fe1 O9 2.020436 1_555
Fe1 O11 2.020681 1_555
Fe1 O3 2.021088 1_555
Fe2 O2 1.935869 1_555
Fe2 O10 1.936056 1_556
Fe2 O0 1.936206 1_555
Fe2 O8 1.936344 1_555
Fe2 O4 2.080496 1_555
Fe2 O6 2.080520 1_556
Fe3 O5 1.956559 1_645
Fe3 O7 1.956664 1_644
Fe3 O8 2.019855 1_554
Fe3 O0 2.020142 1_544
Fe3 O2 2.021096 1_654
Fe3 O10 2.021140 1_645
