# generated using pymatgen
data_K2NaO2
_symmetry_space_group_name_H-M   'P 1'
_cell_length_a   4.54808400
_cell_length_b   4.54808400
_cell_length_c   13.35701500
_cell_angle_alpha   90.00000000
_cell_angle_beta   90.00000000
_cell_angle_gamma   90.00000000
_symmetry_Int_Tables_number   1
_chemical_formula_structural   K2NaO2
_chemical_formula_sum   'K2 Na1 O2'
_cell_volume   276.29076450
_cell_formula_units_Z   1
loop_
 _symmetry_equiv_pos_site_id
 _symmetry_equiv_pos_as_xyz
  1  'x, y, z'
loop_
 _atom_site_type_symbol
 _atom_site_label
 _atom_site_symmetry_multiplicity
 _atom_site_fract_x
 _atom_site_fract_y
 _atom_site_fract_z
 _atom_site_occupancy
  K  K0  1  0.50000000  0.50000000  0.66333100  1
  K  K1  1  0.50000000  0.50000000  0.33666900  1
  Na  Na0  1  0.50000000  0.50000000  0.00000000  1
  O  O0  1  0.50000000  0.50000000  0.16292500  1
  O  O1  1  0.50000000  0.50000000  0.83707500  1
loop_
_geom_bond_atom_site_label_1
_geom_bond_atom_site_label_2
_geom_bond_distance
_geom_bond_site_symmetry_2
K0 O1 2.320701 1_555
K1 O0 2.320701 1_555
Na0 O1 2.176192 1_554
Na0 O0 2.176192 1_555
