# generated using pymatgen
data_Pr(PRh)2
_symmetry_space_group_name_H-M   'P 1'
_cell_length_a   4.17155974
_cell_length_b   4.17155974
_cell_length_c   9.57470813
_cell_angle_alpha   90.00000000
_cell_angle_beta   90.00000000
_cell_angle_gamma   90.00000000
_symmetry_Int_Tables_number   1
_chemical_formula_structural   Pr(PRh)2
_chemical_formula_sum   'Pr2 P4 Rh4'
_cell_volume   166.61821552
_cell_formula_units_Z   2
loop_
 _symmetry_equiv_pos_site_id
 _symmetry_equiv_pos_as_xyz
  1  'x, y, z'
loop_
 _atom_site_type_symbol
 _atom_site_label
 _atom_site_symmetry_multiplicity
 _atom_site_fract_x
 _atom_site_fract_y
 _atom_site_fract_z
 _atom_site_occupancy
  Pr  Pr0  1  0.75000000  0.75000000  0.25746240  1
  Pr  Pr1  1  0.25000000  0.25000000  0.74253760  1
  P  P0  1  0.75000000  0.25000000  0.50000000  1
  P  P1  1  0.25000000  0.75000000  0.50000000  1
  P  P2  1  0.75000000  0.75000000  0.86197352  1
  P  P3  1  0.25000000  0.25000000  0.13802648  1
  Rh  Rh0  1  0.75000000  0.25000000  -0.00000000  1
  Rh  Rh1  1  0.25000000  0.75000000  -0.00000000  1
  Rh  Rh2  1  0.75000000  0.75000000  0.61053244  1
  Rh  Rh3  1  0.25000000  0.25000000  0.38946756  1
loop_
_geom_bond_atom_site_label_1
_geom_bond_atom_site_label_2
_geom_bond_distance
_geom_bond_site_symmetry_2
Pr0 Rh3 3.209116 1_565
Pr0 Rh3 3.209116 1_665
Pr0 Rh3 3.209116 1_655
Pr0 Rh3 3.209116 1_555
Pr0 Rh1 3.229138 1_655
Pr0 Rh0 3.229138 1_565
Pr0 Rh0 3.229138 1_555
Pr0 Rh1 3.229138 1_555
Pr1 Rh2 3.209116 1_555
Pr1 Rh2 3.209116 1_445
Pr1 Rh2 3.209116 1_545
Pr1 Rh2 3.209116 1_455
Pr1 Rh1 3.229138 1_546
Pr1 Rh0 3.229138 1_456
Pr1 Rh0 3.229138 1_556
Pr1 Rh1 3.229138 1_556
P0 Rh3 2.338912 1_655
P0 Rh3 2.338912 1_555
P0 Rh2 2.338912 1_555
P0 Rh2 2.338912 1_545
P0 Pr1 3.121412 1_655
P0 Pr0 3.121412 1_545
P0 Pr1 3.121412 1_555
P0 Pr0 3.121412 1_555
P1 Rh3 2.338912 1_555
P1 Rh2 2.338912 1_555
P1 Rh2 2.338912 1_455
P1 Rh3 2.338912 1_565
P1 Pr0 3.121412 1_555
P1 Pr0 3.121412 1_455
P1 Pr1 3.121412 1_565
P1 Pr1 3.121412 1_555
P2 Rh2 2.407475 1_555
P2 Rh1 2.469212 1_656
P2 Rh1 2.469212 1_556
P2 Rh0 2.469212 1_566
P2 Rh0 2.469212 1_556
P2 Pr1 3.163652 1_655
P2 Pr1 3.163652 1_565
P2 Pr1 3.163652 1_555
P2 Pr1 3.163652 1_665
P3 Rh3 2.407475 1_555
P3 Rh0 2.469212 1_455
P3 Rh1 2.469212 1_545
P3 Rh1 2.469212 1_555
P3 Rh0 2.469212 1_555
P3 Pr0 3.163652 1_455
P3 Pr0 3.163652 1_545
P3 Pr0 3.163652 1_555
P3 Pr0 3.163652 1_445
