# generated using pymatgen
data_Sr3Ca5TiMn7O24
_symmetry_space_group_name_H-M   'P 1'
_cell_length_a   7.68856868
_cell_length_b   7.68856868
_cell_length_c   7.68494814
_cell_angle_alpha   89.99227243
_cell_angle_beta   89.99227243
_cell_angle_gamma   90.01521806
_symmetry_Int_Tables_number   1
_chemical_formula_structural   Sr3Ca5TiMn7O24
_chemical_formula_sum   'Sr3 Ca5 Ti1 Mn7 O24'
_cell_volume   454.28867844
_cell_formula_units_Z   1
loop_
 _symmetry_equiv_pos_site_id
 _symmetry_equiv_pos_as_xyz
  1  'x, y, z'
loop_
 _atom_site_type_symbol
 _atom_site_label
 _atom_site_symmetry_multiplicity
 _atom_site_fract_x
 _atom_site_fract_y
 _atom_site_fract_z
 _atom_site_occupancy
  Sr  Sr0  1  0.24830700  0.75190300  0.75189700  1
  Sr  Sr1  1  0.75170300  0.75170300  0.75194400  1
  Sr  Sr2  1  0.75190300  0.24830700  0.75189700  1
  Ca  Ca0  1  0.24709500  0.75273000  0.24734700  1
  Ca  Ca1  1  0.75280900  0.75280900  0.24732600  1
  Ca  Ca2  1  0.24744100  0.24744100  0.75285500  1
  Ca  Ca3  1  0.24721000  0.24721000  0.24698700  1
  Ca  Ca4  1  0.75273000  0.24709500  0.24734700  1
  Ti  Ti0  1  0.49847200  0.49847200  0.49536200  1
  Mn  Mn0  1  0.00063900  0.49931700  0.00167400  1
  Mn  Mn1  1  0.49919300  0.49919300  0.00099400  1
  Mn  Mn2  1  0.00037800  0.49912400  0.49757500  1
  Mn  Mn3  1  0.00057400  0.00057400  0.00183600  1
  Mn  Mn4  1  0.49931700  0.00063900  0.00167400  1
  Mn  Mn5  1  0.00055100  0.00055100  0.49803700  1
  Mn  Mn6  1  0.49912400  0.00037800  0.49757500  1
  O  O0  1  0.00064500  0.75005900  0.00806600  1
  O  O1  1  0.49942300  0.74999100  0.00830600  1
  O  O2  1  0.00053600  0.75003000  0.49195000  1
  O  O3  1  0.49913700  0.75325800  0.49439900  1
  O  O4  1  0.00365900  0.24991100  0.00492500  1
  O  O5  1  0.49626700  0.25001200  0.00493500  1
  O  O6  1  0.00391900  0.25004200  0.49514400  1
  O  O7  1  0.49775300  0.24673300  0.49598400  1
  O  O8  1  0.00394900  0.49619700  0.75012500  1
  O  O9  1  0.49750300  0.49750300  0.75334100  1
  O  O10  1  0.00052900  0.49944600  0.25005800  1
  O  O11  1  0.49910800  0.49910800  0.24657700  1
  O  O12  1  0.00380800  0.00380800  0.75008200  1
  O  O13  1  0.49619700  0.00394900  0.75012500  1
  O  O14  1  0.00064400  0.00064400  0.24989200  1
  O  O15  1  0.49944600  0.00052900  0.25005800  1
  O  O16  1  0.25001200  0.49626700  0.00493500  1
  O  O17  1  0.74999100  0.49942300  0.00830600  1
  O  O18  1  0.24673300  0.49775300  0.49598400  1
  O  O19  1  0.75325800  0.49913700  0.49439900  1
  O  O20  1  0.24991100  0.00365900  0.00492500  1
  O  O21  1  0.75005900  0.00064500  0.00806600  1
  O  O22  1  0.25004200  0.00391900  0.49514400  1
  O  O23  1  0.75003000  0.00053600  0.49195000  1
loop_
_geom_bond_atom_site_label_1
_geom_bond_atom_site_label_2
_geom_bond_distance
_geom_bond_site_symmetry_2
Ca0 O0 2.640684 1_555
Ca0 O2 2.669563 1_555
Ca0 O1 2.671686 1_555
Ca0 O20 2.681861 1_565
Ca0 O14 2.688124 1_565
Ca0 O22 2.712515 1_565
Ca0 O16 2.712954 1_555
Ca0 O3 2.713089 1_555
Ca0 O10 2.717465 1_555
Ca0 O15 2.718970 1_565
Ca0 O18 2.737372 1_555
Ca0 O11 2.749340 1_555
Ca1 O21 2.647886 1_565
Ca1 O0 2.647886 1_655
Ca1 O2 2.676433 1_655
Ca1 O23 2.676433 1_565
Ca1 O17 2.677845 1_555
Ca1 O1 2.677845 1_555
Ca1 O14 2.694497 1_665
Ca1 O19 2.721802 1_555
Ca1 O3 2.721802 1_555
Ca1 O15 2.724823 1_565
Ca1 O10 2.724823 1_655
Ca1 O11 2.758202 1_555
Ca2 O12 2.648827 1_555
Ca2 O13 2.676765 1_555
Ca2 O8 2.676765 1_555
Ca2 O20 2.695380 1_556
Ca2 O4 2.695380 1_556
Ca2 O9 2.718636 1_555
Ca2 O16 2.722907 1_556
Ca2 O5 2.722907 1_556
Ca2 O22 2.725695 1_555
Ca2 O6 2.725695 1_555
Ca2 O18 2.756757 1_555
Ca2 O7 2.756757 1_555
Ca3 O20 2.639759 1_555
Ca3 O4 2.639759 1_555
Ca3 O5 2.669544 1_555
Ca3 O16 2.669544 1_555
Ca3 O6 2.671230 1_555
Ca3 O22 2.671230 1_555
Ca3 O14 2.680713 1_555
Ca3 O15 2.713063 1_555
Ca3 O10 2.713063 1_555
Ca3 O18 2.715382 1_555
Ca3 O7 2.715382 1_555
Ca3 O11 2.738594 1_555
Ca4 O21 2.640684 1_555
Ca4 O23 2.669563 1_555
Ca4 O17 2.671686 1_555
Ca4 O4 2.681861 1_655
Ca4 O14 2.688124 1_655
Ca4 O6 2.712515 1_655
Ca4 O5 2.712954 1_555
Ca4 O19 2.713089 1_555
Ca4 O15 2.717465 1_555
Ca4 O10 2.718970 1_655
Ca4 O7 2.737372 1_555
Ca4 O11 2.749340 1_555
Mn0 O10 1.908819 1_555
Mn0 O16 1.917638 1_555
Mn0 O4 1.917881 1_555
Mn0 O17 1.927792 1_455
Mn0 O0 1.928479 1_555
Mn0 O8 1.933457 1_554
Mn1 O11 1.887293 1_555
Mn1 O9 1.903293 1_554
Mn1 O16 1.916207 1_555
Mn1 O5 1.916207 1_555
Mn1 O17 1.929104 1_555
Mn1 O1 1.929104 1_555
Mn2 O18 1.894187 1_555
Mn2 O19 1.900159 1_455
Mn2 O10 1.902157 1_555
Mn2 O6 1.915378 1_555
Mn2 O2 1.929587 1_555
Mn2 O8 1.941159 1_555
Mn3 O14 1.906298 1_555
Mn3 O20 1.917335 1_555
Mn3 O4 1.917335 1_555
Mn3 O21 1.926691 1_455
Mn3 O0 1.926691 1_545
Mn3 O12 1.935029 1_554
Mn4 O15 1.908819 1_555
Mn4 O5 1.917638 1_555
Mn4 O20 1.917881 1_555
Mn4 O1 1.927792 1_545
Mn4 O21 1.928479 1_555
Mn4 O13 1.933457 1_554
Mn5 O14 1.906982 1_555
Mn5 O6 1.918522 1_555
Mn5 O22 1.918522 1_555
Mn5 O23 1.926722 1_455
Mn5 O2 1.926722 1_545
Mn5 O12 1.937283 1_555
Mn6 O7 1.894187 1_555
Mn6 O3 1.900159 1_545
Mn6 O15 1.902157 1_555
Mn6 O22 1.915378 1_555
Mn6 O23 1.929587 1_555
Mn6 O13 1.941159 1_555
O0 Sr0 2.738719 1_554
O0 Sr1 2.745679 1_454
O1 Sr0 2.758944 1_554
O1 Sr1 2.764572 1_554
O2 Sr0 2.760614 1_555
O2 Sr1 2.766141 1_455
O3 Ti0 1.958958 1_555
O3 Sr0 2.762996 1_555
O3 Sr1 2.772970 1_555
O4 Sr2 2.743899 1_454
O5 Sr2 2.764717 1_554
O6 Sr2 2.765292 1_455
O7 Ti0 1.935524 1_555
O7 Sr2 2.772600 1_555
O8 Sr2 2.717736 1_455
O8 Sr0 2.719043 1_555
O8 Sr1 2.760923 1_455
O9 Ti0 1.982581 1_555
O9 Sr2 2.738402 1_555
O9 Sr0 2.738402 1_555
O9 Sr1 2.763639 1_555
O11 Ti0 1.911911 1_555
O12 Sr2 2.699464 1_455
O12 Sr0 2.699464 1_545
O12 Sr1 2.740878 1_445
O13 Sr0 2.717736 1_545
O13 Sr2 2.719043 1_555
O13 Sr1 2.760923 1_545
O16 Sr0 2.764717 1_554
O17 Sr2 2.758944 1_554
O17 Sr1 2.764572 1_554
O18 Ti0 1.935524 1_555
O18 Sr0 2.772600 1_555
O19 Ti0 1.958958 1_555
O19 Sr2 2.762996 1_555
O19 Sr1 2.772970 1_555
O20 Sr0 2.743899 1_544
O21 Sr2 2.738719 1_554
O21 Sr1 2.745679 1_544
O22 Sr0 2.765292 1_545
O23 Sr2 2.760614 1_555
O23 Sr1 2.766141 1_545
