# generated using pymatgen
data_Zn(MoSe2)2
_symmetry_space_group_name_H-M   'P 1'
_cell_length_a   3.31336979
_cell_length_b   3.31339200
_cell_length_c   17.87540502
_cell_angle_alpha   90.00000000
_cell_angle_beta   90.00163939
_cell_angle_gamma   59.99977827
_symmetry_Int_Tables_number   1
_chemical_formula_structural   Zn(MoSe2)2
_chemical_formula_sum   'Zn1 Mo2 Se4'
_cell_volume   169.95278262
_cell_formula_units_Z   1
loop_
 _symmetry_equiv_pos_site_id
 _symmetry_equiv_pos_as_xyz
  1  'x, y, z'
loop_
 _atom_site_type_symbol
 _atom_site_label
 _atom_site_symmetry_multiplicity
 _atom_site_fract_x
 _atom_site_fract_y
 _atom_site_fract_z
 _atom_site_occupancy
  Zn  Zn0  1  0.33313700  0.33343100  0.51994000  1
  Mo  Mo0  1  0.33337400  0.33331300  0.77327900  1
  Mo  Mo1  1  0.66671000  0.66664500  0.23926300  1
  Se  Se0  1  0.33330300  0.33334900  0.14538900  1
  Se  Se1  1  0.66666700  0.66666600  0.86694700  1
  Se  Se2  1  0.66676200  0.66661900  0.67889600  1
  Se  Se3  1  0.33344600  0.33327700  0.33328700  1
loop_
_geom_bond_atom_site_label_1
_geom_bond_atom_site_label_2
_geom_bond_distance
_geom_bond_site_symmetry_2
Mo0 Se1 2.542171 1_555
Mo0 Se1 2.542173 1_545
Mo0 Se1 2.542355 1_455
Mo0 Se2 2.550503 1_455
Mo0 Se2 2.550752 1_555
Mo0 Se2 2.550752 1_545
Mo1 Se0 2.544536 1_655
Mo1 Se0 2.544721 1_555
Mo1 Se0 2.544723 1_565
Mo1 Se3 2.546378 1_565
Mo1 Se3 2.546378 1_555
Mo1 Se3 2.546530 1_655
