# generated using pymatgen
data_AsPd2
_symmetry_space_group_name_H-M   'P 1'
_cell_length_a   3.67192462
_cell_length_b   6.65965350
_cell_length_c   6.65973867
_cell_angle_alpha   119.99936173
_cell_angle_beta   90.00000000
_cell_angle_gamma   90.00000000
_symmetry_Int_Tables_number   1
_chemical_formula_structural   AsPd2
_chemical_formula_sum   'As3 Pd6'
_cell_volume   141.03795513
_cell_formula_units_Z   3
loop_
 _symmetry_equiv_pos_site_id
 _symmetry_equiv_pos_as_xyz
  1  'x, y, z'
loop_
 _atom_site_type_symbol
 _atom_site_label
 _atom_site_symmetry_multiplicity
 _atom_site_fract_x
 _atom_site_fract_y
 _atom_site_fract_z
 _atom_site_occupancy
  As  As0  1  -0.00000000  0.33333784  0.66672098  1
  As  As1  1  -0.00000000  0.66661686  0.33327902  1
  As  As2  1  0.50000000  -0.00001005  -0.00000000  1
  Pd  Pd0  1  -0.00000000  0.26510320  0.00000000  1
  Pd  Pd1  1  -0.00000000  0.73489037  0.73490911  1
  Pd  Pd2  1  0.00000000  0.99998026  0.26508989  1
  Pd  Pd3  1  0.50000000  0.60707298  -0.00000000  1
  Pd  Pd4  1  0.50000000  0.39293958  0.39296663  1
  Pd  Pd5  1  0.50000000  0.99997195  0.60703337  1
loop_
_geom_bond_atom_site_label_1
_geom_bond_atom_site_label_2
_geom_bond_distance
_geom_bond_site_symmetry_2
As0 Pd0 2.478203 1_556
As0 Pd1 2.478548 1_555
As0 Pd2 2.478904 1_545
As0 Pd3 2.752145 1_456
As0 Pd3 2.752145 1_556
As0 Pd5 2.752296 1_445
As0 Pd5 2.752296 1_545
As0 Pd4 2.752409 1_455
As0 Pd4 2.752409 1_555
As1 Pd0 2.478212 1_555
As1 Pd2 2.478542 1_555
As1 Pd1 2.478891 1_555
As1 Pd3 2.752142 1_455
As1 Pd3 2.752142 1_555
As1 Pd4 2.752290 1_555
As1 Pd4 2.752290 1_455
As1 Pd5 2.752412 1_455
As1 Pd5 2.752412 1_555
As2 Pd2 2.547079 1_645
As2 Pd2 2.547079 1_545
As2 Pd1 2.547085 1_544
As2 Pd1 2.547085 1_644
As2 Pd0 2.547149 1_555
As2 Pd0 2.547149 1_655
As2 Pd3 2.616691 1_545
As2 Pd5 2.616995 1_544
As2 Pd4 2.617007 1_555
Pd0 Pd3 2.925288 1_555
Pd0 Pd3 2.925288 1_455
Pd0 Pd4 2.952380 1_555
Pd0 Pd4 2.952380 1_455
Pd0 Pd5 2.952384 1_544
Pd0 Pd5 2.952384 1_444
Pd1 Pd4 2.925196 1_455
Pd1 Pd4 2.925196 1_555
Pd1 Pd3 2.952091 1_456
Pd1 Pd3 2.952091 1_556
Pd1 Pd5 2.952263 1_555
Pd1 Pd5 2.952263 1_455
Pd2 Pd5 2.925196 1_455
Pd2 Pd5 2.925196 1_555
Pd2 Pd3 2.952093 1_555
Pd2 Pd3 2.952093 1_455
Pd2 Pd4 2.952276 1_465
Pd2 Pd4 2.952276 1_565
