# generated using pymatgen
data_YbNiAs
_symmetry_space_group_name_H-M   'P 1'
_cell_length_a   3.99487903
_cell_length_b   3.99487903
_cell_length_c   14.93933781
_cell_angle_alpha   90.00000000
_cell_angle_beta   90.00000000
_cell_angle_gamma   120.00001334
_symmetry_Int_Tables_number   1
_chemical_formula_structural   YbNiAs
_chemical_formula_sum   'Yb4 Ni4 As4'
_cell_volume   206.47581396
_cell_formula_units_Z   4
loop_
 _symmetry_equiv_pos_site_id
 _symmetry_equiv_pos_as_xyz
  1  'x, y, z'
loop_
 _atom_site_type_symbol
 _atom_site_label
 _atom_site_symmetry_multiplicity
 _atom_site_fract_x
 _atom_site_fract_y
 _atom_site_fract_z
 _atom_site_occupancy
  Yb  Yb0  1  0.00000000  0.00000000  0.25000000  1
  Yb  Yb1  1  0.00000000  0.00000000  0.75000000  1
  Yb  Yb2  1  0.00000000  0.00000000  0.00000000  1
  Yb  Yb3  1  0.00000000  0.00000000  0.50000000  1
  Ni  Ni0  1  0.33333300  0.66666700  0.13647698  1
  Ni  Ni1  1  0.66666700  0.33333300  0.86352302  1
  Ni  Ni2  1  0.66666700  0.33333300  0.63647698  1
  Ni  Ni3  1  0.33333300  0.66666700  0.36352302  1
  As  As0  1  0.33333300  0.66666700  0.61987531  1
  As  As1  1  0.66666700  0.33333300  0.38012469  1
  As  As2  1  0.66666700  0.33333300  0.11987531  1
  As  As3  1  0.33333300  0.66666700  0.88012469  1
loop_
_geom_bond_atom_site_label_1
_geom_bond_atom_site_label_2
_geom_bond_distance
_geom_bond_site_symmetry_2
Ni0 Yb0 2.862857 1_565
Ni0 Yb0 2.862860 1_555
Ni0 Yb0 2.862860 1_665
Ni0 Yb2 3.078423 1_565
Ni0 Yb2 3.078426 1_555
Ni0 Yb2 3.078426 1_665
Ni1 Yb1 2.862857 1_655
Ni1 Yb1 2.862860 1_555
Ni1 Yb1 2.862860 1_665
Ni1 Yb2 3.078423 1_656
Ni1 Yb2 3.078426 1_556
Ni1 Yb2 3.078426 1_666
Ni2 Yb1 2.862857 1_655
Ni2 Yb1 2.862860 1_555
Ni2 Yb1 2.862860 1_665
Ni2 Yb3 3.078423 1_655
Ni2 Yb3 3.078426 1_555
Ni2 Yb3 3.078426 1_665
Ni3 Yb0 2.862857 1_565
Ni3 Yb0 2.862860 1_555
Ni3 Yb0 2.862860 1_665
Ni3 Yb3 3.078423 1_565
Ni3 Yb3 3.078426 1_555
Ni3 Yb3 3.078426 1_665
As0 Ni2 2.319739 1_565
As0 Ni2 2.319739 1_455
As0 Ni2 2.319746 1_555
As0 Yb3 2.920077 1_565
As0 Yb3 2.920079 1_555
As0 Yb3 2.920079 1_665
As0 Yb1 3.016409 1_565
As0 Yb1 3.016411 1_555
As0 Yb1 3.016411 1_665
As1 Ni3 2.319739 1_545
As1 Ni3 2.319739 1_655
As1 Ni3 2.319746 1_555
As1 Yb3 2.920077 1_655
As1 Yb3 2.920079 1_555
As1 Yb3 2.920079 1_665
As1 Yb0 3.016409 1_655
As1 Yb0 3.016411 1_555
As1 Yb0 3.016411 1_665
As2 Ni0 2.319739 1_655
As2 Ni0 2.319739 1_545
As2 Ni0 2.319746 1_555
As2 Yb2 2.920077 1_655
As2 Yb2 2.920079 1_555
As2 Yb2 2.920079 1_665
As2 Yb0 3.016409 1_655
As2 Yb0 3.016411 1_555
As2 Yb0 3.016411 1_665
As3 Ni1 2.319739 1_565
As3 Ni1 2.319739 1_455
As3 Ni1 2.319746 1_555
As3 Yb2 2.920077 1_566
As3 Yb2 2.920079 1_556
As3 Yb2 2.920079 1_666
As3 Yb1 3.016409 1_565
As3 Yb1 3.016411 1_555
As3 Yb1 3.016411 1_665
