# generated using pymatgen
data_Mg3Cr6(FeO6)4
_symmetry_space_group_name_H-M   'P 1'
_cell_length_a   6.69328991
_cell_length_b   8.15055763
_cell_length_c   9.82946339
_cell_angle_alpha   104.80703253
_cell_angle_beta   105.89604363
_cell_angle_gamma   102.07778496
_symmetry_Int_Tables_number   1
_chemical_formula_structural   Mg3Cr6(FeO6)4
_chemical_formula_sum   'Mg3 Cr6 Fe4 O24'
_cell_volume   475.58992520
_cell_formula_units_Z   1
loop_
 _symmetry_equiv_pos_site_id
 _symmetry_equiv_pos_as_xyz
  1  'x, y, z'
loop_
 _atom_site_type_symbol
 _atom_site_label
 _atom_site_symmetry_multiplicity
 _atom_site_fract_x
 _atom_site_fract_y
 _atom_site_fract_z
 _atom_site_occupancy
  Mg  Mg0  1  0.00000000  0.50000000  0.50000000  1
  Mg  Mg1  1  0.27829100  0.29056500  0.79101700  1
  Mg  Mg2  1  0.72170900  0.70943500  0.20898300  1
  Cr  Cr0  1  0.77767100  0.34386500  0.72811300  1
  Cr  Cr1  1  0.22232900  0.65613500  0.27188700  1
  Cr  Cr2  1  0.89814500  0.90257000  0.66822700  1
  Cr  Cr3  1  0.39798800  0.72615600  0.86949900  1
  Cr  Cr4  1  0.10185500  0.09743000  0.33177300  1
  Cr  Cr5  1  0.60201200  0.27384400  0.13050100  1
  Fe  Fe0  1  0.37940500  0.95499900  0.60799200  1
  Fe  Fe1  1  0.62059500  0.04500100  0.39200800  1
  Fe  Fe2  1  0.04507500  0.21158300  0.01616100  1
  Fe  Fe3  1  0.95492500  0.78841700  0.98383900  1
  O  O0  1  0.87497700  0.69311800  0.58280200  1
  O  O1  1  0.12502300  0.30688200  0.41719800  1
  O  O2  1  0.26625500  0.51603700  0.74160400  1
  O  O3  1  0.73374500  0.48396300  0.25839600  1
  O  O4  1  0.78374900  0.30126200  0.54537300  1
  O  O5  1  0.21625100  0.69873800  0.45462700  1
  O  O6  1  0.66878400  0.96007900  0.57608200  1
  O  O7  1  0.33121600  0.03992100  0.42391800  1
  O  O8  1  0.64505100  0.73783900  0.99931300  1
  O  O9  1  0.35494900  0.26216100  0.00068700  1
  O  O10  1  0.47341700  0.77123800  0.27275400  1
  O  O11  1  0.52658300  0.22876200  0.72724600  1
  O  O12  1  0.13150700  0.03117900  0.65405100  1
  O  O13  1  0.07144100  0.05038300  0.14293300  1
  O  O14  1  0.92855900  0.94961700  0.85706700  1
  O  O15  1  0.55723500  0.13349800  0.22621300  1
  O  O16  1  0.44276500  0.86650200  0.77378700  1
  O  O17  1  0.17888300  0.44177000  0.18398400  1
  O  O18  1  0.82111700  0.55823000  0.81601600  1
  O  O19  1  0.98860700  0.28295400  0.83304100  1
  O  O20  1  0.01139300  0.71704600  0.16695900  1
  O  O21  1  0.23619500  0.78213900  0.96656000  1
  O  O22  1  0.76380500  0.21786100  0.03344000  1
  O  O23  1  0.86849300  0.96882100  0.34594900  1
loop_
_geom_bond_atom_site_label_1
_geom_bond_atom_site_label_2
_geom_bond_distance
_geom_bond_site_symmetry_2
Mg0 O1 2.027244 1_555
Mg0 O0 2.027244 1_455
Mg0 O4 2.158591 1_455
Mg0 O5 2.158591 1_555
Mg0 O3 2.501677 1_455
Mg0 O2 2.501677 1_555
Mg1 O2 2.028884 1_555
Mg1 O11 2.041598 1_555
Mg1 O12 2.049093 1_555
Mg1 O9 2.068495 1_556
Mg1 O19 2.082177 1_455
Mg2 O3 2.028884 1_555
Mg2 O10 2.041598 1_555
Mg2 O23 2.049093 1_555
Mg2 O8 2.068495 1_554
Mg2 O20 2.082177 1_655
Cr0 O18 1.661907 1_555
Cr0 O11 1.741523 1_555
Cr0 O19 1.749554 1_555
Cr0 O4 1.753805 1_555
Cr1 O17 1.661907 1_555
Cr1 O10 1.741523 1_555
Cr1 O20 1.749554 1_555
Cr1 O5 1.753805 1_555
Cr2 O0 1.651872 1_555
Cr2 O14 1.740827 1_555
Cr2 O12 1.751181 1_665
Cr2 O6 1.775751 1_555
Cr3 O21 1.685643 1_555
Cr3 O16 1.686558 1_555
Cr3 O2 1.717918 1_555
Cr3 O8 1.757266 1_555
Cr4 O1 1.651872 1_555
Cr4 O13 1.740827 1_555
Cr4 O23 1.751181 1_445
Cr4 O7 1.775751 1_555
Cr5 O22 1.685643 1_555
Cr5 O15 1.686558 1_555
Cr5 O3 1.717918 1_555
Cr5 O9 1.757266 1_555
Fe0 O16 1.925153 1_555
Fe0 O12 2.010615 1_565
Fe0 O6 2.039004 1_555
Fe0 O7 2.066573 1_565
Fe0 O5 2.088531 1_555
Fe0 O11 2.105705 1_565
Fe1 O15 1.925153 1_555
Fe1 O23 2.010615 1_545
Fe1 O7 2.039004 1_555
Fe1 O6 2.066573 1_545
Fe1 O4 2.088531 1_555
Fe1 O10 2.105705 1_545
Fe2 O22 1.945959 1_455
Fe2 O17 1.987185 1_555
Fe2 O19 1.993908 1_454
Fe2 O13 2.030655 1_555
Fe2 O9 2.083728 1_555
Fe2 O14 2.130983 1_444
Fe3 O21 1.945959 1_655
Fe3 O18 1.987185 1_555
Fe3 O20 1.993908 1_656
Fe3 O14 2.030655 1_555
Fe3 O8 2.083728 1_555
Fe3 O13 2.130983 1_666
