# generated using pymatgen
data_CoNiP
_symmetry_space_group_name_H-M   'P 1'
_cell_length_a   5.80063948
_cell_length_b   5.80063948
_cell_length_c   3.32337100
_cell_angle_alpha   90.00000000
_cell_angle_beta   90.00000000
_cell_angle_gamma   119.99999409
_symmetry_Int_Tables_number   1
_chemical_formula_structural   CoNiP
_chemical_formula_sum   'Co3 Ni3 P3'
_cell_volume   96.84143852
_cell_formula_units_Z   3
loop_
 _symmetry_equiv_pos_site_id
 _symmetry_equiv_pos_as_xyz
  1  'x, y, z'
loop_
 _atom_site_type_symbol
 _atom_site_label
 _atom_site_symmetry_multiplicity
 _atom_site_fract_x
 _atom_site_fract_y
 _atom_site_fract_z
 _atom_site_occupancy
  Co  Co0  1  0.60661500  0.00000000  0.00000000  1
  Co  Co1  1  0.00000000  0.60661500  0.00000000  1
  Co  Co2  1  0.39338500  0.39338500  0.00000000  1
  Ni  Ni0  1  0.25944400  0.00000000  0.50000000  1
  Ni  Ni1  1  0.00000000  0.25944400  0.50000000  1
  Ni  Ni2  1  0.74055600  0.74055600  0.50000000  1
  P  P0  1  0.33333300  0.66666700  0.50000000  1
  P  P1  1  0.66666700  0.33333300  0.50000000  1
  P  P2  1  0.00000000  0.00000000  0.00000000  1
loop_
_geom_bond_atom_site_label_1
_geom_bond_atom_site_label_2
_geom_bond_distance
_geom_bond_site_symmetry_2
Co0 P2 2.281885 1_655
Co0 P1 2.438771 1_554
Co0 P1 2.438771 1_555
Co0 P0 2.438772 1_544
Co0 P0 2.438772 1_545
Co1 P2 2.281885 1_565
Co1 P0 2.438771 1_555
Co1 P0 2.438771 1_554
Co1 P1 2.438772 1_455
Co1 P1 2.438772 1_454
Co2 P2 2.281885 1_555
Co2 P1 2.438775 1_554
Co2 P1 2.438775 1_555
Co2 P0 2.438775 1_555
Co2 P0 2.438775 1_554
Ni0 P0 2.179683 1_545
Ni0 P1 2.179687 1_555
Ni0 P2 2.241885 1_556
Ni0 P2 2.241885 1_555
Ni1 P1 2.179683 1_455
Ni1 P0 2.179687 1_555
Ni1 P2 2.241885 1_556
Ni1 P2 2.241885 1_555
Ni2 P0 2.179689 1_555
Ni2 P1 2.179689 1_555
Ni2 P2 2.241885 1_666
Ni2 P2 2.241885 1_665
