# generated using pymatgen
data_Li7Mn4CoO12
_symmetry_space_group_name_H-M   'P 1'
_cell_length_a   2.86872000
_cell_length_b   13.31655127
_cell_length_c   5.84391390
_cell_angle_alpha   77.76664365
_cell_angle_beta   90.00062311
_cell_angle_gamma   89.99970179
_symmetry_Int_Tables_number   1
_chemical_formula_structural   Li7Mn4CoO12
_chemical_formula_sum   'Li7 Mn4 Co1 O12'
_cell_volume   218.17671093
_cell_formula_units_Z   1
loop_
 _symmetry_equiv_pos_site_id
 _symmetry_equiv_pos_as_xyz
  1  'x, y, z'
loop_
 _atom_site_type_symbol
 _atom_site_label
 _atom_site_symmetry_multiplicity
 _atom_site_fract_x
 _atom_site_fract_y
 _atom_site_fract_z
 _atom_site_occupancy
  Li  Li0  1  0.50000300  0.16665700  0.16668200  1
  Li  Li1  1  0.50000100  0.49278000  0.50736000  1
  Li  Li2  1  0.50000200  0.84041800  0.82608400  1
  Li  Li3  1  0.00000100  0.31103300  0.83915900  1
  Li  Li4  1  0.00000200  0.66664500  0.16669700  1
  Li  Li5  1  0.00000000  0.02225600  0.49421500  1
  Li  Li6  1  0.50000000  0.16674500  0.66663400  1
  Mn  Mn0  1  0.99999800  0.01440500  0.98930000  1
  Mn  Mn1  1  0.99999700  0.31895300  0.34399300  1
  Mn  Mn2  1  0.49996700  0.49444700  0.99989900  1
  Mn  Mn3  1  0.50002200  0.83888500  0.33338900  1
  Co  Co0  1  0.00000100  0.66667500  0.66667900  1
  O  O0  1  0.50001200  0.00710300  0.22146700  1
  O  O1  1  0.49999900  0.33183400  0.55878800  1
  O  O2  1  0.49998900  0.66859700  0.89120200  1
  O  O3  1  0.00000000  0.15302000  0.92075100  1
  O  O4  1  0.99998900  0.48726600  0.23457600  1
  O  O5  1  0.00001500  0.83515100  0.56208000  1
  O  O6  1  0.49999600  0.32621900  0.11181600  1
  O  O7  1  0.50001400  0.66475200  0.44217400  1
  O  O8  1  0.50000400  0.00156200  0.77447500  1
  O  O9  1  0.99997600  0.49817500  0.77126100  1
  O  O10  1  0.99999900  0.84604400  0.09873800  1
  O  O11  1  0.00001100  0.18037600  0.41258100  1
loop_
_geom_bond_atom_site_label_1
_geom_bond_atom_site_label_2
_geom_bond_distance
_geom_bond_site_symmetry_2
Li0 O3 2.065550 1_554
Li0 O3 2.065558 1_654
Li0 O11 2.065672 1_555
Li0 O11 2.065684 1_655
Li0 O0 2.080531 1_555
Li0 O6 2.080607 1_555
Li1 O1 2.100203 1_555
Li1 O9 2.118414 1_555
Li1 O9 2.118533 1_455
Li1 O4 2.157214 1_555
Li1 O4 2.157238 1_455
Li1 O7 2.240502 1_555
Li2 O8 2.102736 1_565
Li2 O5 2.118560 1_555
Li2 O5 2.118632 1_655
Li2 O10 2.156927 1_556
Li2 O10 2.156961 1_456
Li2 O2 2.238538 1_555
Li3 O3 2.056641 1_555
Li3 O1 2.150885 1_455
Li3 O1 2.150903 1_555
Li3 O6 2.184862 1_556
Li3 O6 2.184902 1_456
Li3 O9 2.439032 1_455
Li4 O2 2.152272 1_554
Li4 O2 2.152298 1_454
Li4 O7 2.152310 1_455
Li4 O7 2.152333 1_555
Li4 O4 2.337034 1_455
Li4 O10 2.337275 1_455
Li5 O11 2.058032 1_555
Li5 O8 2.150459 1_555
Li5 O8 2.150470 1_455
Li5 O0 2.185139 1_455
Li5 O0 2.185205 1_555
Li5 O5 2.438556 1_545
Li6 O11 2.044558 1_555
Li6 O11 2.044626 1_655
Li6 O3 2.044763 1_655
Li6 O3 2.044787 1_555
Li6 O1 2.154778 1_555
Li6 O8 2.155975 1_555
Mn0 O3 1.803984 1_655
Mn0 O8 1.937426 1_555
Mn0 O8 1.937470 1_655
Mn0 O0 1.962567 1_556
Mn0 O0 1.962604 1_656
Mn0 O10 2.197244 1_546
Mn1 O11 1.803491 1_655
Mn1 O1 1.937440 1_655
Mn1 O1 1.937451 1_555
Mn1 O6 1.962663 1_555
Mn1 O6 1.962681 1_655
Mn1 O4 2.196622 1_555
Mn2 O9 1.953688 1_455
Mn2 O9 1.953748 1_555
Mn2 O4 1.972725 1_456
Mn2 O4 1.972795 1_556
Mn2 O6 2.196681 1_556
Mn2 O2 2.270976 1_555
Mn3 O5 1.953893 1_655
Mn3 O5 1.953944 1_555
Mn3 O10 1.972648 1_555
Mn3 O10 1.972722 1_455
Mn3 O0 2.196556 1_565
Mn3 O7 2.270791 1_555
Co0 O7 1.947677 1_455
Co0 O2 1.947749 1_555
Co0 O7 1.947753 1_555
Co0 O2 1.947820 1_455
Co0 O5 2.196781 1_555
Co0 O9 2.197083 1_455
