# generated using pymatgen
data_USiIr
_symmetry_space_group_name_H-M   'P 1'
_cell_length_a   4.30596906
_cell_length_b   6.91943981
_cell_length_c   7.39218620
_cell_angle_alpha   90.00024806
_cell_angle_beta   90.00000000
_cell_angle_gamma   90.00000000
_symmetry_Int_Tables_number   1
_chemical_formula_structural   USiIr
_chemical_formula_sum   'U4 Si4 Ir4'
_cell_volume   220.24940229
_cell_formula_units_Z   4
loop_
 _symmetry_equiv_pos_site_id
 _symmetry_equiv_pos_as_xyz
  1  'x, y, z'
loop_
 _atom_site_type_symbol
 _atom_site_label
 _atom_site_symmetry_multiplicity
 _atom_site_fract_x
 _atom_site_fract_y
 _atom_site_fract_z
 _atom_site_occupancy
  U  U0  1  0.25000000  0.48693569  0.70422044  1
  U  U1  1  0.75000000  0.51308429  0.29580534  1
  U  U2  1  0.25000000  0.98696265  0.79580413  1
  U  U3  1  0.75000000  0.01306169  0.20418179  1
  Si  Si0  1  0.25000000  0.32110431  0.08466814  1
  Si  Si1  1  0.75000000  0.67887158  0.91535939  1
  Si  Si2  1  0.25000000  0.82111778  0.41534046  1
  Si  Si3  1  0.75000000  0.17886253  0.58462191  1
  Ir  Ir0  1  0.75000000  0.78713836  0.58842709  1
  Ir  Ir1  1  0.25000000  0.21285215  0.41165526  1
  Ir  Ir2  1  0.75000000  0.28710384  0.91158244  1
  Ir  Ir3  1  0.25000000  0.71290513  0.08833462  1
loop_
_geom_bond_atom_site_label_1
_geom_bond_atom_site_label_2
_geom_bond_distance
_geom_bond_site_symmetry_2
Si0 U1 2.972532 1_555
Si0 U1 2.972532 1_455
Si0 U0 3.037425 1_554
Si0 U2 3.147269 1_544
Si0 U3 3.155803 1_555
Si0 U3 3.155803 1_455
Si1 U0 2.972402 1_655
Si1 U0 2.972402 1_555
Si1 U1 3.037298 1_556
Si1 U3 3.147307 1_566
Si1 U2 3.156115 1_655
Si1 U2 3.156115 1_555
Si2 U3 2.972509 1_565
Si2 U3 2.972509 1_465
Si2 U2 3.037560 1_555
Si2 U0 3.147568 1_555
Si2 U1 3.155799 1_455
Si2 U1 3.155799 1_555
Si3 U2 2.972465 1_545
Si3 U2 2.972465 1_645
Si3 U3 3.037284 1_555
Si3 U1 3.147452 1_555
Si3 U0 3.156116 1_655
Si3 U0 3.156116 1_555
Ir0 Si2 2.515495 1_555
Ir0 Si2 2.515495 1_655
Ir0 Si1 2.530195 1_555
Ir0 Si3 2.710658 1_565
Ir0 U1 2.876627 1_555
Ir0 U2 2.982801 1_555
Ir0 U2 2.982801 1_655
Ir0 U0 3.111742 1_555
Ir0 U0 3.111742 1_655
Ir0 U3 3.242187 1_565
Ir1 Si3 2.515051 1_455
Ir1 Si3 2.515051 1_555
Ir1 Si0 2.530552 1_555
Ir1 Si2 2.710719 1_545
Ir1 U0 2.876447 1_555
Ir1 U3 2.983059 1_455
Ir1 U3 2.983059 1_555
Ir1 U1 3.111993 1_555
Ir1 U1 3.111993 1_455
Ir1 U2 3.241449 1_545
Ir2 Si0 2.515504 1_656
Ir2 Si0 2.515504 1_556
Ir2 Si3 2.530336 1_555
Ir2 Si1 2.710957 1_555
Ir2 U3 2.876461 1_556
Ir2 U0 2.982774 1_555
Ir2 U0 2.982774 1_655
Ir2 U2 3.111422 1_545
Ir2 U2 3.111422 1_645
Ir2 U1 3.242220 1_556
Ir3 Si1 2.515111 1_554
Ir3 Si1 2.515111 1_454
Ir3 Si2 2.530598 1_555
Ir3 Si0 2.711178 1_555
Ir3 U2 2.876148 1_554
Ir3 U1 2.983152 1_555
Ir3 U1 2.983152 1_455
Ir3 U3 3.111633 1_465
Ir3 U3 3.111633 1_565
Ir3 U0 3.241480 1_554
