# generated using pymatgen
data_ThMn2Ni3
_symmetry_space_group_name_H-M   'P 1'
_cell_length_a   5.06733316
_cell_length_b   5.06733316
_cell_length_c   3.98477400
_cell_angle_alpha   90.00000000
_cell_angle_beta   90.00000000
_cell_angle_gamma   119.99998899
_symmetry_Int_Tables_number   1
_chemical_formula_structural   ThMn2Ni3
_chemical_formula_sum   'Th1 Mn2 Ni3'
_cell_volume   88.61215360
_cell_formula_units_Z   1
loop_
 _symmetry_equiv_pos_site_id
 _symmetry_equiv_pos_as_xyz
  1  'x, y, z'
loop_
 _atom_site_type_symbol
 _atom_site_label
 _atom_site_symmetry_multiplicity
 _atom_site_fract_x
 _atom_site_fract_y
 _atom_site_fract_z
 _atom_site_occupancy
  Th  Th0  1  0.00000000  0.00000000  0.00000000  1
  Mn  Mn0  1  0.66666700  0.33333300  0.00000000  1
  Mn  Mn1  1  0.33333300  0.66666700  0.00000000  1
  Ni  Ni0  1  0.50000000  0.50000000  0.50000000  1
  Ni  Ni1  1  0.50000000  0.00000000  0.50000000  1
  Ni  Ni2  1  0.00000000  0.50000000  0.50000000  1
loop_
_geom_bond_atom_site_label_1
_geom_bond_atom_site_label_2
_geom_bond_distance
_geom_bond_site_symmetry_2
Mn0 Ni1 2.471725 1_554
Mn0 Ni2 2.471725 1_654
Mn0 Ni2 2.471725 1_655
Mn0 Ni1 2.471725 1_555
Mn0 Ni0 2.471727 1_554
Mn0 Ni0 2.471727 1_555
Mn0 Th0 2.925623 1_655
Mn0 Th0 2.925628 1_665
Mn0 Th0 2.925628 1_555
Mn1 Ni2 2.471725 1_555
Mn1 Ni1 2.471725 1_564
Mn1 Ni2 2.471725 1_554
Mn1 Ni1 2.471725 1_565
Mn1 Ni0 2.471727 1_554
Mn1 Ni0 2.471727 1_555
Mn1 Th0 2.925623 1_565
Mn1 Th0 2.925628 1_665
Mn1 Th0 2.925628 1_555
Ni0 Th0 3.223209 1_665
Ni0 Th0 3.223209 1_666
Ni0 Th0 3.223209 1_555
Ni0 Th0 3.223209 1_556
Ni1 Th0 3.223208 1_555
Ni1 Th0 3.223208 1_656
Ni1 Th0 3.223208 1_556
Ni1 Th0 3.223208 1_655
Ni2 Th0 3.223208 1_565
Ni2 Th0 3.223208 1_555
Ni2 Th0 3.223208 1_556
Ni2 Th0 3.223208 1_566
