# generated using pymatgen
data_CoP3H16N4O11
_symmetry_space_group_name_H-M   'P 1'
_cell_length_a   7.91232115
_cell_length_b   8.14537240
_cell_length_c   10.46248200
_cell_angle_alpha   90.00000000
_cell_angle_beta   90.00000000
_cell_angle_gamma   100.46865346
_symmetry_Int_Tables_number   1
_chemical_formula_structural   CoP3H16N4O11
_chemical_formula_sum   'Co2 P6 H32 N8 O22'
_cell_volume   663.07044038
_cell_formula_units_Z   2
loop_
 _symmetry_equiv_pos_site_id
 _symmetry_equiv_pos_as_xyz
  1  'x, y, z'
loop_
 _atom_site_type_symbol
 _atom_site_label
 _atom_site_symmetry_multiplicity
 _atom_site_fract_x
 _atom_site_fract_y
 _atom_site_fract_z
 _atom_site_occupancy
  Co  Co0  1  0.64136300  0.22312800  0.00127600  1
  Co  Co1  1  0.35863700  0.77687200  0.50127600  1
  P  P0  1  0.20700400  0.63661000  0.98931600  1
  P  P1  1  0.79299600  0.36339000  0.48931600  1
  P  P2  1  0.54551600  0.83303100  0.05243700  1
  P  P3  1  0.45448400  0.16696900  0.55243700  1
  P  P4  1  0.76851000  0.94881100  0.83364700  1
  P  P5  1  0.23149000  0.05118900  0.33364700  1
  H  H0  1  0.94873800  0.19977000  0.00611500  1
  H  H1  1  0.05126200  0.80023000  0.50611500  1
  H  H2  1  0.94231200  0.37288600  0.08725900  1
  H  H3  1  0.05768800  0.62711400  0.58725900  1
  H  H4  1  0.87830800  0.18912900  0.15320800  1
  H  H5  1  0.12169200  0.81087100  0.65320800  1
  H  H6  1  0.58632600  0.49578400  0.90858100  1
  H  H7  1  0.41367400  0.50421600  0.40858100  1
  H  H8  1  0.71217800  0.40747100  0.81409400  1
  H  H9  1  0.28782200  0.59252900  0.31409400  1
  H  H10  1  0.79418300  0.51810000  0.93879300  1
  H  H11  1  0.20581700  0.48190000  0.43879300  1
  H  H12  1  0.56056800  0.46066500  0.13480200  1
  H  H13  1  0.43943200  0.53933500  0.63480200  1
  H  H14  1  0.43546000  0.27487900  0.16833300  1
  H  H15  1  0.56454000  0.72512100  0.66833300  1
  H  H16  1  0.62997600  0.32610700  0.22889600  1
  H  H17  1  0.37002400  0.67389300  0.72889600  1
  H  H18  1  0.32060900  0.12713300  0.00590300  1
  H  H19  1  0.67939100  0.87286700  0.50590300  1
  H  H20  1  0.36676400  0.28112100  0.89929800  1
  H  H21  1  0.63323600  0.71887900  0.39929800  1
  H  H22  1  0.40130000  0.09170400  0.86250100  1
  H  H23  1  0.59870000  0.90829600  0.36250100  1
  H  H24  1  0.11981600  0.24794100  0.72240700  1
  H  H25  1  0.88018400  0.75205900  0.22240700  1
  H  H26  1  0.15344000  0.41036200  0.80862900  1
  H  H27  1  0.84656000  0.58963800  0.30862900  1
  H  H28  1  0.07254500  0.61008200  0.17722200  1
  H  H29  1  0.92745500  0.38991800  0.67722200  1
  H  H30  1  0.98778700  0.84965800  0.92021000  1
  H  H31  1  0.01221300  0.15034200  0.42021000  1
  N  N0  1  0.87708100  0.25432500  0.06969700  1
  N  N1  1  0.12291900  0.74567500  0.56969700  1
  N  N2  1  0.68879200  0.43438200  0.90765800  1
  N  N3  1  0.31120800  0.56561800  0.40765800  1
  N  N4  1  0.55970300  0.33448400  0.14770500  1
  N  N5  1  0.44029700  0.66551600  0.64770500  1
  N  N6  1  0.40481900  0.17640100  0.93501700  1
  N  N7  1  0.59518100  0.82359900  0.43501700  1
  O  O0  1  0.04906700  0.68592800  0.93027800  1
  O  O1  1  0.95093300  0.31407200  0.43027800  1
  O  O2  1  0.16411100  0.55936200  0.12721600  1
  O  O3  1  0.83588900  0.44063800  0.62721600  1
  O  O4  1  0.29499100  0.52032900  0.91104200  1
  O  O5  1  0.70500900  0.47967100  0.41104200  1
  O  O6  1  0.34376200  0.81016700  0.01428200  1
  O  O7  1  0.65623800  0.18983300  0.51428200  1
  O  O8  1  0.60031400  0.01243400  0.09795200  1
  O  O9  1  0.39968600  0.98756600  0.59795200  1
  O  O10  1  0.58102600  0.69981400  0.14086000  1
  O  O11  1  0.41897400  0.30018600  0.64086000  1
  O  O12  1  0.62906500  0.81087400  0.91377600  1
  O  O13  1  0.37093500  0.18912600  0.41377600  1
  O  O14  1  0.94156800  0.96024100  0.91177700  1
  O  O15  1  0.05843200  0.03975900  0.41177700  1
  O  O16  1  0.77426100  0.87905800  0.70214100  1
  O  O17  1  0.22573900  0.12094200  0.20214100  1
  O  O18  1  0.71091000  0.11707900  0.84699600  1
  O  O19  1  0.28909000  0.88292100  0.34699600  1
  O  O20  1  0.06375600  0.33454100  0.75797800  1
  O  O21  1  0.93624400  0.66545900  0.25797800  1
loop_
_geom_bond_atom_site_label_1
_geom_bond_atom_site_label_2
_geom_bond_distance
_geom_bond_site_symmetry_2
Co0 N4 1.949413 1_555
Co0 N2 1.956143 1_554
Co0 O18 1.956321 1_554
Co0 N6 1.967105 1_554
Co0 O8 1.967558 1_555
Co0 N0 1.970610 1_555
Co1 N5 1.949413 1_555
Co1 N3 1.956143 1_555
Co1 O19 1.956321 1_555
Co1 N7 1.967105 1_555
Co1 O9 1.967558 1_555
Co1 N1 1.970610 1_555
H0 N0 1.026160 1_555
H1 N1 1.026160 1_555
H2 N0 1.025496 1_555
H3 N1 1.025496 1_555
H4 N0 1.023419 1_555
H5 N1 1.023419 1_555
H6 N2 1.027080 1_555
H7 N3 1.027080 1_555
H8 N2 1.027276 1_555
H9 N3 1.027276 1_555
H10 N2 1.029489 1_555
H11 N3 1.029489 1_555
H12 N4 1.035408 1_555
H13 N5 1.035408 1_555
H14 N4 1.036939 1_555
H15 N5 1.036939 1_555
H16 N4 1.024297 1_555
H17 N5 1.024297 1_555
H18 N6 1.028526 1_554
H19 N7 1.028526 1_555
H20 N6 1.025298 1_555
H21 N7 1.025298 1_555
H22 N6 1.022430 1_555
H23 N7 1.022430 1_555
H24 O20 0.972897 1_555
H25 O21 0.972897 1_555
H26 O20 1.003263 1_555
H26 O4 1.685304 1_555
H27 O21 1.003263 1_555
H27 O5 1.685304 1_555
H28 O2 1.038303 1_555
H28 O21 1.502390 1_455
H29 O3 1.038303 1_555
H29 O20 1.502390 1_655
H30 O14 1.035642 1_555
H30 O0 1.503256 1_655
H31 O15 1.035642 1_555
H31 O1 1.503256 1_455
O0 P0 1.512267 1_555
O1 P1 1.512267 1_555
O2 P0 1.585905 1_554
O3 P1 1.585905 1_555
O4 P0 1.513951 1_555
O5 P1 1.513951 1_555
O6 P2 1.623057 1_555
O6 P0 1.637599 1_554
O7 P3 1.623057 1_555
O7 P1 1.637599 1_555
O8 P2 1.523129 1_545
O9 P3 1.523129 1_565
O10 P2 1.490984 1_555
O11 P3 1.490984 1_555
O12 P2 1.617893 1_556
O12 P4 1.652892 1_555
O13 P3 1.617893 1_555
O13 P5 1.652892 1_555
O14 P4 1.582876 1_555
O15 P5 1.582876 1_555
O16 P4 1.492421 1_555
O17 P5 1.492421 1_555
O18 P4 1.527341 1_545
O19 P5 1.527341 1_565
