# generated using pymatgen
data_Li2NiO2
_symmetry_space_group_name_H-M   'P 1'
_cell_length_a   3.08998252
_cell_length_b   3.08998208
_cell_length_c   9.97735326
_cell_angle_alpha   89.99956648
_cell_angle_beta   90.00035001
_cell_angle_gamma   119.99818332
_symmetry_Int_Tables_number   1
_chemical_formula_structural   Li2NiO2
_chemical_formula_sum   'Li4 Ni2 O4'
_cell_volume   82.50227308
_cell_formula_units_Z   2
loop_
 _symmetry_equiv_pos_site_id
 _symmetry_equiv_pos_as_xyz
  1  'x, y, z'
loop_
 _atom_site_type_symbol
 _atom_site_label
 _atom_site_symmetry_multiplicity
 _atom_site_fract_x
 _atom_site_fract_y
 _atom_site_fract_z
 _atom_site_occupancy
  Li  Li0  1  0.66666927  0.33333935  0.17888818  1
  Li  Li1  1  0.33333148  0.66665580  0.82111082  1
  Li  Li2  1  0.33333073  0.66667129  0.32111275  1
  Li  Li3  1  0.66666514  0.33332448  0.67888662  1
  Ni  Ni0  1  -0.00000419  0.00000078  0.49999867  1
  Ni  Ni1  1  0.00000413  0.00000280  0.00000154  1
  O  O0  1  0.33333234  0.66666663  0.61701441  1
  O  O1  1  0.66667160  0.33333065  0.88298375  1
  O  O2  1  0.33333374  0.66667110  0.11701798  1
  O  O3  1  0.66666176  0.33333312  0.38298429  1
loop_
_geom_bond_atom_site_label_1
_geom_bond_atom_site_label_2
_geom_bond_distance
_geom_bond_site_symmetry_2
Li0 O2 1.887764 1_555
Li0 O2 1.887810 1_655
Li0 O2 1.887821 1_545
Li0 O3 2.036339 1_555
Li1 O1 1.887768 1_555
Li1 O1 1.887807 1_455
Li1 O1 1.887846 1_565
Li1 O0 2.036342 1_555
Li2 O3 1.887774 1_555
Li2 O3 1.887809 1_565
Li2 O3 1.887826 1_455
Li2 O2 2.036326 1_555
Li3 O0 1.887790 1_555
Li3 O0 1.887801 1_545
Li3 O0 1.887823 1_655
Li3 O1 2.036349 1_555
Ni0 O3 2.132044 1_455
Ni0 O0 2.132061 1_545
Ni0 O3 2.132094 1_555
Ni0 O0 2.132096 1_445
Ni0 O3 2.132101 1_445
Ni0 O0 2.132104 1_555
Ni1 O2 2.132044 1_545
Ni1 O1 2.132049 1_454
Ni1 O2 2.132113 1_555
Ni1 O2 2.132116 1_445
Ni1 O1 2.132116 1_554
Ni1 O1 2.132129 1_444
