# generated using pymatgen
data_CsHfMg14O15
_symmetry_space_group_name_H-M   'P 1'
_cell_length_a   4.16523900
_cell_length_b   8.39689600
_cell_length_c   11.61623200
_cell_angle_alpha   90.00000000
_cell_angle_beta   90.00000000
_cell_angle_gamma   90.00000000
_symmetry_Int_Tables_number   1
_chemical_formula_structural   CsHfMg14O15
_chemical_formula_sum   'Cs1 Hf1 Mg14 O15'
_cell_volume   406.27862838
_cell_formula_units_Z   1
loop_
 _symmetry_equiv_pos_site_id
 _symmetry_equiv_pos_as_xyz
  1  'x, y, z'
loop_
 _atom_site_type_symbol
 _atom_site_label
 _atom_site_symmetry_multiplicity
 _atom_site_fract_x
 _atom_site_fract_y
 _atom_site_fract_z
 _atom_site_occupancy
  Cs  Cs0  1  0.00000000  0.00000000  0.93325700  1
  Hf  Hf0  1  0.00000000  0.50000000  0.46818600  1
  Mg  Mg0  1  0.00000000  0.50000000  0.04602700  1
  Mg  Mg1  1  0.00000000  0.00000000  0.47530800  1
  Mg  Mg2  1  0.50000000  0.75496200  0.08546100  1
  Mg  Mg3  1  0.50000000  0.24503800  0.08546100  1
  Mg  Mg4  1  0.50000000  0.76023800  0.47138000  1
  Mg  Mg5  1  0.50000000  0.23976200  0.47138000  1
  Mg  Mg6  1  0.50000000  0.00000000  0.66102100  1
  Mg  Mg7  1  0.50000000  0.50000000  0.73035100  1
  Mg  Mg8  1  0.50000000  0.00000000  0.26598000  1
  Mg  Mg9  1  0.50000000  0.50000000  0.25714000  1
  Mg  Mg10  1  0.00000000  0.75203900  0.67327000  1
  Mg  Mg11  1  0.00000000  0.24796100  0.67327000  1
  Mg  Mg12  1  0.00000000  0.76563500  0.25504900  1
  Mg  Mg13  1  0.00000000  0.23436500  0.25504900  1
  O  O0  1  0.00000000  0.00000000  0.66384600  1
  O  O1  1  0.00000000  0.00000000  0.30244400  1
  O  O2  1  0.00000000  0.50000000  0.29531800  1
  O  O3  1  0.50000000  0.75033000  0.67232200  1
  O  O4  1  0.50000000  0.24967000  0.67232200  1
  O  O5  1  0.50000000  0.74860400  0.28398200  1
  O  O6  1  0.50000000  0.25139600  0.28398200  1
  O  O7  1  0.50000000  0.00000000  0.09291200  1
  O  O8  1  0.50000000  0.50000000  0.08422700  1
  O  O9  1  0.50000000  0.00000000  0.48193600  1
  O  O10  1  0.50000000  0.50000000  0.46701500  1
  O  O11  1  0.00000000  0.72984100  0.08497800  1
  O  O12  1  0.00000000  0.27015900  0.08497800  1
  O  O13  1  0.00000000  0.74385300  0.48607200  1
  O  O14  1  0.00000000  0.25614700  0.48607200  1
loop_
_geom_bond_atom_site_label_1
_geom_bond_atom_site_label_2
_geom_bond_distance
_geom_bond_site_symmetry_2
Cs0 O7 2.788693 1_556
Cs0 O7 2.788693 1_456
Cs0 O12 2.872669 1_556
Cs0 O11 2.872669 1_546
Cs0 O0 3.129541 1_555
Hf0 O2 2.008075 1_555
Hf0 O14 2.058122 1_555
Hf0 O13 2.058122 1_555
Hf0 O10 2.082664 1_455
Hf0 O10 2.082664 1_555
Mg0 O11 1.982280 1_555
Mg0 O12 1.982280 1_555
Mg0 O8 2.129368 1_555
Mg0 O8 2.129368 1_455
Mg1 O1 2.008028 1_555
Mg1 O9 2.084042 1_455
Mg1 O9 2.084042 1_555
Mg1 O13 2.154471 1_545
Mg1 O14 2.154471 1_555
Mg1 O0 2.190101 1_555
Mg2 O7 2.059378 1_565
Mg2 O11 2.093282 1_555
Mg2 O11 2.093282 1_655
Mg2 O8 2.140937 1_555
Mg2 O5 2.306684 1_555
Mg3 O7 2.059378 1_555
Mg3 O12 2.093282 1_655
Mg3 O12 2.093282 1_555
Mg3 O8 2.140937 1_555
Mg3 O6 2.306684 1_555
Mg4 O9 2.016987 1_565
Mg4 O13 2.094125 1_555
Mg4 O13 2.094125 1_655
Mg4 O5 2.179050 1_555
Mg4 O10 2.185780 1_555
Mg4 O3 2.335671 1_555
Mg5 O9 2.016987 1_555
Mg5 O14 2.094125 1_555
Mg5 O14 2.094125 1_655
Mg5 O6 2.179050 1_555
Mg5 O10 2.185780 1_555
Mg5 O4 2.335671 1_555
Mg6 O9 2.080293 1_555
Mg6 O0 2.082878 1_555
Mg6 O0 2.082878 1_655
Mg6 O3 2.100559 1_545
Mg6 O4 2.100559 1_555
Mg7 O4 2.207434 1_555
Mg7 O3 2.207434 1_555
Mg8 O7 2.010398 1_555
Mg8 O6 2.121279 1_555
Mg8 O5 2.121279 1_545
Mg8 O1 2.125257 1_655
Mg8 O1 2.125257 1_555
Mg8 O9 2.508595 1_555
Mg9 O8 2.008598 1_555
Mg9 O5 2.110660 1_555
Mg9 O6 2.110660 1_555
Mg9 O2 2.129315 1_555
Mg9 O2 2.129315 1_655
Mg9 O10 2.437957 1_555
Mg10 O3 2.082698 1_555
Mg10 O3 2.082698 1_455
Mg10 O0 2.084979 1_565
Mg10 O13 2.175622 1_555
Mg11 O4 2.082698 1_455
Mg11 O4 2.082698 1_555
Mg11 O0 2.084979 1_555
Mg11 O14 2.175622 1_555
Mg12 O11 1.998316 1_555
Mg12 O1 2.043499 1_565
Mg12 O5 2.114406 1_455
Mg12 O5 2.114406 1_555
Mg12 O2 2.279032 1_555
Mg12 O13 2.689842 1_555
Mg13 O12 1.998316 1_555
Mg13 O1 2.043499 1_555
Mg13 O6 2.114406 1_455
Mg13 O6 2.114406 1_555
Mg13 O2 2.279032 1_555
Mg13 O14 2.689842 1_555
