# generated using pymatgen
data_Rb2Be3Zn2F12
_symmetry_space_group_name_H-M   'P 1'
_cell_length_a   10.19355500
_cell_length_b   10.19355500
_cell_length_c   10.19355500
_cell_angle_alpha   90.00000000
_cell_angle_beta   90.00000000
_cell_angle_gamma   90.00000000
_symmetry_Int_Tables_number   1
_chemical_formula_structural   Rb2Be3Zn2F12
_chemical_formula_sum   'Rb8 Be12 Zn8 F48'
_cell_volume   1059.19765740
_cell_formula_units_Z   4
loop_
 _symmetry_equiv_pos_site_id
 _symmetry_equiv_pos_as_xyz
  1  'x, y, z'
loop_
 _atom_site_type_symbol
 _atom_site_label
 _atom_site_symmetry_multiplicity
 _atom_site_fract_x
 _atom_site_fract_y
 _atom_site_fract_z
 _atom_site_occupancy
  Rb  Rb0  1  0.04849600  0.04849600  0.04849600  1
  Rb  Rb1  1  0.45150400  0.95150400  0.54849600  1
  Rb  Rb2  1  0.95150400  0.54849600  0.45150400  1
  Rb  Rb3  1  0.54849600  0.45150400  0.95150400  1
  Rb  Rb4  1  0.81587300  0.81587300  0.81587300  1
  Rb  Rb5  1  0.68412700  0.18412700  0.31587300  1
  Rb  Rb6  1  0.18412700  0.31587300  0.68412700  1
  Rb  Rb7  1  0.31587300  0.68412700  0.18412700  1
  Be  Be0  1  0.01980100  0.21465600  0.37562200  1
  Be  Be1  1  0.48019900  0.78534400  0.87562200  1
  Be  Be2  1  0.98019900  0.71465600  0.12437800  1
  Be  Be3  1  0.37562200  0.01980100  0.21465600  1
  Be  Be4  1  0.51980100  0.28534400  0.62437800  1
  Be  Be5  1  0.87562200  0.48019900  0.78534400  1
  Be  Be6  1  0.12437800  0.98019900  0.71465600  1
  Be  Be7  1  0.62437800  0.51980100  0.28534400  1
  Be  Be8  1  0.21465600  0.37562200  0.01980100  1
  Be  Be9  1  0.71465600  0.12437800  0.98019900  1
  Be  Be10  1  0.28534400  0.62437800  0.51980100  1
  Be  Be11  1  0.78534400  0.87562200  0.48019900  1
  Zn  Zn0  1  0.33471000  0.33471000  0.33471000  1
  Zn  Zn1  1  0.16529000  0.66529000  0.83471000  1
  Zn  Zn2  1  0.66529000  0.83471000  0.16529000  1
  Zn  Zn3  1  0.83471000  0.16529000  0.66529000  1
  Zn  Zn4  1  0.59781500  0.59781500  0.59781500  1
  Zn  Zn5  1  0.90218500  0.40218500  0.09781500  1
  Zn  Zn6  1  0.40218500  0.09781500  0.90218500  1
  Zn  Zn7  1  0.09781500  0.90218500  0.40218500  1
  F  F0  1  0.01191200  0.06884700  0.32967200  1
  F  F1  1  0.48808800  0.93115300  0.82967200  1
  F  F2  1  0.98808800  0.56884700  0.17032800  1
  F  F3  1  0.32967200  0.01191200  0.06884700  1
  F  F4  1  0.51191200  0.43115300  0.67032800  1
  F  F5  1  0.82967200  0.48808800  0.93115300  1
  F  F6  1  0.17032800  0.98808800  0.56884700  1
  F  F7  1  0.67032800  0.51191200  0.43115300  1
  F  F8  1  0.06884700  0.32967200  0.01191200  1
  F  F9  1  0.56884700  0.17032800  0.98808800  1
  F  F10  1  0.43115300  0.67032800  0.51191200  1
  F  F11  1  0.93115300  0.82967200  0.48808800  1
  F  F12  1  0.26586900  0.49590100  0.43779700  1
  F  F13  1  0.23413100  0.50409900  0.93779700  1
  F  F14  1  0.73413100  0.99590100  0.06220300  1
  F  F15  1  0.43779700  0.26586900  0.49590100  1
  F  F16  1  0.76586900  0.00409900  0.56220300  1
  F  F17  1  0.93779700  0.23413100  0.50409900  1
  F  F18  1  0.06220300  0.73413100  0.99590100  1
  F  F19  1  0.56220300  0.76586900  0.00409900  1
  F  F20  1  0.49590100  0.43779700  0.26586900  1
  F  F21  1  0.99590100  0.06220300  0.73413100  1
  F  F22  1  0.00409900  0.56220300  0.76586900  1
  F  F23  1  0.50409900  0.93779700  0.23413100  1
  F  F24  1  0.04554700  0.80580900  0.22989600  1
  F  F25  1  0.45445300  0.19419100  0.72989600  1
  F  F26  1  0.95445300  0.30580900  0.27010400  1
  F  F27  1  0.22989600  0.04554700  0.80580900  1
  F  F28  1  0.54554700  0.69419100  0.77010400  1
  F  F29  1  0.72989600  0.45445300  0.19419100  1
  F  F30  1  0.27010400  0.95445300  0.30580900  1
  F  F31  1  0.77010400  0.54554700  0.69419100  1
  F  F32  1  0.80580900  0.22989600  0.04554700  1
  F  F33  1  0.30580900  0.27010400  0.95445300  1
  F  F34  1  0.69419100  0.77010400  0.54554700  1
  F  F35  1  0.19419100  0.72989600  0.45445300  1
  F  F36  1  0.16353000  0.25610300  0.40218800  1
  F  F37  1  0.33647000  0.74389700  0.90218800  1
  F  F38  1  0.83647000  0.75610300  0.09781200  1
  F  F39  1  0.40218800  0.16353000  0.25610300  1
  F  F40  1  0.66353000  0.24389700  0.59781200  1
  F  F41  1  0.90218800  0.33647000  0.74389700  1
  F  F42  1  0.09781200  0.83647000  0.75610300  1
  F  F43  1  0.59781200  0.66353000  0.24389700  1
  F  F44  1  0.25610300  0.40218800  0.16353000  1
  F  F45  1  0.75610300  0.09781200  0.83647000  1
  F  F46  1  0.24389700  0.59781200  0.66353000  1
  F  F47  1  0.74389700  0.90218800  0.33647000  1
loop_
_geom_bond_atom_site_label_1
_geom_bond_atom_site_label_2
_geom_bond_distance
_geom_bond_site_symmetry_2
Be0 F36 1.548670 1_555
Be0 F0 1.560443 1_555
Be0 F17 1.566304 1_455
Be0 F26 1.569717 1_455
Be1 F37 1.548670 1_555
Be1 F1 1.560443 1_555
Be1 F19 1.566304 1_556
Be1 F28 1.569717 1_555
Be2 F38 1.548670 1_555
Be2 F2 1.560443 1_555
Be2 F18 1.566304 1_654
Be2 F24 1.569717 1_655
Be3 F39 1.548670 1_555
Be3 F3 1.560443 1_555
Be3 F23 1.566304 1_545
Be3 F30 1.569717 1_545
Be4 F40 1.548670 1_555
Be4 F4 1.560443 1_555
Be4 F15 1.566304 1_555
Be4 F25 1.569717 1_555
Be5 F41 1.548670 1_555
Be5 F5 1.560443 1_555
Be5 F22 1.566304 1_655
Be5 F31 1.569717 1_555
Be6 F42 1.548670 1_555
Be6 F6 1.560443 1_555
Be6 F21 1.566304 1_465
Be6 F27 1.569717 1_565
Be7 F43 1.548670 1_555
Be7 F7 1.560443 1_555
Be7 F20 1.566304 1_555
Be7 F29 1.569717 1_555
Be8 F44 1.548670 1_555
Be8 F8 1.560443 1_555
Be8 F13 1.566304 1_554
Be8 F33 1.569717 1_554
Be9 F45 1.548670 1_555
Be9 F9 1.560443 1_555
Be9 F14 1.566304 1_546
Be9 F32 1.569717 1_556
Be10 F46 1.548670 1_555
Be10 F10 1.560443 1_555
Be10 F12 1.566304 1_555
Be10 F35 1.569717 1_555
Be11 F47 1.548670 1_555
Be11 F11 1.560443 1_555
Be11 F16 1.566304 1_565
Be11 F34 1.569717 1_555
F0 Zn7 2.049226 1_545
F0 Rb0 2.897777 1_555
F1 Zn6 2.049226 1_565
F1 Rb1 2.897777 1_555
F2 Zn5 2.049226 1_555
F2 Rb2 2.897777 1_555
F3 Zn6 2.049226 1_554
F3 Rb0 2.897777 1_555
F4 Zn4 2.049226 1_555
F4 Rb3 2.897777 1_555
F5 Zn5 2.049226 1_556
F5 Rb3 2.897777 1_555
F6 Zn7 2.049226 1_555
F6 Rb1 2.897777 1_555
F7 Zn4 2.049226 1_555
F7 Rb2 2.897777 1_555
F8 Zn5 2.049226 1_455
F8 Rb0 2.897777 1_555
F9 Zn6 2.049226 1_555
F9 Rb3 2.897777 1_555
F10 Zn4 2.049226 1_555
F10 Rb1 2.897777 1_555
F11 Zn7 2.049226 1_655
F11 Rb2 2.897777 1_555
F12 Zn0 2.072792 1_555
F12 Rb6 3.219781 1_555
F12 Rb2 3.252039 1_455
F12 Rb7 3.259992 1_555
F13 Zn1 2.072792 1_555
F13 Rb7 3.219781 1_556
F13 Rb3 3.252039 1_555
F13 Rb6 3.259992 1_555
F14 Zn2 2.072792 1_555
F14 Rb4 3.219781 1_554
F14 Rb0 3.252039 1_665
F14 Rb5 3.259992 1_565
F15 Zn0 2.072792 1_555
F15 Rb5 3.219781 1_555
F15 Rb1 3.252039 1_545
F15 Rb6 3.259992 1_555
F16 Zn3 2.072792 1_555
F16 Rb5 3.219781 1_555
F16 Rb1 3.252039 1_545
F16 Rb4 3.259992 1_545
F17 Zn3 2.072792 1_555
F17 Rb6 3.219781 1_655
F17 Rb2 3.252039 1_555
F17 Rb5 3.259992 1_555
F18 Zn1 2.072792 1_555
F18 Rb4 3.219781 1_455
F18 Rb0 3.252039 1_566
F18 Rb7 3.259992 1_556
F19 Zn2 2.072792 1_555
F19 Rb7 3.219781 1_555
F19 Rb3 3.252039 1_554
F19 Rb4 3.259992 1_554
F20 Zn0 2.072792 1_555
F20 Rb7 3.219781 1_555
F20 Rb3 3.252039 1_554
F20 Rb5 3.259992 1_555
F21 Zn3 2.072792 1_555
F21 Rb4 3.219781 1_545
F21 Rb0 3.252039 1_656
F21 Rb6 3.259992 1_655
F22 Zn1 2.072792 1_555
F22 Rb6 3.219781 1_555
F22 Rb2 3.252039 1_455
F22 Rb4 3.259992 1_455
F23 Zn2 2.072792 1_555
F23 Rb5 3.219781 1_565
F23 Rb1 3.252039 1_555
F23 Rb7 3.259992 1_555
F24 Zn7 2.081677 1_555
F24 Rb7 3.057683 1_555
F24 Rb0 3.088692 1_565
F25 Zn6 2.081677 1_555
F25 Rb6 3.057683 1_555
F25 Rb1 3.088692 1_545
F26 Zn5 2.081677 1_555
F26 Rb5 3.057683 1_555
F26 Rb2 3.088692 1_555
F27 Zn6 2.081677 1_555
F27 Rb6 3.057683 1_555
F27 Rb0 3.088692 1_556
F28 Zn4 2.081677 1_555
F28 Rb4 3.057683 1_555
F28 Rb3 3.088692 1_555
F29 Zn5 2.081677 1_555
F29 Rb5 3.057683 1_555
F29 Rb3 3.088692 1_554
F30 Zn7 2.081677 1_555
F30 Rb7 3.057683 1_555
F30 Rb1 3.088692 1_555
F31 Zn4 2.081677 1_555
F31 Rb4 3.057683 1_555
F31 Rb2 3.088692 1_555
F32 Zn5 2.081677 1_555
F32 Rb5 3.057683 1_555
F32 Rb0 3.088692 1_655
F33 Zn6 2.081677 1_555
F33 Rb6 3.057683 1_555
F33 Rb3 3.088692 1_555
F34 Zn4 2.081677 1_555
F34 Rb4 3.057683 1_555
F34 Rb1 3.088692 1_555
F35 Zn7 2.081677 1_555
F35 Rb7 3.057683 1_555
F35 Rb2 3.088692 1_455
F36 Zn0 2.039601 1_555
F36 Rb6 2.945325 1_555
F37 Zn1 2.039601 1_555
F37 Rb7 2.945325 1_556
F38 Zn2 2.039601 1_555
F38 Rb4 2.945325 1_554
F39 Zn0 2.039601 1_555
F39 Rb5 2.945325 1_555
F40 Zn3 2.039601 1_555
F40 Rb5 2.945325 1_555
F41 Zn3 2.039601 1_555
F41 Rb6 2.945325 1_655
F42 Zn1 2.039601 1_555
F42 Rb4 2.945325 1_455
F43 Zn2 2.039601 1_555
F43 Rb7 2.945325 1_555
F44 Zn0 2.039601 1_555
F44 Rb7 2.945325 1_555
F45 Zn3 2.039601 1_555
F45 Rb4 2.945325 1_545
F46 Zn1 2.039601 1_555
F46 Rb6 2.945325 1_555
F47 Zn2 2.039601 1_555
F47 Rb5 2.945325 1_565
