# generated using pymatgen
data_ZrUAl4
_symmetry_space_group_name_H-M   'P 1'
_cell_length_a   5.44258675
_cell_length_b   5.44258675
_cell_length_c   5.44258675
_cell_angle_alpha   60.00000000
_cell_angle_beta   60.00000000
_cell_angle_gamma   60.00000000
_symmetry_Int_Tables_number   1
_chemical_formula_structural   ZrUAl4
_chemical_formula_sum   'Zr1 U1 Al4'
_cell_volume   113.99901081
_cell_formula_units_Z   1
loop_
 _symmetry_equiv_pos_site_id
 _symmetry_equiv_pos_as_xyz
  1  'x, y, z'
loop_
 _atom_site_type_symbol
 _atom_site_label
 _atom_site_symmetry_multiplicity
 _atom_site_fract_x
 _atom_site_fract_y
 _atom_site_fract_z
 _atom_site_occupancy
  Zr  Zr0  1  0.00000000  0.00000000  0.00000000  1
  U  U0  1  0.25000000  0.25000000  0.25000000  1
  Al  Al0  1  0.62486300  0.62486300  0.12541000  1
  Al  Al1  1  0.62486300  0.12541000  0.62486300  1
  Al  Al2  1  0.12541000  0.62486300  0.62486300  1
  Al  Al3  1  0.62486300  0.62486300  0.62486300  1
loop_
_geom_bond_atom_site_label_1
_geom_bond_atom_site_label_2
_geom_bond_distance
_geom_bond_site_symmetry_2
U0 Zr0 3.332890 1_555
U0 Zr0 3.332890 1_556
U0 Zr0 3.332890 1_655
U0 Zr0 3.332890 1_565
Al0 Al3 2.718316 1_555
Al0 Al1 2.718316 1_555
Al0 Al2 2.718316 1_555
Al0 Al3 2.724270 1_554
Al0 Al1 2.724270 1_564
Al0 Al2 2.724270 1_654
Al0 U0 3.190680 1_555
Al0 U0 3.190684 1_565
Al0 U0 3.190684 1_655
Al0 Zr0 3.191315 1_565
Al0 Zr0 3.191315 1_655
Al0 Zr0 3.191320 1_665
Al1 Al3 2.718316 1_555
Al1 Al2 2.718316 1_555
Al1 Al2 2.724270 1_645
Al1 Al3 2.724270 1_545
Al1 U0 3.190680 1_555
Al1 U0 3.190684 1_556
Al1 U0 3.190684 1_655
Al1 Zr0 3.191315 1_556
Al1 Zr0 3.191315 1_655
Al1 Zr0 3.191320 1_656
Al2 Al3 2.718316 1_555
Al2 Al3 2.724270 1_455
Al2 U0 3.190680 1_555
Al2 U0 3.190684 1_556
Al2 U0 3.190684 1_565
Al2 Zr0 3.191315 1_565
Al2 Zr0 3.191315 1_556
Al2 Zr0 3.191320 1_566
Al3 U0 3.190682 1_556
Al3 U0 3.190682 1_565
Al3 U0 3.190682 1_655
Al3 Zr0 3.191318 1_566
Al3 Zr0 3.191318 1_656
Al3 Zr0 3.191318 1_665
