# generated using pymatgen
data_Sr3LiAs2H
_symmetry_space_group_name_H-M   'P 1'
_cell_length_a   4.49630700
_cell_length_b   12.09990900
_cell_length_c   12.63116700
_cell_angle_alpha   90.00000000
_cell_angle_beta   90.00000000
_cell_angle_gamma   90.00000000
_symmetry_Int_Tables_number   1
_chemical_formula_structural   Sr3LiAs2H
_chemical_formula_sum   'Sr12 Li4 As8 H4'
_cell_volume   687.19744745
_cell_formula_units_Z   4
loop_
 _symmetry_equiv_pos_site_id
 _symmetry_equiv_pos_as_xyz
  1  'x, y, z'
loop_
 _atom_site_type_symbol
 _atom_site_label
 _atom_site_symmetry_multiplicity
 _atom_site_fract_x
 _atom_site_fract_y
 _atom_site_fract_z
 _atom_site_occupancy
  Sr  Sr0  1  0.25000000  0.06261700  0.62208000  1
  Sr  Sr1  1  0.25000000  0.56261700  0.87792000  1
  Sr  Sr2  1  0.75000000  0.93738300  0.37792000  1
  Sr  Sr3  1  0.75000000  0.43738300  0.12208000  1
  Sr  Sr4  1  0.25000000  0.20541400  0.29863300  1
  Sr  Sr5  1  0.25000000  0.70541400  0.20136700  1
  Sr  Sr6  1  0.75000000  0.79458600  0.70136700  1
  Sr  Sr7  1  0.75000000  0.29458600  0.79863300  1
  Sr  Sr8  1  0.25000000  0.36863700  0.56080500  1
  Sr  Sr9  1  0.25000000  0.86863700  0.93919500  1
  Sr  Sr10  1  0.75000000  0.63136300  0.43919500  1
  Sr  Sr11  1  0.75000000  0.13136300  0.06080500  1
  Li  Li0  1  0.25000000  0.13520600  0.85880800  1
  Li  Li1  1  0.25000000  0.63520600  0.64119200  1
  Li  Li2  1  0.75000000  0.86479400  0.14119200  1
  Li  Li3  1  0.75000000  0.36479400  0.35880800  1
  As  As0  1  0.25000000  0.31314300  0.98657400  1
  As  As1  1  0.25000000  0.81314300  0.51342600  1
  As  As2  1  0.75000000  0.68685700  0.01342600  1
  As  As3  1  0.75000000  0.18685700  0.48657400  1
  As  As4  1  0.25000000  0.47468400  0.32464900  1
  As  As5  1  0.25000000  0.97468400  0.17535100  1
  As  As6  1  0.75000000  0.52531600  0.67535100  1
  As  As7  1  0.75000000  0.02531600  0.82464900  1
  H  H0  1  0.25000000  0.23834900  0.72662400  1
  H  H1  1  0.25000000  0.73834900  0.77337600  1
  H  H2  1  0.75000000  0.76165100  0.27337600  1
  H  H3  1  0.75000000  0.26165100  0.22662400  1
loop_
_geom_bond_atom_site_label_1
_geom_bond_atom_site_label_2
_geom_bond_distance
_geom_bond_site_symmetry_2
As0 Li0 2.690718 1_555
As0 Sr3 3.200571 1_456
As0 Sr3 3.200571 1_556
As0 Sr7 3.277206 1_555
As0 Sr7 3.277206 1_455
As0 Sr11 3.281955 1_456
As0 Sr11 3.281955 1_556
As0 Sr1 3.315958 1_555
As1 Li1 2.690718 1_555
As1 Sr2 3.200571 1_555
As1 Sr2 3.200571 1_455
As1 Sr6 3.277206 1_455
As1 Sr6 3.277206 1_555
As1 Sr10 3.281955 1_555
As1 Sr10 3.281955 1_455
As1 Sr0 3.315958 1_565
As2 Li2 2.690718 1_555
As2 Sr1 3.200571 1_654
As2 Sr1 3.200571 1_554
As2 Sr5 3.277206 1_555
As2 Sr5 3.277206 1_655
As2 Sr9 3.281955 1_554
As2 Sr9 3.281955 1_654
As2 Sr3 3.315958 1_555
As3 Li3 2.690718 1_555
As3 Sr0 3.200571 1_655
As3 Sr0 3.200571 1_555
As3 Sr4 3.277206 1_555
As3 Sr4 3.277206 1_655
As3 Sr8 3.281955 1_555
As3 Sr8 3.281955 1_655
As3 Sr2 3.315958 1_545
As4 Li3 2.647329 1_455
As4 Li3 2.647329 1_555
As4 Sr5 3.196728 1_555
As4 Sr8 3.247206 1_555
As4 Sr4 3.274672 1_555
As4 Sr10 3.277443 1_455
As4 Sr10 3.277443 1_555
As4 Sr3 3.435805 1_555
As4 Sr3 3.435805 1_455
As5 Li2 2.647329 1_455
As5 Li2 2.647329 1_555
As5 Sr4 3.196728 1_565
As5 Sr9 3.247206 1_554
As5 Sr5 3.274672 1_555
As5 Sr11 3.277443 1_565
As5 Sr11 3.277443 1_465
As5 Sr2 3.435805 1_555
As5 Sr2 3.435805 1_455
As6 Li1 2.647329 1_555
As6 Li1 2.647329 1_655
As6 Sr7 3.196728 1_555
As6 Sr10 3.247206 1_555
As6 Sr6 3.274672 1_555
As6 Sr8 3.277443 1_555
As6 Sr8 3.277443 1_655
As6 Sr1 3.435805 1_555
As6 Sr1 3.435805 1_655
As7 Li0 2.647329 1_555
As7 Li0 2.647329 1_655
As7 Sr6 3.196728 1_545
As7 Sr11 3.247206 1_556
As7 Sr7 3.274672 1_555
As7 Sr9 3.277443 1_545
As7 Sr9 3.277443 1_645
As7 Sr0 3.435805 1_655
As7 Sr0 3.435805 1_555
H0 Li0 2.084526 1_555
H0 Sr0 2.503014 1_555
H0 Sr7 2.518833 1_455
H0 Sr7 2.518833 1_555
H0 Sr8 2.621478 1_555
H1 Li1 2.084526 1_555
H1 Sr1 2.503014 1_555
H1 Sr6 2.518833 1_555
H1 Sr6 2.518833 1_455
H1 Sr9 2.621478 1_555
H2 Li2 2.084526 1_555
H2 Sr2 2.503014 1_555
H2 Sr5 2.518833 1_655
H2 Sr5 2.518833 1_555
H2 Sr10 2.621478 1_555
H3 Li3 2.084526 1_555
H3 Sr3 2.503014 1_555
H3 Sr4 2.518833 1_555
H3 Sr4 2.518833 1_655
H3 Sr11 2.621478 1_555
