# generated using pymatgen
data_Zr(TlS)4
_symmetry_space_group_name_H-M   'P 1'
_cell_length_a   9.17788606
_cell_length_b   9.17758276
_cell_length_c   15.67329271
_cell_angle_alpha   103.85339617
_cell_angle_beta   104.92893068
_cell_angle_gamma   90.04713738
_symmetry_Int_Tables_number   1
_chemical_formula_structural   Zr(TlS)4
_chemical_formula_sum   'Zr5 Tl20 S20'
_cell_volume   1235.75536751
_cell_formula_units_Z   5
loop_
 _symmetry_equiv_pos_site_id
 _symmetry_equiv_pos_as_xyz
  1  'x, y, z'
loop_
 _atom_site_type_symbol
 _atom_site_label
 _atom_site_symmetry_multiplicity
 _atom_site_fract_x
 _atom_site_fract_y
 _atom_site_fract_z
 _atom_site_occupancy
  Zr  Zr0  1  0.98395935  0.31829159  0.40059062  1
  Zr  Zr1  1  0.01604065  0.68170841  0.59940938  1
  Zr  Zr2  1  0.82541738  0.69081483  0.80060477  1
  Zr  Zr3  1  0.17458262  0.30918517  0.19939523  1
  Zr  Zr4  1  0.00000000  0.50000000  0.00000000  1
  Tl  Tl0  1  0.95569370  0.92098782  0.20000885  1
  Tl  Tl1  1  0.04430630  0.07901218  0.79999115  1
  Tl  Tl2  1  0.78492913  0.28083212  0.59878710  1
  Tl  Tl3  1  0.21507087  0.71916788  0.40121290  1
  Tl  Tl4  1  0.78339003  0.91347071  0.40314463  1
  Tl  Tl5  1  0.21660997  0.08652929  0.59685537  1
  Tl  Tl6  1  0.77715971  0.54634792  0.20344164  1
  Tl  Tl7  1  0.22284029  0.45365208  0.79655836  1
  Tl  Tl8  1  0.62378489  0.90213535  0.61045363  1
  Tl  Tl9  1  0.37621511  0.09786465  0.38954637  1
  Tl  Tl10  1  0.61328198  0.29912058  0.80854649  1
  Tl  Tl11  1  0.38671802  0.70087942  0.19145351  1
  Tl  Tl12  1  0.58749262  0.53288027  0.40072272  1
  Tl  Tl13  1  0.41250738  0.46711973  0.59927728  1
  Tl  Tl14  1  0.41797619  0.89472820  0.79826299  1
  Tl  Tl15  1  0.58202381  0.10527180  0.20173701  1
  Tl  Tl16  1  0.39172658  0.28439666  0.00139774  1
  Tl  Tl17  1  0.60827342  0.71560334  -0.00139774  1
  Tl  Tl18  1  0.22237893  0.89681085  0.99252068  1
  Tl  Tl19  1  0.77762107  0.10318915  0.00747932  1
  S  S0  1  0.93744742  0.94622820  0.59610485  1
  S  S1  1  0.06255258  0.05377180  0.40389515  1
  S  S2  1  0.93170437  0.60453377  0.42219469  1
  S  S3  1  0.06829563  0.39546623  0.57780531  1
  S  S4  1  0.92698995  0.76542961  0.97863372  1
  S  S5  1  0.07301005  0.23457039  0.02136628  1
  S  S6  1  0.91243914  0.41992518  0.82240949  1
  S  S7  1  0.08756086  0.58007482  0.17759051  1
  S  S8  1  0.76059091  0.95936840  0.80544669  1
  S  S9  1  0.23940909  0.04063160  0.19455331  1
  S  S10  1  0.74930264  0.61348800  0.62303671  1
  S  S11  1  0.25069736  0.38651200  0.37696329  1
  S  S12  1  0.55960616  0.61822843  0.80251806  1
  S  S13  1  0.44039384  0.38177157  0.19748194  1
  S  S14  1  0.28488226  0.75222826  0.60410591  1
  S  S15  1  0.71511774  0.24777174  0.39589409  1
  S  S16  1  0.27090540  0.57120805  0.99701375  1
  S  S17  1  0.72909460  0.42879195  0.00298625  1
  S  S18  1  0.09368008  0.73654765  0.77624144  1
  S  S19  1  0.90631992  0.26345235  0.22375856  1
loop_
_geom_bond_atom_site_label_1
_geom_bond_atom_site_label_2
_geom_bond_distance
_geom_bond_site_symmetry_2
S0 Zr1 2.541717 1_655
S0 Tl5 2.862582 1_665
S0 Tl4 2.932017 1_555
S0 Tl8 2.979400 1_555
S0 Tl1 3.029354 1_665
S1 Zr0 2.541717 1_455
S1 Tl4 2.862582 1_445
S1 Tl5 2.932017 1_555
S1 Tl9 2.979400 1_555
S1 Tl0 3.029354 1_445
S2 Zr1 2.600923 1_655
S2 Zr0 2.627855 1_555
S2 Tl3 2.929248 1_655
S2 Tl12 3.141442 1_555
S2 Tl4 3.191125 1_555
S2 Tl6 3.266266 1_555
S3 Zr0 2.600923 1_455
S3 Zr1 2.627855 1_555
S3 Tl2 2.929248 1_455
S3 Tl13 3.141442 1_555
S3 Tl5 3.191125 1_555
S3 Tl7 3.266266 1_555
S4 Zr4 2.602494 1_656
S4 Zr2 2.620580 1_555
S4 Tl18 2.901021 1_655
S4 Tl17 3.066197 1_556
S5 Zr4 2.602494 1_555
S5 Zr3 2.620580 1_555
S5 Tl19 2.901021 1_455
S5 Tl16 3.066197 1_555
S6 Zr4 2.607742 1_656
S6 Zr2 2.684201 1_555
S6 Tl10 2.896058 1_555
S6 Tl7 3.004849 1_655
S7 Zr4 2.607742 1_555
S7 Zr3 2.684201 1_555
S7 Tl11 2.896058 1_555
S7 Tl6 3.004849 1_455
S8 Zr2 2.523978 1_555
S8 Tl1 2.854525 1_665
S8 Tl8 2.906148 1_555
S8 Tl19 3.088141 1_566
S8 Tl14 3.167789 1_555
S9 Zr3 2.523978 1_555
S9 Tl0 2.854525 1_445
S9 Tl9 2.906148 1_555
S9 Tl18 3.088141 1_544
S9 Tl15 3.167789 1_555
S10 Zr2 2.605532 1_555
S10 Zr1 2.664188 1_655
S10 Tl8 2.919207 1_555
S10 Tl2 3.013643 1_555
S11 Zr3 2.605532 1_555
S11 Zr0 2.664188 1_455
S11 Tl9 2.919207 1_555
S11 Tl3 3.013643 1_555
S12 Zr2 2.537881 1_555
S12 Tl14 2.859250 1_555
S12 Tl17 2.901734 1_556
S12 Tl10 2.989890 1_555
S12 Tl13 3.091700 1_555
S13 Zr3 2.537881 1_555
S13 Tl15 2.859250 1_555
S13 Tl16 2.901734 1_555
S13 Tl11 2.989890 1_555
S13 Tl12 3.091700 1_555
S14 Zr1 2.528501 1_555
S14 Tl13 2.860115 1_555
S14 Tl14 2.939238 1_555
S14 Tl3 3.017089 1_555
S14 Tl5 3.154689 1_565
S15 Zr0 2.528501 1_555
S15 Tl12 2.860115 1_555
S15 Tl15 2.939238 1_555
S15 Tl2 3.017089 1_555
S15 Tl4 3.154689 1_545
S16 Zr4 2.585167 1_556
S16 Tl16 2.866210 1_556
S16 Tl11 2.902678 1_556
S16 Tl7 2.981840 1_555
S16 Tl18 3.036402 1_555
S17 Zr4 2.585167 1_655
S17 Tl17 2.866210 1_555
S17 Tl10 2.902678 1_554
S17 Tl6 2.981840 1_555
S17 Tl19 3.036402 1_555
S18 Zr1 2.599301 1_555
S18 Zr2 2.635013 1_455
S18 Tl7 2.907552 1_555
S18 Tl1 3.122711 1_565
S18 Tl14 3.210751 1_555
S18 Tl18 3.255127 1_555
S19 Zr0 2.599301 1_555
S19 Zr3 2.635013 1_655
S19 Tl6 2.907552 1_555
S19 Tl0 3.122711 1_545
S19 Tl15 3.210751 1_555
S19 Tl19 3.255127 1_555
