# generated using pymatgen
data_Y2(AlNi)5
_symmetry_space_group_name_H-M   'P 1'
_cell_length_a   4.04288741
_cell_length_b   8.84125055
_cell_length_c   15.33124902
_cell_angle_alpha   89.94505502
_cell_angle_beta   90.00000000
_cell_angle_gamma   90.00000000
_symmetry_Int_Tables_number   1
_chemical_formula_structural   Y2(AlNi)5
_chemical_formula_sum   'Y6 Al15 Ni15'
_cell_volume   548.00268095
_cell_formula_units_Z   3
loop_
 _symmetry_equiv_pos_site_id
 _symmetry_equiv_pos_as_xyz
  1  'x, y, z'
loop_
 _atom_site_type_symbol
 _atom_site_label
 _atom_site_symmetry_multiplicity
 _atom_site_fract_x
 _atom_site_fract_y
 _atom_site_fract_z
 _atom_site_occupancy
  Y  Y0  1  -0.00000000  0.00042533  0.33654436  1
  Y  Y1  1  0.00000000  0.50362614  0.83540634  1
  Y  Y2  1  -0.00000000  0.50441001  0.16924973  1
  Y  Y3  1  -0.00000000  0.00303197  0.66325716  1
  Y  Y4  1  0.50000000  0.98979415  0.00121001  1
  Y  Y5  1  0.50000000  0.49629279  0.49509699  1
  Al  Al0  1  0.50000000  0.00928108  0.50101369  1
  Al  Al1  1  0.50000000  0.50809667  0.00087429  1
  Al  Al2  1  0.50000000  0.74869380  0.25634074  1
  Al  Al3  1  0.50000000  0.25351138  0.75112783  1
  Al  Al4  1  0.50000000  0.24914623  0.24885926  1
  Al  Al5  1  0.50000000  0.75352900  0.74806551  1
  Al  Al6  1  -0.00000000  0.14883417  0.85178041  1
  Al  Al7  1  -0.00000000  0.14717193  0.14913049  1
  Al  Al8  1  -0.00000000  0.64909052  0.64743355  1
  Al  Al9  1  -0.00000000  0.29853057  0.00096760  1
  Al  Al10  1  0.00000000  0.78618607  0.49390300  1
  Al  Al11  1  -0.00000000  0.84742713  0.14236132  1
  Al  Al12  1  -0.00000000  0.35006750  0.64002068  1
  Al  Al13  1  -0.00000000  0.35911158  0.35903604  1
  Al  Al14  1  0.00000000  0.84915611  0.85880329  1
  Ni  Ni0  1  0.50000000  0.99636105  0.18317949  1
  Ni  Ni1  1  0.50000000  0.50089419  0.67908230  1
  Ni  Ni2  1  0.50000000  0.22664025  0.40577271  1
  Ni  Ni3  1  0.50000000  0.72642361  0.90678748  1
  Ni  Ni4  1  0.50000000  0.77876756  0.41062172  1
  Ni  Ni5  1  0.50000000  0.27312448  0.91142411  1
  Ni  Ni6  1  0.50000000  0.49648337  0.31654604  1
  Ni  Ni7  1  0.50000000  0.00082529  0.81894217  1
  Ni  Ni8  1  0.50000000  0.72339210  0.09651130  1
  Ni  Ni9  1  0.50000000  0.22860264  0.59226857  1
  Ni  Ni10  1  0.50000000  0.27323826  0.09041585  1
  Ni  Ni11  1  0.50000000  0.77281585  0.58751702  1
  Ni  Ni12  1  0.00000000  0.69823763  0.00103422  1
  Ni  Ni13  1  0.00000000  0.20064776  0.49857211  1
  Ni  Ni14  1  -0.00000000  0.64833083  0.35084160  1
loop_
_geom_bond_atom_site_label_1
_geom_bond_atom_site_label_2
_geom_bond_distance
_geom_bond_site_symmetry_2
Al0 Ni9 2.392189 1_555
Al0 Ni2 2.412411 1_555
Al0 Ni4 2.465659 1_545
Al0 Ni11 2.474734 1_545
Al0 Ni13 2.636306 1_555
Al0 Ni13 2.636306 1_655
Al0 Y3 3.205645 1_555
Al0 Y3 3.205645 1_655
Al0 Y0 3.232771 1_655
Al0 Y0 3.232771 1_555
Al1 Ni8 2.403838 1_555
Al1 Ni3 2.408603 1_554
Al1 Ni10 2.488108 1_555
Al1 Ni5 2.490371 1_554
Al1 Ni12 2.629124 1_555
Al1 Ni12 2.629124 1_655
Al1 Y1 3.243994 1_654
Al1 Y1 3.243994 1_554
Al1 Y2 3.278840 1_655
Al1 Y2 3.278840 1_555
Al2 Ni4 2.380471 1_555
Al2 Ni6 2.412525 1_555
Al2 Ni0 2.459295 1_555
Al2 Ni8 2.460788 1_555
Al2 Ni14 2.640114 1_555
Al2 Ni14 2.640114 1_655
Al2 Y2 3.246411 1_555
Al2 Y2 3.246411 1_655
Al2 Y0 3.249130 1_565
Al2 Y0 3.249130 1_665
Al3 Ni9 2.445658 1_555
Al3 Ni1 2.449310 1_555
Al3 Ni7 2.463231 1_555
Al3 Ni5 2.463818 1_555
Al3 Y1 3.263616 1_655
Al3 Y1 3.263616 1_555
Al3 Y3 3.288017 1_555
Al3 Y3 3.288017 1_655
Al4 Ni2 2.413704 1_555
Al4 Ni6 2.421401 1_555
Al4 Ni10 2.438253 1_555
Al4 Ni0 2.452186 1_545
Al4 Y2 3.265575 1_655
Al4 Y2 3.265575 1_555
Al4 Y0 3.274658 1_655
Al4 Y0 3.274658 1_555
Al5 Ni7 2.442478 1_565
Al5 Ni3 2.444949 1_555
Al5 Ni11 2.467145 1_555
Al5 Ni1 2.472256 1_555
Al5 Y3 3.261499 1_565
Al5 Y3 3.261499 1_665
Al5 Y1 3.279525 1_555
Al5 Y1 3.279525 1_655
Al6 Ni7 2.460356 1_455
Al6 Ni7 2.460356 1_555
Al6 Ni5 2.476258 1_555
Al6 Ni5 2.476258 1_455
Al6 Y1 3.146594 1_555
Al6 Y3 3.165861 1_555
Al7 Ni0 2.476941 1_445
Al7 Ni0 2.476941 1_545
Al7 Ni10 2.477279 1_555
Al7 Ni10 2.477279 1_455
Al7 Y0 3.151499 1_555
Al7 Y2 3.173752 1_555
Al8 Ni1 2.457067 1_555
Al8 Ni1 2.457067 1_455
Al8 Ni11 2.474816 1_455
Al8 Ni11 2.474816 1_555
Al8 Y3 3.138906 1_565
Al8 Y1 3.154681 1_555
Al9 Ni10 2.452807 1_555
Al9 Ni10 2.452807 1_455
Al9 Ni5 2.453956 1_554
Al9 Ni5 2.453956 1_454
Al9 Y1 3.118013 1_554
Al9 Y2 3.158880 1_555
Al10 Ni4 2.391847 1_455
Al10 Ni4 2.391847 1_555
Al10 Ni11 2.481882 1_555
Al10 Ni11 2.481882 1_455
Al10 Ni14 2.510227 1_555
Al10 Y0 3.065810 1_565
Al10 Y3 3.229011 1_565
Al11 Ni8 2.405082 1_555
Al11 Ni8 2.405082 1_455
Al11 Ni0 2.492648 1_455
Al11 Ni0 2.492648 1_555
Al11 Ni12 2.537711 1_555
Al11 Y2 3.060198 1_555
Al11 Y0 3.271154 1_565
Al12 Ni9 2.403534 1_555
Al12 Ni9 2.403534 1_455
Al12 Ni1 2.494918 1_455
Al12 Ni1 2.494918 1_555
Al12 Ni13 2.540362 1_555
Al12 Y3 3.088501 1_555
Al12 Y1 3.289996 1_555
Al13 Ni2 2.443313 1_455
Al13 Ni2 2.443313 1_555
Al13 Ni6 2.446257 1_555
Al13 Ni6 2.446257 1_455
Al13 Ni13 2.556080 1_555
Al13 Ni14 2.560024 1_555
Al13 Y2 3.179498 1_555
Al13 Y0 3.190256 1_555
Al14 Ni3 2.409016 1_555
Al14 Ni3 2.409016 1_455
Al14 Ni7 2.501253 1_565
Al14 Ni7 2.501253 1_465
Al14 Ni12 2.555331 1_556
Al14 Y1 3.076246 1_555
Al14 Y3 3.291021 1_565
Ni0 Y4 2.790479 1_555
Ni0 Y0 3.100997 1_565
Ni0 Y0 3.100997 1_665
Ni1 Y5 2.821057 1_555
Ni1 Y1 3.135415 1_555
Ni1 Y1 3.135415 1_655
Ni2 Y5 2.750533 1_555
Ni2 Y0 3.035931 1_555
Ni2 Y0 3.035931 1_655
Ni3 Y4 2.743006 1_556
Ni3 Y1 3.027894 1_555
Ni3 Y1 3.027894 1_655
Ni4 Y5 2.812164 1_555
Ni4 Y0 3.035181 1_565
Ni4 Y0 3.035181 1_665
Ni5 Y4 2.857135 1_546
Ni5 Y1 3.097269 1_555
Ni5 Y1 3.097269 1_655
Ni6 Y5 2.737408 1_555
Ni6 Y2 3.031579 1_655
Ni6 Y2 3.031579 1_555
Ni7 Y4 2.796002 1_546
Ni7 Y3 3.127868 1_555
Ni7 Y3 3.127868 1_655
Ni8 Y4 2.770513 1_555
Ni8 Y2 3.012323 1_655
Ni8 Y2 3.012323 1_555
Ni9 Y5 2.795348 1_555
Ni9 Y3 3.040379 1_655
Ni9 Y3 3.040379 1_555
Ni10 Y4 2.856054 1_545
Ni10 Y2 3.119143 1_655
Ni10 Y2 3.119143 1_555
Ni11 Y5 2.826904 1_555
Ni11 Y3 3.095477 1_665
Ni11 Y3 3.095477 1_565
Ni12 Ni3 2.497086 1_554
Ni12 Ni3 2.497086 1_454
Ni12 Ni8 2.505789 1_455
Ni12 Ni8 2.505789 1_555
Ni12 Y1 3.068685 1_554
Ni12 Y2 3.095032 1_555
Ni12 Y4 3.275808 1_455
Ni12 Y4 3.275808 1_555
Ni13 Ni2 2.482455 1_455
Ni13 Ni2 2.482455 1_555
Ni13 Ni9 2.492286 1_455
Ni13 Ni9 2.492286 1_555
Ni13 Y0 3.051687 1_555
Ni13 Y3 3.069022 1_555
Ni13 Y5 3.304714 1_555
Ni13 Y5 3.304714 1_455
Ni14 Ni6 2.483226 1_455
Ni14 Ni6 2.483226 1_555
Ni14 Ni4 2.501633 1_455
Ni14 Ni4 2.501633 1_555
Ni14 Y2 3.062143 1_555
Ni14 Y0 3.120454 1_565
Ni14 Y5 3.283088 1_555
Ni14 Y5 3.283088 1_455
