# generated using pymatgen
data_MgTiBi(PO4)3
_symmetry_space_group_name_H-M   'P 1'
_cell_length_a   8.40025376
_cell_length_b   8.40025316
_cell_length_c   8.40025381
_cell_angle_alpha   64.63108249
_cell_angle_beta   64.63108687
_cell_angle_gamma   64.63109322
_symmetry_Int_Tables_number   1
_chemical_formula_structural   MgTiBi(PO4)3
_chemical_formula_sum   'Mg2 Ti2 Bi2 P6 O24'
_cell_volume   461.66647460
_cell_formula_units_Z   2
loop_
 _symmetry_equiv_pos_site_id
 _symmetry_equiv_pos_as_xyz
  1  'x, y, z'
loop_
 _atom_site_type_symbol
 _atom_site_label
 _atom_site_symmetry_multiplicity
 _atom_site_fract_x
 _atom_site_fract_y
 _atom_site_fract_z
 _atom_site_occupancy
  Mg  Mg0  1  0.99319100  0.99319100  0.99319100  1
  Mg  Mg1  1  0.49319100  0.49319100  0.49319100  1
  Ti  Ti0  1  0.14900100  0.14900100  0.14900100  1
  Ti  Ti1  1  0.64900100  0.64900100  0.64900100  1
  Bi  Bi0  1  0.33220500  0.33220500  0.33220500  1
  Bi  Bi1  1  0.83220500  0.83220500  0.83220500  1
  P  P0  1  0.06529700  0.42887800  0.76007300  1
  P  P1  1  0.42887800  0.76007300  0.06529700  1
  P  P2  1  0.76007300  0.06529700  0.42887800  1
  P  P3  1  0.26007300  0.92887800  0.56529700  1
  P  P4  1  0.56529700  0.26007300  0.92887800  1
  P  P5  1  0.92887800  0.56529700  0.26007300  1
  O  O0  1  0.05819700  0.56333800  0.34323300  1
  O  O1  1  0.34323300  0.05819700  0.56333800  1
  O  O2  1  0.06913600  0.23525800  0.90621900  1
  O  O3  1  0.56333800  0.34323300  0.05819700  1
  O  O4  1  0.06333800  0.55819700  0.84323300  1
  O  O5  1  0.24318100  0.41751400  0.59331000  1
  O  O6  1  0.23525800  0.90621900  0.06913600  1
  O  O7  1  0.41751400  0.59331000  0.24318100  1
  O  O8  1  0.20667900  0.00678800  0.37850200  1
  O  O9  1  0.59331000  0.24318100  0.41751400  1
  O  O10  1  0.09331000  0.91751400  0.74318100  1
  O  O11  1  0.37850200  0.20667900  0.00678800  1
  O  O12  1  0.55819700  0.84323300  0.06333800  1
  O  O13  1  0.90621900  0.06913600  0.23525800  1
  O  O14  1  0.40621900  0.73525800  0.56913600  1
  O  O15  1  0.84323300  0.06333800  0.55819700  1
  O  O16  1  0.56913600  0.40621900  0.73525800  1
  O  O17  1  0.74318100  0.09331000  0.91751400  1
  O  O18  1  0.73525800  0.56913600  0.40621900  1
  O  O19  1  0.00678800  0.37850200  0.20667900  1
  O  O20  1  0.50678800  0.70667900  0.87850200  1
  O  O21  1  0.91751400  0.74318100  0.09331000  1
  O  O22  1  0.70667900  0.87850200  0.50678800  1
  O  O23  1  0.87850200  0.50678800  0.70667900  1
loop_
_geom_bond_atom_site_label_1
_geom_bond_atom_site_label_2
_geom_bond_distance
_geom_bond_site_symmetry_2
Mg0 O2 2.124801 1_665
Mg0 O13 2.124801 1_566
Mg0 O6 2.124801 1_656
Mg0 O21 2.166666 1_556
Mg0 O10 2.166666 1_655
Mg0 O17 2.166666 1_565
Mg1 O18 2.124801 1_555
Mg1 O14 2.124801 1_555
Mg1 O16 2.124801 1_555
Mg1 O5 2.166666 1_555
Mg1 O9 2.166666 1_555
Mg1 O7 2.166666 1_555
Bi0 O1 2.284352 1_555
Bi0 O3 2.284352 1_555
Bi0 O0 2.284352 1_555
Bi0 O7 2.316397 1_555
Bi0 O5 2.316397 1_555
Bi0 O9 2.316397 1_555
Bi1 O15 2.284352 1_565
Bi1 O12 2.284352 1_556
Bi1 O4 2.284352 1_655
Bi1 O10 2.316397 1_655
Bi1 O17 2.316397 1_565
Bi1 O21 2.316397 1_556
O0 P5 1.514407 1_455
O1 P3 1.514407 1_545
O2 P0 1.559343 1_555
O2 Ti0 2.150350 1_556
O3 P4 1.514407 1_554
O4 P0 1.514407 1_555
O5 P0 1.550166 1_555
O6 P1 1.559344 1_555
O6 Ti0 2.150350 1_565
O7 P1 1.550166 1_555
O8 P3 1.601005 1_545
O8 Ti0 1.926002 1_555
O9 P2 1.550166 1_555
O10 P3 1.550166 1_555
O11 P4 1.601005 1_554
O11 Ti0 1.926002 1_555
O12 P1 1.514407 1_555
O13 P2 1.559344 1_555
O13 Ti0 2.150350 1_655
O14 P3 1.559344 1_555
O14 Ti1 2.150350 1_555
O15 P2 1.514407 1_555
O16 P4 1.559343 1_555
O16 Ti1 2.150349 1_555
O17 P4 1.550166 1_555
O18 P5 1.559344 1_555
O18 Ti1 2.150350 1_555
O19 P5 1.601005 1_455
O19 Ti0 1.926003 1_555
O20 P1 1.601005 1_556
O20 Ti1 1.926003 1_555
O21 P5 1.550166 1_555
O22 P2 1.601004 1_565
O22 Ti1 1.926002 1_555
O23 P0 1.601005 1_655
O23 Ti1 1.926003 1_555
