# generated using pymatgen
data_Yb2I2F
_symmetry_space_group_name_H-M   'P 1'
_cell_length_a   3.98106618
_cell_length_b   3.98106618
_cell_length_c   13.93852813
_cell_angle_alpha   90.00000000
_cell_angle_beta   90.00000000
_cell_angle_gamma   90.00000000
_symmetry_Int_Tables_number   1
_chemical_formula_structural   Yb2I2F
_chemical_formula_sum   'Yb2 I2 F1'
_cell_volume   220.91016996
_cell_formula_units_Z   1
loop_
 _symmetry_equiv_pos_site_id
 _symmetry_equiv_pos_as_xyz
  1  'x, y, z'
loop_
 _atom_site_type_symbol
 _atom_site_label
 _atom_site_symmetry_multiplicity
 _atom_site_fract_x
 _atom_site_fract_y
 _atom_site_fract_z
 _atom_site_occupancy
  Yb  Yb0  1  0.50000000  0.50000000  0.15120624  1
  Yb  Yb1  1  0.50000000  0.50000000  0.84879376  1
  I  I0  1  0.50000000  0.50000000  0.65341098  1
  I  I1  1  0.50000000  0.50000000  0.34658902  1
  F  F0  1  0.50000000  0.50000000  0.00000000  1
loop_
_geom_bond_atom_site_label_1
_geom_bond_atom_site_label_2
_geom_bond_distance
_geom_bond_site_symmetry_2
I0 Yb1 2.723348 1_555
I1 Yb0 2.723348 1_555
F0 Yb0 2.107592 1_555
F0 Yb1 2.107592 1_554
