# generated using pymatgen
data_CrO2
_symmetry_space_group_name_H-M   'P 1'
_cell_length_a   5.79378649
_cell_length_b   5.79378649
_cell_length_c   5.79378573
_cell_angle_alpha   61.07436480
_cell_angle_beta   61.07436480
_cell_angle_gamma   61.07436626
_symmetry_Int_Tables_number   1
_chemical_formula_structural   CrO2
_chemical_formula_sum   'Cr4 O8'
_cell_volume   140.84841859
_cell_formula_units_Z   4
loop_
 _symmetry_equiv_pos_site_id
 _symmetry_equiv_pos_as_xyz
  1  'x, y, z'
loop_
 _atom_site_type_symbol
 _atom_site_label
 _atom_site_symmetry_multiplicity
 _atom_site_fract_x
 _atom_site_fract_y
 _atom_site_fract_z
 _atom_site_occupancy
  Cr  Cr0  1  0.24498600  0.24498600  0.24498600  1
  Cr  Cr1  1  0.63097100  0.10538800  0.63097100  1
  Cr  Cr2  1  0.63097100  0.63097100  0.10538800  1
  Cr  Cr3  1  0.10538800  0.63097100  0.63097100  1
  O  O0  1  0.86504500  0.36586900  0.36586900  1
  O  O1  1  0.36586900  0.36586900  0.86504500  1
  O  O2  1  0.36586900  0.86504500  0.36586900  1
  O  O3  1  0.37877100  0.37877100  0.37877100  1
  O  O4  1  0.86499700  0.86499700  0.86499700  1
  O  O5  1  0.87556300  0.41855900  0.87556300  1
  O  O6  1  0.87556300  0.87556300  0.41855900  1
  O  O7  1  0.41855900  0.87556300  0.87556300  1
loop_
_geom_bond_atom_site_label_1
_geom_bond_atom_site_label_2
_geom_bond_distance
_geom_bond_site_symmetry_2
Cr0 O1 1.821670 1_554
Cr0 O2 1.821670 1_545
Cr0 O0 1.821670 1_455
Cr0 O3 1.883090 1_555
Cr1 O6 1.835373 1_545
Cr1 O7 1.835373 1_545
Cr1 O4 1.934313 1_545
Cr1 O1 2.049023 1_555
Cr1 O0 2.049023 1_555
Cr1 O3 2.089655 1_555
Cr2 O7 1.835373 1_554
Cr2 O5 1.835373 1_554
Cr2 O4 1.934313 1_554
Cr2 O0 2.049023 1_555
Cr2 O2 2.049023 1_555
Cr2 O3 2.089655 1_555
Cr3 O6 1.835373 1_455
Cr3 O5 1.835373 1_455
Cr3 O4 1.934313 1_455
Cr3 O1 2.049023 1_555
Cr3 O2 2.049023 1_555
Cr3 O3 2.089655 1_555
