# generated using pymatgen
data_K2MnSO4F3
_symmetry_space_group_name_H-M   'P 1'
_cell_length_a   7.45957000
_cell_length_b   8.53063300
_cell_length_c   10.98786500
_cell_angle_alpha   90.00000000
_cell_angle_beta   90.00000000
_cell_angle_gamma   90.00000000
_symmetry_Int_Tables_number   1
_chemical_formula_structural   K2MnSO4F3
_chemical_formula_sum   'K8 Mn4 S4 O16 F12'
_cell_volume   699.21118513
_cell_formula_units_Z   4
loop_
 _symmetry_equiv_pos_site_id
 _symmetry_equiv_pos_as_xyz
  1  'x, y, z'
loop_
 _atom_site_type_symbol
 _atom_site_label
 _atom_site_symmetry_multiplicity
 _atom_site_fract_x
 _atom_site_fract_y
 _atom_site_fract_z
 _atom_site_occupancy
  K  K0  1  0.81177300  0.66972500  0.19102600  1
  K  K1  1  0.81177300  0.16972500  0.30897400  1
  K  K2  1  0.31177300  0.83027500  0.30897400  1
  K  K3  1  0.68822700  0.66972500  0.80897400  1
  K  K4  1  0.68822700  0.16972500  0.69102600  1
  K  K5  1  0.31177300  0.33027500  0.19102600  1
  K  K6  1  0.18822700  0.33027500  0.80897400  1
  K  K7  1  0.18822700  0.83027500  0.69102600  1
  Mn  Mn0  1  0.50000000  0.50000000  0.50000000  1
  Mn  Mn1  1  0.50000000  0.00000000  0.00000000  1
  Mn  Mn2  1  0.00000000  0.50000000  0.50000000  1
  Mn  Mn3  1  0.00000000  0.00000000  0.00000000  1
  S  S0  1  0.25000000  0.19239400  0.50000000  1
  S  S1  1  0.75000000  0.30760600  0.00000000  1
  S  S2  1  0.75000000  0.80760600  0.50000000  1
  S  S3  1  0.25000000  0.69239400  0.00000000  1
  O  O0  1  0.33355800  0.09856200  0.59640900  1
  O  O1  1  0.83355800  0.40143800  0.90359100  1
  O  O2  1  0.16644200  0.09856200  0.40359100  1
  O  O3  1  0.66644200  0.40143800  0.09640900  1
  O  O4  1  0.66644200  0.90143800  0.40359100  1
  O  O5  1  0.16644200  0.59856200  0.09640900  1
  O  O6  1  0.83355800  0.90143800  0.59640900  1
  O  O7  1  0.33355800  0.59856200  0.90359100  1
  O  O8  1  0.38864100  0.29737600  0.43914400  1
  O  O9  1  0.88864100  0.20262400  0.06085600  1
  O  O10  1  0.11135900  0.29737600  0.56085600  1
  O  O11  1  0.61135900  0.20262400  0.93914400  1
  O  O12  1  0.11135900  0.79737600  0.93914400  1
  O  O13  1  0.88864100  0.70262400  0.43914400  1
  O  O14  1  0.61135900  0.70262400  0.56085600  1
  O  O15  1  0.38864100  0.79737600  0.06085600  1
  F  F0  1  0.47527300  0.94187800  0.83706200  1
  F  F1  1  0.97527300  0.55812200  0.66293800  1
  F  F2  1  0.02472700  0.94187800  0.16293800  1
  F  F3  1  0.52472700  0.55812200  0.33706200  1
  F  F4  1  0.75000000  0.88215400  0.00000000  1
  F  F5  1  0.25000000  0.61784600  0.50000000  1
  F  F6  1  0.25000000  0.11784600  0.00000000  1
  F  F7  1  0.75000000  0.38215400  0.50000000  1
  F  F8  1  0.97527300  0.05812200  0.83706200  1
  F  F9  1  0.52472700  0.05812200  0.16293800  1
  F  F10  1  0.02472700  0.44187800  0.33706200  1
  F  F11  1  0.47527300  0.44187800  0.66293800  1
loop_
_geom_bond_atom_site_label_1
_geom_bond_atom_site_label_2
_geom_bond_distance
_geom_bond_site_symmetry_2
K0 O3 2.737534 1_555
K0 O13 2.800035 1_555
K0 O5 2.906715 1_655
K0 O4 3.246176 1_555
K1 O4 2.737534 1_545
K1 O9 2.800035 1_555
K1 O2 2.906715 1_655
K1 O3 3.246176 1_555
K2 O2 2.737534 1_565
K2 O15 2.800035 1_555
K2 O4 2.906715 1_555
K2 O5 3.246176 1_555
K3 O1 2.737534 1_555
K3 O14 2.800035 1_555
K3 O7 2.906715 1_555
K3 O6 3.246176 1_555
K4 O6 2.737534 1_545
K4 O11 2.800035 1_555
K4 O0 2.906715 1_555
K4 O1 3.246176 1_555
K5 O5 2.737534 1_555
K5 O8 2.800035 1_555
K5 O3 2.906715 1_555
K5 O2 3.246176 1_555
K6 O7 2.737534 1_555
K6 O10 2.800035 1_555
K6 O1 2.906715 1_455
K6 O0 3.246176 1_555
K7 O0 2.737534 1_565
K7 O12 2.800035 1_555
K7 O6 2.906715 1_455
K7 O7 3.246176 1_555
Mn0 O14 2.030991 1_555
Mn0 O8 2.030991 1_555
Mn1 O11 2.030991 1_554
Mn1 O15 2.030991 1_545
Mn2 O13 2.030991 1_455
Mn2 O10 2.030991 1_555
Mn3 O9 2.030991 1_455
Mn3 O12 2.030991 1_544
O0 S0 1.466766 1_555
O1 S1 1.466766 1_556
O2 S0 1.466766 1_555
O3 S1 1.466766 1_555
O4 S2 1.466766 1_555
O5 S3 1.466766 1_555
O6 S2 1.466766 1_555
O7 S3 1.466766 1_556
O8 S0 1.522740 1_555
O9 S1 1.522740 1_555
O10 S0 1.522740 1_555
O11 S1 1.522740 1_556
O12 S3 1.522740 1_556
O13 S2 1.522740 1_555
O14 S2 1.522740 1_555
O15 S3 1.522740 1_555
F0 Mn1 1.866863 1_566
F0 K3 2.829969 1_555
F0 K7 2.840090 1_555
F0 K4 2.979292 1_565
F1 Mn2 1.866863 1_655
F1 K7 2.829969 1_655
F1 K3 2.840090 1_555
F1 K6 2.979292 1_655
F2 Mn3 1.866863 1_565
F2 K0 2.829969 1_455
F2 K2 2.840090 1_555
F2 K1 2.979292 1_465
F3 Mn0 1.866863 1_555
F3 K2 2.829969 1_555
F3 K0 2.840090 1_555
F3 K5 2.979292 1_555
F4 Mn3 2.118597 1_665
F4 Mn1 2.118597 1_565
F4 K0 2.811033 1_555
F4 K3 2.811033 1_554
F5 Mn0 2.118597 1_555
F5 Mn2 2.118597 1_555
F5 K7 2.811033 1_555
F5 K2 2.811033 1_555
F6 Mn3 2.118597 1_555
F6 Mn1 2.118597 1_555
F6 K5 2.811033 1_555
F6 K6 2.811033 1_554
F7 Mn0 2.118597 1_555
F7 Mn2 2.118597 1_655
F7 K4 2.811033 1_555
F7 K1 2.811033 1_555
F8 Mn3 1.866863 1_656
F8 K6 2.829969 1_655
F8 K4 2.840090 1_555
F8 K7 2.979292 1_645
F9 Mn1 1.866863 1_555
F9 K5 2.829969 1_555
F9 K1 2.840090 1_555
F9 K2 2.979292 1_545
F10 Mn2 1.866863 1_555
F10 K1 2.829969 1_455
F10 K5 2.840090 1_555
F10 K0 2.979292 1_455
F11 Mn0 1.866863 1_555
F11 K4 2.829969 1_555
F11 K6 2.840090 1_555
F11 K3 2.979292 1_555
