# generated using pymatgen
data_CaAl2Si4O15
_symmetry_space_group_name_H-M   'P 1'
_cell_length_a   7.62610100
_cell_length_b   10.04957625
_cell_length_c   10.08724174
_cell_angle_alpha   83.37833071
_cell_angle_beta   74.90626519
_cell_angle_gamma   74.81331704
_symmetry_Int_Tables_number   1
_chemical_formula_structural   CaAl2Si4O15
_chemical_formula_sum   'Ca2 Al4 Si8 O30'
_cell_volume   719.41944132
_cell_formula_units_Z   2
loop_
 _symmetry_equiv_pos_site_id
 _symmetry_equiv_pos_as_xyz
  1  'x, y, z'
loop_
 _atom_site_type_symbol
 _atom_site_label
 _atom_site_symmetry_multiplicity
 _atom_site_fract_x
 _atom_site_fract_y
 _atom_site_fract_z
 _atom_site_occupancy
  Ca  Ca0  1  0.26589400  0.73947900  0.74046300  1
  Ca  Ca1  1  0.73410600  0.26052100  0.25953700  1
  Al  Al0  1  0.26411900  0.43071400  0.82243600  1
  Al  Al1  1  0.26388800  0.82225400  0.43186900  1
  Al  Al2  1  0.73588100  0.56928600  0.17756400  1
  Al  Al3  1  0.73611200  0.17774600  0.56813100  1
  Si  Si0  1  0.67514500  0.46436100  0.70004400  1
  Si  Si1  1  0.67427300  0.69894400  0.46513800  1
  Si  Si2  1  0.32485500  0.53563900  0.29995600  1
  Si  Si3  1  0.32572700  0.30105600  0.53486200  1
  Si  Si4  1  0.84887200  0.62161800  0.85584200  1
  Si  Si5  1  0.84945100  0.85414900  0.62154100  1
  Si  Si6  1  0.15112800  0.37838200  0.14415800  1
  Si  Si7  1  0.15054900  0.14585100  0.37845900  1
  O  O0  1  0.72851400  0.55355200  0.55478000  1
  O  O1  1  0.27148600  0.44644800  0.44522000  1
  O  O2  1  0.78956400  0.49378900  0.80622600  1
  O  O3  1  0.79018400  0.80432300  0.49429600  1
  O  O4  1  0.21043600  0.50621100  0.19377400  1
  O  O5  1  0.20981600  0.19567700  0.50570400  1
  O  O6  1  0.27720900  0.32379000  0.69596500  1
  O  O7  1  0.27331800  0.69773600  0.32416400  1
  O  O8  1  0.72279100  0.67621000  0.30403500  1
  O  O9  1  0.72668200  0.30226400  0.67583600  1
  O  O10  1  0.07911400  0.58588900  0.82653100  1
  O  O11  1  0.07914600  0.82692000  0.58623700  1
  O  O12  1  0.92088600  0.41411100  0.17346900  1
  O  O13  1  0.92085400  0.17308000  0.41376300  1
  O  O14  1  0.75196300  0.65016400  0.01493400  1
  O  O15  1  0.75004600  0.01458100  0.64873400  1
  O  O16  1  0.24803700  0.34983600  0.98506600  1
  O  O17  1  0.24995400  0.98541900  0.35126600  1
  O  O18  1  0.78239600  0.76392400  0.76388200  1
  O  O19  1  0.21760400  0.23607600  0.23611800  1
  O  O20  1  0.44817800  0.52101800  0.76740900  1
  O  O21  1  0.44753700  0.76711500  0.52221100  1
  O  O22  1  0.55182200  0.47898200  0.23259100  1
  O  O23  1  0.55246300  0.23288500  0.47778900  1
  O  O24  1  0.38267200  0.94144200  0.90697900  1
  O  O25  1  0.61732800  0.05855800  0.09302100  1
  O  O26  1  0.64567700  0.18083100  0.05102200  1
  O  O27  1  0.64481000  0.01352600  0.21268800  1
  O  O28  1  0.35432300  0.81916900  0.94897800  1
  O  O29  1  0.35519000  0.98647400  0.78731200  1
loop_
_geom_bond_atom_site_label_1
_geom_bond_atom_site_label_2
_geom_bond_distance
_geom_bond_site_symmetry_2
Ca0 O20 2.299224 1_555
Ca0 O21 2.305462 1_555
Ca0 O10 2.316014 1_555
Ca0 O11 2.324559 1_555
Ca0 O28 2.632552 1_555
Ca0 O29 2.858688 1_555
Ca1 O22 2.299224 1_555
Ca1 O23 2.305462 1_555
Ca1 O12 2.316014 1_555
Ca1 O13 2.324559 1_555
Ca1 O26 2.632552 1_555
Ca1 O27 2.858688 1_555
Al0 O6 1.727932 1_555
Al0 O16 1.734014 1_555
Al0 O20 1.802052 1_555
Al0 O10 1.804407 1_555
Al1 O7 1.725435 1_555
Al1 O17 1.734168 1_555
Al1 O21 1.800174 1_555
Al1 O11 1.803190 1_555
Al2 O8 1.727932 1_555
Al2 O14 1.734014 1_555
Al2 O22 1.802052 1_555
Al2 O12 1.804407 1_555
Al3 O9 1.725435 1_555
Al3 O15 1.734168 1_555
Al3 O23 1.800174 1_555
Al3 O13 1.803190 1_555
O0 Si0 1.641290 1_555
O0 Si1 1.642280 1_555
O1 Si2 1.641290 1_555
O1 Si3 1.642280 1_555
O2 Si4 1.635820 1_555
O2 Si0 1.640443 1_555
O3 Si5 1.634457 1_555
O3 Si1 1.639232 1_555
O4 Si6 1.635820 1_555
O4 Si2 1.640443 1_555
O5 Si7 1.634457 1_555
O5 Si3 1.639232 1_555
O6 Si3 1.599434 1_555
O7 Si2 1.604393 1_555
O8 Si1 1.599434 1_555
O9 Si0 1.604393 1_555
O10 Si4 1.650196 1_455
O11 Si5 1.648192 1_455
O12 Si6 1.650196 1_655
O13 Si7 1.648192 1_655
O14 Si4 1.606637 1_554
O15 Si5 1.613283 1_545
O16 Si6 1.606637 1_556
O17 Si7 1.613283 1_565
O18 Si5 1.644851 1_555
O18 Si4 1.649796 1_555
O19 Si7 1.644851 1_555
O19 Si6 1.649796 1_555
O20 Si0 1.655961 1_555
O21 Si1 1.656048 1_555
O22 Si2 1.655961 1_555
O23 Si3 1.656048 1_555
O24 O29 1.289154 1_555
O24 O28 1.306743 1_555
O25 O27 1.289154 1_555
O25 O26 1.306743 1_555
