# generated using pymatgen
data_SrCa7Mn6Al2O20
_symmetry_space_group_name_H-M   'P 1'
_cell_length_a   7.76141260
_cell_length_b   7.75122159
_cell_length_c   7.64806146
_cell_angle_alpha   89.98339144
_cell_angle_beta   90.23763300
_cell_angle_gamma   89.70127937
_symmetry_Int_Tables_number   1
_chemical_formula_structural   SrCa7Mn6Al2O20
_chemical_formula_sum   'Sr1 Ca7 Mn6 Al2 O20'
_cell_volume   460.10042504
_cell_formula_units_Z   1
loop_
 _symmetry_equiv_pos_site_id
 _symmetry_equiv_pos_as_xyz
  1  'x, y, z'
loop_
 _atom_site_type_symbol
 _atom_site_label
 _atom_site_symmetry_multiplicity
 _atom_site_fract_x
 _atom_site_fract_y
 _atom_site_fract_z
 _atom_site_occupancy
  Sr  Sr0  1  0.26985600  0.25957900  0.23860900  1
  Ca  Ca0  1  0.20522500  0.24024800  0.74143000  1
  Ca  Ca1  1  0.30577900  0.74056800  0.22310400  1
  Ca  Ca2  1  0.21154800  0.74905700  0.73674100  1
  Ca  Ca3  1  0.75310100  0.26503900  0.24609500  1
  Ca  Ca4  1  0.74458900  0.26342300  0.73655300  1
  Ca  Ca5  1  0.75869000  0.74414700  0.24090400  1
  Ca  Ca6  1  0.73571100  0.73669300  0.74067800  1
  Mn  Mn0  1  0.98963800  0.50298400  0.97735900  1
  Mn  Mn1  1  0.98356100  0.50662900  0.48543600  1
  Mn  Mn2  1  0.50741700  0.99947300  0.99028400  1
  Mn  Mn3  1  0.48713700  0.99828600  0.52438800  1
  Mn  Mn4  1  0.50594400  0.49845600  0.99480900  1
  Mn  Mn5  1  0.48649900  0.50414400  0.49433500  1
  Al  Al0  1  0.02064400  0.99532400  0.01442200  1
  Al  Al1  1  0.00494300  0.99748200  0.46425900  1
  O  O0  1  0.94384800  0.49518800  0.23068200  1
  O  O1  1  0.04404500  0.49768300  0.72900700  1
  O  O2  1  0.53150200  0.98144400  0.26434000  1
  O  O3  1  0.59998400  0.00664900  0.75398500  1
  O  O4  1  0.53528400  0.51399700  0.24654500  1
  O  O5  1  0.24635000  0.99217000  0.98982400  1
  O  O6  1  0.21865800  0.99571700  0.54709500  1
  O  O7  1  0.25187500  0.50540600  0.00342100  1
  O  O8  1  0.23566400  0.52321000  0.44066700  1
  O  O9  1  0.96600100  0.00074000  0.23706300  1
  O  O10  1  0.73875900  0.49590300  0.92726700  1
  O  O11  1  0.72769200  0.49590600  0.53509400  1
  O  O12  1  0.96284700  0.20091600  0.93621900  1
  O  O13  1  0.93380600  0.20723800  0.51446100  1
  O  O14  1  0.95431000  0.79210500  0.94192100  1
  O  O15  1  0.92021300  0.79516800  0.51666000  1
  O  O16  1  0.51484100  0.24782800  0.00884400  1
  O  O17  1  0.46387400  0.25650600  0.53454200  1
  O  O18  1  0.51396800  0.74959100  0.98722400  1
  O  O19  1  0.47619500  0.74510500  0.55573300  1
loop_
_geom_bond_atom_site_label_1
_geom_bond_atom_site_label_2
_geom_bond_distance
_geom_bond_site_symmetry_2
Ca0 O1 2.351304 1_555
Ca0 O6 2.411093 1_545
Ca0 O12 2.424910 1_455
Ca0 O17 2.564836 1_555
Ca0 O5 2.719355 1_545
Ca0 O13 2.737154 1_455
Ca0 O7 2.893853 1_556
Ca1 O18 2.428090 1_554
Ca1 O8 2.432856 1_555
Ca1 O4 2.500781 1_555
Ca1 O7 2.514837 1_555
Ca1 O2 2.585456 1_555
Ca1 O5 2.679749 1_554
Ca1 O19 2.862706 1_555
Ca2 O1 2.348611 1_555
Ca2 O6 2.400491 1_555
Ca2 O19 2.481815 1_555
Ca2 O14 2.565014 1_455
Ca2 O5 2.715441 1_555
Ca2 O7 2.794810 1_556
Ca2 O15 2.834331 1_455
Ca2 O8 2.868705 1_555
Ca2 O18 3.023598 1_555
Ca3 O0 2.327438 1_555
Ca3 O13 2.519825 1_555
Ca3 O4 2.558890 1_555
Ca3 O16 2.589361 1_555
Ca3 O9 2.626380 1_555
Ca3 O2 2.801955 1_545
Ca3 O11 2.851102 1_555
Ca3 O12 2.922002 1_554
Ca4 O13 2.290420 1_555
Ca4 O3 2.294154 1_555
Ca4 O10 2.319047 1_555
Ca4 O12 2.325040 1_555
Ca4 O11 2.373336 1_555
Ca4 O17 2.666486 1_555
Ca4 O16 2.750274 1_556
Ca4 O1 2.957606 1_655
Ca5 O0 2.401524 1_555
Ca5 O15 2.481860 1_555
Ca5 O4 2.494738 1_555
Ca5 O2 2.548240 1_555
Ca5 O9 2.565018 1_565
Ca5 O18 2.709655 1_554
Ca5 O14 2.776022 1_554
Ca6 O15 2.284322 1_555
Ca6 O14 2.327717 1_555
Ca6 O3 2.340217 1_565
Ca6 O10 2.349094 1_555
Ca6 O11 2.441636 1_555
Ca6 O19 2.457024 1_555
Ca6 O18 2.559822 1_555
Mn0 O1 1.947893 1_655
Mn0 O0 1.972171 1_556
Mn0 O10 1.983989 1_555
Mn0 O7 2.044428 1_656
Mn0 O14 2.272340 1_555
Mn0 O12 2.372621 1_555
Mn1 O1 1.920341 1_655
Mn1 O0 1.973432 1_555
Mn1 O8 1.992608 1_655
Mn1 O11 2.025568 1_555
Mn1 O15 2.300141 1_555
Mn1 O13 2.365071 1_555
Mn2 O16 1.931464 1_566
Mn2 O18 1.937444 1_555
Mn2 O3 1.948454 1_565
Mn2 O5 2.027323 1_555
Mn2 O2 2.108076 1_556
Mn3 O3 1.960270 1_565
Mn3 O19 1.979286 1_555
Mn3 O17 2.010262 1_565
Mn3 O2 2.023993 1_555
Mn3 O6 2.091916 1_555
Mn4 O10 1.881425 1_555
Mn4 O4 1.941624 1_556
Mn4 O16 1.946455 1_556
Mn4 O18 1.948778 1_555
Mn4 O7 1.973762 1_556
Mn5 O11 1.897243 1_555
Mn5 O19 1.927335 1_555
Mn5 O4 1.935672 1_555
Mn5 O17 1.952815 1_555
Mn5 O8 1.992690 1_555
Al0 O14 1.749389 1_454
Al0 O9 1.756960 1_465
Al0 O12 1.757342 1_464
Al0 O5 1.762689 1_554
Al1 O15 1.750671 1_455
Al1 O13 1.757400 1_465
Al1 O9 1.762615 1_465
Al1 O6 1.773128 1_555
O0 Sr0 3.113150 1_655
O2 Sr0 2.959945 1_565
O4 Sr0 2.859730 1_555
O5 Sr0 2.820154 1_566
O6 Sr0 3.149731 1_565
O7 Sr0 2.622756 1_555
O8 Sr0 2.575627 1_555
O9 Sr0 3.104249 1_655
O16 Sr0 2.595705 1_555
O17 Sr0 2.713315 1_555
