# generated using pymatgen
data_Sr2Mg
_symmetry_space_group_name_H-M   'P 1'
_cell_length_a   14.22447603
_cell_length_b   14.22447603
_cell_length_c   20.52098449
_cell_angle_alpha   68.36515005
_cell_angle_beta   68.36515005
_cell_angle_gamma   32.75282622
_symmetry_Int_Tables_number   1
_chemical_formula_structural   Sr2Mg
_chemical_formula_sum   'Sr32 Mg16'
_cell_volume   2073.88362183
_cell_formula_units_Z   16
loop_
 _symmetry_equiv_pos_site_id
 _symmetry_equiv_pos_as_xyz
  1  'x, y, z'
loop_
 _atom_site_type_symbol
 _atom_site_label
 _atom_site_symmetry_multiplicity
 _atom_site_fract_x
 _atom_site_fract_y
 _atom_site_fract_z
 _atom_site_occupancy
  Sr  Sr0_0  1  0.08253561  0.08253561  0.44456126  1
  Sr  Sr0_1  1  0.08253561  0.08253561  0.94456126  1
  Sr  Sr0_2  1  0.08253561  0.58253561  0.44456126  1
  Sr  Sr0_3  1  0.08253561  0.58253561  0.94456127  1
  Sr  Sr0_4  1  0.58253561  0.08253561  0.44456126  1
  Sr  Sr0_5  1  0.58253561  0.08253561  0.94456127  1
  Sr  Sr0_6  1  0.58253561  0.58253561  0.44456126  1
  Sr  Sr0_7  1  0.58253561  0.58253561  0.94456126  1
  Sr  Sr1_0  1  0.24200882  0.24200882  0.34860581  1
  Sr  Sr1_1  1  0.24200882  0.24200882  0.84860581  1
  Sr  Sr1_2  1  0.24200883  0.74200883  0.34860581  1
  Sr  Sr1_3  1  0.24200883  0.74200883  0.84860581  1
  Sr  Sr1_4  1  0.74200883  0.24200883  0.34860581  1
  Sr  Sr1_5  1  0.74200883  0.24200883  0.84860581  1
  Sr  Sr1_6  1  0.74200883  0.74200883  0.34860581  1
  Sr  Sr1_7  1  0.74200883  0.74200883  0.84860581  1
  Sr  Sr2_0  1  0.25799118  0.25799118  0.15139419  1
  Sr  Sr2_1  1  0.25799118  0.25799118  0.65139419  1
  Sr  Sr2_2  1  0.25799118  0.75799118  0.15139419  1
  Sr  Sr2_3  1  0.25799118  0.75799118  0.65139419  1
  Sr  Sr2_4  1  0.75799118  0.25799118  0.15139419  1
  Sr  Sr2_5  1  0.75799118  0.25799118  0.65139419  1
  Sr  Sr2_6  1  0.75799118  0.75799117  0.15139419  1
  Sr  Sr2_7  1  0.75799118  0.75799118  0.65139419  1
  Sr  Sr3_0  1  0.41746439  0.41746439  0.05543873  1
  Sr  Sr3_1  1  0.41746439  0.41746439  0.55543873  1
  Sr  Sr3_2  1  0.41746439  0.91746439  0.05543874  1
  Sr  Sr3_3  1  0.41746439  0.91746439  0.55543873  1
  Sr  Sr3_4  1  0.91746439  0.41746439  0.05543874  1
  Sr  Sr3_5  1  0.91746439  0.41746439  0.55543873  1
  Sr  Sr3_6  1  0.91746439  0.91746439  0.05543873  1
  Sr  Sr3_7  1  0.91746439  0.91746439  0.55543873  1
  Mg  Mg0_0  1  0.40283866  0.40283866  0.28433423  1
  Mg  Mg0_1  1  0.40283866  0.40283866  0.78433423  1
  Mg  Mg0_2  1  0.40283867  0.90283867  0.28433423  1
  Mg  Mg0_3  1  0.40283867  0.90283866  0.78433423  1
  Mg  Mg0_4  1  0.90283867  0.40283867  0.28433423  1
  Mg  Mg0_5  1  0.90283866  0.40283867  0.78433423  1
  Mg  Mg0_6  1  0.90283867  0.90283867  0.28433423  1
  Mg  Mg0_7  1  0.90283866  0.90283866  0.78433423  1
  Mg  Mg1_0  1  0.09716134  0.09716134  0.21566577  1
  Mg  Mg1_1  1  0.09716134  0.09716134  0.71566577  1
  Mg  Mg1_2  1  0.09716134  0.59716134  0.21566577  1
  Mg  Mg1_3  1  0.09716134  0.59716134  0.71566577  1
  Mg  Mg1_4  1  0.59716134  0.09716134  0.21566577  1
  Mg  Mg1_5  1  0.59716134  0.09716134  0.71566577  1
  Mg  Mg1_6  1  0.59716134  0.59716134  0.21566577  1
  Mg  Mg1_7  1  0.59716134  0.59716134  0.71566577  1
loop_
_geom_bond_atom_site_label_1
_geom_bond_atom_site_label_2
_geom_bond_distance
_geom_bond_site_symmetry_2
Sr0_0 Sr0_6 4.010541 1_545
Sr0_0 Sr0_6 4.010541 1_455
Sr0_0 Sr1_0 4.029481 1_555
Sr0_0 Sr3_7 4.195038 1_445
Sr0_0 Sr1_2 4.212275 1_545
Sr0_0 Sr1_4 4.212275 1_455
Sr0_0 Sr3_3 4.315731 1_545
Sr0_0 Sr3_5 4.315731 1_455
Sr0_0 Sr2_3 4.420269 1_545
Sr0_0 Sr2_5 4.420269 1_455
Sr0_1 Sr0_7 4.010541 1_455
Sr0_1 Sr0_7 4.010541 1_545
Sr0_1 Sr1_1 4.029481 1_555
Sr0_1 Sr3_6 4.195038 1_446
Sr0_1 Sr1_3 4.212275 1_545
Sr0_1 Sr1_5 4.212275 1_455
Sr0_1 Sr3_2 4.315731 1_546
Sr0_1 Sr3_4 4.315731 1_456
Sr0_1 Sr2_2 4.420269 1_546
Sr0_1 Sr2_4 4.420269 1_456
Sr0_2 Sr0_4 4.010541 1_465
Sr0_2 Sr0_4 4.010541 1_555
Sr0_2 Sr1_2 4.029481 1_555
Sr0_2 Sr3_5 4.195038 1_455
Sr0_2 Sr1_6 4.212275 1_455
Sr0_2 Sr1_0 4.212275 1_555
Sr0_2 Sr3_7 4.315731 1_455
Sr0_2 Sr3_1 4.315731 1_555
Sr0_2 Sr2_7 4.420269 1_455
Sr0_2 Sr2_1 4.420269 1_555
Sr0_3 Sr0_5 4.010541 1_465
Sr0_3 Sr0_5 4.010541 1_555
Sr0_3 Sr1_3 4.029481 1_555
Sr0_3 Sr3_4 4.195038 1_456
Sr0_3 Sr1_7 4.212275 1_455
Sr0_3 Sr1_1 4.212275 1_555
Sr0_3 Sr3_0 4.315731 1_556
Sr0_3 Sr3_6 4.315731 1_456
Sr0_3 Sr2_6 4.420269 1_456
Sr0_3 Sr2_0 4.420269 1_556
Sr0_4 Sr1_4 4.029481 1_555
Sr0_4 Sr3_3 4.195038 1_545
Sr0_4 Sr1_6 4.212275 1_545
Sr0_4 Sr1_0 4.212275 1_555
Sr0_4 Sr3_1 4.315731 1_555
Sr0_4 Sr3_7 4.315731 1_545
Sr0_4 Sr2_1 4.420269 1_555
Sr0_4 Sr2_7 4.420269 1_545
Sr0_5 Sr1_5 4.029481 1_555
Sr0_5 Sr3_2 4.195038 1_546
Sr0_5 Sr1_7 4.212275 1_545
Sr0_5 Sr1_1 4.212275 1_555
Sr0_5 Sr3_0 4.315731 1_556
Sr0_5 Sr3_6 4.315731 1_546
Sr0_5 Sr2_0 4.420269 1_556
Sr0_5 Sr2_6 4.420269 1_546
Sr0_6 Sr1_6 4.029481 1_555
Sr0_6 Sr3_1 4.195038 1_555
Sr0_6 Sr1_4 4.212275 1_555
Sr0_6 Sr1_2 4.212275 1_555
Sr0_6 Sr3_5 4.315731 1_555
Sr0_6 Sr3_3 4.315731 1_555
Sr0_6 Sr2_3 4.420269 1_555
Sr0_6 Sr2_5 4.420269 1_555
Sr0_7 Sr1_7 4.029481 1_555
Sr0_7 Sr3_0 4.195038 1_556
Sr0_7 Sr1_3 4.212275 1_555
Sr0_7 Sr1_5 4.212275 1_555
Sr0_7 Sr3_2 4.315731 1_556
Sr0_7 Sr3_4 4.315731 1_556
Sr0_7 Sr2_4 4.420269 1_556
Sr0_7 Sr2_2 4.420269 1_556
Sr1_0 Sr2_0 3.900190 1_555
Sr1_0 Sr1_6 4.010541 1_545
Sr1_0 Sr1_6 4.010541 1_455
Sr1_0 Sr3_5 4.420269 1_455
Sr1_0 Sr3_3 4.420269 1_545
Sr1_1 Sr2_1 3.900190 1_555
Sr1_1 Sr1_7 4.010541 1_545
Sr1_1 Sr1_7 4.010541 1_455
Sr1_1 Sr3_2 4.420269 1_546
Sr1_1 Sr3_4 4.420269 1_456
Sr1_2 Sr2_2 3.900190 1_555
Sr1_2 Sr1_4 4.010541 1_465
Sr1_2 Sr1_4 4.010541 1_555
Sr1_2 Sr3_7 4.420269 1_455
Sr1_2 Sr3_1 4.420269 1_555
Sr1_3 Sr2_3 3.900190 1_555
Sr1_3 Sr1_5 4.010541 1_555
Sr1_3 Sr1_5 4.010541 1_465
Sr1_3 Sr3_0 4.420269 1_556
Sr1_3 Sr3_6 4.420269 1_456
Sr1_4 Sr2_4 3.900190 1_555
Sr1_4 Sr3_1 4.420269 1_555
Sr1_4 Sr3_7 4.420269 1_545
Sr1_5 Sr2_5 3.900190 1_555
Sr1_5 Sr3_0 4.420269 1_556
Sr1_5 Sr3_6 4.420269 1_546
Sr1_6 Sr2_6 3.900190 1_555
Sr1_6 Sr3_3 4.420269 1_555
Sr1_6 Sr3_5 4.420269 1_555
Sr1_7 Sr2_7 3.900190 1_555
Sr1_7 Sr3_2 4.420269 1_556
Sr1_7 Sr3_4 4.420269 1_556
Sr2_0 Sr2_6 4.010541 1_455
Sr2_0 Sr2_6 4.010541 1_545
Sr2_0 Sr3_0 4.029481 1_555
Sr2_0 Sr3_4 4.212275 1_455
Sr2_0 Sr3_2 4.212275 1_545
Sr2_1 Sr2_7 4.010541 1_455
Sr2_1 Sr2_7 4.010541 1_545
Sr2_1 Sr3_1 4.029481 1_555
Sr2_1 Sr3_3 4.212275 1_545
Sr2_1 Sr3_5 4.212275 1_455
Sr2_2 Sr2_4 4.010541 1_465
Sr2_2 Sr2_4 4.010541 1_555
Sr2_2 Sr3_2 4.029481 1_555
Sr2_2 Sr3_0 4.212275 1_555
Sr2_2 Sr3_6 4.212275 1_455
Sr2_3 Sr2_5 4.010541 1_465
Sr2_3 Sr2_5 4.010541 1_555
Sr2_3 Sr3_3 4.029481 1_555
Sr2_3 Sr3_7 4.212275 1_455
Sr2_3 Sr3_1 4.212275 1_555
Sr2_4 Sr3_4 4.029481 1_555
Sr2_4 Sr3_0 4.212275 1_555
Sr2_4 Sr3_6 4.212275 1_545
Sr2_5 Sr3_5 4.029481 1_555
Sr2_5 Sr3_1 4.212275 1_555
Sr2_5 Sr3_7 4.212275 1_545
Sr2_6 Sr3_6 4.029481 1_555
Sr2_6 Sr3_2 4.212275 1_555
Sr2_6 Sr3_4 4.212275 1_555
Sr2_7 Sr3_7 4.029481 1_555
Sr2_7 Sr3_5 4.212275 1_555
Sr2_7 Sr3_3 4.212275 1_555
Sr3_0 Sr3_6 4.010541 1_545
Sr3_0 Sr3_6 4.010541 1_455
Sr3_1 Sr3_7 4.010541 1_455
Sr3_1 Sr3_7 4.010541 1_545
Sr3_2 Sr3_4 4.010541 1_555
Sr3_2 Sr3_4 4.010541 1_465
Sr3_3 Sr3_5 4.010541 1_555
Sr3_3 Sr3_5 4.010541 1_465
Mg0_0 Mg1_2 3.156286 1_555
Mg0_0 Mg1_4 3.156286 1_555
Mg0_0 Sr0_2 3.696649 1_555
Mg0_0 Sr0_4 3.696649 1_555
Mg0_0 Sr2_4 3.699091 1_555
Mg0_0 Sr2_2 3.699091 1_555
Mg0_0 Sr1_2 3.761857 1_555
Mg0_0 Sr1_4 3.761857 1_555
Mg0_0 Sr1_0 4.069424 1_555
Mg0_1 Mg1_3 3.156286 1_555
Mg0_1 Mg1_5 3.156286 1_555
Mg0_1 Sr0_5 3.696649 1_555
Mg0_1 Sr0_3 3.696649 1_555
Mg0_1 Sr2_3 3.699091 1_555
Mg0_1 Sr2_5 3.699091 1_555
Mg0_1 Sr1_3 3.761857 1_555
Mg0_1 Sr1_5 3.761857 1_555
Mg0_1 Sr1_1 4.069424 1_555
Mg0_2 Mg1_0 3.156286 1_565
Mg0_2 Mg1_6 3.156286 1_555
Mg0_2 Sr0_0 3.696649 1_565
Mg0_2 Sr0_6 3.696649 1_555
Mg0_2 Sr2_0 3.699091 1_565
Mg0_2 Sr2_6 3.699091 1_555
Mg0_2 Sr1_0 3.761857 1_565
Mg0_2 Sr1_6 3.761857 1_555
Mg0_2 Sr1_2 4.069424 1_555
Mg0_3 Mg1_7 3.156286 1_555
Mg0_3 Mg1_1 3.156286 1_565
Mg0_3 Sr0_7 3.696649 1_555
Mg0_3 Sr0_1 3.696649 1_565
Mg0_3 Sr2_1 3.699091 1_565
Mg0_3 Sr2_7 3.699091 1_555
Mg0_3 Sr1_1 3.761857 1_565
Mg0_3 Sr1_7 3.761857 1_555
Mg0_3 Sr1_3 4.069424 1_555
Mg0_4 Mg1_0 3.156286 1_655
Mg0_4 Mg1_6 3.156286 1_555
Mg0_4 Sr0_0 3.696649 1_655
Mg0_4 Sr0_6 3.696649 1_555
Mg0_4 Sr2_6 3.699091 1_555
Mg0_4 Sr2_0 3.699091 1_655
Mg0_4 Sr1_0 3.761857 1_655
Mg0_4 Sr1_6 3.761857 1_555
Mg0_4 Sr1_4 4.069424 1_555
Mg0_5 Mg1_7 3.156286 1_555
Mg0_5 Mg1_1 3.156286 1_655
Mg0_5 Sr0_7 3.696649 1_555
Mg0_5 Sr0_1 3.696649 1_655
Mg0_5 Sr2_1 3.699091 1_655
Mg0_5 Sr2_7 3.699091 1_555
Mg0_5 Sr1_1 3.761857 1_655
Mg0_5 Sr1_7 3.761857 1_555
Mg0_5 Sr1_5 4.069424 1_555
Mg0_6 Mg1_2 3.156286 1_655
Mg0_6 Mg1_4 3.156286 1_565
Mg0_6 Sr0_4 3.696649 1_565
Mg0_6 Sr0_2 3.696649 1_655
Mg0_6 Sr2_2 3.699091 1_655
Mg0_6 Sr2_4 3.699091 1_565
Mg0_6 Sr1_4 3.761857 1_565
Mg0_6 Sr1_2 3.761857 1_655
Mg0_6 Sr1_6 4.069424 1_555
Mg0_7 Mg1_3 3.156286 1_655
Mg0_7 Mg1_5 3.156286 1_565
Mg0_7 Sr0_5 3.696649 1_565
Mg0_7 Sr0_3 3.696649 1_655
Mg0_7 Sr2_3 3.699091 1_655
Mg0_7 Sr2_5 3.699091 1_565
Mg0_7 Sr1_5 3.761857 1_565
Mg0_7 Sr1_3 3.761857 1_655
Mg0_7 Sr1_7 4.069424 1_555
Mg1_0 Sr3_4 3.696649 1_455
Mg1_0 Sr3_2 3.696649 1_545
Mg1_0 Sr1_2 3.699091 1_545
Mg1_0 Sr1_4 3.699091 1_455
Mg1_0 Sr2_4 3.761857 1_455
Mg1_0 Sr2_2 3.761857 1_545
Mg1_0 Sr2_0 4.069424 1_555
Mg1_1 Sr3_3 3.696649 1_545
Mg1_1 Sr3_5 3.696649 1_455
Mg1_1 Sr1_5 3.699091 1_455
Mg1_1 Sr1_3 3.699091 1_545
Mg1_1 Sr2_3 3.761857 1_545
Mg1_1 Sr2_5 3.761857 1_455
Mg1_1 Sr2_1 4.069424 1_555
Mg1_2 Sr3_0 3.696649 1_555
Mg1_2 Sr3_6 3.696649 1_455
Mg1_2 Sr1_6 3.699091 1_455
Mg1_2 Sr1_0 3.699091 1_555
Mg1_2 Sr2_0 3.761857 1_555
Mg1_2 Sr2_6 3.761857 1_455
Mg1_2 Sr2_2 4.069424 1_555
Mg1_3 Sr3_7 3.696649 1_455
Mg1_3 Sr3_1 3.696649 1_555
Mg1_3 Sr1_7 3.699091 1_455
Mg1_3 Sr1_1 3.699091 1_555
Mg1_3 Sr2_7 3.761857 1_455
Mg1_3 Sr2_1 3.761857 1_555
Mg1_3 Sr2_3 4.069424 1_555
Mg1_4 Sr3_0 3.696649 1_555
Mg1_4 Sr3_6 3.696649 1_545
Mg1_4 Sr1_6 3.699091 1_545
Mg1_4 Sr1_0 3.699091 1_555
Mg1_4 Sr2_0 3.761857 1_555
Mg1_4 Sr2_6 3.761857 1_545
Mg1_4 Sr2_4 4.069424 1_555
Mg1_5 Sr3_7 3.696649 1_545
Mg1_5 Sr3_1 3.696649 1_555
Mg1_5 Sr1_7 3.699091 1_545
Mg1_5 Sr1_1 3.699091 1_555
Mg1_5 Sr2_7 3.761857 1_545
Mg1_5 Sr2_1 3.761857 1_555
Mg1_5 Sr2_5 4.069424 1_555
Mg1_6 Sr3_4 3.696649 1_555
Mg1_6 Sr3_2 3.696649 1_555
Mg1_6 Sr1_2 3.699091 1_555
Mg1_6 Sr1_4 3.699091 1_555
Mg1_6 Sr2_4 3.761857 1_555
Mg1_6 Sr2_2 3.761857 1_555
Mg1_6 Sr2_6 4.069424 1_555
Mg1_7 Sr3_5 3.696649 1_555
Mg1_7 Sr3_3 3.696649 1_555
Mg1_7 Sr1_5 3.699091 1_555
Mg1_7 Sr1_3 3.699091 1_555
Mg1_7 Sr2_3 3.761857 1_555
Mg1_7 Sr2_5 3.761857 1_555
Mg1_7 Sr2_7 4.069424 1_555
