# generated using pymatgen
data_Rb4Fe2S5
_symmetry_space_group_name_H-M   'P 1'
_cell_length_a   7.50806329
_cell_length_b   8.46269083
_cell_length_c   10.37403901
_cell_angle_alpha   77.80538343
_cell_angle_beta   84.28899909
_cell_angle_gamma   80.40607385
_symmetry_Int_Tables_number   1
_chemical_formula_structural   Rb4Fe2S5
_chemical_formula_sum   'Rb8 Fe4 S10'
_cell_volume   633.85007074
_cell_formula_units_Z   2
loop_
 _symmetry_equiv_pos_site_id
 _symmetry_equiv_pos_as_xyz
  1  'x, y, z'
loop_
 _atom_site_type_symbol
 _atom_site_label
 _atom_site_symmetry_multiplicity
 _atom_site_fract_x
 _atom_site_fract_y
 _atom_site_fract_z
 _atom_site_occupancy
  Rb  Rb0  1  0.94337821  0.89089867  0.24344412  1
  Rb  Rb1  1  0.05662179  0.10910133  0.75655588  1
  Rb  Rb2  1  0.57750012  0.16964859  0.91323526  1
  Rb  Rb3  1  0.42249988  0.83035141  0.08676474  1
  Rb  Rb4  1  0.40921567  0.78730370  0.48745278  1
  Rb  Rb5  1  0.59078433  0.21269630  0.51254722  1
  Rb  Rb6  1  0.20908182  0.57666373  0.86870797  1
  Rb  Rb7  1  0.79091818  0.42333627  0.13129203  1
  Fe  Fe0  1  0.73092962  0.76545237  0.77815661  1
  Fe  Fe1  1  0.26907038  0.23454763  0.22184339  1
  Fe  Fe2  1  0.91149590  0.58578454  0.59293642  1
  Fe  Fe3  1  0.08850410  0.41421546  0.40706358  1
  S  S0  1  0.84484586  0.80552605  0.95649967  1
  S  S1  1  0.15515414  0.19447395  0.04350033  1
  S  S2  1  0.45321408  0.90343941  0.75918420  1
  S  S3  1  0.54678592  0.09656059  0.24081580  1
  S  S4  1  0.91138705  0.84557906  0.59546135  1
  S  S5  1  0.08861295  0.15442094  0.40453865  1
  S  S6  1  0.74126722  0.49679117  0.77228493  1
  S  S7  1  0.25873278  0.50320883  0.22771507  1
  S  S8  1  0.80409023  0.54523565  0.41207797  1
  S  S9  1  0.19590977  0.45476435  0.58792203  1
loop_
_geom_bond_atom_site_label_1
_geom_bond_atom_site_label_2
_geom_bond_distance
_geom_bond_site_symmetry_2
Rb0 S3 3.188246 1_565
Rb0 S8 3.347354 1_555
Rb0 S0 3.384592 1_554
Rb0 S5 3.420981 1_665
Rb0 S1 3.447413 1_665
Rb0 S4 3.578430 1_555
Rb0 S7 3.735888 1_655
Rb1 S2 3.188246 1_545
Rb1 S9 3.347354 1_555
Rb1 S1 3.384592 1_556
Rb1 S4 3.420981 1_445
Rb1 S0 3.447413 1_445
Rb1 S5 3.578430 1_555
Rb1 S6 3.735888 1_455
Rb2 S6 3.221990 1_555
Rb2 S1 3.312194 1_556
Rb2 S3 3.314814 1_556
Rb2 S2 3.319437 1_545
Rb2 S0 3.355467 1_545
Rb3 S7 3.221990 1_555
Rb3 S0 3.312194 1_554
Rb3 S2 3.314814 1_554
Rb3 S3 3.319437 1_565
Rb3 S1 3.355467 1_565
Rb4 S2 3.238142 1_555
Rb4 S9 3.391417 1_555
Rb4 S8 3.433450 1_555
Rb4 S3 3.465399 1_565
Rb4 S5 3.602300 1_565
Rb4 S4 3.775555 1_455
Rb5 S3 3.238142 1_555
Rb5 S8 3.391417 1_555
Rb5 S9 3.433450 1_555
Rb5 S2 3.465399 1_545
Rb5 S4 3.602300 1_545
Rb5 S5 3.775555 1_655
Rb6 S0 3.247041 1_455
Rb6 S9 3.304495 1_555
Rb6 S1 3.424287 1_556
Rb6 S2 3.499407 1_555
Rb6 S7 3.690148 1_556
Rb7 S1 3.247041 1_655
Rb7 S8 3.304495 1_555
Rb7 S0 3.424287 1_554
Rb7 S3 3.499407 1_555
Rb7 S6 3.690148 1_554
Fe0 S2 2.218782 1_555
Fe0 S0 2.224012 1_555
Fe0 S4 2.267127 1_555
Fe0 S6 2.275461 1_555
Fe1 S3 2.218782 1_555
Fe1 S1 2.224012 1_555
Fe1 S5 2.267127 1_555
Fe1 S7 2.275461 1_555
Fe2 S4 2.204106 1_555
Fe2 S6 2.217662 1_555
Fe2 S8 2.225681 1_555
Fe2 S9 2.237201 1_655
Fe3 S5 2.204106 1_555
Fe3 S7 2.217662 1_555
Fe3 S9 2.225681 1_555
Fe3 S8 2.237201 1_455
