# generated using pymatgen
data_Ti16Hg4C5
_symmetry_space_group_name_H-M   'P 1'
_cell_length_a   3.76748400
_cell_length_b   3.76748400
_cell_length_c   33.40864700
_cell_angle_alpha   90.00000000
_cell_angle_beta   90.00000000
_cell_angle_gamma   90.00000000
_symmetry_Int_Tables_number   1
_chemical_formula_structural   Ti16Hg4C5
_chemical_formula_sum   'Ti16 Hg4 C5'
_cell_volume   474.20018702
_cell_formula_units_Z   1
loop_
 _symmetry_equiv_pos_site_id
 _symmetry_equiv_pos_as_xyz
  1  'x, y, z'
loop_
 _atom_site_type_symbol
 _atom_site_label
 _atom_site_symmetry_multiplicity
 _atom_site_fract_x
 _atom_site_fract_y
 _atom_site_fract_z
 _atom_site_occupancy
  Ti  Ti0  1  0.50000000  0.50000000  0.02720900  1
  Ti  Ti1  1  0.50000000  0.50000000  0.17279100  1
  Ti  Ti2  1  0.50000000  0.50000000  0.34473600  1
  Ti  Ti3  1  0.50000000  0.50000000  0.60000000  1
  Ti  Ti4  1  0.50000000  0.50000000  0.85526400  1
  Ti  Ti5  1  0.50000000  0.00000000  0.10000000  1
  Ti  Ti6  1  0.50000000  0.00000000  0.40170600  1
  Ti  Ti7  1  0.50000000  0.00000000  0.54706800  1
  Ti  Ti8  1  0.50000000  0.00000000  0.65293200  1
  Ti  Ti9  1  0.50000000  0.00000000  0.79829400  1
  Ti  Ti10  1  0.00000000  0.50000000  0.10000000  1
  Ti  Ti11  1  0.00000000  0.50000000  0.40170600  1
  Ti  Ti12  1  0.00000000  0.50000000  0.54706800  1
  Ti  Ti13  1  0.00000000  0.50000000  0.65293200  1
  Ti  Ti14  1  0.00000000  0.50000000  0.79829400  1
  Ti  Ti15  1  0.50000000  0.50000000  0.10000000  1
  Hg  Hg0  1  0.50000000  0.50000000  0.25821500  1
  Hg  Hg1  1  0.50000000  0.50000000  0.47459300  1
  Hg  Hg2  1  0.50000000  0.50000000  0.72540700  1
  Hg  Hg3  1  0.50000000  0.50000000  0.94178500  1
  C  C0  1  0.00000000  0.00000000  0.05075400  1
  C  C1  1  0.00000000  0.00000000  0.14924600  1
  C  C2  1  0.00000000  0.00000000  0.36839600  1
  C  C3  1  0.00000000  0.00000000  0.60000000  1
  C  C4  1  0.00000000  0.00000000  0.83160400  1
loop_
_geom_bond_atom_site_label_1
_geom_bond_atom_site_label_2
_geom_bond_distance
_geom_bond_site_symmetry_2
Ti0 Ti15 2.431849 1_555
Ti1 Ti15 2.431849 1_555
Ti3 Ti8 2.583733 1_555
Ti3 Ti8 2.583733 1_565
Ti3 Ti7 2.583733 1_565
Ti3 Ti7 2.583733 1_555
Ti10 Ti15 1.883742 1_455
Ti10 Ti15 1.883742 1_555
Ti12 Ti3 2.583733 1_455
Ti12 Ti3 2.583733 1_555
Ti12 Ti7 2.664013 1_555
Ti12 Ti7 2.664013 1_565
Ti12 Ti7 2.664013 1_465
Ti12 Ti7 2.664013 1_455
Ti13 Ti3 2.583733 1_455
Ti13 Ti3 2.583733 1_555
Ti13 Ti8 2.664013 1_455
Ti13 Ti8 2.664013 1_555
Ti13 Ti8 2.664013 1_565
Ti13 Ti8 2.664013 1_465
Ti15 Ti5 1.883742 1_555
Ti15 Ti5 1.883742 1_565
Hg0 Ti1 2.853900 1_555
Hg0 Ti2 2.890550 1_555
Hg1 Ti7 3.067758 1_565
Hg1 Ti7 3.067758 1_555
Hg1 Ti12 3.067758 1_555
Hg1 Ti12 3.067758 1_655
Hg1 Ti11 3.078633 1_655
Hg1 Ti6 3.078633 1_555
Hg1 Ti6 3.078633 1_565
Hg1 Ti11 3.078633 1_555
Hg2 Ti8 3.067758 1_555
Hg2 Ti8 3.067758 1_565
Hg2 Ti13 3.067758 1_655
Hg2 Ti13 3.067758 1_555
Hg2 Ti14 3.078633 1_655
Hg2 Ti9 3.078633 1_565
Hg2 Ti14 3.078633 1_555
Hg2 Ti9 3.078633 1_555
Hg3 Ti0 2.853900 1_556
Hg3 Ti4 2.890550 1_555
C0 Ti10 2.501061 1_555
C0 Ti5 2.501061 1_555
C0 Ti10 2.501061 1_545
C0 Ti5 2.501061 1_455
C0 Ti0 2.777718 1_545
C0 Ti0 2.777718 1_445
C0 Ti0 2.777718 1_455
C0 Ti0 2.777718 1_555
C1 Ti10 2.501061 1_545
C1 Ti5 2.501061 1_455
C1 Ti10 2.501061 1_555
C1 Ti5 2.501061 1_555
C1 Ti1 2.777718 1_545
C1 Ti1 2.777718 1_455
C1 Ti1 2.777718 1_445
C1 Ti1 2.777718 1_555
C2 Ti11 2.187899 1_555
C2 Ti6 2.187899 1_455
C2 Ti11 2.187899 1_545
C2 Ti6 2.187899 1_555
C2 Ti2 2.778809 1_555
C2 Ti2 2.778809 1_455
C2 Ti2 2.778809 1_445
C2 Ti2 2.778809 1_545
C3 Ti13 2.583733 1_545
C3 Ti8 2.583733 1_555
C3 Ti13 2.583733 1_555
C3 Ti8 2.583733 1_455
C3 Ti12 2.583733 1_545
C3 Ti7 2.583733 1_455
C3 Ti7 2.583733 1_555
C3 Ti12 2.583733 1_555
C3 Ti3 2.664013 1_545
C3 Ti3 2.664013 1_555
C3 Ti3 2.664013 1_445
C3 Ti3 2.664013 1_455
C4 Ti9 2.187899 1_455
C4 Ti9 2.187899 1_555
C4 Ti14 2.187899 1_545
C4 Ti14 2.187899 1_555
C4 Ti4 2.778809 1_455
C4 Ti4 2.778809 1_445
C4 Ti4 2.778809 1_555
C4 Ti4 2.778809 1_545
