# generated using pymatgen
data_CeMg6Al
_symmetry_space_group_name_H-M   'P 1'
_cell_length_a   7.50061824
_cell_length_b   6.60864431
_cell_length_c   4.89265800
_cell_angle_alpha   90.00000000
_cell_angle_beta   90.00000000
_cell_angle_gamma   126.87212270
_symmetry_Int_Tables_number   1
_chemical_formula_structural   CeMg6Al
_chemical_formula_sum   'Ce1 Mg6 Al1'
_cell_volume   194.01335962
_cell_formula_units_Z   1
loop_
 _symmetry_equiv_pos_site_id
 _symmetry_equiv_pos_as_xyz
  1  'x, y, z'
loop_
 _atom_site_type_symbol
 _atom_site_label
 _atom_site_symmetry_multiplicity
 _atom_site_fract_x
 _atom_site_fract_y
 _atom_site_fract_z
 _atom_site_occupancy
  Ce  Ce0  1  0.35185200  0.25605000  0.75000000  1
  Mg  Mg0  1  0.15949100  0.83657400  0.25000000  1
  Mg  Mg1  1  0.67587600  0.28143700  0.25000000  1
  Mg  Mg2  1  0.64939000  0.75254800  0.25000000  1
  Mg  Mg3  1  0.32299000  0.72221100  0.75000000  1
  Mg  Mg4  1  0.84189000  0.16050100  0.75000000  1
  Mg  Mg5  1  0.87610400  0.67556700  0.75000000  1
  Al  Al0  1  0.12240700  0.31511400  0.25000000  1
loop_
_geom_bond_atom_site_label_1
_geom_bond_atom_site_label_2
_geom_bond_distance
_geom_bond_site_symmetry_2
Ce0 Mg5 3.172674 1_555
Ce0 Mg3 3.215256 1_555
Ce0 Mg0 3.309264 1_546
Ce0 Mg0 3.309264 1_545
Ce0 Mg5 3.319966 1_445
Ce0 Mg1 3.380842 1_556
Ce0 Mg1 3.380842 1_555
Ce0 Mg3 3.402466 1_545
Ce0 Mg4 3.482967 1_455
Ce0 Mg2 3.597718 1_556
Ce0 Mg2 3.597718 1_555
Mg0 Mg5 2.986739 1_454
Mg0 Mg5 2.986739 1_455
Mg0 Mg3 3.028520 1_555
Mg0 Mg3 3.028520 1_554
Mg0 Mg1 3.159094 1_565
Mg0 Mg1 3.263004 1_455
Mg0 Mg2 3.521012 1_455
Mg1 Mg4 3.060739 1_555
Mg1 Mg4 3.060739 1_554
Mg1 Mg5 3.214022 1_555
Mg1 Mg5 3.214022 1_554
Mg1 Mg2 3.236512 1_555
Mg1 Mg2 3.379775 1_545
Mg2 Mg5 3.189547 1_554
Mg2 Mg5 3.189547 1_555
Mg2 Mg4 3.265932 1_565
Mg2 Mg4 3.265932 1_564
Mg2 Mg3 3.380737 1_555
Mg2 Mg3 3.380737 1_554
Mg3 Mg4 3.163727 1_565
Mg3 Mg5 3.176546 1_455
Mg3 Mg4 3.275096 1_455
Mg4 Mg5 3.256382 1_555
Mg4 Mg5 3.365008 1_545
Al0 Mg4 2.979195 1_455
Al0 Mg4 2.979195 1_454
Al0 Ce0 3.147190 1_554
Al0 Ce0 3.147190 1_555
Al0 Mg2 3.204393 1_555
Al0 Mg1 3.220641 1_455
Al0 Mg2 3.252753 1_445
Al0 Mg3 3.260162 1_554
Al0 Mg3 3.260162 1_555
Al0 Mg0 3.286784 1_555
Al0 Mg0 3.336829 1_545
