# generated using pymatgen
data_LiV2OF5
_symmetry_space_group_name_H-M   'P 1'
_cell_length_a   11.60521530
_cell_length_b   11.60521530
_cell_length_c   5.60053508
_cell_angle_alpha   80.68232255
_cell_angle_beta   80.68232255
_cell_angle_gamma   26.10489247
_symmetry_Int_Tables_number   1
_chemical_formula_structural   LiV2OF5
_chemical_formula_sum   'Li3 V6 O3 F15'
_cell_volume   327.28156068
_cell_formula_units_Z   3
loop_
 _symmetry_equiv_pos_site_id
 _symmetry_equiv_pos_as_xyz
  1  'x, y, z'
loop_
 _atom_site_type_symbol
 _atom_site_label
 _atom_site_symmetry_multiplicity
 _atom_site_fract_x
 _atom_site_fract_y
 _atom_site_fract_z
 _atom_site_occupancy
  Li  Li0  1  0.77990300  0.89450500  0.60507300  1
  Li  Li1  1  0.89063800  0.10936200  0.50000000  1
  Li  Li2  1  0.10549500  0.22009700  0.39492700  1
  V  V0  1  0.83341400  0.99313600  0.08513900  1
  V  V1  1  0.65106400  0.82880700  0.25459900  1
  V  V2  1  0.49783200  0.66166900  0.42256400  1
  V  V3  1  0.33833100  0.50216800  0.57743600  1
  V  V4  1  0.00686400  0.16658600  0.91486100  1
  V  V5  1  0.17119300  0.34893600  0.74540100  1
  O  O0  1  0.46179500  0.86098600  0.34191100  1
  O  O1  1  0.52585900  0.47414100  0.50000000  1
  O  O2  1  0.13901400  0.53820500  0.65808900  1
  F  F0  1  0.96490900  0.48895700  0.45291200  1
  F  F1  1  0.85431000  0.35215600  0.22878500  1
  F  F2  1  0.84466400  0.61601300  0.95655700  1
  F  F3  1  0.71805500  0.48199800  0.71960500  1
  F  F4  1  0.85036300  0.81144500  0.19413500  1
  F  F5  1  0.80843500  0.19156500  0.00000000  1
  F  F6  1  0.51039900  0.02669400  0.55286800  1
  F  F7  1  0.64784400  0.14569000  0.77121500  1
  F  F8  1  0.38398700  0.15533600  0.04344300  1
  F  F9  1  0.51800200  0.28194500  0.28039500  1
  F  F10  1  0.18855500  0.14963700  0.80586500  1
  F  F11  1  0.27598300  0.84749800  0.12555600  1
  F  F12  1  0.15365200  0.71470300  0.88588600  1
  F  F13  1  0.14467200  0.97659100  0.61712200  1
  F  F14  1  0.02340900  0.85532800  0.38287800  1
loop_
_geom_bond_atom_site_label_1
_geom_bond_atom_site_label_2
_geom_bond_distance
_geom_bond_site_symmetry_2
Li0 O2 1.899515 1_655
Li1 O1 1.912139 1_555
Li2 O0 1.899515 1_545
O0 V1 1.855089 1_555
O0 V2 1.927402 1_555
O1 V2 1.870538 1_555
O1 V3 1.870538 1_555
O2 V5 1.855089 1_555
O2 V3 1.927402 1_555
F0 Li2 1.875280 1_655
F0 V1 2.036387 1_555
F0 V5 2.115723 1_655
F1 Li2 2.026099 1_655
F1 V4 2.057641 1_654
F1 V2 2.077272 1_555
F2 V5 2.001653 1_655
F2 V1 2.021935 1_556
F3 V4 1.919599 1_655
F3 V2 2.080805 1_555
F4 V0 1.932502 1_555
F4 V1 2.106255 1_555
F4 Li0 2.363883 1_555
F5 V4 2.025986 1_654
F5 V0 2.025986 1_545
F6 Li0 1.937711 1_545
F6 V5 2.033766 1_555
F6 V1 2.086989 1_545
F7 Li0 2.026099 1_545
F7 V0 2.057641 1_546
F7 V3 2.077272 1_555
F8 V1 2.001653 1_545
F8 V5 2.021935 1_554
F9 V0 1.919599 1_545
F9 V3 2.080805 1_555
F10 V4 1.932502 1_555
F10 V5 2.106255 1_555
F10 Li2 2.363883 1_555
F11 V4 1.966390 1_564
F11 V2 2.073549 1_555
F12 V0 1.937882 1_456
F12 V3 2.085201 1_555
F13 Li1 1.906935 1_465
F13 V4 2.047881 1_565
F13 V2 2.069696 1_555
F14 Li1 1.906935 1_465
F14 V0 2.047881 1_455
F14 V3 2.069696 1_555
