# generated using pymatgen
data_Sr2As2O7
_symmetry_space_group_name_H-M   'P 1'
_cell_length_a   7.13279148
_cell_length_b   7.13279148
_cell_length_c   25.73571470
_cell_angle_alpha   90.00000000
_cell_angle_beta   90.00000000
_cell_angle_gamma   90.00000000
_symmetry_Int_Tables_number   1
_chemical_formula_structural   Sr2As2O7
_chemical_formula_sum   'Sr16 As16 O56'
_cell_volume   1309.34860403
_cell_formula_units_Z   8
loop_
 _symmetry_equiv_pos_site_id
 _symmetry_equiv_pos_as_xyz
  1  'x, y, z'
loop_
 _atom_site_type_symbol
 _atom_site_label
 _atom_site_symmetry_multiplicity
 _atom_site_fract_x
 _atom_site_fract_y
 _atom_site_fract_z
 _atom_site_occupancy
  Sr  Sr0  1  0.22762336  0.73511499  0.67607003  1
  Sr  Sr1  1  0.77237664  0.26488501  0.17607003  1
  Sr  Sr2  1  0.73511499  0.77237664  0.92607003  1
  Sr  Sr3  1  0.26488501  0.22762336  0.42607003  1
  Sr  Sr4  1  0.34808841  0.97275135  0.82343372  1
  Sr  Sr5  1  0.65191159  0.02724865  0.32343372  1
  Sr  Sr6  1  0.97275135  0.65191159  0.07343372  1
  Sr  Sr7  1  0.02724865  0.34808841  0.57343372  1
  Sr  Sr8  1  0.39848026  0.84476121  0.17842605  1
  Sr  Sr9  1  0.60151974  0.15523879  0.67842605  1
  Sr  Sr10  1  0.84476121  0.60151974  0.42842605  1
  Sr  Sr11  1  0.15523879  0.39848026  0.92842605  1
  Sr  Sr12  1  0.25716535  0.62748186  0.31507703  1
  Sr  Sr13  1  0.74283465  0.37251814  0.81507703  1
  Sr  Sr14  1  0.62748186  0.74283465  0.56507703  1
  Sr  Sr15  1  0.37251814  0.25716535  0.06507703  1
  As  As0  1  0.23449135  0.85515188  0.94679425  1
  As  As1  1  0.76550865  0.14484812  0.44679425  1
  As  As2  1  0.85515188  0.76550865  0.19679425  1
  As  As3  1  0.14484812  0.23449135  0.69679425  1
  As  As4  1  0.48446726  0.77945230  0.04873809  1
  As  As5  1  0.51553274  0.22054770  0.54873809  1
  As  As6  1  0.77945230  0.51553274  0.29873809  1
  As  As7  1  0.22054770  0.48446726  0.79873809  1
  As  As8  1  0.10543993  0.81275225  0.54135143  1
  As  As9  1  0.89456007  0.18724775  0.04135143  1
  As  As10  1  0.81275225  0.89456007  0.79135143  1
  As  As11  1  0.18724775  0.10543993  0.29135143  1
  As  As12  1  0.35510699  0.75200132  0.44010107  1
  As  As13  1  0.64489301  0.24799868  0.94010107  1
  As  As14  1  0.75200132  0.64489301  0.69010107  1
  As  As15  1  0.24799868  0.35510699  0.19010107  1
  O  O0  1  0.32885793  0.54127767  0.22217592  1
  O  O1  1  0.67114207  0.45872233  0.72217592  1
  O  O2  1  0.54127767  0.67114207  0.47217592  1
  O  O3  1  0.45872233  0.32885793  0.97217592  1
  O  O4  1  0.39061403  0.90808143  0.39211955  1
  O  O5  1  0.60938597  0.09191857  0.89211955  1
  O  O6  1  0.90808143  0.60938597  0.64211955  1
  O  O7  1  0.09191857  0.39061403  0.14211955  1
  O  O8  1  0.21501337  0.58095904  0.41688918  1
  O  O9  1  0.78498663  0.41904096  0.91688918  1
  O  O10  1  0.58095904  0.78498663  0.66688918  1
  O  O11  1  0.41904096  0.21501337  0.16688918  1
  O  O12  1  0.22315196  0.89394766  0.48392232  1
  O  O13  1  0.77684804  0.10605234  0.98392232  1
  O  O14  1  0.89394766  0.77684804  0.73392232  1
  O  O15  1  0.10605234  0.22315196  0.23392232  1
  O  O16  1  0.26495246  0.69831944  0.57763335  1
  O  O17  1  0.73504754  0.30168056  0.07763335  1
  O  O18  1  0.69831944  0.73504754  0.82763335  1
  O  O19  1  0.30168056  0.26495246  0.32763335  1
  O  O20  1  0.36952333  0.92530028  0.00143364  1
  O  O21  1  0.63047667  0.07469972  0.50143364  1
  O  O22  1  0.92530028  0.63047667  0.25143364  1
  O  O23  1  0.07469972  0.36952333  0.75143364  1
  O  O24  1  0.37714428  0.72347267  0.90913541  1
  O  O25  1  0.62285572  0.27652733  0.40913541  1
  O  O26  1  0.72347267  0.62285572  0.15913541  1
  O  O27  1  0.27652733  0.37714428  0.65913541  1
  O  O28  1  0.34491786  0.94399805  0.27089293  1
  O  O29  1  0.65508214  0.05600195  0.77089293  1
  O  O30  1  0.94399805  0.65508214  0.52089293  1
  O  O31  1  0.05600195  0.34491786  0.02089293  1
  O  O32  1  0.30571056  0.67540550  0.76977018  1
  O  O33  1  0.69428944  0.32459450  0.26977018  1
  O  O34  1  0.67540550  0.69428944  0.01977018  1
  O  O35  1  0.32459450  0.30571056  0.51977018  1
  O  O36  1  0.05242501  0.52326485  0.84292674  1
  O  O37  1  0.94757499  0.47673515  0.34292674  1
  O  O38  1  0.52326485  0.94757499  0.09292674  1
  O  O39  1  0.47673515  0.05242501  0.59292674  1
  O  O40  1  0.99857142  -0.00279100  0.56696929  1
  O  O41  1  0.00142858  0.00279100  0.06696929  1
  O  O42  1  -0.00279100  0.00142858  0.81696929  1
  O  O43  1  0.00279100  0.99857142  0.31696929  1
  O  O44  1  0.33404993  0.61879859  0.07212371  1
  O  O45  1  0.66595007  0.38120141  0.57212371  1
  O  O46  1  0.61879859  0.66595007  0.32212371  1
  O  O47  1  0.38120141  0.33404993  0.82212371  1
  O  O48  1  0.05635028  0.72054099  0.96841963  1
  O  O49  1  0.94364972  0.27945901  0.46841963  1
  O  O50  1  0.72054099  0.94364972  0.21841963  1
  O  O51  1  0.27945901  0.05635028  0.71841963  1
  O  O52  1  0.05210983  0.82974697  0.16696846  1
  O  O53  1  0.94789017  0.17025303  0.66696846  1
  O  O54  1  0.82974697  0.94789017  0.41696846  1
  O  O55  1  0.17025303  0.05210983  0.91696846  1
loop_
_geom_bond_atom_site_label_1
_geom_bond_atom_site_label_2
_geom_bond_distance
_geom_bond_site_symmetry_2
As0 O55 1.665163 1_565
As0 O48 1.687059 1_555
As0 O24 1.690210 1_555
As0 O20 1.776337 1_556
As1 O54 1.665163 1_545
As1 O49 1.687059 1_555
As1 O25 1.690210 1_555
As1 O21 1.776337 1_555
As2 O52 1.665163 1_655
As2 O50 1.687059 1_555
As2 O26 1.690210 1_555
As2 O22 1.776337 1_555
As3 O53 1.665163 1_455
As3 O51 1.687059 1_555
As3 O27 1.690210 1_555
As3 O23 1.776337 1_555
As4 O34 1.667217 1_555
As4 O38 1.675682 1_555
As4 O44 1.681199 1_555
As4 O20 1.799032 1_555
As5 O35 1.667217 1_555
As5 O39 1.675682 1_555
As5 O45 1.681199 1_555
As5 O21 1.799032 1_555
As6 O33 1.667217 1_555
As6 O37 1.675682 1_555
As6 O46 1.681199 1_555
As6 O22 1.799032 1_555
As7 O32 1.667217 1_555
As7 O36 1.675682 1_555
As7 O47 1.681199 1_555
As7 O23 1.799032 1_555
As8 O40 1.657338 1_465
As8 O16 1.683038 1_555
As8 O30 1.693526 1_455
As8 O12 1.795770 1_555
As9 O41 1.657338 1_655
As9 O17 1.683038 1_555
As9 O31 1.693526 1_655
As9 O13 1.795770 1_554
As10 O42 1.657338 1_665
As10 O18 1.683038 1_555
As10 O29 1.693526 1_565
As10 O14 1.795770 1_555
As11 O43 1.657338 1_545
As11 O19 1.683038 1_555
As11 O28 1.693526 1_545
As11 O15 1.795770 1_555
As12 O2 1.666555 1_555
As12 O4 1.681778 1_555
As12 O8 1.686356 1_555
As12 O12 1.784052 1_555
As13 O3 1.666555 1_555
As13 O5 1.681778 1_555
As13 O9 1.686356 1_555
As13 O13 1.784052 1_555
As14 O1 1.666555 1_555
As14 O6 1.681778 1_555
As14 O10 1.686356 1_555
As14 O14 1.784052 1_555
As15 O0 1.666555 1_555
As15 O7 1.681778 1_555
As15 O11 1.686356 1_555
As15 O15 1.784052 1_555
O0 Sr8 2.490020 1_555
O0 Sr12 2.521083 1_555
O1 Sr9 2.490020 1_555
O1 Sr13 2.521083 1_555
O2 Sr10 2.490020 1_555
O2 Sr14 2.521083 1_555
O3 Sr11 2.490020 1_555
O3 Sr15 2.521083 1_556
O4 Sr3 2.600489 1_565
O4 Sr5 2.705709 1_565
O4 Sr12 2.973744 1_555
O5 Sr2 2.600489 1_545
O5 Sr4 2.705709 1_545
O5 Sr13 2.973744 1_555
O6 Sr0 2.600489 1_655
O6 Sr7 2.705709 1_655
O6 Sr14 2.973744 1_555
O7 Sr1 2.600489 1_455
O7 Sr6 2.705709 1_455
O7 Sr15 2.973744 1_555
O8 Sr3 2.556194 1_555
O8 Sr12 2.658196 1_555
O8 Sr10 2.661613 1_455
O9 Sr2 2.556194 1_555
O9 Sr13 2.658196 1_555
O9 Sr11 2.661613 1_655
O10 Sr0 2.556194 1_555
O10 Sr14 2.658196 1_555
O10 Sr9 2.661613 1_565
O11 Sr1 2.556194 1_555
O11 Sr15 2.658196 1_555
O11 Sr8 2.661613 1_545
O12 Sr3 2.823106 1_565
O13 Sr2 2.823106 1_545
O14 Sr0 2.823106 1_655
O15 Sr1 2.823106 1_455
O16 Sr0 2.560777 1_555
O16 Sr14 2.625232 1_555
O16 Sr7 3.021093 1_555
O17 Sr1 2.560777 1_555
O17 Sr15 2.625232 1_555
O17 Sr6 3.021093 1_555
O18 Sr2 2.560777 1_555
O18 Sr13 2.625232 1_555
O18 Sr4 3.021093 1_555
O19 Sr3 2.560777 1_555
O19 Sr12 2.625232 1_555
O19 Sr5 3.021093 1_555
O20 Sr15 2.878624 1_565
O21 Sr14 2.878624 1_545
O22 Sr12 2.878624 1_655
O23 Sr13 2.878624 1_455
O24 Sr2 2.613640 1_555
O24 Sr4 2.840611 1_555
O24 Sr11 2.850499 1_555
O25 Sr3 2.613640 1_555
O25 Sr5 2.840611 1_555
O25 Sr10 2.850499 1_555
O26 Sr1 2.613640 1_555
O26 Sr6 2.840611 1_555
O26 Sr8 2.850499 1_555
O27 Sr0 2.613640 1_555
O27 Sr7 2.840611 1_555
O27 Sr9 2.850499 1_555
O28 Sr8 2.511966 1_555
O28 Sr12 2.604179 1_555
O28 Sr5 2.641187 1_565
O29 Sr9 2.511966 1_555
O29 Sr13 2.604179 1_555
O29 Sr4 2.641187 1_545
O30 Sr10 2.511966 1_555
O30 Sr14 2.604179 1_555
O30 Sr7 2.641187 1_655
O31 Sr11 2.511966 1_554
O31 Sr15 2.604179 1_555
O31 Sr6 2.641187 1_455
O32 Sr0 2.511306 1_555
O32 Sr4 2.548914 1_555
O33 Sr1 2.511306 1_555
O33 Sr5 2.548914 1_555
O34 Sr2 2.511306 1_554
O34 Sr6 2.548914 1_555
O35 Sr3 2.511306 1_555
O35 Sr7 2.548914 1_555
O36 Sr11 2.484293 1_555
O36 Sr13 2.558553 1_455
O37 Sr10 2.484293 1_555
O37 Sr12 2.558553 1_655
O38 Sr8 2.484293 1_555
O38 Sr15 2.558553 1_565
O39 Sr9 2.484293 1_555
O39 Sr14 2.558553 1_545
O40 Sr7 2.516600 1_655
O40 Sr14 3.209442 1_545
O41 Sr6 2.516600 1_445
O41 Sr15 3.209442 1_555
O42 Sr4 2.516600 1_545
O42 Sr13 3.209442 1_455
O43 Sr5 2.516600 1_465
O43 Sr12 3.209442 1_555
O44 Sr6 2.588088 1_455
O44 Sr15 2.600339 1_555
O44 Sr8 3.208324 1_555
O45 Sr7 2.588088 1_655
O45 Sr14 2.600339 1_555
O45 Sr9 3.208324 1_555
O46 Sr5 2.588088 1_565
O46 Sr12 2.600339 1_555
O46 Sr10 3.208324 1_555
O47 Sr4 2.588088 1_545
O47 Sr13 2.600339 1_555
O47 Sr11 3.208324 1_555
O48 Sr2 2.564109 1_455
O48 Sr11 2.614191 1_555
O48 Sr6 2.810571 1_456
O49 Sr3 2.564109 1_655
O49 Sr10 2.614191 1_555
O49 Sr7 2.810571 1_655
O50 Sr1 2.564109 1_565
O50 Sr8 2.614191 1_555
O50 Sr5 2.810571 1_565
O51 Sr0 2.564109 1_545
O51 Sr9 2.614191 1_555
O51 Sr4 2.810571 1_545
O52 Sr8 2.490426 1_555
O52 Sr6 2.779198 1_455
O53 Sr9 2.490426 1_555
O53 Sr7 2.779198 1_655
O54 Sr10 2.490426 1_555
O54 Sr5 2.779198 1_565
O55 Sr11 2.490426 1_555
O55 Sr4 2.779198 1_545
