# generated using pymatgen
data_Re2PbC(NO5)2
_symmetry_space_group_name_H-M   'P 1'
_cell_length_a   8.91827200
_cell_length_b   11.36488300
_cell_length_c   14.14297566
_cell_angle_alpha   78.43800053
_cell_angle_beta   90.00000000
_cell_angle_gamma   90.00000000
_symmetry_Int_Tables_number   1
_chemical_formula_structural   Re2PbC(NO5)2
_chemical_formula_sum   'Re8 Pb4 C4 N8 O40'
_cell_volume   1404.37570198
_cell_formula_units_Z   4
loop_
 _symmetry_equiv_pos_site_id
 _symmetry_equiv_pos_as_xyz
  1  'x, y, z'
loop_
 _atom_site_type_symbol
 _atom_site_label
 _atom_site_symmetry_multiplicity
 _atom_site_fract_x
 _atom_site_fract_y
 _atom_site_fract_z
 _atom_site_occupancy
  Re  Re0  1  0.14702200  0.53983500  0.77541500  1
  Re  Re1  1  0.85297800  0.46016500  0.22458500  1
  Re  Re2  1  0.64702200  0.46016500  0.72458500  1
  Re  Re3  1  0.35297800  0.53983500  0.27541500  1
  Re  Re4  1  0.23208200  0.96102000  0.59717300  1
  Re  Re5  1  0.76791800  0.03898000  0.40282700  1
  Re  Re6  1  0.73208200  0.03898000  0.90282700  1
  Re  Re7  1  0.26791800  0.96102000  0.09717300  1
  Pb  Pb0  1  0.93397900  0.73025000  0.54314800  1
  Pb  Pb1  1  0.06602100  0.26975000  0.45685200  1
  Pb  Pb2  1  0.43397900  0.26975000  0.95685200  1
  Pb  Pb3  1  0.56602100  0.73025000  0.04314800  1
  C  C0  1  0.32876100  0.70900600  0.87605200  1
  C  C1  1  0.67123900  0.29099400  0.12394800  1
  C  C2  1  0.82876100  0.29099400  0.62394800  1
  C  C3  1  0.17123900  0.70900600  0.37605200  1
  N  N0  1  0.39249000  0.81793900  0.83560100  1
  N  N1  1  0.60751000  0.18206100  0.16439900  1
  N  N2  1  0.89249000  0.18206100  0.66439900  1
  N  N3  1  0.10751000  0.81793900  0.33560100  1
  N  N4  1  0.22926800  0.66336200  0.82387700  1
  N  N5  1  0.77073200  0.33663800  0.17612300  1
  N  N6  1  0.72926800  0.33663800  0.67612300  1
  N  N7  1  0.27073200  0.66336200  0.32387700  1
  O  O0  1  0.06561000  0.59745600  0.65998100  1
  O  O1  1  0.93439000  0.40254400  0.34001900  1
  O  O2  1  0.56561000  0.40254400  0.84001900  1
  O  O3  1  0.43439000  0.59745600  0.15998100  1
  O  O4  1  0.11854700  0.87233500  0.53283000  1
  O  O5  1  0.88145300  0.12766500  0.46717000  1
  O  O6  1  0.61854700  0.12766500  0.96717000  1
  O  O7  1  0.38145300  0.87233500  0.03283000  1
  O  O8  1  0.28585700  0.43908000  0.76136900  1
  O  O9  1  0.71414300  0.56092000  0.23863100  1
  O  O10  1  0.78585700  0.56092000  0.73863100  1
  O  O11  1  0.21414300  0.43908000  0.26136900  1
  O  O12  1  0.18254500  0.38244400  0.53260400  1
  O  O13  1  0.81745500  0.61755600  0.46739600  1
  O  O14  1  0.68254500  0.61755600  0.96739600  1
  O  O15  1  0.31745500  0.38244400  0.03260400  1
  O  O16  1  0.22294300  0.11549100  0.53962200  1
  O  O17  1  0.77705700  0.88450900  0.46037800  1
  O  O18  1  0.72294300  0.88450900  0.96037800  1
  O  O19  1  0.27705700  0.11549100  0.03962200  1
  O  O20  1  0.16788500  0.94348800  0.71391700  1
  O  O21  1  0.83211500  0.05651200  0.28608300  1
  O  O22  1  0.66788500  0.05651200  0.78608300  1
  O  O23  1  0.33211500  0.94348800  0.21391700  1
  O  O24  1  0.01782400  0.46050700  0.85414500  1
  O  O25  1  0.98217600  0.53949300  0.14585500  1
  O  O26  1  0.51782400  0.53949300  0.64585500  1
  O  O27  1  0.48217600  0.46050700  0.35414500  1
  O  O28  1  0.37207300  0.65518800  0.96054800  1
  O  O29  1  0.62792700  0.34481200  0.03945200  1
  O  O30  1  0.87207300  0.34481200  0.53945200  1
  O  O31  1  0.12792700  0.65518800  0.46054800  1
  O  O32  1  0.81996900  0.78440200  0.65690700  1
  O  O33  1  0.18003100  0.21559800  0.34309300  1
  O  O34  1  0.31996900  0.21559800  0.84309300  1
  O  O35  1  0.68003100  0.78440200  0.15690700  1
  O  O36  1  0.41602200  0.91296000  0.60075100  1
  O  O37  1  0.58397800  0.08704000  0.39924900  1
  O  O38  1  0.91602200  0.08704000  0.89924900  1
  O  O39  1  0.08397800  0.91296000  0.10075100  1
loop_
_geom_bond_atom_site_label_1
_geom_bond_atom_site_label_2
_geom_bond_distance
_geom_bond_site_symmetry_2
C0 O28 1.287786 1_555
C0 N4 1.324520 1_555
C0 N0 1.378071 1_555
C1 O29 1.287786 1_555
C1 N5 1.324520 1_555
C1 N1 1.378071 1_555
C2 O30 1.287786 1_555
C2 N6 1.324520 1_555
C2 N2 1.378071 1_555
C3 O31 1.287786 1_555
C3 N7 1.324520 1_555
C3 N3 1.378071 1_555
N4 Re0 1.834213 1_555
N5 Re1 1.834213 1_555
N6 Re2 1.834213 1_555
N7 Re3 1.834213 1_555
O0 Re0 1.786827 1_555
O0 Pb0 2.320867 1_455
O1 Re1 1.786827 1_555
O1 Pb1 2.320867 1_655
O2 Re2 1.786827 1_555
O2 Pb2 2.320867 1_555
O3 Re3 1.786827 1_555
O3 Pb3 2.320867 1_555
O4 Re4 1.799123 1_555
O4 Pb0 2.289925 1_455
O5 Re5 1.799123 1_555
O5 Pb1 2.289925 1_655
O6 Re6 1.799123 1_555
O6 Pb2 2.289925 1_555
O7 Re7 1.799123 1_555
O7 Pb3 2.289925 1_555
O8 Re0 1.724787 1_555
O9 Re1 1.724787 1_555
O10 Re2 1.724787 1_555
O11 Re3 1.724787 1_555
O12 Pb1 2.101927 1_555
O13 Pb0 2.101927 1_555
O14 Pb3 2.101927 1_556
O15 Pb2 2.101927 1_554
O16 Re4 1.782777 1_545
O16 Pb1 2.362137 1_555
O17 Re5 1.782777 1_565
O17 Pb0 2.362137 1_555
O18 Re6 1.782777 1_565
O18 Pb3 2.362137 1_556
O19 Re7 1.782777 1_545
O19 Pb2 2.362137 1_554
O20 Re4 1.720979 1_555
O21 Re5 1.720979 1_555
O22 Re6 1.720979 1_555
O23 Re7 1.720979 1_555
O24 Re0 1.725643 1_555
O25 Re1 1.725643 1_555
O26 Re2 1.725643 1_555
O27 Re3 1.725643 1_555
O28 Pb3 2.341734 1_556
O29 Pb2 2.341734 1_554
O30 Pb1 2.341734 1_655
O31 Pb0 2.341734 1_455
O32 Pb0 2.097146 1_555
O33 Pb1 2.097146 1_555
O34 Pb2 2.097146 1_555
O35 Pb3 2.097146 1_555
O36 Re4 1.726503 1_555
O37 Re5 1.726503 1_555
O38 Re6 1.726503 1_555
O39 Re7 1.726503 1_555
