# generated using pymatgen
data_Li6NiCl8
_symmetry_space_group_name_H-M   'P 1'
_cell_length_a   7.17562046
_cell_length_b   7.17561399
_cell_length_c   7.17562477
_cell_angle_alpha   60.00000994
_cell_angle_beta   59.99992046
_cell_angle_gamma   59.99991052
_symmetry_Int_Tables_number   1
_chemical_formula_structural   Li6NiCl8
_chemical_formula_sum   'Li6 Ni1 Cl8'
_cell_volume   261.25386713
_cell_formula_units_Z   1
loop_
 _symmetry_equiv_pos_site_id
 _symmetry_equiv_pos_as_xyz
  1  'x, y, z'
loop_
 _atom_site_type_symbol
 _atom_site_label
 _atom_site_symmetry_multiplicity
 _atom_site_fract_x
 _atom_site_fract_y
 _atom_site_fract_z
 _atom_site_occupancy
  Li  Li0  1  0.50000000  0.00000000  0.00000000  1
  Li  Li1  1  -0.00000000  0.50000000  0.50000000  1
  Li  Li2  1  -0.00000000  0.50000000  0.00000000  1
  Li  Li3  1  0.50000000  0.00000000  0.50000000  1
  Li  Li4  1  -0.00000000  0.00000000  0.50000000  1
  Li  Li5  1  0.50000000  0.50000000  0.00000000  1
  Ni  Ni0  1  -0.00000000  0.00000000  0.00000000  1
  Cl  Cl0  1  0.25000000  0.25000000  0.25000000  1
  Cl  Cl1  1  0.75000000  0.75000000  0.75000000  1
  Cl  Cl2  1  0.76240323  0.23759677  0.23759677  1
  Cl  Cl3  1  0.23759677  0.76240323  0.76240323  1
  Cl  Cl4  1  0.23759577  0.76240423  0.23759577  1
  Cl  Cl5  1  0.76240423  0.23759577  0.76240423  1
  Cl  Cl6  1  0.23759777  0.23759777  0.76240223  1
  Cl  Cl7  1  0.76240223  0.76240223  0.23759777  1
loop_
_geom_bond_atom_site_label_1
_geom_bond_atom_site_label_2
_geom_bond_distance
_geom_bond_site_symmetry_2
Cl0 Li1 2.536961 1_555
Cl0 Li0 2.536961 1_555
Cl0 Li4 2.536964 1_555
Cl0 Li5 2.536964 1_555
Cl0 Li2 2.536966 1_555
Cl0 Li3 2.536966 1_555
Cl1 Li0 2.536961 1_566
Cl1 Li1 2.536961 1_655
Cl1 Li4 2.536964 1_665
Cl1 Li5 2.536964 1_556
Cl1 Li3 2.536966 1_565
Cl1 Li2 2.536966 1_656
Cl2 Ni0 2.411095 1_655
Cl2 Li2 2.540085 1_655
Cl2 Li3 2.540085 1_555
Cl2 Li5 2.540086 1_555
Cl2 Li4 2.540086 1_655
Cl3 Ni0 2.411095 1_566
Cl3 Li3 2.540085 1_565
Cl3 Li2 2.540085 1_556
Cl3 Li5 2.540086 1_556
Cl3 Li4 2.540086 1_565
Cl4 Ni0 2.411089 1_565
Cl4 Li5 2.540082 1_555
Cl4 Li4 2.540082 1_565
Cl4 Li0 2.540085 1_565
Cl4 Li1 2.540085 1_555
Cl5 Ni0 2.411089 1_656
Cl5 Li5 2.540082 1_556
Cl5 Li4 2.540082 1_655
Cl5 Li1 2.540085 1_655
Cl5 Li0 2.540085 1_556
Cl6 Ni0 2.411108 1_556
Cl6 Li2 2.540081 1_556
Cl6 Li3 2.540081 1_555
Cl6 Li0 2.540086 1_556
Cl6 Li1 2.540086 1_555
Cl7 Ni0 2.411108 1_665
Cl7 Li2 2.540081 1_655
Cl7 Li3 2.540081 1_565
Cl7 Li1 2.540086 1_655
Cl7 Li0 2.540086 1_565
