# generated using pymatgen
data_VW2C3
_symmetry_space_group_name_H-M   'P 1'
_cell_length_a   5.29343809
_cell_length_b   5.29343809
_cell_length_c   5.29343809
_cell_angle_alpha   146.52405543
_cell_angle_beta   131.78913856
_cell_angle_gamma   59.96634444
_symmetry_Int_Tables_number   1
_chemical_formula_structural   VW2C3
_chemical_formula_sum   'V1 W2 C3'
_cell_volume   60.44590188
_cell_formula_units_Z   1
loop_
 _symmetry_equiv_pos_site_id
 _symmetry_equiv_pos_as_xyz
  1  'x, y, z'
loop_
 _atom_site_type_symbol
 _atom_site_label
 _atom_site_symmetry_multiplicity
 _atom_site_fract_x
 _atom_site_fract_y
 _atom_site_fract_z
 _atom_site_occupancy
  V  V0  1  0.50000000  0.00000000  0.50000000  1
  W  W0  1  0.16598300  0.66598300  0.50000000  1
  W  W1  1  0.83401700  0.33401700  0.50000000  1
  C  C0  1  0.00000000  0.00000000  0.00000000  1
  C  C1  1  0.66096100  0.66096100  0.00000000  1
  C  C2  1  0.33903900  0.33903900  0.00000000  1
loop_
_geom_bond_atom_site_label_1
_geom_bond_atom_site_label_2
_geom_bond_distance
_geom_bond_site_symmetry_2
C0 W1 2.154243 1_444
C0 W1 2.154243 1_455
C0 W0 2.154243 1_544
C0 W0 2.154243 1_555
C0 V0 2.161930 1_555
C0 V0 2.161930 1_454
C1 V0 2.121955 1_565
C1 V0 2.121955 1_554
C1 W0 2.162420 1_655
C1 W0 2.162420 1_554
C1 W1 2.200548 1_565
C1 W1 2.200548 1_554
C2 V0 2.121955 1_565
C2 V0 2.121955 1_554
C2 W1 2.162420 1_555
C2 W1 2.162420 1_454
C2 W0 2.200548 1_555
C2 W0 2.200548 1_544
