# generated using pymatgen
data_Bi2Se
_symmetry_space_group_name_H-M   'P 1'
_cell_length_a   4.24577836
_cell_length_b   4.24577836
_cell_length_c   24.32888247
_cell_angle_alpha   90.00000000
_cell_angle_beta   90.00000000
_cell_angle_gamma   119.99999433
_symmetry_Int_Tables_number   1
_chemical_formula_structural   Bi2Se
_chemical_formula_sum   'Bi8 Se4'
_cell_volume   379.81092648
_cell_formula_units_Z   4
loop_
 _symmetry_equiv_pos_site_id
 _symmetry_equiv_pos_as_xyz
  1  'x, y, z'
loop_
 _atom_site_type_symbol
 _atom_site_label
 _atom_site_symmetry_multiplicity
 _atom_site_fract_x
 _atom_site_fract_y
 _atom_site_fract_z
 _atom_site_occupancy
  Bi  Bi0  1  0.66666700  0.33333300  0.46233989  1
  Bi  Bi1  1  0.33333300  0.66666700  0.53766011  1
  Bi  Bi2  1  0.66666700  0.33333300  0.70498425  1
  Bi  Bi3  1  0.33333300  0.66666700  0.29501575  1
  Bi  Bi4  1  0.66666700  0.33333300  0.94496898  1
  Bi  Bi5  1  0.33333300  0.66666700  0.05503102  1
  Bi  Bi6  1  -0.00000000  0.00000000  0.86920234  1
  Bi  Bi7  1  0.00000000  -0.00000000  0.13079766  1
  Se  Se0  1  0.66666700  0.33333300  0.22498174  1
  Se  Se1  1  0.33333300  0.66666700  0.77501826  1
  Se  Se2  1  -0.00000000  0.00000000  0.63738693  1
  Se  Se3  1  0.00000000  -0.00000000  0.36261307  1
loop_
_geom_bond_atom_site_label_1
_geom_bond_atom_site_label_2
_geom_bond_distance
_geom_bond_site_symmetry_2
Bi0 Bi1 3.060517 1_545
Bi0 Bi1 3.060517 1_655
Bi0 Bi1 3.060523 1_555
Bi0 Se3 3.448988 1_655
Bi0 Se3 3.448990 1_555
Bi0 Se3 3.448990 1_665
Bi1 Se2 3.448988 1_565
Bi1 Se2 3.448990 1_555
Bi1 Se2 3.448990 1_665
Bi2 Se2 2.951858 1_655
Bi2 Se2 2.951861 1_665
Bi2 Se2 2.951861 1_555
Bi2 Se1 2.985292 1_545
Bi2 Se1 2.985292 1_655
Bi2 Se1 2.985298 1_555
Bi3 Se3 2.951858 1_565
Bi3 Se3 2.951861 1_665
Bi3 Se3 2.951861 1_555
Bi3 Se0 2.985292 1_565
Bi3 Se0 2.985292 1_455
Bi3 Se0 2.985298 1_555
Bi4 Bi6 3.067032 1_655
Bi4 Bi6 3.067035 1_555
Bi4 Bi6 3.067035 1_665
Bi4 Bi5 3.630272 1_546
Bi4 Bi5 3.630272 1_656
Bi4 Bi5 3.630276 1_556
Bi5 Bi7 3.067032 1_565
Bi5 Bi7 3.067035 1_665
Bi5 Bi7 3.067035 1_555
Bi6 Se1 3.355495 1_545
Bi6 Se1 3.355498 1_555
Bi6 Se1 3.355498 1_445
Bi7 Se0 3.355495 1_455
Bi7 Se0 3.355498 1_555
Bi7 Se0 3.355498 1_445
