# generated using pymatgen
data_RbGdSe2
_symmetry_space_group_name_H-M   'P 1'
_cell_length_a   8.31615547
_cell_length_b   8.31615547
_cell_length_c   8.31615565
_cell_angle_alpha   29.76598597
_cell_angle_beta   29.76598597
_cell_angle_gamma   29.76597915
_symmetry_Int_Tables_number   1
_chemical_formula_structural   RbGdSe2
_chemical_formula_sum   'Rb1 Gd1 Se2'
_cell_volume   125.51937144
_cell_formula_units_Z   1
loop_
 _symmetry_equiv_pos_site_id
 _symmetry_equiv_pos_as_xyz
  1  'x, y, z'
loop_
 _atom_site_type_symbol
 _atom_site_label
 _atom_site_symmetry_multiplicity
 _atom_site_fract_x
 _atom_site_fract_y
 _atom_site_fract_z
 _atom_site_occupancy
  Rb  Rb0  1  -0.00000000  0.00000000  -0.00000000  1
  Gd  Gd0  1  0.50000000  0.50000000  0.50000000  1
  Se  Se0  1  0.23247316  0.23247316  0.23247316  1
  Se  Se1  1  0.76752684  0.76752684  0.76752684  1
loop_
_geom_bond_atom_site_label_1
_geom_bond_atom_site_label_2
_geom_bond_distance
_geom_bond_site_symmetry_2
Rb0 Se0 3.443547 1_455
Rb0 Se0 3.443547 1_545
Rb0 Se1 3.443547 1_544
Rb0 Se1 3.443547 1_454
Rb0 Se0 3.443547 1_554
Rb0 Se1 3.443547 1_445
Gd0 Se1 2.922582 1_455
Gd0 Se1 2.922582 1_545
Gd0 Se0 2.922582 1_565
Gd0 Se0 2.922582 1_655
Gd0 Se1 2.922582 1_554
Gd0 Se0 2.922582 1_556
