# generated using pymatgen
data_Li6V3P8O29
_symmetry_space_group_name_H-M   'P 1'
_cell_length_a   9.76197200
_cell_length_b   9.83625501
_cell_length_c   14.02219960
_cell_angle_alpha   90.01500923
_cell_angle_beta   90.18161414
_cell_angle_gamma   119.68045548
_symmetry_Int_Tables_number   1
_chemical_formula_structural   Li6V3P8O29
_chemical_formula_sum   'Li12 V6 P16 O58'
_cell_volume   1169.76974256
_cell_formula_units_Z   2
loop_
 _symmetry_equiv_pos_site_id
 _symmetry_equiv_pos_as_xyz
  1  'x, y, z'
loop_
 _atom_site_type_symbol
 _atom_site_label
 _atom_site_symmetry_multiplicity
 _atom_site_fract_x
 _atom_site_fract_y
 _atom_site_fract_z
 _atom_site_occupancy
  Li  Li0  1  0.76501500  0.66546400  0.94207100  1
  Li  Li1  1  0.89878600  0.66193600  0.43524300  1
  Li  Li2  1  0.33501300  0.23594900  0.43782800  1
  Li  Li3  1  0.32849100  0.09424900  0.94485900  1
  Li  Li4  1  0.89939000  0.23092700  0.94612300  1
  Li  Li5  1  0.23503300  0.90319500  0.55653600  1
  Li  Li6  1  0.75795500  0.09731900  0.43490100  1
  Li  Li7  1  0.34138600  0.67300400  0.89345100  1
  Li  Li8  1  0.09362200  0.33077800  0.55809300  1
  Li  Li9  1  0.23173500  0.32436400  0.06556600  1
  Li  Li10  1  0.97842700  0.95925300  0.01493600  1
  Li  Li11  1  0.94992600  0.96589100  0.49789700  1
  V  V0  1  0.43849100  0.00134000  0.74925200  1
  V  V1  1  0.56666200  0.99913700  0.24542400  1
  V  V2  1  0.00240400  0.56780900  0.24948200  1
  V  V3  1  0.99686400  0.43785100  0.75207800  1
  V  V4  1  0.56501900  0.56711700  0.74625000  1
  V  V5  1  0.44163000  0.44114300  0.25132700  1
  P  P0  1  0.77523400  0.68799900  0.15654400  1
  P  P1  1  0.91601200  0.68971500  0.65502300  1
  P  P2  1  0.31387500  0.22841200  0.65817100  1
  P  P3  1  0.66261500  0.33387700  0.87040300  1
  P  P4  1  0.66733600  0.33255000  0.36988600  1
  P  P5  1  0.30933200  0.08869600  0.15623100  1
  P  P6  1  0.22825100  0.91506000  0.33973000  1
  P  P7  1  0.91224100  0.22698600  0.15951100  1
  P  P8  1  0.08995300  0.78065000  0.83989100  1
  P  P9  1  0.77555000  0.08595900  0.65429000  1
  P  P10  1  0.69594100  0.91344400  0.83977900  1
  P  P11  1  0.32823600  0.66373300  0.63102200  1
  P  P12  1  0.33478900  0.66551600  0.13203300  1
  P  P13  1  0.69578600  0.78106900  0.33905500  1
  P  P14  1  0.08664200  0.31268700  0.34283900  1
  P  P15  1  0.22637700  0.31740500  0.84306200  1
  O  O0  1  0.80347500  0.79326300  0.41949500  1
  O  O1  1  0.74901200  0.66191600  0.66221900  1
  O  O2  1  0.99258800  0.78429600  0.92064900  1
  O  O3  1  0.91469500  0.65689100  0.17087800  1
  O  O4  1  0.61977400  0.53330400  0.16722200  1
  O  O5  1  0.66423600  0.48246700  0.82751500  1
  O  O6  1  0.47233000  0.37918000  0.67044500  1
  O  O7  1  0.23279900  0.23213100  0.93086900  1
  O  O8  1  0.33422500  0.25609600  0.16280900  1
  O  O9  1  0.81290600  0.48820900  0.33503300  1
  O  O10  1  0.91785900  0.53474000  0.66907100  1
  O  O11  1  0.51370500  0.32769000  0.32577600  1
  O  O12  1  0.66523100  0.33772200  0.97641700  1
  O  O13  1  0.65427400  0.32555200  0.47624300  1
  O  O14  1  0.51306400  0.18509300  0.83005100  1
  O  O15  1  0.91132000  0.38025600  0.16997300  1
  O  O16  1  0.81318800  0.33222200  0.82950100  1
  O  O17  1  0.33222200  0.08071400  0.66044000  1
  O  O18  1  0.20118200  0.99742900  0.24840900  1
  O  O19  1  0.22847300  0.00241500  0.42919600  1
  O  O20  1  0.21794700  0.01209700  0.06664100  1
  O  O21  1  0.46475600  0.08792800  0.16828000  1
  O  O22  1  0.67674700  0.18927800  0.32894800  1
  O  O23  1  0.26135300  0.92143200  0.84270400  1
  O  O24  1  0.61601400  0.08281800  0.67061600  1
  O  O25  1  0.91485000  0.25423700  0.66331100  1
  O  O26  1  0.01771300  0.80335200  0.74174500  1
  O  O27  1  0.99851800  0.77381500  0.56424800  1
  O  O28  1  0.99701900  0.22380400  0.43091200  1
  O  O29  1  0.08747800  0.74657400  0.34241300  1
  O  O30  1  0.38588900  0.91697700  0.32635700  1
  O  O31  1  0.74349500  0.08564200  0.16352100  1
  O  O32  1  0.32429200  0.81199100  0.67075300  1
  O  O33  1  0.52979000  0.89984200  0.82945500  1
  O  O34  1  0.79615700  0.01135600  0.92066200  1
  O  O35  1  0.78340200  0.01469300  0.56154700  1
  O  O36  1  0.78948000  0.98710900  0.74087600  1
  O  O37  1  0.66506100  0.92089800  0.34049100  1
  O  O38  1  0.19181300  0.66936200  0.17581600  1
  O  O39  1  0.10363200  0.62968200  0.83113300  1
  O  O40  1  0.48557100  0.80733300  0.17246800  1
  O  O41  1  0.32980400  0.65201400  0.02512600  1
  O  O42  1  0.32313500  0.65822800  0.52532400  1
  O  O43  1  0.47675200  0.66608200  0.67776900  1
  O  O44  1  0.08395000  0.46654800  0.32916900  1
  O  O45  1  0.18269400  0.51197200  0.67415700  1
  O  O46  1  0.66912600  0.74532100  0.84219900  1
  O  O47  1  0.79241600  0.80467200  0.24112700  1
  O  O48  1  0.79101600  0.77058100  0.06401100  1
  O  O49  1  0.54146600  0.62379000  0.33303500  1
  O  O50  1  0.32995800  0.51168400  0.17337400  1
  O  O51  1  0.37444300  0.48049900  0.83083400  1
  O  O52  1  0.07888400  0.33731100  0.84433600  1
  O  O53  1  0.99692100  0.21918700  0.07086200  1
  O  O54  1  0.00195300  0.20507200  0.25050600  1
  O  O55  1  0.25548200  0.33988700  0.34466000  1
  O  O56  1  0.22564900  0.22831000  0.56936100  1
  O  O57  1  0.20659200  0.21143900  0.75041700  1
loop_
_geom_bond_atom_site_label_1
_geom_bond_atom_site_label_2
_geom_bond_distance
_geom_bond_site_symmetry_2
Li0 O48 1.947706 1_556
Li0 O2 1.955669 1_555
Li0 O46 2.043242 1_555
Li0 O5 2.241188 1_555
Li1 O0 1.942219 1_555
Li1 O9 2.042042 1_555
Li1 O29 2.068223 1_655
Li1 O27 2.087558 1_555
Li2 O19 2.001524 1_555
Li2 O55 2.033482 1_555
Li2 O56 2.116670 1_555
Li2 O11 2.187496 1_555
Li3 O20 1.970380 1_556
Li3 O7 2.001035 1_555
Li3 O23 2.064085 1_545
Li3 O14 2.249728 1_555
Li4 O34 1.910353 1_555
Li4 O53 2.019320 1_556
Li4 O52 2.098380 1_655
Li4 O16 2.279807 1_555
Li5 O27 2.013417 1_455
Li5 O19 2.051094 1_565
Li5 O17 2.102643 1_565
Li5 O32 2.212489 1_555
Li6 O37 2.004743 1_545
Li6 O35 2.018366 1_555
Li6 O28 2.030468 1_555
Li6 O22 2.087411 1_555
Li7 O41 1.855508 1_556
Li7 O51 2.250906 1_555
Li7 O33 2.261383 1_555
Li7 O39 2.310730 1_555
Li8 O56 1.996797 1_555
Li8 O28 2.045122 1_455
Li8 O25 2.122480 1_455
Li8 O45 2.244104 1_555
Li9 O8 1.992082 1_555
Li9 O53 1.995702 1_455
Li9 O7 2.097403 1_554
Li9 O50 2.199839 1_555
Li10 O48 1.977616 1_555
Li10 O2 2.228054 1_554
Li10 O20 2.246866 1_665
Li10 O34 2.462646 1_564
Li10 O53 2.593377 1_565
Li11 O0 1.928922 1_555
Li11 O35 2.109822 1_565
Li11 O27 2.354946 1_555
Li11 O28 2.525558 1_565
O0 P13 1.503107 1_555
O1 P1 1.517320 1_555
O1 V4 1.959425 1_555
O2 P8 1.492510 1_655
O3 P0 1.548650 1_555
O3 V2 1.858289 1_655
O4 P0 1.534777 1_555
O4 V5 1.920731 1_555
O5 P3 1.573440 1_555
O5 V4 1.929256 1_555
O6 P2 1.532323 1_555
O6 V4 1.924132 1_555
O7 P15 1.508500 1_555
O8 P5 1.543482 1_555
O8 V5 2.013347 1_555
O9 P4 1.566069 1_555
O9 V2 2.013536 1_655
O10 P1 1.546026 1_555
O10 V3 1.892254 1_555
O11 P4 1.599118 1_555
O11 V5 1.898351 1_555
O12 P3 1.486837 1_555
O13 P4 1.495900 1_555
O14 P3 1.572170 1_555
O14 V0 1.941929 1_555
O15 P7 1.519139 1_555
O15 V2 1.950670 1_655
O16 P3 1.587079 1_555
O16 V3 1.908171 1_555
O17 P2 1.549637 1_555
O17 V0 2.007745 1_555
O18 P6 1.605120 1_555
O18 P5 1.631514 1_565
O19 P6 1.519762 1_545
O20 P5 1.506133 1_555
O21 P5 1.529824 1_555
O21 V1 1.943360 1_545
O22 P4 1.565919 1_555
O22 V1 2.006219 1_545
O23 P8 1.556829 1_555
O23 V0 1.998507 1_565
O24 P9 1.559944 1_555
O24 V0 1.870423 1_555
O25 P9 1.540998 1_555
O25 V3 2.003175 1_555
O26 P8 1.609698 1_555
O26 P1 1.614447 1_455
O27 P1 1.516716 1_555
O28 P14 1.518185 1_655
O29 P6 1.543174 1_555
O29 V2 2.006345 1_555
O30 P6 1.541654 1_555
O30 V1 1.912070 1_555
O31 P7 1.543445 1_555
O31 V1 1.892440 1_545
O32 P11 1.579184 1_555
O32 V0 1.964223 1_565
O33 P10 1.566273 1_555
O33 V0 1.982741 1_565
O34 P10 1.493402 1_545
O35 P9 1.497273 1_555
O36 P9 1.602654 1_565
O36 P10 1.623410 1_555
O37 P13 1.546169 1_555
O37 V1 2.004111 1_555
O38 P12 1.544057 1_555
O38 V2 1.914987 1_555
O39 P8 1.560257 1_555
O39 V3 1.979770 1_455
O40 P12 1.547523 1_555
O40 V1 1.935819 1_555
O41 P12 1.503414 1_555
O42 P11 1.482871 1_555
O43 P11 1.578907 1_555
O43 V4 1.854198 1_555
O44 P14 1.538625 1_555
O44 V2 1.911671 1_555
O45 P11 1.586929 1_555
O45 V3 1.928576 1_455
O46 P10 1.541359 1_555
O46 V4 2.035049 1_555
O47 P0 1.599770 1_555
O47 P13 1.618887 1_555
O48 P0 1.498331 1_555
O49 P13 1.536556 1_555
O49 V5 1.935981 1_555
O50 P12 1.599311 1_555
O50 V5 1.899099 1_555
O51 P15 1.548405 1_555
O51 V4 2.009602 1_555
O52 P15 1.546317 1_555
O52 V3 2.017647 1_455
O53 P7 1.517786 1_555
O54 P14 1.614339 1_555
O54 P7 1.619100 1_455
O55 P14 1.533577 1_555
O55 V5 2.056764 1_555
O56 P2 1.511593 1_555
O57 P15 1.615448 1_555
O57 P2 1.622764 1_555
