# generated using pymatgen
data_Cs2MoN(Cl2O)2
_symmetry_space_group_name_H-M   'P 1'
_cell_length_a   8.69725500
_cell_length_b   7.50270900
_cell_length_c   9.53451726
_cell_angle_alpha   67.05870698
_cell_angle_beta   90.00000000
_cell_angle_gamma   90.00000000
_symmetry_Int_Tables_number   1
_chemical_formula_structural   Cs2MoN(Cl2O)2
_chemical_formula_sum   'Cs4 Mo2 N2 Cl8 O4'
_cell_volume   572.94603277
_cell_formula_units_Z   2
loop_
 _symmetry_equiv_pos_site_id
 _symmetry_equiv_pos_as_xyz
  1  'x, y, z'
loop_
 _atom_site_type_symbol
 _atom_site_label
 _atom_site_symmetry_multiplicity
 _atom_site_fract_x
 _atom_site_fract_y
 _atom_site_fract_z
 _atom_site_occupancy
  Cs  Cs0  1  0.25000000  0.26155400  0.97499500  1
  Cs  Cs1  1  0.75000000  0.73844600  0.02500500  1
  Cs  Cs2  1  0.25000000  0.97383300  0.54626200  1
  Cs  Cs3  1  0.75000000  0.02616700  0.45373800  1
  Mo  Mo0  1  0.25000000  0.60626000  0.28938100  1
  Mo  Mo1  1  0.75000000  0.39374000  0.71061900  1
  N  N0  1  0.25000000  0.72598100  0.04833700  1
  N  N1  1  0.75000000  0.27401900  0.95166300  1
  Cl  Cl0  1  0.44875500  0.38453000  0.26132500  1
  Cl  Cl1  1  0.54657400  0.14628600  0.73838200  1
  Cl  Cl2  1  0.05124500  0.38453000  0.26132500  1
  Cl  Cl3  1  0.95342600  0.14628600  0.73838200  1
  Cl  Cl4  1  0.55124500  0.61547000  0.73867500  1
  Cl  Cl5  1  0.45342600  0.85371400  0.26161800  1
  Cl  Cl6  1  0.94875500  0.61547000  0.73867500  1
  Cl  Cl7  1  0.04657400  0.85371400  0.26161800  1
  O  O0  1  0.25000000  0.79587900  0.91154800  1
  O  O1  1  0.75000000  0.20412100  0.08845200  1
  O  O2  1  0.25000000  0.51046700  0.48615800  1
  O  O3  1  0.75000000  0.48953300  0.51384200  1
loop_
_geom_bond_atom_site_label_1
_geom_bond_atom_site_label_2
_geom_bond_distance
_geom_bond_site_symmetry_2
Cs0 O0 3.770997 1_545
Cs0 N0 3.800631 1_546
Cs0 N0 3.811822 1_556
Cs0 O0 3.813993 1_555
Cs1 O1 3.770997 1_565
Cs1 N1 3.800631 1_564
Cs1 N1 3.811822 1_554
Cs1 O1 3.813993 1_555
Cs2 O0 3.207429 1_555
Cs3 O1 3.207429 1_555
Mo0 O2 1.727823 1_555
Mo0 N0 2.116460 1_555
Mo1 O3 1.727823 1_555
Mo1 N1 2.116460 1_555
N0 O0 1.201167 1_554
N1 O1 1.201167 1_556
Cl0 Mo0 2.484772 1_555
Cl0 Cs0 3.640888 1_554
Cl0 Cs2 3.652051 1_545
Cl0 Cs3 3.689689 1_555
Cl0 Cs1 3.785222 1_555
Cl1 Mo1 2.502810 1_555
Cl1 Cs3 3.635196 1_555
Cl1 Cs1 3.666414 1_546
Cl1 Cs2 3.678358 1_545
Cl1 Cs0 3.743205 1_555
Cl2 Mo0 2.484772 1_555
Cl2 Cs0 3.640888 1_554
Cl2 Cs2 3.652051 1_545
Cl2 Cs3 3.689689 1_455
Cl2 Cs1 3.785222 1_455
Cl3 Mo1 2.502810 1_555
Cl3 Cs3 3.635196 1_555
Cl3 Cs1 3.666414 1_546
Cl3 Cs2 3.678358 1_645
Cl3 Cs0 3.743205 1_655
Cl4 Mo1 2.484772 1_555
Cl4 Cs1 3.640888 1_556
Cl4 Cs3 3.652051 1_565
Cl4 Cs2 3.689689 1_555
Cl4 Cs0 3.785222 1_555
Cl5 Mo0 2.502810 1_555
Cl5 Cs2 3.635196 1_555
Cl5 Cs0 3.666414 1_564
Cl5 Cs3 3.678358 1_565
Cl5 Cs1 3.743205 1_555
Cl6 Mo1 2.484772 1_555
Cl6 Cs1 3.640888 1_556
Cl6 Cs3 3.652051 1_565
Cl6 Cs2 3.689689 1_655
Cl6 Cs0 3.785222 1_655
Cl7 Mo0 2.502810 1_555
Cl7 Cs2 3.635196 1_555
Cl7 Cs0 3.666414 1_564
Cl7 Cs3 3.678358 1_465
Cl7 Cs1 3.743205 1_455
