# generated using pymatgen
data_Ru(C4N3)2
_symmetry_space_group_name_H-M   'P 1'
_cell_length_a   5.19034500
_cell_length_b   7.26373700
_cell_length_c   10.40151500
_cell_angle_alpha   90.00000000
_cell_angle_beta   90.00000000
_cell_angle_gamma   90.00000000
_symmetry_Int_Tables_number   1
_chemical_formula_structural   Ru(C4N3)2
_chemical_formula_sum   'Ru2 C16 N12'
_cell_volume   392.15064807
_cell_formula_units_Z   2
loop_
 _symmetry_equiv_pos_site_id
 _symmetry_equiv_pos_as_xyz
  1  'x, y, z'
loop_
 _atom_site_type_symbol
 _atom_site_label
 _atom_site_symmetry_multiplicity
 _atom_site_fract_x
 _atom_site_fract_y
 _atom_site_fract_z
 _atom_site_occupancy
  Ru  Ru0  1  0.00000000  0.50000000  0.50000000  1
  Ru  Ru1  1  0.00000000  0.00000000  0.00000000  1
  C  C0  1  0.38091500  0.00000000  0.75783300  1
  C  C1  1  0.38091500  0.50000000  0.74216700  1
  C  C2  1  0.61908500  0.00000000  0.24216700  1
  C  C3  1  0.61908500  0.50000000  0.25783300  1
  C  C4  1  0.57266700  0.00000000  0.66220400  1
  C  C5  1  0.57266700  0.50000000  0.83779600  1
  C  C6  1  0.42733300  0.00000000  0.33779600  1
  C  C7  1  0.42733300  0.50000000  0.16220400  1
  C  C8  1  0.68573300  0.16329000  0.61726000  1
  C  C9  1  0.68573300  0.33671000  0.88274000  1
  C  C10  1  0.31426700  0.16329000  0.38274000  1
  C  C11  1  0.68573300  0.66329000  0.88274000  1
  C  C12  1  0.31426700  0.83671000  0.38274000  1
  C  C13  1  0.31426700  0.66329000  0.11726000  1
  C  C14  1  0.68573300  0.83671000  0.61726000  1
  C  C15  1  0.31426700  0.33671000  0.11726000  1
  N  N0  1  0.78924100  0.29379100  0.57606000  1
  N  N1  1  0.78924100  0.20620900  0.92394000  1
  N  N2  1  0.21075900  0.29379100  0.42394000  1
  N  N3  1  0.78924100  0.79379100  0.92394000  1
  N  N4  1  0.21075900  0.70620900  0.42394000  1
  N  N5  1  0.21075900  0.79379100  0.07606000  1
  N  N6  1  0.78924100  0.70620900  0.57606000  1
  N  N7  1  0.21075900  0.20620900  0.07606000  1
  N  N8  1  0.22745100  0.00000000  0.84061600  1
  N  N9  1  0.22745100  0.50000000  0.65938400  1
  N  N10  1  0.77254900  0.00000000  0.15938400  1
  N  N11  1  0.77254900  0.50000000  0.34061600  1
loop_
_geom_bond_atom_site_label_1
_geom_bond_atom_site_label_2
_geom_bond_distance
_geom_bond_site_symmetry_2
C0 N8 1.172988 1_555
C0 C4 1.407104 1_555
C1 N9 1.172988 1_555
C1 C5 1.407104 1_555
C2 N10 1.172988 1_555
C2 C6 1.407104 1_555
C3 N11 1.172988 1_555
C3 C7 1.407104 1_555
C4 C8 1.403482 1_555
C5 C9 1.403482 1_555
C8 N0 1.170829 1_555
C9 N1 1.170829 1_555
C10 N2 1.170829 1_555
C10 C6 1.403482 1_555
C11 N3 1.170829 1_555
C11 C5 1.403482 1_555
C12 N4 1.170829 1_555
C12 C6 1.403482 1_565
C13 N5 1.170829 1_555
C13 C7 1.403482 1_555
C14 N6 1.170829 1_555
C14 C4 1.403482 1_565
C15 N7 1.170829 1_555
C15 C7 1.403482 1_555
N0 Ru0 2.016456 1_655
N1 Ru1 2.016456 1_656
N2 Ru0 2.016456 1_555
N3 Ru1 2.016456 1_666
N4 Ru0 2.016456 1_555
N5 Ru1 2.016456 1_565
N6 Ru0 2.016456 1_655
N7 Ru1 2.016456 1_555
N8 Ru1 2.035218 1_556
N9 Ru0 2.035218 1_555
N10 Ru1 2.035218 1_655
N11 Ru0 2.035218 1_655
