# generated using pymatgen
data_Zn
_symmetry_space_group_name_H-M   'P 1'
_cell_length_a   11.86516223
_cell_length_b   11.74738353
_cell_length_c   11.71559576
_cell_angle_alpha   86.91626837
_cell_angle_beta   90.02447238
_cell_angle_gamma   84.60252874
_symmetry_Int_Tables_number   1
_chemical_formula_structural   Zn
_chemical_formula_sum   Zn100
_cell_volume   1623.35453116
_cell_formula_units_Z   100
loop_
 _symmetry_equiv_pos_site_id
 _symmetry_equiv_pos_as_xyz
  1  'x, y, z'
loop_
 _atom_site_type_symbol
 _atom_site_label
 _atom_site_symmetry_multiplicity
 _atom_site_fract_x
 _atom_site_fract_y
 _atom_site_fract_z
 _atom_site_occupancy
  Zn  Zn0  1  0.81284892  0.71013313  0.56950355  1
  Zn  Zn1  1  0.31344562  0.18089293  0.11824312  1
  Zn  Zn2  1  0.99582068  0.32619389  0.40326979  1
  Zn  Zn3  1  0.27971561  0.53823471  0.19281273  1
  Zn  Zn4  1  0.11803436  0.16641677  0.63517646  1
  Zn  Zn5  1  0.40735032  0.89118697  0.61337431  1
  Zn  Zn6  1  0.61221355  0.92513017  0.16408710  1
  Zn  Zn7  1  0.24111963  0.15552652  0.85716673  1
  Zn  Zn8  1  0.32711979  0.39965431  0.02958658  1
  Zn  Zn9  1  0.54131400  0.80002167  0.34926529  1
  Zn  Zn10  1  0.70147656  0.20759637  0.62366982  1
  Zn  Zn11  1  0.65975153  0.29747044  0.22733315  1
  Zn  Zn12  1  0.35649574  0.63926425  0.99067908  1
  Zn  Zn13  1  0.12703979  0.18879654  0.27502634  1
  Zn  Zn14  1  0.63114596  0.14399897  0.86215827  1
  Zn  Zn15  1  0.58485734  0.72022245  0.57755667  1
  Zn  Zn16  1  0.03875286  0.27849932  0.80736183  1
  Zn  Zn17  1  0.47035921  0.05700863  0.00512703  1
  Zn  Zn18  1  0.19360738  0.00464106  0.16196353  1
  Zn  Zn19  1  0.71253466  0.63243266  0.39630090  1
  Zn  Zn20  1  0.82123773  0.22870949  0.81844318  1
  Zn  Zn21  1  0.57109641  0.59139876  0.01976378  1
  Zn  Zn22  1  0.43961673  0.35829558  0.21502741  1
  Zn  Zn23  1  0.10315593  0.85316883  0.85824526  1
  Zn  Zn24  1  0.10024155  0.76238453  0.45931722  1
  Zn  Zn25  1  0.84806014  0.43954430  0.75779303  1
  Zn  Zn26  1  0.88632460  0.25835669  0.20074021  1
  Zn  Zn27  1  0.36521575  0.67509886  0.58817357  1
  Zn  Zn28  1  0.04754713  0.50255826  0.83405505  1
  Zn  Zn29  1  0.08824167  0.39708002  0.60217299  1
  Zn  Zn30  1  0.52671284  0.50879446  0.63892175  1
  Zn  Zn31  1  0.69546563  0.13800363  0.08059457  1
  Zn  Zn32  1  0.97913976  0.05162760  0.76277712  1
  Zn  Zn33  1  0.20870019  0.80720663  0.67168717  1
  Zn  Zn34  1  0.85736154  0.47695945  0.28858837  1
  Zn  Zn35  1  0.05606323  0.39441792  0.16675216  1
  Zn  Zn36  1  0.66453696  0.57686773  0.80242908  1
  Zn  Zn37  1  0.56730365  0.34849660  0.01818018  1
  Zn  Zn38  1  0.78826270  0.66728927  0.18067488  1
  Zn  Zn39  1  0.78168384  0.26720326  0.41262378  1
  Zn  Zn40  1  0.92217053  0.33277415  0.98754344  1
  Zn  Zn41  1  0.30610162  0.84362244  0.41542777  1
  Zn  Zn42  1  0.48421751  0.28480157  0.63682378  1
  Zn  Zn43  1  0.82529616  0.88331061  0.10829260  1
  Zn  Zn44  1  0.20231991  0.76693003  0.23731603  1
  Zn  Zn45  1  0.97610469  0.04116439  0.15348190  1
  Zn  Zn46  1  0.93159446  0.57235305  0.01812793  1
  Zn  Zn47  1  0.19359569  0.39514155  0.35643813  1
  Zn  Zn48  1  0.43045060  0.25128998  0.87168457  1
  Zn  Zn49  1  0.26147194  0.60263084  0.40572153  1
  Zn  Zn50  1  0.09587782  0.61243758  0.63489411  1
  Zn  Zn51  1  0.87723210  0.64835868  0.78825485  1
  Zn  Zn52  1  0.46133740  0.72286746  0.79385830  1
  Zn  Zn53  1  0.46603928  0.00197067  0.41317014  1
  Zn  Zn54  1  0.62514640  0.41800475  0.45736193  1
  Zn  Zn55  1  0.48614410  0.59968689  0.41126401  1
  Zn  Zn56  1  0.34174234  0.19951899  0.34341820  1
  Zn  Zn57  1  0.25043458  0.83907838  0.02872558  1
  Zn  Zn58  1  0.08771684  0.05927301  0.96290435  1
  Zn  Zn59  1  0.96843285  0.80754460  0.27302530  1
  Zn  Zn60  1  0.04835058  0.60391080  0.21742582  1
  Zn  Zn61  1  0.88876308  0.84682757  0.88169767  1
  Zn  Zn62  1  0.28045255  0.26760401  0.55075468  1
  Zn  Zn63  1  0.03559595  0.78727471  0.06174239  1
  Zn  Zn64  1  0.30207349  0.47070519  0.62438038  1
  Zn  Zn65  1  0.40546479  0.39988137  0.43051210  1
  Zn  Zn66  1  0.39566155  0.91840113  0.20187211  1
  Zn  Zn67  1  0.51530002  0.12826370  0.21631098  1
  Zn  Zn68  1  0.79786615  0.06996686  0.27821950  1
  Zn  Zn69  1  0.75045914  0.84198606  0.32837071  1
  Zn  Zn70  1  0.73845107  0.70486097  0.96633933  1
  Zn  Zn71  1  0.63369763  0.36005761  0.78619312  1
  Zn  Zn72  1  0.51039649  0.94920957  0.80780391  1
  Zn  Zn73  1  0.44030151  0.68419974  0.19163210  1
  Zn  Zn74  1  0.90476174  0.27633825  0.61089031  1
  Zn  Zn75  1  0.68497722  0.80017839  0.74783291  1
  Zn  Zn76  1  0.25121032  0.05635736  0.48411143  1
  Zn  Zn77  1  0.75560530  0.45046316  0.07089904  1
  Zn  Zn78  1  0.82741844  0.48349538  0.53161373  1
  Zn  Zn79  1  0.36579674  0.10480712  0.69135045  1
  Zn  Zn80  1  0.45098794  0.48670716  0.85481726  1
  Zn  Zn81  1  0.08555413  0.97440028  0.35190156  1
  Zn  Zn82  1  0.01499662  0.56232931  0.43640456  1
  Zn  Zn83  1  0.29497070  0.93583003  0.83114397  1
  Zn  Zn84  1  0.90243528  0.89085922  0.47003161  1
  Zn  Zn85  1  0.86453780  0.05856634  0.95759091  1
  Zn  Zn86  1  0.78178470  0.99189787  0.69780311  1
  Zn  Zn87  1  0.24293584  0.38496076  0.82126120  1
  Zn  Zn88  1  0.61182051  0.52240218  0.23535501  1
  Zn  Zn89  1  0.97094473  0.80954114  0.67589007  1
  Zn  Zn90  1  0.56110563  0.20380665  0.42428436  1
  Zn  Zn91  1  0.48086629  0.82431908  0.00050516  1
  Zn  Zn92  1  0.56545813  0.03978518  0.61502714  1
  Zn  Zn93  1  0.94059838  0.11363009  0.46167090  1
  Zn  Zn94  1  0.67988247  0.92935658  0.94106908  1
  Zn  Zn95  1  0.71579937  0.02063835  0.47010376  1
  Zn  Zn96  1  0.25042447  0.61614165  0.79873920  1
  Zn  Zn97  1  0.14199515  0.28331949  0.00662462  1
  Zn  Zn98  1  0.07637531  0.96949246  0.57769662  1
  Zn  Zn99  1  0.15013052  0.58242194  0.00459778  1
loop_
_geom_bond_atom_site_label_1
_geom_bond_atom_site_label_2
_geom_bond_distance
_geom_bond_site_symmetry_2
Zn0 Zn19 2.601728 1_555
Zn0 Zn89 2.646251 1_555
Zn0 Zn84 2.674839 1_555
Zn0 Zn15 2.698505 1_555
Zn0 Zn78 2.712184 1_555
Zn0 Zn51 2.715158 1_555
Zn0 Zn75 2.779269 1_555
Zn1 Zn97 2.581490 1_555
Zn1 Zn18 2.647924 1_555
Zn1 Zn17 2.653366 1_555
Zn1 Zn67 2.661036 1_555
Zn1 Zn56 2.682374 1_555
Zn1 Zn8 2.738759 1_555
Zn1 Zn13 2.873577 1_555
Zn1 Zn22 2.951217 1_555
Zn2 Zn47 2.602806 1_655
Zn2 Zn34 2.614495 1_555
Zn2 Zn93 2.693913 1_555
Zn2 Zn39 2.696489 1_555
Zn2 Zn74 2.719360 1_555
Zn2 Zn29 2.775695 1_655
Zn2 Zn82 2.851650 1_655
Zn2 Zn26 2.889378 1_555
Zn2 Zn35 2.949901 1_655
Zn2 Zn78 3.045476 1_555
Zn3 Zn8 2.605199 1_555
Zn3 Zn49 2.648320 1_555
Zn3 Zn73 2.680111 1_555
Zn3 Zn99 2.686923 1_555
Zn3 Zn47 2.742750 1_555
Zn3 Zn60 2.800105 1_555
Zn3 Zn44 2.831922 1_555
Zn4 Zn62 2.532009 1_555
Zn4 Zn98 2.536102 1_545
Zn4 Zn76 2.676750 1_555
Zn4 Zn74 2.738066 1_455
Zn4 Zn7 2.973031 1_555
Zn4 Zn79 3.024208 1_555
Zn4 Zn93 3.053910 1_455
Zn5 Zn92 2.680784 1_565
Zn5 Zn79 2.718343 1_565
Zn5 Zn72 2.733054 1_555
Zn5 Zn53 2.742898 1_565
Zn5 Zn52 2.846372 1_555
Zn5 Zn76 2.914729 1_565
Zn5 Zn83 2.928727 1_555
Zn6 Zn66 2.615257 1_555
Zn6 Zn69 2.615842 1_555
Zn6 Zn67 2.651873 1_565
Zn6 Zn9 2.732289 1_555
Zn6 Zn94 2.732969 1_554
Zn6 Zn91 2.844810 1_555
Zn7 Zn79 2.505669 1_555
Zn7 Zn97 2.579796 1_556
Zn7 Zn83 2.633748 1_545
Zn7 Zn87 2.707536 1_555
Zn8 Zn87 2.657064 1_554
Zn8 Zn97 2.714515 1_555
Zn8 Zn80 2.730984 1_554
Zn8 Zn99 2.861666 1_555
Zn10 Zn74 2.616499 1_555
Zn10 Zn42 2.658380 1_555
Zn10 Zn92 2.668506 1_555
Zn10 Zn86 2.718672 1_545
Zn10 Zn20 2.722526 1_555
Zn10 Zn39 2.729561 1_555
Zn10 Zn71 2.752668 1_555
Zn10 Zn90 2.873027 1_555
Zn10 Zn95 2.905937 1_555
Zn10 Zn14 2.992632 1_555
Zn10 Zn54 3.128134 1_555
Zn11 Zn39 2.597947 1_555
Zn11 Zn31 2.615735 1_555
Zn11 Zn22 2.644057 1_555
Zn11 Zn88 2.656762 1_555
Zn11 Zn37 2.698651 1_555
Zn11 Zn26 2.705369 1_555
Zn11 Zn67 2.752039 1_555
Zn11 Zn90 2.806449 1_555
Zn11 Zn77 2.813264 1_555
Zn11 Zn68 3.031066 1_555
Zn12 Zn21 2.573922 1_556
Zn12 Zn99 2.600794 1_556
Zn12 Zn96 2.615714 1_555
Zn12 Zn57 2.617146 1_556
Zn12 Zn80 2.633011 1_555
Zn12 Zn73 2.653401 1_556
Zn12 Zn91 2.747190 1_556
Zn12 Zn3 2.783764 1_556
Zn12 Zn52 2.796013 1_555
Zn12 Zn8 2.880793 1_556
Zn13 Zn18 2.654470 1_555
Zn13 Zn2 2.660213 1_455
Zn13 Zn56 2.686449 1_555
Zn13 Zn81 2.717779 1_545
Zn13 Zn35 2.727587 1_555
Zn13 Zn47 2.831502 1_555
Zn13 Zn26 3.010798 1_455
Zn13 Zn45 3.015044 1_455
Zn13 Zn76 3.122045 1_555
Zn14 Zn20 2.590004 1_555
Zn14 Zn48 2.592734 1_555
Zn14 Zn71 2.646978 1_555
Zn14 Zn94 2.649791 1_545
Zn14 Zn31 2.665569 1_556
Zn14 Zn17 2.770324 1_556
Zn14 Zn72 2.909827 1_545
Zn14 Zn85 3.046259 1_555
Zn14 Zn37 3.133269 1_556
Zn14 Zn86 3.141204 1_545
Zn15 Zn75 2.585052 1_555
Zn15 Zn30 2.700439 1_555
Zn15 Zn27 2.709465 1_555
Zn15 Zn55 2.789126 1_555
Zn15 Zn19 2.795054 1_555
Zn15 Zn9 2.817264 1_555
Zn15 Zn5 2.818016 1_555
Zn15 Zn52 2.928080 1_555
Zn16 Zn4 2.596579 1_555
Zn16 Zn40 2.599495 1_455
Zn16 Zn97 2.641673 1_556
Zn16 Zn28 2.678968 1_555
Zn16 Zn20 2.701086 1_455
Zn16 Zn7 2.729151 1_555
Zn16 Zn74 2.799490 1_455
Zn16 Zn29 2.803367 1_555
Zn16 Zn87 2.837518 1_555
Zn16 Zn25 2.848001 1_455
Zn16 Zn32 2.894868 1_455
Zn16 Zn58 3.082735 1_555
Zn17 Zn48 2.699881 1_554
Zn17 Zn72 2.715933 1_544
Zn17 Zn67 2.722511 1_555
Zn17 Zn91 2.728054 1_545
Zn17 Zn6 2.810262 1_545
Zn17 Zn94 2.900623 1_544
Zn17 Zn66 2.935848 1_545
Zn17 Zn31 3.063895 1_555
Zn18 Zn66 2.546305 1_545
Zn18 Zn45 2.576991 1_455
Zn18 Zn81 2.593194 1_545
Zn18 Zn57 2.599002 1_545
Zn18 Zn58 2.667188 1_554
Zn18 Zn44 2.875476 1_545
Zn19 Zn78 2.585229 1_555
Zn19 Zn69 2.625595 1_555
Zn19 Zn88 2.684217 1_555
Zn19 Zn38 2.704903 1_555
Zn19 Zn9 2.727029 1_555
Zn19 Zn34 2.745987 1_555
Zn19 Zn55 2.753490 1_555
Zn19 Zn54 2.868829 1_555
Zn20 Zn85 2.524278 1_555
Zn20 Zn25 2.588365 1_555
Zn20 Zn71 2.601097 1_555
Zn20 Zn74 2.677291 1_555
Zn20 Zn40 2.717987 1_555
Zn20 Zn32 2.770680 1_555
Zn21 Zn70 2.553531 1_554
Zn21 Zn88 2.641026 1_555
Zn21 Zn77 2.665144 1_555
Zn21 Zn73 2.751685 1_555
Zn21 Zn36 2.784791 1_554
Zn21 Zn80 2.803728 1_554
Zn21 Zn91 2.840100 1_555
Zn21 Zn37 2.859105 1_555
Zn22 Zn8 2.549442 1_555
Zn22 Zn65 2.621534 1_555
Zn22 Zn56 2.682776 1_555
Zn22 Zn3 2.705813 1_555
Zn22 Zn37 2.761480 1_555
Zn22 Zn67 2.765501 1_555
Zn22 Zn88 2.956012 1_555
Zn23 Zn61 2.566327 1_455
Zn23 Zn83 2.570360 1_555
Zn23 Zn33 2.576607 1_555
Zn23 Zn63 2.616387 1_556
Zn23 Zn57 2.641450 1_556
Zn23 Zn89 2.748437 1_455
Zn23 Zn58 2.763201 1_565
Zn23 Zn32 2.814986 1_465
Zn24 Zn50 2.638961 1_555
Zn24 Zn49 2.651091 1_555
Zn24 Zn82 2.670767 1_555
Zn24 Zn84 2.675114 1_455
Zn24 Zn59 2.684613 1_455
Zn24 Zn81 2.719965 1_555
Zn24 Zn41 2.743732 1_555
Zn24 Zn98 2.856007 1_555
Zn24 Zn44 2.869542 1_555
Zn24 Zn33 2.896436 1_555
Zn24 Zn89 3.015441 1_455
Zn25 Zn51 2.553097 1_555
Zn25 Zn36 2.654878 1_555
Zn25 Zn78 2.678916 1_555
Zn25 Zn74 2.683992 1_555
Zn25 Zn28 2.710653 1_655
Zn25 Zn71 2.804608 1_555
Zn25 Zn40 3.003118 1_555
Zn26 Zn40 2.649473 1_554
Zn26 Zn68 2.654237 1_555
Zn26 Zn35 2.703189 1_655
Zn26 Zn45 2.755418 1_555
Zn26 Zn39 2.778571 1_555
Zn26 Zn34 2.809030 1_555
Zn26 Zn77 2.963549 1_555
Zn26 Zn31 3.149955 1_555
Zn27 Zn33 2.537169 1_555
Zn27 Zn64 2.595298 1_555
Zn27 Zn30 2.647974 1_555
Zn27 Zn55 2.664618 1_555
Zn27 Zn5 2.664618 1_555
Zn27 Zn49 2.683219 1_555
Zn27 Zn52 2.772350 1_555
Zn27 Zn41 2.795273 1_555
Zn27 Zn96 2.901188 1_555
Zn28 Zn51 2.560126 1_455
Zn28 Zn87 2.593370 1_555
Zn28 Zn99 2.601571 1_556
Zn28 Zn46 2.682576 1_456
Zn28 Zn50 2.693620 1_555
Zn28 Zn96 2.879540 1_555
Zn28 Zn29 3.065834 1_555
Zn28 Zn40 3.098266 1_455
Zn29 Zn50 2.589002 1_555
Zn29 Zn4 2.706259 1_555
Zn29 Zn62 2.706418 1_555
Zn29 Zn74 2.706885 1_455
Zn29 Zn82 2.751531 1_555
Zn29 Zn64 2.772967 1_555
Zn30 Zn71 2.626352 1_555
Zn30 Zn54 2.652906 1_555
Zn30 Zn80 2.692095 1_555
Zn30 Zn36 2.718703 1_555
Zn30 Zn42 2.726772 1_555
Zn30 Zn64 2.750578 1_555
Zn30 Zn55 2.842757 1_555
Zn31 Zn85 2.601301 1_554
Zn31 Zn68 2.662973 1_555
Zn31 Zn67 2.672128 1_555
Zn31 Zn37 2.838778 1_555
Zn31 Zn6 2.896282 1_545
Zn31 Zn94 3.038080 1_544
Zn32 Zn86 2.630618 1_545
Zn32 Zn4 2.640526 1_655
Zn32 Zn98 2.642252 1_645
Zn32 Zn85 2.658308 1_555
Zn32 Zn58 2.684545 1_655
Zn32 Zn61 3.000859 1_545
Zn32 Zn89 3.081673 1_545
Zn32 Zn74 3.157308 1_555
Zn33 Zn98 2.553754 1_555
Zn33 Zn96 2.632377 1_555
Zn33 Zn5 2.713272 1_555
Zn33 Zn83 2.722834 1_555
Zn33 Zn50 2.809752 1_555
Zn33 Zn89 2.819037 1_455
Zn34 Zn38 2.572903 1_555
Zn34 Zn82 2.835483 1_655
Zn34 Zn77 2.865729 1_555
Zn34 Zn35 2.873632 1_655
Zn34 Zn78 2.873647 1_555
Zn34 Zn60 2.925424 1_655
Zn34 Zn88 2.971830 1_555
Zn34 Zn39 3.003623 1_555
Zn35 Zn97 2.505385 1_555
Zn35 Zn60 2.555813 1_555
Zn35 Zn47 2.757369 1_555
Zn35 Zn40 2.798830 1_454
Zn35 Zn46 2.933873 1_455
Zn35 Zn99 3.121951 1_555
Zn36 Zn71 2.623820 1_555
Zn36 Zn70 2.697178 1_555
Zn36 Zn75 2.699819 1_555
Zn36 Zn51 2.736028 1_555
Zn36 Zn52 2.822752 1_555
Zn36 Zn80 2.890480 1_555
Zn37 Zn77 2.718450 1_555
Zn37 Zn48 2.728298 1_554
Zn37 Zn80 2.728674 1_554
Zn37 Zn71 2.829855 1_554
Zn37 Zn8 2.861340 1_555
Zn38 Zn70 2.584569 1_554
Zn38 Zn43 2.707508 1_555
Zn38 Zn69 2.759798 1_555
Zn38 Zn46 2.763504 1_555
Zn38 Zn88 2.871294 1_555
Zn38 Zn77 2.971497 1_555
Zn38 Zn59 3.050854 1_555
Zn38 Zn60 3.129719 1_655
Zn39 Zn54 2.518820 1_555
Zn39 Zn93 2.527404 1_555
Zn39 Zn74 2.755532 1_555
Zn39 Zn90 2.789099 1_555
Zn39 Zn68 2.862509 1_555
Zn39 Zn78 3.055102 1_555
Zn39 Zn95 3.109794 1_555
Zn40 Zn77 2.530576 1_556
Zn40 Zn97 2.625060 1_656
Zn40 Zn46 2.868720 1_556
Zn41 Zn44 2.662900 1_555
Zn41 Zn76 2.688433 1_565
Zn41 Zn5 2.719701 1_555
Zn41 Zn53 2.778673 1_565
Zn41 Zn66 2.846397 1_555
Zn41 Zn9 2.903027 1_555
Zn41 Zn49 2.936773 1_555
Zn41 Zn81 2.980087 1_555
Zn42 Zn62 2.648510 1_555
Zn42 Zn79 2.695860 1_555
Zn42 Zn71 2.729167 1_555
Zn42 Zn65 2.819891 1_555
Zn42 Zn90 2.833965 1_555
Zn42 Zn48 2.839913 1_555
Zn42 Zn64 2.922122 1_555
Zn42 Zn92 2.972596 1_555
Zn43 Zn94 2.610581 1_554
Zn43 Zn6 2.619736 1_555
Zn43 Zn59 2.632344 1_555
Zn43 Zn63 2.708170 1_655
Zn43 Zn85 2.713410 1_564
Zn43 Zn69 2.760504 1_555
Zn43 Zn45 2.765838 1_565
Zn43 Zn61 2.803848 1_554
Zn43 Zn70 3.000355 1_554
Zn43 Zn68 3.035322 1_565
Zn44 Zn57 2.624044 1_555
Zn44 Zn49 2.728498 1_555
Zn44 Zn60 2.786575 1_555
Zn44 Zn59 2.806646 1_455
Zn44 Zn63 2.838336 1_555
Zn44 Zn73 2.957226 1_555
Zn44 Zn66 3.048029 1_555
Zn44 Zn81 3.062689 1_555
Zn45 Zn68 2.577562 1_555
Zn45 Zn58 2.605479 1_654
Zn45 Zn85 2.637627 1_554
Zn45 Zn81 2.704630 1_645
Zn45 Zn59 3.022444 1_545
Zn46 Zn99 2.611249 1_655
Zn46 Zn77 2.694664 1_555
Zn46 Zn70 2.696122 1_554
Zn46 Zn60 2.774038 1_655
Zn46 Zn51 2.845612 1_554
Zn46 Zn63 2.980380 1_655
Zn47 Zn65 2.665592 1_555
Zn47 Zn49 2.728278 1_555
Zn47 Zn56 2.769859 1_555
Zn47 Zn62 2.798202 1_555
Zn47 Zn82 2.939789 1_555
Zn48 Zn7 2.614706 1_555
Zn48 Zn87 2.647020 1_555
Zn48 Zn80 2.795468 1_555
Zn48 Zn8 2.812447 1_556
Zn48 Zn79 2.941311 1_555
Zn48 Zn71 2.982525 1_555
Zn49 Zn55 2.663460 1_555
Zn49 Zn65 2.799247 1_555
Zn49 Zn64 2.937285 1_555
Zn49 Zn82 3.024723 1_555
Zn50 Zn82 2.631862 1_555
Zn50 Zn96 2.658959 1_555
Zn50 Zn89 2.695163 1_455
Zn50 Zn64 2.833534 1_555
Zn51 Zn89 2.585287 1_555
Zn51 Zn61 2.643390 1_555
Zn51 Zn70 2.729705 1_555
Zn51 Zn75 2.784150 1_555
Zn52 Zn91 2.774376 1_556
Zn52 Zn72 2.788056 1_555
Zn52 Zn80 2.841244 1_555
Zn52 Zn96 2.901794 1_555
Zn52 Zn75 2.925521 1_555
Zn52 Zn83 3.087944 1_555
Zn53 Zn9 2.603735 1_545
Zn53 Zn76 2.710871 1_555
Zn53 Zn56 2.716510 1_555
Zn53 Zn92 2.718584 1_555
Zn53 Zn90 2.728989 1_555
Zn53 Zn67 2.767309 1_555
Zn53 Zn66 2.864091 1_545
Zn53 Zn95 3.067785 1_555
Zn54 Zn55 2.603844 1_555
Zn54 Zn65 2.655057 1_555
Zn54 Zn90 2.742903 1_555
Zn54 Zn78 2.743385 1_555
Zn54 Zn88 2.813171 1_555
Zn55 Zn9 2.569228 1_555
Zn55 Zn65 2.615813 1_555
Zn55 Zn88 2.691528 1_555
Zn55 Zn73 2.743141 1_555
Zn56 Zn76 2.596585 1_555
Zn56 Zn67 2.640326 1_555
Zn56 Zn62 2.677695 1_555
Zn56 Zn90 2.775294 1_555
Zn56 Zn65 2.783051 1_555
Zn57 Zn83 2.600049 1_554
Zn57 Zn63 2.699112 1_555
Zn57 Zn91 2.744537 1_555
Zn57 Zn66 2.907725 1_555
Zn58 Zn7 2.522790 1_555
Zn58 Zn85 2.649565 1_455
Zn58 Zn97 2.840419 1_556
Zn59 Zn60 2.605252 1_655
Zn59 Zn63 2.616924 1_655
Zn59 Zn84 2.645485 1_555
Zn59 Zn69 2.665678 1_555
Zn59 Zn81 2.708021 1_655
Zn60 Zn82 2.622832 1_555
Zn60 Zn63 2.739571 1_555
Zn60 Zn99 2.784265 1_555
Zn61 Zn89 2.644173 1_555
Zn61 Zn85 2.676543 1_565
Zn61 Zn94 2.681085 1_555
Zn61 Zn70 2.707139 1_555
Zn61 Zn63 2.753679 1_656
Zn61 Zn86 2.890107 1_555
Zn61 Zn75 2.990802 1_555
Zn62 Zn79 2.586754 1_555
Zn62 Zn65 2.607519 1_555
Zn62 Zn64 2.615105 1_555
Zn62 Zn76 2.694162 1_555
Zn63 Zn99 2.764968 1_555
Zn64 Zn87 2.590680 1_555
Zn64 Zn65 2.714691 1_555
Zn64 Zn96 2.765285 1_555
Zn65 Zn90 2.817640 1_555
Zn66 Zn9 2.681293 1_555
Zn66 Zn73 2.761476 1_555
Zn66 Zn91 2.807390 1_555
Zn66 Zn67 2.970624 1_565
Zn67 Zn90 2.709585 1_555
Zn68 Zn95 2.511076 1_555
Zn68 Zn69 2.819333 1_545
Zn68 Zn93 2.833609 1_555
Zn69 Zn84 2.574951 1_555
Zn69 Zn9 2.584312 1_555
Zn69 Zn95 2.746638 1_565
Zn70 Zn94 2.663949 1_555
Zn70 Zn75 2.786785 1_555
Zn71 Zn80 2.661395 1_555
Zn72 Zn94 2.530995 1_555
Zn72 Zn92 2.556024 1_565
Zn72 Zn83 2.589301 1_555
Zn72 Zn91 2.667036 1_556
Zn72 Zn79 2.699221 1_565
Zn72 Zn75 2.702006 1_555
Zn73 Zn88 2.680174 1_555
Zn73 Zn9 2.696944 1_555
Zn73 Zn91 2.776395 1_555
Zn74 Zn78 2.638734 1_555
Zn74 Zn93 2.664144 1_555
Zn75 Zn86 2.660932 1_555
Zn75 Zn94 2.789999 1_555
Zn76 Zn98 2.612762 1_545
Zn76 Zn81 2.775480 1_545
Zn76 Zn79 2.891140 1_555
Zn77 Zn88 2.691403 1_555
Zn78 Zn82 2.708150 1_655
Zn79 Zn92 2.594242 1_555
Zn79 Zn83 2.700756 1_545
Zn80 Zn96 2.759913 1_555
Zn80 Zn87 2.877819 1_555
Zn81 Zn93 2.643119 1_465
Zn81 Zn98 2.645362 1_555
Zn81 Zn84 2.803006 1_455
Zn84 Zn95 2.567714 1_565
Zn84 Zn89 2.644662 1_555
Zn84 Zn98 2.680576 1_655
Zn84 Zn93 2.694175 1_565
Zn85 Zn94 2.792604 1_545
Zn86 Zn92 2.740922 1_565
Zn86 Zn95 2.773953 1_565
Zn86 Zn89 2.974479 1_555
Zn86 Zn94 3.173166 1_555
Zn87 Zn96 2.724196 1_555
Zn87 Zn97 2.751076 1_556
Zn89 Zn98 2.574846 1_655
Zn90 Zn95 2.723782 1_555
Zn90 Zn92 2.868268 1_555
Zn91 Zn94 2.835587 1_554
Zn92 Zn95 2.466486 1_555
Zn93 Zn98 2.558802 1_645
Zn93 Zn95 2.975611 1_555
Zn96 Zn99 2.716235 1_556
