# generated using pymatgen
data_CaCo4(CuO4)3
_symmetry_space_group_name_H-M   'P 1'
_cell_length_a   6.35780680
_cell_length_b   6.33358038
_cell_length_c   6.36296385
_cell_angle_alpha   70.47759718
_cell_angle_beta   109.41342142
_cell_angle_gamma   70.64136843
_symmetry_Int_Tables_number   1
_chemical_formula_structural   CaCo4(CuO4)3
_chemical_formula_sum   'Ca1 Co4 Cu3 O12'
_cell_volume   197.52895468
_cell_formula_units_Z   1
loop_
 _symmetry_equiv_pos_site_id
 _symmetry_equiv_pos_as_xyz
  1  'x, y, z'
loop_
 _atom_site_type_symbol
 _atom_site_label
 _atom_site_symmetry_multiplicity
 _atom_site_fract_x
 _atom_site_fract_y
 _atom_site_fract_z
 _atom_site_occupancy
  Ca  Ca0  1  0.99999600  0.00000400  0.99999400  1
  Co  Co0  1  0.49999800  0.50000200  0.49999700  1
  Co  Co1  1  0.50000000  0.00000000  0.00000100  1
  Co  Co2  1  0.99999800  0.50000000  0.00000200  1
  Co  Co3  1  0.99999900  0.99999900  0.49999800  1
  Cu  Cu0  1  0.50000800  0.99999600  0.49999700  1
  Cu  Cu1  1  0.00000900  0.49999500  0.50001100  1
  Cu  Cu2  1  0.50000200  0.49999900  0.00000500  1
  O  O0  1  0.17040100  0.13818100  0.69334700  1
  O  O1  1  0.82960000  0.86181300  0.30665700  1
  O  O2  1  0.17362300  0.51653400  0.31447600  1
  O  O3  1  0.30942200  0.17426500  0.14048500  1
  O  O4  1  0.85992700  0.30972100  0.16797300  1
  O  O5  1  0.51516500  0.30575000  0.83457700  1
  O  O6  1  0.68542200  0.17591400  0.51939900  1
  O  O7  1  0.14007300  0.69027800  0.83202800  1
  O  O8  1  0.82637300  0.48346600  0.68552400  1
  O  O9  1  0.69057300  0.82574000  0.85950700  1
  O  O10  1  0.48483300  0.69425300  0.16542600  1
  O  O11  1  0.31457800  0.82408900  0.48059700  1
loop_
_geom_bond_atom_site_label_1
_geom_bond_atom_site_label_2
_geom_bond_distance
_geom_bond_site_symmetry_2
Ca0 O0 2.576693 1_655
Ca0 O1 2.576747 1_546
Ca0 O7 2.580565 1_645
Ca0 O4 2.580574 1_556
Ca0 O6 2.602432 1_555
Ca0 O11 2.602476 1_646
Ca0 O8 2.606587 1_555
Ca0 O2 2.606639 1_646
Ca0 O9 2.610979 1_545
Ca0 O3 2.610985 1_656
Ca0 O5 2.623555 1_555
Ca0 O10 2.623569 1_646
Co0 O11 1.935964 1_555
Co0 O6 1.935969 1_555
Co0 O8 1.963467 1_555
Co0 O2 1.963470 1_555
Co0 O10 2.022227 1_555
Co0 O5 2.022270 1_555
Co1 O10 1.922534 1_545
Co1 O5 1.922541 1_554
Co1 O0 1.972098 1_554
Co1 O1 1.972099 1_545
Co1 O3 1.994535 1_555
Co1 O9 1.994554 1_544
Co2 O3 1.957850 1_655
Co2 O9 1.957854 1_554
Co2 O4 1.967521 1_555
Co2 O7 1.967548 1_654
Co2 O2 1.995440 1_655
Co2 O8 1.995461 1_554
Co3 O1 1.978725 1_555
Co3 O0 1.978744 1_665
Co3 O4 1.981358 1_565
Co3 O7 1.981370 1_655
Co3 O6 2.008839 1_565
Co3 O11 2.008842 1_655
Cu0 O9 1.871519 1_555
Cu0 O3 1.871533 1_565
Cu0 O6 1.874097 1_565
Cu0 O11 1.874121 1_555
Cu1 O8 1.866364 1_455
Cu1 O2 1.866365 1_555
Cu1 O0 1.876810 1_555
Cu1 O1 1.876832 1_455
Cu2 O10 1.866876 1_555
Cu2 O5 1.866885 1_554
Cu2 O4 1.875141 1_555
Cu2 O7 1.875159 1_554
