# generated using pymatgen
data_ErCo4B
_symmetry_space_group_name_H-M   'P 1'
_cell_length_a   4.96718900
_cell_length_b   4.96718937
_cell_length_c   6.84384300
_cell_angle_alpha   90.00000000
_cell_angle_beta   90.00000000
_cell_angle_gamma   120.00000418
_symmetry_Int_Tables_number   1
_chemical_formula_structural   ErCo4B
_chemical_formula_sum   'Er2 Co8 B2'
_cell_volume   146.23524403
_cell_formula_units_Z   2
loop_
 _symmetry_equiv_pos_site_id
 _symmetry_equiv_pos_as_xyz
  1  'x, y, z'
loop_
 _atom_site_type_symbol
 _atom_site_label
 _atom_site_symmetry_multiplicity
 _atom_site_fract_x
 _atom_site_fract_y
 _atom_site_fract_z
 _atom_site_occupancy
  Er  Er0  1  0.00000000  0.00000000  0.00000000  1
  Er  Er1  1  0.00000000  0.00000000  0.50000000  1
  Co  Co0  1  0.66666700  0.33333300  0.00000000  1
  Co  Co1  1  0.33333300  0.66666700  0.00000000  1
  Co  Co2  1  0.50000000  0.50000000  0.71187100  1
  Co  Co3  1  0.50000000  0.00000000  0.71187100  1
  Co  Co4  1  0.00000000  0.50000000  0.71187100  1
  Co  Co5  1  0.50000000  0.50000000  0.28812900  1
  Co  Co6  1  0.50000000  0.00000000  0.28812900  1
  Co  Co7  1  0.00000000  0.50000000  0.28812900  1
  B  B0  1  0.66666700  0.33333300  0.50000000  1
  B  B1  1  0.33333300  0.66666700  0.50000000  1
loop_
_geom_bond_atom_site_label_1
_geom_bond_atom_site_label_2
_geom_bond_distance
_geom_bond_site_symmetry_2
Co0 Co7 2.438135 1_655
Co0 Co4 2.438135 1_654
Co0 Co6 2.438135 1_555
Co0 Co3 2.438135 1_554
Co0 Co5 2.438138 1_555
Co0 Co2 2.438138 1_554
Co0 Er0 2.867805 1_655
Co0 Er0 2.867809 1_555
Co0 Er0 2.867809 1_665
Co1 Co7 2.438135 1_555
Co1 Co4 2.438135 1_554
Co1 Co6 2.438135 1_565
Co1 Co3 2.438135 1_564
Co1 Co5 2.438138 1_555
Co1 Co2 2.438138 1_554
Co1 Er0 2.867805 1_565
Co1 Er0 2.867809 1_665
Co1 Er0 2.867809 1_555
Co2 Er1 2.875896 1_555
Co2 Er1 2.875896 1_665
Co3 Er1 2.875896 1_655
Co3 Er1 2.875896 1_555
Co4 Er1 2.875896 1_565
Co4 Er1 2.875896 1_555
Co5 Er1 2.875896 1_665
Co5 Er1 2.875896 1_555
Co6 Er1 2.875896 1_655
Co6 Er1 2.875896 1_555
Co7 Er1 2.875896 1_555
Co7 Er1 2.875896 1_565
B0 Co4 2.039267 1_655
B0 Co7 2.039267 1_655
B0 Co3 2.039267 1_555
B0 Co6 2.039267 1_555
B0 Co2 2.039270 1_555
B0 Co5 2.039270 1_555
B0 Er1 2.867805 1_655
B0 Er1 2.867809 1_555
B0 Er1 2.867809 1_665
B1 Co4 2.039267 1_555
B1 Co7 2.039267 1_555
B1 Co3 2.039267 1_565
B1 Co6 2.039267 1_565
B1 Co2 2.039270 1_555
B1 Co5 2.039270 1_555
B1 Er1 2.867805 1_565
B1 Er1 2.867809 1_665
B1 Er1 2.867809 1_555
