# generated using pymatgen
data_SrCaMg14O16
_symmetry_space_group_name_H-M   'P 1'
_cell_length_a   4.43347300
_cell_length_b   8.68766600
_cell_length_c   8.84461800
_cell_angle_alpha   90.00000000
_cell_angle_beta   90.00000000
_cell_angle_gamma   90.00000000
_symmetry_Int_Tables_number   1
_chemical_formula_structural   SrCaMg14O16
_chemical_formula_sum   'Sr1 Ca1 Mg14 O16'
_cell_volume   340.66401792
_cell_formula_units_Z   1
loop_
 _symmetry_equiv_pos_site_id
 _symmetry_equiv_pos_as_xyz
  1  'x, y, z'
loop_
 _atom_site_type_symbol
 _atom_site_label
 _atom_site_symmetry_multiplicity
 _atom_site_fract_x
 _atom_site_fract_y
 _atom_site_fract_z
 _atom_site_occupancy
  Sr  Sr0  1  0.00000000  0.00000000  0.50000000  1
  Ca  Ca0  1  0.00000000  0.00000000  0.00000000  1
  Mg  Mg0  1  0.00000000  0.50000000  0.00000000  1
  Mg  Mg1  1  0.00000000  0.50000000  0.50000000  1
  Mg  Mg2  1  0.50000000  0.00000000  0.24572500  1
  Mg  Mg3  1  0.50000000  0.00000000  0.75427500  1
  Mg  Mg4  1  0.50000000  0.50000000  0.24939600  1
  Mg  Mg5  1  0.50000000  0.50000000  0.75060400  1
  Mg  Mg6  1  0.50000000  0.25702600  0.00000000  1
  Mg  Mg7  1  0.50000000  0.25981000  0.50000000  1
  Mg  Mg8  1  0.50000000  0.74297400  0.00000000  1
  Mg  Mg9  1  0.50000000  0.74019000  0.50000000  1
  Mg  Mg10  1  0.00000000  0.25847200  0.24741900  1
  Mg  Mg11  1  0.00000000  0.25847200  0.75258000  1
  Mg  Mg12  1  0.00000000  0.74152800  0.24741900  1
  Mg  Mg13  1  0.00000000  0.74152800  0.75258000  1
  O  O0  1  0.00000000  0.26568900  0.00000000  1
  O  O1  1  0.00000000  0.27248800  0.50000000  1
  O  O2  1  0.00000000  0.73431100  0.00000000  1
  O  O3  1  0.00000000  0.72751200  0.50000000  1
  O  O4  1  0.50000000  0.25086900  0.24971400  1
  O  O5  1  0.50000000  0.25086900  0.75028600  1
  O  O6  1  0.50000000  0.74913100  0.24971400  1
  O  O7  1  0.50000000  0.74913100  0.75028600  1
  O  O8  1  0.50000000  0.00000000  0.00000000  1
  O  O9  1  0.50000000  0.00000000  0.50000000  1
  O  O10  1  0.50000000  0.50000000  0.00000000  1
  O  O11  1  0.50000000  0.50000000  0.50000000  1
  O  O12  1  0.00000000  0.00000000  0.24216400  1
  O  O13  1  0.00000000  0.00000000  0.75783600  1
  O  O14  1  0.00000000  0.50000000  0.24764800  1
  O  O15  1  0.00000000  0.50000000  0.75235200  1
loop_
_geom_bond_atom_site_label_1
_geom_bond_atom_site_label_2
_geom_bond_distance
_geom_bond_site_symmetry_2
Ca0 O12 2.141848 1_555
Ca0 O13 2.141848 1_554
Ca0 O8 2.216737 1_555
Ca0 O8 2.216737 1_455
Ca0 O0 2.308217 1_555
Ca0 O2 2.308217 1_545
Mg0 O2 2.035616 1_555
Mg0 O0 2.035616 1_555
Mg0 O14 2.190352 1_555
Mg0 O15 2.190352 1_554
Mg0 O10 2.216737 1_455
Mg0 O10 2.216737 1_555
Mg1 O3 1.976548 1_555
Mg1 O1 1.976548 1_555
Mg1 O11 2.216737 1_555
Mg1 O11 2.216737 1_455
Mg1 O15 2.231957 1_555
Mg1 O14 2.231957 1_555
Mg2 O8 2.173344 1_555
Mg2 O4 2.179752 1_555
Mg2 O6 2.179752 1_545
Mg2 O12 2.216960 1_655
Mg2 O12 2.216960 1_555
Mg2 O9 2.248965 1_555
Mg3 O8 2.173344 1_556
Mg3 O5 2.179752 1_555
Mg3 O7 2.179752 1_545
Mg3 O13 2.216960 1_655
Mg3 O13 2.216960 1_555
Mg3 O9 2.248965 1_555
Mg4 O4 2.164369 1_555
Mg4 O6 2.164369 1_555
Mg4 O10 2.205812 1_555
Mg4 O11 2.216497 1_555
Mg4 O14 2.216790 1_555
Mg4 O14 2.216790 1_655
Mg5 O5 2.164369 1_555
Mg5 O7 2.164369 1_555
Mg5 O10 2.205812 1_556
Mg5 O11 2.216497 1_555
Mg5 O15 2.216790 1_555
Mg5 O15 2.216790 1_655
Mg6 O10 2.110877 1_555
Mg6 O4 2.209273 1_555
Mg6 O5 2.209273 1_554
Mg6 O0 2.218014 1_555
Mg6 O0 2.218014 1_655
Mg6 O8 2.232956 1_555
Mg7 O11 2.086690 1_555
Mg7 O4 2.215046 1_555
Mg7 O5 2.215046 1_555
Mg7 O1 2.219471 1_655
Mg7 O1 2.219471 1_555
Mg7 O9 2.257143 1_555
Mg8 O10 2.110877 1_555
Mg8 O6 2.209273 1_555
Mg8 O7 2.209273 1_554
Mg8 O2 2.218014 1_655
Mg8 O2 2.218014 1_555
Mg8 O8 2.232956 1_565
Mg9 O11 2.086690 1_555
Mg9 O6 2.215046 1_555
Mg9 O7 2.215046 1_555
Mg9 O3 2.219471 1_655
Mg9 O3 2.219471 1_555
Mg9 O9 2.257143 1_565
Mg10 O14 2.098316 1_555
Mg10 O0 2.189225 1_555
Mg10 O4 2.217813 1_555
Mg10 O4 2.217813 1_455
Mg10 O1 2.237299 1_555
Mg10 O12 2.245999 1_555
Mg11 O15 2.098316 1_555
Mg11 O0 2.189233 1_556
Mg11 O5 2.217813 1_455
Mg11 O5 2.217813 1_555
Mg11 O1 2.237290 1_555
Mg11 O13 2.246000 1_555
Mg12 O14 2.098316 1_555
Mg12 O2 2.189225 1_555
Mg12 O6 2.217813 1_455
Mg12 O6 2.217813 1_555
Mg12 O3 2.237299 1_555
Mg12 O12 2.245999 1_565
Mg13 O15 2.098316 1_555
Mg13 O2 2.189233 1_556
Mg13 O7 2.217813 1_455
Mg13 O7 2.217813 1_555
Mg13 O3 2.237290 1_555
Mg13 O13 2.246000 1_565
O1 Sr0 2.367285 1_555
O3 Sr0 2.367285 1_565
O9 Sr0 2.216737 1_655
O9 Sr0 2.216737 1_555
O12 Sr0 2.280461 1_555
O13 Sr0 2.280461 1_555
