# generated using pymatgen
data_Li3Co2(CO3)4
_symmetry_space_group_name_H-M   'P 1'
_cell_length_a   6.38846806
_cell_length_b   8.59275453
_cell_length_c   9.92574386
_cell_angle_alpha   107.08791305
_cell_angle_beta   99.98712235
_cell_angle_gamma   97.36253831
_symmetry_Int_Tables_number   1
_chemical_formula_structural   Li3Co2(CO3)4
_chemical_formula_sum   'Li6 Co4 C8 O24'
_cell_volume   503.55447783
_cell_formula_units_Z   2
loop_
 _symmetry_equiv_pos_site_id
 _symmetry_equiv_pos_as_xyz
  1  'x, y, z'
loop_
 _atom_site_type_symbol
 _atom_site_label
 _atom_site_symmetry_multiplicity
 _atom_site_fract_x
 _atom_site_fract_y
 _atom_site_fract_z
 _atom_site_occupancy
  Li  Li0  1  0.36647600  0.30835700  0.41494300  1
  Li  Li1  1  0.87964600  0.31873000  0.91823900  1
  Li  Li2  1  0.77934900  0.67594500  0.73311500  1
  Li  Li3  1  0.28484600  0.67484200  0.22889100  1
  Li  Li4  1  0.05747800  0.85871000  0.53805800  1
  Li  Li5  1  0.55828200  0.84163300  0.02899100  1
  Co  Co0  1  0.56222200  0.00264100  0.57015900  1
  Co  Co1  1  0.69248600  0.47948500  0.17535600  1
  Co  Co2  1  0.07148000  0.00166500  0.06933600  1
  Co  Co3  1  0.16684500  0.49293900  0.66032300  1
  C  C0  1  0.74839300  0.20545500  0.13403700  1
  C  C1  1  0.24548600  0.21360000  0.63916500  1
  C  C2  1  0.74898900  0.29621100  0.62656600  1
  C  C3  1  0.25968300  0.29970600  0.13306300  1
  C  C4  1  0.41418800  0.69718000  0.53605600  1
  C  C5  1  0.92516700  0.69691400  0.04482500  1
  C  C6  1  0.22290700  0.78852400  0.82754500  1
  C  C7  1  0.71296000  0.79541200  0.32761200  1
  O  O0  1  0.77659200  0.05712000  0.11061700  1
  O  O1  1  0.28273500  0.06813700  0.63104600  1
  O  O2  1  0.14758500  0.24794500  0.52780800  1
  O  O3  1  0.64390600  0.25642200  0.03376300  1
  O  O4  1  0.59685300  0.23155100  0.51372100  1
  O  O5  1  0.10459400  0.24365700  0.02120200  1
  O  O6  1  0.29929500  0.20236700  0.20947300  1
  O  O7  1  0.79219200  0.20955800  0.71129400  1
  O  O8  1  0.85777700  0.44852300  0.65866500  1
  O  O9  1  0.37559700  0.45046000  0.17430800  1
  O  O10  1  0.82099200  0.32404100  0.25669600  1
  O  O11  1  0.30381400  0.33918000  0.75743100  1
  O  O12  1  0.34222000  0.54380800  0.52684600  1
  O  O13  1  0.86520200  0.54496500  0.04321000  1
  O  O14  1  0.08533600  0.75091900  0.70329200  1
  O  O15  1  0.57925800  0.77815000  0.20992200  1
  O  O16  1  0.57669000  0.78802600  0.63732400  1
  O  O17  1  0.08305400  0.79706000  0.14499400  1
  O  O18  1  0.79821600  0.66664300  0.34117900  1
  O  O19  1  0.32251400  0.67018300  0.84738700  1
  O  O20  1  0.32338000  0.76272100  0.44460400  1
  O  O21  1  0.83079300  0.75143500  0.94630200  1
  O  O22  1  0.26387200  0.92801300  0.92779600  1
  O  O23  1  0.77343500  0.92679900  0.43872000  1
loop_
_geom_bond_atom_site_label_1
_geom_bond_atom_site_label_2
_geom_bond_distance
_geom_bond_site_symmetry_2
Li0 O6 1.917718 1_555
Li0 O4 1.921358 1_555
Li0 O12 2.042149 1_555
Li0 O2 2.044263 1_555
Li1 O5 1.908240 1_656
Li1 O7 1.935621 1_555
Li1 O13 1.998703 1_556
Li1 O3 2.150042 1_556
Li2 O21 1.975829 1_555
Li2 O16 1.984560 1_555
Li2 O8 2.036332 1_555
Li2 O14 2.076987 1_655
Li3 O17 1.986659 1_555
Li3 O20 2.008619 1_555
Li3 O9 2.031900 1_555
Li3 O15 2.038177 1_555
Li4 O1 2.015101 1_565
Li4 O14 2.100743 1_555
Li4 O23 2.144252 1_455
Li4 O20 2.209609 1_555
Li4 O18 2.359506 1_455
Li5 O15 2.012874 1_555
Li5 O0 2.023519 1_565
Li5 O19 2.148765 1_554
Li5 O21 2.184663 1_554
Li5 O22 2.288666 1_554
Co0 O23 2.069724 1_545
Co0 O1 2.074101 1_555
Co0 O7 2.105947 1_555
Co0 O16 2.144440 1_545
Co0 O4 2.193336 1_555
Co0 O20 2.270622 1_545
Co1 O18 1.879366 1_555
Co1 O10 1.948013 1_555
Co1 O3 1.964311 1_555
Co1 O9 2.005596 1_555
Co1 O13 2.007747 1_555
Co2 O22 2.039774 1_544
Co2 O6 2.066865 1_555
Co2 O0 2.080153 1_455
Co2 O17 2.109587 1_545
Co2 O5 2.258976 1_555
Co2 O21 2.331751 1_444
Co3 O8 1.958666 1_455
Co3 O12 1.982730 1_555
Co3 O19 2.016326 1_555
Co3 O11 2.047551 1_555
Co3 O2 2.104082 1_555
Co3 O14 2.276911 1_555
C0 O0 1.269000 1_555
C0 O10 1.299863 1_555
C0 O3 1.314772 1_555
C1 O1 1.284184 1_555
C1 O11 1.296943 1_555
C1 O2 1.303527 1_555
C2 O4 1.275212 1_555
C2 O7 1.295379 1_555
C2 O8 1.320017 1_555
C3 O5 1.276033 1_555
C3 O6 1.303574 1_555
C3 O9 1.315804 1_555
C4 O16 1.291002 1_555
C4 O20 1.295838 1_555
C4 O12 1.309922 1_555
C5 O17 1.293571 1_655
C5 O21 1.294765 1_554
C5 O13 1.307340 1_555
C6 O22 1.274223 1_555
C6 O14 1.309548 1_555
C6 O19 1.310654 1_555
C7 O15 1.278980 1_555
C7 O23 1.284060 1_555
C7 O18 1.325014 1_555
