# generated using pymatgen
data_Na2B4O11
_symmetry_space_group_name_H-M   'P 1'
_cell_length_a   9.32052200
_cell_length_b   7.15826500
_cell_length_c   14.95858873
_cell_angle_alpha   84.83217004
_cell_angle_beta   90.00000000
_cell_angle_gamma   90.00000000
_symmetry_Int_Tables_number   1
_chemical_formula_structural   Na2B4O11
_chemical_formula_sum   'Na8 B16 O44'
_cell_volume   993.96177079
_cell_formula_units_Z   4
loop_
 _symmetry_equiv_pos_site_id
 _symmetry_equiv_pos_as_xyz
  1  'x, y, z'
loop_
 _atom_site_type_symbol
 _atom_site_label
 _atom_site_symmetry_multiplicity
 _atom_site_fract_x
 _atom_site_fract_y
 _atom_site_fract_z
 _atom_site_occupancy
  Na  Na0  1  0.99055700  0.76260100  0.78466600  1
  Na  Na1  1  0.49055700  0.23739900  0.71533400  1
  Na  Na2  1  0.00944300  0.23739900  0.21533400  1
  Na  Na3  1  0.50944300  0.76260100  0.28466600  1
  Na  Na4  1  0.74948700  0.71379800  0.62134700  1
  Na  Na5  1  0.24948700  0.28620200  0.87865300  1
  Na  Na6  1  0.25051300  0.28620200  0.37865300  1
  Na  Na7  1  0.75051300  0.71379800  0.12134700  1
  B  B0  1  0.66390200  0.49590600  0.93011300  1
  B  B1  1  0.16390200  0.50409400  0.56988700  1
  B  B2  1  0.33609800  0.50409400  0.06988700  1
  B  B3  1  0.83609800  0.49590600  0.43011300  1
  B  B4  1  0.75093800  0.44229200  0.77791700  1
  B  B5  1  0.25093800  0.55770800  0.72208300  1
  B  B6  1  0.24906200  0.55770800  0.22208300  1
  B  B7  1  0.74906200  0.44229200  0.27791700  1
  B  B8  1  0.99516100  0.41999400  0.69779700  1
  B  B9  1  0.49516100  0.58000600  0.80220300  1
  B  B10  1  0.00483900  0.58000600  0.30220300  1
  B  B11  1  0.50483900  0.41999400  0.19779700  1
  B  B12  1  0.83806000  0.13931000  0.72786600  1
  B  B13  1  0.33806000  0.86069000  0.77213400  1
  B  B14  1  0.16194000  0.86069000  0.27213400  1
  B  B15  1  0.66194000  0.13931000  0.22786600  1
  O  O0  1  0.52570900  0.51595600  0.89776900  1
  O  O1  1  0.02570900  0.48404400  0.60223100  1
  O  O2  1  0.47429100  0.48404400  0.10223100  1
  O  O3  1  0.97429100  0.51595600  0.39776900  1
  O  O4  1  0.61702100  0.53727800  0.74442000  1
  O  O5  1  0.11702100  0.46272200  0.75558000  1
  O  O6  1  0.38297900  0.46272200  0.25558000  1
  O  O7  1  0.88297900  0.53727800  0.24442000  1
  O  O8  1  0.72941500  0.23896900  0.76468900  1
  O  O9  1  0.22941500  0.76103100  0.73531100  1
  O  O10  1  0.27058500  0.76103100  0.23531100  1
  O  O11  1  0.77058500  0.23896900  0.26468900  1
  O  O12  1  0.86998400  0.52190900  0.72499700  1
  O  O13  1  0.36998400  0.47809100  0.77500300  1
  O  O14  1  0.13001600  0.47809100  0.27500300  1
  O  O15  1  0.63001600  0.52190900  0.22499700  1
  O  O16  1  0.97433800  0.21358200  0.71127400  1
  O  O17  1  0.47433800  0.78641800  0.78872600  1
  O  O18  1  0.02566200  0.78641800  0.28872600  1
  O  O19  1  0.52566200  0.21358200  0.21127400  1
  O  O20  1  0.82108400  0.96058900  0.70581400  1
  O  O21  1  0.32108400  0.03941100  0.79418600  1
  O  O22  1  0.17891600  0.03941100  0.29418600  1
  O  O23  1  0.67891600  0.96058900  0.20581400  1
  O  O24  1  0.80164000  0.50038900  0.51927300  1
  O  O25  1  0.30164000  0.49961100  0.98072700  1
  O  O26  1  0.19836000  0.49961100  0.48072700  1
  O  O27  1  0.69836000  0.50038900  0.01927300  1
  O  O28  1  0.50873700  0.10562700  0.56019600  1
  O  O29  1  0.00873700  0.89437300  0.93980400  1
  O  O30  1  0.49126300  0.89437300  0.43980400  1
  O  O31  1  0.99126300  0.10562700  0.06019600  1
  O  O32  1  0.77747400  0.47189200  0.87357300  1
  O  O33  1  0.27747400  0.52810800  0.62642700  1
  O  O34  1  0.22252600  0.52810800  0.12642700  1
  O  O35  1  0.72252600  0.47189200  0.37357300  1
  O  O36  1  0.56065100  0.97593000  0.98943400  1
  O  O37  1  0.06065100  0.02407000  0.51056600  1
  O  O38  1  0.43934900  0.02407000  0.01056600  1
  O  O39  1  0.93934900  0.97593000  0.48943400  1
  O  O40  1  0.54275600  0.93838200  0.57485100  1
  O  O41  1  0.04275600  0.06161800  0.92514900  1
  O  O42  1  0.45724400  0.06161800  0.42514900  1
  O  O43  1  0.95724400  0.93838200  0.07485100  1
loop_
_geom_bond_atom_site_label_1
_geom_bond_atom_site_label_2
_geom_bond_distance
_geom_bond_site_symmetry_2
Na0 O12 2.303292 1_555
Na0 O9 2.345849 1_655
Na0 O20 2.365115 1_555
Na0 O5 2.520884 1_655
Na0 O29 2.588084 1_655
Na1 O13 2.303292 1_555
Na1 O8 2.345849 1_555
Na1 O21 2.365115 1_555
Na1 O4 2.520884 1_555
Na1 O28 2.588084 1_555
Na2 O14 2.303292 1_555
Na2 O11 2.345849 1_455
Na2 O22 2.365115 1_555
Na2 O7 2.520884 1_455
Na2 O31 2.588084 1_455
Na3 O15 2.303292 1_555
Na3 O10 2.345849 1_555
Na3 O23 2.365115 1_555
Na3 O6 2.520884 1_555
Na3 O30 2.588084 1_555
Na4 O12 2.273403 1_555
Na4 O24 2.306845 1_555
Na4 O20 2.358969 1_555
Na4 O4 2.468036 1_555
Na4 O40 2.565055 1_555
Na5 O13 2.273403 1_555
Na5 O25 2.306845 1_555
Na5 O21 2.358969 1_555
Na5 O5 2.468036 1_555
Na5 O41 2.565055 1_555
Na6 O14 2.273403 1_555
Na6 O26 2.306845 1_555
Na6 O22 2.358969 1_555
Na6 O6 2.468036 1_555
Na6 O42 2.565055 1_555
Na7 O15 2.273403 1_555
Na7 O27 2.306845 1_555
Na7 O23 2.358969 1_555
Na7 O7 2.468036 1_555
Na7 O43 2.565055 1_555
B0 O27 1.375014 1_556
B0 O32 1.375346 1_555
B0 O0 1.378838 1_555
B1 O26 1.375014 1_555
B1 O33 1.375346 1_555
B1 O1 1.378838 1_555
B2 O25 1.375014 1_554
B2 O34 1.375346 1_555
B2 O2 1.378838 1_555
B3 O24 1.375014 1_555
B3 O35 1.375346 1_555
B3 O3 1.378838 1_555
B4 O12 1.449595 1_555
B4 O32 1.485967 1_555
B4 O4 1.486590 1_555
B4 O8 1.499861 1_555
B5 O13 1.449595 1_555
B5 O33 1.485967 1_555
B5 O5 1.486590 1_555
B5 O9 1.499861 1_555
B6 O14 1.449595 1_555
B6 O34 1.485967 1_555
B6 O6 1.486590 1_555
B6 O10 1.499861 1_555
B7 O15 1.449595 1_555
B7 O35 1.485967 1_555
B7 O7 1.486590 1_555
B7 O11 1.499861 1_555
B8 O12 1.453432 1_555
B8 O5 1.475913 1_655
B8 O16 1.485869 1_555
B8 O1 1.488882 1_655
B9 O13 1.453432 1_555
B9 O4 1.475913 1_555
B9 O17 1.485869 1_555
B9 O0 1.488882 1_555
B10 O14 1.453432 1_555
B10 O7 1.475913 1_455
B10 O18 1.485869 1_555
B10 O3 1.488882 1_455
B11 O15 1.453432 1_555
B11 O6 1.475913 1_555
B11 O19 1.485869 1_555
B11 O2 1.488882 1_555
B12 O20 1.358883 1_545
B12 O8 1.381494 1_555
B12 O16 1.390630 1_555
B13 O21 1.358883 1_565
B13 O9 1.381494 1_555
B13 O17 1.390630 1_555
B14 O22 1.358883 1_565
B14 O10 1.381494 1_555
B14 O18 1.390630 1_555
B15 O23 1.358883 1_545
B15 O11 1.381494 1_555
B15 O19 1.390630 1_555
O28 O40 1.238775 1_545
O29 O41 1.238775 1_565
O30 O42 1.238775 1_565
O31 O43 1.238775 1_545
O36 O38 1.231481 1_566
O37 O39 1.231481 1_445
