# generated using pymatgen
data_MnCdF5
_symmetry_space_group_name_H-M   'P 1'
_cell_length_a   6.40932600
_cell_length_b   8.00950932
_cell_length_c   9.04282133
_cell_angle_alpha   115.81662836
_cell_angle_beta   90.00000000
_cell_angle_gamma   90.00000000
_symmetry_Int_Tables_number   1
_chemical_formula_structural   MnCdF5
_chemical_formula_sum   'Mn4 Cd4 F20'
_cell_volume   417.88576269
_cell_formula_units_Z   4
loop_
 _symmetry_equiv_pos_site_id
 _symmetry_equiv_pos_as_xyz
  1  'x, y, z'
loop_
 _atom_site_type_symbol
 _atom_site_label
 _atom_site_symmetry_multiplicity
 _atom_site_fract_x
 _atom_site_fract_y
 _atom_site_fract_z
 _atom_site_occupancy
  Mn  Mn0  1  0.50000000  0.00000000  0.50000000  1
  Mn  Mn1  1  0.00000000  0.50000000  0.00000000  1
  Mn  Mn2  1  0.50000000  0.50000000  0.50000000  1
  Mn  Mn3  1  0.00000000  0.00000000  0.00000000  1
  Cd  Cd0  1  0.54161300  0.24868900  0.99941300  1
  Cd  Cd1  1  0.04161300  0.75131100  0.50058700  1
  Cd  Cd2  1  0.95838700  0.24868900  0.49941300  1
  Cd  Cd3  1  0.45838700  0.75131100  0.00058700  1
  F  F0  1  0.70490400  0.94790900  0.97893400  1
  F  F1  1  0.79509600  0.94790900  0.47893400  1
  F  F2  1  0.60596600  0.25168700  0.50267400  1
  F  F3  1  0.89403400  0.25168700  0.00267400  1
  F  F4  1  0.70323800  0.54874800  0.00689500  1
  F  F5  1  0.29509600  0.05209100  0.02106600  1
  F  F6  1  0.79676200  0.54874800  0.50689500  1
  F  F7  1  0.03073100  0.89838000  0.77262900  1
  F  F8  1  0.51064200  0.38640600  0.27192300  1
  F  F9  1  0.96926900  0.10162000  0.22737100  1
  F  F10  1  0.20323800  0.45125200  0.49310500  1
  F  F11  1  0.39403400  0.74831300  0.49732600  1
  F  F12  1  0.46926900  0.89838000  0.27262900  1
  F  F13  1  0.53073100  0.10162000  0.72737100  1
  F  F14  1  0.48935800  0.61359400  0.72807700  1
  F  F15  1  0.20490400  0.05209100  0.52106600  1
  F  F16  1  0.10596600  0.74831300  0.99732600  1
  F  F17  1  0.98935800  0.38640600  0.77192300  1
  F  F18  1  0.29676200  0.45125200  0.99310500  1
  F  F19  1  0.01064200  0.61359400  0.22807700  1
loop_
_geom_bond_atom_site_label_1
_geom_bond_atom_site_label_2
_geom_bond_distance
_geom_bond_site_symmetry_2
Cd0 F13 2.218160 1_555
Cd0 F8 2.227372 1_556
Cd0 F3 2.258965 1_556
Cd0 F18 2.275728 1_555
Cd0 F5 2.298444 1_556
Cd0 F0 2.558285 1_545
Cd0 F4 2.590758 1_556
Cd1 F7 2.218160 1_555
Cd1 F19 2.227372 1_555
Cd1 F11 2.258965 1_555
Cd1 F6 2.275728 1_455
Cd1 F1 2.298444 1_455
Cd1 F15 2.558285 1_565
Cd1 F10 2.590758 1_555
Cd2 F9 2.218160 1_555
Cd2 F17 2.227372 1_555
Cd2 F2 2.258965 1_555
Cd2 F10 2.275728 1_655
Cd2 F15 2.298444 1_655
Cd2 F1 2.558285 1_545
Cd2 F6 2.590758 1_555
Cd3 F12 2.218160 1_555
Cd3 F14 2.227372 1_554
Cd3 F16 2.258965 1_554
Cd3 F4 2.275728 1_555
Cd3 F0 2.298444 1_554
Cd3 F5 2.558285 1_565
Cd3 F18 2.590758 1_554
F0 Mn3 1.928317 1_666
F1 Mn0 1.928317 1_565
F2 Mn2 2.111713 1_555
F2 Mn0 2.117359 1_555
F3 Mn1 2.111713 1_655
F3 Mn3 2.117359 1_655
F4 Mn1 1.937242 1_655
F5 Mn3 1.928317 1_555
F6 Mn2 1.937242 1_555
F7 Mn3 1.863097 1_566
F8 Mn2 1.857899 1_555
F9 Mn3 1.863097 1_655
F10 Mn2 1.937242 1_555
F11 Mn2 2.111713 1_555
F11 Mn0 2.117359 1_565
F12 Mn0 1.863097 1_565
F13 Mn0 1.863097 1_555
F14 Mn2 1.857899 1_555
F15 Mn0 1.928317 1_555
F16 Mn1 2.111713 1_556
F16 Mn3 2.117359 1_566
F17 Mn1 1.857899 1_656
F18 Mn1 1.937242 1_556
F19 Mn1 1.857899 1_555
