# generated using pymatgen
data_Zr3Co
_symmetry_space_group_name_H-M   'P 1'
_cell_length_a   6.05512022
_cell_length_b   6.05512022
_cell_length_c   4.88870100
_cell_angle_alpha   90.00000000
_cell_angle_beta   90.00000000
_cell_angle_gamma   120.00000243
_symmetry_Int_Tables_number   1
_chemical_formula_structural   Zr3Co
_chemical_formula_sum   'Zr6 Co2'
_cell_volume   155.22784838
_cell_formula_units_Z   2
loop_
 _symmetry_equiv_pos_site_id
 _symmetry_equiv_pos_as_xyz
  1  'x, y, z'
loop_
 _atom_site_type_symbol
 _atom_site_label
 _atom_site_symmetry_multiplicity
 _atom_site_fract_x
 _atom_site_fract_y
 _atom_site_fract_z
 _atom_site_occupancy
  Zr  Zr0  1  0.82458000  0.17542000  0.25000000  1
  Zr  Zr1  1  0.82458000  0.64915900  0.25000000  1
  Zr  Zr2  1  0.35084100  0.17542000  0.25000000  1
  Zr  Zr3  1  0.17542000  0.82458000  0.75000000  1
  Zr  Zr4  1  0.17542000  0.35084100  0.75000000  1
  Zr  Zr5  1  0.64915900  0.82458000  0.75000000  1
  Co  Co0  1  0.33333300  0.66666700  0.25000000  1
  Co  Co1  1  0.66666700  0.33333300  0.75000000  1
loop_
_geom_bond_atom_site_label_1
_geom_bond_atom_site_label_2
_geom_bond_distance
_geom_bond_site_symmetry_2
Zr0 Zr1 2.868547 1_555
Zr0 Zr2 2.868547 1_555
Zr0 Zr4 3.059344 1_654
Zr0 Zr4 3.059344 1_655
Zr0 Zr5 3.059344 1_544
Zr0 Zr5 3.059344 1_545
Zr0 Zr2 3.186574 1_655
Zr0 Zr1 3.186574 1_545
Zr1 Zr2 2.868546 1_555
Zr1 Zr3 3.059344 1_654
Zr1 Zr3 3.059344 1_655
Zr1 Zr5 3.059351 1_555
Zr1 Zr5 3.059351 1_554
Zr1 Zr2 3.186574 1_665
Zr2 Zr3 3.059344 1_545
Zr2 Zr3 3.059344 1_544
Zr2 Zr4 3.059351 1_555
Zr2 Zr4 3.059351 1_554
Zr3 Zr5 2.868547 1_555
Zr3 Zr4 2.868547 1_555
Zr3 Zr4 3.186574 1_565
Zr3 Zr5 3.186574 1_455
Zr4 Zr5 2.868546 1_555
Zr4 Zr5 3.186574 1_445
Co0 Zr5 2.952576 1_555
Co0 Zr5 2.952576 1_554
Co0 Zr4 2.952576 1_555
Co0 Zr4 2.952576 1_554
Co0 Zr3 2.952576 1_554
Co0 Zr3 2.952576 1_555
Co0 Zr1 3.028946 1_455
Co0 Zr2 3.028946 1_565
Co0 Zr0 3.028951 1_455
Co0 Zr0 3.028951 1_565
Co0 Zr2 3.028958 1_555
Co0 Zr1 3.028958 1_555
Co1 Zr1 2.952576 1_556
Co1 Zr1 2.952576 1_555
Co1 Zr2 2.952576 1_556
Co1 Zr2 2.952576 1_555
Co1 Zr0 2.952576 1_555
Co1 Zr0 2.952576 1_556
Co1 Zr5 3.028946 1_545
Co1 Zr4 3.028946 1_655
Co1 Zr3 3.028951 1_545
Co1 Zr3 3.028951 1_655
Co1 Zr4 3.028958 1_555
Co1 Zr5 3.028958 1_555
