# generated using pymatgen
data_Y2Ti12(CuO4)9
_symmetry_space_group_name_H-M   'P 1'
_cell_length_a   6.44781374
_cell_length_b   10.50053004
_cell_length_c   10.50053004
_cell_angle_alpha   60.00000000
_cell_angle_beta   90.00000000
_cell_angle_gamma   90.00000000
_symmetry_Int_Tables_number   1
_chemical_formula_structural   Y2Ti12(CuO4)9
_chemical_formula_sum   'Y2 Ti12 Cu9 O36'
_cell_volume   615.69490392
_cell_formula_units_Z   1
loop_
 _symmetry_equiv_pos_site_id
 _symmetry_equiv_pos_as_xyz
  1  'x, y, z'
loop_
 _atom_site_type_symbol
 _atom_site_label
 _atom_site_symmetry_multiplicity
 _atom_site_fract_x
 _atom_site_fract_y
 _atom_site_fract_z
 _atom_site_occupancy
  Y  Y0  1  0.00472200  0.00000000  0.00000000  1
  Y  Y1  1  0.66194500  0.33333300  0.33333300  1
  Ti  Ti0  1  0.83333300  0.16666700  0.16666700  1
  Ti  Ti1  1  0.49682900  0.50602800  0.50841900  1
  Ti  Ti2  1  0.16983800  0.82730500  0.82491400  1
  Ti  Ti3  1  0.17398200  0.33333300  0.33333300  1
  Ti  Ti4  1  0.83333300  0.66666700  0.66666700  1
  Ti  Ti5  1  0.49268500  0.00000000  0.00000000  1
  Ti  Ti6  1  0.49682900  0.50841900  0.98555300  1
  Ti  Ti7  1  0.16983800  0.82491400  0.34778000  1
  Ti  Ti8  1  0.83333300  0.16666700  0.66666700  1
  Ti  Ti9  1  0.16983800  0.34778000  0.82730500  1
  Ti  Ti10  1  0.83333300  0.66666700  0.16666700  1
  Ti  Ti11  1  0.49682900  0.98555300  0.50602800  1
  Cu  Cu0  1  0.99624500  0.49889800  0.49887100  1
  Cu  Cu1  1  0.67042200  0.83443500  0.83446200  1
  Cu  Cu2  1  0.33333300  0.16666700  0.16666700  1
  Cu  Cu3  1  0.67042200  0.33110100  0.83443500  1
  Cu  Cu4  1  0.33333300  0.66666700  0.16666700  1
  Cu  Cu5  1  0.99624500  0.00223200  0.49889800  1
  Cu  Cu6  1  0.33333300  0.16666700  0.66666700  1
  Cu  Cu7  1  0.99624500  0.49887100  0.00223200  1
  Cu  Cu8  1  0.67042200  0.83446200  0.33110100  1
  O  O0  1  0.24570100  0.44194500  0.62281700  1
  O  O1  1  0.91856500  0.78458400  0.95905500  1
  O  O2  1  0.58386900  0.11779200  0.29220400  1
  O  O3  1  0.35100800  0.35012200  0.17597700  1
  O  O4  1  0.00396500  0.68406700  0.50256300  1
  O  O5  1  0.68636500  0.01648200  0.84294300  1
  O  O6  1  0.98030200  0.31685100  0.49039000  1
  O  O7  1  0.66270100  0.64926700  0.83077100  1
  O  O8  1  0.31565900  0.98321100  0.15735600  1
  O  O9  1  0.08279700  0.21554200  0.04113000  1
  O  O10  1  0.74810200  0.54874900  0.37427800  1
  O  O11  1  0.42096600  0.89138800  0.71051600  1
  O  O12  1  0.42096600  0.39809500  0.89138800  1
  O  O13  1  0.08279700  0.74332900  0.21554200  1
  O  O14  1  0.74810200  0.07697300  0.54874900  1
  O  O15  1  0.66270100  0.51996300  0.64926700  1
  O  O16  1  0.31565900  0.85943300  0.98321100  1
  O  O17  1  0.98030200  0.19275800  0.31685100  1
  O  O18  1  0.68636500  0.14057500  0.01648200  1
  O  O19  1  0.35100800  0.47390000  0.35012200  1
  O  O20  1  0.00396500  0.81337100  0.68406700  1
  O  O21  1  0.91856500  0.25636000  0.78458400  1
  O  O22  1  0.58386900  0.59000500  0.11779200  1
  O  O23  1  0.24570100  0.93523800  0.44194500  1
  O  O24  1  0.00396500  0.50256300  0.81337100  1
  O  O25  1  0.68636500  0.84294300  0.14057500  1
  O  O26  1  0.35100800  0.17597700  0.47390000  1
  O  O27  1  0.58386900  0.29220400  0.59000500  1
  O  O28  1  0.24570100  0.62281700  0.93523800  1
  O  O29  1  0.91856500  0.95905500  0.25636000  1
  O  O30  1  0.74810200  0.37427800  0.07697300  1
  O  O31  1  0.42096600  0.71051600  0.39809500  1
  O  O32  1  0.08279700  0.04113000  0.74332900  1
  O  O33  1  0.31565900  0.15735600  0.85943300  1
  O  O34  1  0.98030200  0.49039000  0.19275800  1
  O  O35  1  0.66270100  0.83077100  0.51996300  1
loop_
_geom_bond_atom_site_label_1
_geom_bond_atom_site_label_2
_geom_bond_distance
_geom_bond_site_symmetry_2
Cu0 O6 1.960334 1_555
Cu0 O4 1.964674 1_655
Cu0 O0 1.964765 1_655
Cu0 O10 1.964876 1_555
Cu1 O5 1.960334 1_565
Cu1 O7 1.964659 1_555
Cu1 O11 1.964765 1_555
Cu1 O1 1.964876 1_555
Cu2 O3 1.980350 1_555
Cu2 O8 1.980366 1_545
Cu2 O2 1.983451 1_555
Cu2 O9 1.983451 1_555
Cu3 O18 1.960323 1_556
Cu3 O15 1.964675 1_555
Cu3 O12 1.964770 1_555
Cu3 O21 1.964870 1_555
Cu4 O16 1.980360 1_554
Cu4 O19 1.980361 1_555
Cu4 O13 1.983451 1_555
Cu4 O22 1.983451 1_555
Cu5 O17 1.960323 1_555
Cu5 O20 1.964674 1_645
Cu5 O23 1.964770 1_645
Cu5 O14 1.964870 1_555
Cu6 O33 1.980355 1_555
Cu6 O26 1.980371 1_555
Cu6 O27 1.983451 1_555
Cu6 O32 1.983451 1_555
Cu7 O34 1.960313 1_555
Cu7 O24 1.964674 1_654
Cu7 O28 1.964765 1_654
Cu7 O30 1.964875 1_555
Cu8 O25 1.960313 1_555
Cu8 O35 1.964690 1_555
Cu8 O31 1.964765 1_555
Cu8 O29 1.964875 1_555
O0 Ti9 1.924687 1_555
O0 Ti1 1.925968 1_555
O1 Ti10 1.971900 1_556
O1 Ti2 2.044092 1_655
O1 Y0 2.565648 1_666
O2 Ti0 1.977826 1_555
O2 Ti11 2.041226 1_545
O2 Y1 2.557326 1_555
O3 Ti3 1.942374 1_555
O3 Ti6 2.078820 1_554
O3 Y1 2.547436 1_555
O4 Ti7 1.889194 1_555
O4 Ti4 1.974420 1_455
O5 Ti8 1.972841 1_555
O5 Ti5 2.005957 1_556
O5 Y0 2.584170 1_656
O6 Ti8 1.972846 1_555
O6 Ti3 2.005957 1_655
O6 Y1 2.584170 1_555
O7 Ti6 1.889190 1_555
O7 Ti4 1.974420 1_555
O8 Ti5 1.942374 1_565
O8 Ti7 2.078820 1_555
O8 Y0 2.547436 1_565
O9 Ti0 1.977826 1_455
O9 Ti9 2.041235 1_554
O9 Y0 2.557341 1_555
O10 Ti10 1.971891 1_555
O10 Ti1 2.044092 1_555
O10 Y1 2.565648 1_555
O11 Ti11 1.924687 1_555
O11 Ti2 1.925968 1_555
O12 Ti6 1.924696 1_555
O12 Ti9 1.925968 1_555
O13 Ti10 1.977826 1_455
O13 Ti7 2.041219 1_555
O13 Y0 2.557335 1_565
O14 Ti8 1.971899 1_555
O14 Ti11 2.044092 1_545
O14 Y1 2.565641 1_555
O15 Ti1 1.889194 1_555
O15 Ti4 1.974420 1_555
O16 Ti5 1.942374 1_566
O16 Ti2 2.078826 1_555
O16 Y0 2.547436 1_566
O17 Ti0 1.972835 1_555
O17 Ti3 2.005957 1_655
O17 Y1 2.584170 1_555
O18 Ti0 1.972847 1_555
O18 Ti5 2.005957 1_555
O18 Y0 2.584170 1_655
O19 Ti3 1.942374 1_555
O19 Ti1 2.078826 1_555
O19 Y1 2.547436 1_555
O20 Ti2 1.889185 1_555
O20 Ti4 1.974420 1_455
O21 Ti8 1.971883 1_555
O21 Ti9 2.044092 1_655
O21 Y0 2.565641 1_656
O22 Ti10 1.977826 1_555
O22 Ti6 2.041234 1_554
O22 Y1 2.557339 1_555
O23 Ti7 1.924696 1_555
O23 Ti11 1.925968 1_555
O24 Ti9 1.889202 1_555
O24 Ti4 1.974420 1_455
O25 Ti10 1.972838 1_555
O25 Ti5 2.005957 1_565
O25 Y0 2.584170 1_665
O26 Ti3 1.942374 1_555
O26 Ti11 2.078817 1_545
O26 Y1 2.547436 1_555
O27 Ti8 1.977826 1_555
O27 Ti1 2.041225 1_555
O27 Y1 2.557346 1_555
O28 Ti2 1.924687 1_555
O28 Ti6 1.925968 1_555
O29 Ti0 1.971902 1_565
O29 Ti7 2.044092 1_655
O29 Y0 2.565638 1_665
O30 Ti0 1.971890 1_555
O30 Ti6 2.044092 1_554
O30 Y1 2.565638 1_555
O31 Ti1 1.924687 1_555
O31 Ti7 1.925968 1_555
O32 Ti8 1.977826 1_455
O32 Ti2 2.041238 1_545
O32 Y0 2.557331 1_556
O33 Ti5 1.942374 1_556
O33 Ti9 2.078817 1_555
O33 Y0 2.547436 1_556
O34 Ti10 1.972853 1_555
O34 Ti3 2.005957 1_655
O34 Y1 2.584170 1_555
O35 Ti11 1.889186 1_555
O35 Ti4 1.974420 1_555
