# generated using pymatgen
data_TaH9N3F5
_symmetry_space_group_name_H-M   'P 1'
_cell_length_a   5.47069300
_cell_length_b   12.16334700
_cell_length_c   10.49266462
_cell_angle_alpha   90.00000000
_cell_angle_beta   94.29622359
_cell_angle_gamma   90.00000000
_symmetry_Int_Tables_number   1
_chemical_formula_structural   TaH9N3F5
_chemical_formula_sum   'Ta4 H36 N12 F20'
_cell_volume   696.24033395
_cell_formula_units_Z   4
loop_
 _symmetry_equiv_pos_site_id
 _symmetry_equiv_pos_as_xyz
  1  'x, y, z'
loop_
 _atom_site_type_symbol
 _atom_site_label
 _atom_site_symmetry_multiplicity
 _atom_site_fract_x
 _atom_site_fract_y
 _atom_site_fract_z
 _atom_site_occupancy
  Ta  Ta0  1  0.46375800  0.36563800  0.76468000  1
  Ta  Ta1  1  0.53624200  0.86563800  0.73532000  1
  Ta  Ta2  1  0.53624200  0.63436200  0.23532000  1
  Ta  Ta3  1  0.46375800  0.13436200  0.26468000  1
  H  H0  1  0.04002500  0.46738000  0.65236800  1
  H  H1  1  0.95997500  0.96738000  0.84763200  1
  H  H2  1  0.95997500  0.53262000  0.34763200  1
  H  H3  1  0.04002500  0.03262000  0.15236800  1
  H  H4  1  0.26737200  0.51165800  0.56785500  1
  H  H5  1  0.73262800  0.01165800  0.93214500  1
  H  H6  1  0.73262800  0.48834200  0.43214500  1
  H  H7  1  0.26737200  0.98834200  0.06785500  1
  H  H8  1  0.22192500  0.56889600  0.70768500  1
  H  H9  1  0.77807500  0.06889600  0.79231500  1
  H  H10  1  0.77807500  0.43110400  0.29231500  1
  H  H11  1  0.22192500  0.93110400  0.20768500  1
  H  H12  1  0.55265200  0.38990400  0.03319000  1
  H  H13  1  0.44734800  0.88990400  0.46681000  1
  H  H14  1  0.44734800  0.61009600  0.96681000  1
  H  H15  1  0.55265200  0.11009600  0.53319000  1
  H  H16  1  0.68761000  0.27253600  0.00300300  1
  H  H17  1  0.31239000  0.77253600  0.49699700  1
  H  H18  1  0.31239000  0.72746400  0.99699700  1
  H  H19  1  0.68761000  0.22746400  0.50300300  1
  H  H20  1  0.81732900  0.39030400  0.96781700  1
  H  H21  1  0.18267100  0.89030400  0.53218300  1
  H  H22  1  0.18267100  0.60969600  0.03218300  1
  H  H23  1  0.81732900  0.10969600  0.46781700  1
  H  H24  1  0.34389100  0.14070600  0.80016200  1
  H  H25  1  0.65610900  0.64070600  0.69983800  1
  H  H26  1  0.65610900  0.85929400  0.19983800  1
  H  H27  1  0.34389100  0.35929400  0.30016200  1
  H  H28  1  0.11177400  0.22144500  0.82773800  1
  H  H29  1  0.88822600  0.72144500  0.67226200  1
  H  H30  1  0.88822600  0.77855500  0.17226200  1
  H  H31  1  0.11177400  0.27855500  0.32773800  1
  H  H32  1  0.32357700  0.19810500  0.94492100  1
  H  H33  1  0.67642300  0.69810500  0.55507900  1
  H  H34  1  0.67642300  0.80189500  0.05507900  1
  H  H35  1  0.32357700  0.30189500  0.44492100  1
  N  N0  1  0.21649200  0.49637400  0.65792300  1
  N  N1  1  0.78350800  0.99637400  0.84207700  1
  N  N2  1  0.78350800  0.50362600  0.34207700  1
  N  N3  1  0.21649200  0.00362600  0.15792300  1
  N  N4  1  0.65252600  0.35023600  0.96866200  1
  N  N5  1  0.34747400  0.85023600  0.53133800  1
  N  N6  1  0.34747400  0.64976400  0.03133800  1
  N  N7  1  0.65252600  0.14976400  0.46866200  1
  N  N8  1  0.29557600  0.21005300  0.84822500  1
  N  N9  1  0.70442400  0.71005300  0.65177500  1
  N  N10  1  0.70442400  0.78994700  0.15177500  1
  N  N11  1  0.29557600  0.28994700  0.34822500  1
  F  F0  1  0.20481000  0.41215100  0.87363600  1
  F  F1  1  0.79519000  0.91215100  0.62636400  1
  F  F2  1  0.79519000  0.58784900  0.12636400  1
  F  F3  1  0.20481000  0.08784900  0.37363600  1
  F  F4  1  0.62104800  0.50772900  0.81438500  1
  F  F5  1  0.37895200  0.00772900  0.68561500  1
  F  F6  1  0.37895200  0.49227100  0.18561500  1
  F  F7  1  0.62104800  0.99227100  0.31438500  1
  F  F8  1  0.63821700  0.40582700  0.60770300  1
  F  F9  1  0.36178300  0.90582700  0.89229700  1
  F  F10  1  0.36178300  0.59417300  0.39229700  1
  F  F11  1  0.63821700  0.09417300  0.10770300  1
  F  F12  1  0.25820100  0.28822800  0.63133700  1
  F  F13  1  0.74179900  0.78822800  0.86866300  1
  F  F14  1  0.74179900  0.71177200  0.36866300  1
  F  F15  1  0.25820100  0.21177200  0.13133700  1
  F  F16  1  0.72436800  0.25254000  0.75817400  1
  F  F17  1  0.27563200  0.75254000  0.74182600  1
  F  F18  1  0.27563200  0.74746000  0.24182600  1
  F  F19  1  0.72436800  0.24746000  0.25817400  1
loop_
_geom_bond_atom_site_label_1
_geom_bond_atom_site_label_2
_geom_bond_distance
_geom_bond_site_symmetry_2
H0 N0 1.025344 1_555
H1 N1 1.025344 1_555
H2 N2 1.025344 1_555
H3 N3 1.025344 1_555
H4 N0 1.022045 1_555
H5 N1 1.022045 1_545
H6 N2 1.022045 1_555
H7 N3 1.022045 1_565
H8 N0 1.024355 1_555
H9 N1 1.024355 1_545
H10 N2 1.024355 1_555
H11 N3 1.024355 1_565
H12 N4 1.022342 1_554
H13 N5 1.022342 1_555
H14 N6 1.022342 1_556
H15 N7 1.022342 1_555
H16 N4 1.024457 1_554
H17 N5 1.024457 1_555
H18 N6 1.024457 1_556
H19 N7 1.024457 1_555
H20 N4 1.025503 1_555
H21 N5 1.025503 1_555
H22 N6 1.025503 1_555
H23 N7 1.025503 1_555
H24 N8 1.027444 1_555
H25 N9 1.027444 1_555
H26 N10 1.027444 1_555
H27 N11 1.027444 1_555
H28 N8 1.021814 1_555
H29 N9 1.021814 1_555
H30 N10 1.021814 1_555
H31 N11 1.021814 1_555
H32 N8 1.025042 1_555
H33 N9 1.025042 1_555
H34 N10 1.025042 1_555
H35 N11 1.025042 1_555
N0 Ta0 2.320836 1_555
N1 Ta1 2.320836 1_555
N2 Ta2 2.320836 1_555
N3 Ta3 2.320836 1_555
N4 Ta0 2.313296 1_555
N5 Ta1 2.313296 1_555
N6 Ta2 2.313296 1_555
N7 Ta3 2.313296 1_555
N8 Ta0 2.305889 1_555
N9 Ta1 2.305889 1_555
N10 Ta2 2.305889 1_555
N11 Ta3 2.305889 1_555
F0 Ta0 1.968895 1_555
F1 Ta1 1.968895 1_555
F2 Ta2 1.968895 1_555
F3 Ta3 1.968895 1_555
F4 Ta0 1.982984 1_555
F5 Ta1 1.982984 1_545
F6 Ta2 1.982984 1_555
F7 Ta3 1.982984 1_565
F8 Ta0 2.024438 1_555
F9 Ta1 2.024438 1_555
F10 Ta2 2.024438 1_555
F11 Ta3 2.024438 1_555
F12 Ta0 1.967980 1_555
F13 Ta1 1.967980 1_555
F14 Ta2 1.967980 1_555
F15 Ta3 1.967980 1_555
F16 Ta0 1.986033 1_555
F17 Ta1 1.986033 1_555
F18 Ta2 1.986033 1_555
F19 Ta3 1.986033 1_555
