# generated using pymatgen
data_Np2SO9
_symmetry_space_group_name_H-M   'P 1'
_cell_length_a   6.44774827
_cell_length_b   6.82791345
_cell_length_c   15.83532392
_cell_angle_alpha   90.00000000
_cell_angle_beta   90.00000000
_cell_angle_gamma   90.00000000
_symmetry_Int_Tables_number   1
_chemical_formula_structural   Np2SO9
_chemical_formula_sum   'Np8 S4 O36'
_cell_volume   697.14486455
_cell_formula_units_Z   4
loop_
 _symmetry_equiv_pos_site_id
 _symmetry_equiv_pos_as_xyz
  1  'x, y, z'
loop_
 _atom_site_type_symbol
 _atom_site_label
 _atom_site_symmetry_multiplicity
 _atom_site_fract_x
 _atom_site_fract_y
 _atom_site_fract_z
 _atom_site_occupancy
  Np  Np0  1  0.67883943  0.75000000  0.39452304  1
  Np  Np1  1  0.82116057  0.75000000  0.89452304  1
  Np  Np2  1  0.32116057  0.25000000  0.60547696  1
  Np  Np3  1  0.17884043  0.25000000  0.10547696  1
  Np  Np4  1  0.96730974  0.75000000  0.15495175  1
  Np  Np5  1  0.53269026  0.75000000  0.65495175  1
  Np  Np6  1  0.03269026  0.25000000  0.84504825  1
  Np  Np7  1  0.46730974  0.25000000  0.34504825  1
  S  S0  1  0.06958914  0.75000000  0.56036267  1
  S  S1  1  0.43041086  0.75000000  0.06036267  1
  S  S2  1  0.93041086  0.25000000  0.43963733  1
  S  S3  1  0.56958914  0.25000000  0.93963733  1
  O  O0  1  0.56605126  0.75000000  0.49920571  1
  O  O1  1  0.93394874  0.75000000  -0.00079429  1
  O  O2  1  0.43394874  0.25000000  0.50079429  1
  O  O3  1  0.06605126  0.25000000  0.00079429  1
  O  O4  1  0.79121087  0.75000000  0.29013851  1
  O  O5  1  0.70878913  0.75000000  0.79013851  1
  O  O6  1  0.20878913  0.25000000  0.70986149  1
  O  O7  1  0.29121087  0.25000000  0.20986149  1
  O  O8  1  0.94867480  0.46713493  0.14928181  1
  O  O9  1  0.55132520  0.03286507  0.64928181  1
  O  O10  1  0.05132520  0.96713493  0.85071819  1
  O  O11  1  0.44867480  0.53286507  0.35071819  1
  O  O12  1  0.05132520  0.53286507  0.85071819  1
  O  O13  1  0.44867480  0.96713493  0.35071819  1
  O  O14  1  0.94867480  0.03286507  0.14928181  1
  O  O15  1  0.55132520  0.46713493  0.64928181  1
  O  O16  1  0.00749417  0.75000000  0.47187146  1
  O  O17  1  0.49250583  0.75000000  0.97187146  1
  O  O18  1  0.99250583  0.25000000  0.52812854  1
  O  O19  1  0.50749417  0.25000000  0.02812854  1
  O  O20  1  0.20497930  0.57933537  0.57798674  1
  O  O21  1  0.29502070  0.92066463  0.07798674  1
  O  O22  1  0.79502070  0.07933537  0.42201326  1
  O  O23  1  0.70497930  0.42066463  0.92201326  1
  O  O24  1  0.79502070  0.42066463  0.42201326  1
  O  O25  1  0.70497930  0.07933537  0.92201326  1
  O  O26  1  0.20497930  0.92066463  0.57798674  1
  O  O27  1  0.29502070  0.57933537  0.07798674  1
  O  O28  1  0.89069584  0.75000000  0.61714790  1
  O  O29  1  0.60930416  0.75000000  0.11714790  1
  O  O30  1  0.10930416  0.25000000  0.38285210  1
  O  O31  1  0.39069584  0.25000000  0.88285210  1
  O  O32  1  0.17800346  0.75000000  0.23119806  1
  O  O33  1  0.32199654  0.75000000  0.73119806  1
  O  O34  1  0.82199654  0.25000000  0.76880194  1
  O  O35  1  0.67800346  0.25000000  0.26880194  1
loop_
_geom_bond_atom_site_label_1
_geom_bond_atom_site_label_2
_geom_bond_distance
_geom_bond_site_symmetry_2
Np0 O4 1.804785 1_555
Np0 O0 1.810188 1_555
Np0 O11 2.209433 1_555
Np0 O13 2.209433 1_555
Np0 O22 2.409812 1_565
Np0 O24 2.409812 1_555
Np0 O16 2.447599 1_655
Np1 O5 1.804785 1_555
Np1 O1 1.810188 1_556
Np1 O12 2.209433 1_655
Np1 O10 2.209433 1_655
Np1 O25 2.409812 1_565
Np1 O23 2.409812 1_555
Np1 O17 2.447599 1_555
Np2 O6 1.804785 1_555
Np2 O2 1.810188 1_555
Np2 O15 2.209433 1_555
Np2 O9 2.209433 1_555
Np2 O20 2.409812 1_555
Np2 O26 2.409812 1_545
Np2 O18 2.447599 1_455
Np3 O7 1.804782 1_555
Np3 O3 1.810190 1_555
Np3 O14 2.209437 1_455
Np3 O8 2.209437 1_455
Np3 O27 2.409810 1_555
Np3 O21 2.409810 1_545
Np3 O19 2.447593 1_555
Np4 O32 1.817499 1_655
Np4 O14 1.937194 1_565
Np4 O8 1.937194 1_555
Np4 O29 2.384691 1_555
Np4 O4 2.423208 1_555
Np4 O1 2.475652 1_555
Np5 O33 1.817499 1_555
Np5 O9 1.937194 1_565
Np5 O15 1.937194 1_555
Np5 O28 2.384691 1_555
Np5 O5 2.423208 1_555
Np5 O0 2.475652 1_555
Np6 O34 1.817499 1_455
Np6 O10 1.937194 1_545
Np6 O12 1.937194 1_555
Np6 O31 2.384691 1_555
Np6 O6 2.423208 1_555
Np6 O3 2.475652 1_556
Np7 O35 1.817499 1_555
Np7 O13 1.937194 1_545
Np7 O11 1.937194 1_555
Np7 O30 2.384691 1_555
Np7 O7 2.423208 1_555
Np7 O2 2.475652 1_555
O16 S0 1.457362 1_555
O17 S1 1.457362 1_556
O18 S2 1.457362 1_555
O19 S3 1.457362 1_554
O20 S0 1.482510 1_555
O21 S1 1.482510 1_555
O22 S2 1.482510 1_555
O23 S3 1.482510 1_555
O24 S2 1.482510 1_555
O25 S3 1.482510 1_555
O26 S0 1.482510 1_555
O27 S1 1.482510 1_555
O28 S0 1.462549 1_655
O29 S1 1.462549 1_555
O30 S2 1.462549 1_455
O31 S3 1.462549 1_555
