# generated using pymatgen
data_Li5Mn2CoO8
_symmetry_space_group_name_H-M   'P 1'
_cell_length_a   5.13395128
_cell_length_b   5.87123647
_cell_length_c   5.87250821
_cell_angle_alpha   58.22240622
_cell_angle_beta   71.15339071
_cell_angle_gamma   71.14319640
_symmetry_Int_Tables_number   1
_chemical_formula_structural   Li5Mn2CoO8
_chemical_formula_sum   'Li5 Mn2 Co1 O8'
_cell_volume   139.80889977
_cell_formula_units_Z   1
loop_
 _symmetry_equiv_pos_site_id
 _symmetry_equiv_pos_as_xyz
  1  'x, y, z'
loop_
 _atom_site_type_symbol
 _atom_site_label
 _atom_site_symmetry_multiplicity
 _atom_site_fract_x
 _atom_site_fract_y
 _atom_site_fract_z
 _atom_site_occupancy
  Li  Li0  1  0.50000100  0.24999800  0.25000200  1
  Li  Li1  1  0.00453000  0.49874900  0.99874400  1
  Li  Li2  1  0.99547000  0.00124700  0.50126000  1
  Li  Li3  1  0.50000000  0.74999800  0.75000300  1
  Li  Li4  1  0.50000000  0.24999900  0.75000200  1
  Mn  Mn0  1  0.99999800  0.00065000  0.99942600  1
  Mn  Mn1  1  0.00000200  0.49935200  0.50057300  1
  Co  Co0  1  0.50000000  0.75000000  0.25000100  1
  O  O0  1  0.78193700  0.36710000  0.86687500  1
  O  O1  1  0.24515600  0.61772300  0.59269800  1
  O  O2  1  0.24510500  0.09281700  0.11767400  1
  O  O3  1  0.77409700  0.86929000  0.36916600  1
  O  O4  1  0.21806300  0.13290400  0.63311900  1
  O  O5  1  0.75489400  0.40718300  0.38232600  1
  O  O6  1  0.75484300  0.88227700  0.90730200  1
  O  O7  1  0.22590400  0.63071400  0.13082900  1
loop_
_geom_bond_atom_site_label_1
_geom_bond_atom_site_label_2
_geom_bond_distance
_geom_bond_site_symmetry_2
Li0 O3 2.102776 1_545
Li0 O7 2.102809 1_555
Li0 O4 2.130678 1_555
Li0 O0 2.130712 1_554
Li0 O5 2.315371 1_555
Li0 O2 2.315383 1_555
Li1 O7 2.065288 1_556
Li1 O0 2.067911 1_455
Li1 O6 2.075426 1_455
Li1 O5 2.076158 1_456
Li1 O2 2.143553 1_556
Li1 O1 2.144822 1_555
Li2 O3 2.065289 1_545
Li2 O4 2.067903 1_655
Li2 O1 2.075409 1_645
Li2 O2 2.076171 1_655
Li2 O5 2.143570 1_555
Li2 O6 2.144808 1_545
Li3 O7 2.103891 1_556
Li3 O3 2.103936 1_555
Li3 O0 2.129174 1_555
Li3 O4 2.129204 1_565
Li3 O6 2.315495 1_555
Li3 O1 2.315509 1_555
Li4 O6 2.020067 1_545
Li4 O1 2.020079 1_555
Li4 O2 2.020538 1_556
Li4 O5 2.020552 1_555
Li4 O0 2.195674 1_555
Li4 O4 2.195690 1_555
Mn0 O0 1.931413 1_555
Mn0 O4 1.931432 1_655
Mn0 O2 1.938820 1_656
Mn0 O6 1.939373 1_545
Mn0 O3 1.960077 1_546
Mn0 O7 1.960276 1_646
Mn1 O4 1.931404 1_555
Mn1 O0 1.931411 1_455
Mn1 O5 1.938829 1_455
Mn1 O1 1.939365 1_555
Mn1 O7 1.960095 1_555
Mn1 O3 1.960283 1_455
Co0 O5 1.916915 1_555
Co0 O1 1.916916 1_555
Co0 O2 1.916919 1_565
Co0 O6 1.916921 1_554
Co0 O3 2.179447 1_555
Co0 O7 2.179455 1_555
