# generated using pymatgen
data_Li2Fe3SnO8
_symmetry_space_group_name_H-M   'P 1'
_cell_length_a   6.01638769
_cell_length_b   6.16020808
_cell_length_c   8.60017982
_cell_angle_alpha   88.42794838
_cell_angle_beta   89.92331853
_cell_angle_gamma   90.07294247
_symmetry_Int_Tables_number   1
_chemical_formula_structural   Li2Fe3SnO8
_chemical_formula_sum   'Li4 Fe6 Sn2 O16'
_cell_volume   318.62105707
_cell_formula_units_Z   2
loop_
 _symmetry_equiv_pos_site_id
 _symmetry_equiv_pos_as_xyz
  1  'x, y, z'
loop_
 _atom_site_type_symbol
 _atom_site_label
 _atom_site_symmetry_multiplicity
 _atom_site_fract_x
 _atom_site_fract_y
 _atom_site_fract_z
 _atom_site_occupancy
  Li  Li0  1  0.99917400  0.24697500  0.12072800  1
  Li  Li1  1  0.49948200  0.74674400  0.62104400  1
  Li  Li2  1  0.00056900  0.75327500  0.87898200  1
  Li  Li3  1  0.50088700  0.25301400  0.37928000  1
  Fe  Fe0  1  0.75006800  0.24993200  0.74993700  1
  Fe  Fe1  1  0.74987600  0.75005500  0.24996800  1
  Fe  Fe2  1  0.24992300  0.25004100  0.74998000  1
  Fe  Fe3  1  0.00094000  0.49981300  0.50066400  1
  Fe  Fe4  1  0.49903400  0.99999400  0.99929600  1
  Fe  Fe5  1  0.25009300  0.74992400  0.24997300  1
  Sn  Sn0  1  0.99877000  0.99862400  0.50079200  1
  Sn  Sn1  1  0.50125600  0.50153900  0.99928500  1
  O  O0  1  0.01779400  0.53634400  0.26081400  1
  O  O1  1  0.48464100  0.03588200  0.76117800  1
  O  O2  1  0.01530300  0.46414900  0.73882900  1
  O  O3  1  0.48216500  0.96364000  0.23920800  1
  O  O4  1  0.23287400  0.74633500  0.48360500  1
  O  O5  1  0.72522400  0.24255400  0.99000600  1
  O  O6  1  0.77216600  0.74268000  0.48797800  1
  O  O7  1  0.26601100  0.24741200  0.98019500  1
  O  O8  1  0.99686700  0.97757200  0.25823400  1
  O  O9  1  0.50550400  0.47886600  0.75772500  1
  O  O10  1  0.99448800  0.02114700  0.74227300  1
  O  O11  1  0.50313800  0.52239300  0.24177300  1
  O  O12  1  0.23399500  0.25263100  0.51980400  1
  O  O13  1  0.72783400  0.75737600  0.01204200  1
  O  O14  1  0.77478300  0.25743600  0.50999300  1
  O  O15  1  0.26714100  0.75365400  0.01641600  1
loop_
_geom_bond_atom_site_label_1
_geom_bond_atom_site_label_2
_geom_bond_distance
_geom_bond_site_symmetry_2
Li0 O5 1.996921 1_554
Li0 O7 2.008147 1_654
Li0 O8 2.011242 1_545
Li0 O0 2.181573 1_655
Li1 O4 1.993798 1_555
Li1 O6 1.999597 1_555
Li1 O9 2.000003 1_555
Li1 O1 2.179637 1_565
Li2 O15 1.993595 1_556
Li2 O13 1.999826 1_456
Li2 O10 2.000116 1_465
Li2 O2 2.179643 1_555
Li3 O14 1.996609 1_555
Li3 O12 2.008370 1_555
Li3 O11 2.011126 1_555
Li3 O3 2.181561 1_545
Fe0 O10 2.040394 1_555
Fe0 O9 2.041709 1_555
Fe0 O14 2.067960 1_555
Fe0 O5 2.069091 1_555
Fe0 O2 2.069850 1_655
Fe0 O1 2.070118 1_555
Fe1 O11 2.043497 1_555
Fe1 O8 2.044022 1_555
Fe1 O13 2.049941 1_555
Fe1 O6 2.050759 1_555
Fe1 O3 2.081591 1_555
Fe1 O0 2.083067 1_655
Fe2 O2 1.933780 1_555
Fe2 O1 1.934438 1_555
Fe2 O12 1.981629 1_555
Fe2 O7 1.982008 1_555
Fe2 O10 2.086676 1_455
Fe2 O9 2.087052 1_555
Fe3 O14 2.018685 1_455
Fe3 O6 2.035043 1_455
Fe3 O2 2.055953 1_555
Fe3 O4 2.063186 1_555
Fe3 O0 2.071180 1_555
Fe3 O12 2.074611 1_555
Fe4 O5 2.019644 1_565
Fe4 O13 2.034040 1_556
Fe4 O1 2.055670 1_565
Fe4 O15 2.062224 1_556
Fe4 O3 2.071626 1_556
Fe4 O7 2.075526 1_565
Fe5 O3 1.918227 1_555
Fe5 O0 1.918666 1_555
Fe5 O15 2.010612 1_555
Fe5 O4 2.011322 1_555
Fe5 O11 2.073134 1_555
Fe5 O8 2.074451 1_455
O4 Sn0 2.106803 1_455
O5 Sn1 2.092736 1_555
O6 Sn0 2.088344 1_555
O7 Sn1 2.118937 1_555
O8 Sn0 2.093663 1_555
O9 Sn1 2.086094 1_555
O10 Sn0 2.085331 1_545
O11 Sn1 2.092953 1_554
O12 Sn0 2.118244 1_445
O13 Sn1 2.087707 1_554
O14 Sn0 2.091956 1_545
O15 Sn1 2.106011 1_554
