# generated using pymatgen
data_Mg3V2(GeO4)3
_symmetry_space_group_name_H-M   'P 1'
_cell_length_a   10.50698393
_cell_length_b   10.50698393
_cell_length_c   10.50698393
_cell_angle_alpha   109.47122063
_cell_angle_beta   109.47122063
_cell_angle_gamma   109.47122063
_symmetry_Int_Tables_number   1
_chemical_formula_structural   Mg3V2(GeO4)3
_chemical_formula_sum   'Mg12 V8 Ge12 O48'
_cell_volume   892.91951201
_cell_formula_units_Z   4
loop_
 _symmetry_equiv_pos_site_id
 _symmetry_equiv_pos_as_xyz
  1  'x, y, z'
loop_
 _atom_site_type_symbol
 _atom_site_label
 _atom_site_symmetry_multiplicity
 _atom_site_fract_x
 _atom_site_fract_y
 _atom_site_fract_z
 _atom_site_occupancy
  Mg  Mg0  1  0.25000000  0.87500000  0.62500000  1
  Mg  Mg1  1  0.75000000  0.62500000  0.87500000  1
  Mg  Mg2  1  0.62500000  0.87500000  0.75000000  1
  Mg  Mg3  1  0.87500000  0.62500000  0.25000000  1
  Mg  Mg4  1  0.62500000  0.25000000  0.87500000  1
  Mg  Mg5  1  0.87500000  0.75000000  0.62500000  1
  Mg  Mg6  1  0.75000000  0.12500000  0.37500000  1
  Mg  Mg7  1  0.25000000  0.37500000  0.12500000  1
  Mg  Mg8  1  0.37500000  0.12500000  0.25000000  1
  Mg  Mg9  1  0.12500000  0.37500000  0.75000000  1
  Mg  Mg10  1  0.37500000  0.75000000  0.12500000  1
  Mg  Mg11  1  0.12500000  0.25000000  0.37500000  1
  V  V0  1  0.50000000  0.50000000  0.50000000  1
  V  V1  1  0.50000000  0.00000000  0.50000000  1
  V  V2  1  0.00000000  0.50000000  0.50000000  1
  V  V3  1  0.50000000  0.50000000  0.00000000  1
  V  V4  1  0.00000000  0.00000000  0.50000000  1
  V  V5  1  0.00000000  0.50000000  0.00000000  1
  V  V6  1  0.50000000  0.00000000  0.00000000  1
  V  V7  1  0.00000000  0.00000000  0.00000000  1
  Ge  Ge0  1  0.12500000  0.75000000  0.87500000  1
  Ge  Ge1  1  0.87500000  0.25000000  0.12500000  1
  Ge  Ge2  1  0.62500000  0.37500000  0.25000000  1
  Ge  Ge3  1  0.75000000  0.87500000  0.12500000  1
  Ge  Ge4  1  0.87500000  0.12500000  0.75000000  1
  Ge  Ge5  1  0.25000000  0.62500000  0.37500000  1
  Ge  Ge6  1  0.75000000  0.37500000  0.62500000  1
  Ge  Ge7  1  0.25000000  0.12500000  0.87500000  1
  Ge  Ge8  1  0.12500000  0.87500000  0.25000000  1
  Ge  Ge9  1  0.37500000  0.62500000  0.75000000  1
  Ge  Ge10  1  0.62500000  0.75000000  0.37500000  1
  Ge  Ge11  1  0.37500000  0.25000000  0.62500000  1
  O  O0  1  0.41717100  0.81688200  0.78951300  1
  O  O1  1  0.87234200  0.39971100  0.08282900  1
  O  O2  1  0.10028900  0.97263100  0.68311800  1
  O  O3  1  0.52736900  0.62765800  0.71048700  1
  O  O4  1  0.68311800  0.08282900  0.71048700  1
  O  O5  1  0.62765800  0.71048700  0.52736900  1
  O  O6  1  0.62765800  0.41717100  0.10028900  1
  O  O7  1  0.71048700  0.52736900  0.62765800  1
  O  O8  1  0.81688200  0.52736900  0.39971100  1
  O  O9  1  0.97263100  0.78951300  0.87234200  1
  O  O10  1  0.78951300  0.87234200  0.97263100  1
  O  O11  1  0.71048700  0.68311800  0.08282900  1
  O  O12  1  0.41717100  0.10028900  0.62765800  1
  O  O13  1  0.39971100  0.81688200  0.52736900  1
  O  O14  1  0.08282900  0.71048700  0.68311800  1
  O  O15  1  0.10028900  0.62765800  0.41717100  1
  O  O16  1  0.52736900  0.39971100  0.81688200  1
  O  O17  1  0.08282900  0.87234200  0.39971100  1
  O  O18  1  0.97263100  0.68311800  0.10028900  1
  O  O19  1  0.18311800  0.47263100  0.60028900  1
  O  O20  1  0.68311800  0.10028900  0.97263100  1
  O  O21  1  0.78951300  0.41717100  0.81688200  1
  O  O22  1  0.39971100  0.08282900  0.87234200  1
  O  O23  1  0.87234200  0.97263100  0.78951300  1
  O  O24  1  0.58282900  0.18311800  0.21048700  1
  O  O25  1  0.12765800  0.60028900  0.91717100  1
  O  O26  1  0.89971100  0.02736900  0.31688200  1
  O  O27  1  0.47263100  0.37234200  0.28951300  1
  O  O28  1  0.31688200  0.91717100  0.28951300  1
  O  O29  1  0.37234200  0.28951300  0.47263100  1
  O  O30  1  0.37234200  0.58282900  0.89971100  1
  O  O31  1  0.28951300  0.47263100  0.37234200  1
  O  O32  1  0.12765800  0.02736900  0.21048700  1
  O  O33  1  0.60028900  0.91717100  0.12765800  1
  O  O34  1  0.21048700  0.58282900  0.18311800  1
  O  O35  1  0.18311800  0.21048700  0.58282900  1
  O  O36  1  0.31688200  0.89971100  0.02736900  1
  O  O37  1  0.02736900  0.31688200  0.89971100  1
  O  O38  1  0.91717100  0.12765800  0.60028900  1
  O  O39  1  0.47263100  0.60028900  0.18311800  1
  O  O40  1  0.89971100  0.37234200  0.58282900  1
  O  O41  1  0.91717100  0.28951300  0.31688200  1
  O  O42  1  0.60028900  0.18311800  0.47263100  1
  O  O43  1  0.58282900  0.89971100  0.37234200  1
  O  O44  1  0.28951300  0.31688200  0.91717100  1
  O  O45  1  0.21048700  0.12765800  0.02736900  1
  O  O46  1  0.02736900  0.21048700  0.12765800  1
  O  O47  1  0.81688200  0.78951300  0.41717100  1
loop_
_geom_bond_atom_site_label_1
_geom_bond_atom_site_label_2
_geom_bond_distance
_geom_bond_site_symmetry_2
Mg0 O15 2.279920 1_555
Mg0 O22 2.279920 1_565
Mg0 O2 2.279920 1_555
Mg0 O13 2.279920 1_555
Mg0 O17 2.416722 1_555
Mg0 O0 2.416722 1_555
Mg0 O12 2.416722 1_565
Mg0 O14 2.416722 1_555
Mg1 O10 2.279920 1_555
Mg1 O7 2.279920 1_555
Mg1 O21 2.279920 1_555
Mg1 O11 2.279920 1_556
Mg1 O16 2.416722 1_555
Mg1 O18 2.416722 1_556
Mg1 O9 2.416722 1_555
Mg1 O3 2.416722 1_555
Mg2 O3 2.279920 1_555
Mg2 O0 2.279920 1_555
Mg2 O23 2.279920 1_555
Mg2 O4 2.279920 1_565
Mg2 O13 2.416722 1_555
Mg2 O10 2.416722 1_555
Mg2 O5 2.416722 1_555
Mg2 O20 2.416722 1_565
Mg3 O6 2.279920 1_555
Mg3 O17 2.279920 1_655
Mg3 O8 2.279920 1_555
Mg3 O18 2.279920 1_555
Mg3 O11 2.416722 1_555
Mg3 O47 2.416722 1_555
Mg3 O1 2.416722 1_555
Mg3 O15 2.416722 1_655
Mg4 O12 2.279920 1_555
Mg4 O16 2.279920 1_555
Mg4 O1 2.279920 1_556
Mg4 O20 2.279920 1_555
Mg4 O22 2.416722 1_555
Mg4 O4 2.416722 1_555
Mg4 O21 2.416722 1_555
Mg4 O6 2.416722 1_556
Mg5 O9 2.279920 1_555
Mg5 O5 2.279920 1_555
Mg5 O47 2.279920 1_555
Mg5 O14 2.279920 1_655
Mg5 O8 2.416722 1_555
Mg5 O23 2.416722 1_555
Mg5 O7 2.416722 1_555
Mg5 O2 2.416722 1_655
Mg6 O42 2.279920 1_555
Mg6 O40 2.279920 1_555
Mg6 O33 2.279920 1_545
Mg6 O26 2.279920 1_555
Mg6 O24 2.416722 1_555
Mg6 O43 2.416722 1_545
Mg6 O38 2.416722 1_555
Mg6 O41 2.416722 1_555
Mg7 O44 2.279920 1_554
Mg7 O34 2.279920 1_555
Mg7 O31 2.279920 1_555
Mg7 O45 2.279920 1_555
Mg7 O37 2.416722 1_554
Mg7 O39 2.416722 1_555
Mg7 O46 2.416722 1_555
Mg7 O27 2.416722 1_555
Mg8 O24 2.279920 1_555
Mg8 O27 2.279920 1_555
Mg8 O32 2.279920 1_555
Mg8 O28 2.279920 1_545
Mg8 O45 2.416722 1_555
Mg8 O36 2.416722 1_545
Mg8 O29 2.416722 1_555
Mg8 O42 2.416722 1_555
Mg9 O30 2.279920 1_555
Mg9 O38 2.279920 1_455
Mg9 O37 2.279920 1_555
Mg9 O19 2.279920 1_555
Mg9 O35 2.416722 1_555
Mg9 O44 2.416722 1_555
Mg9 O40 2.416722 1_455
Mg9 O25 2.416722 1_555
Mg10 O36 2.279920 1_555
Mg10 O43 2.279920 1_555
Mg10 O25 2.279920 1_554
Mg10 O39 2.279920 1_555
Mg10 O30 2.416722 1_554
Mg10 O33 2.416722 1_555
Mg10 O34 2.416722 1_555
Mg10 O28 2.416722 1_555
Mg11 O29 2.279920 1_555
Mg11 O46 2.279920 1_555
Mg11 O41 2.279920 1_455
Mg11 O35 2.279920 1_555
Mg11 O26 2.416722 1_455
Mg11 O31 2.416722 1_555
Mg11 O19 2.416722 1_555
Mg11 O32 2.416722 1_555
Ge0 O9 1.776842 1_455
Ge0 O14 1.776842 1_555
Ge0 O36 1.776842 1_556
Ge0 O25 1.776842 1_555
Ge1 O46 1.776842 1_655
Ge1 O41 1.776842 1_555
Ge1 O20 1.776842 1_554
Ge1 O1 1.776842 1_555
Ge2 O27 1.776842 1_555
Ge2 O8 1.776842 1_555
Ge2 O24 1.776842 1_555
Ge2 O6 1.776842 1_555
Ge3 O10 1.776842 1_554
Ge3 O26 1.776842 1_565
Ge3 O11 1.776842 1_555
Ge3 O33 1.776842 1_555
Ge4 O23 1.776842 1_545
Ge4 O37 1.776842 1_655
Ge4 O4 1.776842 1_555
Ge4 O38 1.776842 1_555
Ge5 O15 1.776842 1_555
Ge5 O13 1.776842 1_555
Ge5 O34 1.776842 1_555
Ge5 O31 1.776842 1_555
Ge6 O7 1.776842 1_555
Ge6 O21 1.776842 1_555
Ge6 O42 1.776842 1_555
Ge6 O40 1.776842 1_555
Ge7 O45 1.776842 1_556
Ge7 O44 1.776842 1_555
Ge7 O22 1.776842 1_555
Ge7 O2 1.776842 1_545
Ge8 O32 1.776842 1_565
Ge8 O18 1.776842 1_455
Ge8 O17 1.776842 1_555
Ge8 O28 1.776842 1_555
Ge9 O3 1.776842 1_555
Ge9 O0 1.776842 1_555
Ge9 O19 1.776842 1_555
Ge9 O30 1.776842 1_555
Ge10 O5 1.776842 1_555
Ge10 O39 1.776842 1_555
Ge10 O43 1.776842 1_555
Ge10 O47 1.776842 1_555
Ge11 O16 1.776842 1_555
Ge11 O29 1.776842 1_555
Ge11 O35 1.776842 1_555
Ge11 O12 1.776842 1_555
O0 V6 2.028339 1_566
O1 V5 2.028339 1_655
O2 V4 2.028339 1_565
O3 V0 2.028339 1_555
O4 V1 2.028339 1_555
O5 V0 2.028339 1_555
O6 V3 2.028339 1_555
O7 V0 2.028339 1_555
O8 V2 2.028339 1_655
O9 V7 2.028339 1_666
O10 V7 2.028339 1_666
O11 V3 2.028339 1_555
O12 V1 2.028339 1_555
O13 V1 2.028339 1_565
O14 V2 2.028339 1_555
O15 V2 2.028339 1_555
O16 V3 2.028339 1_556
O17 V4 2.028339 1_565
O18 V5 2.028339 1_655
O19 V2 2.028339 1_555
O20 V6 2.028339 1_556
O21 V5 2.028339 1_656
O22 V6 2.028339 1_556
O23 V7 2.028339 1_666
O24 V6 2.028339 1_555
O25 V5 2.028339 1_556
O26 V4 2.028339 1_655
O27 V0 2.028339 1_555
O28 V1 2.028339 1_565
O29 V0 2.028339 1_555
O30 V3 2.028339 1_556
O31 V0 2.028339 1_555
O32 V7 2.028339 1_555
O33 V6 2.028339 1_565
O34 V5 2.028339 1_555
O35 V4 2.028339 1_555
O36 V6 2.028339 1_565
O37 V5 2.028339 1_556
O38 V4 2.028339 1_655
O39 V3 2.028339 1_555
O40 V2 2.028339 1_655
O41 V2 2.028339 1_655
O42 V1 2.028339 1_555
O43 V1 2.028339 1_565
O44 V3 2.028339 1_556
O45 V7 2.028339 1_555
O46 V7 2.028339 1_555
O47 V4 2.028339 1_665
