# generated using pymatgen
data_IrN4Cl3O
_symmetry_space_group_name_H-M   'P 1'
_cell_length_a   6.51117000
_cell_length_b   7.18315100
_cell_length_c   15.92254800
_cell_angle_alpha   90.00000000
_cell_angle_beta   90.00000000
_cell_angle_gamma   90.00000000
_symmetry_Int_Tables_number   1
_chemical_formula_structural   IrN4Cl3O
_chemical_formula_sum   'Ir4 N16 Cl12 O4'
_cell_volume   744.70899115
_cell_formula_units_Z   4
loop_
 _symmetry_equiv_pos_site_id
 _symmetry_equiv_pos_as_xyz
  1  'x, y, z'
loop_
 _atom_site_type_symbol
 _atom_site_label
 _atom_site_symmetry_multiplicity
 _atom_site_fract_x
 _atom_site_fract_y
 _atom_site_fract_z
 _atom_site_occupancy
  Ir  Ir0  1  0.25000000  0.33012200  0.64987400  1
  Ir  Ir1  1  0.25000000  0.16987800  0.14987400  1
  Ir  Ir2  1  0.75000000  0.66987800  0.35012600  1
  Ir  Ir3  1  0.75000000  0.83012200  0.85012600  1
  N  N0  1  0.25000000  0.11885700  0.43851700  1
  N  N1  1  0.25000000  0.38114300  0.93851700  1
  N  N2  1  0.75000000  0.88114300  0.56148300  1
  N  N3  1  0.75000000  0.61885700  0.06148300  1
  N  N4  1  0.25000000  0.52291700  0.71419000  1
  N  N5  1  0.25000000  0.97708300  0.21419000  1
  N  N6  1  0.75000000  0.47708300  0.28581000  1
  N  N7  1  0.75000000  0.02291700  0.78581000  1
  N  N8  1  0.46671700  0.32665700  0.57833700  1
  N  N9  1  0.03328300  0.17334300  0.07833700  1
  N  N10  1  0.96671700  0.67334300  0.42166300  1
  N  N11  1  0.53328300  0.82665700  0.92166300  1
  N  N12  1  0.53328300  0.67334300  0.42166300  1
  N  N13  1  0.96671700  0.82665700  0.92166300  1
  N  N14  1  0.03328300  0.32665700  0.57833700  1
  N  N15  1  0.46671700  0.17334300  0.07833700  1
  Cl  Cl0  1  0.25000000  0.64640200  0.42747700  1
  Cl  Cl1  1  0.25000000  0.85359800  0.92747700  1
  Cl  Cl2  1  0.75000000  0.35359800  0.57252300  1
  Cl  Cl3  1  0.75000000  0.14640200  0.07252300  1
  Cl  Cl4  1  0.46295000  0.14808700  0.37980500  1
  Cl  Cl5  1  0.03705000  0.35191300  0.87980500  1
  Cl  Cl6  1  0.96295000  0.85191300  0.62019500  1
  Cl  Cl7  1  0.53705000  0.64808700  0.12019500  1
  Cl  Cl8  1  0.53705000  0.85191300  0.62019500  1
  Cl  Cl9  1  0.96295000  0.64808700  0.12019500  1
  Cl  Cl10  1  0.03705000  0.14808700  0.37980500  1
  Cl  Cl11  1  0.46295000  0.35191300  0.87980500  1
  O  O0  1  0.25000000  0.12613100  0.71501500  1
  O  O1  1  0.25000000  0.37386900  0.21501500  1
  O  O2  1  0.75000000  0.87386900  0.28498500  1
  O  O3  1  0.75000000  0.62613100  0.78498500  1
loop_
_geom_bond_atom_site_label_1
_geom_bond_atom_site_label_2
_geom_bond_distance
_geom_bond_site_symmetry_2
Ir0 N4 1.722385 1_555
Ir0 O0 1.795245 1_555
Ir0 N8 1.813617 1_555
Ir0 N14 1.813617 1_555
Ir1 N5 1.722385 1_545
Ir1 O1 1.795245 1_555
Ir1 N15 1.813617 1_555
Ir1 N9 1.813617 1_555
Ir2 N6 1.722385 1_555
Ir2 O2 1.795245 1_555
Ir2 N10 1.813617 1_555
Ir2 N12 1.813617 1_555
Ir3 N7 1.722385 1_565
Ir3 O3 1.795245 1_555
Ir3 N13 1.813617 1_555
Ir3 N11 1.813617 1_555
Cl0 N12 1.856937 1_555
Cl0 N10 1.856937 1_455
Cl1 N11 1.856937 1_555
Cl1 N13 1.856937 1_455
Cl2 N14 1.856937 1_655
Cl2 N8 1.856937 1_555
Cl3 N9 1.856937 1_655
Cl3 N15 1.856937 1_555
Cl4 N0 1.685393 1_555
Cl5 N1 1.685393 1_555
Cl6 N2 1.685393 1_555
Cl7 N3 1.685393 1_555
Cl8 N2 1.685393 1_555
Cl9 N3 1.685393 1_555
Cl10 N0 1.685393 1_555
Cl11 N1 1.685393 1_555
