# generated using pymatgen
data_Al
_symmetry_space_group_name_H-M   'P 1'
_cell_length_a   11.98330792
_cell_length_b   12.33519817
_cell_length_c   12.27492286
_cell_angle_alpha   92.56703388
_cell_angle_beta   82.72866873
_cell_angle_gamma   85.67109359
_symmetry_Int_Tables_number   1
_chemical_formula_structural   Al
_chemical_formula_sum   Al100
_cell_volume   1791.99881410
_cell_formula_units_Z   100
loop_
 _symmetry_equiv_pos_site_id
 _symmetry_equiv_pos_as_xyz
  1  'x, y, z'
loop_
 _atom_site_type_symbol
 _atom_site_label
 _atom_site_symmetry_multiplicity
 _atom_site_fract_x
 _atom_site_fract_y
 _atom_site_fract_z
 _atom_site_occupancy
  Al  Al0  1  0.00967384  0.73744592  0.30432668  1
  Al  Al1  1  0.35792827  0.03269385  0.35822150  1
  Al  Al2  1  0.64835955  0.40883578  0.62877638  1
  Al  Al3  1  0.49740670  0.69000104  0.92141516  1
  Al  Al4  1  0.81284625  0.30918537  0.00047624  1
  Al  Al5  1  0.78640022  0.85863260  0.93919516  1
  Al  Al6  1  0.98808510  0.31467739  0.30624156  1
  Al  Al7  1  0.31312912  0.17824009  0.70529906  1
  Al  Al8  1  0.94627299  0.52548458  0.26396947  1
  Al  Al9  1  0.25304712  0.04790194  0.17230238  1
  Al  Al10  1  0.37187960  0.30520610  0.95610140  1
  Al  Al11  1  0.73606740  0.62181621  0.21400946  1
  Al  Al12  1  0.74903161  0.66016465  0.64616206  1
  Al  Al13  1  0.10538032  0.46361867  0.44486543  1
  Al  Al14  1  0.14400826  0.01055599  0.98827001  1
  Al  Al15  1  0.70341681  0.65994917  0.00058155  1
  Al  Al16  1  0.18494975  0.43005281  0.22713325  1
  Al  Al17  1  0.18165639  0.21369973  0.89731374  1
  Al  Al18  1  0.72295412  0.02444297  0.18984772  1
  Al  Al19  1  0.12819582  0.22623400  0.12541575  1
  Al  Al20  1  0.68751740  0.68954555  0.43271905  1
  Al  Al21  1  0.67585741  0.16169267  0.78215478  1
  Al  Al22  1  0.15044259  0.77518813  0.95213978  1
  Al  Al23  1  0.36388207  0.37509300  0.35753522  1
  Al  Al24  1  0.02205456  0.23825483  0.50037875  1
  Al  Al25  1  0.67870826  0.53488353  0.81873997  1
  Al  Al26  1  0.92506226  0.96024172  0.06477276  1
  Al  Al27  1  0.12993810  0.98187360  0.36137622  1
  Al  Al28  1  0.80381049  0.20740215  0.59018165  1
  Al  Al29  1  0.25298920  0.41256287  0.78377618  1
  Al  Al30  1  0.45075462  0.67695865  0.47911692  1
  Al  Al31  1  0.41719274  0.83516603  0.24549520  1
  Al  Al32  1  0.78889085  0.20552550  0.36738981  1
  Al  Al33  1  0.08951619  0.71525756  0.72863479  1
  Al  Al34  1  0.39174588  0.85579723  0.82585531  1
  Al  Al35  1  0.63319396  0.83001172  0.14153270  1
  Al  Al36  1  0.54194963  0.14924417  0.97598477  1
  Al  Al37  1  0.60594781  0.34586749  0.91450737  1
  Al  Al38  1  0.89367551  0.51005814  0.04312152  1
  Al  Al39  1  0.89798067  0.18016445  0.15322379  1
  Al  Al40  1  0.19549011  0.08757945  0.54245138  1
  Al  Al41  1  0.41807001  0.43880779  0.13901950  1
  Al  Al42  1  0.72170710  0.97058241  0.64804790  1
  Al  Al43  1  0.09338156  0.61027339  0.11436651  1
  Al  Al44  1  0.30367794  0.79365104  0.64387688  1
  Al  Al45  1  0.01812283  0.91247770  0.84559413  1
  Al  Al46  1  0.29594352  0.58656711  0.36484586  1
  Al  Al47  1  0.58424794  0.32555406  0.40711192  1
  Al  Al48  1  0.79822128  0.82600546  0.27778603  1
  Al  Al49  1  0.03603090  0.50102878  0.68484865  1
  Al  Al50  1  0.94321776  0.03253476  0.51332538  1
  Al  Al51  1  0.39390010  0.21196866  0.49280377  1
  Al  Al52  1  0.10220563  0.70346067  0.49480023  1
  Al  Al53  1  0.49127071  0.64682523  0.14070736  1
  Al  Al54  1  0.56230012  0.82517216  0.60145251  1
  Al  Al55  1  0.51947308  0.62765396  0.68189432  1
  Al  Al56  1  0.64402655  0.46529169  0.09003364  1
  Al  Al57  1  0.43655210  0.44484152  0.57227377  1
  Al  Al58  1  0.27893571  0.83384945  0.43456513  1
  Al  Al59  1  0.40663096  0.98983896  0.57033697  1
  Al  Al60  1  0.10314166  0.88414882  0.16229132  1
  Al  Al61  1  0.62792558  0.24154206  0.16320404  1
  Al  Al62  1  0.29738699  0.64356373  0.80252684  1
  Al  Al63  1  0.88863211  0.05926766  0.74647420  1
  Al  Al64  1  0.31005747  0.59135841  0.02134608  1
  Al  Al65  1  0.50546340  0.03311502  0.76055490  1
  Al  Al66  1  0.55762460  0.88291683  0.38693204  1
  Al  Al67  1  0.33585056  0.84854825  0.04677279  1
  Al  Al68  1  0.08785279  0.90223076  0.60918390  1
  Al  Al69  1  0.21849570  0.99448446  0.75530039  1
  Al  Al70  1  0.05915835  0.19875663  0.71541245  1
  Al  Al71  1  0.00287931  0.36925419  0.86847862  1
  Al  Al72  1  0.81350498  0.33376370  0.77589833  1
  Al  Al73  1  0.63061220  0.82544585  0.80340504  1
  Al  Al74  1  0.91322344  0.73504905  0.06772369  1
  Al  Al75  1  0.48843948  0.01255764  0.13752200  1
  Al  Al76  1  0.59179348  0.14580010  0.56836822  1
  Al  Al77  1  0.87575651  0.63887948  0.83236063  1
  Al  Al78  1  0.24475668  0.56670822  0.59476064  1
  Al  Al79  1  0.15859852  0.40997604  0.01171427  1
  Al  Al80  1  0.20583910  0.22026041  0.34569156  1
  Al  Al81  1  0.24245072  0.71997844  0.21609020  1
  Al  Al82  1  0.48448886  0.29089824  0.73171030  1
  Al  Al83  1  0.08108487  0.57414152  0.89526909  1
  Al  Al84  1  0.91239909  0.60236111  0.47643177  1
  Al  Al85  1  0.73239833  0.99972172  0.43003534  1
  Al  Al86  1  0.87722346  0.82419116  0.71576264  1
  Al  Al87  1  0.35464270  0.06209468  0.94644996  1
  Al  Al88  1  0.74288827  0.47264644  0.42838911  1
  Al  Al89  1  0.54443389  0.52230228  0.31880800  1
  Al  Al90  1  0.86707515  0.82258792  0.49404979  1
  Al  Al91  1  0.97391138  0.14277175  0.92867889  1
  Al  Al92  1  0.88186363  0.41532774  0.57668048  1
  Al  Al93  1  0.55943990  0.11571711  0.34055943  1
  Al  Al94  1  0.75946855  0.08740186  0.97370302  1
  Al  Al95  1  0.78694023  0.38244034  0.22306944  1
  Al  Al96  1  0.45199339  0.48729339  0.84299852  1
  Al  Al97  1  0.92642673  0.01157828  0.28923882  1
  Al  Al98  1  0.20451856  0.33546027  0.58267943  1
  Al  Al99  1  0.38484106  0.22511931  0.17242850  1
loop_
_geom_bond_atom_site_label_1
_geom_bond_atom_site_label_2
_geom_bond_distance
_geom_bond_site_symmetry_2
Al0 Al48 2.746470 1_455
Al0 Al52 2.746928 1_555
Al0 Al60 2.768245 1_555
Al0 Al43 2.783303 1_555
Al0 Al8 2.817412 1_455
Al0 Al90 2.819418 1_455
Al0 Al81 2.850274 1_555
Al0 Al84 2.929762 1_455
Al1 Al93 2.680977 1_555
Al1 Al31 2.746593 1_545
Al1 Al9 2.748052 1_555
Al1 Al51 2.793215 1_555
Al1 Al59 2.803692 1_545
Al1 Al40 2.812648 1_555
Al1 Al27 2.844761 1_545
Al1 Al58 2.849951 1_545
Al1 Al80 2.857378 1_555
Al1 Al75 2.941987 1_555
Al1 Al66 2.978001 1_545
Al2 Al57 2.724618 1_555
Al2 Al82 2.745334 1_555
Al2 Al88 2.748771 1_555
Al2 Al92 2.798295 1_555
Al2 Al25 2.821745 1_555
Al2 Al72 2.968680 1_555
Al2 Al28 2.973346 1_555
Al2 Al55 3.009013 1_555
Al2 Al47 3.073576 1_555
Al3 Al34 2.713220 1_555
Al3 Al73 2.733455 1_555
Al3 Al96 2.756319 1_555
Al3 Al53 2.760260 1_556
Al3 Al64 2.806152 1_556
Al3 Al67 2.888830 1_556
Al3 Al55 2.979182 1_555
Al3 Al62 3.036570 1_555
Al4 Al91 2.743167 1_554
Al4 Al56 2.769183 1_555
Al4 Al72 2.785850 1_554
Al4 Al71 2.790751 1_654
Al4 Al95 2.810731 1_555
Al4 Al94 2.870241 1_554
Al4 Al61 2.984049 1_555
Al5 Al73 2.696837 1_555
Al5 Al74 2.755949 1_556
Al5 Al86 2.820850 1_555
Al5 Al94 2.822696 1_565
Al5 Al77 3.016974 1_555
Al6 Al8 2.696681 1_555
Al6 Al95 2.818888 1_555
Al6 Al80 2.882974 1_655
Al7 Al82 2.609961 1_555
Al7 Al98 2.845482 1_555
Al7 Al70 3.021105 1_555
Al8 Al84 2.705152 1_555
Al8 Al95 2.771801 1_555
Al8 Al88 3.090408 1_555
Al9 Al99 2.791851 1_555
Al10 Al36 2.736821 1_555
Al10 Al79 2.765693 1_556
Al10 Al17 2.778991 1_555
Al10 Al96 2.856827 1_555
Al10 Al41 2.860864 1_556
Al10 Al37 2.872731 1_555
Al10 Al99 2.892647 1_556
Al10 Al82 2.901443 1_555
Al10 Al29 2.997803 1_555
Al10 Al87 3.019528 1_555
Al11 Al20 2.752111 1_555
Al11 Al15 2.753148 1_555
Al11 Al56 2.782691 1_555
Al11 Al48 2.786700 1_555
Al11 Al8 2.852659 1_555
Al11 Al38 2.865766 1_555
Al11 Al89 2.873031 1_555
Al11 Al95 2.979525 1_555
Al11 Al35 2.985101 1_555
Al11 Al74 3.064207 1_555
Al12 Al84 2.702836 1_555
Al12 Al25 2.761123 1_555
Al12 Al55 2.792375 1_555
Al12 Al86 2.798218 1_555
Al12 Al20 2.841254 1_555
Al12 Al73 2.900552 1_555
Al12 Al77 2.910504 1_555
Al12 Al54 3.028948 1_555
Al12 Al90 3.097697 1_555
Al13 Al98 2.690154 1_555
Al13 Al16 2.723936 1_555
Al13 Al84 2.746504 1_455
Al13 Al46 2.927122 1_555
Al13 Al78 2.946345 1_555
Al13 Al49 2.963412 1_555
Al13 Al52 2.990741 1_555
Al13 Al6 2.993614 1_455
Al13 Al92 3.062216 1_455
Al13 Al24 3.099314 1_555
Al14 Al87 2.642392 1_555
Al14 Al91 2.707788 1_455
Al14 Al60 2.717140 1_546
Al14 Al45 2.749720 1_545
Al14 Al9 2.787002 1_556
Al14 Al26 2.797350 1_446
Al14 Al17 2.832483 1_555
Al14 Al69 2.879270 1_545
Al14 Al22 2.911022 1_545
Al14 Al19 3.064274 1_556
Al14 Al67 3.105987 1_546
Al15 Al35 2.672455 1_555
Al15 Al25 2.716184 1_554
Al15 Al77 2.718055 1_554
Al15 Al3 2.770833 1_554
Al15 Al56 2.788180 1_555
Al15 Al5 2.811890 1_554
Al15 Al53 2.903058 1_555
Al15 Al38 2.939519 1_555
Al15 Al74 2.943847 1_555
Al16 Al79 2.705110 1_555
Al16 Al41 2.876907 1_555
Al16 Al43 2.890314 1_555
Al16 Al23 2.892391 1_555
Al16 Al19 2.921351 1_555
Al16 Al6 2.929920 1_455
Al16 Al8 2.981148 1_455
Al16 Al46 3.003065 1_555
Al16 Al80 3.034664 1_555
Al17 Al7 2.663151 1_555
Al17 Al91 2.688407 1_455
Al17 Al79 2.721450 1_556
Al17 Al19 2.786783 1_556
Al17 Al87 2.826729 1_555
Al17 Al70 2.829836 1_555
Al17 Al71 2.833530 1_555
Al17 Al29 3.001915 1_555
Al17 Al69 3.122235 1_545
Al18 Al93 2.663122 1_555
Al18 Al26 2.740487 1_545
Al18 Al35 2.772053 1_545
Al18 Al94 2.788519 1_554
Al18 Al48 2.849578 1_545
Al18 Al97 2.858454 1_555
Al18 Al61 2.878812 1_555
Al18 Al39 2.955965 1_555
Al18 Al75 2.973597 1_555
Al18 Al85 2.992986 1_545
Al19 Al9 2.691306 1_555
Al19 Al79 2.738054 1_555
Al19 Al6 2.738455 1_455
Al19 Al39 2.840030 1_455
Al19 Al80 2.970917 1_555
Al20 Al88 2.704014 1_555
Al20 Al54 2.804314 1_555
Al20 Al30 2.839642 1_555
Al20 Al48 2.862735 1_555
Al20 Al66 2.865185 1_555
Al20 Al84 2.947333 1_555
Al20 Al90 2.953341 1_555
Al21 Al65 2.709862 1_555
Al21 Al36 2.713449 1_555
Al21 Al63 2.733261 1_555
Al21 Al37 2.745901 1_555
Al21 Al28 2.748947 1_555
Al21 Al72 2.782600 1_555
Al21 Al42 2.792285 1_545
Al21 Al94 2.832440 1_555
Al21 Al82 2.842274 1_555
Al21 Al76 2.931316 1_555
Al22 Al45 2.722232 1_555
Al22 Al62 2.755396 1_555
Al22 Al83 2.762465 1_555
Al22 Al67 2.822637 1_556
Al22 Al60 2.826014 1_556
Al22 Al43 2.966358 1_556
Al22 Al33 3.002202 1_555
Al22 Al64 3.074269 1_556
Al22 Al74 3.097311 1_456
Al23 Al46 2.667481 1_555
Al23 Al51 2.697479 1_555
Al23 Al80 2.801154 1_555
Al23 Al47 2.813112 1_555
Al23 Al99 2.838494 1_555
Al23 Al41 2.838815 1_555
Al23 Al89 2.935061 1_555
Al23 Al57 2.989572 1_555
Al24 Al6 2.668707 1_455
Al24 Al92 2.708287 1_455
Al24 Al80 2.708290 1_555
Al24 Al28 2.767263 1_455
Al24 Al50 2.777984 1_455
Al24 Al70 2.789575 1_555
Al24 Al40 2.795557 1_555
Al24 Al98 2.843520 1_555
Al25 Al77 2.790565 1_555
Al25 Al96 2.804619 1_555
Al25 Al37 2.805565 1_555
Al25 Al72 2.846674 1_555
Al25 Al55 2.902783 1_555
Al25 Al3 2.903962 1_555
Al26 Al60 2.704192 1_655
Al26 Al5 2.738200 1_554
Al26 Al74 2.793706 1_555
Al26 Al45 2.797918 1_654
Al26 Al97 2.801721 1_565
Al26 Al94 2.810048 1_564
Al26 Al39 2.856121 1_565
Al26 Al91 2.913962 1_564
Al27 Al97 2.703070 1_465
Al27 Al58 2.718422 1_555
Al27 Al50 2.739336 1_465
Al27 Al60 2.742509 1_555
Al27 Al40 2.755818 1_565
Al27 Al9 2.776719 1_565
Al28 Al50 2.684831 1_555
Al28 Al72 2.723224 1_555
Al28 Al76 2.747637 1_555
Al28 Al32 2.762263 1_555
Al28 Al92 2.800272 1_555
Al28 Al63 2.929143 1_555
Al29 Al98 2.751579 1_555
Al29 Al96 2.788511 1_555
Al29 Al79 2.884637 1_556
Al29 Al83 2.917390 1_555
Al29 Al62 2.942186 1_555
Al29 Al7 3.010353 1_555
Al29 Al82 3.032047 1_555
Al29 Al78 3.071319 1_555
Al29 Al71 3.138777 1_555
Al29 Al49 3.148706 1_555
Al30 Al46 2.735535 1_555
Al30 Al89 2.748271 1_555
Al30 Al44 2.778911 1_555
Al30 Al55 2.796846 1_555
Al30 Al54 2.831128 1_555
Al30 Al58 2.839362 1_555
Al30 Al78 3.122643 1_555
Al30 Al66 3.123568 1_555
Al31 Al53 2.640414 1_555
Al31 Al66 2.643979 1_555
Al31 Al81 2.669916 1_555
Al31 Al58 2.676842 1_555
Al31 Al35 2.732061 1_555
Al31 Al75 2.743890 1_565
Al31 Al67 2.746132 1_555
Al32 Al47 2.743748 1_555
Al32 Al39 2.777123 1_555
Al32 Al85 2.792270 1_545
Al32 Al97 2.856401 1_555
Al32 Al6 2.862896 1_555
Al32 Al95 2.872326 1_555
Al32 Al93 3.090675 1_555
Al33 Al83 2.741742 1_555
Al33 Al68 2.787996 1_555
Al33 Al45 2.788076 1_555
Al33 Al49 2.810413 1_555
Al33 Al86 2.811946 1_455
Al33 Al78 2.821450 1_555
Al33 Al62 2.849732 1_555
Al33 Al52 2.851611 1_555
Al33 Al44 2.897003 1_555
Al33 Al77 2.952363 1_455
Al34 Al44 2.693813 1_555
Al34 Al67 2.716833 1_556
Al34 Al65 2.759357 1_565
Al34 Al69 2.835240 1_555
Al34 Al73 2.835277 1_555
Al34 Al87 2.861766 1_565
Al34 Al62 2.945483 1_555
Al35 Al75 2.742921 1_565
Al35 Al48 2.745977 1_555
Al35 Al53 2.929328 1_555
Al35 Al5 2.947206 1_554
Al35 Al66 3.060037 1_555
Al36 Al87 2.619245 1_555
Al36 Al94 2.656403 1_555
Al36 Al75 2.706753 1_556
Al36 Al37 2.708943 1_555
Al36 Al61 2.860246 1_556
Al36 Al99 2.935580 1_556
Al36 Al65 3.046939 1_555
Al37 Al56 2.662052 1_556
Al37 Al96 2.697893 1_555
Al37 Al72 2.820166 1_555
Al37 Al4 2.828619 1_556
Al37 Al82 2.907286 1_555
Al38 Al4 2.779605 1_555
Al38 Al74 2.808803 1_555
Al38 Al71 2.817431 1_654
Al38 Al8 2.861264 1_555
Al38 Al83 2.885646 1_654
Al38 Al95 2.982163 1_555
Al38 Al43 2.983217 1_655
Al38 Al56 3.070523 1_555
Al38 Al77 3.117924 1_554
Al39 Al97 2.752496 1_555
Al39 Al4 2.756001 1_555
Al39 Al95 2.783811 1_555
Al39 Al91 2.797430 1_554
Al39 Al6 2.819851 1_555
Al40 Al70 2.753209 1_555
Al40 Al59 2.787145 1_545
Al40 Al68 2.812014 1_545
Al40 Al7 2.825728 1_555
Al40 Al69 2.936702 1_545
Al40 Al51 2.940476 1_555
Al40 Al80 2.972564 1_555
Al41 Al99 2.736529 1_555
Al41 Al56 2.745715 1_555
Al41 Al64 2.766174 1_555
Al41 Al53 2.773724 1_555
Al41 Al89 3.016926 1_555
Al42 Al85 2.704326 1_555
Al42 Al86 2.728225 1_555
Al42 Al63 2.735212 1_565
Al42 Al54 2.809846 1_555
Al42 Al65 2.813191 1_565
Al42 Al73 2.847331 1_555
Al42 Al76 2.849292 1_565
Al42 Al90 2.884038 1_555
Al43 Al8 2.684151 1_455
Al43 Al64 2.689641 1_555
Al43 Al74 2.692162 1_455
Al43 Al81 2.712855 1_555
Al43 Al83 2.730588 1_554
Al43 Al79 2.735552 1_555
Al44 Al58 2.686963 1_555
Al44 Al62 2.744539 1_555
Al44 Al69 2.830380 1_555
Al44 Al68 2.910519 1_555
Al44 Al59 2.925388 1_555
Al44 Al78 2.992247 1_555
Al45 Al86 2.716593 1_455
Al45 Al63 2.723575 1_465
Al45 Al69 2.794740 1_555
Al45 Al68 2.910791 1_555
Al45 Al91 2.960914 1_465
Al45 Al5 3.001839 1_455
Al46 Al81 2.619054 1_555
Al46 Al78 2.836793 1_555
Al46 Al52 2.892188 1_555
Al46 Al89 2.998704 1_555
Al46 Al58 3.115491 1_555
Al47 Al93 2.728312 1_555
Al47 Al89 2.735735 1_555
Al47 Al88 2.752852 1_555
Al47 Al57 2.799838 1_555
Al47 Al51 2.877423 1_555
Al47 Al76 3.041520 1_555
Al47 Al61 3.091138 1_555
Al48 Al85 2.778386 1_555
Al48 Al97 2.859490 1_565
Al48 Al90 2.879027 1_555
Al48 Al74 2.900788 1_555
Al48 Al66 3.038536 1_555
Al49 Al92 2.661488 1_455
Al49 Al78 2.796669 1_555
Al49 Al83 2.827371 1_555
Al49 Al71 2.842478 1_555
Al49 Al77 2.865251 1_455
Al49 Al98 2.885741 1_555
Al50 Al68 2.690189 1_645
Al50 Al97 2.785250 1_555
Al50 Al90 2.819884 1_545
Al50 Al63 2.852370 1_555
Al50 Al85 2.891792 1_545
Al51 Al93 2.710057 1_555
Al51 Al98 2.716907 1_555
Al51 Al7 2.726245 1_555
Al51 Al76 2.735428 1_555
Al51 Al59 2.940059 1_545
Al51 Al80 3.059725 1_555
Al51 Al57 3.092104 1_555
Al52 Al84 2.704125 1_455
Al52 Al78 2.747745 1_555
Al52 Al68 2.753078 1_555
Al52 Al58 2.800541 1_555
Al52 Al90 3.079160 1_455
Al53 Al56 2.778519 1_555
Al53 Al89 2.837283 1_555
Al53 Al64 2.875801 1_555
Al53 Al81 3.062931 1_555
Al54 Al73 2.707153 1_555
Al54 Al59 2.725677 1_555
Al54 Al55 2.729567 1_555
Al54 Al66 2.764723 1_555
Al55 Al96 2.770465 1_555
Al55 Al62 2.865550 1_555
Al55 Al57 2.878897 1_555
Al56 Al95 2.690222 1_555
Al56 Al89 2.941567 1_555
Al56 Al61 2.952977 1_555
Al57 Al78 2.626594 1_555
Al57 Al82 2.866847 1_555
Al58 Al68 2.975410 1_555
Al58 Al81 3.067255 1_555
Al58 Al59 3.102299 1_555
Al59 Al65 2.797003 1_565
Al59 Al7 2.862323 1_565
Al59 Al66 2.902471 1_555
Al59 Al69 2.985613 1_555
Al59 Al76 3.043021 1_565
Al60 Al81 2.685585 1_555
Al60 Al97 2.797518 1_465
Al60 Al9 2.811325 1_565
Al60 Al67 2.956066 1_555
Al61 Al93 2.804388 1_555
Al61 Al95 2.816327 1_555
Al61 Al99 2.923495 1_555
Al61 Al94 3.119920 1_554
Al62 Al96 2.678554 1_555
Al62 Al64 2.809928 1_556
Al62 Al78 2.842792 1_555
Al62 Al83 2.902289 1_555
Al63 Al91 2.763798 1_555
Al63 Al70 2.770202 1_655
Al63 Al86 2.923034 1_545
Al63 Al94 3.005867 1_555
Al64 Al96 2.794537 1_554
Al64 Al81 2.804253 1_555
Al64 Al79 2.992940 1_555
Al65 Al87 2.717813 1_555
Al65 Al76 2.908708 1_555
Al65 Al73 2.971223 1_545
Al65 Al7 2.976304 1_555
Al66 Al85 2.722134 1_555
Al66 Al93 2.953558 1_565
Al67 Al81 2.839337 1_555
Al67 Al9 2.882891 1_565
Al67 Al87 2.969140 1_564
Al67 Al75 3.090214 1_565
Al68 Al69 2.785616 1_555
Al68 Al86 2.941541 1_455
Al69 Al7 2.671505 1_565
Al69 Al70 3.139335 1_565
Al69 Al87 3.140347 1_565
Al70 Al71 2.742130 1_555
Al70 Al91 2.822229 1_455
Al70 Al98 2.916057 1_555
Al71 Al72 2.718674 1_455
Al71 Al79 2.778233 1_556
Al71 Al83 2.781171 1_555
Al71 Al91 2.955966 1_455
Al72 Al92 2.738780 1_555
Al73 Al86 3.012928 1_555
Al74 Al77 3.171319 1_554
Al75 Al9 2.796778 1_555
Al75 Al99 2.805876 1_555
Al75 Al93 2.995107 1_555
Al75 Al87 3.062237 1_554
Al76 Al85 2.740884 1_545
Al76 Al82 2.748715 1_555
Al76 Al93 2.882830 1_555
Al77 Al83 2.743661 1_655
Al77 Al86 2.750750 1_555
Al78 Al98 2.929000 1_555
Al79 Al83 2.705169 1_554
Al80 Al99 2.829137 1_555
Al80 Al9 2.911763 1_555
Al82 Al96 2.704273 1_555
Al84 Al92 2.690462 1_555
Al84 Al90 2.723281 1_555
Al84 Al88 2.782715 1_555
Al85 Al97 2.733344 1_565
Al85 Al93 2.796174 1_565
Al85 Al90 2.817558 1_555
Al86 Al90 2.738815 1_555
Al87 Al9 2.901702 1_556
Al88 Al95 2.681783 1_555
Al88 Al92 2.700309 1_555
Al88 Al89 2.916104 1_555
Al91 Al94 2.704576 1_555
