# generated using pymatgen
data_SrCaCo2O5
_symmetry_space_group_name_H-M   'P 1'
_cell_length_a   10.76352456
_cell_length_b   11.15966409
_cell_length_c   17.34127336
_cell_angle_alpha   108.74248907
_cell_angle_beta   108.10747473
_cell_angle_gamma   90.00623624
_symmetry_Int_Tables_number   1
_chemical_formula_structural   SrCaCo2O5
_chemical_formula_sum   'Sr16 Ca16 Co32 O80'
_cell_volume   1863.24089144
_cell_formula_units_Z   16
loop_
 _symmetry_equiv_pos_site_id
 _symmetry_equiv_pos_as_xyz
  1  'x, y, z'
loop_
 _atom_site_type_symbol
 _atom_site_label
 _atom_site_symmetry_multiplicity
 _atom_site_fract_x
 _atom_site_fract_y
 _atom_site_fract_z
 _atom_site_occupancy
  Sr  Sr0  1  0.30785537  0.55957102  0.61050721  1
  Sr  Sr1  1  0.80651064  0.06140240  0.60990877  1
  Sr  Sr2  1  0.80838208  0.56150563  0.61122314  1
  Sr  Sr3  1  0.19545462  0.43669250  0.38633229  1
  Sr  Sr4  1  0.19724639  0.43884700  0.89099654  1
  Sr  Sr5  1  0.69415557  0.43881349  0.38525313  1
  Sr  Sr6  1  0.69595692  0.93308285  0.38536225  1
  Sr  Sr7  1  0.69961008  0.93679222  0.89051432  1
  Sr  Sr8  1  0.06136161  0.29749786  0.61085426  1
  Sr  Sr9  1  0.05757777  0.79983147  0.61035793  1
  Sr  Sr10  1  0.55767828  0.30112572  0.61179821  1
  Sr  Sr11  1  0.55513633  0.79758704  0.60972309  1
  Sr  Sr12  1  0.44374141  0.19937769  0.38582510  1
  Sr  Sr13  1  0.44451107  0.19937551  0.88839619  1
  Sr  Sr14  1  0.94818973  0.19888652  0.38595073  1
  Sr  Sr15  1  0.94874582  0.20219715  0.89039993  1
  Ca  Ca0  1  0.30504050  0.06964353  0.10920461  1
  Ca  Ca1  1  0.30302912  0.06206611  0.60439924  1
  Ca  Ca2  1  0.30259928  0.56532437  0.11133812  1
  Ca  Ca3  1  0.80747592  0.06668078  0.10913956  1
  Ca  Ca4  1  0.80430780  0.56734530  0.11182954  1
  Ca  Ca5  1  0.19679291  0.93241732  0.39073741  1
  Ca  Ca6  1  0.20025635  0.93711335  0.89444503  1
  Ca  Ca7  1  0.69306322  0.43749504  0.89351441  1
  Ca  Ca8  1  0.05694725  0.29334982  0.11013935  1
  Ca  Ca9  1  0.05335812  0.79588601  0.11024445  1
  Ca  Ca10  1  0.54984352  0.29153929  0.10856777  1
  Ca  Ca11  1  0.55316658  0.79027272  0.10761048  1
  Ca  Ca12  1  0.44493858  0.70595766  0.39101679  1
  Ca  Ca13  1  0.44699556  0.70477711  0.89256692  1
  Ca  Ca14  1  0.94661104  0.70697796  0.39091853  1
  Ca  Ca15  1  0.94607184  0.71089838  0.89403646  1
  Co  Co0  1  0.01057359  0.00305371  0.00564770  1
  Co  Co1  1  0.00485781  -0.00146075  0.49861125  1
  Co  Co2  1  0.00601760  0.50387116  0.00358251  1
  Co  Co3  1  0.00199689  0.50047650  0.49656101  1
  Co  Co4  1  0.50661983  0.00169011  0.00573037  1
  Co  Co5  1  0.50223314  -0.00130329  0.49891008  1
  Co  Co6  1  0.50778543  0.50280425  0.00637759  1
  Co  Co7  1  0.50192635  0.49915207  0.49655265  1
  Co  Co8  1  0.25724719  0.25317124  0.00555833  1
  Co  Co9  1  0.25308162  0.24660258  0.49712308  1
  Co  Co10  1  0.25688886  0.75256561  0.00407111  1
  Co  Co11  1  0.25228929  0.74873129  0.49752922  1
  Co  Co12  1  0.75712337  0.25430072  0.00570120  1
  Co  Co13  1  0.75244034  0.24903604  0.49631279  1
  Co  Co14  1  0.75740314  0.75031944  0.00418134  1
  Co  Co15  1  0.75246351  0.74823735  0.49726559  1
  Co  Co16  1  0.10922965  0.08808582  0.24789249  1
  Co  Co17  1  0.11574561  0.09212252  0.75183730  1
  Co  Co18  1  0.10654434  0.59725025  0.24776007  1
  Co  Co19  1  0.11216586  0.60065997  0.75301952  1
  Co  Co20  1  0.60562753  0.08731298  0.24449091  1
  Co  Co21  1  0.60702546  0.09703477  0.74918223  1
  Co  Co22  1  0.60618137  0.59176050  0.24633307  1
  Co  Co23  1  0.61174615  0.59427724  0.75315185  1
  Co  Co24  1  0.35707882  0.40966630  0.24806867  1
  Co  Co25  1  0.36386470  0.40702980  0.75133435  1
  Co  Co26  1  0.35398623  0.89976408  0.24647127  1
  Co  Co27  1  0.35937499  0.90346948  0.75092420  1
  Co  Co28  1  0.85831000  0.40913176  0.24783674  1
  Co  Co29  1  0.86122890  0.41370261  0.75650176  1
  Co  Co30  1  0.85962458  0.90109862  0.24532925  1
  Co  Co31  1  0.86451095  0.90422713  0.75160675  1
  O  O0  1  0.12609876  0.11534806  0.48901280  1
  O  O1  1  0.12951624  0.12538395  0.99367448  1
  O  O2  1  0.12132652  0.62475089  0.48784089  1
  O  O3  1  0.11733067  0.62423900  0.99319518  1
  O  O4  1  0.62923633  0.12836105  0.49234539  1
  O  O5  1  0.62425963  0.11706170  0.99614638  1
  O  O6  1  0.62033747  0.62303080  0.48814467  1
  O  O7  1  0.62171421  0.61822913  0.98533889  1
  O  O8  1  0.14004174  0.38294339  0.02158598  1
  O  O9  1  0.12953044  0.37792232  0.50528309  1
  O  O10  1  0.13427945  0.88764814  0.01289109  1
  O  O11  1  0.13154974  0.87886122  0.50467771  1
  O  O12  1  0.63201063  0.38607835  0.01476653  1
  O  O13  1  0.63063938  0.37939561  0.50536438  1
  O  O14  1  0.64114886  0.87094971  0.01385549  1
  O  O15  1  0.62599474  0.87592765  0.50280638  1
  O  O16  1  0.37186468  0.11199191  0.48937040  1
  O  O17  1  0.36955373  0.11758949  0.99073242  1
  O  O18  1  0.37283469  0.62004367  0.48742200  1
  O  O19  1  0.38166810  0.61554172  0.99344391  1
  O  O20  1  0.87741892  0.11888559  0.49203950  1
  O  O21  1  0.88303190  0.11867661  0.99751028  1
  O  O22  1  0.87420546  0.61942128  0.48837712  1
  O  O23  1  0.86831176  0.62657947  0.98962090  1
  O  O24  1  0.38548374  0.38176603  0.01804279  1
  O  O25  1  0.38116662  0.37660046  0.50514130  1
  O  O26  1  0.39273933  0.88443661  0.01289978  1
  O  O27  1  0.37712835  0.87965931  0.50672383  1
  O  O28  1  0.88571169  0.39369092  0.01393792  1
  O  O29  1  0.87517315  0.37196602  0.50338256  1
  O  O30  1  0.89009586  0.88481688  0.01880097  1
  O  O31  1  0.88109194  0.87758510  0.50396829  1
  O  O32  1  0.09742695  0.10583716  0.14449584  1
  O  O33  1  0.09281621  0.09025124  0.64286686  1
  O  O34  1  0.08473818  0.60744899  0.14117382  1
  O  O35  1  0.07510150  0.58923109  0.64114624  1
  O  O36  1  0.58745289  0.10153642  0.14002747  1
  O  O37  1  0.57963147  0.09268908  0.63962392  1
  O  O38  1  0.58812310  0.60506049  0.14071118  1
  O  O39  1  0.57717694  0.58623957  0.64138391  1
  O  O40  1  0.43397523  0.40851623  0.35728157  1
  O  O41  1  0.44609886  0.40021855  0.85811027  1
  O  O42  1  0.43380900  0.89861492  0.35449400  1
  O  O43  1  0.44510269  0.89753355  0.85912867  1
  O  O44  1  0.93559953  0.41163761  0.35758299  1
  O  O45  1  0.94445572  0.40818754  0.86435526  1
  O  O46  1  0.94036986  0.89920021  0.35329925  1
  O  O47  1  0.94761894  0.90057393  0.86045214  1
  O  O48  1  0.34658604  0.28883326  0.14712275  1
  O  O49  1  0.33032590  0.29549968  0.64149160  1
  O  O50  1  0.33465724  0.78605556  0.13920489  1
  O  O51  1  0.32710596  0.79520034  0.64178236  1
  O  O52  1  0.84506478  0.29138137  0.14471422  1
  O  O53  1  0.83336540  0.30612615  0.64652741  1
  O  O54  1  0.84013283  0.78201145  0.14048570  1
  O  O55  1  0.83000398  0.79793865  0.64178202  1
  O  O56  1  0.18589925  0.19676338  0.35696065  1
  O  O57  1  0.18977767  0.20814111  0.85825943  1
  O  O58  1  0.19140651  0.70506405  0.35640812  1
  O  O59  1  0.20050333  0.71191460  0.86161543  1
  O  O60  1  0.68558453  0.19583275  0.35458550  1
  O  O61  1  0.68535651  0.20943731  0.85809101  1
  O  O62  1  0.69344656  0.69588791  0.35463946  1
  O  O63  1  0.70290814  0.70838083  0.85756444  1
  O  O64  1  0.42538586  0.05538351  0.24051130  1
  O  O65  1  0.42597249  0.05848403  0.74284391  1
  O  O66  1  0.42670549  0.56966125  0.24848663  1
  O  O67  1  0.43596947  0.57009263  0.75816562  1
  O  O68  1  0.92677886  0.05824996  0.24016880  1
  O  O69  1  0.93818399  0.05996419  0.75028247  1
  O  O70  1  0.92737183  0.57045554  0.24900622  1
  O  O71  1  0.93713169  0.57385873  0.76037640  1
  O  O72  1  0.17543338  0.43530065  0.24109603  1
  O  O73  1  0.18837540  0.44441351  0.75203135  1
  O  O74  1  0.17479053  0.92782828  0.24797651  1
  O  O75  1  0.18589261  0.93561939  0.75943403  1
  O  O76  1  0.67430165  0.43019914  0.23901585  1
  O  O77  1  0.68356969  0.43800308  0.75939878  1
  O  O78  1  0.67764255  0.92820833  0.23939594  1
  O  O79  1  0.68857378  0.94347812  0.75153052  1
loop_
_geom_bond_atom_site_label_1
_geom_bond_atom_site_label_2
_geom_bond_distance
_geom_bond_site_symmetry_2
Ca0 O64 2.299469 1_555
Ca0 O48 2.323581 1_555
Ca0 O10 2.490750 1_545
Ca0 O32 2.494554 1_555
Ca0 O1 2.533449 1_554
Ca0 O17 2.565614 1_554
Ca0 O26 2.591159 1_545
Ca0 O36 2.918908 1_555
Ca1 O65 2.367164 1_555
Ca1 O49 2.468166 1_555
Ca1 O27 2.504624 1_545
Ca1 O11 2.514012 1_545
Ca1 O0 2.525913 1_555
Ca1 O33 2.543022 1_555
Ca1 O16 2.543854 1_555
Ca1 O37 2.844101 1_555
Ca2 O66 2.322582 1_555
Ca2 O50 2.356176 1_555
Ca2 O8 2.428389 1_555
Ca2 O24 2.525340 1_555
Ca2 O34 2.566239 1_555
Ca2 O3 2.632982 1_554
Ca2 O19 2.652507 1_554
Ca2 O38 2.963513 1_555
Ca3 O68 2.268144 1_555
Ca3 O52 2.383853 1_555
Ca3 O30 2.487409 1_545
Ca3 O5 2.520077 1_554
Ca3 O21 2.538834 1_554
Ca3 O14 2.558792 1_545
Ca3 O36 2.588726 1_555
Ca4 O54 2.291333 1_555
Ca4 O70 2.324398 1_555
Ca4 O28 2.493157 1_555
Ca4 O12 2.497037 1_555
Ca4 O38 2.536074 1_555
Ca4 O7 2.667863 1_554
Ca4 O23 2.685233 1_554
Ca4 O34 2.910101 1_655
Ca5 O74 2.396176 1_555
Ca5 O58 2.408930 1_555
Ca5 O0 2.494297 1_565
Ca5 O16 2.507074 1_565
Ca5 O11 2.525019 1_555
Ca5 O27 2.548388 1_555
Ca5 O46 2.628285 1_455
Ca5 O42 2.808932 1_555
Ca6 O75 2.292511 1_555
Ca6 O59 2.391966 1_555
Ca6 O17 2.472194 1_565
Ca6 O1 2.539006 1_565
Ca6 O10 2.581320 1_556
Ca6 O47 2.599438 1_455
Ca6 O26 2.643546 1_556
Ca6 O43 2.888812 1_555
Ca7 O77 2.297884 1_555
Ca7 O61 2.413523 1_555
Ca7 O7 2.426919 1_555
Ca7 O41 2.537168 1_555
Ca7 O23 2.563848 1_555
Ca7 O12 2.610828 1_556
Ca7 O28 2.619967 1_556
Ca7 O45 2.903240 1_555
Ca8 O72 2.276087 1_555
Ca8 O32 2.358751 1_555
Ca8 O8 2.449077 1_555
Ca8 O21 2.529533 1_454
Ca8 O52 2.533681 1_455
Ca8 O28 2.592997 1_455
Ca8 O1 2.598218 1_554
Ca8 O48 2.985106 1_555
Ca9 O74 2.319514 1_555
Ca9 O34 2.331585 1_555
Ca9 O30 2.422214 1_455
Ca9 O54 2.523197 1_455
Ca9 O3 2.575623 1_554
Ca9 O10 2.585001 1_555
Ca9 O23 2.604232 1_454
Ca9 O50 2.919234 1_555
Ca10 O76 2.274342 1_555
Ca10 O36 2.358759 1_555
Ca10 O24 2.428527 1_555
Ca10 O48 2.481218 1_555
Ca10 O12 2.556964 1_555
Ca10 O17 2.587433 1_554
Ca10 O5 2.600975 1_554
Ca11 O78 2.285364 1_555
Ca11 O38 2.317651 1_555
Ca11 O26 2.475901 1_555
Ca11 O14 2.499653 1_555
Ca11 O19 2.525070 1_554
Ca11 O50 2.579052 1_555
Ca11 O7 2.661404 1_554
Ca11 O54 2.968714 1_555
Ca12 O66 2.396577 1_555
Ca12 O42 2.421964 1_555
Ca12 O18 2.480490 1_555
Ca12 O6 2.506601 1_555
Ca12 O15 2.538033 1_555
Ca12 O27 2.593744 1_555
Ca12 O58 2.604858 1_555
Ca12 O62 2.927220 1_555
Ca13 O67 2.298288 1_555
Ca13 O43 2.399608 1_555
Ca13 O7 2.485150 1_555
Ca13 O19 2.535791 1_555
Ca13 O59 2.544768 1_555
Ca13 O26 2.604686 1_556
Ca13 O14 2.643929 1_556
Ca13 O63 3.002065 1_555
Ca14 O70 2.386211 1_555
Ca14 O46 2.429773 1_555
Ca14 O2 2.496047 1_655
Ca14 O22 2.509615 1_555
Ca14 O31 2.535067 1_555
Ca14 O11 2.580686 1_655
Ca14 O62 2.592429 1_555
Ca14 O58 2.876294 1_655
Ca15 O71 2.303003 1_555
Ca15 O47 2.370270 1_555
Ca15 O23 2.489569 1_555
Ca15 O63 2.492117 1_555
Ca15 O3 2.527601 1_655
Ca15 O30 2.631167 1_556
Ca15 O10 2.652108 1_656
Ca15 O59 2.962635 1_655
Co0 O10 1.856804 1_545
Co0 O21 1.888485 1_454
Co0 O30 1.962539 1_445
Co0 O1 1.973021 1_554
Co0 O32 2.193830 1_555
Co0 O47 2.279381 1_444
Co1 O11 1.912032 1_545
Co1 O20 1.923494 1_455
Co1 O0 1.924577 1_555
Co1 O31 1.939683 1_445
Co1 O33 2.254772 1_555
Co1 O46 2.275527 1_445
Co2 O28 1.872698 1_455
Co2 O3 1.887219 1_554
Co2 O8 1.997723 1_555
Co2 O23 2.030070 1_454
Co2 O34 2.172051 1_555
Co2 O45 2.181085 1_454
Co3 O22 1.916812 1_455
Co3 O9 1.944736 1_555
Co3 O2 1.962413 1_555
Co3 O29 2.035466 1_455
Co3 O44 2.166968 1_455
Co3 O35 2.250393 1_555
Co4 O26 1.851771 1_545
Co4 O5 1.885889 1_554
Co4 O17 1.973614 1_554
Co4 O14 2.061810 1_545
Co4 O36 2.120120 1_555
Co4 O43 2.303709 1_544
Co5 O16 1.893530 1_555
Co5 O15 1.913137 1_545
Co5 O27 1.955761 1_545
Co5 O4 2.043931 1_555
Co5 O37 2.199996 1_555
Co5 O42 2.262186 1_545
Co6 O19 1.862343 1_554
Co6 O12 1.872718 1_555
Co6 O7 1.968712 1_554
Co6 O24 1.984709 1_555
Co6 O38 2.125071 1_555
Co6 O41 2.325797 1_554
Co7 O13 1.931016 1_555
Co7 O18 1.943387 1_555
Co7 O6 1.949738 1_555
Co7 O25 1.957789 1_555
Co7 O40 2.173220 1_555
Co7 O39 2.252825 1_555
Co8 O1 1.897602 1_554
Co8 O24 1.904110 1_555
Co8 O8 1.930220 1_555
Co8 O17 1.939134 1_554
Co8 O48 2.239269 1_555
Co8 O57 2.307938 1_554
Co9 O25 1.943039 1_555
Co9 O0 1.944499 1_555
Co9 O16 1.971500 1_555
Co9 O9 1.979972 1_555
Co9 O56 2.186016 1_555
Co9 O49 2.254959 1_555
Co10 O3 1.998175 1_554
Co10 O10 2.003807 1_555
Co10 O26 2.010685 1_555
Co10 O19 2.036973 1_554
Co10 O50 2.132988 1_555
Co10 O59 2.241568 1_554
Co11 O2 1.905920 1_555
Co11 O27 1.918986 1_555
Co11 O18 1.938204 1_555
Co11 O11 1.948859 1_555
Co11 O58 2.211897 1_555
Co11 O51 2.255916 1_555
Co12 O12 1.996070 1_555
Co12 O28 2.022282 1_555
Co12 O5 2.026663 1_554
Co12 O21 2.032114 1_554
Co12 O52 2.195216 1_555
Co12 O61 2.312340 1_554
Co13 O29 1.852839 1_555
Co13 O4 1.860171 1_555
Co13 O13 1.959928 1_555
Co13 O20 1.979362 1_555
Co13 O60 2.207621 1_555
Co13 O53 2.339476 1_555
Co14 O23 1.832858 1_554
Co14 O14 1.841703 1_555
Co14 O7 1.950919 1_554
Co14 O30 1.971524 1_555
Co14 O54 2.158569 1_555
Co14 O63 2.309923 1_554
Co15 O6 1.928100 1_555
Co15 O22 1.947032 1_555
Co15 O31 1.950815 1_555
Co15 O15 1.971431 1_555
Co15 O62 2.226403 1_555
Co15 O55 2.256375 1_555
Co16 O56 1.812369 1_555
Co16 O32 1.832215 1_555
Co16 O74 1.922947 1_545
Co16 O68 1.947579 1_455
Co17 O57 1.807565 1_555
Co17 O33 1.821263 1_555
Co17 O75 1.929788 1_545
Co17 O69 1.934881 1_455
Co18 O58 1.817965 1_555
Co18 O34 1.830283 1_555
Co18 O72 1.936193 1_555
Co18 O70 1.959345 1_455
Co19 O35 1.816316 1_555
Co19 O59 1.837426 1_555
Co19 O73 1.924409 1_555
Co19 O71 1.956766 1_455
Co20 O36 1.819233 1_555
Co20 O60 1.828899 1_555
Co20 O78 1.924394 1_545
Co20 O64 1.948407 1_555
Co21 O37 1.814224 1_555
Co21 O61 1.827223 1_555
Co21 O79 1.931739 1_545
Co21 O65 1.957331 1_555
Co22 O62 1.805748 1_555
Co22 O38 1.835223 1_555
Co22 O76 1.927565 1_555
Co22 O66 1.960791 1_555
Co23 O63 1.810081 1_555
Co23 O39 1.828413 1_555
Co23 O77 1.928846 1_555
Co23 O67 1.943501 1_555
Co24 O48 1.804323 1_555
Co24 O40 1.820242 1_555
Co24 O66 1.933309 1_555
Co24 O72 1.947935 1_555
Co25 O41 1.813689 1_555
Co25 O49 1.832123 1_555
Co25 O67 1.931782 1_555
Co25 O73 1.937317 1_555
Co26 O42 1.806218 1_555
Co26 O50 1.831974 1_555
Co26 O64 1.944662 1_565
Co26 O74 1.960898 1_555
Co27 O51 1.812283 1_555
Co27 O43 1.838574 1_555
Co27 O65 1.934942 1_565
Co27 O75 1.942846 1_555
Co28 O52 1.810074 1_555
Co28 O44 1.815612 1_555
Co28 O70 1.939330 1_555
Co28 O76 1.958636 1_555
Co29 O45 1.826712 1_555
Co29 O53 1.827919 1_555
Co29 O71 1.937720 1_555
Co29 O77 1.945199 1_555
Co30 O46 1.809815 1_555
Co30 O54 1.823688 1_555
Co30 O68 1.935696 1_565
Co30 O78 1.957994 1_555
Co31 O55 1.811217 1_555
Co31 O47 1.834256 1_555
Co31 O69 1.920043 1_565
Co31 O79 1.943446 1_555
O0 Sr14 2.583406 1_455
O0 Sr8 2.690209 1_555
O1 Sr15 2.559082 1_455
O2 Sr3 2.576624 1_555
O2 Sr9 2.653501 1_555
O2 Sr0 2.724858 1_555
O3 Sr4 2.598630 1_555
O4 Sr12 2.583634 1_555
O4 Sr1 2.629967 1_555
O4 Sr6 2.633828 1_545
O4 Sr10 2.650833 1_555
O5 Sr7 2.572169 1_545
O5 Sr13 2.633371 1_555
O6 Sr5 2.562341 1_555
O6 Sr11 2.648198 1_555
O6 Sr2 2.716659 1_555
O8 Sr15 2.760804 1_454
O8 Sr4 2.769700 1_554
O9 Sr0 2.562814 1_555
O9 Sr8 2.566369 1_555
O9 Sr14 2.629720 1_455
O9 Sr3 2.639648 1_555
O11 Sr9 2.591488 1_555
O12 Sr13 2.744486 1_554
O13 Sr2 2.564916 1_555
O13 Sr10 2.592899 1_555
O13 Sr5 2.649163 1_555
O13 Sr12 2.666575 1_555
O14 Sr7 2.712415 1_554
O15 Sr11 2.589228 1_555
O15 Sr1 2.606617 1_565
O15 Sr6 2.628647 1_555
O16 Sr12 2.600457 1_555
O16 Sr10 2.728065 1_555
O17 Sr13 2.562038 1_555
O18 Sr3 2.553149 1_555
O18 Sr11 2.643078 1_555
O18 Sr0 2.711830 1_555
O19 Sr4 2.557453 1_555
O20 Sr14 2.586179 1_555
O20 Sr6 2.612395 1_545
O20 Sr8 2.638637 1_655
O20 Sr1 2.642765 1_555
O21 Sr15 2.597716 1_555
O21 Sr7 2.600433 1_545
O22 Sr5 2.558260 1_555
O22 Sr9 2.662832 1_655
O22 Sr2 2.698294 1_555
O24 Sr4 2.737180 1_554
O24 Sr13 2.747469 1_554
O25 Sr10 2.560678 1_555
O25 Sr0 2.574790 1_555
O25 Sr12 2.623562 1_555
O25 Sr3 2.649229 1_555
O27 Sr11 2.573831 1_555
O28 Sr15 2.752881 1_554
O29 Sr2 2.604259 1_555
O29 Sr8 2.618057 1_655
O29 Sr14 2.638724 1_555
O29 Sr5 2.655280 1_555
O30 Sr7 2.735594 1_554
O31 Sr9 2.572125 1_655
O31 Sr1 2.592830 1_565
O31 Sr6 2.618397 1_555
O33 Sr8 2.545642 1_555
O33 Sr1 2.951887 1_455
O33 Sr9 3.107787 1_545
O35 Sr9 2.566727 1_555
O35 Sr0 2.717116 1_555
O35 Sr2 2.752700 1_455
O35 Sr8 3.122438 1_555
O37 Sr10 2.519896 1_555
O37 Sr1 2.649088 1_555
O37 Sr11 3.162479 1_545
O39 Sr11 2.583000 1_555
O39 Sr2 2.694296 1_555
O39 Sr0 2.776901 1_555
O39 Sr10 3.052022 1_555
O40 Sr12 2.532454 1_555
O40 Sr5 2.691131 1_555
O40 Sr3 2.765165 1_555
O41 Sr13 2.462067 1_555
O41 Sr4 2.911592 1_555
O42 Sr6 2.706418 1_555
O43 Sr7 2.629103 1_555
O44 Sr14 2.570318 1_555
O44 Sr3 2.682009 1_655
O44 Sr5 2.785265 1_555
O45 Sr15 2.478868 1_555
O45 Sr4 2.617391 1_655
O46 Sr6 2.854345 1_555
O47 Sr7 2.879403 1_555
O49 Sr10 2.657339 1_555
O49 Sr8 2.777654 1_555
O49 Sr0 3.157313 1_555
O51 Sr0 2.503024 1_555
O51 Sr11 2.681718 1_555
O51 Sr9 2.784114 1_555
O53 Sr1 2.591640 1_555
O53 Sr8 2.705498 1_655
O53 Sr10 2.835239 1_555
O53 Sr2 3.096519 1_555
O55 Sr2 2.514240 1_555
O55 Sr9 2.671055 1_655
O55 Sr11 2.835185 1_555
O55 Sr1 3.157792 1_565
O56 Sr3 2.555413 1_555
O56 Sr12 2.660964 1_555
O56 Sr14 2.755284 1_455
O57 Sr4 2.447372 1_555
O57 Sr13 2.634869 1_555
O57 Sr15 2.822810 1_455
O60 Sr5 2.585877 1_555
O60 Sr14 2.705337 1_555
O60 Sr12 2.816720 1_555
O60 Sr6 3.140672 1_545
O61 Sr15 2.720193 1_555
O61 Sr13 2.809581 1_555
O62 Sr6 2.525080 1_555
O62 Sr5 3.080341 1_555
O63 Sr7 2.429357 1_555
O64 Sr12 2.461607 1_555
O65 Sr13 2.453439 1_555
O67 Sr0 2.466541 1_555
O68 Sr14 2.448540 1_555
O69 Sr15 2.405438 1_555
O69 Sr1 2.411455 1_555
O71 Sr2 2.484397 1_555
O72 Sr3 2.455080 1_555
O73 Sr4 2.402800 1_555
O73 Sr8 2.426993 1_555
O75 Sr9 2.479833 1_555
O76 Sr5 2.447932 1_555
O77 Sr10 2.460071 1_555
O78 Sr6 2.459746 1_555
O79 Sr7 2.401277 1_555
O79 Sr11 2.447847 1_555
