# generated using pymatgen
data_MgTiMn5(PO4)6
_symmetry_space_group_name_H-M   'P 1'
_cell_length_a   9.15094044
_cell_length_b   8.64903022
_cell_length_c   8.86241793
_cell_angle_alpha   59.93327499
_cell_angle_beta   58.10103327
_cell_angle_gamma   59.97439925
_symmetry_Int_Tables_number   1
_chemical_formula_structural   MgTiMn5(PO4)6
_chemical_formula_sum   'Mg1 Ti1 Mn5 P6 O24'
_cell_volume   488.14905292
_cell_formula_units_Z   1
loop_
 _symmetry_equiv_pos_site_id
 _symmetry_equiv_pos_as_xyz
  1  'x, y, z'
loop_
 _atom_site_type_symbol
 _atom_site_label
 _atom_site_symmetry_multiplicity
 _atom_site_fract_x
 _atom_site_fract_y
 _atom_site_fract_z
 _atom_site_occupancy
  Mg  Mg0  1  0.36536500  0.89090000  0.88153600  1
  Ti  Ti0  1  0.52997000  0.15993700  0.15497400  1
  Mn  Mn0  1  0.96491400  0.01137400  0.98048400  1
  Mn  Mn1  1  0.11202400  0.63632200  0.65554600  1
  Mn  Mn2  1  0.50576000  0.48695700  0.49852900  1
  Mn  Mn3  1  0.73877300  0.72895100  0.73804900  1
  Mn  Mn4  1  0.93491400  0.34954200  0.36793500  1
  P  P0  1  0.22913100  0.25879800  0.55349200  1
  P  P1  1  0.24229200  0.96367400  0.26005900  1
  P  P2  1  0.23601800  0.54404100  0.97621900  1
  P  P3  1  0.72857000  0.45463900  0.05433800  1
  P  P4  1  0.72833900  0.05227300  0.75234500  1
  P  P5  1  0.73490000  0.76097200  0.43745500  1
  O  O0  1  0.07501700  0.09848200  0.36616800  1
  O  O1  1  0.06781900  0.47834700  0.10911600  1
  O  O2  1  0.06345700  0.35036600  0.50281400  1
  O  O3  1  0.19583100  0.09862900  0.74632800  1
  O  O4  1  0.40158600  0.17013900  0.39827500  1
  O  O5  1  0.28450000  0.39786400  0.55954900  1
  O  O6  1  0.20713200  0.96278800  0.11082100  1
  O  O7  1  0.29374800  0.76626200  0.40280100  1
  O  O8  1  0.57183000  0.63041200  0.98926600  1
  O  O9  1  0.29872900  0.54381200  0.77607300  1
  O  O10  1  0.73544600  0.26790100  0.06299200  1
  O  O11  1  0.56436400  0.00494900  0.79863800  1
  O  O12  1  0.40965400  0.03367600  0.16771200  1
  O  O13  1  0.19301000  0.74325000  0.97235500  1
  O  O14  1  0.71298100  0.43985900  0.23930400  1
  O  O15  1  0.39945000  0.40240400  0.04270000  1
  O  O16  1  0.73040500  0.24189600  0.58578600  1
  O  O17  1  0.72997200  0.07903200  0.91311400  1
  O  O18  1  0.73686800  0.58711200  0.42708300  1
  O  O19  1  0.56975400  0.80450300  0.61987700  1
  O  O20  1  0.73364500  0.92409100  0.25294600  1
  O  O21  1  0.89520000  0.72642300  0.48223900  1
  O  O22  1  0.89774300  0.50709500  0.87818500  1
  O  O23  1  0.89516700  0.87982400  0.70676900  1
loop_
_geom_bond_atom_site_label_1
_geom_bond_atom_site_label_2
_geom_bond_distance
_geom_bond_site_symmetry_2
Mg0 O6 1.966657 1_556
Mg0 O3 2.022033 1_565
Mg0 O13 2.100090 1_555
Mg0 O11 2.118137 1_565
Mg0 O8 2.246809 1_555
Mg0 O19 2.277693 1_555
Mn0 O3 2.175656 1_655
Mn0 O13 2.214516 1_645
Mn0 O17 2.251358 1_555
Mn0 O10 2.281898 1_556
Mn0 O20 2.291502 1_546
Mn0 O6 2.776894 1_646
Mn1 O23 2.098312 1_455
Mn1 O9 2.098685 1_555
Mn1 O7 2.111167 1_555
Mn1 O5 2.133047 1_555
Mn1 O22 2.209533 1_455
Mn1 O21 2.716088 1_455
Mn2 O14 2.144820 1_555
Mn2 O5 2.229898 1_555
Mn2 O16 2.234632 1_555
Mn2 O9 2.288225 1_555
Mn2 O7 2.305433 1_555
Mn2 O18 2.343608 1_555
Mn3 O21 1.943678 1_555
Mn3 O8 1.955537 1_555
Mn3 O19 1.982612 1_555
Mn3 O22 2.017063 1_555
Mn3 O23 2.216985 1_555
Mn3 O11 2.258263 1_565
Mn4 O0 1.893626 1_655
Mn4 O1 1.956724 1_655
Mn4 O18 2.032184 1_555
Mn4 O16 2.054432 1_555
Mn4 O2 2.077382 1_655
Mn4 O14 2.449719 1_555
O0 P1 1.542114 1_545
O1 P2 1.538793 1_554
O2 P0 1.512945 1_555
O3 P0 1.559623 1_555
O4 P0 1.588198 1_555
O4 Ti0 1.856623 1_555
O5 P0 1.552300 1_555
O6 P1 1.521590 1_555
O7 P1 1.548534 1_555
O8 P3 1.585721 1_556
O9 P2 1.549910 1_555
O10 P3 1.548442 1_555
O10 Ti0 2.108670 1_555
O11 P4 1.543762 1_555
O12 P1 1.577568 1_545
O12 Ti0 1.834633 1_555
O13 P2 1.549572 1_555
O14 P3 1.511608 1_555
O15 P2 1.568128 1_554
O15 Ti0 1.863572 1_555
O16 P4 1.563586 1_555
O17 P4 1.562124 1_555
O17 Ti0 2.123439 1_556
O18 P5 1.542595 1_555
O19 P5 1.580412 1_555
O20 P5 1.535065 1_555
O20 Ti0 2.125890 1_565
O21 P5 1.567288 1_555
O22 P3 1.574360 1_556
O23 P4 1.546478 1_565
