# generated using pymatgen
data_BaSrCr4O12
_symmetry_space_group_name_H-M   'P 1'
_cell_length_a   5.42035524
_cell_length_b   5.42035524
_cell_length_c   7.68375912
_cell_angle_alpha   90.00000000
_cell_angle_beta   90.00000000
_cell_angle_gamma   90.00000000
_symmetry_Int_Tables_number   1
_chemical_formula_structural   BaSrCr4O12
_chemical_formula_sum   'Ba1 Sr1 Cr4 O12'
_cell_volume   225.75077101
_cell_formula_units_Z   1
loop_
 _symmetry_equiv_pos_site_id
 _symmetry_equiv_pos_as_xyz
  1  'x, y, z'
loop_
 _atom_site_type_symbol
 _atom_site_label
 _atom_site_symmetry_multiplicity
 _atom_site_fract_x
 _atom_site_fract_y
 _atom_site_fract_z
 _atom_site_occupancy
  Ba  Ba0  1  0.50000000  0.50000000  0.50000000  1
  Sr  Sr0  1  -0.00000000  0.00000000  -0.00000000  1
  Cr  Cr0  1  -0.00000000  0.50000000  0.75114479  1
  Cr  Cr1  1  -0.00000000  0.50000000  0.24885521  1
  Cr  Cr2  1  0.50000000  0.00000000  0.75114479  1
  Cr  Cr3  1  0.50000000  0.00000000  0.24885521  1
  O  O0  1  0.24746968  0.24746968  0.75345779  1
  O  O1  1  0.24746968  0.24746968  0.24654221  1
  O  O2  1  0.75253032  0.75253032  0.24654221  1
  O  O3  1  0.75253032  0.75253032  0.75345779  1
  O  O4  1  0.75253032  0.24746968  0.75345779  1
  O  O5  1  0.75253032  0.24746968  0.24654221  1
  O  O6  1  0.24746968  0.75253032  0.24654221  1
  O  O7  1  0.24746968  0.75253032  0.75345779  1
  O  O8  1  -0.00000000  0.50000000  0.50000000  1
  O  O9  1  -0.00000000  0.50000000  -0.00000000  1
  O  O10  1  0.50000000  0.00000000  0.50000000  1
  O  O11  1  0.50000000  0.00000000  -0.00000000  1
loop_
_geom_bond_atom_site_label_1
_geom_bond_atom_site_label_2
_geom_bond_distance
_geom_bond_site_symmetry_2
Ba0 O8 2.710178 1_655
Ba0 O10 2.710178 1_555
Ba0 O10 2.710178 1_565
Ba0 O8 2.710178 1_555
Ba0 O6 2.745913 1_555
Ba0 O3 2.745913 1_555
Ba0 O1 2.745913 1_555
Ba0 O7 2.745913 1_555
Ba0 O4 2.745913 1_555
Ba0 O5 2.745913 1_555
Ba0 O0 2.745913 1_555
Ba0 O2 2.745913 1_555
Cr0 O9 1.912143 1_556
Cr0 O4 1.916566 1_455
Cr0 O0 1.916566 1_555
Cr0 O7 1.916566 1_555
Cr0 O3 1.916566 1_455
Cr0 O8 1.929736 1_555
Cr1 O9 1.912143 1_555
Cr1 O1 1.916566 1_555
Cr1 O5 1.916566 1_455
Cr1 O2 1.916566 1_455
Cr1 O6 1.916566 1_555
Cr1 O8 1.929736 1_555
Cr2 O11 1.912143 1_556
Cr2 O0 1.916566 1_555
Cr2 O4 1.916566 1_555
Cr2 O3 1.916566 1_545
Cr2 O7 1.916566 1_545
Cr2 O10 1.929736 1_555
Cr3 O11 1.912143 1_555
Cr3 O2 1.916566 1_545
Cr3 O1 1.916566 1_555
Cr3 O6 1.916566 1_545
Cr3 O5 1.916566 1_555
Cr3 O10 1.929736 1_555
O0 Sr0 2.680897 1_556
O1 Sr0 2.680897 1_555
O2 Sr0 2.680897 1_665
O3 Sr0 2.680897 1_666
O4 Sr0 2.680897 1_656
O5 Sr0 2.680897 1_655
O6 Sr0 2.680897 1_565
O7 Sr0 2.680897 1_566
O9 Sr0 2.710178 1_565
O9 Sr0 2.710178 1_555
O11 Sr0 2.710178 1_655
O11 Sr0 2.710178 1_555
