# generated using pymatgen
data_Mg5Si9
_symmetry_space_group_name_H-M   'P 1'
_cell_length_a   6.74109500
_cell_length_b   7.18256424
_cell_length_c   12.62822846
_cell_angle_alpha   89.38309200
_cell_angle_beta   95.51091193
_cell_angle_gamma   116.66179338
_symmetry_Int_Tables_number   1
_chemical_formula_structural   Mg5Si9
_chemical_formula_sum   'Mg10 Si18'
_cell_volume   543.53937732
_cell_formula_units_Z   2
loop_
 _symmetry_equiv_pos_site_id
 _symmetry_equiv_pos_as_xyz
  1  'x, y, z'
loop_
 _atom_site_type_symbol
 _atom_site_label
 _atom_site_symmetry_multiplicity
 _atom_site_fract_x
 _atom_site_fract_y
 _atom_site_fract_z
 _atom_site_occupancy
  Mg  Mg0  1  0.60490500  0.99743100  0.70826900  1
  Mg  Mg1  1  0.74549100  0.04303800  0.41226700  1
  Mg  Mg2  1  0.20176400  0.66933400  0.53306800  1
  Mg  Mg3  1  0.74497400  0.44813900  0.34476800  1
  Mg  Mg4  1  0.77212300  0.70269300  0.57364600  1
  Mg  Mg5  1  0.34147400  0.21259300  0.49005100  1
  Mg  Mg6  1  0.54443300  0.07742500  0.08750100  1
  Mg  Mg7  1  0.35348400  0.17190500  0.86573400  1
  Mg  Mg8  1  0.98955600  0.49455100  0.10294900  1
  Mg  Mg9  1  0.01133800  0.34960500  0.86845700  1
  Si  Si0  1  0.26802500  0.25110900  0.16896500  1
  Si  Si1  1  0.48193400  0.62269900  0.91700500  1
  Si  Si2  1  0.00372400  0.86824400  0.35295300  1
  Si  Si3  1  0.11793500  0.26512300  0.65219800  1
  Si  Si4  1  0.12925400  0.39794000  0.29905000  1
  Si  Si5  1  0.00779600  0.74841400  0.80817200  1
  Si  Si6  1  0.40272700  0.74417000  0.23820200  1
  Si  Si7  1  0.69757000  0.41784700  0.73936900  1
  Si  Si8  1  0.75548800  0.79580900  0.18654500  1
  Si  Si9  1  0.17408300  0.95831400  0.66304000  1
  Si  Si10  1  0.82766900  0.92269400  0.88606700  1
  Si  Si11  1  0.92944800  0.06724900  0.06175800  1
  Si  Si12  1  0.36925000  0.04483900  0.29374200  1
  Si  Si13  1  0.43828000  0.56394600  0.72335400  1
  Si  Si14  1  0.23932800  0.75644900  0.96364900  1
  Si  Si15  1  0.57236700  0.47329900  0.07389400  1
  Si  Si16  1  0.81120100  0.32556000  0.57575400  1
  Si  Si17  1  0.46393000  0.60946000  0.40930300  1
loop_
_geom_bond_atom_site_label_1
_geom_bond_atom_site_label_2
_geom_bond_distance
_geom_bond_site_symmetry_2
Mg0 Si10 2.763027 1_555
Mg0 Si16 2.776599 1_565
Mg0 Si9 2.791447 1_555
Mg0 Si13 2.807452 1_555
Mg0 Si7 2.819293 1_565
Mg0 Si3 3.260689 1_665
Mg1 Si2 2.720218 1_645
Mg1 Si16 2.772048 1_555
Mg1 Si12 2.823658 1_555
Mg1 Si17 2.826016 1_545
Mg1 Si6 3.074647 1_545
Mg1 Si4 3.154089 1_655
Mg2 Si17 2.641605 1_555
Mg2 Si9 2.741660 1_555
Mg2 Si16 2.780087 1_455
Mg2 Si13 3.032717 1_555
Mg2 Si3 3.099741 1_555
Mg2 Si2 3.171022 1_555
Mg3 Si2 2.721521 1_655
Mg3 Si17 2.807670 1_555
Mg3 Si4 2.881633 1_655
Mg3 Si12 2.891991 1_555
Mg3 Si16 3.087128 1_555
Mg3 Si8 3.161340 1_555
Mg4 Si9 2.641949 1_655
Mg4 Si17 2.650475 1_555
Mg4 Si7 2.829344 1_555
Mg4 Si16 2.836388 1_555
Mg4 Si13 2.897549 1_555
Mg4 Si5 3.170514 1_655
Mg5 Si3 2.779462 1_555
Mg5 Si17 2.798935 1_555
Mg5 Si9 2.814104 1_545
Mg5 Si12 2.826378 1_555
Mg5 Si2 2.929142 1_545
Mg5 Si16 2.985156 1_555
Mg6 Si11 2.679563 1_555
Mg6 Si14 2.682496 1_544
Mg6 Si15 2.768579 1_555
Mg6 Si6 2.909079 1_545
Mg6 Si12 2.926113 1_555
Mg6 Si0 2.927166 1_555
Mg6 Si8 3.141083 1_545
Mg7 Si7 2.831987 1_555
Mg7 Si9 2.862332 1_545
Mg7 Si5 2.927791 1_545
Mg7 Si14 3.011323 1_545
Mg7 Si1 3.012315 1_555
Mg7 Si15 3.206931 1_556
Mg7 Si10 3.210110 1_445
Mg7 Si3 3.214648 1_555
Mg8 Si14 2.668924 1_654
Mg8 Si15 2.735831 1_555
Mg8 Si4 2.757259 1_655
Mg8 Si6 2.925743 1_655
Mg8 Si11 2.955016 1_555
Mg8 Si0 3.144830 1_655
Mg9 Si10 2.759667 1_445
Mg9 Si7 2.760873 1_455
Mg9 Si14 2.834879 1_555
Mg9 Si1 2.890503 1_555
Mg9 Si5 2.965849 1_555
Mg9 Si3 3.024346 1_555
Mg9 Si11 3.086081 1_456
Si0 Si11 2.350767 1_455
Si0 Si15 2.385539 1_555
Si0 Si12 2.407067 1_555
Si0 Si4 2.429773 1_555
Si1 Si14 2.356197 1_555
Si1 Si15 2.399523 1_556
Si1 Si10 2.424304 1_555
Si1 Si13 2.453070 1_555
Si2 Si8 2.460433 1_455
Si3 Si9 2.397977 1_545
Si4 Si6 2.507957 1_555
Si5 Si9 2.388913 1_555
Si5 Si7 2.450511 1_455
Si6 Si8 2.391478 1_555
Si10 Si11 2.364139 1_566
Si10 Si5 2.372552 1_655
Si11 Si8 2.428266 1_545
Si12 Si6 2.388934 1_545
Si12 Si2 2.401675 1_545
Si13 Si3 2.363616 1_555
Si13 Si7 2.402256 1_555
Si14 Si5 2.372196 1_555
Si15 Si8 2.465953 1_555
Si16 Si3 2.410174 1_655
Si16 Si7 2.466644 1_555
Si17 Si4 2.388036 1_555
Si17 Si6 2.432498 1_555
