# generated using pymatgen
data_Li3AlSiO5
_symmetry_space_group_name_H-M   'P 1'
_cell_length_a   4.84202800
_cell_length_b   5.37440700
_cell_length_c   15.68112500
_cell_angle_alpha   90.00000000
_cell_angle_beta   90.00000000
_cell_angle_gamma   90.00000000
_symmetry_Int_Tables_number   1
_chemical_formula_structural   Li3AlSiO5
_chemical_formula_sum   'Li12 Al4 Si4 O20'
_cell_volume   408.07037341
_cell_formula_units_Z   4
loop_
 _symmetry_equiv_pos_site_id
 _symmetry_equiv_pos_as_xyz
  1  'x, y, z'
loop_
 _atom_site_type_symbol
 _atom_site_label
 _atom_site_symmetry_multiplicity
 _atom_site_fract_x
 _atom_site_fract_y
 _atom_site_fract_z
 _atom_site_occupancy
  Li  Li0  1  0.89662900  0.17216400  0.69684100  1
  Li  Li1  1  0.39662900  0.82783500  0.30315900  1
  Li  Li2  1  0.39662900  0.32783600  0.19684100  1
  Li  Li3  1  0.89662900  0.67216500  0.80315900  1
  Li  Li4  1  0.89457200  0.16478700  0.50420100  1
  Li  Li5  1  0.39457200  0.83521300  0.49579900  1
  Li  Li6  1  0.39457200  0.33521300  0.00420100  1
  Li  Li7  1  0.89457200  0.66478700  0.99579900  1
  Li  Li8  1  0.89669600  0.66993700  0.40457800  1
  Li  Li9  1  0.39669600  0.33006300  0.59542200  1
  Li  Li10  1  0.39669600  0.83006300  0.90457800  1
  Li  Li11  1  0.89669600  0.16993700  0.09542200  1
  Al  Al0  1  0.39818500  0.82797300  0.70024100  1
  Al  Al1  1  0.89818500  0.17202700  0.29975900  1
  Al  Al2  1  0.89818500  0.67202700  0.20024100  1
  Al  Al3  1  0.39818500  0.32797300  0.79975900  1
  Si  Si0  1  0.89439400  0.66647300  0.59830600  1
  Si  Si1  1  0.39439400  0.33352700  0.40169400  1
  Si  Si2  1  0.39439400  0.83352700  0.09830600  1
  Si  Si3  1  0.89439400  0.16647300  0.90169400  1
  O  O0  1  0.79857800  0.81287200  0.51308800  1
  O  O1  1  0.29857800  0.18712800  0.48691200  1
  O  O2  1  0.29857800  0.68712800  0.01308800  1
  O  O3  1  0.79857800  0.31287200  0.98691200  1
  O  O4  1  0.80233400  0.37629000  0.60250500  1
  O  O5  1  0.30233400  0.62371000  0.39749500  1
  O  O6  1  0.30233400  0.12371000  0.10250500  1
  O  O7  1  0.80233400  0.87629000  0.89749500  1
  O  O8  1  0.76642500  0.81234900  0.68598500  1
  O  O9  1  0.26642500  0.18765100  0.31401500  1
  O  O10  1  0.26642500  0.68765100  0.18598500  1
  O  O11  1  0.76642500  0.31234900  0.81401500  1
  O  O12  1  0.23902000  0.69125400  0.60923200  1
  O  O13  1  0.73902000  0.30874600  0.39076800  1
  O  O14  1  0.73902000  0.80874600  0.10923200  1
  O  O15  1  0.23902000  0.19125400  0.89076800  1
  O  O16  1  0.30866700  0.64571200  0.79036300  1
  O  O17  1  0.80866700  0.35428800  0.20963700  1
  O  O18  1  0.80866700  0.85428800  0.29036300  1
  O  O19  1  0.30866700  0.14571200  0.70963700  1
loop_
_geom_bond_atom_site_label_1
_geom_bond_atom_site_label_2
_geom_bond_distance
_geom_bond_site_symmetry_2
Li0 O4 1.897448 1_555
Li0 O19 2.010198 1_655
Li0 O8 2.041078 1_545
Li0 O11 2.083557 1_555
Li1 O5 1.897445 1_555
Li1 O18 2.010198 1_555
Li1 O9 2.041084 1_565
Li1 O10 2.083555 1_555
Li2 O6 1.897448 1_555
Li2 O17 2.010198 1_555
Li2 O10 2.041078 1_555
Li2 O9 2.083557 1_555
Li3 O7 1.897445 1_555
Li3 O16 2.010198 1_655
Li3 O11 2.041084 1_555
Li3 O8 2.083555 1_555
Li4 O0 1.952591 1_545
Li4 O4 1.966682 1_555
Li4 O1 1.978552 1_655
Li4 O13 2.080834 1_555
Li5 O1 1.952591 1_565
Li5 O5 1.966682 1_555
Li5 O0 1.978552 1_555
Li5 O12 2.080834 1_555
Li6 O2 1.952591 1_555
Li6 O6 1.966682 1_555
Li6 O3 1.978552 1_554
Li6 O15 2.080834 1_554
Li7 O3 1.952591 1_555
Li7 O7 1.966682 1_555
Li7 O2 1.978552 1_656
Li7 O14 2.080834 1_556
Li8 O0 1.926429 1_555
Li8 O5 1.982874 1_655
Li8 O18 2.090711 1_555
Li8 O13 2.097140 1_555
Li9 O1 1.926429 1_555
Li9 O4 1.982874 1_555
Li9 O19 2.090711 1_555
Li9 O12 2.097140 1_555
Li10 O2 1.926429 1_556
Li10 O7 1.982874 1_555
Li10 O16 2.090711 1_555
Li10 O15 2.097140 1_565
Li11 O3 1.926429 1_554
Li11 O6 1.982874 1_655
Li11 O17 2.090711 1_555
Li11 O14 2.097140 1_545
Al0 O19 1.767961 1_565
Al0 O16 1.773291 1_555
Al0 O12 1.780601 1_555
Al0 O8 1.798949 1_555
Al1 O18 1.767961 1_545
Al1 O17 1.773291 1_555
Al1 O13 1.780601 1_555
Al1 O9 1.798949 1_655
Al2 O17 1.767961 1_555
Al2 O18 1.773291 1_555
Al2 O14 1.780601 1_555
Al2 O10 1.798949 1_655
Al3 O16 1.767961 1_555
Al3 O19 1.773291 1_555
Al3 O15 1.780601 1_555
Al3 O11 1.798949 1_555
O0 Si0 1.618656 1_555
O1 Si1 1.618656 1_555
O2 Si2 1.618656 1_555
O3 Si3 1.618656 1_555
O4 Si0 1.623351 1_555
O5 Si1 1.623351 1_555
O6 Si2 1.623351 1_545
O7 Si3 1.623351 1_565
O8 Si0 1.699693 1_555
O9 Si1 1.699693 1_555
O10 Si2 1.699693 1_555
O11 Si3 1.699693 1_555
O12 Si0 1.682740 1_455
O13 Si1 1.682740 1_555
O14 Si2 1.682740 1_555
O15 Si3 1.682740 1_455
