# generated using pymatgen
data_Ba3InS4Cl
_symmetry_space_group_name_H-M   'P 1'
_cell_length_a   9.43751098
_cell_length_b   9.43751098
_cell_length_c   9.43751098
_cell_angle_alpha   126.62531910
_cell_angle_beta   126.62531910
_cell_angle_gamma   78.86279276
_symmetry_Int_Tables_number   1
_chemical_formula_structural   Ba3InS4Cl
_chemical_formula_sum   'Ba6 In2 S8 Cl2'
_cell_volume   523.83495241
_cell_formula_units_Z   2
loop_
 _symmetry_equiv_pos_site_id
 _symmetry_equiv_pos_as_xyz
  1  'x, y, z'
loop_
 _atom_site_type_symbol
 _atom_site_label
 _atom_site_symmetry_multiplicity
 _atom_site_fract_x
 _atom_site_fract_y
 _atom_site_fract_z
 _atom_site_occupancy
  Ba  Ba0  1  0.65505800  0.15505800  0.81011600  1
  Ba  Ba1  1  0.34494200  0.84494200  0.18988400  1
  Ba  Ba2  1  0.15505800  0.34494200  0.50000000  1
  Ba  Ba3  1  0.84494200  0.65505800  0.50000000  1
  Ba  Ba4  1  0.75000000  0.75000000  0.00000000  1
  Ba  Ba5  1  0.25000000  0.25000000  0.00000000  1
  In  In0  1  0.75000000  0.25000000  0.50000000  1
  In  In1  1  0.25000000  0.75000000  0.50000000  1
  S  S0  1  0.01509200  0.51509200  0.81441500  1
  S  S1  1  0.70067700  0.20067700  0.18558500  1
  S  S2  1  0.51509200  0.70067700  0.50000000  1
  S  S3  1  0.20067700  0.01509200  0.50000000  1
  S  S4  1  0.98490800  0.48490800  0.18558500  1
  S  S5  1  0.29932300  0.79932300  0.81441500  1
  S  S6  1  0.48490800  0.29932300  0.50000000  1
  S  S7  1  0.79932300  0.98490800  0.50000000  1
  Cl  Cl0  1  0.00000000  0.00000000  0.00000000  1
  Cl  Cl1  1  0.50000000  0.50000000  0.00000000  1
loop_
_geom_bond_atom_site_label_1
_geom_bond_atom_site_label_2
_geom_bond_distance
_geom_bond_site_symmetry_2
Ba0 S1 3.059108 1_556
Ba0 S4 3.059108 1_556
Ba0 Cl1 3.205988 1_556
Ba0 Cl0 3.205988 1_656
Ba0 S3 3.361591 1_555
Ba0 S2 3.361591 1_545
Ba0 S6 3.361591 1_555
Ba0 S7 3.361591 1_545
Ba1 S0 3.059108 1_554
Ba1 S5 3.059108 1_554
Ba1 Cl0 3.205988 1_565
Ba1 Cl1 3.205988 1_555
Ba1 S3 3.361591 1_565
Ba1 S2 3.361591 1_555
Ba1 S6 3.361591 1_565
Ba1 S7 3.361591 1_555
Ba2 S3 3.059108 1_555
Ba2 S6 3.059108 1_555
Ba2 Cl0 3.205988 1_555
Ba2 Cl1 3.205988 1_556
Ba2 S0 3.361591 1_555
Ba2 S1 3.361591 1_455
Ba2 S4 3.361591 1_455
Ba2 S5 3.361591 1_555
Ba3 S2 3.059108 1_555
Ba3 S7 3.059108 1_555
Ba3 Cl1 3.205988 1_555
Ba3 Cl0 3.205988 1_666
Ba3 S0 3.361591 1_655
Ba3 S1 3.361591 1_555
Ba3 S5 3.361591 1_655
Ba3 S4 3.361591 1_555
Ba4 S4 3.562884 1_555
Ba4 S1 3.562884 1_565
Ba4 S5 3.562884 1_554
Ba4 S3 3.562884 1_665
Ba4 S2 3.562884 1_554
Ba4 S6 3.562884 1_554
Ba4 S7 3.562884 1_555
Ba4 S0 3.562884 1_654
Ba4 Cl1 3.644699 1_555
Ba4 Cl0 3.644699 1_665
Ba5 S0 3.562884 1_554
Ba5 S4 3.562884 1_455
Ba5 S7 3.562884 1_444
Ba5 S1 3.562884 1_555
Ba5 S2 3.562884 1_555
Ba5 S6 3.562884 1_555
Ba5 S3 3.562884 1_554
Ba5 S5 3.562884 1_544
Ba5 Cl0 3.644699 1_555
Ba5 Cl1 3.644699 1_555
In0 S1 2.454757 1_555
In0 S7 2.454757 1_545
In0 S0 2.454757 1_655
In0 S6 2.454757 1_555
In1 S4 2.454757 1_455
In1 S5 2.454757 1_555
In1 S2 2.454757 1_555
In1 S3 2.454757 1_565
