# generated using pymatgen
data_SrLaMnSnO6
_symmetry_space_group_name_H-M   'P 1'
_cell_length_a   5.71494600
_cell_length_b   5.73230241
_cell_length_c   8.08246955
_cell_angle_alpha   89.95714450
_cell_angle_beta   90.00026579
_cell_angle_gamma   90.00415436
_symmetry_Int_Tables_number   1
_chemical_formula_structural   SrLaMnSnO6
_chemical_formula_sum   'Sr2 La2 Mn2 Sn2 O12'
_cell_volume   264.78000136
_cell_formula_units_Z   2
loop_
 _symmetry_equiv_pos_site_id
 _symmetry_equiv_pos_as_xyz
  1  'x, y, z'
loop_
 _atom_site_type_symbol
 _atom_site_label
 _atom_site_symmetry_multiplicity
 _atom_site_fract_x
 _atom_site_fract_y
 _atom_site_fract_z
 _atom_site_occupancy
  Sr  Sr0  1  0.47669000  0.49642900  0.74949300  1
  Sr  Sr1  1  0.02331300  0.99643700  0.24949200  1
  La  La0  1  0.96205400  0.00956300  0.75062600  1
  La  La1  1  0.53793700  0.50955700  0.25060900  1
  Mn  Mn0  1  0.49757300  0.99975200  0.99925900  1
  Mn  Mn1  1  0.00243100  0.49973900  0.49926300  1
  Sn  Sn0  1  0.49590200  0.00060400  0.49938200  1
  Sn  Sn1  1  0.00409800  0.50060300  0.99938000  1
  O  O0  1  0.21053000  0.20072300  0.54764100  1
  O  O1  1  0.72819800  0.28378300  0.95700800  1
  O  O2  1  0.76857400  0.79042500  0.03895900  1
  O  O3  1  0.28038900  0.69635400  0.45722500  1
  O  O4  1  0.77180400  0.78378100  0.45700700  1
  O  O5  1  0.28946200  0.70072200  0.04764300  1
  O  O6  1  0.21959000  0.19636800  0.95722000  1
  O  O7  1  0.73144600  0.29044300  0.53895900  1
  O  O8  1  0.02061400  0.59078600  0.74851600  1
  O  O9  1  0.53151500  0.93157300  0.75188200  1
  O  O10  1  0.96848900  0.43157100  0.25190200  1
  O  O11  1  0.47939100  0.09078600  0.24853300  1
loop_
_geom_bond_atom_site_label_1
_geom_bond_atom_site_label_2
_geom_bond_distance
_geom_bond_site_symmetry_2
La0 O8 2.423869 1_645
La0 O0 2.430219 1_655
La0 O6 2.470524 1_655
La0 O9 2.500779 1_545
La0 O1 2.654015 1_555
La0 O7 2.693001 1_555
La0 O2 2.868273 1_546
La0 O4 2.914365 1_545
La1 O11 2.423774 1_555
La1 O5 2.430209 1_555
La1 O3 2.470767 1_555
La1 O10 2.500913 1_555
La1 O4 2.654019 1_555
La1 O2 2.692847 1_555
La1 O7 2.868450 1_555
La1 O1 2.914328 1_554
Mn0 O6 1.977178 1_565
Mn0 O2 1.985224 1_556
Mn0 O9 2.046759 1_555
Mn0 O11 2.084204 1_566
Mn0 O1 2.122146 1_565
Mn0 O5 2.122361 1_556
Mn1 O3 1.976930 1_555
Mn1 O7 1.984907 1_455
Mn1 O10 2.046613 1_455
Mn1 O8 2.084054 1_555
Mn1 O4 2.122353 1_455
Mn1 O0 2.122386 1_555
O0 Sn0 2.031948 1_555
O0 Sr0 2.802215 1_555
O0 Sr1 2.885676 1_545
O1 Sn1 2.036794 1_655
O1 Sr0 2.522324 1_555
O2 Sn1 2.162236 1_654
O2 Sr1 2.532243 1_655
O3 Sn0 2.162254 1_565
O3 Sr1 2.816469 1_555
O3 Sr0 2.854515 1_555
O4 Sn0 2.036960 1_565
O4 Sr1 2.522263 1_655
O5 Sn1 2.031781 1_554
O5 Sr1 2.802340 1_555
O5 Sr0 2.885794 1_554
O6 Sn1 2.162266 1_555
O6 Sr0 2.816313 1_555
O6 Sr1 2.854445 1_546
O7 Sn0 2.162228 1_555
O7 Sr0 2.532343 1_555
O8 Sn1 2.094217 1_555
O8 Sr0 2.662028 1_555
O9 Sn0 2.088484 1_565
O9 Sr0 2.514044 1_555
O10 Sn1 2.088653 1_654
O10 Sr1 2.514033 1_645
O11 Sn0 2.094099 1_555
O11 Sr1 2.661953 1_545
