# generated using pymatgen
data_Cu5(PO6)2
_symmetry_space_group_name_H-M   'P 1'
_cell_length_a   4.57176200
_cell_length_b   5.74383398
_cell_length_c   8.42696699
_cell_angle_alpha   76.07325972
_cell_angle_beta   89.60108006
_cell_angle_gamma   84.52623614
_symmetry_Int_Tables_number   1
_chemical_formula_structural   Cu5(PO6)2
_chemical_formula_sum   'Cu5 P2 O12'
_cell_volume   213.77382574
_cell_formula_units_Z   1
loop_
 _symmetry_equiv_pos_site_id
 _symmetry_equiv_pos_as_xyz
  1  'x, y, z'
loop_
 _atom_site_type_symbol
 _atom_site_label
 _atom_site_symmetry_multiplicity
 _atom_site_fract_x
 _atom_site_fract_y
 _atom_site_fract_z
 _atom_site_occupancy
  Cu  Cu0  1  0.00000000  0.50000000  0.50000000  1
  Cu  Cu1  1  0.00000000  0.00000000  0.00000000  1
  Cu  Cu2  1  0.00000000  0.50000000  0.00000000  1
  Cu  Cu3  1  0.05256100  0.04187600  0.33031300  1
  Cu  Cu4  1  0.94743900  0.95812400  0.66968700  1
  P  P0  1  0.50649200  0.65668300  0.22975000  1
  P  P1  1  0.49350800  0.34331700  0.77025000  1
  O  O0  1  0.69480900  0.68843000  0.07220700  1
  O  O1  1  0.30519100  0.31157000  0.92779300  1
  O  O2  1  0.69620200  0.69745800  0.36993300  1
  O  O3  1  0.30379800  0.30254200  0.63006700  1
  O  O4  1  0.28900700  0.90122000  0.18433300  1
  O  O5  1  0.71099300  0.09878000  0.81566700  1
  O  O6  1  0.67456700  0.55515500  0.73401600  1
  O  O7  1  0.32543300  0.44484500  0.26598400  1
  O  O8  1  0.14234800  0.80219100  0.52372700  1
  O  O9  1  0.85765200  0.19780900  0.47627300  1
  O  O10  1  0.12634300  0.78435400  0.87311400  1
  O  O11  1  0.87365700  0.21564600  0.12688600  1
loop_
_geom_bond_atom_site_label_1
_geom_bond_atom_site_label_2
_geom_bond_distance
_geom_bond_site_symmetry_2
Cu0 O2 1.881224 1_455
Cu0 O3 1.881224 1_555
Cu0 O9 1.964852 1_455
Cu0 O8 1.964852 1_555
Cu0 O7 2.524447 1_555
Cu0 O6 2.524447 1_455
Cu1 O11 1.871794 1_455
Cu1 O10 1.871794 1_544
Cu1 O5 1.985432 1_454
Cu1 O4 1.985432 1_545
Cu1 O1 2.336679 1_554
Cu1 O0 2.336679 1_445
Cu2 O11 1.864215 1_455
Cu2 O10 1.864215 1_554
Cu2 O1 1.872297 1_554
Cu2 O0 1.872297 1_455
Cu3 O9 1.863300 1_455
Cu3 O8 1.881957 1_545
Cu3 O4 1.904681 1_545
Cu3 O11 1.908946 1_455
Cu4 O8 1.863300 1_655
Cu4 O9 1.881957 1_565
Cu4 O5 1.904681 1_565
Cu4 O10 1.908946 1_655
O0 P0 1.560295 1_555
O1 P1 1.560295 1_555
O2 P0 1.545570 1_555
O3 P1 1.545570 1_555
O4 P0 1.608737 1_555
O5 P1 1.608737 1_555
O6 P1 1.506227 1_555
O7 P0 1.506227 1_555
