# generated using pymatgen
data_MnTl(PO3)3
_symmetry_space_group_name_H-M   'P 1'
_cell_length_a   9.61175600
_cell_length_b   7.45148100
_cell_length_c   12.38921200
_cell_angle_alpha   90.00000000
_cell_angle_beta   90.00000000
_cell_angle_gamma   90.00000000
_symmetry_Int_Tables_number   1
_chemical_formula_structural   MnTl(PO3)3
_chemical_formula_sum   'Mn4 Tl4 P12 O36'
_cell_volume   887.33787725
_cell_formula_units_Z   4
loop_
 _symmetry_equiv_pos_site_id
 _symmetry_equiv_pos_as_xyz
  1  'x, y, z'
loop_
 _atom_site_type_symbol
 _atom_site_label
 _atom_site_symmetry_multiplicity
 _atom_site_fract_x
 _atom_site_fract_y
 _atom_site_fract_z
 _atom_site_occupancy
  Mn  Mn0  1  0.98692900  0.25000000  0.21835000  1
  Mn  Mn1  1  0.48692900  0.25000000  0.28165000  1
  Mn  Mn2  1  0.01307100  0.75000000  0.78165000  1
  Mn  Mn3  1  0.51307100  0.75000000  0.71835000  1
  Tl  Tl0  1  0.59379200  0.25000000  0.57900800  1
  Tl  Tl1  1  0.09379200  0.25000000  0.92099200  1
  Tl  Tl2  1  0.40620800  0.75000000  0.42099200  1
  Tl  Tl3  1  0.90620800  0.75000000  0.07900800  1
  P  P0  1  0.20628200  0.25000000  0.45499300  1
  P  P1  1  0.70628200  0.25000000  0.04500700  1
  P  P2  1  0.79371800  0.75000000  0.54500700  1
  P  P3  1  0.29371800  0.75000000  0.95499300  1
  P  P4  1  0.24553600  0.04774200  0.65075100  1
  P  P5  1  0.74553600  0.45225800  0.84924900  1
  P  P6  1  0.75446400  0.54774200  0.34924900  1
  P  P7  1  0.25446400  0.95225800  0.15075100  1
  P  P8  1  0.75446400  0.95225800  0.34924900  1
  P  P9  1  0.25446400  0.54774200  0.15075100  1
  P  P10  1  0.24553600  0.45225800  0.65075100  1
  P  P11  1  0.74553600  0.04774200  0.84924900  1
  O  O0  1  0.10236600  0.25000000  0.36657400  1
  O  O1  1  0.60236600  0.25000000  0.13342600  1
  O  O2  1  0.89763400  0.75000000  0.63342600  1
  O  O3  1  0.39763400  0.75000000  0.86657400  1
  O  O4  1  0.17029300  0.08236400  0.53535100  1
  O  O5  1  0.67029300  0.41763600  0.96464900  1
  O  O6  1  0.82970700  0.58236400  0.46464900  1
  O  O7  1  0.32970700  0.91763600  0.03535100  1
  O  O8  1  0.82970700  0.91763600  0.46464900  1
  O  O9  1  0.32970700  0.58236400  0.03535100  1
  O  O10  1  0.17029300  0.41763600  0.53535100  1
  O  O11  1  0.67029300  0.08236400  0.96464900  1
  O  O12  1  0.36048700  0.25000000  0.43221900  1
  O  O13  1  0.86048700  0.25000000  0.06778100  1
  O  O14  1  0.63951300  0.75000000  0.56778100  1
  O  O15  1  0.13951300  0.75000000  0.93221900  1
  O  O16  1  0.28739200  0.25000000  0.68876900  1
  O  O17  1  0.78739200  0.25000000  0.81123100  1
  O  O18  1  0.71260800  0.75000000  0.31123100  1
  O  O19  1  0.21260800  0.75000000  0.18876900  1
  O  O20  1  0.38049700  0.94986400  0.63246600  1
  O  O21  1  0.88049700  0.55013600  0.86753400  1
  O  O22  1  0.61950300  0.44986400  0.36753400  1
  O  O23  1  0.11950300  0.05013600  0.13246600  1
  O  O24  1  0.61950300  0.05013600  0.36753400  1
  O  O25  1  0.11950300  0.44986400  0.13246600  1
  O  O26  1  0.38049700  0.55013600  0.63246600  1
  O  O27  1  0.88049700  0.94986400  0.86753400  1
  O  O28  1  0.14013800  0.97480800  0.72761700  1
  O  O29  1  0.64013800  0.52519200  0.77238300  1
  O  O30  1  0.85986200  0.47480800  0.27238300  1
  O  O31  1  0.35986200  0.02519200  0.22761700  1
  O  O32  1  0.85986200  0.02519200  0.27238300  1
  O  O33  1  0.35986200  0.47480800  0.22761700  1
  O  O34  1  0.14013800  0.52519200  0.72761700  1
  O  O35  1  0.64013800  0.97480800  0.77238300  1
loop_
_geom_bond_atom_site_label_1
_geom_bond_atom_site_label_2
_geom_bond_distance
_geom_bond_site_symmetry_2
Mn0 O0 2.145552 1_655
Mn0 O30 2.178516 1_555
Mn0 O32 2.178516 1_555
Mn0 O13 2.226401 1_555
Mn0 O25 2.230223 1_655
Mn0 O23 2.230223 1_655
Mn1 O1 2.145552 1_555
Mn1 O33 2.178516 1_555
Mn1 O31 2.178516 1_555
Mn1 O12 2.226401 1_555
Mn1 O22 2.230223 1_555
Mn1 O24 2.230223 1_555
Mn2 O2 2.145552 1_455
Mn2 O28 2.178516 1_555
Mn2 O34 2.178516 1_555
Mn2 O15 2.226401 1_555
Mn2 O27 2.230223 1_455
Mn2 O21 2.230223 1_455
Mn3 O3 2.145552 1_555
Mn3 O35 2.178516 1_555
Mn3 O29 2.178516 1_555
Mn3 O14 2.226401 1_555
Mn3 O20 2.230223 1_555
Mn3 O26 2.230223 1_555
O0 P0 1.482439 1_555
O1 P1 1.482439 1_555
O2 P2 1.482439 1_555
O3 P3 1.482439 1_555
O4 P4 1.622863 1_555
O4 P0 1.634370 1_555
O5 P5 1.622863 1_555
O5 P1 1.634370 1_556
O6 P6 1.622863 1_555
O6 P2 1.634370 1_555
O7 P7 1.622863 1_555
O7 P3 1.634370 1_554
O8 P8 1.622863 1_555
O8 P2 1.634370 1_555
O9 P9 1.622863 1_555
O9 P3 1.634370 1_554
O10 P10 1.622863 1_555
O10 P0 1.634370 1_555
O11 P11 1.622863 1_555
O11 P1 1.634370 1_556
O12 P0 1.508797 1_555
O13 P1 1.508797 1_555
O14 P2 1.508797 1_555
O15 P3 1.508797 1_555
O16 P10 1.629455 1_555
O16 P4 1.629455 1_555
O17 P5 1.629455 1_555
O17 P11 1.629455 1_555
O18 P8 1.629455 1_555
O18 P6 1.629455 1_555
O19 P7 1.629455 1_555
O19 P9 1.629455 1_555
O20 P4 1.505327 1_565
O21 P5 1.505327 1_555
O22 P6 1.505327 1_555
O23 P7 1.505327 1_545
O24 P8 1.505327 1_545
O25 P9 1.505327 1_555
O26 P10 1.505327 1_555
O27 P11 1.505327 1_565
O28 P4 1.492829 1_565
O29 P5 1.492829 1_555
O30 P6 1.492829 1_555
O31 P7 1.492829 1_545
O32 P8 1.492829 1_545
O33 P9 1.492829 1_555
O34 P10 1.492829 1_555
O35 P11 1.492829 1_565
