# generated using pymatgen
data_ZnN3Cl5
_symmetry_space_group_name_H-M   'P 1'
_cell_length_a   9.45375200
_cell_length_b   7.73225500
_cell_length_c   13.69216200
_cell_angle_alpha   90.00000000
_cell_angle_beta   90.00000000
_cell_angle_gamma   90.00000000
_symmetry_Int_Tables_number   1
_chemical_formula_structural   ZnN3Cl5
_chemical_formula_sum   'Zn4 N12 Cl20'
_cell_volume   1000.88090148
_cell_formula_units_Z   4
loop_
 _symmetry_equiv_pos_site_id
 _symmetry_equiv_pos_as_xyz
  1  'x, y, z'
loop_
 _atom_site_type_symbol
 _atom_site_label
 _atom_site_symmetry_multiplicity
 _atom_site_fract_x
 _atom_site_fract_y
 _atom_site_fract_z
 _atom_site_occupancy
  Zn  Zn0  1  0.69962000  0.25000000  0.32122200  1
  Zn  Zn1  1  0.19962000  0.25000000  0.17877800  1
  Zn  Zn2  1  0.30038000  0.75000000  0.67877800  1
  Zn  Zn3  1  0.80038000  0.75000000  0.82122200  1
  N  N0  1  0.95593700  0.25000000  0.87886200  1
  N  N1  1  0.45593700  0.25000000  0.62113800  1
  N  N2  1  0.04406300  0.75000000  0.12113800  1
  N  N3  1  0.54406300  0.75000000  0.37886200  1
  N  N4  1  0.91250100  0.93113300  0.61291700  1
  N  N5  1  0.41250100  0.56886700  0.88708300  1
  N  N6  1  0.08749900  0.43113300  0.38708300  1
  N  N7  1  0.58749900  0.06886700  0.11291700  1
  N  N8  1  0.08749900  0.06886700  0.38708300  1
  N  N9  1  0.58749900  0.43113300  0.11291700  1
  N  N10  1  0.91250100  0.56886700  0.61291700  1
  N  N11  1  0.41250100  0.93113300  0.88708300  1
  Cl  Cl0  1  0.87868900  0.25000000  0.21745400  1
  Cl  Cl1  1  0.37868900  0.25000000  0.28254600  1
  Cl  Cl2  1  0.12131100  0.75000000  0.78254600  1
  Cl  Cl3  1  0.62131100  0.75000000  0.71745400  1
  Cl  Cl4  1  0.58494700  0.25000000  0.07390700  1
  Cl  Cl5  1  0.08494700  0.25000000  0.42609300  1
  Cl  Cl6  1  0.41505300  0.75000000  0.92609300  1
  Cl  Cl7  1  0.91505300  0.75000000  0.57390700  1
  Cl  Cl8  1  0.58157400  0.25000000  0.69958200  1
  Cl  Cl9  1  0.08157400  0.25000000  0.80041800  1
  Cl  Cl10  1  0.41842600  0.75000000  0.30041800  1
  Cl  Cl11  1  0.91842600  0.75000000  0.19958200  1
  Cl  Cl12  1  0.66198500  0.00887700  0.40797600  1
  Cl  Cl13  1  0.16198500  0.49112300  0.09202400  1
  Cl  Cl14  1  0.33801500  0.50887700  0.59202400  1
  Cl  Cl15  1  0.83801500  0.99112300  0.90797600  1
  Cl  Cl16  1  0.33801500  0.99112300  0.59202400  1
  Cl  Cl17  1  0.83801500  0.50887700  0.90797600  1
  Cl  Cl18  1  0.66198500  0.49112300  0.40797600  1
  Cl  Cl19  1  0.16198500  0.00887700  0.09202400  1
loop_
_geom_bond_atom_site_label_1
_geom_bond_atom_site_label_2
_geom_bond_distance
_geom_bond_site_symmetry_2
Cl0 Zn0 2.210095 1_555
Cl1 Zn1 2.210095 1_555
Cl2 Zn2 2.210095 1_555
Cl3 Zn3 2.210095 1_555
Cl4 N9 1.499155 1_555
Cl4 N7 1.499155 1_555
Cl5 N6 1.499155 1_555
Cl5 N8 1.499155 1_555
Cl6 N11 1.499155 1_555
Cl6 N5 1.499155 1_555
Cl7 N4 1.499155 1_555
Cl7 N10 1.499155 1_555
Cl8 N1 1.601359 1_555
Cl9 N0 1.601359 1_455
Cl10 N3 1.601359 1_555
Cl11 N2 1.601359 1_655
Cl12 Zn0 2.239119 1_555
Cl12 N3 2.325621 1_545
Cl13 Zn1 2.239119 1_555
Cl13 N2 2.325621 1_555
Cl14 Zn2 2.239119 1_555
Cl14 N1 2.325621 1_555
Cl15 Zn3 2.239119 1_555
Cl15 N0 2.325621 1_565
Cl16 Zn2 2.239119 1_555
Cl16 N1 2.325621 1_565
Cl17 Zn3 2.239119 1_555
Cl17 N0 2.325621 1_555
Cl18 Zn0 2.239119 1_555
Cl18 N3 2.325621 1_555
Cl19 Zn1 2.239119 1_555
Cl19 N2 2.325621 1_545
