# generated using pymatgen
data_BaMg14V
_symmetry_space_group_name_H-M   'P 1'
_cell_length_a   6.57578565
_cell_length_b   6.47941750
_cell_length_c   10.59160721
_cell_angle_alpha   90.00000000
_cell_angle_beta   90.00000000
_cell_angle_gamma   119.51639467
_symmetry_Int_Tables_number   1
_chemical_formula_structural   BaMg14V
_chemical_formula_sum   'Ba1 Mg14 V1'
_cell_volume   392.70996668
_cell_formula_units_Z   1
loop_
 _symmetry_equiv_pos_site_id
 _symmetry_equiv_pos_as_xyz
  1  'x, y, z'
loop_
 _atom_site_type_symbol
 _atom_site_label
 _atom_site_symmetry_multiplicity
 _atom_site_fract_x
 _atom_site_fract_y
 _atom_site_fract_z
 _atom_site_occupancy
  Ba  Ba0  1  0.14642894  0.82321397  0.12500000  1
  Mg  Mg0  1  0.16077196  0.33038548  0.62500000  1
  Mg  Mg1  1  0.16949578  0.83474739  0.62500000  1
  Mg  Mg2  1  0.64851352  0.33035301  0.12500000  1
  Mg  Mg3  1  0.66586923  0.32641875  0.62500000  1
  Mg  Mg4  1  0.64851352  0.81815951  0.12500000  1
  Mg  Mg5  1  0.66586923  0.83944948  0.62500000  1
  Mg  Mg6  1  0.34066340  0.17983910  0.38600888  1
  Mg  Mg7  1  0.34066340  0.17983910  0.86399112  1
  Mg  Mg8  1  0.34066340  0.66082530  0.38600888  1
  Mg  Mg9  1  0.34066340  0.66082530  0.86399112  1
  Mg  Mg10  1  0.84774434  0.17387267  0.36010535  1
  Mg  Mg11  1  0.84774434  0.17387267  0.88989465  1
  Mg  Mg12  1  0.82607593  0.66303847  0.39632993  1
  Mg  Mg13  1  0.82607593  0.66303847  0.85367007  1
  V  V0  1  0.18424366  0.34212133  0.12500000  1
loop_
_geom_bond_atom_site_label_1
_geom_bond_atom_site_label_2
_geom_bond_distance
_geom_bond_site_symmetry_2
Ba0 V0 3.246927 1_565
Ba0 V0 3.246927 1_555
Ba0 Mg2 3.258174 1_455
Ba0 Mg4 3.258175 1_455
Ba0 Mg2 3.317858 1_565
Ba0 Mg4 3.317858 1_555
Ba0 Mg12 3.408718 1_455
Ba0 Mg13 3.408718 1_454
Ba0 Mg9 3.421275 1_554
Ba0 Mg8 3.421275 1_555
Ba0 Mg7 3.421282 1_564
Ba0 Mg6 3.421282 1_565
Mg0 Mg6 3.145677 1_555
Mg0 Mg7 3.145677 1_555
Mg0 Mg9 3.145684 1_555
Mg0 Mg8 3.145684 1_555
Mg0 Mg1 3.240093 1_555
Mg0 Mg1 3.240093 1_545
Mg0 Mg5 3.241788 1_445
Mg0 Mg3 3.241789 1_455
Mg0 Mg10 3.328710 1_455
Mg0 Mg11 3.328710 1_455
Mg0 Mg5 3.334149 1_555
Mg0 Mg3 3.334149 1_555
Mg1 Mg12 3.118956 1_455
Mg1 Mg13 3.118956 1_455
Mg1 Mg9 3.192824 1_555
Mg1 Mg8 3.192824 1_555
Mg1 Mg6 3.192831 1_565
Mg1 Mg7 3.192831 1_565
Mg1 Mg3 3.249143 1_565
Mg1 Mg5 3.249143 1_555
Mg1 Mg3 3.326856 1_455
Mg1 Mg5 3.326856 1_455
Mg2 V0 3.091219 1_555
Mg2 Mg4 3.160702 1_555
Mg2 Mg7 3.278153 1_554
Mg2 Mg6 3.278153 1_555
Mg2 Mg4 3.318716 1_545
Mg2 V0 3.485911 1_655
Mg3 Mg6 3.143463 1_555
Mg3 Mg7 3.143463 1_555
Mg3 Mg5 3.155277 1_545
Mg3 Mg5 3.324140 1_555
Mg4 V0 3.091218 1_555
Mg4 Mg9 3.278153 1_554
Mg4 Mg8 3.278153 1_555
Mg4 V0 3.485911 1_665
Mg5 Mg8 3.143462 1_555
Mg5 Mg9 3.143462 1_555
Mg6 Mg8 3.116510 1_555
Mg6 V0 3.297241 1_555
Mg6 Mg8 3.362907 1_545
Mg7 Mg9 3.116510 1_555
Mg7 V0 3.297241 1_556
Mg7 Mg9 3.362907 1_545
Mg8 V0 3.297248 1_555
Mg9 V0 3.297248 1_556
Mg10 V0 3.147796 1_655
Mg10 Mg2 3.202189 1_555
Mg10 Mg4 3.202196 1_545
Mg10 Mg8 3.234118 1_655
Mg10 Mg6 3.234118 1_655
Mg10 Mg12 3.264704 1_545
Mg10 Mg12 3.264704 1_555
Mg10 Mg8 3.364874 1_545
Mg10 Mg6 3.364874 1_555
Mg10 Mg3 3.382871 1_555
Mg10 Mg5 3.382877 1_545
Mg11 V0 3.147796 1_656
Mg11 Mg2 3.202189 1_556
Mg11 Mg4 3.202196 1_546
Mg11 Mg9 3.234118 1_655
Mg11 Mg7 3.234118 1_655
Mg11 Mg13 3.264704 1_545
Mg11 Mg13 3.264704 1_555
Mg11 Mg9 3.364874 1_545
Mg11 Mg7 3.364874 1_555
Mg11 Mg3 3.382871 1_555
Mg11 Mg5 3.382877 1_545
Mg12 Mg5 3.077159 1_555
Mg12 Mg3 3.077166 1_555
Mg12 Mg6 3.186803 1_555
Mg12 Mg8 3.186804 1_555
Mg12 Mg6 3.392666 1_665
Mg12 Mg8 3.392666 1_655
Mg12 Mg4 3.433473 1_555
Mg12 Mg2 3.433479 1_555
Mg13 Mg5 3.077159 1_555
Mg13 Mg3 3.077166 1_555
Mg13 Mg7 3.186803 1_555
Mg13 Mg9 3.186804 1_555
Mg13 Mg7 3.392666 1_665
Mg13 Mg9 3.392666 1_655
Mg13 Mg4 3.433473 1_556
Mg13 Mg2 3.433479 1_556
