# generated using pymatgen
data_Ho3(CoGe2)2
_symmetry_space_group_name_H-M   'P 1'
_cell_length_a   5.67477952
_cell_length_b   5.67477952
_cell_length_c   7.93185242
_cell_angle_alpha   73.64082355
_cell_angle_beta   73.64082355
_cell_angle_gamma   42.34737537
_symmetry_Int_Tables_number   1
_chemical_formula_structural   Ho3(CoGe2)2
_chemical_formula_sum   'Ho3 Co2 Ge4'
_cell_volume   164.02730777
_cell_formula_units_Z   1
loop_
 _symmetry_equiv_pos_site_id
 _symmetry_equiv_pos_as_xyz
  1  'x, y, z'
loop_
 _atom_site_type_symbol
 _atom_site_label
 _atom_site_symmetry_multiplicity
 _atom_site_fract_x
 _atom_site_fract_y
 _atom_site_fract_z
 _atom_site_occupancy
  Ho  Ho0  1  0.37612775  0.37612775  0.69216341  1
  Ho  Ho1  1  0.62387225  0.62387225  0.30783659  1
  Ho  Ho2  1  0.00000000  0.00000000  -0.00000000  1
  Co  Co0  1  0.30625036  0.30625036  0.37401421  1
  Co  Co1  1  0.69374964  0.69374964  0.62598579  1
  Ge  Ge0  1  0.09769396  0.09769396  0.60112387  1
  Ge  Ge1  1  0.90230604  0.90230604  0.39887613  1
  Ge  Ge2  1  0.70811211  0.70811211  0.91935243  1
  Ge  Ge3  1  0.29188789  0.29188789  0.08064757  1
loop_
_geom_bond_atom_site_label_1
_geom_bond_atom_site_label_2
_geom_bond_distance
_geom_bond_site_symmetry_2
Co0 Ge1 2.322662 1_545
Co0 Ge1 2.322662 1_455
Co0 Ge3 2.377274 1_555
Co0 Ge0 2.390592 1_555
Co0 Ho0 2.835916 1_555
Co0 Ho1 2.968915 1_545
Co0 Ho1 2.968915 1_455
Co0 Ho1 3.241806 1_555
Co1 Ge0 2.322662 1_565
Co1 Ge0 2.322662 1_655
Co1 Ge2 2.377274 1_555
Co1 Ge1 2.390592 1_555
Co1 Ho1 2.835916 1_555
Co1 Ho0 2.968915 1_655
Co1 Ho0 2.968915 1_565
Co1 Ho0 3.241806 1_555
Ge0 Ge1 2.975474 1_445
Ge0 Ho2 3.017068 1_556
Ge0 Ho0 3.032896 1_545
Ge0 Ho0 3.032896 1_455
Ge0 Ho1 3.049663 1_455
Ge0 Ho1 3.049663 1_545
Ge0 Ho0 3.238874 1_555
Ge1 Ho2 3.017068 1_665
Ge1 Ho1 3.032896 1_565
Ge1 Ho1 3.032896 1_655
Ge1 Ho0 3.049663 1_655
Ge1 Ho0 3.049663 1_565
Ge1 Ho1 3.238874 1_555
Ge2 Ge3 2.703599 1_566
Ge2 Ge3 2.703599 1_656
Ge2 Ho2 2.934363 1_656
Ge2 Ho2 2.934363 1_566
Ge2 Ho1 2.937735 1_556
Ge2 Ho0 2.945298 1_655
Ge2 Ho0 2.945298 1_565
Ge2 Ho2 3.338532 1_666
Ge3 Ho2 2.934363 1_565
Ge3 Ho2 2.934363 1_655
Ge3 Ho0 2.937735 1_554
Ge3 Ho1 2.945298 1_545
Ge3 Ho1 2.945298 1_455
Ge3 Ho2 3.338532 1_555
