# generated using pymatgen
data_YUCo10
_symmetry_space_group_name_H-M   'P 1'
_cell_length_a   3.97840850
_cell_length_b   4.86592376
_cell_length_c   8.37864376
_cell_angle_alpha   89.99925359
_cell_angle_beta   90.00000000
_cell_angle_gamma   90.00000000
_symmetry_Int_Tables_number   1
_chemical_formula_structural   YUCo10
_chemical_formula_sum   'Y1 U1 Co10'
_cell_volume   162.19908481
_cell_formula_units_Z   1
loop_
 _symmetry_equiv_pos_site_id
 _symmetry_equiv_pos_as_xyz
  1  'x, y, z'
loop_
 _atom_site_type_symbol
 _atom_site_label
 _atom_site_symmetry_multiplicity
 _atom_site_fract_x
 _atom_site_fract_y
 _atom_site_fract_z
 _atom_site_occupancy
  Y  Y0  1  -0.00000000  0.49999509  0.50005442  1
  U  U0  1  0.00000000  -0.00001659  0.99995084  1
  Co  Co0  1  -0.00000000  -0.00002306  0.30882315  1
  Co  Co1  1  0.00000000  0.49999563  0.84480570  1
  Co  Co2  1  0.00000000  0.49999094  0.15511946  1
  Co  Co3  1  -0.00000000  0.99998096  0.69118258  1
  Co  Co4  1  0.50000000  0.49998471  0.99994471  1
  Co  Co5  1  0.50000000  -0.00001820  0.50008643  1
  Co  Co6  1  0.50000000  0.25388057  0.25201055  1
  Co  Co7  1  0.50000000  0.74608872  0.74801091  1
  Co  Co8  1  0.50000000  0.74607673  0.25200242  1
  Co  Co9  1  0.50000000  0.25386549  0.74800683  1
loop_
_geom_bond_atom_site_label_1
_geom_bond_atom_site_label_2
_geom_bond_distance
_geom_bond_site_symmetry_2
Co0 Co6 2.389541 1_555
Co0 Co6 2.389541 1_455
Co0 Co8 2.389552 1_445
Co0 Co8 2.389552 1_545
Co0 Co5 2.554413 1_455
Co0 Co5 2.554413 1_555
Co0 U0 2.587931 1_554
Co0 Co2 2.752736 1_545
Co0 Co2 2.752827 1_555
Co0 Y0 2.913075 1_545
Co0 Y0 2.913257 1_555
Co1 Co4 2.376248 1_455
Co1 Co4 2.376248 1_555
Co1 Co7 2.459386 1_455
Co1 Co7 2.459386 1_555
Co1 Co9 2.459495 1_455
Co1 Co9 2.459495 1_555
Co1 Co2 2.600008 1_556
Co1 Co3 2.752388 1_555
Co1 Co3 2.752544 1_545
Co1 U0 2.758415 1_565
Co1 U0 2.758490 1_555
Co1 Y0 2.888548 1_555
Co2 Co4 2.376412 1_454
Co2 Co4 2.376412 1_554
Co2 Co8 2.459623 1_455
Co2 Co8 2.459623 1_555
Co2 Co6 2.459693 1_555
Co2 Co6 2.459693 1_455
Co2 U0 2.758498 1_564
Co2 U0 2.758592 1_554
Co2 Y0 2.890087 1_555
Co3 Co9 2.389519 1_565
Co3 Co9 2.389519 1_465
Co3 Co7 2.389539 1_455
Co3 Co7 2.389539 1_555
Co3 Co5 2.553535 1_465
Co3 Co5 2.553535 1_565
Co3 U0 2.587059 1_565
Co3 Y0 2.912651 1_555
Co3 Y0 2.912731 1_565
Co4 Co7 2.426879 1_555
Co4 Co9 2.426972 1_555
Co4 Co8 2.427780 1_556
Co4 Co6 2.427842 1_556
Co5 Co9 2.416845 1_555
Co5 Co7 2.416870 1_545
Co5 Co6 2.417975 1_555
Co5 Co8 2.418076 1_545
Co5 Y0 3.142598 1_545
Co5 Y0 3.142598 1_645
Co5 Y0 3.142698 1_555
Co5 Y0 3.142698 1_655
Co6 Co8 2.394989 1_555
Co6 Co8 2.470935 1_545
Co6 Y0 3.116151 1_655
Co6 Y0 3.116151 1_555
Co7 Co9 2.395121 1_555
Co7 Co9 2.470803 1_565
Co7 Y0 3.115623 1_655
Co7 Y0 3.115623 1_555
Co8 Y0 3.116114 1_555
Co8 Y0 3.116114 1_655
Co9 Y0 3.115647 1_555
Co9 Y0 3.115647 1_655
