# generated using pymatgen
data_MgFeO2
_symmetry_space_group_name_H-M   'P 1'
_cell_length_a   2.99263000
_cell_length_b   8.12281867
_cell_length_c   8.33794896
_cell_angle_alpha   83.72277520
_cell_angle_beta   79.80100909
_cell_angle_gamma   80.51171278
_symmetry_Int_Tables_number   1
_chemical_formula_structural   MgFeO2
_chemical_formula_sum   'Mg4 Fe4 O8'
_cell_volume   196.08028813
_cell_formula_units_Z   4
loop_
 _symmetry_equiv_pos_site_id
 _symmetry_equiv_pos_as_xyz
  1  'x, y, z'
loop_
 _atom_site_type_symbol
 _atom_site_label
 _atom_site_symmetry_multiplicity
 _atom_site_fract_x
 _atom_site_fract_y
 _atom_site_fract_z
 _atom_site_occupancy
  Mg  Mg0  1  0.62238300  0.57697500  0.26108600  1
  Mg  Mg1  1  0.37761700  0.42302500  0.73891400  1
  Mg  Mg2  1  0.18628800  0.21389600  0.41476900  1
  Mg  Mg3  1  0.81371200  0.78610400  0.58523100  1
  Fe  Fe0  1  0.20262000  0.73142400  0.90493800  1
  Fe  Fe1  1  0.43861500  0.90787600  0.24975300  1
  Fe  Fe2  1  0.56138500  0.09212400  0.75024700  1
  Fe  Fe3  1  0.79738000  0.26857600  0.09506200  1
  O  O0  1  0.38028800  0.23806000  0.93670100  1
  O  O1  1  0.20446600  0.91749000  0.67575000  1
  O  O2  1  0.79553400  0.08251000  0.32425000  1
  O  O3  1  0.61971200  0.76194000  0.06329900  1
  O  O4  1  0.78899600  0.59981100  0.76271000  1
  O  O5  1  0.00812200  0.72092300  0.36446500  1
  O  O6  1  0.21100400  0.40018900  0.23729000  1
  O  O7  1  0.99187800  0.27907700  0.63553500  1
loop_
_geom_bond_atom_site_label_1
_geom_bond_atom_site_label_2
_geom_bond_distance
_geom_bond_site_symmetry_2
Mg0 O6 2.075812 1_655
Mg0 O6 2.085364 1_555
Mg0 O3 2.106163 1_555
Mg0 O5 2.107125 1_555
Mg0 O5 2.111997 1_655
Mg1 O4 2.075812 1_455
Mg1 O4 2.085364 1_555
Mg1 O0 2.106163 1_555
Mg1 O7 2.107125 1_555
Mg1 O7 2.111997 1_455
Mg2 O7 1.933759 1_455
Mg2 O2 1.994043 1_455
Mg2 O6 1.998403 1_555
Mg2 O2 2.019936 1_555
Mg3 O5 1.933759 1_655
Mg3 O1 1.994043 1_655
Mg3 O4 1.998403 1_555
Mg3 O1 2.019936 1_555
Fe0 O3 1.990291 1_456
Fe0 O3 2.029819 1_556
Fe0 O4 2.133159 1_555
Fe0 O1 2.302931 1_555
Fe0 O4 2.305389 1_455
Fe1 O3 2.002162 1_555
Fe1 O2 2.113315 1_565
Fe1 O5 2.184415 1_555
Fe1 O2 2.229585 1_465
Fe1 O5 2.352021 1_655
Fe2 O0 2.002162 1_555
Fe2 O1 2.113315 1_545
Fe2 O7 2.184415 1_555
Fe2 O1 2.229585 1_645
Fe2 O7 2.352021 1_455
Fe3 O0 1.990291 1_654
Fe3 O0 2.029819 1_554
Fe3 O6 2.133159 1_555
Fe3 O2 2.302931 1_555
Fe3 O6 2.305389 1_655
