# generated using pymatgen
data_Mg14NiBi
_symmetry_space_group_name_H-M   'P 1'
_cell_length_a   6.27690102
_cell_length_b   6.27690053
_cell_length_c   10.32158232
_cell_angle_alpha   90.00000000
_cell_angle_beta   90.00000000
_cell_angle_gamma   120.00000260
_symmetry_Int_Tables_number   1
_chemical_formula_structural   Mg14NiBi
_chemical_formula_sum   'Mg14 Ni1 Bi1'
_cell_volume   352.18222059
_cell_formula_units_Z   1
loop_
 _symmetry_equiv_pos_site_id
 _symmetry_equiv_pos_as_xyz
  1  'x, y, z'
loop_
 _atom_site_type_symbol
 _atom_site_label
 _atom_site_symmetry_multiplicity
 _atom_site_fract_x
 _atom_site_fract_y
 _atom_site_fract_z
 _atom_site_occupancy
  Mg  Mg0  1  0.16042923  0.83021412  0.12500000  1
  Mg  Mg1  1  0.16703690  0.83351795  0.62500000  1
  Mg  Mg2  1  0.66978588  0.33957077  0.12500000  1
  Mg  Mg3  1  0.66648205  0.33296310  0.62500000  1
  Mg  Mg4  1  0.66978588  0.83021412  0.12500000  1
  Mg  Mg5  1  0.66648205  0.83351795  0.62500000  1
  Mg  Mg6  1  0.33017084  0.16982916  0.35505741  1
  Mg  Mg7  1  0.33017084  0.16982916  0.89494259  1
  Mg  Mg8  1  0.33017084  0.66034268  0.35505741  1
  Mg  Mg9  1  0.33017084  0.66034268  0.89494259  1
  Mg  Mg10  1  0.83965732  0.16982916  0.35505741  1
  Mg  Mg11  1  0.83965732  0.16982916  0.89494259  1
  Mg  Mg12  1  0.83333300  0.66666700  0.37458097  1
  Mg  Mg13  1  0.83333300  0.66666700  0.87541903  1
  Ni  Ni0  1  0.16666700  0.33333300  0.12500000  1
  Bi  Bi0  1  0.16666700  0.33333300  0.62500000  1
loop_
_geom_bond_atom_site_label_1
_geom_bond_atom_site_label_2
_geom_bond_distance
_geom_bond_site_symmetry_2
Mg0 Mg9 3.007770 1_554
Mg0 Mg8 3.007770 1_555
Mg0 Mg6 3.007777 1_565
Mg0 Mg7 3.007777 1_564
Mg0 Mg2 3.079720 1_455
Mg0 Mg4 3.079720 1_455
Mg0 Mg13 3.130129 1_454
Mg0 Mg12 3.130129 1_455
Mg0 Ni0 3.138633 1_565
Mg0 Ni0 3.138633 1_555
Mg0 Mg2 3.197181 1_565
Mg0 Mg4 3.197181 1_555
Mg1 Mg3 3.134968 1_565
Mg1 Mg5 3.134968 1_555
Mg1 Mg3 3.141933 1_455
Mg1 Mg5 3.141933 1_455
Mg1 Mg12 3.157748 1_455
Mg1 Mg13 3.157748 1_455
Mg1 Mg9 3.332608 1_555
Mg1 Mg8 3.332608 1_555
Mg1 Mg7 3.332613 1_565
Mg1 Mg6 3.332613 1_565
Mg2 Mg7 3.007777 1_554
Mg2 Mg6 3.007777 1_555
Mg2 Mg4 3.079720 1_555
Mg2 Ni0 3.138634 1_555
Mg2 Ni0 3.138634 1_655
Mg2 Mg4 3.197181 1_545
Mg3 Mg5 3.134968 1_545
Mg3 Mg5 3.141933 1_555
Mg3 Mg7 3.332614 1_555
Mg3 Mg6 3.332614 1_555
Mg4 Mg9 3.007777 1_554
Mg4 Mg8 3.007777 1_555
Mg4 Ni0 3.138633 1_665
Mg4 Ni0 3.138633 1_555
Mg5 Mg8 3.332613 1_555
Mg5 Mg9 3.332613 1_555
Mg6 Ni0 2.966206 1_555
Mg6 Mg8 3.078905 1_555
Mg6 Mg8 3.197996 1_545
Mg7 Ni0 2.966206 1_556
Mg7 Mg9 3.078905 1_555
Mg7 Mg9 3.197996 1_545
Mg8 Ni0 2.966212 1_555
Mg9 Ni0 2.966212 1_556
Mg10 Ni0 2.966212 1_655
Mg10 Mg2 3.007770 1_555
Mg10 Mg4 3.007777 1_545
Mg10 Mg8 3.078905 1_655
Mg10 Mg6 3.078905 1_655
Mg10 Mg12 3.145101 1_545
Mg10 Mg12 3.145101 1_555
Mg10 Mg8 3.197996 1_545
Mg10 Mg6 3.197996 1_555
Mg10 Mg3 3.332608 1_555
Mg10 Mg5 3.332613 1_545
Mg11 Ni0 2.966212 1_656
Mg11 Mg2 3.007770 1_556
Mg11 Mg4 3.007777 1_546
Mg11 Mg9 3.078905 1_655
Mg11 Mg7 3.078905 1_655
Mg11 Mg13 3.145101 1_545
Mg11 Mg13 3.145101 1_555
Mg11 Mg9 3.197996 1_545
Mg11 Mg7 3.197996 1_555
Mg11 Mg3 3.332608 1_555
Mg11 Mg5 3.332613 1_545
Mg12 Mg4 3.130123 1_555
Mg12 Mg2 3.130129 1_555
Mg12 Mg6 3.145101 1_665
Mg12 Mg6 3.145101 1_555
Mg12 Mg8 3.145101 1_555
Mg12 Mg8 3.145101 1_655
Mg12 Mg5 3.157742 1_555
Mg12 Mg3 3.157748 1_555
Mg13 Mg4 3.130123 1_556
Mg13 Mg2 3.130129 1_556
Mg13 Mg7 3.145101 1_665
Mg13 Mg7 3.145101 1_555
Mg13 Mg9 3.145101 1_555
Mg13 Mg9 3.145101 1_655
Mg13 Mg5 3.157742 1_555
Mg13 Mg3 3.157748 1_555
Bi0 Mg1 3.138451 1_555
Bi0 Mg5 3.138451 1_555
Bi0 Mg5 3.138451 1_445
Bi0 Mg1 3.138451 1_545
Bi0 Mg3 3.138451 1_455
Bi0 Mg3 3.138451 1_555
Bi0 Mg7 3.304991 1_555
Bi0 Mg6 3.304991 1_555
Bi0 Mg8 3.304996 1_555
Bi0 Mg9 3.304996 1_555
Bi0 Mg10 3.304996 1_455
Bi0 Mg11 3.304996 1_455
