# generated using pymatgen
data_ErAlFe
_symmetry_space_group_name_H-M   'P 1'
_cell_length_a   5.31253061
_cell_length_b   5.31253061
_cell_length_c   8.71620123
_cell_angle_alpha   90.00000000
_cell_angle_beta   90.00000000
_cell_angle_gamma   119.32671754
_symmetry_Int_Tables_number   1
_chemical_formula_structural   ErAlFe
_chemical_formula_sum   'Er4 Al4 Fe4'
_cell_volume   214.47042596
_cell_formula_units_Z   4
loop_
 _symmetry_equiv_pos_site_id
 _symmetry_equiv_pos_as_xyz
  1  'x, y, z'
loop_
 _atom_site_type_symbol
 _atom_site_label
 _atom_site_symmetry_multiplicity
 _atom_site_fract_x
 _atom_site_fract_y
 _atom_site_fract_z
 _atom_site_occupancy
  Er  Er0  1  0.66630696  0.33369304  0.30425929  1
  Er  Er1  1  0.33116709  0.66883291  0.17616530  1
  Er  Er2  1  0.33116709  0.66883291  0.82383470  1
  Er  Er3  1  0.66630696  0.33369304  0.69574071  1
  Al  Al0  1  0.00439711  0.99560289  0.23691624  1
  Al  Al1  1  0.00439711  0.99560289  0.76308376  1
  Al  Al2  1  0.65980474  0.83388848  0.50000000  1
  Al  Al3  1  0.16611152  0.34019526  0.50000000  1
  Fe  Fe0  1  0.16513814  0.83486186  0.50000000  1
  Fe  Fe1  1  0.35555435  0.17770630  0.00000000  1
  Fe  Fe2  1  0.82229370  0.64444565  0.00000000  1
  Fe  Fe3  1  0.82717023  0.17282977  0.00000000  1
loop_
_geom_bond_atom_site_label_1
_geom_bond_atom_site_label_2
_geom_bond_distance
_geom_bond_site_symmetry_2
Er0 Fe2 3.017455 1_555
Er0 Fe1 3.017455 1_555
Er0 Fe3 3.034648 1_555
Er0 Fe0 3.179746 1_545
Er0 Fe0 3.179746 1_655
Er0 Er1 3.269821 1_555
Er0 Er1 3.275963 1_545
Er0 Er1 3.275963 1_655
Er1 Fe1 3.056113 1_565
Er1 Fe2 3.056113 1_455
Er1 Er2 3.070984 1_554
Er1 Fe2 3.084345 1_555
Er1 Fe1 3.084345 1_555
Er1 Fe3 3.091750 1_565
Er1 Fe3 3.091750 1_455
Er1 Fe0 3.207052 1_555
Er2 Fe1 3.056113 1_566
Er2 Fe2 3.056113 1_456
Er2 Fe2 3.084345 1_556
Er2 Fe1 3.084345 1_556
Er2 Fe3 3.091750 1_456
Er2 Fe3 3.091750 1_566
Er2 Fe0 3.207052 1_555
Er2 Er3 3.269821 1_555
Er2 Er3 3.275963 1_565
Er2 Er3 3.275963 1_455
Er3 Fe2 3.017455 1_556
Er3 Fe1 3.017455 1_556
Er3 Fe3 3.034648 1_556
Er3 Fe0 3.179746 1_545
Er3 Fe0 3.179746 1_655
Al0 Fe3 2.627843 1_465
Al0 Fe2 2.629160 1_455
Al0 Fe1 2.629160 1_565
Al0 Fe0 2.725990 1_555
Al0 Al3 2.794105 1_565
Al0 Al2 2.794105 1_455
Al0 Er1 3.042972 1_555
Al0 Er0 3.122314 1_455
Al0 Er0 3.122314 1_565
Al0 Er0 3.155430 1_465
Al0 Er1 3.162867 1_565
Al0 Er1 3.162867 1_455
Al1 Fe3 2.627843 1_466
Al1 Fe2 2.629160 1_456
Al1 Fe1 2.629160 1_566
Al1 Fe0 2.725990 1_555
Al1 Al3 2.794105 1_565
Al1 Al2 2.794105 1_455
Al1 Er2 3.042972 1_555
Al1 Er3 3.122314 1_455
Al1 Er3 3.122314 1_565
Al1 Er3 3.155430 1_465
Al1 Er2 3.162867 1_565
Al1 Er2 3.162867 1_455
Al2 Fe0 2.630468 1_555
Al2 Al3 2.649406 1_555
Al2 Fe0 2.682070 1_655
Al2 Al3 2.717097 1_665
Al2 Er0 3.142039 1_565
Al2 Er3 3.142039 1_565
Al2 Er3 3.172255 1_555
Al2 Er0 3.172255 1_555
Al2 Er2 3.206948 1_555
Al2 Er1 3.206948 1_555
Al3 Fe0 2.630468 1_555
Al3 Fe0 2.682070 1_545
Al3 Er0 3.142039 1_455
Al3 Er3 3.142039 1_455
Al3 Er0 3.172255 1_555
Al3 Er3 3.172255 1_555
Al3 Er2 3.206948 1_555
Al3 Er1 3.206948 1_555
Fe1 Fe2 2.504758 1_555
Fe1 Fe3 2.518264 1_555
Fe1 Fe3 2.794459 1_455
Fe1 Fe2 2.861745 1_445
Fe2 Fe3 2.518264 1_555
Fe2 Fe3 2.794459 1_565
