# generated using pymatgen
data_La5Sm3V2Cr6O24
_symmetry_space_group_name_H-M   'P 1'
_cell_length_a   7.83362847
_cell_length_b   7.83362847
_cell_length_c   7.84362800
_cell_angle_alpha   90.00000000
_cell_angle_beta   90.00000000
_cell_angle_gamma   90.18619649
_symmetry_Int_Tables_number   1
_chemical_formula_structural   La5Sm3V2Cr6O24
_chemical_formula_sum   'La5 Sm3 V2 Cr6 O24'
_cell_volume   481.32745570
_cell_formula_units_Z   1
loop_
 _symmetry_equiv_pos_site_id
 _symmetry_equiv_pos_as_xyz
  1  'x, y, z'
loop_
 _atom_site_type_symbol
 _atom_site_label
 _atom_site_symmetry_multiplicity
 _atom_site_fract_x
 _atom_site_fract_y
 _atom_site_fract_z
 _atom_site_occupancy
  La  La0  1  0.25056300  0.24945600  0.50000000  1
  La  La1  1  0.74971900  0.25028100  0.50000000  1
  La  La2  1  0.25182400  0.74817600  0.50000000  1
  La  La3  1  0.75054400  0.74943700  0.50000000  1
  La  La4  1  0.25020300  0.74979700  0.00000000  1
  Sm  Sm0  1  0.25004800  0.25132200  0.00000000  1
  Sm  Sm1  1  0.74831000  0.25169000  0.00000000  1
  Sm  Sm2  1  0.74867800  0.74995200  0.00000000  1
  V  V0  1  0.99932900  0.00067100  0.75123000  1
  V  V1  1  0.99932900  0.00067100  0.24877000  1
  Cr  Cr0  1  0.50026900  0.00038600  0.75118600  1
  Cr  Cr1  1  0.99961400  0.49973100  0.75118600  1
  Cr  Cr2  1  0.50041200  0.49958800  0.75111900  1
  Cr  Cr3  1  0.50026900  0.00038600  0.24881400  1
  Cr  Cr4  1  0.99961400  0.49973100  0.24881400  1
  Cr  Cr5  1  0.50041200  0.49958800  0.24888100  1
  O  O0  1  0.00176900  0.99823100  0.50000000  1
  O  O1  1  0.50052600  0.00013400  0.50000000  1
  O  O2  1  0.99986600  0.49947400  0.50000000  1
  O  O3  1  0.50020100  0.49979900  0.50000000  1
  O  O4  1  0.99642500  0.00357500  0.00000000  1
  O  O5  1  0.50154800  0.00192500  0.00000000  1
  O  O6  1  0.99807500  0.49845200  0.00000000  1
  O  O7  1  0.50186500  0.49813500  0.00000000  1
  O  O8  1  0.99918400  0.25198800  0.75494500  1
  O  O9  1  0.49999500  0.25020700  0.75406400  1
  O  O10  1  0.99909800  0.74829000  0.75107900  1
  O  O11  1  0.50222600  0.74972200  0.75238400  1
  O  O12  1  0.99918400  0.25198800  0.24505500  1
  O  O13  1  0.49999500  0.25020700  0.24593600  1
  O  O14  1  0.99909800  0.74829000  0.24892100  1
  O  O15  1  0.50222600  0.74972200  0.24761600  1
  O  O16  1  0.25171000  0.00090200  0.75107900  1
  O  O17  1  0.74801200  0.00081600  0.75494500  1
  O  O18  1  0.25027800  0.49777400  0.75238400  1
  O  O19  1  0.74979300  0.50000500  0.75406400  1
  O  O20  1  0.25171000  0.00090200  0.24892100  1
  O  O21  1  0.74801200  0.00081600  0.24505500  1
  O  O22  1  0.25027800  0.49777400  0.24761600  1
  O  O23  1  0.74979300  0.50000500  0.24593600  1
loop_
_geom_bond_atom_site_label_1
_geom_bond_atom_site_label_2
_geom_bond_distance
_geom_bond_site_symmetry_2
La0 O3 2.765000 1_555
La0 O0 2.765240 1_545
La0 O20 2.769428 1_555
La0 O16 2.769428 1_555
La0 O1 2.770138 1_555
La0 O22 2.775391 1_555
La0 O18 2.775391 1_555
La0 O2 2.778072 1_455
La0 O9 2.790895 1_555
La0 O13 2.790895 1_555
La0 O8 2.806637 1_455
La0 O12 2.806637 1_455
La1 O1 2.761457 1_555
La1 O2 2.761457 1_555
La1 O3 2.768754 1_555
La1 O9 2.792503 1_555
La1 O13 2.792503 1_555
La1 O19 2.792503 1_555
La1 O23 2.792503 1_555
La1 O17 2.796023 1_555
La1 O8 2.796023 1_555
La1 O21 2.796023 1_555
La1 O12 2.796023 1_555
La1 O0 2.796850 1_645
La2 O3 2.756093 1_555
La2 O2 2.768811 1_455
La2 O1 2.768811 1_565
La2 O0 2.774713 1_555
La2 O22 2.786851 1_555
La2 O15 2.786851 1_555
La2 O11 2.786851 1_555
La2 O18 2.786851 1_555
La2 O14 2.792470 1_455
La2 O20 2.792470 1_565
La2 O10 2.792470 1_455
La2 O16 2.792470 1_565
La3 O3 2.765000 1_555
La3 O0 2.765240 1_655
La3 O14 2.769428 1_555
La3 O10 2.769428 1_555
La3 O2 2.770138 1_555
La3 O11 2.775391 1_555
La3 O15 2.775391 1_555
La3 O1 2.778072 1_565
La3 O19 2.790895 1_555
La3 O23 2.790895 1_555
La3 O21 2.806637 1_565
La3 O17 2.806637 1_565
La4 O11 2.769451 1_554
La4 O15 2.769451 1_555
La4 O18 2.769451 1_554
La4 O22 2.769451 1_555
La4 O16 2.771527 1_564
La4 O20 2.771527 1_565
La4 O10 2.771527 1_454
La4 O14 2.771527 1_455
La4 O5 2.784312 1_565
La4 O6 2.784312 1_455
La4 O7 2.792545 1_555
La4 O4 2.816025 1_465
Cr0 O17 1.940943 1_555
Cr0 O16 1.947136 1_555
Cr0 O5 1.951667 1_556
Cr0 O9 1.957143 1_555
Cr0 O11 1.963741 1_545
Cr0 O1 1.970212 1_555
Cr1 O8 1.940943 1_555
Cr1 O10 1.947136 1_555
Cr1 O6 1.951667 1_556
Cr1 O19 1.957143 1_555
Cr1 O18 1.963741 1_655
Cr1 O2 1.970212 1_555
Cr2 O7 1.952197 1_556
Cr2 O9 1.953687 1_555
Cr2 O19 1.953687 1_555
Cr2 O18 1.959487 1_555
Cr2 O11 1.959487 1_555
Cr2 O3 1.969685 1_555
Cr3 O21 1.940943 1_555
Cr3 O20 1.947136 1_555
Cr3 O5 1.951667 1_555
Cr3 O13 1.957143 1_555
Cr3 O15 1.963741 1_545
Cr3 O1 1.970212 1_555
Cr4 O12 1.940943 1_555
Cr4 O14 1.947136 1_555
Cr4 O6 1.951667 1_555
Cr4 O23 1.957143 1_555
Cr4 O22 1.963741 1_655
Cr4 O2 1.970212 1_555
Cr5 O7 1.952197 1_555
Cr5 O13 1.953687 1_555
Cr5 O23 1.953687 1_555
Cr5 O22 1.959487 1_555
Cr5 O15 1.959487 1_555
Cr5 O3 1.969685 1_555
O0 V0 1.970741 1_465
O0 V1 1.970741 1_465
O4 V1 1.951525 1_555
O4 V0 1.951525 1_554
O4 Sm1 2.753186 1_555
O4 Sm0 2.772870 1_655
O4 Sm2 2.772870 1_545
O5 Sm1 2.745946 1_555
O5 Sm2 2.769255 1_545
O5 Sm0 2.779104 1_555
O6 Sm1 2.745946 1_555
O6 Sm0 2.769255 1_655
O6 Sm2 2.779104 1_555
O7 Sm1 2.734655 1_555
O7 Sm2 2.757665 1_555
O7 Sm0 2.757665 1_555
O8 V0 1.968944 1_555
O8 Sm0 2.748919 1_656
O8 Sm1 2.748953 1_556
O9 Sm1 2.739522 1_556
O9 Sm0 2.748650 1_556
O10 V0 1.977054 1_565
O10 Sm2 2.767784 1_556
O11 Sm2 2.738507 1_556
O12 V1 1.968944 1_555
O12 Sm0 2.748919 1_655
O12 Sm1 2.748953 1_555
O13 Sm1 2.739522 1_555
O13 Sm0 2.748650 1_555
O14 V1 1.977054 1_565
O14 Sm2 2.767784 1_555
O15 Sm2 2.738507 1_555
O16 V0 1.977054 1_455
O16 Sm0 2.767784 1_556
O17 V0 1.968944 1_555
O17 Sm2 2.748919 1_546
O17 Sm1 2.748953 1_556
O18 Sm0 2.738507 1_556
O19 Sm1 2.739522 1_556
O19 Sm2 2.748650 1_556
O20 V1 1.977054 1_455
O20 Sm0 2.767784 1_555
O21 V1 1.968944 1_555
O21 Sm2 2.748919 1_545
O21 Sm1 2.748953 1_555
O22 Sm0 2.738507 1_555
O23 Sm1 2.739522 1_555
O23 Sm2 2.748650 1_555
