# generated using pymatgen
data_HfCrCuS4
_symmetry_space_group_name_H-M   'P 1'
_cell_length_a   6.05698000
_cell_length_b   7.09940300
_cell_length_c   12.39538900
_cell_angle_alpha   90.00000000
_cell_angle_beta   90.00000000
_cell_angle_gamma   90.00000000
_symmetry_Int_Tables_number   1
_chemical_formula_structural   HfCrCuS4
_chemical_formula_sum   'Hf4 Cr4 Cu4 S16'
_cell_volume   533.01340324
_cell_formula_units_Z   4
loop_
 _symmetry_equiv_pos_site_id
 _symmetry_equiv_pos_as_xyz
  1  'x, y, z'
loop_
 _atom_site_type_symbol
 _atom_site_label
 _atom_site_symmetry_multiplicity
 _atom_site_fract_x
 _atom_site_fract_y
 _atom_site_fract_z
 _atom_site_occupancy
  Hf  Hf0  1  0.50000000  0.25000000  0.25000000  1
  Hf  Hf1  1  0.50000000  0.75000000  0.75000000  1
  Hf  Hf2  1  0.50000000  0.75000000  0.25000000  1
  Hf  Hf3  1  0.50000000  0.25000000  0.75000000  1
  Cr  Cr0  1  0.99665600  0.00000000  0.24395000  1
  Cr  Cr1  1  0.99665600  0.00000000  0.75605000  1
  Cr  Cr2  1  0.00334400  0.50000000  0.25605000  1
  Cr  Cr3  1  0.00334400  0.50000000  0.74395000  1
  Cu  Cu0  1  0.35717000  0.00000000  0.00000000  1
  Cu  Cu1  1  0.64283000  0.50000000  0.50000000  1
  Cu  Cu2  1  0.02915800  0.00000000  0.50000000  1
  Cu  Cu3  1  0.97084200  0.50000000  0.00000000  1
  S  S0  1  0.84768100  0.24941100  0.36534500  1
  S  S1  1  0.84768100  0.75058900  0.63465500  1
  S  S2  1  0.15231900  0.74941100  0.13465500  1
  S  S3  1  0.15231900  0.25058900  0.86534500  1
  S  S4  1  0.15231900  0.25058900  0.13465500  1
  S  S5  1  0.15231900  0.74941100  0.86534500  1
  S  S6  1  0.84768100  0.75058900  0.36534500  1
  S  S7  1  0.84768100  0.24941100  0.63465500  1
  S  S8  1  0.66671800  0.00000000  0.13105900  1
  S  S9  1  0.66671800  0.00000000  0.86894100  1
  S  S10  1  0.33328200  0.50000000  0.36894100  1
  S  S11  1  0.33328200  0.50000000  0.63105900  1
  S  S12  1  0.31287400  0.00000000  0.36326300  1
  S  S13  1  0.31287400  0.00000000  0.63673700  1
  S  S14  1  0.68712600  0.50000000  0.13673700  1
  S  S15  1  0.68712600  0.50000000  0.86326300  1
loop_
_geom_bond_atom_site_label_1
_geom_bond_atom_site_label_2
_geom_bond_distance
_geom_bond_site_symmetry_2
Hf0 S10 2.518616 1_555
Hf0 S8 2.518616 1_555
Hf0 S14 2.530964 1_555
Hf0 S12 2.530964 1_555
Hf0 S0 2.545387 1_555
Hf0 S4 2.545387 1_555
Hf1 S9 2.518616 1_565
Hf1 S11 2.518616 1_555
Hf1 S13 2.530964 1_565
Hf1 S15 2.530964 1_555
Hf1 S1 2.545387 1_555
Hf1 S5 2.545387 1_555
Hf2 S10 2.518616 1_555
Hf2 S8 2.518616 1_565
Hf2 S12 2.530964 1_565
Hf2 S14 2.530964 1_555
Hf2 S6 2.545387 1_555
Hf2 S2 2.545387 1_555
Hf3 S9 2.518616 1_555
Hf3 S11 2.518616 1_555
Hf3 S13 2.530964 1_555
Hf3 S15 2.530964 1_555
Hf3 S7 2.545387 1_555
Hf3 S3 2.545387 1_555
Cr0 S12 2.419858 1_655
Cr0 S4 2.426783 1_655
Cr0 S2 2.426783 1_645
Cr0 S8 2.439638 1_555
Cr0 S0 2.492734 1_555
Cr0 S6 2.492734 1_545
Cr1 S13 2.419858 1_655
Cr1 S3 2.426783 1_655
Cr1 S5 2.426783 1_645
Cr1 S9 2.439638 1_555
Cr1 S7 2.492734 1_555
Cr1 S1 2.492734 1_545
Cr2 S14 2.419858 1_455
Cr2 S6 2.426783 1_455
Cr2 S0 2.426783 1_455
Cr2 S10 2.439638 1_555
Cr2 S2 2.492734 1_555
Cr2 S4 2.492734 1_555
Cr3 S15 2.419858 1_455
Cr3 S1 2.426783 1_455
Cr3 S7 2.426783 1_455
Cr3 S11 2.439638 1_555
Cr3 S5 2.492734 1_555
Cr3 S3 2.492734 1_555
Cu0 S8 2.480814 1_555
Cu0 S9 2.480814 1_554
Cu0 S4 2.736857 1_555
Cu0 S2 2.736857 1_545
Cu0 S3 2.736857 1_554
Cu0 S5 2.736857 1_544
Cu1 S11 2.480814 1_555
Cu1 S10 2.480814 1_555
Cu1 S1 2.736857 1_555
Cu1 S6 2.736857 1_555
Cu1 S7 2.736857 1_555
Cu1 S0 2.736857 1_555
Cu2 S12 2.413675 1_555
Cu2 S13 2.413675 1_555
Cu2 S1 2.670096 1_445
Cu2 S7 2.670096 1_455
Cu2 S0 2.670096 1_455
Cu2 S6 2.670096 1_445
Cu3 S14 2.413675 1_555
Cu3 S15 2.413675 1_554
Cu3 S2 2.670096 1_655
Cu3 S4 2.670096 1_655
Cu3 S5 2.670096 1_654
Cu3 S3 2.670096 1_654
