# generated using pymatgen
data_MgSbAs2SeO7
_symmetry_space_group_name_H-M   'P 1'
_cell_length_a   10.63966254
_cell_length_b   13.52879227
_cell_length_c   13.52471817
_cell_angle_alpha   81.13835569
_cell_angle_beta   66.83762353
_cell_angle_gamma   66.83063374
_symmetry_Int_Tables_number   1
_chemical_formula_structural   MgSbAs2SeO7
_chemical_formula_sum   'Mg8 Sb8 As16 Se8 O56'
_cell_volume   1645.49075689
_cell_formula_units_Z   8
loop_
 _symmetry_equiv_pos_site_id
 _symmetry_equiv_pos_as_xyz
  1  'x, y, z'
loop_
 _atom_site_type_symbol
 _atom_site_label
 _atom_site_symmetry_multiplicity
 _atom_site_fract_x
 _atom_site_fract_y
 _atom_site_fract_z
 _atom_site_occupancy
  Mg  Mg0  1  0.18635600  0.38273100  0.33566400  1
  Mg  Mg1  1  0.06914300  0.33572700  0.11698200  1
  Mg  Mg2  1  0.47905800  0.83537200  0.61649800  1
  Mg  Mg3  1  0.93085700  0.66427300  0.88301800  1
  Mg  Mg4  1  0.81364400  0.61726900  0.66433600  1
  Mg  Mg5  1  0.09520600  0.88286300  0.83576900  1
  Mg  Mg6  1  0.52094200  0.16462800  0.38350200  1
  Mg  Mg7  1  0.90479400  0.11713700  0.16423200  1
  Sb  Sb0  1  0.27178800  0.61067600  0.74883800  1
  Sb  Sb1  1  0.63126400  0.88930500  0.75122400  1
  Sb  Sb2  1  0.72821200  0.38932400  0.25116200  1
  Sb  Sb3  1  0.97946400  0.24879400  0.38908800  1
  Sb  Sb4  1  0.36873600  0.11069500  0.24877600  1
  Sb  Sb5  1  0.02053600  0.75120600  0.61091200  1
  Sb  Sb6  1  0.61727700  0.25120000  0.11093400  1
  Sb  Sb7  1  0.38272300  0.74880000  0.88906600  1
  As  As0  1  0.63055000  0.45911300  0.83707300  1
  As  As1  1  0.90552600  0.57948200  0.22791900  1
  As  As2  1  0.28735500  0.07910300  0.72777100  1
  As  As3  1  0.46773300  0.66263800  0.45902500  1
  As  As4  1  0.13395700  0.27174000  0.57922200  1
  As  As5  1  0.92680200  0.04072800  0.66288300  1
  As  As6  1  0.41048200  0.16271900  0.95910000  1
  As  As7  1  0.86604300  0.72826000  0.42077800  1
  As  As8  1  0.58951800  0.83728100  0.04090000  1
  As  As9  1  0.07319800  0.95927200  0.33711700  1
  As  As10  1  0.09447400  0.42051800  0.77208100  1
  As  As11  1  0.98508600  0.22787900  0.92049400  1
  As  As12  1  0.36945000  0.54088700  0.16292700  1
  As  As13  1  0.71264500  0.92089700  0.27222900  1
  As  As14  1  0.01491400  0.77212100  0.07950600  1
  As  As15  1  0.53226700  0.33736200  0.54097500  1
  Se  Se0  1  0.74677400  0.48657100  0.50049100  1
  Se  Se1  1  0.73383400  0.01352100  0.99944300  1
  Se  Se2  1  0.75273700  0.00058100  0.51349200  1
  Se  Se3  1  0.73325700  0.50053000  0.01360300  1
  Se  Se4  1  0.24726300  0.99941900  0.48650800  1
  Se  Se5  1  0.25322600  0.51342900  0.49950900  1
  Se  Se6  1  0.26674300  0.49947000  0.98639700  1
  Se  Se7  1  0.26616600  0.98647900  0.00055700  1
  O  O0  1  0.95498700  0.83599900  0.97237400  1
  O  O1  1  0.08950300  0.12557400  0.81313400  1
  O  O2  1  0.61959300  0.91370200  0.60380500  1
  O  O3  1  0.05706000  0.03551200  0.22597300  1
  O  O4  1  0.03302600  0.60393800  0.58617000  1
  O  O5  1  0.77673200  0.10385100  0.08636800  1
  O  O6  1  0.41705700  0.51812400  0.86215300  1
  O  O7  1  0.68148300  0.53548200  0.72603900  1
  O  O8  1  0.06819300  0.71269200  0.74491500  1
  O  O9  1  0.28314100  0.27409000  0.03527600  1
  O  O10  1  0.71900900  0.25530800  0.21272700  1
  O  O11  1  0.40742000  0.77404900  0.53520700  1
  O  O12  1  0.91049700  0.87442600  0.18686600  1
  O  O13  1  0.22326800  0.89614900  0.91363200  1
  O  O14  1  0.92734000  0.52772000  0.83593600  1
  O  O15  1  0.09413300  0.95013500  0.56245500  1
  O  O16  1  0.97131400  0.62584500  0.31350700  1
  O  O17  1  0.20252300  0.01823200  0.36216600  1
  O  O18  1  0.07266000  0.47228000  0.16406300  1
  O  O19  1  0.04501300  0.16400100  0.02762600  1
  O  O20  1  0.56476500  0.13776000  0.01815100  1
  O  O21  1  0.02868600  0.37415500  0.68649300  1
  O  O22  1  0.94294000  0.96448800  0.77402700  1
  O  O23  1  0.23734400  0.33540300  0.47198500  1
  O  O24  1  0.39307000  0.45036900  0.06254900  1
  O  O25  1  0.28099100  0.74469200  0.78727300  1
  O  O26  1  0.52594100  0.78719500  0.75502800  1
  O  O27  1  0.54423000  0.56263700  0.54982800  1
  O  O28  1  0.18701200  0.24476700  0.28708700  1
  O  O29  1  0.90268900  0.68665600  0.12558800  1
  O  O30  1  0.93180700  0.28730800  0.25508500  1
  O  O31  1  0.43523500  0.86224000  0.98184900  1
  O  O32  1  0.45577100  0.43736300  0.45017200  1
  O  O33  1  0.71451100  0.81375600  0.37462600  1
  O  O34  1  0.59258000  0.22595100  0.46479300  1
  O  O35  1  0.72085200  0.36231200  0.48185000  1
  O  O36  1  0.38040700  0.08629800  0.39619500  1
  O  O37  1  0.34315100  0.06270100  0.04983500  1
  O  O38  1  0.65684900  0.93729900  0.95016500  1
  O  O39  1  0.86313400  0.41368100  0.10381100  1
  O  O40  1  0.58294300  0.48187600  0.13784700  1
  O  O41  1  0.13686600  0.58631900  0.89618900  1
  O  O42  1  0.81298800  0.75523300  0.71291300  1
  O  O43  1  0.27914800  0.63768800  0.51815000  1
  O  O44  1  0.90586700  0.04986500  0.43754500  1
  O  O45  1  0.76265600  0.66459700  0.52801500  1
  O  O46  1  0.60693000  0.54963100  0.93745000  1
  O  O47  1  0.28548900  0.18624400  0.62537400  1
  O  O48  1  0.31851700  0.46451800  0.27396100  1
  O  O49  1  0.79747700  0.98176800  0.63783400  1
  O  O50  1  0.29151300  0.97192800  0.66376400  1
  O  O51  1  0.70848700  0.02807300  0.33623600  1
  O  O52  1  0.96697400  0.39606200  0.41383000  1
  O  O53  1  0.09731100  0.31334400  0.87441200  1
  O  O54  1  0.47405900  0.21280500  0.24497200  1
  O  O55  1  0.71685900  0.72591000  0.96472400  1
loop_
_geom_bond_atom_site_label_1
_geom_bond_atom_site_label_2
_geom_bond_distance
_geom_bond_site_symmetry_2
Mg0 O48 1.978552 1_555
Mg0 O23 2.062354 1_555
Mg0 O28 2.068673 1_555
Mg0 O52 2.093962 1_455
Mg1 O9 1.977666 1_555
Mg1 O18 2.062840 1_555
Mg1 O30 2.069326 1_455
Mg1 O39 2.092491 1_455
Mg2 O11 1.978850 1_555
Mg2 O50 2.064682 1_555
Mg2 O26 2.070524 1_555
Mg2 O2 2.092152 1_555
Mg3 O55 1.977666 1_555
Mg3 O14 2.062846 1_555
Mg3 O8 2.069326 1_655
Mg3 O41 2.092491 1_655
Mg4 O7 1.978552 1_555
Mg4 O45 2.062354 1_555
Mg4 O42 2.068673 1_555
Mg4 O4 2.093962 1_655
Mg5 O22 1.978305 1_455
Mg5 O0 2.063053 1_455
Mg5 O25 2.069288 1_555
Mg5 O13 2.092267 1_555
Mg6 O34 1.978850 1_555
Mg6 O51 2.064674 1_555
Mg6 O54 2.070524 1_555
Mg6 O36 2.092152 1_555
Mg7 O3 1.978296 1_655
Mg7 O19 2.063061 1_655
Mg7 O10 2.069287 1_555
Mg7 O5 2.092278 1_555
As0 O7 1.714237 1_555
As0 O46 1.845926 1_555
As0 O6 1.990579 1_555
As1 O18 1.777575 1_655
As1 O29 1.843593 1_555
As1 O16 1.851994 1_555
As2 O50 1.777588 1_545
As2 O47 1.843867 1_555
As2 O1 1.851978 1_555
As3 O11 1.715355 1_555
As3 O27 1.846319 1_555
As3 O43 1.991713 1_555
As4 O23 1.777901 1_555
As4 O21 1.843619 1_555
As4 O47 1.851656 1_555
As5 O22 1.714327 1_545
As5 O15 1.846665 1_645
As5 O49 1.989466 1_545
As6 O9 1.714957 1_556
As6 O37 1.846531 1_556
As6 O20 1.989603 1_556
As7 O45 1.777901 1_555
As7 O16 1.843619 1_555
As7 O33 1.851656 1_555
As8 O55 1.714957 1_554
As8 O38 1.846531 1_554
As8 O31 1.989603 1_554
As9 O3 1.714327 1_565
As9 O44 1.846665 1_465
As9 O17 1.989466 1_565
As10 O14 1.777572 1_455
As10 O53 1.843593 1_555
As10 O21 1.851994 1_555
As11 O19 1.777682 1_656
As11 O1 1.843476 1_655
As11 O53 1.852021 1_655
As12 O48 1.714237 1_555
As12 O24 1.845937 1_555
As12 O40 1.990579 1_555
As13 O51 1.777600 1_565
As13 O33 1.843867 1_555
As13 O12 1.851978 1_555
As14 O0 1.777682 1_454
As14 O12 1.843476 1_455
As14 O29 1.852021 1_455
As15 O34 1.715355 1_555
As15 O32 1.846315 1_555
As15 O35 1.991713 1_555
O2 Sb1 2.014786 1_555
O2 Se2 2.094495 1_565
O4 Sb5 2.015245 1_555
O4 Se5 2.094417 1_555
O5 Sb6 2.015406 1_555
O5 Se1 2.094643 1_554
O6 Se6 1.875602 1_555
O6 Sb0 2.460643 1_555
O8 Sb5 2.009303 1_555
O8 Sb0 2.077322 1_555
O10 Sb2 2.009268 1_555
O10 Sb6 2.076827 1_555
O13 Sb7 2.015406 1_555
O13 Se7 2.094643 1_556
O15 Se4 1.865847 1_555
O17 Se4 1.876698 1_545
O17 Sb4 2.461758 1_555
O20 Se1 1.875826 1_554
O20 Sb6 2.462070 1_555
O24 Se6 1.866604 1_554
O25 Sb0 2.009268 1_555
O25 Sb7 2.076827 1_555
O26 Sb7 2.009410 1_555
O26 Sb1 2.077889 1_555
O27 Se0 1.866425 1_555
O28 Sb4 2.009625 1_555
O28 Sb3 2.077116 1_455
O30 Sb3 2.009303 1_555
O30 Sb2 2.077322 1_555
O31 Se7 1.875826 1_556
O31 Sb7 2.462070 1_555
O32 Se5 1.866434 1_555
O35 Se0 1.875036 1_555
O35 Sb3 2.460955 1_555
O36 Sb4 2.014786 1_555
O36 Se4 2.094495 1_545
O37 Se7 1.866627 1_545
O38 Se1 1.866627 1_565
O39 Sb2 2.015005 1_555
O39 Se3 2.094161 1_555
O40 Se3 1.875602 1_555
O40 Sb2 2.460643 1_555
O41 Sb0 2.015005 1_555
O41 Se6 2.094161 1_555
O42 Sb1 2.009625 1_555
O42 Sb5 2.077116 1_655
O43 Se5 1.875036 1_555
O43 Sb5 2.460955 1_555
O44 Se2 1.865847 1_555
O46 Se3 1.866615 1_556
O49 Se2 1.876698 1_565
O49 Sb1 2.461758 1_555
O52 Sb3 2.015245 1_555
O52 Se0 2.094417 1_555
O54 Sb6 2.009410 1_555
O54 Sb4 2.077889 1_555
