# generated using pymatgen
data_KVMoO6
_symmetry_space_group_name_H-M   'P 1'
_cell_length_a   3.76519800
_cell_length_b   10.64035400
_cell_length_c   13.79147300
_cell_angle_alpha   90.00000000
_cell_angle_beta   90.00000000
_cell_angle_gamma   90.00000000
_symmetry_Int_Tables_number   1
_chemical_formula_structural   KVMoO6
_chemical_formula_sum   'K4 V4 Mo4 O24'
_cell_volume   552.52832894
_cell_formula_units_Z   4
loop_
 _symmetry_equiv_pos_site_id
 _symmetry_equiv_pos_as_xyz
  1  'x, y, z'
loop_
 _atom_site_type_symbol
 _atom_site_label
 _atom_site_symmetry_multiplicity
 _atom_site_fract_x
 _atom_site_fract_y
 _atom_site_fract_z
 _atom_site_occupancy
  K  K0  1  0.25000000  0.61529600  0.86213900  1
  K  K1  1  0.75000000  0.38470400  0.13786100  1
  K  K2  1  0.75000000  0.88470400  0.36213900  1
  K  K3  1  0.25000000  0.11529600  0.63786100  1
  V  V0  1  0.25000000  0.01410700  0.10805600  1
  V  V1  1  0.75000000  0.98589300  0.89194400  1
  V  V2  1  0.75000000  0.48589300  0.60805600  1
  V  V3  1  0.25000000  0.51410700  0.39194400  1
  Mo  Mo0  1  0.25000000  0.73395900  0.57687600  1
  Mo  Mo1  1  0.75000000  0.26604100  0.42312400  1
  Mo  Mo2  1  0.75000000  0.76604100  0.07687600  1
  Mo  Mo3  1  0.25000000  0.23395900  0.92312400  1
  O  O0  1  0.25000000  0.17191800  0.08659000  1
  O  O1  1  0.75000000  0.82808200  0.91341000  1
  O  O2  1  0.75000000  0.32808200  0.58659000  1
  O  O3  1  0.25000000  0.67191800  0.41341000  1
  O  O4  1  0.25000000  0.88405800  0.52424400  1
  O  O5  1  0.75000000  0.11594200  0.47575600  1
  O  O6  1  0.75000000  0.61594200  0.02424400  1
  O  O7  1  0.25000000  0.38405800  0.97575600  1
  O  O8  1  0.25000000  0.99342300  0.22646200  1
  O  O9  1  0.75000000  0.00657700  0.77353800  1
  O  O10  1  0.75000000  0.50657700  0.72646200  1
  O  O11  1  0.25000000  0.49342300  0.27353800  1
  O  O12  1  0.25000000  0.76390300  0.70045700  1
  O  O13  1  0.75000000  0.23609700  0.29954300  1
  O  O14  1  0.75000000  0.73609700  0.20045700  1
  O  O15  1  0.25000000  0.26390300  0.79954300  1
  O  O16  1  0.25000000  0.52708200  0.57604700  1
  O  O17  1  0.75000000  0.47291800  0.42395300  1
  O  O18  1  0.75000000  0.97291800  0.07604700  1
  O  O19  1  0.25000000  0.02708200  0.92395300  1
  O  O20  1  0.25000000  0.81734900  0.06471500  1
  O  O21  1  0.75000000  0.18265100  0.93528500  1
  O  O22  1  0.75000000  0.68265100  0.56471500  1
  O  O23  1  0.25000000  0.31734900  0.43528500  1
loop_
_geom_bond_atom_site_label_1
_geom_bond_atom_site_label_2
_geom_bond_distance
_geom_bond_site_symmetry_2
K0 O12 2.733578 1_555
K0 O10 2.895466 1_555
K0 O10 2.895466 1_455
K0 O7 2.917045 1_555
K0 O6 2.922744 1_456
K0 O6 2.922744 1_556
K0 O1 3.028268 1_555
K0 O1 3.028268 1_455
K1 O13 2.733578 1_555
K1 O11 2.895466 1_655
K1 O11 2.895466 1_555
K1 O6 2.917045 1_555
K1 O7 2.922744 1_654
K1 O7 2.922744 1_554
K1 O0 3.028268 1_655
K1 O0 3.028268 1_555
K2 O14 2.733578 1_555
K2 O8 2.895466 1_555
K2 O8 2.895466 1_655
K2 O5 2.917045 1_565
K2 O4 2.922744 1_655
K2 O4 2.922744 1_555
K2 O3 3.028268 1_555
K2 O3 3.028268 1_655
K3 O15 2.733578 1_555
K3 O9 2.895466 1_555
K3 O9 2.895466 1_455
K3 O4 2.917045 1_545
K3 O5 2.922744 1_555
K3 O5 2.922744 1_455
K3 O2 3.028268 1_455
K3 O2 3.028268 1_555
Mo0 O12 1.733889 1_555
Mo0 O4 1.754321 1_555
Mo0 O22 1.967321 1_455
Mo0 O22 1.967321 1_555
Mo0 O16 2.201274 1_555
Mo0 O3 2.349099 1_555
Mo1 O13 1.733889 1_555
Mo1 O5 1.754321 1_555
Mo1 O23 1.967321 1_655
Mo1 O23 1.967321 1_555
Mo1 O17 2.201274 1_555
Mo1 O2 2.349099 1_555
Mo2 O14 1.733889 1_555
Mo2 O6 1.754321 1_555
Mo2 O20 1.967321 1_655
Mo2 O20 1.967321 1_555
Mo2 O18 2.201274 1_555
Mo2 O1 2.349099 1_554
Mo3 O15 1.733889 1_555
Mo3 O7 1.754321 1_555
Mo3 O21 1.967321 1_455
Mo3 O21 1.967321 1_555
Mo3 O19 2.201274 1_555
Mo3 O0 2.349099 1_556
O0 V0 1.705063 1_555
O1 V1 1.705063 1_555
O2 V2 1.705063 1_555
O3 V3 1.705063 1_555
O8 V0 1.647757 1_565
O9 V1 1.647757 1_545
O10 V2 1.647757 1_555
O11 V3 1.647757 1_555
O16 V2 1.982709 1_555
O16 V2 1.982709 1_455
O16 V3 2.542802 1_555
O17 V3 1.982709 1_555
O17 V3 1.982709 1_655
O17 V2 2.542802 1_555
O18 V0 1.982709 1_565
O18 V0 1.982709 1_665
O18 V1 2.542802 1_554
O19 V1 1.982709 1_445
O19 V1 1.982709 1_545
O19 V0 2.542802 1_556
O20 V0 2.177233 1_565
O21 V1 2.177233 1_545
O22 V2 2.177233 1_555
O23 V3 2.177233 1_555
