# generated using pymatgen
data_Mg2Si
_symmetry_space_group_name_H-M   'P 1'
_cell_length_a   5.13189200
_cell_length_b   7.00730226
_cell_length_c   7.75472465
_cell_angle_alpha   102.91170397
_cell_angle_beta   107.85552416
_cell_angle_gamma   107.58147033
_symmetry_Int_Tables_number   1
_chemical_formula_structural   Mg2Si
_chemical_formula_sum   'Mg8 Si4'
_cell_volume   237.18719029
_cell_formula_units_Z   4
loop_
 _symmetry_equiv_pos_site_id
 _symmetry_equiv_pos_as_xyz
  1  'x, y, z'
loop_
 _atom_site_type_symbol
 _atom_site_label
 _atom_site_symmetry_multiplicity
 _atom_site_fract_x
 _atom_site_fract_y
 _atom_site_fract_z
 _atom_site_occupancy
  Mg  Mg0  1  0.61919100  0.28348700  0.79532400  1
  Mg  Mg1  1  0.16788100  0.52350600  0.75062100  1
  Mg  Mg2  1  0.92083400  0.03075000  0.57764600  1
  Mg  Mg3  1  0.31594300  0.04814300  0.32869200  1
  Mg  Mg4  1  0.60389500  0.55097400  0.46187300  1
  Mg  Mg5  1  0.26559100  0.30729000  0.04221600  1
  Mg  Mg6  1  0.89136500  0.27638300  0.28293700  1
  Mg  Mg7  1  0.84209800  0.80747800  0.90073600  1
  Si  Si0  1  0.58074800  0.77473000  0.17227900  1
  Si  Si1  1  0.42228800  0.96750800  0.94534600  1
  Si  Si2  1  0.32435900  0.81238500  0.57779100  1
  Si  Si3  1  0.04638800  0.61783600  0.16465000  1
loop_
_geom_bond_atom_site_label_1
_geom_bond_atom_site_label_2
_geom_bond_distance
_geom_bond_site_symmetry_2
Mg0 Si1 2.792394 1_545
Mg0 Si3 2.923333 1_656
Mg0 Si2 2.993534 1_545
Mg1 Si2 2.725652 1_555
Mg1 Si1 2.811079 1_555
Mg1 Si0 3.034106 1_556
Mg2 Si0 2.893080 1_545
Mg2 Si2 2.922909 1_645
Mg2 Si2 2.980706 1_545
Mg3 Si3 2.703815 1_545
Mg3 Si2 2.807239 1_545
Mg3 Si0 2.921262 1_545
Mg3 Si1 3.144017 1_544
Mg4 Si2 2.804253 1_555
Mg4 Si0 3.006374 1_555
Mg4 Si2 3.311835 1_655
Mg5 Si1 2.758211 1_544
Mg5 Si3 2.848292 1_555
Mg5 Si0 2.946997 1_555
Mg6 Si3 2.734512 1_655
Mg6 Si1 2.790789 1_544
Mg7 Si1 2.724042 1_655
Mg7 Si1 2.786015 1_555
Mg7 Si3 2.791923 1_656
Mg7 Si0 2.836834 1_556
Mg7 Si2 3.057073 1_555
Si0 Si1 2.536029 1_554
Si0 Si3 2.604298 1_555
Si1 Si2 2.639170 1_555
Si2 Si3 2.868511 1_555
