# generated using pymatgen
data_CaSnS3
_symmetry_space_group_name_H-M   'P 1'
_cell_length_a   9.60936200
_cell_length_b   9.33216000
_cell_length_c   20.06121228
_cell_angle_alpha   84.50911266
_cell_angle_beta   90.00000000
_cell_angle_gamma   90.00000000
_symmetry_Int_Tables_number   1
_chemical_formula_structural   CaSnS3
_chemical_formula_sum   'Ca12 Sn12 S36'
_cell_volume   1790.75646260
_cell_formula_units_Z   12
loop_
 _symmetry_equiv_pos_site_id
 _symmetry_equiv_pos_as_xyz
  1  'x, y, z'
loop_
 _atom_site_type_symbol
 _atom_site_label
 _atom_site_symmetry_multiplicity
 _atom_site_fract_x
 _atom_site_fract_y
 _atom_site_fract_z
 _atom_site_occupancy
  Ca  Ca0  1  0.12478300  0.96936400  0.26693900  1
  Ca  Ca1  1  0.62478300  0.03063600  0.23306100  1
  Ca  Ca2  1  0.87521700  0.03063600  0.73306100  1
  Ca  Ca3  1  0.37521700  0.96936400  0.76693900  1
  Ca  Ca4  1  0.88014200  0.74387800  0.10921700  1
  Ca  Ca5  1  0.38014200  0.25612200  0.39078300  1
  Ca  Ca6  1  0.11985800  0.25612200  0.89078300  1
  Ca  Ca7  1  0.61985800  0.74387800  0.60921700  1
  Ca  Ca8  1  0.36908700  0.74208700  0.10938400  1
  Ca  Ca9  1  0.86908700  0.25791300  0.39061600  1
  Ca  Ca10  1  0.63091300  0.25791300  0.89061600  1
  Ca  Ca11  1  0.13091300  0.74208700  0.60938400  1
  Sn  Sn0  1  0.40093500  0.21290400  0.08413100  1
  Sn  Sn1  1  0.90093500  0.78709600  0.41586900  1
  Sn  Sn2  1  0.59906500  0.78709600  0.91586900  1
  Sn  Sn3  1  0.09906500  0.21290400  0.58413100  1
  Sn  Sn4  1  0.85012200  0.21263500  0.08712900  1
  Sn  Sn5  1  0.35012200  0.78736500  0.41287100  1
  Sn  Sn6  1  0.14987800  0.78736500  0.91287100  1
  Sn  Sn7  1  0.64987800  0.21263500  0.58712900  1
  Sn  Sn8  1  0.12557100  0.44658000  0.20477900  1
  Sn  Sn9  1  0.62557100  0.55342000  0.29522100  1
  Sn  Sn10  1  0.87442900  0.55342000  0.79522100  1
  Sn  Sn11  1  0.37442900  0.44658000  0.70477900  1
  S  S0  1  0.12533700  0.70591900  0.19677300  1
  S  S1  1  0.62533700  0.29408100  0.30322700  1
  S  S2  1  0.87466300  0.29408100  0.80322700  1
  S  S3  1  0.37466300  0.70591900  0.69677300  1
  S  S4  1  0.12566200  0.27305100  0.30014500  1
  S  S5  1  0.62566200  0.72694900  0.19985500  1
  S  S6  1  0.87433800  0.72694900  0.69985500  1
  S  S7  1  0.37433800  0.27305100  0.80014500  1
  S  S8  1  0.34909100  0.01069000  0.16207100  1
  S  S9  1  0.84909100  0.98931000  0.33792900  1
  S  S10  1  0.65090900  0.98931000  0.83792900  1
  S  S11  1  0.15090900  0.01069000  0.66207100  1
  S  S12  1  0.89989400  0.00991400  0.16567000  1
  S  S13  1  0.39989400  0.99008600  0.33433000  1
  S  S14  1  0.10010600  0.99008600  0.83433000  1
  S  S15  1  0.60010600  0.00991400  0.66567000  1
  S  S16  1  0.37715500  0.22212400  0.96660200  1
  S  S17  1  0.87715500  0.77787600  0.53339800  1
  S  S18  1  0.62284500  0.77787600  0.03339800  1
  S  S19  1  0.12284500  0.22212400  0.46660200  1
  S  S20  1  0.87576800  0.20955800  0.97126800  1
  S  S21  1  0.37576800  0.79044200  0.52873200  1
  S  S22  1  0.12423200  0.79044200  0.02873200  1
  S  S23  1  0.62423200  0.20955800  0.47126800  1
  S  S24  1  0.32561100  0.43732400  0.13090200  1
  S  S25  1  0.82561100  0.56267600  0.36909800  1
  S  S26  1  0.67438900  0.56267600  0.86909800  1
  S  S27  1  0.17438900  0.43732400  0.63090200  1
  S  S28  1  0.92002800  0.43801900  0.13474500  1
  S  S29  1  0.42002800  0.56198100  0.36525500  1
  S  S30  1  0.07997200  0.56198100  0.86525500  1
  S  S31  1  0.57997200  0.43801900  0.63474500  1
  S  S32  1  0.62404200  0.28142100  0.12845600  1
  S  S33  1  0.12404200  0.71857900  0.37154400  1
  S  S34  1  0.37595800  0.71857900  0.87154400  1
  S  S35  1  0.87595800  0.28142100  0.62845600  1
loop_
_geom_bond_atom_site_label_1
_geom_bond_atom_site_label_2
_geom_bond_distance
_geom_bond_site_symmetry_2
Ca0 S0 2.947535 1_555
Ca0 S12 2.965380 1_465
Ca0 S4 2.972709 1_565
Ca0 S13 2.983961 1_555
Ca0 S33 2.990181 1_555
Ca0 S8 3.010871 1_565
Ca0 S9 3.021913 1_455
Ca1 S1 2.947535 1_555
Ca1 S13 2.965380 1_545
Ca1 S5 2.972709 1_545
Ca1 S12 2.983961 1_555
Ca1 S32 2.990181 1_555
Ca1 S9 3.010871 1_545
Ca1 S8 3.021913 1_555
Ca2 S2 2.947535 1_555
Ca2 S14 2.965380 1_645
Ca2 S6 2.972709 1_545
Ca2 S15 2.983961 1_555
Ca2 S35 2.990181 1_555
Ca2 S10 3.010871 1_545
Ca2 S11 3.021913 1_655
Ca3 S3 2.947535 1_555
Ca3 S15 2.965380 1_565
Ca3 S7 2.972709 1_565
Ca3 S14 2.983961 1_555
Ca3 S34 2.990181 1_555
Ca3 S11 3.010871 1_565
Ca3 S10 3.021913 1_555
Ca4 S12 2.832041 1_565
Ca4 S22 2.857127 1_655
Ca4 S28 2.876908 1_555
Ca4 S18 2.904285 1_555
Ca4 S0 2.939924 1_655
Ca4 S5 3.042394 1_555
Ca5 S13 2.832041 1_545
Ca5 S23 2.857127 1_555
Ca5 S29 2.876908 1_555
Ca5 S19 2.904285 1_555
Ca5 S1 2.939924 1_555
Ca5 S4 3.042394 1_555
Ca6 S14 2.832041 1_545
Ca6 S20 2.857127 1_455
Ca6 S30 2.876908 1_555
Ca6 S16 2.904285 1_555
Ca6 S2 2.939924 1_455
Ca6 S7 3.042394 1_555
Ca7 S15 2.832041 1_565
Ca7 S21 2.857127 1_555
Ca7 S31 2.876908 1_555
Ca7 S17 2.904285 1_555
Ca7 S3 2.939924 1_555
Ca7 S6 3.042394 1_555
Ca8 S8 2.818582 1_565
Ca8 S24 2.866150 1_555
Ca8 S22 2.866687 1_555
Ca8 S18 2.878172 1_555
Ca8 S0 2.925821 1_555
Ca8 S5 3.056756 1_555
Ca9 S9 2.818582 1_545
Ca9 S25 2.866150 1_555
Ca9 S23 2.866687 1_555
Ca9 S19 2.878172 1_655
Ca9 S1 2.925821 1_555
Ca9 S4 3.056756 1_655
Ca10 S10 2.818582 1_545
Ca10 S26 2.866150 1_555
Ca10 S20 2.866687 1_555
Ca10 S16 2.878172 1_555
Ca10 S2 2.925821 1_555
Ca10 S7 3.056756 1_555
Ca11 S11 2.818582 1_565
Ca11 S27 2.866150 1_555
Ca11 S21 2.866687 1_555
Ca11 S17 2.878172 1_455
Ca11 S3 2.925821 1_555
Ca11 S6 3.056756 1_455
S0 Sn8 2.410134 1_555
S1 Sn9 2.410134 1_555
S2 Sn10 2.410134 1_555
S3 Sn11 2.410134 1_555
S4 Sn8 2.385313 1_555
S5 Sn9 2.385313 1_555
S6 Sn10 2.385313 1_555
S7 Sn11 2.385313 1_555
S8 Sn0 2.385245 1_555
S9 Sn1 2.385245 1_555
S10 Sn2 2.385245 1_555
S11 Sn3 2.385245 1_555
S12 Sn4 2.391631 1_555
S13 Sn5 2.391631 1_555
S14 Sn6 2.391631 1_555
S15 Sn7 2.391631 1_555
S16 Sn0 2.362180 1_556
S17 Sn1 2.362180 1_555
S18 Sn2 2.362180 1_554
S19 Sn3 2.362180 1_555
S20 Sn4 2.340247 1_556
S21 Sn5 2.340247 1_555
S22 Sn6 2.340247 1_554
S23 Sn7 2.340247 1_555
S24 Sn8 2.433832 1_555
S24 Sn0 2.483252 1_555
S25 Sn9 2.433832 1_555
S25 Sn1 2.483252 1_555
S26 Sn10 2.433832 1_555
S26 Sn2 2.483252 1_555
S27 Sn11 2.433832 1_555
S27 Sn3 2.483252 1_555
S28 Sn8 2.429601 1_655
S28 Sn4 2.484387 1_555
S29 Sn9 2.429601 1_555
S29 Sn5 2.484387 1_555
S30 Sn10 2.429601 1_455
S30 Sn6 2.484387 1_555
S31 Sn11 2.429601 1_555
S31 Sn7 2.484387 1_555
S32 Sn0 2.429966 1_555
S32 Sn4 2.433302 1_555
S33 Sn1 2.429966 1_455
S33 Sn5 2.433302 1_555
S34 Sn2 2.429966 1_555
S34 Sn6 2.433302 1_555
S35 Sn3 2.429966 1_655
S35 Sn7 2.433302 1_555
