# generated using pymatgen
data_Mg6FeCu
_symmetry_space_group_name_H-M   'P 1'
_cell_length_a   4.79924800
_cell_length_b   6.02591600
_cell_length_c   10.38577200
_cell_angle_alpha   90.00000000
_cell_angle_beta   90.00000000
_cell_angle_gamma   90.00000000
_symmetry_Int_Tables_number   1
_chemical_formula_structural   Mg6FeCu
_chemical_formula_sum   'Mg12 Fe2 Cu2'
_cell_volume   300.35512739
_cell_formula_units_Z   2
loop_
 _symmetry_equiv_pos_site_id
 _symmetry_equiv_pos_as_xyz
  1  'x, y, z'
loop_
 _atom_site_type_symbol
 _atom_site_label
 _atom_site_symmetry_multiplicity
 _atom_site_fract_x
 _atom_site_fract_y
 _atom_site_fract_z
 _atom_site_occupancy
  Mg  Mg0  1  0.00000000  0.76075600  0.41061000  1
  Mg  Mg1  1  0.00000000  0.23924400  0.41061000  1
  Mg  Mg2  1  0.00000000  0.00000000  0.66534900  1
  Mg  Mg3  1  0.50000000  0.73751400  0.59169900  1
  Mg  Mg4  1  0.50000000  0.26248600  0.59169900  1
  Mg  Mg5  1  0.50000000  0.00000000  0.83464600  1
  Mg  Mg6  1  0.00000000  0.26075600  0.91061000  1
  Mg  Mg7  1  0.00000000  0.73924400  0.91061000  1
  Mg  Mg8  1  0.00000000  0.50000000  0.16534900  1
  Mg  Mg9  1  0.50000000  0.23751400  0.09169900  1
  Mg  Mg10  1  0.50000000  0.76248600  0.09169900  1
  Mg  Mg11  1  0.50000000  0.50000000  0.33464600  1
  Fe  Fe0  1  0.00000000  0.00000000  0.17046400  1
  Fe  Fe1  1  0.00000000  0.50000000  0.67046400  1
  Cu  Cu0  1  0.50000000  0.00000000  0.32492200  1
  Cu  Cu1  1  0.50000000  0.50000000  0.82492200  1
loop_
_geom_bond_atom_site_label_1
_geom_bond_atom_site_label_2
_geom_bond_distance
_geom_bond_site_symmetry_2
Mg0 Mg1 2.883328 1_565
Mg0 Mg11 2.974827 1_455
Mg0 Mg11 2.974827 1_555
Mg0 Mg8 2.992878 1_555
Mg0 Mg2 3.012958 1_565
Mg0 Mg3 3.052053 1_455
Mg0 Mg3 3.052053 1_555
Mg0 Mg1 3.142588 1_555
Mg1 Mg11 2.974827 1_455
Mg1 Mg11 2.974827 1_555
Mg1 Mg8 2.992878 1_555
Mg1 Mg2 3.012958 1_555
Mg1 Mg4 3.052053 1_555
Mg1 Mg4 3.052053 1_455
Mg2 Mg3 2.974075 1_445
Mg2 Mg4 2.974075 1_555
Mg2 Mg3 2.974075 1_545
Mg2 Mg4 2.974075 1_455
Mg2 Mg5 2.974852 1_455
Mg2 Mg5 2.974852 1_555
Mg2 Mg7 2.992878 1_545
Mg2 Mg6 2.992878 1_555
Mg3 Mg4 2.862479 1_555
Mg3 Mg5 2.977975 1_565
Mg3 Mg4 3.163437 1_565
Mg4 Mg5 2.977975 1_555
Mg5 Mg6 2.974827 1_555
Mg5 Mg7 2.974827 1_545
Mg5 Mg7 2.974827 1_645
Mg5 Mg6 2.974827 1_655
Mg5 Mg9 3.029144 1_556
Mg6 Mg7 2.883328 1_555
Mg6 Mg8 3.012958 1_556
Mg6 Mg9 3.052053 1_456
Mg6 Mg9 3.052053 1_556
Mg6 Mg7 3.142588 1_545
Mg7 Mg8 3.012958 1_556
Mg8 Mg9 2.974075 1_455
Mg8 Mg9 2.974075 1_555
Mg10 Mg9 2.862479 1_565
Mg10 Mg8 2.974075 1_555
Mg10 Mg8 2.974075 1_655
Mg10 Mg11 2.977975 1_555
Mg10 Mg5 3.029144 1_564
Mg10 Mg7 3.052053 1_654
Mg10 Mg7 3.052053 1_554
Mg10 Mg9 3.163437 1_555
Mg11 Mg8 2.974852 1_655
Mg11 Mg8 2.974852 1_555
Mg11 Mg9 2.977975 1_555
Mg11 Mg4 3.029144 1_555
Mg11 Mg3 3.029144 1_555
Fe0 Mg0 2.880788 1_545
Fe0 Mg1 2.880788 1_555
Fe0 Mg9 2.911327 1_455
Fe0 Mg9 2.911327 1_555
Fe0 Mg10 2.911327 1_445
Fe0 Mg10 2.911327 1_545
Fe0 Mg8 3.013426 1_545
Fe0 Mg8 3.013426 1_555
Fe0 Mg6 3.122883 1_554
Fe0 Mg7 3.122883 1_544
Fe1 Mg6 2.880788 1_555
Fe1 Mg7 2.880788 1_555
Fe1 Mg3 2.911327 1_555
Fe1 Mg4 2.911327 1_555
Fe1 Mg3 2.911327 1_455
Fe1 Mg4 2.911327 1_455
Fe1 Mg2 3.013426 1_565
Fe1 Mg2 3.013426 1_555
Fe1 Mg1 3.122883 1_555
Fe1 Mg0 3.122883 1_555
Cu0 Mg9 2.813450 1_555
Cu0 Mg10 2.813450 1_545
Cu0 Fe0 2.886441 1_655
Cu0 Fe0 2.886441 1_555
Cu0 Mg0 2.937444 1_545
Cu0 Mg1 2.937444 1_655
Cu0 Mg1 2.937444 1_555
Cu0 Mg0 2.937444 1_645
Cu0 Mg11 3.014650 1_545
Cu0 Mg11 3.014650 1_555
Cu0 Mg4 3.190381 1_555
Cu0 Mg3 3.190381 1_545
Cu1 Mg3 2.813450 1_555
Cu1 Mg4 2.813450 1_555
Cu1 Fe1 2.886441 1_555
Cu1 Fe1 2.886441 1_655
Cu1 Mg6 2.937444 1_655
Cu1 Mg7 2.937444 1_555
Cu1 Mg7 2.937444 1_655
Cu1 Mg6 2.937444 1_555
Cu1 Mg5 3.014650 1_565
Cu1 Mg5 3.014650 1_555
Cu1 Mg9 3.190381 1_556
Cu1 Mg10 3.190381 1_556
