# generated using pymatgen
data_PrZn(CuO3)2
_symmetry_space_group_name_H-M   'P 1'
_cell_length_a   5.21694700
_cell_length_b   5.42723800
_cell_length_c   7.60494700
_cell_angle_alpha   90.00000000
_cell_angle_beta   90.00000000
_cell_angle_gamma   90.00000000
_symmetry_Int_Tables_number   1
_chemical_formula_structural   PrZn(CuO3)2
_chemical_formula_sum   'Pr2 Zn2 Cu4 O12'
_cell_volume   215.32352626
_cell_formula_units_Z   2
loop_
 _symmetry_equiv_pos_site_id
 _symmetry_equiv_pos_as_xyz
  1  'x, y, z'
loop_
 _atom_site_type_symbol
 _atom_site_label
 _atom_site_symmetry_multiplicity
 _atom_site_fract_x
 _atom_site_fract_y
 _atom_site_fract_z
 _atom_site_occupancy
  Pr  Pr0  1  0.01160700  0.70599200  0.00000000  1
  Pr  Pr1  1  0.51160700  0.29400800  0.50000000  1
  Zn  Zn0  1  0.47477500  0.19673800  0.00000000  1
  Zn  Zn1  1  0.97477500  0.80326200  0.50000000  1
  Cu  Cu0  1  0.99920300  0.24711600  0.75152200  1
  Cu  Cu1  1  0.99920300  0.24711600  0.24847800  1
  Cu  Cu2  1  0.49920300  0.75288400  0.25152200  1
  Cu  Cu3  1  0.49920300  0.75288400  0.74847800  1
  O  O0  1  0.07199700  0.19784700  0.50000000  1
  O  O1  1  0.23089000  0.98663200  0.80733900  1
  O  O2  1  0.23089000  0.98663200  0.19266100  1
  O  O3  1  0.30867100  0.44791400  0.19228700  1
  O  O4  1  0.30867100  0.44791400  0.80771300  1
  O  O5  1  0.36416200  0.72783100  0.50000000  1
  O  O6  1  0.57199700  0.80215300  0.00000000  1
  O  O7  1  0.73089000  0.01336800  0.69266100  1
  O  O8  1  0.73089000  0.01336800  0.30733900  1
  O  O9  1  0.80867100  0.55208600  0.69228700  1
  O  O10  1  0.80867100  0.55208600  0.30771300  1
  O  O11  1  0.86416200  0.27216900  0.00000000  1
loop_
_geom_bond_atom_site_label_1
_geom_bond_atom_site_label_2
_geom_bond_distance
_geom_bond_site_symmetry_2
Cu0 O1 1.907803 1_645
Cu0 O7 1.941419 1_555
Cu0 O0 1.968392 1_655
Cu0 O9 1.982539 1_555
Cu0 O4 1.994183 1_655
Cu0 O11 2.021295 1_556
Cu1 O2 1.907803 1_645
Cu1 O8 1.941419 1_555
Cu1 O0 1.968392 1_655
Cu1 O10 1.982539 1_555
Cu1 O3 1.994183 1_655
Cu1 O11 2.021295 1_555
Cu2 O8 1.907803 1_565
Cu2 O2 1.941419 1_555
Cu2 O6 1.968392 1_555
Cu2 O3 1.982539 1_555
Cu2 O10 1.994183 1_555
Cu2 O5 2.021295 1_555
Cu3 O7 1.907803 1_565
Cu3 O1 1.941419 1_555
Cu3 O6 1.968392 1_556
Cu3 O4 1.982539 1_555
Cu3 O9 1.994183 1_555
Cu3 O5 2.021295 1_555
O0 Zn1 2.200751 1_445
O0 Pr1 2.352053 1_555
O1 Zn0 2.250745 1_566
O1 Pr0 2.403182 1_556
O2 Zn0 2.250745 1_565
O2 Pr0 2.403182 1_555
O3 Zn0 2.178905 1_555
O3 Pr0 2.549905 1_555
O3 Pr1 2.700892 1_555
O4 Zn0 2.178905 1_556
O4 Pr0 2.549905 1_556
O4 Pr1 2.700892 1_555
O5 Zn1 2.072251 1_455
O5 Pr1 2.476928 1_555
O6 Zn0 2.200751 1_565
O6 Pr0 2.352053 1_655
O7 Zn1 2.250745 1_545
O7 Pr1 2.403182 1_555
O8 Zn1 2.250745 1_545
O8 Pr1 2.403182 1_555
O9 Zn1 2.178905 1_555
O9 Pr1 2.549905 1_555
O9 Pr0 2.700892 1_656
O10 Zn1 2.178905 1_555
O10 Pr1 2.549905 1_555
O10 Pr0 2.700892 1_655
O11 Zn0 2.072251 1_555
O11 Pr0 2.476928 1_655
