# generated using pymatgen
data_Mg3Ti
_symmetry_space_group_name_H-M   'P 1'
_cell_length_a   4.95530300
_cell_length_b   5.48376800
_cell_length_c   6.20081400
_cell_angle_alpha   90.00000000
_cell_angle_beta   90.00000000
_cell_angle_gamma   90.00000000
_symmetry_Int_Tables_number   1
_chemical_formula_structural   Mg3Ti
_chemical_formula_sum   'Mg6 Ti2'
_cell_volume   168.49925795
_cell_formula_units_Z   2
loop_
 _symmetry_equiv_pos_site_id
 _symmetry_equiv_pos_as_xyz
  1  'x, y, z'
loop_
 _atom_site_type_symbol
 _atom_site_label
 _atom_site_symmetry_multiplicity
 _atom_site_fract_x
 _atom_site_fract_y
 _atom_site_fract_z
 _atom_site_occupancy
  Mg  Mg0  1  0.00000000  0.66845200  0.24739400  1
  Mg  Mg1  1  0.00000000  0.16509800  0.50000000  1
  Mg  Mg2  1  0.00000000  0.66845200  0.75260600  1
  Mg  Mg3  1  0.50000000  0.83490200  0.00000000  1
  Mg  Mg4  1  0.50000000  0.33154800  0.25260600  1
  Mg  Mg5  1  0.50000000  0.33154800  0.74739400  1
  Ti  Ti0  1  0.00000000  0.15545600  0.00000000  1
  Ti  Ti1  1  0.50000000  0.84454400  0.50000000  1
loop_
_geom_bond_atom_site_label_1
_geom_bond_atom_site_label_2
_geom_bond_distance
_geom_bond_site_symmetry_2
Mg0 Mg3 3.053720 1_455
Mg0 Mg3 3.053720 1_555
Mg0 Mg2 3.068088 1_554
Mg0 Ti0 3.079852 1_565
Mg0 Ti1 3.086215 1_455
Mg0 Ti1 3.086215 1_555
Mg0 Mg4 3.090804 1_455
Mg0 Mg4 3.090804 1_555
Mg0 Mg2 3.132726 1_555
Mg0 Mg1 3.141799 1_565
Mg0 Mg1 3.173739 1_555
Mg0 Ti0 3.204233 1_555
Mg1 Ti1 3.037889 1_445
Mg1 Ti1 3.037889 1_545
Mg1 Mg5 3.053720 1_455
Mg1 Mg5 3.053720 1_555
Mg1 Mg4 3.053720 1_455
Mg1 Mg4 3.053720 1_555
Mg1 Ti0 3.100858 1_556
Mg1 Ti0 3.100858 1_555
Mg1 Mg2 3.141799 1_545
Mg1 Mg2 3.173739 1_555
Mg2 Mg3 3.053720 1_556
Mg2 Mg3 3.053720 1_456
Mg2 Ti0 3.079852 1_566
Mg2 Ti1 3.086215 1_455
Mg2 Ti1 3.086215 1_555
Mg2 Mg5 3.090804 1_555
Mg2 Mg5 3.090804 1_455
Mg2 Ti0 3.204233 1_556
Mg3 Ti0 3.037889 1_665
Mg3 Ti0 3.037889 1_565
Mg3 Ti1 3.100858 1_555
Mg3 Ti1 3.100858 1_554
Mg3 Mg4 3.141799 1_565
Mg3 Mg5 3.141799 1_564
Mg3 Mg5 3.173739 1_554
Mg3 Mg4 3.173739 1_555
Mg4 Mg5 3.068088 1_555
Mg4 Ti1 3.079852 1_545
Mg4 Ti0 3.086215 1_655
Mg4 Ti0 3.086215 1_555
Mg4 Mg5 3.132726 1_554
Mg4 Ti1 3.204233 1_555
Mg5 Ti1 3.079852 1_545
Mg5 Ti0 3.086215 1_556
Mg5 Ti0 3.086215 1_656
Mg5 Ti1 3.204233 1_555
