# generated using pymatgen
data_Hf2VSi2
_symmetry_space_group_name_H-M   'P 1'
_cell_length_a   5.49544400
_cell_length_b   5.49544400
_cell_length_c   26.68922400
_cell_angle_alpha   90.00000000
_cell_angle_beta   90.00000000
_cell_angle_gamma   90.00000000
_symmetry_Int_Tables_number   1
_chemical_formula_structural   Hf2VSi2
_chemical_formula_sum   'Hf16 V8 Si16'
_cell_volume   806.01202284
_cell_formula_units_Z   8
loop_
 _symmetry_equiv_pos_site_id
 _symmetry_equiv_pos_as_xyz
  1  'x, y, z'
loop_
 _atom_site_type_symbol
 _atom_site_label
 _atom_site_symmetry_multiplicity
 _atom_site_fract_x
 _atom_site_fract_y
 _atom_site_fract_z
 _atom_site_occupancy
  Hf  Hf0_0  1  0.25000000  0.25000000  0.31046850  1
  Hf  Hf0_1  1  0.25000000  0.25000000  0.81046850  1
  Hf  Hf0_2  1  0.25000000  0.75000000  0.31046850  1
  Hf  Hf0_3  1  0.25000000  0.75000000  0.81046850  1
  Hf  Hf0_4  1  0.75000000  0.25000000  0.31046850  1
  Hf  Hf0_5  1  0.75000000  0.25000000  0.81046850  1
  Hf  Hf0_6  1  0.75000000  0.75000000  0.31046850  1
  Hf  Hf0_7  1  0.75000000  0.75000000  0.81046850  1
  Hf  Hf1_0  1  0.25000000  0.25000000  0.18953150  1
  Hf  Hf1_1  1  0.25000000  0.25000000  0.68953150  1
  Hf  Hf1_2  1  0.25000000  0.75000000  0.18953150  1
  Hf  Hf1_3  1  0.25000000  0.75000000  0.68953150  1
  Hf  Hf1_4  1  0.75000000  0.25000000  0.18953150  1
  Hf  Hf1_5  1  0.75000000  0.25000000  0.68953150  1
  Hf  Hf1_6  1  0.75000000  0.75000000  0.18953150  1
  Hf  Hf1_7  1  0.75000000  0.75000000  0.68953150  1
  V  V0_0  1  0.25000000  0.25000000  0.00000000  1
  V  V0_1  1  0.25000000  0.25000000  0.50000000  1
  V  V0_2  1  0.25000000  0.75000000  0.00000000  1
  V  V0_3  1  0.25000000  0.75000000  0.50000000  1
  V  V0_4  1  0.75000000  0.25000000  0.00000000  1
  V  V0_5  1  0.75000000  0.25000000  0.50000000  1
  V  V0_6  1  0.75000000  0.75000000  0.00000000  1
  V  V0_7  1  0.75000000  0.75000000  0.50000000  1
  Si  Si0_0  1  0.25000000  0.25000000  0.09189300  1
  Si  Si0_1  1  0.25000000  0.25000000  0.59189300  1
  Si  Si0_2  1  0.25000000  0.75000000  0.09189300  1
  Si  Si0_3  1  0.25000000  0.75000000  0.59189300  1
  Si  Si0_4  1  0.75000000  0.25000000  0.09189300  1
  Si  Si0_5  1  0.75000000  0.25000000  0.59189300  1
  Si  Si0_6  1  0.75000000  0.75000000  0.09189300  1
  Si  Si0_7  1  0.75000000  0.75000000  0.59189300  1
  Si  Si1_0  1  0.25000000  0.25000000  0.40810700  1
  Si  Si1_1  1  0.25000000  0.25000000  0.90810700  1
  Si  Si1_2  1  0.25000000  0.75000000  0.40810700  1
  Si  Si1_3  1  0.25000000  0.75000000  0.90810700  1
  Si  Si1_4  1  0.75000000  0.25000000  0.40810700  1
  Si  Si1_5  1  0.75000000  0.25000000  0.90810700  1
  Si  Si1_6  1  0.75000000  0.75000000  0.40810700  1
  Si  Si1_7  1  0.75000000  0.75000000  0.90810700  1
loop_
_geom_bond_atom_site_label_1
_geom_bond_atom_site_label_2
_geom_bond_distance
_geom_bond_site_symmetry_2
Hf0_0 Si1_0 2.605896 1_555
Hf0_1 Si1_1 2.605896 1_555
Hf0_2 Si1_2 2.605896 1_555
Hf0_3 Si1_3 2.605896 1_555
Hf0_4 Si1_4 2.605896 1_555
Hf0_5 Si1_5 2.605896 1_555
Hf0_6 Si1_6 2.605896 1_555
Hf0_7 Si1_7 2.605896 1_555
Hf1_0 Si0_0 2.605896 1_555
Hf1_1 Si0_1 2.605896 1_555
Hf1_2 Si0_2 2.605896 1_555
Hf1_3 Si0_3 2.605896 1_555
Hf1_4 Si0_4 2.605896 1_555
Hf1_5 Si0_5 2.605896 1_555
Hf1_6 Si0_6 2.605896 1_555
Hf1_7 Si0_7 2.605896 1_555
V0_0 V0_2 2.747722 1_545
V0_0 V0_2 2.747722 1_555
V0_0 V0_4 2.747722 1_455
V0_0 V0_4 2.747722 1_555
V0_1 V0_3 2.747722 1_555
V0_1 V0_5 2.747722 1_555
V0_1 V0_3 2.747722 1_545
V0_1 V0_5 2.747722 1_455
V0_2 V0_6 2.747722 1_455
V0_2 V0_6 2.747722 1_555
V0_3 V0_7 2.747722 1_455
V0_3 V0_7 2.747722 1_555
V0_4 V0_6 2.747722 1_555
V0_4 V0_6 2.747722 1_545
V0_5 V0_7 2.747722 1_545
V0_5 V0_7 2.747722 1_555
Si0_0 V0_0 2.452553 1_555
Si0_1 V0_1 2.452553 1_555
Si0_2 V0_2 2.452553 1_555
Si0_3 V0_3 2.452553 1_555
Si0_4 V0_4 2.452553 1_555
Si0_5 V0_5 2.452553 1_555
Si0_6 V0_6 2.452553 1_555
Si0_7 V0_7 2.452553 1_555
Si1_0 V0_1 2.452553 1_555
Si1_1 V0_0 2.452553 1_556
Si1_2 V0_3 2.452553 1_555
Si1_3 V0_2 2.452553 1_556
Si1_4 V0_5 2.452553 1_555
Si1_5 V0_4 2.452553 1_556
Si1_6 V0_7 2.452553 1_555
Si1_7 V0_6 2.452553 1_556
