# generated using pymatgen
data_Mn2PHO3F2
_symmetry_space_group_name_H-M   'P 1'
_cell_length_a   5.50396444
_cell_length_b   7.57230035
_cell_length_c   10.17018633
_cell_angle_alpha   90.00000000
_cell_angle_beta   90.00000000
_cell_angle_gamma   90.00000000
_symmetry_Int_Tables_number   1
_chemical_formula_structural   Mn2PHO3F2
_chemical_formula_sum   'Mn8 P4 H4 O12 F8'
_cell_volume   423.86968857
_cell_formula_units_Z   4
loop_
 _symmetry_equiv_pos_site_id
 _symmetry_equiv_pos_as_xyz
  1  'x, y, z'
loop_
 _atom_site_type_symbol
 _atom_site_label
 _atom_site_symmetry_multiplicity
 _atom_site_fract_x
 _atom_site_fract_y
 _atom_site_fract_z
 _atom_site_occupancy
  Mn  Mn0  1  0.25155004  0.59700429  0.43820056  1
  Mn  Mn1  1  0.24844996  0.09700429  0.06179944  1
  Mn  Mn2  1  0.74844996  0.40299571  0.93820056  1
  Mn  Mn3  1  0.75155004  0.90299571  0.56179944  1
  Mn  Mn4  1  0.74844996  0.40299571  0.56179944  1
  Mn  Mn5  1  0.75155004  0.90299571  0.93820056  1
  Mn  Mn6  1  0.25155004  0.59700429  0.06179944  1
  Mn  Mn7  1  0.24844996  0.09700429  0.43820056  1
  P  P0  1  0.41668155  0.66581771  0.75000000  1
  P  P1  1  0.08331845  0.16581771  0.75000000  1
  P  P2  1  0.58331845  0.33418229  0.25000000  1
  P  P3  1  0.91668155  0.83418229  0.25000000  1
  H  H0  1  0.18541257  0.73889900  0.75000000  1
  H  H1  1  0.31458743  0.23889900  0.75000000  1
  H  H2  1  0.81458743  0.26110100  0.25000000  1
  H  H3  1  0.68541257  0.76110100  0.25000000  1
  O  O0  1  0.44071483  0.55266814  0.62625588  1
  O  O1  1  0.05928517  0.05266814  0.87374412  1
  O  O2  1  0.55928517  0.44733186  0.12625588  1
  O  O3  1  0.94071483  0.94733186  0.37374412  1
  O  O4  1  0.55928517  0.44733186  0.37374412  1
  O  O5  1  0.94071483  0.94733186  0.12625588  1
  O  O6  1  0.44071483  0.55266814  0.87374412  1
  O  O7  1  0.05928517  0.05266814  0.62625588  1
  O  O8  1  0.10126283  0.68075413  0.25000000  1
  O  O9  1  0.39873717  0.18075413  0.25000000  1
  O  O10  1  0.89873717  0.31924587  0.75000000  1
  O  O11  1  0.60126283  0.81924587  0.75000000  1
  F  F0  1  0.42834073  0.84494943  0.45414722  1
  F  F1  1  0.07165927  0.34494943  0.04585278  1
  F  F2  1  0.57165927  0.15505057  0.95414722  1
  F  F3  1  0.92834073  0.65505057  0.54585278  1
  F  F4  1  0.57165927  0.15505057  0.54585278  1
  F  F5  1  0.92834073  0.65505057  0.95414722  1
  F  F6  1  0.42834073  0.84494943  0.04585278  1
  F  F7  1  0.07165927  0.34494943  0.45414722  1
loop_
_geom_bond_atom_site_label_1
_geom_bond_atom_site_label_2
_geom_bond_distance
_geom_bond_site_symmetry_2
Mn0 O4 2.140812 1_555
Mn0 O8 2.179434 1_555
Mn0 O0 2.203315 1_555
Mn1 O5 2.140812 1_445
Mn1 O9 2.179434 1_555
Mn1 O1 2.203315 1_554
Mn2 O6 2.140812 1_555
Mn2 O10 2.179434 1_555
Mn2 O2 2.203315 1_556
Mn3 O7 2.140812 1_665
Mn3 O11 2.179434 1_555
Mn3 O3 2.203315 1_555
Mn4 O0 2.140812 1_555
Mn4 O10 2.179434 1_555
Mn4 O4 2.203315 1_555
Mn5 O1 2.140812 1_665
Mn5 O11 2.179434 1_555
Mn5 O5 2.203315 1_556
Mn6 O2 2.140812 1_555
Mn6 O8 2.179434 1_555
Mn6 O6 2.203315 1_554
Mn7 O3 2.140812 1_445
Mn7 O9 2.179434 1_555
Mn7 O7 2.203315 1_555
H0 P0 1.387987 1_555
H1 P1 1.387987 1_555
H2 P2 1.387987 1_555
H3 P3 1.387987 1_555
O0 P0 1.528212 1_555
O1 P1 1.528212 1_555
O2 P2 1.528212 1_555
O3 P3 1.528212 1_555
O4 P2 1.528212 1_555
O5 P3 1.528212 1_555
O6 P0 1.528212 1_555
O7 P1 1.528212 1_555
O8 P3 1.543341 1_455
O9 P2 1.543341 1_555
O10 P1 1.543341 1_655
O11 P0 1.543341 1_555
F0 Mn0 2.120894 1_555
F0 Mn3 2.134592 1_555
F0 Mn7 2.156273 1_565
F1 Mn1 2.120894 1_555
F1 Mn2 2.134592 1_454
F1 Mn6 2.156273 1_555
F2 Mn2 2.120894 1_555
F2 Mn1 2.134592 1_556
F2 Mn5 2.156273 1_545
F3 Mn3 2.120894 1_555
F3 Mn0 2.134592 1_655
F3 Mn4 2.156273 1_555
F4 Mn4 2.120894 1_555
F4 Mn7 2.134592 1_555
F4 Mn3 2.156273 1_545
F5 Mn5 2.120894 1_555
F5 Mn6 2.134592 1_656
F5 Mn2 2.156273 1_555
F6 Mn6 2.120894 1_555
F6 Mn5 2.134592 1_554
F6 Mn1 2.156273 1_565
F7 Mn7 2.120894 1_555
F7 Mn4 2.134592 1_455
F7 Mn0 2.156273 1_555
