# generated using pymatgen
data_Ho2MgS4
_symmetry_space_group_name_H-M   'P 1'
_cell_length_a   7.53662100
_cell_length_b   12.62841800
_cell_length_c   12.76527500
_cell_angle_alpha   90.00000000
_cell_angle_beta   90.00000000
_cell_angle_gamma   90.00000000
_symmetry_Int_Tables_number   1
_chemical_formula_structural   Ho2MgS4
_chemical_formula_sum   'Ho16 Mg8 S32'
_cell_volume   1214.94271106
_cell_formula_units_Z   8
loop_
 _symmetry_equiv_pos_site_id
 _symmetry_equiv_pos_as_xyz
  1  'x, y, z'
loop_
 _atom_site_type_symbol
 _atom_site_label
 _atom_site_symmetry_multiplicity
 _atom_site_fract_x
 _atom_site_fract_y
 _atom_site_fract_z
 _atom_site_occupancy
  Ho  Ho0  1  0.88416700  0.10872000  0.68559500  1
  Ho  Ho1  1  0.11583300  0.89128000  0.18559500  1
  Ho  Ho2  1  0.88416700  0.39128000  0.18559500  1
  Ho  Ho3  1  0.11583300  0.60872000  0.68559500  1
  Ho  Ho4  1  0.38280400  0.12708200  0.32613800  1
  Ho  Ho5  1  0.61719600  0.87291800  0.82613800  1
  Ho  Ho6  1  0.38280400  0.37291800  0.82613800  1
  Ho  Ho7  1  0.61719600  0.62708200  0.32613800  1
  Ho  Ho8  1  0.63023000  0.13386800  0.99227600  1
  Ho  Ho9  1  0.36977000  0.86613200  0.49227600  1
  Ho  Ho10  1  0.63023000  0.36613200  0.49227600  1
  Ho  Ho11  1  0.36977000  0.63386800  0.99227600  1
  Ho  Ho12  1  0.13008400  0.13417200  0.99157100  1
  Ho  Ho13  1  0.86991600  0.86582800  0.49157100  1
  Ho  Ho14  1  0.13008400  0.36582800  0.49157100  1
  Ho  Ho15  1  0.86991600  0.63417200  0.99157100  1
  Mg  Mg0  1  0.38320200  0.11137400  0.69157600  1
  Mg  Mg1  1  0.61679800  0.88862600  0.19157600  1
  Mg  Mg2  1  0.38320200  0.38862600  0.19157600  1
  Mg  Mg3  1  0.61679800  0.61137400  0.69157600  1
  Mg  Mg4  1  0.87971400  0.12621300  0.32137300  1
  Mg  Mg5  1  0.12028600  0.87378700  0.82137300  1
  Mg  Mg6  1  0.87971400  0.37378700  0.82137300  1
  Mg  Mg7  1  0.12028600  0.62621300  0.32137300  1
  S  S0  1  0.87765300  0.01333700  0.87759300  1
  S  S1  1  0.12234700  0.98666300  0.37759300  1
  S  S2  1  0.87765300  0.48666300  0.37759300  1
  S  S3  1  0.12234700  0.51333700  0.87759300  1
  S  S4  1  0.37778400  0.03221900  0.13069700  1
  S  S5  1  0.62221600  0.96778100  0.63069700  1
  S  S6  1  0.37778400  0.46778100  0.63069700  1
  S  S7  1  0.62221600  0.53221900  0.13069700  1
  S  S8  1  0.37443700  0.02223900  0.87037200  1
  S  S9  1  0.62556300  0.97776100  0.37037200  1
  S  S10  1  0.37443700  0.47776100  0.37037200  1
  S  S11  1  0.62556300  0.52223900  0.87037200  1
  S  S12  1  0.87504000  0.04300000  0.13651600  1
  S  S13  1  0.12496000  0.95700000  0.63651600  1
  S  S14  1  0.87504000  0.45700000  0.63651600  1
  S  S15  1  0.12496000  0.54300000  0.13651600  1
  S  S16  1  0.88064000  0.21215400  0.50218000  1
  S  S17  1  0.11936000  0.78784600  0.00218000  1
  S  S18  1  0.88064000  0.28784600  0.00218000  1
  S  S19  1  0.11936000  0.71215400  0.50218000  1
  S  S20  1  0.38063900  0.21310200  0.51888900  1
  S  S21  1  0.61936100  0.78689800  0.01888900  1
  S  S22  1  0.38063900  0.28689800  0.01888900  1
  S  S23  1  0.61936100  0.71310200  0.51888900  1
  S  S24  1  0.13113400  0.23216400  0.77532100  1
  S  S25  1  0.86886600  0.76783600  0.27532100  1
  S  S26  1  0.13113400  0.26783600  0.27532100  1
  S  S27  1  0.86886600  0.73216400  0.77532100  1
  S  S28  1  0.63393700  0.23254300  0.77690500  1
  S  S29  1  0.36606300  0.76745700  0.27690500  1
  S  S30  1  0.63393700  0.26745700  0.27690500  1
  S  S31  1  0.36606300  0.73254300  0.77690500  1
loop_
_geom_bond_atom_site_label_1
_geom_bond_atom_site_label_2
_geom_bond_distance
_geom_bond_site_symmetry_2
Ho0 S16 2.681189 1_555
Ho0 S24 2.684491 1_655
Ho0 S13 2.712357 1_645
Ho0 S28 2.712990 1_555
Ho0 S0 2.731348 1_555
Ho0 S5 2.748907 1_545
Ho1 S17 2.681189 1_555
Ho1 S25 2.684491 1_455
Ho1 S12 2.712357 1_465
Ho1 S29 2.712990 1_555
Ho1 S1 2.731348 1_555
Ho1 S4 2.748907 1_565
Ho2 S18 2.681189 1_555
Ho2 S26 2.684491 1_655
Ho2 S15 2.712357 1_655
Ho2 S30 2.712990 1_555
Ho2 S2 2.731348 1_555
Ho2 S7 2.748907 1_555
Ho3 S19 2.681189 1_555
Ho3 S27 2.684491 1_455
Ho3 S14 2.712357 1_455
Ho3 S31 2.712990 1_555
Ho3 S3 2.731348 1_555
Ho3 S6 2.748907 1_555
Ho4 S30 2.668293 1_555
Ho4 S26 2.679167 1_555
Ho4 S9 2.687384 1_545
Ho4 S20 2.689696 1_555
Ho4 S1 2.725648 1_545
Ho4 S4 2.767829 1_555
Ho5 S31 2.668293 1_555
Ho5 S27 2.679167 1_555
Ho5 S8 2.687384 1_565
Ho5 S21 2.689696 1_556
Ho5 S0 2.725648 1_565
Ho5 S5 2.767829 1_555
Ho6 S28 2.668293 1_555
Ho6 S24 2.679167 1_555
Ho6 S11 2.687384 1_555
Ho6 S22 2.689696 1_556
Ho6 S3 2.725648 1_555
Ho6 S6 2.767829 1_555
Ho7 S29 2.668293 1_555
Ho7 S25 2.679167 1_555
Ho7 S10 2.687384 1_555
Ho7 S23 2.689696 1_555
Ho7 S2 2.725648 1_555
Ho7 S7 2.767829 1_555
Ho8 S18 2.712702 1_556
Ho8 S22 2.718181 1_556
Ho8 S0 2.817312 1_555
Ho8 S12 2.848021 1_556
Ho8 S8 2.850488 1_555
Ho8 S4 2.896528 1_556
Ho8 S28 3.018618 1_555
Ho9 S19 2.712702 1_555
Ho9 S23 2.718181 1_555
Ho9 S1 2.817312 1_555
Ho9 S13 2.848021 1_555
Ho9 S9 2.850488 1_555
Ho9 S5 2.896528 1_555
Ho9 S29 3.018618 1_555
Ho10 S16 2.712702 1_555
Ho10 S20 2.718181 1_555
Ho10 S2 2.817312 1_555
Ho10 S14 2.848021 1_555
Ho10 S10 2.850488 1_555
Ho10 S6 2.896528 1_555
Ho10 S30 3.018618 1_555
Ho11 S17 2.712702 1_556
Ho11 S21 2.718181 1_556
Ho11 S3 2.817312 1_555
Ho11 S15 2.848021 1_556
Ho11 S11 2.850488 1_555
Ho11 S7 2.896528 1_556
Ho11 S31 3.018618 1_555
Ho12 S18 2.705322 1_456
Ho12 S22 2.721629 1_556
Ho12 S8 2.789839 1_555
Ho12 S0 2.839871 1_455
Ho12 S4 2.880417 1_556
Ho12 S12 2.905828 1_456
Ho12 S24 3.025184 1_555
Ho13 S19 2.705322 1_655
Ho13 S23 2.721629 1_555
Ho13 S9 2.789839 1_555
Ho13 S1 2.839871 1_655
Ho13 S5 2.880417 1_555
Ho13 S13 2.905828 1_655
Ho13 S25 3.025184 1_555
Ho14 S16 2.705322 1_455
Ho14 S20 2.721629 1_555
Ho14 S10 2.789839 1_555
Ho14 S2 2.839871 1_455
Ho14 S6 2.880417 1_555
Ho14 S14 2.905828 1_455
Ho14 S26 3.025184 1_555
Ho15 S17 2.705322 1_656
Ho15 S21 2.721629 1_556
Ho15 S11 2.789839 1_555
Ho15 S3 2.839871 1_655
Ho15 S7 2.880417 1_556
Ho15 S15 2.905828 1_656
Ho15 S27 3.025184 1_555
Mg0 S8 2.545717 1_555
Mg0 S20 2.551490 1_555
Mg0 S24 2.660572 1_555
Mg0 S28 2.664364 1_555
Mg0 S5 2.671531 1_545
Mg0 S13 2.842979 1_545
Mg1 S9 2.545717 1_555
Mg1 S21 2.551490 1_555
Mg1 S25 2.660572 1_555
Mg1 S29 2.664364 1_555
Mg1 S4 2.671531 1_565
Mg1 S12 2.842979 1_565
Mg2 S10 2.545717 1_555
Mg2 S22 2.551490 1_555
Mg2 S26 2.660572 1_555
Mg2 S30 2.664364 1_555
Mg2 S7 2.671531 1_555
Mg2 S15 2.842979 1_555
Mg3 S11 2.545717 1_555
Mg3 S23 2.551490 1_555
Mg3 S27 2.660572 1_555
Mg3 S31 2.664364 1_555
Mg3 S6 2.671531 1_555
Mg3 S14 2.842979 1_555
Mg4 S16 2.550494 1_555
Mg4 S12 2.583398 1_555
Mg4 S30 2.633417 1_555
Mg4 S1 2.639058 1_645
Mg4 S26 2.671088 1_655
Mg4 S9 2.752216 1_545
Mg5 S17 2.550494 1_556
Mg5 S13 2.583398 1_555
Mg5 S31 2.633417 1_555
Mg5 S0 2.639058 1_465
Mg5 S27 2.671088 1_455
Mg5 S8 2.752216 1_565
Mg6 S18 2.550494 1_556
Mg6 S14 2.583398 1_555
Mg6 S28 2.633417 1_555
Mg6 S3 2.639058 1_655
Mg6 S24 2.671088 1_655
Mg6 S11 2.752216 1_555
Mg7 S19 2.550494 1_555
Mg7 S15 2.583398 1_555
Mg7 S29 2.633417 1_555
Mg7 S2 2.639058 1_455
Mg7 S25 2.671088 1_455
Mg7 S10 2.752216 1_555
