# generated using pymatgen
data_CrWN2
_symmetry_space_group_name_H-M   'P 1'
_cell_length_a   5.57895355
_cell_length_b   5.57895355
_cell_length_c   5.57895352
_cell_angle_alpha   29.67089330
_cell_angle_beta   29.67089330
_cell_angle_gamma   29.67089934
_symmetry_Int_Tables_number   1
_chemical_formula_structural   CrWN2
_chemical_formula_sum   'Cr1 W1 N2'
_cell_volume   37.67169338
_cell_formula_units_Z   1
loop_
 _symmetry_equiv_pos_site_id
 _symmetry_equiv_pos_as_xyz
  1  'x, y, z'
loop_
 _atom_site_type_symbol
 _atom_site_label
 _atom_site_symmetry_multiplicity
 _atom_site_fract_x
 _atom_site_fract_y
 _atom_site_fract_z
 _atom_site_occupancy
  Cr  Cr0  1  0.83209400  0.83209400  0.83209400  1
  W  W0  1  0.99838800  0.99838800  0.99838800  1
  N  N0  1  0.41695100  0.41695100  0.41695100  1
  N  N1  1  0.24736800  0.24736800  0.24736800  1
loop_
_geom_bond_atom_site_label_1
_geom_bond_atom_site_label_2
_geom_bond_distance
_geom_bond_site_symmetry_2
Cr0 N0 2.105132 1_556
Cr0 N0 2.105132 1_565
Cr0 N0 2.105132 1_655
Cr0 N1 2.106434 1_665
Cr0 N1 2.106435 1_656
Cr0 N1 2.106435 1_566
N0 W0 2.139537 1_445
N0 W0 2.139538 1_544
N0 W0 2.139538 1_454
N1 W0 2.130641 1_445
N1 W0 2.130641 1_454
N1 W0 2.130641 1_544
