# generated using pymatgen
data_LiRuPbO3
_symmetry_space_group_name_H-M   'P 1'
_cell_length_a   4.23884073
_cell_length_b   4.24270972
_cell_length_c   4.24839903
_cell_angle_alpha   83.58742613
_cell_angle_beta   83.59240732
_cell_angle_gamma   83.55593526
_symmetry_Int_Tables_number   1
_chemical_formula_structural   LiRuPbO3
_chemical_formula_sum   'Li1 Ru1 Pb1 O3'
_cell_volume   75.06556617
_cell_formula_units_Z   1
loop_
 _symmetry_equiv_pos_site_id
 _symmetry_equiv_pos_as_xyz
  1  'x, y, z'
loop_
 _atom_site_type_symbol
 _atom_site_label
 _atom_site_symmetry_multiplicity
 _atom_site_fract_x
 _atom_site_fract_y
 _atom_site_fract_z
 _atom_site_occupancy
  Li  Li0  1  0.76640900  0.76633200  0.76960400  1
  Ru  Ru0  1  0.47227700  0.47248700  0.47353500  1
  Pb  Pb0  1  0.09491100  0.09485400  0.09696600  1
  O  O0  1  0.47104900  0.47073500  0.97507100  1
  O  O1  1  0.47164700  0.97389700  0.47584800  1
  O  O2  1  0.97370000  0.47168800  0.47563800  1
loop_
_geom_bond_atom_site_label_1
_geom_bond_atom_site_label_2
_geom_bond_distance
_geom_bond_site_symmetry_2
Li0 O1 1.936412 1_555
Li0 O2 1.936943 1_555
Li0 O0 1.940685 1_555
Li0 Pb0 2.667742 1_666
O0 Ru0 2.119106 1_556
O0 Ru0 2.129335 1_555
O0 Pb0 2.357005 1_556
O1 Ru0 2.114598 1_565
O1 Ru0 2.128158 1_555
O1 Pb0 2.368488 1_565
O2 Ru0 2.112792 1_655
O2 Ru0 2.126089 1_555
O2 Pb0 2.369360 1_655
