# generated using pymatgen
data_Cs3Ti3Te11
_symmetry_space_group_name_H-M   'P 1'
_cell_length_a   16.11741500
_cell_length_b   11.13453600
_cell_length_c   18.71419175
_cell_angle_alpha   54.00142639
_cell_angle_beta   90.00000000
_cell_angle_gamma   90.00000000
_symmetry_Int_Tables_number   1
_chemical_formula_structural   Cs3Ti3Te11
_chemical_formula_sum   'Cs12 Ti12 Te44'
_cell_volume   2717.09039298
_cell_formula_units_Z   4
loop_
 _symmetry_equiv_pos_site_id
 _symmetry_equiv_pos_as_xyz
  1  'x, y, z'
loop_
 _atom_site_type_symbol
 _atom_site_label
 _atom_site_symmetry_multiplicity
 _atom_site_fract_x
 _atom_site_fract_y
 _atom_site_fract_z
 _atom_site_occupancy
  Cs  Cs0  1  0.37850200  0.71173400  0.56125900  1
  Cs  Cs1  1  0.12149800  0.71173400  0.06125900  1
  Cs  Cs2  1  0.62149800  0.28826600  0.43874100  1
  Cs  Cs3  1  0.87850200  0.28826600  0.93874100  1
  Cs  Cs4  1  0.52841900  0.56805600  0.84924400  1
  Cs  Cs5  1  0.97158100  0.56805600  0.34924400  1
  Cs  Cs6  1  0.47158100  0.43194400  0.15075600  1
  Cs  Cs7  1  0.02841900  0.43194400  0.65075600  1
  Cs  Cs8  1  0.11094300  0.07094200  0.37886600  1
  Cs  Cs9  1  0.38905700  0.07094200  0.87886600  1
  Cs  Cs10  1  0.88905700  0.92905800  0.62113400  1
  Cs  Cs11  1  0.61094300  0.92905800  0.12113400  1
  Ti  Ti0  1  0.20280500  0.65317000  0.82172100  1
  Ti  Ti1  1  0.29719500  0.65317000  0.32172100  1
  Ti  Ti2  1  0.79719500  0.34683000  0.17827900  1
  Ti  Ti3  1  0.70280500  0.34683000  0.67827900  1
  Ti  Ti4  1  0.30980700  0.04531100  0.17869300  1
  Ti  Ti5  1  0.19019300  0.04531100  0.67869300  1
  Ti  Ti6  1  0.69019300  0.95468900  0.82130700  1
  Ti  Ti7  1  0.80980700  0.95468900  0.32130700  1
  Ti  Ti8  1  0.28347700  0.34193200  0.98186200  1
  Ti  Ti9  1  0.21652300  0.34193200  0.48186200  1
  Ti  Ti10  1  0.71652300  0.65806800  0.01813800  1
  Ti  Ti11  1  0.78347700  0.65806800  0.51813800  1
  Te  Te0  1  0.42997100  0.21641500  0.05003500  1
  Te  Te1  1  0.07002900  0.21641500  0.55003500  1
  Te  Te2  1  0.57002900  0.78358500  0.94996500  1
  Te  Te3  1  0.92997100  0.78358500  0.44996500  1
  Te  Te4  1  0.28617100  0.44909900  0.81137200  1
  Te  Te5  1  0.21382900  0.44909900  0.31137200  1
  Te  Te6  1  0.71382900  0.55090100  0.18862800  1
  Te  Te7  1  0.78617100  0.55090100  0.68862800  1
  Te  Te8  1  0.19593600  0.63239800  0.44929900  1
  Te  Te9  1  0.30406400  0.63239800  0.94929900  1
  Te  Te10  1  0.80406400  0.36760200  0.55070100  1
  Te  Te11  1  0.69593600  0.36760200  0.05070100  1
  Te  Te12  1  0.29437200  0.06811700  0.54754500  1
  Te  Te13  1  0.20562800  0.06811700  0.04754500  1
  Te  Te14  1  0.70562800  0.93188300  0.45245500  1
  Te  Te15  1  0.79437200  0.93188300  0.95245500  1
  Te  Te16  1  0.54288000  0.39564600  0.71818600  1
  Te  Te17  1  0.95712000  0.39564600  0.21818600  1
  Te  Te18  1  0.45712000  0.60435400  0.28181400  1
  Te  Te19  1  0.04288000  0.60435400  0.78181400  1
  Te  Te20  1  0.61478000  0.58302600  0.52324300  1
  Te  Te21  1  0.88522000  0.58302600  0.02324300  1
  Te  Te22  1  0.38522000  0.41697400  0.47675700  1
  Te  Te23  1  0.11478000  0.41697400  0.97675700  1
  Te  Te24  1  0.33406800  0.85640300  0.76466700  1
  Te  Te25  1  0.16593200  0.85640300  0.26466700  1
  Te  Te26  1  0.66593200  0.14359700  0.23533300  1
  Te  Te27  1  0.83406800  0.14359700  0.73533300  1
  Te  Te28  1  0.34351100  0.07987000  0.31199300  1
  Te  Te29  1  0.15648900  0.07987000  0.81199300  1
  Te  Te30  1  0.65648900  0.92013000  0.68800700  1
  Te  Te31  1  0.84351100  0.92013000  0.18800700  1
  Te  Te32  1  0.42424500  0.85267300  0.31062400  1
  Te  Te33  1  0.07575500  0.85267300  0.81062400  1
  Te  Te34  1  0.57575500  0.14732700  0.68937600  1
  Te  Te35  1  0.92424500  0.14732700  0.18937600  1
  Te  Te36  1  0.16715600  0.83758700  0.63646200  1
  Te  Te37  1  0.33284400  0.83758700  0.13646200  1
  Te  Te38  1  0.83284400  0.16241300  0.36353800  1
  Te  Te39  1  0.66715600  0.16241300  0.86353800  1
  Te  Te40  1  0.28011200  0.30607700  0.63315900  1
  Te  Te41  1  0.21988800  0.30607700  0.13315900  1
  Te  Te42  1  0.71988800  0.69392300  0.36684100  1
  Te  Te43  1  0.78011200  0.69392300  0.86684100  1
loop_
_geom_bond_atom_site_label_1
_geom_bond_atom_site_label_2
_geom_bond_distance
_geom_bond_site_symmetry_2
Cs0 Te16 3.985006 1_555
Cs0 Te8 4.000549 1_555
Cs0 Te32 4.043971 1_555
Cs0 Te28 4.050062 1_565
Cs0 Te12 4.056304 1_565
Cs0 Te4 4.072399 1_555
Cs0 Te40 4.193133 1_555
Cs0 Te36 4.226809 1_555
Cs0 Te20 4.273263 1_555
Cs0 Te22 4.402874 1_555
Cs1 Te17 3.985006 1_455
Cs1 Te9 4.000549 1_554
Cs1 Te33 4.043971 1_554
Cs1 Te29 4.050062 1_564
Cs1 Te13 4.056304 1_565
Cs1 Te5 4.072399 1_555
Cs1 Te41 4.193133 1_555
Cs1 Te37 4.226809 1_555
Cs1 Te21 4.273263 1_455
Cs1 Te23 4.402874 1_554
Cs2 Te18 3.985006 1_555
Cs2 Te10 4.000549 1_555
Cs2 Te34 4.043971 1_555
Cs2 Te30 4.050062 1_545
Cs2 Te14 4.056304 1_545
Cs2 Te6 4.072399 1_555
Cs2 Te42 4.193133 1_555
Cs2 Te38 4.226809 1_555
Cs2 Te22 4.273263 1_555
Cs2 Te20 4.402874 1_555
Cs3 Te19 3.985006 1_655
Cs3 Te11 4.000549 1_556
Cs3 Te35 4.043971 1_556
Cs3 Te31 4.050062 1_546
Cs3 Te15 4.056304 1_545
Cs3 Te7 4.072399 1_555
Cs3 Te43 4.193133 1_555
Cs3 Te39 4.226809 1_555
Cs3 Te23 4.273263 1_655
Cs3 Te21 4.402874 1_556
Cs4 Te0 3.830483 1_556
Cs4 Te30 3.850745 1_555
Cs4 Te2 3.883196 1_555
Cs4 Te16 3.910226 1_555
Cs4 Te11 4.073482 1_556
Cs4 Te24 4.080647 1_555
Cs4 Te4 4.313312 1_555
Cs4 Te9 4.321095 1_555
Cs4 Te43 4.367085 1_555
Cs5 Te1 3.830483 1_655
Cs5 Te31 3.850745 1_555
Cs5 Te3 3.883196 1_555
Cs5 Te17 3.910226 1_555
Cs5 Te10 4.073482 1_555
Cs5 Te25 4.080647 1_655
Cs5 Te5 4.313312 1_655
Cs5 Te8 4.321095 1_655
Cs5 Te42 4.367085 1_555
Cs6 Te2 3.830483 1_554
Cs6 Te28 3.850745 1_555
Cs6 Te0 3.883196 1_555
Cs6 Te18 3.910226 1_555
Cs6 Te9 4.073482 1_554
Cs6 Te26 4.080647 1_555
Cs6 Te6 4.313312 1_555
Cs6 Te11 4.321095 1_555
Cs6 Te41 4.367085 1_555
Cs7 Te3 3.830483 1_455
Cs7 Te29 3.850745 1_555
Cs7 Te1 3.883196 1_555
Cs7 Te19 3.910226 1_555
Cs7 Te8 4.073482 1_555
Cs7 Te27 4.080647 1_455
Cs7 Te7 4.313312 1_455
Cs7 Te10 4.321095 1_455
Cs7 Te40 4.367085 1_555
Cs8 Te17 3.934470 1_455
Cs8 Te28 3.934500 1_555
Cs8 Te3 3.938395 1_445
Cs8 Te5 3.977747 1_555
Cs8 Te36 4.010850 1_545
Cs8 Te41 4.114546 1_555
Cs8 Te25 4.130436 1_545
Cs8 Te12 4.311528 1_555
Cs8 Te35 4.336788 1_455
Cs8 Te1 4.406693 1_555
Cs8 Te8 4.459983 1_545
Cs9 Te16 3.934470 1_555
Cs9 Te29 3.934500 1_555
Cs9 Te2 3.938395 1_545
Cs9 Te4 3.977747 1_555
Cs9 Te37 4.010850 1_546
Cs9 Te40 4.114546 1_555
Cs9 Te24 4.130436 1_545
Cs9 Te13 4.311528 1_556
Cs9 Te34 4.336788 1_555
Cs9 Te0 4.406693 1_556
Cs9 Te9 4.459983 1_545
Cs10 Te19 3.934470 1_655
Cs10 Te30 3.934500 1_555
Cs10 Te1 3.938395 1_665
Cs10 Te7 3.977747 1_555
Cs10 Te38 4.010850 1_565
Cs10 Te43 4.114546 1_555
Cs10 Te27 4.130436 1_565
Cs10 Te14 4.311528 1_555
Cs10 Te33 4.336788 1_655
Cs10 Te3 4.406693 1_555
Cs10 Te10 4.459983 1_565
Cs11 Te18 3.934470 1_555
Cs11 Te31 3.934500 1_555
Cs11 Te0 3.938395 1_565
Cs11 Te6 3.977747 1_555
Cs11 Te39 4.010850 1_564
Cs11 Te42 4.114546 1_555
Cs11 Te26 4.130436 1_565
Cs11 Te15 4.311528 1_554
Cs11 Te32 4.336788 1_555
Cs11 Te2 4.406693 1_554
Cs11 Te11 4.459983 1_565
Te0 Ti8 2.657009 1_554
Te0 Ti4 2.790242 1_555
Te1 Ti9 2.657009 1_555
Te1 Ti5 2.790242 1_555
Te2 Ti10 2.657009 1_556
Te2 Ti6 2.790242 1_555
Te3 Ti11 2.657009 1_555
Te3 Ti7 2.790242 1_555
Te4 Ti8 2.670226 1_555
Te4 Ti0 2.742857 1_555
Te5 Ti9 2.670226 1_555
Te5 Ti1 2.742857 1_555
Te6 Ti10 2.670226 1_555
Te6 Ti2 2.742857 1_555
Te7 Ti11 2.670226 1_555
Te7 Ti3 2.742857 1_555
Te8 Ti1 2.787139 1_555
Te8 Ti9 2.936782 1_555
Te9 Ti0 2.787139 1_555
Te9 Ti8 2.936782 1_555
Te10 Ti3 2.787139 1_555
Te10 Ti11 2.936782 1_555
Te11 Ti2 2.787139 1_555
Te11 Ti10 2.936782 1_555
Te12 Ti9 2.824014 1_555
Te12 Ti5 2.859185 1_555
Te13 Ti8 2.824014 1_554
Te13 Ti4 2.859185 1_555
Te14 Ti11 2.824014 1_555
Te14 Ti7 2.859185 1_555
Te15 Ti10 2.824014 1_556
Te15 Ti6 2.859185 1_555
Te16 Ti3 2.823877 1_555
Te16 Te39 3.138681 1_555
Te16 Te34 3.157308 1_555
Te16 Te20 3.171384 1_555
Te17 Ti2 2.823877 1_555
Te17 Te38 3.138681 1_555
Te17 Te35 3.157308 1_555
Te17 Te21 3.171384 1_555
Te18 Ti1 2.823877 1_555
Te18 Te37 3.138681 1_555
Te18 Te32 3.157308 1_555
Te18 Te22 3.171384 1_555
Te19 Ti0 2.823877 1_555
Te19 Te36 3.138681 1_555
Te19 Te33 3.157308 1_555
Te19 Te23 3.171384 1_555
Te20 Ti11 2.829521 1_555
Te20 Ti3 2.894398 1_555
Te21 Ti10 2.829521 1_555
Te21 Ti2 2.894398 1_555
Te22 Ti9 2.829521 1_555
Te22 Ti1 2.894398 1_555
Te23 Ti8 2.829521 1_555
Te23 Ti0 2.894398 1_555
Te24 Ti0 2.810046 1_555
Te24 Ti5 2.900339 1_565
Te25 Ti1 2.810046 1_555
Te25 Ti4 2.900339 1_565
Te26 Ti2 2.810046 1_555
Te26 Ti7 2.900339 1_545
Te27 Ti3 2.810046 1_555
Te27 Ti6 2.900339 1_545
Te28 Ti4 2.791883 1_555
Te28 Te32 2.858247 1_545
Te29 Ti5 2.791883 1_555
Te29 Te33 2.858247 1_545
Te30 Ti6 2.791883 1_555
Te30 Te34 2.858247 1_565
Te31 Ti7 2.791883 1_555
Te31 Te35 2.858247 1_565
Te32 Ti4 2.805925 1_565
Te32 Ti1 2.937428 1_555
Te33 Ti5 2.805925 1_565
Te33 Ti0 2.937428 1_555
Te34 Ti6 2.805925 1_545
Te34 Ti3 2.937428 1_555
Te35 Ti7 2.805925 1_545
Te35 Ti2 2.937428 1_555
Te36 Ti0 2.863177 1_555
Te36 Ti5 2.874163 1_565
Te37 Ti1 2.863177 1_555
Te37 Ti4 2.874163 1_565
Te38 Ti2 2.863177 1_555
Te38 Ti7 2.874163 1_545
Te39 Ti3 2.863177 1_555
Te39 Ti6 2.874163 1_545
Te40 Ti9 2.810307 1_555
Te40 Ti5 2.889357 1_555
Te41 Ti8 2.810307 1_554
Te41 Ti4 2.889357 1_555
Te42 Ti11 2.810307 1_555
Te42 Ti7 2.889357 1_555
Te43 Ti10 2.810307 1_556
Te43 Ti6 2.889357 1_555
