# generated using pymatgen
data_Ho2MgAg2(WO4)4
_symmetry_space_group_name_H-M   'P 1'
_cell_length_a   7.26342964
_cell_length_b   7.90163881
_cell_length_c   7.78896166
_cell_angle_alpha   98.57088081
_cell_angle_beta   115.29264261
_cell_angle_gamma   114.87678261
_symmetry_Int_Tables_number   1
_chemical_formula_structural   Ho2MgAg2(WO4)4
_chemical_formula_sum   'Ho2 Mg1 Ag2 W4 O16'
_cell_volume   335.93529061
_cell_formula_units_Z   1
loop_
 _symmetry_equiv_pos_site_id
 _symmetry_equiv_pos_as_xyz
  1  'x, y, z'
loop_
 _atom_site_type_symbol
 _atom_site_label
 _atom_site_symmetry_multiplicity
 _atom_site_fract_x
 _atom_site_fract_y
 _atom_site_fract_z
 _atom_site_occupancy
  Ho  Ho0  1  0.98196300  0.72242500  0.26653100  1
  Ho  Ho1  1  0.01310300  0.27235100  0.75135300  1
  Mg  Mg0  1  0.45348300  0.57983100  0.32413500  1
  Ag  Ag0  1  0.51011900  0.63845100  0.77877100  1
  Ag  Ag1  1  0.48174500  0.21627800  0.36503000  1
  W  W0  1  0.99610300  0.22897200  0.23585000  1
  W  W1  1  0.99014100  0.77119200  0.75747800  1
  W  W2  1  0.49029800  0.86835200  0.13360000  1
  W  W3  1  0.49815500  0.14933500  0.84339600  1
  O  O0  1  0.78180000  0.36164100  0.11329900  1
  O  O1  1  0.19021600  0.63488800  0.85239900  1
  O  O2  1  0.20283600  0.88168900  0.62629300  1
  O  O3  1  0.80475300  0.13877100  0.38098200  1
  O  O4  1  0.64086100  0.70913600  0.19174900  1
  O  O5  1  0.34935700  0.28972000  0.79137200  1
  O  O6  1  0.34817700  0.79906800  0.28312200  1
  O  O7  1  0.64914700  0.19610900  0.70305300  1
  O  O8  1  0.89355800  0.69709300  0.93365100  1
  O  O9  1  0.14662100  0.32622600  0.07660100  1
  O  O10  1  0.08964200  0.04457600  0.28325800  1
  O  O11  1  0.88832700  0.94481300  0.70367400  1
  O  O12  1  0.64935800  0.98757900  0.97461000  1
  O  O13  1  0.32743600  0.02066600  0.00044700  1
  O  O14  1  0.74932000  0.55753600  0.49752000  1
  O  O15  1  0.24385500  0.49901500  0.44432700  1
loop_
_geom_bond_atom_site_label_1
_geom_bond_atom_site_label_2
_geom_bond_distance
_geom_bond_site_symmetry_2
Ho0 O4 2.240184 1_555
Ho0 O10 2.290725 1_665
Ho0 O2 2.327788 1_655
Ho0 O8 2.342967 1_554
Ho0 O0 2.383540 1_555
Ho0 O6 2.405524 1_655
Ho1 O9 2.184365 1_556
Ho1 O11 2.260528 1_445
Ho1 O5 2.266236 1_555
Ho1 O7 2.288156 1_455
Ho1 O3 2.396768 1_455
Ho1 O1 2.417200 1_555
Mg0 O9 2.029632 1_555
Mg0 O15 2.044681 1_555
Mg0 O4 2.074318 1_555
Mg0 O14 2.093302 1_555
Mg0 O6 2.181519 1_555
Ag0 O15 2.187924 1_555
Ag0 O8 2.302915 1_555
Ag0 O12 2.457670 1_555
Ag0 O5 2.537244 1_555
Ag0 O1 2.610972 1_555
Ag1 O14 2.271764 1_555
Ag1 O10 2.301975 1_555
Ag1 O7 2.447113 1_555
Ag1 O13 2.494764 1_555
Ag1 O3 2.622477 1_555
O0 W3 1.954076 1_554
O0 W0 2.198757 1_555
O1 W2 2.069934 1_556
O1 W1 2.110587 1_455
O2 W3 1.987761 1_565
O2 W1 2.161715 1_455
O3 W2 2.097956 1_545
O3 W0 2.113478 1_555
O4 W2 1.971794 1_555
O5 W3 1.825157 1_555
O6 W2 1.861053 1_555
O7 W3 1.827050 1_555
O8 W1 1.853200 1_555
O9 W0 2.015035 1_455
O10 W0 1.870761 1_455
O11 W1 1.834316 1_555
O12 W2 2.100092 1_556
O12 W3 2.120277 1_565
O12 W0 2.131699 1_566
O13 W1 2.081481 1_444
O13 W2 2.108313 1_545
O13 W3 2.161899 1_554
O14 W1 1.865436 1_555
O15 W0 1.915176 1_455
