# generated using pymatgen
data_TiCu4
_symmetry_space_group_name_H-M   'P 1'
_cell_length_a   4.29938597
_cell_length_b   4.46834040
_cell_length_c   12.83888075
_cell_angle_alpha   90.00000000
_cell_angle_beta   90.00000000
_cell_angle_gamma   90.00000000
_symmetry_Int_Tables_number   1
_chemical_formula_structural   TiCu4
_chemical_formula_sum   'Ti4 Cu16'
_cell_volume   246.64927907
_cell_formula_units_Z   4
loop_
 _symmetry_equiv_pos_site_id
 _symmetry_equiv_pos_as_xyz
  1  'x, y, z'
loop_
 _atom_site_type_symbol
 _atom_site_label
 _atom_site_symmetry_multiplicity
 _atom_site_fract_x
 _atom_site_fract_y
 _atom_site_fract_z
 _atom_site_occupancy
  Ti  Ti0  1  0.75000000  0.34330619  0.90296866  1
  Ti  Ti1  1  0.75000000  0.84330619  0.59703134  1
  Ti  Ti2  1  0.25000000  0.65669381  0.09703134  1
  Ti  Ti3  1  0.25000000  0.15669381  0.40296866  1
  Cu  Cu0  1  0.75000000  0.33844507  0.49729666  1
  Cu  Cu1  1  0.75000000  0.83844507  0.00270334  1
  Cu  Cu2  1  0.25000000  0.66155493  0.50270334  1
  Cu  Cu3  1  0.25000000  0.16155493  0.99729666  1
  Cu  Cu4  1  0.75000000  0.34249306  0.70057434  1
  Cu  Cu5  1  0.75000000  0.84249306  0.79942566  1
  Cu  Cu6  1  0.25000000  0.65750694  0.29942566  1
  Cu  Cu7  1  0.25000000  0.15750694  0.20057434  1
  Cu  Cu8  1  0.75000000  0.32132567  0.10475141  1
  Cu  Cu9  1  0.75000000  0.82132567  0.39524859  1
  Cu  Cu10  1  0.25000000  0.67867433  0.89524859  1
  Cu  Cu11  1  0.25000000  0.17867433  0.60475141  1
  Cu  Cu12  1  0.75000000  0.32638297  0.29776672  1
  Cu  Cu13  1  0.75000000  0.82638297  0.20223328  1
  Cu  Cu14  1  0.25000000  0.67361703  0.70223328  1
  Cu  Cu15  1  0.25000000  0.17361703  0.79776672  1
loop_
_geom_bond_atom_site_label_1
_geom_bond_atom_site_label_2
_geom_bond_distance
_geom_bond_site_symmetry_2
Cu0 Cu9 2.524310 1_555
Cu0 Ti1 2.556279 1_545
Cu0 Cu12 2.562308 1_555
Cu0 Cu2 2.590455 1_655
Cu0 Cu2 2.590455 1_555
Cu0 Ti1 2.593970 1_555
Cu0 Ti3 2.597578 1_555
Cu0 Ti3 2.597578 1_655
Cu0 Cu4 2.609921 1_555
Cu0 Cu11 2.652195 1_655
Cu0 Cu11 2.652195 1_555
Cu0 Cu9 2.656267 1_545
Cu1 Cu8 2.524310 1_565
Cu1 Ti0 2.556279 1_554
Cu1 Cu13 2.562308 1_555
Cu1 Cu3 2.590455 1_564
Cu1 Cu3 2.590455 1_664
Cu1 Ti0 2.593970 1_564
Cu1 Ti2 2.597578 1_655
Cu1 Ti2 2.597578 1_555
Cu1 Cu5 2.609921 1_554
Cu1 Cu10 2.652195 1_554
Cu1 Cu10 2.652195 1_654
Cu1 Cu8 2.656267 1_555
Cu2 Ti3 2.556279 1_565
Cu2 Ti3 2.593970 1_555
Cu2 Ti1 2.597578 1_455
Cu2 Ti1 2.597578 1_555
Cu2 Cu6 2.609921 1_555
Cu2 Cu9 2.652195 1_555
Cu2 Cu9 2.652195 1_455
Cu3 Ti2 2.556279 1_556
Cu3 Ti2 2.593970 1_546
Cu3 Ti0 2.597578 1_555
Cu3 Ti0 2.597578 1_455
Cu3 Cu7 2.609921 1_556
Cu3 Cu8 2.652195 1_556
Cu3 Cu8 2.652195 1_456
Cu4 Cu5 2.569481 1_545
Cu4 Cu5 2.569481 1_555
Cu4 Ti1 2.596639 1_545
Cu4 Ti0 2.598519 1_555
Cu4 Ti1 2.602884 1_555
Cu5 Ti0 2.596639 1_555
Cu5 Ti1 2.598519 1_555
Cu5 Ti0 2.602884 1_565
Cu6 Cu7 2.569481 1_555
Cu6 Cu7 2.569481 1_565
Cu6 Cu9 2.582739 1_455
Cu6 Cu9 2.582739 1_555
Cu6 Ti3 2.596639 1_565
Cu6 Ti2 2.598519 1_555
Cu6 Ti3 2.602884 1_555
Cu7 Cu8 2.582739 1_455
Cu7 Cu8 2.582739 1_555
Cu7 Ti2 2.596639 1_555
Cu7 Ti3 2.598519 1_555
Cu7 Ti2 2.602884 1_545
Cu8 Ti0 2.592526 1_554
Cu8 Ti2 2.622332 1_555
Cu8 Ti2 2.622332 1_655
Cu9 Ti1 2.592526 1_555
Cu9 Ti3 2.622332 1_665
Cu9 Ti3 2.622332 1_565
Cu10 Cu14 2.478204 1_555
Cu10 Cu3 2.524310 1_565
Cu10 Cu15 2.541151 1_565
Cu10 Cu15 2.580581 1_555
Cu10 Cu5 2.582739 1_555
Cu10 Cu5 2.582739 1_455
Cu10 Ti2 2.592526 1_556
Cu10 Ti0 2.622332 1_455
Cu10 Ti0 2.622332 1_555
Cu10 Cu3 2.656267 1_555
Cu11 Cu15 2.478204 1_555
Cu11 Cu2 2.524310 1_555
Cu11 Cu14 2.541151 1_555
Cu11 Cu14 2.580581 1_545
Cu11 Cu4 2.582739 1_455
Cu11 Cu4 2.582739 1_555
Cu11 Ti3 2.592526 1_555
Cu11 Ti1 2.622332 1_445
Cu11 Ti1 2.622332 1_545
Cu11 Cu2 2.656267 1_545
Cu12 Cu8 2.478204 1_555
Cu12 Cu9 2.541151 1_555
Cu12 Cu13 2.548710 1_545
Cu12 Cu13 2.548710 1_555
Cu12 Cu9 2.580581 1_545
Cu12 Cu7 2.597634 1_555
Cu12 Cu7 2.597634 1_655
Cu12 Cu6 2.609746 1_555
Cu12 Cu6 2.609746 1_655
Cu12 Ti3 2.649606 1_555
Cu12 Ti3 2.649606 1_655
Cu13 Cu9 2.478204 1_555
Cu13 Cu8 2.541151 1_565
Cu13 Cu8 2.580581 1_555
Cu13 Cu6 2.597634 1_655
Cu13 Cu6 2.597634 1_555
Cu13 Cu7 2.609746 1_665
Cu13 Cu7 2.609746 1_565
Cu13 Ti2 2.649606 1_655
Cu13 Ti2 2.649606 1_555
Cu14 Cu15 2.548710 1_555
Cu14 Cu15 2.548710 1_565
Cu14 Cu2 2.562308 1_555
Cu14 Cu5 2.597634 1_455
Cu14 Cu5 2.597634 1_555
Cu14 Cu4 2.609746 1_455
Cu14 Cu4 2.609746 1_555
Cu14 Ti1 2.649606 1_455
Cu14 Ti1 2.649606 1_555
Cu15 Cu3 2.562308 1_555
Cu15 Cu4 2.597634 1_555
Cu15 Cu4 2.597634 1_455
Cu15 Cu5 2.609746 1_445
Cu15 Cu5 2.609746 1_545
Cu15 Ti0 2.649606 1_455
Cu15 Ti0 2.649606 1_555
