# generated using pymatgen
data_Eu3Ag
_symmetry_space_group_name_H-M   'P 1'
_cell_length_a   5.10373800
_cell_length_b   5.10373800
_cell_length_c   5.10373800
_cell_angle_alpha   90.00000000
_cell_angle_beta   90.00000000
_cell_angle_gamma   90.00000000
_symmetry_Int_Tables_number   1
_chemical_formula_structural   Eu3Ag
_chemical_formula_sum   'Eu3 Ag1'
_cell_volume   132.94288997
_cell_formula_units_Z   1
loop_
 _symmetry_equiv_pos_site_id
 _symmetry_equiv_pos_as_xyz
  1  'x, y, z'
loop_
 _atom_site_type_symbol
 _atom_site_label
 _atom_site_symmetry_multiplicity
 _atom_site_fract_x
 _atom_site_fract_y
 _atom_site_fract_z
 _atom_site_occupancy
  Eu  Eu0  1  0.00000000  0.50000000  0.50000000  1
  Eu  Eu1  1  0.50000000  0.00000000  0.50000000  1
  Eu  Eu2  1  0.50000000  0.50000000  0.00000000  1
  Ag  Ag0  1  0.00000000  0.00000000  0.00000000  1
loop_
_geom_bond_atom_site_label_1
_geom_bond_atom_site_label_2
_geom_bond_distance
_geom_bond_site_symmetry_2
Eu0 Eu1 3.608888 1_455
Eu0 Eu2 3.608888 1_456
Eu0 Eu1 3.608888 1_465
Eu0 Eu2 3.608888 1_455
Eu0 Eu1 3.608888 1_555
Eu0 Eu1 3.608888 1_565
Eu0 Eu2 3.608888 1_555
Eu0 Eu2 3.608888 1_556
Eu1 Eu2 3.608888 1_546
Eu1 Eu2 3.608888 1_555
Eu1 Eu2 3.608888 1_545
Eu1 Eu2 3.608888 1_556
Ag0 Eu1 3.608888 1_554
Ag0 Eu1 3.608888 1_455
Ag0 Eu0 3.608888 1_555
Ag0 Eu1 3.608888 1_454
Ag0 Eu0 3.608888 1_545
Ag0 Eu0 3.608888 1_544
Ag0 Eu2 3.608888 1_445
Ag0 Eu2 3.608888 1_455
Ag0 Eu1 3.608888 1_555
Ag0 Eu0 3.608888 1_554
Ag0 Eu2 3.608888 1_555
Ag0 Eu2 3.608888 1_545
