# generated using pymatgen
data_MgB12(H3O)12
_symmetry_space_group_name_H-M   'P 1'
_cell_length_a   11.72755899
_cell_length_b   11.72755899
_cell_length_c   11.72755899
_cell_angle_alpha   60.00000000
_cell_angle_beta   60.00000000
_cell_angle_gamma   60.00000000
_symmetry_Int_Tables_number   1
_chemical_formula_structural   MgB12(H3O)12
_chemical_formula_sum   'Mg2 B24 H72 O24'
_cell_volume   1140.53306620
_cell_formula_units_Z   2
loop_
 _symmetry_equiv_pos_site_id
 _symmetry_equiv_pos_as_xyz
  1  'x, y, z'
loop_
 _atom_site_type_symbol
 _atom_site_label
 _atom_site_symmetry_multiplicity
 _atom_site_fract_x
 _atom_site_fract_y
 _atom_site_fract_z
 _atom_site_occupancy
  Mg  Mg0  1  0.75000000  0.75000000  0.75000000  1
  Mg  Mg1  1  -0.00000000  0.00000000  -0.00000000  1
  B  B0  1  0.39070177  0.21626042  0.10968001  1
  B  B1  1  0.39070177  0.10968001  0.28335780  1
  B  B2  1  0.39070177  0.28335780  0.21626042  1
  B  B3  1  0.35929823  0.64031999  0.53373958  1
  B  B4  1  0.35929823  0.53373958  0.46664220  1
  B  B5  1  0.35929823  0.46664220  0.64031999  1
  B  B6  1  0.10968001  0.28335780  0.39070177  1
  B  B7  1  0.28335780  0.21626042  0.39070177  1
  B  B8  1  0.21626042  0.10968001  0.39070177  1
  B  B9  1  0.53373958  0.46664220  0.35929823  1
  B  B10  1  0.46664220  0.64031999  0.35929823  1
  B  B11  1  0.64031999  0.53373958  0.35929823  1
  B  B12  1  0.21626042  0.39070177  0.28335780  1
  B  B13  1  0.10968001  0.39070177  0.21626042  1
  B  B14  1  0.28335780  0.39070177  0.10968001  1
  B  B15  1  0.64031999  0.35929823  0.46664220  1
  B  B16  1  0.53373958  0.35929823  0.64031999  1
  B  B17  1  0.46664220  0.35929823  0.53373958  1
  B  B18  1  0.28335780  0.10968001  0.21626042  1
  B  B19  1  0.21626042  0.28335780  0.10968001  1
  B  B20  1  0.10968001  0.21626042  0.28335780  1
  B  B21  1  0.46664220  0.53373958  0.64031999  1
  B  B22  1  0.64031999  0.46664220  0.53373958  1
  B  B23  1  0.53373958  0.64031999  0.46664220  1
  H  H0  1  0.61264349  0.85278386  0.97493809  1
  H  H1  1  0.61264349  0.97493809  0.55963457  1
  H  H2  1  0.61264349  0.55963457  0.85278386  1
  H  H3  1  0.13735651  0.77506191  0.89721614  1
  H  H4  1  0.13735651  0.89721614  0.19036543  1
  H  H5  1  0.13735651  0.19036543  0.77506191  1
  H  H6  1  0.97493809  0.55963457  0.61264349  1
  H  H7  1  0.55963457  0.85278386  0.61264349  1
  H  H8  1  0.85278386  0.97493809  0.61264349  1
  H  H9  1  0.89721614  0.19036543  0.13735651  1
  H  H10  1  0.19036543  0.77506191  0.13735651  1
  H  H11  1  0.77506191  0.89721614  0.13735651  1
  H  H12  1  0.85278386  0.61264349  0.55963457  1
  H  H13  1  0.97493809  0.61264349  0.85278386  1
  H  H14  1  0.55963457  0.61264349  0.97493809  1
  H  H15  1  0.77506191  0.13735651  0.19036543  1
  H  H16  1  0.89721614  0.13735651  0.77506191  1
  H  H17  1  0.19036543  0.13735651  0.89721614  1
  H  H18  1  0.55963457  0.97493809  0.85278386  1
  H  H19  1  0.85278386  0.55963457  0.97493809  1
  H  H20  1  0.97493809  0.85278386  0.55963457  1
  H  H21  1  0.19036543  0.89721614  0.77506191  1
  H  H22  1  0.77506191  0.19036543  0.89721614  1
  H  H23  1  0.89721614  0.77506191  0.19036543  1
  H  H24  1  0.35857519  0.65588156  0.02768248  1
  H  H25  1  0.35857519  0.02768248  0.95786077  1
  H  H26  1  0.35857519  0.95786077  0.65588156  1
  H  H27  1  0.39142481  0.72231752  0.09411844  1
  H  H28  1  0.39142481  0.09411844  0.79213923  1
  H  H29  1  0.39142481  0.79213923  0.72231752  1
  H  H30  1  0.02768248  0.95786077  0.35857519  1
  H  H31  1  0.95786077  0.65588156  0.35857519  1
  H  H32  1  0.65588156  0.02768248  0.35857519  1
  H  H33  1  0.09411844  0.79213923  0.39142481  1
  H  H34  1  0.79213923  0.72231752  0.39142481  1
  H  H35  1  0.72231752  0.09411844  0.39142481  1
  H  H36  1  0.65588156  0.35857519  0.95786077  1
  H  H37  1  0.02768248  0.35857519  0.65588156  1
  H  H38  1  0.95786077  0.35857519  0.02768248  1
  H  H39  1  0.72231752  0.39142481  0.79213923  1
  H  H40  1  0.09411844  0.39142481  0.72231752  1
  H  H41  1  0.79213923  0.39142481  0.09411844  1
  H  H42  1  0.95786077  0.02768248  0.65588156  1
  H  H43  1  0.65588156  0.95786077  0.02768248  1
  H  H44  1  0.02768248  0.65588156  0.95786077  1
  H  H45  1  0.79213923  0.09411844  0.72231752  1
  H  H46  1  0.72231752  0.79213923  0.09411844  1
  H  H47  1  0.09411844  0.72231752  0.79213923  1
  H  H48  1  0.49145127  0.19101990  0.01018123  1
  H  H49  1  0.49145127  0.01018123  0.30734760  1
  H  H50  1  0.49145127  0.30734760  0.19101990  1
  H  H51  1  0.25854873  0.73981877  0.55898010  1
  H  H52  1  0.25854873  0.55898010  0.44265240  1
  H  H53  1  0.25854873  0.44265240  0.73981877  1
  H  H54  1  0.01018123  0.30734760  0.49145127  1
  H  H55  1  0.30734760  0.19101990  0.49145127  1
  H  H56  1  0.19101990  0.01018123  0.49145127  1
  H  H57  1  0.55898010  0.44265240  0.25854873  1
  H  H58  1  0.44265240  0.73981877  0.25854873  1
  H  H59  1  0.73981877  0.55898010  0.25854873  1
  H  H60  1  0.19101990  0.49145127  0.30734760  1
  H  H61  1  0.01018123  0.49145127  0.19101990  1
  H  H62  1  0.30734760  0.49145127  0.01018123  1
  H  H63  1  0.73981877  0.25854873  0.44265240  1
  H  H64  1  0.55898010  0.25854873  0.73981877  1
  H  H65  1  0.44265240  0.25854873  0.55898010  1
  H  H66  1  0.30734760  0.01018123  0.19101990  1
  H  H67  1  0.19101990  0.30734760  0.01018123  1
  H  H68  1  0.01018123  0.19101990  0.30734760  1
  H  H69  1  0.44265240  0.55898010  0.73981877  1
  H  H70  1  0.73981877  0.44265240  0.55898010  1
  H  H71  1  0.55898010  0.73981877  0.44265240  1
  O  O0  1  0.62287914  0.87712086  0.87712086  1
  O  O1  1  0.62287914  0.87712086  0.62287914  1
  O  O2  1  0.62287914  0.62287914  0.87712086  1
  O  O3  1  0.12712086  0.87287914  0.87287914  1
  O  O4  1  0.12712086  0.87287914  0.12712086  1
  O  O5  1  0.12712086  0.12712086  0.87287914  1
  O  O6  1  0.87712086  0.62287914  0.62287914  1
  O  O7  1  0.87712086  0.87712086  0.62287914  1
  O  O8  1  0.87287914  0.12712086  0.12712086  1
  O  O9  1  0.87287914  0.87287914  0.12712086  1
  O  O10  1  0.87712086  0.62287914  0.87712086  1
  O  O11  1  0.87287914  0.12712086  0.87287914  1
  O  O12  1  0.37500000  0.64193037  0.10806963  1
  O  O13  1  0.37500000  0.10806963  0.87500000  1
  O  O14  1  0.37500000  0.87500000  0.64193037  1
  O  O15  1  0.10806963  0.87500000  0.37500000  1
  O  O16  1  0.87500000  0.64193037  0.37500000  1
  O  O17  1  0.64193037  0.10806963  0.37500000  1
  O  O18  1  0.64193037  0.37500000  0.87500000  1
  O  O19  1  0.10806963  0.37500000  0.64193037  1
  O  O20  1  0.87500000  0.37500000  0.10806963  1
  O  O21  1  0.87500000  0.10806963  0.64193037  1
  O  O22  1  0.64193037  0.87500000  0.10806963  1
  O  O23  1  0.10806963  0.64193037  0.87500000  1
loop_
_geom_bond_atom_site_label_1
_geom_bond_atom_site_label_2
_geom_bond_distance
_geom_bond_site_symmetry_2
Mg0 O6 2.108334 1_555
Mg0 O10 2.108334 1_555
Mg0 O0 2.108334 1_555
Mg0 O7 2.108334 1_555
Mg0 O1 2.108334 1_555
Mg0 O2 2.108334 1_555
Mg1 O9 2.108334 1_445
Mg1 O11 2.108334 1_454
Mg1 O8 2.108334 1_455
Mg1 O4 2.108334 1_545
Mg1 O3 2.108334 1_544
Mg1 O5 2.108334 1_554
B0 H48 1.209221 1_555
B1 H49 1.209221 1_555
B2 H50 1.209221 1_555
B3 H51 1.209221 1_555
B4 H52 1.209221 1_555
B5 H53 1.209221 1_555
B6 H54 1.209221 1_555
B7 H55 1.209221 1_555
B8 H56 1.209221 1_555
B9 H57 1.209221 1_555
B10 H58 1.209221 1_555
B11 H59 1.209221 1_555
B12 H60 1.209221 1_555
B13 H61 1.209221 1_555
B14 H62 1.209221 1_555
B15 H63 1.209221 1_555
B16 H64 1.209221 1_555
B17 H65 1.209221 1_555
B18 H66 1.209221 1_555
B19 H67 1.209221 1_555
B20 H68 1.209221 1_555
B21 H69 1.209221 1_555
B22 H70 1.209221 1_555
B23 H71 1.209221 1_555
H0 O0 0.990446 1_555
H1 O1 0.990446 1_555
H2 O2 0.990446 1_555
H3 O3 0.990446 1_555
H4 O4 0.990446 1_555
H5 O5 0.990446 1_555
H6 O6 0.990446 1_555
H7 O1 0.990446 1_555
H8 O7 0.990446 1_555
H9 O8 0.990446 1_555
H10 O4 0.990446 1_555
H11 O9 0.990446 1_555
H12 O6 0.990446 1_555
H13 O10 0.990446 1_555
H14 O2 0.990446 1_555
H15 O8 0.990446 1_555
H16 O11 0.990446 1_555
H17 O5 0.990446 1_555
H18 O0 0.990446 1_555
H19 O10 0.990446 1_555
H20 O7 0.990446 1_555
H21 O3 0.990446 1_555
H22 O11 0.990446 1_555
H23 O9 0.990446 1_555
H24 O12 0.973896 1_555
H25 O13 0.973896 1_555
H26 O14 0.973896 1_555
H27 O12 0.973896 1_555
H28 O13 0.973896 1_555
H29 O14 0.973896 1_555
H30 O15 0.973896 1_555
H31 O16 0.973896 1_555
H32 O17 0.973896 1_555
H33 O15 0.973896 1_555
H34 O16 0.973896 1_555
H35 O17 0.973896 1_555
H36 O18 0.973896 1_555
H37 O19 0.973896 1_555
H38 O20 0.973896 1_555
H39 O18 0.973896 1_555
H40 O19 0.973896 1_555
H41 O20 0.973896 1_555
H42 O21 0.973896 1_555
H43 O22 0.973896 1_555
H44 O23 0.973896 1_555
H45 O21 0.973896 1_555
H46 O22 0.973896 1_555
H47 O23 0.973896 1_555
