# generated using pymatgen
data_CrMo
_symmetry_space_group_name_H-M   'P 1'
_cell_length_a   5.30890166
_cell_length_b   5.30890166
_cell_length_c   8.44124842
_cell_angle_alpha   90.00000000
_cell_angle_beta   90.00000000
_cell_angle_gamma   109.92912634
_symmetry_Int_Tables_number   1
_chemical_formula_structural   CrMo
_chemical_formula_sum   'Cr8 Mo8'
_cell_volume   223.66447683
_cell_formula_units_Z   8
loop_
 _symmetry_equiv_pos_site_id
 _symmetry_equiv_pos_as_xyz
  1  'x, y, z'
loop_
 _atom_site_type_symbol
 _atom_site_label
 _atom_site_symmetry_multiplicity
 _atom_site_fract_x
 _atom_site_fract_y
 _atom_site_fract_z
 _atom_site_occupancy
  Cr  Cr0_0  1  0.00000000  0.00000000  0.00000000  1
  Cr  Cr0_1  1  0.00000000  0.00000000  0.50000000  1
  Cr  Cr0_2  1  0.00000000  0.50000000  0.00000000  1
  Cr  Cr0_3  1  0.00000000  0.50000000  0.50000000  1
  Cr  Cr0_4  1  0.50000000  0.00000000  0.00000000  1
  Cr  Cr0_5  1  0.50000000  0.00000000  0.50000000  1
  Cr  Cr0_6  1  0.50000000  0.50000000  0.00000000  1
  Cr  Cr0_7  1  0.50000000  0.50000000  0.50000000  1
  Mo  Mo0_0  1  0.25000000  0.25000000  0.25000000  1
  Mo  Mo0_1  1  0.25000000  0.25000000  0.75000000  1
  Mo  Mo0_2  1  0.25000000  0.75000000  0.25000000  1
  Mo  Mo0_3  1  0.25000000  0.75000000  0.75000000  1
  Mo  Mo0_4  1  0.75000000  0.25000000  0.25000000  1
  Mo  Mo0_5  1  0.75000000  0.25000000  0.75000000  1
  Mo  Mo0_6  1  0.75000000  0.75000000  0.25000000  1
  Mo  Mo0_7  1  0.75000000  0.75000000  0.75000000  1
loop_
_geom_bond_atom_site_label_1
_geom_bond_atom_site_label_2
_geom_bond_distance
_geom_bond_site_symmetry_2
Cr0_0 Mo0_6 2.603001 1_445
Cr0_0 Mo0_7 2.603001 1_444
Cr0_0 Mo0_1 2.603001 1_554
Cr0_0 Mo0_0 2.603001 1_555
Cr0_0 Cr0_2 2.654451 1_555
Cr0_0 Cr0_2 2.654451 1_545
Cr0_0 Cr0_4 2.654451 1_455
Cr0_0 Cr0_4 2.654451 1_555
Cr0_1 Mo0_6 2.603001 1_445
Cr0_1 Mo0_0 2.603001 1_555
Cr0_1 Mo0_1 2.603001 1_555
Cr0_1 Mo0_7 2.603001 1_445
Cr0_1 Cr0_3 2.654451 1_555
Cr0_1 Cr0_5 2.654451 1_455
Cr0_1 Cr0_3 2.654451 1_545
Cr0_1 Cr0_5 2.654451 1_555
Cr0_2 Mo0_2 2.603001 1_555
Cr0_2 Mo0_3 2.603001 1_554
Cr0_2 Mo0_5 2.603001 1_454
Cr0_2 Mo0_4 2.603001 1_455
Cr0_2 Cr0_6 2.654451 1_455
Cr0_2 Cr0_6 2.654451 1_555
Cr0_3 Mo0_2 2.603001 1_555
Cr0_3 Mo0_4 2.603001 1_455
Cr0_3 Mo0_5 2.603001 1_455
Cr0_3 Mo0_3 2.603001 1_555
Cr0_3 Cr0_7 2.654451 1_455
Cr0_3 Cr0_7 2.654451 1_555
Cr0_4 Mo0_5 2.603001 1_554
Cr0_4 Mo0_4 2.603001 1_555
Cr0_4 Mo0_2 2.603001 1_545
Cr0_4 Mo0_3 2.603001 1_544
Cr0_4 Cr0_6 2.654451 1_545
Cr0_4 Cr0_6 2.654451 1_555
Cr0_5 Mo0_4 2.603001 1_555
Cr0_5 Mo0_3 2.603001 1_545
Cr0_5 Mo0_2 2.603001 1_545
Cr0_5 Mo0_5 2.603001 1_555
Cr0_5 Cr0_7 2.654451 1_545
Cr0_5 Cr0_7 2.654451 1_555
Cr0_6 Mo0_0 2.603001 1_555
Cr0_6 Mo0_1 2.603001 1_554
Cr0_6 Mo0_6 2.603001 1_555
Cr0_6 Mo0_7 2.603001 1_554
Cr0_7 Mo0_1 2.603001 1_555
Cr0_7 Mo0_0 2.603001 1_555
Cr0_7 Mo0_6 2.603001 1_555
Cr0_7 Mo0_7 2.603001 1_555
Mo0_0 Mo0_2 2.654451 1_555
Mo0_0 Mo0_4 2.654451 1_555
Mo0_0 Mo0_4 2.654451 1_455
Mo0_0 Mo0_2 2.654451 1_545
Mo0_1 Mo0_3 2.654451 1_555
Mo0_1 Mo0_5 2.654451 1_555
Mo0_1 Mo0_3 2.654451 1_545
Mo0_1 Mo0_5 2.654451 1_455
Mo0_2 Mo0_6 2.654451 1_455
Mo0_2 Mo0_6 2.654451 1_555
Mo0_3 Mo0_7 2.654451 1_555
Mo0_3 Mo0_7 2.654451 1_455
Mo0_4 Mo0_6 2.654451 1_545
Mo0_4 Mo0_6 2.654451 1_555
Mo0_5 Mo0_7 2.654451 1_545
Mo0_5 Mo0_7 2.654451 1_555
