# generated using pymatgen
data_Zn2Bi2O5
_symmetry_space_group_name_H-M   'P 1'
_cell_length_a   3.53118600
_cell_length_b   7.06145082
_cell_length_c   12.47001218
_cell_angle_alpha   92.18127064
_cell_angle_beta   92.33878362
_cell_angle_gamma   90.46725931
_symmetry_Int_Tables_number   1
_chemical_formula_structural   Zn2Bi2O5
_chemical_formula_sum   'Zn4 Bi4 O10'
_cell_volume   310.44463752
_cell_formula_units_Z   2
loop_
 _symmetry_equiv_pos_site_id
 _symmetry_equiv_pos_as_xyz
  1  'x, y, z'
loop_
 _atom_site_type_symbol
 _atom_site_label
 _atom_site_symmetry_multiplicity
 _atom_site_fract_x
 _atom_site_fract_y
 _atom_site_fract_z
 _atom_site_occupancy
  Zn  Zn0  1  0.50026600  0.37519700  0.09375300  1
  Zn  Zn1  1  0.48951300  0.61637800  0.88353000  1
  Zn  Zn2  1  0.48853300  0.87800200  0.38655500  1
  Zn  Zn3  1  0.51221500  0.11932800  0.60211900  1
  Bi  Bi0  1  0.98864800  0.31877600  0.37682200  1
  Bi  Bi1  1  0.01274000  0.72651000  0.63089700  1
  Bi  Bi2  1  0.98361900  0.11691800  0.88996900  1
  Bi  Bi3  1  0.01447300  0.77224600  0.13611400  1
  O  O0  1  0.00318600  0.48158100  0.51633600  1
  O  O1  1  0.02173800  0.07341700  0.66494500  1
  O  O2  1  0.98164800  0.69622400  0.83155600  1
  O  O3  1  0.01187800  0.43538000  0.16331500  1
  O  O4  1  0.48671900  0.31260000  0.92284500  1
  O  O5  1  0.50774400  0.66671100  0.04291000  1
  O  O6  1  0.97749200  0.86314100  0.32372600  1
  O  O7  1  0.49255300  0.16836800  0.43962800  1
  O  O8  1  0.01950900  0.05053600  0.04986500  1
  O  O9  1  0.50751900  0.82868800  0.54511400  1
loop_
_geom_bond_atom_site_label_1
_geom_bond_atom_site_label_2
_geom_bond_distance
_geom_bond_site_symmetry_2
Bi0 O0 2.047072 1_655
Bi0 O7 2.210893 1_655
Bi0 O7 2.226030 1_555
Bi0 O3 2.820792 1_655
Bi1 O9 2.184408 1_455
Bi1 O0 2.200082 1_555
Bi1 O9 2.215440 1_555
Bi1 O1 2.469939 1_565
Bi1 O2 2.526197 1_455
Bi2 O8 2.064689 1_656
Bi2 O4 2.256309 1_655
Bi2 O4 2.282839 1_555
Bi2 O1 2.819981 1_655
Bi3 O5 2.202402 1_455
Bi3 O5 2.249589 1_555
Bi3 O8 2.276113 1_565
Bi3 O6 2.411305 1_455
Bi3 O3 2.415568 1_555
O1 Zn3 1.959467 1_555
O1 Zn3 1.967202 1_455
O2 Zn1 1.965130 1_555
O2 Zn1 1.975744 1_655
O3 Zn0 2.003310 1_555
O3 Zn0 2.007079 1_455
O4 Zn0 2.158568 1_556
O4 Zn1 2.218573 1_555
O5 Zn1 2.003976 1_554
O5 Zn0 2.177147 1_555
O6 Zn2 1.926946 1_555
O6 Zn2 1.938201 1_655
O7 Zn3 2.067078 1_555
O7 Zn2 2.130218 1_545
O9 Zn2 2.019203 1_555
O9 Zn3 2.145953 1_565
