# generated using pymatgen
data_DyN3O10
_symmetry_space_group_name_H-M   'P 1'
_cell_length_a   7.48580900
_cell_length_b   8.08214106
_cell_length_c   8.23270612
_cell_angle_alpha   63.87971420
_cell_angle_beta   70.67938016
_cell_angle_gamma   62.80658293
_symmetry_Int_Tables_number   1
_chemical_formula_structural   DyN3O10
_chemical_formula_sum   'Dy2 N6 O20'
_cell_volume   392.51161984
_cell_formula_units_Z   2
loop_
 _symmetry_equiv_pos_site_id
 _symmetry_equiv_pos_as_xyz
  1  'x, y, z'
loop_
 _atom_site_type_symbol
 _atom_site_label
 _atom_site_symmetry_multiplicity
 _atom_site_fract_x
 _atom_site_fract_y
 _atom_site_fract_z
 _atom_site_occupancy
  Dy  Dy0  1  0.46506700  0.73090900  0.57018400  1
  Dy  Dy1  1  0.53493300  0.26909100  0.42981600  1
  N  N0  1  0.09946500  0.71464300  0.81162800  1
  N  N1  1  0.90053500  0.28535700  0.18837200  1
  N  N2  1  0.40959700  0.79115400  0.21392800  1
  N  N3  1  0.59040300  0.20884600  0.78607200  1
  N  N4  1  0.83221400  0.81336500  0.34422600  1
  N  N5  1  0.16778600  0.18663500  0.65577400  1
  O  O0  1  0.69751700  0.61127900  0.76941300  1
  O  O1  1  0.30248300  0.38872100  0.23058700  1
  O  O2  1  0.26371500  0.66764700  0.86951200  1
  O  O3  1  0.73628500  0.33235300  0.13048800  1
  O  O4  1  0.11800100  0.76478500  0.63631500  1
  O  O5  1  0.88199900  0.23521500  0.36368500  1
  O  O6  1  0.93999900  0.71278900  0.91502000  1
  O  O7  1  0.06000100  0.28721100  0.08498000  1
  O  O8  1  0.44287600  0.61671800  0.34984200  1
  O  O9  1  0.55712400  0.38328200  0.65015800  1
  O  O10  1  0.39078000  0.92768000  0.26351900  1
  O  O11  1  0.60922000  0.07232000  0.73648100  1
  O  O12  1  0.39975200  0.81204500  0.06191400  1
  O  O13  1  0.60024800  0.18795500  0.93808600  1
  O  O14  1  0.67965200  0.93247700  0.42827900  1
  O  O15  1  0.32034800  0.06752300  0.57172100  1
  O  O16  1  0.81040500  0.65224700  0.38231600  1
  O  O17  1  0.18959500  0.34775300  0.61768400  1
  O  O18  1  0.97434700  0.85888300  0.24224800  1
  O  O19  1  0.02565300  0.14111700  0.75775200  1
loop_
_geom_bond_atom_site_label_1
_geom_bond_atom_site_label_2
_geom_bond_distance
_geom_bond_site_symmetry_2
Dy0 O0 2.367996 1_555
Dy0 O4 2.380434 1_555
Dy0 O9 2.388281 1_555
Dy0 O2 2.396482 1_555
Dy0 O10 2.407860 1_555
Dy0 O15 2.429544 1_565
Dy0 O8 2.446148 1_555
Dy0 O14 2.464421 1_555
Dy0 O16 2.489416 1_555
Dy1 O1 2.367996 1_555
Dy1 O5 2.380434 1_555
Dy1 O8 2.388281 1_555
Dy1 O3 2.396482 1_555
Dy1 O11 2.407860 1_555
Dy1 O14 2.429544 1_545
Dy1 O9 2.446148 1_555
Dy1 O15 2.464421 1_555
Dy1 O17 2.489416 1_555
N0 O6 1.217584 1_455
N0 O4 1.292463 1_555
N0 O2 1.297933 1_555
N1 O7 1.217584 1_655
N1 O5 1.292463 1_555
N1 O3 1.297933 1_555
N2 O12 1.209859 1_555
N2 O10 1.273034 1_555
N2 O8 1.332705 1_555
N3 O13 1.209859 1_555
N3 O11 1.273034 1_555
N3 O9 1.332705 1_555
N4 O18 1.211182 1_555
N4 O16 1.273395 1_555
N4 O14 1.329899 1_555
N5 O19 1.211182 1_555
N5 O17 1.273395 1_555
N5 O15 1.329899 1_555
