# generated using pymatgen
data_SrCo2(PO4)2
_symmetry_space_group_name_H-M   'P 1'
_cell_length_a   5.07486974
_cell_length_b   8.74051033
_cell_length_c   9.42546503
_cell_angle_alpha   113.89260556
_cell_angle_beta   102.83458987
_cell_angle_gamma   92.95350860
_symmetry_Int_Tables_number   1
_chemical_formula_structural   SrCo2(PO4)2
_chemical_formula_sum   'Sr2 Co4 P4 O16'
_cell_volume   367.98227791
_cell_formula_units_Z   2
loop_
 _symmetry_equiv_pos_site_id
 _symmetry_equiv_pos_as_xyz
  1  'x, y, z'
loop_
 _atom_site_type_symbol
 _atom_site_label
 _atom_site_symmetry_multiplicity
 _atom_site_fract_x
 _atom_site_fract_y
 _atom_site_fract_z
 _atom_site_occupancy
  Sr  Sr0  1  0.22358900  0.73601000  0.05055600  1
  Sr  Sr1  1  0.77641100  0.26399000  0.94944400  1
  Co  Co0  1  0.84688600  0.08913300  0.30152600  1
  Co  Co1  1  0.38760300  0.60819800  0.41348000  1
  Co  Co2  1  0.61239700  0.39180100  0.58652000  1
  Co  Co3  1  0.15311500  0.91086700  0.69847400  1
  P  P0  1  0.89099200  0.71959600  0.30628900  1
  P  P1  1  0.10900800  0.28040400  0.69371100  1
  P  P2  1  0.68688600  0.78903000  0.80815700  1
  P  P3  1  0.31311400  0.21096900  0.19184300  1
  O  O0  1  0.98370600  0.88049800  0.28783600  1
  O  O1  1  0.01629400  0.11950200  0.71216400  1
  O  O2  1  0.96394100  0.56584300  0.17557400  1
  O  O3  1  0.03605900  0.43415700  0.82442600  1
  O  O4  1  0.58316500  0.70609400  0.30202500  1
  O  O5  1  0.41683500  0.29390600  0.69797500  1
  O  O6  1  0.07268000  0.73087000  0.47174100  1
  O  O7  1  0.92732100  0.26913000  0.52825900  1
  O  O8  1  0.57265600  0.63154700  0.63825900  1
  O  O9  1  0.42734300  0.36845200  0.36174100  1
  O  O10  1  0.99846100  0.16740100  0.16418000  1
  O  O11  1  0.00153900  0.83259800  0.83582000  1
  O  O12  1  0.44877900  0.06026500  0.20577200  1
  O  O13  1  0.63878700  0.74276200  0.94057300  1
  O  O14  1  0.36121300  0.25723700  0.05942700  1
  O  O15  1  0.55122100  0.93973500  0.79422800  1
loop_
_geom_bond_atom_site_label_1
_geom_bond_atom_site_label_2
_geom_bond_distance
_geom_bond_site_symmetry_2
Co0 O0 1.950352 1_545
Co0 O10 1.959878 1_555
Co0 O12 1.978105 1_555
Co0 O7 2.007879 1_555
Co1 O4 1.981040 1_555
Co1 O9 1.982190 1_555
Co1 O6 2.023602 1_555
Co1 O8 2.039192 1_555
Co1 O2 2.625172 1_455
Co2 O5 1.981035 1_555
Co2 O8 1.982191 1_555
Co2 O7 2.023603 1_555
Co2 O9 2.039194 1_555
Co2 O3 2.625169 1_655
Co3 O1 1.950354 1_565
Co3 O11 1.959886 1_555
Co3 O15 1.978101 1_555
Co3 O6 2.007879 1_555
O0 P0 1.547839 1_555
O0 Sr0 2.675599 1_655
O1 P1 1.547839 1_555
O1 Sr1 2.675599 1_455
O2 P0 1.540683 1_555
O2 Sr1 2.587335 1_554
O2 Sr0 2.691571 1_655
O3 P1 1.540683 1_555
O3 Sr0 2.587335 1_556
O3 Sr1 2.691571 1_455
O4 P0 1.550877 1_555
O4 Sr0 2.765109 1_555
O5 P1 1.550877 1_555
O5 Sr1 2.765109 1_555
O6 P0 1.587178 1_455
O7 P1 1.587176 1_655
O8 P2 1.585853 1_555
O9 P3 1.585852 1_555
O10 P3 1.560376 1_655
O10 Sr1 2.558906 1_554
O11 P2 1.560376 1_455
O11 Sr0 2.558900 1_556
O12 P3 1.555546 1_555
O12 Sr0 2.653957 1_545
O13 P2 1.521470 1_555
O13 Sr0 2.554415 1_556
O13 Sr0 2.930305 1_656
O14 P3 1.521470 1_555
O14 Sr1 2.554417 1_554
O14 Sr1 2.930307 1_454
O15 P2 1.555554 1_555
O15 Sr1 2.653957 1_565
