# generated using pymatgen
data_MgSi2
_symmetry_space_group_name_H-M   'P 1'
_cell_length_a   3.78296000
_cell_length_b   6.29151900
_cell_length_c   10.36486182
_cell_angle_alpha   73.82630675
_cell_angle_beta   90.00000000
_cell_angle_gamma   90.00000000
_symmetry_Int_Tables_number   1
_chemical_formula_structural   MgSi2
_chemical_formula_sum   'Mg4 Si8'
_cell_volume   236.92600595
_cell_formula_units_Z   4
loop_
 _symmetry_equiv_pos_site_id
 _symmetry_equiv_pos_as_xyz
  1  'x, y, z'
loop_
 _atom_site_type_symbol
 _atom_site_label
 _atom_site_symmetry_multiplicity
 _atom_site_fract_x
 _atom_site_fract_y
 _atom_site_fract_z
 _atom_site_occupancy
  Mg  Mg0  1  0.22991900  0.18372400  0.76119000  1
  Mg  Mg1  1  0.22526200  0.34296500  0.24653900  1
  Mg  Mg2  1  0.72526200  0.65703500  0.75346100  1
  Mg  Mg3  1  0.72991900  0.81627600  0.23881000  1
  Si  Si0  1  0.23863700  0.58888400  0.43518000  1
  Si  Si1  1  0.70443200  0.93803300  0.94965600  1
  Si  Si2  1  0.22758600  0.44468000  0.94814300  1
  Si  Si3  1  0.86453900  0.03685100  0.55995500  1
  Si  Si4  1  0.36453900  0.96314900  0.44004500  1
  Si  Si5  1  0.72758600  0.55532000  0.05185700  1
  Si  Si6  1  0.20443200  0.06196700  0.05034400  1
  Si  Si7  1  0.73863700  0.41111600  0.56482000  1
loop_
_geom_bond_atom_site_label_1
_geom_bond_atom_site_label_2
_geom_bond_distance
_geom_bond_site_symmetry_2
Mg0 Si1 2.783044 1_545
Mg0 Si7 2.832173 1_455
Mg0 Si3 2.861571 1_455
Mg0 Si2 2.867546 1_555
Mg0 Si7 2.875887 1_555
Mg0 Si6 2.880859 1_556
Mg0 Si1 2.911153 1_445
Mg1 Si4 2.709338 1_545
Mg1 Si5 2.810575 1_455
Mg1 Si0 2.811524 1_555
Mg1 Si5 2.822384 1_555
Mg1 Si2 2.978689 1_554
Mg1 Si6 3.044632 1_555
Mg2 Si3 2.709338 1_565
Mg2 Si2 2.810575 1_555
Mg2 Si7 2.811524 1_555
Mg2 Si2 2.822384 1_655
Mg2 Si5 2.978689 1_556
Mg2 Si1 3.044632 1_555
Mg3 Si6 2.783044 1_665
Mg3 Si0 2.832173 1_555
Mg3 Si4 2.861571 1_555
Mg3 Si5 2.867546 1_555
Mg3 Si0 2.875887 1_655
Mg3 Si1 2.880859 1_554
Mg3 Si6 2.911153 1_565
Si0 Si7 2.407672 1_455
Si0 Si7 2.407672 1_555
Si0 Si4 2.416635 1_555
Si1 Si5 2.346605 1_556
Si1 Si6 2.393356 1_666
Si1 Si6 2.393356 1_566
Si2 Si6 2.346605 1_556
Si2 Si5 2.373752 1_456
Si2 Si5 2.373752 1_556
Si3 Si4 2.378750 1_645
Si3 Si4 2.378750 1_545
Si3 Si7 2.416635 1_555
