# generated using pymatgen
data_Sr4TiAs4
_symmetry_space_group_name_H-M   'P 1'
_cell_length_a   12.92761208
_cell_length_b   12.92761208
_cell_length_c   12.92761208
_cell_angle_alpha   90.00000000
_cell_angle_beta   90.00000000
_cell_angle_gamma   90.00000000
_symmetry_Int_Tables_number   1
_chemical_formula_structural   Sr4TiAs4
_chemical_formula_sum   'Sr32 Ti8 As32'
_cell_volume   2160.50330567
_cell_formula_units_Z   8
loop_
 _symmetry_equiv_pos_site_id
 _symmetry_equiv_pos_as_xyz
  1  'x, y, z'
loop_
 _atom_site_type_symbol
 _atom_site_label
 _atom_site_symmetry_multiplicity
 _atom_site_fract_x
 _atom_site_fract_y
 _atom_site_fract_z
 _atom_site_occupancy
  Sr  Sr0  1  0.14736234  0.14736234  0.14736234  1
  Sr  Sr1  1  0.35263766  0.64736234  0.35263766  1
  Sr  Sr2  1  0.64736234  0.35263766  0.35263766  1
  Sr  Sr3  1  0.35263766  0.35263766  0.64736234  1
  Sr  Sr4  1  0.14736234  0.85263766  0.85263766  1
  Sr  Sr5  1  0.85263766  0.85263766  0.14736234  1
  Sr  Sr6  1  0.85263766  0.14736234  0.85263766  1
  Sr  Sr7  1  0.64736234  0.64736234  0.64736234  1
  Sr  Sr8  1  0.90473558  0.86266001  0.64718236  1
  Sr  Sr9  1  0.90473558  0.13733999  0.35281764  1
  Sr  Sr10  1  0.86266001  0.64718236  0.90473558  1
  Sr  Sr11  1  0.13733999  0.64718236  0.09526442  1
  Sr  Sr12  1  0.64718236  0.90473558  0.86266001  1
  Sr  Sr13  1  0.35281764  0.09526442  0.86266001  1
  Sr  Sr14  1  0.59526442  0.85281764  0.36266001  1
  Sr  Sr15  1  0.59526442  0.14718236  0.63733999  1
  Sr  Sr16  1  0.40473558  0.85281764  0.63733999  1
  Sr  Sr17  1  0.14718236  0.63733999  0.59526442  1
  Sr  Sr18  1  0.63733999  0.40473558  0.85281764  1
  Sr  Sr19  1  0.63733999  0.59526442  0.14718236  1
  Sr  Sr20  1  0.85281764  0.36266001  0.59526442  1
  Sr  Sr21  1  0.36266001  0.59526442  0.85281764  1
  Sr  Sr22  1  0.85281764  0.63733999  0.40473558  1
  Sr  Sr23  1  0.14718236  0.36266001  0.40473558  1
  Sr  Sr24  1  0.36266001  0.40473558  0.14718236  1
  Sr  Sr25  1  0.35281764  0.90473558  0.13733999  1
  Sr  Sr26  1  0.64718236  0.09526442  0.13733999  1
  Sr  Sr27  1  0.86266001  0.35281764  0.09526442  1
  Sr  Sr28  1  0.13733999  0.35281764  0.90473558  1
  Sr  Sr29  1  0.09526442  0.13733999  0.64718236  1
  Sr  Sr30  1  0.09526442  0.86266001  0.35281764  1
  Sr  Sr31  1  0.40473558  0.14718236  0.36266001  1
  Ti  Ti0  1  -0.00000000  -0.00000000  -0.00000000  1
  Ti  Ti1  1  0.75000000  -0.00000000  0.50000000  1
  Ti  Ti2  1  0.50000000  0.75000000  -0.00000000  1
  Ti  Ti3  1  0.50000000  0.25000000  -0.00000000  1
  Ti  Ti4  1  -0.00000000  0.50000000  0.25000000  1
  Ti  Ti5  1  -0.00000000  0.50000000  0.75000000  1
  Ti  Ti6  1  0.25000000  -0.00000000  0.50000000  1
  Ti  Ti7  1  0.50000000  0.50000000  0.50000000  1
  As  As0  1  0.60836396  0.85544914  0.11535178  1
  As  As1  1  0.64455086  0.10836396  0.38464822  1
  As  As2  1  0.89163604  0.61535178  0.64455086  1
  As  As3  1  0.10836396  0.61535178  0.35544914  1
  As  As4  1  0.61535178  0.64455086  0.89163604  1
  As  As5  1  0.38464822  0.35544914  0.89163604  1
  As  As6  1  0.85544914  0.88464822  0.39163604  1
  As  As7  1  0.85544914  0.11535178  0.60836396  1
  As  As8  1  0.14455086  0.88464822  0.60836396  1
  As  As9  1  0.39043759  0.39043759  0.39043759  1
  As  As10  1  0.60836396  0.14455086  0.88464822  1
  As  As11  1  0.64455086  0.89163604  0.61535178  1
  As  As12  1  0.88464822  0.39163604  0.85544914  1
  As  As13  1  0.39163604  0.85544914  0.88464822  1
  As  As14  1  0.88464822  0.60836396  0.14455086  1
  As  As15  1  0.11535178  0.39163604  0.14455086  1
  As  As16  1  0.39163604  0.14455086  0.11535178  1
  As  As17  1  0.38464822  0.64455086  0.10836396  1
  As  As18  1  0.61535178  0.35544914  0.10836396  1
  As  As19  1  0.89163604  0.38464822  0.35544914  1
  As  As20  1  0.10836396  0.38464822  0.64455086  1
  As  As21  1  0.35544914  0.10836396  0.61535178  1
  As  As22  1  0.35544914  0.89163604  0.38464822  1
  As  As23  1  0.14455086  0.11535178  0.39163604  1
  As  As24  1  0.10956241  0.89043759  0.10956241  1
  As  As25  1  0.10956241  0.10956241  0.89043759  1
  As  As26  1  0.89043759  0.10956241  0.10956241  1
  As  As27  1  0.60956241  0.60956241  0.39043759  1
  As  As28  1  0.39043759  0.60956241  0.60956241  1
  As  As29  1  0.60956241  0.39043759  0.60956241  1
  As  As30  1  0.89043759  0.89043759  0.89043759  1
  As  As31  1  0.11535178  0.60836396  0.85544914  1
loop_
_geom_bond_atom_site_label_1
_geom_bond_atom_site_label_2
_geom_bond_distance
_geom_bond_site_symmetry_2
Sr0 Ti0 3.299632 1_555
Sr1 Ti7 3.299632 1_555
Sr2 Ti7 3.299632 1_555
Sr3 Ti7 3.299632 1_555
Sr4 Ti0 3.299632 1_566
Sr5 Ti0 3.299632 1_665
Sr6 Ti0 3.299632 1_656
Sr7 Ti7 3.299632 1_555
Sr8 Ti1 3.282392 1_565
Sr9 Ti1 3.282392 1_555
Sr10 Ti5 3.282392 1_655
Sr11 Ti4 3.282392 1_555
Sr12 Ti2 3.282392 1_556
Sr13 Ti3 3.282392 1_556
Sr14 Ti1 3.282392 1_565
Sr15 Ti1 3.282392 1_555
Sr16 Ti6 3.282392 1_565
Sr17 Ti5 3.282392 1_555
Sr18 Ti3 3.282392 1_556
Sr19 Ti2 3.282392 1_555
Sr20 Ti5 3.282392 1_655
Sr21 Ti2 3.282392 1_556
Sr22 Ti4 3.282392 1_655
Sr23 Ti4 3.282392 1_555
Sr24 Ti3 3.282392 1_555
Sr25 Ti2 3.282392 1_555
Sr26 Ti3 3.282392 1_555
Sr27 Ti4 3.282392 1_655
Sr28 Ti5 3.282392 1_555
Sr29 Ti6 3.282392 1_555
Sr30 Ti6 3.282392 1_565
Sr31 Ti6 3.282392 1_555
As0 Ti2 2.458569 1_555
As0 Sr26 3.153429 1_565
As0 Sr5 3.185082 1_555
As0 Sr14 3.201767 1_555
As0 Sr12 3.365878 1_554
As0 Sr25 3.376472 1_555
As0 Sr19 3.409286 1_555
As1 Ti1 2.458569 1_555
As1 Sr31 3.153429 1_555
As1 Sr2 3.185082 1_555
As1 Sr26 3.201767 1_555
As1 Sr15 3.365878 1_555
As1 Sr14 3.376472 1_545
As1 Sr9 3.409286 1_555
As2 Ti5 2.458569 1_655
As2 Sr22 3.153429 1_555
As2 Sr7 3.185082 1_555
As2 Sr8 3.201767 1_555
As2 Sr20 3.365878 1_555
As2 Sr17 3.376472 1_655
As2 Sr10 3.409286 1_555
As3 Ti4 2.458569 1_555
As3 Sr17 3.153429 1_555
As3 Sr1 3.185082 1_555
As3 Sr30 3.201767 1_555
As3 Sr23 3.365878 1_555
As3 Sr22 3.376472 1_455
As3 Sr11 3.409286 1_555
As4 Ti2 2.458569 1_556
As4 Sr18 3.153429 1_555
As4 Sr7 3.185082 1_555
As4 Sr10 3.201767 1_555
As4 Sr21 3.365878 1_555
As4 Sr19 3.376472 1_556
As4 Sr12 3.409286 1_555
As5 Ti3 2.458569 1_556
As5 Sr21 3.153429 1_555
As5 Sr3 3.185082 1_555
As5 Sr28 3.201767 1_555
As5 Sr18 3.365878 1_555
As5 Sr24 3.376472 1_556
As5 Sr13 3.409286 1_555
As6 Ti1 2.458569 1_565
As6 Sr30 3.153429 1_655
As6 Sr5 3.185082 1_555
As6 Sr22 3.201767 1_555
As6 Sr9 3.365878 1_565
As6 Sr8 3.376472 1_555
As6 Sr14 3.409286 1_555
As7 Ti1 2.458569 1_555
As7 Sr29 3.153429 1_655
As7 Sr6 3.185082 1_555
As7 Sr20 3.201767 1_555
As7 Sr8 3.365878 1_545
As7 Sr9 3.376472 1_555
As7 Sr15 3.409286 1_555
As8 Ti6 2.458569 1_565
As8 Sr8 3.153429 1_455
As8 Sr4 3.185082 1_555
As8 Sr17 3.201767 1_555
As8 Sr29 3.365878 1_565
As8 Sr30 3.376472 1_555
As8 Sr16 3.409286 1_555
As9 Ti7 2.453243 1_555
As9 Sr31 3.170538 1_555
As9 Sr23 3.170538 1_555
As9 Sr24 3.170538 1_555
As9 Sr3 3.392556 1_555
As9 Sr1 3.392556 1_555
As9 Sr2 3.392556 1_555
As10 Ti3 2.458569 1_556
As10 Sr12 3.153429 1_545
As10 Sr6 3.185082 1_555
As10 Sr15 3.201767 1_555
As10 Sr26 3.365878 1_556
As10 Sr13 3.376472 1_555
As10 Sr18 3.409286 1_555
As11 Ti1 2.458569 1_565
As11 Sr16 3.153429 1_555
As11 Sr7 3.185082 1_555
As11 Sr12 3.201767 1_555
As11 Sr14 3.365878 1_555
As11 Sr15 3.376472 1_565
As11 Sr8 3.409286 1_555
As12 Ti5 2.458569 1_655
As12 Sr27 3.153429 1_556
As12 Sr6 3.185082 1_555
As12 Sr18 3.201767 1_555
As12 Sr28 3.365878 1_655
As12 Sr10 3.376472 1_555
As12 Sr20 3.409286 1_555
As13 Ti2 2.458569 1_556
As13 Sr13 3.153429 1_565
As13 Sr4 3.185082 1_555
As13 Sr16 3.201767 1_555
As13 Sr25 3.365878 1_556
As13 Sr12 3.376472 1_555
As13 Sr21 3.409286 1_555
As14 Ti4 2.458569 1_655
As14 Sr10 3.153429 1_554
As14 Sr5 3.185082 1_555
As14 Sr19 3.201767 1_555
As14 Sr11 3.365878 1_655
As14 Sr27 3.376472 1_555
As14 Sr22 3.409286 1_555
As15 Ti4 2.458569 1_555
As15 Sr28 3.153429 1_554
As15 Sr0 3.185082 1_555
As15 Sr24 3.201767 1_555
As15 Sr27 3.365878 1_455
As15 Sr11 3.376472 1_555
As15 Sr23 3.409286 1_555
As16 Ti3 2.458569 1_555
As16 Sr25 3.153429 1_545
As16 Sr0 3.185082 1_555
As16 Sr31 3.201767 1_555
As16 Sr13 3.365878 1_554
As16 Sr26 3.376472 1_555
As16 Sr24 3.409286 1_555
As17 Ti2 2.458569 1_555
As17 Sr24 3.153429 1_555
As17 Sr1 3.185082 1_555
As17 Sr11 3.201767 1_555
As17 Sr19 3.365878 1_555
As17 Sr21 3.376472 1_554
As17 Sr25 3.409286 1_555
As18 Ti3 2.458569 1_555
As18 Sr19 3.153429 1_555
As18 Sr2 3.185082 1_555
As18 Sr27 3.201767 1_555
As18 Sr24 3.365878 1_555
As18 Sr18 3.376472 1_554
As18 Sr26 3.409286 1_555
As19 Ti4 2.458569 1_655
As19 Sr20 3.153429 1_555
As19 Sr2 3.185082 1_555
As19 Sr9 3.201767 1_555
As19 Sr22 3.365878 1_555
As19 Sr23 3.376472 1_655
As19 Sr27 3.409286 1_555
As20 Ti5 2.458569 1_555
As20 Sr23 3.153429 1_555
As20 Sr3 3.185082 1_555
As20 Sr29 3.201767 1_555
As20 Sr17 3.365878 1_555
As20 Sr20 3.376472 1_455
As20 Sr28 3.409286 1_555
As21 Ti6 2.458569 1_555
As21 Sr15 3.153429 1_555
As21 Sr3 3.185082 1_555
As21 Sr13 3.201767 1_555
As21 Sr31 3.365878 1_555
As21 Sr16 3.376472 1_545
As21 Sr29 3.409286 1_555
As22 Ti6 2.458569 1_565
As22 Sr14 3.153429 1_555
As22 Sr1 3.185082 1_555
As22 Sr25 3.201767 1_555
As22 Sr16 3.365878 1_555
As22 Sr31 3.376472 1_565
As22 Sr30 3.409286 1_555
As23 Ti6 2.458569 1_555
As23 Sr9 3.153429 1_455
As23 Sr0 3.185082 1_555
As23 Sr23 3.201767 1_555
As23 Sr30 3.365878 1_545
As23 Sr29 3.376472 1_555
As23 Sr31 3.409286 1_555
As24 Ti0 2.453243 1_565
As24 Sr30 3.170538 1_555
As24 Sr25 3.170538 1_555
As24 Sr11 3.170538 1_555
As24 Sr0 3.392556 1_565
As24 Sr4 3.392556 1_554
As24 Sr5 3.392556 1_455
As25 Ti0 2.453243 1_556
As25 Sr28 3.170538 1_555
As25 Sr13 3.170538 1_555
As25 Sr29 3.170538 1_555
As25 Sr0 3.392556 1_556
As25 Sr6 3.392556 1_455
As25 Sr4 3.392556 1_545
As26 Ti0 2.453243 1_655
As26 Sr27 3.170538 1_555
As26 Sr9 3.170538 1_555
As26 Sr26 3.170538 1_555
As26 Sr0 3.392556 1_655
As26 Sr6 3.392556 1_554
As26 Sr5 3.392556 1_545
As27 Ti7 2.453243 1_555
As27 Sr19 3.170538 1_555
As27 Sr14 3.170538 1_555
As27 Sr22 3.170538 1_555
As27 Sr1 3.392556 1_555
As27 Sr2 3.392556 1_555
As27 Sr7 3.392556 1_555
As28 Ti7 2.453243 1_555
As28 Sr17 3.170538 1_555
As28 Sr21 3.170538 1_555
As28 Sr16 3.170538 1_555
As28 Sr1 3.392556 1_555
As28 Sr3 3.392556 1_555
As28 Sr7 3.392556 1_555
As29 Ti7 2.453243 1_555
As29 Sr15 3.170538 1_555
As29 Sr18 3.170538 1_555
As29 Sr20 3.170538 1_555
As29 Sr2 3.392556 1_555
As29 Sr3 3.392556 1_555
As29 Sr7 3.392556 1_555
As30 Ti0 2.453243 1_666
As30 Sr10 3.170538 1_555
As30 Sr8 3.170538 1_555
As30 Sr12 3.170538 1_555
As30 Sr5 3.392556 1_556
As30 Sr6 3.392556 1_565
As30 Sr4 3.392556 1_655
As31 Ti5 2.458569 1_555
As31 Sr11 3.153429 1_556
As31 Sr4 3.185082 1_555
As31 Sr21 3.201767 1_555
As31 Sr10 3.365878 1_455
As31 Sr28 3.376472 1_555
As31 Sr17 3.409286 1_555
