# generated using pymatgen
data_LaMn8Bi3O20
_symmetry_space_group_name_H-M   'P 1'
_cell_length_a   5.86615100
_cell_length_b   7.66946600
_cell_length_c   8.67757582
_cell_angle_alpha   89.91833068
_cell_angle_beta   90.00000000
_cell_angle_gamma   90.00000000
_symmetry_Int_Tables_number   1
_chemical_formula_structural   LaMn8Bi3O20
_chemical_formula_sum   'La1 Mn8 Bi3 O20'
_cell_volume   390.40587093
_cell_formula_units_Z   1
loop_
 _symmetry_equiv_pos_site_id
 _symmetry_equiv_pos_as_xyz
  1  'x, y, z'
loop_
 _atom_site_type_symbol
 _atom_site_label
 _atom_site_symmetry_multiplicity
 _atom_site_fract_x
 _atom_site_fract_y
 _atom_site_fract_z
 _atom_site_occupancy
  La  La0  1  0.00000000  0.35733500  0.66753600  1
  Mn  Mn0  1  0.50000000  0.09077500  0.84839500  1
  Mn  Mn1  1  0.50000000  0.90579800  0.15047000  1
  Mn  Mn2  1  0.50000000  0.59690200  0.64924900  1
  Mn  Mn3  1  0.50000000  0.40701400  0.34906700  1
  Mn  Mn4  1  0.74164100  0.49988000  0.00121300  1
  Mn  Mn5  1  0.25802400  0.99941900  0.50055500  1
  Mn  Mn6  1  0.25835900  0.49988000  0.00121300  1
  Mn  Mn7  1  0.74197600  0.99941900  0.50055500  1
  Bi  Bi0  1  0.00000000  0.65973800  0.33222500  1
  Bi  Bi1  1  0.00000000  0.84808200  0.83463200  1
  Bi  Bi2  1  0.00000000  0.15482300  0.16669000  1
  O  O0  1  0.50000000  0.35415600  0.92741700  1
  O  O1  1  0.50000000  0.64565200  0.07219400  1
  O  O2  1  0.50000000  0.85244000  0.57080800  1
  O  O3  1  0.50000000  0.14563600  0.42786500  1
  O  O4  1  0.71716300  0.50111900  0.49960700  1
  O  O5  1  0.28208000  0.99967000  0.00052200  1
  O  O6  1  0.28283700  0.50111900  0.49960700  1
  O  O7  1  0.71792000  0.99967000  0.00052200  1
  O  O8  1  0.00000000  0.34577100  0.94687200  1
  O  O9  1  0.00000000  0.65565700  0.05606300  1
  O  O10  1  0.00000000  0.84360500  0.55629000  1
  O  O11  1  0.00000000  0.15228100  0.44175300  1
  O  O12  1  0.74760800  0.10629300  0.70218700  1
  O  O13  1  0.74983300  0.88772800  0.29794300  1
  O  O14  1  0.24802500  0.60991100  0.79727800  1
  O  O15  1  0.25090800  0.38814600  0.20193200  1
  O  O16  1  0.25016700  0.88772800  0.29794300  1
  O  O17  1  0.25239200  0.10629300  0.70218700  1
  O  O18  1  0.74909200  0.38814600  0.20193200  1
  O  O19  1  0.75197500  0.60991100  0.79727800  1
loop_
_geom_bond_atom_site_label_1
_geom_bond_atom_site_label_2
_geom_bond_distance
_geom_bond_site_symmetry_2
La0 O8 2.425455 1_555
La0 O12 2.447009 1_455
La0 O17 2.447009 1_555
La0 O4 2.467342 1_455
La0 O6 2.467342 1_555
La0 O11 2.514097 1_555
La0 O14 2.672654 1_555
La0 O19 2.672654 1_455
Mn0 O17 1.932145 1_555
Mn0 O12 1.932145 1_555
Mn0 O7 1.965304 1_546
Mn0 O5 1.965304 1_546
Mn0 O0 2.134134 1_555
Mn1 O13 1.950440 1_555
Mn1 O16 1.950440 1_555
Mn1 O7 1.960337 1_555
Mn1 O5 1.960337 1_555
Mn1 O1 2.108551 1_555
Mn2 O19 1.960916 1_555
Mn2 O14 1.960916 1_555
Mn2 O4 1.962496 1_555
Mn2 O6 1.962496 1_555
Mn2 O2 2.073763 1_555
Mn3 O15 1.945960 1_555
Mn3 O18 1.945960 1_555
Mn3 O4 1.962885 1_555
Mn3 O6 1.962885 1_555
Mn3 O3 2.117116 1_555
Mn4 O1 1.908028 1_555
Mn4 O0 1.915859 1_554
Mn4 O18 1.940544 1_555
Mn4 O19 1.960421 1_554
Mn4 O8 1.979362 1_654
Mn4 O9 1.988089 1_655
Mn5 O2 1.911875 1_555
Mn5 O3 1.915280 1_565
Mn5 O17 1.933495 1_565
Mn5 O16 1.957396 1_555
Mn5 O11 1.980939 1_565
Mn5 O10 1.987793 1_555
Mn6 O1 1.908028 1_555
Mn6 O0 1.915859 1_554
Mn6 O15 1.940544 1_555
Mn6 O14 1.960421 1_554
Mn6 O8 1.979362 1_554
Mn6 O9 1.988089 1_555
Mn7 O2 1.911875 1_555
Mn7 O3 1.915280 1_565
Mn7 O12 1.933495 1_565
Mn7 O13 1.957396 1_555
Mn7 O11 1.980939 1_665
Mn7 O10 1.987793 1_655
Bi0 O13 2.301758 1_455
Bi0 O16 2.301758 1_555
Bi0 O9 2.396666 1_555
Bi0 O10 2.403505 1_555
Bi0 O4 2.517417 1_455
Bi0 O6 2.517417 1_555
Bi0 O18 2.791086 1_455
Bi0 O15 2.791086 1_555
Bi1 O14 2.358023 1_555
Bi1 O19 2.358023 1_455
Bi1 O10 2.415627 1_555
Bi1 O9 2.421156 1_556
Bi1 O7 2.483293 1_456
Bi1 O5 2.483293 1_556
Bi1 O12 2.725480 1_465
Bi1 O17 2.725480 1_565
Bi2 O18 2.337444 1_455
Bi2 O15 2.337444 1_555
Bi2 O11 2.386932 1_555
Bi2 O8 2.403168 1_554
Bi2 O7 2.497627 1_445
Bi2 O5 2.497627 1_545
Bi2 O13 2.764134 1_445
Bi2 O16 2.764134 1_545
