# generated using pymatgen
data_SmSbS
_symmetry_space_group_name_H-M   'P 1'
_cell_length_a   4.12031325
_cell_length_b   4.11090601
_cell_length_c   17.61690393
_cell_angle_alpha   90.00000000
_cell_angle_beta   90.00000000
_cell_angle_gamma   90.00703963
_symmetry_Int_Tables_number   1
_chemical_formula_structural   SmSbS
_chemical_formula_sum   'Sm4 Sb4 S4'
_cell_volume   298.39900134
_cell_formula_units_Z   4
loop_
 _symmetry_equiv_pos_site_id
 _symmetry_equiv_pos_as_xyz
  1  'x, y, z'
loop_
 _atom_site_type_symbol
 _atom_site_label
 _atom_site_symmetry_multiplicity
 _atom_site_fract_x
 _atom_site_fract_y
 _atom_site_fract_z
 _atom_site_occupancy
  Sm  Sm0  1  0.75631187  0.25023836  0.15352713  1
  Sm  Sm1  1  0.74368813  0.24976164  0.65352713  1
  Sm  Sm2  1  0.24368813  0.74976164  0.84647287  1
  Sm  Sm3  1  0.25631187  0.75023836  0.34647287  1
  Sb  Sb0  1  0.75285816  0.74981573  0.49975939  1
  Sb  Sb1  1  0.74714184  0.75018427  0.99975939  1
  Sb  Sb2  1  0.24714184  0.25018427  0.50024061  1
  Sb  Sb3  1  0.25285816  0.24981573  0.00024061  1
  S  S0  1  0.75710964  0.25032121  0.31324031  1
  S  S1  1  0.74289036  0.24967879  0.81324031  1
  S  S2  1  0.24289036  0.74967879  0.68675969  1
  S  S3  1  0.25710964  0.75032121  0.18675969  1
loop_
_geom_bond_atom_site_label_1
_geom_bond_atom_site_label_2
_geom_bond_distance
_geom_bond_site_symmetry_2
Sb0 Sb2 2.892666 1_655
Sb0 Sb2 2.894463 1_665
Sb0 Sb2 2.925667 1_555
Sb0 Sb2 2.928154 1_565
Sb0 Sm3 3.387944 1_555
Sb0 Sm1 3.400532 1_565
Sb0 Sm1 3.400796 1_555
Sb0 Sm3 3.405206 1_655
Sb1 Sb3 2.892666 1_566
Sb1 Sb3 2.894463 1_556
Sb1 Sb3 2.925667 1_666
Sb1 Sb3 2.928154 1_656
Sb1 Sm2 3.387944 1_655
Sb1 Sm0 3.400532 1_556
Sb1 Sm0 3.400796 1_566
Sb1 Sm2 3.405206 1_555
Sb2 Sm1 3.387944 1_555
Sb2 Sm3 3.400532 1_545
Sb2 Sm3 3.400796 1_555
Sb2 Sm1 3.405206 1_455
Sb3 Sm0 3.387944 1_455
Sb3 Sm2 3.400532 1_554
Sb3 Sm2 3.400796 1_544
Sb3 Sm0 3.405206 1_555
S0 Sm0 2.813654 1_555
S0 Sm3 2.965791 1_655
S0 Sm3 2.966614 1_645
S0 Sm3 2.970705 1_555
S0 Sm3 2.970825 1_545
S1 Sm1 2.813654 1_555
S1 Sm2 2.965791 1_545
S1 Sm2 2.966614 1_555
S1 Sm2 2.970705 1_645
S1 Sm2 2.970825 1_655
S2 Sm2 2.813654 1_555
S2 Sm1 2.965791 1_455
S2 Sm1 2.966614 1_465
S2 Sm1 2.970705 1_555
S2 Sm1 2.970825 1_565
S3 Sm3 2.813654 1_555
S3 Sm0 2.965791 1_565
S3 Sm0 2.966614 1_555
S3 Sm0 2.970705 1_465
S3 Sm0 2.970825 1_455
