# generated using pymatgen
data_La3FeO6
_symmetry_space_group_name_H-M   'P 1'
_cell_length_a   7.54200520
_cell_length_b   7.54200520
_cell_length_c   5.69667244
_cell_angle_alpha   90.00000000
_cell_angle_beta   90.00000000
_cell_angle_gamma   103.04378991
_symmetry_Int_Tables_number   1
_chemical_formula_structural   La3FeO6
_chemical_formula_sum   'La6 Fe2 O12'
_cell_volume   315.67636832
_cell_formula_units_Z   2
loop_
 _symmetry_equiv_pos_site_id
 _symmetry_equiv_pos_as_xyz
  1  'x, y, z'
loop_
 _atom_site_type_symbol
 _atom_site_label
 _atom_site_symmetry_multiplicity
 _atom_site_fract_x
 _atom_site_fract_y
 _atom_site_fract_z
 _atom_site_occupancy
  La  La0  1  0.41335708  0.19952411  0.53559712  1
  La  La1  1  0.80047589  0.58664292  0.53559712  1
  La  La2  1  0.58664292  0.80047589  0.03559712  1
  La  La3  1  0.19952411  0.41335708  0.03559712  1
  La  La4  1  0.10543776  0.89456224  0.07285181  1
  La  La5  1  0.89456224  0.10543776  0.57285181  1
  Fe  Fe0  1  0.30802298  0.69197702  0.50018110  1
  Fe  Fe1  1  0.69197702  0.30802298  0.00018110  1
  O  O0  1  0.17083969  0.14792396  0.80172248  1
  O  O1  1  0.85207604  0.82916031  0.80172248  1
  O  O2  1  0.82916031  0.85207604  0.30172248  1
  O  O3  1  0.14792396  0.17083969  0.30172248  1
  O  O4  1  0.60818303  0.08787732  0.83293805  1
  O  O5  1  0.91212268  0.39181697  0.83293805  1
  O  O6  1  0.39181697  0.91212268  0.33293805  1
  O  O7  1  0.08787732  0.60818303  0.33293805  1
  O  O8  1  0.54498769  0.45501231  0.86872046  1
  O  O9  1  0.45501231  0.54498769  0.36872046  1
  O  O10  1  0.28530982  0.71469018  0.82784932  1
  O  O11  1  0.71469018  0.28530982  0.32784932  1
loop_
_geom_bond_atom_site_label_1
_geom_bond_atom_site_label_2
_geom_bond_distance
_geom_bond_site_symmetry_2
La0 O0 2.339653 1_555
La0 O3 2.373594 1_555
La0 O6 2.428721 1_545
La0 O4 2.509132 1_555
La0 O11 2.514050 1_555
La0 O9 2.724243 1_555
La0 O8 2.726948 1_555
La1 O1 2.339653 1_555
La1 O2 2.373594 1_555
La1 O7 2.428721 1_655
La1 O5 2.509132 1_555
La1 O11 2.514050 1_555
La1 O9 2.724243 1_555
La1 O8 2.726948 1_555
La2 O2 2.339653 1_555
La2 O1 2.373594 1_554
La2 O4 2.428721 1_564
La2 O6 2.509132 1_555
La2 O10 2.514050 1_554
La2 O8 2.724243 1_554
La2 O9 2.726948 1_555
La3 O3 2.339653 1_555
La3 O0 2.373594 1_554
La3 O5 2.428721 1_454
La3 O7 2.509132 1_555
La3 O10 2.514050 1_554
La3 O8 2.724243 1_554
La3 O9 2.726948 1_555
La4 O2 2.417217 1_455
La4 O3 2.417217 1_565
La4 O1 2.419670 1_454
La4 O0 2.419670 1_564
La4 O10 2.541535 1_554
La4 O6 2.597824 1_555
La4 O7 2.597824 1_555
La5 O1 2.417217 1_545
La5 O0 2.417217 1_655
La5 O2 2.419670 1_545
La5 O3 2.419670 1_655
La5 O11 2.541535 1_555
La5 O5 2.597824 1_555
La5 O4 2.597824 1_555
Fe0 O10 1.885789 1_555
Fe0 O9 1.890383 1_555
Fe0 O6 1.894775 1_555
Fe0 O7 1.894775 1_555
Fe1 O11 1.885789 1_555
Fe1 O8 1.890383 1_554
Fe1 O5 1.894775 1_554
Fe1 O4 1.894775 1_554
