# generated using pymatgen
data_Mg4Si3
_symmetry_space_group_name_H-M   'P 1'
_cell_length_a   5.68193900
_cell_length_b   7.50801343
_cell_length_c   7.59781578
_cell_angle_alpha   105.12573671
_cell_angle_beta   108.89100219
_cell_angle_gamma   110.17928645
_symmetry_Int_Tables_number   1
_chemical_formula_structural   Mg4Si3
_chemical_formula_sum   'Mg8 Si6'
_cell_volume   261.27674518
_cell_formula_units_Z   2
loop_
 _symmetry_equiv_pos_site_id
 _symmetry_equiv_pos_as_xyz
  1  'x, y, z'
loop_
 _atom_site_type_symbol
 _atom_site_label
 _atom_site_symmetry_multiplicity
 _atom_site_fract_x
 _atom_site_fract_y
 _atom_site_fract_z
 _atom_site_occupancy
  Mg  Mg0  1  0.35393200  0.69900400  0.55460900  1
  Mg  Mg1  1  0.52265700  0.98278900  0.01815300  1
  Mg  Mg2  1  0.04869500  0.56345100  0.89938700  1
  Mg  Mg3  1  0.57564300  0.58571000  0.94239400  1
  Mg  Mg4  1  0.88213100  0.26776200  0.45663900  1
  Mg  Mg5  1  0.20912100  0.10940200  0.71443400  1
  Mg  Mg6  1  0.16166900  0.92276900  0.29046800  1
  Mg  Mg7  1  0.30365500  0.33828700  0.16554200  1
  Si  Si0  1  0.83037100  0.39586900  0.13119400  1
  Si  Si1  1  0.83975300  0.66837900  0.54503100  1
  Si  Si2  1  0.93990600  0.90633300  0.89049400  1
  Si  Si3  1  0.75123300  0.14373500  0.78327900  1
  Si  Si4  1  0.47117100  0.34831800  0.54914300  1
  Si  Si5  1  0.60983000  0.81808100  0.30917200  1
loop_
_geom_bond_atom_site_label_1
_geom_bond_atom_site_label_2
_geom_bond_distance
_geom_bond_site_symmetry_2
Mg0 Si1 2.825538 1_455
Mg0 Si5 2.849522 1_555
Mg0 Si1 2.870060 1_555
Mg0 Si3 2.914824 1_565
Mg0 Si4 2.923840 1_555
Mg0 Si2 2.978306 1_555
Mg0 Si0 3.112819 1_455
Mg1 Si0 2.703653 1_565
Mg1 Si5 2.793560 1_555
Mg1 Si3 2.806225 1_564
Mg1 Si2 2.924466 1_454
Mg1 Si2 3.004704 1_554
Mg1 Mg2 3.012175 1_554
Mg2 Si3 2.733920 1_455
Mg2 Si0 2.778173 1_456
Mg2 Mg3 2.844648 1_555
Mg2 Si2 2.859299 1_455
Mg2 Mg3 2.865202 1_455
Mg2 Si4 2.983944 1_455
Mg2 Si1 2.993517 1_455
Mg2 Mg4 3.119572 1_455
Mg2 Si5 3.126411 1_556
Mg2 Mg6 3.147342 1_556
Mg2 Mg7 3.259229 1_556
Mg3 Si0 2.707391 1_556
Mg3 Si5 2.779511 1_556
Mg3 Si4 2.792626 1_555
Mg3 Si2 2.796521 1_555
Mg4 Si0 2.844494 1_555
Mg4 Si4 2.850866 1_555
Mg4 Si5 2.889188 1_545
Mg4 Si4 2.986609 1_655
Mg4 Si1 3.017662 1_555
Mg4 Si3 3.082669 1_555
Mg5 Si2 2.689627 1_445
Mg5 Si4 2.748746 1_555
Mg5 Si3 2.857710 1_555
Mg5 Si1 2.873600 1_445
Mg5 Si3 2.895236 1_455
Mg5 Si5 3.227610 1_445
Mg6 Si4 2.787812 1_565
Mg6 Si2 2.838221 1_454
Mg6 Si5 2.885670 1_555
Mg6 Si5 3.019265 1_455
Mg7 Si4 2.728694 1_555
Mg7 Si0 2.809483 1_455
Mg7 Si2 2.863288 1_444
Mg7 Si0 2.980544 1_555
Mg7 Si1 3.018180 1_555
Mg7 Si3 3.023386 1_454
Mg7 Si5 3.096682 1_555
Si0 Si3 2.608611 1_554
Si1 Si2 2.507822 1_555
Si1 Si5 2.594137 1_555
Si1 Si4 2.602099 1_555
Si2 Si3 2.549586 1_565
