# generated using pymatgen
data_Mg16Al12Ag
_symmetry_space_group_name_H-M   'P 1'
_cell_length_a   9.06183592
_cell_length_b   9.06183592
_cell_length_c   9.08485567
_cell_angle_alpha   70.52513959
_cell_angle_beta   70.52513959
_cell_angle_gamma   109.13077828
_symmetry_Int_Tables_number   1
_chemical_formula_structural   Mg16Al12Ag
_chemical_formula_sum   'Mg16 Al12 Ag1'
_cell_volume   576.63038900
_cell_formula_units_Z   1
loop_
 _symmetry_equiv_pos_site_id
 _symmetry_equiv_pos_as_xyz
  1  'x, y, z'
loop_
 _atom_site_type_symbol
 _atom_site_label
 _atom_site_symmetry_multiplicity
 _atom_site_fract_x
 _atom_site_fract_y
 _atom_site_fract_z
 _atom_site_occupancy
  Mg  Mg0  1  0.36114700  0.36114700  0.66137300  1
  Mg  Mg1  1  0.00262400  0.00262400  0.99690200  1
  Mg  Mg2  1  0.99725600  0.99725600  0.34402600  1
  Mg  Mg3  1  0.30953000  0.30953000  0.29313900  1
  Mg  Mg4  1  0.40641500  0.67571900  0.99495200  1
  Mg  Mg5  1  0.28413000  0.59669100  0.40086700  1
  Mg  Mg6  1  0.68456400  0.00049900  0.60144200  1
  Mg  Mg7  1  0.65026600  0.99979500  0.99746800  1
  Mg  Mg8  1  0.31918400  0.70705100  0.68710100  1
  Mg  Mg9  1  0.99708500  0.39784800  0.31843500  1
  Mg  Mg10  1  0.39784800  0.99708500  0.31843500  1
  Mg  Mg11  1  0.70705100  0.31918400  0.68710100  1
  Mg  Mg12  1  0.99979500  0.65026600  0.99746800  1
  Mg  Mg13  1  0.00049900  0.68456400  0.60144200  1
  Mg  Mg14  1  0.59669100  0.28413000  0.40086700  1
  Mg  Mg15  1  0.67571900  0.40641500  0.99495200  1
  Al  Al0  1  0.81573700  0.81573700  0.81778300  1
  Al  Al1  1  0.63414400  0.63414400  0.17947800  1
  Al  Al2  1  0.17675200  0.35926400  0.00778600  1
  Al  Al3  1  0.63222000  0.81761600  0.36398800  1
  Al  Al4  1  0.99911400  0.18482100  0.63678800  1
  Al  Al5  1  0.99552100  0.36491000  0.81897100  1
  Al  Al6  1  0.80891400  0.17989800  0.18642100  1
  Al  Al7  1  0.17989800  0.80891400  0.18642100  1
  Al  Al8  1  0.36491000  0.99552100  0.81897100  1
  Al  Al9  1  0.18482100  0.99911400  0.63678800  1
  Al  Al10  1  0.81761600  0.63222000  0.36398800  1
  Al  Al11  1  0.35926400  0.17675200  0.00778600  1
  Ag  Ag0  1  0.64129100  0.64129100  0.67885700  1
loop_
_geom_bond_atom_site_label_1
_geom_bond_atom_site_label_2
_geom_bond_distance
_geom_bond_site_symmetry_2
Mg0 Mg14 3.058356 1_555
Mg0 Mg5 3.058356 1_555
Mg0 Mg1 3.205759 1_555
Mg0 Mg8 3.351864 1_555
Mg0 Mg11 3.351864 1_555
Mg1 Mg2 3.121477 1_446
Mg1 Mg7 3.182972 1_445
Mg1 Mg12 3.182972 1_445
Mg2 Mg6 3.029993 1_565
Mg2 Mg3 3.039043 1_665
Mg3 Mg4 3.103452 1_554
Mg3 Mg5 3.118144 1_555
Mg3 Mg9 3.143843 1_455
Mg4 Mg7 3.054958 1_555
Mg4 Mg8 3.101483 1_555
Mg4 Mg6 3.147895 1_565
Mg4 Mg5 3.214647 1_556
Mg4 Mg9 3.226619 1_456
Mg5 Mg9 3.114509 1_455
Mg5 Mg8 3.152724 1_555
Mg6 Mg8 3.125824 1_545
Mg6 Mg9 3.143892 1_555
Mg10 Mg7 3.033718 1_554
Mg10 Mg14 3.114509 1_565
Mg10 Mg3 3.143843 1_565
Mg10 Mg13 3.143892 1_555
Mg10 Mg8 3.153407 1_555
Mg10 Mg5 3.163905 1_555
Mg10 Mg15 3.226619 1_564
Mg11 Mg7 3.034262 1_545
Mg11 Mg15 3.101483 1_555
Mg11 Mg13 3.125824 1_655
Mg11 Mg14 3.152724 1_555
Mg11 Mg9 3.153407 1_555
Mg11 Mg6 3.194595 1_555
Mg12 Mg9 3.033718 1_556
Mg12 Mg8 3.034262 1_655
Mg12 Mg15 3.054958 1_555
Mg13 Mg2 3.029993 1_455
Mg13 Mg5 3.121957 1_555
Mg13 Mg15 3.147895 1_455
Mg13 Mg8 3.194595 1_555
Mg14 Mg3 3.118144 1_555
Mg14 Mg6 3.121957 1_555
Mg14 Mg9 3.163905 1_555
Mg14 Mg15 3.214647 1_554
Mg15 Mg3 3.103452 1_556
Al0 Al1 2.688379 1_556
Al0 Al9 2.742174 1_655
Al0 Al4 2.742174 1_565
Al0 Mg13 2.957551 1_655
Al0 Mg6 2.957551 1_565
Al0 Mg7 3.085074 1_555
Al0 Mg12 3.085074 1_555
Al0 Mg4 3.087308 1_555
Al0 Mg15 3.087308 1_555
Al0 Mg1 3.190517 1_665
Al1 Al3 2.726190 1_555
Al1 Al10 2.726190 1_555
Al1 Mg3 2.941078 1_555
Al1 Mg14 2.967523 1_555
Al1 Mg5 2.967523 1_555
Al1 Mg7 3.098863 1_554
Al1 Mg12 3.098863 1_554
Al1 Mg15 3.099363 1_554
Al1 Mg4 3.099363 1_554
Al1 Mg1 3.218142 1_664
Al2 Al6 2.733024 1_455
Al2 Al5 2.741739 1_454
Al2 Mg4 2.876077 1_554
Al2 Mg9 2.950442 1_455
Al2 Mg8 2.964858 1_554
Al2 Mg0 3.022546 1_554
Al2 Mg2 3.040739 1_445
Al2 Mg1 3.149419 1_554
Al2 Mg3 3.166632 1_555
Al3 Al6 2.691618 1_565
Al3 Mg8 2.879440 1_555
Al3 Mg5 2.962933 1_555
Al3 Mg2 3.081994 1_555
Al3 Mg7 3.103899 1_554
Al3 Mg10 3.118993 1_555
Al3 Mg6 3.189987 1_565
Al3 Mg1 3.212235 1_664
Al4 Al5 2.683945 1_555
Al4 Al9 2.742291 1_645
Al4 Mg9 2.903029 1_555
Al4 Mg3 2.940202 1_655
Al4 Mg6 2.977435 1_555
Al4 Mg7 3.081739 1_545
Al4 Mg5 3.138653 1_655
Al4 Mg1 3.151564 1_655
Al4 Mg11 3.220664 1_555
Al4 Mg0 3.264434 1_655
Al5 Al6 2.731312 1_556
Al5 Mg13 2.887216 1_655
Al5 Mg8 2.978306 1_655
Al5 Mg15 3.020244 1_555
Al5 Mg7 3.101558 1_545
Al5 Mg0 3.157879 1_655
Al5 Mg1 3.172447 1_655
Al5 Mg5 3.183607 1_655
Al5 Mg11 3.185830 1_555
Al6 Mg14 2.881920 1_555
Al6 Mg9 2.997061 1_555
Al6 Mg15 3.055985 1_554
Al6 Mg2 3.098883 1_545
Al6 Mg7 3.106916 1_544
Al6 Mg10 3.116101 1_545
Al6 Mg6 3.163522 1_555
Al6 Mg1 3.209931 1_654
Al7 Al8 2.731312 1_554
Al7 Mg5 2.881920 1_555
Al7 Mg10 2.997061 1_555
Al7 Mg4 3.055985 1_554
Al7 Mg2 3.098883 1_455
Al7 Mg12 3.106916 1_454
Al7 Mg9 3.116101 1_455
Al7 Mg13 3.163522 1_555
Al7 Mg1 3.209931 1_564
Al8 Al9 2.683945 1_555
Al8 Mg6 2.887216 1_565
Al8 Mg11 2.978306 1_565
Al8 Mg4 3.020244 1_555
Al8 Mg12 3.101558 1_455
Al8 Mg0 3.157879 1_565
Al8 Mg1 3.172447 1_565
Al8 Mg14 3.183607 1_565
Al8 Mg8 3.185830 1_555
Al9 Mg10 2.903029 1_555
Al9 Mg3 2.940202 1_565
Al9 Mg13 2.977435 1_555
Al9 Mg12 3.081739 1_455
Al9 Mg14 3.138653 1_565
Al9 Mg1 3.151564 1_565
Al9 Mg8 3.220664 1_555
Al9 Mg0 3.264434 1_565
Al10 Al7 2.691618 1_655
Al10 Al3 2.737699 1_555
Al10 Mg11 2.879440 1_555
Al10 Mg14 2.962933 1_555
Al10 Mg2 3.081994 1_555
Al10 Mg12 3.103899 1_554
Al10 Mg9 3.118993 1_555
Al10 Mg13 3.189987 1_655
Al10 Mg1 3.212235 1_664
Al11 Al2 2.695112 1_555
Al11 Al7 2.733024 1_545
Al11 Al8 2.741739 1_544
Al11 Mg15 2.876077 1_554
Al11 Mg10 2.950442 1_545
Al11 Mg11 2.964858 1_554
Al11 Mg0 3.022546 1_554
Al11 Mg2 3.040739 1_445
Al11 Mg1 3.149419 1_554
Al11 Mg3 3.166632 1_555
Ag0 Al0 2.759273 1_555
Ag0 Al3 2.817397 1_555
Ag0 Al10 2.817397 1_555
Ag0 Mg13 2.949062 1_655
Ag0 Mg6 2.949062 1_565
Ag0 Mg0 3.037768 1_555
Ag0 Mg15 3.135463 1_555
Ag0 Mg4 3.135463 1_555
Ag0 Mg8 3.147165 1_555
Ag0 Mg11 3.147165 1_555
Ag0 Mg2 3.187160 1_555
