# generated using pymatgen
data_Ca(SnO2)2
_symmetry_space_group_name_H-M   'P 1'
_cell_length_a   3.25212600
_cell_length_b   10.26468300
_cell_length_c   12.19327100
_cell_angle_alpha   90.00000000
_cell_angle_beta   90.00000000
_cell_angle_gamma   90.00000000
_symmetry_Int_Tables_number   1
_chemical_formula_structural   Ca(SnO2)2
_chemical_formula_sum   'Ca4 Sn8 O16'
_cell_volume   407.03629032
_cell_formula_units_Z   4
loop_
 _symmetry_equiv_pos_site_id
 _symmetry_equiv_pos_as_xyz
  1  'x, y, z'
loop_
 _atom_site_type_symbol
 _atom_site_label
 _atom_site_symmetry_multiplicity
 _atom_site_fract_x
 _atom_site_fract_y
 _atom_site_fract_z
 _atom_site_occupancy
  Ca  Ca0  1  0.75000000  0.26837000  0.83899300  1
  Ca  Ca1  1  0.25000000  0.73163000  0.16100700  1
  Ca  Ca2  1  0.75000000  0.76837000  0.66100700  1
  Ca  Ca3  1  0.25000000  0.23163000  0.33899300  1
  Sn  Sn0  1  0.25000000  0.44113300  0.61106400  1
  Sn  Sn1  1  0.75000000  0.05886700  0.11106400  1
  Sn  Sn2  1  0.25000000  0.94113300  0.88893600  1
  Sn  Sn3  1  0.75000000  0.55886700  0.38893600  1
  Sn  Sn4  1  0.75000000  0.58458800  0.89295700  1
  Sn  Sn5  1  0.25000000  0.41541200  0.10704300  1
  Sn  Sn6  1  0.75000000  0.08458800  0.60704300  1
  Sn  Sn7  1  0.25000000  0.91541200  0.39295700  1
  O  O0  1  0.25000000  0.92745400  0.59165800  1
  O  O1  1  0.75000000  0.07254600  0.40834200  1
  O  O2  1  0.25000000  0.42745400  0.90834200  1
  O  O3  1  0.75000000  0.57254600  0.09165800  1
  O  O4  1  0.25000000  0.96873500  0.19195600  1
  O  O5  1  0.75000000  0.03126500  0.80804400  1
  O  O6  1  0.25000000  0.46873500  0.30804400  1
  O  O7  1  0.75000000  0.53126500  0.69195600  1
  O  O8  1  0.25000000  0.61283400  0.50344400  1
  O  O9  1  0.75000000  0.38716600  0.49655600  1
  O  O10  1  0.25000000  0.11283400  0.99655600  1
  O  O11  1  0.75000000  0.88716600  0.00344400  1
  O  O12  1  0.75000000  0.71886700  0.29444600  1
  O  O13  1  0.25000000  0.28113300  0.70555400  1
  O  O14  1  0.25000000  0.78113300  0.79444600  1
  O  O15  1  0.75000000  0.21886700  0.20555400  1
loop_
_geom_bond_atom_site_label_1
_geom_bond_atom_site_label_2
_geom_bond_distance
_geom_bond_site_symmetry_2
Ca0 O13 2.304032 1_555
Ca0 O13 2.304032 1_655
Ca0 O2 2.454714 1_555
Ca0 O2 2.454714 1_655
Ca0 O5 2.462890 1_555
Ca0 O10 2.980608 1_555
Ca0 O10 2.980608 1_655
Ca1 O12 2.304032 1_455
Ca1 O12 2.304032 1_555
Ca1 O3 2.454714 1_455
Ca1 O3 2.454714 1_555
Ca1 O4 2.462890 1_555
Ca1 O11 2.980608 1_555
Ca1 O11 2.980608 1_455
Ca2 O14 2.304032 1_555
Ca2 O14 2.304032 1_655
Ca2 O0 2.454714 1_655
Ca2 O0 2.454714 1_555
Ca2 O7 2.462890 1_555
Ca2 O8 2.980608 1_655
Ca2 O8 2.980608 1_555
Ca3 O15 2.304032 1_555
Ca3 O15 2.304032 1_455
Ca3 O1 2.454714 1_555
Ca3 O1 2.454714 1_455
Ca3 O6 2.462890 1_555
Ca3 O9 2.980608 1_455
Ca3 O9 2.980608 1_555
O0 Sn6 2.298003 1_465
O0 Sn6 2.298003 1_565
O0 Sn7 2.425966 1_555
O1 Sn7 2.298003 1_645
O1 Sn7 2.298003 1_545
O1 Sn6 2.425966 1_555
O2 Sn4 2.298003 1_455
O2 Sn4 2.298003 1_555
O2 Sn5 2.425966 1_556
O3 Sn5 2.298003 1_555
O3 Sn5 2.298003 1_655
O3 Sn4 2.425966 1_554
O4 Sn1 2.114922 1_465
O4 Sn1 2.114922 1_565
O4 Sn7 2.511234 1_555
O5 Sn2 2.114922 1_545
O5 Sn2 2.114922 1_645
O5 Sn6 2.511234 1_555
O6 Sn3 2.114922 1_555
O6 Sn3 2.114922 1_455
O6 Sn5 2.511234 1_555
O7 Sn0 2.114922 1_555
O7 Sn0 2.114922 1_655
O7 Sn4 2.511234 1_555
O8 Sn0 2.197322 1_555
O8 Sn3 2.213684 1_455
O8 Sn3 2.213684 1_555
O9 Sn3 2.197322 1_555
O9 Sn0 2.213684 1_555
O9 Sn0 2.213684 1_655
O10 Sn2 2.197322 1_545
O10 Sn1 2.213684 1_556
O10 Sn1 2.213684 1_456
O11 Sn1 2.197322 1_565
O11 Sn2 2.213684 1_554
O11 Sn2 2.213684 1_654
O12 Sn3 2.006176 1_555
O13 Sn0 2.006176 1_555
O14 Sn2 2.006176 1_555
O15 Sn1 2.006176 1_555
