# generated using pymatgen
data_CuHg(SeO3)2
_symmetry_space_group_name_H-M   'P 1'
_cell_length_a   10.57372600
_cell_length_b   7.53892200
_cell_length_c   7.73782790
_cell_angle_alpha   85.15874168
_cell_angle_beta   90.00000000
_cell_angle_gamma   90.00000000
_symmetry_Int_Tables_number   1
_chemical_formula_structural   CuHg(SeO3)2
_chemical_formula_sum   'Cu4 Hg4 Se8 O24'
_cell_volume   614.61645741
_cell_formula_units_Z   4
loop_
 _symmetry_equiv_pos_site_id
 _symmetry_equiv_pos_as_xyz
  1  'x, y, z'
loop_
 _atom_site_type_symbol
 _atom_site_label
 _atom_site_symmetry_multiplicity
 _atom_site_fract_x
 _atom_site_fract_y
 _atom_site_fract_z
 _atom_site_occupancy
  Cu  Cu0  1  0.91696700  0.98106600  0.31647300  1
  Cu  Cu1  1  0.41696700  0.51893400  0.68352700  1
  Cu  Cu2  1  0.08303300  0.01893400  0.68352700  1
  Cu  Cu3  1  0.58303300  0.48106600  0.31647300  1
  Hg  Hg0  1  0.94466500  0.51013800  0.26069400  1
  Hg  Hg1  1  0.44466500  0.98986200  0.73930600  1
  Hg  Hg2  1  0.05533500  0.48986200  0.73930600  1
  Hg  Hg3  1  0.55533500  0.01013800  0.26069400  1
  Se  Se0  1  0.10869400  0.18912100  0.04863600  1
  Se  Se1  1  0.60869400  0.31087900  0.95136400  1
  Se  Se2  1  0.89130600  0.81087900  0.95136400  1
  Se  Se3  1  0.39130600  0.68912100  0.04863600  1
  Se  Se4  1  0.78095000  0.25532300  0.56747400  1
  Se  Se5  1  0.28095000  0.24467700  0.43252600  1
  Se  Se6  1  0.21905000  0.74467700  0.43252600  1
  Se  Se7  1  0.71905000  0.75532300  0.56747400  1
  O  O0  1  0.01506500  0.15842000  0.86702000  1
  O  O1  1  0.51506500  0.34158000  0.13298000  1
  O  O2  1  0.98493500  0.84158000  0.13298000  1
  O  O3  1  0.48493500  0.65842000  0.86702000  1
  O  O4  1  0.14286600  0.41251700  0.00426600  1
  O  O5  1  0.64286600  0.08748300  0.99573400  1
  O  O6  1  0.85713400  0.58748300  0.99573400  1
  O  O7  1  0.35713400  0.91251700  0.00426600  1
  O  O8  1  0.99210600  0.20631800  0.20835100  1
  O  O9  1  0.49210600  0.29368200  0.79164900  1
  O  O10  1  0.00789400  0.79368200  0.79164900  1
  O  O11  1  0.50789400  0.70631800  0.20835100  1
  O  O12  1  0.88286900  0.08014700  0.53807300  1
  O  O13  1  0.38286900  0.41985300  0.46192700  1
  O  O14  1  0.11713100  0.91985300  0.46192700  1
  O  O15  1  0.61713100  0.58014700  0.53807300  1
  O  O16  1  0.71080300  0.28763300  0.36386100  1
  O  O17  1  0.21080300  0.21236700  0.63613900  1
  O  O18  1  0.28919700  0.71236700  0.63613900  1
  O  O19  1  0.78919700  0.78763300  0.36386100  1
  O  O20  1  0.88433800  0.43695200  0.55019300  1
  O  O21  1  0.38433800  0.06304800  0.44980700  1
  O  O22  1  0.11566200  0.56304800  0.44980700  1
  O  O23  1  0.61566200  0.93695200  0.55019300  1
loop_
_geom_bond_atom_site_label_1
_geom_bond_atom_site_label_2
_geom_bond_distance
_geom_bond_site_symmetry_2
Cu0 O12 1.960699 1_565
Cu0 O2 1.972373 1_555
Cu0 O8 1.993768 1_565
Cu0 O19 1.998995 1_555
Cu0 O14 2.423123 1_655
Cu1 O13 1.960699 1_555
Cu1 O3 1.972373 1_555
Cu1 O9 1.993768 1_555
Cu1 O18 1.998995 1_555
Cu1 O15 2.423123 1_555
Cu2 O14 1.960699 1_545
Cu2 O0 1.972373 1_555
Cu2 O10 1.993768 1_545
Cu2 O17 1.998995 1_555
Cu2 O12 2.423123 1_455
Cu3 O15 1.960699 1_555
Cu3 O1 1.972373 1_555
Cu3 O11 1.993768 1_555
Cu3 O16 1.998995 1_555
Cu3 O13 2.423123 1_555
Hg0 O6 2.279957 1_554
Hg0 O20 2.349620 1_555
Hg0 O22 2.380774 1_655
Hg0 O8 2.412164 1_555
Hg0 O2 2.642856 1_555
Hg1 O7 2.279957 1_556
Hg1 O21 2.349620 1_565
Hg1 O23 2.380774 1_555
Hg1 O9 2.412164 1_565
Hg1 O3 2.642856 1_555
Hg2 O4 2.279957 1_556
Hg2 O22 2.349620 1_555
Hg2 O20 2.380774 1_455
Hg2 O10 2.412164 1_555
Hg2 O0 2.642856 1_555
Hg3 O5 2.279957 1_554
Hg3 O23 2.349620 1_545
Hg3 O21 2.380774 1_555
Hg3 O11 2.412164 1_545
Hg3 O1 2.642856 1_555
O0 Se0 1.750283 1_556
O1 Se1 1.750283 1_554
O2 Se2 1.750283 1_554
O3 Se3 1.750283 1_556
O4 Se0 1.728364 1_555
O5 Se1 1.728364 1_555
O6 Se2 1.728364 1_555
O7 Se3 1.728364 1_555
O8 Se0 1.758093 1_655
O9 Se1 1.758093 1_555
O10 Se2 1.758093 1_455
O11 Se3 1.758093 1_555
O12 Se4 1.734333 1_555
O13 Se5 1.734333 1_555
O14 Se6 1.734333 1_555
O15 Se7 1.734333 1_555
O16 Se4 1.739818 1_555
O17 Se5 1.739818 1_555
O18 Se6 1.739818 1_555
O19 Se7 1.739818 1_555
O20 Se4 1.748428 1_555
O21 Se5 1.748428 1_555
O22 Se6 1.748428 1_555
O23 Se7 1.748428 1_555
