# generated using pymatgen
data_Al
_symmetry_space_group_name_H-M   'P 1'
_cell_length_a   12.27731983
_cell_length_b   12.11408711
_cell_length_c   11.90356656
_cell_angle_alpha   96.20779872
_cell_angle_beta   92.36207185
_cell_angle_gamma   92.42355869
_symmetry_Int_Tables_number   1
_chemical_formula_structural   Al
_chemical_formula_sum   Al100
_cell_volume   1756.57501811
_cell_formula_units_Z   100
loop_
 _symmetry_equiv_pos_site_id
 _symmetry_equiv_pos_as_xyz
  1  'x, y, z'
loop_
 _atom_site_type_symbol
 _atom_site_label
 _atom_site_symmetry_multiplicity
 _atom_site_fract_x
 _atom_site_fract_y
 _atom_site_fract_z
 _atom_site_occupancy
  Al  Al0  1  0.10079012  0.75759926  0.28311821  1
  Al  Al1  1  0.36568162  0.11848681  0.31385445  1
  Al  Al2  1  0.60560777  0.53297281  0.61730994  1
  Al  Al3  1  0.51728632  0.93847309  0.90344109  1
  Al  Al4  1  0.79708022  0.23683367  0.98450289  1
  Al  Al5  1  0.74312589  0.85124474  0.03054997  1
  Al  Al6  1  0.94401298  0.30074837  0.37792395  1
  Al  Al7  1  0.48756685  0.12663267  0.71809730  1
  Al  Al8  1  0.01596639  0.49968492  0.27266921  1
  Al  Al9  1  0.07199525  0.08803076  0.98303108  1
  Al  Al10  1  0.20183442  0.26127603  0.90822552  1
  Al  Al11  1  0.71217319  0.54971830  0.15867903  1
  Al  Al12  1  0.71820853  0.64372718  0.86266372  1
  Al  Al13  1  0.30910156  0.29401333  0.46035254  1
  Al  Al14  1  0.13472942  0.07653653  0.76053693  1
  Al  Al15  1  0.56231349  0.66533689  0.02628113  1
  Al  Al16  1  0.15065416  0.43788486  0.42830986  1
  Al  Al17  1  0.20081225  0.37910917  0.69021312  1
  Al  Al18  1  0.73054033  0.99393442  0.26358456  1
  Al  Al19  1  0.98932187  0.25098175  0.13799709  1
  Al  Al20  1  0.46149617  0.71094306  0.57426632  1
  Al  Al21  1  0.62344250  0.31461610  0.71455517  1
  Al  Al22  1  0.19907566  0.91439194  0.89865186  1
  Al  Al23  1  0.35432572  0.35065815  0.25495581  1
  Al  Al24  1  0.10035843  0.24031333  0.52648537  1
  Al  Al25  1  0.71050535  0.43566128  0.94674711  1
  Al  Al26  1  0.88485940  0.04169201  0.09627275  1
  Al  Al27  1  0.16972650  0.03783466  0.42637043  1
  Al  Al28  1  0.97448577  0.07886443  0.58588372  1
  Al  Al29  1  0.32344310  0.55283815  0.81615608  1
  Al  Al30  1  0.40538253  0.52899500  0.41785561  1
  Al  Al31  1  0.40748486  0.73132954  0.19046711  1
  Al  Al32  1  0.79125747  0.14286362  0.46089927  1
  Al  Al33  1  0.27369920  0.74795089  0.73460459  1
  Al  Al34  1  0.37375569  0.76485406  0.95568587  1
  Al  Al35  1  0.68102168  0.76242729  0.21966664  1
  Al  Al36  1  0.25088277  0.17831366  0.10879633  1
  Al  Al37  1  0.56756028  0.24910887  0.93212195  1
  Al  Al38  1  0.86850095  0.66917810  0.05122882  1
  Al  Al39  1  0.78671276  0.21369724  0.22117272  1
  Al  Al40  1  0.17948562  0.88419653  0.58329867  1
  Al  Al41  1  0.40239984  0.36353072  0.03580005  1
  Al  Al42  1  0.78177212  0.97431440  0.62648972  1
  Al  Al43  1  0.07390646  0.60172634  0.08912263  1
  Al  Al44  1  0.55542440  0.91291603  0.66960892  1
  Al  Al45  1  0.99863534  0.86341146  0.00246537  1
  Al  Al46  1  0.24173176  0.56825702  0.26443775  1
  Al  Al47  1  0.56725612  0.38676198  0.40727257  1
  Al  Al48  1  0.87003502  0.65831198  0.32563951  1
  Al  Al49  1  0.97139085  0.37442207  0.66417992  1
  Al  Al50  1  0.99235329  0.90103252  0.71062416  1
  Al  Al51  1  0.49743843  0.20681582  0.51896524  1
  Al  Al52  1  0.09892307  0.67011928  0.48119610  1
  Al  Al53  1  0.62019650  0.34206880  0.15671969  1
  Al  Al54  1  0.68905286  0.74042256  0.60757410  1
  Al  Al55  1  0.51920372  0.71864912  0.79457703  1
  Al  Al56  1  0.90068195  0.43896368  0.07713453  1
  Al  Al57  1  0.42390923  0.41696729  0.62413733  1
  Al  Al58  1  0.29772832  0.90276125  0.29151308  1
  Al  Al59  1  0.38600364  0.96844779  0.50815426  1
  Al  Al60  1  0.11859858  0.99627887  0.18603434  1
  Al  Al61  1  0.47416759  0.16137135  0.12084842  1
  Al  Al62  1  0.12811103  0.69397908  0.89304923  1
  Al  Al63  1  0.88630273  0.04705583  0.85569432  1
  Al  Al64  1  0.30505765  0.56657164  0.04295890  1
  Al  Al65  1  0.67728344  0.08701454  0.80926035  1
  Al  Al66  1  0.52097496  0.82100714  0.38183211  1
  Al  Al67  1  0.33977597  0.97259356  0.08448202  1
  Al  Al68  1  0.30058980  0.74159541  0.42641760  1
  Al  Al69  1  0.34405208  0.95633086  0.73310735  1
  Al  Al70  1  0.82037999  0.21227622  0.69998091  1
  Al  Al71  1  0.90956409  0.50369742  0.86565570  1
  Al  Al72  1  0.81742945  0.55153020  0.67256705  1
  Al  Al73  1  0.73050250  0.86473513  0.81110295  1
  Al  Al74  1  0.90705424  0.85460546  0.21897554  1
  Al  Al75  1  0.54061504  0.91131225  0.14182917  1
  Al  Al76  1  0.60860755  0.01510635  0.47862475  1
  Al  Al77  1  0.91755932  0.72871599  0.81680030  1
  Al  Al78  1  0.26853234  0.56887379  0.58806079  1
  Al  Al79  1  0.12590897  0.46525640  0.89615944  1
  Al  Al80  1  0.14537607  0.22269699  0.30038406  1
  Al  Al81  1  0.20413212  0.79077505  0.09624666  1
  Al  Al82  1  0.38569913  0.31060560  0.80714603  1
  Al  Al83  1  0.06415386  0.58856087  0.69025377  1
  Al  Al84  1  0.93510993  0.50794983  0.48871297  1
  Al  Al85  1  0.76570363  0.84154951  0.42573490  1
  Al  Al86  1  0.90361621  0.72386289  0.57294451  1
  Al  Al87  1  0.36345897  0.11186707  0.91178048  1
  Al  Al88  1  0.63126073  0.62217307  0.39363158  1
  Al  Al89  1  0.49139177  0.52826648  0.20168220  1
  Al  Al90  1  0.99102638  0.88030983  0.44924452  1
  Al  Al91  1  0.98309652  0.27251095  0.87058119  1
  Al  Al92  1  0.75774055  0.35692032  0.53931753  1
  Al  Al93  1  0.59289062  0.17031125  0.31799934  1
  Al  Al94  1  0.66468634  0.06942584  0.04426831  1
  Al  Al95  1  0.77546402  0.43525317  0.32730512  1
  Al  Al96  1  0.53142001  0.49385710  0.83865322  1
  Al  Al97  1  0.95557684  0.06945941  0.33310951  1
  Al  Al98  1  0.28520041  0.15453470  0.62874530  1
  Al  Al99  1  0.16830353  0.39109402  0.11349681  1
loop_
_geom_bond_atom_site_label_1
_geom_bond_atom_site_label_2
_geom_bond_distance
_geom_bond_site_symmetry_2
Al0 Al81 2.665006 1_555
Al0 Al52 2.688074 1_555
Al0 Al90 2.773017 1_455
Al0 Al74 2.811087 1_455
Al0 Al43 2.819305 1_555
Al0 Al58 2.920775 1_555
Al0 Al46 2.926065 1_555
Al0 Al68 2.954881 1_555
Al0 Al48 3.112994 1_455
Al1 Al58 2.691320 1_545
Al1 Al13 2.732715 1_555
Al1 Al61 2.788199 1_555
Al1 Al93 2.830517 1_555
Al1 Al36 2.941979 1_555
Al1 Al51 2.947180 1_555
Al1 Al23 2.978750 1_555
Al1 Al27 2.980960 1_555
Al1 Al80 3.038410 1_555
Al1 Al67 3.084933 1_545
Al1 Al59 3.100829 1_545
Al2 Al57 2.594674 1_555
Al2 Al72 2.650263 1_555
Al2 Al54 2.689520 1_555
Al2 Al96 2.903016 1_555
Al2 Al47 2.912829 1_555
Al2 Al20 2.920249 1_555
Al2 Al92 2.991756 1_555
Al2 Al88 3.003115 1_555
Al2 Al21 3.012515 1_555
Al2 Al55 3.161814 1_555
Al3 Al94 2.744753 1_566
Al3 Al34 2.824070 1_555
Al3 Al44 2.827708 1_555
Al3 Al55 2.834207 1_555
Al3 Al87 2.880038 1_565
Al3 Al75 2.895783 1_556
Al3 Al69 2.908554 1_555
Al3 Al65 2.944880 1_565
Al3 Al73 3.013491 1_555
Al3 Al67 3.136122 1_556
Al4 Al94 2.718363 1_556
Al4 Al91 2.745896 1_555
Al4 Al56 2.804729 1_556
Al4 Al63 2.902636 1_555
Al4 Al65 2.917388 1_555
Al5 Al73 2.633519 1_554
Al5 Al94 2.841613 1_565
Al5 Al75 2.946484 1_555
Al5 Al74 2.946899 1_555
Al6 Al84 2.714905 1_555
Al6 Al95 2.773960 1_555
Al6 Al97 2.805665 1_555
Al6 Al80 2.838089 1_655
Al6 Al8 2.953327 1_655
Al6 Al92 3.097574 1_555
Al7 Al98 2.710957 1_555
Al7 Al82 2.736566 1_555
Al7 Al87 2.832812 1_555
Al8 Al84 2.787872 1_455
Al8 Al99 2.963034 1_555
Al9 Al91 2.951297 1_455
Al10 Al82 2.676903 1_555
Al10 Al79 2.693715 1_555
Al10 Al91 2.715919 1_455
Al10 Al36 2.743078 1_556
Al10 Al87 2.743833 1_555
Al10 Al14 2.766156 1_555
Al10 Al99 2.814204 1_556
Al10 Al9 2.824322 1_555
Al10 Al41 2.988473 1_556
Al10 Al17 3.093929 1_555
Al11 Al35 2.648536 1_555
Al11 Al95 2.668358 1_555
Al11 Al53 2.710768 1_555
Al11 Al25 2.741032 1_554
Al11 Al89 2.785769 1_555
Al11 Al38 2.789550 1_555
Al11 Al56 2.874863 1_555
Al11 Al15 2.878710 1_555
Al11 Al48 2.887590 1_555
Al11 Al88 3.057943 1_555
Al12 Al77 2.714196 1_555
Al12 Al55 2.762875 1_555
Al12 Al72 2.765402 1_555
Al12 Al15 2.786479 1_556
Al12 Al73 2.810036 1_555
Al12 Al25 2.810166 1_555
Al12 Al38 2.828218 1_556
Al12 Al96 2.849308 1_555
Al12 Al71 2.956585 1_555
Al12 Al5 3.033982 1_556
Al13 Al57 2.640878 1_555
Al13 Al51 2.679958 1_555
Al13 Al23 2.683182 1_555
Al13 Al16 2.708627 1_555
Al13 Al80 2.755852 1_555
Al13 Al98 2.774526 1_555
Al13 Al24 2.783330 1_555
Al14 Al98 2.679282 1_555
Al14 Al50 2.693618 1_445
Al14 Al9 2.779295 1_555
Al14 Al28 2.806023 1_455
Al14 Al22 2.812086 1_545
Al14 Al69 3.019007 1_545
Al14 Al40 3.053320 1_545
Al15 Al35 2.792751 1_555
Al15 Al34 2.795258 1_554
Al15 Al31 2.858141 1_555
Al15 Al96 2.882277 1_554
Al15 Al55 2.932266 1_554
Al15 Al89 2.941438 1_555
Al15 Al5 3.089597 1_555
Al15 Al75 3.170609 1_555
Al16 Al8 2.622870 1_555
Al16 Al78 2.674862 1_555
Al16 Al24 2.831038 1_555
Al16 Al80 2.870113 1_555
Al16 Al46 2.871664 1_555
Al16 Al84 2.907773 1_455
Al16 Al52 2.918122 1_555
Al16 Al6 2.976339 1_455
Al17 Al24 2.657870 1_555
Al17 Al79 2.767364 1_555
Al17 Al29 2.794119 1_555
Al17 Al82 2.815547 1_555
Al17 Al49 2.818450 1_455
Al17 Al78 2.825012 1_555
Al17 Al57 2.912152 1_555
Al17 Al98 2.979992 1_555
Al17 Al83 3.100455 1_555
Al18 Al75 2.783850 1_555
Al18 Al93 2.817286 1_565
Al18 Al39 2.825249 1_565
Al18 Al35 2.832073 1_555
Al18 Al74 2.835057 1_555
Al18 Al85 2.844109 1_555
Al18 Al32 2.855300 1_565
Al18 Al26 2.891078 1_565
Al18 Al97 2.930749 1_565
Al18 Al94 2.951334 1_565
Al18 Al76 3.010890 1_565
Al18 Al5 3.118888 1_555
Al19 Al56 2.719626 1_555
Al19 Al80 2.723619 1_655
Al19 Al39 2.752566 1_555
Al19 Al99 2.763887 1_655
Al19 Al26 2.778438 1_555
Al19 Al9 2.804626 1_654
Al19 Al4 2.912211 1_554
Al19 Al6 2.935387 1_555
Al20 Al68 2.656052 1_555
Al20 Al55 2.678881 1_555
Al20 Al44 2.767176 1_555
Al20 Al30 2.770853 1_555
Al20 Al54 2.807787 1_555
Al20 Al66 2.876485 1_555
Al20 Al78 2.889607 1_555
Al20 Al33 3.069987 1_555
Al21 Al70 2.766718 1_555
Al21 Al7 2.770518 1_555
Al21 Al92 2.788489 1_555
Al21 Al96 2.797256 1_555
Al21 Al37 2.890071 1_555
Al21 Al51 2.897218 1_555
Al21 Al57 3.004179 1_555
Al21 Al25 3.111166 1_555
Al22 Al67 2.760245 1_556
Al22 Al62 2.766392 1_555
Al22 Al69 2.781823 1_555
Al22 Al9 2.795980 1_565
Al22 Al33 2.858352 1_555
Al22 Al45 2.872552 1_456
Al22 Al81 2.921687 1_556
Al22 Al34 2.969234 1_555
Al22 Al87 3.050427 1_565
Al23 Al41 2.717589 1_555
Al23 Al30 2.774808 1_555
Al23 Al36 2.794068 1_555
Al23 Al89 2.817805 1_555
Al23 Al99 2.871819 1_555
Al23 Al46 3.021404 1_555
Al23 Al80 3.039018 1_555
Al23 Al47 3.107070 1_555
Al23 Al61 3.107811 1_555
Al24 Al28 2.616642 1_455
Al24 Al6 2.732546 1_455
Al24 Al80 2.757370 1_555
Al24 Al49 2.772817 1_455
Al24 Al27 2.791078 1_555
Al24 Al98 2.820782 1_555
Al25 Al96 2.661000 1_555
Al25 Al56 2.746282 1_556
Al25 Al4 2.746714 1_555
Al25 Al37 2.787791 1_555
Al25 Al71 2.789248 1_555
Al25 Al53 3.081703 1_556
Al26 Al39 2.773840 1_555
Al26 Al9 2.778606 1_654
Al26 Al45 2.779317 1_545
Al26 Al94 2.790498 1_555
Al26 Al74 2.842434 1_545
Al26 Al5 2.849670 1_545
Al26 Al63 2.872260 1_554
Al26 Al97 2.895394 1_555
Al26 Al4 3.049154 1_554
Al26 Al60 3.112448 1_645
Al27 Al58 2.753434 1_545
Al27 Al40 2.778512 1_545
Al27 Al80 2.845965 1_555
Al27 Al97 2.868512 1_455
Al27 Al90 2.887320 1_445
Al27 Al60 2.888898 1_545
Al27 Al98 2.936689 1_555
Al27 Al59 2.976168 1_545
Al28 Al42 2.721938 1_545
Al28 Al50 2.756578 1_545
Al28 Al90 2.773927 1_545
Al28 Al32 2.827734 1_555
Al28 Al70 2.834075 1_555
Al28 Al97 2.997747 1_555
Al29 Al96 2.690982 1_555
Al29 Al64 2.706218 1_556
Al29 Al33 2.733395 1_555
Al29 Al78 2.799734 1_555
Al29 Al79 2.847001 1_555
Al29 Al34 2.931794 1_555
Al29 Al57 3.007570 1_555
Al29 Al82 3.055315 1_555
Al29 Al55 3.103425 1_555
Al29 Al62 3.114735 1_555
Al30 Al47 2.682840 1_555
Al30 Al78 2.701616 1_555
Al30 Al46 2.750340 1_555
Al30 Al89 2.820732 1_555
Al30 Al68 2.921118 1_555
Al30 Al57 2.936610 1_555
Al30 Al88 2.986529 1_555
Al31 Al66 2.717670 1_555
Al31 Al89 2.721077 1_555
Al31 Al58 2.721294 1_555
Al31 Al64 2.737857 1_555
Al31 Al75 2.794668 1_555
Al31 Al81 2.847023 1_555
Al31 Al34 2.882923 1_554
Al31 Al46 3.000490 1_555
Al31 Al68 3.141408 1_555
Al32 Al76 2.698977 1_555
Al32 Al97 2.699384 1_555
Al32 Al92 2.713533 1_555
Al32 Al70 2.882246 1_555
Al32 Al6 2.899797 1_555
Al32 Al93 2.963881 1_555
Al32 Al42 2.989501 1_545
Al32 Al39 3.066423 1_555
Al33 Al78 2.629424 1_555
Al33 Al69 2.635380 1_555
Al33 Al62 2.761402 1_555
Al33 Al40 2.817548 1_555
Al33 Al34 2.841176 1_555
Al33 Al55 3.112649 1_555
Al33 Al83 3.142130 1_555
Al34 Al55 2.704546 1_555
Al34 Al81 2.732016 1_556
Al34 Al64 2.828570 1_556
Al34 Al67 2.857407 1_556
Al35 Al85 2.685814 1_555
Al35 Al5 2.720788 1_555
Al35 Al75 2.752403 1_555
Al35 Al66 2.867955 1_555
Al35 Al88 2.885422 1_555
Al35 Al74 2.947849 1_555
Al35 Al48 2.986211 1_555
Al36 Al80 2.684258 1_555
Al36 Al9 2.726285 1_554
Al36 Al67 2.754187 1_545
Al36 Al61 2.756661 1_555
Al36 Al99 2.805308 1_555
Al36 Al87 2.830399 1_554
Al36 Al60 2.933344 1_545
Al36 Al41 3.074358 1_555
Al37 Al65 2.752168 1_555
Al37 Al41 2.762267 1_556
Al37 Al82 2.803558 1_555
Al37 Al53 2.824600 1_556
Al37 Al61 2.849015 1_556
Al37 Al4 2.874379 1_555
Al37 Al7 2.917097 1_555
Al37 Al87 2.934696 1_555
Al37 Al94 2.942573 1_556
Al38 Al43 2.718637 1_655
Al38 Al5 2.769078 1_555
Al38 Al74 2.849405 1_555
Al38 Al56 2.880615 1_555
Al38 Al71 2.893433 1_554
Al38 Al45 2.912025 1_555
Al38 Al77 3.034327 1_554
Al39 Al6 2.725520 1_555
Al39 Al93 2.742001 1_555
Al39 Al53 2.753917 1_555
Al39 Al95 2.851512 1_555
Al39 Al4 2.868582 1_554
Al39 Al94 2.907907 1_555
Al39 Al97 3.115901 1_555
Al40 Al69 2.691180 1_555
Al40 Al90 2.751781 1_455
Al40 Al50 2.806592 1_455
Al40 Al52 2.860637 1_555
Al40 Al68 2.903555 1_555
Al40 Al59 2.904481 1_555
Al41 Al82 2.725209 1_554
Al41 Al64 2.774365 1_555
Al41 Al89 2.803712 1_555
Al41 Al61 2.905843 1_555
Al41 Al53 3.018597 1_555
Al41 Al99 3.075819 1_555
Al42 Al85 2.727523 1_555
Al42 Al73 2.768003 1_555
Al42 Al76 2.798318 1_565
Al42 Al65 2.824667 1_565
Al42 Al44 2.926520 1_555
Al42 Al70 2.933384 1_565
Al42 Al50 2.940782 1_555
Al42 Al54 2.990438 1_555
Al42 Al63 2.993860 1_565
Al43 Al81 2.728622 1_555
Al43 Al8 2.728645 1_555
Al43 Al62 2.787198 1_554
Al43 Al79 2.793850 1_554
Al43 Al56 2.826753 1_455
Al43 Al99 2.884541 1_555
Al43 Al46 2.943481 1_555
Al43 Al64 2.952498 1_555
Al44 Al7 2.762049 1_565
Al44 Al54 2.767556 1_555
Al44 Al69 2.788106 1_555
Al44 Al76 2.791022 1_565
Al44 Al73 2.796082 1_555
Al44 Al65 2.867003 1_565
Al44 Al59 2.922528 1_555
Al44 Al55 2.944838 1_555
Al45 Al77 2.727476 1_554
Al45 Al74 2.864602 1_555
Al45 Al9 2.866167 1_664
Al45 Al62 2.881754 1_654
Al45 Al60 2.882410 1_655
Al45 Al81 2.924683 1_655
Al45 Al5 3.167344 1_555
Al46 Al99 2.741515 1_555
Al46 Al68 2.744158 1_555
Al46 Al64 2.777423 1_555
Al46 Al8 2.868405 1_555
Al47 Al93 2.756535 1_555
Al47 Al51 2.795896 1_555
Al47 Al92 2.821680 1_555
Al47 Al95 2.824894 1_555
Al47 Al88 2.949187 1_555
Al47 Al53 3.074257 1_555
Al48 Al8 2.724418 1_655
Al48 Al85 2.789619 1_555
Al48 Al74 2.842933 1_555
Al48 Al95 2.897978 1_555
Al48 Al84 2.912764 1_555
Al48 Al86 2.972085 1_555
Al48 Al88 3.099049 1_555
Al49 Al70 2.723124 1_555
Al49 Al83 2.769403 1_655
Al49 Al84 2.809352 1_555
Al49 Al71 2.866840 1_555
Al49 Al91 2.867594 1_555
Al49 Al72 2.915193 1_555
Al49 Al92 2.949224 1_555
Al50 Al77 2.702260 1_555
Al50 Al86 2.715433 1_555
Al50 Al63 2.743336 1_565
Al51 Al7 2.662440 1_555
Al51 Al93 2.708818 1_555
Al51 Al76 2.750966 1_555
Al51 Al57 2.908876 1_555
Al51 Al98 3.036218 1_555
Al51 Al59 3.130115 1_545
Al52 Al68 2.716431 1_555
Al52 Al86 2.749618 1_455
Al52 Al84 2.762421 1_455
Al52 Al78 2.791721 1_555
Al52 Al83 2.816877 1_555
Al52 Al90 2.972556 1_455
Al53 Al61 2.755198 1_555
Al53 Al89 2.825837 1_555
Al53 Al95 2.834536 1_555
Al53 Al93 2.997538 1_555
Al54 Al86 2.695519 1_555
Al54 Al73 2.727799 1_555
Al54 Al85 2.777674 1_555
Al54 Al88 2.831457 1_555
Al54 Al72 2.984323 1_555
Al54 Al55 3.136269 1_555
Al55 Al96 2.837316 1_555
Al55 Al73 3.065076 1_555
Al56 Al8 2.689247 1_655
Al56 Al71 2.721440 1_554
Al57 Al82 2.695565 1_555
Al57 Al78 2.758629 1_555
Al57 Al96 2.869502 1_555
Al58 Al68 2.659126 1_555
Al58 Al81 2.744006 1_555
Al58 Al67 2.752135 1_555
Al58 Al59 2.776850 1_555
Al58 Al60 2.826170 1_555
Al59 Al69 2.765761 1_555
Al59 Al76 2.811356 1_565
Al59 Al66 2.841134 1_555
Al59 Al98 2.890760 1_565
Al59 Al68 2.948278 1_555
Al59 Al7 3.158737 1_565
Al60 Al9 2.814741 1_564
Al60 Al97 2.821355 1_465
Al60 Al81 2.860213 1_555
Al60 Al80 2.926345 1_565
Al60 Al67 3.029657 1_555
Al60 Al74 3.114032 1_455
Al61 Al93 2.700651 1_555
Al61 Al67 2.747267 1_545
Al61 Al94 2.778365 1_555
Al61 Al87 2.780279 1_554
Al62 Al83 2.677126 1_555
Al62 Al81 2.684125 1_556
Al62 Al77 2.768458 1_455
Al62 Al79 2.774019 1_555
Al63 Al65 2.677909 1_555
Al63 Al9 2.682941 1_655
Al63 Al73 2.850295 1_545
Al63 Al91 2.916583 1_555
Al63 Al70 2.985354 1_555
Al64 Al99 2.871091 1_555
Al64 Al79 2.896309 1_554
Al64 Al89 2.990261 1_555
Al64 Al81 3.048162 1_555
Al65 Al7 2.613806 1_555
Al65 Al70 2.733316 1_555
Al65 Al73 2.799729 1_545
Al65 Al94 2.838438 1_556
Al66 Al76 2.666795 1_565
Al66 Al88 2.826341 1_555
Al66 Al68 2.921778 1_555
Al66 Al85 3.023564 1_555
Al67 Al75 2.687520 1_555
Al67 Al81 2.723966 1_555
Al67 Al87 2.813388 1_564
Al68 Al78 3.016396 1_555
Al69 Al87 2.680294 1_565
Al69 Al7 2.681587 1_565
Al69 Al98 2.923735 1_565
Al70 Al91 2.805198 1_555
Al70 Al92 2.834915 1_555
Al71 Al72 2.650906 1_555
Al71 Al79 2.732295 1_655
Al71 Al77 2.846622 1_555
Al71 Al91 2.984437 1_555
Al71 Al83 3.105524 1_655
Al72 Al84 2.689061 1_555
Al72 Al86 2.708552 1_555
Al72 Al92 2.749573 1_555
Al72 Al77 2.805716 1_555
Al72 Al83 3.038615 1_655
Al73 Al77 2.885344 1_555
Al74 Al97 2.830626 1_565
Al74 Al90 2.868511 1_555
Al74 Al85 3.083353 1_555
Al75 Al94 2.778110 1_565
Al76 Al93 2.829452 1_555
Al76 Al85 2.948479 1_545
Al77 Al83 2.884411 1_655
Al77 Al86 2.894827 1_555
Al78 Al83 2.841181 1_555
Al79 Al91 2.841634 1_455
Al79 Al99 2.863967 1_556
Al79 Al83 3.089968 1_555
Al80 Al97 2.982123 1_455
Al82 Al96 2.774565 1_555
Al82 Al87 2.836030 1_555
Al82 Al98 2.885322 1_555
Al83 Al84 2.875467 1_455
Al83 Al86 3.010403 1_455
Al84 Al95 2.736133 1_555
Al84 Al86 2.747080 1_555
Al84 Al92 2.908916 1_555
Al85 Al90 2.783783 1_555
Al85 Al86 2.910316 1_555
Al85 Al88 3.048023 1_555
Al86 Al90 2.733761 1_555
Al88 Al89 2.900493 1_555
Al88 Al95 2.992112 1_555
Al90 Al97 2.840901 1_565
Al92 Al95 2.804038 1_555
