# generated using pymatgen
data_La4Co3ReO12
_symmetry_space_group_name_H-M   'P 1'
_cell_length_a   5.55268894
_cell_length_b   8.04308900
_cell_length_c   5.55268894
_cell_angle_alpha   90.00000000
_cell_angle_beta   90.00000000
_cell_angle_gamma   90.00000000
_symmetry_Int_Tables_number   1
_chemical_formula_structural   La4Co3ReO12
_chemical_formula_sum   'La4 Co3 Re1 O12'
_cell_volume   247.98737062
_cell_formula_units_Z   1
loop_
 _symmetry_equiv_pos_site_id
 _symmetry_equiv_pos_as_xyz
  1  'x, y, z'
loop_
 _atom_site_type_symbol
 _atom_site_label
 _atom_site_symmetry_multiplicity
 _atom_site_fract_x
 _atom_site_fract_y
 _atom_site_fract_z
 _atom_site_occupancy
  La  La0  1  0.50000000  0.27252400  0.00000000  1
  La  La1  1  0.00000000  0.72747600  0.50000000  1
  La  La2  1  0.50000000  0.72747600  0.00000000  1
  La  La3  1  0.00000000  0.27252400  0.50000000  1
  Co  Co0  1  0.00000000  0.00000000  0.00000000  1
  Co  Co1  1  0.50000000  0.50000000  0.50000000  1
  Co  Co2  1  0.00000000  0.50000000  0.00000000  1
  Re  Re0  1  0.50000000  0.00000000  0.50000000  1
  O  O0  1  0.00000000  0.25396200  0.00000000  1
  O  O1  1  0.50000000  0.75771800  0.50000000  1
  O  O2  1  0.25245400  0.50000000  0.25245400  1
  O  O3  1  0.74350300  0.00000000  0.74350300  1
  O  O4  1  0.25245400  0.50000000  0.74754600  1
  O  O5  1  0.74350300  0.00000000  0.25649700  1
  O  O6  1  0.00000000  0.74603800  0.00000000  1
  O  O7  1  0.50000000  0.24228200  0.50000000  1
  O  O8  1  0.74754600  0.50000000  0.74754600  1
  O  O9  1  0.25649700  0.00000000  0.25649700  1
  O  O10  1  0.74754600  0.50000000  0.25245400  1
  O  O11  1  0.25649700  0.00000000  0.74350300  1
loop_
_geom_bond_atom_site_label_1
_geom_bond_atom_site_label_2
_geom_bond_distance
_geom_bond_site_symmetry_2
La0 O10 2.683633 1_555
La0 O8 2.683633 1_554
La0 O2 2.683633 1_555
La0 O4 2.683633 1_554
La0 O0 2.780356 1_555
La0 O0 2.780356 1_655
La0 O7 2.786979 1_555
La0 O7 2.786979 1_554
La0 O5 2.942996 1_555
La0 O9 2.942996 1_555
La0 O3 2.942996 1_554
La0 O11 2.942996 1_554
La1 O4 2.683633 1_555
La1 O8 2.683633 1_455
La1 O2 2.683633 1_555
La1 O10 2.683633 1_455
La1 O6 2.780356 1_556
La1 O6 2.780356 1_555
La1 O1 2.786979 1_455
La1 O1 2.786979 1_555
La1 O11 2.942996 1_565
La1 O9 2.942996 1_565
La1 O3 2.942996 1_465
La1 O5 2.942996 1_465
La2 O10 2.683633 1_555
La2 O8 2.683633 1_554
La2 O2 2.683633 1_555
La2 O4 2.683633 1_554
La2 O6 2.780356 1_555
La2 O6 2.780356 1_655
La2 O1 2.786979 1_555
La2 O1 2.786979 1_554
La2 O5 2.942996 1_565
La2 O9 2.942996 1_565
La2 O3 2.942996 1_564
La2 O11 2.942996 1_564
La3 O4 2.683633 1_555
La3 O8 2.683633 1_455
La3 O2 2.683633 1_555
La3 O10 2.683633 1_455
La3 O0 2.780356 1_556
La3 O0 2.780356 1_555
La3 O7 2.786979 1_455
La3 O7 2.786979 1_555
La3 O11 2.942996 1_555
La3 O9 2.942996 1_555
La3 O3 2.942996 1_455
La3 O5 2.942996 1_455
Co0 O9 2.014191 1_555
Co0 O5 2.014191 1_455
Co0 O11 2.014191 1_554
Co0 O3 2.014191 1_454
Co0 O0 2.042639 1_555
Co0 O6 2.042639 1_545
Co1 O8 1.943902 1_555
Co1 O10 1.943902 1_555
Co1 O4 1.943902 1_555
Co1 O2 1.943902 1_555
Co1 O7 2.072849 1_555
Co1 O1 2.072849 1_555
Co2 O6 1.978906 1_555
Co2 O0 1.978906 1_555
Co2 O2 1.982442 1_555
Co2 O4 1.982442 1_554
Co2 O10 1.982442 1_455
Co2 O8 1.982442 1_454
O1 Re0 1.948696 1_565
O3 Re0 1.912153 1_555
O5 Re0 1.912153 1_555
O7 Re0 1.948696 1_555
O9 Re0 1.912153 1_555
O11 Re0 1.912153 1_555
