# generated using pymatgen
data_Pr2Ni12P5
_symmetry_space_group_name_H-M   'P 1'
_cell_length_a   3.65813476
_cell_length_b   10.80667054
_cell_length_c   13.04326547
_cell_angle_alpha   72.12088383
_cell_angle_beta   90.00000000
_cell_angle_gamma   90.00000000
_symmetry_Int_Tables_number   1
_chemical_formula_structural   Pr2Ni12P5
_chemical_formula_sum   'Pr4 Ni24 P10'
_cell_volume   490.72809345
_cell_formula_units_Z   2
loop_
 _symmetry_equiv_pos_site_id
 _symmetry_equiv_pos_as_xyz
  1  'x, y, z'
loop_
 _atom_site_type_symbol
 _atom_site_label
 _atom_site_symmetry_multiplicity
 _atom_site_fract_x
 _atom_site_fract_y
 _atom_site_fract_z
 _atom_site_occupancy
  Pr  Pr0  1  0.25000000  0.27940675  0.68314706  1
  Pr  Pr1  1  0.75000000  0.72059325  0.31685294  1
  Pr  Pr2  1  0.25000000  0.24724566  0.18776961  1
  Pr  Pr3  1  0.75000000  0.75275434  0.81223039  1
  Ni  Ni0  1  0.25000000  0.84428236  0.13509601  1
  Ni  Ni1  1  0.75000000  0.15571764  0.86490399  1
  Ni  Ni2  1  0.25000000  0.28625908  0.43852558  1
  Ni  Ni3  1  0.75000000  0.71374092  0.56147442  1
  Ni  Ni4  1  0.25000000  0.07156038  0.01396884  1
  Ni  Ni5  1  0.75000000  0.92843962  0.98603116  1
  Ni  Ni6  1  0.25000000  0.06470869  0.44855986  1
  Ni  Ni7  1  0.75000000  0.93529131  0.55144014  1
  Ni  Ni8  1  0.25000000  0.59553206  0.69532409  1
  Ni  Ni9  1  0.75000000  0.40446794  0.30467591  1
  Ni  Ni10  1  0.25000000  0.58159009  0.00912663  1
  Ni  Ni11  1  0.75000000  0.41840991  0.99087337  1
  Ni  Ni12  1  0.25000000  0.57801538  0.51017139  1
  Ni  Ni13  1  0.75000000  0.42198462  0.48982861  1
  Ni  Ni14  1  0.25000000  0.29803953  0.91816904  1
  Ni  Ni15  1  0.75000000  0.70196047  0.08183096  1
  Ni  Ni16  1  0.25000000  0.99348294  0.65890203  1
  Ni  Ni17  1  0.75000000  0.00651706  0.34109797  1
  Ni  Ni18  1  0.25000000  0.84362171  0.43841564  1
  Ni  Ni19  1  0.75000000  0.15637829  0.56158436  1
  Ni  Ni20  1  0.25000000  0.98887595  0.84989926  1
  Ni  Ni21  1  0.75000000  0.01112405  0.15010074  1
  Ni  Ni22  1  0.25000000  0.56093983  0.20380186  1
  Ni  Ni23  1  0.75000000  0.43906017  0.79619814  1
  P  P0  1  0.25000000  0.50713676  0.87121387  1
  P  P1  1  0.75000000  0.49286324  0.12878613  1
  P  P2  1  0.25000000  0.79998075  0.98424204  1
  P  P3  1  0.75000000  0.20001925  0.01575796  1
  P  P4  1  0.25000000  0.49204637  0.37898819  1
  P  P5  1  0.75000000  0.50795363  0.62101181  1
  P  P6  1  0.25000000  0.81150190  0.61151906  1
  P  P7  1  0.75000000  0.18849810  0.38848094  1
  P  P8  1  0.25000000  0.95116760  0.25944699  1
  P  P9  1  0.75000000  0.04883240  0.74055301  1
loop_
_geom_bond_atom_site_label_1
_geom_bond_atom_site_label_2
_geom_bond_distance
_geom_bond_site_symmetry_2
Ni0 P2 2.163141 1_554
Ni0 P8 2.261689 1_555
Ni0 Pr1 2.967604 1_555
Ni0 Pr1 2.967604 1_455
Ni1 P3 2.163141 1_556
Ni1 P9 2.261689 1_555
Ni1 Pr0 2.967604 1_555
Ni1 Pr0 2.967604 1_655
Ni2 P4 2.118554 1_555
Ni2 P7 2.304588 1_555
Ni2 P7 2.304588 1_455
Ni2 Pr0 3.168712 1_555
Ni3 P5 2.118554 1_555
Ni3 P6 2.304588 1_555
Ni3 P6 2.304588 1_655
Ni3 Pr1 3.168712 1_555
Ni4 P3 2.300665 1_555
Ni4 P3 2.300665 1_455
Ni5 P2 2.300665 1_555
Ni5 P2 2.300665 1_655
Ni6 P7 2.259527 1_555
Ni6 P7 2.259527 1_455
Ni7 P6 2.259527 1_655
Ni7 P6 2.259527 1_555
Ni8 P0 2.197754 1_555
Ni8 P6 2.252894 1_555
Ni8 P5 2.396661 1_455
Ni8 P5 2.396661 1_555
Ni9 P1 2.197754 1_555
Ni9 P7 2.252894 1_555
Ni9 P4 2.396661 1_655
Ni9 P4 2.396661 1_555
Ni10 P0 2.184458 1_554
Ni10 P2 2.281437 1_554
Ni10 P1 2.404562 1_455
Ni10 P1 2.404562 1_555
Ni11 P1 2.184458 1_556
Ni11 P3 2.281437 1_556
Ni11 P0 2.404562 1_555
Ni11 P0 2.404562 1_655
Ni12 P4 2.183323 1_555
Ni12 P5 2.310139 1_555
Ni12 P5 2.310139 1_455
Ni12 Pr1 3.113194 1_455
Ni12 Pr1 3.113194 1_555
Ni13 P5 2.183323 1_555
Ni13 P4 2.310139 1_655
Ni13 P4 2.310139 1_555
Ni13 Pr0 3.113194 1_555
Ni13 Pr0 3.113194 1_655
Ni14 P0 2.152054 1_555
Ni14 P3 2.293440 1_556
Ni14 P3 2.293440 1_456
Ni14 Pr0 3.133139 1_555
Ni15 P1 2.152054 1_555
Ni15 P2 2.293440 1_554
Ni15 P2 2.293440 1_654
Ni15 Pr1 3.133139 1_555
Ni16 P6 2.235129 1_555
Ni16 P9 2.286618 1_565
Ni16 P9 2.286618 1_465
Ni17 P7 2.235129 1_555
Ni17 P8 2.286618 1_645
Ni17 P8 2.286618 1_545
Ni18 P6 2.176484 1_555
Ni18 P8 2.265840 1_555
Ni18 Pr1 2.986900 1_555
Ni18 Pr1 2.986900 1_455
Ni19 P7 2.176484 1_555
Ni19 P9 2.265840 1_555
Ni19 Pr0 2.986900 1_555
Ni19 Pr0 2.986900 1_655
Ni20 P2 2.245250 1_555
Ni20 P9 2.287362 1_565
Ni20 P9 2.287362 1_465
Ni21 P3 2.245250 1_555
Ni21 P8 2.287362 1_545
Ni21 P8 2.287362 1_645
Ni22 P4 2.175076 1_555
Ni22 P1 2.299145 1_455
Ni22 P1 2.299145 1_555
Ni22 Pr1 3.171538 1_455
Ni22 Pr1 3.171538 1_555
Ni23 P5 2.175076 1_555
Ni23 P0 2.299145 1_555
Ni23 P0 2.299145 1_655
Ni23 Pr0 3.171538 1_555
Ni23 Pr0 3.171538 1_655
P0 Pr3 3.119111 1_455
P0 Pr3 3.119111 1_555
P1 Pr2 3.119111 1_655
P1 Pr2 3.119111 1_555
P2 Pr3 3.056590 1_455
P2 Pr3 3.056590 1_555
P3 Pr2 3.056590 1_555
P3 Pr2 3.056590 1_655
P4 Pr1 2.978811 1_555
P4 Pr1 2.978811 1_455
P5 Pr0 2.978811 1_555
P5 Pr0 2.978811 1_655
P6 Pr3 3.095413 1_455
P6 Pr3 3.095413 1_555
P7 Pr2 3.095413 1_655
P7 Pr2 3.095413 1_555
P8 Pr1 2.994882 1_555
P8 Pr1 2.994882 1_455
P8 Pr2 3.045466 1_565
P9 Pr0 2.994882 1_555
P9 Pr0 2.994882 1_655
P9 Pr3 3.045466 1_545
