# generated using pymatgen
data_Mg6MnSn
_symmetry_space_group_name_H-M   'P 1'
_cell_length_a   5.01498200
_cell_length_b   6.25365000
_cell_length_c   10.92444200
_cell_angle_alpha   90.00000000
_cell_angle_beta   90.00000000
_cell_angle_gamma   90.00000000
_symmetry_Int_Tables_number   1
_chemical_formula_structural   Mg6MnSn
_chemical_formula_sum   'Mg12 Mn2 Sn2'
_cell_volume   342.61171840
_cell_formula_units_Z   2
loop_
 _symmetry_equiv_pos_site_id
 _symmetry_equiv_pos_as_xyz
  1  'x, y, z'
loop_
 _atom_site_type_symbol
 _atom_site_label
 _atom_site_symmetry_multiplicity
 _atom_site_fract_x
 _atom_site_fract_y
 _atom_site_fract_z
 _atom_site_occupancy
  Mg  Mg0  1  0.50000000  0.74923000  0.91650700  1
  Mg  Mg1  1  0.50000000  0.25077000  0.91650700  1
  Mg  Mg2  1  0.00000000  0.25957000  0.58363300  1
  Mg  Mg3  1  0.00000000  0.74043000  0.58363300  1
  Mg  Mg4  1  0.00000000  0.50000000  0.82907700  1
  Mg  Mg5  1  0.00000000  0.00000000  0.83573300  1
  Mg  Mg6  1  0.50000000  0.24923000  0.41650700  1
  Mg  Mg7  1  0.50000000  0.75077000  0.41650700  1
  Mg  Mg8  1  0.00000000  0.75957000  0.08363300  1
  Mg  Mg9  1  0.00000000  0.24043000  0.08363300  1
  Mg  Mg10  1  0.00000000  0.00000000  0.32907700  1
  Mg  Mg11  1  0.00000000  0.50000000  0.33573300  1
  Mn  Mn0  1  0.50000000  0.50000000  0.66712700  1
  Mn  Mn1  1  0.50000000  0.00000000  0.16712700  1
  Sn  Sn0  1  0.50000000  0.00000000  0.66777700  1
  Sn  Sn1  1  0.50000000  0.50000000  0.16777700  1
loop_
_geom_bond_atom_site_label_1
_geom_bond_atom_site_label_2
_geom_bond_distance
_geom_bond_site_symmetry_2
Mg0 Mg5 3.086341 1_565
Mg0 Mg5 3.086341 1_665
Mg0 Mg8 3.102432 1_656
Mg0 Mg8 3.102432 1_556
Mg0 Mg4 3.103063 1_655
Mg0 Mg4 3.103063 1_555
Mg0 Mg1 3.117194 1_555
Mg0 Mg1 3.136456 1_565
Mg0 Sn0 3.137310 1_565
Mg0 Mn0 3.138668 1_555
Mg0 Mn1 3.155209 1_566
Mg0 Sn1 3.156607 1_556
Mg1 Mg5 3.086341 1_555
Mg1 Mg5 3.086341 1_655
Mg1 Mg9 3.102432 1_556
Mg1 Mg9 3.102432 1_656
Mg1 Mg4 3.103063 1_555
Mg1 Mg4 3.103063 1_655
Mg1 Sn0 3.137310 1_555
Mg1 Mn0 3.138668 1_555
Mg1 Mn1 3.155209 1_556
Mg1 Sn1 3.156607 1_556
Mg2 Mg3 3.007130 1_555
Mg2 Mn0 3.062710 1_455
Mg2 Mn0 3.062710 1_555
Mg2 Mg4 3.074132 1_555
Mg2 Mg6 3.102432 1_455
Mg2 Mg6 3.102432 1_555
Mg2 Sn0 3.125294 1_555
Mg2 Sn0 3.125294 1_455
Mg2 Mg5 3.196838 1_555
Mg2 Mg3 3.246520 1_545
Mg3 Mn0 3.062710 1_455
Mg3 Mn0 3.062710 1_555
Mg3 Mg4 3.074132 1_555
Mg3 Mg7 3.102432 1_455
Mg3 Mg7 3.102432 1_555
Mg3 Sn0 3.125294 1_565
Mg3 Sn0 3.125294 1_465
Mg3 Mg5 3.196838 1_565
Mg4 Mn0 3.068815 1_455
Mg4 Mn0 3.068815 1_555
Mg4 Mg5 3.127670 1_555
Mg4 Mg5 3.127670 1_565
Mg4 Mg9 3.219981 1_556
Mg4 Mg8 3.219981 1_556
Mg5 Mg8 3.097562 1_546
Mg5 Mg9 3.097562 1_556
Mg5 Sn0 3.107104 1_555
Mg5 Sn0 3.107104 1_455
Mg6 Mg7 3.117194 1_545
Mg6 Mg7 3.136456 1_555
Mg6 Sn1 3.137310 1_555
Mg6 Mn1 3.138668 1_555
Mg6 Mn0 3.155209 1_555
Mg6 Sn0 3.156607 1_555
Mg7 Sn1 3.137310 1_555
Mg7 Mn1 3.138668 1_565
Mg7 Mn0 3.155209 1_555
Mg7 Sn0 3.156607 1_565
Mg8 Mg9 3.007130 1_565
Mg8 Mn1 3.062710 1_465
Mg8 Mn1 3.062710 1_565
Mg8 Sn1 3.125294 1_455
Mg8 Sn1 3.125294 1_555
Mg8 Mg9 3.246520 1_555
Mg9 Mn1 3.062710 1_455
Mg9 Mn1 3.062710 1_555
Mg9 Sn1 3.125294 1_555
Mg9 Sn1 3.125294 1_455
Mg10 Mn1 3.068815 1_455
Mg10 Mn1 3.068815 1_555
Mg10 Mg8 3.074132 1_545
Mg10 Mg9 3.074132 1_555
Mg10 Mg7 3.103063 1_545
Mg10 Mg7 3.103063 1_445
Mg10 Mg6 3.103063 1_455
Mg10 Mg6 3.103063 1_555
Mg10 Mg11 3.127670 1_545
Mg10 Mg11 3.127670 1_555
Mg10 Mg2 3.219981 1_555
Mg10 Mg3 3.219981 1_545
Mg11 Mg6 3.086341 1_555
Mg11 Mg6 3.086341 1_455
Mg11 Mg7 3.086341 1_455
Mg11 Mg7 3.086341 1_555
Mg11 Mg2 3.097562 1_555
Mg11 Mg3 3.097562 1_555
Mg11 Sn1 3.107104 1_555
Mg11 Sn1 3.107104 1_455
Mg11 Mg8 3.196838 1_555
Mg11 Mg9 3.196838 1_555
Mn0 Sn0 3.126833 1_555
Mn0 Sn0 3.126833 1_565
Mn1 Sn1 3.126833 1_555
Mn1 Sn1 3.126833 1_545
