# generated using pymatgen
data_Fe2AsO4F
_symmetry_space_group_name_H-M   'P 1'
_cell_length_a   7.54589020
_cell_length_b   7.54589020
_cell_length_c   10.24178959
_cell_angle_alpha   66.01173568
_cell_angle_beta   66.01173568
_cell_angle_gamma   52.80374281
_symmetry_Int_Tables_number   1
_chemical_formula_structural   Fe2AsO4F
_chemical_formula_sum   'Fe8 As4 O16 F4'
_cell_volume   413.92900679
_cell_formula_units_Z   4
loop_
 _symmetry_equiv_pos_site_id
 _symmetry_equiv_pos_as_xyz
  1  'x, y, z'
loop_
 _atom_site_type_symbol
 _atom_site_label
 _atom_site_symmetry_multiplicity
 _atom_site_fract_x
 _atom_site_fract_y
 _atom_site_fract_z
 _atom_site_occupancy
  Fe  Fe0  1  0.20695200  0.67537500  0.01688000  1
  Fe  Fe1  1  0.34046300  0.77656600  0.48662200  1
  Fe  Fe2  1  0.77656600  0.34046300  0.98662200  1
  Fe  Fe3  1  0.67537500  0.20695200  0.51688000  1
  Fe  Fe4  1  0.95631300  0.74213100  0.36592600  1
  Fe  Fe5  1  0.26913500  0.05300500  0.12852300  1
  Fe  Fe6  1  0.05300500  0.26913500  0.62852300  1
  Fe  Fe7  1  0.74213100  0.95631300  0.86592600  1
  As  As0  1  0.42493000  0.22631900  0.30669200  1
  As  As1  1  0.77564900  0.57238700  0.19374900  1
  As  As2  1  0.57238700  0.77564900  0.69374900  1
  As  As3  1  0.22631900  0.42493000  0.80669200  1
  O  O0  1  0.46698700  0.38470100  0.13400800  1
  O  O1  1  0.61591200  0.52581700  0.36660800  1
  O  O2  1  0.52581700  0.61591200  0.86660800  1
  O  O3  1  0.38470100  0.46698700  0.63400800  1
  O  O4  1  0.36157100  0.04428800  0.30161100  1
  O  O5  1  0.95523900  0.63321700  0.20342700  1
  O  O6  1  0.63321700  0.95523900  0.70342700  1
  O  O7  1  0.04428800  0.36157100  0.80161100  1
  O  O8  1  0.21301700  0.39931800  0.42848900  1
  O  O9  1  0.60734400  0.78326900  0.07020000  1
  O  O10  1  0.78326900  0.60734400  0.57020000  1
  O  O11  1  0.39931800  0.21301700  0.92848900  1
  O  O12  1  0.66844200  0.07335000  0.37289800  1
  O  O13  1  0.93136300  0.32915800  0.12538100  1
  O  O14  1  0.32915800  0.93136300  0.62538100  1
  O  O15  1  0.07335000  0.66844200  0.87289800  1
  F  F0  1  0.15535100  0.84704700  0.16635500  1
  F  F1  1  0.84704700  0.15535100  0.66635500  1
  F  F2  1  0.03489000  0.89869100  0.45653300  1
  F  F3  1  0.89869100  0.03489000  0.95653300  1
loop_
_geom_bond_atom_site_label_1
_geom_bond_atom_site_label_2
_geom_bond_distance
_geom_bond_site_symmetry_2
Fe0 O15 2.128127 1_554
Fe0 O2 2.145819 1_554
Fe0 O5 2.155204 1_455
Fe0 O0 2.161235 1_555
Fe1 O3 2.108742 1_555
Fe1 O1 2.114181 1_555
Fe1 O14 2.126506 1_555
Fe1 O4 2.174432 1_565
Fe2 O0 2.108742 1_556
Fe2 O2 2.114181 1_555
Fe2 O13 2.126506 1_556
Fe2 O7 2.174432 1_655
Fe3 O12 2.128127 1_555
Fe3 O1 2.145819 1_555
Fe3 O6 2.155204 1_545
Fe3 O3 2.161235 1_555
Fe4 O12 2.103581 1_565
Fe4 O8 2.111243 1_655
Fe4 O5 2.139278 1_555
Fe4 O10 2.184230 1_555
Fe5 O11 2.099163 1_554
Fe5 O13 2.104774 1_455
Fe5 O9 2.116883 1_545
Fe5 O4 2.118617 1_555
Fe6 O8 2.099163 1_555
Fe6 O14 2.104774 1_545
Fe6 O10 2.116883 1_455
Fe6 O7 2.118617 1_555
Fe7 O15 2.103581 1_655
Fe7 O11 2.111243 1_565
Fe7 O6 2.139278 1_555
Fe7 O9 2.184230 1_556
As0 O0 1.714802 1_555
As0 O12 1.726497 1_555
As0 O4 1.729278 1_555
As0 O8 1.730736 1_555
As1 O5 1.719104 1_555
As1 O9 1.724006 1_555
As1 O1 1.726795 1_555
As1 O13 1.734365 1_555
As2 O6 1.719104 1_555
As2 O10 1.724006 1_555
As2 O2 1.726795 1_555
As2 O14 1.734365 1_555
As3 O3 1.714802 1_555
As3 O15 1.726497 1_555
As3 O7 1.729278 1_555
As3 O11 1.730736 1_555
F0 Fe5 2.038610 1_565
F0 Fe4 2.164749 1_455
F0 Fe0 2.165938 1_555
F1 Fe6 2.038610 1_655
F1 Fe7 2.164749 1_545
F1 Fe3 2.165938 1_555
F2 Fe1 2.009640 1_555
F2 Fe4 2.189548 1_455
F2 Fe3 2.308278 1_465
F3 Fe2 2.009640 1_555
F3 Fe7 2.189548 1_545
F3 Fe0 2.308278 1_646
