# generated using pymatgen
data_Tb3Ge3Ru2
_symmetry_space_group_name_H-M   'P 1'
_cell_length_a   5.83612306
_cell_length_b   5.83612306
_cell_length_c   13.96170651
_cell_angle_alpha   90.00000000
_cell_angle_beta   90.00000000
_cell_angle_gamma   137.29323647
_symmetry_Int_Tables_number   1
_chemical_formula_structural   Tb3Ge3Ru2
_chemical_formula_sum   'Tb6 Ge6 Ru4'
_cell_volume   322.53354897
_cell_formula_units_Z   2
loop_
 _symmetry_equiv_pos_site_id
 _symmetry_equiv_pos_as_xyz
  1  'x, y, z'
loop_
 _atom_site_type_symbol
 _atom_site_label
 _atom_site_symmetry_multiplicity
 _atom_site_fract_x
 _atom_site_fract_y
 _atom_site_fract_z
 _atom_site_occupancy
  Tb  Tb0  1  0.92077971  0.07922029  0.38726032  1
  Tb  Tb1  1  0.07922029  0.92077971  0.61273968  1
  Tb  Tb2  1  0.92077971  0.07922029  0.11273968  1
  Tb  Tb3  1  0.07922029  0.92077971  0.88726032  1
  Tb  Tb4  1  0.64606485  0.35393515  0.25000000  1
  Tb  Tb5  1  0.35393515  0.64606485  0.75000000  1
  Ge  Ge0  1  0.61801052  0.38198948  0.45940239  1
  Ge  Ge1  1  0.38198948  0.61801052  0.54059761  1
  Ge  Ge2  1  0.61801052  0.38198948  0.04059761  1
  Ge  Ge3  1  0.38198948  0.61801052  0.95940239  1
  Ge  Ge4  1  0.33391594  0.66608406  0.25000000  1
  Ge  Ge5  1  0.66608406  0.33391594  0.75000000  1
  Ru  Ru0  1  0.78610715  0.21389285  0.91846616  1
  Ru  Ru1  1  0.21389285  0.78610715  0.08153384  1
  Ru  Ru2  1  0.78610715  0.21389285  0.58153384  1
  Ru  Ru3  1  0.21389285  0.78610715  0.41846616  1
loop_
_geom_bond_atom_site_label_1
_geom_bond_atom_site_label_2
_geom_bond_distance
_geom_bond_site_symmetry_2
Ge0 Ru3 2.434939 1_655
Ge0 Ru3 2.434939 1_545
Ge0 Ru2 2.499376 1_555
Ge0 Ge1 2.805053 1_555
Ge0 Tb4 2.939479 1_555
Ge0 Tb1 3.045796 1_545
Ge0 Tb1 3.045796 1_655
Ge0 Tb0 3.182364 1_455
Ge0 Tb0 3.182364 1_565
Ge0 Tb0 3.442062 1_555
Ge1 Ru2 2.434939 1_565
Ge1 Ru2 2.434939 1_455
Ge1 Ru3 2.499376 1_555
Ge1 Tb5 2.939479 1_555
Ge1 Tb0 3.045796 1_455
Ge1 Tb0 3.045796 1_565
Ge1 Tb1 3.182364 1_545
Ge1 Tb1 3.182364 1_655
Ge1 Tb1 3.442062 1_555
Ge2 Ru1 2.434939 1_655
Ge2 Ru1 2.434939 1_545
Ge2 Ru0 2.499376 1_554
Ge2 Ge3 2.805053 1_554
Ge2 Tb4 2.939479 1_555
Ge2 Tb3 3.045796 1_544
Ge2 Tb3 3.045796 1_654
Ge2 Tb2 3.182364 1_455
Ge2 Tb2 3.182364 1_565
Ge2 Tb2 3.442062 1_555
Ge3 Ru0 2.434939 1_565
Ge3 Ru0 2.434939 1_455
Ge3 Ru1 2.499376 1_556
Ge3 Tb5 2.939479 1_555
Ge3 Tb2 3.045796 1_566
Ge3 Tb2 3.045796 1_456
Ge3 Tb3 3.182364 1_545
Ge3 Tb3 3.182364 1_655
Ge3 Tb3 3.442062 1_555
Ge4 Ru3 2.689735 1_555
Ge4 Ru1 2.689735 1_555
Ge4 Tb4 2.947216 1_565
Ge4 Tb4 2.947216 1_455
Ge4 Tb2 3.013312 1_565
Ge4 Tb0 3.013312 1_565
Ge4 Tb2 3.013312 1_455
Ge4 Tb0 3.013312 1_455
Ge4 Tb4 3.393363 1_555
Ge5 Ru2 2.689735 1_555
Ge5 Ru0 2.689735 1_555
Ge5 Tb5 2.947216 1_655
Ge5 Tb5 2.947216 1_545
Ge5 Tb1 3.013312 1_655
Ge5 Tb1 3.013312 1_545
Ge5 Tb3 3.013312 1_545
Ge5 Tb3 3.013312 1_655
Ge5 Tb5 3.393363 1_555
Ru0 Tb2 3.082275 1_556
Ru0 Tb3 3.124726 1_655
Ru0 Tb3 3.124726 1_545
Ru0 Tb3 3.216074 1_645
Ru0 Tb5 3.254499 1_655
Ru0 Tb5 3.254499 1_545
Ru1 Tb3 3.082275 1_554
Ru1 Tb2 3.124726 1_565
Ru1 Tb2 3.124726 1_455
Ru1 Tb2 3.216074 1_465
Ru1 Tb4 3.254499 1_565
Ru1 Tb4 3.254499 1_455
Ru2 Tb0 3.082275 1_555
Ru2 Tb1 3.124726 1_655
Ru2 Tb1 3.124726 1_545
Ru2 Tb1 3.216074 1_645
Ru2 Tb5 3.254499 1_655
Ru2 Tb5 3.254499 1_545
Ru3 Tb1 3.082275 1_555
Ru3 Tb0 3.124726 1_565
Ru3 Tb0 3.124726 1_455
Ru3 Tb0 3.216074 1_465
Ru3 Tb4 3.254499 1_565
Ru3 Tb4 3.254499 1_455
