# generated using pymatgen
data_Tm2Fe12P7
_symmetry_space_group_name_H-M   'P 1'
_cell_length_a   9.13247395
_cell_length_b   9.13234154
_cell_length_c   3.57833774
_cell_angle_alpha   90.00000000
_cell_angle_beta   90.00000000
_cell_angle_gamma   120.00008490
_symmetry_Int_Tables_number   1
_chemical_formula_structural   Tm2Fe12P7
_chemical_formula_sum   'Tm2 Fe12 P7'
_cell_volume   258.45335653
_cell_formula_units_Z   1
loop_
 _symmetry_equiv_pos_site_id
 _symmetry_equiv_pos_as_xyz
  1  'x, y, z'
loop_
 _atom_site_type_symbol
 _atom_site_label
 _atom_site_symmetry_multiplicity
 _atom_site_fract_x
 _atom_site_fract_y
 _atom_site_fract_z
 _atom_site_occupancy
  Tm  Tm0  1  0.33334917  0.66666583  0.00000000  1
  Tm  Tm1  1  0.99999142  0.99996208  0.50000000  1
  Fe  Fe0  1  0.71223107  0.95165778  -0.00000000  1
  Fe  Fe1  1  0.23943460  0.28777667  0.00000000  1
  Fe  Fe2  1  0.04834975  0.76058750  0.00000000  1
  Fe  Fe3  1  0.93998533  0.44688089  0.00000000  1
  Fe  Fe4  1  0.50690069  0.06001009  0.00000000  1
  Fe  Fe5  1  0.55308856  0.49309516  -0.00000000  1
  Fe  Fe6  1  0.10671706  0.37218137  0.50000000  1
  Fe  Fe7  1  0.26546036  0.89328085  0.50000000  1
  Fe  Fe8  1  0.62782123  0.73454313  0.50000000  1
  Fe  Fe9  1  0.76537662  0.21127980  0.50000000  1
  Fe  Fe10  1  0.44588505  0.23461219  0.50000000  1
  Fe  Fe11  1  0.78873289  0.55413004  0.50000000  1
  P  P0  1  0.95694413  0.21465159  -0.00000000  1
  P  P1  1  0.25770858  0.04305583  0.00000000  1
  P  P2  1  0.78532811  0.74226911  0.00000000  1
  P  P3  1  0.07335159  0.60429568  0.50000000  1
  P  P4  1  0.53091781  0.92662341  0.50000000  1
  P  P5  1  0.39576678  0.46909901  0.50000000  1
  P  P6  1  0.66666219  0.33333900  0.00000000  1
loop_
_geom_bond_atom_site_label_1
_geom_bond_atom_site_label_2
_geom_bond_distance
_geom_bond_site_symmetry_2
Fe0 P2 2.319199 1_555
Fe0 P0 2.322792 1_565
Fe0 P4 2.369944 1_555
Fe0 P4 2.369944 1_554
Fe0 Tm1 3.023679 1_554
Fe0 Tm1 3.023679 1_555
Fe1 P0 2.319201 1_455
Fe1 P1 2.322819 1_555
Fe1 P5 2.370088 1_555
Fe1 P5 2.370088 1_554
Fe1 Tm1 3.023874 1_444
Fe1 Tm1 3.023874 1_445
Fe2 P1 2.319012 1_565
Fe2 P2 2.322915 1_455
Fe2 P3 2.369888 1_555
Fe2 P3 2.369888 1_554
Fe2 Tm1 3.023311 1_455
Fe2 Tm1 3.023311 1_454
Fe3 P6 2.171987 1_555
Fe3 P0 2.202323 1_555
Fe3 P3 2.236124 1_654
Fe3 P3 2.236124 1_655
Fe4 P6 2.171981 1_555
Fe4 P1 2.202410 1_555
Fe4 P4 2.236126 1_545
Fe4 P4 2.236126 1_544
Fe5 P6 2.171996 1_555
Fe5 P2 2.202303 1_555
Fe5 P5 2.235735 1_554
Fe5 P5 2.235735 1_555
Fe6 P0 2.274614 1_455
Fe6 P0 2.274614 1_456
Fe6 P3 2.287375 1_555
Fe6 P5 2.327058 1_555
Fe6 Tm1 3.031771 1_445
Fe7 P1 2.274606 1_565
Fe7 P1 2.274606 1_566
Fe7 P4 2.287287 1_555
Fe7 P3 2.326539 1_555
Fe7 Tm1 3.031301 1_455
Fe8 P2 2.274574 1_555
Fe8 P2 2.274574 1_556
Fe8 P5 2.286970 1_555
Fe8 P4 2.326489 1_555
Fe8 Tm1 3.031321 1_555
Fe9 P4 2.403393 1_545
Fe9 P0 2.491767 1_556
Fe9 P0 2.491767 1_555
Fe9 P6 2.502252 1_556
Fe9 P6 2.502252 1_555
Fe10 P5 2.403181 1_555
Fe10 P1 2.491660 1_556
Fe10 P1 2.491660 1_555
Fe10 P6 2.502277 1_555
Fe10 P6 2.502277 1_556
Fe11 P3 2.403184 1_655
Fe11 P2 2.491497 1_556
Fe11 P2 2.491497 1_555
Fe11 P6 2.502341 1_555
Fe11 P6 2.502341 1_556
P0 Tm1 2.823203 1_544
P0 Tm1 2.823203 1_545
P1 Tm1 2.822971 1_444
P1 Tm1 2.822971 1_445
P2 Tm1 2.822944 1_554
P2 Tm1 2.822944 1_555
P3 Tm0 2.794815 1_555
P3 Tm0 2.794815 1_556
P4 Tm0 2.794482 1_555
P4 Tm0 2.794482 1_556
P5 Tm0 2.794609 1_555
P5 Tm0 2.794609 1_556
