# generated using pymatgen
data_Hf3GeMo8
_symmetry_space_group_name_H-M   'P 1'
_cell_length_a   5.35712942
_cell_length_b   5.35712942
_cell_length_c   8.60395500
_cell_angle_alpha   90.00000000
_cell_angle_beta   90.00000000
_cell_angle_gamma   119.99999282
_symmetry_Int_Tables_number   1
_chemical_formula_structural   Hf3GeMo8
_chemical_formula_sum   'Hf3 Ge1 Mo8'
_cell_volume   213.84203071
_cell_formula_units_Z   1
loop_
 _symmetry_equiv_pos_site_id
 _symmetry_equiv_pos_as_xyz
  1  'x, y, z'
loop_
 _atom_site_type_symbol
 _atom_site_label
 _atom_site_symmetry_multiplicity
 _atom_site_fract_x
 _atom_site_fract_y
 _atom_site_fract_z
 _atom_site_occupancy
  Hf  Hf0  1  0.66666700  0.33333300  0.44153600  1
  Hf  Hf1  1  0.66666700  0.33333300  0.06172200  1
  Hf  Hf2  1  0.33333300  0.66666700  0.93955400  1
  Ge  Ge0  1  0.33333300  0.66666700  0.56479700  1
  Mo  Mo0  1  0.00000000  0.00000000  0.49830000  1
  Mo  Mo1  1  0.00000000  0.00000000  0.99752800  1
  Mo  Mo2  1  0.82870800  0.17129200  0.74720400  1
  Mo  Mo3  1  0.34258400  0.17129200  0.74720400  1
  Mo  Mo4  1  0.82870800  0.65741600  0.74720400  1
  Mo  Mo5  1  0.17055700  0.82944300  0.25163100  1
  Mo  Mo6  1  0.65888500  0.82944300  0.25163100  1
  Mo  Mo7  1  0.17055700  0.34111500  0.25163100  1
loop_
_geom_bond_atom_site_label_1
_geom_bond_atom_site_label_2
_geom_bond_distance
_geom_bond_site_symmetry_2
Hf0 Mo2 3.029409 1_555
Hf0 Mo3 3.029411 1_555
Hf0 Mo4 3.029411 1_555
Hf0 Mo0 3.131260 1_655
Hf0 Mo0 3.131265 1_665
Hf0 Mo0 3.131265 1_555
Hf0 Mo6 3.137790 1_545
Hf0 Mo7 3.137790 1_655
Hf0 Mo5 3.137794 1_545
Hf0 Mo5 3.137794 1_655
Hf0 Mo6 3.137799 1_555
Hf0 Mo7 3.137799 1_555
Hf1 Mo2 3.095744 1_554
Hf1 Mo3 3.095746 1_554
Hf1 Mo4 3.095746 1_554
Hf1 Mo6 3.137808 1_545
Hf1 Mo7 3.137808 1_655
Hf1 Mo5 3.137812 1_545
Hf1 Mo5 3.137812 1_655
Hf1 Mo6 3.137817 1_555
Hf1 Mo7 3.137817 1_555
Hf1 Mo1 3.141865 1_654
Hf1 Mo1 3.141870 1_664
Hf1 Mo1 3.141870 1_554
Hf2 Mo5 3.080740 1_556
Hf2 Mo7 3.080740 1_556
Hf2 Mo6 3.080740 1_556
Hf2 Mo1 3.132901 1_565
Hf2 Mo1 3.132905 1_555
Hf2 Mo1 3.132905 1_665
Hf2 Mo3 3.148883 1_565
Hf2 Mo4 3.148883 1_455
Hf2 Mo2 3.148886 1_455
Hf2 Mo2 3.148886 1_565
Hf2 Mo4 3.148888 1_555
Hf2 Mo3 3.148888 1_555
Ge0 Mo5 3.088910 1_555
Ge0 Mo7 3.088910 1_555
Ge0 Mo6 3.088910 1_555
Ge0 Mo3 3.104774 1_565
Ge0 Mo4 3.104774 1_455
Ge0 Mo2 3.104776 1_455
Ge0 Mo2 3.104776 1_565
Ge0 Mo4 3.104778 1_555
Ge0 Mo3 3.104778 1_555
Ge0 Mo0 3.145409 1_565
Ge0 Mo0 3.145414 1_555
Ge0 Mo0 3.145414 1_665
Ge0 Hf2 3.224392 1_555
Ge0 Hf0 3.269708 1_455
Ge0 Hf0 3.269708 1_565
Ge0 Hf0 3.269716 1_555
Mo0 Mo5 2.647414 1_545
Mo0 Mo7 2.647417 1_555
Mo0 Mo6 2.647417 1_445
Mo0 Mo2 2.666913 1_455
Mo0 Mo3 2.666914 1_555
Mo0 Mo4 2.666914 1_445
Mo1 Mo2 2.676734 1_455
Mo1 Mo3 2.676734 1_555
Mo1 Mo4 2.676734 1_445
Mo1 Mo5 2.698961 1_546
Mo1 Mo7 2.698963 1_556
Mo1 Mo6 2.698963 1_446
Mo2 Mo3 2.604229 1_555
Mo2 Mo4 2.604229 1_555
Mo2 Mo3 2.752900 1_655
Mo2 Mo4 2.752900 1_545
Mo3 Mo4 2.604229 1_555
Mo3 Mo4 2.752901 1_445
Mo5 Mo6 2.616036 1_555
Mo5 Mo7 2.616036 1_555
Mo5 Mo6 2.741093 1_455
Mo5 Mo7 2.741093 1_565
Mo6 Mo7 2.616037 1_555
Mo6 Mo7 2.741093 1_665
