# generated using pymatgen
data_CaTaAlO5
_symmetry_space_group_name_H-M   'P 1'
_cell_length_a   5.58089205
_cell_length_b   5.58089120
_cell_length_c   7.34975365
_cell_angle_alpha   104.30506774
_cell_angle_beta   104.30506122
_cell_angle_gamma   106.23076398
_symmetry_Int_Tables_number   1
_chemical_formula_structural   CaTaAlO5
_chemical_formula_sum   'Ca2 Ta2 Al2 O10'
_cell_volume   200.30602127
_cell_formula_units_Z   2
loop_
 _symmetry_equiv_pos_site_id
 _symmetry_equiv_pos_as_xyz
  1  'x, y, z'
loop_
 _atom_site_type_symbol
 _atom_site_label
 _atom_site_symmetry_multiplicity
 _atom_site_fract_x
 _atom_site_fract_y
 _atom_site_fract_z
 _atom_site_occupancy
  Ca  Ca0  1  0.33258561  0.66741439  0.75000000  1
  Ca  Ca1  1  0.66741439  0.33258561  0.25000000  1
  Ta  Ta0  1  0.00000000  0.00000000  -0.00000000  1
  Ta  Ta1  1  0.00000000  0.00000000  0.50000000  1
  Al  Al0  1  0.68343748  0.31656252  0.75000000  1
  Al  Al1  1  0.31656252  0.68343748  0.25000000  1
  O  O0  1  0.07421005  0.92578995  0.75000000  1
  O  O1  1  0.92578995  0.07421005  0.25000000  1
  O  O2  1  0.10039872  0.69261093  0.38768157  1
  O  O3  1  0.30738907  0.89960128  0.11231843  1
  O  O4  1  0.89960128  0.30738907  0.61231843  1
  O  O5  1  0.69261093  0.10039872  0.88768157  1
  O  O6  1  0.36708188  0.25099030  0.58692851  1
  O  O7  1  0.74900970  0.63291812  0.91307149  1
  O  O8  1  0.63291812  0.74900970  0.41307149  1
  O  O9  1  0.25099030  0.36708188  0.08692851  1
loop_
_geom_bond_atom_site_label_1
_geom_bond_atom_site_label_2
_geom_bond_distance
_geom_bond_site_symmetry_2
Ca0 O0 2.306701 1_555
Ca0 O6 2.421214 1_555
Ca0 O7 2.421215 1_555
Ca0 O5 2.443977 1_565
Ca0 O4 2.443977 1_455
Ca0 O3 2.715123 1_556
Ca0 O2 2.715124 1_555
Ca1 O1 2.306701 1_555
Ca1 O8 2.421214 1_555
Ca1 O9 2.421215 1_555
Ca1 O3 2.443977 1_545
Ca1 O2 2.443977 1_655
Ca1 O5 2.715123 1_554
Ca1 O4 2.715124 1_555
Al0 O7 1.750411 1_555
Al0 O6 1.750411 1_555
Al0 O5 1.759027 1_555
Al0 O4 1.759027 1_555
Al1 O9 1.750411 1_555
Al1 O8 1.750411 1_555
Al1 O3 1.759027 1_555
Al1 O2 1.759027 1_555
O0 Ta0 1.953233 1_566
O0 Ta1 1.953233 1_565
O1 Ta0 1.953233 1_655
O1 Ta1 1.953233 1_655
O2 Ta1 2.001116 1_565
O3 Ta0 2.001116 1_565
O4 Ta1 2.001116 1_655
O5 Ta0 2.001116 1_656
O6 Ta1 1.968250 1_555
O7 Ta0 1.968250 1_666
O8 Ta1 1.968250 1_665
O9 Ta0 1.968250 1_555
