# generated using pymatgen
data_Y2Fe2O7
_symmetry_space_group_name_H-M   'P 1'
_cell_length_a   7.05336338
_cell_length_b   7.05333741
_cell_length_c   7.05331478
_cell_angle_alpha   60.00119010
_cell_angle_beta   60.00132229
_cell_angle_gamma   60.00151197
_symmetry_Int_Tables_number   1
_chemical_formula_structural   Y2Fe2O7
_chemical_formula_sum   'Y4 Fe4 O14'
_cell_volume   248.13178240
_cell_formula_units_Z   2
loop_
 _symmetry_equiv_pos_site_id
 _symmetry_equiv_pos_as_xyz
  1  'x, y, z'
loop_
 _atom_site_type_symbol
 _atom_site_label
 _atom_site_symmetry_multiplicity
 _atom_site_fract_x
 _atom_site_fract_y
 _atom_site_fract_z
 _atom_site_occupancy
  Y  Y0  1  0.49999995  -0.00000077  0.50000194  1
  Y  Y1  1  -0.00000050  0.50000065  0.49999741  1
  Y  Y2  1  0.49999867  0.50000362  0.00000003  1
  Y  Y3  1  0.50000094  0.50000250  0.49999719  1
  Fe  Fe0  1  -0.00000020  0.50000162  -0.00000052  1
  Fe  Fe1  1  0.50000067  -0.00000046  0.00000027  1
  Fe  Fe2  1  -0.00000133  0.99999963  0.50000118  1
  Fe  Fe3  1  0.99999787  0.00000003  0.00000115  1
  O  O0  1  0.62500008  0.62500481  0.62499947  1
  O  O1  1  0.37499946  0.37499739  0.37499893  1
  O  O2  1  0.32883447  0.92117422  0.92118224  1
  O  O3  1  0.07882413  0.67118536  0.67118453  1
  O  O4  1  0.92116910  0.32884160  0.92117524  1
  O  O5  1  0.92117657  0.92117806  0.32883194  1
  O  O6  1  0.32881415  0.32880965  0.92118154  1
  O  O7  1  0.32881529  0.92118487  0.32881101  1
  O  O8  1  0.92117645  0.32881315  0.32881643  1
  O  O9  1  0.67118467  0.67118892  0.07882043  1
  O  O10  1  0.07882850  0.07882071  0.67116546  1
  O  O11  1  0.67116589  0.07882205  0.07882164  1
  O  O12  1  0.67118511  0.07881627  0.67118881  1
  O  O13  1  0.07883006  0.67115813  0.07882468  1
loop_
_geom_bond_atom_site_label_1
_geom_bond_atom_site_label_2
_geom_bond_distance
_geom_bond_site_symmetry_2
Fe0 O13 1.930585 1_555
Fe0 O4 1.930605 1_454
Fe0 O3 1.930676 1_554
Fe0 O8 1.930692 1_455
Fe0 O9 1.930702 1_455
Fe0 O6 1.930703 1_554
Fe1 O11 1.930582 1_555
Fe1 O2 1.930586 1_544
Fe1 O7 1.930658 1_545
Fe1 O12 1.930661 1_554
Fe1 O9 1.930667 1_545
Fe1 O6 1.930667 1_554
Fe2 O5 1.930603 1_455
Fe2 O10 1.930609 1_565
Fe2 O8 1.930678 1_465
Fe2 O3 1.930680 1_555
Fe2 O12 1.930691 1_465
Fe2 O7 1.930710 1_555
Fe3 O5 1.930753 1_545
Fe3 O10 1.930775 1_654
Fe3 O11 1.930780 1_555
Fe3 O2 1.930807 1_644
Fe3 O4 1.930818 1_554
Fe3 O13 1.930819 1_645
O0 Y3 2.159635 1_555
O0 Y0 2.159639 1_565
O0 Y2 2.159664 1_556
O0 Y1 2.159679 1_655
O1 Y3 2.159641 1_555
O1 Y2 2.159654 1_555
O1 Y0 2.159661 1_555
O1 Y1 2.159682 1_555
O2 Y2 2.454559 1_556
O2 Y0 2.454597 1_565
O3 Y3 2.454626 1_555
O3 Y1 2.454644 1_555
O4 Y2 2.454563 1_556
O4 Y1 2.454576 1_655
O5 Y1 2.454591 1_655
O5 Y0 2.454601 1_565
O6 Y3 2.454650 1_555
O6 Y2 2.454655 1_556
O7 Y0 2.454616 1_565
O7 Y3 2.454644 1_555
O8 Y1 2.454616 1_655
O8 Y3 2.454619 1_555
O9 Y3 2.454602 1_555
O9 Y2 2.454622 1_555
O10 Y0 2.454570 1_555
O10 Y1 2.454601 1_555
O11 Y0 2.454600 1_555
O11 Y2 2.454622 1_555
O12 Y0 2.454608 1_555
O12 Y3 2.454668 1_555
O13 Y1 2.454545 1_555
O13 Y2 2.454552 1_555
