# generated using pymatgen
data_HgF2
_symmetry_space_group_name_H-M   'P 1'
_cell_length_a   3.66202437
_cell_length_b   5.98608616
_cell_length_c   7.15107273
_cell_angle_alpha   90.00000000
_cell_angle_beta   90.00000000
_cell_angle_gamma   90.00000000
_symmetry_Int_Tables_number   1
_chemical_formula_structural   HgF2
_chemical_formula_sum   'Hg4 F8'
_cell_volume   156.76004832
_cell_formula_units_Z   4
loop_
 _symmetry_equiv_pos_site_id
 _symmetry_equiv_pos_as_xyz
  1  'x, y, z'
loop_
 _atom_site_type_symbol
 _atom_site_label
 _atom_site_symmetry_multiplicity
 _atom_site_fract_x
 _atom_site_fract_y
 _atom_site_fract_z
 _atom_site_occupancy
  Hg  Hg0  1  0.75000000  0.74361366  0.61112498  1
  Hg  Hg1  1  0.75000000  0.24361366  0.88887502  1
  Hg  Hg2  1  0.25000000  0.25638634  0.38887502  1
  Hg  Hg3  1  0.25000000  0.75638634  0.11112498  1
  F  F0  1  0.75000000  0.14160851  0.57725105  1
  F  F1  1  0.75000000  0.64160851  0.92274895  1
  F  F2  1  0.25000000  0.85839149  0.42274895  1
  F  F3  1  0.25000000  0.35839149  0.07725105  1
  F  F4  1  0.75000000  0.51830924  0.33403065  1
  F  F5  1  0.75000000  0.01830924  0.16596935  1
  F  F6  1  0.25000000  0.48169076  0.66596935  1
  F  F7  1  0.25000000  0.98169076  0.83403065  1
loop_
_geom_bond_atom_site_label_1
_geom_bond_atom_site_label_2
_geom_bond_distance
_geom_bond_site_symmetry_2
F0 Hg1 2.310588 1_555
F0 Hg2 2.374726 1_655
F0 Hg2 2.374726 1_555
F0 Hg0 2.394714 1_545
F1 Hg0 2.310588 1_555
F1 Hg3 2.374726 1_656
F1 Hg3 2.374726 1_556
F1 Hg1 2.394714 1_555
F2 Hg3 2.310588 1_555
F2 Hg0 2.374726 1_455
F2 Hg0 2.374726 1_555
F2 Hg2 2.394714 1_565
F3 Hg2 2.310588 1_555
F3 Hg1 2.374726 1_454
F3 Hg1 2.374726 1_554
F3 Hg3 2.394714 1_555
F4 Hg0 2.396956 1_555
F4 Hg2 2.442276 1_555
F4 Hg2 2.442276 1_655
F5 Hg1 2.396956 1_554
F5 Hg3 2.442276 1_545
F5 Hg3 2.442276 1_645
F6 Hg2 2.396956 1_555
F6 Hg0 2.442276 1_555
F6 Hg0 2.442276 1_455
F7 Hg3 2.396956 1_556
F7 Hg1 2.442276 1_465
F7 Hg1 2.442276 1_565
