# generated using pymatgen
data_Cs5Mo8P(H3O16)2
_symmetry_space_group_name_H-M   'P 1'
_cell_length_a   9.15440300
_cell_length_b   12.66724507
_cell_length_c   16.74592800
_cell_angle_alpha   90.00000000
_cell_angle_beta   90.00000000
_cell_angle_gamma   111.18260823
_symmetry_Int_Tables_number   1
_chemical_formula_structural   Cs5Mo8P(H3O16)2
_chemical_formula_sum   'Cs10 Mo16 P2 H12 O64'
_cell_volume   1810.66997708
_cell_formula_units_Z   2
loop_
 _symmetry_equiv_pos_site_id
 _symmetry_equiv_pos_as_xyz
  1  'x, y, z'
loop_
 _atom_site_type_symbol
 _atom_site_label
 _atom_site_symmetry_multiplicity
 _atom_site_fract_x
 _atom_site_fract_y
 _atom_site_fract_z
 _atom_site_occupancy
  Cs  Cs0  1  0.12021500  0.24042900  0.25000000  1
  Cs  Cs1  1  0.87978500  0.75957100  0.75000000  1
  Cs  Cs2  1  0.11695900  0.23391800  0.96191100  1
  Cs  Cs3  1  0.88304100  0.76608200  0.03808900  1
  Cs  Cs4  1  0.11695900  0.23391800  0.53808900  1
  Cs  Cs5  1  0.88304100  0.76608200  0.46191100  1
  Cs  Cs6  1  0.36096200  0.72192300  0.02726100  1
  Cs  Cs7  1  0.63903800  0.27807700  0.97273900  1
  Cs  Cs8  1  0.36096200  0.72192300  0.47273900  1
  Cs  Cs9  1  0.63903800  0.27807700  0.52726100  1
  Mo  Mo0  1  0.91480100  0.47561400  0.14871400  1
  Mo  Mo1  1  0.43918600  0.52438600  0.85128600  1
  Mo  Mo2  1  0.91480100  0.47561400  0.35128600  1
  Mo  Mo3  1  0.43918600  0.52438600  0.64871400  1
  Mo  Mo4  1  0.08519900  0.52438600  0.85128600  1
  Mo  Mo5  1  0.56081400  0.47561400  0.14871400  1
  Mo  Mo6  1  0.08519900  0.52438600  0.64871400  1
  Mo  Mo7  1  0.56081400  0.47561400  0.35128600  1
  Mo  Mo8  1  0.70295500  0.03492800  0.15321200  1
  Mo  Mo9  1  0.66802700  0.96507200  0.84678800  1
  Mo  Mo10  1  0.70295500  0.03492800  0.34678800  1
  Mo  Mo11  1  0.66802700  0.96507200  0.65321200  1
  Mo  Mo12  1  0.29704500  0.96507200  0.84678800  1
  Mo  Mo13  1  0.33197300  0.03492800  0.15321200  1
  Mo  Mo14  1  0.29704500  0.96507200  0.65321200  1
  Mo  Mo15  1  0.33197300  0.03492800  0.34678800  1
  P  P0  1  0.62760500  0.25521000  0.25000000  1
  P  P1  1  0.37239500  0.74479000  0.75000000  1
  H  H0  1  0.81187700  0.62375300  0.25000000  1
  H  H1  1  0.18812300  0.37624700  0.75000000  1
  H  H2  1  0.44383400  0.88766800  0.25000000  1
  H  H3  1  0.55616600  0.11233200  0.75000000  1
  H  H4  1  0.99157600  0.15154700  0.75000000  1
  H  H5  1  0.84002900  0.84845300  0.25000000  1
  H  H6  1  0.00842400  0.84845300  0.25000000  1
  H  H7  1  0.15997100  0.15154700  0.75000000  1
  H  H8  1  0.26101300  0.69401300  0.25000000  1
  H  H9  1  0.56700000  0.30598700  0.75000000  1
  H  H10  1  0.73898700  0.30598700  0.75000000  1
  H  H11  1  0.43300000  0.69401300  0.25000000  1
  O  O0  1  0.76999400  0.53998800  0.25000000  1
  O  O1  1  0.23000600  0.46001200  0.75000000  1
  O  O2  1  0.66665700  0.33331500  0.17473100  1
  O  O3  1  0.33334300  0.66668500  0.82526900  1
  O  O4  1  0.66665700  0.33331500  0.32526900  1
  O  O5  1  0.33334300  0.66668500  0.67473100  1
  O  O6  1  0.96753900  0.42364900  0.25000000  1
  O  O7  1  0.54389100  0.57635100  0.75000000  1
  O  O8  1  0.03246100  0.57635100  0.75000000  1
  O  O9  1  0.45610900  0.42364900  0.25000000  1
  O  O10  1  0.75354400  0.50708800  0.08785500  1
  O  O11  1  0.24645600  0.49291200  0.91214500  1
  O  O12  1  0.75354400  0.50708800  0.41214500  1
  O  O13  1  0.24645600  0.49291200  0.58785500  1
  O  O14  1  0.97153100  0.39165400  0.08256500  1
  O  O15  1  0.57987700  0.60834600  0.91743500  1
  O  O16  1  0.97153100  0.39165400  0.41743500  1
  O  O17  1  0.57987700  0.60834600  0.58256500  1
  O  O18  1  0.02846900  0.60834600  0.91743500  1
  O  O19  1  0.42012300  0.39165400  0.08256500  1
  O  O20  1  0.02846900  0.60834600  0.58256500  1
  O  O21  1  0.42012300  0.39165400  0.41743500  1
  O  O22  1  0.06012300  0.61015800  0.14333000  1
  O  O23  1  0.44996500  0.38984200  0.85667000  1
  O  O24  1  0.06012300  0.61015800  0.35667000  1
  O  O25  1  0.44996500  0.38984200  0.64333000  1
  O  O26  1  0.93987700  0.38984200  0.85667000  1
  O  O27  1  0.55003500  0.61015800  0.14333000  1
  O  O28  1  0.93987700  0.38984200  0.64333000  1
  O  O29  1  0.55003500  0.61015800  0.35667000  1
  O  O30  1  0.48620800  0.97241600  0.25000000  1
  O  O31  1  0.51379200  0.02758400  0.75000000  1
  O  O32  1  0.72687500  0.17801800  0.25000000  1
  O  O33  1  0.54885700  0.82198200  0.75000000  1
  O  O34  1  0.27312500  0.82198200  0.75000000  1
  O  O35  1  0.45114300  0.17801800  0.25000000  1
  O  O36  1  0.79640400  0.00021200  0.25000000  1
  O  O37  1  0.79619200  0.99978800  0.75000000  1
  O  O38  1  0.20359600  0.99978800  0.75000000  1
  O  O39  1  0.20380800  0.00021200  0.25000000  1
  O  O40  1  0.54304900  0.08609800  0.11043800  1
  O  O41  1  0.45695100  0.91390200  0.88956200  1
  O  O42  1  0.54304900  0.08609800  0.38956200  1
  O  O43  1  0.45695100  0.91390200  0.61043800  1
  O  O44  1  0.86824900  0.12291900  0.10256100  1
  O  O45  1  0.74533000  0.87708100  0.89743900  1
  O  O46  1  0.86824900  0.12291900  0.39743900  1
  O  O47  1  0.74533000  0.87708100  0.60256100  1
  O  O48  1  0.13175100  0.87708100  0.89743900  1
  O  O49  1  0.25467000  0.12291900  0.10256100  1
  O  O50  1  0.13175100  0.87708100  0.60256100  1
  O  O51  1  0.25467000  0.12291900  0.39743900  1
  O  O52  1  0.65305200  0.90317400  0.10745600  1
  O  O53  1  0.74987700  0.09682600  0.89254400  1
  O  O54  1  0.65305200  0.90317400  0.39254400  1
  O  O55  1  0.74987700  0.09682600  0.60745600  1
  O  O56  1  0.34694800  0.09682600  0.89254400  1
  O  O57  1  0.25012300  0.90317400  0.10745600  1
  O  O58  1  0.34694800  0.09682600  0.60745600  1
  O  O59  1  0.25012300  0.90317400  0.39254400  1
  O  O60  1  0.10151000  0.20302100  0.75000000  1
  O  O61  1  0.89849000  0.79697900  0.25000000  1
  O  O62  1  0.37120000  0.74239900  0.25000000  1
  O  O63  1  0.62880000  0.25760100  0.75000000  1
loop_
_geom_bond_atom_site_label_1
_geom_bond_atom_site_label_2
_geom_bond_distance
_geom_bond_site_symmetry_2
Cs0 O9 3.111938 1_555
Cs0 O6 3.111951 1_455
Cs0 O49 3.339277 1_555
Cs0 O51 3.339277 1_555
Cs0 O44 3.339281 1_455
Cs0 O46 3.339281 1_455
Cs0 O39 3.395227 1_555
Cs0 O36 3.395232 1_455
Cs0 O35 3.396086 1_555
Cs0 O32 3.396095 1_455
Cs1 O7 3.111938 1_555
Cs1 O8 3.111951 1_655
Cs1 O45 3.339277 1_555
Cs1 O47 3.339277 1_555
Cs1 O50 3.339281 1_655
Cs1 O48 3.339281 1_655
Cs1 O37 3.395227 1_555
Cs1 O38 3.395232 1_655
Cs1 O33 3.396086 1_555
Cs1 O34 3.396095 1_655
Cs2 O11 3.170559 1_555
Cs2 O44 3.224089 1_456
Cs2 O49 3.224090 1_556
Cs2 O56 3.382321 1_555
Cs2 O53 3.382328 1_455
Cs2 O19 3.430649 1_556
Cs2 O14 3.430649 1_456
Cs2 O23 3.456711 1_555
Cs2 O26 3.456711 1_455
Cs2 O60 3.567362 1_555
Cs3 O10 3.170559 1_555
Cs3 O48 3.224089 1_654
Cs3 O45 3.224090 1_554
Cs3 O52 3.382321 1_555
Cs3 O57 3.382328 1_655
Cs3 O15 3.430649 1_554
Cs3 O18 3.430649 1_654
Cs3 O27 3.456711 1_555
Cs3 O22 3.456711 1_655
Cs3 O61 3.567362 1_555
Cs4 O13 3.170559 1_555
Cs4 O46 3.224089 1_455
Cs4 O51 3.224090 1_555
Cs4 O58 3.382321 1_555
Cs4 O55 3.382328 1_455
Cs4 O21 3.430649 1_555
Cs4 O16 3.430649 1_455
Cs4 O25 3.456711 1_555
Cs4 O28 3.456711 1_455
Cs4 O60 3.567362 1_555
Cs5 O12 3.170559 1_555
Cs5 O50 3.224089 1_655
Cs5 O47 3.224090 1_555
Cs5 O54 3.382321 1_555
Cs5 O59 3.382328 1_655
Cs5 O17 3.430649 1_555
Cs5 O20 3.430649 1_655
Cs5 O29 3.456711 1_555
Cs5 O24 3.456711 1_655
Cs5 O61 3.567362 1_555
Cs6 O52 3.128578 1_555
Cs6 O57 3.128578 1_555
Cs6 O41 3.234018 1_554
Cs6 O27 3.247925 1_555
Cs6 O22 3.247931 1_555
Cs6 O11 3.321563 1_554
Cs6 O15 3.398842 1_554
Cs6 O18 3.398849 1_554
Cs6 O3 3.444891 1_554
Cs7 O56 3.128578 1_555
Cs7 O53 3.128578 1_555
Cs7 O40 3.234018 1_556
Cs7 O23 3.247925 1_555
Cs7 O26 3.247931 1_555
Cs7 O10 3.321563 1_556
Cs7 O19 3.398842 1_556
Cs7 O14 3.398849 1_556
Cs7 O2 3.444891 1_556
Cs8 O54 3.128578 1_555
Cs8 O59 3.128578 1_555
Cs8 O43 3.234018 1_555
Cs8 O29 3.247925 1_555
Cs8 O24 3.247931 1_555
Cs8 O13 3.321563 1_555
Cs8 O17 3.398842 1_555
Cs8 O20 3.398849 1_555
Cs8 O5 3.444891 1_555
Cs9 O58 3.128578 1_555
Cs9 O55 3.128578 1_555
Cs9 O42 3.234018 1_555
Cs9 O25 3.247925 1_555
Cs9 O28 3.247931 1_555
Cs9 O12 3.321563 1_555
Cs9 O21 3.398842 1_555
Cs9 O16 3.398849 1_555
Cs9 O4 3.444891 1_555
Mo0 O14 1.739839 1_555
Mo0 O22 1.744716 1_655
Mo0 O6 1.942394 1_555
Mo0 O10 1.949906 1_555
Mo0 O2 2.374874 1_555
Mo0 O0 2.465819 1_555
Mo1 O15 1.739844 1_555
Mo1 O23 1.744719 1_555
Mo1 O7 1.942401 1_555
Mo1 O11 1.949899 1_555
Mo1 O3 2.374861 1_555
Mo1 O1 2.465813 1_555
Mo2 O16 1.739839 1_555
Mo2 O24 1.744716 1_655
Mo2 O6 1.942394 1_555
Mo2 O12 1.949906 1_555
Mo2 O4 2.374874 1_555
Mo2 O0 2.465819 1_555
Mo3 O17 1.739844 1_555
Mo3 O25 1.744719 1_555
Mo3 O7 1.942401 1_555
Mo3 O13 1.949899 1_555
Mo3 O5 2.374861 1_555
Mo3 O1 2.465813 1_555
Mo4 O18 1.739839 1_555
Mo4 O26 1.744716 1_455
Mo4 O8 1.942394 1_555
Mo4 O11 1.949906 1_555
Mo4 O3 2.374874 1_555
Mo4 O1 2.465819 1_555
Mo5 O19 1.739844 1_555
Mo5 O27 1.744719 1_555
Mo5 O9 1.942401 1_555
Mo5 O10 1.949899 1_555
Mo5 O2 2.374861 1_555
Mo5 O0 2.465813 1_555
Mo6 O20 1.739839 1_555
Mo6 O28 1.744716 1_455
Mo6 O8 1.942394 1_555
Mo6 O13 1.949906 1_555
Mo6 O5 2.374874 1_555
Mo6 O1 2.465819 1_555
Mo7 O21 1.739844 1_555
Mo7 O29 1.744719 1_555
Mo7 O9 1.942401 1_555
Mo7 O12 1.949899 1_555
Mo7 O4 2.374861 1_555
Mo7 O0 2.465813 1_555
Mo8 O52 1.740755 1_545
Mo8 O44 1.741434 1_555
Mo8 O40 1.939526 1_555
Mo8 O36 1.955529 1_555
Mo8 O32 2.381908 1_555
Mo8 O30 2.460808 1_545
Mo9 O53 1.740754 1_565
Mo9 O45 1.741434 1_555
Mo9 O41 1.939526 1_555
Mo9 O37 1.955529 1_555
Mo9 O33 2.381907 1_555
Mo9 O31 2.460808 1_565
Mo10 O54 1.740755 1_545
Mo10 O46 1.741434 1_555
Mo10 O42 1.939526 1_555
Mo10 O36 1.955529 1_555
Mo10 O32 2.381908 1_555
Mo10 O30 2.460808 1_545
Mo11 O55 1.740754 1_565
Mo11 O47 1.741434 1_555
Mo11 O43 1.939526 1_555
Mo11 O37 1.955529 1_555
Mo11 O33 2.381907 1_555
Mo11 O31 2.460808 1_565
Mo12 O56 1.740755 1_565
Mo12 O48 1.741434 1_555
Mo12 O41 1.939526 1_555
Mo12 O38 1.955529 1_555
Mo12 O34 2.381908 1_555
Mo12 O31 2.460808 1_565
Mo13 O57 1.740754 1_545
Mo13 O49 1.741434 1_555
Mo13 O40 1.939526 1_555
Mo13 O39 1.955529 1_555
Mo13 O35 2.381907 1_555
Mo13 O30 2.460808 1_545
Mo14 O58 1.740755 1_565
Mo14 O50 1.741434 1_555
Mo14 O43 1.939526 1_555
Mo14 O38 1.955529 1_555
Mo14 O34 2.381908 1_555
Mo14 O31 2.460808 1_565
Mo15 O59 1.740754 1_545
Mo15 O51 1.741434 1_555
Mo15 O42 1.939526 1_555
Mo15 O39 1.955529 1_555
Mo15 O35 2.381907 1_555
Mo15 O30 2.460808 1_545
H0 O0 0.989379 1_555
H1 O1 0.989379 1_555
H2 O30 1.000989 1_555
H3 O31 1.000989 1_555
H4 O60 0.981697 1_655
H5 O61 0.981704 1_555
H6 O61 0.981697 1_455
H7 O60 0.981704 1_555
H8 O62 0.972799 1_555
H9 O63 0.972792 1_555
H10 O63 0.972799 1_555
H11 O62 0.972792 1_555
O2 P0 1.561982 1_555
O3 P1 1.561982 1_555
O4 P0 1.561982 1_555
O5 P1 1.561982 1_555
O32 P0 1.556960 1_555
O33 P1 1.556960 1_555
O34 P1 1.556960 1_555
O35 P0 1.556960 1_555
