# generated using pymatgen
data_SrLa2(CoO3)3
_symmetry_space_group_name_H-M   'P 1'
_cell_length_a   5.46235943
_cell_length_b   5.55644409
_cell_length_c   13.66829280
_cell_angle_alpha   90.35647097
_cell_angle_beta   90.15511161
_cell_angle_gamma   60.35721911
_symmetry_Int_Tables_number   1
_chemical_formula_structural   SrLa2(CoO3)3
_chemical_formula_sum   'Sr2 La4 Co6 O18'
_cell_volume   360.55019292
_cell_formula_units_Z   2
loop_
 _symmetry_equiv_pos_site_id
 _symmetry_equiv_pos_as_xyz
  1  'x, y, z'
loop_
 _atom_site_type_symbol
 _atom_site_label
 _atom_site_symmetry_multiplicity
 _atom_site_fract_x
 _atom_site_fract_y
 _atom_site_fract_z
 _atom_site_occupancy
  Sr  Sr0  1  0.32055700  0.33658400  0.41821800  1
  Sr  Sr1  1  0.34605700  0.33051700  0.91493300  1
  La  La0  1  0.68241900  0.65071500  0.08223400  1
  La  La1  1  0.66506600  0.65705900  0.58441200  1
  La  La2  1  0.98326300  0.01629000  0.25192900  1
  La  La3  1  0.00251400  0.00805600  0.74771100  1
  Co  Co0  1  0.33356000  0.33277600  0.16665800  1
  Co  Co1  1  0.66968900  0.66785000  0.83906200  1
  Co  Co2  1  0.99675500  0.99917600  0.49442400  1
  Co  Co3  1  0.33334000  0.33306700  0.66665200  1
  Co  Co4  1  0.66064400  0.67069000  0.33671500  1
  Co  Co5  1  0.00562800  0.99696300  0.99640800  1
  O  O0  1  0.78969200  0.84281800  0.44080900  1
  O  O1  1  0.87646200  0.82621000  0.89172700  1
  O  O2  1  0.82452300  0.32683400  0.41176100  1
  O  O3  1  0.84103700  0.34310500  0.92293700  1
  O  O4  1  0.30545700  0.81090100  0.39549800  1
  O  O5  1  0.36070200  0.85702100  0.93775700  1
  O  O6  1  0.12433900  0.17087700  0.11038500  1
  O  O7  1  0.21824600  0.10300600  0.57092200  1
  O  O8  1  0.54304500  0.49396200  0.22361600  1
  O  O9  1  0.44926100  0.56236000  0.76233700  1
  O  O10  1  0.47563900  0.06040200  0.25668700  1
  O  O11  1  0.48672800  0.03215100  0.74496400  1
  O  O12  1  0.19231900  0.60514200  0.07678700  1
  O  O13  1  0.17925400  0.63386000  0.58796100  1
  O  O14  1  0.97775800  0.57800100  0.25760800  1
  O  O15  1  0.97179000  0.46907700  0.72842700  1
  O  O16  1  0.68972100  0.08739600  0.07595300  1
  O  O17  1  0.69453300  0.19713600  0.60451200  1
loop_
_geom_bond_atom_site_label_1
_geom_bond_atom_site_label_2
_geom_bond_distance
_geom_bond_site_symmetry_2
La0 O8 2.399461 1_555
La0 O16 2.448406 1_565
La0 O5 2.513689 1_554
La0 O6 2.593269 1_655
La0 O3 2.629040 1_554
La0 O12 2.670308 1_655
La0 O14 2.803227 1_555
La0 O12 2.811726 1_555
La0 O6 3.011917 1_565
La0 O10 3.089848 1_565
La0 O16 3.111167 1_555
La0 O1 3.150172 1_554
La1 O15 2.459571 1_555
La1 O0 2.471614 1_555
La1 O7 2.480281 1_565
La1 O17 2.496750 1_555
La1 O13 2.720318 1_555
La1 O13 2.747518 1_655
La1 O11 2.838098 1_565
La1 O2 2.840887 1_555
La1 O9 2.868057 1_555
La1 O7 3.071844 1_655
La1 O17 3.094210 1_565
La1 O4 3.097690 1_555
La2 O6 2.399598 1_655
La2 O14 2.452052 1_545
La2 O4 2.504593 1_645
La2 O8 2.582843 1_555
La2 O2 2.642959 1_555
La2 O10 2.661082 1_555
La2 O16 2.806565 1_555
La2 O10 2.819370 1_655
La2 O8 3.022709 1_645
La2 O12 3.101608 1_645
La2 O14 3.106840 1_555
La2 O0 3.125055 1_545
La3 O17 2.454451 1_455
La3 O1 2.467816 1_445
La3 O9 2.480629 1_545
La3 O15 2.498506 1_455
La3 O11 2.714034 1_555
La3 O11 2.753814 1_455
La3 O13 2.827040 1_545
La3 O7 2.855216 1_555
La3 O3 2.883004 1_455
La3 O9 3.073672 1_455
La3 O15 3.090892 1_445
La3 O5 3.107302 1_545
Co0 O12 1.804863 1_555
Co0 O10 1.806426 1_555
Co0 O6 1.926272 1_555
Co0 O8 1.928177 1_555
Co0 O16 2.132861 1_555
Co0 O14 2.133475 1_455
Co1 O1 1.881205 1_555
Co1 O9 1.891225 1_555
Co1 O3 1.948232 1_555
Co1 O5 2.003270 1_555
Co1 O15 2.102273 1_555
Co1 O11 2.185127 1_565
Co2 O0 1.879023 1_555
Co2 O7 1.888380 1_665
Co2 O2 1.949837 1_565
Co2 O4 2.003973 1_655
Co2 O17 2.096664 1_565
Co2 O13 2.184580 1_655
Co3 O11 1.809711 1_555
Co3 O13 1.812348 1_555
Co3 O15 1.925901 1_455
Co3 O17 1.926525 1_555
Co3 O9 2.123069 1_555
Co3 O7 2.123943 1_555
Co4 O4 1.876753 1_555
Co4 O14 1.885629 1_555
Co4 O2 1.957432 1_555
Co4 O0 2.020021 1_555
Co4 O8 2.089578 1_555
Co4 O10 2.183031 1_565
Co5 O5 1.875617 1_555
Co5 O16 1.886248 1_466
Co5 O3 1.955659 1_465
Co5 O1 2.021142 1_455
Co5 O6 2.092103 1_566
Co5 O12 2.194172 1_556
O0 Sr0 2.690926 1_565
O0 Sr0 2.888225 1_655
O1 Sr1 2.698948 1_655
O1 Sr1 2.882702 1_565
O2 Sr0 2.728114 1_555
O2 Sr0 2.737891 1_655
O3 Sr1 2.727163 1_655
O3 Sr1 2.740902 1_555
O4 Sr0 2.616142 1_555
O4 Sr0 2.976903 1_565
O5 Sr1 2.612954 1_565
O5 Sr1 2.980305 1_555
O6 Sr1 3.240394 1_554
O7 Sr0 2.666587 1_555
O8 Sr0 3.227119 1_555
O9 Sr1 2.661905 1_555
O10 Sr0 2.574731 1_555
O11 Sr1 2.727222 1_555
O12 Sr1 2.574551 1_554
O13 Sr0 2.721746 1_555
O14 Sr0 2.766691 1_655
O15 Sr1 3.116090 1_655
O16 Sr1 2.774673 1_554
O17 Sr0 3.112523 1_555
