# generated using pymatgen
data_Cr4CN4
_symmetry_space_group_name_H-M   'P 1'
_cell_length_a   9.38225500
_cell_length_b   2.71794600
_cell_length_c   12.35092700
_cell_angle_alpha   90.00000000
_cell_angle_beta   90.00000000
_cell_angle_gamma   90.00000000
_symmetry_Int_Tables_number   1
_chemical_formula_structural   Cr4CN4
_chemical_formula_sum   'Cr16 C4 N16'
_cell_volume   314.95435016
_cell_formula_units_Z   4
loop_
 _symmetry_equiv_pos_site_id
 _symmetry_equiv_pos_as_xyz
  1  'x, y, z'
loop_
 _atom_site_type_symbol
 _atom_site_label
 _atom_site_symmetry_multiplicity
 _atom_site_fract_x
 _atom_site_fract_y
 _atom_site_fract_z
 _atom_site_occupancy
  Cr  Cr0  1  0.08045400  0.25000000  0.17937600  1
  Cr  Cr1  1  0.58045400  0.25000000  0.32062400  1
  Cr  Cr2  1  0.91954600  0.75000000  0.82062400  1
  Cr  Cr3  1  0.41954600  0.75000000  0.67937600  1
  Cr  Cr4  1  0.81396500  0.25000000  0.07241700  1
  Cr  Cr5  1  0.31396500  0.25000000  0.42758300  1
  Cr  Cr6  1  0.18603500  0.75000000  0.92758300  1
  Cr  Cr7  1  0.68603500  0.75000000  0.57241700  1
  Cr  Cr8  1  0.40442300  0.25000000  0.86300700  1
  Cr  Cr9  1  0.90442300  0.25000000  0.63699300  1
  Cr  Cr10  1  0.59557700  0.75000000  0.13699300  1
  Cr  Cr11  1  0.09557700  0.75000000  0.36300700  1
  Cr  Cr12  1  0.12955300  0.25000000  0.73126200  1
  Cr  Cr13  1  0.62955300  0.25000000  0.76873800  1
  Cr  Cr14  1  0.87044700  0.75000000  0.26873800  1
  Cr  Cr15  1  0.37044700  0.75000000  0.23126200  1
  C  C0  1  0.34074600  0.25000000  0.02221700  1
  C  C1  1  0.84074600  0.25000000  0.47778300  1
  C  C2  1  0.65925400  0.75000000  0.97778300  1
  C  C3  1  0.15925400  0.75000000  0.52221700  1
  N  N0  1  0.72563600  0.25000000  0.21639500  1
  N  N1  1  0.22563600  0.25000000  0.28360500  1
  N  N2  1  0.27436400  0.75000000  0.78360500  1
  N  N3  1  0.77436400  0.75000000  0.71639500  1
  N  N4  1  0.04653600  0.25000000  0.87194900  1
  N  N5  1  0.54653600  0.25000000  0.62805100  1
  N  N6  1  0.95346400  0.75000000  0.12805100  1
  N  N7  1  0.45346400  0.75000000  0.37194900  1
  N  N8  1  0.19720600  0.25000000  0.04304300  1
  N  N9  1  0.69720600  0.25000000  0.45695700  1
  N  N10  1  0.80279400  0.75000000  0.95695700  1
  N  N11  1  0.30279400  0.75000000  0.54304300  1
  N  N12  1  0.43290800  0.25000000  0.11131900  1
  N  N13  1  0.93290800  0.25000000  0.38868100  1
  N  N14  1  0.56709200  0.75000000  0.88868100  1
  N  N15  1  0.06709200  0.75000000  0.61131900  1
loop_
_geom_bond_atom_site_label_1
_geom_bond_atom_site_label_2
_geom_bond_distance
_geom_bond_site_symmetry_2
Cr0 N1 1.874197 1_555
Cr0 N6 1.915257 1_455
Cr0 N6 1.915257 1_445
Cr0 N8 2.008783 1_555
Cr1 N0 1.874197 1_555
Cr1 N7 1.915257 1_545
Cr1 N7 1.915257 1_555
Cr1 N9 2.008783 1_555
Cr2 N3 1.874197 1_555
Cr2 N4 1.915257 1_665
Cr2 N4 1.915257 1_655
Cr2 N10 2.008783 1_555
Cr3 N2 1.874197 1_555
Cr3 N5 1.915257 1_555
Cr3 N5 1.915257 1_565
Cr3 N11 2.008783 1_555
Cr4 N0 1.961887 1_555
Cr4 N10 1.972657 1_544
Cr4 N10 1.972657 1_554
Cr4 N6 2.007973 1_555
Cr4 N6 2.007973 1_545
Cr5 N1 1.961887 1_555
Cr5 N11 1.972657 1_545
Cr5 N11 1.972657 1_555
Cr5 N7 2.007973 1_545
Cr5 N7 2.007973 1_555
Cr6 N2 1.961887 1_555
Cr6 N8 1.972657 1_556
Cr6 N8 1.972657 1_566
Cr6 N4 2.007973 1_565
Cr6 N4 2.007973 1_555
Cr7 N3 1.961887 1_555
Cr7 N9 1.972657 1_565
Cr7 N9 1.972657 1_555
Cr7 N5 2.007973 1_555
Cr7 N5 2.007973 1_565
Cr8 N14 2.068007 1_555
Cr8 N14 2.068007 1_545
Cr8 N2 2.073056 1_545
Cr8 N2 2.073056 1_555
Cr9 N15 2.068007 1_645
Cr9 N15 2.068007 1_655
Cr9 N3 2.073056 1_545
Cr9 N3 2.073056 1_555
Cr10 N12 2.068007 1_565
Cr10 N12 2.068007 1_555
Cr10 N0 2.073056 1_565
Cr10 N0 2.073056 1_555
Cr11 N13 2.068007 1_465
Cr11 N13 2.068007 1_455
Cr11 N1 2.073056 1_555
Cr11 N1 2.073056 1_565
Cr12 N4 1.904198 1_555
Cr12 N2 2.027484 1_545
Cr12 N2 2.027484 1_555
Cr12 N15 2.093991 1_555
Cr12 N15 2.093991 1_545
Cr13 N5 1.904198 1_555
Cr13 N3 2.027484 1_545
Cr13 N3 2.027484 1_555
Cr13 N14 2.093991 1_555
Cr13 N14 2.093991 1_545
Cr14 N6 1.904198 1_555
Cr14 N0 2.027484 1_555
Cr14 N0 2.027484 1_565
Cr14 N13 2.093991 1_565
Cr14 N13 2.093991 1_555
Cr15 N7 1.904198 1_555
Cr15 N1 2.027484 1_555
Cr15 N1 2.027484 1_565
Cr15 N12 2.093991 1_555
Cr15 N12 2.093991 1_565
C0 N8 1.371073 1_555
C0 N12 1.399560 1_555
C0 Cr8 2.055145 1_554
C1 N9 1.371073 1_555
C1 N13 1.399560 1_555
C1 Cr9 2.055145 1_555
C2 N10 1.371073 1_555
C2 N14 1.399560 1_555
C2 Cr10 2.055145 1_556
C3 N11 1.371073 1_555
C3 N15 1.399560 1_555
C3 Cr11 2.055145 1_555
