# generated using pymatgen
data_KLiMg6O7
_symmetry_space_group_name_H-M   'P 1'
_cell_length_a   8.77227129
_cell_length_b   4.46968578
_cell_length_c   4.46968578
_cell_angle_alpha   90.00000000
_cell_angle_beta   90.00000000
_cell_angle_gamma   90.00000000
_symmetry_Int_Tables_number   1
_chemical_formula_structural   KLiMg6O7
_chemical_formula_sum   'K1 Li1 Mg6 O7'
_cell_volume   175.25323386
_cell_formula_units_Z   1
loop_
 _symmetry_equiv_pos_site_id
 _symmetry_equiv_pos_as_xyz
  1  'x, y, z'
loop_
 _atom_site_type_symbol
 _atom_site_label
 _atom_site_symmetry_multiplicity
 _atom_site_fract_x
 _atom_site_fract_y
 _atom_site_fract_z
 _atom_site_occupancy
  K  K0  1  0.99119467  0.00000000  0.00000000  1
  Li  Li0  1  0.98385378  0.50000000  0.50000000  1
  Mg  Mg0  1  0.49495752  0.00000000  0.00000000  1
  Mg  Mg1  1  0.52256568  0.50000000  0.50000000  1
  Mg  Mg2  1  0.24370905  0.00000000  0.50000000  1
  Mg  Mg3  1  0.76270699  0.00000000  0.50000000  1
  Mg  Mg4  1  0.24370905  0.50000000  0.00000000  1
  Mg  Mg5  1  0.76270699  0.50000000  -0.00000000  1
  O  O0  1  0.27074189  0.00000000  0.00000000  1
  O  O1  1  0.71894723  0.00000000  0.00000000  1
  O  O2  1  0.74883293  0.50000000  0.50000000  1
  O  O3  1  0.01957898  0.00000000  0.50000000  1
  O  O4  1  0.48345813  0.00000000  0.50000000  1
  O  O5  1  0.01957898  0.50000000  0.00000000  1
  O  O6  1  0.48345813  0.50000000  0.00000000  1
loop_
_geom_bond_atom_site_label_1
_geom_bond_atom_site_label_2
_geom_bond_distance
_geom_bond_site_symmetry_2
K0 O5 2.248671 1_645
K0 O3 2.248671 1_654
K0 O5 2.248671 1_655
K0 O3 2.248671 1_655
K0 O1 2.388228 1_555
K0 O0 2.452264 1_655
Li0 O2 2.061667 1_555
Li0 O3 2.256709 1_665
Li0 O5 2.256709 1_655
Li0 O5 2.256709 1_656
Li0 O3 2.256709 1_655
Mg0 O1 1.964899 1_555
Mg0 O0 1.966880 1_555
Mg0 O6 2.237118 1_555
Mg0 O4 2.237118 1_555
Mg0 O4 2.237118 1_554
Mg0 O6 2.237118 1_545
Mg1 O2 1.984878 1_555
Mg1 O4 2.261021 1_565
Mg1 O6 2.261021 1_556
Mg1 O6 2.261021 1_555
Mg1 O4 2.261021 1_555
Mg2 O3 1.966130 1_555
Mg2 O4 2.103144 1_555
Mg2 O0 2.247389 1_555
Mg2 O0 2.247389 1_556
Mg3 O2 2.238154 1_555
Mg3 O2 2.238154 1_545
Mg3 O3 2.253351 1_655
Mg3 O1 2.267572 1_555
Mg3 O1 2.267572 1_556
Mg3 O4 2.449647 1_555
Mg4 O5 1.966130 1_555
Mg4 O6 2.103144 1_555
Mg4 O0 2.247389 1_565
Mg4 O0 2.247389 1_555
Mg5 O2 2.238154 1_554
Mg5 O2 2.238154 1_555
Mg5 O5 2.253351 1_655
Mg5 O1 2.267572 1_555
Mg5 O1 2.267572 1_565
Mg5 O6 2.449647 1_555
