# generated using pymatgen
data_TbMn2O5
_symmetry_space_group_name_H-M   'P 1'
_cell_length_a   5.68489690
_cell_length_b   7.26797062
_cell_length_c   8.49437086
_cell_angle_alpha   90.00000000
_cell_angle_beta   90.00000000
_cell_angle_gamma   90.00000000
_symmetry_Int_Tables_number   1
_chemical_formula_structural   TbMn2O5
_chemical_formula_sum   'Tb4 Mn8 O20'
_cell_volume   350.96755809
_cell_formula_units_Z   4
loop_
 _symmetry_equiv_pos_site_id
 _symmetry_equiv_pos_as_xyz
  1  'x, y, z'
loop_
 _atom_site_type_symbol
 _atom_site_label
 _atom_site_symmetry_multiplicity
 _atom_site_fract_x
 _atom_site_fract_y
 _atom_site_fract_z
 _atom_site_occupancy
  Tb  Tb0  1  0.00000000  0.36246149  0.67140537  1
  Tb  Tb1  1  0.00000000  0.63753851  0.32859463  1
  Tb  Tb2  1  0.00000000  0.86246149  0.82859463  1
  Tb  Tb3  1  0.00000000  0.13753851  0.17140537  1
  Mn  Mn0  1  0.50000000  0.08842034  0.84951219  1
  Mn  Mn1  1  0.50000000  0.91157966  0.15048781  1
  Mn  Mn2  1  0.50000000  0.58842034  0.65048781  1
  Mn  Mn3  1  0.50000000  0.41157966  0.34951219  1
  Mn  Mn4  1  0.25452222  0.50000000  -0.00000000  1
  Mn  Mn5  1  0.74547778  -0.00000000  0.50000000  1
  Mn  Mn6  1  0.74547778  0.50000000  -0.00000000  1
  Mn  Mn7  1  0.25452222  -0.00000000  0.50000000  1
  O  O0  1  0.24447393  0.89526648  0.29363294  1
  O  O1  1  0.24447393  0.10473352  0.70636706  1
  O  O2  1  0.75552607  0.39526648  0.20636706  1
  O  O3  1  0.75552607  0.60473352  0.79363294  1
  O  O4  1  0.75552607  0.10473352  0.70636706  1
  O  O5  1  0.75552607  0.89526648  0.29363294  1
  O  O6  1  0.24447393  0.60473352  0.79363294  1
  O  O7  1  0.24447393  0.39526648  0.20636706  1
  O  O8  1  0.50000000  0.34672000  0.93389374  1
  O  O9  1  0.50000000  0.65328000  0.06610626  1
  O  O10  1  0.50000000  0.84672000  0.56610626  1
  O  O11  1  0.50000000  0.15328000  0.43389374  1
  O  O12  1  0.27243718  -0.00000000  -0.00000000  1
  O  O13  1  0.72756282  0.50000000  0.50000000  1
  O  O14  1  0.72756282  -0.00000000  -0.00000000  1
  O  O15  1  0.27243718  0.50000000  0.50000000  1
  O  O16  1  0.00000000  0.16267252  0.44441114  1
  O  O17  1  0.00000000  0.83732748  0.55558886  1
  O  O18  1  0.00000000  0.66267252  0.05558886  1
  O  O19  1  0.00000000  0.33732748  0.94441114  1
loop_
_geom_bond_atom_site_label_1
_geom_bond_atom_site_label_2
_geom_bond_distance
_geom_bond_site_symmetry_2
Mn0 O4 1.898078 1_555
Mn0 O1 1.898078 1_555
Mn0 O12 1.928890 1_556
Mn0 O14 1.928890 1_556
Mn0 O8 2.009494 1_555
Mn1 O0 1.898078 1_555
Mn1 O5 1.898078 1_555
Mn1 O12 1.928890 1_565
Mn1 O14 1.928890 1_565
Mn1 O9 2.009494 1_555
Mn2 O6 1.898078 1_555
Mn2 O3 1.898078 1_555
Mn2 O15 1.928890 1_555
Mn2 O13 1.928890 1_555
Mn2 O10 2.009494 1_555
Mn3 O7 1.898078 1_555
Mn3 O2 1.898078 1_555
Mn3 O15 1.928890 1_555
Mn3 O13 1.928890 1_555
Mn3 O11 2.009494 1_555
Mn4 O8 1.871859 1_554
Mn4 O9 1.871859 1_555
Mn4 O6 1.911950 1_554
Mn4 O7 1.911950 1_555
Mn4 O19 1.927281 1_554
Mn4 O18 1.927281 1_555
Mn5 O11 1.871859 1_555
Mn5 O10 1.871859 1_545
Mn5 O5 1.911950 1_545
Mn5 O4 1.911950 1_555
Mn5 O17 1.927281 1_645
Mn5 O16 1.927281 1_655
Mn6 O8 1.871859 1_554
Mn6 O9 1.871859 1_555
Mn6 O3 1.911950 1_554
Mn6 O2 1.911950 1_555
Mn6 O19 1.927281 1_654
Mn6 O18 1.927281 1_655
Mn7 O11 1.871859 1_555
Mn7 O10 1.871859 1_545
Mn7 O0 1.911950 1_545
Mn7 O1 1.911950 1_555
Mn7 O17 1.927281 1_545
Mn7 O16 1.927281 1_555
O0 Tb1 2.351274 1_555
O0 Tb3 2.471848 1_565
O1 Tb0 2.351274 1_555
O1 Tb2 2.471848 1_545
O2 Tb3 2.351274 1_655
O2 Tb1 2.471848 1_655
O3 Tb2 2.351274 1_655
O3 Tb0 2.471848 1_655
O4 Tb0 2.351274 1_655
O4 Tb2 2.471848 1_645
O5 Tb1 2.351274 1_655
O5 Tb3 2.471848 1_665
O6 Tb2 2.351274 1_555
O6 Tb0 2.471848 1_555
O7 Tb3 2.351274 1_555
O7 Tb1 2.471848 1_555
O12 Tb2 2.349009 1_544
O12 Tb3 2.349009 1_555
O13 Tb0 2.349009 1_655
O13 Tb1 2.349009 1_655
O14 Tb2 2.349009 1_644
O14 Tb3 2.349009 1_655
O15 Tb0 2.349009 1_555
O15 Tb1 2.349009 1_555
O16 Tb3 2.326196 1_555
O16 Tb0 2.413779 1_555
O17 Tb2 2.326196 1_555
O17 Tb1 2.413779 1_555
O18 Tb1 2.326196 1_555
O18 Tb2 2.413779 1_554
O19 Tb0 2.326196 1_555
O19 Tb3 2.413779 1_556
