# generated using pymatgen
data_Tb(IO3)3
_symmetry_space_group_name_H-M   'P 1'
_cell_length_a   6.67589400
_cell_length_b   6.59395200
_cell_length_c   8.22910700
_cell_angle_alpha   90.00000000
_cell_angle_beta   90.00000000
_cell_angle_gamma   90.00000000
_symmetry_Int_Tables_number   1
_chemical_formula_structural   Tb(IO3)3
_chemical_formula_sum   'Tb2 I6 O18'
_cell_volume   362.24960707
_cell_formula_units_Z   2
loop_
 _symmetry_equiv_pos_site_id
 _symmetry_equiv_pos_as_xyz
  1  'x, y, z'
loop_
 _atom_site_type_symbol
 _atom_site_label
 _atom_site_symmetry_multiplicity
 _atom_site_fract_x
 _atom_site_fract_y
 _atom_site_fract_z
 _atom_site_occupancy
  Tb  Tb0  1  0.75000000  0.12424200  0.25000000  1
  Tb  Tb1  1  0.25000000  0.87575800  0.75000000  1
  I  I0  1  0.75000000  0.10271600  0.75000000  1
  I  I1  1  0.25000000  0.89728400  0.25000000  1
  I  I2  1  0.75000000  0.63150500  0.95932600  1
  I  I3  1  0.75000000  0.63150500  0.54067400  1
  I  I4  1  0.25000000  0.36849500  0.04067400  1
  I  I5  1  0.25000000  0.36849500  0.45932600  1
  O  O0  1  0.75000000  0.76932000  0.25000000  1
  O  O1  1  0.25000000  0.23068000  0.75000000  1
  O  O2  1  0.43470200  0.40804300  0.25000000  1
  O  O3  1  0.06529800  0.40804300  0.25000000  1
  O  O4  1  0.56529800  0.59195700  0.75000000  1
  O  O5  1  0.93470200  0.59195700  0.75000000  1
  O  O6  1  0.75000000  0.35488400  0.01571400  1
  O  O7  1  0.75000000  0.35488400  0.48428600  1
  O  O8  1  0.25000000  0.64511600  0.98428600  1
  O  O9  1  0.25000000  0.64511600  0.51571400  1
  O  O10  1  0.43964900  0.03565100  0.11037800  1
  O  O11  1  0.06035100  0.03565100  0.11037800  1
  O  O12  1  0.43964900  0.03565100  0.38962200  1
  O  O13  1  0.06035100  0.03565100  0.38962200  1
  O  O14  1  0.56035100  0.96434900  0.88962200  1
  O  O15  1  0.93964900  0.96434900  0.88962200  1
  O  O16  1  0.56035100  0.96434900  0.61037800  1
  O  O17  1  0.93964900  0.96434900  0.61037800  1
loop_
_geom_bond_atom_site_label_1
_geom_bond_atom_site_label_2
_geom_bond_distance
_geom_bond_site_symmetry_2
I0 O15 1.937915 1_545
I0 O14 1.937915 1_545
I0 O17 1.937915 1_545
I0 O16 1.937915 1_545
I1 O12 1.937915 1_565
I1 O13 1.937915 1_565
I1 O10 1.937915 1_565
I1 O11 1.937915 1_565
I2 O6 1.882123 1_556
I2 O5 2.134398 1_555
I2 O4 2.134398 1_555
I2 O0 2.558793 1_556
I2 O15 2.597870 1_555
I2 O14 2.597870 1_555
I3 O7 1.882123 1_555
I3 O5 2.134398 1_555
I3 O4 2.134398 1_555
I3 O0 2.558793 1_555
I3 O17 2.597870 1_555
I3 O16 2.597870 1_555
I4 O8 1.882123 1_554
I4 O2 2.134398 1_555
I4 O3 2.134398 1_555
I4 O1 2.558793 1_554
I4 O10 2.597870 1_555
I4 O11 2.597870 1_555
I5 O9 1.882123 1_555
I5 O2 2.134398 1_555
I5 O3 2.134398 1_555
I5 O1 2.558793 1_555
I5 O12 2.597870 1_555
I5 O13 2.597870 1_555
O0 Tb0 2.340339 1_565
O1 Tb1 2.340339 1_545
O2 Tb0 2.816490 1_555
O3 Tb0 2.816490 1_455
O4 Tb1 2.816490 1_555
O5 Tb1 2.816490 1_655
O6 Tb0 2.455608 1_555
O7 Tb0 2.455608 1_555
O8 Tb1 2.455608 1_555
O9 Tb1 2.455608 1_555
O10 Tb0 2.440085 1_555
O11 Tb0 2.440085 1_455
O12 Tb0 2.440085 1_555
O13 Tb0 2.440085 1_455
O14 Tb1 2.440085 1_555
O15 Tb1 2.440085 1_655
O16 Tb1 2.440085 1_555
O17 Tb1 2.440085 1_655
