# generated using pymatgen
data_Ba2CeNbO6
_symmetry_space_group_name_H-M   'P 1'
_cell_length_a   8.66538891
_cell_length_b   8.66538891
_cell_length_c   8.66538891
_cell_angle_alpha   90.00000000
_cell_angle_beta   90.00000000
_cell_angle_gamma   90.00000000
_symmetry_Int_Tables_number   1
_chemical_formula_structural   Ba2CeNbO6
_chemical_formula_sum   'Ba8 Ce4 Nb4 O24'
_cell_volume   650.67508424
_cell_formula_units_Z   4
loop_
 _symmetry_equiv_pos_site_id
 _symmetry_equiv_pos_as_xyz
  1  'x, y, z'
loop_
 _atom_site_type_symbol
 _atom_site_label
 _atom_site_symmetry_multiplicity
 _atom_site_fract_x
 _atom_site_fract_y
 _atom_site_fract_z
 _atom_site_occupancy
  Ba  Ba0  1  0.50000000  0.50000000  0.50000000  1
  Ba  Ba1  1  0.00000000  -0.00000000  0.00000000  1
  Ba  Ba2  1  0.00000000  -0.00000000  0.50000000  1
  Ba  Ba3  1  0.00000000  0.50000000  0.00000000  1
  Ba  Ba4  1  0.50000000  -0.00000000  0.00000000  1
  Ba  Ba5  1  0.50000000  0.50000000  0.00000000  1
  Ba  Ba6  1  0.50000000  -0.00000000  0.50000000  1
  Ba  Ba7  1  0.00000000  0.50000000  0.50000000  1
  Ce  Ce0  1  0.75000000  0.75000000  0.75000000  1
  Ce  Ce1  1  0.75000000  0.25000000  0.25000000  1
  Ce  Ce2  1  0.25000000  0.75000000  0.25000000  1
  Ce  Ce3  1  0.25000000  0.25000000  0.75000000  1
  Nb  Nb0  1  0.25000000  0.25000000  0.25000000  1
  Nb  Nb1  1  0.25000000  0.75000000  0.75000000  1
  Nb  Nb2  1  0.75000000  0.25000000  0.75000000  1
  Nb  Nb3  1  0.75000000  0.75000000  0.25000000  1
  O  O0  1  0.23172635  0.26938916  0.48486741  1
  O  O1  1  0.23172635  0.73061084  0.51513259  1
  O  O2  1  0.76827365  0.26938916  0.51513259  1
  O  O3  1  0.76827365  0.73061084  0.48486741  1
  O  O4  1  0.26938916  0.48486741  0.23172635  1
  O  O5  1  0.73061084  0.51513259  0.23172635  1
  O  O6  1  0.26938916  0.51513259  0.76827365  1
  O  O7  1  0.73061084  0.48486741  0.76827365  1
  O  O8  1  0.48486741  0.23172635  0.26938916  1
  O  O9  1  0.51513259  0.23172635  0.73061084  1
  O  O10  1  0.51513259  0.76827365  0.26938916  1
  O  O11  1  0.48486741  0.76827365  0.73061084  1
  O  O12  1  0.26827365  0.23061084  0.01513259  1
  O  O13  1  0.26827365  0.76938916  0.98486741  1
  O  O14  1  0.73172635  0.23061084  0.98486741  1
  O  O15  1  0.73172635  0.76938916  0.01513259  1
  O  O16  1  0.23061084  0.01513259  0.26827365  1
  O  O17  1  0.76938916  0.98486741  0.26827365  1
  O  O18  1  0.23061084  0.98486741  0.73172635  1
  O  O19  1  0.76938916  0.01513259  0.73172635  1
  O  O20  1  0.01513259  0.26827365  0.23061084  1
  O  O21  1  0.98486741  0.26827365  0.76938916  1
  O  O22  1  0.98486741  0.73172635  0.23061084  1
  O  O23  1  0.01513259  0.73172635  0.76938916  1
loop_
_geom_bond_atom_site_label_1
_geom_bond_atom_site_label_2
_geom_bond_distance
_geom_bond_site_symmetry_2
Ba0 O4 3.068344 1_555
Ba0 O11 3.068344 1_555
Ba0 O1 3.068344 1_555
Ba0 O8 3.068344 1_555
Ba0 O5 3.068344 1_555
Ba0 O6 3.068344 1_555
Ba0 O7 3.068344 1_555
Ba0 O0 3.068344 1_555
Ba0 O9 3.068344 1_555
Ba0 O10 3.068344 1_555
Ba0 O2 3.068344 1_555
Ba0 O3 3.068344 1_555
Ba1 O13 3.068344 1_544
Ba1 O14 3.068344 1_454
Ba1 O17 3.068344 1_445
Ba1 O23 3.068344 1_544
Ba1 O21 3.068344 1_454
Ba1 O19 3.068344 1_454
Ba1 O15 3.068344 1_445
Ba1 O12 3.068344 1_555
Ba1 O18 3.068344 1_544
Ba1 O16 3.068344 1_555
Ba1 O20 3.068344 1_555
Ba1 O22 3.068344 1_445
Ba2 O17 2.835946 1_445
Ba2 O19 2.835946 1_455
Ba2 O16 2.835946 1_555
Ba2 O18 2.835946 1_545
Ba2 O1 3.081964 1_545
Ba2 O0 3.081964 1_555
Ba2 O2 3.081964 1_455
Ba2 O3 3.081964 1_445
Ba2 O22 3.297067 1_445
Ba2 O20 3.297067 1_555
Ba2 O21 3.297067 1_455
Ba2 O23 3.297067 1_545
Ba3 O23 2.835946 1_554
Ba3 O21 2.835946 1_454
Ba3 O22 2.835946 1_455
Ba3 O20 2.835946 1_555
Ba3 O5 3.081964 1_455
Ba3 O6 3.081964 1_554
Ba3 O4 3.081964 1_555
Ba3 O7 3.081964 1_454
Ba3 O15 3.297067 1_455
Ba3 O14 3.297067 1_454
Ba3 O12 3.297067 1_555
Ba3 O13 3.297067 1_554
Ba4 O13 2.835946 1_544
Ba4 O15 2.835946 1_545
Ba4 O12 2.835946 1_555
Ba4 O14 2.835946 1_554
Ba4 O11 3.081964 1_544
Ba4 O8 3.081964 1_555
Ba4 O9 3.081964 1_554
Ba4 O10 3.081964 1_545
Ba4 O16 3.297067 1_555
Ba4 O19 3.297067 1_554
Ba4 O17 3.297067 1_545
Ba4 O18 3.297067 1_544
Ba5 O6 2.835946 1_554
Ba5 O7 2.835946 1_554
Ba5 O4 2.835946 1_555
Ba5 O5 2.835946 1_555
Ba5 O15 3.081964 1_555
Ba5 O12 3.081964 1_555
Ba5 O13 3.081964 1_554
Ba5 O14 3.081964 1_554
Ba5 O11 3.297067 1_554
Ba5 O9 3.297067 1_554
Ba5 O8 3.297067 1_555
Ba5 O10 3.297067 1_555
Ba6 O8 2.835946 1_555
Ba6 O10 2.835946 1_545
Ba6 O9 2.835946 1_555
Ba6 O11 2.835946 1_545
Ba6 O17 3.081964 1_545
Ba6 O19 3.081964 1_555
Ba6 O16 3.081964 1_555
Ba6 O18 3.081964 1_545
Ba6 O0 3.297067 1_555
Ba6 O2 3.297067 1_555
Ba6 O3 3.297067 1_545
Ba6 O1 3.297067 1_545
Ba7 O0 2.835946 1_555
Ba7 O2 2.835946 1_455
Ba7 O1 2.835946 1_555
Ba7 O3 2.835946 1_455
Ba7 O20 3.081964 1_555
Ba7 O23 3.081964 1_555
Ba7 O21 3.081964 1_455
Ba7 O22 3.081964 1_455
Ba7 O7 3.297067 1_455
Ba7 O4 3.297067 1_555
Ba7 O5 3.297067 1_455
Ba7 O6 3.297067 1_555
Ce0 O19 2.309048 1_565
Ce0 O15 2.309048 1_556
Ce0 O23 2.309048 1_655
Ce0 O3 2.309048 1_555
Ce0 O7 2.309048 1_555
Ce0 O11 2.309048 1_555
Ce1 O20 2.309048 1_655
Ce1 O2 2.309048 1_555
Ce1 O14 2.309048 1_554
Ce1 O8 2.309048 1_555
Ce1 O5 2.309048 1_555
Ce1 O17 2.309048 1_545
Ce2 O16 2.309048 1_565
Ce2 O4 2.309048 1_555
Ce2 O1 2.309048 1_555
Ce2 O22 2.309048 1_455
Ce2 O13 2.309048 1_554
Ce2 O10 2.309048 1_555
Ce3 O12 2.309048 1_556
Ce3 O0 2.309048 1_555
Ce3 O18 2.309048 1_545
Ce3 O6 2.309048 1_555
Ce3 O9 2.309048 1_555
Ce3 O21 2.309048 1_455
Nb0 O4 2.048271 1_555
Nb0 O8 2.048271 1_555
Nb0 O12 2.048271 1_555
Nb0 O0 2.048271 1_555
Nb0 O16 2.048271 1_555
Nb0 O20 2.048271 1_555
Nb1 O11 2.048271 1_555
Nb1 O23 2.048271 1_555
Nb1 O1 2.048271 1_555
Nb1 O6 2.048271 1_555
Nb1 O18 2.048271 1_555
Nb1 O13 2.048271 1_555
Nb2 O21 2.048271 1_555
Nb2 O14 2.048271 1_555
Nb2 O7 2.048271 1_555
Nb2 O19 2.048271 1_555
Nb2 O9 2.048271 1_555
Nb2 O2 2.048271 1_555
Nb3 O5 2.048271 1_555
Nb3 O15 2.048271 1_555
Nb3 O22 2.048271 1_555
Nb3 O10 2.048271 1_555
Nb3 O3 2.048271 1_555
Nb3 O17 2.048271 1_555
