# generated using pymatgen
data_Ce2AlFe3
_symmetry_space_group_name_H-M   'P 1'
_cell_length_a   5.29066009
_cell_length_b   5.28765708
_cell_length_c   5.27057543
_cell_angle_alpha   90.00000000
_cell_angle_beta   59.90133310
_cell_angle_gamma   119.98122553
_symmetry_Int_Tables_number   1
_chemical_formula_structural   Ce2AlFe3
_chemical_formula_sum   'Ce2 Al1 Fe3'
_cell_volume   104.13349227
_cell_formula_units_Z   1
loop_
 _symmetry_equiv_pos_site_id
 _symmetry_equiv_pos_as_xyz
  1  'x, y, z'
loop_
 _atom_site_type_symbol
 _atom_site_label
 _atom_site_symmetry_multiplicity
 _atom_site_fract_x
 _atom_site_fract_y
 _atom_site_fract_z
 _atom_site_occupancy
  Ce  Ce0  1  0.51549361  0.75774680  0.72624979  1
  Ce  Ce1  1  0.98450639  0.99225320  0.02375021  1
  Al  Al0  1  0.75000000  0.37500000  0.87500000  1
  Fe  Fe0  1  0.25000000  0.37500000  0.37500000  1
  Fe  Fe1  1  0.25000000  0.87500000  0.37500000  1
  Fe  Fe2  1  0.75000000  0.37500000  0.37500000  1
loop_
_geom_bond_atom_site_label_1
_geom_bond_atom_site_label_2
_geom_bond_distance
_geom_bond_site_symmetry_2
Ce0 Ce1 3.018918 1_555
Ce0 Fe0 3.043547 1_555
Ce0 Fe1 3.043547 1_555
Ce0 Fe2 3.044388 1_555
Ce0 Fe2 3.044388 1_565
Ce0 Fe1 3.047835 1_655
Ce0 Fe0 3.047835 1_665
Ce0 Fe0 3.178383 1_556
Ce0 Fe1 3.178383 1_556
Ce0 Fe2 3.179397 1_456
Ce0 Ce1 3.309325 1_446
Ce0 Ce1 3.309325 1_456
Ce0 Ce1 3.313720 1_556
Ce1 Fe0 3.043547 1_665
Ce1 Fe1 3.043547 1_655
Ce1 Fe2 3.044388 1_565
Ce1 Fe2 3.044388 1_555
Ce1 Fe1 3.047835 1_555
Ce1 Fe0 3.047835 1_555
Ce1 Fe0 3.178383 1_664
Ce1 Fe1 3.178383 1_654
Ce1 Fe2 3.179397 1_664
Al0 Fe2 2.635288 1_555
Al0 Fe2 2.635288 1_556
Al0 Fe0 2.636385 1_556
Al0 Fe1 2.636385 1_546
Al0 Fe0 2.636385 1_655
Al0 Fe1 2.636385 1_655
Al0 Ce0 3.120098 1_555
Al0 Ce1 3.120098 1_546
Al0 Ce1 3.120098 1_556
Al0 Ce0 3.120098 1_545
Al0 Ce1 3.120311 1_446
Al0 Ce0 3.120311 1_655
Fe0 Fe1 2.643829 1_545
Fe0 Fe1 2.643829 1_555
Fe0 Fe2 2.645330 1_455
Fe0 Fe2 2.645330 1_555
Fe1 Fe2 2.645330 1_455
Fe1 Fe2 2.645330 1_565
