# generated using pymatgen
data_FeMo3PtN
_symmetry_space_group_name_H-M   'P 1'
_cell_length_a   6.78104900
_cell_length_b   6.78104900
_cell_length_c   6.78104900
_cell_angle_alpha   90.00000000
_cell_angle_beta   90.00000000
_cell_angle_gamma   90.00000000
_symmetry_Int_Tables_number   1
_chemical_formula_structural   FeMo3PtN
_chemical_formula_sum   'Fe4 Mo12 Pt4 N4'
_cell_volume   311.81043694
_cell_formula_units_Z   4
loop_
 _symmetry_equiv_pos_site_id
 _symmetry_equiv_pos_as_xyz
  1  'x, y, z'
loop_
 _atom_site_type_symbol
 _atom_site_label
 _atom_site_symmetry_multiplicity
 _atom_site_fract_x
 _atom_site_fract_y
 _atom_site_fract_z
 _atom_site_occupancy
  Fe  Fe0  1  0.18430600  0.81569400  0.31569400  1
  Fe  Fe1  1  0.31569400  0.18430600  0.81569400  1
  Fe  Fe2  1  0.81569400  0.31569400  0.18430600  1
  Fe  Fe3  1  0.68430600  0.68430600  0.68430600  1
  Mo  Mo0  1  0.80377600  0.95820300  0.37105900  1
  Mo  Mo1  1  0.69622400  0.04179700  0.87105900  1
  Mo  Mo2  1  0.19622400  0.45820300  0.12894100  1
  Mo  Mo3  1  0.30377600  0.54179700  0.62894100  1
  Mo  Mo4  1  0.95820300  0.37105900  0.80377600  1
  Mo  Mo5  1  0.04179700  0.87105900  0.69622400  1
  Mo  Mo6  1  0.45820300  0.12894100  0.19622400  1
  Mo  Mo7  1  0.54179700  0.62894100  0.30377600  1
  Mo  Mo8  1  0.37105900  0.80377600  0.95820300  1
  Mo  Mo9  1  0.87105900  0.69622400  0.04179700  1
  Mo  Mo10  1  0.12894100  0.19622400  0.45820300  1
  Mo  Mo11  1  0.62894100  0.30377600  0.54179700  1
  Pt  Pt0  1  0.56252300  0.43747700  0.93747700  1
  Pt  Pt1  1  0.43747700  0.93747700  0.56252300  1
  Pt  Pt2  1  0.93747700  0.56252300  0.43747700  1
  Pt  Pt3  1  0.06252300  0.06252300  0.06252300  1
  N  N0  1  0.87450400  0.12549600  0.62549600  1
  N  N1  1  0.62549600  0.87450400  0.12549600  1
  N  N2  1  0.12549600  0.62549600  0.87450400  1
  N  N3  1  0.37450400  0.37450400  0.37450400  1
loop_
_geom_bond_atom_site_label_1
_geom_bond_atom_site_label_2
_geom_bond_distance
_geom_bond_site_symmetry_2
Fe0 Pt1 2.535888 1_555
Fe0 Pt2 2.535888 1_455
Fe0 Pt3 2.535888 1_565
Fe0 Mo8 2.736206 1_554
Fe0 Mo7 2.736206 1_555
Fe0 Mo2 2.736206 1_555
Fe0 Mo0 2.780868 1_455
Fe0 Mo10 2.780868 1_565
Fe0 Mo5 2.780868 1_555
Fe0 Mo9 2.935625 1_455
Fe0 Mo3 2.935625 1_555
Fe0 Mo6 2.935625 1_565
Fe1 Pt3 2.535888 1_556
Fe1 Pt1 2.535888 1_545
Fe1 Pt0 2.535888 1_555
Fe1 Mo4 2.736206 1_455
Fe1 Mo3 2.736206 1_555
Fe1 Mo10 2.736206 1_555
Fe1 Mo8 2.780868 1_545
Fe1 Mo6 2.780868 1_556
Fe1 Mo1 2.780868 1_555
Fe1 Mo5 2.935625 1_545
Fe1 Mo2 2.935625 1_556
Fe1 Mo11 2.935625 1_555
Fe2 Pt0 2.535888 1_554
Fe2 Pt2 2.535888 1_555
Fe2 Pt3 2.535888 1_655
Fe2 Mo0 2.736206 1_545
Fe2 Mo11 2.736206 1_555
Fe2 Mo6 2.736206 1_555
Fe2 Mo4 2.780868 1_554
Fe2 Mo2 2.780868 1_655
Fe2 Mo9 2.780868 1_555
Fe2 Mo1 2.935625 1_554
Fe2 Mo10 2.935625 1_655
Fe2 Mo7 2.935625 1_555
Fe3 Pt1 2.535888 1_555
Fe3 Pt0 2.535888 1_555
Fe3 Pt2 2.535888 1_555
Fe3 Mo1 2.736206 1_565
Fe3 Mo9 2.736206 1_556
Fe3 Mo5 2.736206 1_655
Fe3 Mo7 2.780868 1_555
Fe3 Mo11 2.780868 1_555
Fe3 Mo3 2.780868 1_555
Fe3 Mo4 2.935625 1_555
Fe3 Mo8 2.935625 1_555
Fe3 Mo0 2.935625 1_555
Mo0 N0 2.119852 1_565
Mo0 N1 2.134582 1_555
Mo0 Pt1 2.806265 1_555
Mo0 Pt3 2.820681 1_665
Mo0 Pt2 2.867750 1_555
Mo1 N1 2.119852 1_546
Mo1 N0 2.134582 1_555
Mo1 Pt3 2.806265 1_656
Mo1 Pt1 2.820681 1_545
Mo1 Pt0 2.867750 1_555
Mo2 N2 2.119852 1_554
Mo2 N3 2.134582 1_555
Mo2 Pt0 2.806265 1_554
Mo2 Pt2 2.820681 1_455
Mo2 Pt3 2.867750 1_555
Mo3 N3 2.119852 1_555
Mo3 N2 2.134582 1_555
Mo3 Pt2 2.806265 1_455
Mo3 Pt0 2.820681 1_555
Mo3 Pt1 2.867750 1_555
Mo4 N2 2.119852 1_655
Mo4 N0 2.134582 1_555
Mo4 Pt2 2.806265 1_555
Mo4 Pt3 2.820681 1_656
Mo4 Pt0 2.867750 1_555
Mo5 N0 2.119852 1_465
Mo5 N2 2.134582 1_555
Mo5 Pt3 2.806265 1_566
Mo5 Pt2 2.820681 1_455
Mo5 Pt1 2.867750 1_555
Mo6 N1 2.119852 1_545
Mo6 N3 2.134582 1_555
Mo6 Pt1 2.806265 1_545
Mo6 Pt0 2.820681 1_554
Mo6 Pt3 2.867750 1_555
Mo7 N3 2.119852 1_555
Mo7 N1 2.134582 1_555
Mo7 Pt0 2.806265 1_554
Mo7 Pt1 2.820681 1_555
Mo7 Pt2 2.867750 1_555
Mo8 N1 2.119852 1_556
Mo8 N2 2.134582 1_555
Mo8 Pt0 2.806265 1_555
Mo8 Pt3 2.820681 1_566
Mo8 Pt1 2.867750 1_555
Mo9 N2 2.119852 1_654
Mo9 N1 2.134582 1_555
Mo9 Pt3 2.806265 1_665
Mo9 Pt0 2.820681 1_554
Mo9 Pt2 2.867750 1_555
Mo10 N0 2.119852 1_455
Mo10 N3 2.134582 1_555
Mo10 Pt2 2.806265 1_455
Mo10 Pt1 2.820681 1_545
Mo10 Pt3 2.867750 1_555
Mo11 N3 2.119852 1_555
Mo11 N0 2.134582 1_555
Mo11 Pt1 2.806265 1_545
Mo11 Pt2 2.820681 1_555
Mo11 Pt0 2.867750 1_555
