# generated using pymatgen
data_MgCd
_symmetry_space_group_name_H-M   'P 1'
_cell_length_a   5.04471475
_cell_length_b   9.36631687
_cell_length_c   5.32969796
_cell_angle_alpha   90.00000000
_cell_angle_beta   90.00000000
_cell_angle_gamma   90.00000000
_symmetry_Int_Tables_number   1
_chemical_formula_structural   MgCd
_chemical_formula_sum   'Mg6 Cd6'
_cell_volume   251.83034379
_cell_formula_units_Z   6
loop_
 _symmetry_equiv_pos_site_id
 _symmetry_equiv_pos_as_xyz
  1  'x, y, z'
loop_
 _atom_site_type_symbol
 _atom_site_label
 _atom_site_symmetry_multiplicity
 _atom_site_fract_x
 _atom_site_fract_y
 _atom_site_fract_z
 _atom_site_occupancy
  Mg  Mg0  1  0.00000000  0.17012874  0.15898147  1
  Mg  Mg1  1  -0.00000000  0.32987126  0.65898147  1
  Mg  Mg2  1  0.50000000  0.50000000  0.84470118  1
  Mg  Mg3  1  -0.00000000  0.67012874  0.65898147  1
  Mg  Mg4  1  0.00000000  0.82987126  0.15898147  1
  Mg  Mg5  1  0.50000000  -0.00000000  0.34470118  1
  Cd  Cd0  1  0.00000000  0.50000000  0.15895794  1
  Cd  Cd1  1  0.50000000  0.33330034  0.33918996  1
  Cd  Cd2  1  0.50000000  0.16669966  0.83918996  1
  Cd  Cd3  1  -0.00000000  -0.00000000  0.65895794  1
  Cd  Cd4  1  0.50000000  0.83330034  0.83918996  1
  Cd  Cd5  1  0.50000000  0.66669966  0.33918996  1
loop_
_geom_bond_atom_site_label_1
_geom_bond_atom_site_label_2
_geom_bond_distance
_geom_bond_site_symmetry_2
Mg0 Mg1 3.056147 1_555
Mg0 Mg1 3.056147 1_554
Mg0 Mg5 3.143442 1_555
Mg0 Mg5 3.143442 1_455
Mg0 Mg4 3.186959 1_545
Mg1 Mg2 3.143442 1_455
Mg1 Mg2 3.143442 1_555
Mg1 Mg3 3.186959 1_555
Mg2 Mg3 3.143442 1_555
Mg2 Mg3 3.143442 1_655
Mg3 Mg4 3.056147 1_555
Mg3 Mg4 3.056147 1_556
Mg4 Mg5 3.143442 1_565
Mg4 Mg5 3.143442 1_465
Cd0 Mg2 3.027797 1_554
Cd0 Mg2 3.027797 1_454
Cd0 Mg4 3.089679 1_555
Cd0 Mg0 3.089679 1_555
Cd0 Mg3 3.104824 1_554
Cd0 Mg1 3.104824 1_554
Cd0 Mg3 3.105039 1_555
Cd0 Mg1 3.105039 1_555
Cd0 Cd5 3.118149 1_555
Cd0 Cd1 3.118149 1_455
Cd0 Cd1 3.118149 1_555
Cd0 Cd5 3.118149 1_455
Cd1 Mg1 3.044384 1_655
Cd1 Mg1 3.044384 1_555
Cd1 Mg2 3.063264 1_554
Cd1 Cd2 3.088102 1_554
Cd1 Cd2 3.088102 1_555
Cd1 Mg0 3.101696 1_655
Cd1 Mg0 3.101696 1_555
Cd1 Mg2 3.113950 1_555
Cd1 Mg5 3.121935 1_555
Cd1 Cd5 3.122724 1_555
Cd2 Mg0 3.044384 1_656
Cd2 Mg0 3.044384 1_556
Cd2 Mg5 3.063264 1_555
Cd2 Mg1 3.101696 1_655
Cd2 Mg1 3.101696 1_555
Cd2 Mg5 3.113950 1_556
Cd2 Cd3 3.118149 1_555
Cd2 Cd3 3.118149 1_655
Cd2 Mg2 3.121935 1_555
Cd2 Cd4 3.122724 1_545
Cd3 Mg5 3.027797 1_455
Cd3 Mg5 3.027797 1_555
Cd3 Mg1 3.089679 1_555
Cd3 Mg3 3.089679 1_545
Cd3 Mg4 3.104824 1_545
Cd3 Mg0 3.104824 1_555
Cd3 Mg0 3.105039 1_556
Cd3 Mg4 3.105039 1_546
Cd3 Cd4 3.118149 1_545
Cd3 Cd4 3.118149 1_445
Cd4 Mg4 3.044384 1_556
Cd4 Mg4 3.044384 1_656
Cd4 Mg5 3.063264 1_565
Cd4 Cd5 3.088102 1_556
Cd4 Cd5 3.088102 1_555
Cd4 Mg3 3.101696 1_655
Cd4 Mg3 3.101696 1_555
Cd4 Mg5 3.113950 1_566
Cd4 Mg2 3.121935 1_555
Cd5 Mg3 3.044384 1_555
Cd5 Mg3 3.044384 1_655
Cd5 Mg2 3.063264 1_554
Cd5 Mg4 3.101696 1_655
Cd5 Mg4 3.101696 1_555
Cd5 Mg2 3.113950 1_555
Cd5 Mg5 3.121935 1_565
