# generated using pymatgen
data_La4MgGa2(FeO6)2
_symmetry_space_group_name_H-M   'P 1'
_cell_length_a   5.95102481
_cell_length_b   5.66676968
_cell_length_c   8.56812662
_cell_angle_alpha   84.19098487
_cell_angle_beta   91.69819474
_cell_angle_gamma   94.96889202
_symmetry_Int_Tables_number   1
_chemical_formula_structural   La4MgGa2(FeO6)2
_chemical_formula_sum   'La4 Mg1 Ga2 Fe2 O12'
_cell_volume   286.31609761
_cell_formula_units_Z   1
loop_
 _symmetry_equiv_pos_site_id
 _symmetry_equiv_pos_as_xyz
  1  'x, y, z'
loop_
 _atom_site_type_symbol
 _atom_site_label
 _atom_site_symmetry_multiplicity
 _atom_site_fract_x
 _atom_site_fract_y
 _atom_site_fract_z
 _atom_site_occupancy
  La  La0  1  0.43433300  0.46860900  0.73031200  1
  La  La1  1  0.89241000  0.06993800  0.80136400  1
  La  La2  1  0.56163800  0.53943500  0.25006600  1
  La  La3  1  0.06489500  0.99775600  0.21534900  1
  Mg  Mg0  1  0.08794000  0.81263400  0.57045800  1
  Ga  Ga0  1  0.01725400  0.53917000  0.99994300  1
  Ga  Ga1  1  0.57663300  0.00403400  0.48149000  1
  Fe  Fe0  1  0.01962800  0.39084800  0.44913600  1
  Fe  Fe1  1  0.48799100  0.03321200  0.02529200  1
  O  O0  1  0.54443800  0.87369000  0.69341300  1
  O  O1  1  0.04422700  0.64586200  0.77865900  1
  O  O2  1  0.45886700  0.11472300  0.27812300  1
  O  O3  1  0.94486200  0.40070300  0.21712700  1
  O  O4  1  0.70172100  0.31061000  0.53805700  1
  O  O5  1  0.18439100  0.24506100  0.96587800  1
  O  O6  1  0.28987800  0.73432000  0.07260000  1
  O  O7  1  0.81436000  0.82545300  0.41838800  1
  O  O8  1  0.28784900  0.65146100  0.44668000  1
  O  O9  1  0.80028500  0.81046000  0.04520800  1
  O  O10  1  0.68103700  0.31711400  0.93492000  1
  O  O11  1  0.16488600  0.15538300  0.59587000  1
loop_
_geom_bond_atom_site_label_1
_geom_bond_atom_site_label_2
_geom_bond_distance
_geom_bond_site_symmetry_2
La0 O0 2.324528 1_555
La0 O10 2.393106 1_555
La0 O4 2.597663 1_555
La0 O11 2.619160 1_555
La0 O1 2.667433 1_555
La0 O5 2.687916 1_555
La0 O8 2.694552 1_555
La1 O10 2.359804 1_555
La1 O11 2.413387 1_655
La1 O5 2.414585 1_655
La1 O0 2.464994 1_545
La1 O9 2.476719 1_546
La1 O1 2.666523 1_645
La1 O4 2.780481 1_555
La2 O2 2.420923 1_555
La2 O6 2.443548 1_555
La2 O3 2.508460 1_555
La2 O8 2.540466 1_555
La2 O9 2.584734 1_555
La2 O7 2.625104 1_555
La2 O4 2.807631 1_555
La3 O9 2.370431 1_455
La3 O7 2.400083 1_455
La3 O2 2.440021 1_565
La3 O3 2.452483 1_465
La3 O6 2.515948 1_555
La3 O5 2.519853 1_564
La3 O8 3.007949 1_555
Mg0 O1 1.945952 1_555
Mg0 O8 1.957883 1_555
Mg0 O11 1.988760 1_565
Mg0 O7 2.056506 1_455
Ga0 O1 1.937850 1_555
Ga0 O3 1.989340 1_456
Ga0 O6 2.002835 1_556
Ga0 O5 2.062777 1_555
Ga0 O9 2.162227 1_456
Ga0 O10 2.353051 1_455
Ga1 O0 1.898411 1_545
Ga1 O2 1.924408 1_555
Ga1 O7 1.929234 1_545
Ga1 O4 1.931909 1_555
Ga1 O8 2.555319 1_545
Fe0 O11 1.975886 1_555
Fe0 O3 2.020438 1_455
Fe0 O4 2.057349 1_455
Fe0 O8 2.077654 1_555
Fe1 O6 1.991610 1_545
Fe1 O10 1.997000 1_554
Fe1 O5 2.272033 1_554
Fe1 O2 2.274834 1_555
Fe1 O9 2.328169 1_545
