# generated using pymatgen
data_Cs4Au6S5
_symmetry_space_group_name_H-M   'P 1'
_cell_length_a   10.39863476
_cell_length_b   10.39863476
_cell_length_c   5.36729548
_cell_angle_alpha   90.00000000
_cell_angle_beta   90.00000000
_cell_angle_gamma   120.00000214
_symmetry_Int_Tables_number   1
_chemical_formula_structural   Cs4Au6S5
_chemical_formula_sum   'Cs4 Au6 S5'
_cell_volume   502.61885382
_cell_formula_units_Z   1
loop_
 _symmetry_equiv_pos_site_id
 _symmetry_equiv_pos_as_xyz
  1  'x, y, z'
loop_
 _atom_site_type_symbol
 _atom_site_label
 _atom_site_symmetry_multiplicity
 _atom_site_fract_x
 _atom_site_fract_y
 _atom_site_fract_z
 _atom_site_occupancy
  Cs  Cs0  1  -0.00000000  0.00000000  0.16585595  1
  Cs  Cs1  1  0.00000000  0.59460662  0.44951003  1
  Cs  Cs2  1  0.40539338  0.40539338  0.44951003  1
  Cs  Cs3  1  0.59460662  0.00000000  0.44951003  1
  Au  Au0  1  0.71672593  0.54640005  0.92294667  1
  Au  Au1  1  0.45359995  0.17032587  0.92294667  1
  Au  Au2  1  0.82967413  0.28327407  0.92294667  1
  Au  Au3  1  0.54640005  0.71672593  0.92294667  1
  Au  Au4  1  0.28327407  0.82967413  0.92294667  1
  Au  Au5  1  0.17032587  0.45359995  0.92294667  1
  S  S0  1  0.33333300  0.66666700  0.13892895  1
  S  S1  1  0.66666700  0.33333300  0.13892895  1
  S  S2  1  0.75151807  0.75151807  0.70068801  1
  S  S3  1  0.24848193  0.00000000  0.70068801  1
  S  S4  1  0.00000000  0.24848193  0.70068801  1
loop_
_geom_bond_atom_site_label_1
_geom_bond_atom_site_label_2
_geom_bond_distance
_geom_bond_site_symmetry_2
Cs0 S2 3.593032 1_444
Cs0 S3 3.593032 1_554
Cs0 S4 3.593032 1_554
Cs0 S2 3.862221 1_445
Cs0 S4 3.862221 1_555
Cs0 S3 3.862221 1_555
Cs1 S0 3.571776 1_555
Cs1 S1 3.571779 1_455
Cs1 S4 3.843425 1_555
Cs1 S3 3.920745 1_565
Cs1 S2 3.920745 1_455
Cs2 S0 3.571785 1_555
Cs2 S1 3.571785 1_555
Cs2 S2 3.843425 1_555
Cs2 S3 3.920745 1_555
Cs2 S4 3.920745 1_555
Cs3 S1 3.571776 1_555
Cs3 S0 3.571779 1_545
Cs3 S3 3.843425 1_555
Cs3 S4 3.920745 1_655
Cs3 S2 3.920745 1_545
Au0 S2 2.309059 1_555
Au0 S1 2.317411 1_556
Au0 Cs1 3.729433 1_655
Au0 Cs2 3.786955 1_555
Au0 Cs1 3.929266 1_656
Au0 Cs2 3.983905 1_556
Au1 S3 2.309059 1_555
Au1 S1 2.317409 1_556
Au1 Cs2 3.729433 1_555
Au1 Cs3 3.786955 1_555
Au1 Cs2 3.929266 1_556
Au1 Cs3 3.983905 1_556
Au2 S4 2.309059 1_655
Au2 S1 2.317403 1_556
Au2 Cs3 3.729433 1_555
Au2 Cs1 3.786955 1_655
Au2 Cs3 3.929266 1_556
Au2 Cs1 3.983905 1_656
Au3 S2 2.309059 1_555
Au3 S0 2.317411 1_556
Au3 Cs3 3.729433 1_565
Au3 Cs2 3.786955 1_555
Au3 Cs3 3.929266 1_566
Au3 Cs2 3.983905 1_556
Au4 S3 2.309059 1_565
Au4 S0 2.317403 1_556
Au4 Cs1 3.729433 1_555
Au4 Cs3 3.786955 1_565
Au4 Cs1 3.929266 1_556
Au4 Cs3 3.983905 1_566
Au5 S4 2.309059 1_555
Au5 S0 2.317409 1_556
Au5 Cs2 3.729433 1_555
Au5 Cs1 3.786955 1_555
Au5 Cs2 3.929266 1_556
Au5 Cs1 3.983905 1_556
