# generated using pymatgen
data_KAsO4
_symmetry_space_group_name_H-M   'P 1'
_cell_length_a   6.40995448
_cell_length_b   6.40995448
_cell_length_c   6.40995448
_cell_angle_alpha   109.87474480
_cell_angle_beta   109.26983613
_cell_angle_gamma   109.26983613
_symmetry_Int_Tables_number   1
_chemical_formula_structural   KAsO4
_chemical_formula_sum   'K2 As2 O8'
_cell_volume   202.73408721
_cell_formula_units_Z   2
loop_
 _symmetry_equiv_pos_site_id
 _symmetry_equiv_pos_as_xyz
  1  'x, y, z'
loop_
 _atom_site_type_symbol
 _atom_site_label
 _atom_site_symmetry_multiplicity
 _atom_site_fract_x
 _atom_site_fract_y
 _atom_site_fract_z
 _atom_site_occupancy
  K  K0  1  0.50000000  0.75000000  0.25000000  1
  K  K1  1  0.00000000  0.50000000  0.50000000  1
  As  As0  1  0.50000000  0.25000000  0.75000000  1
  As  As1  1  0.00000000  0.00000000  0.00000000  1
  O  O0  1  0.75735600  0.26081000  0.70792700  1
  O  O1  1  0.94711700  0.98919000  0.24654600  1
  O  O2  1  0.24264400  0.95057100  0.50345400  1
  O  O3  1  0.05288300  0.29942900  0.04207300  1
  O  O4  1  0.55288300  0.29207300  0.04942900  1
  O  O5  1  0.25735600  0.95792700  0.01081000  1
  O  O6  1  0.44711700  0.49654600  0.73919000  1
  O  O7  1  0.74264400  0.75345400  0.70057100  1
loop_
_geom_bond_atom_site_label_1
_geom_bond_atom_site_label_2
_geom_bond_distance
_geom_bond_site_symmetry_2
K0 O5 2.780254 1_555
K0 O1 2.780254 1_555
K0 O3 2.780254 1_555
K0 O7 2.780254 1_555
K0 O0 2.960106 1_565
K0 O6 2.960106 1_554
K0 O4 2.960106 1_555
K0 O2 2.960106 1_555
K1 O6 2.780254 1_555
K1 O4 2.780254 1_455
K1 O2 2.780254 1_555
K1 O0 2.780254 1_455
K1 O5 2.960106 1_556
K1 O1 2.960106 1_445
K1 O3 2.960106 1_555
K1 O7 2.960106 1_455
As0 O4 1.740616 1_556
As0 O6 1.740616 1_555
As0 O2 1.740616 1_545
As0 O0 1.740616 1_555
As1 O1 1.740616 1_445
As1 O7 1.740616 1_444
As1 O5 1.740616 1_545
As1 O3 1.740616 1_555
