# generated using pymatgen
data_MgZr3U7O20
_symmetry_space_group_name_H-M   'P 1'
_cell_length_a   3.72324914
_cell_length_b   6.47209603
_cell_length_c   17.31883175
_cell_angle_alpha   91.67133846
_cell_angle_beta   96.19706108
_cell_angle_gamma   90.02627643
_symmetry_Int_Tables_number   1
_chemical_formula_structural   MgZr3U7O20
_chemical_formula_sum   'Mg1 Zr3 U7 O20'
_cell_volume   414.71786148
_cell_formula_units_Z   1
loop_
 _symmetry_equiv_pos_site_id
 _symmetry_equiv_pos_as_xyz
  1  'x, y, z'
loop_
 _atom_site_type_symbol
 _atom_site_label
 _atom_site_symmetry_multiplicity
 _atom_site_fract_x
 _atom_site_fract_y
 _atom_site_fract_z
 _atom_site_occupancy
  Mg  Mg0  1  0.85555249  0.95133591  0.71061055  1
  Zr  Zr0  1  0.42232862  0.82437187  0.84360543  1
  Zr  Zr1  1  0.19219348  0.38769753  0.38164352  1
  Zr  Zr2  1  0.50945019  0.51959055  0.02482102  1
  U  U0  1  0.91654058  0.34011196  0.83120270  1
  U  U1  1  0.78564052  0.57149107  0.56852007  1
  U  U2  1  0.69363638  0.88676216  0.38557892  1
  U  U3  1  0.28379699  0.07370595  0.56523489  1
  U  U4  1  0.10093976  0.70591629  0.20084111  1
  U  U5  1  0.60212607  0.20411368  0.20244920  1
  U  U6  1  0.00769273  0.02325609  0.01454415  1
  O  O0  1  0.94037661  0.01233776  0.87944127  1
  O  O1  1  0.48348980  0.82413856  0.96667271  1
  O  O2  1  0.76150081  0.89416632  0.52014110  1
  O  O3  1  0.31501959  0.76314067  0.62621950  1
  O  O4  1  0.43209714  0.49927900  0.86169745  1
  O  O5  1  0.98463116  0.37417661  0.96483581  1
  O  O6  1  0.89116922  0.70327619  0.78048552  1
  O  O7  1  0.17172682  0.70888930  0.34232800  1
  O  O8  1  0.81769267  0.20256315  0.63326472  1
  O  O9  1  0.62486066  0.87383140  0.24840265  1
  O  O10  1  0.26452003  0.40225107  0.52707833  1
  O  O11  1  0.71736094  0.54389559  0.43327326  1
  O  O12  1  0.38070809  0.05949089  0.76003989  1
  O  O13  1  0.67126658  0.22594484  0.34003123  1
  O  O14  1  0.57502340  0.53106930  0.14924474  1
  O  O15  1  0.12757901  0.37796734  0.25290198  1
  O  O16  1  0.21647735  0.07320523  0.43026820  1
  O  O17  1  0.03131709  0.68406611  0.06226429  1
  O  O18  1  0.07713087  0.03626463  0.15323979  1
  O  O19  1  0.52997735  0.19824595  0.05747596  1
loop_
_geom_bond_atom_site_label_1
_geom_bond_atom_site_label_2
_geom_bond_distance
_geom_bond_site_symmetry_2
Mg0 O6 2.034320 1_555
Mg0 O8 2.131783 1_565
Mg0 O12 2.154403 1_565
Mg0 O12 2.156009 1_665
Mg0 O3 2.632277 1_555
Mg0 O3 2.642747 1_655
O0 Zr0 2.298010 1_545
O0 Zr0 2.298589 1_645
O0 U0 2.300794 1_555
O0 U6 2.325149 1_656
O1 Zr0 2.118973 1_555
O1 Zr2 2.236863 1_556
O1 U6 2.396508 1_566
O1 U6 2.396547 1_666
O2 U1 2.270999 1_555
O2 U3 2.314926 1_665
O2 U2 2.315929 1_555
O2 U3 2.317857 1_565
O3 U3 2.294931 1_565
O3 U1 2.432112 1_555
O3 U1 2.433559 1_455
O4 Zr0 2.136005 1_555
O4 U0 2.183827 1_555
O4 U0 2.184572 1_455
O5 Zr2 2.299183 1_656
O5 U0 2.304928 1_555
O5 Zr2 2.331615 1_556
O5 U6 2.450528 1_656
O6 Zr0 2.280827 1_655
O6 Zr0 2.284661 1_555
O6 U0 2.531344 1_555
O7 Zr1 2.205058 1_555
O7 U2 2.300955 1_455
O7 U2 2.301258 1_555
O7 U4 2.435579 1_555
O8 U3 2.338940 1_555
O8 U3 2.341112 1_655
O8 U1 2.664657 1_555
O9 U4 2.294269 1_555
O9 U4 2.294842 1_655
O9 U5 2.301050 1_565
O9 U2 2.360873 1_555
O10 U3 2.243921 1_555
O10 U1 2.264100 1_455
O10 U1 2.265181 1_555
O10 Zr1 2.503047 1_555
O11 Zr1 2.283158 1_555
O11 Zr1 2.288505 1_655
O11 U1 2.330230 1_555
O11 U2 2.388660 1_555
O12 Zr0 2.124721 1_545
O12 U0 2.851840 1_555
O12 U0 2.852442 1_455
O13 Zr1 2.242655 1_655
O13 Zr1 2.243252 1_555
O13 U2 2.352699 1_545
O13 U5 2.368898 1_555
O14 Zr2 2.141417 1_555
O14 U5 2.330434 1_555
O14 U4 2.339769 1_655
O14 U4 2.340545 1_555
O15 Zr1 2.215668 1_555
O15 U4 2.328170 1_555
O15 U5 2.329936 1_455
O15 U5 2.330050 1_555
O16 Zr1 2.223514 1_555
O16 U3 2.323714 1_555
O16 U2 2.335741 1_545
O16 U2 2.337240 1_445
O17 Zr2 2.221155 1_555
O17 Zr2 2.239395 1_455
O17 U6 2.366494 1_565
O17 U4 2.385999 1_555
O18 U5 2.303786 1_455
O18 U5 2.304701 1_555
O18 U4 2.312130 1_545
O18 U6 2.387020 1_555
O19 Zr2 2.170383 1_555
O19 U6 2.288528 1_655
O19 U6 2.292087 1_555
O19 U5 2.495269 1_555
