# generated using pymatgen
data_ThTeWO7
_symmetry_space_group_name_H-M   'P 1'
_cell_length_a   4.09562251
_cell_length_b   8.68141100
_cell_length_c   15.68315040
_cell_angle_alpha   90.00000000
_cell_angle_beta   92.72236470
_cell_angle_gamma   90.00000000
_symmetry_Int_Tables_number   1
_chemical_formula_structural   ThTeWO7
_chemical_formula_sum   'Th4 Te4 W4 O28'
_cell_volume   556.99735082
_cell_formula_units_Z   4
loop_
 _symmetry_equiv_pos_site_id
 _symmetry_equiv_pos_as_xyz
  1  'x, y, z'
loop_
 _atom_site_type_symbol
 _atom_site_label
 _atom_site_symmetry_multiplicity
 _atom_site_fract_x
 _atom_site_fract_y
 _atom_site_fract_z
 _atom_site_occupancy
  Th  Th0  1  0.49685900  0.86326600  0.72440600  1
  Th  Th1  1  0.50314100  0.36326600  0.77559400  1
  Th  Th2  1  0.50314100  0.13673400  0.27559400  1
  Th  Th3  1  0.49685900  0.63673400  0.22440600  1
  Te  Te0  1  0.07579800  0.07455500  0.89155700  1
  Te  Te1  1  0.92420200  0.57455500  0.60844300  1
  Te  Te2  1  0.92420200  0.92544500  0.10844300  1
  Te  Te3  1  0.07579800  0.42544500  0.39155700  1
  W  W0  1  0.41183600  0.65168400  0.94471500  1
  W  W1  1  0.58816400  0.15168400  0.55528500  1
  W  W2  1  0.58816400  0.34831600  0.05528500  1
  W  W3  1  0.41183600  0.84831600  0.44471500  1
  O  O0  1  0.49836100  0.58621500  0.06535500  1
  O  O1  1  0.50163900  0.08621500  0.43464500  1
  O  O2  1  0.50163900  0.41378500  0.93464500  1
  O  O3  1  0.49836100  0.91378500  0.56535500  1
  O  O4  1  0.51073400  0.09723800  0.84637600  1
  O  O5  1  0.48926600  0.59723800  0.65362400  1
  O  O6  1  0.48926600  0.90276200  0.15362400  1
  O  O7  1  0.51073400  0.40276200  0.34637600  1
  O  O8  1  0.97072400  0.64628100  0.94508200  1
  O  O9  1  0.02927600  0.14628100  0.55491800  1
  O  O10  1  0.02927600  0.35371900  0.05491800  1
  O  O11  1  0.97072400  0.85371900  0.44508200  1
  O  O12  1  0.00902700  0.26812200  0.83108200  1
  O  O13  1  0.99097300  0.76812200  0.66891800  1
  O  O14  1  0.99097300  0.73187800  0.16891800  1
  O  O15  1  0.00902700  0.23187800  0.33108200  1
  O  O16  1  0.00658200  0.93099900  0.79921500  1
  O  O17  1  0.99341800  0.43099900  0.70078500  1
  O  O18  1  0.99341800  0.06900100  0.20078500  1
  O  O19  1  0.00658200  0.56900100  0.29921500  1
  O  O20  1  0.47485800  0.85606200  0.96042000  1
  O  O21  1  0.52514200  0.35606200  0.53958000  1
  O  O22  1  0.52514200  0.14393800  0.03958000  1
  O  O23  1  0.47485800  0.64393800  0.46042000  1
  O  O24  1  0.46607800  0.64063700  0.82308100  1
  O  O25  1  0.53392200  0.14063700  0.67691900  1
  O  O26  1  0.53392200  0.35936300  0.17691900  1
  O  O27  1  0.46607800  0.85936300  0.32308100  1
loop_
_geom_bond_atom_site_label_1
_geom_bond_atom_site_label_2
_geom_bond_distance
_geom_bond_site_symmetry_2
O0 W0 1.991143 1_554
O0 W2 2.105041 1_555
O0 Th3 2.532978 1_555
O1 W1 1.991143 1_555
O1 W3 2.105041 1_545
O1 Th2 2.532978 1_555
O2 W2 1.991143 1_556
O2 W0 2.105041 1_555
O2 Th1 2.532978 1_555
O3 W3 1.991143 1_555
O3 W1 2.105041 1_565
O3 Th0 2.532978 1_555
O4 Te0 1.958039 1_555
O4 Te0 2.396043 1_655
O4 Th1 2.561983 1_555
O4 Th0 2.788869 1_545
O5 Te1 1.958039 1_555
O5 Te1 2.396043 1_455
O5 Th0 2.561983 1_555
O5 Th1 2.788869 1_555
O6 Te2 1.958039 1_555
O6 Te2 2.396043 1_455
O6 Th3 2.561983 1_555
O6 Th2 2.788869 1_565
O7 Te3 1.958039 1_555
O7 Te3 2.396043 1_655
O7 Th2 2.561983 1_555
O7 Th3 2.788869 1_555
O8 W0 1.807519 1_655
O8 W0 2.289209 1_555
O9 W1 1.807519 1_455
O9 W1 2.289209 1_555
O10 W2 1.807519 1_455
O10 W2 2.289209 1_555
O11 W3 1.807519 1_655
O11 W3 2.289209 1_555
O12 Te0 1.942561 1_555
O12 Th1 2.358201 1_455
O12 Th1 2.387931 1_555
O13 Te1 1.942561 1_555
O13 Th0 2.358201 1_655
O13 Th0 2.387931 1_555
O14 Te2 1.942561 1_555
O14 Th3 2.358201 1_655
O14 Th3 2.387931 1_555
O15 Te3 1.942561 1_555
O15 Th2 2.358201 1_455
O15 Th2 2.387931 1_555
O16 Te0 1.921424 1_565
O16 Th0 2.418224 1_455
O16 Th0 2.445009 1_555
O17 Te1 1.921424 1_555
O17 Th1 2.418224 1_655
O17 Th1 2.445009 1_555
O18 Te2 1.921424 1_545
O18 Th2 2.418224 1_655
O18 Th2 2.445009 1_555
O19 Te3 1.921424 1_555
O19 Th3 2.418224 1_455
O19 Th3 2.445009 1_555
O20 W0 1.808135 1_555
O21 W1 1.808135 1_555
O22 W2 1.808135 1_555
O23 W3 1.808135 1_555
O24 W0 1.933329 1_555
O24 Th0 2.482891 1_555
O24 Th1 2.527203 1_555
O25 W1 1.933329 1_555
O25 Th1 2.482891 1_555
O25 Th0 2.527203 1_545
O26 W2 1.933329 1_555
O26 Th2 2.482891 1_555
O26 Th3 2.527203 1_555
O27 W3 1.933329 1_555
O27 Th3 2.482891 1_555
O27 Th2 2.527203 1_565
