# generated using pymatgen
data_Li3TiMn4O8
_symmetry_space_group_name_H-M   'P 1'
_cell_length_a   6.19473744
_cell_length_b   10.55372080
_cell_length_c   6.10716302
_cell_angle_alpha   73.03829861
_cell_angle_beta   60.38342749
_cell_angle_gamma   74.11278826
_symmetry_Int_Tables_number   1
_chemical_formula_structural   Li3TiMn4O8
_chemical_formula_sum   'Li6 Ti2 Mn8 O16'
_cell_volume   327.95259408
_cell_formula_units_Z   2
loop_
 _symmetry_equiv_pos_site_id
 _symmetry_equiv_pos_as_xyz
  1  'x, y, z'
loop_
 _atom_site_type_symbol
 _atom_site_label
 _atom_site_symmetry_multiplicity
 _atom_site_fract_x
 _atom_site_fract_y
 _atom_site_fract_z
 _atom_site_occupancy
  Li  Li0  1  0.73018300  0.24890400  0.74564400  1
  Li  Li1  1  0.26951700  0.75107100  0.25453100  1
  Li  Li2  1  0.75809400  0.23918800  0.25147700  1
  Li  Li3  1  0.24193800  0.76081000  0.74835500  1
  Li  Li4  1  0.24235700  0.25091200  0.74871700  1
  Li  Li5  1  0.75764000  0.74905200  0.25132600  1
  Ti  Ti0  1  0.49984400  0.00011900  0.49989400  1
  Ti  Ti1  1  0.00022100  0.50002100  0.99991400  1
  Mn  Mn0  1  0.50000900  0.49992800  0.49997300  1
  Mn  Mn1  1  0.24093600  0.24865400  0.25211200  1
  Mn  Mn2  1  0.75929200  0.75134600  0.74804800  1
  Mn  Mn3  1  0.00000300  0.99977700  0.00008300  1
  Mn  Mn4  1  0.00004600  0.99997400  0.49999000  1
  Mn  Mn5  1  0.49986600  0.50006500  0.99997500  1
  Mn  Mn6  1  0.49993500  0.99997000  0.99989600  1
  Mn  Mn7  1  0.99984900  0.50022600  0.50016500  1
  O  O0  1  0.89074200  0.39344400  0.85542400  1
  O  O1  1  0.38476700  0.88468700  0.38814700  1
  O  O2  1  0.61527500  0.11528700  0.61174400  1
  O  O3  1  0.10929200  0.60673000  0.14468100  1
  O  O4  1  0.33223900  0.38642200  0.38752000  1
  O  O5  1  0.88053900  0.88265500  0.88236100  1
  O  O6  1  0.11936700  0.11721500  0.11758300  1
  O  O7  1  0.66767800  0.61374700  0.61249100  1
  O  O8  1  0.87670800  0.37593700  0.34051300  1
  O  O9  1  0.39460900  0.87664500  0.84474500  1
  O  O10  1  0.34042800  0.38225500  0.88600100  1
  O  O11  1  0.85534100  0.88703400  0.36544400  1
  O  O12  1  0.14471500  0.11276200  0.63465800  1
  O  O13  1  0.65980900  0.61781600  0.11384600  1
  O  O14  1  0.60532200  0.12322700  0.15528300  1
  O  O15  1  0.12343800  0.62412000  0.65945700  1
loop_
_geom_bond_atom_site_label_1
_geom_bond_atom_site_label_2
_geom_bond_distance
_geom_bond_site_symmetry_2
Li0 O2 2.227481 1_555
Li0 O8 2.292179 1_555
Li0 O14 2.308511 1_556
Li0 O10 2.311454 1_555
Li0 O0 2.419132 1_555
Li0 O12 2.438421 1_655
Li1 O1 2.227670 1_555
Li1 O15 2.290898 1_555
Li1 O9 2.308743 1_554
Li1 O13 2.313394 1_555
Li1 O3 2.416194 1_555
Li1 O11 2.436067 1_455
Li2 O14 2.083652 1_555
Li2 O8 2.086097 1_555
Li2 O2 2.089086 1_555
Li2 O6 2.135988 1_655
Li2 O0 2.376208 1_554
Li2 O4 2.531166 1_555
Li3 O9 2.082936 1_555
Li3 O15 2.084549 1_555
Li3 O1 2.088742 1_555
Li3 O5 2.135980 1_455
Li3 O3 2.376391 1_556
Li3 O7 2.529902 1_555
Li4 O12 2.113925 1_555
Li4 O4 2.145363 1_555
Li4 O10 2.153147 1_555
Li4 O6 2.164195 1_556
Li4 O0 2.192480 1_455
Li4 O2 2.250217 1_555
Li5 O11 2.112868 1_555
Li5 O7 2.144246 1_555
Li5 O13 2.152096 1_555
Li5 O5 2.164154 1_554
Li5 O3 2.191519 1_655
Li5 O1 2.250034 1_555
Mn0 O10 2.176669 1_555
Mn0 O13 2.178051 1_555
Mn0 O4 2.203146 1_555
Mn0 O7 2.205465 1_555
Mn0 O8 2.220760 1_555
Mn0 O15 2.221152 1_555
Mn1 O10 2.154409 1_554
Mn1 O14 2.167652 1_555
Mn1 O4 2.175280 1_555
Mn1 O8 2.178669 1_455
Mn1 O12 2.237623 1_555
Mn1 O6 2.239385 1_555
Mn2 O13 2.152741 1_556
Mn2 O9 2.168518 1_555
Mn2 O7 2.175620 1_555
Mn2 O15 2.177950 1_655
Mn2 O5 2.235950 1_555
Mn2 O11 2.237080 1_555
Mn3 O5 2.034118 1_454
Mn3 O6 2.035423 1_565
Mn3 O11 2.063000 1_455
Mn3 O12 2.064263 1_564
Mn3 O9 2.291774 1_554
Mn3 O14 2.293388 1_465
Mn4 O6 2.154072 1_565
Mn4 O5 2.154158 1_455
Mn4 O12 2.186364 1_565
Mn4 O11 2.187210 1_455
Mn4 O1 2.217017 1_555
Mn4 O2 2.217385 1_465
Mn5 O7 2.171388 1_555
Mn5 O4 2.171391 1_556
Mn5 O10 2.205141 1_555
Mn5 O13 2.206589 1_556
Mn5 O3 2.208646 1_556
Mn5 O0 2.209907 1_555
Mn6 O2 2.174789 1_565
Mn6 O1 2.175193 1_556
Mn6 O9 2.193872 1_555
Mn6 O14 2.194636 1_566
Mn6 O6 2.202865 1_566
Mn6 O5 2.203338 1_555
Mn7 O7 1.968443 1_555
Mn7 O4 1.970689 1_655
Mn7 O3 1.993723 1_655
Mn7 O0 1.993772 1_555
Mn7 O15 2.295339 1_655
Mn7 O8 2.298332 1_555
O0 Ti1 2.022871 1_655
O1 Ti0 1.974701 1_565
O2 Ti0 1.974408 1_555
O3 Ti1 2.023468 1_554
O8 Ti1 2.003320 1_654
O9 Ti0 2.016278 1_565
O10 Ti1 2.022754 1_555
O11 Ti0 2.072170 1_565
O12 Ti0 2.068762 1_555
O13 Ti1 2.023781 1_654
O14 Ti0 2.013575 1_555
O15 Ti1 2.002734 1_555
