# generated using pymatgen
data_Dy2Ge2Ru
_symmetry_space_group_name_H-M   'P 1'
_cell_length_a   5.77662161
_cell_length_b   5.77662161
_cell_length_c   10.14390180
_cell_angle_alpha   63.81690479
_cell_angle_beta   63.81690479
_cell_angle_gamma   43.39647325
_symmetry_Int_Tables_number   1
_chemical_formula_structural   Dy2Ge2Ru
_chemical_formula_sum   'Dy4 Ge4 Ru2'
_cell_volume   204.66408607
_cell_formula_units_Z   2
loop_
 _symmetry_equiv_pos_site_id
 _symmetry_equiv_pos_as_xyz
  1  'x, y, z'
loop_
 _atom_site_type_symbol
 _atom_site_label
 _atom_site_symmetry_multiplicity
 _atom_site_fract_x
 _atom_site_fract_y
 _atom_site_fract_z
 _atom_site_occupancy
  Dy  Dy0  1  0.00003327  0.00003327  0.32753381  1
  Dy  Dy1  1  -0.00003327  -0.00003327  0.67246619  1
  Dy  Dy2  1  0.81627790  0.81627790  0.11236918  1
  Dy  Dy3  1  0.18372210  0.18372210  0.88763082  1
  Ge  Ge0  1  0.64553712  0.64553712  0.43556281  1
  Ge  Ge1  1  0.35446288  0.35446288  0.56443719  1
  Ge  Ge2  1  0.51187869  0.51187869  0.12414089  1
  Ge  Ge3  1  0.48812131  0.48812131  0.87585911  1
  Ru  Ru0  1  0.72946523  0.72946523  0.62814645  1
  Ru  Ru1  1  0.27053477  0.27053477  0.37185355  1
loop_
_geom_bond_atom_site_label_1
_geom_bond_atom_site_label_2
_geom_bond_distance
_geom_bond_site_symmetry_2
Dy0 Ge2 2.930032 1_545
Dy0 Ge2 2.930032 1_455
Dy0 Ge1 3.035051 1_545
Dy0 Ge1 3.035051 1_455
Dy0 Ru0 3.053289 1_445
Dy0 Ru1 3.127413 1_545
Dy0 Ru1 3.127413 1_455
Dy0 Ge0 3.134876 1_545
Dy0 Ge0 3.134876 1_455
Dy0 Ru1 3.142239 1_555
Dy0 Ge0 3.423616 1_445
Dy1 Ge3 2.930032 1_545
Dy1 Ge3 2.930032 1_455
Dy1 Ge0 3.035051 1_545
Dy1 Ge0 3.035051 1_455
Dy1 Ru1 3.053289 1_555
Dy1 Ru0 3.127413 1_545
Dy1 Ru0 3.127413 1_455
Dy1 Ge1 3.134876 1_545
Dy1 Ge1 3.134876 1_455
Dy1 Ru0 3.142239 1_445
Dy1 Ge1 3.423616 1_555
Dy2 Ge0 2.898345 1_555
Dy2 Ge2 3.036849 1_655
Dy2 Ge2 3.036849 1_565
Dy2 Ge3 3.084901 1_564
Dy2 Ge3 3.084901 1_654
Dy2 Ge2 3.212624 1_555
Dy2 Ru1 3.240869 1_565
Dy2 Ru1 3.240869 1_655
Dy3 Ge1 2.898345 1_555
Dy3 Ge3 3.036849 1_455
Dy3 Ge3 3.036849 1_545
Dy3 Ge2 3.084901 1_456
Dy3 Ge2 3.084901 1_546
Dy3 Ge3 3.212624 1_555
Dy3 Ru0 3.240869 1_455
Dy3 Ru0 3.240869 1_545
Ge0 Ru1 2.440449 1_655
Ge0 Ru1 2.440449 1_565
Ge0 Ru0 2.509916 1_555
Ge0 Ge1 2.755427 1_555
Ge1 Ru0 2.440449 1_455
Ge1 Ru0 2.440449 1_545
Ge1 Ru1 2.509916 1_555
Ge2 Ru1 2.615902 1_555
Ge2 Ge3 2.649180 1_554
Ge3 Ru0 2.615902 1_555
