# generated using pymatgen
data_Ho4(NiGe4)3
_symmetry_space_group_name_H-M   'P 1'
_cell_length_a   4.07099900
_cell_length_b   4.07965900
_cell_length_c   21.59786800
_cell_angle_alpha   90.00000000
_cell_angle_beta   90.00000000
_cell_angle_gamma   90.00000000
_symmetry_Int_Tables_number   1
_chemical_formula_structural   Ho4(NiGe4)3
_chemical_formula_sum   'Ho4 Ni3 Ge12'
_cell_volume   358.70360565
_cell_formula_units_Z   1
loop_
 _symmetry_equiv_pos_site_id
 _symmetry_equiv_pos_as_xyz
  1  'x, y, z'
loop_
 _atom_site_type_symbol
 _atom_site_label
 _atom_site_symmetry_multiplicity
 _atom_site_fract_x
 _atom_site_fract_y
 _atom_site_fract_z
 _atom_site_occupancy
  Ho  Ho0  1  0.00000000  0.50000000  0.32993100  1
  Ho  Ho1  1  0.50000000  0.50000000  0.83147400  1
  Ho  Ho2  1  0.50000000  0.50000000  0.16641200  1
  Ho  Ho3  1  0.00000000  0.50000000  0.66922400  1
  Ni  Ni0  1  0.50000000  0.00000000  0.61109200  1
  Ni  Ni1  1  0.50000000  0.00000000  0.38910000  1
  Ni  Ni2  1  0.00000000  0.00000000  0.88871700  1
  Ge  Ge0  1  0.00000000  0.00000000  0.44237800  1
  Ge  Ge1  1  0.50000000  0.00000000  0.94451800  1
  Ge  Ge2  1  0.50000000  0.00000000  0.06184500  1
  Ge  Ge3  1  0.00000000  0.00000000  0.55770700  1
  Ge  Ge4  1  0.00000000  0.00000000  0.20934500  1
  Ge  Ge5  1  0.50000000  0.00000000  0.71651100  1
  Ge  Ge6  1  0.50000000  0.00000000  0.28205200  1
  Ge  Ge7  1  0.00000000  0.00000000  0.78311800  1
  Ge  Ge8  1  0.00000000  0.50000000  0.06132900  1
  Ge  Ge9  1  0.50000000  0.50000000  0.55751200  1
  Ge  Ge10  1  0.50000000  0.50000000  0.44278800  1
  Ge  Ge11  1  0.00000000  0.50000000  0.94474700  1
loop_
_geom_bond_atom_site_label_1
_geom_bond_atom_site_label_2
_geom_bond_distance
_geom_bond_site_symmetry_2
Ho0 Ni1 3.152341 1_555
Ho0 Ni1 3.152341 1_465
Ho0 Ni1 3.152341 1_455
Ho0 Ni1 3.152341 1_565
Ho1 Ni2 3.135708 1_665
Ho1 Ni2 3.135708 1_655
Ho1 Ni2 3.135708 1_555
Ho1 Ni2 3.135708 1_565
Ho3 Ni0 3.143328 1_465
Ho3 Ni0 3.143328 1_455
Ho3 Ni0 3.143328 1_555
Ho3 Ni0 3.143328 1_565
Ge0 Ni1 2.338236 1_455
Ge0 Ni1 2.338236 1_555
Ge0 Ge3 2.490861 1_555
Ge0 Ge10 2.881708 1_545
Ge0 Ge10 2.881708 1_555
Ge0 Ge10 2.881708 1_445
Ge0 Ge10 2.881708 1_455
Ge0 Ho0 3.171605 1_555
Ge0 Ho0 3.171605 1_545
Ge1 Ni2 2.365528 1_655
Ge1 Ni2 2.365528 1_555
Ge1 Ge2 2.534013 1_556
Ge1 Ge11 2.881699 1_545
Ge1 Ge11 2.881699 1_645
Ge1 Ge11 2.881699 1_555
Ge1 Ge11 2.881699 1_655
Ge1 Ho1 3.181489 1_555
Ge1 Ho1 3.181489 1_545
Ge2 Ge8 2.881716 1_645
Ge2 Ge8 2.881716 1_655
Ge2 Ge8 2.881716 1_555
Ge2 Ge8 2.881716 1_545
Ge2 Ho2 3.043252 1_545
Ge2 Ho2 3.043252 1_555
Ge3 Ni0 2.339374 1_555
Ge3 Ni0 2.339374 1_455
Ge3 Ge9 2.881697 1_445
Ge3 Ge9 2.881697 1_455
Ge3 Ge9 2.881697 1_545
Ge3 Ge9 2.881697 1_555
Ge3 Ho3 3.156251 1_545
Ge3 Ho3 3.156251 1_555
Ge4 Ge6 2.570827 1_555
Ge4 Ge6 2.570827 1_455
Ge4 Ho2 3.027206 1_555
Ge4 Ho2 3.027206 1_545
Ge4 Ho2 3.027206 1_445
Ge4 Ho2 3.027206 1_455
Ge4 Ho0 3.308142 1_555
Ge4 Ho0 3.308142 1_545
Ge5 Ni0 2.276826 1_555
Ge5 Ge7 2.492537 1_555
Ge5 Ge7 2.492537 1_655
Ge5 Ho3 3.057321 1_545
Ge5 Ho3 3.057321 1_555
Ge5 Ho3 3.057321 1_645
Ge5 Ho3 3.057321 1_655
Ge5 Ho1 3.213405 1_545
Ge5 Ho1 3.213405 1_555
Ge6 Ni1 2.312009 1_555
Ge6 Ho0 3.061616 1_545
Ge6 Ho0 3.061616 1_555
Ge6 Ho0 3.061616 1_645
Ge6 Ho0 3.061616 1_655
Ge6 Ho2 3.224717 1_555
Ge6 Ho2 3.224717 1_545
Ge7 Ni2 2.280713 1_555
Ge7 Ho1 3.065111 1_445
Ge7 Ho1 3.065111 1_545
Ge7 Ho1 3.065111 1_555
Ge7 Ho1 3.065111 1_455
Ge7 Ho3 3.195599 1_545
Ge7 Ho3 3.195599 1_555
Ge8 Ho2 3.048639 1_555
Ge8 Ho2 3.048639 1_455
Ge9 Ni0 2.345218 1_555
Ge9 Ni0 2.345218 1_565
Ge9 Ho3 3.156672 1_555
Ge9 Ho3 3.156672 1_655
Ge10 Ni1 2.346370 1_555
Ge10 Ni1 2.346370 1_565
Ge10 Ge9 2.477794 1_555
Ge10 Ho0 3.175613 1_555
Ge10 Ho0 3.175613 1_655
Ge11 Ni2 2.371775 1_555
Ge11 Ni2 2.371775 1_565
Ge11 Ge8 2.517923 1_556
Ge11 Ho1 3.182515 1_555
Ge11 Ho1 3.182515 1_455
