# generated using pymatgen
data_Cu2AgBiPbS4
_symmetry_space_group_name_H-M   'P 1'
_cell_length_a   4.15391700
_cell_length_b   12.86339000
_cell_length_c   14.77709100
_cell_angle_alpha   90.00000000
_cell_angle_beta   90.00000000
_cell_angle_gamma   90.00000000
_symmetry_Int_Tables_number   1
_chemical_formula_structural   Cu2AgBiPbS4
_chemical_formula_sum   'Cu8 Ag4 Bi4 Pb4 S16'
_cell_volume   789.59101809
_cell_formula_units_Z   4
loop_
 _symmetry_equiv_pos_site_id
 _symmetry_equiv_pos_as_xyz
  1  'x, y, z'
loop_
 _atom_site_type_symbol
 _atom_site_label
 _atom_site_symmetry_multiplicity
 _atom_site_fract_x
 _atom_site_fract_y
 _atom_site_fract_z
 _atom_site_occupancy
  Cu  Cu0  1  0.25000000  0.44317300  0.64356800  1
  Cu  Cu1  1  0.25000000  0.94317300  0.85643200  1
  Cu  Cu2  1  0.75000000  0.55682700  0.35643200  1
  Cu  Cu3  1  0.75000000  0.05682700  0.14356800  1
  Cu  Cu4  1  0.25000000  0.94224600  0.13348300  1
  Cu  Cu5  1  0.25000000  0.44224600  0.36651700  1
  Cu  Cu6  1  0.75000000  0.05775400  0.86651700  1
  Cu  Cu7  1  0.75000000  0.55775400  0.63348300  1
  Ag  Ag0  1  0.25000000  0.16842800  0.07727300  1
  Ag  Ag1  1  0.25000000  0.66842800  0.42272700  1
  Ag  Ag2  1  0.75000000  0.83157200  0.92272700  1
  Ag  Ag3  1  0.75000000  0.33157200  0.57727300  1
  Bi  Bi0  1  0.25000000  0.07108100  0.60213100  1
  Bi  Bi1  1  0.25000000  0.57108100  0.89786900  1
  Bi  Bi2  1  0.75000000  0.92891900  0.39786900  1
  Bi  Bi3  1  0.75000000  0.42891900  0.10213100  1
  Pb  Pb0  1  0.25000000  0.21267100  0.33273100  1
  Pb  Pb1  1  0.25000000  0.71267100  0.16726900  1
  Pb  Pb2  1  0.75000000  0.78732900  0.66726900  1
  Pb  Pb3  1  0.75000000  0.28732900  0.83273100  1
  S  S0  1  0.25000000  0.27834900  0.68435800  1
  S  S1  1  0.25000000  0.77834900  0.81564200  1
  S  S2  1  0.75000000  0.72165100  0.31564200  1
  S  S3  1  0.75000000  0.22165100  0.18435800  1
  S  S4  1  0.25000000  0.99197500  0.28574600  1
  S  S5  1  0.25000000  0.49197500  0.21425400  1
  S  S6  1  0.75000000  0.00802500  0.71425400  1
  S  S7  1  0.75000000  0.50802500  0.78574600  1
  S  S8  1  0.25000000  0.10272900  0.91637700  1
  S  S9  1  0.25000000  0.60272900  0.58362300  1
  S  S10  1  0.75000000  0.89727100  0.08362300  1
  S  S11  1  0.75000000  0.39727100  0.41637700  1
  S  S12  1  0.25000000  0.37228500  0.96831100  1
  S  S13  1  0.25000000  0.87228500  0.53168900  1
  S  S14  1  0.75000000  0.62771500  0.03168900  1
  S  S15  1  0.75000000  0.12771500  0.46831100  1
loop_
_geom_bond_atom_site_label_1
_geom_bond_atom_site_label_2
_geom_bond_distance
_geom_bond_site_symmetry_2
Cu0 S0 2.204211 1_555
Cu0 S9 2.235428 1_555
Cu0 S7 3.069817 1_455
Cu0 S7 3.069817 1_555
Cu1 S1 2.204211 1_555
Cu1 S8 2.235428 1_565
Cu1 S6 3.069817 1_465
Cu1 S6 3.069817 1_565
Cu2 S2 2.204211 1_555
Cu2 S11 2.235428 1_555
Cu2 S5 3.069817 1_655
Cu2 S5 3.069817 1_555
Cu3 S3 2.204211 1_555
Cu3 S10 2.235428 1_545
Cu3 S4 3.069817 1_645
Cu3 S4 3.069817 1_545
Cu4 S10 2.278444 1_555
Cu4 S10 2.278444 1_455
Cu4 S4 2.339169 1_555
Cu4 Pb1 2.995018 1_555
Cu5 S11 2.278444 1_455
Cu5 S11 2.278444 1_555
Cu5 S5 2.339169 1_555
Cu5 Pb0 2.995018 1_555
Cu6 S8 2.278444 1_555
Cu6 S8 2.278444 1_655
Cu6 S6 2.339169 1_555
Cu6 Pb3 2.995018 1_555
Cu7 S9 2.278444 1_655
Cu7 S9 2.278444 1_555
Cu7 S7 2.339169 1_555
Cu7 Pb2 2.995018 1_555
Ag0 S8 2.523307 1_554
Ag0 S3 2.699348 1_555
Ag0 S3 2.699348 1_455
Ag0 Cu3 2.708195 1_555
Ag0 Cu3 2.708195 1_455
Ag0 Cu4 3.025711 1_545
Ag0 S12 3.077169 1_554
Ag1 S9 2.523307 1_555
Ag1 S2 2.699348 1_555
Ag1 S2 2.699348 1_455
Ag1 Cu2 2.708195 1_455
Ag1 Cu2 2.708195 1_555
Ag1 Cu5 3.025711 1_555
Ag1 S13 3.077169 1_555
Ag2 S10 2.523307 1_556
Ag2 S1 2.699348 1_555
Ag2 S1 2.699348 1_655
Ag2 Cu1 2.708195 1_655
Ag2 Cu1 2.708195 1_555
Ag2 Cu6 3.025711 1_565
Ag2 S14 3.077169 1_556
Ag3 S11 2.523307 1_555
Ag3 S0 2.699348 1_655
Ag3 S0 2.699348 1_555
Ag3 Cu0 2.708195 1_555
Ag3 Cu0 2.708195 1_655
Ag3 Cu7 3.025711 1_555
Ag3 S15 3.077169 1_555
Bi0 S13 2.760934 1_545
Bi0 S6 2.777917 1_455
Bi0 S6 2.777917 1_555
Bi0 S0 2.929994 1_555
Bi0 S15 2.958862 1_455
Bi0 S15 2.958862 1_555
Bi1 S12 2.760934 1_555
Bi1 S7 2.777917 1_455
Bi1 S7 2.777917 1_555
Bi1 S1 2.929994 1_555
Bi1 S14 2.958862 1_456
Bi1 S14 2.958862 1_556
Bi2 S15 2.760934 1_565
Bi2 S4 2.777917 1_555
Bi2 S4 2.777917 1_655
Bi2 S2 2.929994 1_555
Bi2 S13 2.958862 1_655
Bi2 S13 2.958862 1_555
Bi3 S14 2.760934 1_555
Bi3 S5 2.777917 1_555
Bi3 S5 2.777917 1_655
Bi3 S3 2.929994 1_555
Bi3 S12 2.958862 1_554
Bi3 S12 2.958862 1_654
Pb0 S4 2.922567 1_545
Pb0 S3 3.022292 1_455
Pb0 S3 3.022292 1_555
Pb0 S15 3.085764 1_455
Pb0 S15 3.085764 1_555
Pb1 S5 2.922567 1_555
Pb1 S2 3.022292 1_455
Pb1 S2 3.022292 1_555
Pb1 S14 3.085764 1_455
Pb1 S14 3.085764 1_555
Pb2 S6 2.922567 1_565
Pb2 S1 3.022292 1_555
Pb2 S1 3.022292 1_655
Pb2 S13 3.085764 1_555
Pb2 S13 3.085764 1_655
Pb3 S7 2.922567 1_555
Pb3 S0 3.022292 1_655
Pb3 S0 3.022292 1_555
Pb3 S12 3.085764 1_655
Pb3 S12 3.085764 1_555
