# generated using pymatgen
data_Ba2CdHg
_symmetry_space_group_name_H-M   'P 1'
_cell_length_a   14.09661433
_cell_length_b   14.09661433
_cell_length_c   14.09661433
_cell_angle_alpha   121.31123685
_cell_angle_beta   116.93165549
_cell_angle_gamma   91.56929670
_symmetry_Int_Tables_number   1
_chemical_formula_structural   Ba2CdHg
_chemical_formula_sum   'Ba2 Cd1 Hg1'
_cell_volume   2002.69371129
_cell_formula_units_Z   1
loop_
 _symmetry_equiv_pos_site_id
 _symmetry_equiv_pos_as_xyz
  1  'x, y, z'
loop_
 _atom_site_type_symbol
 _atom_site_label
 _atom_site_symmetry_multiplicity
 _atom_site_fract_x
 _atom_site_fract_y
 _atom_site_fract_z
 _atom_site_occupancy
  Ba  Ba0  1  0.74870500  0.00000000  0.74870500  1
  Ba  Ba1  1  0.25129500  0.00000000  0.25129500  1
  Cd  Cd0  1  0.00000000  0.00000000  0.00000000  1
  Hg  Hg0  1  0.50000000  0.00000000  0.50000000  1
loop_
_geom_bond_atom_site_label_1
_geom_bond_atom_site_label_2
_geom_bond_distance
_geom_bond_site_symmetry_2
Ba0 Hg0 3.667219 1_555
Ba0 Cd0 3.705409 1_656
Ba1 Hg0 3.667219 1_555
Ba1 Cd0 3.705409 1_555
