# generated using pymatgen
data_Ba5Li2(TeO5)3
_symmetry_space_group_name_H-M   'P 1'
_cell_length_a   10.13174911
_cell_length_b   10.13174911
_cell_length_c   10.13174911
_cell_angle_alpha   99.35091316
_cell_angle_beta   99.35091316
_cell_angle_gamma   132.45715099
_symmetry_Int_Tables_number   1
_chemical_formula_structural   Ba5Li2(TeO5)3
_chemical_formula_sum   'Ba10 Li4 Te6 O30'
_cell_volume   702.22934469
_cell_formula_units_Z   2
loop_
 _symmetry_equiv_pos_site_id
 _symmetry_equiv_pos_as_xyz
  1  'x, y, z'
loop_
 _atom_site_type_symbol
 _atom_site_label
 _atom_site_symmetry_multiplicity
 _atom_site_fract_x
 _atom_site_fract_y
 _atom_site_fract_z
 _atom_site_occupancy
  Ba  Ba0  1  0.75000000  0.25000000  0.50000000  1
  Ba  Ba1  1  0.54009496  0.64037758  0.68997494  1
  Ba  Ba2  1  0.95040364  0.85012001  0.31002506  1
  Ba  Ba3  1  0.14987999  0.45990504  0.10028263  1
  Ba  Ba4  1  0.35962242  0.04959636  0.89971737  1
  Ba  Ba5  1  0.85012001  0.54009496  0.89971737  1
  Ba  Ba6  1  0.64037758  0.95040364  0.10028263  1
  Ba  Ba7  1  0.04959636  0.14987999  0.68997494  1
  Ba  Ba8  1  0.25000000  0.75000000  0.50000000  1
  Ba  Ba9  1  0.45990504  0.35962242  0.31002506  1
  Li  Li0  1  0.40732468  0.19540333  0.60272901  1
  Li  Li1  1  0.80459667  0.40732468  0.21192136  1
  Li  Li2  1  0.19540333  0.59267532  0.78807864  1
  Li  Li3  1  0.59267532  0.80459667  0.39727099  1
  Te  Te0  1  0.30537759  0.90227426  0.20765184  1
  Te  Te1  1  0.09772574  0.30537759  0.40310333  1
  Te  Te2  1  0.50000000  0.50000000  -0.00000000  1
  Te  Te3  1  0.69462241  0.09772574  0.79234816  1
  Te  Te4  1  0.90227426  0.69462241  0.59689667  1
  Te  Te5  1  -0.00000000  -0.00000000  -0.00000000  1
  O  O0  1  0.52615239  0.13742051  0.19939054  1
  O  O1  1  0.32676185  0.52615239  0.38873187  1
  O  O2  1  0.75792980  0.75792980  0.00000000  1
  O  O3  1  0.93802897  0.32676185  0.80060946  1
  O  O4  1  0.13742051  0.93802897  0.61126813  1
  O  O5  1  0.24955312  0.76805629  0.01760841  1
  O  O6  1  0.04319777  0.13935570  0.18255246  1
  O  O7  1  0.45453282  0.36340503  0.81793785  1
  O  O8  1  0.65939269  0.95693803  0.61633072  1
  O  O9  1  0.85653142  0.55764931  0.41418073  1
  O  O10  1  0.13935570  0.95680223  0.09615793  1
  O  O11  1  0.95693803  0.34060731  0.29754434  1
  O  O12  1  0.36340503  0.54546718  0.90887220  1
  O  O13  1  0.55764931  0.14346858  0.70111790  1
  O  O14  1  0.76805629  0.75044688  0.51850317  1
  O  O15  1  0.06197103  0.67323815  0.19939054  1
  O  O16  1  0.86257949  0.06197103  0.38873187  1
  O  O17  1  0.24207020  0.24207020  -0.00000000  1
  O  O18  1  0.47384761  0.86257949  0.80060946  1
  O  O19  1  0.67323815  0.47384761  0.61126813  1
  O  O20  1  0.34060731  0.04306197  0.38366928  1
  O  O21  1  0.14346858  0.44235069  0.58581927  1
  O  O22  1  0.54546718  0.63659497  0.18206215  1
  O  O23  1  0.75044688  0.23194371  0.98239159  1
  O  O24  1  0.95680223  0.86064430  0.81744754  1
  O  O25  1  0.44235069  0.85653142  0.29888210  1
  O  O26  1  0.23194371  0.24955312  0.48149683  1
  O  O27  1  0.63659497  0.45453282  0.09112780  1
  O  O28  1  0.86064430  0.04319777  0.90384207  1
  O  O29  1  0.04306197  0.65939269  0.70245566  1
loop_
_geom_bond_atom_site_label_1
_geom_bond_atom_site_label_2
_geom_bond_distance
_geom_bond_site_symmetry_2
Ba0 O21 2.877573 1_655
Ba0 O9 2.877573 1_555
Ba0 O25 2.877573 1_545
Ba0 O13 2.877573 1_555
Ba0 O16 2.975704 1_555
Ba0 O3 2.975710 1_555
Ba0 O0 2.975713 1_555
Ba0 O19 2.975713 1_555
Ba0 O8 2.976085 1_545
Ba0 O20 2.976085 1_555
Ba0 O29 2.976088 1_655
Ba0 O11 2.976094 1_555
Ba1 O14 2.837691 1_555
Ba1 O8 2.853326 1_555
Ba1 O18 2.870506 1_555
Ba1 O19 2.878817 1_555
Ba1 O21 2.887279 1_555
Ba1 O26 2.887396 1_555
Ba1 O7 2.927529 1_555
Ba1 O1 2.942425 1_555
Ba1 O12 2.950805 1_555
Ba1 O28 2.973888 1_565
Ba1 O24 3.007383 1_555
Ba1 O2 3.023028 1_556
Ba2 O26 2.837692 1_665
Ba2 O20 2.853317 1_665
Ba2 O15 2.870506 1_655
Ba2 O16 2.878835 1_565
Ba2 O9 2.887276 1_555
Ba2 O14 2.887401 1_555
Ba2 O22 2.927538 1_555
Ba2 O4 2.942426 1_655
Ba2 O27 2.950805 1_555
Ba2 O10 2.973883 1_655
Ba2 O6 3.007392 1_665
Ba2 O2 3.023031 1_555
Ba3 O23 2.837691 1_454
Ba3 O11 2.853317 1_455
Ba3 O1 2.870506 1_555
Ba3 O3 2.878820 1_454
Ba3 O25 2.887279 1_555
Ba3 O5 2.887401 1_555
Ba3 O12 2.927529 1_554
Ba3 O15 2.942417 1_555
Ba3 O22 2.950805 1_555
Ba3 O6 2.973882 1_555
Ba3 O28 3.007382 1_454
Ba3 O17 3.023028 1_555
Ba4 O5 2.837677 1_546
Ba4 O29 2.853318 1_545
Ba4 O4 2.870506 1_545
Ba4 O0 2.878815 1_556
Ba4 O13 2.887279 1_555
Ba4 O23 2.887392 1_555
Ba4 O27 2.927536 1_556
Ba4 O18 2.942417 1_545
Ba4 O7 2.950814 1_555
Ba4 O24 2.973892 1_445
Ba4 O10 3.007383 1_546
Ba4 O17 3.023037 1_556
Ba5 O5 2.837691 1_656
Ba5 O29 2.853317 1_655
Ba5 O19 2.870506 1_555
Ba5 O15 2.878820 1_656
Ba5 O13 2.887279 1_555
Ba5 O23 2.887401 1_555
Ba5 O27 2.927529 1_556
Ba5 O3 2.942417 1_555
Ba5 O7 2.950805 1_555
Ba5 O24 2.973882 1_555
Ba5 O10 3.007382 1_656
Ba5 O2 3.023028 1_556
Ba6 O23 2.837677 1_564
Ba6 O11 2.853318 1_565
Ba6 O16 2.870506 1_565
Ba6 O18 2.878815 1_554
Ba6 O25 2.887279 1_555
Ba6 O5 2.887392 1_555
Ba6 O12 2.927536 1_554
Ba6 O0 2.942417 1_565
Ba6 O22 2.950814 1_555
Ba6 O6 2.973892 1_665
Ba6 O28 3.007383 1_564
Ba6 O2 3.023037 1_555
Ba7 O14 2.837692 1_445
Ba7 O8 2.853317 1_445
Ba7 O3 2.870506 1_455
Ba7 O4 2.878835 1_545
Ba7 O21 2.887276 1_555
Ba7 O26 2.887401 1_555
Ba7 O7 2.927538 1_555
Ba7 O16 2.942426 1_455
Ba7 O12 2.950805 1_555
Ba7 O28 2.973883 1_455
Ba7 O24 3.007392 1_445
Ba7 O17 3.023031 1_556
Ba8 O21 2.877573 1_555
Ba8 O9 2.877573 1_455
Ba8 O13 2.877573 1_565
Ba8 O25 2.877573 1_555
Ba8 O4 2.975704 1_555
Ba8 O15 2.975710 1_555
Ba8 O18 2.975713 1_555
Ba8 O1 2.975713 1_555
Ba8 O20 2.976085 1_565
Ba8 O8 2.976085 1_555
Ba8 O11 2.976088 1_455
Ba8 O29 2.976094 1_555
Ba9 O26 2.837691 1_555
Ba9 O20 2.853326 1_555
Ba9 O0 2.870506 1_555
Ba9 O1 2.878817 1_555
Ba9 O9 2.887279 1_555
Ba9 O14 2.887396 1_555
Ba9 O22 2.927529 1_555
Ba9 O19 2.942425 1_555
Ba9 O27 2.950805 1_555
Ba9 O10 2.973888 1_545
Ba9 O6 3.007383 1_555
Ba9 O17 3.023028 1_555
Li0 O13 2.085503 1_555
Li0 O20 2.180809 1_555
Li0 O4 2.192789 1_545
Li0 O19 2.192793 1_555
Li0 O7 2.288293 1_555
Li0 O26 2.406869 1_555
Li1 O9 2.085507 1_555
Li1 O11 2.180797 1_555
Li1 O0 2.192790 1_555
Li1 O15 2.192793 1_655
Li1 O27 2.288301 1_555
Li1 O23 2.406857 1_554
Li2 O21 2.085507 1_555
Li2 O29 2.180797 1_555
Li2 O18 2.192790 1_555
Li2 O3 2.192793 1_455
Li2 O12 2.288301 1_555
Li2 O5 2.406857 1_556
Li3 O25 2.085503 1_555
Li3 O8 2.180809 1_555
Li3 O16 2.192789 1_565
Li3 O1 2.192793 1_555
Li3 O22 2.288293 1_555
Li3 O14 2.406869 1_555
O0 Te0 1.901940 1_545
O1 Te1 1.901940 1_555
O2 Te5 1.977227 1_665
O2 Te2 2.106768 1_555
O3 Te3 1.901935 1_555
O4 Te4 1.901935 1_455
O5 Te0 1.906150 1_555
O6 Te5 1.913122 1_555
O6 Te1 2.291440 1_555
O7 Te2 1.887769 1_556
O8 Te3 1.903049 1_565
O9 Te4 1.893616 1_555
O10 Te5 1.913130 1_565
O10 Te0 2.291432 1_555
O11 Te1 1.903053 1_655
O12 Te2 1.887769 1_556
O13 Te3 1.893616 1_555
O14 Te4 1.906142 1_555
O15 Te0 1.901935 1_555
O16 Te1 1.901935 1_655
O17 Te5 1.977227 1_555
O17 Te2 2.106768 1_555
O18 Te3 1.901940 1_565
O19 Te4 1.901940 1_555
O20 Te0 1.903049 1_545
O21 Te1 1.893616 1_555
O22 Te2 1.887769 1_555
O23 Te3 1.906150 1_555
O24 Te5 1.913122 1_666
O24 Te4 2.291440 1_555
O25 Te0 1.893616 1_555
O26 Te1 1.906142 1_555
O27 Te2 1.887769 1_555
O28 Te5 1.913130 1_656
O28 Te3 2.291432 1_555
O29 Te4 1.903053 1_455
