# generated using pymatgen
data_HfGeRu
_symmetry_space_group_name_H-M   'P 1'
_cell_length_a   6.70351828
_cell_length_b   6.70351828
_cell_length_c   3.73344939
_cell_angle_alpha   90.00000000
_cell_angle_beta   90.00000000
_cell_angle_gamma   119.99998916
_symmetry_Int_Tables_number   1
_chemical_formula_structural   HfGeRu
_chemical_formula_sum   'Hf3 Ge3 Ru3'
_cell_volume   145.29361983
_cell_formula_units_Z   3
loop_
 _symmetry_equiv_pos_site_id
 _symmetry_equiv_pos_as_xyz
  1  'x, y, z'
loop_
 _atom_site_type_symbol
 _atom_site_label
 _atom_site_symmetry_multiplicity
 _atom_site_fract_x
 _atom_site_fract_y
 _atom_site_fract_z
 _atom_site_occupancy
  Hf  Hf0  1  1.00000000  0.41585708  0.50000000  1
  Hf  Hf1  1  0.58414292  0.58414292  0.50000000  1
  Hf  Hf2  1  0.41585708  1.00000000  0.50000000  1
  Ge  Ge0  1  0.33333300  0.66666700  0.00000000  1
  Ge  Ge1  1  0.66666700  0.33333300  -0.00000000  1
  Ge  Ge2  1  -0.00000000  -0.00000000  0.50000000  1
  Ru  Ru0  1  1.00000000  0.75371754  0.00000000  1
  Ru  Ru1  1  0.24628246  0.24628246  0.00000000  1
  Ru  Ru2  1  0.75371754  1.00000000  0.00000000  1
loop_
_geom_bond_atom_site_label_1
_geom_bond_atom_site_label_2
_geom_bond_distance
_geom_bond_site_symmetry_2
Hf0 Ru0 2.935000 1_556
Hf0 Ru0 2.935000 1_555
Hf0 Ru1 3.062555 1_656
Hf0 Ru1 3.062555 1_655
Hf0 Ru2 3.062555 1_546
Hf0 Ru2 3.062555 1_545
Hf1 Ru1 2.935000 1_555
Hf1 Ru1 2.935000 1_556
Hf1 Ru0 3.062555 1_556
Hf1 Ru2 3.062555 1_555
Hf1 Ru2 3.062555 1_556
Hf1 Ru0 3.062555 1_555
Hf2 Ru2 2.935000 1_555
Hf2 Ru2 2.935000 1_556
Hf2 Ru1 3.062555 1_565
Hf2 Ru1 3.062555 1_566
Hf2 Ru0 3.062555 1_456
Hf2 Ru0 3.062555 1_455
Ge0 Ru0 2.576328 1_455
Ge0 Ru2 2.576333 1_555
Ge0 Ru1 2.576335 1_555
Ge0 Hf2 2.747284 1_555
Ge0 Hf2 2.747284 1_554
Ge0 Hf0 2.747286 1_455
Ge0 Hf0 2.747286 1_454
Ge0 Hf1 2.747289 1_555
Ge0 Hf1 2.747289 1_554
Ge1 Ru2 2.576328 1_545
Ge1 Ru0 2.576333 1_555
Ge1 Ru1 2.576335 1_555
Ge1 Hf0 2.747284 1_555
Ge1 Hf0 2.747284 1_554
Ge1 Hf2 2.747286 1_544
Ge1 Hf2 2.747286 1_545
Ge1 Hf1 2.747289 1_555
Ge1 Hf1 2.747289 1_554
Ge2 Ru0 2.492053 1_445
Ge2 Ru0 2.492053 1_446
Ge2 Ru2 2.492053 1_446
Ge2 Ru2 2.492053 1_445
Ge2 Ru1 2.492053 1_556
Ge2 Ru1 2.492053 1_555
Ge2 Hf2 2.787706 1_545
Ge2 Hf0 2.787706 1_455
Ge2 Hf1 2.787706 1_445
