# generated using pymatgen
data_Ho3(Al3Ru)4
_symmetry_space_group_name_H-M   'P 1'
_cell_length_a   8.74479341
_cell_length_b   8.74479481
_cell_length_c   9.48619844
_cell_angle_alpha   90.00000119
_cell_angle_beta   90.00000440
_cell_angle_gamma   119.99998553
_symmetry_Int_Tables_number   1
_chemical_formula_structural   Ho3(Al3Ru)4
_chemical_formula_sum   'Ho6 Al24 Ru8'
_cell_volume   628.23492712
_cell_formula_units_Z   2
loop_
 _symmetry_equiv_pos_site_id
 _symmetry_equiv_pos_as_xyz
  1  'x, y, z'
loop_
 _atom_site_type_symbol
 _atom_site_label
 _atom_site_symmetry_multiplicity
 _atom_site_fract_x
 _atom_site_fract_y
 _atom_site_fract_z
 _atom_site_occupancy
  Ho  Ho0  1  0.19285671  0.38571214  0.25000221  1
  Ho  Ho1  1  0.80714345  0.61428763  0.74999826  1
  Ho  Ho2  1  0.61428680  0.80714296  0.25000158  1
  Ho  Ho3  1  0.38571158  0.19285578  0.74999783  1
  Ho  Ho4  1  0.19285668  0.80714393  0.25000182  1
  Ho  Ho5  1  0.80714419  0.19285727  0.74999809  1
  Al  Al0  1  0.33333319  0.66666671  0.01137692  1
  Al  Al1  1  0.66666662  0.33333329  0.98862300  1
  Al  Al2  1  0.66666690  0.33333341  0.51139043  1
  Al  Al3  1  0.33333344  0.66666685  0.48860947  1
  Al  Al4  1  0.16257662  0.32515317  0.57721202  1
  Al  Al5  1  0.83742348  0.67484685  0.42278814  1
  Al  Al6  1  0.67484689  0.83742351  0.57721193  1
  Al  Al7  1  0.83742525  0.67485064  0.07721303  1
  Al  Al8  1  0.32515310  0.16257652  0.42278800  1
  Al  Al9  1  0.16257483  0.32514939  0.92278691  1
  Al  Al10  1  0.16257633  0.83742356  0.57721205  1
  Al  Al11  1  0.32514942  0.16257484  0.07721299  1
  Al  Al12  1  0.83742355  0.16257628  0.42278797  1
  Al  Al13  1  0.67485073  0.83742533  0.92278684  1
  Al  Al14  1  0.83742558  0.16257448  0.07721303  1
  Al  Al15  1  0.16257456  0.83742556  0.92278681  1
  Al  Al16  1  0.56120675  0.12241257  0.25000108  1
  Al  Al17  1  0.43879332  0.87758747  0.74999892  1
  Al  Al18  1  0.87758746  0.43879330  0.25000107  1
  Al  Al19  1  0.12241276  0.56120695  0.74999889  1
  Al  Al20  1  0.56120641  0.43879349  0.25000098  1
  Al  Al21  1  0.43879354  0.56120645  0.74999893  1
  Al  Al22  1  -0.00000017  0.00000014  0.25000292  1
  Al  Al23  1  0.00000012  -0.00000025  0.74999728  1
  Ru  Ru0  1  0.49999996  0.00000009  0.00000038  1
  Ru  Ru1  1  -0.00000031  0.49999988  -0.00000025  1
  Ru  Ru2  1  0.49999995  -0.00000015  0.50000004  1
  Ru  Ru3  1  0.49999969  0.49999992  0.00000021  1
  Ru  Ru4  1  0.00000007  0.49999984  0.50000033  1
  Ru  Ru5  1  0.49999996  0.50000004  0.50000017  1
  Ru  Ru6  1  0.00000059  0.00000034  -0.00000004  1
  Ru  Ru7  1  -0.00000002  -0.00000019  0.49999976  1
loop_
_geom_bond_atom_site_label_1
_geom_bond_atom_site_label_2
_geom_bond_distance
_geom_bond_site_symmetry_2
Ho0 Ru5 3.339570 1_555
Ho0 Ru4 3.339578 1_555
Ho0 Ru3 3.339596 1_555
Ho0 Ru1 3.339609 1_555
Ho0 Ho2 3.685323 1_555
Ho0 Ho4 3.685335 1_555
Ho1 Ru5 3.339573 1_555
Ho1 Ru4 3.339577 1_655
Ho1 Ru1 3.339598 1_656
Ho1 Ru3 3.339600 1_556
Ho1 Ho5 3.685325 1_555
Ho1 Ho3 3.685336 1_555
Ho2 Ru5 3.339574 1_555
Ho2 Ru2 3.339577 1_565
Ho2 Ru3 3.339593 1_555
Ho2 Ru0 3.339597 1_565
Ho2 Ho4 3.685324 1_555
Ho3 Ru5 3.339574 1_555
Ho3 Ru2 3.339575 1_555
Ho3 Ru3 3.339605 1_556
Ho3 Ru0 3.339605 1_556
Ho3 Ho5 3.685335 1_555
Ho4 Ru2 3.339573 1_565
Ho4 Ru4 3.339580 1_555
Ho4 Ru0 3.339595 1_565
Ho4 Ru1 3.339604 1_555
Ho5 Ru4 3.339567 1_655
Ho5 Ru2 3.339578 1_555
Ho5 Ru1 3.339592 1_656
Ho5 Ru0 3.339606 1_556
Al0 Ru3 2.526710 1_555
Al0 Ru0 2.526711 1_565
Al0 Ru1 2.526712 1_555
Al0 Al9 2.719490 1_554
Al0 Al15 2.719491 1_554
Al0 Al13 2.719492 1_554
Al0 Al19 2.949466 1_554
Al0 Al21 2.949467 1_554
Al0 Al17 2.949468 1_554
Al0 Ho2 3.106649 1_555
Al0 Ho4 3.106652 1_555
Al0 Ho0 3.106659 1_555
Al1 Ru1 2.526709 1_656
Al1 Ru0 2.526710 1_556
Al1 Ru3 2.526712 1_556
Al1 Al11 2.719489 1_556
Al1 Al7 2.719490 1_556
Al1 Al14 2.719493 1_556
Al1 Al20 2.949466 1_556
Al1 Al16 2.949468 1_556
Al1 Al18 2.949468 1_556
Al1 Ho5 3.106651 1_555
Al1 Ho1 3.106654 1_555
Al1 Ho3 3.106660 1_555
Al2 Ru4 2.526715 1_655
Al2 Ru5 2.526718 1_555
Al2 Ru2 2.526718 1_555
Al2 Al5 2.719498 1_555
Al2 Al8 2.719501 1_555
Al2 Al20 2.949558 1_555
Al2 Ho5 3.106531 1_555
Al2 Ho1 3.106536 1_555
Al2 Ho3 3.106539 1_555
Al3 Ru2 2.526714 1_565
Al3 Ru5 2.526716 1_555
Al3 Ru4 2.526717 1_555
Al3 Al6 2.719498 1_555
Al3 Al4 2.719501 1_555
Al3 Ho2 3.106532 1_555
Al3 Ho4 3.106533 1_555
Al3 Ho0 3.106535 1_555
Al4 Ru7 2.569081 1_555
Al4 Ru4 2.658818 1_555
Al4 Ru5 2.658819 1_555
Al4 Al8 2.865240 1_555
Al4 Ho0 3.137676 1_555
Al4 Ho3 3.176466 1_555
Al4 Ho5 3.176469 1_455
Al5 Ru7 2.569076 1_665
Al5 Ru5 2.658821 1_555
Al5 Ru4 2.658822 1_655
Al5 Al6 2.865240 1_555
Al5 Ho1 3.137679 1_555
Al5 Ho2 3.176474 1_555
Al5 Ho4 3.176475 1_655
Al6 Ru7 2.569078 1_665
Al6 Ru2 2.658819 1_565
Al6 Ru5 2.658820 1_555
Al6 Ho2 3.137683 1_555
Al6 Ho1 3.176470 1_555
Al6 Ho5 3.176478 1_565
Al7 Ru6 2.569056 1_665
Al7 Ru1 2.658837 1_655
Al7 Ru3 2.658838 1_555
Al7 Ho1 3.137727 1_554
Al7 Ho2 3.176474 1_555
Al7 Ho4 3.176478 1_655
Al8 Ru7 2.569077 1_555
Al8 Ru2 2.658821 1_555
Al8 Ru5 2.658822 1_555
Al8 Ho3 3.137676 1_555
Al8 Ho0 3.176464 1_555
Al8 Ho4 3.176471 1_545
Al9 Ru6 2.569052 1_556
Al9 Ru3 2.658835 1_556
Al9 Ru1 2.658839 1_556
Al9 Ho0 3.137732 1_556
Al9 Ho3 3.176472 1_555
Al9 Ho5 3.176474 1_455
Al10 Ru7 2.569075 1_565
Al10 Ru2 2.658822 1_565
Al10 Ru4 2.658822 1_555
Al10 Al3 2.719501 1_555
Al10 Al19 2.792140 1_555
Al10 Al17 2.792142 1_555
Al10 Al5 2.865238 1_455
Al10 Al8 2.865240 1_565
Al10 Al23 2.958077 1_565
Al10 Ho4 3.137681 1_555
Al10 Ho3 3.176466 1_565
Al10 Ho1 3.176472 1_455
Al11 Ru6 2.569050 1_555
Al11 Ru3 2.658835 1_555
Al11 Ru0 2.658836 1_555
Al11 Al20 2.792166 1_555
Al11 Al16 2.792171 1_555
Al11 Al9 2.865224 1_554
Al11 Al15 2.865226 1_544
Al11 Al22 2.958084 1_555
Al11 Ho3 3.137730 1_554
Al11 Ho0 3.176471 1_555
Al11 Ho4 3.176476 1_545
Al12 Ru7 2.569075 1_655
Al12 Ru2 2.658822 1_555
Al12 Ru4 2.658823 1_655
Al12 Al2 2.719500 1_555
Al12 Al16 2.792141 1_555
Al12 Al18 2.792143 1_555
Al12 Al6 2.865239 1_545
Al12 Al4 2.865240 1_655
Al12 Al22 2.958076 1_655
Al12 Ho5 3.137681 1_555
Al12 Ho0 3.176472 1_655
Al12 Ho2 3.176477 1_545
Al13 Ru6 2.569057 1_666
Al13 Ru3 2.658839 1_556
Al13 Ru0 2.658840 1_566
Al13 Al21 2.792167 1_555
Al13 Al17 2.792170 1_555
Al13 Al7 2.865225 1_556
Al13 Al14 2.865226 1_566
Al13 Al23 2.958081 1_665
Al13 Ho2 3.137728 1_556
Al13 Ho1 3.176471 1_555
Al13 Ho5 3.176482 1_565
Al14 Ru6 2.569052 1_655
Al14 Ru0 2.658838 1_555
Al14 Ru1 2.658839 1_655
Al14 Al16 2.792167 1_555
Al14 Al18 2.792167 1_555
Al14 Al9 2.865226 1_654
Al14 Al22 2.958077 1_655
Al14 Ho5 3.137730 1_554
Al14 Ho0 3.176478 1_655
Al14 Ho2 3.176479 1_545
Al15 Ru6 2.569049 1_566
Al15 Ru0 2.658839 1_566
Al15 Ru1 2.658840 1_556
Al15 Al19 2.792165 1_555
Al15 Al17 2.792165 1_555
Al15 Al7 2.865227 1_456
Al15 Al23 2.958076 1_565
Al15 Ho4 3.137730 1_556
Al15 Ho3 3.176472 1_565
Al15 Ho1 3.176475 1_455
Al16 Ru2 2.546299 1_555
Al16 Ru0 2.546313 1_555
Al16 Al18 2.766685 1_555
Al16 Al20 2.766688 1_555
Al16 Al8 2.792146 1_555
Al16 Al2 2.949559 1_555
Al16 Ho4 3.015964 1_545
Al16 Ho2 3.015965 1_545
Al17 Ru2 2.546297 1_565
Al17 Ru0 2.546320 1_566
Al17 Al19 2.766683 1_555
Al17 Al21 2.766688 1_555
Al17 Al6 2.792146 1_555
Al17 Al3 2.949559 1_555
Al17 Ho3 3.015962 1_565
Al17 Ho5 3.015972 1_565
Al18 Ru4 2.546301 1_655
Al18 Ru1 2.546318 1_655
Al18 Al20 2.766688 1_555
Al18 Al5 2.792147 1_555
Al18 Al7 2.792171 1_555
Al18 Al2 2.949558 1_555
Al18 Ho0 3.015967 1_655
Al18 Ho4 3.015969 1_655
Al19 Ru4 2.546295 1_555
Al19 Ru1 2.546316 1_556
Al19 Al21 2.766687 1_555
Al19 Al4 2.792147 1_555
Al19 Al9 2.792172 1_555
Al19 Al3 2.949559 1_555
Al19 Ho5 3.015962 1_455
Al19 Ho1 3.015965 1_455
Al20 Ru5 2.546301 1_555
Al20 Ru3 2.546316 1_555
Al20 Al8 2.792144 1_555
Al20 Al5 2.792145 1_555
Al20 Al7 2.792167 1_555
Al20 Ho0 3.015960 1_555
Al20 Ho2 3.015962 1_555
Al21 Ru5 2.546297 1_555
Al21 Ru3 2.546319 1_556
Al21 Al4 2.792143 1_555
Al21 Al6 2.792144 1_555
Al21 Al9 2.792167 1_555
Al21 Al3 2.949558 1_555
Al21 Ho1 3.015963 1_555
Al21 Ho3 3.015967 1_555
Al22 Ru7 2.371520 1_555
Al22 Ru6 2.371578 1_555
Al22 Ho0 2.921080 1_555
Al22 Ho4 2.921087 1_545
Al22 Ho2 2.921087 1_445
Al22 Al8 2.958082 1_555
Al22 Al5 2.958083 1_445
Al22 Al7 2.958084 1_445
Al23 Ru7 2.371526 1_555
Al23 Ru6 2.371575 1_556
Al23 Ho3 2.921076 1_555
Al23 Ho1 2.921081 1_445
Al23 Ho5 2.921090 1_455
Al23 Al6 2.958083 1_445
Al23 Al9 2.958083 1_555
Al23 Al4 2.958084 1_555
