# generated using pymatgen
data_TeMoWSe3
_symmetry_space_group_name_H-M   'P 1'
_cell_length_a   3.38076219
_cell_length_b   3.38076219
_cell_length_c   38.51732600
_cell_angle_alpha   90.00000000
_cell_angle_beta   90.00000000
_cell_angle_gamma   120.00000379
_symmetry_Int_Tables_number   1
_chemical_formula_structural   TeMoWSe3
_chemical_formula_sum   'Te2 Mo2 W2 Se6'
_cell_volume   381.25538866
_cell_formula_units_Z   2
loop_
 _symmetry_equiv_pos_site_id
 _symmetry_equiv_pos_as_xyz
  1  'x, y, z'
loop_
 _atom_site_type_symbol
 _atom_site_label
 _atom_site_symmetry_multiplicity
 _atom_site_fract_x
 _atom_site_fract_y
 _atom_site_fract_z
 _atom_site_occupancy
  Te  Te0  1  0.33333300  0.66666700  0.33066800  1
  Te  Te1  1  0.33333300  0.66666700  0.23292100  1
  Mo  Mo0  1  0.33333300  0.66666700  0.09392500  1
  Mo  Mo1  1  0.66666700  0.33333300  0.28180200  1
  W  W0  1  0.33333300  0.66666700  0.46967500  1
  W  W1  1  0.66666700  0.33333300  0.65753000  1
  Se  Se0  1  0.33333300  0.66666700  0.70069300  1
  Se  Se1  1  0.66666700  0.33333300  0.05090400  1
  Se  Se2  1  0.66666700  0.33333300  0.42650600  1
  Se  Se3  1  0.66666700  0.33333300  0.13694800  1
  Se  Se4  1  0.66666700  0.33333300  0.51282500  1
  Se  Se5  1  0.33333300  0.66666700  0.61435200  1
loop_
_geom_bond_atom_site_label_1
_geom_bond_atom_site_label_2
_geom_bond_distance
_geom_bond_site_symmetry_2
Mo0 Se1 2.560404 1_455
Mo0 Se1 2.560404 1_565
Mo0 Se1 2.560409 1_555
Mo0 Se3 2.560454 1_455
Mo0 Se3 2.560454 1_565
Mo0 Se3 2.560459 1_555
Mo1 Te0 2.711544 1_545
Mo1 Te0 2.711544 1_655
Mo1 Te0 2.711549 1_555
Mo1 Te1 2.711946 1_545
Mo1 Te1 2.711946 1_655
Mo1 Te1 2.711950 1_555
Se0 W1 2.563948 1_455
Se0 W1 2.563948 1_565
Se0 W1 2.563952 1_555
Se2 W0 2.564097 1_545
Se2 W0 2.564097 1_655
Se2 W0 2.564102 1_555
Se4 W0 2.563623 1_545
Se4 W0 2.563623 1_655
Se4 W0 2.563627 1_555
Se5 W1 2.564322 1_455
Se5 W1 2.564322 1_565
Se5 W1 2.564327 1_555
