# generated using pymatgen
data_CsCuPS3
_symmetry_space_group_name_H-M   'P 1'
_cell_length_a   13.22073300
_cell_length_b   9.71695300
_cell_length_c   10.70153589
_cell_angle_alpha   74.00846057
_cell_angle_beta   90.00000000
_cell_angle_gamma   90.00000000
_symmetry_Int_Tables_number   1
_chemical_formula_structural   CsCuPS3
_chemical_formula_sum   'Cs8 Cu8 P8 S24'
_cell_volume   1321.57486377
_cell_formula_units_Z   8
loop_
 _symmetry_equiv_pos_site_id
 _symmetry_equiv_pos_as_xyz
  1  'x, y, z'
loop_
 _atom_site_type_symbol
 _atom_site_label
 _atom_site_symmetry_multiplicity
 _atom_site_fract_x
 _atom_site_fract_y
 _atom_site_fract_z
 _atom_site_occupancy
  Cs  Cs0  1  0.68411600  0.88852700  0.11782900  1
  Cs  Cs1  1  0.18411600  0.11147300  0.38217100  1
  Cs  Cs2  1  0.31588400  0.11147300  0.88217100  1
  Cs  Cs3  1  0.81588400  0.88852700  0.61782900  1
  Cs  Cs4  1  0.65068400  0.36304300  0.67288500  1
  Cs  Cs5  1  0.15068400  0.63695700  0.82711500  1
  Cs  Cs6  1  0.34931600  0.63695700  0.32711500  1
  Cs  Cs7  1  0.84931600  0.36304300  0.17288500  1
  Cu  Cu0  1  0.90240100  0.48107000  0.54422100  1
  Cu  Cu1  1  0.40240100  0.51893000  0.95577900  1
  Cu  Cu2  1  0.09759900  0.51893000  0.45577900  1
  Cu  Cu3  1  0.59759900  0.48107000  0.04422100  1
  Cu  Cu4  1  0.95554600  0.95241900  0.90376000  1
  Cu  Cu5  1  0.45554600  0.04758100  0.59624000  1
  Cu  Cu6  1  0.04445400  0.04758100  0.09624000  1
  Cu  Cu7  1  0.54445400  0.95241900  0.40376000  1
  P  P0  1  0.03640100  0.21914000  0.66704000  1
  P  P1  1  0.53640100  0.78086000  0.83296000  1
  P  P2  1  0.96359900  0.78086000  0.33296000  1
  P  P3  1  0.46359900  0.21914000  0.16704000  1
  P  P4  1  0.04147000  0.71668100  0.16640400  1
  P  P5  1  0.54147000  0.28331900  0.33359600  1
  P  P6  1  0.95853000  0.28331900  0.83359600  1
  P  P7  1  0.45853000  0.71668100  0.66640400  1
  S  S0  1  0.07194800  0.00803600  0.74133700  1
  S  S1  1  0.57194800  0.99196400  0.75866300  1
  S  S2  1  0.92805200  0.99196400  0.25866300  1
  S  S3  1  0.42805200  0.00803600  0.24133700  1
  S  S4  1  0.93580800  0.72391200  0.02457800  1
  S  S5  1  0.43580800  0.27608800  0.47542200  1
  S  S6  1  0.06419200  0.27608800  0.97542200  1
  S  S7  1  0.56419200  0.72391200  0.52457800  1
  S  S8  1  0.84618900  0.13495600  0.89104200  1
  S  S9  1  0.34618900  0.86504400  0.60895800  1
  S  S10  1  0.15381100  0.86504400  0.10895800  1
  S  S11  1  0.65381100  0.13495600  0.39104200  1
  S  S12  1  0.93024700  0.25817700  0.52302700  1
  S  S13  1  0.43024700  0.74182300  0.97697300  1
  S  S14  1  0.06975300  0.74182300  0.47697300  1
  S  S15  1  0.56975300  0.25817700  0.02302700  1
  S  S16  1  0.90732800  0.48652800  0.75482600  1
  S  S17  1  0.40732800  0.51347200  0.74517400  1
  S  S18  1  0.09267200  0.51347200  0.24517400  1
  S  S19  1  0.59267200  0.48652800  0.25482600  1
  S  S20  1  0.16455500  0.33962200  0.61631800  1
  S  S21  1  0.66455500  0.66037800  0.88368200  1
  S  S22  1  0.83544500  0.66037800  0.38368200  1
  S  S23  1  0.33544500  0.33962200  0.11631800  1
loop_
_geom_bond_atom_site_label_1
_geom_bond_atom_site_label_2
_geom_bond_distance
_geom_bond_site_symmetry_2
Cs0 S8 3.607381 1_564
Cs0 S22 3.679191 1_555
Cs0 Cu7 3.768881 1_555
Cs0 S15 3.769483 1_565
Cs0 S21 3.784313 1_554
Cs0 S2 3.810123 1_555
Cs0 S3 3.924514 1_565
Cs0 S4 3.937838 1_555
Cs0 S19 3.964087 1_555
Cs0 S1 3.981736 1_554
Cs0 S13 4.093070 1_554
Cs1 S9 3.607381 1_545
Cs1 S23 3.679191 1_555
Cs1 Cu6 3.768881 1_555
Cs1 S14 3.769483 1_545
Cs1 S20 3.784313 1_555
Cs1 S3 3.810123 1_555
Cs1 S2 3.924514 1_445
Cs1 S5 3.937838 1_555
Cs1 S18 3.964087 1_555
Cs1 S0 3.981736 1_555
Cs1 S12 4.093070 1_455
Cs2 S10 3.607381 1_546
Cs2 S20 3.679191 1_555
Cs2 Cu5 3.768881 1_555
Cs2 S13 3.769483 1_545
Cs2 S23 3.784313 1_556
Cs2 S0 3.810123 1_555
Cs2 S1 3.924514 1_545
Cs2 S6 3.937838 1_555
Cs2 S17 3.964087 1_555
Cs2 S3 3.981736 1_556
Cs2 S15 4.093070 1_556
Cs3 S11 3.607381 1_565
Cs3 S21 3.679191 1_555
Cs3 Cu4 3.768881 1_555
Cs3 S12 3.769483 1_565
Cs3 S22 3.784313 1_555
Cs3 S1 3.810123 1_555
Cs3 S0 3.924514 1_665
Cs3 S7 3.937838 1_555
Cs3 S16 3.964087 1_555
Cs3 S2 3.981736 1_555
Cs3 S14 4.093070 1_655
Cs4 S7 3.613301 1_555
Cs4 S1 3.619939 1_545
Cs4 Cu0 3.662770 1_555
Cs4 S17 3.702624 1_555
Cs4 S15 3.757633 1_556
Cs4 S8 3.767264 1_555
Cs4 S5 3.772716 1_555
Cs4 S16 3.781672 1_555
Cs5 S6 3.613301 1_555
Cs5 S0 3.619939 1_565
Cs5 Cu1 3.662770 1_555
Cs5 S16 3.702624 1_455
Cs5 S14 3.757633 1_555
Cs5 S9 3.767264 1_555
Cs5 S4 3.772716 1_456
Cs5 S17 3.781672 1_555
Cs6 S5 3.613301 1_555
Cs6 S3 3.619939 1_565
Cs6 Cu2 3.662770 1_555
Cs6 S19 3.702624 1_555
Cs6 S13 3.757633 1_554
Cs6 S10 3.767264 1_555
Cs6 S7 3.772716 1_555
Cs6 S18 3.781672 1_555
Cs7 S4 3.613301 1_555
Cs7 S2 3.619939 1_545
Cs7 Cu3 3.662770 1_555
Cs7 S18 3.702624 1_655
Cs7 S12 3.757633 1_555
Cs7 S11 3.767264 1_555
Cs7 S6 3.772716 1_654
Cs7 S19 3.781672 1_555
Cu0 S22 2.263087 1_555
Cu0 S12 2.269031 1_555
Cu0 S16 2.269916 1_555
Cu1 S23 2.263087 1_556
Cu1 S13 2.269031 1_555
Cu1 S17 2.269916 1_555
Cu2 S20 2.263087 1_555
Cu2 S14 2.269031 1_555
Cu2 S18 2.269916 1_555
Cu3 S21 2.263087 1_554
Cu3 S15 2.269031 1_555
Cu3 S19 2.269916 1_555
Cu4 S4 2.255687 1_556
Cu4 S8 2.263143 1_565
Cu4 S0 2.272446 1_665
Cu5 S5 2.255687 1_555
Cu5 S9 2.263143 1_545
Cu5 S1 2.272446 1_545
Cu6 S6 2.255687 1_554
Cu6 S10 2.263143 1_545
Cu6 S2 2.272446 1_445
Cu7 S7 2.255687 1_555
Cu7 S11 2.263143 1_565
Cu7 S3 2.272446 1_565
P0 S0 2.040139 1_555
P0 S12 2.041220 1_455
P0 S20 2.045897 1_555
P1 S1 2.040139 1_555
P1 S13 2.041220 1_555
P1 S21 2.045897 1_555
P2 S2 2.040139 1_555
P2 S14 2.041220 1_655
P2 S22 2.045897 1_555
P3 S3 2.040139 1_555
P3 S15 2.041220 1_555
P3 S23 2.045897 1_555
P4 S18 2.037310 1_555
P4 S10 2.042996 1_555
P4 S4 2.049676 1_455
P5 S19 2.037310 1_555
P5 S11 2.042996 1_555
P5 S5 2.049676 1_555
P6 S16 2.037310 1_555
P6 S8 2.042996 1_555
P6 S6 2.049676 1_655
P7 S17 2.037310 1_555
P7 S9 2.042996 1_555
P7 S7 2.049676 1_555
