# generated using pymatgen
data_Mn5OF11
_symmetry_space_group_name_H-M   'P 1'
_cell_length_a   5.26325400
_cell_length_b   5.70992608
_cell_length_c   9.23451646
_cell_angle_alpha   106.75884109
_cell_angle_beta   88.62812931
_cell_angle_gamma   116.04404203
_symmetry_Int_Tables_number   1
_chemical_formula_structural   Mn5OF11
_chemical_formula_sum   'Mn5 O1 F11'
_cell_volume   237.04609750
_cell_formula_units_Z   1
loop_
 _symmetry_equiv_pos_site_id
 _symmetry_equiv_pos_as_xyz
  1  'x, y, z'
loop_
 _atom_site_type_symbol
 _atom_site_label
 _atom_site_symmetry_multiplicity
 _atom_site_fract_x
 _atom_site_fract_y
 _atom_site_fract_z
 _atom_site_occupancy
  Mn  Mn0  1  0.23933300  0.02501700  0.41570200  1
  Mn  Mn1  1  0.46421600  0.73813400  0.17215800  1
  Mn  Mn2  1  0.67100500  0.51256600  0.89143300  1
  Mn  Mn3  1  0.97007100  0.30163000  0.63570900  1
  Mn  Mn4  1  0.98083800  0.98694500  0.00151700  1
  O  O0  1  0.59712300  0.75019800  0.99000000  1
  F  F0  1  0.97271300  0.93229600  0.79689300  1
  F  F1  1  0.04740600  0.19995200  0.46807300  1
  F  F2  1  0.56739100  0.11334900  0.59083000  1
  F  F3  1  0.46054400  0.37061700  0.28858900  1
  F  F4  1  0.37175900  0.46499900  0.71140900  1
  F  F5  1  0.39329800  0.15018800  0.02961800  1
  F  F6  1  0.38529300  0.83221700  0.33801700  1
  F  F7  1  0.04611100  0.61928400  0.07751600  1
  F  F8  1  0.91112400  0.98838300  0.20136100  1
  F  F9  1  0.98704500  0.67770100  0.52449600  1
  F  F10  1  0.89841100  0.32543200  0.85368800  1
loop_
_geom_bond_atom_site_label_1
_geom_bond_atom_site_label_2
_geom_bond_distance
_geom_bond_site_symmetry_2
Mn1 O0 1.814343 1_554
Mn2 O0 1.598413 1_555
Mn4 O0 1.856731 1_554
F0 Mn4 1.822613 1_556
F0 Mn2 2.612652 1_555
F1 Mn3 1.599439 1_455
F1 Mn0 1.684076 1_555
F2 Mn3 1.898347 1_555
F2 Mn0 2.179383 1_555
F3 Mn0 2.424954 1_555
F3 Mn1 2.612399 1_555
F4 Mn3 1.947184 1_455
F4 Mn2 2.192590 1_555
F5 Mn4 1.938942 1_445
F5 Mn2 2.612232 1_554
F6 Mn1 1.580511 1_555
F6 Mn0 1.605475 1_565
F7 Mn1 2.122653 1_555
F7 Mn2 2.392514 1_454
F7 Mn4 2.551904 1_455
F8 Mn4 1.871341 1_555
F8 Mn1 2.122268 1_555
F8 Mn0 2.559931 1_665
F9 Mn0 2.340542 1_665
F9 Mn3 2.602439 1_555
F10 Mn2 1.893164 1_555
F10 Mn3 2.015814 1_555
