# generated using pymatgen
data_Pa3Hg
_symmetry_space_group_name_H-M   'P 1'
_cell_length_a   4.62874300
_cell_length_b   4.62874300
_cell_length_c   4.62874300
_cell_angle_alpha   90.00000000
_cell_angle_beta   90.00000000
_cell_angle_gamma   90.00000000
_symmetry_Int_Tables_number   1
_chemical_formula_structural   Pa3Hg
_chemical_formula_sum   'Pa3 Hg1'
_cell_volume   99.17203039
_cell_formula_units_Z   1
loop_
 _symmetry_equiv_pos_site_id
 _symmetry_equiv_pos_as_xyz
  1  'x, y, z'
loop_
 _atom_site_type_symbol
 _atom_site_label
 _atom_site_symmetry_multiplicity
 _atom_site_fract_x
 _atom_site_fract_y
 _atom_site_fract_z
 _atom_site_occupancy
  Pa  Pa0  1  0.00000000  0.50000000  0.50000000  1
  Pa  Pa1  1  0.50000000  0.00000000  0.50000000  1
  Pa  Pa2  1  0.50000000  0.50000000  0.00000000  1
  Hg  Hg0  1  0.00000000  0.00000000  0.00000000  1
loop_
_geom_bond_atom_site_label_1
_geom_bond_atom_site_label_2
_geom_bond_distance
_geom_bond_site_symmetry_2
Pa0 Pa1 3.273016 1_465
Pa0 Pa1 3.273016 1_555
Pa0 Pa1 3.273016 1_455
Pa0 Pa2 3.273016 1_456
Pa0 Pa2 3.273016 1_455
Pa0 Pa2 3.273016 1_556
Pa0 Pa1 3.273016 1_565
Pa0 Pa2 3.273016 1_555
Pa1 Pa2 3.273016 1_546
Pa1 Pa2 3.273016 1_545
Pa1 Pa2 3.273016 1_556
Pa1 Pa2 3.273016 1_555
Hg0 Pa2 3.273016 1_555
Hg0 Pa1 3.273016 1_555
Hg0 Pa1 3.273016 1_554
Hg0 Pa0 3.273016 1_554
Hg0 Pa1 3.273016 1_455
Hg0 Pa2 3.273016 1_445
Hg0 Pa0 3.273016 1_544
Hg0 Pa2 3.273016 1_545
Hg0 Pa1 3.273016 1_454
Hg0 Pa0 3.273016 1_545
Hg0 Pa2 3.273016 1_455
Hg0 Pa0 3.273016 1_555
