# generated using pymatgen
data_FeHg2C6S2(NO2)2
_symmetry_space_group_name_H-M   'P 1'
_cell_length_a   12.66259512
_cell_length_b   12.66259512
_cell_length_c   12.66259512
_cell_angle_alpha   108.92711232
_cell_angle_beta   108.92711232
_cell_angle_gamma   110.56500525
_symmetry_Int_Tables_number   1
_chemical_formula_structural   FeHg2C6S2(NO2)2
_chemical_formula_sum   'Fe4 Hg8 C24 S8 N8 O16'
_cell_volume   1562.52614144
_cell_formula_units_Z   4
loop_
 _symmetry_equiv_pos_site_id
 _symmetry_equiv_pos_as_xyz
  1  'x, y, z'
loop_
 _atom_site_type_symbol
 _atom_site_label
 _atom_site_symmetry_multiplicity
 _atom_site_fract_x
 _atom_site_fract_y
 _atom_site_fract_z
 _atom_site_occupancy
  Fe  Fe0  1  0.55370400  0.05370400  0.50000000  1
  Fe  Fe1  1  0.30370400  0.30370400  0.00000000  1
  Fe  Fe2  1  0.69629600  0.69629600  0.00000000  1
  Fe  Fe3  1  0.94629600  0.44629600  0.50000000  1
  Hg  Hg0  1  0.29783200  0.94717800  0.43664500  1
  Hg  Hg1  1  0.51053200  0.86118600  0.56335500  1
  Hg  Hg2  1  0.11118600  0.04783200  0.85065400  1
  Hg  Hg3  1  0.19717800  0.26053200  0.14934600  1
  Hg  Hg4  1  0.95216800  0.80282200  0.06335500  1
  Hg  Hg5  1  0.73946800  0.88881400  0.93664500  1
  Hg  Hg6  1  0.13881400  0.70216800  0.64934600  1
  Hg  Hg7  1  0.05282200  0.48946800  0.35065400  1
  C  C0  1  0.73960000  0.09698100  0.55859000  1
  C  C1  1  0.53839000  0.18100900  0.44141000  1
  C  C2  1  0.43100900  0.48960000  0.14261900  1
  C  C3  1  0.34698100  0.28839000  0.85738100  1
  C  C4  1  0.51040000  0.65301900  0.94141000  1
  C  C5  1  0.71161000  0.56899100  0.05859000  1
  C  C6  1  0.81899100  0.26040000  0.35738100  1
  C  C7  1  0.90301900  0.46161000  0.64261900  1
  C  C8  1  0.48959000  0.91542200  0.32304500  1
  C  C9  1  0.59237700  0.16654500  0.67695500  1
  C  C10  1  0.41654500  0.23959000  0.07416800  1
  C  C11  1  0.16542200  0.34237700  0.92583200  1
  C  C12  1  0.76041000  0.83457800  0.17695500  1
  C  C13  1  0.65762300  0.58345500  0.82304500  1
  C  C14  1  0.83345500  0.51041000  0.42583200  1
  C  C15  1  0.08457800  0.40762300  0.57416800  1
  C  C16  1  0.06055300  0.91989700  0.50379800  1
  C  C17  1  0.41609900  0.55675500  0.49620200  1
  C  C18  1  0.80675500  0.81055300  0.64065600  1
  C  C19  1  0.16989700  0.16609900  0.35934400  1
  C  C20  1  0.18944700  0.83010300  0.99620200  1
  C  C21  1  0.83390100  0.19324500  0.00379800  1
  C  C22  1  0.44324500  0.93944700  0.85934400  1
  C  C23  1  0.08010300  0.58390100  0.14065600  1
  S  S0  1  0.05694100  0.81693000  0.37937500  1
  S  S1  1  0.43755500  0.67756600  0.62062500  1
  S  S2  1  0.92756600  0.80694100  0.74001100  1
  S  S3  1  0.06693000  0.18755500  0.25998900  1
  S  S4  1  0.19305900  0.93307000  0.12062500  1
  S  S5  1  0.81244500  0.07243400  0.87937500  1
  S  S6  1  0.32243400  0.94305900  0.75998900  1
  S  S7  1  0.18307000  0.56244500  0.24001100  1
  N  N0  1  0.23972700  0.14817600  0.43011300  1
  N  N1  1  0.71806300  0.80961400  0.56988700  1
  N  N2  1  0.05961400  0.98972700  0.59155100  1
  N  N3  1  0.39817600  0.46806300  0.40844900  1
  N  N4  1  0.01027300  0.60182400  0.06988700  1
  N  N5  1  0.53193700  0.94038600  0.93011300  1
  N  N6  1  0.19038600  0.76027300  0.90844900  1
  N  N7  1  0.85182400  0.28193700  0.09155100  1
  O  O0  1  0.84650000  0.13460100  0.58627900  1
  O  O1  1  0.54832200  0.26022100  0.41372100  1
  O  O2  1  0.51022100  0.59650000  0.21189900  1
  O  O3  1  0.38460100  0.29832200  0.78810100  1
  O  O4  1  0.40350000  0.61539900  0.91372100  1
  O  O5  1  0.70167800  0.48977900  0.08627900  1
  O  O6  1  0.73977900  0.15350000  0.28810100  1
  O  O7  1  0.86539900  0.45167800  0.71189900  1
  O  O8  1  0.45127000  0.83216400  0.22301700  1
  O  O9  1  0.60914800  0.22825300  0.77698300  1
  O  O10  1  0.47825300  0.20127000  0.11910600  1
  O  O11  1  0.08216400  0.35914800  0.88089400  1
  O  O12  1  0.79873000  0.91783600  0.27698300  1
  O  O13  1  0.64085200  0.52174700  0.72301700  1
  O  O14  1  0.77174700  0.54873000  0.38089400  1
  O  O15  1  0.16783600  0.39085200  0.61910600  1
loop_
_geom_bond_atom_site_label_1
_geom_bond_atom_site_label_2
_geom_bond_distance
_geom_bond_site_symmetry_2
Fe0 Hg0 2.738996 1_545
Fe0 Hg1 2.739008 1_545
Fe1 Hg2 2.738999 1_554
Fe1 Hg3 2.738999 1_555
Fe2 Hg4 2.738996 1_555
Fe2 Hg5 2.739008 1_554
Fe3 Hg7 2.738999 1_655
Fe3 Hg6 2.738999 1_655
Hg0 S0 2.608662 1_555
Hg1 S1 2.608649 1_555
Hg2 S2 2.608658 1_445
Hg3 S3 2.608658 1_555
Hg4 S4 2.608662 1_655
Hg5 S5 2.608649 1_565
Hg6 S6 2.608658 1_555
Hg7 S7 2.608658 1_555
C0 O0 1.145826 1_555
C0 Fe0 2.022070 1_555
C1 O1 1.145837 1_555
C1 Fe0 2.022062 1_555
C2 O2 1.145829 1_555
C2 Fe1 2.022069 1_555
C3 O3 1.145829 1_555
C3 Fe1 2.022069 1_556
C4 O4 1.145826 1_555
C4 Fe2 2.022070 1_556
C5 O5 1.145837 1_555
C5 Fe2 2.022062 1_555
C6 O6 1.145829 1_555
C6 Fe3 2.022069 1_555
C7 O7 1.145829 1_555
C7 Fe3 2.022069 1_555
C8 O8 1.151890 1_555
C8 Fe0 2.005443 1_565
C9 O9 1.151885 1_555
C9 Fe0 2.005443 1_555
C10 O10 1.151890 1_555
C10 Fe1 2.005443 1_555
C11 O11 1.151898 1_555
C11 Fe1 2.005443 1_556
C12 O12 1.151890 1_555
C12 Fe2 2.005443 1_555
C13 O13 1.151885 1_555
C13 Fe2 2.005443 1_556
C14 O14 1.151890 1_555
C14 Fe3 2.005443 1_555
C15 O15 1.151898 1_555
C15 Fe3 2.005443 1_455
C16 N2 1.181220 1_555
C16 S0 1.662243 1_555
C17 N3 1.181220 1_555
C17 S1 1.662243 1_555
C18 N1 1.181220 1_555
C18 S2 1.662243 1_555
C19 N0 1.181220 1_555
C19 S3 1.662243 1_555
C20 N6 1.181220 1_555
C20 S4 1.662243 1_556
C21 N7 1.181220 1_555
C21 S5 1.662243 1_554
C22 N5 1.181220 1_555
C22 S6 1.662243 1_555
C23 N4 1.181220 1_555
C23 S7 1.662243 1_555
