# generated using pymatgen
data_Ca5Ni17Ge8
_symmetry_space_group_name_H-M   'P 1'
_cell_length_a   13.34308763
_cell_length_b   13.34308763
_cell_length_c   4.03135300
_cell_angle_alpha   90.00000000
_cell_angle_beta   90.00000000
_cell_angle_gamma   140.62229860
_symmetry_Int_Tables_number   1
_chemical_formula_structural   Ca5Ni17Ge8
_chemical_formula_sum   'Ca5 Ni17 Ge8'
_cell_volume   455.35177195
_cell_formula_units_Z   1
loop_
 _symmetry_equiv_pos_site_id
 _symmetry_equiv_pos_as_xyz
  1  'x, y, z'
loop_
 _atom_site_type_symbol
 _atom_site_label
 _atom_site_symmetry_multiplicity
 _atom_site_fract_x
 _atom_site_fract_y
 _atom_site_fract_z
 _atom_site_occupancy
  Ca  Ca0  1  0.81773300  0.60752800  0.00000000  1
  Ca  Ca1  1  0.60752800  0.81773300  0.00000000  1
  Ca  Ca2  1  0.17929200  0.79097400  0.50000000  1
  Ca  Ca3  1  0.79097400  0.17929200  0.50000000  1
  Ca  Ca4  1  0.21851500  0.21851500  0.50000000  1
  Ni  Ni0  1  0.38184300  0.05011100  0.00000000  1
  Ni  Ni1  1  0.05011100  0.38184300  0.00000000  1
  Ni  Ni2  1  0.67276200  0.27506900  0.00000000  1
  Ni  Ni3  1  0.27506900  0.67276200  0.00000000  1
  Ni  Ni4  1  0.45090600  0.28186800  0.00000000  1
  Ni  Ni5  1  0.28186800  0.45090600  0.00000000  1
  Ni  Ni6  1  0.01169700  0.88420500  0.50000000  1
  Ni  Ni7  1  0.88420500  0.01169700  0.50000000  1
  Ni  Ni8  1  0.31057600  0.08792300  0.50000000  1
  Ni  Ni9  1  0.08792300  0.31057600  0.50000000  1
  Ni  Ni10  1  0.51640600  0.08742600  0.50000000  1
  Ni  Ni11  1  0.08742600  0.51640600  0.50000000  1
  Ni  Ni12  1  0.84497600  0.44250000  0.50000000  1
  Ni  Ni13  1  0.44250000  0.84497600  0.50000000  1
  Ni  Ni14  1  0.57233800  0.47376000  0.50000000  1
  Ni  Ni15  1  0.47376000  0.57233800  0.50000000  1
  Ni  Ni16  1  0.92664400  0.92664400  0.00000000  1
  Ge  Ge0  1  0.15634900  0.98671400  0.00000000  1
  Ge  Ge1  1  0.98671400  0.15634900  0.00000000  1
  Ge  Ge2  1  0.48155100  0.96102500  0.00000000  1
  Ge  Ge3  1  0.96102500  0.48155100  0.00000000  1
  Ge  Ge4  1  0.59040700  0.31486000  0.50000000  1
  Ge  Ge5  1  0.31486000  0.59040700  0.50000000  1
  Ge  Ge6  1  0.48221400  0.48221400  0.00000000  1
  Ge  Ge7  1  0.75806900  0.75806900  0.50000000  1
loop_
_geom_bond_atom_site_label_1
_geom_bond_atom_site_label_2
_geom_bond_distance
_geom_bond_site_symmetry_2
Ca0 Ni14 2.989137 1_555
Ca0 Ni14 2.989137 1_554
Ca0 Ni6 3.101466 1_655
Ca0 Ni6 3.101466 1_654
Ca0 Ni4 3.155707 1_555
Ca0 Ni2 3.186597 1_555
Ca0 Ge4 3.193934 1_555
Ca0 Ge4 3.193934 1_554
Ca0 Ni12 3.206440 1_555
Ca0 Ni12 3.206440 1_554
Ca0 Ge0 3.266845 1_655
Ca0 Ni16 3.267460 1_555
Ca0 Ge7 3.347193 1_554
Ca0 Ge7 3.347193 1_555
Ca0 Ge6 3.356425 1_555
Ca0 Ge3 3.383722 1_555
Ca1 Ni15 2.989137 1_554
Ca1 Ni15 2.989137 1_555
Ca1 Ni7 3.101466 1_564
Ca1 Ni7 3.101466 1_565
Ca1 Ni5 3.155707 1_555
Ca1 Ni3 3.186597 1_555
Ca1 Ge5 3.193934 1_554
Ca1 Ge5 3.193934 1_555
Ca1 Ni13 3.206440 1_555
Ca1 Ni13 3.206440 1_554
Ca1 Ge1 3.266845 1_565
Ca1 Ni16 3.267460 1_555
Ca1 Ge7 3.347193 1_554
Ca1 Ge7 3.347193 1_555
Ca1 Ge6 3.356425 1_555
Ca1 Ge2 3.383722 1_555
Ca2 Ni11 2.825222 1_555
Ca2 Ni8 2.835067 1_565
Ca2 Ni10 2.893611 1_565
Ca2 Ni0 2.979260 1_565
Ca2 Ni0 2.979260 1_566
Ca2 Ni13 2.990184 1_555
Ca2 Ni12 3.074595 1_455
Ca2 Ni6 3.293765 1_555
Ca2 Ge3 3.316890 1_456
Ca2 Ge3 3.316890 1_455
Ca2 Ni3 3.361594 1_556
Ca2 Ni3 3.361594 1_555
Ca2 Ge2 3.365977 1_555
Ca2 Ge2 3.365977 1_556
Ca2 Ge0 3.494868 1_556
Ca2 Ge0 3.494868 1_555
Ca3 Ni10 2.825222 1_555
Ca3 Ni9 2.835067 1_655
Ca3 Ni11 2.893611 1_655
Ca3 Ni1 2.979260 1_655
Ca3 Ni1 2.979260 1_656
Ca3 Ni12 2.990184 1_555
Ca3 Ni13 3.074595 1_545
Ca3 Ni7 3.293765 1_555
Ca3 Ge2 3.316890 1_546
Ca3 Ge2 3.316890 1_545
Ca3 Ni2 3.361594 1_556
Ca3 Ni2 3.361594 1_555
Ca3 Ge3 3.365977 1_555
Ca3 Ge3 3.365977 1_556
Ca3 Ge1 3.494868 1_556
Ca3 Ge1 3.494868 1_555
Ca4 Ni8 2.802547 1_555
Ca4 Ni9 2.802547 1_555
Ca4 Ni6 2.912557 1_545
Ca4 Ni7 2.912557 1_455
Ca4 Ni14 3.005087 1_555
Ca4 Ni15 3.005087 1_555
Ca4 Ge6 3.111924 1_555
Ca4 Ge6 3.111924 1_556
Ca4 Ni5 3.215635 1_555
Ca4 Ni4 3.215635 1_556
Ca4 Ni4 3.215635 1_555
Ca4 Ni5 3.215635 1_556
Ca4 Ge1 3.217303 1_456
Ca4 Ge0 3.217303 1_545
Ca4 Ge0 3.217303 1_546
Ca4 Ge1 3.217303 1_455
Ca4 Ni16 3.308969 1_445
Ca4 Ni16 3.308969 1_446
Ni0 Ni8 2.442019 1_555
Ni0 Ni8 2.442019 1_554
Ni0 Ni4 2.450795 1_555
Ni0 Ni2 2.462703 1_555
Ni0 Ni10 2.480440 1_555
Ni0 Ni10 2.480440 1_554
Ni1 Ni9 2.442019 1_554
Ni1 Ni9 2.442019 1_555
Ni1 Ni5 2.450795 1_555
Ni1 Ni3 2.462703 1_555
Ni1 Ni11 2.480440 1_555
Ni1 Ni11 2.480440 1_554
Ni4 Ni8 2.602844 1_554
Ni4 Ni8 2.602844 1_555
Ni5 Ni9 2.602844 1_554
Ni5 Ni9 2.602844 1_555
Ni6 Ni8 2.556192 1_565
Ni7 Ni9 2.556192 1_655
Ni10 Ni13 2.550687 1_545
Ni10 Ni2 2.570776 1_555
Ni10 Ni2 2.570776 1_556
Ni10 Ni8 2.751537 1_555
Ni11 Ni12 2.550687 1_455
Ni11 Ni3 2.570776 1_556
Ni11 Ni3 2.570776 1_555
Ni11 Ni9 2.751537 1_555
Ni12 Ni2 2.529398 1_556
Ni12 Ni2 2.529398 1_555
Ni13 Ni3 2.529398 1_555
Ni13 Ni3 2.529398 1_556
Ni14 Ni15 2.476871 1_555
Ni14 Ni4 2.613517 1_556
Ni14 Ni4 2.613517 1_555
Ni15 Ni5 2.613517 1_555
Ni15 Ni5 2.613517 1_556
Ni16 Ni6 2.581673 1_655
Ni16 Ni6 2.581673 1_654
Ni16 Ni7 2.581673 1_565
Ni16 Ni7 2.581673 1_564
Ge0 Ni6 2.361737 1_554
Ge0 Ni6 2.361737 1_555
Ge0 Ni8 2.413542 1_565
Ge0 Ni8 2.413542 1_564
Ge0 Ni0 2.415291 1_565
Ge0 Ni16 2.497726 1_455
Ge0 Ni4 2.651025 1_565
Ge1 Ni7 2.361737 1_554
Ge1 Ni7 2.361737 1_555
Ge1 Ni9 2.413542 1_655
Ge1 Ni9 2.413542 1_654
Ge1 Ni1 2.415291 1_655
Ge1 Ni16 2.497726 1_545
Ge1 Ni5 2.651025 1_655
Ge2 Ni13 2.341969 1_555
Ge2 Ni13 2.341969 1_554
Ge2 Ni0 2.372299 1_565
Ge2 Ni10 2.431290 1_564
Ge2 Ni10 2.431290 1_565
Ge2 Ni3 2.449939 1_555
Ge2 Ni2 2.745967 1_565
Ge3 Ni12 2.341969 1_554
Ge3 Ni12 2.341969 1_555
Ge3 Ni1 2.372299 1_655
Ge3 Ni11 2.431290 1_655
Ge3 Ni11 2.431290 1_654
Ge3 Ni2 2.449939 1_555
Ge3 Ni3 2.745967 1_655
Ge4 Ni14 2.311645 1_555
Ge4 Ni12 2.344139 1_555
Ge4 Ni10 2.356229 1_555
Ge4 Ni8 2.373085 1_555
Ge4 Ni2 2.540535 1_556
Ge4 Ni2 2.540535 1_555
Ge4 Ni4 2.540607 1_556
Ge4 Ni4 2.540607 1_555
Ge5 Ni15 2.311645 1_555
Ge5 Ni13 2.344139 1_555
Ge5 Ni11 2.356229 1_555
Ge5 Ni9 2.373085 1_555
Ge5 Ni3 2.540535 1_555
Ge5 Ni3 2.540535 1_556
Ge5 Ni5 2.540607 1_555
Ge5 Ni5 2.540607 1_556
Ge6 Ni5 2.365221 1_555
Ge6 Ni4 2.365221 1_555
Ge6 Ni14 2.394048 1_554
Ge6 Ni14 2.394048 1_555
Ge6 Ni15 2.394048 1_554
Ge6 Ni15 2.394048 1_555
Ge7 Ni7 2.340929 1_565
Ge7 Ni6 2.340929 1_655
Ge7 Ni14 2.449216 1_555
Ge7 Ni15 2.449216 1_555
Ge7 Ni16 2.521927 1_555
Ge7 Ni16 2.521927 1_556
