# generated using pymatgen
data_YbPd
_symmetry_space_group_name_H-M   'P 1'
_cell_length_a   4.40851600
_cell_length_b   5.63364700
_cell_length_c   7.16340200
_cell_angle_alpha   90.00000000
_cell_angle_beta   90.00000000
_cell_angle_gamma   90.00000000
_symmetry_Int_Tables_number   1
_chemical_formula_structural   YbPd
_chemical_formula_sum   'Yb4 Pd4'
_cell_volume   177.91041639
_cell_formula_units_Z   4
loop_
 _symmetry_equiv_pos_site_id
 _symmetry_equiv_pos_as_xyz
  1  'x, y, z'
loop_
 _atom_site_type_symbol
 _atom_site_label
 _atom_site_symmetry_multiplicity
 _atom_site_fract_x
 _atom_site_fract_y
 _atom_site_fract_z
 _atom_site_occupancy
  Yb  Yb0  1  0.25000000  0.36499500  0.68001200  1
  Yb  Yb1  1  0.25000000  0.13500500  0.18001200  1
  Yb  Yb2  1  0.75000000  0.63500500  0.31998800  1
  Yb  Yb3  1  0.75000000  0.86499500  0.81998800  1
  Pd  Pd0  1  0.25000000  0.85506400  0.54110400  1
  Pd  Pd1  1  0.25000000  0.64493600  0.04110400  1
  Pd  Pd2  1  0.75000000  0.14493600  0.45889600  1
  Pd  Pd3  1  0.75000000  0.35506400  0.95889600  1
loop_
_geom_bond_atom_site_label_1
_geom_bond_atom_site_label_2
_geom_bond_distance
_geom_bond_site_symmetry_2
Pd0 Pd2 2.805771 1_565
Pd0 Pd2 2.805771 1_465
Pd0 Yb0 2.934718 1_555
Pd0 Yb3 2.975386 1_555
Pd0 Yb3 2.975386 1_455
Pd0 Yb2 2.984053 1_455
Pd0 Yb2 2.984053 1_555
Pd0 Yb1 3.029514 1_565
Pd0 Yb0 3.040222 1_565
Pd1 Pd3 2.805771 1_454
Pd1 Pd3 2.805771 1_554
Pd1 Yb1 2.934718 1_565
Pd1 Yb2 2.975386 1_555
Pd1 Yb2 2.975386 1_455
Pd1 Yb3 2.984053 1_554
Pd1 Yb3 2.984053 1_454
Pd1 Yb0 3.029514 1_554
Pd1 Yb1 3.040222 1_555
Pd2 Yb2 2.934718 1_555
Pd2 Yb1 2.975386 1_555
Pd2 Yb1 2.975386 1_655
Pd2 Yb0 2.984053 1_555
Pd2 Yb0 2.984053 1_655
Pd2 Yb3 3.029514 1_545
Pd2 Yb2 3.040222 1_545
Pd3 Yb3 2.934718 1_545
Pd3 Yb0 2.975386 1_555
Pd3 Yb0 2.975386 1_655
Pd3 Yb1 2.984053 1_656
Pd3 Yb1 2.984053 1_556
Pd3 Yb2 3.029514 1_556
Pd3 Yb3 3.040222 1_555
