# generated using pymatgen
data_Fe7W6
_symmetry_space_group_name_H-M   'P 1'
_cell_length_a   9.07091104
_cell_length_b   9.07091104
_cell_length_c   9.07091133
_cell_angle_alpha   30.49836508
_cell_angle_beta   30.49836508
_cell_angle_gamma   30.49836656
_symmetry_Int_Tables_number   1
_chemical_formula_structural   Fe7W6
_chemical_formula_sum   'Fe7 W6'
_cell_volume   170.41138238
_cell_formula_units_Z   1
loop_
 _symmetry_equiv_pos_site_id
 _symmetry_equiv_pos_as_xyz
  1  'x, y, z'
loop_
 _atom_site_type_symbol
 _atom_site_label
 _atom_site_symmetry_multiplicity
 _atom_site_fract_x
 _atom_site_fract_y
 _atom_site_fract_z
 _atom_site_occupancy
  Fe  Fe0  1  0.00000000  0.00000000  0.00000000  1
  Fe  Fe1  1  0.58922100  0.09078200  0.09078200  1
  Fe  Fe2  1  0.09078200  0.09078200  0.58922100  1
  Fe  Fe3  1  0.09078200  0.58922100  0.09078200  1
  Fe  Fe4  1  0.90921800  0.41077900  0.90921800  1
  Fe  Fe5  1  0.41077900  0.90921800  0.90921800  1
  Fe  Fe6  1  0.90921800  0.90921800  0.41077900  1
  W  W0  1  0.16610000  0.16610000  0.16610000  1
  W  W1  1  0.83390000  0.83390000  0.83390000  1
  W  W2  1  0.34743700  0.34743700  0.34743700  1
  W  W3  1  0.65256300  0.65256300  0.65256300  1
  W  W4  1  0.45037000  0.45037000  0.45037000  1
  W  W5  1  0.54963000  0.54963000  0.54963000  1
loop_
_geom_bond_atom_site_label_1
_geom_bond_atom_site_label_2
_geom_bond_distance
_geom_bond_site_symmetry_2
Fe0 Fe5 2.415265 1_544
Fe0 Fe3 2.415265 1_545
Fe0 Fe4 2.415265 1_454
Fe0 Fe1 2.415265 1_455
Fe0 Fe6 2.415265 1_445
Fe0 Fe2 2.415265 1_554
Fe0 W3 2.779056 1_445
Fe0 W2 2.779056 1_554
Fe0 W2 2.779056 1_455
Fe0 W3 2.779056 1_454
Fe0 W2 2.779056 1_545
Fe0 W3 2.779056 1_544
Fe1 Fe2 2.378359 1_555
Fe1 Fe3 2.378360 1_555
Fe1 Fe2 2.393256 1_654
Fe1 Fe3 2.393256 1_645
Fe1 W5 2.608045 1_545
Fe1 W5 2.608045 1_554
Fe1 W1 2.705075 1_544
Fe1 W2 2.718879 1_555
Fe1 W0 2.726035 1_555
Fe1 W3 2.881201 1_554
Fe1 W3 2.881201 1_545
Fe2 Fe3 2.378359 1_555
Fe2 Fe3 2.393256 1_546
Fe2 W5 2.608045 1_545
Fe2 W5 2.608045 1_455
Fe2 W1 2.705075 1_445
Fe2 W2 2.718878 1_555
Fe2 W0 2.726035 1_555
Fe2 W3 2.881201 1_545
Fe2 W3 2.881201 1_455
Fe3 W5 2.608045 1_455
Fe3 W5 2.608045 1_554
Fe3 W1 2.705075 1_454
Fe3 W2 2.718879 1_555
Fe3 W0 2.726035 1_555
Fe3 W3 2.881201 1_554
Fe3 W3 2.881201 1_455
Fe4 Fe6 2.378359 1_555
Fe4 Fe5 2.378360 1_555
Fe4 Fe6 2.393256 1_546
Fe4 Fe5 2.393256 1_645
Fe4 W4 2.608045 1_655
Fe4 W4 2.608045 1_556
Fe4 W0 2.705075 1_656
Fe4 W3 2.718879 1_555
Fe4 W1 2.726035 1_555
Fe4 W2 2.881201 1_556
Fe4 W2 2.881201 1_655
Fe5 Fe6 2.378359 1_555
Fe5 Fe6 2.393256 1_456
Fe5 W4 2.608045 1_565
Fe5 W4 2.608045 1_556
Fe5 W0 2.705075 1_566
Fe5 W3 2.718879 1_555
Fe5 W1 2.726035 1_555
Fe5 W2 2.881201 1_556
Fe5 W2 2.881201 1_565
Fe6 W4 2.608045 1_565
Fe6 W4 2.608045 1_655
Fe6 W0 2.705075 1_665
Fe6 W3 2.718878 1_555
Fe6 W1 2.726035 1_555
Fe6 W2 2.881201 1_655
Fe6 W2 2.881201 1_565
W2 W4 2.668781 1_555
W2 W3 2.850316 1_455
W2 W3 2.850316 1_545
W2 W3 2.850316 1_554
W3 W5 2.668781 1_555
