# generated using pymatgen
data_Mg6FeMo
_symmetry_space_group_name_H-M   'P 1'
_cell_length_a   4.71616000
_cell_length_b   5.92077300
_cell_length_c   10.79197800
_cell_angle_alpha   90.00000000
_cell_angle_beta   90.00000000
_cell_angle_gamma   90.00000000
_symmetry_Int_Tables_number   1
_chemical_formula_structural   Mg6FeMo
_chemical_formula_sum   'Mg12 Fe2 Mo2'
_cell_volume   301.34777733
_cell_formula_units_Z   2
loop_
 _symmetry_equiv_pos_site_id
 _symmetry_equiv_pos_as_xyz
  1  'x, y, z'
loop_
 _atom_site_type_symbol
 _atom_site_label
 _atom_site_symmetry_multiplicity
 _atom_site_fract_x
 _atom_site_fract_y
 _atom_site_fract_z
 _atom_site_occupancy
  Mg  Mg0  1  0.00000000  0.76073300  0.58304000  1
  Mg  Mg1  1  0.00000000  0.23926700  0.58304000  1
  Mg  Mg2  1  0.00000000  0.50000000  0.82990000  1
  Mg  Mg3  1  0.50000000  0.24145100  0.92095400  1
  Mg  Mg4  1  0.50000000  0.75854900  0.92095400  1
  Mg  Mg5  1  0.50000000  0.50000000  0.66954800  1
  Mg  Mg6  1  0.00000000  0.26073300  0.08304000  1
  Mg  Mg7  1  0.00000000  0.73926700  0.08304000  1
  Mg  Mg8  1  0.00000000  0.00000000  0.32990000  1
  Mg  Mg9  1  0.50000000  0.74145100  0.42095400  1
  Mg  Mg10  1  0.50000000  0.25854900  0.42095400  1
  Mg  Mg11  1  0.50000000  0.00000000  0.16954800  1
  Fe  Fe0  1  0.00000000  0.00000000  0.80507500  1
  Fe  Fe1  1  0.00000000  0.50000000  0.30507500  1
  Mo  Mo0  1  0.50000000  0.00000000  0.68748900  1
  Mo  Mo1  1  0.50000000  0.50000000  0.18748900  1
loop_
_geom_bond_atom_site_label_1
_geom_bond_atom_site_label_2
_geom_bond_distance
_geom_bond_site_symmetry_2
Mg0 Mg9 2.938261 1_555
Mg0 Mg9 2.938261 1_455
Mg0 Mo0 2.972883 1_565
Mg0 Mo0 2.972883 1_465
Mg0 Mg8 3.077346 1_565
Mg0 Mg2 3.079059 1_555
Mg1 Mg10 2.938261 1_455
Mg1 Mg10 2.938261 1_555
Mg1 Mo0 2.972883 1_455
Mg1 Mo0 2.972883 1_555
Mg1 Mg8 3.077346 1_555
Mg1 Mg2 3.079059 1_555
Mg2 Mg5 2.924932 1_455
Mg2 Mg5 2.924932 1_555
Mg2 Mg3 2.978175 1_455
Mg2 Mg4 2.978175 1_555
Mg2 Mg3 2.978175 1_555
Mg2 Mg4 2.978175 1_455
Mg2 Mg7 3.077346 1_556
Mg2 Mg6 3.077346 1_556
Mg3 Mg4 2.859153 1_545
Mg3 Mo0 2.896863 1_555
Mg3 Mg6 2.938261 1_556
Mg3 Mg6 2.938261 1_656
Mg3 Mg4 3.061620 1_555
Mg3 Mg5 3.115230 1_555
Mg3 Mo1 3.258418 1_556
Mg4 Mo0 2.896863 1_565
Mg4 Mg7 2.938261 1_556
Mg4 Mg7 2.938261 1_656
Mg4 Mg5 3.115230 1_555
Mg4 Mo1 3.258418 1_556
Mg5 Mo0 2.966711 1_555
Mg5 Mo0 2.966711 1_565
Mg5 Mg9 3.039937 1_555
Mg6 Mo1 2.972883 1_555
Mg6 Mo1 2.972883 1_455
Mg6 Mg8 3.079059 1_555
Mg7 Mo1 2.972883 1_555
Mg7 Mo1 2.972883 1_455
Mg7 Mg8 3.079059 1_565
Mg8 Mg9 2.978175 1_545
Mg8 Mg9 2.978175 1_445
Mg9 Mo1 2.896863 1_555
Mg9 Mo0 3.258418 1_565
Mg10 Mg9 2.859153 1_555
Mg10 Mo1 2.896863 1_555
Mg10 Mg8 2.978175 1_655
Mg10 Mg8 2.978175 1_555
Mg10 Mg5 3.039937 1_555
Mg10 Mg9 3.061620 1_545
Mg10 Mg11 3.115230 1_555
Mg10 Mo0 3.258418 1_555
Mg11 Mg8 2.924932 1_655
Mg11 Mg8 2.924932 1_555
Mg11 Mo1 2.966711 1_545
Mg11 Mo1 2.966711 1_555
Mg11 Mg4 3.039937 1_544
Mg11 Mg3 3.039937 1_554
Mg11 Mg9 3.115230 1_545
Fe0 Mo0 2.677847 1_555
Fe0 Mo0 2.677847 1_455
Fe0 Mg0 2.783639 1_545
Fe0 Mg1 2.783639 1_555
Fe0 Mg2 2.972485 1_545
Fe0 Mg2 2.972485 1_555
Fe0 Mg3 3.027894 1_555
Fe0 Mg4 3.027894 1_445
Fe0 Mg4 3.027894 1_545
Fe0 Mg3 3.027894 1_455
Fe0 Mg6 3.373706 1_556
Fe0 Mg7 3.373706 1_546
Fe1 Mo1 2.677847 1_555
Fe1 Mo1 2.677847 1_455
Fe1 Mg7 2.783639 1_555
Fe1 Mg6 2.783639 1_555
Fe1 Mg8 2.972485 1_565
Fe1 Mg8 2.972485 1_555
Fe1 Mg9 3.027894 1_555
Fe1 Mg10 3.027894 1_555
Fe1 Mg10 3.027894 1_455
Fe1 Mg9 3.027894 1_455
Fe1 Mg0 3.373706 1_555
Fe1 Mg1 3.373706 1_555
