# generated using pymatgen
data_La2MgFeO6
_symmetry_space_group_name_H-M   'P 1'
_cell_length_a   5.53110774
_cell_length_b   7.81460909
_cell_length_c   5.71406361
_cell_angle_alpha   91.30342926
_cell_angle_beta   92.21002842
_cell_angle_gamma   90.24795503
_symmetry_Int_Tables_number   1
_chemical_formula_structural   La2MgFeO6
_chemical_formula_sum   'La4 Mg2 Fe2 O12'
_cell_volume   246.73059599
_cell_formula_units_Z   2
loop_
 _symmetry_equiv_pos_site_id
 _symmetry_equiv_pos_as_xyz
  1  'x, y, z'
loop_
 _atom_site_type_symbol
 _atom_site_label
 _atom_site_symmetry_multiplicity
 _atom_site_fract_x
 _atom_site_fract_y
 _atom_site_fract_z
 _atom_site_occupancy
  La  La0  1  0.50136700  0.75138500  0.99347100  1
  La  La1  1  0.00087200  0.25185500  0.49335100  1
  La  La2  1  0.49878900  0.24867500  0.00648700  1
  La  La3  1  0.99902900  0.74812900  0.50671600  1
  Mg  Mg0  1  0.00008000  0.50001100  0.00003200  1
  Mg  Mg1  1  0.49993300  0.00000000  0.49997300  1
  Fe  Fe0  1  0.49995400  0.49999000  0.50005100  1
  Fe  Fe1  1  0.00000900  0.99992100  0.99994800  1
  O  O0  1  0.79024700  0.49063800  0.68940600  1
  O  O1  1  0.29137800  0.99087600  0.18830400  1
  O  O2  1  0.97258900  0.23969500  0.05866900  1
  O  O3  1  0.47271900  0.73999100  0.55882300  1
  O  O4  1  0.70643000  0.53990700  0.20412000  1
  O  O5  1  0.20520100  0.03945600  0.70284900  1
  O  O6  1  0.20969700  0.50933800  0.31070300  1
  O  O7  1  0.70866800  0.00915200  0.81156500  1
  O  O8  1  0.29368200  0.46014600  0.79601900  1
  O  O9  1  0.79466300  0.96049700  0.29700900  1
  O  O10  1  0.02738300  0.76033000  0.94136500  1
  O  O11  1  0.52731100  0.26000900  0.44113600  1
loop_
_geom_bond_atom_site_label_1
_geom_bond_atom_site_label_2
_geom_bond_distance
_geom_bond_site_symmetry_2
La0 O4 2.338342 1_556
La0 O1 2.472812 1_556
La0 O3 2.482096 1_555
La0 O7 2.572913 1_565
La0 O10 2.628488 1_555
La0 O8 2.744618 1_555
La0 O9 2.818057 1_556
La0 O10 2.936739 1_655
La0 O0 3.131287 1_555
La0 O6 3.133899 1_556
La0 O5 3.240536 1_565
La0 O3 3.243660 1_556
La1 O5 2.338282 1_555
La1 O0 2.473564 1_455
La1 O2 2.482324 1_455
La1 O6 2.576896 1_555
La1 O11 2.626011 1_455
La1 O9 2.739750 1_445
La1 O8 2.810083 1_555
La1 O11 2.939025 1_555
La1 O1 3.140401 1_545
La1 O7 3.142062 1_455
La1 O4 3.231738 1_455
La1 O2 3.243595 1_456
La2 O8 2.337887 1_554
La2 O7 2.472930 1_554
La2 O11 2.482079 1_555
La2 O1 2.573166 1_545
La2 O2 2.627519 1_555
La2 O4 2.744866 1_555
La2 O5 2.819747 1_554
La2 O2 2.937818 1_455
La2 O6 3.131977 1_555
La2 O0 3.132341 1_554
La2 O9 3.240049 1_545
La2 O11 3.243571 1_554
La3 O9 2.338810 1_555
La3 O6 2.473618 1_655
La3 O10 2.482151 1_655
La3 O0 2.576941 1_555
La3 O3 2.626670 1_655
La3 O5 2.739023 1_665
La3 O4 2.808899 1_555
La3 O3 2.938226 1_555
La3 O7 3.139558 1_565
La3 O1 3.143394 1_655
La3 O8 3.232132 1_655
La3 O10 3.243834 1_654
Mg0 O8 2.055983 1_554
Mg0 O4 2.056488 1_455
Mg0 O10 2.075041 1_554
Mg0 O2 2.075064 1_455
Mg0 O6 2.082189 1_555
Mg0 O0 2.082606 1_454
Mg1 O5 2.056768 1_555
Mg1 O9 2.057108 1_545
Mg1 O3 2.072817 1_545
Mg1 O11 2.072870 1_555
Mg1 O1 2.083843 1_545
Mg1 O7 2.083998 1_555
Fe0 O6 1.903690 1_555
Fe0 O0 1.903877 1_555
Fe0 O3 1.905444 1_555
Fe0 O11 1.905480 1_555
Fe0 O8 2.104380 1_555
Fe0 O4 2.104944 1_555
Fe1 O10 1.902202 1_555
Fe1 O2 1.903751 1_466
Fe1 O1 1.905590 1_556
Fe1 O7 1.905624 1_465
Fe1 O5 2.105933 1_565
Fe1 O9 2.106097 1_456
