# generated using pymatgen
data_Mg14TiSn
_symmetry_space_group_name_H-M   'P 1'
_cell_length_a   6.35788669
_cell_length_b   6.26407423
_cell_length_c   10.26129398
_cell_angle_alpha   90.00000000
_cell_angle_beta   90.00000000
_cell_angle_gamma   119.51309288
_symmetry_Int_Tables_number   1
_chemical_formula_structural   Mg14TiSn
_chemical_formula_sum   'Mg14 Ti1 Sn1'
_cell_volume   355.64149044
_cell_formula_units_Z   1
loop_
 _symmetry_equiv_pos_site_id
 _symmetry_equiv_pos_as_xyz
  1  'x, y, z'
loop_
 _atom_site_type_symbol
 _atom_site_label
 _atom_site_symmetry_multiplicity
 _atom_site_fract_x
 _atom_site_fract_y
 _atom_site_fract_z
 _atom_site_occupancy
  Mg  Mg0  1  0.16613033  0.33306467  0.62500000  1
  Mg  Mg1  1  0.16647846  0.83323873  0.62500000  1
  Mg  Mg2  1  0.66730539  0.33522543  0.12500000  1
  Mg  Mg3  1  0.66640200  0.33285959  0.62500000  1
  Mg  Mg4  1  0.66730539  0.83207896  0.12500000  1
  Mg  Mg5  1  0.66640200  0.83354141  0.62500000  1
  Mg  Mg6  1  0.33234076  0.16218536  0.37359384  1
  Mg  Mg7  1  0.33234076  0.16218536  0.87640616  1
  Mg  Mg8  1  0.33234076  0.67015640  0.37359384  1
  Mg  Mg9  1  0.33234076  0.67015640  0.87640616  1
  Mg  Mg10  1  0.83201297  0.16600699  0.37578966  1
  Mg  Mg11  1  0.83201297  0.16600699  0.87421034  1
  Mg  Mg12  1  0.83788662  0.66894381  0.37325392  1
  Mg  Mg13  1  0.83788662  0.66894381  0.87674608  1
  Ti  Ti0  1  0.16492189  0.83246045  0.12500000  1
  Sn  Sn0  1  0.16589233  0.33294566  0.12500000  1
loop_
_geom_bond_atom_site_label_1
_geom_bond_atom_site_label_2
_geom_bond_distance
_geom_bond_site_symmetry_2
Mg0 Mg1 3.132038 1_555
Mg0 Mg1 3.132038 1_545
Mg0 Mg10 3.155447 1_455
Mg0 Mg11 3.155447 1_455
Mg0 Mg6 3.167341 1_555
Mg0 Mg7 3.167341 1_555
Mg0 Mg8 3.167347 1_555
Mg0 Mg9 3.167347 1_555
Mg0 Mg5 3.176583 1_445
Mg0 Mg3 3.176583 1_455
Mg0 Mg5 3.181303 1_555
Mg0 Mg3 3.181304 1_555
Mg1 Mg8 3.141993 1_555
Mg1 Mg9 3.141993 1_555
Mg1 Mg6 3.142000 1_565
Mg1 Mg7 3.142000 1_565
Mg1 Mg12 3.158877 1_455
Mg1 Mg13 3.158877 1_455
Mg1 Mg3 3.177523 1_565
Mg1 Mg5 3.177524 1_555
Mg1 Mg3 3.180364 1_455
Mg1 Mg5 3.180364 1_455
Mg2 Mg4 3.112327 1_555
Mg2 Mg4 3.151747 1_545
Mg2 Mg7 3.153268 1_554
Mg2 Mg6 3.153268 1_555
Mg2 Ti0 3.162613 1_655
Mg2 Sn0 3.177019 1_655
Mg2 Sn0 3.180917 1_555
Mg2 Ti0 3.195275 1_545
Mg3 Mg5 3.127766 1_545
Mg3 Mg5 3.136308 1_555
Mg3 Mg6 3.173636 1_555
Mg3 Mg7 3.173636 1_555
Mg4 Mg9 3.153268 1_554
Mg4 Mg8 3.153268 1_555
Mg4 Ti0 3.162613 1_655
Mg4 Sn0 3.177018 1_665
Mg4 Sn0 3.180917 1_555
Mg4 Ti0 3.195275 1_555
Mg5 Mg8 3.173636 1_555
Mg5 Mg9 3.173636 1_555
Mg6 Mg8 3.082106 1_545
Mg6 Ti0 3.120894 1_545
Mg6 Sn0 3.144266 1_555
Mg6 Mg8 3.181968 1_555
Mg7 Mg9 3.082106 1_545
Mg7 Ti0 3.120894 1_546
Mg7 Sn0 3.144266 1_556
Mg7 Mg9 3.181968 1_555
Mg8 Ti0 3.120888 1_555
Mg8 Sn0 3.144273 1_555
Mg9 Ti0 3.120888 1_556
Mg9 Sn0 3.144273 1_556
Mg10 Mg12 3.132314 1_555
Mg10 Mg12 3.132314 1_545
Mg10 Mg3 3.134440 1_555
Mg10 Mg5 3.134446 1_545
Mg10 Mg2 3.152201 1_555
Mg10 Mg4 3.152207 1_545
Mg10 Mg8 3.165215 1_545
Mg10 Mg6 3.165215 1_555
Mg10 Sn0 3.167827 1_655
Mg10 Mg8 3.192967 1_655
Mg10 Mg6 3.192968 1_655
Mg11 Mg13 3.132314 1_555
Mg11 Mg13 3.132314 1_545
Mg11 Mg3 3.134440 1_555
Mg11 Mg5 3.134446 1_545
Mg11 Mg2 3.152201 1_556
Mg11 Mg4 3.152207 1_546
Mg11 Mg9 3.165215 1_545
Mg11 Mg7 3.165215 1_555
Mg11 Sn0 3.167827 1_656
Mg11 Mg9 3.192967 1_655
Mg11 Mg7 3.192968 1_655
Mg12 Ti0 3.124646 1_655
Mg12 Mg4 3.130764 1_555
Mg12 Mg2 3.130770 1_555
Mg12 Mg6 3.139950 1_665
Mg12 Mg8 3.139950 1_655
Mg12 Mg5 3.167405 1_555
Mg12 Mg3 3.167412 1_555
Mg12 Mg6 3.217954 1_555
Mg12 Mg8 3.217954 1_555
Mg13 Ti0 3.124646 1_656
Mg13 Mg4 3.130764 1_556
Mg13 Mg2 3.130770 1_556
Mg13 Mg7 3.139950 1_665
Mg13 Mg9 3.139950 1_655
Mg13 Mg5 3.167405 1_555
Mg13 Mg3 3.167412 1_555
Mg13 Mg7 3.217954 1_555
Mg13 Mg9 3.217954 1_555
Sn0 Ti0 3.132042 1_545
Sn0 Ti0 3.132042 1_555
