# generated using pymatgen
data_Ir
_symmetry_space_group_name_H-M   'P 1'
_cell_length_a   5.45028017
_cell_length_b   5.45027798
_cell_length_c   5.45027896
_cell_angle_alpha   59.99999403
_cell_angle_beta   60.00000737
_cell_angle_gamma   60.00000566
_symmetry_Int_Tables_number   1
_chemical_formula_structural   Ir
_chemical_formula_sum   Ir8
_cell_volume   114.48306220
_cell_formula_units_Z   8
loop_
 _symmetry_equiv_pos_site_id
 _symmetry_equiv_pos_as_xyz
  1  'x, y, z'
loop_
 _atom_site_type_symbol
 _atom_site_label
 _atom_site_symmetry_multiplicity
 _atom_site_fract_x
 _atom_site_fract_y
 _atom_site_fract_z
 _atom_site_occupancy
  Ir  Ir0_0  1  0.00000000  0.00000000  0.00000000  1
  Ir  Ir0_1  1  0.00000000  0.00000000  0.50000000  1
  Ir  Ir0_2  1  0.00000000  0.50000000  0.00000000  1
  Ir  Ir0_3  1  0.00000000  0.50000000  0.50000000  1
  Ir  Ir0_4  1  0.50000000  0.00000000  0.00000000  1
  Ir  Ir0_5  1  0.50000000  0.00000000  0.50000000  1
  Ir  Ir0_6  1  0.50000000  0.50000000  0.00000000  1
  Ir  Ir0_7  1  0.50000000  0.50000000  0.50000000  1
loop_
_geom_bond_atom_site_label_1
_geom_bond_atom_site_label_2
_geom_bond_distance
_geom_bond_site_symmetry_2
Ir0_0 Ir0_3 2.725139 1_554
Ir0_0 Ir0_2 2.725139 1_545
Ir0_0 Ir0_3 2.725139 1_545
Ir0_0 Ir0_2 2.725139 1_555
Ir0_0 Ir0_1 2.725139 1_554
Ir0_0 Ir0_1 2.725139 1_555
Ir0_0 Ir0_6 2.725140 1_455
Ir0_0 Ir0_6 2.725140 1_545
Ir0_0 Ir0_5 2.725140 1_554
Ir0_0 Ir0_5 2.725140 1_455
Ir0_0 Ir0_4 2.725140 1_555
Ir0_0 Ir0_4 2.725140 1_455
Ir0_1 Ir0_2 2.725139 1_555
Ir0_1 Ir0_2 2.725139 1_546
Ir0_1 Ir0_3 2.725139 1_545
Ir0_1 Ir0_3 2.725139 1_555
Ir0_1 Ir0_7 2.725140 1_455
Ir0_1 Ir0_7 2.725140 1_545
Ir0_1 Ir0_5 2.725140 1_455
Ir0_1 Ir0_4 2.725140 1_555
Ir0_1 Ir0_4 2.725140 1_456
Ir0_1 Ir0_5 2.725140 1_555
Ir0_2 Ir0_3 2.725139 1_554
Ir0_2 Ir0_3 2.725139 1_555
Ir0_2 Ir0_4 2.725140 1_555
Ir0_2 Ir0_4 2.725140 1_465
Ir0_2 Ir0_7 2.725140 1_554
Ir0_2 Ir0_6 2.725140 1_555
Ir0_2 Ir0_6 2.725140 1_455
Ir0_2 Ir0_7 2.725140 1_455
Ir0_3 Ir0_5 2.725140 1_465
Ir0_3 Ir0_5 2.725140 1_555
Ir0_3 Ir0_7 2.725140 1_555
Ir0_3 Ir0_6 2.725140 1_456
Ir0_3 Ir0_6 2.725140 1_555
Ir0_3 Ir0_7 2.725140 1_455
Ir0_4 Ir0_6 2.725139 1_555
Ir0_4 Ir0_7 2.725139 1_554
Ir0_4 Ir0_6 2.725139 1_545
Ir0_4 Ir0_7 2.725139 1_545
Ir0_4 Ir0_5 2.725139 1_554
Ir0_4 Ir0_5 2.725139 1_555
Ir0_5 Ir0_7 2.725139 1_555
Ir0_5 Ir0_6 2.725139 1_546
Ir0_5 Ir0_6 2.725139 1_555
Ir0_5 Ir0_7 2.725139 1_545
Ir0_6 Ir0_7 2.725139 1_555
Ir0_6 Ir0_7 2.725139 1_554
