# generated using pymatgen
data_Sr2La2FeCu3O10
_symmetry_space_group_name_H-M   'P 1'
_cell_length_a   3.99096100
_cell_length_b   10.70172500
_cell_length_c   10.78159700
_cell_angle_alpha   90.00000000
_cell_angle_beta   90.00000000
_cell_angle_gamma   90.00000000
_symmetry_Int_Tables_number   1
_chemical_formula_structural   Sr2La2FeCu3O10
_chemical_formula_sum   'Sr4 La4 Fe2 Cu6 O20'
_cell_volume   460.48380956
_cell_formula_units_Z   2
loop_
 _symmetry_equiv_pos_site_id
 _symmetry_equiv_pos_as_xyz
  1  'x, y, z'
loop_
 _atom_site_type_symbol
 _atom_site_label
 _atom_site_symmetry_multiplicity
 _atom_site_fract_x
 _atom_site_fract_y
 _atom_site_fract_z
 _atom_site_occupancy
  Sr  Sr0  1  0.50000000  0.51841800  0.25146400  1
  Sr  Sr1  1  0.50000000  0.48158200  0.74853600  1
  Sr  Sr2  1  0.50000000  0.01841800  0.24853600  1
  Sr  Sr3  1  0.50000000  0.98158200  0.75146400  1
  La  La0  1  0.50000000  0.25503000  0.47149100  1
  La  La1  1  0.50000000  0.74497000  0.52850900  1
  La  La2  1  0.50000000  0.24497000  0.97149100  1
  La  La3  1  0.50000000  0.75503000  0.02850900  1
  Fe  Fe0  1  0.00000000  0.00000000  0.00000000  1
  Fe  Fe1  1  0.00000000  0.50000000  0.50000000  1
  Cu  Cu0  1  0.00000000  0.00000000  0.50000000  1
  Cu  Cu1  1  0.00000000  0.50000000  0.00000000  1
  Cu  Cu2  1  0.00000000  0.23196500  0.72871900  1
  Cu  Cu3  1  0.00000000  0.73196500  0.77128100  1
  Cu  Cu4  1  0.00000000  0.26803500  0.22871900  1
  Cu  Cu5  1  0.00000000  0.76803500  0.27128100  1
  O  O0  1  0.00000000  0.39720500  0.34653900  1
  O  O1  1  0.00000000  0.33519900  0.58930200  1
  O  O2  1  0.00000000  0.10279500  0.84653900  1
  O  O3  1  0.00000000  0.66480100  0.41069800  1
  O  O4  1  0.00000000  0.60279500  0.65346100  1
  O  O5  1  0.00000000  0.37155300  0.88357700  1
  O  O6  1  0.00000000  0.87155300  0.61642300  1
  O  O7  1  0.00000000  0.83519900  0.91069800  1
  O  O8  1  0.50000000  0.00000000  0.00000000  1
  O  O9  1  0.50000000  0.26786700  0.22805100  1
  O  O10  1  0.50000000  0.00000000  0.50000000  1
  O  O11  1  0.50000000  0.23213300  0.72805100  1
  O  O12  1  0.50000000  0.50000000  0.00000000  1
  O  O13  1  0.50000000  0.76786700  0.27194900  1
  O  O14  1  0.50000000  0.73213300  0.77194900  1
  O  O15  1  0.50000000  0.50000000  0.50000000  1
  O  O16  1  0.00000000  0.12844700  0.38357700  1
  O  O17  1  0.00000000  0.16480100  0.08930200  1
  O  O18  1  0.00000000  0.62844700  0.11642300  1
  O  O19  1  0.00000000  0.89720500  0.15346100  1
loop_
_geom_bond_atom_site_label_1
_geom_bond_atom_site_label_2
_geom_bond_distance
_geom_bond_site_symmetry_2
La0 O1 2.516227 1_655
La0 O1 2.516227 1_555
La0 O16 2.591421 1_655
La0 O16 2.591421 1_555
La0 O9 2.628265 1_555
La0 O15 2.639559 1_555
La0 O10 2.746515 1_555
La0 O11 2.776959 1_555
La0 O0 2.848132 1_555
La0 O0 2.848132 1_655
La1 O3 2.516227 1_655
La1 O3 2.516227 1_555
La1 O6 2.591421 1_555
La1 O6 2.591421 1_655
La1 O14 2.628265 1_555
La1 O15 2.639559 1_555
La1 O10 2.746515 1_565
La1 O13 2.776959 1_555
La1 O4 2.848132 1_555
La1 O4 2.848132 1_655
La2 O17 2.516227 1_556
La2 O17 2.516227 1_656
La2 O5 2.591421 1_555
La2 O5 2.591421 1_655
La2 O11 2.628265 1_555
La2 O8 2.639559 1_556
La2 O12 2.746515 1_556
La2 O9 2.776959 1_556
La2 O2 2.848132 1_655
La2 O2 2.848132 1_555
La3 O7 2.516227 1_654
La3 O7 2.516227 1_554
La3 O18 2.591421 1_555
La3 O18 2.591421 1_655
La3 O13 2.628265 1_555
La3 O8 2.639559 1_565
La3 O12 2.746515 1_555
La3 O14 2.776959 1_554
La3 O19 2.848132 1_555
La3 O19 2.848132 1_655
Fe0 O19 1.986891 1_545
Fe0 O2 1.986891 1_554
Fe0 O8 1.995480 1_555
Fe0 O8 1.995480 1_455
Fe0 O17 2.009353 1_555
Fe0 O7 2.009353 1_544
Fe1 O4 1.986891 1_555
Fe1 O0 1.986891 1_555
Fe1 O15 1.995480 1_455
Fe1 O15 1.995480 1_555
Fe1 O3 2.009353 1_555
Fe1 O1 2.009353 1_555
Cu0 O16 1.861486 1_555
Cu0 O6 1.861486 1_545
Cu0 O10 1.995480 1_455
Cu0 O10 1.995480 1_555
Cu1 O18 1.861486 1_555
Cu1 O5 1.861486 1_554
Cu1 O12 1.995480 1_555
Cu1 O12 1.995480 1_455
Cu2 O1 1.865467 1_555
Cu2 O2 1.877365 1_555
Cu2 O11 1.995494 1_555
Cu2 O11 1.995494 1_455
Cu2 O5 2.240347 1_555
Cu3 O7 1.865467 1_555
Cu3 O4 1.877365 1_555
Cu3 O14 1.995494 1_555
Cu3 O14 1.995494 1_455
Cu3 O6 2.240347 1_555
Cu4 O17 1.865467 1_555
Cu4 O0 1.877365 1_555
Cu4 O9 1.995494 1_455
Cu4 O9 1.995494 1_555
Cu4 O16 2.240347 1_555
Cu5 O3 1.865467 1_555
Cu5 O19 1.877365 1_555
Cu5 O13 1.995494 1_455
Cu5 O13 1.995494 1_555
Cu5 O18 2.240347 1_555
O0 Sr0 2.591407 1_455
O0 Sr0 2.591407 1_555
O1 Sr1 3.063236 1_455
O1 Sr1 3.063236 1_555
O2 Sr3 2.591407 1_545
O2 Sr3 2.591407 1_445
O3 Sr0 3.063236 1_455
O3 Sr0 3.063236 1_555
O4 Sr1 2.591407 1_455
O4 Sr1 2.591407 1_555
O5 Sr1 2.736469 1_555
O5 Sr1 2.736469 1_455
O6 Sr3 2.736469 1_555
O6 Sr3 2.736469 1_455
O7 Sr3 3.063236 1_455
O7 Sr3 3.063236 1_555
O8 Sr2 2.686854 1_555
O8 Sr3 2.686854 1_544
O9 Sr2 2.678655 1_555
O9 Sr0 2.693184 1_555
O10 Sr3 2.718339 1_545
O10 Sr2 2.718339 1_555
O11 Sr1 2.678655 1_555
O11 Sr3 2.693184 1_545
O12 Sr0 2.718339 1_555
O12 Sr1 2.718339 1_554
O13 Sr0 2.678655 1_555
O13 Sr2 2.693184 1_565
O14 Sr3 2.678655 1_555
O14 Sr1 2.693184 1_555
O15 Sr1 2.686854 1_555
O15 Sr0 2.686854 1_555
O16 Sr2 2.736469 1_455
O16 Sr2 2.736469 1_555
O17 Sr2 3.063236 1_455
O17 Sr2 3.063236 1_555
O18 Sr0 2.736469 1_455
O18 Sr0 2.736469 1_555
O19 Sr2 2.591407 1_565
O19 Sr2 2.591407 1_465
