# generated using pymatgen
data_Ga3Cu3(Te2Se)2
_symmetry_space_group_name_H-M   'P 1'
_cell_length_a   7.25331310
_cell_length_b   8.48718000
_cell_length_c   11.10251664
_cell_angle_alpha   67.52881515
_cell_angle_beta   90.50713615
_cell_angle_gamma   90.00000000
_symmetry_Int_Tables_number   1
_chemical_formula_structural   Ga3Cu3(Te2Se)2
_chemical_formula_sum   'Ga6 Cu6 Te8 Se4'
_cell_volume   631.54906966
_cell_formula_units_Z   2
loop_
 _symmetry_equiv_pos_site_id
 _symmetry_equiv_pos_as_xyz
  1  'x, y, z'
loop_
 _atom_site_type_symbol
 _atom_site_label
 _atom_site_symmetry_multiplicity
 _atom_site_fract_x
 _atom_site_fract_y
 _atom_site_fract_z
 _atom_site_occupancy
  Ga  Ga0  1  0.35105100  0.52709100  0.67746700  1
  Ga  Ga1  1  0.85105100  0.79544100  0.67746700  1
  Ga  Ga2  1  0.16242300  0.45688600  0.33065800  1
  Ga  Ga3  1  0.66242300  0.21245600  0.33065800  1
  Ga  Ga4  1  0.49579000  0.11064400  0.99750100  1
  Ga  Ga5  1  0.99579000  0.89185500  0.99750100  1
  Cu  Cu0  1  0.01913100  0.36222100  0.00573600  1
  Cu  Cu1  1  0.51913100  0.63204300  0.00573600  1
  Cu  Cu2  1  0.82474700  0.27021900  0.67431400  1
  Cu  Cu3  1  0.32474700  0.05546600  0.67431400  1
  Cu  Cu4  1  0.66763100  0.72330200  0.32180000  1
  Cu  Cu5  1  0.16763100  0.95489800  0.32180000  1
  Te  Te0  1  0.82245200  0.42447300  0.42192600  1
  Te  Te1  1  0.32245200  0.15360100  0.42192600  1
  Te  Te2  1  0.34101500  0.66713900  0.41604800  1
  Te  Te3  1  0.84101500  0.91681200  0.41604800  1
  Te  Te4  1  0.00150200  0.48250900  0.75551000  1
  Te  Te5  1  0.50150200  0.76198100  0.75551000  1
  Te  Te6  1  0.67493600  0.33538900  0.07329400  1
  Te  Te7  1  0.17493600  0.59131600  0.07329400  1
  Se  Se0  1  0.50579400  0.23864600  0.75405100  1
  Se  Se1  1  0.00579400  0.00730400  0.75405100  1
  Se  Se2  1  0.17252900  0.08080800  0.08369500  1
  Se  Se3  1  0.67252900  0.83549700  0.08369500  1
loop_
_geom_bond_atom_site_label_1
_geom_bond_atom_site_label_2
_geom_bond_distance
_geom_bond_site_symmetry_2
Ga0 Se0 2.523442 1_555
Ga0 Te4 2.666534 1_555
Ga0 Te2 2.683496 1_555
Ga0 Te5 2.686935 1_555
Ga1 Se1 2.523457 1_665
Ga1 Te5 2.666534 1_555
Ga1 Te3 2.683496 1_555
Ga1 Te4 2.686928 1_655
Ga2 Te1 2.642928 1_555
Ga2 Te7 2.643310 1_555
Ga2 Te0 2.648461 1_455
Ga2 Te2 2.651901 1_555
Ga3 Te0 2.642928 1_555
Ga3 Te6 2.643310 1_555
Ga3 Te1 2.648461 1_555
Ga3 Te3 2.651908 1_545
Ga4 Se0 2.499997 1_555
Ga4 Se3 2.506471 1_546
Ga4 Se2 2.516361 1_556
Ga4 Te6 2.691203 1_556
Ga5 Se1 2.499997 1_665
Ga5 Se2 2.506471 1_666
Ga5 Se3 2.516361 1_556
Ga5 Te7 2.691210 1_656
Cu0 Se2 2.468657 1_555
Cu0 Te4 2.569485 1_554
Cu0 Te7 2.592326 1_555
Cu0 Te6 2.598040 1_455
Cu1 Se3 2.468657 1_555
Cu1 Te5 2.569485 1_554
Cu1 Te6 2.592334 1_555
Cu1 Te7 2.598040 1_555
Cu2 Se1 2.440636 1_655
Cu2 Se0 2.462228 1_555
Cu2 Te0 2.600204 1_555
Cu2 Te4 2.631309 1_655
Cu3 Se0 2.440649 1_555
Cu3 Se1 2.462227 1_555
Cu3 Te1 2.600203 1_555
Cu3 Te5 2.631302 1_545
Cu4 Se3 2.444135 1_555
Cu4 Te2 2.568488 1_555
Cu4 Te3 2.581523 1_555
Cu4 Te0 2.598435 1_555
Cu5 Se2 2.444135 1_565
Cu5 Te3 2.568487 1_455
Cu5 Te2 2.581530 1_555
Cu5 Te1 2.598435 1_565
