# generated using pymatgen
data_Li9Mn2Co5O16
_symmetry_space_group_name_H-M   'P 1'
_cell_length_a   5.01744200
_cell_length_b   5.09739314
_cell_length_c   11.87284787
_cell_angle_alpha   91.08765306
_cell_angle_beta   91.80261608
_cell_angle_gamma   108.11747997
_symmetry_Int_Tables_number   1
_chemical_formula_structural   Li9Mn2Co5O16
_chemical_formula_sum   'Li9 Mn2 Co5 O16'
_cell_volume   288.32826551
_cell_formula_units_Z   1
loop_
 _symmetry_equiv_pos_site_id
 _symmetry_equiv_pos_as_xyz
  1  'x, y, z'
loop_
 _atom_site_type_symbol
 _atom_site_label
 _atom_site_symmetry_multiplicity
 _atom_site_fract_x
 _atom_site_fract_y
 _atom_site_fract_z
 _atom_site_occupancy
  Li  Li0  1  0.99959800  0.50272100  0.13093200  1
  Li  Li1  1  0.49685800  0.49571200  0.25167900  1
  Li  Li2  1  0.00264100  0.49940600  0.36824600  1
  Li  Li3  1  0.50298100  0.50478300  0.49739300  1
  Li  Li4  1  0.00078000  0.49858700  0.62491300  1
  Li  Li5  1  0.50230000  0.50016900  0.75034000  1
  Li  Li6  1  0.99766000  0.49889400  0.87505600  1
  Li  Li7  1  0.49194800  0.49585100  0.00304900  1
  Li  Li8  1  0.00367700  0.00461900  0.24753800  1
  Mn  Mn0  1  0.99561400  0.99401700  0.00235600  1
  Mn  Mn1  1  0.49998600  0.00327500  0.62605700  1
  Co  Co0  1  0.50397600  0.00080700  0.13083100  1
  Co  Co1  1  0.51018600  0.00920400  0.36753700  1
  Co  Co2  1  0.00755300  0.00326800  0.49636400  1
  Co  Co3  1  0.99849500  0.99741300  0.75011400  1
  Co  Co4  1  0.49429700  0.99153100  0.87703100  1
  O  O0  1  0.23142900  0.76435400  0.00497500  1
  O  O1  1  0.75663000  0.77920300  0.11164100  1
  O  O2  1  0.28442800  0.77136300  0.25366300  1
  O  O3  1  0.73010600  0.78157200  0.37857100  1
  O  O4  1  0.24408800  0.76869700  0.50806200  1
  O  O5  1  0.75558900  0.77474600  0.62933600  1
  O  O6  1  0.25736100  0.76271100  0.76313100  1
  O  O7  1  0.75126100  0.77463200  0.87723500  1
  O  O8  1  0.73497700  0.25012200  0.24664000  1
  O  O9  1  0.27325200  0.21931900  0.37920200  1
  O  O10  1  0.76276700  0.23344500  0.48945400  1
  O  O11  1  0.25073900  0.23121400  0.62834400  1
  O  O12  1  0.74358900  0.23631300  0.74442500  1
  O  O13  1  0.22985300  0.20845700  0.87988500  1
  O  O14  1  0.74147600  0.21622000  0.99192700  1
  O  O15  1  0.24390500  0.22737500  0.11406900  1
loop_
_geom_bond_atom_site_label_1
_geom_bond_atom_site_label_2
_geom_bond_distance
_geom_bond_site_symmetry_2
Li0 O8 2.103972 1_555
Li0 O15 2.141819 1_655
Li0 O1 2.141978 1_555
Li0 O0 2.142060 1_655
Li0 O2 2.148723 1_655
Li0 O14 2.265300 1_554
Li1 O8 1.982432 1_555
Li1 O2 2.010638 1_555
Li1 O3 2.123154 1_555
Li1 O9 2.177348 1_555
Li1 O15 2.203665 1_555
Li1 O1 2.368036 1_555
Li2 O8 2.061526 1_455
Li2 O10 2.127368 1_455
Li2 O2 2.178328 1_555
Li2 O4 2.204597 1_555
Li2 O9 2.258407 1_555
Li2 O3 2.276113 1_455
Li3 O9 2.047613 1_555
Li3 O3 2.110988 1_555
Li3 O4 2.145660 1_555
Li3 O5 2.159316 1_555
Li3 O10 2.178286 1_555
Li3 O11 2.252136 1_555
Li4 O4 2.108198 1_555
Li4 O11 2.119914 1_555
Li4 O5 2.139190 1_455
Li4 O12 2.140150 1_455
Li4 O10 2.152256 1_455
Li4 O6 2.206410 1_555
Li5 O12 2.072206 1_555
Li5 O11 2.074621 1_555
Li5 O6 2.085986 1_555
Li5 O7 2.121848 1_555
Li5 O5 2.173246 1_555
Li5 O13 2.323856 1_555
Li6 O6 2.087868 1_655
Li6 O0 2.099034 1_656
Li6 O12 2.134878 1_555
Li6 O7 2.141492 1_555
Li6 O13 2.150362 1_655
Li6 O14 2.165653 1_555
Li7 O1 2.034879 1_555
Li7 O15 2.066790 1_555
Li7 O13 2.147869 1_554
Li7 O0 2.166964 1_555
Li7 O14 2.174810 1_554
Li7 O7 2.235294 1_554
Li8 O9 2.086210 1_555
Li8 O1 2.092383 1_445
Li8 O8 2.105394 1_455
Li8 O2 2.107559 1_545
Li8 O15 2.142556 1_555
Li8 O3 2.197268 1_445
Mn0 O0 1.905762 1_655
Mn0 O15 1.908051 1_665
Mn0 O1 1.911967 1_555
Mn0 O14 1.953922 1_564
Mn0 O7 1.982473 1_554
Mn0 O13 2.014780 1_664
Mn1 O12 1.950800 1_555
Mn1 O11 1.954310 1_555
Mn1 O4 1.977208 1_545
Mn1 O5 1.982668 1_545
Mn1 O6 2.215008 1_545
Mn1 O10 2.233853 1_555
Co0 O8 1.940703 1_555
Co0 O1 1.958037 1_545
Co0 O15 2.001453 1_555
Co0 O2 2.018098 1_545
Co0 O0 2.081726 1_545
Co0 O14 2.173507 1_554
Co1 O3 1.836863 1_545
Co1 O9 1.837434 1_555
Co1 O2 1.888960 1_545
Co1 O10 1.982105 1_555
Co1 O8 2.036641 1_555
Co1 O4 2.295435 1_545
Co2 O4 1.932868 1_545
Co2 O10 1.945609 1_455
Co2 O3 2.002491 1_445
Co2 O9 2.046173 1_555
Co2 O11 2.055034 1_555
Co2 O5 2.174195 1_445
Co3 O5 1.948816 1_555
Co3 O13 1.981568 1_665
Co3 O12 2.022287 1_565
Co3 O6 2.025584 1_655
Co3 O11 2.086811 1_665
Co3 O7 2.100734 1_555
Co4 O6 1.891848 1_555
Co4 O14 1.913531 1_565
Co4 O7 1.941946 1_555
Co4 O13 1.974388 1_565
Co4 O0 2.151982 1_556
Co4 O12 2.197270 1_565
