# generated using pymatgen
data_Y3Mg2Si3O13
_symmetry_space_group_name_H-M   'P 1'
_cell_length_a   9.45536003
_cell_length_b   9.45536003
_cell_length_c   6.61446300
_cell_angle_alpha   90.00000000
_cell_angle_beta   90.00000000
_cell_angle_gamma   120.00000023
_symmetry_Int_Tables_number   1
_chemical_formula_structural   Y3Mg2Si3O13
_chemical_formula_sum   'Y6 Mg4 Si6 O26'
_cell_volume   512.13135072
_cell_formula_units_Z   2
loop_
 _symmetry_equiv_pos_site_id
 _symmetry_equiv_pos_as_xyz
  1  'x, y, z'
loop_
 _atom_site_type_symbol
 _atom_site_label
 _atom_site_symmetry_multiplicity
 _atom_site_fract_x
 _atom_site_fract_y
 _atom_site_fract_z
 _atom_site_occupancy
  Y  Y0  1  0.75441100  0.75936200  0.75000000  1
  Y  Y1  1  0.24558900  0.24063800  0.25000000  1
  Y  Y2  1  0.00495100  0.24558900  0.75000000  1
  Y  Y3  1  0.99504900  0.75441100  0.25000000  1
  Y  Y4  1  0.24063800  0.99504900  0.75000000  1
  Y  Y5  1  0.75936200  0.00495100  0.25000000  1
  Mg  Mg0  1  0.33333300  0.66666700  0.01679000  1
  Mg  Mg1  1  0.66666700  0.33333300  0.98321000  1
  Mg  Mg2  1  0.66666700  0.33333300  0.51679000  1
  Mg  Mg3  1  0.33333300  0.66666700  0.48321000  1
  Si  Si0  1  0.59764300  0.97494800  0.75000000  1
  Si  Si1  1  0.40235700  0.02505200  0.25000000  1
  Si  Si2  1  0.37730500  0.40235700  0.75000000  1
  Si  Si3  1  0.62269500  0.59764300  0.25000000  1
  Si  Si4  1  0.02505200  0.62269500  0.75000000  1
  Si  Si5  1  0.97494800  0.37730500  0.25000000  1
  O  O0  1  0.39800700  0.86516800  0.75000000  1
  O  O1  1  0.60199300  0.13483200  0.25000000  1
  O  O2  1  0.46716200  0.60199300  0.75000000  1
  O  O3  1  0.53283800  0.39800700  0.25000000  1
  O  O4  1  0.13483200  0.53283800  0.75000000  1
  O  O5  1  0.86516800  0.46716200  0.25000000  1
  O  O6  1  0.66930400  0.91659400  0.94020100  1
  O  O7  1  0.33069600  0.08340600  0.05979900  1
  O  O8  1  0.24729000  0.33069600  0.94020100  1
  O  O9  1  0.33069600  0.08340600  0.44020100  1
  O  O10  1  0.75271000  0.66930400  0.05979900  1
  O  O11  1  0.66930400  0.91659400  0.55979900  1
  O  O12  1  0.08340600  0.75271000  0.94020100  1
  O  O13  1  0.75271000  0.66930400  0.44020100  1
  O  O14  1  0.91659400  0.24729000  0.05979900  1
  O  O15  1  0.24729000  0.33069600  0.55979900  1
  O  O16  1  0.91659400  0.24729000  0.44020100  1
  O  O17  1  0.08340600  0.75271000  0.55979900  1
  O  O18  1  0.82826300  0.49798600  0.75000000  1
  O  O19  1  0.17173700  0.50201400  0.25000000  1
  O  O20  1  0.66972300  0.17173700  0.75000000  1
  O  O21  1  0.33027700  0.82826300  0.25000000  1
  O  O22  1  0.50201400  0.33027700  0.75000000  1
  O  O23  1  0.49798600  0.66972300  0.25000000  1
  O  O24  1  0.00000000  0.00000000  0.75000000  1
  O  O25  1  0.00000000  0.00000000  0.25000000  1
loop_
_geom_bond_atom_site_label_1
_geom_bond_atom_site_label_2
_geom_bond_distance
_geom_bond_site_symmetry_2
Mg0 O21 2.181536 1_555
Mg0 O19 2.181540 1_555
Mg0 O23 2.181543 1_555
Mg0 O0 2.421366 1_554
Mg0 O4 2.421369 1_554
Mg0 O2 2.421379 1_554
Mg1 O20 2.181536 1_555
Mg1 O18 2.181540 1_555
Mg1 O22 2.181543 1_555
Mg1 O1 2.421366 1_556
Mg1 O5 2.421369 1_556
Mg1 O3 2.421379 1_556
Mg2 O20 2.181536 1_555
Mg2 O18 2.181540 1_555
Mg2 O22 2.181543 1_555
Mg2 O1 2.421366 1_555
Mg2 O5 2.421369 1_555
Mg2 O3 2.421379 1_555
Mg3 O21 2.181536 1_555
Mg3 O19 2.181540 1_555
Mg3 O23 2.181543 1_555
Mg3 O0 2.421366 1_555
Mg3 O4 2.421369 1_555
Mg3 O2 2.421379 1_555
O0 Si0 1.637447 1_555
O0 Y4 2.355757 1_555
O1 Si1 1.637447 1_555
O1 Y5 2.355757 1_555
O2 Si2 1.637447 1_555
O2 Y0 2.355749 1_555
O3 Si3 1.637447 1_555
O3 Y1 2.355749 1_555
O4 Si4 1.637455 1_555
O4 Y2 2.355749 1_555
O5 Si5 1.637455 1_555
O5 Y3 2.355749 1_555
O6 Si0 1.649294 1_555
O6 Y5 2.216010 1_566
O6 Y0 2.374221 1_555
O7 Si1 1.649294 1_555
O7 Y4 2.216010 1_544
O7 Y1 2.374221 1_555
O8 Si2 1.649294 1_555
O8 Y1 2.216010 1_556
O8 Y2 2.374221 1_555
O9 Si1 1.649294 1_555
O9 Y4 2.216010 1_545
O9 Y1 2.374221 1_555
O10 Si3 1.649294 1_555
O10 Y0 2.216010 1_554
O10 Y3 2.374221 1_555
O11 Si0 1.649294 1_555
O11 Y5 2.216010 1_565
O11 Y0 2.374221 1_555
O12 Si4 1.649294 1_555
O12 Y3 2.216010 1_456
O12 Y4 2.374221 1_555
O13 Si3 1.649294 1_555
O13 Y0 2.216010 1_555
O13 Y3 2.374221 1_555
O14 Si5 1.649294 1_555
O14 Y2 2.216010 1_654
O14 Y5 2.374221 1_555
O15 Si2 1.649294 1_555
O15 Y1 2.216010 1_555
O15 Y2 2.374221 1_555
O16 Si5 1.649294 1_555
O16 Y2 2.216010 1_655
O16 Y5 2.374221 1_555
O17 Si4 1.649294 1_555
O17 Y3 2.216010 1_455
O17 Y4 2.374221 1_555
O18 Si4 1.630519 1_655
O18 Y0 2.884655 1_555
O19 Si5 1.630519 1_455
O19 Y1 2.884655 1_555
O20 Si0 1.630519 1_545
O20 Y2 2.884655 1_655
O21 Si1 1.630519 1_565
O21 Y3 2.884655 1_455
O22 Si2 1.630519 1_555
O22 Y4 2.884655 1_545
O23 Si3 1.630519 1_555
O23 Y5 2.884655 1_565
O24 Y0 2.299083 1_445
O24 Y2 2.299083 1_555
O24 Y4 2.299083 1_545
O25 Y1 2.299083 1_555
O25 Y3 2.299083 1_445
O25 Y5 2.299083 1_455
