# generated using pymatgen
data_Li3WN2
_symmetry_space_group_name_H-M   'P 1'
_cell_length_a   8.51214515
_cell_length_b   9.82897831
_cell_length_c   9.82897831
_cell_angle_alpha   90.00000169
_cell_angle_beta   125.26439086
_cell_angle_gamma   54.73560914
_symmetry_Int_Tables_number   1
_chemical_formula_structural   Li3WN2
_chemical_formula_sum   'Li24 W8 N16'
_cell_volume   474.78297187
_cell_formula_units_Z   8
loop_
 _symmetry_equiv_pos_site_id
 _symmetry_equiv_pos_as_xyz
  1  'x, y, z'
loop_
 _atom_site_type_symbol
 _atom_site_label
 _atom_site_symmetry_multiplicity
 _atom_site_fract_x
 _atom_site_fract_y
 _atom_site_fract_z
 _atom_site_occupancy
  Li  Li0  1  0.21611981  0.05212360  0.99319291  1
  Li  Li1  1  0.78388019  0.76824341  0.50680709  1
  Li  Li2  1  0.78388019  0.44787640  0.77707310  1
  Li  Li3  1  0.21611981  0.73175659  0.72292690  1
  Li  Li4  1  0.22973399  0.77707310  0.27505050  1
  Li  Li5  1  0.77026601  0.72292690  0.04531650  1
  Li  Li6  1  0.22973399  0.99319291  0.45468350  1
  Li  Li7  1  0.77026601  0.50680709  0.22494950  1
  Li  Li8  1  0.67963300  0.04531650  0.73175659  1
  Li  Li9  1  0.67963300  0.27505050  0.44787640  1
  Li  Li10  1  0.32036700  0.22494950  0.76824341  1
  Li  Li11  1  0.32036700  0.45468350  0.05212360  1
  Li  Li12  1  0.78388019  0.94787640  0.00680709  1
  Li  Li13  1  0.21611981  0.23175659  0.49319291  1
  Li  Li14  1  0.21611981  0.55212360  0.22292690  1
  Li  Li15  1  0.78388019  0.26824341  0.27707310  1
  Li  Li16  1  0.77026601  0.22292690  0.72494950  1
  Li  Li17  1  0.22973399  0.27707310  0.95468350  1
  Li  Li18  1  0.77026601  0.00680709  0.54531650  1
  Li  Li19  1  0.22973399  0.49319291  0.77505050  1
  Li  Li20  1  0.32036700  0.95468350  0.26824341  1
  Li  Li21  1  0.32036700  0.72494950  0.55212360  1
  Li  Li22  1  0.67963300  0.77505050  0.23175659  1
  Li  Li23  1  0.67963300  0.54531650  0.94787640  1
  W  W0  1  0.23128499  -0.00000000  0.73128499  1
  W  W1  1  0.76871501  0.73128499  0.76871501  1
  W  W2  1  0.76871501  0.50000000  0.50000000  1
  W  W3  1  0.23128499  0.76871501  0.00000000  1
  W  W4  1  0.76871501  0.00000000  0.26871501  1
  W  W5  1  0.23128499  0.26871501  0.23128499  1
  W  W6  1  0.23128499  0.50000000  0.50000000  1
  W  W7  1  0.76871501  0.23128499  0.00000000  1
  N  N0  1  0.00000000  -0.00000000  0.50000000  1
  N  N1  1  0.00000000  0.50000000  0.00000000  1
  N  N2  1  0.00000000  0.50000000  0.50000000  1
  N  N3  1  0.00000000  -0.00000000  0.00000000  1
  N  N4  1  0.50000000  0.97869894  0.75000000  1
  N  N5  1  0.50000000  0.52130106  0.25000000  1
  N  N6  1  1.00000000  0.25000000  0.72869894  1
  N  N7  1  0.00000000  0.75000000  0.77130106  1
  N  N8  1  0.54260212  0.72869894  0.52130106  1
  N  N9  1  0.45739788  0.77130106  0.97869894  1
  N  N10  1  0.50000000  0.02130106  0.25000000  1
  N  N11  1  0.50000000  0.47869894  0.75000000  1
  N  N12  1  0.00000000  0.75000000  0.27130106  1
  N  N13  1  1.00000000  0.25000000  0.22869894  1
  N  N14  1  0.45739788  0.27130106  0.47869894  1
  N  N15  1  0.54260212  0.22869894  0.02130106  1
loop_
_geom_bond_atom_site_label_1
_geom_bond_atom_site_label_2
_geom_bond_distance
_geom_bond_site_symmetry_2
Li0 N6 2.066788 1_455
Li0 N10 2.100932 1_556
Li0 N3 2.209447 1_556
Li0 N9 2.376773 1_545
Li1 N7 2.066788 1_655
Li1 N10 2.100932 1_565
Li1 N2 2.209447 1_655
Li1 N8 2.376773 1_555
Li2 N6 2.066788 1_555
Li2 N11 2.100932 1_555
Li2 N1 2.209447 1_656
Li2 N8 2.376773 1_555
Li3 N7 2.066788 1_555
Li3 N11 2.100932 1_555
Li3 N0 2.209447 1_565
Li3 N9 2.376773 1_555
Li4 N8 2.066788 1_555
Li4 N12 2.100932 1_555
Li4 N3 2.209447 1_565
Li4 N5 2.376773 1_555
Li5 N9 2.066788 1_554
Li5 N12 2.100932 1_655
Li5 N1 2.209447 1_655
Li5 N4 2.376773 1_554
Li6 N8 2.066788 1_555
Li6 N13 2.100932 1_465
Li6 N0 2.209447 1_565
Li6 N4 2.376773 1_555
Li7 N9 2.066788 1_554
Li7 N13 2.100932 1_555
Li7 N2 2.209447 1_655
Li7 N5 2.376773 1_555
Li8 N4 2.066788 1_545
Li8 N14 2.100932 1_555
Li8 N3 2.209447 1_656
Li8 N7 2.376773 1_645
Li9 N5 2.066788 1_555
Li9 N14 2.100932 1_555
Li9 N0 2.209447 1_655
Li9 N6 2.376773 1_555
Li10 N4 2.066788 1_545
Li10 N15 2.100932 1_556
Li10 N2 2.209447 1_555
Li10 N6 2.376773 1_455
Li11 N5 2.066788 1_555
Li11 N15 2.100932 1_555
Li11 N1 2.209447 1_555
Li11 N7 2.376773 1_554
Li12 N12 2.066788 1_655
Li12 N4 2.100932 1_554
Li12 N3 2.209447 1_665
Li12 N15 2.376773 1_565
Li13 N13 2.066788 1_455
Li13 N4 2.100932 1_545
Li13 N2 2.209447 1_555
Li13 N14 2.376773 1_555
Li14 N12 2.066788 1_555
Li14 N5 2.100932 1_555
Li14 N1 2.209447 1_555
Li14 N14 2.376773 1_555
Li15 N13 2.066788 1_555
Li15 N5 2.100932 1_555
Li15 N0 2.209447 1_655
Li15 N15 2.376773 1_555
Li16 N14 2.066788 1_555
Li16 N6 2.100932 1_555
Li16 N3 2.209447 1_656
Li16 N11 2.376773 1_555
Li17 N15 2.066788 1_556
Li17 N6 2.100932 1_455
Li17 N1 2.209447 1_556
Li17 N10 2.376773 1_556
Li18 N14 2.066788 1_555
Li18 N7 2.100932 1_645
Li18 N0 2.209447 1_655
Li18 N10 2.376773 1_555
Li19 N15 2.066788 1_556
Li19 N7 2.100932 1_555
Li19 N2 2.209447 1_555
Li19 N11 2.376773 1_555
Li20 N10 2.066788 1_565
Li20 N8 2.100932 1_555
Li20 N3 2.209447 1_565
Li20 N13 2.376773 1_465
Li21 N11 2.066788 1_555
Li21 N8 2.100932 1_555
Li21 N0 2.209447 1_565
Li21 N12 2.376773 1_555
Li22 N10 2.066788 1_565
Li22 N9 2.100932 1_554
Li22 N2 2.209447 1_655
Li22 N12 2.376773 1_655
Li23 N11 2.066788 1_555
Li23 N9 2.100932 1_555
Li23 N1 2.209447 1_656
Li23 N13 2.376773 1_556
N0 W4 1.968731 1_455
N0 W0 1.968731 1_555
N1 W5 1.968731 1_555
N1 W1 1.968731 1_454
N2 W6 1.968731 1_555
N2 W2 1.968731 1_455
N3 W3 1.968731 1_545
N3 W7 1.968731 1_455
N4 W1 2.066585 1_555
N4 W0 2.066585 1_565
N5 W3 2.066585 1_555
N5 W2 2.066585 1_555
N6 W0 2.066585 1_655
N6 W2 2.066585 1_555
N7 W3 2.066585 1_556
N7 W1 2.066585 1_455
N8 W1 2.066585 1_555
N8 W2 2.066585 1_555
N9 W0 2.066585 1_565
N9 W3 2.066585 1_556
N10 W5 2.066585 1_555
N10 W4 2.066585 1_555
N11 W7 2.066585 1_556
N11 W6 2.066585 1_555
N12 W4 2.066585 1_465
N12 W6 2.066585 1_555
N13 W7 2.066585 1_555
N13 W5 2.066585 1_655
N14 W5 2.066585 1_555
N14 W6 2.066585 1_555
N15 W4 2.066585 1_555
N15 W7 2.066585 1_555
