# generated using pymatgen
data_BaYV4O7
_symmetry_space_group_name_H-M   'P 1'
_cell_length_a   6.49621952
_cell_length_b   6.49621952
_cell_length_c   10.70549900
_cell_angle_alpha   90.00000000
_cell_angle_beta   90.00000000
_cell_angle_gamma   119.99999516
_symmetry_Int_Tables_number   1
_chemical_formula_structural   BaYV4O7
_chemical_formula_sum   'Ba2 Y2 V8 O14'
_cell_volume   391.25414636
_cell_formula_units_Z   2
loop_
 _symmetry_equiv_pos_site_id
 _symmetry_equiv_pos_as_xyz
  1  'x, y, z'
loop_
 _atom_site_type_symbol
 _atom_site_label
 _atom_site_symmetry_multiplicity
 _atom_site_fract_x
 _atom_site_fract_y
 _atom_site_fract_z
 _atom_site_occupancy
  Ba  Ba0  1  0.66666700  0.33333300  0.47443700  1
  Ba  Ba1  1  0.33333300  0.66666700  0.97443700  1
  Y  Y0  1  0.66666700  0.33333300  0.88962100  1
  Y  Y1  1  0.33333300  0.66666700  0.38962100  1
  V  V0  1  0.82151200  0.17848800  0.18880300  1
  V  V1  1  0.64302500  0.82151200  0.68880300  1
  V  V2  1  0.17848800  0.35697500  0.68880300  1
  V  V3  1  0.82151200  0.64302500  0.18880300  1
  V  V4  1  0.35697500  0.17848800  0.18880300  1
  V  V5  1  0.17848800  0.82151200  0.68880300  1
  V  V6  1  0.00000000  0.00000000  0.42474900  1
  V  V7  1  0.00000000  0.00000000  0.92474900  1
  O  O0  1  0.84098600  0.15901400  0.00326600  1
  O  O1  1  0.68197300  0.84098600  0.50326600  1
  O  O2  1  0.15901400  0.31802700  0.50326600  1
  O  O3  1  0.84098600  0.68197300  0.00326600  1
  O  O4  1  0.31802700  0.15901400  0.00326600  1
  O  O5  1  0.15901400  0.84098600  0.50326600  1
  O  O6  1  0.00000000  0.00000000  0.74149400  1
  O  O7  1  0.00000000  0.00000000  0.24149400  1
  O  O8  1  0.50577900  0.49422100  0.27583000  1
  O  O9  1  0.01155800  0.50577900  0.77583000  1
  O  O10  1  0.49422100  0.98844200  0.77583000  1
  O  O11  1  0.50577900  0.01155800  0.27583000  1
  O  O12  1  0.49422100  0.50577900  0.77583000  1
  O  O13  1  0.98844200  0.49422100  0.27583000  1
loop_
_geom_bond_atom_site_label_1
_geom_bond_atom_site_label_2
_geom_bond_distance
_geom_bond_site_symmetry_2
Ba0 O11 2.792446 1_555
Ba0 O13 2.792446 1_555
Ba0 O8 2.792449 1_555
Ba0 O1 3.263876 1_545
Ba0 O2 3.263876 1_655
Ba0 O2 3.263876 1_555
Ba0 O1 3.263876 1_555
Ba0 O5 3.263876 1_655
Ba0 O5 3.263876 1_545
Ba1 O9 2.792446 1_555
Ba1 O10 2.792446 1_555
Ba1 O12 2.792449 1_555
Ba1 O3 3.263876 1_456
Ba1 O4 3.263876 1_566
Ba1 O3 3.263876 1_556
Ba1 O4 3.263876 1_556
Ba1 O0 3.263876 1_566
Ba1 O0 3.263876 1_456
O0 V7 1.976803 1_654
O0 V0 1.998316 1_555
O0 Y0 2.308087 1_554
O1 V6 1.976798 1_665
O1 V1 1.998316 1_555
O1 Y1 2.308097 1_555
O2 V6 1.976798 1_555
O2 V2 1.998316 1_555
O2 Y1 2.308097 1_555
O3 V7 1.976798 1_664
O3 V3 1.998316 1_555
O3 Y0 2.308097 1_554
O4 V7 1.976798 1_554
O4 V4 1.998316 1_555
O4 Y0 2.308097 1_554
O5 V6 1.976803 1_565
O5 V5 1.998316 1_555
O5 Y1 2.308087 1_555
O6 V7 1.961836 1_555
O6 V2 2.086018 1_555
O6 V1 2.086018 1_445
O6 V5 2.086023 1_545
O7 V6 1.961836 1_555
O7 V4 2.086018 1_555
O7 V3 2.086018 1_445
O7 V0 2.086023 1_455
O8 V4 2.006649 1_555
O8 V3 2.006649 1_555
O8 Y1 2.291036 1_555
O9 V5 2.006649 1_555
O9 V2 2.006654 1_555
O9 Y0 2.291031 1_455
O10 V5 2.006649 1_555
O10 V1 2.006654 1_555
O10 Y0 2.291031 1_565
O11 V0 2.006649 1_555
O11 V4 2.006654 1_555
O11 Y1 2.291031 1_545
O12 V1 2.006649 1_555
O12 V2 2.006649 1_555
O12 Y0 2.291036 1_555
O13 V0 2.006649 1_555
O13 V3 2.006654 1_555
O13 Y1 2.291031 1_655
