# generated using pymatgen
data_Cs2NaVO4
_symmetry_space_group_name_H-M   'P 1'
_cell_length_a   6.28297500
_cell_length_b   6.19135700
_cell_length_c   8.43564474
_cell_angle_alpha   86.87602692
_cell_angle_beta   90.00000000
_cell_angle_gamma   90.00000000
_symmetry_Int_Tables_number   1
_chemical_formula_structural   Cs2NaVO4
_chemical_formula_sum   'Cs4 Na2 V2 O8'
_cell_volume   327.66012984
_cell_formula_units_Z   2
loop_
 _symmetry_equiv_pos_site_id
 _symmetry_equiv_pos_as_xyz
  1  'x, y, z'
loop_
 _atom_site_type_symbol
 _atom_site_label
 _atom_site_symmetry_multiplicity
 _atom_site_fract_x
 _atom_site_fract_y
 _atom_site_fract_z
 _atom_site_occupancy
  Cs  Cs0  1  0.75000000  0.20198200  0.51369900  1
  Cs  Cs1  1  0.25000000  0.79801800  0.48630100  1
  Cs  Cs2  1  0.25000000  0.35127900  0.18099000  1
  Cs  Cs3  1  0.75000000  0.64872100  0.81901000  1
  Na  Na0  1  0.25000000  0.87212000  0.97262600  1
  Na  Na1  1  0.75000000  0.12788000  0.02737400  1
  V  V0  1  0.75000000  0.70428200  0.24166300  1
  V  V1  1  0.25000000  0.29571800  0.75833700  1
  O  O0  1  0.97492200  0.84195700  0.16550900  1
  O  O1  1  0.47492200  0.15804300  0.83449100  1
  O  O2  1  0.02507800  0.15804300  0.83449100  1
  O  O3  1  0.52507800  0.84195700  0.16550900  1
  O  O4  1  0.25000000  0.56255300  0.81931700  1
  O  O5  1  0.25000000  0.29813500  0.55136200  1
  O  O6  1  0.75000000  0.43744700  0.18068300  1
  O  O7  1  0.75000000  0.70186500  0.44863800  1
loop_
_geom_bond_atom_site_label_1
_geom_bond_atom_site_label_2
_geom_bond_distance
_geom_bond_site_symmetry_2
Cs0 O6 3.093636 1_555
Cs0 O7 3.113651 1_555
Cs0 O7 3.173980 1_545
Cs0 O2 3.209942 1_655
Cs0 O1 3.209942 1_555
Cs0 O5 3.216349 1_555
Cs0 O5 3.216349 1_655
Cs1 O4 3.093636 1_555
Cs1 O5 3.113651 1_555
Cs1 O5 3.173980 1_565
Cs1 O3 3.209942 1_555
Cs1 O0 3.209942 1_455
Cs1 O7 3.216349 1_455
Cs1 O7 3.216349 1_555
Cs2 O5 3.123721 1_555
Cs2 O6 3.186443 1_555
Cs2 O6 3.186443 1_455
Cs2 O4 3.253359 1_554
Cs2 O3 3.491429 1_555
Cs2 O0 3.491429 1_455
Cs2 O1 3.514708 1_554
Cs2 O2 3.514708 1_554
Cs2 O0 3.604564 1_445
Cs2 O3 3.604564 1_545
Cs3 O7 3.123721 1_555
Cs3 O4 3.186443 1_555
Cs3 O4 3.186443 1_655
Cs3 O6 3.253359 1_556
Cs3 O2 3.491429 1_655
Cs3 O1 3.491429 1_555
Cs3 O0 3.514708 1_556
Cs3 O3 3.514708 1_556
Cs3 O2 3.604564 1_665
Cs3 O1 3.604564 1_565
Na0 O4 2.369851 1_555
Na0 O0 2.374076 1_456
Na0 O3 2.374076 1_556
Na0 O1 2.502771 1_565
Na0 O2 2.502771 1_565
Na1 O6 2.369851 1_555
Na1 O2 2.374076 1_654
Na1 O1 2.374076 1_554
Na1 O3 2.502771 1_545
Na1 O0 2.502771 1_545
O0 V0 1.754041 1_555
O1 V1 1.754041 1_555
O2 V1 1.754041 1_555
O3 V0 1.754041 1_555
O4 V1 1.756866 1_555
O5 V1 1.745216 1_555
O6 V0 1.756866 1_555
O7 V0 1.745216 1_555
