# generated using pymatgen
data_Li2VCO5
_symmetry_space_group_name_H-M   'P 1'
_cell_length_a   2.92664400
_cell_length_b   9.38923875
_cell_length_c   12.04996757
_cell_angle_alpha   90.01021425
_cell_angle_beta   90.15353427
_cell_angle_gamma   91.03698072
_symmetry_Int_Tables_number   1
_chemical_formula_structural   Li2VCO5
_chemical_formula_sum   'Li8 V4 C4 O20'
_cell_volume   331.06514055
_cell_formula_units_Z   4
loop_
 _symmetry_equiv_pos_site_id
 _symmetry_equiv_pos_as_xyz
  1  'x, y, z'
loop_
 _atom_site_type_symbol
 _atom_site_label
 _atom_site_symmetry_multiplicity
 _atom_site_fract_x
 _atom_site_fract_y
 _atom_site_fract_z
 _atom_site_occupancy
  Li  Li0  1  0.49844300  0.00475500  0.71859100  1
  Li  Li1  1  0.50047100  0.00000100  0.00005300  1
  Li  Li2  1  0.98920600  0.99981100  0.50016800  1
  Li  Li3  1  0.49586100  0.99523800  0.28149600  1
  Li  Li4  1  0.49826700  0.50475100  0.78142300  1
  Li  Li5  1  0.50556600  0.49999900  0.49986700  1
  Li  Li6  1  0.00004700  0.50002100  0.00001200  1
  Li  Li7  1  0.50354500  0.49520800  0.21862000  1
  V  V0  1  0.00266600  0.24307800  0.88702500  1
  V  V1  1  0.00215700  0.25688000  0.38700600  1
  V  V2  1  0.00327700  0.74301500  0.61299700  1
  V  V3  1  0.99753800  0.75690700  0.11302300  1
  C  C0  1  0.99962800  0.23340300  0.13870200  1
  C  C1  1  0.00095600  0.26659300  0.63876800  1
  C  C2  1  0.00065300  0.73329300  0.36123400  1
  C  C3  1  0.99859300  0.76669800  0.86128100  1
  O  O0  1  0.52387700  0.11709600  0.85699800  1
  O  O1  1  0.46521700  0.12768700  0.42086400  1
  O  O2  1  0.99945400  0.13190300  0.63816500  1
  O  O3  1  0.99074300  0.16052000  0.23175900  1
  O  O4  1  0.00686000  0.15732200  0.04695300  1
  O  O5  1  0.00994100  0.34262500  0.54694600  1
  O  O6  1  0.99340500  0.33950000  0.73175000  1
  O  O7  1  0.00101500  0.36811300  0.13804400  1
  O  O8  1  0.47541000  0.37271800  0.92094900  1
  O  O9  1  0.53785500  0.38283500  0.35681600  1
  O  O10  1  0.52521800  0.61707700  0.64296200  1
  O  O11  1  0.52515500  0.62728100  0.07905400  1
  O  O12  1  0.00580000  0.63200900  0.86189300  1
  O  O13  1  0.00924700  0.66052400  0.26822800  1
  O  O14  1  0.00849000  0.65732800  0.45305700  1
  O  O15  1  0.99329400  0.84269000  0.95307300  1
  O  O16  1  0.99442100  0.83952200  0.76820600  1
  O  O17  1  0.98803800  0.86789500  0.36189300  1
  O  O18  1  0.47386200  0.87278700  0.57907000  1
  O  O19  1  0.47582600  0.88292000  0.14305200  1
loop_
_geom_bond_atom_site_label_1
_geom_bond_atom_site_label_2
_geom_bond_distance
_geom_bond_site_symmetry_2
Li0 O0 1.973717 1_555
Li0 O18 2.088633 1_545
Li0 O2 2.111652 1_555
Li0 O2 2.133781 1_455
Li0 O16 2.205094 1_445
Li0 O16 2.224524 1_545
Li1 O19 2.044829 1_545
Li1 O0 2.045371 1_554
Li1 O4 2.147940 1_655
Li1 O15 2.149690 1_444
Li1 O15 2.159528 1_544
Li1 O4 2.160911 1_555
Li2 O1 2.059743 1_665
Li2 O2 2.074091 1_565
Li2 O17 2.075922 1_555
Li2 O18 2.095878 1_655
Li2 O18 2.131695 1_555
Li2 O1 2.183045 1_565
Li3 O19 1.973634 1_555
Li3 O1 2.092603 1_565
Li3 O17 2.120902 1_555
Li3 O17 2.126212 1_455
Li3 O3 2.188340 1_565
Li3 O3 2.243100 1_465
Li4 O10 1.974986 1_555
Li4 O8 2.089585 1_555
Li4 O12 2.121761 1_655
Li4 O12 2.124761 1_555
Li4 O6 2.204718 1_455
Li4 O6 2.225139 1_555
Li5 O10 2.044845 1_555
Li5 O9 2.048027 1_555
Li5 O5 2.129866 1_555
Li5 O14 2.143072 1_655
Li5 O14 2.165711 1_555
Li5 O5 2.181491 1_655
Li6 O7 2.073950 1_555
Li6 O12 2.075136 1_554
Li6 O11 2.081669 1_455
Li6 O8 2.082958 1_554
Li6 O8 2.149232 1_454
Li6 O11 2.149871 1_555
Li7 O9 1.974831 1_555
Li7 O11 2.090113 1_555
Li7 O7 2.111443 1_555
Li7 O7 2.134594 1_655
Li7 O13 2.206545 1_655
Li7 O13 2.223727 1_555
C0 O7 1.264784 1_655
C0 O3 1.313826 1_555
C0 O4 1.316592 1_655
C1 O2 1.264584 1_455
C1 O6 1.313338 1_455
C1 O5 1.316934 1_555
C2 O17 1.265041 1_455
C2 O13 1.313000 1_555
C2 O14 1.316912 1_555
C3 O12 1.265207 1_655
C3 O16 1.313795 1_555
C3 O15 1.316427 1_555
O0 V0 1.852224 1_655
O0 V0 1.981178 1_555
O1 V1 1.879147 1_555
O1 V1 2.010447 1_655
O3 V1 2.077799 1_655
O4 V0 2.088797 1_554
O5 V1 2.088444 1_555
O6 V0 2.079047 1_655
O8 V0 1.870504 1_555
O8 V0 2.025104 1_655
O9 V1 1.852855 1_655
O9 V1 1.981167 1_555
O10 V2 1.851776 1_655
O10 V2 1.981043 1_555
O11 V3 1.869769 1_555
O11 V3 2.025951 1_455
O13 V3 2.078273 1_455
O14 V2 2.088525 1_555
O15 V3 2.089141 1_556
O16 V2 2.078492 1_655
O18 V2 1.868424 1_555
O18 V2 2.029178 1_655
O19 V3 1.851319 1_455
O19 V3 1.982506 1_555
