# generated using pymatgen
data_Nd3IrO7
_symmetry_space_group_name_H-M   'P 1'
_cell_length_a   6.64433998
_cell_length_b   7.50519324
_cell_length_c   12.48544132
_cell_angle_alpha   90.00000000
_cell_angle_beta   98.77913327
_cell_angle_gamma   90.00000000
_symmetry_Int_Tables_number   1
_chemical_formula_structural   Nd3IrO7
_chemical_formula_sum   'Nd12 Ir4 O28'
_cell_volume   615.31769089
_cell_formula_units_Z   4
loop_
 _symmetry_equiv_pos_site_id
 _symmetry_equiv_pos_as_xyz
  1  'x, y, z'
loop_
 _atom_site_type_symbol
 _atom_site_label
 _atom_site_symmetry_multiplicity
 _atom_site_fract_x
 _atom_site_fract_y
 _atom_site_fract_z
 _atom_site_occupancy
  Nd  Nd0  1  0.22468011  0.50114839  0.75526658  1
  Nd  Nd1  1  0.27531989  0.00114839  0.74473342  1
  Nd  Nd2  1  0.77531989  0.49885161  0.24473342  1
  Nd  Nd3  1  0.72468011  -0.00114839  0.25526658  1
  Nd  Nd4  1  0.07333555  0.74094167  0.48500189  1
  Nd  Nd5  1  0.42666445  0.24094167  0.01499811  1
  Nd  Nd6  1  0.92666445  0.25905833  0.51499811  1
  Nd  Nd7  1  0.57333555  0.75905833  0.98500189  1
  Nd  Nd8  1  0.73656395  0.75525414  0.70844728  1
  Nd  Nd9  1  0.76343605  0.25525414  0.79155272  1
  Nd  Nd10  1  0.26343605  0.24474586  0.29155272  1
  Nd  Nd11  1  0.23656395  0.74474586  0.20844728  1
  Ir  Ir0  1  0.50000000  0.50000000  0.50000000  1
  Ir  Ir1  1  0.00000000  -0.00000000  0.00000000  1
  Ir  Ir2  1  0.00000000  0.50000000  0.00000000  1
  Ir  Ir3  1  0.50000000  -0.00000000  0.50000000  1
  O  O0  1  0.95637556  0.75031306  0.05029765  1
  O  O1  1  0.54362444  0.25031306  0.44970235  1
  O  O2  1  0.04362444  0.24968694  0.94970235  1
  O  O3  1  0.45637556  0.74968694  0.55029765  1
  O  O4  1  0.27831790  0.54189404  -0.01698819  1
  O  O5  1  0.22168210  0.04189404  0.51698819  1
  O  O6  1  0.72168210  0.45810596  0.01698819  1
  O  O7  1  0.77831790  0.95810596  0.48301181  1
  O  O8  1  0.77385678  0.54019079  0.44583592  1
  O  O9  1  0.72614322  0.04019079  0.05416408  1
  O  O10  1  0.22614322  0.45980921  0.55416408  1
  O  O11  1  0.27385678  0.95980921  0.94583592  1
  O  O12  1  0.91793202  0.54143778  0.83849521  1
  O  O13  1  0.58206798  0.04143778  0.66150479  1
  O  O14  1  0.08206798  0.45856222  0.16150479  1
  O  O15  1  0.41793202  0.95856222  0.33849521  1
  O  O16  1  0.34034722  0.54781838  0.36218451  1
  O  O17  1  0.15965278  0.04781838  0.13781549  1
  O  O18  1  0.65965278  0.45218162  0.63781549  1
  O  O19  1  0.84034722  0.95218162  0.86218451  1
  O  O20  1  0.56276332  0.73566168  0.17018078  1
  O  O21  1  0.93723668  0.23566168  0.32981922  1
  O  O22  1  0.43723668  0.26433832  0.82981922  1
  O  O23  1  0.06276332  0.76433832  0.67018078  1
  O  O24  1  0.96335862  0.77522382  0.30149791  1
  O  O25  1  0.53664138  0.27522382  0.19850209  1
  O  O26  1  0.03664138  0.22477618  0.69850209  1
  O  O27  1  0.46335862  0.72477618  0.80149791  1
loop_
_geom_bond_atom_site_label_1
_geom_bond_atom_site_label_2
_geom_bond_distance
_geom_bond_site_symmetry_2
Nd0 O27 2.320698 1_555
Nd0 O22 2.370347 1_555
Nd0 O23 2.416375 1_555
Nd0 O12 2.443720 1_455
Nd0 O26 2.468887 1_555
Nd0 O10 2.531440 1_555
Nd0 O4 2.827840 1_556
Nd1 O26 2.320698 1_555
Nd1 O23 2.370347 1_545
Nd1 O22 2.416375 1_555
Nd1 O13 2.443720 1_555
Nd1 O27 2.468887 1_545
Nd1 O11 2.531440 1_545
Nd1 O5 2.827840 1_555
Nd2 O25 2.320698 1_555
Nd2 O20 2.370347 1_555
Nd2 O21 2.416375 1_555
Nd2 O14 2.443720 1_655
Nd2 O24 2.468887 1_555
Nd2 O8 2.531440 1_555
Nd2 O6 2.827840 1_555
Nd3 O24 2.320698 1_545
Nd3 O21 2.370347 1_555
Nd3 O20 2.416375 1_545
Nd3 O15 2.443720 1_545
Nd3 O25 2.468887 1_555
Nd3 O9 2.531440 1_555
Nd3 O7 2.827840 1_545
Nd4 O24 2.310493 1_455
Nd4 O23 2.330424 1_555
Nd4 O10 2.441473 1_555
Nd4 O5 2.472371 1_565
Nd4 O8 2.484276 1_455
Nd4 O7 2.546482 1_455
Nd4 O3 2.552030 1_555
Nd4 O16 2.903475 1_555
Nd5 O25 2.310493 1_555
Nd5 O22 2.330424 1_554
Nd5 O11 2.441473 1_544
Nd5 O4 2.472371 1_555
Nd5 O9 2.484276 1_555
Nd5 O6 2.546482 1_555
Nd5 O2 2.552030 1_554
Nd5 O17 2.903475 1_555
Nd6 O26 2.310493 1_655
Nd6 O21 2.330424 1_555
Nd6 O8 2.441473 1_555
Nd6 O7 2.472371 1_545
Nd6 O10 2.484276 1_655
Nd6 O5 2.546482 1_655
Nd6 O1 2.552030 1_555
Nd6 O18 2.903475 1_555
Nd7 O27 2.310493 1_555
Nd7 O20 2.330424 1_556
Nd7 O9 2.441473 1_566
Nd7 O6 2.472371 1_556
Nd7 O11 2.484276 1_555
Nd7 O4 2.546482 1_556
Nd7 O0 2.552030 1_556
Nd7 O19 2.903475 1_555
Nd8 O23 2.290534 1_655
Nd8 O27 2.311063 1_555
Nd8 O13 2.413903 1_565
Nd8 O19 2.437270 1_555
Nd8 O12 2.463028 1_555
Nd8 O18 2.464784 1_555
Nd8 O3 2.498873 1_555
Nd9 O22 2.290534 1_555
Nd9 O26 2.311063 1_655
Nd9 O12 2.413903 1_555
Nd9 O18 2.437270 1_555
Nd9 O13 2.463028 1_555
Nd9 O19 2.464784 1_545
Nd9 O2 2.498873 1_655
Nd10 O21 2.290534 1_455
Nd10 O25 2.311063 1_555
Nd10 O15 2.413903 1_545
Nd10 O17 2.437270 1_555
Nd10 O14 2.463028 1_555
Nd10 O16 2.464784 1_555
Nd10 O1 2.498873 1_555
Nd11 O20 2.290534 1_555
Nd11 O24 2.311063 1_455
Nd11 O14 2.413903 1_555
Nd11 O16 2.437270 1_555
Nd11 O15 2.463028 1_555
Nd11 O17 2.464784 1_565
Nd11 O0 2.498873 1_455
Ir0 O16 1.912502 1_555
Ir0 O18 1.912502 1_555
Ir0 O1 2.011376 1_555
Ir0 O3 2.011376 1_555
Ir0 O8 2.057881 1_555
Ir0 O10 2.057881 1_555
Ir1 O17 1.912502 1_555
Ir1 O19 1.912502 1_444
Ir1 O2 2.011376 1_554
Ir1 O0 2.011376 1_445
Ir1 O9 2.057881 1_455
Ir1 O11 2.057881 1_544
Ir2 O4 1.919183 1_555
Ir2 O6 1.919183 1_455
Ir2 O2 2.015755 1_554
Ir2 O0 2.015755 1_455
Ir2 O12 2.030892 1_454
Ir2 O14 2.030892 1_555
Ir3 O5 1.919183 1_555
Ir3 O7 1.919183 1_545
Ir3 O3 2.015755 1_545
Ir3 O1 2.015755 1_555
Ir3 O13 2.030892 1_555
Ir3 O15 2.030892 1_545
