# generated using pymatgen
data_Li4Co3O7
_symmetry_space_group_name_H-M   'P 1'
_cell_length_a   6.52292300
_cell_length_b   6.54293652
_cell_length_c   6.56065035
_cell_angle_alpha   71.68923428
_cell_angle_beta   72.54832099
_cell_angle_gamma   71.95897176
_symmetry_Int_Tables_number   1
_chemical_formula_structural   Li4Co3O7
_chemical_formula_sum   'Li8 Co6 O14'
_cell_volume   246.30712006
_cell_formula_units_Z   2
loop_
 _symmetry_equiv_pos_site_id
 _symmetry_equiv_pos_as_xyz
  1  'x, y, z'
loop_
 _atom_site_type_symbol
 _atom_site_label
 _atom_site_symmetry_multiplicity
 _atom_site_fract_x
 _atom_site_fract_y
 _atom_site_fract_z
 _atom_site_occupancy
  Li  Li0  1  0.65282300  0.28991500  0.56425000  1
  Li  Li1  1  0.34717700  0.71008500  0.43575000  1
  Li  Li2  1  0.07348500  0.14509300  0.29037500  1
  Li  Li3  1  0.92651500  0.85490700  0.70962500  1
  Li  Li4  1  0.21458600  0.42884500  0.85461100  1
  Li  Li5  1  0.50000000  0.00000000  0.00000000  1
  Li  Li6  1  0.78541400  0.57115500  0.14538900  1
  Li  Li7  1  0.00000000  0.50000000  0.50000000  1
  Co  Co0  1  0.57373300  0.63959300  0.78589500  1
  Co  Co1  1  0.42626700  0.36040700  0.21410500  1
  Co  Co2  1  0.27750300  0.07858900  0.63713700  1
  Co  Co3  1  0.72249700  0.92141100  0.36286300  1
  Co  Co4  1  0.14076900  0.78447100  0.07496000  1
  Co  Co5  1  0.85923100  0.21552900  0.92504000  1
  O  O0  1  0.66502000  0.61923700  0.49353200  1
  O  O1  1  0.40410500  0.05674800  0.31742000  1
  O  O2  1  0.13201100  0.47229100  0.17194900  1
  O  O3  1  0.97510900  0.17150500  0.61633900  1
  O  O4  1  0.27524900  0.74763100  0.75510500  1
  O  O5  1  0.53304800  0.33837600  0.90898800  1
  O  O6  1  0.82574800  0.90244200  0.03915100  1
  O  O7  1  0.59589500  0.94325200  0.68258000  1
  O  O8  1  0.33498000  0.38076300  0.50646800  1
  O  O9  1  0.02489100  0.82849500  0.38366100  1
  O  O10  1  0.86798900  0.52770900  0.82805100  1
  O  O11  1  0.17425200  0.09755800  0.96084900  1
  O  O12  1  0.46695200  0.66162400  0.09101200  1
  O  O13  1  0.72475100  0.25236900  0.24489500  1
loop_
_geom_bond_atom_site_label_1
_geom_bond_atom_site_label_2
_geom_bond_distance
_geom_bond_site_symmetry_2
Li0 O0 2.078545 1_555
Li0 O13 2.081501 1_555
Li0 O8 2.088531 1_555
Li0 O3 2.095756 1_555
Li0 O5 2.250233 1_555
Li0 O7 2.264430 1_545
Li1 O8 2.078545 1_555
Li1 O4 2.081501 1_555
Li1 O0 2.088531 1_555
Li1 O9 2.095756 1_555
Li1 O12 2.250233 1_555
Li1 O1 2.264430 1_565
Li2 O9 2.063931 1_545
Li2 O3 2.086959 1_455
Li2 O1 2.099882 1_555
Li2 O2 2.148430 1_555
Li2 O11 2.155492 1_554
Li2 O13 2.245618 1_455
Li3 O3 2.063931 1_565
Li3 O9 2.086959 1_655
Li3 O7 2.099882 1_555
Li3 O10 2.148430 1_555
Li3 O6 2.155492 1_556
Li3 O4 2.245618 1_655
Li4 O2 2.076013 1_556
Li4 O5 2.083994 1_555
Li4 O4 2.105705 1_555
Li4 O11 2.132466 1_555
Li4 O10 2.195396 1_455
Li4 O8 2.270497 1_555
Li5 O6 2.091068 1_545
Li5 O11 2.091068 1_554
Li5 O7 2.103933 1_544
Li5 O1 2.103933 1_555
Li5 O5 2.166204 1_554
Li5 O12 2.166204 1_545
Li6 O10 2.076013 1_554
Li6 O12 2.083994 1_555
Li6 O13 2.105705 1_555
Li6 O6 2.132466 1_555
Li6 O2 2.195396 1_655
Li6 O0 2.270497 1_555
Li7 O9 2.083157 1_555
Li7 O3 2.083157 1_455
Li7 O8 2.088977 1_555
Li7 O0 2.088977 1_455
Li7 O10 2.107918 1_455
Li7 O2 2.107918 1_555
Co0 O0 1.864865 1_555
Co0 O10 1.901945 1_555
Co0 O4 1.903933 1_555
Co0 O7 1.923729 1_555
Co0 O12 1.948286 1_556
Co0 O5 1.949917 1_555
Co1 O8 1.864865 1_555
Co1 O2 1.901945 1_555
Co1 O13 1.903933 1_555
Co1 O1 1.923729 1_555
Co1 O5 1.948286 1_554
Co1 O12 1.949917 1_555
Co2 O3 1.909318 1_455
Co2 O8 1.996443 1_555
Co2 O1 2.044111 1_555
Co2 O11 2.057981 1_555
Co2 O4 2.061108 1_545
Co2 O7 2.062206 1_545
Co3 O9 1.909318 1_655
Co3 O0 1.996443 1_555
Co3 O7 2.044111 1_555
Co3 O6 2.057981 1_555
Co3 O13 2.061108 1_565
Co3 O1 2.062206 1_565
Co4 O2 1.952965 1_555
Co4 O11 2.004988 1_564
Co4 O6 2.016585 1_455
Co4 O9 2.017315 1_555
Co4 O12 2.050866 1_555
Co4 O4 2.076985 1_554
Co5 O10 1.952965 1_555
Co5 O6 2.004988 1_546
Co5 O11 2.016585 1_655
Co5 O3 2.017315 1_555
Co5 O5 2.050866 1_555
Co5 O13 2.076985 1_556
