# generated using pymatgen
data_Cu81Sn22
_symmetry_space_group_name_H-M   'P 1'
_cell_length_a   12.77339626
_cell_length_b   12.77339626
_cell_length_c   12.77339726
_cell_angle_alpha   59.87467258
_cell_angle_beta   59.87467258
_cell_angle_gamma   59.87467422
_symmetry_Int_Tables_number   1
_chemical_formula_structural   Cu81Sn22
_chemical_formula_sum   'Cu81 Sn22'
_cell_volume   1469.49267809
_cell_formula_units_Z   1
loop_
 _symmetry_equiv_pos_site_id
 _symmetry_equiv_pos_as_xyz
  1  'x, y, z'
loop_
 _atom_site_type_symbol
 _atom_site_label
 _atom_site_symmetry_multiplicity
 _atom_site_fract_x
 _atom_site_fract_y
 _atom_site_fract_z
 _atom_site_occupancy
  Cu  Cu0  1  0.42270900  0.07724300  0.42270900  1
  Cu  Cu1  1  0.42270900  0.42270900  0.07724300  1
  Cu  Cu2  1  0.07724300  0.42270900  0.42270900  1
  Cu  Cu3  1  0.07735700  0.07735700  0.42262800  1
  Cu  Cu4  1  0.42262800  0.07735700  0.07735700  1
  Cu  Cu5  1  0.07735700  0.42262800  0.07735700  1
  Cu  Cu6  1  0.54862800  0.54862800  0.54862800  1
  Cu  Cu7  1  0.54880500  0.35391200  0.54880500  1
  Cu  Cu8  1  0.35391200  0.54880500  0.54880500  1
  Cu  Cu9  1  0.54880500  0.54880500  0.35391200  1
  Cu  Cu10  1  0.53112800  0.75717100  0.53112800  1
  Cu  Cu11  1  0.53112800  0.53112800  0.75717100  1
  Cu  Cu12  1  0.75717100  0.53112800  0.53112800  1
  Cu  Cu13  1  0.53108100  0.18044000  0.53108100  1
  Cu  Cu14  1  0.75790500  0.18073000  0.53050400  1
  Cu  Cu15  1  0.53050400  0.18073000  0.75790500  1
  Cu  Cu16  1  0.18073000  0.53050400  0.75790500  1
  Cu  Cu17  1  0.18073000  0.75790500  0.53050400  1
  Cu  Cu18  1  0.18044000  0.53108100  0.53108100  1
  Cu  Cu19  1  0.75790500  0.53050400  0.18073000  1
  Cu  Cu20  1  0.53108100  0.53108100  0.18044000  1
  Cu  Cu21  1  0.53050400  0.75790500  0.18073000  1
  Cu  Cu22  1  0.76200700  0.05605300  0.76200700  1
  Cu  Cu23  1  0.76200700  0.76200700  0.05605300  1
  Cu  Cu24  1  0.05605300  0.76200700  0.76200700  1
  Cu  Cu25  1  0.76509400  0.41835300  0.76509400  1
  Cu  Cu26  1  0.05465200  0.41850100  0.76396500  1
  Cu  Cu27  1  0.76396500  0.41850100  0.05465200  1
  Cu  Cu28  1  0.41850100  0.76396500  0.05465200  1
  Cu  Cu29  1  0.41850100  0.05465200  0.76396500  1
  Cu  Cu30  1  0.41835300  0.76509400  0.76509400  1
  Cu  Cu31  1  0.05465200  0.76396500  0.41850100  1
  Cu  Cu32  1  0.76509400  0.76509400  0.41835300  1
  Cu  Cu33  1  0.76396500  0.05465200  0.41850100  1
  Cu  Cu34  1  0.41674200  0.41674200  0.41674200  1
  Cu  Cu35  1  0.41599600  0.75090700  0.41599600  1
  Cu  Cu36  1  0.75090700  0.41599600  0.41599600  1
  Cu  Cu37  1  0.41599600  0.41599600  0.75090700  1
  Cu  Cu38  1  0.80389900  0.80389900  0.80389900  1
  Cu  Cu39  1  0.80415800  0.58721100  0.80415800  1
  Cu  Cu40  1  0.58721100  0.80415800  0.80415800  1
  Cu  Cu41  1  0.80415800  0.80415800  0.58721100  1
  Cu  Cu42  1  0.01972900  0.29182300  0.01972900  1
  Cu  Cu43  1  0.01972900  0.01972900  0.29182300  1
  Cu  Cu44  1  0.29182300  0.01972900  0.01972900  1
  Cu  Cu45  1  0.01853000  0.66778400  0.01853000  1
  Cu  Cu46  1  0.29446500  0.67030000  0.01704000  1
  Cu  Cu47  1  0.01704000  0.67030000  0.29446500  1
  Cu  Cu48  1  0.67030000  0.01704000  0.29446500  1
  Cu  Cu49  1  0.67030000  0.29446500  0.01704000  1
  Cu  Cu50  1  0.66778400  0.01853000  0.01853000  1
  Cu  Cu51  1  0.29446500  0.01704000  0.67030000  1
  Cu  Cu52  1  0.01853000  0.01853000  0.66778400  1
  Cu  Cu53  1  0.01704000  0.29446500  0.67030000  1
  Cu  Cu54  1  0.16557400  0.16557400  0.16557400  1
  Cu  Cu55  1  0.16478600  0.50620600  0.16478600  1
  Cu  Cu56  1  0.50620600  0.16478600  0.16478600  1
  Cu  Cu57  1  0.16478600  0.16478600  0.50620600  1
  Cu  Cu58  1  0.30079600  0.30079600  0.30079600  1
  Cu  Cu59  1  0.30107700  0.09713700  0.30107700  1
  Cu  Cu60  1  0.09713700  0.30107700  0.30107700  1
  Cu  Cu61  1  0.30107700  0.30107700  0.09713700  1
  Cu  Cu62  1  0.66663400  0.66663400  0.66663400  1
  Cu  Cu63  1  0.66650700  0.99994400  0.66650700  1
  Cu  Cu64  1  0.99994400  0.66650700  0.66650700  1
  Cu  Cu65  1  0.66650700  0.66650700  0.99994400  1
  Cu  Cu66  1  0.67154900  0.32868800  0.67154900  1
  Cu  Cu67  1  0.67154900  0.67154900  0.32868800  1
  Cu  Cu68  1  0.32868800  0.67154900  0.67154900  1
  Cu  Cu69  1  0.32838200  0.32838200  0.67123100  1
  Cu  Cu70  1  0.67123100  0.32838200  0.32838200  1
  Cu  Cu71  1  0.32838200  0.67123100  0.32838200  1
  Cu  Cu72  1  0.17925700  0.82149000  0.17925700  1
  Cu  Cu73  1  0.17925700  0.17925700  0.82149000  1
  Cu  Cu74  1  0.82149000  0.17925700  0.17925700  1
  Cu  Cu75  1  0.82028500  0.82028500  0.18023800  1
  Cu  Cu76  1  0.18023800  0.82028500  0.82028500  1
  Cu  Cu77  1  0.82028500  0.18023800  0.82028500  1
  Cu  Cu78  1  0.05646100  0.82658000  0.05646100  1
  Cu  Cu79  1  0.82658000  0.05646100  0.05646100  1
  Cu  Cu80  1  0.05646100  0.05646100  0.82658000  1
  Sn  Sn0  1  0.93245100  0.56701000  0.93245100  1
  Sn  Sn1  1  0.93245100  0.93245100  0.56701000  1
  Sn  Sn2  1  0.56701000  0.93245100  0.93245100  1
  Sn  Sn3  1  0.56744700  0.56744700  0.93264800  1
  Sn  Sn4  1  0.93264800  0.56744700  0.56744700  1
  Sn  Sn5  1  0.56744700  0.93264800  0.56744700  1
  Sn  Sn6  1  0.91175500  0.91175500  0.91175500  1
  Sn  Sn7  1  0.91830100  0.25222500  0.91830100  1
  Sn  Sn8  1  0.25222500  0.91830100  0.91830100  1
  Sn  Sn9  1  0.91830100  0.91830100  0.25222500  1
  Sn  Sn10  1  0.26760500  0.55066700  0.26760500  1
  Sn  Sn11  1  0.26760500  0.26760500  0.55066700  1
  Sn  Sn12  1  0.55066700  0.26760500  0.26760500  1
  Sn  Sn13  1  0.26694800  0.91433800  0.26694800  1
  Sn  Sn14  1  0.55062900  0.91402000  0.26800800  1
  Sn  Sn15  1  0.26800800  0.91402000  0.55062900  1
  Sn  Sn16  1  0.91402000  0.26800800  0.55062900  1
  Sn  Sn17  1  0.91402000  0.55062900  0.26800800  1
  Sn  Sn18  1  0.91433800  0.26694800  0.26694800  1
  Sn  Sn19  1  0.55062900  0.26800800  0.91402000  1
  Sn  Sn20  1  0.26694800  0.26694800  0.91433800  1
  Sn  Sn21  1  0.26800800  0.55062900  0.91402000  1
loop_
_geom_bond_atom_site_label_1
_geom_bond_atom_site_label_2
_geom_bond_distance
_geom_bond_site_symmetry_2
Cu0 Cu58 2.551680 1_555
Cu0 Cu59 2.553945 1_555
Cu0 Sn5 2.612122 1_545
Cu0 Cu48 2.626718 1_555
Cu0 Cu51 2.626718 1_555
Cu0 Cu57 2.685905 1_555
Cu0 Cu56 2.685905 1_555
Cu0 Sn15 2.897653 1_545
Cu0 Sn14 2.897653 1_545
Cu0 Sn12 2.900408 1_555
Cu0 Sn11 2.900408 1_555
Cu1 Cu58 2.551680 1_555
Cu1 Cu61 2.553945 1_555
Cu1 Sn3 2.612122 1_554
Cu1 Cu49 2.626718 1_555
Cu1 Cu46 2.626718 1_555
Cu1 Cu55 2.685905 1_555
Cu1 Cu56 2.685905 1_555
Cu1 Sn19 2.897653 1_554
Cu1 Sn21 2.897653 1_554
Cu1 Sn12 2.900408 1_555
Cu1 Sn10 2.900408 1_555
Cu2 Cu58 2.551680 1_555
Cu2 Cu60 2.553945 1_555
Cu2 Sn4 2.612122 1_455
Cu2 Cu47 2.626718 1_555
Cu2 Cu53 2.626718 1_555
Cu2 Cu57 2.685905 1_555
Cu2 Cu55 2.685905 1_555
Cu2 Sn16 2.897653 1_455
Cu2 Sn17 2.897653 1_455
Cu2 Sn10 2.900408 1_555
Cu2 Sn11 2.900408 1_555
Cu3 Cu60 2.553042 1_555
Cu3 Cu59 2.553042 1_555
Cu3 Cu52 2.603506 1_555
Cu3 Sn1 2.615174 1_445
Cu3 Cu43 2.624572 1_555
Cu3 Cu54 2.677182 1_555
Cu3 Cu57 2.698040 1_555
Cu3 Sn13 2.900992 1_545
Cu3 Sn18 2.900992 1_455
Cu3 Sn15 2.903307 1_545
Cu3 Sn16 2.903307 1_455
Cu4 Cu61 2.553042 1_555
Cu4 Cu59 2.553042 1_555
Cu4 Cu50 2.603506 1_555
Cu4 Sn2 2.615175 1_544
Cu4 Cu44 2.624572 1_555
Cu4 Cu54 2.677182 1_555
Cu4 Cu56 2.698040 1_555
Cu4 Sn13 2.900991 1_545
Cu4 Sn20 2.900992 1_554
Cu4 Sn19 2.903307 1_554
Cu4 Sn14 2.903307 1_545
Cu5 Cu61 2.553042 1_555
Cu5 Cu60 2.553042 1_555
Cu5 Sn0 2.615175 1_454
Cu5 Cu54 2.677182 1_555
Cu5 Cu55 2.698040 1_555
Cu5 Sn18 2.900991 1_455
Cu5 Sn20 2.900992 1_554
Cu5 Sn21 2.903307 1_554
Cu5 Sn17 2.903307 1_455
Cu6 Cu8 2.484917 1_555
Cu6 Cu7 2.484917 1_555
Cu6 Cu9 2.484917 1_555
Cu6 Cu67 2.538158 1_555
Cu6 Cu68 2.538158 1_555
Cu6 Cu66 2.538158 1_555
Cu7 Cu8 2.484728 1_555
Cu7 Cu9 2.484728 1_555
Cu7 Cu70 2.543474 1_555
Cu8 Cu9 2.484728 1_555
Cu10 Cu6 2.459781 1_555
Cu10 Cu62 2.513556 1_555
Cu10 Cu35 2.595968 1_555
Cu10 Cu32 2.617751 1_555
Cu10 Cu30 2.617751 1_555
Cu10 Cu68 2.704432 1_555
Cu10 Cu67 2.704432 1_555
Cu10 Sn5 2.785331 1_555
Cu10 Sn15 2.876353 1_555
Cu10 Sn14 2.876353 1_555
Cu10 Cu12 2.881866 1_555
Cu10 Cu11 2.881866 1_555
Cu11 Cu6 2.459781 1_555
Cu11 Cu62 2.513556 1_555
Cu11 Cu37 2.595967 1_555
Cu11 Cu25 2.617751 1_555
Cu11 Cu30 2.617751 1_555
Cu11 Cu68 2.704432 1_555
Cu11 Cu66 2.704432 1_555
Cu11 Sn3 2.785331 1_555
Cu11 Sn21 2.876353 1_555
Cu11 Sn19 2.876353 1_555
Cu11 Cu12 2.881866 1_555
Cu12 Cu6 2.459781 1_555
Cu12 Cu62 2.513556 1_555
Cu12 Cu36 2.595968 1_555
Cu12 Cu32 2.617751 1_555
Cu12 Cu25 2.617751 1_555
Cu12 Cu66 2.704432 1_555
Cu12 Cu67 2.704432 1_555
Cu12 Sn4 2.785331 1_555
Cu12 Sn16 2.876353 1_555
Cu12 Sn17 2.876353 1_555
Cu13 Cu7 2.463930 1_555
Cu13 Cu63 2.509446 1_545
Cu13 Cu34 2.582207 1_555
Cu13 Cu33 2.593484 1_555
Cu13 Cu29 2.593484 1_555
Cu13 Cu70 2.703958 1_555
Cu13 Cu69 2.703958 1_555
Cu13 Sn5 2.777522 1_545
Cu13 Sn11 2.881295 1_555
Cu13 Sn12 2.881295 1_555
Cu13 Cu14 2.895479 1_555
Cu13 Cu15 2.895480 1_555
Cu14 Cu7 2.458355 1_555
Cu14 Cu63 2.521315 1_545
Cu14 Cu36 2.574435 1_555
Cu14 Cu22 2.574475 1_555
Cu14 Cu33 2.592823 1_555
Cu14 Cu70 2.708114 1_555
Cu14 Cu66 2.713820 1_555
Cu14 Sn1 2.776249 1_545
Cu14 Sn18 2.876447 1_555
Cu14 Sn16 2.884305 1_555
Cu15 Cu7 2.458355 1_555
Cu15 Cu63 2.521315 1_545
Cu15 Cu37 2.574435 1_555
Cu15 Cu22 2.574475 1_555
Cu15 Cu29 2.592823 1_555
Cu15 Cu69 2.708114 1_555
Cu15 Cu66 2.713820 1_555
Cu15 Sn2 2.776249 1_545
Cu15 Sn20 2.876447 1_555
Cu15 Sn19 2.884305 1_555
Cu16 Cu8 2.458355 1_555
Cu16 Cu64 2.521315 1_455
Cu16 Cu37 2.574435 1_555
Cu16 Cu24 2.574475 1_555
Cu16 Cu26 2.592823 1_555
Cu16 Cu69 2.708114 1_555
Cu16 Cu68 2.713820 1_555
Cu16 Sn0 2.776249 1_455
Cu16 Sn20 2.876447 1_555
Cu16 Sn21 2.884305 1_555
Cu16 Cu18 2.895480 1_555
Cu17 Cu8 2.458355 1_555
Cu17 Cu64 2.521315 1_455
Cu17 Cu35 2.574435 1_555
Cu17 Cu24 2.574475 1_555
Cu17 Cu31 2.592823 1_555
Cu17 Cu71 2.708114 1_555
Cu17 Cu68 2.713820 1_555
Cu17 Sn1 2.776249 1_455
Cu17 Sn13 2.876447 1_555
Cu17 Sn15 2.884305 1_555
Cu17 Cu18 2.895479 1_555
Cu18 Cu8 2.463930 1_555
Cu18 Cu64 2.509446 1_455
Cu18 Cu34 2.582207 1_555
Cu18 Cu31 2.593484 1_555
Cu18 Cu26 2.593484 1_555
Cu18 Cu71 2.703958 1_555
Cu18 Cu69 2.703958 1_555
Cu18 Sn4 2.777522 1_455
Cu18 Sn11 2.881295 1_555
Cu18 Sn10 2.881295 1_555
Cu19 Cu9 2.458355 1_555
Cu19 Cu65 2.521316 1_554
Cu19 Cu36 2.574435 1_555
Cu19 Cu23 2.574475 1_555
Cu19 Cu27 2.592824 1_555
Cu19 Cu70 2.708113 1_555
Cu19 Cu67 2.713820 1_555
Cu19 Sn0 2.776250 1_554
Cu19 Sn18 2.876447 1_555
Cu19 Sn17 2.884305 1_555
Cu19 Cu20 2.895479 1_555
Cu20 Cu9 2.463930 1_555
Cu20 Cu65 2.509446 1_554
Cu20 Cu34 2.582207 1_555
Cu20 Cu27 2.593484 1_555
Cu20 Cu28 2.593484 1_555
Cu20 Cu70 2.703958 1_555
Cu20 Cu71 2.703958 1_555
Cu20 Sn3 2.777522 1_554
Cu20 Sn10 2.881295 1_555
Cu20 Sn12 2.881295 1_555
Cu20 Cu21 2.895479 1_555
Cu21 Cu9 2.458355 1_555
Cu21 Cu65 2.521316 1_554
Cu21 Cu35 2.574435 1_555
Cu21 Cu23 2.574475 1_555
Cu21 Cu28 2.592824 1_555
Cu21 Cu71 2.708113 1_555
Cu21 Cu67 2.713820 1_555
Cu21 Sn2 2.776250 1_554
Cu21 Sn13 2.876447 1_555
Cu21 Sn14 2.884305 1_555
Cu22 Cu77 2.559562 1_555
Cu22 Cu63 2.595889 1_545
Cu22 Sn6 2.703616 1_545
Cu22 Cu52 2.731091 1_655
Cu22 Cu50 2.731091 1_556
Cu22 Cu38 2.788191 1_545
Cu22 Cu66 2.838971 1_555
Cu22 Sn2 2.913814 1_545
Cu22 Sn1 2.913814 1_545
Cu23 Cu75 2.559562 1_555
Cu23 Cu65 2.595889 1_554
Cu23 Sn6 2.703615 1_554
Cu23 Cu45 2.731091 1_655
Cu23 Cu50 2.731091 1_565
Cu23 Cu38 2.788191 1_554
Cu23 Cu67 2.838972 1_555
Cu23 Sn2 2.913814 1_554
Cu23 Sn0 2.913814 1_554
Cu24 Cu76 2.559562 1_555
Cu24 Cu64 2.595889 1_455
Cu24 Sn6 2.703616 1_455
Cu24 Cu52 2.731091 1_565
Cu24 Cu45 2.731091 1_556
Cu24 Cu38 2.788191 1_455
Cu24 Cu68 2.838971 1_555
Cu24 Sn0 2.913814 1_455
Cu24 Sn1 2.913814 1_455
Cu25 Cu77 2.537547 1_555
Cu25 Cu62 2.607984 1_555
Cu25 Cu53 2.688324 1_655
Cu25 Cu49 2.688324 1_556
Cu25 Cu39 2.749673 1_555
Cu25 Sn7 2.769438 1_555
Cu25 Cu66 2.889270 1_555
Cu25 Sn4 2.902179 1_555
Cu25 Sn3 2.902179 1_555
Cu26 Cu73 2.539619 1_555
Cu26 Cu64 2.601165 1_455
Cu26 Cu53 2.723272 1_555
Cu26 Cu42 2.728688 1_556
Cu26 Sn7 2.737609 1_455
Cu26 Cu39 2.772308 1_455
Cu26 Cu69 2.850386 1_555
Cu26 Sn0 2.901788 1_455
Cu26 Sn4 2.916527 1_455
Cu27 Cu74 2.539619 1_555
Cu27 Cu65 2.601165 1_554
Cu27 Cu49 2.723272 1_555
Cu27 Cu42 2.728688 1_655
Cu27 Sn7 2.737609 1_554
Cu27 Cu39 2.772308 1_554
Cu27 Cu70 2.850386 1_555
Cu27 Sn0 2.901788 1_554
Cu27 Sn3 2.916527 1_554
Cu28 Cu72 2.539619 1_555
Cu28 Cu65 2.601165 1_554
Cu28 Cu46 2.723272 1_555
Cu28 Cu44 2.728688 1_565
Cu28 Sn8 2.737609 1_554
Cu28 Cu40 2.772308 1_554
Cu28 Cu71 2.850386 1_555
Cu28 Sn2 2.901788 1_554
Cu28 Sn3 2.916527 1_554
Cu29 Cu73 2.539619 1_555
Cu29 Cu63 2.601165 1_545
Cu29 Cu51 2.723272 1_555
Cu29 Cu44 2.728688 1_556
Cu29 Sn8 2.737609 1_545
Cu29 Cu40 2.772308 1_545
Cu29 Cu69 2.850386 1_555
Cu29 Sn2 2.901788 1_545
Cu29 Sn5 2.916527 1_545
Cu30 Cu76 2.537547 1_555
Cu30 Cu62 2.607984 1_555
Cu30 Cu51 2.688324 1_565
Cu30 Cu46 2.688324 1_556
Cu30 Cu40 2.749673 1_555
Cu30 Sn8 2.769438 1_555
Cu30 Cu68 2.889270 1_555
Cu30 Sn5 2.902179 1_555
Cu30 Sn3 2.902179 1_555
Cu31 Cu72 2.539619 1_555
Cu31 Cu64 2.601165 1_455
Cu31 Cu47 2.723273 1_555
Cu31 Cu43 2.728688 1_565
Cu31 Sn9 2.737609 1_455
Cu31 Cu41 2.772308 1_455
Cu31 Cu71 2.850386 1_555
Cu31 Sn1 2.901788 1_455
Cu31 Sn4 2.916526 1_455
Cu32 Cu75 2.537547 1_555
Cu32 Cu62 2.607984 1_555
Cu32 Cu47 2.688324 1_655
Cu32 Cu48 2.688324 1_565
Cu32 Cu41 2.749673 1_555
Cu32 Sn9 2.769438 1_555
Cu32 Cu67 2.889270 1_555
Cu32 Sn4 2.902179 1_555
Cu32 Sn5 2.902179 1_555
Cu33 Cu74 2.539619 1_555
Cu33 Cu63 2.601165 1_545
Cu33 Cu48 2.723273 1_555
Cu33 Cu43 2.728688 1_655
Cu33 Sn9 2.737609 1_545
Cu33 Cu41 2.772308 1_545
Cu33 Cu70 2.850386 1_555
Cu33 Sn1 2.901788 1_545
Cu33 Sn5 2.916526 1_545
Cu34 Cu9 2.544366 1_555
Cu34 Cu8 2.544366 1_555
Cu34 Cu7 2.544366 1_555
Cu34 Cu71 2.650998 1_555
Cu34 Cu70 2.650998 1_555
Cu34 Cu69 2.650999 1_555
Cu34 Sn11 2.699030 1_555
Cu34 Sn10 2.699030 1_555
Cu34 Sn12 2.699030 1_555
Cu35 Cu8 2.545516 1_555
Cu35 Cu9 2.545516 1_555
Cu35 Cu6 2.551377 1_555
Cu35 Cu71 2.661661 1_555
Cu35 Cu67 2.661936 1_555
Cu35 Cu68 2.661937 1_555
Cu35 Sn14 2.692922 1_555
Cu35 Sn15 2.692922 1_555
Cu35 Sn13 2.695675 1_555
Cu36 Cu7 2.545516 1_555
Cu36 Cu9 2.545516 1_555
Cu36 Cu6 2.551377 1_555
Cu36 Cu70 2.661661 1_555
Cu36 Cu67 2.661936 1_555
Cu36 Cu66 2.661937 1_555
Cu36 Sn17 2.692922 1_555
Cu36 Sn16 2.692922 1_555
Cu36 Sn18 2.695675 1_555
Cu37 Cu8 2.545516 1_555
Cu37 Cu7 2.545516 1_555
Cu37 Cu6 2.551377 1_555
Cu37 Cu69 2.661661 1_555
Cu37 Cu68 2.661936 1_555
Cu37 Cu66 2.661936 1_555
Cu37 Sn21 2.692922 1_555
Cu37 Sn19 2.692922 1_555
Cu37 Sn20 2.695675 1_555
Cu38 Cu65 2.588333 1_555
Cu38 Cu63 2.588333 1_555
Cu38 Cu64 2.588333 1_555
Cu38 Sn0 2.698185 1_555
Cu38 Sn2 2.698185 1_555
Cu38 Sn1 2.698185 1_555
Cu38 Cu39 2.764525 1_555
Cu38 Cu40 2.764525 1_555
Cu38 Cu41 2.764525 1_555
Cu39 Cu64 2.590921 1_555
Cu39 Cu65 2.590921 1_555
Cu39 Cu62 2.592412 1_555
Cu39 Sn3 2.696041 1_555
Cu39 Sn4 2.696041 1_555
Cu39 Sn0 2.698930 1_555
Cu39 Cu40 2.765899 1_555
Cu39 Cu41 2.765899 1_555
Cu40 Cu63 2.590921 1_555
Cu40 Cu65 2.590921 1_555
Cu40 Cu62 2.592412 1_555
Cu40 Sn3 2.696041 1_555
Cu40 Sn5 2.696041 1_555
Cu40 Sn2 2.698930 1_555
Cu40 Cu41 2.765899 1_555
Cu41 Cu63 2.590921 1_555
Cu41 Cu64 2.590921 1_555
Cu41 Cu62 2.592412 1_555
Cu41 Sn4 2.696041 1_555
Cu41 Sn5 2.696041 1_555
Cu41 Sn1 2.698930 1_555
Cu42 Sn7 2.571643 1_454
Cu42 Cu5 2.624572 1_555
Cu42 Cu54 2.644637 1_555
Cu42 Sn20 2.653321 1_554
Cu42 Sn18 2.653322 1_455
Cu42 Cu74 2.857607 1_455
Cu42 Cu73 2.857607 1_554
Cu42 Sn0 2.867383 1_454
Cu43 Sn9 2.571643 1_445
Cu43 Cu54 2.644637 1_555
Cu43 Sn18 2.653322 1_455
Cu43 Sn13 2.653322 1_545
Cu43 Cu74 2.857607 1_455
Cu43 Cu72 2.857607 1_545
Cu43 Sn1 2.867383 1_445
Cu44 Sn8 2.571643 1_544
Cu44 Cu54 2.644637 1_555
Cu44 Sn20 2.653321 1_554
Cu44 Sn13 2.653322 1_545
Cu44 Cu72 2.857607 1_545
Cu44 Cu73 2.857607 1_554
Cu44 Sn2 2.867383 1_544
Cu45 Sn6 2.601212 1_454
Cu45 Cu5 2.603506 1_555
Cu45 Cu78 2.606214 1_555
Cu45 Cu55 2.646235 1_555
Cu45 Sn21 2.669218 1_554
Cu45 Sn17 2.669219 1_455
Cu45 Sn0 2.851272 1_454
Cu45 Cu76 2.882797 1_554
Cu45 Cu75 2.882798 1_455
Cu46 Cu78 2.619432 1_555
Cu46 Sn8 2.621794 1_554
Cu46 Cu55 2.659946 1_555
Cu46 Sn21 2.677039 1_554
Cu46 Sn10 2.685357 1_555
Cu46 Sn3 2.845479 1_554
Cu46 Cu76 2.856116 1_554
Cu46 Cu72 2.879555 1_555
Cu47 Cu78 2.619432 1_555
Cu47 Sn9 2.621794 1_455
Cu47 Cu55 2.659946 1_555
Cu47 Sn17 2.677039 1_455
Cu47 Sn10 2.685357 1_555
Cu47 Sn4 2.845479 1_455
Cu47 Cu75 2.856116 1_455
Cu47 Cu72 2.879555 1_555
Cu48 Cu79 2.619432 1_555
Cu48 Sn9 2.621794 1_545
Cu48 Cu56 2.659946 1_555
Cu48 Sn14 2.677039 1_545
Cu48 Sn12 2.685357 1_555
Cu48 Sn5 2.845479 1_545
Cu48 Cu75 2.856116 1_545
Cu48 Cu74 2.879555 1_555
Cu49 Cu79 2.619432 1_555
Cu49 Sn7 2.621794 1_554
Cu49 Cu56 2.659946 1_555
Cu49 Sn19 2.677039 1_554
Cu49 Sn12 2.685357 1_555
Cu49 Sn3 2.845479 1_554
Cu49 Cu77 2.856116 1_554
Cu49 Cu74 2.879555 1_555
Cu50 Sn6 2.601212 1_544
Cu50 Cu79 2.606214 1_555
Cu50 Cu56 2.646235 1_555
Cu50 Sn19 2.669218 1_554
Cu50 Sn14 2.669219 1_545
Cu50 Sn2 2.851272 1_544
Cu50 Cu77 2.882797 1_554
Cu50 Cu75 2.882798 1_545
Cu51 Cu80 2.619432 1_555
Cu51 Sn8 2.621794 1_545
Cu51 Cu57 2.659946 1_555
Cu51 Sn15 2.677039 1_545
Cu51 Sn11 2.685357 1_555
Cu51 Sn5 2.845479 1_545
Cu51 Cu76 2.856116 1_545
Cu51 Cu73 2.879555 1_555
Cu52 Sn6 2.601212 1_445
Cu52 Cu80 2.606214 1_555
Cu52 Cu57 2.646235 1_555
Cu52 Sn15 2.669218 1_545
Cu52 Sn16 2.669218 1_455
Cu52 Sn1 2.851272 1_445
Cu52 Cu76 2.882798 1_545
Cu52 Cu77 2.882798 1_455
Cu53 Cu80 2.619432 1_555
Cu53 Sn7 2.621794 1_455
Cu53 Cu57 2.659946 1_555
Cu53 Sn16 2.677039 1_455
Cu53 Sn11 2.685357 1_555
Cu53 Sn4 2.845479 1_455
Cu53 Cu77 2.856116 1_455
Cu53 Cu73 2.879555 1_555
Cu54 Cu61 2.593323 1_555
Cu54 Cu59 2.593323 1_555
Cu54 Cu60 2.593323 1_555
Cu54 Sn13 2.644372 1_545
Cu54 Sn18 2.644372 1_455
Cu54 Sn20 2.644372 1_554
Cu55 Cu58 2.607534 1_555
Cu55 Cu60 2.612804 1_555
Cu55 Cu61 2.612804 1_555
Cu55 Sn10 2.645960 1_555
Cu55 Sn17 2.647208 1_455
Cu55 Sn21 2.647209 1_554
Cu56 Cu58 2.607534 1_555
Cu56 Cu59 2.612804 1_555
Cu56 Cu61 2.612804 1_555
Cu56 Sn12 2.645960 1_555
Cu56 Sn14 2.647208 1_545
Cu56 Sn19 2.647209 1_554
Cu57 Cu58 2.607534 1_555
Cu57 Cu60 2.612804 1_555
Cu57 Cu59 2.612804 1_555
Cu57 Sn11 2.645960 1_555
Cu57 Sn16 2.647208 1_455
Cu57 Sn15 2.647208 1_545
Cu58 Cu60 2.597819 1_555
Cu58 Cu59 2.597819 1_555
Cu58 Cu61 2.597819 1_555
Cu58 Sn12 2.830248 1_555
Cu58 Sn10 2.830248 1_555
Cu58 Sn11 2.830248 1_555
Cu59 Cu60 2.600070 1_555
Cu59 Cu61 2.600070 1_555
Cu59 Sn14 2.822490 1_545
Cu59 Sn15 2.822490 1_545
Cu59 Sn13 2.840149 1_545
Cu60 Cu61 2.600070 1_555
Cu60 Sn17 2.822490 1_455
Cu60 Sn16 2.822490 1_455
Cu60 Sn18 2.840149 1_455
Cu61 Sn19 2.822490 1_554
Cu61 Sn21 2.822490 1_554
Cu61 Sn20 2.840149 1_554
Cu62 Sn4 2.779346 1_555
Cu62 Sn5 2.779346 1_555
Cu62 Sn3 2.779346 1_555
Cu63 Sn1 2.779316 1_555
Cu63 Sn2 2.779317 1_555
Cu63 Sn5 2.780605 1_555
Cu64 Sn1 2.779316 1_555
Cu64 Sn0 2.779317 1_555
Cu64 Sn4 2.780605 1_555
Cu65 Sn2 2.779316 1_555
Cu65 Sn0 2.779316 1_555
Cu65 Sn3 2.780605 1_555
Cu66 Cu7 2.544310 1_555
Cu66 Sn16 2.563021 1_555
Cu66 Sn19 2.563021 1_555
Cu66 Cu77 2.684281 1_555
Cu67 Cu9 2.544309 1_555
Cu67 Sn14 2.563021 1_555
Cu67 Sn17 2.563021 1_555
Cu67 Cu75 2.684281 1_555
Cu68 Cu8 2.544310 1_555
Cu68 Sn15 2.563021 1_555
Cu68 Sn21 2.563021 1_555
Cu68 Cu76 2.684281 1_555
Cu69 Cu8 2.543474 1_555
Cu69 Cu7 2.543474 1_555
Cu69 Sn11 2.565568 1_555
Cu69 Sn20 2.569154 1_555
Cu69 Cu73 2.691289 1_555
Cu70 Cu9 2.543474 1_555
Cu70 Sn12 2.565568 1_555
Cu70 Sn18 2.569153 1_555
Cu70 Cu74 2.691289 1_555
Cu71 Cu9 2.543474 1_555
Cu71 Cu8 2.543474 1_555
Cu71 Sn10 2.565568 1_555
Cu71 Sn13 2.569153 1_555
Cu71 Cu72 2.691289 1_555
Cu72 Cu78 2.681342 1_555
Cu72 Sn9 2.722052 1_455
Cu72 Sn8 2.722052 1_554
Cu72 Sn13 2.800391 1_555
Cu72 Sn10 2.820470 1_555
Cu73 Cu80 2.681342 1_555
Cu73 Sn8 2.722052 1_545
Cu73 Sn7 2.722052 1_455
Cu73 Sn20 2.800391 1_555
Cu73 Sn11 2.820470 1_555
Cu74 Cu79 2.681342 1_555
Cu74 Sn9 2.722052 1_545
Cu74 Sn7 2.722052 1_554
Cu74 Sn18 2.800391 1_555
Cu74 Sn12 2.820470 1_555
Cu75 Cu78 2.633485 1_655
Cu75 Cu79 2.633485 1_565
Cu75 Sn6 2.795969 1_554
Cu75 Sn9 2.804483 1_555
Cu75 Sn17 2.808208 1_555
Cu75 Sn14 2.808208 1_555
Cu76 Cu80 2.633485 1_565
Cu76 Cu78 2.633485 1_556
Cu76 Sn6 2.795969 1_455
Cu76 Sn8 2.804483 1_555
Cu76 Sn21 2.808208 1_555
Cu76 Sn15 2.808208 1_555
Cu77 Cu80 2.633485 1_655
Cu77 Cu79 2.633485 1_556
Cu77 Sn6 2.795969 1_545
Cu77 Sn7 2.804483 1_555
Cu77 Sn19 2.808208 1_555
Cu77 Sn16 2.808208 1_555
Cu78 Sn8 2.678725 1_554
Cu78 Sn9 2.678725 1_455
Cu78 Sn6 2.721949 1_454
Cu78 Cu79 2.930797 1_465
Cu78 Cu80 2.930797 1_564
Cu79 Sn7 2.678725 1_554
Cu79 Sn9 2.678725 1_545
Cu79 Sn6 2.721949 1_544
Cu79 Cu80 2.930797 1_654
Cu80 Sn8 2.678725 1_545
Cu80 Sn7 2.678725 1_455
Cu80 Sn6 2.721949 1_445
