# generated using pymatgen
data_La2Al7Cu
_symmetry_space_group_name_H-M   'P 1'
_cell_length_a   4.32233120
_cell_length_b   4.32233120
_cell_length_c   10.87968146
_cell_angle_alpha   90.00000000
_cell_angle_beta   90.00000000
_cell_angle_gamma   90.00000000
_symmetry_Int_Tables_number   1
_chemical_formula_structural   La2Al7Cu
_chemical_formula_sum   'La2 Al7 Cu1'
_cell_volume   203.26016025
_cell_formula_units_Z   1
loop_
 _symmetry_equiv_pos_site_id
 _symmetry_equiv_pos_as_xyz
  1  'x, y, z'
loop_
 _atom_site_type_symbol
 _atom_site_label
 _atom_site_symmetry_multiplicity
 _atom_site_fract_x
 _atom_site_fract_y
 _atom_site_fract_z
 _atom_site_occupancy
  La  La0  1  0.00000000  0.00000000  0.99919772  1
  La  La1  1  0.50000000  0.50000000  0.49537925  1
  Al  Al0  1  0.00000000  0.50000000  0.23708932  1
  Al  Al1  1  0.50000000  0.00000000  0.75455254  1
  Al  Al2  1  0.50000000  0.00000000  0.23708932  1
  Al  Al3  1  0.00000000  0.50000000  0.75455254  1
  Al  Al4  1  0.00000000  0.00000000  0.61515095  1
  Al  Al5  1  -0.00000000  0.00000000  0.38071431  1
  Al  Al6  1  0.50000000  0.50000000  0.90191964  1
  Cu  Cu0  1  0.50000000  0.50000000  0.12435242  1
loop_
_geom_bond_atom_site_label_1
_geom_bond_atom_site_label_2
_geom_bond_distance
_geom_bond_site_symmetry_2
Al0 Cu0 2.484963 1_555
Al0 Cu0 2.484963 1_455
Al0 Al5 2.666897 1_565
Al0 Al5 2.666897 1_555
Al0 La0 3.371845 1_564
Al0 La0 3.371845 1_554
Al0 La1 3.545048 1_455
Al0 La1 3.545048 1_555
Al1 Al4 2.640236 1_655
Al1 Al4 2.640236 1_555
Al1 Al6 2.690953 1_545
Al1 Al6 2.690953 1_555
Al1 Al3 3.056350 1_555
Al1 Al3 3.056350 1_645
Al1 Al3 3.056350 1_545
Al1 Al3 3.056350 1_655
Al1 La0 3.428568 1_555
Al1 La0 3.428568 1_655
Al1 La1 3.552671 1_555
Al1 La1 3.552671 1_545
Al2 Cu0 2.484963 1_545
Al2 Cu0 2.484963 1_555
Al2 Al5 2.666897 1_555
Al2 Al5 2.666897 1_655
Al2 La0 3.371845 1_654
Al2 La0 3.371845 1_554
Al2 La1 3.545048 1_555
Al2 La1 3.545048 1_545
Al3 Al4 2.640236 1_565
Al3 Al4 2.640236 1_555
Al3 Al6 2.690953 1_555
Al3 Al6 2.690953 1_455
Al3 La0 3.428568 1_555
Al3 La0 3.428568 1_565
Al3 La1 3.552671 1_455
Al3 La1 3.552671 1_555
Al4 Al5 2.550596 1_555
Al4 La1 3.322542 1_455
Al4 La1 3.322542 1_555
Al4 La1 3.322542 1_545
Al4 La1 3.322542 1_445
Al5 La1 3.301147 1_445
Al5 La1 3.301147 1_455
Al5 La1 3.301147 1_555
Al5 La1 3.301147 1_545
Al6 Cu0 2.419998 1_556
Al6 La0 3.234407 1_565
Al6 La0 3.234407 1_655
Al6 La0 3.234407 1_665
Al6 La0 3.234407 1_555
Cu0 La0 3.345945 1_654
Cu0 La0 3.345945 1_554
Cu0 La0 3.345945 1_564
Cu0 La0 3.345945 1_664
