# generated using pymatgen
data_AlCuBr4
_symmetry_space_group_name_H-M   'P 1'
_cell_length_a   5.74471345
_cell_length_b   5.74471345
_cell_length_c   10.56516077
_cell_angle_alpha   90.00000000
_cell_angle_beta   90.00000000
_cell_angle_gamma   90.00000000
_symmetry_Int_Tables_number   1
_chemical_formula_structural   AlCuBr4
_chemical_formula_sum   'Al2 Cu2 Br8'
_cell_volume   348.66861085
_cell_formula_units_Z   2
loop_
 _symmetry_equiv_pos_site_id
 _symmetry_equiv_pos_as_xyz
  1  'x, y, z'
loop_
 _atom_site_type_symbol
 _atom_site_label
 _atom_site_symmetry_multiplicity
 _atom_site_fract_x
 _atom_site_fract_y
 _atom_site_fract_z
 _atom_site_occupancy
  Al  Al0  1  -0.00000000  0.50000000  0.75000000  1
  Al  Al1  1  0.50000000  -0.00000000  0.25000000  1
  Cu  Cu0  1  0.50000000  0.50000000  -0.00000000  1
  Cu  Cu1  1  0.50000000  0.50000000  0.50000000  1
  Br  Br0  1  0.23213304  0.73945751  0.87375470  1
  Br  Br1  1  0.76786696  0.26054249  0.87375470  1
  Br  Br2  1  0.23213304  0.26054249  0.62624530  1
  Br  Br3  1  0.76786696  0.73945751  0.62624530  1
  Br  Br4  1  0.73945751  0.76786696  0.12624530  1
  Br  Br5  1  0.26054249  0.23213304  0.12624530  1
  Br  Br6  1  0.26054249  0.76786696  0.37375470  1
  Br  Br7  1  0.73945751  0.23213304  0.37375470  1
loop_
_geom_bond_atom_site_label_1
_geom_bond_atom_site_label_2
_geom_bond_distance
_geom_bond_site_symmetry_2
Al0 Br1 2.319518 1_455
Al0 Br2 2.319518 1_555
Al0 Br0 2.319518 1_555
Al0 Br3 2.319518 1_455
Al1 Br5 2.319518 1_555
Al1 Br6 2.319518 1_545
Al1 Br4 2.319518 1_545
Al1 Br7 2.319518 1_555
Br0 Cu0 2.457500 1_556
Br1 Cu0 2.457500 1_556
Br2 Cu1 2.457500 1_555
Br3 Cu1 2.457500 1_555
Br4 Cu0 2.457500 1_555
Br5 Cu0 2.457500 1_555
Br6 Cu1 2.457500 1_555
Br7 Cu1 2.457500 1_555
