# generated using pymatgen
data_BaC2O5
_symmetry_space_group_name_H-M   'P 1'
_cell_length_a   6.66634148
_cell_length_b   6.66634148
_cell_length_c   6.98179993
_cell_angle_alpha   64.33269856
_cell_angle_beta   64.33269856
_cell_angle_gamma   75.57046635
_symmetry_Int_Tables_number   1
_chemical_formula_structural   BaC2O5
_chemical_formula_sum   'Ba2 C4 O10'
_cell_volume   251.33539354
_cell_formula_units_Z   2
loop_
 _symmetry_equiv_pos_site_id
 _symmetry_equiv_pos_as_xyz
  1  'x, y, z'
loop_
 _atom_site_type_symbol
 _atom_site_label
 _atom_site_symmetry_multiplicity
 _atom_site_fract_x
 _atom_site_fract_y
 _atom_site_fract_z
 _atom_site_occupancy
  Ba  Ba0  1  0.72185800  0.72185800  0.17915300  1
  Ba  Ba1  1  0.27814200  0.27814200  0.82084700  1
  C  C0  1  0.46234200  0.25359800  0.26224500  1
  C  C1  1  0.53765800  0.74640200  0.73775500  1
  C  C2  1  0.74640200  0.53765800  0.73775500  1
  C  C3  1  0.25359800  0.46234200  0.26224500  1
  O  O0  1  0.57224600  0.24456700  0.37164600  1
  O  O1  1  0.42775400  0.75543300  0.62835400  1
  O  O2  1  0.75543300  0.42775400  0.62835400  1
  O  O3  1  0.24456700  0.57224600  0.37164600  1
  O  O4  1  0.47885500  0.14438700  0.14860700  1
  O  O5  1  0.52114500  0.85561300  0.85139300  1
  O  O6  1  0.85561300  0.52114500  0.85139300  1
  O  O7  1  0.14438700  0.47885500  0.14860700  1
  O  O8  1  0.97799500  0.97799500  0.17716500  1
  O  O9  1  0.02200500  0.02200500  0.82283500  1
loop_
_geom_bond_atom_site_label_1
_geom_bond_atom_site_label_2
_geom_bond_distance
_geom_bond_site_symmetry_2
Ba0 O8 2.691331 1_555
Ba0 O9 2.750812 1_664
Ba0 O4 2.847534 1_565
Ba0 O7 2.847534 1_655
Ba0 O5 2.848191 1_554
Ba0 O6 2.848191 1_554
Ba0 O2 2.965243 1_555
Ba0 O1 2.965243 1_555
Ba0 O0 3.104943 1_555
Ba0 O3 3.104943 1_555
Ba1 O9 2.691331 1_555
Ba1 O8 2.750812 1_446
Ba1 O6 2.847534 1_455
Ba1 O5 2.847534 1_545
Ba1 O4 2.848191 1_556
Ba1 O7 2.848191 1_556
Ba1 O0 2.965243 1_555
Ba1 O3 2.965243 1_555
Ba1 O2 3.104943 1_555
Ba1 O1 3.104943 1_555
C0 O0 1.243703 1_555
C0 O4 1.247567 1_555
C1 O1 1.243703 1_555
C1 O5 1.247567 1_555
C2 O2 1.243703 1_555
C2 O6 1.247567 1_555
C3 O3 1.243703 1_555
C3 O7 1.247567 1_555
