# generated using pymatgen
data_AgH36C15S3N6Cl
_symmetry_space_group_name_H-M   'P 1'
_cell_length_a   13.71671511
_cell_length_b   13.93230910
_cell_length_c   16.87500526
_cell_angle_alpha   74.55404763
_cell_angle_beta   74.30108190
_cell_angle_gamma   63.07453318
_symmetry_Int_Tables_number   1
_chemical_formula_structural   AgH36C15S3N6Cl
_chemical_formula_sum   'Ag4 H144 C60 S12 N24 Cl4'
_cell_volume   2728.93341770
_cell_formula_units_Z   4
loop_
 _symmetry_equiv_pos_site_id
 _symmetry_equiv_pos_as_xyz
  1  'x, y, z'
loop_
 _atom_site_type_symbol
 _atom_site_label
 _atom_site_symmetry_multiplicity
 _atom_site_fract_x
 _atom_site_fract_y
 _atom_site_fract_z
 _atom_site_occupancy
  Ag  Ag0  1  0.32625714  0.30749967  0.54483384  1
  Ag  Ag1  1  0.67374286  0.69250033  0.45516616  1
  Ag  Ag2  1  0.32453045  0.84121084  0.97345785  1
  Ag  Ag3  1  0.67546955  0.15878916  0.02654215  1
  H  H0  1  0.50381402  0.18242614  0.41173618  1
  H  H1  1  0.49618598  0.81757386  0.58826382  1
  H  H2  1  0.49351949  0.12633779  0.28638312  1
  H  H3  1  0.50648051  0.87366221  0.71361688  1
  H  H4  1  0.70998378  0.92830371  0.47527170  1
  H  H5  1  0.29001622  0.07169629  0.52472830  1
  H  H6  1  0.87962890  0.91271503  0.55534666  1
  H  H7  1  0.12037110  0.08728497  0.44465334  1
  H  H8  1  0.19274975  0.36488394  0.42951256  1
  H  H9  1  0.80725025  0.63511606  0.57048744  1
  H  H10  1  0.13246012  0.32354861  0.28950362  1
  H  H11  1  0.86753988  0.67645139  0.71049638  1
  H  H12  1  0.91775998  0.39128817  0.48632182  1
  H  H13  1  0.08224002  0.60871183  0.51367818  1
  H  H14  1  0.83929238  0.23436300  0.55024088  1
  H  H15  1  0.16070762  0.76563700  0.44975912  1
  H  H16  1  0.36465218  0.49308196  0.42845863  1
  H  H17  1  0.63534782  0.50691804  0.57154137  1
  H  H18  1  0.49214340  0.50353380  0.29844041  1
  H  H19  1  0.50785660  0.49646620  0.70155959  1
  H  H20  1  0.38675845  0.69041215  0.50488109  1
  H  H21  1  0.61324155  0.30958785  0.49511891  1
  H  H22  1  0.21147385  0.84556176  0.59982244  1
  H  H23  1  0.78852615  0.15443824  0.40017756  1
  H  H24  1  0.44741388  0.82265213  0.10356392  1
  H  H25  1  0.55258612  0.17734787  0.89643608  1
  H  H26  1  0.61215943  0.71845013  0.23262318  1
  H  H27  1  0.38784057  0.28154987  0.76737682  1
  H  H28  1  0.67860199  0.89185206  0.03337663  1
  H  H29  1  0.32139801  0.10814794  0.96662337  1
  H  H30  1  0.87843120  0.76073285  0.94389347  1
  H  H31  1  0.12156880  0.23926715  0.05610653  1
  H  H32  1  0.13744046  0.96368554  0.08837021  1
  H  H33  1  0.86255954  0.03631446  0.91162979  1
  H  H34  1  0.02962764  0.91208927  0.21340616  1
  H  H35  1  0.97037236  0.08791073  0.78659384  1
  H  H36  1  0.91873567  0.19956499  0.01494481  1
  H  H37  1  0.08126433  0.80043501  0.98505519  1
  H  H38  1  0.95238610  0.39512825  0.92368216  1
  H  H39  1  0.04761390  0.60487175  0.07631784  1
  H  H40  1  0.34534898  0.64462686  0.07398797  1
  H  H41  1  0.65465102  0.35537314  0.92601203  1
  H  H42  1  0.22381734  0.52535556  0.20124393  1
  H  H43  1  0.77618266  0.47464444  0.79875607  1
  H  H44  1  0.36525686  0.41932218  0.00582352  1
  H  H45  1  0.63474314  0.58067782  0.99417648  1
  H  H46  1  0.16609177  0.45088762  0.94691111  1
  H  H47  1  0.83390823  0.54911238  0.05308889  1
  H  H48  1  0.71538412  0.01393403  0.35189066  1
  H  H49  1  0.28461588  0.98606597  0.64810934  1
  H  H50  1  0.61037194  0.96411807  0.37927891  1
  H  H51  1  0.38962806  0.03588193  0.62072109  1
  H  H52  1  0.59632925  0.17921948  0.26002269  1
  H  H53  1  0.40367075  0.82078052  0.73997731  1
  H  H54  1  0.62555519  0.05639525  0.22756833  1
  H  H55  1  0.37444481  0.94360475  0.77243167  1
  H  H56  1  0.63815160  0.96740435  0.64828313  1
  H  H57  1  0.36184840  0.03259565  0.35171687  1
  H  H58  1  0.72898219  0.84224185  0.61154938  1
  H  H59  1  0.27101781  0.15775815  0.38845062  1
  H  H60  1  0.78801130  0.03687975  0.59421029  1
  H  H61  1  0.21198870  0.96312025  0.40578971  1
  H  H62  1  0.83469831  0.91178418  0.66493129  1
  H  H63  1  0.16530169  0.08821582  0.33506871  1
  H  H64  1  0.96163874  0.49469297  0.39909141  1
  H  H65  1  0.03836126  0.50530703  0.60090859  1
  H  H66  1  0.08541179  0.49732555  0.33640686  1
  H  H67  1  0.91458821  0.50267445  0.66359314  1
  H  H68  1  0.00802742  0.31496878  0.35278979  1
  H  H69  1  0.99197258  0.68503122  0.64721021  1
  H  H70  1  0.99967268  0.42303352  0.26782570  1
  H  H71  1  0.00032732  0.57696648  0.73217430  1
  H  H72  1  0.95992985  0.27926142  0.65701408  1
  H  H73  1  0.04007015  0.72073858  0.34298592  1
  H  H74  1  0.82877772  0.37228027  0.62816004  1
  H  H75  1  0.17122228  0.62771973  0.37183996  1
  H  H76  1  0.96484138  0.13968116  0.58702481  1
  H  H77  1  0.03515862  0.86031884  0.41297519  1
  H  H78  1  0.83763472  0.18477364  0.65945797  1
  H  H79  1  0.16236528  0.81522636  0.34054203  1
  H  H80  1  0.37114323  0.70820372  0.38246755  1
  H  H81  1  0.62885677  0.29179628  0.61753245  1
  H  H82  1  0.50308136  0.60420609  0.39827876  1
  H  H83  1  0.49691864  0.39579391  0.60172124  1
  H  H84  1  0.36104221  0.61099231  0.28125042  1
  H  H85  1  0.63895779  0.38900769  0.71874958  1
  H  H86  1  0.48163416  0.63703238  0.24828331  1
  H  H87  1  0.51836584  0.36296762  0.75171669  1
  H  H88  1  0.30522799  0.60042037  0.67507912  1
  H  H89  1  0.69477201  0.39957963  0.32492088  1
  H  H90  1  0.38031002  0.68432739  0.64699952  1
  H  H91  1  0.61968998  0.31567261  0.35300048  1
  H  H92  1  0.13667077  0.76102504  0.63017906  1
  H  H93  1  0.86332923  0.23897496  0.36982094  1
  H  H94  1  0.18292866  0.78887473  0.70713473  1
  H  H95  1  0.81707134  0.21112527  0.29286527  1
  H  H96  1  0.55330797  0.95050125  0.12789876  1
  H  H97  1  0.44669203  0.04949875  0.87210124  1
  H  H98  1  0.46038842  0.90200617  0.20088633  1
  H  H99  1  0.53961158  0.09799383  0.79911367  1
  H  H100  1  0.71164239  0.75996570  0.15758126  1
  H  H101  1  0.28835761  0.24003430  0.84241874  1
  H  H102  1  0.64378194  0.82187368  0.24753555  1
  H  H103  1  0.35621806  0.17812632  0.75246445  1
  H  H104  1  0.66987077  0.89054505  0.86151104  1
  H  H105  1  0.33012923  0.10945495  0.13848896  1
  H  H106  1  0.73894164  0.95104160  0.89459064  1
  H  H107  1  0.26105836  0.04895840  0.10540936  1
  H  H108  1  0.81200796  0.70503984  0.90252087  1
  H  H109  1  0.18799204  0.29496016  0.09747913  1
  H  H110  1  0.88030951  0.78669731  0.83434084  1
  H  H111  1  0.11969049  0.21330269  0.16565916  1
  H  H112  1  0.94703932  0.15741822  0.13962226  1
  H  H113  1  0.05296068  0.84258178  0.86037774  1
  H  H114  1  0.90248615  0.06667072  0.11893650  1
  H  H115  1  0.09751385  0.93332928  0.88106350  1
  H  H116  1  0.06114639  0.00815317  0.24047431  1
  H  H117  1  0.93885361  0.99184683  0.75952569  1
  H  H118  1  0.92327343  0.01572674  0.26861289  1
  H  H119  1  0.07672657  0.98427326  0.73138711  1
  H  H120  1  0.04242492  0.18931972  0.84342433  1
  H  H121  1  0.95757508  0.81068028  0.15657567  1
  H  H122  1  0.89942925  0.26969986  0.87690905  1
  H  H123  1  0.10057075  0.73030014  0.12309095  1
  H  H124  1  0.09555109  0.31301231  0.89036625  1
  H  H125  1  0.90444891  0.68698769  0.10963375  1
  H  H126  1  0.00613783  0.38686174  0.81566727  1
  H  H127  1  0.99386217  0.61313826  0.18433273  1
  H  H128  1  0.44764460  0.40366410  0.09282458  1
  H  H129  1  0.55235540  0.59633590  0.90717542  1
  H  H130  1  0.42682812  0.48507720  0.16401721  1
  H  H131  1  0.57317188  0.51492280  0.83598279  1
  H  H132  1  0.24151951  0.43768723  0.13336800  1
  H  H133  1  0.75848049  0.56231277  0.86663200  1
  H  H134  1  0.30904628  0.38353758  0.22157881  1
  H  H135  1  0.69095372  0.61646242  0.77842119  1
  H  H136  1  0.33514879  0.54344834  0.83839390  1
  H  H137  1  0.66485121  0.45655166  0.16160610  1
  H  H138  1  0.36536607  0.40257212  0.87493977  1
  H  H139  1  0.63463393  0.59742788  0.12506023  1
  H  H140  1  0.13598258  0.59190466  0.90768935  1
  H  H141  1  0.86401742  0.40809534  0.09231065  1
  H  H142  1  0.17603810  0.49979268  0.83731547  1
  H  H143  1  0.82396190  0.50020732  0.16268453  1
  C  C0  1  0.62476253  0.03966103  0.35976650  1
  C  C1  1  0.37523747  0.96033897  0.64023350  1
  C  C2  1  0.58293172  0.10372403  0.27870111  1
  C  C3  1  0.41706828  0.89627597  0.72129889  1
  C  C4  1  0.70893645  0.93009129  0.60046628  1
  C  C5  1  0.29106355  0.06990871  0.39953372  1
  C  C6  1  0.80890995  0.94908387  0.60373285  1
  C  C7  1  0.19109005  0.05091613  0.39626715  1
  C  C8  1  0.04704408  0.44164003  0.37375548  1
  C  C9  1  0.95295592  0.55835997  0.62624452  1
  C  C10  1  0.04694319  0.37121347  0.31799024  1
  C  C11  1  0.95305681  0.62878653  0.68200976  1
  C  C12  1  0.90772840  0.30441266  0.60968010  1
  C  C13  1  0.09227160  0.69558734  0.39031990  1
  C  C14  1  0.88610411  0.20986785  0.60111527  1
  C  C15  1  0.11389589  0.79013215  0.39888473  1
  C  C16  1  0.42335123  0.62018107  0.38244892  1
  C  C17  1  0.57664877  0.37981893  0.61755108  1
  C  C18  1  0.44098593  0.59124171  0.29759868  1
  C  C19  1  0.55901407  0.40875829  0.70240132  1
  C  C20  1  0.31318488  0.67253182  0.63277157  1
  C  C21  1  0.68681512  0.32746818  0.36722843  1
  C  C22  1  0.20433328  0.77334063  0.64283971  1
  C  C23  1  0.79566672  0.22665937  0.35716029  1
  C  C24  1  0.53777701  0.87630718  0.15532579  1
  C  C25  1  0.46222299  0.12369282  0.84467421  1
  C  C26  1  0.63195044  0.78880581  0.20033058  1
  C  C27  1  0.36804956  0.21119419  0.79966942  1
  C  C28  1  0.72164106  0.87831215  0.90589646  1
  C  C29  1  0.27835894  0.12168785  0.09410354  1
  C  C30  1  0.82972654  0.77641753  0.89612561  1
  C  C31  1  0.17027346  0.22358247  0.10387439  1
  C  C32  1  0.97231037  0.07085121  0.13647788  1
  C  C33  1  0.02768963  0.92914879  0.86352212  1
  C  C34  1  0.99746092  0.99805707  0.21981703  1
  C  C35  1  0.00253908  0.00194293  0.78018297  1
  C  C36  1  0.98385932  0.24275765  0.88848423  1
  C  C37  1  0.01614068  0.75724235  0.11151577  1
  C  C38  1  0.01089608  0.34044503  0.87931691  1
  C  C39  1  0.98910392  0.65955497  0.12068309  1
  C  C40  1  0.38528178  0.47480438  0.12169158  1
  C  C41  1  0.61471822  0.52519562  0.87830842  1
  C  C42  1  0.28356927  0.45415146  0.17181215  1
  C  C43  1  0.71643073  0.54584854  0.82818785  1
  C  C44  1  0.31166024  0.48529899  0.88890350  1
  C  C45  1  0.68833976  0.51470101  0.11109650  1
  C  C46  1  0.18994599  0.50838662  0.89575457  1
  C  C47  1  0.81005401  0.49161338  0.10424543  1
  C  C48  1  0.59069869  0.07693356  0.50266705  1
  C  C49  1  0.40930131  0.92306644  0.49733295  1
  C  C50  1  0.07205123  0.33123828  0.51592495  1
  C  C51  1  0.92794877  0.66876172  0.48407505  1
  C  C52  1  0.33228936  0.56963988  0.52563418  1
  C  C53  1  0.66771064  0.43036012  0.47436582  1
  C  C54  1  0.57145172  0.83961770  0.01113093  1
  C  C55  1  0.42854828  0.16038230  0.98886907  1
  C  C56  1  0.07957815  0.08660152  0.99303539  1
  C  C57  1  0.92042185  0.91339848  0.00696461  1
  C  C58  1  0.33042039  0.58218775  0.98496135  1
  C  C59  1  0.66957961  0.41781225  0.01503865  1
  S  S0  1  0.52192484  0.16117477  0.57675931  1
  S  S1  1  0.47807516  0.83882523  0.42324069  1
  S  S2  1  0.15694710  0.25557325  0.58944669  1
  S  S3  1  0.84305290  0.74442675  0.41055331  1
  S  S4  1  0.26706216  0.49276871  0.59578288  1
  S  S5  1  0.73293784  0.50723129  0.40421712  1
  S  S6  1  0.53660049  0.79915802  0.93867844  1
  S  S7  1  0.46339951  0.20084198  0.06132156  1
  S  S8  1  0.19969051  0.04099619  0.92112878  1
  S  S9  1  0.80030949  0.95900381  0.07887122  1
  S  S10  1  0.28854942  0.70482533  0.91797033  1
  S  S11  1  0.71145058  0.29517467  0.08202967  1
  N  N0  1  0.56788055  0.10763156  0.42502579  1
  N  N1  1  0.43211945  0.89236844  0.57497421  1
  N  N2  1  0.67173739  0.97672879  0.52032923  1
  N  N3  1  0.32826261  0.02327121  0.47967077  1
  N  N4  1  0.11001478  0.37861397  0.44152908  1
  N  N5  1  0.88998522  0.62138603  0.55847092  1
  N  N6  1  0.96484181  0.34564161  0.53182230  1
  N  N7  1  0.03515819  0.65435839  0.46817770  1
  N  N8  1  0.36915463  0.55662401  0.44547437  1
  N  N9  1  0.63084537  0.44337599  0.55452563  1
  N  N10  1  0.34758470  0.64689080  0.54872780  1
  N  N11  1  0.65241530  0.35310920  0.45127220  1
  N  N12  1  0.51637337  0.84005140  0.09045156  1
  N  N13  1  0.48362663  0.15994860  0.90954844  1
  N  N14  1  0.65594968  0.87137711  0.98951807  1
  N  N15  1  0.34405032  0.12862289  0.01048193  1
  N  N16  1  0.07129465  0.03539974  0.07249281  1
  N  N17  1  0.92870535  0.96460026  0.92750719  1
  N  N18  1  0.99000821  0.17663686  0.97142275  1
  N  N19  1  0.00999179  0.82336314  0.02857725  1
  N  N20  1  0.35908084  0.57304032  0.05768021  1
  N  N21  1  0.64091916  0.42695968  0.94231979  1
  N  N22  1  0.33688152  0.49114362  0.96554819  1
  N  N23  1  0.66311848  0.50885638  0.03445181  1
  Cl  Cl0  1  0.36536006  0.35418580  0.37738234  1
  Cl  Cl1  1  0.63463994  0.64581420  0.62261766  1
  Cl  Cl2  1  0.28179189  0.80496487  0.14046208  1
  Cl  Cl3  1  0.71820811  0.19503513  0.85953792  1
loop_
_geom_bond_atom_site_label_1
_geom_bond_atom_site_label_2
_geom_bond_distance
_geom_bond_site_symmetry_2
Ag0 S2 2.601722 1_555
Ag0 S0 2.625228 1_555
Ag0 S4 2.639580 1_555
Ag0 Cl0 2.685579 1_555
Ag1 S3 2.601722 1_555
Ag1 S1 2.625228 1_555
Ag1 S5 2.639580 1_555
Ag1 Cl1 2.685579 1_555
Ag2 S8 2.579168 1_565
Ag2 S10 2.603481 1_555
Ag2 S6 2.620150 1_555
Ag2 Cl2 2.675239 1_556
Ag3 S9 2.579168 1_545
Ag3 S11 2.603481 1_555
Ag3 S7 2.620150 1_555
Ag3 Cl3 2.675239 1_554
H0 N0 1.030175 1_555
H1 N1 1.030175 1_555
H4 N2 1.022428 1_555
H5 N3 1.022428 1_555
H8 N4 1.032046 1_555
H9 N5 1.032046 1_555
H12 N6 1.023399 1_555
H13 N7 1.023399 1_555
H16 N8 1.031753 1_555
H17 N9 1.031753 1_555
H20 N10 1.022159 1_555
H21 N11 1.022159 1_555
H24 N12 1.033574 1_555
H25 N13 1.033574 1_555
H28 N14 1.021209 1_554
H29 N15 1.021209 1_556
H32 N16 1.030160 1_565
H33 N17 1.030160 1_545
H36 N18 1.025068 1_554
H37 N19 1.025068 1_556
H40 N20 1.026624 1_555
H41 N21 1.026624 1_555
H44 N22 1.021208 1_554
H45 N23 1.021208 1_556
C0 H50 1.106119 1_545
C0 H48 1.106220 1_555
C0 N0 1.462751 1_555
C1 H51 1.106119 1_565
C1 H49 1.106220 1_555
C1 N1 1.462751 1_555
C2 H54 1.096393 1_555
C2 H2 1.098177 1_555
C2 H52 1.098443 1_555
C3 H55 1.096393 1_555
C3 H3 1.098177 1_555
C3 H53 1.098443 1_555
C4 H56 1.098362 1_555
C4 H58 1.099879 1_555
C4 N2 1.454788 1_555
C5 H57 1.098362 1_555
C5 H59 1.099879 1_555
C5 N3 1.454788 1_555
C6 H60 1.098580 1_565
C6 H62 1.098657 1_555
C6 H6 1.100459 1_555
C7 H61 1.098580 1_545
C7 H63 1.098657 1_555
C7 H7 1.100459 1_555
C8 H66 1.098150 1_555
C8 H64 1.102077 1_455
C8 N4 1.462150 1_555
C9 H67 1.098150 1_555
C9 H65 1.102077 1_655
C9 N5 1.462150 1_555
C10 H70 1.098089 1_455
C10 H10 1.098838 1_555
C10 H68 1.099058 1_555
C11 H71 1.098089 1_655
C11 H11 1.098838 1_555
C11 H69 1.099058 1_555
C12 H72 1.098498 1_555
C12 H74 1.100460 1_555
C12 N6 1.455482 1_555
C13 H73 1.098498 1_555
C13 H75 1.100460 1_555
C13 N7 1.455482 1_555
C14 H78 1.098406 1_555
C14 H76 1.098904 1_555
C14 H14 1.099814 1_555
C15 H79 1.098406 1_555
C15 H77 1.098904 1_555
C15 H15 1.099814 1_555
C16 H80 1.105214 1_555
C16 H82 1.105855 1_555
C16 N8 1.461013 1_555
C17 H81 1.105214 1_555
C17 H83 1.105855 1_555
C17 N9 1.461013 1_555
C18 H86 1.094844 1_555
C18 H84 1.097397 1_555
C18 H18 1.097902 1_555
C19 H87 1.094844 1_555
C19 H85 1.097397 1_555
C19 H19 1.097902 1_555
C20 H88 1.098216 1_555
C20 H90 1.100045 1_555
C20 N10 1.454898 1_555
C21 H89 1.098216 1_555
C21 H91 1.100045 1_555
C21 N11 1.454898 1_555
C22 H94 1.097890 1_555
C22 H92 1.098876 1_555
C22 H22 1.100325 1_555
C23 H95 1.097890 1_555
C23 H93 1.098876 1_555
C23 H23 1.100325 1_555
C24 H98 1.098578 1_555
C24 H96 1.104248 1_555
C24 N12 1.463772 1_555
C25 H99 1.098578 1_555
C25 H97 1.104248 1_555
C25 N13 1.463772 1_555
C26 H102 1.098316 1_555
C26 H100 1.098464 1_555
C26 H26 1.099041 1_555
C27 H103 1.098316 1_555
C27 H101 1.098464 1_555
C27 H27 1.099041 1_555
C28 H104 1.097521 1_555
C28 H106 1.099895 1_555
C28 N14 1.459670 1_555
C29 H105 1.097521 1_555
C29 H107 1.099895 1_555
C29 N15 1.459670 1_555
C30 H108 1.098722 1_555
C30 H110 1.099066 1_555
C30 H30 1.099646 1_555
C31 H109 1.098722 1_555
C31 H111 1.099066 1_555
C31 H31 1.099646 1_555
C32 H114 1.105190 1_555
C32 H112 1.105939 1_555
C32 N16 1.461723 1_655
C33 H115 1.105190 1_555
C33 H113 1.105939 1_555
C33 N17 1.461723 1_455
C34 H118 1.096269 1_565
C34 H34 1.097959 1_655
C34 H116 1.098452 1_665
C35 H119 1.096269 1_545
C35 H35 1.097959 1_455
C35 H117 1.098452 1_445
C36 H120 1.098699 1_655
C36 H122 1.099963 1_555
C36 N18 1.456483 1_555
C37 H121 1.098699 1_455
C37 H123 1.099963 1_555
C37 N19 1.456483 1_555
C38 H126 1.098116 1_555
C38 H124 1.098396 1_555
C38 H38 1.099973 1_455
C39 H127 1.098116 1_555
C39 H125 1.098396 1_555
C39 H39 1.099973 1_655
C40 H130 1.097263 1_555
C40 H128 1.102370 1_555
C40 N20 1.465029 1_555
C41 H131 1.097263 1_555
C41 H129 1.102370 1_555
C41 N21 1.465029 1_555
C42 H134 1.096657 1_555
C42 H132 1.098979 1_555
C42 H42 1.099246 1_555
C43 H135 1.096657 1_555
C43 H133 1.098979 1_555
C43 H43 1.099246 1_555
C44 H136 1.098462 1_555
C44 H138 1.099271 1_555
C44 N22 1.457018 1_555
C45 H137 1.098462 1_555
C45 H139 1.099271 1_555
C45 N23 1.457018 1_555
C46 H140 1.098422 1_555
C46 H142 1.099378 1_555
C46 H46 1.100096 1_555
C47 H141 1.098422 1_555
C47 H143 1.099378 1_555
C47 H47 1.100096 1_555
C48 N0 1.341530 1_555
C48 N2 1.351181 1_545
C48 S0 1.723750 1_555
C49 N1 1.341530 1_555
C49 N3 1.351181 1_565
C49 S1 1.723750 1_555
C50 N4 1.341289 1_555
C50 N6 1.350077 1_455
C50 S2 1.726280 1_555
C51 N5 1.341289 1_555
C51 N7 1.350077 1_655
C51 S3 1.726280 1_555
C52 N8 1.340083 1_555
C52 N10 1.351458 1_555
C52 S4 1.722838 1_555
C53 N9 1.340083 1_555
C53 N11 1.351458 1_555
C53 S5 1.722838 1_555
C54 N12 1.347369 1_555
C54 N14 1.349785 1_554
C54 S6 1.722955 1_554
C55 N13 1.347369 1_555
C55 N15 1.349785 1_556
C55 S7 1.722955 1_556
C56 N16 1.342060 1_556
C56 N18 1.348716 1_455
C56 S8 1.723731 1_555
C57 N17 1.342060 1_554
C57 N19 1.348716 1_655
C57 S9 1.723731 1_555
C58 N20 1.345002 1_556
C58 N22 1.352025 1_555
C58 S10 1.720751 1_555
C59 N21 1.345002 1_554
C59 N23 1.352025 1_555
C59 S11 1.720751 1_555
