# generated using pymatgen
data_Li5Co3O8
_symmetry_space_group_name_H-M   'P 1'
_cell_length_a   5.85344789
_cell_length_b   5.85344789
_cell_length_c   4.97898286
_cell_angle_alpha   73.23112607
_cell_angle_beta   73.23112607
_cell_angle_gamma   59.63634327
_symmetry_Int_Tables_number   1
_chemical_formula_structural   Li5Co3O8
_chemical_formula_sum   'Li5 Co3 O8'
_cell_volume   138.81770884
_cell_formula_units_Z   1
loop_
 _symmetry_equiv_pos_site_id
 _symmetry_equiv_pos_as_xyz
  1  'x, y, z'
loop_
 _atom_site_type_symbol
 _atom_site_label
 _atom_site_symmetry_multiplicity
 _atom_site_fract_x
 _atom_site_fract_y
 _atom_site_fract_z
 _atom_site_occupancy
  Li  Li0  1  0.50000000  0.00000000  0.00000000  1
  Li  Li1  1  0.00000000  0.50000000  0.00000000  1
  Li  Li2  1  0.74865600  0.74865600  0.50238900  1
  Li  Li3  1  0.25134400  0.25134400  0.49761100  1
  Li  Li4  1  0.50000000  0.50000000  0.00000000  1
  Co  Co0  1  0.00000000  0.00000000  0.00000000  1
  Co  Co1  1  0.25728700  0.74271300  0.50000000  1
  Co  Co2  1  0.74271300  0.25728700  0.50000000  1
  O  O0  1  0.33755900  0.88130700  0.75634000  1
  O  O1  1  0.88130700  0.33755900  0.75634000  1
  O  O2  1  0.61743200  0.61743200  0.27596200  1
  O  O3  1  0.11209700  0.11209700  0.24331500  1
  O  O4  1  0.66244100  0.11869300  0.24366000  1
  O  O5  1  0.11869300  0.66244100  0.24366000  1
  O  O6  1  0.88790300  0.88790300  0.75668500  1
  O  O7  1  0.38256800  0.38256800  0.72403800  1
loop_
_geom_bond_atom_site_label_1
_geom_bond_atom_site_label_2
_geom_bond_distance
_geom_bond_site_symmetry_2
Li0 O6 2.102125 1_544
Li0 O3 2.102125 1_555
Li0 O7 2.142061 1_554
Li0 O2 2.142061 1_545
Li0 O4 2.162968 1_555
Li0 O0 2.162968 1_544
Li1 O6 2.102125 1_454
Li1 O3 2.102125 1_555
Li1 O7 2.142061 1_554
Li1 O2 2.142061 1_455
Li1 O5 2.162968 1_555
Li1 O1 2.162968 1_454
Li2 O2 2.011664 1_555
Li2 O4 2.065354 1_565
Li2 O5 2.065354 1_655
Li2 O6 2.189612 1_555
Li2 O0 2.216756 1_555
Li2 O1 2.216756 1_555
Li3 O7 2.011664 1_555
Li3 O1 2.065354 1_455
Li3 O0 2.065354 1_545
Li3 O3 2.189612 1_555
Li3 O5 2.216756 1_555
Li3 O4 2.216756 1_555
Li4 O0 2.077305 1_554
Li4 O1 2.077305 1_554
Li4 O5 2.077305 1_555
Li4 O4 2.077305 1_555
Li4 O2 2.097745 1_555
Li4 O7 2.097745 1_554
Co0 O1 1.890491 1_454
Co0 O0 1.890491 1_544
Co0 O5 1.890491 1_545
Co0 O4 1.890491 1_455
Co0 O3 1.918680 1_555
Co0 O6 1.918680 1_444
Co1 O2 1.943798 1_555
Co1 O7 1.943798 1_555
Co1 O0 1.958760 1_555
Co1 O5 1.958760 1_555
Co1 O6 2.050641 1_455
Co1 O3 2.050641 1_565
Co2 O2 1.943798 1_555
Co2 O7 1.943798 1_555
Co2 O1 1.958760 1_555
Co2 O4 1.958760 1_555
Co2 O6 2.050641 1_545
Co2 O3 2.050641 1_655
