# generated using pymatgen
data_CaAl2H4Pb2(O2F3)2
_symmetry_space_group_name_H-M   'P 1'
_cell_length_a   8.15044225
_cell_length_b   7.76301183
_cell_length_c   4.98399368
_cell_angle_alpha   91.39599770
_cell_angle_beta   102.35898993
_cell_angle_gamma   118.48328779
_symmetry_Int_Tables_number   1
_chemical_formula_structural   CaAl2H4Pb2(O2F3)2
_chemical_formula_sum   'Ca1 Al2 H4 Pb2 O4 F6'
_cell_volume   267.80113197
_cell_formula_units_Z   1
loop_
 _symmetry_equiv_pos_site_id
 _symmetry_equiv_pos_as_xyz
  1  'x, y, z'
loop_
 _atom_site_type_symbol
 _atom_site_label
 _atom_site_symmetry_multiplicity
 _atom_site_fract_x
 _atom_site_fract_y
 _atom_site_fract_z
 _atom_site_occupancy
  Ca  Ca0  1  0.52571900  0.89288000  0.67381400  1
  Al  Al0  1  0.17568500  0.67673600  0.11900500  1
  Al  Al1  1  0.82722200  0.32424400  0.79432500  1
  H  H0  1  0.15411200  0.49895300  0.67017400  1
  H  H1  1  0.86494200  0.46790300  0.29733000  1
  H  H2  1  0.06295900  0.85063300  0.73525600  1
  H  H3  1  0.82350500  0.13862800  0.18868200  1
  Pb  Pb0  1  0.79673000  0.75510100  0.12438500  1
  Pb  Pb1  1  0.18648300  0.15147600  0.24833000  1
  O  O0  1  0.09523600  0.47767600  0.82716600  1
  O  O1  1  0.91243900  0.51007200  0.12815400  1
  O  O2  1  0.08730000  0.85082600  0.93711000  1
  O  O3  1  0.85538000  0.12566300  0.01079500  1
  F  F0  1  0.24672100  0.86045500  0.42603900  1
  F  F1  1  0.76610800  0.13683600  0.49773700  1
  F  F2  1  0.27463600  0.56367600  0.39534900  1
  F  F3  1  0.77823000  0.47580700  0.55419200  1
  F  F4  1  0.41854300  0.81443900  0.06820500  1
  F  F5  1  0.57513300  0.19651500  0.80395100  1
loop_
_geom_bond_atom_site_label_1
_geom_bond_atom_site_label_2
_geom_bond_distance
_geom_bond_site_symmetry_2
Ca0 F0 2.235188 1_555
Ca0 F5 2.246582 1_565
Ca0 F4 2.298609 1_556
Ca0 F1 2.339522 1_565
Ca0 F2 2.503661 1_555
Ca0 O3 2.568057 1_566
Al0 F4 1.826027 1_555
Al0 F0 1.854124 1_555
Al0 O0 1.857235 1_554
Al0 F2 1.891102 1_555
Al0 O1 1.917428 1_455
Al0 O2 1.968750 1_554
Al1 F3 1.813376 1_555
Al1 F5 1.818889 1_555
Al1 F1 1.854343 1_555
Al1 O0 1.890242 1_655
Al1 O1 1.940205 1_556
Al1 O3 1.976272 1_556
H0 O0 0.980409 1_555
H1 O1 1.000134 1_555
H2 O2 0.982690 1_555
H3 O3 0.991389 1_555
O1 Pb0 2.492620 1_555
O2 Pb1 2.448274 1_566
O2 Pb0 2.516661 1_456
O3 Pb1 2.613307 1_655
F0 Pb1 2.664357 1_565
F3 H1 1.602185 1_555
