# generated using pymatgen
data_Ca3SnS5
_symmetry_space_group_name_H-M   'P 1'
_cell_length_a   9.02040039
_cell_length_b   9.02040100
_cell_length_c   11.78356955
_cell_angle_alpha   67.49566768
_cell_angle_beta   67.49566886
_cell_angle_gamma   60.00000142
_symmetry_Int_Tables_number   1
_chemical_formula_structural   Ca3SnS5
_chemical_formula_sum   'Ca9 Sn3 S15'
_cell_volume   744.84712451
_cell_formula_units_Z   3
loop_
 _symmetry_equiv_pos_site_id
 _symmetry_equiv_pos_as_xyz
  1  'x, y, z'
loop_
 _atom_site_type_symbol
 _atom_site_label
 _atom_site_symmetry_multiplicity
 _atom_site_fract_x
 _atom_site_fract_y
 _atom_site_fract_z
 _atom_site_occupancy
  Ca  Ca0  1  0.50499400  0.99386500  0.99614700  1
  Ca  Ca1  1  0.99386500  0.50499400  0.99614700  1
  Ca  Ca2  1  0.50499400  0.50499400  0.99614700  1
  Ca  Ca3  1  0.30120800  0.73341800  0.66416600  1
  Ca  Ca4  1  0.73341800  0.30120800  0.66416600  1
  Ca  Ca5  1  0.30120800  0.30120800  0.66416600  1
  Ca  Ca6  1  0.70165200  0.27106000  0.32563600  1
  Ca  Ca7  1  0.27106000  0.70165200  0.32563600  1
  Ca  Ca8  1  0.70165200  0.70165200  0.32563600  1
  Sn  Sn0  1  0.00792500  0.00792500  0.97622400  1
  Sn  Sn1  1  0.22281400  0.22281400  0.33155900  1
  Sn  Sn2  1  0.78838900  0.78838900  0.63483400  1
  S  S0  1  0.08466900  0.08466900  0.74599300  1
  S  S1  1  0.29805100  0.29805100  0.10584700  1
  S  S2  1  0.86515800  0.86515800  0.40452600  1
  S  S3  1  0.38842200  0.38842200  0.83473500  1
  S  S4  1  0.50048400  0.50048400  0.49854700  1
  S  S5  1  0.61623500  0.61623500  0.15129400  1
  S  S6  1  0.83600600  0.26911400  0.05887300  1
  S  S7  1  0.26911400  0.83600600  0.05887300  1
  S  S8  1  0.83600600  0.83600600  0.05887300  1
  S  S9  1  0.34236800  0.90864500  0.40661800  1
  S  S10  1  0.90864500  0.34236800  0.40661800  1
  S  S11  1  0.34236800  0.34236800  0.40661800  1
  S  S12  1  0.61648600  0.03832300  0.72870600  1
  S  S13  1  0.03832300  0.61648600  0.72870600  1
  S  S14  1  0.61648600  0.61648600  0.72870600  1
loop_
_geom_bond_atom_site_label_1
_geom_bond_atom_site_label_2
_geom_bond_distance
_geom_bond_site_symmetry_2
Ca0 S12 2.848390 1_565
Ca0 S8 2.849799 1_556
Ca0 S7 2.849807 1_556
Ca0 S1 2.903517 1_566
Ca0 S5 3.028460 1_556
Ca0 S3 3.161780 1_565
Ca1 S13 2.848390 1_655
Ca1 S8 2.849799 1_556
Ca1 S6 2.849807 1_556
Ca1 S1 2.903517 1_656
Ca1 S5 3.028460 1_556
Ca1 S3 3.161780 1_655
Ca2 S14 2.848391 1_555
Ca2 S6 2.849800 1_556
Ca2 S7 2.849800 1_556
Ca2 S1 2.903517 1_556
Ca2 S5 3.028453 1_556
Ca2 S3 3.161773 1_555
Ca3 S13 2.796558 1_555
Ca3 S14 2.796567 1_555
Ca3 S9 2.810454 1_555
Ca3 S4 2.851555 1_555
Ca3 S3 2.883969 1_555
Ca3 S0 3.080912 1_565
Ca4 S12 2.796559 1_555
Ca4 S14 2.796567 1_555
Ca4 S10 2.810454 1_555
Ca4 S4 2.851555 1_555
Ca4 S3 2.883969 1_555
Ca4 S0 3.080912 1_655
Ca5 S12 2.796565 1_555
Ca5 S13 2.796565 1_555
Ca5 S11 2.810456 1_555
Ca5 S4 2.851549 1_555
Ca5 S3 2.883975 1_555
Ca5 S0 3.080912 1_555
Ca6 S10 2.800973 1_555
Ca6 S11 2.800982 1_555
Ca6 S4 2.892973 1_555
Ca6 S5 2.902553 1_555
Ca6 S6 2.907725 1_555
Ca6 S2 3.080452 1_545
Ca7 S9 2.800973 1_555
Ca7 S11 2.800982 1_555
Ca7 S4 2.892973 1_555
Ca7 S5 2.902553 1_555
Ca7 S7 2.907725 1_555
Ca7 S2 3.080452 1_455
Ca8 S9 2.800980 1_555
Ca8 S10 2.800980 1_555
Ca8 S4 2.892979 1_555
Ca8 S5 2.902559 1_555
Ca8 S8 2.907723 1_555
Ca8 S2 3.080452 1_555
S0 Sn0 2.433597 1_555
S1 Sn1 2.385830 1_555
S2 Sn2 2.434411 1_555
S6 Sn0 2.418869 1_654
S7 Sn0 2.418869 1_564
S8 Sn0 2.418869 1_664
S9 Sn1 2.394090 1_565
S10 Sn1 2.394090 1_655
S11 Sn1 2.394076 1_555
S12 Sn2 2.410585 1_545
S13 Sn2 2.410585 1_455
S14 Sn2 2.410585 1_555
