# generated using pymatgen
data_CaU2(PO9)2
_symmetry_space_group_name_H-M   'P 1'
_cell_length_a   6.96521700
_cell_length_b   7.02088600
_cell_length_c   8.19392100
_cell_angle_alpha   90.00000000
_cell_angle_beta   90.00000000
_cell_angle_gamma   90.00000000
_symmetry_Int_Tables_number   1
_chemical_formula_structural   CaU2(PO9)2
_chemical_formula_sum   'Ca1 U2 P2 O18'
_cell_volume   400.69907986
_cell_formula_units_Z   1
loop_
 _symmetry_equiv_pos_site_id
 _symmetry_equiv_pos_as_xyz
  1  'x, y, z'
loop_
 _atom_site_type_symbol
 _atom_site_label
 _atom_site_symmetry_multiplicity
 _atom_site_fract_x
 _atom_site_fract_y
 _atom_site_fract_z
 _atom_site_occupancy
  Ca  Ca0  1  0.75000000  0.75000000  0.38027500  1
  U  U0  1  0.75000000  0.75000000  0.88046700  1
  U  U1  1  0.25000000  0.25000000  0.10440100  1
  P  P0  1  0.75000000  0.25000000  0.99255900  1
  P  P1  1  0.25000000  0.75000000  0.99762600  1
  O  O0  1  0.06736300  0.75000000  0.88671700  1
  O  O1  1  0.43263700  0.75000000  0.88671700  1
  O  O2  1  0.75000000  0.06831100  0.88303800  1
  O  O3  1  0.75000000  0.43168900  0.88303800  1
  O  O4  1  0.92647300  0.25000000  0.10622200  1
  O  O5  1  0.57352700  0.25000000  0.10622200  1
  O  O6  1  0.25000000  0.92668000  0.10890100  1
  O  O7  1  0.25000000  0.57332000  0.10890100  1
  O  O8  1  0.75000000  0.75000000  0.64694400  1
  O  O9  1  0.25000000  0.25000000  0.32811900  1
  O  O10  1  0.75000000  0.75000000  0.11329100  1
  O  O11  1  0.25000000  0.25000000  0.88381800  1
  O  O12  1  0.34596000  0.75000000  0.48568200  1
  O  O13  1  0.15404000  0.75000000  0.48568200  1
  O  O14  1  0.75000000  0.33711800  0.43612300  1
  O  O15  1  0.75000000  0.16288200  0.43612300  1
  O  O16  1  0.25000000  0.52122100  0.53156900  1
  O  O17  1  0.25000000  0.97877900  0.53156900  1
loop_
_geom_bond_atom_site_label_1
_geom_bond_atom_site_label_2
_geom_bond_distance
_geom_bond_site_symmetry_2
Ca0 O8 2.185065 1_555
Ca0 O10 2.187646 1_555
Ca0 O15 2.934695 1_565
Ca0 O14 2.934695 1_555
Ca0 O13 2.943780 1_655
Ca0 O12 2.943780 1_555
O0 P1 1.563373 1_555
O0 U0 2.211095 1_455
O1 P1 1.563373 1_555
O1 U0 2.211095 1_555
O2 P0 1.559660 1_555
O2 U0 2.234925 1_545
O3 P0 1.559660 1_555
O3 U0 2.234925 1_555
O4 P0 1.542164 1_554
O4 U1 2.253485 1_655
O5 P0 1.542164 1_554
O5 U1 2.253485 1_555
O6 P1 1.539499 1_554
O6 U1 2.270292 1_565
O7 P1 1.539499 1_554
O7 U1 2.270292 1_555
O8 U0 1.913469 1_555
O9 U1 1.833128 1_555
O10 U0 1.907741 1_554
O11 U1 1.807440 1_556
O12 O13 1.336764 1_555
O12 O16 1.779912 1_555
O12 O17 1.779912 1_555
O13 O16 1.779912 1_555
O13 O17 1.779912 1_555
O14 O15 1.223291 1_555
