# generated using pymatgen
data_NaMg3Si4O11F
_symmetry_space_group_name_H-M   'P 1'
_cell_length_a   8.28628400
_cell_length_b   10.03668910
_cell_length_c   11.69666578
_cell_angle_alpha   87.10398620
_cell_angle_beta   78.33206466
_cell_angle_gamma   82.26521441
_symmetry_Int_Tables_number   1
_chemical_formula_structural   NaMg3Si4O11F
_chemical_formula_sum   'Na4 Mg12 Si16 O44 F4'
_cell_volume   943.73365578
_cell_formula_units_Z   4
loop_
 _symmetry_equiv_pos_site_id
 _symmetry_equiv_pos_as_xyz
  1  'x, y, z'
loop_
 _atom_site_type_symbol
 _atom_site_label
 _atom_site_symmetry_multiplicity
 _atom_site_fract_x
 _atom_site_fract_y
 _atom_site_fract_z
 _atom_site_occupancy
  Na  Na0  1  0.74983000  0.27012200  0.20354400  1
  Na  Na1  1  0.47680100  0.22304900  0.55631700  1
  Na  Na2  1  0.25017000  0.72987800  0.79645600  1
  Na  Na3  1  0.52319900  0.77695100  0.44368300  1
  Mg  Mg0  1  0.89600400  0.73896600  0.73909300  1
  Mg  Mg1  1  0.07385800  0.77638100  0.04125300  1
  Mg  Mg2  1  0.42982500  0.88474200  0.11760000  1
  Mg  Mg3  1  0.10399600  0.26103400  0.26090700  1
  Mg  Mg4  1  0.80339700  0.01919200  0.47418500  1
  Mg  Mg5  1  0.19660300  0.98080800  0.52581500  1
  Mg  Mg6  1  0.57017500  0.11525800  0.88240000  1
  Mg  Mg7  1  0.92614200  0.22361900  0.95874700  1
  Mg  Mg8  1  0.84240600  0.29466400  0.70780600  1
  Mg  Mg9  1  0.42475900  0.32111600  0.05379000  1
  Mg  Mg10  1  0.57524100  0.67888400  0.94621000  1
  Mg  Mg11  1  0.15759400  0.70533600  0.29219400  1
  Si  Si0  1  0.20439900  0.07963700  0.02234600  1
  Si  Si1  1  0.51880800  0.95432800  0.69702800  1
  Si  Si2  1  0.86362000  0.02962700  0.68337200  1
  Si  Si3  1  0.20778500  0.10705900  0.74914600  1
  Si  Si4  1  0.79221500  0.89294100  0.25085400  1
  Si  Si5  1  0.13638000  0.97037300  0.31662800  1
  Si  Si6  1  0.76636400  0.53580000  0.57039600  1
  Si  Si7  1  0.48119200  0.04567200  0.30297200  1
  Si  Si8  1  0.03129900  0.48054800  0.10869200  1
  Si  Si9  1  0.79560100  0.92036300  0.97765400  1
  Si  Si10  1  0.48997600  0.56220300  0.20405900  1
  Si  Si11  1  0.81601300  0.58875300  0.29624100  1
  Si  Si12  1  0.18398700  0.41124700  0.70375900  1
  Si  Si13  1  0.51002400  0.43779700  0.79594100  1
  Si  Si14  1  0.96870100  0.51945200  0.89130800  1
  Si  Si15  1  0.23363600  0.46420000  0.42960400  1
  O  O0  1  0.79243100  0.66862500  0.62328200  1
  O  O1  1  0.14689500  0.12134100  0.89333700  1
  O  O2  1  0.23671200  0.91377600  0.02956500  1
  O  O3  1  0.95708400  0.84451600  0.88890200  1
  O  O4  1  0.85310500  0.87865900  0.10666300  1
  O  O5  1  0.00586800  0.62672900  0.19316600  1
  O  O6  1  0.39251800  0.06684200  0.43556300  1
  O  O7  1  0.65669800  0.61401100  0.22919900  1
  O  O8  1  0.38227200  0.13850500  0.01469600  1
  O  O9  1  0.02606000  0.09004400  0.39612600  1
  O  O10  1  0.22229500  0.84659000  0.39216400  1
  O  O11  1  0.27668300  0.96176100  0.67817200  1
  O  O12  1  0.72331700  0.03823900  0.32182800  1
  O  O13  1  0.77770500  0.15341000  0.60783600  1
  O  O14  1  0.97394000  0.90995600  0.60387400  1
  O  O15  1  0.61772800  0.86149500  0.98530400  1
  O  O16  1  0.29795800  0.03487200  0.23513100  1
  O  O17  1  0.34330200  0.38598900  0.77080100  1
  O  O18  1  0.79329600  0.75600200  0.33838200  1
  O  O19  1  0.63844600  0.44535200  0.66299300  1
  O  O20  1  0.60748200  0.93315800  0.56443700  1
  O  O21  1  0.99413200  0.37327100  0.80683400  1
  O  O22  1  0.04291600  0.15548400  0.11109800  1
  O  O23  1  0.26548300  0.46425600  0.56275100  1
  O  O24  1  0.20670400  0.24399800  0.66161800  1
  O  O25  1  0.42872400  0.09823900  0.75984600  1
  O  O26  1  0.80041700  0.61506300  0.87709800  1
  O  O27  1  0.76328800  0.08622400  0.97043500  1
  O  O28  1  0.97969500  0.11019000  0.74715000  1
  O  O29  1  0.20756900  0.33137500  0.37671800  1
  O  O30  1  0.09773600  0.57384200  0.75458300  1
  O  O31  1  0.45710000  0.57243700  0.86850200  1
  O  O32  1  0.61243700  0.31245700  0.86052300  1
  O  O33  1  0.91823100  0.41414100  0.01895900  1
  O  O34  1  0.08176900  0.58585900  0.98104100  1
  O  O35  1  0.38756300  0.68754300  0.13947700  1
  O  O36  1  0.54290000  0.42756300  0.13149800  1
  O  O37  1  0.90226400  0.42615800  0.24541700  1
  O  O38  1  0.02030500  0.88981000  0.25285000  1
  O  O39  1  0.19958300  0.38493700  0.12290200  1
  O  O40  1  0.57127600  0.90176100  0.24015400  1
  O  O41  1  0.73451700  0.53574400  0.43724900  1
  O  O42  1  0.36155400  0.55464800  0.33700700  1
  O  O43  1  0.70204200  0.96512800  0.76486900  1
  F  F0  1  0.48543800  0.81727500  0.77875600  1
  F  F1  1  0.51456200  0.18272500  0.22124400  1
  F  F2  1  0.92973200  0.41359800  0.57051800  1
  F  F3  1  0.07026800  0.58640200  0.42948200  1
loop_
_geom_bond_atom_site_label_1
_geom_bond_atom_site_label_2
_geom_bond_distance
_geom_bond_site_symmetry_2
Na0 O37 2.268954 1_555
Na0 O36 2.422359 1_555
Na0 O22 2.588922 1_655
Na0 O12 2.658616 1_555
Na0 O33 2.776147 1_555
Na1 O24 2.314050 1_555
Na1 O6 2.420363 1_555
Na1 O25 2.616221 1_555
Na1 O13 2.676686 1_555
Na1 O23 2.785085 1_555
Na2 O30 2.268954 1_555
Na2 O31 2.422359 1_555
Na2 O3 2.588922 1_455
Na2 O11 2.658616 1_555
Na2 O34 2.776147 1_555
Na3 O18 2.314050 1_555
Na3 O20 2.420363 1_555
Na3 O40 2.616221 1_555
Na3 O10 2.676686 1_555
Na3 O41 2.785085 1_555
Mg0 O0 1.949334 1_555
Mg0 O26 2.079574 1_555
Mg0 O30 2.218150 1_655
Mg0 O3 2.267044 1_555
Mg0 O14 2.339812 1_555
Mg0 O43 2.591858 1_555
Mg1 O4 1.998253 1_455
Mg1 O2 2.036803 1_555
Mg1 O34 2.059253 1_554
Mg1 O3 2.230617 1_454
Mg1 O5 2.298676 1_555
Mg2 O15 1.958933 1_554
Mg2 O35 2.050511 1_555
Mg2 O40 2.053309 1_555
Mg2 O2 2.053406 1_555
Mg2 O16 2.124343 1_565
Mg3 O29 1.949334 1_555
Mg3 O39 2.079574 1_555
Mg3 O37 2.218150 1_455
Mg3 O22 2.267044 1_555
Mg3 O9 2.339812 1_555
Mg3 O16 2.591858 1_555
Mg4 O12 2.015532 1_555
Mg4 O20 2.021761 1_545
Mg4 O13 2.074804 1_555
Mg4 O9 2.085595 1_655
Mg4 O14 2.404602 1_545
Mg5 O11 2.015532 1_555
Mg5 O6 2.021761 1_565
Mg5 O10 2.074804 1_555
Mg5 O14 2.085595 1_455
Mg5 O9 2.404602 1_565
Mg6 O8 1.958933 1_556
Mg6 O32 2.050511 1_555
Mg6 O25 2.053309 1_555
Mg6 O27 2.053406 1_555
Mg6 O43 2.124343 1_545
Mg7 O1 1.998253 1_655
Mg7 O27 2.036803 1_555
Mg7 O33 2.059253 1_556
Mg7 O22 2.230617 1_656
Mg7 O21 2.298676 1_555
Mg8 O13 2.071316 1_555
Mg8 O28 2.119604 1_555
Mg8 O21 2.119701 1_555
Mg8 O19 2.238000 1_555
Mg8 O32 2.327612 1_555
Mg9 O36 1.914540 1_555
Mg9 O39 1.914623 1_555
Mg9 O8 2.003927 1_555
Mg9 O32 2.469369 1_554
Mg10 O31 1.914540 1_555
Mg10 O26 1.914623 1_555
Mg10 O15 2.003927 1_555
Mg10 O35 2.469369 1_556
Mg11 O10 2.071316 1_555
Mg11 O38 2.119604 1_555
Mg11 O5 2.119701 1_555
Mg11 O42 2.238000 1_555
Mg11 O35 2.327612 1_555
O0 Si6 1.556088 1_555
O1 Si3 1.667439 1_555
O1 Si0 1.688956 1_556
O2 Si0 1.650756 1_565
O3 Si9 1.640570 1_555
O4 Si4 1.667439 1_555
O4 Si9 1.688956 1_554
O5 Si8 1.775477 1_555
O5 Si11 1.849747 1_455
O6 Si7 1.587640 1_555
O7 Si10 1.624357 1_555
O7 Si11 1.652414 1_555
O8 Si0 1.644756 1_555
O9 Si5 1.617539 1_545
O10 Si5 1.654189 1_555
O11 Si3 1.687689 1_565
O11 Si1 2.053422 1_555
O12 Si4 1.687689 1_545
O12 Si7 2.053422 1_555
O13 Si2 1.654189 1_555
O14 Si2 1.617539 1_565
O15 Si9 1.644756 1_555
O16 Si5 1.665853 1_545
O16 Si7 1.867365 1_555
O17 Si13 1.624357 1_555
O17 Si12 1.652414 1_555
O18 Si4 1.671958 1_555
O18 Si11 1.748486 1_555
O19 Si6 1.678090 1_555
O19 Si13 1.701999 1_555
O20 Si1 1.587640 1_555
O21 Si14 1.775477 1_555
O21 Si12 1.849747 1_655
O22 Si0 1.640570 1_555
O23 Si15 1.631386 1_555
O23 Si12 1.736922 1_555
O24 Si3 1.671958 1_555
O24 Si12 1.748486 1_555
O25 Si1 1.666888 1_545
O25 Si3 1.850170 1_555
O26 Si14 1.615678 1_555
O27 Si9 1.650756 1_545
O28 Si2 1.641933 1_555
O28 Si3 1.890896 1_655
O29 Si15 1.556088 1_555
O30 Si12 1.771883 1_555
O30 Si14 1.837398 1_455
O31 Si13 1.595178 1_555
O32 Si13 1.658085 1_555
O33 Si8 1.749336 1_655
O33 Si14 1.796765 1_554
O34 Si14 1.749336 1_455
O34 Si8 1.796765 1_556
O35 Si10 1.658085 1_555
O36 Si10 1.595178 1_555
O37 Si11 1.771883 1_555
O37 Si8 1.837398 1_655
O38 Si5 1.641933 1_555
O38 Si4 1.890896 1_455
O39 Si8 1.615678 1_555
O40 Si7 1.666888 1_565
O40 Si4 1.850170 1_555
O41 Si6 1.631386 1_555
O41 Si11 1.736922 1_555
O42 Si15 1.678090 1_555
O42 Si10 1.701999 1_555
O43 Si2 1.665853 1_565
O43 Si1 1.867365 1_555
F0 Si1 1.656818 1_555
F0 Na2 2.211684 1_555
F0 Mg10 2.521061 1_555
F1 Si7 1.656818 1_555
F1 Na0 2.211684 1_555
F1 Mg9 2.521061 1_555
F2 Si6 1.700158 1_555
F2 Mg8 2.023854 1_555
F3 Si15 1.700158 1_555
F3 Mg11 2.023854 1_555
