# generated using pymatgen
data_SrMn2Si2(H2O5)2
_symmetry_space_group_name_H-M   'P 1'
_cell_length_a   5.64223323
_cell_length_b   5.53920455
_cell_length_c   13.57160700
_cell_angle_alpha   90.00000000
_cell_angle_beta   90.00000000
_cell_angle_gamma   111.44316155
_symmetry_Int_Tables_number   1
_chemical_formula_structural   SrMn2Si2(H2O5)2
_chemical_formula_sum   'Sr2 Mn4 Si4 H8 O20'
_cell_volume   394.79993713
_cell_formula_units_Z   2
loop_
 _symmetry_equiv_pos_site_id
 _symmetry_equiv_pos_as_xyz
  1  'x, y, z'
loop_
 _atom_site_type_symbol
 _atom_site_label
 _atom_site_symmetry_multiplicity
 _atom_site_fract_x
 _atom_site_fract_y
 _atom_site_fract_z
 _atom_site_occupancy
  Sr  Sr0  1  0.68332000  0.30386000  0.75000000  1
  Sr  Sr1  1  0.31668000  0.69614000  0.25000000  1
  Mn  Mn0  1  0.00000000  0.50000000  0.50000000  1
  Mn  Mn1  1  0.50000000  0.00000000  0.50000000  1
  Mn  Mn2  1  0.00000000  0.50000000  0.00000000  1
  Mn  Mn3  1  0.50000000  0.00000000  0.00000000  1
  Si  Si0  1  0.02983800  0.97601300  0.63186200  1
  Si  Si1  1  0.97016200  0.02398700  0.36813800  1
  Si  Si2  1  0.02983800  0.97601300  0.86813800  1
  Si  Si3  1  0.97016200  0.02398700  0.13186200  1
  H  H0  1  0.35416500  0.64584100  0.68936300  1
  H  H1  1  0.64583500  0.35415900  0.31063700  1
  H  H2  1  0.35416500  0.64584100  0.81063700  1
  H  H3  1  0.64583500  0.35415900  0.18936300  1
  H  H4  1  0.46144800  0.53098900  0.55828900  1
  H  H5  1  0.53855200  0.46901100  0.44171100  1
  H  H6  1  0.46144800  0.53098900  0.94171100  1
  H  H7  1  0.53855200  0.46901100  0.05828900  1
  O  O0  1  0.99251700  0.02983600  0.75000000  1
  O  O1  1  0.00748300  0.97016400  0.25000000  1
  O  O2  1  0.35835100  0.63995700  0.55451200  1
  O  O3  1  0.64164900  0.36004300  0.44548800  1
  O  O4  1  0.35835100  0.63995700  0.94548800  1
  O  O5  1  0.64164900  0.36004300  0.05451200  1
  O  O6  1  0.90792600  0.65906100  0.61429500  1
  O  O7  1  0.65962500  0.89847000  0.38820300  1
  O  O8  1  0.90792600  0.65906100  0.88570500  1
  O  O9  1  0.65962500  0.89847000  0.11179700  1
  O  O10  1  0.09207400  0.34093900  0.38570500  1
  O  O11  1  0.34037500  0.10153000  0.61179700  1
  O  O12  1  0.09207400  0.34093900  0.11429500  1
  O  O13  1  0.34037500  0.10153000  0.88820300  1
  O  O14  1  0.86913400  0.13098400  0.57749000  1
  O  O15  1  0.13086600  0.86901600  0.42251000  1
  O  O16  1  0.86913400  0.13098400  0.92251000  1
  O  O17  1  0.13086600  0.86901600  0.07749000  1
  O  O18  1  0.43976000  0.62105500  0.75000000  1
  O  O19  1  0.56024000  0.37894500  0.25000000  1
loop_
_geom_bond_atom_site_label_1
_geom_bond_atom_site_label_2
_geom_bond_distance
_geom_bond_site_symmetry_2
Mn0 O10 1.946009 1_555
Mn0 O6 1.946009 1_455
Mn0 O2 2.022461 1_555
Mn0 O3 2.022461 1_455
Mn0 O14 2.173899 1_455
Mn0 O15 2.173899 1_555
Mn1 O7 1.949328 1_545
Mn1 O11 1.949328 1_555
Mn1 O3 1.999527 1_555
Mn1 O2 1.999527 1_545
Mn1 O14 2.205754 1_555
Mn1 O15 2.205754 1_545
Mn2 O12 1.946009 1_555
Mn2 O8 1.946009 1_454
Mn2 O4 2.022461 1_554
Mn2 O5 2.022461 1_455
Mn2 O16 2.173899 1_454
Mn2 O17 2.173899 1_555
Mn3 O9 1.949328 1_545
Mn3 O13 1.949328 1_554
Mn3 O5 1.999527 1_555
Mn3 O4 1.999527 1_544
Mn3 O16 2.205754 1_554
Mn3 O17 2.205754 1_545
H0 O18 0.988838 1_555
H1 O19 0.988838 1_555
H2 O18 0.988838 1_555
H3 O19 0.988838 1_555
H4 O2 0.980838 1_555
H5 O3 0.980838 1_555
H6 O4 0.980838 1_555
H7 O5 0.980838 1_555
O0 Si2 1.658244 1_645
O0 Si0 1.658244 1_645
O0 Sr0 2.698807 1_555
O1 Si3 1.658244 1_465
O1 Si1 1.658244 1_465
O1 Sr1 2.698807 1_555
O6 Si0 1.652077 1_655
O6 Sr0 2.654447 1_555
O7 Si1 1.654326 1_565
O7 Sr1 2.632987 1_555
O8 Si2 1.652077 1_655
O8 Sr0 2.654447 1_555
O9 Si3 1.654326 1_565
O9 Sr1 2.632987 1_555
O10 Si1 1.652077 1_455
O10 Sr1 2.654447 1_555
O11 Si0 1.654326 1_545
O11 Sr0 2.632987 1_555
O12 Si3 1.652077 1_455
O12 Sr1 2.654447 1_555
O13 Si2 1.654326 1_545
O13 Sr0 2.632987 1_555
O14 Si0 1.634825 1_645
O14 Sr0 2.869073 1_555
O15 Si1 1.634825 1_465
O15 Sr1 2.869073 1_555
O16 Si2 1.634825 1_645
O16 Sr0 2.869073 1_555
O17 Si3 1.634825 1_465
O17 Sr1 2.869073 1_555
O18 Sr0 2.596335 1_555
O19 Sr1 2.596335 1_555
