# generated using pymatgen
data_Si3Au10
_symmetry_space_group_name_H-M   'P 1'
_cell_length_a   8.46649817
_cell_length_b   8.46649817
_cell_length_c   8.46649817
_cell_angle_alpha   109.47122063
_cell_angle_beta   109.47122063
_cell_angle_gamma   109.47122063
_symmetry_Int_Tables_number   1
_chemical_formula_structural   Si3Au10
_chemical_formula_sum   'Si6 Au20'
_cell_volume   467.18572728
_cell_formula_units_Z   2
loop_
 _symmetry_equiv_pos_site_id
 _symmetry_equiv_pos_as_xyz
  1  'x, y, z'
loop_
 _atom_site_type_symbol
 _atom_site_label
 _atom_site_symmetry_multiplicity
 _atom_site_fract_x
 _atom_site_fract_y
 _atom_site_fract_z
 _atom_site_occupancy
  Si  Si0  1  0.69738200  0.69738200  0.00000000  1
  Si  Si1  1  0.00000000  0.69738200  0.69738200  1
  Si  Si2  1  0.69738200  0.00000000  0.69738200  1
  Si  Si3  1  0.30261800  0.30261800  0.00000000  1
  Si  Si4  1  0.00000000  0.30261800  0.30261800  1
  Si  Si5  1  0.30261800  0.00000000  0.30261800  1
  Au  Au0  1  0.60539200  0.29343200  0.60539200  1
  Au  Au1  1  0.60539200  0.60539200  0.29343200  1
  Au  Au2  1  0.29343200  0.60539200  0.60539200  1
  Au  Au3  1  0.31196000  0.70656800  0.31196000  1
  Au  Au4  1  0.68804000  0.39460800  0.00000000  1
  Au  Au5  1  0.00000000  0.39460800  0.68804000  1
  Au  Au6  1  0.39460800  0.00000000  0.68804000  1
  Au  Au7  1  0.39460800  0.68804000  0.00000000  1
  Au  Au8  1  0.70656800  0.31196000  0.31196000  1
  Au  Au9  1  0.68804000  0.00000000  0.39460800  1
  Au  Au10  1  0.31196000  0.31196000  0.70656800  1
  Au  Au11  1  0.00000000  0.68804000  0.39460800  1
  Au  Au12  1  0.69288200  0.69288200  0.69288200  1
  Au  Au13  1  0.00000000  0.30711800  0.00000000  1
  Au  Au14  1  0.30711800  0.00000000  0.00000000  1
  Au  Au15  1  0.00000000  0.00000000  0.30711800  1
  Au  Au16  1  0.32236500  0.32236500  0.32236500  1
  Au  Au17  1  0.00000000  0.67763500  0.00000000  1
  Au  Au18  1  0.67763500  0.00000000  0.00000000  1
  Au  Au19  1  0.00000000  0.00000000  0.67763500  1
loop_
_geom_bond_atom_site_label_1
_geom_bond_atom_site_label_2
_geom_bond_distance
_geom_bond_site_symmetry_2
Au0 Si5 2.538167 1_555
Au1 Si3 2.538167 1_555
Au2 Si4 2.538167 1_555
Au3 Si5 2.538167 1_565
Au4 Si0 2.538167 1_555
Au5 Si1 2.538167 1_555
Au6 Si2 2.538167 1_555
Au7 Si0 2.538167 1_555
Au8 Si4 2.538167 1_655
Au9 Si2 2.538167 1_555
Au10 Si3 2.538167 1_556
Au11 Si1 2.538167 1_555
Au12 Si2 2.575065 1_565
Au12 Si1 2.575065 1_655
Au12 Si0 2.575065 1_556
Au13 Si4 2.575065 1_555
Au13 Si2 2.575065 1_454
Au13 Si3 2.575065 1_555
Au14 Si5 2.575065 1_555
Au14 Si1 2.575065 1_544
Au14 Si3 2.575065 1_555
Au15 Si0 2.575065 1_445
Au15 Si4 2.575065 1_555
Au15 Si5 2.575065 1_555
Au16 Si3 2.622585 1_555
Au16 Si5 2.622585 1_555
Au16 Si4 2.622585 1_555
Au17 Si5 2.622585 1_565
Au17 Si0 2.622585 1_455
Au17 Si1 2.622585 1_554
Au18 Si4 2.622585 1_655
Au18 Si0 2.622585 1_545
Au18 Si2 2.622585 1_554
Au19 Si3 2.622585 1_556
Au19 Si1 2.622585 1_545
Au19 Si2 2.622585 1_455
