# generated using pymatgen
data_Sr2YTlCu2O7
_symmetry_space_group_name_H-M   'P 1'
_cell_length_a   3.83375500
_cell_length_b   3.84736500
_cell_length_c   12.19178600
_cell_angle_alpha   90.00000000
_cell_angle_beta   90.00000000
_cell_angle_gamma   90.00000000
_symmetry_Int_Tables_number   1
_chemical_formula_structural   Sr2YTlCu2O7
_chemical_formula_sum   'Sr2 Y1 Tl1 Cu2 O7'
_cell_volume   179.82707332
_cell_formula_units_Z   1
loop_
 _symmetry_equiv_pos_site_id
 _symmetry_equiv_pos_as_xyz
  1  'x, y, z'
loop_
 _atom_site_type_symbol
 _atom_site_label
 _atom_site_symmetry_multiplicity
 _atom_site_fract_x
 _atom_site_fract_y
 _atom_site_fract_z
 _atom_site_occupancy
  Sr  Sr0  1  0.50000000  0.48459600  0.79294100  1
  Sr  Sr1  1  0.50000000  0.48459600  0.20705900  1
  Y  Y0  1  0.50000000  0.49882700  0.50000000  1
  Tl  Tl0  1  0.00000000  0.93192100  0.00000000  1
  Cu  Cu0  1  0.00000000  0.99645200  0.63867900  1
  Cu  Cu1  1  0.00000000  0.99645200  0.36132100  1
  O  O0  1  0.50000000  0.99790400  0.61950300  1
  O  O1  1  0.00000000  0.49762200  0.62013300  1
  O  O2  1  0.50000000  0.99790400  0.38049700  1
  O  O3  1  0.00000000  0.49762200  0.37986700  1
  O  O4  1  0.50000000  0.55882900  0.00000000  1
  O  O5  1  0.00000000  0.99863700  0.82591400  1
  O  O6  1  0.00000000  0.99863700  0.17408600  1
loop_
_geom_bond_atom_site_label_1
_geom_bond_atom_site_label_2
_geom_bond_distance
_geom_bond_site_symmetry_2
Cu0 O0 1.931090 1_555
Cu0 O0 1.931090 1_455
Cu0 O1 1.932455 1_555
Cu0 O1 1.941396 1_565
Cu0 O5 2.282745 1_555
Cu1 O2 1.931090 1_455
Cu1 O2 1.931090 1_555
Cu1 O3 1.932455 1_555
Cu1 O3 1.941396 1_565
Cu1 O6 2.282745 1_555
O0 Y0 2.410316 1_555
O0 Y0 2.415978 1_565
O0 Sr0 2.824425 1_565
O0 Sr0 2.893329 1_555
O1 Y0 2.412384 1_455
O1 Y0 2.412384 1_555
O1 Sr0 2.848806 1_455
O1 Sr0 2.848806 1_555
O2 Y0 2.410316 1_555
O2 Y0 2.415978 1_565
O2 Sr1 2.824425 1_565
O2 Sr1 2.893329 1_555
O3 Y0 2.412384 1_455
O3 Y0 2.412384 1_555
O3 Sr1 2.848806 1_455
O3 Sr1 2.848806 1_555
O4 Tl0 2.394755 1_555
O4 Tl0 2.394755 1_655
O4 Sr1 2.540523 1_555
O4 Sr0 2.540523 1_554
O5 Tl0 2.137884 1_556
O5 Sr0 2.707703 1_465
O5 Sr0 2.707703 1_565
O5 Sr0 2.783403 1_555
O5 Sr0 2.783403 1_455
O6 Tl0 2.137884 1_555
O6 Sr1 2.707703 1_565
O6 Sr1 2.707703 1_465
O6 Sr1 2.783403 1_455
O6 Sr1 2.783403 1_555
