# generated using pymatgen
data_Mg5Si6
_symmetry_space_group_name_H-M   'P 1'
_cell_length_a   5.07335300
_cell_length_b   5.47977456
_cell_length_c   14.34047876
_cell_angle_alpha   96.49187286
_cell_angle_beta   97.55877517
_cell_angle_gamma   90.96770489
_symmetry_Int_Tables_number   1
_chemical_formula_structural   Mg5Si6
_chemical_formula_sum   'Mg10 Si12'
_cell_volume   392.47453564
_cell_formula_units_Z   2
loop_
 _symmetry_equiv_pos_site_id
 _symmetry_equiv_pos_as_xyz
  1  'x, y, z'
loop_
 _atom_site_type_symbol
 _atom_site_label
 _atom_site_symmetry_multiplicity
 _atom_site_fract_x
 _atom_site_fract_y
 _atom_site_fract_z
 _atom_site_occupancy
  Mg  Mg0  1  0.23901800  0.92260000  0.01349700  1
  Mg  Mg1  1  0.28510400  0.89992300  0.62510300  1
  Mg  Mg2  1  0.82916100  0.90222100  0.74580800  1
  Mg  Mg3  1  0.11571300  0.02204400  0.26373800  1
  Mg  Mg4  1  0.60571200  0.70691400  0.24998800  1
  Mg  Mg5  1  0.72380200  0.16699600  0.93586800  1
  Mg  Mg6  1  0.22237900  0.35061300  0.49790600  1
  Mg  Mg7  1  0.66815300  0.27958000  0.37416100  1
  Mg  Mg8  1  0.03742000  0.44105100  0.12392900  1
  Mg  Mg9  1  0.19791500  0.39493900  0.87491700  1
  Si  Si0  1  0.71157800  0.65149000  0.90334900  1
  Si  Si1  1  0.50228000  0.49753500  0.05551600  1
  Si  Si2  1  0.91984100  0.84114400  0.43614400  1
  Si  Si3  1  0.74351900  0.61396200  0.56392500  1
  Si  Si4  1  0.34634800  0.87734900  0.82516400  1
  Si  Si5  1  0.78135400  0.87805300  0.08724600  1
  Si  Si6  1  0.41356300  0.84526300  0.43335900  1
  Si  Si7  1  0.60768400  0.39005500  0.73010500  1
  Si  Si8  1  0.09764400  0.43164800  0.68504500  1
  Si  Si9  1  0.54172000  0.19319500  0.17653600  1
  Si  Si10  1  0.14709000  0.52582900  0.32059600  1
  Si  Si11  1  0.75937200  0.16396300  0.57446800  1
loop_
_geom_bond_atom_site_label_1
_geom_bond_atom_site_label_2
_geom_bond_distance
_geom_bond_site_symmetry_2
Mg0 Si5 2.693427 1_455
Mg0 Si1 2.789831 1_555
Mg0 Si4 2.809317 1_554
Mg0 Si5 2.839743 1_555
Mg0 Si9 2.866728 1_565
Mg0 Si0 3.175782 1_454
Mg1 Si4 2.861794 1_555
Mg1 Si6 2.892598 1_555
Mg1 Si8 2.976474 1_555
Mg1 Si3 2.997182 1_555
Mg1 Si11 2.998302 1_565
Mg1 Si2 3.056462 1_455
Mg1 Si11 3.097289 1_465
Mg1 Si3 3.111959 1_455
Mg1 Si8 3.142541 1_565
Mg1 Mg6 3.228048 1_565
Mg1 Mg6 3.326038 1_555
Mg2 Si4 2.731284 1_655
Mg2 Si4 2.840904 1_555
Mg2 Si3 2.869512 1_555
Mg2 Si0 2.894205 1_555
Mg2 Si7 2.937750 1_565
Mg2 Si11 2.967331 1_565
Mg2 Si7 2.978927 1_555
Mg2 Si8 3.030972 1_655
Mg3 Si10 2.784467 1_555
Mg3 Si9 2.832372 1_555
Mg3 Si5 2.877435 1_445
Mg3 Si10 2.926729 1_545
Mg3 Si6 2.958697 1_545
Mg3 Si2 3.041403 1_445
Mg3 Si9 3.212934 1_455
Mg4 Si5 2.852006 1_555
Mg4 Si10 2.862296 1_555
Mg4 Si1 2.870611 1_555
Mg4 Si9 2.889318 1_555
Mg4 Si2 2.933352 1_555
Mg4 Si6 2.947640 1_555
Mg4 Si9 2.981535 1_565
Mg4 Si10 3.023467 1_655
Mg5 Si4 2.689670 1_545
Mg5 Si1 2.713138 1_556
Mg5 Si0 2.747330 1_555
Mg5 Si0 2.808865 1_545
Mg5 Si5 2.816173 1_546
Mg6 Si10 2.800370 1_555
Mg6 Si8 2.826042 1_555
Mg6 Si11 2.936097 1_455
Mg6 Si3 2.978731 1_555
Mg6 Si6 3.035357 1_545
Mg6 Si11 3.038883 1_555
Mg6 Si3 3.048859 1_455
Mg6 Mg7 3.056904 1_555
Mg6 Mg7 3.114616 1_455
Mg6 Si6 3.139988 1_555
Mg6 Si2 3.142103 1_445
Mg6 Si2 3.268901 1_455
Mg7 Si9 2.806318 1_555
Mg7 Si2 2.912152 1_545
Mg7 Si6 2.948675 1_545
Mg7 Si10 2.988241 1_655
Mg7 Si11 2.989732 1_555
Mg7 Si10 3.036418 1_555
Mg7 Si3 3.079647 1_555
Mg8 Si1 2.696866 1_555
Mg8 Si10 2.785973 1_555
Mg8 Si1 2.797425 1_455
Mg8 Si5 2.812299 1_455
Mg8 Si9 2.966645 1_555
Mg8 Si9 3.058400 1_455
Mg9 Si8 2.734244 1_555
Mg9 Si1 2.827939 1_556
Mg9 Si0 2.898436 1_555
Mg9 Si0 2.912510 1_455
Mg9 Si4 2.926573 1_555
Mg9 Si4 2.979348 1_545
Mg9 Si7 3.124137 1_555
Si0 Si4 2.463123 1_555
Si0 Si7 2.706954 1_555
Si0 Si1 2.756198 1_556
Si0 Si5 2.760533 1_556
Si1 Si5 2.464905 1_555
Si1 Si9 2.531324 1_555
Si2 Si6 2.510154 1_655
Si2 Si6 2.564100 1_555
Si2 Si3 2.572414 1_555
Si3 Si8 2.621980 1_655
Si3 Si6 2.774568 1_555
Si5 Si9 2.465823 1_565
Si7 Si8 2.603568 1_555
Si7 Si8 2.661794 1_655
Si10 Si6 2.492278 1_555
Si10 Si2 2.642511 1_455
Si11 Si3 2.489530 1_555
Si11 Si8 2.506886 1_655
Si11 Si7 2.639586 1_555
Si11 Si2 2.721560 1_545
Si11 Si6 2.895878 1_545
