# generated using pymatgen
data_LaFe4(BiO4)3
_symmetry_space_group_name_H-M   'P 1'
_cell_length_a   7.92101500
_cell_length_b   5.53526900
_cell_length_c   5.68817606
_cell_angle_alpha   89.52186952
_cell_angle_beta   90.00000000
_cell_angle_gamma   90.00000000
_symmetry_Int_Tables_number   1
_chemical_formula_structural   LaFe4(BiO4)3
_chemical_formula_sum   'La1 Fe4 Bi3 O12'
_cell_volume   249.38910406
_cell_formula_units_Z   1
loop_
 _symmetry_equiv_pos_site_id
 _symmetry_equiv_pos_as_xyz
  1  'x, y, z'
loop_
 _atom_site_type_symbol
 _atom_site_label
 _atom_site_symmetry_multiplicity
 _atom_site_fract_x
 _atom_site_fract_y
 _atom_site_fract_z
 _atom_site_occupancy
  La  La0  1  0.50000000  0.98939300  0.04183000  1
  Fe  Fe0  1  0.24770400  0.99737000  0.50200200  1
  Fe  Fe1  1  0.75086900  0.50223300  0.99931300  1
  Fe  Fe2  1  0.75229600  0.99737000  0.50200200  1
  Fe  Fe3  1  0.24913100  0.50223300  0.99931300  1
  Bi  Bi0  1  0.00000000  0.49046400  0.45546800  1
  Bi  Bi1  1  0.00000000  0.01215100  0.95564500  1
  Bi  Bi2  1  0.50000000  0.51186700  0.54491600  1
  O  O0  1  0.20159800  0.19606200  0.20007700  1
  O  O1  1  0.79982900  0.29858700  0.70340600  1
  O  O2  1  0.70425100  0.79710500  0.79404000  1
  O  O3  1  0.30167700  0.70095700  0.29677700  1
  O  O4  1  0.29574900  0.79710500  0.79404000  1
  O  O5  1  0.69832300  0.70095700  0.29677700  1
  O  O6  1  0.79840200  0.19606200  0.20007700  1
  O  O7  1  0.20017100  0.29858700  0.70340600  1
  O  O8  1  0.00000000  0.59875400  0.03302200  1
  O  O9  1  0.00000000  0.89946900  0.52560200  1
  O  O10  1  0.50000000  0.41504100  0.97763700  1
  O  O11  1  0.50000000  0.09823300  0.47464900  1
loop_
_geom_bond_atom_site_label_1
_geom_bond_atom_site_label_2
_geom_bond_distance
_geom_bond_site_symmetry_2
La0 O10 2.381190 1_564
La0 O2 2.400426 1_554
La0 O4 2.400426 1_554
La0 O11 2.539471 1_565
La0 O5 2.661055 1_555
La0 O3 2.661055 1_555
La0 O6 2.779015 1_565
La0 O0 2.779015 1_565
Fe0 O4 2.025433 1_555
Fe0 O9 2.039652 1_555
Fe0 O0 2.064198 1_565
Fe0 O7 2.065438 1_565
Fe0 O3 2.066263 1_555
Fe0 O11 2.080439 1_565
Fe1 O2 2.032724 1_555
Fe1 O10 2.048864 1_555
Fe1 O8 2.053804 1_656
Fe1 O5 2.068148 1_556
Fe1 O6 2.070198 1_556
Fe1 O1 2.070215 1_555
Fe2 O2 2.025433 1_555
Fe2 O9 2.039652 1_655
Fe2 O6 2.064198 1_565
Fe2 O1 2.065438 1_565
Fe2 O5 2.066263 1_555
Fe2 O11 2.080439 1_565
Fe3 O4 2.032724 1_555
Fe3 O10 2.048864 1_555
Fe3 O8 2.053804 1_556
Fe3 O3 2.068148 1_556
Fe3 O0 2.070198 1_556
Fe3 O7 2.070215 1_555
Bi0 O9 2.302109 1_555
Bi0 O1 2.367703 1_455
Bi0 O7 2.367703 1_555
Bi0 O8 2.471723 1_555
Bi0 O0 2.712087 1_555
Bi0 O6 2.712087 1_455
Bi0 O3 2.804446 1_555
Bi0 O5 2.804446 1_455
Bi1 O8 2.326598 1_546
Bi1 O6 2.354366 1_456
Bi1 O0 2.354366 1_556
Bi1 O9 2.529466 1_545
Bi1 O1 2.654888 1_455
Bi1 O7 2.654888 1_555
Bi1 O4 2.787129 1_545
Bi1 O2 2.787129 1_445
Bi2 O11 2.327484 1_555
Bi2 O5 2.351776 1_555
Bi2 O3 2.351776 1_555
Bi2 O10 2.514695 1_555
Bi2 O2 2.675024 1_555
Bi2 O4 2.675024 1_555
Bi2 O7 2.798051 1_555
Bi2 O1 2.798051 1_555
