# generated using pymatgen
data_Tb2Mo2O7
_symmetry_space_group_name_H-M   'P 1'
_cell_length_a   7.27386222
_cell_length_b   7.27386222
_cell_length_c   7.27386222
_cell_angle_alpha   60.00000000
_cell_angle_beta   60.00000000
_cell_angle_gamma   60.00000000
_symmetry_Int_Tables_number   1
_chemical_formula_structural   Tb2Mo2O7
_chemical_formula_sum   'Tb4 Mo4 O14'
_cell_volume   272.13237587
_cell_formula_units_Z   2
loop_
 _symmetry_equiv_pos_site_id
 _symmetry_equiv_pos_as_xyz
  1  'x, y, z'
loop_
 _atom_site_type_symbol
 _atom_site_label
 _atom_site_symmetry_multiplicity
 _atom_site_fract_x
 _atom_site_fract_y
 _atom_site_fract_z
 _atom_site_occupancy
  Tb  Tb0  1  0.12500000  0.12500000  0.12500000  1
  Tb  Tb1  1  0.62500000  0.12500000  0.12500000  1
  Tb  Tb2  1  0.12500000  0.12500000  0.62500000  1
  Tb  Tb3  1  0.12500000  0.62500000  0.12500000  1
  Mo  Mo0  1  0.62500000  0.62500000  0.62500000  1
  Mo  Mo1  1  0.12500000  0.62500000  0.62500000  1
  Mo  Mo2  1  0.62500000  0.62500000  0.12500000  1
  Mo  Mo3  1  0.62500000  0.12500000  0.62500000  1
  O  O0  1  0.00000000  0.00000000  0.00000000  1
  O  O1  1  0.25000000  0.25000000  0.25000000  1
  O  O2  1  0.28853322  0.28853322  0.71146678  1
  O  O3  1  0.53853322  0.53853322  0.96146678  1
  O  O4  1  0.71146678  0.28853322  0.71146678  1
  O  O5  1  0.71146678  0.28853322  0.28853322  1
  O  O6  1  0.28853322  0.71146678  0.71146678  1
  O  O7  1  0.28853322  0.71146678  0.28853322  1
  O  O8  1  0.71146678  0.71146678  0.28853322  1
  O  O9  1  0.96146678  0.53853322  0.53853322  1
  O  O10  1  0.53853322  0.96146678  0.96146678  1
  O  O11  1  0.96146678  0.96146678  0.53853322  1
  O  O12  1  0.96146678  0.53853322  0.96146678  1
  O  O13  1  0.53853322  0.96146678  0.53853322  1
loop_
_geom_bond_atom_site_label_1
_geom_bond_atom_site_label_2
_geom_bond_distance
_geom_bond_site_symmetry_2
Mo0 O3 2.024344 1_555
Mo0 O13 2.024344 1_555
Mo0 O9 2.024344 1_555
Mo0 O6 2.024344 1_555
Mo0 O4 2.024344 1_555
Mo0 O8 2.024344 1_555
Mo1 O6 2.024344 1_555
Mo1 O11 2.024344 1_455
Mo1 O12 2.024344 1_455
Mo1 O9 2.024344 1_455
Mo1 O2 2.024344 1_555
Mo1 O7 2.024344 1_555
Mo2 O8 2.024344 1_555
Mo2 O3 2.024344 1_554
Mo2 O7 2.024344 1_555
Mo2 O10 2.024344 1_554
Mo2 O5 2.024344 1_555
Mo2 O12 2.024344 1_554
Mo3 O4 2.024344 1_555
Mo3 O13 2.024344 1_545
Mo3 O2 2.024344 1_555
Mo3 O10 2.024344 1_545
Mo3 O11 2.024344 1_545
Mo3 O5 2.024344 1_555
O0 Tb0 2.227156 1_555
O0 Tb2 2.227156 1_554
O0 Tb1 2.227156 1_455
O0 Tb3 2.227156 1_545
O1 Tb0 2.227156 1_555
O1 Tb1 2.227156 1_555
O1 Tb3 2.227156 1_555
O1 Tb2 2.227156 1_555
O2 Tb2 2.477241 1_555
O2 Tb0 2.477241 1_556
O3 Tb3 2.477241 1_556
O3 Tb1 2.477241 1_556
O4 Tb2 2.477241 1_655
O4 Tb1 2.477241 1_556
O5 Tb1 2.477241 1_555
O5 Tb0 2.477241 1_655
O6 Tb2 2.477241 1_565
O6 Tb3 2.477241 1_556
O7 Tb3 2.477241 1_555
O7 Tb0 2.477241 1_565
O8 Tb1 2.477241 1_565
O8 Tb3 2.477241 1_655
O9 Tb3 2.477241 1_655
O9 Tb2 2.477241 1_655
O10 Tb1 2.477241 1_566
O10 Tb0 2.477241 1_566
O11 Tb2 2.477241 1_665
O11 Tb0 2.477241 1_665
O12 Tb0 2.477241 1_656
O12 Tb3 2.477241 1_656
O13 Tb2 2.477241 1_565
O13 Tb1 2.477241 1_565
