# generated using pymatgen
data_BaVSi2O7
_symmetry_space_group_name_H-M   'P 1'
_cell_length_a   5.42748400
_cell_length_b   7.19005800
_cell_length_c   8.21206300
_cell_angle_alpha   90.00000000
_cell_angle_beta   109.29657721
_cell_angle_gamma   90.00000000
_symmetry_Int_Tables_number   1
_chemical_formula_structural   BaVSi2O7
_chemical_formula_sum   'Ba2 V2 Si4 O14'
_cell_volume   302.46331895
_cell_formula_units_Z   2
loop_
 _symmetry_equiv_pos_site_id
 _symmetry_equiv_pos_as_xyz
  1  'x, y, z'
loop_
 _atom_site_type_symbol
 _atom_site_label
 _atom_site_symmetry_multiplicity
 _atom_site_fract_x
 _atom_site_fract_y
 _atom_site_fract_z
 _atom_site_occupancy
  Ba  Ba0  1  0.81032000  0.75000000  0.58743700  1
  Ba  Ba1  1  0.22288300  0.25000000  0.41256300  1
  V  V0  1  0.11749800  0.75000000  0.21225800  1
  V  V1  1  0.90524000  0.25000000  0.78774200  1
  Si  Si0  1  0.41138000  0.52394700  0.79306400  1
  Si  Si1  1  0.61831700  0.47605300  0.20693600  1
  Si  Si2  1  0.41138000  0.97605300  0.79306400  1
  Si  Si3  1  0.61831700  0.02394700  0.20693600  1
  O  O0  1  0.11865400  0.43803600  0.70807200  1
  O  O1  1  0.41058200  0.56196400  0.29192800  1
  O  O2  1  0.11865400  0.06196400  0.70807200  1
  O  O3  1  0.41058200  0.93803600  0.29192800  1
  O  O4  1  0.51717500  0.50000000  0.00000000  1
  O  O5  1  0.51717500  0.00000000  0.00000000  1
  O  O6  1  0.99768400  0.75000000  0.00074600  1
  O  O7  1  0.99693700  0.25000000  0.99925400  1
  O  O8  1  0.38312700  0.75000000  0.73973800  1
  O  O9  1  0.64338900  0.25000000  0.26026200  1
  O  O10  1  0.61256700  0.43909900  0.70178100  1
  O  O11  1  0.91078600  0.56090100  0.29821900  1
  O  O12  1  0.61256700  0.06090100  0.70178100  1
  O  O13  1  0.91078600  0.93909900  0.29821900  1
loop_
_geom_bond_atom_site_label_1
_geom_bond_atom_site_label_2
_geom_bond_distance
_geom_bond_site_symmetry_2
Ba0 O10 2.774308 1_555
Ba0 O12 2.774308 1_565
Ba0 O2 2.778032 1_665
Ba0 O0 2.778032 1_655
Ba0 O13 2.939873 1_555
Ba0 O11 2.939873 1_555
Ba0 O8 2.942733 1_655
Ba0 O8 2.976014 1_555
Ba0 O3 2.990696 1_555
Ba0 O1 2.990696 1_555
Ba0 O6 3.205151 1_556
Ba1 O13 2.774308 1_445
Ba1 O11 2.774308 1_455
Ba1 O1 2.778032 1_555
Ba1 O3 2.778032 1_545
Ba1 O12 2.939873 1_555
Ba1 O10 2.939873 1_555
Ba1 O9 2.942733 1_555
Ba1 O9 2.976014 1_455
Ba1 O2 2.990696 1_555
Ba1 O0 2.990696 1_555
Ba1 O7 3.205151 1_454
O0 Si0 1.630950 1_555
O0 V1 2.024462 1_455
O1 Si1 1.630954 1_555
O1 V0 2.024462 1_555
O2 Si2 1.630950 1_545
O2 V1 2.024462 1_455
O3 Si3 1.630954 1_565
O3 V0 2.024462 1_555
O4 Si1 1.613167 1_555
O4 Si0 1.613167 1_554
O5 Si3 1.613167 1_555
O5 Si2 1.613167 1_544
O6 V0 1.641144 1_655
O7 V1 1.641144 1_555
O8 Si2 1.677085 1_555
O8 Si0 1.677085 1_555
O9 Si1 1.677085 1_555
O9 Si3 1.677085 1_555
O10 Si0 1.633226 1_555
O10 V1 2.032013 1_555
O11 Si1 1.633221 1_555
O11 V0 2.032013 1_655
O12 Si2 1.633226 1_545
O12 V1 2.032013 1_555
O13 Si3 1.633221 1_565
O13 V0 2.032013 1_655
