# generated using pymatgen
data_Si17O37
_symmetry_space_group_name_H-M   'P 1'
_cell_length_a   14.12898467
_cell_length_b   14.12898467
_cell_length_c   12.41564161
_cell_angle_alpha   73.57255001
_cell_angle_beta   73.57255001
_cell_angle_gamma   59.44912845
_symmetry_Int_Tables_number   1
_chemical_formula_structural   Si17O37
_chemical_formula_sum   'Si34 O74'
_cell_volume   2018.09287693
_cell_formula_units_Z   2
loop_
 _symmetry_equiv_pos_site_id
 _symmetry_equiv_pos_as_xyz
  1  'x, y, z'
loop_
 _atom_site_type_symbol
 _atom_site_label
 _atom_site_symmetry_multiplicity
 _atom_site_fract_x
 _atom_site_fract_y
 _atom_site_fract_z
 _atom_site_occupancy
  Si  Si0  1  0.51503500  0.09693400  0.75458400  1
  Si  Si1  1  0.09693400  0.51503500  0.75458400  1
  Si  Si2  1  0.48496500  0.90306600  0.24541600  1
  Si  Si3  1  0.90306600  0.48496500  0.24541600  1
  Si  Si4  1  0.52125300  0.10360200  0.49738400  1
  Si  Si5  1  0.10360200  0.52125300  0.49738400  1
  Si  Si6  1  0.47874700  0.89639800  0.50261600  1
  Si  Si7  1  0.89639800  0.47874700  0.50261600  1
  Si  Si8  1  0.52670000  0.11656200  0.12991900  1
  Si  Si9  1  0.11656200  0.52670000  0.12991900  1
  Si  Si10  1  0.47330000  0.88343800  0.87008100  1
  Si  Si11  1  0.88343800  0.47330000  0.87008100  1
  Si  Si12  1  0.68261900  0.05633600  0.90242000  1
  Si  Si13  1  0.05633600  0.68261900  0.90242000  1
  Si  Si14  1  0.31738100  0.94366400  0.09758000  1
  Si  Si15  1  0.94366400  0.31738100  0.09758000  1
  Si  Si16  1  0.69022000  0.08073300  0.27477500  1
  Si  Si17  1  0.08073300  0.69022000  0.27477500  1
  Si  Si18  1  0.30978000  0.91926700  0.72522500  1
  Si  Si19  1  0.91926700  0.30978000  0.72522500  1
  Si  Si20  1  0.27221000  0.27221000  0.20255500  1
  Si  Si21  1  0.72779000  0.72779000  0.79744500  1
  Si  Si22  1  0.71694200  0.71694200  0.18416500  1
  Si  Si23  1  0.28305800  0.28305800  0.81583500  1
  Si  Si24  1  0.81597700  0.81597700  0.30199400  1
  Si  Si25  1  0.18402300  0.18402300  0.69800600  1
  Si  Si26  1  0.72217300  0.72217300  0.54274900  1
  Si  Si27  1  0.27782700  0.27782700  0.45725100  1
  Si  Si28  1  0.79853700  0.79853700  0.94516200  1
  Si  Si29  1  0.20146300  0.20146300  0.05483800  1
  Si  Si30  1  0.11023800  0.88214100  0.87167800  1
  Si  Si31  1  0.88214100  0.11023800  0.87167800  1
  Si  Si32  1  0.88976200  0.11785900  0.12832200  1
  Si  Si33  1  0.11785900  0.88976200  0.12832200  1
  O  O0  1  0.41678800  0.22298200  0.77078800  1
  O  O1  1  0.22298200  0.41678800  0.77078800  1
  O  O2  1  0.58321200  0.77701800  0.22921200  1
  O  O3  1  0.77701800  0.58321200  0.22921200  1
  O  O4  1  0.62511200  0.07169200  0.79797200  1
  O  O5  1  0.07169200  0.62511200  0.79797200  1
  O  O6  1  0.37488800  0.92830800  0.20202800  1
  O  O7  1  0.92830800  0.37488800  0.20202800  1
  O  O8  1  0.54929300  0.09126300  0.61956900  1
  O  O9  1  0.09126300  0.54929300  0.61956900  1
  O  O10  1  0.45070700  0.90873700  0.38043100  1
  O  O11  1  0.90873700  0.45070700  0.38043100  1
  O  O12  1  0.47056700  0.00536900  0.82223600  1
  O  O13  1  0.00536900  0.47056700  0.82223600  1
  O  O14  1  0.52943300  0.99463100  0.17776400  1
  O  O15  1  0.99463100  0.52943300  0.17776400  1
  O  O16  1  0.40930600  0.21902800  0.46733500  1
  O  O17  1  0.21902800  0.40930600  0.46733500  1
  O  O18  1  0.59069400  0.78097200  0.53266500  1
  O  O19  1  0.78097200  0.59069400  0.53266500  1
  O  O20  1  0.50000000  0.00000000  0.50000000  1
  O  O21  1  0.00000000  0.50000000  0.50000000  1
  O  O22  1  0.63138500  0.10006500  0.40580300  1
  O  O23  1  0.10006500  0.63138500  0.40580300  1
  O  O24  1  0.36861500  0.89993500  0.59419700  1
  O  O25  1  0.89993500  0.36861500  0.59419700  1
  O  O26  1  0.58591100  0.12734400  0.99758100  1
  O  O27  1  0.12734400  0.58591100  0.99758100  1
  O  O28  1  0.41408900  0.87265600  0.00241900  1
  O  O29  1  0.87265600  0.41408900  0.00241900  1
  O  O30  1  0.39995000  0.21511400  0.13951500  1
  O  O31  1  0.21511400  0.39995000  0.13951500  1
  O  O32  1  0.60005000  0.78488600  0.86048500  1
  O  O33  1  0.78488600  0.60005000  0.86048500  1
  O  O34  1  0.58930900  0.14003500  0.20270500  1
  O  O35  1  0.14003500  0.58930900  0.20270500  1
  O  O36  1  0.41069100  0.85996500  0.79729500  1
  O  O37  1  0.85996500  0.41069100  0.79729500  1
  O  O38  1  0.73913300  0.92659700  0.96251700  1
  O  O39  1  0.92659700  0.73913300  0.96251700  1
  O  O40  1  0.26086700  0.07340300  0.03748300  1
  O  O41  1  0.07340300  0.26086700  0.03748300  1
  O  O42  1  0.76155900  0.94929900  0.26655000  1
  O  O43  1  0.94929900  0.76155900  0.26655000  1
  O  O44  1  0.23844100  0.05070100  0.73345000  1
  O  O45  1  0.05070100  0.23844100  0.73345000  1
  O  O46  1  0.20982200  0.20982200  0.18057500  1
  O  O47  1  0.79017800  0.79017800  0.81942500  1
  O  O48  1  0.26333700  0.26333700  0.33830200  1
  O  O49  1  0.73666300  0.73666300  0.66169800  1
  O  O50  1  0.73646400  0.73646400  0.04569100  1
  O  O51  1  0.26353600  0.26353600  0.95430900  1
  O  O52  1  0.77205300  0.77205300  0.22939600  1
  O  O53  1  0.22794700  0.22794700  0.77060400  1
  O  O54  1  0.78350000  0.78350000  0.43920300  1
  O  O55  1  0.21650000  0.21650000  0.56079700  1
  O  O56  1  0.22314500  0.86802000  0.77898000  1
  O  O57  1  0.86802000  0.22314500  0.77898000  1
  O  O58  1  0.77685500  0.13198000  0.22102000  1
  O  O59  1  0.13198000  0.77685500  0.22102000  1
  O  O60  1  0.09216400  0.78115600  0.85941800  1
  O  O61  1  0.78115600  0.09216400  0.85941800  1
  O  O62  1  0.90783600  0.21884400  0.14058200  1
  O  O63  1  0.21884400  0.90783600  0.14058200  1
  O  O64  1  0.87041300  0.12958700  0.00000000  1
  O  O65  1  0.12958700  0.87041300  0.00000000  1
  O  O66  1  0.00340200  0.00340200  0.84052300  1
  O  O67  1  0.99659800  0.99659800  0.15947700  1
  O  O68  1  0.22078700  0.72391700  0.40864800  1
  O  O69  1  0.72391700  0.22078700  0.40864800  1
  O  O70  1  0.77921300  0.27608300  0.59135200  1
  O  O71  1  0.27608300  0.77921300  0.59135200  1
  O  O72  1  0.42918700  0.42918700  0.41593200  1
  O  O73  1  0.57081300  0.57081300  0.58406800  1
loop_
_geom_bond_atom_site_label_1
_geom_bond_atom_site_label_2
_geom_bond_distance
_geom_bond_site_symmetry_2
O0 Si23 1.625960 1_555
O0 Si0 1.634189 1_555
O1 Si23 1.625960 1_555
O1 Si1 1.634189 1_555
O2 Si22 1.625960 1_555
O2 Si2 1.634189 1_555
O3 Si22 1.625960 1_555
O3 Si3 1.634189 1_555
O4 Si0 1.624063 1_555
O4 Si12 1.626812 1_555
O5 Si1 1.624063 1_555
O5 Si13 1.626812 1_555
O6 Si2 1.624063 1_555
O6 Si14 1.626812 1_555
O7 Si3 1.624063 1_555
O7 Si15 1.626812 1_555
O8 Si4 1.615172 1_555
O8 Si0 1.621204 1_555
O9 Si5 1.615172 1_555
O9 Si1 1.621204 1_555
O10 Si6 1.615172 1_555
O10 Si2 1.621204 1_555
O11 Si7 1.615172 1_555
O11 Si3 1.621204 1_555
O12 Si0 1.639266 1_555
O12 Si10 1.639754 1_545
O13 Si1 1.639266 1_555
O13 Si11 1.639754 1_455
O14 Si2 1.639266 1_555
O14 Si8 1.639754 1_565
O15 Si3 1.639266 1_555
O15 Si9 1.639754 1_655
O16 Si27 1.631125 1_555
O16 Si4 1.633374 1_555
O17 Si27 1.631125 1_555
O17 Si5 1.633374 1_555
O18 Si26 1.631125 1_555
O18 Si6 1.633374 1_555
O19 Si26 1.631125 1_555
O19 Si7 1.633374 1_555
O20 Si4 1.627376 1_555
O20 Si6 1.627376 1_545
O21 Si5 1.627376 1_555
O21 Si7 1.627376 1_455
O22 Si16 1.633315 1_555
O22 Si4 1.633715 1_555
O23 Si17 1.633315 1_555
O23 Si5 1.633715 1_555
O24 Si18 1.633315 1_555
O24 Si6 1.633715 1_555
O25 Si19 1.633315 1_555
O25 Si7 1.633715 1_555
O26 Si12 1.622713 1_555
O26 Si8 1.622736 1_556
O27 Si13 1.622713 1_555
O27 Si9 1.622736 1_556
O28 Si14 1.622713 1_555
O28 Si10 1.622736 1_554
O29 Si15 1.622713 1_555
O29 Si11 1.622736 1_554
O30 Si8 1.611929 1_555
O30 Si20 1.612077 1_555
O31 Si9 1.611929 1_555
O31 Si20 1.612077 1_555
O32 Si10 1.611929 1_555
O32 Si21 1.612077 1_555
O33 Si11 1.611929 1_555
O33 Si21 1.612077 1_555
O34 Si16 1.618206 1_555
O34 Si8 1.621439 1_555
O35 Si17 1.618206 1_555
O35 Si9 1.621439 1_555
O36 Si18 1.618206 1_555
O36 Si10 1.621439 1_555
O37 Si19 1.618206 1_555
O37 Si11 1.621439 1_555
O38 Si28 1.612152 1_555
O38 Si12 1.621690 1_565
O39 Si28 1.612152 1_555
O39 Si13 1.621690 1_655
O40 Si29 1.612152 1_555
O40 Si14 1.621690 1_545
O41 Si29 1.612152 1_555
O41 Si15 1.621690 1_455
O42 Si24 1.607265 1_555
O42 Si16 1.618985 1_565
O43 Si24 1.607265 1_555
O43 Si17 1.618985 1_655
O44 Si25 1.607265 1_555
O44 Si18 1.618985 1_545
O45 Si25 1.607265 1_555
O45 Si19 1.618985 1_455
O46 Si29 1.639418 1_555
O46 Si20 1.640276 1_555
O47 Si28 1.639418 1_555
O47 Si21 1.640276 1_555
O48 Si20 1.627552 1_555
O48 Si27 1.627722 1_555
O49 Si21 1.627552 1_555
O49 Si26 1.627722 1_555
O50 Si28 1.624769 1_554
O50 Si22 1.627535 1_555
O51 Si29 1.624769 1_556
O51 Si23 1.627535 1_555
O52 Si24 1.614633 1_555
O52 Si22 1.624508 1_555
O53 Si25 1.614633 1_555
O53 Si23 1.624508 1_555
O54 Si24 1.628789 1_555
O54 Si26 1.630188 1_555
O55 Si25 1.628789 1_555
O55 Si27 1.630188 1_555
O56 Si18 1.622859 1_555
O56 Si30 1.636190 1_555
O57 Si19 1.622859 1_555
O57 Si31 1.636190 1_555
O58 Si16 1.622859 1_555
O58 Si32 1.636190 1_555
O59 Si17 1.622859 1_555
O59 Si33 1.636190 1_555
O60 Si13 1.619502 1_555
O60 Si30 1.624630 1_555
O61 Si12 1.619502 1_555
O61 Si31 1.624630 1_555
O62 Si15 1.619502 1_555
O62 Si32 1.624630 1_555
O63 Si14 1.619502 1_555
O63 Si33 1.624630 1_555
O64 Si32 1.640566 1_555
O64 Si31 1.640566 1_554
O65 Si33 1.640566 1_555
O65 Si30 1.640566 1_554
O66 Si31 1.640065 1_455
O66 Si30 1.640065 1_545
O67 Si32 1.640065 1_565
O67 Si33 1.640065 1_655
