# generated using pymatgen
data_BaSmCuBO5
_symmetry_space_group_name_H-M   'P 1'
_cell_length_a   5.52725900
_cell_length_b   5.52725900
_cell_length_c   7.58966700
_cell_angle_alpha   90.00000000
_cell_angle_beta   90.00000000
_cell_angle_gamma   90.00000000
_symmetry_Int_Tables_number   1
_chemical_formula_structural   BaSmCuBO5
_chemical_formula_sum   'Ba2 Sm2 Cu2 B2 O10'
_cell_volume   231.86882034
_cell_formula_units_Z   2
loop_
 _symmetry_equiv_pos_site_id
 _symmetry_equiv_pos_as_xyz
  1  'x, y, z'
loop_
 _atom_site_type_symbol
 _atom_site_label
 _atom_site_symmetry_multiplicity
 _atom_site_fract_x
 _atom_site_fract_y
 _atom_site_fract_z
 _atom_site_occupancy
  Ba  Ba0  1  0.00000000  0.00000000  0.00784700  1
  Ba  Ba1  1  0.50000000  0.50000000  0.00784700  1
  Sm  Sm0  1  0.00000000  0.00000000  0.51322400  1
  Sm  Sm1  1  0.50000000  0.50000000  0.51322400  1
  Cu  Cu0  1  0.50000000  0.00000000  0.73194000  1
  Cu  Cu1  1  0.00000000  0.50000000  0.73194000  1
  B  B0  1  0.50000000  0.00000000  0.25304700  1
  B  B1  1  0.00000000  0.50000000  0.25304700  1
  O  O0  1  0.15626300  0.65626300  0.34031800  1
  O  O1  1  0.84373700  0.34373700  0.34031800  1
  O  O2  1  0.34373700  0.15626300  0.34031800  1
  O  O3  1  0.65626300  0.84373700  0.34031800  1
  O  O4  1  0.50000000  0.00000000  0.06868500  1
  O  O5  1  0.00000000  0.50000000  0.06868500  1
  O  O6  1  0.25249500  0.75249500  0.71381000  1
  O  O7  1  0.74750500  0.24750500  0.71381000  1
  O  O8  1  0.24750500  0.25249500  0.71381000  1
  O  O9  1  0.75249500  0.74750500  0.71381000  1
loop_
_geom_bond_atom_site_label_1
_geom_bond_atom_site_label_2
_geom_bond_distance
_geom_bond_site_symmetry_2
Ba0 O4 2.801937 1_455
Ba0 O5 2.801937 1_545
Ba0 O4 2.801937 1_555
Ba0 O5 2.801937 1_555
Ba0 O8 2.966384 1_554
Ba0 O7 2.966384 1_454
Ba0 O6 2.966384 1_544
Ba0 O9 2.966384 1_444
Ba0 O2 3.274594 1_555
Ba0 O1 3.274594 1_455
Ba0 O0 3.274594 1_545
Ba0 O3 3.274594 1_445
Ba1 O5 2.801937 1_655
Ba1 O4 2.801937 1_555
Ba1 O4 2.801937 1_565
Ba1 O5 2.801937 1_555
Ba1 O9 2.966384 1_554
Ba1 O6 2.966384 1_554
Ba1 O7 2.966384 1_554
Ba1 O8 2.966384 1_554
Ba1 O3 3.274594 1_555
Ba1 O1 3.274594 1_555
Ba1 O0 3.274594 1_555
Ba1 O2 3.274594 1_555
Cu0 O7 1.939566 1_555
Cu0 O6 1.939566 1_545
Cu0 O9 1.978475 1_545
Cu0 O8 1.978475 1_555
Cu0 O4 2.555782 1_556
Cu1 O8 1.939566 1_555
Cu1 O9 1.939566 1_455
Cu1 O6 1.978475 1_555
Cu1 O7 1.978475 1_455
Cu1 O5 2.555782 1_556
B0 O3 1.389494 1_545
B0 O2 1.389494 1_555
B0 O4 1.399246 1_555
B1 O0 1.389494 1_555
B1 O1 1.389494 1_455
B1 O5 1.399246 1_555
O0 Sm1 2.465325 1_555
O0 Sm0 2.465325 1_565
O1 Sm0 2.465325 1_655
O1 Sm1 2.465325 1_555
O2 Sm0 2.465325 1_555
O2 Sm1 2.465325 1_555
O3 Sm1 2.465325 1_555
O3 Sm0 2.465325 1_665
O6 Sm0 2.477266 1_565
O6 Sm1 2.477266 1_555
O7 Sm0 2.477266 1_655
O7 Sm1 2.477266 1_555
O8 Sm0 2.477266 1_555
O8 Sm1 2.477266 1_555
O9 Sm1 2.477266 1_555
O9 Sm0 2.477266 1_665
