# generated using pymatgen
data_Sm6Mn23
_symmetry_space_group_name_H-M   'P 1'
_cell_length_a   8.51897077
_cell_length_b   8.51897077
_cell_length_c   8.51897077
_cell_angle_alpha   60.00000000
_cell_angle_beta   60.00000000
_cell_angle_gamma   60.00000000
_symmetry_Int_Tables_number   1
_chemical_formula_structural   Sm6Mn23
_chemical_formula_sum   'Sm6 Mn23'
_cell_volume   437.16600859
_cell_formula_units_Z   1
loop_
 _symmetry_equiv_pos_site_id
 _symmetry_equiv_pos_as_xyz
  1  'x, y, z'
loop_
 _atom_site_type_symbol
 _atom_site_label
 _atom_site_symmetry_multiplicity
 _atom_site_fract_x
 _atom_site_fract_y
 _atom_site_fract_z
 _atom_site_occupancy
  Sm  Sm0  1  0.70494600  0.29505400  0.29505400  1
  Sm  Sm1  1  0.70494600  0.29505400  0.70494600  1
  Sm  Sm2  1  0.70494600  0.70494600  0.29505400  1
  Sm  Sm3  1  0.29505400  0.70494600  0.70494600  1
  Sm  Sm4  1  0.29505400  0.70494600  0.29505400  1
  Sm  Sm5  1  0.29505400  0.29505400  0.70494600  1
  Mn  Mn0  1  0.00000000  0.00000000  0.00000000  1
  Mn  Mn1  1  0.50000000  0.00000000  0.00000000  1
  Mn  Mn2  1  0.50000000  0.00000000  0.50000000  1
  Mn  Mn3  1  0.50000000  0.50000000  0.00000000  1
  Mn  Mn4  1  0.00000000  0.50000000  0.50000000  1
  Mn  Mn5  1  0.00000000  0.50000000  0.00000000  1
  Mn  Mn6  1  0.00000000  0.00000000  0.50000000  1
  Mn  Mn7  1  0.63782100  0.12072600  0.12072600  1
  Mn  Mn8  1  0.12072600  0.63782100  0.12072600  1
  Mn  Mn9  1  0.12072600  0.12072600  0.63782100  1
  Mn  Mn10  1  0.12072600  0.12072600  0.12072600  1
  Mn  Mn11  1  0.36217900  0.87927400  0.87927400  1
  Mn  Mn12  1  0.87927400  0.36217900  0.87927400  1
  Mn  Mn13  1  0.87927400  0.87927400  0.36217900  1
  Mn  Mn14  1  0.87927400  0.87927400  0.87927400  1
  Mn  Mn15  1  0.03923100  0.32025600  0.32025600  1
  Mn  Mn16  1  0.32025600  0.03923100  0.32025600  1
  Mn  Mn17  1  0.32025600  0.32025600  0.03923100  1
  Mn  Mn18  1  0.32025600  0.32025600  0.32025600  1
  Mn  Mn19  1  0.96076900  0.67974400  0.67974400  1
  Mn  Mn20  1  0.67974400  0.96076900  0.67974400  1
  Mn  Mn21  1  0.67974400  0.67974400  0.96076900  1
  Mn  Mn22  1  0.67974400  0.67974400  0.67974400  1
loop_
_geom_bond_atom_site_label_1
_geom_bond_atom_site_label_2
_geom_bond_distance
_geom_bond_site_symmetry_2
Mn0 Mn10 2.519205 1_555
Mn0 Mn14 2.519205 1_444
Mn0 Mn12 2.519212 1_454
Mn0 Mn11 2.519212 1_544
Mn0 Mn13 2.519212 1_445
Mn0 Mn9 2.519212 1_554
Mn0 Mn8 2.519212 1_545
Mn0 Mn7 2.519212 1_455
Mn1 Mn21 2.474306 1_544
Mn1 Mn17 2.474306 1_555
Mn1 Mn20 2.474306 1_544
Mn1 Mn16 2.474306 1_555
Mn1 Mn7 2.639453 1_555
Mn1 Mn11 2.639453 1_544
Mn1 Mn10 2.639460 1_555
Mn1 Mn14 2.639460 1_544
Mn1 Sm2 3.060430 1_545
Mn1 Sm1 3.060430 1_554
Mn1 Sm5 3.060430 1_554
Mn1 Sm4 3.060430 1_545
Mn2 Mn22 2.474309 1_545
Mn2 Mn20 2.474313 1_545
Mn2 Mn9 2.639460 1_555
Mn2 Mn7 2.639460 1_555
Mn2 Sm5 3.060430 1_555
Mn2 Sm0 3.060430 1_555
Mn2 Sm2 3.060430 1_545
Mn2 Sm3 3.060430 1_545
Mn3 Mn7 2.639460 1_555
Mn3 Mn8 2.639460 1_555
Mn3 Sm0 3.060430 1_555
Mn3 Sm4 3.060430 1_555
Mn3 Sm1 3.060430 1_554
Mn3 Sm3 3.060430 1_554
Mn4 Mn9 2.639460 1_555
Mn4 Mn8 2.639460 1_555
Mn4 Sm5 3.060430 1_555
Mn4 Sm4 3.060430 1_555
Mn4 Sm2 3.060430 1_455
Mn4 Sm1 3.060430 1_455
Mn5 Mn8 2.639453 1_555
Mn5 Sm2 3.060430 1_455
Mn5 Sm3 3.060430 1_554
Mn5 Sm5 3.060430 1_554
Mn5 Sm0 3.060430 1_455
Mn6 Mn9 2.639453 1_555
Mn6 Sm1 3.060430 1_455
Mn6 Sm3 3.060430 1_545
Mn6 Sm0 3.060430 1_455
Mn6 Sm4 3.060430 1_545
Mn7 Sm2 2.939717 1_545
Mn7 Sm1 2.939717 1_554
Mn7 Sm0 2.939725 1_555
Mn8 Sm2 2.939717 1_455
Mn8 Sm3 2.939717 1_554
Mn8 Sm4 2.939725 1_555
Mn9 Sm3 2.939717 1_545
Mn9 Sm1 2.939717 1_455
Mn9 Sm5 2.939725 1_555
Mn10 Mn15 2.605701 1_555
Mn10 Mn16 2.605701 1_555
Mn10 Mn17 2.605701 1_555
Mn10 Mn6 2.639460 1_555
Mn10 Mn5 2.639460 1_555
Mn10 Mn12 2.908928 1_454
Mn10 Mn13 2.908928 1_445
Mn10 Mn11 2.908928 1_544
Mn10 Sm4 2.939719 1_545
Mn10 Sm0 2.939719 1_455
Mn10 Sm5 2.939719 1_554
Mn11 Mn22 2.605701 1_555
Mn11 Mn21 2.605701 1_555
Mn11 Mn20 2.605701 1_555
Mn11 Mn3 2.639460 1_556
Mn11 Mn2 2.639460 1_565
Mn11 Mn9 2.908940 1_565
Mn11 Mn8 2.908940 1_556
Mn11 Sm5 2.939717 1_565
Mn11 Sm4 2.939717 1_556
Mn11 Sm3 2.939725 1_555
Mn12 Mn22 2.605701 1_555
Mn12 Mn21 2.605701 1_555
Mn12 Mn19 2.605701 1_555
Mn12 Mn5 2.639453 1_656
Mn12 Mn3 2.639460 1_556
Mn12 Mn4 2.639460 1_655
Mn12 Mn7 2.908940 1_556
Mn12 Mn9 2.908940 1_655
Mn12 Sm5 2.939717 1_655
Mn12 Sm0 2.939717 1_556
Mn12 Sm1 2.939725 1_555
Mn13 Mn22 2.605701 1_555
Mn13 Mn19 2.605701 1_555
Mn13 Mn20 2.605701 1_555
Mn13 Mn6 2.639453 1_665
Mn13 Mn2 2.639460 1_565
Mn13 Mn4 2.639460 1_655
Mn13 Mn8 2.908940 1_655
Mn13 Mn7 2.908940 1_565
Mn13 Sm4 2.939717 1_655
Mn13 Sm0 2.939717 1_565
Mn13 Sm2 2.939725 1_555
Mn14 Mn19 2.605701 1_555
Mn14 Mn20 2.605701 1_555
Mn14 Mn21 2.605701 1_555
Mn14 Mn6 2.639460 1_665
Mn14 Mn5 2.639460 1_656
Mn14 Mn9 2.908928 1_665
Mn14 Mn8 2.908928 1_656
Mn14 Mn7 2.908928 1_566
Mn14 Sm1 2.939719 1_565
Mn14 Sm2 2.939719 1_556
Mn14 Sm3 2.939719 1_655
Mn15 Mn18 2.394044 1_555
Mn15 Mn17 2.394044 1_555
Mn15 Mn16 2.394044 1_555
Mn15 Mn6 2.474306 1_555
Mn15 Mn5 2.474306 1_555
Mn15 Mn4 2.474313 1_555
Mn15 Mn8 2.605701 1_555
Mn15 Mn9 2.605701 1_555
Mn15 Sm0 3.077474 1_455
Mn15 Sm1 3.077479 1_455
Mn15 Sm2 3.077479 1_455
Mn16 Mn18 2.394044 1_555
Mn16 Mn17 2.394044 1_555
Mn16 Mn6 2.474306 1_555
Mn16 Mn2 2.474313 1_555
Mn16 Mn7 2.605701 1_555
Mn16 Mn9 2.605701 1_555
Mn16 Sm4 3.077474 1_545
Mn16 Sm3 3.077479 1_545
Mn16 Sm2 3.077479 1_545
Mn17 Mn18 2.394044 1_555
Mn17 Mn5 2.474306 1_555
Mn17 Mn3 2.474313 1_555
Mn17 Mn7 2.605701 1_555
Mn17 Mn8 2.605701 1_555
Mn17 Sm5 3.077474 1_554
Mn17 Sm3 3.077479 1_554
Mn17 Sm1 3.077479 1_554
Mn18 Mn2 2.474309 1_555
Mn18 Mn3 2.474309 1_555
Mn18 Mn4 2.474309 1_555
Mn18 Mn7 2.605701 1_555
Mn18 Mn8 2.605701 1_555
Mn18 Mn9 2.605701 1_555
Mn18 Sm4 3.077482 1_555
Mn18 Sm5 3.077482 1_555
Mn18 Sm0 3.077482 1_555
Mn19 Mn21 2.394044 1_555
Mn19 Mn22 2.394044 1_555
Mn19 Mn20 2.394044 1_555
Mn19 Mn6 2.474306 1_665
Mn19 Mn5 2.474306 1_656
Mn19 Mn4 2.474313 1_655
Mn19 Sm3 3.077474 1_655
Mn19 Sm4 3.077479 1_655
Mn19 Sm5 3.077479 1_655
Mn20 Mn21 2.394044 1_555
Mn20 Mn22 2.394044 1_555
Mn20 Mn6 2.474306 1_665
Mn20 Sm1 3.077474 1_565
Mn20 Sm0 3.077479 1_565
Mn20 Sm5 3.077479 1_565
Mn21 Mn22 2.394044 1_555
Mn21 Mn5 2.474306 1_656
Mn21 Mn3 2.474313 1_556
Mn21 Sm2 3.077474 1_556
Mn21 Sm4 3.077479 1_556
Mn21 Sm0 3.077479 1_556
Mn22 Mn3 2.474309 1_556
Mn22 Mn4 2.474309 1_655
Mn22 Sm3 3.077482 1_555
Mn22 Sm2 3.077482 1_555
Mn22 Sm1 3.077482 1_555
