# generated using pymatgen
data_Ca(CoO2)2
_symmetry_space_group_name_H-M   'P 1'
_cell_length_a   2.90351506
_cell_length_b   8.77480142
_cell_length_c   10.26009863
_cell_angle_alpha   90.00000000
_cell_angle_beta   90.00000000
_cell_angle_gamma   90.00000000
_symmetry_Int_Tables_number   1
_chemical_formula_structural   Ca(CoO2)2
_chemical_formula_sum   'Ca4 Co8 O16'
_cell_volume   261.40441329
_cell_formula_units_Z   4
loop_
 _symmetry_equiv_pos_site_id
 _symmetry_equiv_pos_as_xyz
  1  'x, y, z'
loop_
 _atom_site_type_symbol
 _atom_site_label
 _atom_site_symmetry_multiplicity
 _atom_site_fract_x
 _atom_site_fract_y
 _atom_site_fract_z
 _atom_site_occupancy
  Ca  Ca0  1  0.75000000  0.76132215  0.66353599  1
  Ca  Ca1  1  0.25000000  0.23867785  0.33646401  1
  Ca  Ca2  1  0.75000000  0.26132215  0.83646401  1
  Ca  Ca3  1  0.25000000  0.73867785  0.16353599  1
  Co  Co0  1  0.75000000  0.94347912  0.88836087  1
  Co  Co1  1  0.25000000  0.05652088  0.11163913  1
  Co  Co2  1  0.75000000  0.44347912  0.61163913  1
  Co  Co3  1  0.25000000  0.55652088  0.38836087  1
  Co  Co4  1  0.75000000  0.91569911  0.40215212  1
  Co  Co5  1  0.25000000  0.08430089  0.59784788  1
  Co  Co6  1  0.75000000  0.41569911  0.09784788  1
  Co  Co7  1  0.25000000  0.58430089  0.90215212  1
  O  O0  1  0.75000000  0.69776317  0.34523699  1
  O  O1  1  0.25000000  0.30223683  0.65476301  1
  O  O2  1  0.75000000  0.19776317  0.15476301  1
  O  O3  1  0.25000000  0.80223683  0.84523699  1
  O  O4  1  0.75000000  0.61389547  0.02309795  1
  O  O5  1  0.25000000  0.38610453  0.97690205  1
  O  O6  1  0.75000000  0.11389547  0.47690205  1
  O  O7  1  0.25000000  0.88610453  0.52309795  1
  O  O8  1  0.75000000  0.53156357  0.78778520  1
  O  O9  1  0.25000000  0.46843643  0.21221480  1
  O  O10  1  0.75000000  0.03156357  0.71221480  1
  O  O11  1  0.25000000  0.96843643  0.28778520  1
  O  O12  1  0.75000000  0.91993361  0.07194668  1
  O  O13  1  0.25000000  0.08006639  0.92805332  1
  O  O14  1  0.75000000  0.41993361  0.42805332  1
  O  O15  1  0.25000000  0.58006639  0.57194668  1
loop_
_geom_bond_atom_site_label_1
_geom_bond_atom_site_label_2
_geom_bond_distance
_geom_bond_site_symmetry_2
Ca0 O7 2.320067 1_655
Ca0 O7 2.320067 1_555
Ca0 O15 2.349532 1_555
Ca0 O15 2.349532 1_655
Ca0 O8 2.385318 1_555
Ca0 O3 2.389979 1_555
Ca0 O3 2.389979 1_655
Ca0 O10 2.423341 1_565
Ca1 O6 2.320067 1_555
Ca1 O6 2.320067 1_455
Ca1 O14 2.349532 1_455
Ca1 O14 2.349532 1_555
Ca1 O9 2.385318 1_555
Ca1 O2 2.389979 1_455
Ca1 O2 2.389979 1_555
Ca1 O11 2.423341 1_545
Ca2 O5 2.320067 1_655
Ca2 O5 2.320067 1_555
Ca2 O13 2.349532 1_655
Ca2 O13 2.349532 1_555
Ca2 O10 2.385318 1_555
Ca2 O1 2.389979 1_555
Ca2 O1 2.389979 1_655
Ca2 O8 2.423341 1_555
Ca3 O4 2.320067 1_455
Ca3 O4 2.320067 1_555
Ca3 O12 2.349532 1_555
Ca3 O12 2.349532 1_455
Ca3 O11 2.385318 1_555
Ca3 O0 2.389979 1_555
Ca3 O0 2.389979 1_455
Ca3 O9 2.423341 1_555
Co0 O12 1.894906 1_556
Co0 O13 1.926114 1_565
Co0 O13 1.926114 1_665
Co0 O3 1.959442 1_555
Co0 O3 1.959442 1_655
Co0 O10 1.965619 1_565
Co1 O13 1.894906 1_554
Co1 O12 1.926114 1_445
Co1 O12 1.926114 1_545
Co1 O2 1.959442 1_455
Co1 O2 1.959442 1_555
Co1 O11 1.965619 1_545
Co2 O14 1.894906 1_555
Co2 O15 1.926114 1_655
Co2 O15 1.926114 1_555
Co2 O1 1.959442 1_655
Co2 O1 1.959442 1_555
Co2 O8 1.965619 1_555
Co3 O15 1.894906 1_555
Co3 O14 1.926114 1_455
Co3 O14 1.926114 1_555
Co3 O0 1.959442 1_455
Co3 O0 1.959442 1_555
Co3 O9 1.965619 1_555
Co4 O6 1.900733 1_565
Co4 O11 1.923188 1_655
Co4 O11 1.923188 1_555
Co4 O7 1.927410 1_655
Co4 O7 1.927410 1_555
Co4 O0 1.999516 1_555
Co5 O7 1.900733 1_545
Co5 O10 1.923188 1_455
Co5 O10 1.923188 1_555
Co5 O6 1.927410 1_455
Co5 O6 1.927410 1_555
Co5 O1 1.999516 1_555
Co6 O4 1.900733 1_555
Co6 O9 1.923188 1_555
Co6 O9 1.923188 1_655
Co6 O5 1.927410 1_554
Co6 O5 1.927410 1_654
Co6 O2 1.999516 1_555
Co7 O5 1.900733 1_555
Co7 O8 1.923188 1_455
Co7 O8 1.923188 1_555
Co7 O4 1.927410 1_456
Co7 O4 1.927410 1_556
Co7 O3 1.999516 1_555
