# generated using pymatgen
data_CeMg2
_symmetry_space_group_name_H-M   'P 1'
_cell_length_a   6.30218674
_cell_length_b   6.30218674
_cell_length_c   10.61790800
_cell_angle_alpha   90.00000000
_cell_angle_beta   90.00000000
_cell_angle_gamma   119.66816551
_symmetry_Int_Tables_number   1
_chemical_formula_structural   CeMg2
_chemical_formula_sum   'Ce4 Mg8'
_cell_volume   366.43303669
_cell_formula_units_Z   4
loop_
 _symmetry_equiv_pos_site_id
 _symmetry_equiv_pos_as_xyz
  1  'x, y, z'
loop_
 _atom_site_type_symbol
 _atom_site_label
 _atom_site_symmetry_multiplicity
 _atom_site_fract_x
 _atom_site_fract_y
 _atom_site_fract_z
 _atom_site_occupancy
  Ce  Ce0  1  0.66711000  0.33289000  0.56925900  1
  Ce  Ce1  1  0.33289000  0.66711000  0.43074100  1
  Ce  Ce2  1  0.33289000  0.66711000  0.06925900  1
  Ce  Ce3  1  0.66711000  0.33289000  0.93074100  1
  Mg  Mg0  1  0.00000000  0.00000000  0.50000000  1
  Mg  Mg1  1  0.00000000  0.00000000  0.00000000  1
  Mg  Mg2  1  0.17089900  0.34202200  0.75000000  1
  Mg  Mg3  1  0.17091900  0.82908100  0.75000000  1
  Mg  Mg4  1  0.65797800  0.82910100  0.75000000  1
  Mg  Mg5  1  0.82910100  0.65797800  0.25000000  1
  Mg  Mg6  1  0.82908100  0.17091900  0.25000000  1
  Mg  Mg7  1  0.34202200  0.17089900  0.25000000  1
loop_
_geom_bond_atom_site_label_1
_geom_bond_atom_site_label_2
_geom_bond_distance
_geom_bond_site_symmetry_2
Ce0 Mg4 3.685890 1_545
Ce0 Mg2 3.685890 1_655
Ce0 Mg4 3.693760 1_555
Ce0 Mg2 3.693760 1_555
Ce0 Mg0 3.701427 1_655
Ce0 Mg3 3.703214 1_545
Ce0 Mg3 3.703214 1_655
Ce0 Mg0 3.726424 1_555
Ce0 Mg0 3.726424 1_665
Ce0 Mg6 3.821861 1_555
Ce0 Mg5 3.828874 1_555
Ce0 Mg7 3.828874 1_555
Ce0 Ce3 3.838183 1_555
Ce0 Ce1 3.927888 1_555
Ce0 Ce1 3.931416 1_655
Ce0 Ce1 3.931416 1_545
Ce1 Mg7 3.685890 1_565
Ce1 Mg5 3.685890 1_455
Ce1 Mg5 3.693760 1_555
Ce1 Mg7 3.693760 1_555
Ce1 Mg0 3.701427 1_565
Ce1 Mg6 3.703214 1_565
Ce1 Mg6 3.703214 1_455
Ce1 Mg0 3.726424 1_555
Ce1 Mg0 3.726424 1_665
Ce1 Mg3 3.821861 1_555
Ce1 Mg4 3.828874 1_555
Ce1 Mg2 3.828874 1_555
Ce1 Ce2 3.838183 1_555
Ce2 Mg7 3.685890 1_565
Ce2 Mg5 3.685890 1_455
Ce2 Mg5 3.693760 1_555
Ce2 Mg7 3.693760 1_555
Ce2 Mg1 3.701427 1_565
Ce2 Mg6 3.703214 1_565
Ce2 Mg6 3.703214 1_455
Ce2 Mg1 3.726424 1_665
Ce2 Mg1 3.726424 1_555
Ce2 Mg3 3.821861 1_554
Ce2 Mg2 3.828874 1_554
Ce2 Mg4 3.828874 1_554
Ce2 Ce3 3.927888 1_554
Ce2 Ce3 3.931416 1_564
Ce2 Ce3 3.931416 1_454
Ce3 Mg4 3.685890 1_545
Ce3 Mg2 3.685890 1_655
Ce3 Mg4 3.693760 1_555
Ce3 Mg2 3.693760 1_555
Ce3 Mg1 3.701427 1_656
Ce3 Mg3 3.703214 1_545
Ce3 Mg3 3.703214 1_655
Ce3 Mg1 3.726424 1_666
Ce3 Mg1 3.726424 1_556
Ce3 Mg6 3.821861 1_556
Ce3 Mg5 3.828874 1_556
Ce3 Mg7 3.828874 1_556
Mg0 Mg6 3.242751 1_455
Mg0 Mg3 3.242751 1_545
Mg0 Mg2 3.248718 1_555
Mg0 Mg4 3.248718 1_445
Mg0 Mg7 3.248718 1_555
Mg0 Mg5 3.248718 1_445
Mg1 Mg6 3.242751 1_455
Mg1 Mg3 3.242751 1_544
Mg1 Mg2 3.248718 1_554
Mg1 Mg7 3.248718 1_555
Mg1 Mg5 3.248718 1_445
Mg1 Mg4 3.248718 1_444
Mg2 Mg3 3.069474 1_555
Mg2 Mg4 3.085046 1_555
Mg2 Mg3 3.232712 1_545
Mg2 Mg4 3.248724 1_445
Mg3 Mg4 3.069474 1_555
Mg3 Mg4 3.232712 1_455
Mg5 Mg6 3.069474 1_555
Mg5 Mg7 3.085046 1_555
Mg5 Mg6 3.232712 1_565
Mg5 Mg7 3.248724 1_665
Mg6 Mg7 3.069474 1_555
Mg6 Mg7 3.232712 1_655
