# generated using pymatgen
data_Zn5Pd3
_symmetry_space_group_name_H-M   'P 1'
_cell_length_a   3.04829748
_cell_length_b   3.04829748
_cell_length_c   12.07080296
_cell_angle_alpha   90.00000000
_cell_angle_beta   90.00000000
_cell_angle_gamma   90.00000000
_symmetry_Int_Tables_number   1
_chemical_formula_structural   Zn5Pd3
_chemical_formula_sum   'Zn5 Pd3'
_cell_volume   112.16331974
_cell_formula_units_Z   1
loop_
 _symmetry_equiv_pos_site_id
 _symmetry_equiv_pos_as_xyz
  1  'x, y, z'
loop_
 _atom_site_type_symbol
 _atom_site_label
 _atom_site_symmetry_multiplicity
 _atom_site_fract_x
 _atom_site_fract_y
 _atom_site_fract_z
 _atom_site_occupancy
  Zn  Zn0  1  -0.00000000  0.00000000  0.87322891  1
  Zn  Zn1  1  0.00000000  0.00000000  0.12677109  1
  Zn  Zn2  1  -0.00000000  0.00000000  0.37483773  1
  Zn  Zn3  1  0.00000000  0.00000000  0.62516227  1
  Zn  Zn4  1  0.50000000  0.50000000  0.00000000  1
  Pd  Pd0  1  0.50000000  0.50000000  0.24993503  1
  Pd  Pd1  1  0.50000000  0.50000000  0.50000000  1
  Pd  Pd2  1  0.50000000  0.50000000  0.75006497  1
loop_
_geom_bond_atom_site_label_1
_geom_bond_atom_site_label_2
_geom_bond_distance
_geom_bond_site_symmetry_2
Zn0 Zn4 2.643418 1_546
Zn0 Zn4 2.643418 1_556
Zn0 Zn4 2.643418 1_446
Zn0 Zn4 2.643418 1_456
Zn1 Zn4 2.643418 1_555
Zn1 Zn4 2.643418 1_455
Zn1 Zn4 2.643418 1_445
Zn1 Zn4 2.643418 1_545
Pd0 Zn1 2.618454 1_565
Pd0 Zn1 2.618454 1_665
Pd0 Zn1 2.618454 1_555
Pd0 Zn1 2.618454 1_655
Pd0 Zn2 2.630427 1_665
Pd0 Zn2 2.630427 1_565
Pd0 Zn2 2.630427 1_655
Pd0 Zn2 2.630427 1_555
Pd0 Zn4 3.016916 1_555
Pd1 Zn3 2.632224 1_565
Pd1 Zn3 2.632224 1_555
Pd1 Zn2 2.632224 1_665
Pd1 Zn3 2.632224 1_655
Pd1 Zn2 2.632224 1_565
Pd1 Zn2 2.632224 1_655
Pd1 Zn3 2.632224 1_665
Pd1 Zn2 2.632224 1_555
Pd2 Zn0 2.618454 1_665
Pd2 Zn0 2.618454 1_555
Pd2 Zn0 2.618454 1_565
Pd2 Zn0 2.618454 1_655
Pd2 Zn3 2.630427 1_555
Pd2 Zn3 2.630427 1_565
Pd2 Zn3 2.630427 1_655
Pd2 Zn3 2.630427 1_665
Pd2 Zn4 3.016916 1_556
