# generated using pymatgen
data_TlV2Cr3S8
_symmetry_space_group_name_H-M   'P 1'
_cell_length_a   8.97632751
_cell_length_b   8.97632751
_cell_length_c   8.72541179
_cell_angle_alpha   76.79653181
_cell_angle_beta   76.79653181
_cell_angle_gamma   22.37427030
_symmetry_Int_Tables_number   1
_chemical_formula_structural   TlV2Cr3S8
_chemical_formula_sum   'Tl1 V2 Cr3 S8'
_cell_volume   260.26274617
_cell_formula_units_Z   1
loop_
 _symmetry_equiv_pos_site_id
 _symmetry_equiv_pos_as_xyz
  1  'x, y, z'
loop_
 _atom_site_type_symbol
 _atom_site_label
 _atom_site_symmetry_multiplicity
 _atom_site_fract_x
 _atom_site_fract_y
 _atom_site_fract_z
 _atom_site_occupancy
  Tl  Tl0  1  0.00217900  0.00217900  0.99621300  1
  V  V0  1  0.85072100  0.85072100  0.48020800  1
  V  V1  1  0.49209300  0.49209300  0.49716600  1
  Cr  Cr0  1  0.79363200  0.79363200  0.83624000  1
  Cr  Cr1  1  0.20329700  0.20329700  0.16703100  1
  Cr  Cr2  1  0.15864100  0.15864100  0.52181600  1
  S  S0  1  0.58651500  0.58651500  0.66423200  1
  S  S1  1  0.41272800  0.41272800  0.31747200  1
  S  S2  1  0.26342700  0.26342700  0.65554700  1
  S  S3  1  0.73904500  0.73904500  0.34741800  1
  S  S4  1  0.66987300  0.66987300  0.01337200  1
  S  S5  1  0.32793200  0.32793200  0.98910500  1
  S  S6  1  0.92636300  0.92636300  0.66661900  1
  S  S7  1  0.07355300  0.07355300  0.34756100  1
loop_
_geom_bond_atom_site_label_1
_geom_bond_atom_site_label_2
_geom_bond_distance
_geom_bond_site_symmetry_2
Cr0 S5 2.356289 1_565
Cr0 S5 2.356289 1_655
Cr0 S4 2.360221 1_556
Cr0 S6 2.458401 1_555
Cr0 S2 2.488414 1_655
Cr0 S2 2.488414 1_565
Cr1 S4 2.354685 1_455
Cr1 S4 2.354685 1_545
Cr1 S5 2.375165 1_554
Cr1 S7 2.454862 1_555
Cr1 S3 2.523504 1_545
Cr1 S3 2.523504 1_455
Cr2 S0 2.335720 1_545
Cr2 S0 2.335720 1_455
Cr2 S7 2.370305 1_555
Cr2 S2 2.402076 1_555
Cr2 S3 2.519970 1_455
Cr2 S3 2.519970 1_545
S0 V1 2.453374 1_555
S1 V1 2.330777 1_555
S1 V0 2.349391 1_545
S1 V0 2.349391 1_455
S2 V0 2.577172 1_455
S2 V0 2.577172 1_545
S3 V0 2.504372 1_555
S6 V0 2.330071 1_555
S6 V1 2.400431 1_565
S6 V1 2.400431 1_655
S7 V1 2.433728 1_545
S7 V1 2.433728 1_455
