# generated using pymatgen
data_Sc2InAu2
_symmetry_space_group_name_H-M   'P 1'
_cell_length_a   7.63918416
_cell_length_b   7.63918416
_cell_length_c   6.94893155
_cell_angle_alpha   90.00000000
_cell_angle_beta   90.00000000
_cell_angle_gamma   90.00000000
_symmetry_Int_Tables_number   1
_chemical_formula_structural   Sc2InAu2
_chemical_formula_sum   'Sc8 In4 Au8'
_cell_volume   405.51973400
_cell_formula_units_Z   4
loop_
 _symmetry_equiv_pos_site_id
 _symmetry_equiv_pos_as_xyz
  1  'x, y, z'
loop_
 _atom_site_type_symbol
 _atom_site_label
 _atom_site_symmetry_multiplicity
 _atom_site_fract_x
 _atom_site_fract_y
 _atom_site_fract_z
 _atom_site_occupancy
  Sc  Sc0  1  0.15435192  0.15435192  0.00000000  1
  Sc  Sc1  1  0.84564808  0.84564808  0.00000000  1
  Sc  Sc2  1  0.65435192  0.34564808  0.50000000  1
  Sc  Sc3  1  0.34564808  0.65435192  0.50000000  1
  Sc  Sc4  1  0.67976517  0.32023483  0.00000000  1
  Sc  Sc5  1  0.32023483  0.67976517  0.00000000  1
  Sc  Sc6  1  0.82023483  0.82023483  0.50000000  1
  Sc  Sc7  1  0.17976517  0.17976517  0.50000000  1
  In  In0  1  0.50000000  -0.00000000  0.25000000  1
  In  In1  1  0.50000000  -0.00000000  0.75000000  1
  In  In2  1  0.00000000  0.50000000  0.25000000  1
  In  In3  1  0.00000000  0.50000000  0.75000000  1
  Au  Au0  1  0.36953832  0.36953832  0.22433879  1
  Au  Au1  1  0.63046168  0.63046168  0.77566121  1
  Au  Au2  1  0.63046168  0.63046168  0.22433879  1
  Au  Au3  1  0.86953832  0.13046168  0.72433879  1
  Au  Au4  1  0.86953832  0.13046168  0.27566121  1
  Au  Au5  1  0.36953832  0.36953832  0.77566121  1
  Au  Au6  1  0.13046168  0.86953832  0.27566121  1
  Au  Au7  1  0.13046168  0.86953832  0.72433879  1
loop_
_geom_bond_atom_site_label_1
_geom_bond_atom_site_label_2
_geom_bond_distance
_geom_bond_site_symmetry_2
Au0 Sc0 2.799052 1_555
Au0 Sc7 2.805827 1_555
Au0 Sc4 2.861539 1_555
Au0 Sc5 2.861539 1_555
Au0 Sc3 2.904566 1_555
Au0 Sc2 2.904566 1_555
Au0 In2 2.999036 1_555
Au0 In0 2.999036 1_555
Au1 Sc1 2.799052 1_556
Au1 Sc6 2.805827 1_555
Au1 Sc4 2.861539 1_556
Au1 Sc5 2.861539 1_556
Au1 Sc3 2.904566 1_555
Au1 Sc2 2.904566 1_555
Au1 In3 2.999036 1_655
Au1 In1 2.999036 1_565
Au2 Sc1 2.799052 1_555
Au2 Sc6 2.805827 1_555
Au2 Sc4 2.861539 1_555
Au2 Sc5 2.861539 1_555
Au2 Sc3 2.904566 1_555
Au2 Sc2 2.904566 1_555
Au2 In2 2.999036 1_655
Au2 In0 2.999036 1_565
Au3 Sc2 2.799052 1_555
Au3 Sc4 2.805827 1_556
Au3 Sc6 2.861539 1_545
Au3 Sc7 2.861539 1_655
Au3 Sc1 2.904566 1_546
Au3 Sc0 2.904566 1_656
Au3 In3 2.999036 1_655
Au3 In1 2.999036 1_555
Au4 Sc2 2.799052 1_555
Au4 Sc4 2.805827 1_555
Au4 Sc6 2.861539 1_545
Au4 Sc7 2.861539 1_655
Au4 Sc1 2.904566 1_545
Au4 Sc0 2.904566 1_655
Au4 In2 2.999036 1_655
Au4 In0 2.999036 1_555
Au5 Sc0 2.799052 1_556
Au5 Sc7 2.805827 1_555
Au5 Sc5 2.861539 1_556
Au5 Sc4 2.861539 1_556
Au5 Sc3 2.904566 1_555
Au5 Sc2 2.904566 1_555
Au5 In3 2.999036 1_555
Au5 In1 2.999036 1_555
Au6 Sc3 2.799052 1_555
Au6 Sc5 2.805827 1_555
Au6 Sc6 2.861539 1_455
Au6 Sc7 2.861539 1_565
Au6 Sc1 2.904566 1_455
Au6 Sc0 2.904566 1_565
Au6 In2 2.999036 1_555
Au6 In0 2.999036 1_565
Au7 Sc3 2.799052 1_555
Au7 Sc5 2.805827 1_556
Au7 Sc7 2.861539 1_565
Au7 Sc6 2.861539 1_455
Au7 Sc1 2.904566 1_456
Au7 Sc0 2.904566 1_566
Au7 In3 2.999036 1_555
Au7 In1 2.999036 1_565
