# generated using pymatgen
data_ScNi4Au
_symmetry_space_group_name_H-M   'P 1'
_cell_length_a   4.78600331
_cell_length_b   4.78596745
_cell_length_c   4.78596930
_cell_angle_alpha   60.00155878
_cell_angle_beta   60.00181624
_cell_angle_gamma   60.00179327
_symmetry_Int_Tables_number   1
_chemical_formula_structural   ScNi4Au
_chemical_formula_sum   'Sc1 Ni4 Au1'
_cell_volume   77.52015067
_cell_formula_units_Z   1
loop_
 _symmetry_equiv_pos_site_id
 _symmetry_equiv_pos_as_xyz
  1  'x, y, z'
loop_
 _atom_site_type_symbol
 _atom_site_label
 _atom_site_symmetry_multiplicity
 _atom_site_fract_x
 _atom_site_fract_y
 _atom_site_fract_z
 _atom_site_occupancy
  Sc  Sc0  1  0.99999484  0.00000337  0.00000250  1
  Ni  Ni0  1  0.62459668  0.62459700  0.12620934  1
  Ni  Ni1  1  0.62459677  0.12620916  0.62459698  1
  Ni  Ni2  1  0.12621072  0.62459587  0.62459672  1
  Ni  Ni3  1  0.62459591  0.62459447  0.62459526  1
  Au  Au0  1  0.25000309  0.24999814  0.24999820  1
loop_
_geom_bond_atom_site_label_1
_geom_bond_atom_site_label_2
_geom_bond_distance
_geom_bond_site_symmetry_2
Ni0 Ni3 2.385252 1_555
Ni0 Ni1 2.385324 1_555
Ni0 Ni2 2.385337 1_555
Ni0 Ni3 2.400717 1_554
Ni0 Ni1 2.400757 1_564
Ni0 Ni2 2.400780 1_654
Ni0 Sc0 2.806847 1_565
Ni0 Sc0 2.806878 1_555
Ni0 Sc0 2.806926 1_465
Ni1 Ni3 2.385250 1_555
Ni1 Ni2 2.385335 1_555
Ni1 Ni3 2.400718 1_545
Ni1 Ni2 2.400781 1_645
Ni1 Sc0 2.806845 1_556
Ni1 Sc0 2.806880 1_555
Ni1 Sc0 2.806925 1_456
Ni2 Ni3 2.385266 1_555
Ni2 Ni3 2.400737 1_455
Ni2 Sc0 2.806857 1_466
Ni2 Sc0 2.806884 1_456
Ni2 Sc0 2.806892 1_465
Ni3 Sc0 2.806908 1_556
Ni3 Sc0 2.806916 1_565
Ni3 Sc0 2.806965 1_466
Au0 Ni1 2.805201 1_555
Au0 Ni0 2.805201 1_555
Au0 Ni2 2.805202 1_555
Au0 Ni0 2.805239 1_545
Au0 Ni2 2.805241 1_554
Au0 Ni1 2.805241 1_554
Au0 Ni2 2.805244 1_545
Au0 Ni3 2.805266 1_554
Au0 Ni3 2.805268 1_545
Au0 Ni0 2.805276 1_455
Au0 Ni1 2.805276 1_455
Au0 Ni3 2.805298 1_455
Au0 Sc0 2.930759 1_455
Au0 Sc0 2.930853 1_555
Au0 Sc0 2.930874 1_456
Au0 Sc0 2.930876 1_465
