# generated using pymatgen
data_Zr6NiSb2
_symmetry_space_group_name_H-M   'P 1'
_cell_length_a   7.78443019
_cell_length_b   7.78443019
_cell_length_c   3.66847823
_cell_angle_alpha   90.00000000
_cell_angle_beta   90.00000000
_cell_angle_gamma   119.99999942
_symmetry_Int_Tables_number   1
_chemical_formula_structural   Zr6NiSb2
_chemical_formula_sum   'Zr6 Ni1 Sb2'
_cell_volume   192.51751054
_cell_formula_units_Z   1
loop_
 _symmetry_equiv_pos_site_id
 _symmetry_equiv_pos_as_xyz
  1  'x, y, z'
loop_
 _atom_site_type_symbol
 _atom_site_label
 _atom_site_symmetry_multiplicity
 _atom_site_fract_x
 _atom_site_fract_y
 _atom_site_fract_z
 _atom_site_occupancy
  Zr  Zr0  1  0.23970466  -0.00000000  0.50000000  1
  Zr  Zr1  1  -0.00000000  0.23970466  0.50000000  1
  Zr  Zr2  1  0.76029534  0.76029534  0.50000000  1
  Zr  Zr3  1  0.59753038  0.00000000  -0.00000000  1
  Zr  Zr4  1  0.00000000  0.59753038  0.00000000  1
  Zr  Zr5  1  0.40246962  0.40246962  -0.00000000  1
  Ni  Ni0  1  -0.00000000  0.00000000  0.00000000  1
  Sb  Sb0  1  0.33333300  0.66666700  0.50000000  1
  Sb  Sb1  1  0.66666700  0.33333300  0.50000000  1
loop_
_geom_bond_atom_site_label_1
_geom_bond_atom_site_label_2
_geom_bond_distance
_geom_bond_site_symmetry_2
Ni0 Zr0 2.616535 1_555
Ni0 Zr0 2.616535 1_554
Ni0 Zr1 2.616535 1_555
Ni0 Zr1 2.616535 1_554
Ni0 Zr2 2.616535 1_445
Ni0 Zr2 2.616535 1_444
Ni0 Zr3 3.132997 1_455
Ni0 Zr4 3.132997 1_545
Ni0 Zr5 3.132997 1_555
Sb0 Zr4 2.998434 1_556
Sb0 Zr4 2.998434 1_555
Sb0 Zr3 2.998436 1_566
Sb0 Zr3 2.998436 1_565
Sb0 Zr5 2.998440 1_556
Sb0 Zr5 2.998440 1_555
Sb0 Zr0 3.025797 1_565
Sb0 Zr1 3.025802 1_555
Sb0 Zr2 3.025804 1_555
Sb1 Zr3 2.998434 1_555
Sb1 Zr3 2.998434 1_556
Sb1 Zr4 2.998436 1_655
Sb1 Zr4 2.998436 1_656
Sb1 Zr5 2.998440 1_555
Sb1 Zr5 2.998440 1_556
Sb1 Zr1 3.025797 1_655
Sb1 Zr0 3.025802 1_555
Sb1 Zr2 3.025804 1_555
