# generated using pymatgen
data_Zn3TeP2Pb3O14
_symmetry_space_group_name_H-M   'P 1'
_cell_length_a   25.54870900
_cell_length_b   5.26602900
_cell_length_c   14.80734309
_cell_angle_alpha   89.91554608
_cell_angle_beta   90.00000000
_cell_angle_gamma   90.00000000
_symmetry_Int_Tables_number   1
_chemical_formula_structural   Zn3TeP2Pb3O14
_chemical_formula_sum   'Zn18 Te6 P12 Pb18 O84'
_cell_volume   1992.18136545
_cell_formula_units_Z   6
loop_
 _symmetry_equiv_pos_site_id
 _symmetry_equiv_pos_as_xyz
  1  'x, y, z'
loop_
 _atom_site_type_symbol
 _atom_site_label
 _atom_site_symmetry_multiplicity
 _atom_site_fract_x
 _atom_site_fract_y
 _atom_site_fract_z
 _atom_site_occupancy
  Zn  Zn0  1  0.42694100  0.50000000  0.00000000  1
  Zn  Zn1  1  0.92205600  0.50000000  0.50000000  1
  Zn  Zn2  1  0.08702600  0.50000000  0.00000000  1
  Zn  Zn3  1  0.58851300  0.50000000  0.50000000  1
  Zn  Zn4  1  0.75070300  0.50000000  0.00000000  1
  Zn  Zn5  1  0.25090200  0.50000000  0.50000000  1
  Zn  Zn6  1  0.96077600  0.49766900  0.12471000  1
  Zn  Zn7  1  0.96077600  0.50233100  0.87529000  1
  Zn  Zn8  1  0.46049000  0.50984500  0.62209000  1
  Zn  Zn9  1  0.46049000  0.49015500  0.37791000  1
  Zn  Zn10  1  0.29990900  0.50156300  0.12525900  1
  Zn  Zn11  1  0.29990900  0.49843700  0.87474100  1
  Zn  Zn12  1  0.79844000  0.49899400  0.62511400  1
  Zn  Zn13  1  0.79844000  0.50100600  0.37488600  1
  Zn  Zn14  1  0.62715500  0.49172900  0.12915600  1
  Zn  Zn15  1  0.62715500  0.50827100  0.87084400  1
  Zn  Zn16  1  0.12821200  0.49159400  0.62888500  1
  Zn  Zn17  1  0.12821200  0.50840600  0.37111500  1
  Te  Te0  1  0.34468000  0.00000000  0.00000000  1
  Te  Te1  1  0.84056700  0.00000000  0.50000000  1
  Te  Te2  1  0.00277000  0.00000000  0.00000000  1
  Te  Te3  1  0.50700500  0.00000000  0.50000000  1
  Te  Te4  1  0.66535400  0.00000000  0.00000000  1
  Te  Te5  1  0.16762000  0.00000000  0.50000000  1
  P  P0  1  0.83590900  0.54582500  0.16532600  1
  P  P1  1  0.83590900  0.45417500  0.83467400  1
  P  P2  1  0.33581300  0.45431500  0.33570300  1
  P  P3  1  0.33581300  0.54568500  0.66429700  1
  P  P4  1  0.17266000  0.54455300  0.16352500  1
  P  P5  1  0.17266000  0.45544700  0.83647500  1
  P  P6  1  0.67405200  0.45406300  0.33373000  1
  P  P7  1  0.67405200  0.54593700  0.66627000  1
  P  P8  1  0.50393300  0.49992900  0.17303400  1
  P  P9  1  0.50393300  0.50007100  0.82696600  1
  P  P10  1  0.00323600  0.45275500  0.33010900  1
  P  P11  1  0.00323600  0.54724500  0.66989100  1
  Pb  Pb0  1  0.52738000  0.00000000  0.00000000  1
  Pb  Pb1  1  0.03371200  0.00000000  0.50000000  1
  Pb  Pb2  1  0.20848400  0.00000000  0.00000000  1
  Pb  Pb3  1  0.70648700  0.00000000  0.50000000  1
  Pb  Pb4  1  0.86731000  0.00000000  0.00000000  1
  Pb  Pb5  1  0.37104100  0.00000000  0.50000000  1
  Pb  Pb6  1  0.90522800  0.99922700  0.29509300  1
  Pb  Pb7  1  0.90522800  0.00077300  0.70490700  1
  Pb  Pb8  1  0.40545500  0.99713100  0.78892600  1
  Pb  Pb9  1  0.40545500  0.00286900  0.21107400  1
  Pb  Pb10  1  0.23611600  0.00711500  0.29922400  1
  Pb  Pb11  1  0.23611600  0.99288500  0.70077600  1
  Pb  Pb12  1  0.73672900  0.00147900  0.80063100  1
  Pb  Pb13  1  0.73672900  0.99852100  0.19936900  1
  Pb  Pb14  1  0.57842800  0.01229400  0.29838800  1
  Pb  Pb15  1  0.57842800  0.98770600  0.70161200  1
  Pb  Pb16  1  0.07092300  0.00521200  0.80016900  1
  Pb  Pb17  1  0.07092300  0.99478800  0.19983100  1
  O  O0  1  0.28728800  0.20644000  0.04789000  1
  O  O1  1  0.28728800  0.79356000  0.95211000  1
  O  O2  1  0.35017300  0.22141800  0.89348800  1
  O  O3  1  0.35017300  0.77858200  0.10651200  1
  O  O4  1  0.39637900  0.20756700  0.06271500  1
  O  O5  1  0.39637900  0.79243300  0.93728500  1
  O  O6  1  0.78372100  0.21009100  0.54649500  1
  O  O7  1  0.78372100  0.78990900  0.45350500  1
  O  O8  1  0.84561900  0.21444200  0.39267600  1
  O  O9  1  0.84561900  0.78555800  0.60732400  1
  O  O10  1  0.89182900  0.20913400  0.56298500  1
  O  O11  1  0.89182900  0.79086600  0.43701500  1
  O  O12  1  0.94573500  0.20565000  0.04806300  1
  O  O13  1  0.94573500  0.79435000  0.95193700  1
  O  O14  1  0.05435600  0.21090500  0.06228900  1
  O  O15  1  0.05435600  0.78909500  0.93771100  1
  O  O16  1  0.00897000  0.21853300  0.89377700  1
  O  O17  1  0.00897000  0.78146700  0.10622300  1
  O  O18  1  0.44964300  0.20449700  0.54947200  1
  O  O19  1  0.44964300  0.79550300  0.45052800  1
  O  O20  1  0.51214300  0.22116000  0.39456300  1
  O  O21  1  0.51214300  0.77884000  0.60543700  1
  O  O22  1  0.55857500  0.20771900  0.56390600  1
  O  O23  1  0.55857500  0.79228100  0.43609400  1
  O  O24  1  0.60929500  0.21880700  0.04455800  1
  O  O25  1  0.60929500  0.78119300  0.95544200  1
  O  O26  1  0.67024500  0.20476200  0.88967900  1
  O  O27  1  0.67024500  0.79523800  0.11032100  1
  O  O28  1  0.71798800  0.21111600  0.06011200  1
  O  O29  1  0.71798800  0.78888400  0.93988800  1
  O  O30  1  0.11087500  0.20712800  0.54900100  1
  O  O31  1  0.11087500  0.79287200  0.45099900  1
  O  O32  1  0.17324500  0.21445900  0.39264300  1
  O  O33  1  0.17324500  0.78554100  0.60735700  1
  O  O34  1  0.21889200  0.21080000  0.56230500  1
  O  O35  1  0.21889200  0.78920000  0.43769500  1
  O  O36  1  0.83614000  0.25398400  0.16612900  1
  O  O37  1  0.83614000  0.74601600  0.83387100  1
  O  O38  1  0.88970300  0.66024000  0.13376500  1
  O  O39  1  0.88970300  0.33976000  0.86623500  1
  O  O40  1  0.79328400  0.65766900  0.10005100  1
  O  O41  1  0.79328400  0.34233100  0.89994900  1
  O  O42  1  0.82488300  0.66208000  0.26092700  1
  O  O43  1  0.82488300  0.33792000  0.73907300  1
  O  O44  1  0.33735200  0.74606100  0.33335900  1
  O  O45  1  0.33735200  0.25393900  0.66664100  1
  O  O46  1  0.29035900  0.34789800  0.39597800  1
  O  O47  1  0.29035900  0.65210200  0.60402200  1
  O  O48  1  0.32751200  0.33678100  0.23930500  1
  O  O49  1  0.32751200  0.66321900  0.76069500  1
  O  O50  1  0.38767500  0.33688100  0.37465200  1
  O  O51  1  0.38767500  0.66311900  0.62534800  1
  O  O52  1  0.17185400  0.25250400  0.16441400  1
  O  O53  1  0.17185400  0.74749600  0.83558600  1
  O  O54  1  0.13062700  0.66083400  0.09814700  1
  O  O55  1  0.13062700  0.33916600  0.90185300  1
  O  O56  1  0.16104300  0.65958000  0.25951600  1
  O  O57  1  0.16104300  0.34042000  0.74048400  1
  O  O58  1  0.22716500  0.65370700  0.13302000  1
  O  O59  1  0.22716500  0.34629300  0.86698000  1
  O  O60  1  0.67383600  0.74616600  0.33105000  1
  O  O61  1  0.67383600  0.25383400  0.66895000  1
  O  O62  1  0.63113700  0.34373900  0.39861900  1
  O  O63  1  0.63113700  0.65626100  0.60138100  1
  O  O64  1  0.66393800  0.33385700  0.23818300  1
  O  O65  1  0.66393800  0.66614300  0.76181700  1
  O  O66  1  0.72741200  0.34129100  0.36683400  1
  O  O67  1  0.72741200  0.65870900  0.63316600  1
  O  O68  1  0.50419000  0.20654700  0.16644100  1
  O  O69  1  0.50419000  0.79345300  0.83355900  1
  O  O70  1  0.48368000  0.62774600  0.08439500  1
  O  O71  1  0.48368000  0.37225400  0.91560500  1
  O  O72  1  0.46622900  0.59345900  0.24919300  1
  O  O73  1  0.46622900  0.40654100  0.75080700  1
  O  O74  1  0.56049800  0.60055900  0.19290500  1
  O  O75  1  0.56049800  0.39944100  0.80709500  1
  O  O76  1  0.00223000  0.74472600  0.32680900  1
  O  O77  1  0.00223000  0.25527400  0.67319100  1
  O  O78  1  0.96166700  0.33989000  0.39696700  1
  O  O79  1  0.96166700  0.66011000  0.60303300  1
  O  O80  1  0.99119900  0.33119000  0.23546400  1
  O  O81  1  0.99119900  0.66881000  0.76453600  1
  O  O82  1  0.05747700  0.34406400  0.36076500  1
  O  O83  1  0.05747700  0.65593600  0.63923500  1
loop_
_geom_bond_atom_site_label_1
_geom_bond_atom_site_label_2
_geom_bond_distance
_geom_bond_site_symmetry_2
O0 Te0 1.958818 1_555
O0 Zn10 1.958826 1_555
O0 Pb2 2.395933 1_555
O1 Te0 1.958818 1_566
O1 Zn11 1.958826 1_555
O1 Pb2 2.395933 1_566
O2 Zn11 1.962919 1_555
O2 Te0 1.965006 1_556
O2 Pb8 2.406742 1_545
O3 Zn10 1.962919 1_555
O3 Te0 1.965006 1_565
O3 Pb9 2.406742 1_565
O4 Te0 1.950580 1_555
O4 Zn0 1.959418 1_555
O4 Pb9 2.456562 1_555
O5 Te0 1.950580 1_566
O5 Zn0 1.959418 1_556
O5 Pb8 2.456562 1_555
O6 Te1 1.951802 1_555
O6 Zn12 1.953567 1_555
O6 Pb3 2.365135 1_555
O7 Te1 1.951802 1_565
O7 Zn13 1.953567 1_555
O7 Pb3 2.365135 1_565
O8 Zn13 1.948939 1_555
O8 Te1 1.952459 1_555
O8 Pb6 2.386724 1_545
O9 Zn12 1.948939 1_555
O9 Te1 1.952459 1_565
O9 Pb7 2.386724 1_565
O10 Te1 1.949609 1_555
O10 Zn1 1.951442 1_555
O10 Pb7 2.393860 1_555
O11 Te1 1.949609 1_565
O11 Zn1 1.951442 1_555
O11 Pb6 2.393860 1_555
O12 Te2 1.950619 1_655
O12 Zn6 1.950812 1_555
O12 Pb4 2.386674 1_555
O13 Te2 1.950619 1_666
O13 Zn7 1.950812 1_555
O13 Pb4 2.386674 1_566
O14 Te2 1.955564 1_555
O14 Zn2 1.964916 1_555
O14 Pb17 2.369686 1_545
O15 Te2 1.955564 1_566
O15 Zn2 1.964916 1_556
O15 Pb16 2.369686 1_565
O16 Te2 1.953983 1_556
O16 Zn7 1.955329 1_455
O16 Pb16 2.386015 1_555
O17 Te2 1.953983 1_565
O17 Zn6 1.955329 1_455
O17 Pb17 2.386015 1_555
O18 Zn8 1.955427 1_555
O18 Te3 1.961225 1_555
O18 Pb5 2.394039 1_555
O19 Zn9 1.955427 1_555
O19 Te3 1.961225 1_565
O19 Pb5 2.394039 1_565
O20 Te3 1.950826 1_555
O20 Zn9 1.951376 1_555
O20 Pb14 2.471915 1_555
O21 Te3 1.950826 1_565
O21 Zn8 1.951376 1_555
O21 Pb15 2.471915 1_555
O22 Te3 1.957279 1_555
O22 Zn3 1.960918 1_555
O22 Pb15 2.398002 1_545
O23 Te3 1.957279 1_565
O23 Zn3 1.960918 1_555
O23 Pb14 2.398002 1_565
O24 Te4 1.953592 1_555
O24 Zn14 1.961706 1_555
O24 Pb0 2.478937 1_555
O25 Te4 1.953592 1_566
O25 Zn15 1.961706 1_555
O25 Pb0 2.478937 1_566
O26 Te4 1.960009 1_556
O26 Zn15 1.960346 1_555
O26 Pb12 2.402895 1_555
O27 Te4 1.960009 1_565
O27 Zn14 1.960346 1_555
O27 Pb13 2.402895 1_555
O28 Zn4 1.949656 1_555
O28 Te4 1.959456 1_555
O28 Pb13 2.393273 1_545
O29 Zn4 1.949656 1_556
O29 Te4 1.959456 1_566
O29 Pb12 2.393273 1_565
O30 Te5 1.954563 1_555
O30 Zn16 1.960771 1_555
O30 Pb1 2.367485 1_555
O31 Te5 1.954563 1_565
O31 Zn17 1.960771 1_555
O31 Pb1 2.367485 1_565
O32 Te5 1.953930 1_555
O32 Zn17 1.954479 1_555
O32 Pb10 2.385424 1_555
O33 Te5 1.953930 1_565
O33 Zn16 1.954479 1_555
O33 Pb11 2.385424 1_555
O34 Te5 1.949964 1_555
O34 Zn5 1.958354 1_555
O34 Pb11 2.389071 1_545
O35 Te5 1.949964 1_565
O35 Zn5 1.958354 1_555
O35 Pb10 2.389071 1_565
O36 P0 1.536883 1_555
O37 P1 1.536883 1_555
O38 P0 1.571457 1_555
O38 Zn6 2.012075 1_555
O38 Pb4 2.727864 1_565
O39 P1 1.571457 1_555
O39 Zn7 2.012075 1_555
O39 Pb4 2.727864 1_556
O40 P0 1.570153 1_555
O40 Zn4 2.017752 1_555
O40 Pb13 2.734978 1_555
O41 P1 1.570153 1_555
O41 Zn4 2.017752 1_556
O41 Pb12 2.734978 1_555
O42 P0 1.568635 1_555
O42 Zn13 2.004768 1_555
O43 P1 1.568635 1_555
O43 Zn12 2.004768 1_555
O44 P2 1.537187 1_555
O44 Pb9 2.850921 1_565
O45 P3 1.537187 1_555
O45 Pb8 2.850921 1_545
O46 P2 1.567719 1_555
O46 Zn5 2.008458 1_555
O46 Pb10 2.683498 1_555
O47 P3 1.567719 1_555
O47 Zn5 2.008458 1_555
O47 Pb11 2.683498 1_555
O48 P2 1.571029 1_555
O48 Zn10 2.024295 1_555
O48 Pb9 2.689665 1_555
O49 P3 1.571029 1_555
O49 Zn11 2.024295 1_555
O49 Pb8 2.689665 1_555
O50 P2 1.571510 1_555
O50 Zn9 2.028485 1_555
O50 Pb5 2.600589 1_555
O51 P3 1.571510 1_555
O51 Zn8 2.028485 1_555
O51 Pb5 2.600589 1_565
O52 P4 1.538113 1_555
O53 P5 1.538113 1_555
O54 P4 1.569591 1_555
O54 Zn2 2.018395 1_555
O55 P5 1.569591 1_555
O55 Zn2 2.018395 1_556
O56 P4 1.574116 1_555
O56 Zn17 2.015974 1_555
O56 Pb10 2.716072 1_565
O57 P5 1.574116 1_555
O57 Zn16 2.015974 1_555
O57 Pb11 2.716072 1_545
O58 P4 1.572519 1_555
O58 Zn10 2.027183 1_555
O58 Pb2 2.724388 1_565
O59 P5 1.572519 1_555
O59 Zn11 2.027183 1_555
O59 Pb2 2.724388 1_556
O60 P6 1.538686 1_555
O61 P7 1.538686 1_555
O62 P6 1.568829 1_555
O62 Zn3 2.029830 1_555
O62 Pb14 2.658990 1_555
O63 P7 1.568829 1_555
O63 Zn3 2.029830 1_555
O63 Pb15 2.658990 1_555
O64 P6 1.572184 1_555
O64 Zn14 2.043681 1_555
O64 Pb13 2.628729 1_545
O65 P7 1.572184 1_555
O65 Zn15 2.043681 1_555
O65 Pb12 2.628729 1_565
O66 P6 1.565446 1_555
O66 Zn13 2.003732 1_555
O66 Pb3 2.719116 1_555
O67 P7 1.565446 1_555
O67 Zn12 2.003732 1_555
O67 Pb3 2.719116 1_565
O68 P8 1.548197 1_555
O68 Pb0 2.759707 1_555
O68 Pb9 2.819287 1_555
O69 P9 1.548197 1_555
O69 Pb0 2.759707 1_566
O69 Pb8 2.819287 1_555
O70 P8 1.562326 1_555
O70 Zn0 2.029298 1_555
O70 Pb0 2.577546 1_565
O71 P9 1.562326 1_555
O71 Zn0 2.029298 1_556
O71 Pb0 2.577546 1_556
O72 P8 1.563293 1_555
O72 Zn9 1.986719 1_555
O72 Pb9 2.715522 1_565
O73 P9 1.563293 1_555
O73 Zn8 1.986719 1_555
O73 Pb8 2.715522 1_545
O74 P8 1.567273 1_555
O74 Zn14 2.030098 1_555
O74 Pb14 2.713035 1_565
O75 P9 1.567273 1_555
O75 Zn15 2.030098 1_555
O75 Pb15 2.713035 1_545
O76 P10 1.538447 1_555
O77 P11 1.538447 1_555
O78 P10 1.568284 1_655
O78 Zn1 2.016542 1_555
O79 P11 1.568284 1_655
O79 Zn1 2.016542 1_555
O80 P10 1.571963 1_655
O80 Zn6 2.014446 1_555
O81 P11 1.571963 1_655
O81 Zn7 2.014446 1_555
O82 P10 1.566303 1_555
O82 Zn17 2.009670 1_555
O83 P11 1.566303 1_555
O83 Zn16 2.009670 1_555
