# generated using pymatgen
data_Pr(GePt)2
_symmetry_space_group_name_H-M   'P 1'
_cell_length_a   4.39648100
_cell_length_b   4.40647200
_cell_length_c   10.08314900
_cell_angle_alpha   90.00000000
_cell_angle_beta   90.00000000
_cell_angle_gamma   90.00000000
_symmetry_Int_Tables_number   1
_chemical_formula_structural   Pr(GePt)2
_chemical_formula_sum   'Pr2 Ge4 Pt4'
_cell_volume   195.34054737
_cell_formula_units_Z   2
loop_
 _symmetry_equiv_pos_site_id
 _symmetry_equiv_pos_as_xyz
  1  'x, y, z'
loop_
 _atom_site_type_symbol
 _atom_site_label
 _atom_site_symmetry_multiplicity
 _atom_site_fract_x
 _atom_site_fract_y
 _atom_site_fract_z
 _atom_site_occupancy
  Pr  Pr0  1  0.25682300  0.00000000  0.74717600  1
  Pr  Pr1  1  0.75682300  0.50000000  0.25282400  1
  Ge  Ge0  1  0.23310200  0.00000000  0.13147500  1
  Ge  Ge1  1  0.73310200  0.50000000  0.86852500  1
  Ge  Ge2  1  0.27530100  0.50000000  0.49960500  1
  Ge  Ge3  1  0.77530100  0.00000000  0.50039500  1
  Pt  Pt0  1  0.27540300  0.00000000  0.37672900  1
  Pt  Pt1  1  0.77540300  0.50000000  0.62327100  1
  Pt  Pt2  1  0.23137100  0.50000000  0.99953100  1
  Pt  Pt3  1  0.73137100  0.00000000  0.00046900  1
loop_
_geom_bond_atom_site_label_1
_geom_bond_atom_site_label_2
_geom_bond_distance
_geom_bond_site_symmetry_2
Pr0 Pt3 3.297831 1_556
Pr0 Pt1 3.300747 1_455
Pr0 Pt1 3.300747 1_445
Pr0 Pt2 3.367702 1_545
Pr0 Pt2 3.367702 1_555
Pr0 Pt1 3.407814 1_555
Pr0 Pt1 3.407814 1_545
Pr0 Pt3 3.443779 1_456
Pr1 Pt2 3.297831 1_654
Pr1 Pt0 3.300747 1_565
Pr1 Pt0 3.300747 1_555
Pr1 Pt3 3.367702 1_555
Pr1 Pt3 3.367702 1_565
Pr1 Pt0 3.407814 1_655
Pr1 Pt0 3.407814 1_665
Pr1 Pt2 3.443779 1_554
Ge0 Pt0 2.479916 1_555
Ge0 Pt3 2.558081 1_555
Ge0 Pt3 2.571127 1_455
Ge0 Pt2 2.573772 1_544
Ge0 Pt2 2.573772 1_554
Ge0 Pr1 3.276588 1_445
Ge0 Pr1 3.276588 1_455
Ge0 Pr1 3.413655 1_555
Ge0 Pr1 3.413655 1_545
Ge1 Pt1 2.479916 1_555
Ge1 Pt2 2.558081 1_655
Ge1 Pt2 2.571127 1_555
Ge1 Pt3 2.573772 1_556
Ge1 Pt3 2.573772 1_566
Ge1 Pr0 3.276588 1_565
Ge1 Pr0 3.276588 1_555
Ge1 Pr0 3.413655 1_655
Ge1 Pr0 3.413655 1_665
Ge2 Pt1 2.526887 1_455
Ge2 Pt1 2.527667 1_555
Ge2 Pt0 2.527709 1_555
Ge2 Pt0 2.527709 1_565
Ge2 Pr1 3.267030 1_555
Ge2 Pr0 3.330516 1_565
Ge2 Pr0 3.330516 1_555
Ge2 Pr1 3.374583 1_455
Ge3 Pt0 2.526887 1_555
Ge3 Pt0 2.527667 1_655
Ge3 Pt1 2.527709 1_545
Ge3 Pt1 2.527709 1_555
Ge3 Pr0 3.267030 1_655
Ge3 Pr1 3.330516 1_545
Ge3 Pr1 3.330516 1_555
Ge3 Pr0 3.374583 1_555
