# generated using pymatgen
data_Na2NiHgF6
_symmetry_space_group_name_H-M   'P 1'
_cell_length_a   6.04009300
_cell_length_b   6.04009277
_cell_length_c   6.04009233
_cell_angle_alpha   60.00000672
_cell_angle_beta   60.00000180
_cell_angle_gamma   60.00000421
_symmetry_Int_Tables_number   1
_chemical_formula_structural   Na2NiHgF6
_chemical_formula_sum   'Na2 Ni1 Hg1 F6'
_cell_volume   155.81736494
_cell_formula_units_Z   1
loop_
 _symmetry_equiv_pos_site_id
 _symmetry_equiv_pos_as_xyz
  1  'x, y, z'
loop_
 _atom_site_type_symbol
 _atom_site_label
 _atom_site_symmetry_multiplicity
 _atom_site_fract_x
 _atom_site_fract_y
 _atom_site_fract_z
 _atom_site_occupancy
  Na  Na0  1  0.25000000  0.25000000  0.25000000  1
  Na  Na1  1  0.75000000  0.75000000  0.75000000  1
  Ni  Ni0  1  0.00000000  0.00000000  0.00000000  1
  Hg  Hg0  1  0.50000000  0.50000000  0.50000000  1
  F  F0  1  0.23307500  0.76692500  0.23307500  1
  F  F1  1  0.76692500  0.76692500  0.23307500  1
  F  F2  1  0.76692500  0.23307500  0.76692500  1
  F  F3  1  0.76692500  0.23307500  0.23307500  1
  F  F4  1  0.23307500  0.76692500  0.76692500  1
  F  F5  1  0.23307500  0.23307500  0.76692500  1
loop_
_geom_bond_atom_site_label_1
_geom_bond_atom_site_label_2
_geom_bond_distance
_geom_bond_site_symmetry_2
F0 Ni0 1.990922 1_565
F0 Hg0 2.280068 1_555
F1 Ni0 1.990922 1_665
F1 Hg0 2.280068 1_555
F2 Ni0 1.990922 1_656
F2 Hg0 2.280068 1_555
F3 Ni0 1.990922 1_655
F3 Hg0 2.280068 1_555
F4 Ni0 1.990922 1_566
F4 Hg0 2.280068 1_555
F5 Ni0 1.990922 1_556
F5 Hg0 2.280068 1_555
