# generated using pymatgen
data_MgCr4Hg4(H2O9)2
_symmetry_space_group_name_H-M   'P 1'
_cell_length_a   6.67862958
_cell_length_b   6.43757296
_cell_length_c   15.49882571
_cell_angle_alpha   62.97864171
_cell_angle_beta   118.27097915
_cell_angle_gamma   129.28326177
_symmetry_Int_Tables_number   1
_chemical_formula_structural   MgCr4Hg4(H2O9)2
_chemical_formula_sum   'Mg1 Cr4 Hg4 H4 O18'
_cell_volume   442.44516864
_cell_formula_units_Z   1
loop_
 _symmetry_equiv_pos_site_id
 _symmetry_equiv_pos_as_xyz
  1  'x, y, z'
loop_
 _atom_site_type_symbol
 _atom_site_label
 _atom_site_symmetry_multiplicity
 _atom_site_fract_x
 _atom_site_fract_y
 _atom_site_fract_z
 _atom_site_occupancy
  Mg  Mg0  1  0.68147100  0.30390700  0.36363700  1
  Cr  Cr0  1  0.73218500  0.32551900  0.59572000  1
  Cr  Cr1  1  0.36268100  0.74482700  0.90497300  1
  Cr  Cr2  1  0.27705900  0.66487000  0.41712400  1
  Cr  Cr3  1  0.66403300  0.24119100  0.09507500  1
  Hg  Hg0  1  0.94940500  0.93513000  0.63126300  1
  Hg  Hg1  1  0.93570300  0.96232000  0.85561700  1
  Hg  Hg2  1  0.03998200  0.00421800  0.40476000  1
  Hg  Hg3  1  0.05644400  0.05462500  0.10557400  1
  H  H0  1  0.54303200  0.39257000  0.79730100  1
  H  H1  1  0.40412300  0.54943600  0.71684300  1
  H  H2  1  0.30827200  0.45868500  0.24094800  1
  H  H3  1  0.56526000  0.65553300  0.20188300  1
  O  O0  1  0.97068300  0.21534700  0.67101000  1
  O  O1  1  0.24267600  0.95996600  0.84350700  1
  O  O2  1  0.99266700  0.69630500  0.37535200  1
  O  O3  1  0.79104300  0.02380400  0.15314300  1
  O  O4  1  0.52383800  0.16435100  0.66222800  1
  O  O5  1  0.21363700  0.52137100  0.83998000  1
  O  O6  1  0.46775200  0.91951900  0.33686700  1
  O  O7  1  0.80629700  0.45005500  0.16583900  1
  O  O8  1  0.94846200  0.69224600  0.57865600  1
  O  O9  1  0.70858800  0.94351000  0.92253700  1
  O  O10  1  0.02283200  0.31569000  0.39742300  1
  O  O11  1  0.32061400  0.04286300  0.07482000  1
  O  O12  1  0.57510300  0.24897200  0.47738600  1
  O  O13  1  0.30257000  0.57943400  0.01499200  1
  O  O14  1  0.41952300  0.64940300  0.53631900  1
  O  O15  1  0.73464800  0.42112200  0.98883600  1
  O  O16  1  0.58240600  0.57775600  0.75726500  1
  O  O17  1  0.45701300  0.46545500  0.23979000  1
loop_
_geom_bond_atom_site_label_1
_geom_bond_atom_site_label_2
_geom_bond_distance
_geom_bond_site_symmetry_2
Mg0 O12 2.009861 1_555
Mg0 O2 2.035850 1_555
Mg0 O10 2.040533 1_655
Mg0 O6 2.057190 1_545
Mg0 O17 2.108969 1_555
Cr0 O4 1.622952 1_555
Cr0 O12 1.746722 1_555
Cr0 O8 1.790587 1_555
Cr0 O0 1.821995 1_555
Cr1 O5 1.621244 1_555
Cr1 O13 1.630925 1_556
Cr1 O1 1.718003 1_555
Cr1 O9 1.739520 1_555
Cr2 O14 1.617340 1_555
Cr2 O6 1.691343 1_555
Cr2 O2 1.808440 1_455
Cr2 O10 1.824419 1_555
Cr3 O15 1.608158 1_554
Cr3 O7 1.627453 1_555
Cr3 O11 1.721359 1_555
Cr3 O3 1.767364 1_555
Hg0 O8 2.061719 1_555
Hg0 O0 2.063010 1_565
Hg1 O9 2.129488 1_555
Hg1 O1 2.155237 1_655
Hg1 O16 2.577741 1_555
Hg1 O0 2.609748 1_565
Hg2 O10 2.029255 1_555
Hg2 O2 2.031767 1_445
Hg2 O8 2.599761 1_445
Hg2 O12 2.681841 1_555
Hg3 O11 2.084285 1_555
Hg3 O3 2.093894 1_455
H0 O16 0.980220 1_555
H1 O16 0.982715 1_555
H2 O17 0.974880 1_555
H3 O17 0.997009 1_555
