# generated using pymatgen
data_BaLuCo4O7
_symmetry_space_group_name_H-M   'P 1'
_cell_length_a   6.33657790
_cell_length_b   6.33657790
_cell_length_c   10.31184715
_cell_angle_alpha   89.80104355
_cell_angle_beta   89.80104355
_cell_angle_gamma   120.32561318
_symmetry_Int_Tables_number   1
_chemical_formula_structural   BaLuCo4O7
_chemical_formula_sum   'Ba2 Lu2 Co8 O14'
_cell_volume   357.38123535
_cell_formula_units_Z   2
loop_
 _symmetry_equiv_pos_site_id
 _symmetry_equiv_pos_as_xyz
  1  'x, y, z'
loop_
 _atom_site_type_symbol
 _atom_site_label
 _atom_site_symmetry_multiplicity
 _atom_site_fract_x
 _atom_site_fract_y
 _atom_site_fract_z
 _atom_site_occupancy
  Ba  Ba0  1  0.67322800  0.33667900  0.00308000  1
  Ba  Ba1  1  0.33667900  0.67322800  0.50308000  1
  Lu  Lu0  1  0.66783800  0.33115300  0.37869100  1
  Lu  Lu1  1  0.33115300  0.66783800  0.87869100  1
  Co  Co0  1  0.00137000  0.00349700  0.94259700  1
  Co  Co1  1  0.00349700  0.00137000  0.44259700  1
  Co  Co2  1  0.34490800  0.18373000  0.68848200  1
  Co  Co3  1  0.18373000  0.34490800  0.18848200  1
  Co  Co4  1  0.65838400  0.84591700  0.18805800  1
  Co  Co5  1  0.84591700  0.65838400  0.68805800  1
  Co  Co6  1  0.82052100  0.16200300  0.68483400  1
  Co  Co7  1  0.16200300  0.82052100  0.18483400  1
  O  O0  1  0.99091100  0.48020400  0.76567800  1
  O  O1  1  0.48020400  0.99091100  0.26567800  1
  O  O2  1  0.98721500  0.46889200  0.24329900  1
  O  O3  1  0.46889200  0.98721500  0.74329900  1
  O  O4  1  0.49802100  0.50817900  0.74625100  1
  O  O5  1  0.50817900  0.49802100  0.24625100  1
  O  O6  1  0.00841100  0.00473700  0.74783400  1
  O  O7  1  0.00473700  0.00841100  0.24783400  1
  O  O8  1  0.66324100  0.88811800  0.99818600  1
  O  O9  1  0.88811800  0.66324100  0.49818600  1
  O  O10  1  0.79133200  0.12706200  0.49774100  1
  O  O11  1  0.12706200  0.79133200  0.99774100  1
  O  O12  1  0.34150900  0.22294100  0.50616800  1
  O  O13  1  0.22294100  0.34150900  0.00616800  1
loop_
_geom_bond_atom_site_label_1
_geom_bond_atom_site_label_2
_geom_bond_distance
_geom_bond_site_symmetry_2
Ba0 O8 2.811554 1_544
Ba0 O11 2.864320 1_654
Ba0 O13 2.868921 1_555
Ba0 O0 2.995647 1_554
Ba0 O2 3.026853 1_555
Ba0 O5 3.083196 1_555
Ba0 O4 3.262859 1_554
Ba0 O1 3.295243 1_545
Ba0 O3 3.305462 1_544
Ba1 O9 2.811554 1_455
Ba1 O10 2.864320 1_565
Ba1 O12 2.868921 1_555
Ba1 O1 2.995647 1_555
Ba1 O3 3.026853 1_555
Ba1 O4 3.083196 1_555
Ba1 O5 3.262859 1_555
Ba1 O0 3.295243 1_455
Ba1 O2 3.305462 1_455
Lu0 O10 2.193050 1_555
Lu0 O1 2.204188 1_545
Lu0 O9 2.226794 1_555
Lu0 O2 2.234907 1_555
Lu0 O12 2.239872 1_555
Lu0 O5 2.255329 1_555
Lu1 O11 2.193050 1_555
Lu1 O0 2.204188 1_455
Lu1 O8 2.226794 1_555
Lu1 O3 2.234907 1_555
Lu1 O13 2.239872 1_556
Lu1 O4 2.255329 1_555
Co0 O11 1.960668 1_545
Co0 O8 1.964807 1_445
Co0 O13 1.991951 1_556
Co0 O6 2.008607 1_555
Co1 O10 1.960668 1_455
Co1 O9 1.964807 1_445
Co1 O12 1.991951 1_555
Co1 O7 2.008607 1_555
Co2 O3 1.863721 1_545
Co2 O4 1.876472 1_555
Co2 O12 1.897108 1_555
Co2 O6 1.936853 1_555
Co3 O2 1.863721 1_455
Co3 O5 1.876472 1_555
Co3 O13 1.897108 1_555
Co3 O7 1.936853 1_555
Co4 O1 1.950870 1_555
Co4 O8 1.973217 1_554
Co4 O7 1.997157 1_665
Co4 O5 1.998430 1_555
Co5 O0 1.950870 1_555
Co5 O9 1.973217 1_555
Co5 O6 1.997157 1_665
Co5 O4 1.998430 1_555
Co6 O0 1.935391 1_555
Co6 O10 1.941500 1_555
Co6 O6 2.007877 1_655
Co6 O3 2.012137 1_545
Co7 O1 1.935391 1_555
Co7 O11 1.941500 1_554
Co7 O7 2.007877 1_565
Co7 O2 2.012137 1_455
