# generated using pymatgen
data_AlCu3(AgO3)4
_symmetry_space_group_name_H-M   'P 1'
_cell_length_a   6.67420144
_cell_length_b   6.67420144
_cell_length_c   6.67420144
_cell_angle_alpha   109.47122063
_cell_angle_beta   109.47122063
_cell_angle_gamma   109.47122063
_symmetry_Int_Tables_number   1
_chemical_formula_structural   AlCu3(AgO3)4
_chemical_formula_sum   'Al1 Cu3 Ag4 O12'
_cell_volume   228.86323949
_cell_formula_units_Z   1
loop_
 _symmetry_equiv_pos_site_id
 _symmetry_equiv_pos_as_xyz
  1  'x, y, z'
loop_
 _atom_site_type_symbol
 _atom_site_label
 _atom_site_symmetry_multiplicity
 _atom_site_fract_x
 _atom_site_fract_y
 _atom_site_fract_z
 _atom_site_occupancy
  Al  Al0  1  0.00000000  0.00000000  0.00000000  1
  Cu  Cu0  1  0.00000000  0.50000000  0.50000000  1
  Cu  Cu1  1  0.50000000  0.00000000  0.50000000  1
  Cu  Cu2  1  0.50000000  0.50000000  0.00000000  1
  Ag  Ag0  1  0.00000000  0.00000000  0.50000000  1
  Ag  Ag1  1  0.00000000  0.50000000  0.00000000  1
  Ag  Ag2  1  0.50000000  0.00000000  0.00000000  1
  Ag  Ag3  1  0.50000000  0.50000000  0.50000000  1
  O  O0  1  0.30898600  0.15362400  0.84463800  1
  O  O1  1  0.69101400  0.84637600  0.15536200  1
  O  O2  1  0.69101400  0.53565200  0.84463800  1
  O  O3  1  0.46434800  0.15536200  0.30898600  1
  O  O4  1  0.15536200  0.30898600  0.46434800  1
  O  O5  1  0.84463800  0.30898600  0.15362400  1
  O  O6  1  0.84637600  0.15536200  0.69101400  1
  O  O7  1  0.84463800  0.69101400  0.53565200  1
  O  O8  1  0.30898600  0.46434800  0.15536200  1
  O  O9  1  0.53565200  0.84463800  0.69101400  1
  O  O10  1  0.15536200  0.69101400  0.84637600  1
  O  O11  1  0.15362400  0.84463800  0.30898600  1
loop_
_geom_bond_atom_site_label_1
_geom_bond_atom_site_label_2
_geom_bond_distance
_geom_bond_site_symmetry_2
Cu0 O7 1.897535 1_455
Cu0 O4 1.897535 1_555
Cu0 O10 1.897535 1_555
Cu0 O5 1.897535 1_455
Cu1 O3 1.897535 1_555
Cu1 O9 1.897535 1_545
Cu1 O6 1.897535 1_555
Cu1 O11 1.897535 1_545
Cu2 O1 1.897535 1_555
Cu2 O8 1.897535 1_555
Cu2 O2 1.897535 1_554
Cu2 O0 1.897535 1_554
Ag0 O11 2.109663 1_545
Ag0 O6 2.109663 1_455
Ag0 O4 2.109663 1_555
Ag0 O7 2.109663 1_445
Ag0 O1 2.109663 1_445
Ag0 O0 2.109663 1_555
Ag1 O5 2.109663 1_455
Ag1 O10 2.109663 1_554
Ag1 O6 2.109663 1_454
Ag1 O2 2.109663 1_454
Ag1 O8 2.109663 1_555
Ag1 O11 2.109663 1_555
Ag2 O0 2.109663 1_554
Ag2 O9 2.109663 1_544
Ag2 O3 2.109663 1_555
Ag2 O1 2.109663 1_545
Ag2 O10 2.109663 1_544
Ag2 O5 2.109663 1_555
Ag3 O7 2.109663 1_555
Ag3 O4 2.109663 1_555
Ag3 O3 2.109663 1_555
Ag3 O9 2.109663 1_555
Ag3 O8 2.109663 1_555
Ag3 O2 2.109663 1_555
