# generated using pymatgen
data_Tm4US7
_symmetry_space_group_name_H-M   'P 1'
_cell_length_a   6.61896684
_cell_length_b   6.61896684
_cell_length_c   11.56482131
_cell_angle_alpha   75.81335904
_cell_angle_beta   75.81335904
_cell_angle_gamma   32.84108152
_symmetry_Int_Tables_number   1
_chemical_formula_structural   Tm4US7
_chemical_formula_sum   'Tm4 U1 S7'
_cell_volume   265.64886306
_cell_formula_units_Z   1
loop_
 _symmetry_equiv_pos_site_id
 _symmetry_equiv_pos_as_xyz
  1  'x, y, z'
loop_
 _atom_site_type_symbol
 _atom_site_label
 _atom_site_symmetry_multiplicity
 _atom_site_fract_x
 _atom_site_fract_y
 _atom_site_fract_z
 _atom_site_occupancy
  Tm  Tm0  1  0.69961400  0.69961400  0.18735200  1
  Tm  Tm1  1  0.30177000  0.30177000  0.81159800  1
  Tm  Tm2  1  0.11791900  0.11791900  0.57747900  1
  Tm  Tm3  1  0.99983600  0.99983600  0.99740100  1
  U  U0  1  0.88428200  0.88428200  0.42392100  1
  S  S0  1  0.73902600  0.73902600  0.65379300  1
  S  S1  1  0.25381900  0.25381900  0.34844500  1
  S  S2  1  0.04106600  0.04106600  0.21212700  1
  S  S3  1  0.95950100  0.95950100  0.78445400  1
  S  S4  1  0.50236400  0.50236400  0.50339900  1
  S  S5  1  0.34142000  0.34142000  0.05039600  1
  S  S6  1  0.65938300  0.65938300  0.94963600  1
loop_
_geom_bond_atom_site_label_1
_geom_bond_atom_site_label_2
_geom_bond_distance
_geom_bond_site_symmetry_2
S0 Tm2 2.708927 1_565
S0 Tm2 2.708927 1_655
S0 U0 2.821990 1_555
S0 Tm1 2.865189 1_565
S0 Tm1 2.865189 1_655
S1 Tm2 2.767308 1_555
S1 U0 2.783192 1_545
S1 U0 2.783192 1_455
S1 Tm0 2.846188 1_545
S1 Tm0 2.846188 1_455
S2 Tm3 2.665532 1_444
S2 Tm0 2.709507 1_545
S2 Tm0 2.709507 1_455
S2 U0 2.733314 1_445
S3 Tm3 2.640403 1_555
S3 Tm1 2.699943 1_655
S3 Tm1 2.699943 1_565
S3 Tm2 2.704712 1_665
S4 Tm2 2.651476 1_655
S4 Tm2 2.651476 1_565
S4 U0 2.701530 1_455
S4 U0 2.701530 1_545
S5 Tm3 2.700553 1_454
S5 Tm3 2.700553 1_544
S5 Tm0 2.791875 1_455
S5 Tm0 2.791875 1_545
S5 Tm1 2.930998 1_554
S6 Tm3 2.708986 1_545
S6 Tm3 2.708986 1_455
S6 Tm1 2.800617 1_565
S6 Tm1 2.800617 1_655
S6 Tm0 2.921715 1_556
