# generated using pymatgen
data_Tm(AlGe)2
_symmetry_space_group_name_H-M   'P 1'
_cell_length_a   4.22015141
_cell_length_b   4.22014781
_cell_length_c   6.52329030
_cell_angle_alpha   90.00014590
_cell_angle_beta   89.99997312
_cell_angle_gamma   119.99946418
_symmetry_Int_Tables_number   1
_chemical_formula_structural   Tm(AlGe)2
_chemical_formula_sum   'Tm1 Al2 Ge2'
_cell_volume   100.61329638
_cell_formula_units_Z   1
loop_
 _symmetry_equiv_pos_site_id
 _symmetry_equiv_pos_as_xyz
  1  'x, y, z'
loop_
 _atom_site_type_symbol
 _atom_site_label
 _atom_site_symmetry_multiplicity
 _atom_site_fract_x
 _atom_site_fract_y
 _atom_site_fract_z
 _atom_site_occupancy
  Tm  Tm0  1  0.00002343  0.00001953  0.00000704  1
  Al  Al0  1  0.66665986  0.33332524  0.35353053  1
  Al  Al1  1  0.33332560  0.66665967  0.64646744  1
  Ge  Ge0  1  0.66666223  0.33333086  0.74455177  1
  Ge  Ge1  1  0.33332888  0.66666370  0.25544322  1
loop_
_geom_bond_atom_site_label_1
_geom_bond_atom_site_label_2
_geom_bond_distance
_geom_bond_site_symmetry_2
Al0 Ge1 2.519112 1_545
Al0 Ge1 2.519124 1_555
Al0 Ge1 2.519142 1_655
Al0 Ge0 2.550745 1_555
Al1 Ge0 2.519105 1_555
Al1 Ge0 2.519118 1_455
Al1 Ge0 2.519141 1_565
Al1 Ge1 2.550765 1_555
Ge0 Tm0 2.951788 1_556
Ge0 Tm0 2.951874 1_656
Ge0 Tm0 2.951932 1_666
Ge1 Tm0 2.951727 1_555
Ge1 Tm0 2.951770 1_565
Ge1 Tm0 2.951886 1_665
