# generated using pymatgen
data_K6Te3(H8O7)4
_symmetry_space_group_name_H-M   'P 1'
_cell_length_a   8.16066967
_cell_length_b   9.34313135
_cell_length_c   10.28043837
_cell_angle_alpha   101.91143083
_cell_angle_beta   106.78901273
_cell_angle_gamma   95.86402284
_symmetry_Int_Tables_number   1
_chemical_formula_structural   K6Te3(H8O7)4
_chemical_formula_sum   'K6 Te3 H32 O28'
_cell_volume   723.24066159
_cell_formula_units_Z   1
loop_
 _symmetry_equiv_pos_site_id
 _symmetry_equiv_pos_as_xyz
  1  'x, y, z'
loop_
 _atom_site_type_symbol
 _atom_site_label
 _atom_site_symmetry_multiplicity
 _atom_site_fract_x
 _atom_site_fract_y
 _atom_site_fract_z
 _atom_site_occupancy
  K  K0  1  0.38258300  0.80824000  0.04479300  1
  K  K1  1  0.61862800  0.19216600  0.95672100  1
  K  K2  1  0.99195000  0.52018900  0.30334900  1
  K  K3  1  0.03708500  0.46591900  0.70726400  1
  K  K4  1  0.41575200  0.78368700  0.41230300  1
  K  K5  1  0.57858800  0.21453900  0.58782300  1
  Te  Te0  1  0.12722300  0.15115400  0.04881800  1
  Te  Te1  1  0.86973400  0.84349000  0.94426600  1
  Te  Te2  1  0.00088400  0.00590300  0.50054900  1
  H  H0  1  0.81487800  0.78588000  0.52133300  1
  H  H1  1  0.20750700  0.23474100  0.49463800  1
  H  H2  1  0.16325000  0.75826200  0.59257100  1
  H  H3  1  0.83003200  0.25823600  0.42084900  1
  H  H4  1  0.21348200  0.02686500  0.84289700  1
  H  H5  1  0.78632900  0.97306400  0.15057700  1
  H  H6  1  0.27463000  0.64034600  0.64668800  1
  H  H7  1  0.71727200  0.36712700  0.35181900  1
  H  H8  1  0.96000200  0.17699800  0.22104500  1
  H  H9  1  0.04135300  0.82304100  0.77659200  1
  H  H10  1  0.37179800  0.45043000  0.47566300  1
  H  H11  1  0.68329800  0.52456600  0.53192100  1
  H  H12  1  0.29291200  0.31385800  0.33837700  1
  H  H13  1  0.64198500  0.65356000  0.64407600  1
  H  H14  1  0.44574000  0.09200200  0.27057600  1
  H  H15  1  0.55318300  0.90733700  0.72879100  1
  H  H16  1  0.63410300  0.04343600  0.32379600  1
  H  H17  1  0.36637400  0.95910100  0.67776300  1
  H  H18  1  0.07818700  0.64055000  0.09643700  1
  H  H19  1  0.92005600  0.35796100  0.90139000  1
  H  H20  1  0.73627900  0.67715900  0.12092100  1
  H  H21  1  0.26674500  0.31908300  0.88043600  1
  H  H22  1  0.51236100  0.67303300  0.80887000  1
  H  H23  1  0.48516400  0.32824900  0.19242100  1
  H  H24  1  0.71777900  0.73529400  0.27347200  1
  H  H25  1  0.28616100  0.26012800  0.72807400  1
  H  H26  1  0.92326400  0.09809700  0.71587100  1
  H  H27  1  0.07322400  0.90607800  0.28327200  1
  H  H28  1  0.40815000  0.51633100  0.81616700  1
  H  H29  1  0.59730500  0.48375500  0.18717100  1
  H  H30  1  0.18043000  0.50497600  0.08907700  1
  H  H31  1  0.81990100  0.49488400  0.90915000  1
  O  O0  1  0.90756500  0.13719100  0.63144100  1
  O  O1  1  0.08952400  0.87050200  0.36950900  1
  O  O2  1  0.27928000  0.06040700  0.94530700  1
  O  O3  1  0.71912600  0.93560700  0.04942900  1
  O  O4  1  0.66029700  0.66432500  0.18107200  1
  O  O5  1  0.34292100  0.33266900  0.82055400  1
  O  O6  1  0.19043100  0.65668400  0.56167200  1
  O  O7  1  0.79405800  0.35749100  0.44527200  1
  O  O8  1  0.91742900  0.03664000  0.88767800  1
  O  O9  1  0.08061400  0.95758500  0.10494400  1
  O  O10  1  0.39724800  0.61906200  0.80682200  1
  O  O11  1  0.60259000  0.38019000  0.19690100  1
  O  O12  1  0.97114800  0.23484700  0.15228700  1
  O  O13  1  0.02040800  0.75669400  0.83611900  1
  O  O14  1  0.79069300  0.84420300  0.45123700  1
  O  O15  1  0.21092100  0.16153500  0.55440200  1
  O  O16  1  0.50953700  0.01928600  0.31540900  1
  O  O17  1  0.49074000  0.98223300  0.68641800  1
  O  O18  1  0.19004500  0.60906600  0.14285400  1
  O  O19  1  0.80980000  0.39105100  0.85404200  1
  O  O20  1  0.32825100  0.21784300  0.20772500  1
  O  O21  1  0.66708000  0.77780900  0.78674200  1
  O  O22  1  0.12591300  0.31925700  0.97335000  1
  O  O23  1  0.87222500  0.67712000  0.02184000  1
  O  O24  1  0.87409600  0.08439500  0.35344800  1
  O  O25  1  0.12158200  0.92623200  0.64950700  1
  O  O26  1  0.27129600  0.37009000  0.42651200  1
  O  O27  1  0.59662200  0.58646500  0.54542500  1
loop_
_geom_bond_atom_site_label_1
_geom_bond_atom_site_label_2
_geom_bond_distance
_geom_bond_site_symmetry_2
K0 O10 2.747889 1_554
K0 O18 2.835501 1_555
K0 O3 2.862576 1_555
K0 O2 2.865319 1_564
K0 O16 2.890373 1_565
K0 O4 2.910864 1_555
K0 O13 3.031396 1_554
K0 O9 3.103026 1_555
K1 O11 2.764610 1_556
K1 O19 2.858283 1_555
K1 O3 2.867075 1_546
K1 O2 2.873035 1_555
K1 O5 2.878846 1_555
K1 O17 2.883522 1_545
K1 O12 2.927535 1_556
K1 O8 3.139951 1_555
K2 O6 2.645265 1_655
K2 O12 2.755759 1_555
K2 O18 2.803112 1_655
K2 O26 2.912984 1_655
K2 O7 2.970289 1_555
K2 O1 3.169377 1_655
K3 O7 2.755214 1_455
K3 O13 2.801454 1_555
K4 O16 2.724836 1_565
K4 O1 2.801950 1_555
K4 O27 2.806565 1_555
K4 O18 2.881061 1_555
K4 O17 2.893232 1_555
K4 O14 2.947483 1_555
K4 O6 3.014069 1_555
K5 O17 2.694853 1_545
K5 O0 2.786674 1_555
K5 O19 2.878897 1_555
H0 O14 0.978310 1_555
H1 O15 1.006757 1_555
H2 O6 1.005032 1_555
H2 O25 1.663122 1_555
H3 O7 1.005636 1_555
H4 O2 0.998898 1_555
H5 O3 0.992792 1_555
H6 O6 0.994429 1_555
H7 O7 1.011548 1_555
H7 K2 2.757244 1_555
H8 O12 0.992404 1_555
H9 O13 0.991639 1_555
H10 O26 0.984710 1_555
H11 O27 0.980426 1_555
H12 O26 1.021209 1_555
H12 O20 1.572020 1_555
H13 O27 1.015784 1_555
H13 O21 1.617329 1_555
H14 O16 1.003980 1_555
H14 O20 1.704469 1_555
H15 O17 1.004766 1_555
H15 O21 1.700296 1_555
H16 O16 0.993061 1_555
H17 O17 0.989819 1_555
H18 O18 1.004330 1_555
H18 O23 1.735162 1_455
H18 K2 2.824033 1_455
H19 O19 1.004012 1_555
H19 O22 1.736900 1_655
H20 O4 1.009046 1_555
H20 O23 1.709117 1_555
H21 O5 1.009332 1_555
H21 O22 1.693277 1_555
H22 O10 1.012219 1_555
H22 O21 1.615409 1_555
H23 O11 1.013001 1_555
H23 O20 1.625428 1_555
H24 O4 0.990487 1_555
H25 O5 0.996624 1_555
H26 O0 0.989650 1_555
H27 O1 0.988286 1_555
H28 O10 0.994481 1_555
H29 O11 0.997069 1_555
H30 O18 0.997502 1_555
H31 O19 0.999351 1_555
H31 O23 1.781825 1_556
O0 Te2 1.999206 1_655
O1 Te2 1.996220 1_565
O2 Te0 1.999108 1_556
O3 Te1 2.004950 1_554
O8 Te0 2.018853 1_656
O8 Te1 2.041386 1_545
O9 Te1 2.020535 1_454
O9 Te0 2.040934 1_565
O12 Te0 2.002001 1_655
O13 Te1 2.006730 1_455
O14 Te2 2.033147 1_665
O15 Te2 1.992242 1_555
O20 Te0 1.889715 1_555
O21 Te1 1.889270 1_555
O22 Te0 1.889580 1_556
O23 Te1 1.887177 1_554
O24 Te2 1.898485 1_655
O25 Te2 1.902188 1_565
