# generated using pymatgen
data_BaReH9
_symmetry_space_group_name_H-M   'P 1'
_cell_length_a   9.51646400
_cell_length_b   5.19709300
_cell_length_c   5.22986453
_cell_angle_alpha   64.15349137
_cell_angle_beta   90.00000000
_cell_angle_gamma   90.00000000
_symmetry_Int_Tables_number   1
_chemical_formula_structural   BaReH9
_chemical_formula_sum   'Ba2 Re2 H18'
_cell_volume   232.78352809
_cell_formula_units_Z   2
loop_
 _symmetry_equiv_pos_site_id
 _symmetry_equiv_pos_as_xyz
  1  'x, y, z'
loop_
 _atom_site_type_symbol
 _atom_site_label
 _atom_site_symmetry_multiplicity
 _atom_site_fract_x
 _atom_site_fract_y
 _atom_site_fract_z
 _atom_site_occupancy
  Ba  Ba0  1  0.50000000  0.00000000  0.00000000  1
  Ba  Ba1  1  0.00000000  0.00000000  0.00000000  1
  Re  Re0  1  0.25000000  0.65156900  0.60560700  1
  Re  Re1  1  0.75000000  0.34843100  0.39439300  1
  H  H0  1  0.25000000  0.71538300  0.89949100  1
  H  H1  1  0.75000000  0.28461700  0.10050900  1
  H  H2  1  0.25000000  0.29275200  0.82513400  1
  H  H3  1  0.75000000  0.70724800  0.17486600  1
  H  H4  1  0.25000000  0.84155900  0.25240200  1
  H  H5  1  0.75000000  0.15844100  0.74759800  1
  H  H6  1  0.35466000  0.50117300  0.44374100  1
  H  H7  1  0.85466000  0.49882700  0.55625900  1
  H  H8  1  0.64534000  0.49882700  0.55625900  1
  H  H9  1  0.14534000  0.50117300  0.44374100  1
  H  H10  1  0.35649500  0.94415200  0.50905400  1
  H  H11  1  0.85649500  0.05584800  0.49094600  1
  H  H12  1  0.64350500  0.05584800  0.49094600  1
  H  H13  1  0.14350500  0.94415200  0.50905400  1
  H  H14  1  0.40713000  0.56057200  0.77037800  1
  H  H15  1  0.90713000  0.43942800  0.22962200  1
  H  H16  1  0.59287000  0.43942800  0.22962200  1
  H  H17  1  0.09287000  0.56057200  0.77037800  1
loop_
_geom_bond_atom_site_label_1
_geom_bond_atom_site_label_2
_geom_bond_distance
_geom_bond_site_symmetry_2
Ba0 H5 2.670762 1_554
Ba0 H4 2.670762 1_545
Ba0 H3 2.756480 1_545
Ba0 H2 2.756480 1_554
Ba0 H14 2.767723 1_554
Ba0 H16 2.767723 1_545
Ba0 H12 2.891932 1_554
Ba0 H10 2.891932 1_545
Ba0 H6 2.962049 1_545
Ba0 H8 2.962049 1_554
Ba0 H0 2.966888 1_544
Ba0 H1 2.966888 1_555
Ba0 H12 3.031754 1_555
Ba0 H10 3.031754 1_544
Ba0 H16 3.135286 1_555
Ba0 H14 3.135286 1_544
Ba1 H5 2.670762 1_454
Ba1 H4 2.670762 1_545
Ba1 H3 2.756480 1_445
Ba1 H2 2.756480 1_554
Ba1 H17 2.767723 1_554
Ba1 H15 2.767723 1_445
Ba1 H11 2.891932 1_454
Ba1 H13 2.891932 1_545
Ba1 H9 2.962049 1_545
Ba1 H7 2.962049 1_454
Ba1 H0 2.966888 1_544
Ba1 H1 2.966888 1_455
Ba1 H11 3.031754 1_455
Ba1 H13 3.031754 1_544
Ba1 H15 3.135286 1_455
Ba1 H17 3.135286 1_544
H0 Re0 1.707842 1_555
H1 Re1 1.707842 1_555
H2 Re0 1.711390 1_555
H3 Re1 1.711390 1_555
H4 Re0 1.672370 1_555
H5 Re1 1.672370 1_555
H6 Re0 1.701907 1_555
H7 Re1 1.701907 1_555
H8 Re1 1.701907 1_555
H9 Re0 1.701907 1_555
H10 Re0 1.710191 1_555
H11 Re1 1.710191 1_555
H12 Re1 1.710191 1_555
H13 Re0 1.710191 1_555
H14 Re0 1.687272 1_555
H15 Re1 1.687272 1_555
H16 Re1 1.687272 1_555
H17 Re0 1.687272 1_555
