# generated using pymatgen
data_Sr4LaMn5O13
_symmetry_space_group_name_H-M   'P 1'
_cell_length_a   7.88134900
_cell_length_b   8.78614400
_cell_length_c   8.78614400
_cell_angle_alpha   90.00000000
_cell_angle_beta   90.00000000
_cell_angle_gamma   90.00000000
_symmetry_Int_Tables_number   1
_chemical_formula_structural   Sr4LaMn5O13
_chemical_formula_sum   'Sr8 La2 Mn10 O26'
_cell_volume   608.41118979
_cell_formula_units_Z   2
loop_
 _symmetry_equiv_pos_site_id
 _symmetry_equiv_pos_as_xyz
  1  'x, y, z'
loop_
 _atom_site_type_symbol
 _atom_site_label
 _atom_site_symmetry_multiplicity
 _atom_site_fract_x
 _atom_site_fract_y
 _atom_site_fract_z
 _atom_site_occupancy
  Sr  Sr0  1  0.25132700  0.27884600  0.11195500  1
  Sr  Sr1  1  0.25132700  0.72115400  0.88804500  1
  Sr  Sr2  1  0.75132700  0.11195500  0.72115400  1
  Sr  Sr3  1  0.75132700  0.88804500  0.27884600  1
  Sr  Sr4  1  0.74867300  0.72115400  0.88804500  1
  Sr  Sr5  1  0.74867300  0.27884600  0.11195500  1
  Sr  Sr6  1  0.24867300  0.88804500  0.27884600  1
  Sr  Sr7  1  0.24867300  0.11195500  0.72115400  1
  La  La0  1  0.25000000  0.50000000  0.50000000  1
  La  La1  1  0.75000000  0.50000000  0.50000000  1
  Mn  Mn0  1  0.50000000  0.59628600  0.19514400  1
  Mn  Mn1  1  0.50000000  0.40371400  0.80485600  1
  Mn  Mn2  1  0.00000000  0.19514400  0.40371400  1
  Mn  Mn3  1  0.00000000  0.80485600  0.59628600  1
  Mn  Mn4  1  0.00000000  0.60267000  0.20119400  1
  Mn  Mn5  1  0.00000000  0.39733000  0.79880600  1
  Mn  Mn6  1  0.50000000  0.20119400  0.39733000  1
  Mn  Mn7  1  0.50000000  0.79880600  0.60267000  1
  Mn  Mn8  1  0.50000000  0.00000000  0.00000000  1
  Mn  Mn9  1  0.00000000  0.00000000  0.00000000  1
  O  O0  1  0.00000000  0.73144300  0.39205600  1
  O  O1  1  0.00000000  0.26855700  0.60794400  1
  O  O2  1  0.50000000  0.39205600  0.26855700  1
  O  O3  1  0.50000000  0.60794400  0.73144300  1
  O  O4  1  0.50000000  0.67634900  0.41737500  1
  O  O5  1  0.50000000  0.32365100  0.58262500  1
  O  O6  1  0.00000000  0.41737500  0.32365100  1
  O  O7  1  0.00000000  0.58262500  0.67634900  1
  O  O8  1  0.24912700  0.58330100  0.18649000  1
  O  O9  1  0.24912700  0.41669900  0.81351000  1
  O  O10  1  0.74912700  0.18649000  0.41669900  1
  O  O11  1  0.74912700  0.81351000  0.58330100  1
  O  O12  1  0.75087300  0.41669900  0.81351000  1
  O  O13  1  0.75087300  0.58330100  0.18649000  1
  O  O14  1  0.25087300  0.81351000  0.58330100  1
  O  O15  1  0.25087300  0.18649000  0.41669900  1
  O  O16  1  0.50000000  0.78119400  0.07481500  1
  O  O17  1  0.50000000  0.21880600  0.92518500  1
  O  O18  1  0.00000000  0.07481500  0.21880600  1
  O  O19  1  0.00000000  0.92518500  0.78119400  1
  O  O20  1  0.25000000  0.00000000  0.00000000  1
  O  O21  1  0.75000000  0.00000000  0.00000000  1
  O  O22  1  0.00000000  0.77293700  0.06626000  1
  O  O23  1  0.00000000  0.22706300  0.93374000  1
  O  O24  1  0.50000000  0.06626000  0.22706300  1
  O  O25  1  0.50000000  0.93374000  0.77293700  1
loop_
_geom_bond_atom_site_label_1
_geom_bond_atom_site_label_2
_geom_bond_distance
_geom_bond_site_symmetry_2
La0 O7 2.609591 1_555
La0 O4 2.609591 1_555
La0 O5 2.609591 1_555
La0 O6 2.609591 1_555
La0 O8 2.850128 1_555
La0 O15 2.850128 1_555
La0 O9 2.850128 1_555
La0 O14 2.850128 1_555
La0 O3 2.986101 1_555
La0 O1 2.986101 1_555
La0 O0 2.986101 1_555
La0 O2 2.986101 1_555
La1 O4 2.609591 1_555
La1 O7 2.609591 1_655
La1 O5 2.609591 1_555
La1 O6 2.609591 1_655
La1 O13 2.850128 1_555
La1 O10 2.850128 1_555
La1 O12 2.850128 1_555
La1 O11 2.850128 1_555
La1 O3 2.986101 1_555
La1 O1 2.986101 1_655
La1 O0 2.986101 1_655
La1 O2 2.986101 1_555
Mn0 O2 1.906803 1_555
Mn0 O16 1.938336 1_555
Mn0 O8 1.981965 1_555
Mn0 O13 1.981965 1_555
Mn0 O4 2.075404 1_555
Mn1 O3 1.906803 1_555
Mn1 O17 1.938336 1_555
Mn1 O12 1.981965 1_555
Mn1 O9 1.981965 1_555
Mn1 O5 2.075404 1_555
Mn2 O1 1.906803 1_555
Mn2 O18 1.938336 1_555
Mn2 O15 1.981965 1_555
Mn2 O10 1.981965 1_455
Mn2 O6 2.075404 1_555
Mn3 O0 1.906803 1_555
Mn3 O19 1.938336 1_555
Mn3 O11 1.981965 1_455
Mn3 O14 1.981965 1_555
Mn3 O7 2.075404 1_555
Mn4 O22 1.908799 1_555
Mn4 O6 1.951433 1_555
Mn4 O13 1.975048 1_455
Mn4 O8 1.975048 1_555
Mn4 O0 2.022928 1_555
Mn5 O23 1.908799 1_555
Mn5 O7 1.951433 1_555
Mn5 O12 1.975048 1_455
Mn5 O9 1.975048 1_555
Mn5 O1 2.022928 1_555
Mn6 O24 1.908799 1_555
Mn6 O5 1.951433 1_555
Mn6 O10 1.975048 1_555
Mn6 O15 1.975048 1_555
Mn6 O2 2.022928 1_555
Mn7 O25 1.908799 1_555
Mn7 O4 1.951433 1_555
Mn7 O14 1.975048 1_555
Mn7 O11 1.975048 1_555
Mn7 O3 2.022928 1_555
Mn8 O20 1.970337 1_555
Mn8 O21 1.970337 1_555
Mn8 O17 2.031735 1_554
Mn8 O16 2.031735 1_545
Mn8 O24 2.078215 1_555
Mn8 O25 2.078215 1_544
Mn9 O20 1.970337 1_555
Mn9 O21 1.970337 1_455
Mn9 O18 2.031735 1_555
Mn9 O19 2.031735 1_544
Mn9 O23 2.078215 1_554
Mn9 O22 2.078215 1_545
O0 Sr6 2.593008 1_555
O0 Sr3 2.593008 1_455
O1 Sr7 2.593008 1_555
O1 Sr2 2.593008 1_455
O2 Sr5 2.593008 1_555
O2 Sr0 2.593008 1_555
O3 Sr4 2.593008 1_555
O3 Sr1 2.593008 1_555
O4 Sr3 2.977338 1_555
O4 Sr6 2.977338 1_555
O5 Sr2 2.977338 1_555
O5 Sr7 2.977338 1_555
O6 Sr0 2.977338 1_555
O6 Sr5 2.977338 1_455
O7 Sr1 2.977338 1_555
O7 Sr4 2.977338 1_455
O8 Sr0 2.754035 1_555
O8 Sr6 2.797786 1_555
O8 Sr1 2.888448 1_554
O9 Sr1 2.754035 1_555
O9 Sr7 2.797786 1_555
O9 Sr0 2.888448 1_556
O10 Sr2 2.754035 1_555
O10 Sr5 2.797786 1_555
O10 Sr3 2.888448 1_545
O11 Sr3 2.754035 1_555
O11 Sr4 2.797786 1_555
O11 Sr2 2.888448 1_565
O12 Sr4 2.754035 1_555
O12 Sr2 2.797786 1_555
O12 Sr5 2.888448 1_556
O13 Sr5 2.754035 1_555
O13 Sr3 2.797786 1_555
O13 Sr4 2.888448 1_554
O14 Sr6 2.754035 1_555
O14 Sr1 2.797786 1_555
O14 Sr7 2.888448 1_565
O15 Sr7 2.754035 1_555
O15 Sr0 2.797786 1_555
O15 Sr6 2.888448 1_545
O16 Sr4 2.610028 1_554
O16 Sr1 2.610028 1_554
O16 Sr3 2.831694 1_555
O16 Sr6 2.831694 1_555
O17 Sr5 2.610028 1_556
O17 Sr0 2.610028 1_556
O17 Sr2 2.831694 1_555
O17 Sr7 2.831694 1_555
O18 Sr6 2.610028 1_545
O18 Sr3 2.610028 1_445
O18 Sr0 2.831694 1_555
O18 Sr5 2.831694 1_455
O19 Sr7 2.610028 1_565
O19 Sr2 2.610028 1_465
O19 Sr1 2.831694 1_555
O19 Sr4 2.831694 1_455
O20 Sr0 2.640093 1_555
O20 Sr6 2.640093 1_545
O20 Sr1 2.640093 1_544
O20 Sr7 2.640093 1_554
O21 Sr3 2.640093 1_545
O21 Sr5 2.640093 1_555
O21 Sr4 2.640093 1_544
O21 Sr2 2.640093 1_554
O22 Sr1 2.565610 1_554
O22 Sr4 2.565610 1_454
O22 Sr6 2.890101 1_555
O22 Sr3 2.890101 1_455
O23 Sr0 2.565610 1_556
O23 Sr5 2.565610 1_456
O23 Sr7 2.890101 1_555
O23 Sr2 2.890101 1_455
O24 Sr3 2.565610 1_545
O24 Sr6 2.565610 1_545
O24 Sr5 2.890101 1_555
O24 Sr0 2.890101 1_555
O25 Sr2 2.565610 1_565
O25 Sr7 2.565610 1_565
O25 Sr4 2.890101 1_555
O25 Sr1 2.890101 1_555
