# generated using pymatgen
data_KCoO2
_symmetry_space_group_name_H-M   'P 1'
_cell_length_a   5.58244286
_cell_length_b   5.58244996
_cell_length_c   8.12131395
_cell_angle_alpha   89.84379714
_cell_angle_beta   89.84223723
_cell_angle_gamma   86.48606760
_symmetry_Int_Tables_number   1
_chemical_formula_structural   KCoO2
_chemical_formula_sum   'K4 Co4 O8'
_cell_volume   252.61264005
_cell_formula_units_Z   4
loop_
 _symmetry_equiv_pos_site_id
 _symmetry_equiv_pos_as_xyz
  1  'x, y, z'
loop_
 _atom_site_type_symbol
 _atom_site_label
 _atom_site_symmetry_multiplicity
 _atom_site_fract_x
 _atom_site_fract_y
 _atom_site_fract_z
 _atom_site_occupancy
  K  K0  1  0.99945100  0.50002100  0.24702400  1
  K  K1  1  0.49998700  0.00055000  0.75297700  1
  K  K2  1  0.50073100  0.49927300  0.99999900  1
  K  K3  1  0.99981700  0.00018400  0.49999900  1
  Co  Co0  1  0.49947100  0.50053600  0.49999600  1
  Co  Co1  1  0.00124300  0.50161000  0.74710500  1
  Co  Co2  1  0.49839900  0.99876900  0.25288700  1
  Co  Co3  1  0.99910700  0.00090000  0.99999300  1
  O  O0  1  0.31486000  0.54333000  0.69036300  1
  O  O1  1  0.82244000  0.04321100  0.19642900  1
  O  O2  1  0.45664400  0.68515200  0.30965200  1
  O  O3  1  0.95676800  0.17756800  0.80357900  1
  O  O4  1  0.30868000  0.07964100  0.06688200  1
  O  O5  1  0.79950100  0.57742500  0.57204900  1
  O  O6  1  0.92035300  0.69132300  0.93311700  1
  O  O7  1  0.42255100  0.20050700  0.42794800  1
loop_
_geom_bond_atom_site_label_1
_geom_bond_atom_site_label_2
_geom_bond_distance
_geom_bond_site_symmetry_2
K0 O6 2.787136 1_554
K0 O1 2.822275 1_555
K0 O2 2.859045 1_655
K0 O5 2.886374 1_555
K0 O1 3.157285 1_565
K0 O7 3.170955 1_655
K0 O2 3.181089 1_555
K0 O4 3.183669 1_655
K1 O4 2.787088 1_556
K1 O3 2.822154 1_555
K1 O0 2.859148 1_545
K1 O7 2.886480 1_555
K1 O3 3.157437 1_455
K1 O5 3.171020 1_545
K1 O0 3.180945 1_555
K1 O6 3.183650 1_545
K2 O6 2.688774 1_555
K2 O4 2.688838 1_556
K2 O0 2.727694 1_555
K2 O2 2.727818 1_556
K3 O1 2.664091 1_555
K3 O3 2.664158 1_555
K3 O7 2.733931 1_655
K3 O5 2.734045 1_545
Co0 O5 1.851173 1_555
Co0 O7 1.851195 1_555
Co0 O2 1.863355 1_555
Co0 O0 1.863447 1_555
Co1 O0 1.837573 1_555
Co1 O5 1.848182 1_455
Co1 O6 1.885197 1_455
Co1 O3 1.895836 1_455
Co2 O2 1.837668 1_555
Co2 O7 1.848203 1_565
Co2 O4 1.885182 1_565
Co2 O1 1.895752 1_565
Co3 O3 1.880938 1_555
Co3 O1 1.881043 1_556
Co3 O4 1.890632 1_656
Co3 O6 1.890635 1_545
