# generated using pymatgen
data_Na5Nd(WO4)4
_symmetry_space_group_name_H-M   'P 1'
_cell_length_a   10.14003036
_cell_length_b   10.14003036
_cell_length_c   10.14003036
_cell_angle_alpha   108.93094832
_cell_angle_beta   108.93094832
_cell_angle_gamma   110.55725440
_symmetry_Int_Tables_number   1
_chemical_formula_structural   Na5Nd(WO4)4
_chemical_formula_sum   'Na10 Nd2 W8 O32'
_cell_volume   802.37719643
_cell_formula_units_Z   2
loop_
 _symmetry_equiv_pos_site_id
 _symmetry_equiv_pos_as_xyz
  1  'x, y, z'
loop_
 _atom_site_type_symbol
 _atom_site_label
 _atom_site_symmetry_multiplicity
 _atom_site_fract_x
 _atom_site_fract_y
 _atom_site_fract_z
 _atom_site_occupancy
  Na  Na0  1  0.23799800  0.65388100  0.82605300  1
  Na  Na1  1  0.66194500  0.98799800  0.08411700  1
  Na  Na2  1  0.50000000  0.50000000  0.00000000  1
  Na  Na3  1  0.75000000  0.25000000  0.50000000  1
  Na  Na4  1  0.58805500  0.76200200  0.41588300  1
  Na  Na5  1  0.01200200  0.09611900  0.67394700  1
  Na  Na6  1  0.42217200  0.33805500  0.32605300  1
  Na  Na7  1  0.34611900  0.17217200  0.58411700  1
  Na  Na8  1  0.90388100  0.57782800  0.91588300  1
  Na  Na9  1  0.82782800  0.41194500  0.17394700  1
  Nd  Nd0  1  0.00000000  0.00000000  0.00000000  1
  Nd  Nd1  1  0.25000000  0.75000000  0.50000000  1
  W  W0  1  0.88912000  0.66724100  0.58703500  1
  W  W1  1  0.91724100  0.83020700  0.27812100  1
  W  W2  1  0.55208500  0.63912000  0.72187900  1
  W  W3  1  0.08020700  0.30208500  0.41296500  1
  W  W4  1  0.36088000  0.08275900  0.91296500  1
  W  W5  1  0.33275900  0.91979300  0.22187900  1
  W  W6  1  0.69791500  0.11088000  0.77812100  1
  W  W7  1  0.16979300  0.44791500  0.08703500  1
  O  O0  1  0.38097800  0.50236700  0.17616900  1
  O  O1  1  0.75236700  0.07619800  0.62138900  1
  O  O2  1  0.45480900  0.13097800  0.37861100  1
  O  O3  1  0.32619800  0.20480900  0.82383100  1
  O  O4  1  0.86902200  0.24763300  0.32383100  1
  O  O5  1  0.49763300  0.67380200  0.87861100  1
  O  O6  1  0.79519100  0.61902200  0.12138900  1
  O  O7  1  0.92380200  0.54519100  0.67616900  1
  O  O8  1  0.10325300  0.50495900  0.23547100  1
  O  O9  1  0.75495900  0.01948700  0.90170600  1
  O  O10  1  0.11778200  0.85325300  0.09829400  1
  O  O11  1  0.26948700  0.86778200  0.76452900  1
  O  O12  1  0.14674700  0.24504100  0.26452900  1
  O  O13  1  0.49504100  0.73051300  0.59829400  1
  O  O14  1  0.13221800  0.89674700  0.40170600  1
  O  O15  1  0.98051300  0.88221800  0.73547100  1
  O  O16  1  0.14283700  0.54276400  0.96615300  1
  O  O17  1  0.79276400  0.32661200  0.89992800  1
  O  O18  1  0.42668400  0.89283700  0.10007200  1
  O  O19  1  0.57661200  0.17668400  0.03384700  1
  O  O20  1  0.96695400  0.64322800  0.44628200  1
  O  O21  1  0.89322800  0.94694600  0.17627500  1
  O  O22  1  0.77067100  0.71695400  0.82372500  1
  O  O23  1  0.19694600  0.52067100  0.55371800  1
  O  O24  1  0.28304600  0.10677200  0.05371800  1
  O  O25  1  0.35677200  0.80305400  0.32372500  1
  O  O26  1  0.47932900  0.03304600  0.67627500  1
  O  O27  1  0.05305400  0.22932900  0.94628200  1
  O  O28  1  0.67338800  0.57331600  0.46615300  1
  O  O29  1  0.82331600  0.85716300  0.39992800  1
  O  O30  1  0.45723600  0.42338800  0.60007200  1
  O  O31  1  0.10716300  0.20723600  0.53384700  1
loop_
_geom_bond_atom_site_label_1
_geom_bond_atom_site_label_2
_geom_bond_distance
_geom_bond_site_symmetry_2
Na0 O16 2.320191 1_555
Na0 O11 2.390901 1_555
Na0 O5 2.429454 1_555
Na0 O23 2.462229 1_555
Na0 O18 2.485652 1_556
Na0 O7 2.642013 1_455
Na1 O18 2.320186 1_555
Na1 O9 2.390898 1_564
Na1 O4 2.429454 1_565
Na1 O21 2.462229 1_555
Na1 O19 2.485652 1_565
Na1 O5 2.642013 1_554
Na2 O5 2.457569 1_554
Na2 O6 2.457569 1_555
Na2 O0 2.457569 1_555
Na2 O3 2.457569 1_554
Na3 O2 2.457569 1_555
Na3 O4 2.457569 1_555
Na3 O1 2.457569 1_555
Na3 O7 2.457569 1_555
Na4 O29 2.320186 1_555
Na4 O13 2.390898 1_555
Na4 O0 2.429454 1_555
Na4 O25 2.462229 1_555
Na4 O28 2.485652 1_555
Na4 O1 2.642013 1_565
Na5 O31 2.320191 1_555
Na5 O15 2.390901 1_445
Na5 O1 2.429454 1_455
Na5 O27 2.462229 1_555
Na5 O29 2.485652 1_445
Na5 O3 2.642013 1_555
Na6 O28 2.320186 1_555
Na6 O12 2.390900 1_555
Na6 O2 2.429454 1_555
Na6 O24 2.462228 1_555
Na6 O30 2.485648 1_555
Na6 O0 2.642013 1_555
Na7 O30 2.320186 1_555
Na7 O14 2.390900 1_545
Na7 O3 2.429454 1_555
Na7 O26 2.462238 1_555
Na7 O31 2.485657 1_555
Na7 O2 2.642013 1_555
Na8 O17 2.320186 1_555
Na8 O10 2.390900 1_656
Na8 O7 2.429454 1_555
Na8 O22 2.462238 1_555
Na8 O16 2.485657 1_655
Na8 O6 2.642013 1_556
Na9 O19 2.320186 1_555
Na9 O8 2.390900 1_655
Na9 O6 2.429454 1_555
Na9 O20 2.462228 1_555
Na9 O17 2.485648 1_554
Na9 O4 2.642013 1_555
Nd0 O9 2.464142 1_454
Nd0 O10 2.464148 1_545
Nd0 O12 2.464148 1_555
Nd0 O15 2.464152 1_444
Nd0 O24 2.475282 1_555
Nd0 O22 2.475285 1_444
Nd0 O21 2.475291 1_445
Nd0 O27 2.475291 1_554
Nd1 O13 2.464142 1_555
Nd1 O8 2.464148 1_555
Nd1 O14 2.464148 1_555
Nd1 O11 2.464152 1_555
Nd1 O20 2.475282 1_455
Nd1 O26 2.475285 1_565
Nd1 O25 2.475291 1_555
Nd1 O23 2.475291 1_555
O0 W7 1.815884 1_555
O1 W6 1.815875 1_555
O2 W5 1.815882 1_545
O3 W4 1.815875 1_555
O4 W3 1.815884 1_655
O5 W2 1.815875 1_555
O6 W1 1.815882 1_555
O7 W0 1.815875 1_555
O8 W7 1.850246 1_555
O9 W6 1.850262 1_555
O10 W5 1.850256 1_555
O11 W4 1.850252 1_565
O12 W3 1.850246 1_555
O13 W2 1.850262 1_555
O14 W1 1.850256 1_455
O15 W0 1.850252 1_555
O16 W7 1.798425 1_556
O17 W6 1.798435 1_555
O18 W5 1.798433 1_555
O19 W4 1.798434 1_554
O20 W0 1.832911 1_555
O21 W1 1.832895 1_555
O22 W2 1.832902 1_555
O23 W3 1.832904 1_555
O24 W4 1.832911 1_554
O25 W5 1.832895 1_555
O26 W6 1.832902 1_555
O27 W7 1.832904 1_556
O28 W0 1.798434 1_555
O29 W1 1.798433 1_555
O30 W2 1.798435 1_555
O31 W3 1.798425 1_555
