# generated using pymatgen
data_LiYMg6
_symmetry_space_group_name_H-M   'P 1'
_cell_length_a   5.16243100
_cell_length_b   6.54033400
_cell_length_c   11.42241400
_cell_angle_alpha   90.00000000
_cell_angle_beta   90.00000000
_cell_angle_gamma   90.00000000
_symmetry_Int_Tables_number   1
_chemical_formula_structural   LiYMg6
_chemical_formula_sum   'Li2 Y2 Mg12'
_cell_volume   385.66664892
_cell_formula_units_Z   2
loop_
 _symmetry_equiv_pos_site_id
 _symmetry_equiv_pos_as_xyz
  1  'x, y, z'
loop_
 _atom_site_type_symbol
 _atom_site_label
 _atom_site_symmetry_multiplicity
 _atom_site_fract_x
 _atom_site_fract_y
 _atom_site_fract_z
 _atom_site_occupancy
  Li  Li0  1  0.50000000  0.50000000  0.16406600  1
  Li  Li1  1  0.50000000  0.00000000  0.66406600  1
  Y  Y0  1  0.00000000  0.50000000  0.33210700  1
  Y  Y1  1  0.00000000  0.00000000  0.83210700  1
  Mg  Mg0  1  0.00000000  0.74373000  0.08130500  1
  Mg  Mg1  1  0.00000000  0.25627000  0.08130500  1
  Mg  Mg2  1  0.00000000  0.00000000  0.33710300  1
  Mg  Mg3  1  0.50000000  0.24688400  0.41855200  1
  Mg  Mg4  1  0.50000000  0.75311600  0.41855200  1
  Mg  Mg5  1  0.50000000  0.00000000  0.16701000  1
  Mg  Mg6  1  0.00000000  0.24373000  0.58130500  1
  Mg  Mg7  1  0.00000000  0.75627000  0.58130500  1
  Mg  Mg8  1  0.00000000  0.50000000  0.83710300  1
  Mg  Mg9  1  0.50000000  0.74688400  0.91855200  1
  Mg  Mg10  1  0.50000000  0.25311600  0.91855200  1
  Mg  Mg11  1  0.50000000  0.50000000  0.66701000  1
loop_
_geom_bond_atom_site_label_1
_geom_bond_atom_site_label_2
_geom_bond_distance
_geom_bond_site_symmetry_2
Li0 Mg1 3.177641 1_655
Li0 Mg0 3.177641 1_655
Li0 Mg1 3.177641 1_555
Li0 Mg0 3.177641 1_555
Li0 Y0 3.216660 1_555
Li0 Y0 3.216660 1_655
Li0 Mg10 3.236003 1_554
Li0 Mg9 3.236003 1_554
Li0 Mg5 3.270340 1_555
Li0 Mg5 3.270340 1_565
Li0 Mg3 3.345191 1_555
Li0 Mg4 3.345191 1_555
Li1 Mg6 3.177641 1_655
Li1 Mg7 3.177641 1_645
Li1 Mg7 3.177641 1_545
Li1 Mg6 3.177641 1_555
Li1 Y1 3.216660 1_555
Li1 Y1 3.216660 1_655
Li1 Mg3 3.236003 1_555
Li1 Mg4 3.236003 1_545
Li1 Mg11 3.270340 1_545
Li1 Mg11 3.270340 1_555
Li1 Mg9 3.345191 1_545
Li1 Mg10 3.345191 1_555
Mg0 Mg9 3.181053 1_554
Mg0 Mg9 3.181053 1_454
Mg0 Mg1 3.188151 1_555
Mg0 Mg8 3.212740 1_554
Mg0 Mg5 3.229600 1_465
Mg0 Mg5 3.229600 1_565
Mg0 Y0 3.278407 1_555
Mg0 Y1 3.303259 1_564
Mg0 Mg1 3.352183 1_565
Mg0 Mg2 3.368438 1_565
Mg1 Mg10 3.181053 1_454
Mg1 Mg10 3.181053 1_554
Mg1 Mg8 3.212740 1_554
Mg1 Mg5 3.229600 1_555
Mg1 Mg5 3.229600 1_455
Mg1 Y0 3.278407 1_555
Mg1 Y1 3.303259 1_554
Mg1 Mg2 3.368438 1_555
Mg2 Mg3 3.183627 1_455
Mg2 Mg3 3.183627 1_555
Mg2 Mg4 3.183627 1_445
Mg2 Mg4 3.183627 1_545
Mg2 Mg7 3.212740 1_545
Mg2 Mg6 3.212740 1_555
Mg2 Mg5 3.230701 1_455
Mg2 Mg5 3.230701 1_555
Mg2 Y0 3.270665 1_545
Mg2 Y0 3.270665 1_555
Mg3 Mg6 3.181053 1_555
Mg3 Mg6 3.181053 1_655
Mg3 Y0 3.221523 1_655
Mg3 Y0 3.221523 1_555
Mg3 Mg4 3.229408 1_545
Mg3 Mg5 3.295852 1_555
Mg3 Mg4 3.310926 1_555
Mg4 Mg7 3.181053 1_655
Mg4 Mg7 3.181053 1_555
Mg4 Y0 3.221523 1_655
Mg4 Y0 3.221523 1_555
Mg4 Mg5 3.295852 1_565
Mg5 Mg9 3.285536 1_544
Mg6 Mg7 3.188151 1_545
Mg6 Y1 3.278407 1_555
Mg6 Y0 3.303259 1_555
Mg6 Mg7 3.352183 1_555
Mg6 Mg8 3.368438 1_555
Mg7 Y1 3.278407 1_565
Mg7 Y0 3.303259 1_555
Mg7 Mg8 3.368438 1_555
Mg8 Mg9 3.183627 1_455
Mg8 Mg9 3.183627 1_555
Mg8 Y1 3.270665 1_555
Mg8 Y1 3.270665 1_565
Mg9 Y1 3.221523 1_565
Mg9 Y1 3.221523 1_665
Mg10 Mg8 3.183627 1_655
Mg10 Mg8 3.183627 1_555
Mg10 Y1 3.221523 1_555
Mg10 Y1 3.221523 1_655
Mg10 Mg9 3.229408 1_555
Mg10 Mg5 3.285536 1_556
Mg10 Mg11 3.295852 1_555
Mg10 Mg9 3.310926 1_545
Mg11 Mg7 3.229600 1_655
Mg11 Mg6 3.229600 1_555
Mg11 Mg6 3.229600 1_655
Mg11 Mg7 3.229600 1_555
Mg11 Mg8 3.230701 1_555
Mg11 Mg8 3.230701 1_655
Mg11 Mg4 3.285536 1_555
Mg11 Mg3 3.285536 1_555
Mg11 Mg9 3.295852 1_555
