# generated using pymatgen
data_Cr3(GaN2)2
_symmetry_space_group_name_H-M   'P 1'
_cell_length_a   6.34551600
_cell_length_b   8.79607100
_cell_length_c   7.61438100
_cell_angle_alpha   90.00000000
_cell_angle_beta   90.00000000
_cell_angle_gamma   90.00000000
_symmetry_Int_Tables_number   1
_chemical_formula_structural   Cr3(GaN2)2
_chemical_formula_sum   'Cr12 Ga8 N16'
_cell_volume   425.00131471
_cell_formula_units_Z   4
loop_
 _symmetry_equiv_pos_site_id
 _symmetry_equiv_pos_as_xyz
  1  'x, y, z'
loop_
 _atom_site_type_symbol
 _atom_site_label
 _atom_site_symmetry_multiplicity
 _atom_site_fract_x
 _atom_site_fract_y
 _atom_site_fract_z
 _atom_site_occupancy
  Cr  Cr0  1  0.56755700  0.23867300  0.41479900  1
  Cr  Cr1  1  0.93244300  0.76132700  0.41479900  1
  Cr  Cr2  1  0.56755700  0.26132700  0.08520100  1
  Cr  Cr3  1  0.93244300  0.73867300  0.08520100  1
  Cr  Cr4  1  0.43244300  0.76132700  0.58520100  1
  Cr  Cr5  1  0.06755700  0.23867300  0.58520100  1
  Cr  Cr6  1  0.43244300  0.73867300  0.91479900  1
  Cr  Cr7  1  0.06755700  0.26132700  0.91479900  1
  Cr  Cr8  1  0.75000000  0.50000000  0.19259600  1
  Cr  Cr9  1  0.75000000  0.00000000  0.30740400  1
  Cr  Cr10  1  0.25000000  0.50000000  0.80740400  1
  Cr  Cr11  1  0.25000000  0.00000000  0.69259600  1
  Ga  Ga0  1  0.75000000  0.50000000  0.59788600  1
  Ga  Ga1  1  0.75000000  0.00000000  0.90211400  1
  Ga  Ga2  1  0.25000000  0.50000000  0.40211400  1
  Ga  Ga3  1  0.25000000  0.00000000  0.09788600  1
  Ga  Ga4  1  0.55174200  0.25000000  0.75000000  1
  Ga  Ga5  1  0.94825800  0.75000000  0.75000000  1
  Ga  Ga6  1  0.44825800  0.75000000  0.25000000  1
  Ga  Ga7  1  0.05174200  0.25000000  0.25000000  1
  N  N0  1  0.00304900  0.40639700  0.72738800  1
  N  N1  1  0.49695100  0.59360300  0.72738800  1
  N  N2  1  0.00304900  0.09360300  0.77261200  1
  N  N3  1  0.49695100  0.90639700  0.77261200  1
  N  N4  1  0.99695100  0.59360300  0.27261200  1
  N  N5  1  0.50304900  0.40639700  0.27261200  1
  N  N6  1  0.99695100  0.90639700  0.22738800  1
  N  N7  1  0.50304900  0.09360300  0.22738800  1
  N  N8  1  0.34787500  0.34498700  0.94370300  1
  N  N9  1  0.15212500  0.65501300  0.94370300  1
  N  N10  1  0.34787500  0.15501300  0.55629700  1
  N  N11  1  0.15212500  0.84498700  0.55629700  1
  N  N12  1  0.65212500  0.65501300  0.05629700  1
  N  N13  1  0.84787500  0.34498700  0.05629700  1
  N  N14  1  0.65212500  0.84498700  0.44370300  1
  N  N15  1  0.84787500  0.15501300  0.44370300  1
loop_
_geom_bond_atom_site_label_1
_geom_bond_atom_site_label_2
_geom_bond_distance
_geom_bond_site_symmetry_2
Cr0 N5 1.875172 1_555
Cr0 N10 1.909339 1_555
Cr0 N15 1.937512 1_555
Cr0 N7 1.957609 1_555
Cr1 N4 1.875172 1_555
Cr1 N11 1.909339 1_655
Cr1 N14 1.937512 1_555
Cr1 N6 1.957609 1_555
Cr2 N7 1.875172 1_555
Cr2 N8 1.909339 1_554
Cr2 N13 1.937512 1_555
Cr2 N5 1.957609 1_555
Cr3 N6 1.875172 1_555
Cr3 N9 1.909339 1_654
Cr3 N12 1.937512 1_555
Cr3 N4 1.957609 1_555
Cr4 N1 1.875172 1_555
Cr4 N14 1.909339 1_555
Cr4 N11 1.937512 1_555
Cr4 N3 1.957609 1_555
Cr5 N0 1.875172 1_555
Cr5 N15 1.909339 1_455
Cr5 N10 1.937512 1_555
Cr5 N2 1.957609 1_555
Cr6 N3 1.875172 1_555
Cr6 N12 1.909339 1_556
Cr6 N9 1.937512 1_555
Cr6 N1 1.957609 1_555
Cr7 N2 1.875172 1_555
Cr7 N13 1.909339 1_456
Cr7 N8 1.937512 1_555
Cr7 N0 1.957609 1_555
Cr8 N12 1.822627 1_555
Cr8 N13 1.822627 1_555
Cr8 N4 1.872081 1_555
Cr8 N5 1.872081 1_555
Cr9 N14 1.822627 1_545
Cr9 N15 1.822627 1_555
Cr9 N7 1.872081 1_555
Cr9 N6 1.872081 1_545
Cr10 N9 1.822627 1_555
Cr10 N8 1.822627 1_555
Cr10 N1 1.872081 1_555
Cr10 N0 1.872081 1_555
Cr11 N11 1.822627 1_545
Cr11 N10 1.822627 1_555
Cr11 N3 1.872081 1_545
Cr11 N2 1.872081 1_555
Ga0 N1 2.056354 1_555
Ga0 N0 2.056354 1_655
Ga1 N3 2.056354 1_545
Ga1 N2 2.056354 1_655
Ga2 N5 2.056354 1_555
Ga2 N4 2.056354 1_455
Ga3 N7 2.056354 1_555
Ga3 N6 2.056354 1_445
Ga4 N10 2.132370 1_555
Ga4 N8 2.132370 1_555
Ga5 N11 2.132370 1_655
Ga5 N9 2.132370 1_655
Ga6 N14 2.132370 1_555
Ga6 N12 2.132370 1_555
Ga7 N15 2.132370 1_455
Ga7 N13 2.132370 1_455
