# generated using pymatgen
data_Ca3Al2S(OF)8
_symmetry_space_group_name_H-M   'P 1'
_cell_length_a   8.24009530
_cell_length_b   8.24009530
_cell_length_c   10.35246145
_cell_angle_alpha   88.25777635
_cell_angle_beta   88.25777635
_cell_angle_gamma   63.29781443
_symmetry_Int_Tables_number   1
_chemical_formula_structural   Ca3Al2S(OF)8
_chemical_formula_sum   'Ca6 Al4 S2 O16 F16'
_cell_volume   627.55912254
_cell_formula_units_Z   2
loop_
 _symmetry_equiv_pos_site_id
 _symmetry_equiv_pos_as_xyz
  1  'x, y, z'
loop_
 _atom_site_type_symbol
 _atom_site_label
 _atom_site_symmetry_multiplicity
 _atom_site_fract_x
 _atom_site_fract_y
 _atom_site_fract_z
 _atom_site_occupancy
  Ca  Ca0  1  0.02756200  0.47870700  0.29964700  1
  Ca  Ca1  1  0.52129300  0.97243800  0.20035300  1
  Ca  Ca2  1  0.97243800  0.52129300  0.70035300  1
  Ca  Ca3  1  0.47870700  0.02756200  0.79964700  1
  Ca  Ca4  1  0.00821000  0.99179000  0.75000000  1
  Ca  Ca5  1  0.99179000  0.00821000  0.25000000  1
  Al  Al0  1  0.27131200  0.11570900  0.48951200  1
  Al  Al1  1  0.88429100  0.72868800  0.01048800  1
  Al  Al2  1  0.72868800  0.88429100  0.51048800  1
  Al  Al3  1  0.11570900  0.27131200  0.98951200  1
  S  S0  1  0.63748600  0.36251400  0.75000000  1
  S  S1  1  0.36251400  0.63748600  0.25000000  1
  O  O0  1  0.17806900  0.66996500  0.30606700  1
  O  O1  1  0.33003500  0.82193100  0.19393300  1
  O  O2  1  0.82193100  0.33003500  0.69393300  1
  O  O3  1  0.66996500  0.17806900  0.80606700  1
  O  O4  1  0.50115800  0.41653900  0.64670400  1
  O  O5  1  0.58346100  0.49884200  0.85329600  1
  O  O6  1  0.49884200  0.58346100  0.35329600  1
  O  O7  1  0.41653900  0.50115800  0.14670400  1
  O  O8  1  0.50256100  0.08451300  0.53463700  1
  O  O9  1  0.91548700  0.49743900  0.96536300  1
  O  O10  1  0.49743900  0.91548700  0.46536300  1
  O  O11  1  0.08451300  0.50256100  0.03463700  1
  O  O12  1  0.20298800  0.64601400  0.66258300  1
  O  O13  1  0.35398600  0.79701200  0.83741700  1
  O  O14  1  0.79701200  0.35398600  0.33741700  1
  O  O15  1  0.64601400  0.20298800  0.16258300  1
  F  F0  1  0.75947300  0.95696900  0.34598400  1
  F  F1  1  0.04303100  0.24052700  0.15401600  1
  F  F2  1  0.24052700  0.04303100  0.65401600  1
  F  F3  1  0.95696900  0.75947300  0.84598400  1
  F  F4  1  0.88251000  0.95230000  0.57214500  1
  F  F5  1  0.04770000  0.11749000  0.92785500  1
  F  F6  1  0.11749000  0.04770000  0.42785500  1
  F  F7  1  0.95230000  0.88251000  0.07214500  1
  F  F8  1  0.87221100  0.65436700  0.47541300  1
  F  F9  1  0.34563300  0.12778900  0.02458700  1
  F  F10  1  0.12778900  0.34563300  0.52458700  1
  F  F11  1  0.65436700  0.87221100  0.97541300  1
  F  F12  1  0.20163500  0.29853500  0.82457300  1
  F  F13  1  0.70146500  0.79836500  0.67542700  1
  F  F14  1  0.79836500  0.70146500  0.17542700  1
  F  F15  1  0.29853500  0.20163500  0.32457300  1
loop_
_geom_bond_atom_site_label_1
_geom_bond_atom_site_label_2
_geom_bond_distance
_geom_bond_site_symmetry_2
Ca0 F8 2.323379 1_455
Ca0 F14 2.340617 1_455
Ca0 F15 2.383800 1_555
Ca0 O0 2.407103 1_555
Ca0 F1 2.466684 1_555
Ca0 F10 2.540677 1_555
Ca0 O14 2.550134 1_455
Ca0 O11 2.785230 1_555
Ca1 F9 2.323379 1_565
Ca1 F15 2.340617 1_565
Ca1 F14 2.383800 1_555
Ca1 O1 2.407103 1_555
Ca1 F0 2.466684 1_555
Ca1 F11 2.540677 1_554
Ca1 O15 2.550134 1_565
Ca1 O10 2.785230 1_555
Ca2 F10 2.323379 1_655
Ca2 F12 2.340617 1_655
Ca2 F13 2.383800 1_555
Ca2 O2 2.407103 1_555
Ca2 F3 2.466684 1_555
Ca2 F8 2.540677 1_555
Ca2 O12 2.550134 1_655
Ca2 O9 2.785230 1_555
Ca3 F11 2.323379 1_545
Ca3 F13 2.340617 1_545
Ca3 F12 2.383800 1_555
Ca3 O3 2.407103 1_555
Ca3 F2 2.466684 1_555
Ca3 F9 2.540677 1_556
Ca3 O13 2.550134 1_545
Ca3 O8 2.785230 1_555
Ca4 F4 2.241468 1_455
Ca4 F5 2.241468 1_565
Ca4 F3 2.327121 1_455
Ca4 F2 2.327121 1_565
Ca4 O3 2.563647 1_465
Ca4 O2 2.563647 1_465
Ca4 O12 2.733456 1_555
Ca4 O13 2.733456 1_555
Ca5 F7 2.241468 1_545
Ca5 F6 2.241468 1_655
Ca5 F0 2.327121 1_545
Ca5 F1 2.327121 1_655
Ca5 O0 2.563647 1_645
Ca5 O1 2.563647 1_645
Ca5 O15 2.733456 1_555
Ca5 O14 2.733456 1_555
Al0 F6 1.742803 1_555
Al0 F10 1.766929 1_555
Al0 F2 1.836171 1_555
Al0 O10 1.868259 1_545
Al0 F15 1.874357 1_555
Al0 O8 1.876675 1_555
Al1 F7 1.742803 1_555
Al1 F11 1.766929 1_554
Al1 F3 1.836171 1_554
Al1 O11 1.868259 1_655
Al1 F14 1.874357 1_555
Al1 O9 1.876675 1_554
Al2 F4 1.742803 1_555
Al2 F8 1.766929 1_555
Al2 F0 1.836171 1_555
Al2 O8 1.868259 1_565
Al2 F13 1.874357 1_555
Al2 O10 1.876675 1_555
Al3 F5 1.742803 1_555
Al3 F9 1.766929 1_556
Al3 F1 1.836171 1_556
Al3 O9 1.868259 1_455
Al3 F12 1.874357 1_555
Al3 O11 1.876675 1_556
O0 S1 1.519442 1_555
O1 S1 1.519442 1_555
O2 S0 1.519442 1_555
O3 S0 1.519442 1_555
O4 S0 1.482674 1_555
O5 S0 1.482674 1_555
O6 S1 1.482674 1_555
O7 S1 1.482674 1_555
O10 O8 1.603548 1_565
O11 O9 1.603548 1_454
