# generated using pymatgen
data_Fe3O4
_symmetry_space_group_name_H-M   'P 1'
_cell_length_a   5.11071411
_cell_length_b   5.11071411
_cell_length_c   10.00110100
_cell_angle_alpha   90.00000000
_cell_angle_beta   90.00000000
_cell_angle_gamma   146.42714176
_symmetry_Int_Tables_number   1
_chemical_formula_structural   Fe3O4
_chemical_formula_sum   'Fe6 O8'
_cell_volume   144.45537351
_cell_formula_units_Z   2
loop_
 _symmetry_equiv_pos_site_id
 _symmetry_equiv_pos_as_xyz
  1  'x, y, z'
loop_
 _atom_site_type_symbol
 _atom_site_label
 _atom_site_symmetry_multiplicity
 _atom_site_fract_x
 _atom_site_fract_y
 _atom_site_fract_z
 _atom_site_occupancy
  Fe  Fe0  1  0.61800100  0.38199900  0.25000000  1
  Fe  Fe1  1  0.38199900  0.61800100  0.75000000  1
  Fe  Fe2  1  0.86780200  0.13219800  0.42476400  1
  Fe  Fe3  1  0.13219800  0.86780200  0.57523600  1
  Fe  Fe4  1  0.86780200  0.13219800  0.07523600  1
  Fe  Fe5  1  0.13219800  0.86780200  0.92476400  1
  O  O0  1  0.50000000  0.50000000  0.50000000  1
  O  O1  1  0.50000000  0.50000000  0.00000000  1
  O  O2  1  0.96143600  0.03856400  0.25000000  1
  O  O3  1  0.03856400  0.96143600  0.75000000  1
  O  O4  1  0.77145600  0.22854400  0.61249300  1
  O  O5  1  0.22854400  0.77145600  0.38750700  1
  O  O6  1  0.77145600  0.22854400  0.88750700  1
  O  O7  1  0.22854400  0.77145600  0.11249300  1
loop_
_geom_bond_atom_site_label_1
_geom_bond_atom_site_label_2
_geom_bond_distance
_geom_bond_site_symmetry_2
Fe0 O2 2.127436 1_455
Fe0 O2 2.127436 1_565
Fe0 O7 2.289108 1_655
Fe0 O5 2.289108 1_655
Fe0 O7 2.289108 1_545
Fe0 O5 2.289108 1_545
Fe1 O3 2.127436 1_545
Fe1 O3 2.127436 1_655
Fe1 O6 2.289108 1_565
Fe1 O6 2.289108 1_455
Fe1 O4 2.289108 1_565
Fe1 O4 2.289108 1_455
Fe2 O2 1.973450 1_555
Fe2 O5 2.043167 1_655
Fe2 O5 2.043167 1_545
Fe2 O4 2.100933 1_555
Fe2 O0 2.101984 1_545
Fe2 O0 2.101984 1_655
Fe3 O3 1.973450 1_555
Fe3 O4 2.043167 1_565
Fe3 O4 2.043167 1_455
Fe3 O5 2.100933 1_555
Fe3 O0 2.101984 1_455
Fe3 O0 2.101984 1_565
Fe4 O2 1.973450 1_555
Fe4 O7 2.043167 1_655
Fe4 O7 2.043167 1_545
Fe4 O6 2.100933 1_554
Fe4 O1 2.101984 1_545
Fe4 O1 2.101984 1_655
Fe5 O3 1.973450 1_555
Fe5 O6 2.043167 1_565
Fe5 O6 2.043167 1_455
Fe5 O7 2.100933 1_556
Fe5 O1 2.101984 1_456
Fe5 O1 2.101984 1_566
