# generated using pymatgen
data_Th4Mg(B2O5)4
_symmetry_space_group_name_H-M   'P 1'
_cell_length_a   6.81996615
_cell_length_b   6.81996619
_cell_length_c   10.26794618
_cell_angle_alpha   79.81165814
_cell_angle_beta   79.81166096
_cell_angle_gamma   63.67747701
_symmetry_Int_Tables_number   1
_chemical_formula_structural   Th4Mg(B2O5)4
_chemical_formula_sum   'Th4 Mg1 B8 O20'
_cell_volume   418.68101265
_cell_formula_units_Z   1
loop_
 _symmetry_equiv_pos_site_id
 _symmetry_equiv_pos_as_xyz
  1  'x, y, z'
loop_
 _atom_site_type_symbol
 _atom_site_label
 _atom_site_symmetry_multiplicity
 _atom_site_fract_x
 _atom_site_fract_y
 _atom_site_fract_z
 _atom_site_occupancy
  Th  Th0  1  0.97593343  0.39642550  0.18988633  1
  Th  Th1  1  0.60357350  0.02406657  0.31011367  1
  Th  Th2  1  0.02496103  0.63070218  0.80151540  1
  Th  Th3  1  0.36929682  0.97503897  0.69848460  1
  Mg  Mg0  1  0.53454381  0.46545619  0.75000000  1
  B  B0  1  0.24024797  0.79890640  0.50337790  1
  B  B1  1  0.15551428  0.57056972  0.35904600  1
  B  B2  1  0.42943028  0.84448572  0.14095400  1
  B  B3  1  0.88372621  0.43113667  0.62328482  1
  B  B4  1  0.56886333  0.11627379  0.87671518  1
  B  B5  1  0.20109360  0.75975203  0.99662210  1
  B  B6  1  0.74556630  0.20568026  0.50148752  1
  B  B7  1  0.79431974  0.25443370  0.99851248  1
  O  O0  1  0.26334349  0.65130511  0.41976001  1
  O  O1  1  0.67924452  0.23450853  0.90481184  1
  O  O2  1  0.76549147  0.32075548  0.59518816  1
  O  O3  1  0.34869489  0.73665651  0.08023999  1
  O  O4  1  0.37267779  0.25050479  0.82484728  1
  O  O5  1  0.74949521  0.62732221  0.67515272  1
  O  O6  1  0.63371685  0.73113297  0.18828598  1
  O  O7  1  0.26886703  0.36628315  0.31171402  1
  O  O8  1  0.31574065  0.06223861  0.16621966  1
  O  O9  1  0.93776139  0.68425935  0.33378034  1
  O  O10  1  0.66253366  0.89925898  0.86273994  1
  O  O11  1  0.10074102  0.33746634  0.63726006  1
  O  O12  1  0.89911273  0.39029537  0.96387600  1
  O  O13  1  0.60970463  0.10088727  0.53612400  1
  O  O14  1  0.10751805  0.60962109  0.02371762  1
  O  O15  1  0.39037891  0.89248195  0.47628238  1
  O  O16  1  0.13816852  0.91515336  0.88775706  1
  O  O17  1  0.08484664  0.86183148  0.61224294  1
  O  O18  1  0.78183452  0.16694329  0.12859971  1
  O  O19  1  0.83305671  0.21816548  0.37140029  1
loop_
_geom_bond_atom_site_label_1
_geom_bond_atom_site_label_2
_geom_bond_distance
_geom_bond_site_symmetry_2
Mg0 O1 2.066945 1_555
Mg0 O2 2.066945 1_555
Mg0 O4 2.166750 1_555
Mg0 O5 2.166750 1_555
B0 O0 1.375715 1_555
B0 O17 1.379917 1_555
B0 O15 1.396040 1_555
B1 O0 1.369427 1_555
B1 O9 1.384873 1_455
B1 O7 1.387931 1_555
B2 O3 1.369427 1_555
B2 O8 1.384873 1_565
B2 O6 1.387931 1_555
B3 O11 1.350331 1_655
B3 O5 1.380299 1_555
B3 O2 1.413367 1_555
B4 O10 1.350331 1_545
B4 O4 1.380299 1_555
B4 O1 1.413367 1_555
B5 O3 1.375715 1_556
B5 O16 1.379916 1_555
B5 O14 1.396040 1_556
B6 O19 1.367595 1_555
B6 O13 1.369881 1_555
B6 O2 1.402857 1_555
B7 O18 1.367595 1_556
B7 O12 1.369881 1_555
B7 O1 1.402857 1_555
O4 Th3 2.474817 1_545
O4 Th2 2.632942 1_555
O5 Th2 2.474814 1_655
O5 Th3 2.632946 1_555
O6 Th0 2.435901 1_555
O6 Th1 2.455026 1_565
O7 Th1 2.435898 1_555
O7 Th0 2.455028 1_455
O8 Th0 2.436542 1_455
O8 Th1 2.557527 1_555
O9 Th1 2.436546 1_565
O9 Th0 2.557533 1_555
O10 Th2 2.387895 1_655
O10 Th3 2.660698 1_555
O11 Th3 2.387893 1_545
O11 Th2 2.660693 1_555
O12 Th2 2.445179 1_655
O12 Th0 2.479027 1_556
O13 Th3 2.445184 1_545
O13 Th1 2.479029 1_555
O14 Th0 2.359751 1_455
O14 Th2 2.410356 1_554
O15 Th1 2.359747 1_565
O15 Th3 2.410354 1_555
O16 Th3 2.373782 1_555
O16 Th2 2.705835 1_555
O17 Th2 2.373786 1_555
O17 Th3 2.705828 1_555
O18 Th1 2.346843 1_555
O18 Th0 2.660482 1_555
O19 Th0 2.346839 1_555
O19 Th1 2.660488 1_555
