# generated using pymatgen
data_Sc2P7Ru12
_symmetry_space_group_name_H-M   'P 1'
_cell_length_a   9.29226618
_cell_length_b   9.29227071
_cell_length_c   3.89528888
_cell_angle_alpha   89.99999892
_cell_angle_beta   89.99999880
_cell_angle_gamma   119.99994087
_symmetry_Int_Tables_number   1
_chemical_formula_structural   Sc2P7Ru12
_chemical_formula_sum   'Sc2 P7 Ru12'
_cell_volume   291.28227433
_cell_formula_units_Z   1
loop_
 _symmetry_equiv_pos_site_id
 _symmetry_equiv_pos_as_xyz
  1  'x, y, z'
loop_
 _atom_site_type_symbol
 _atom_site_label
 _atom_site_symmetry_multiplicity
 _atom_site_fract_x
 _atom_site_fract_y
 _atom_site_fract_z
 _atom_site_occupancy
  Sc  Sc0  1  0.66666795  0.33333190  0.49999983  1
  Sc  Sc1  1  0.33333644  0.66666869  -0.00000008  1
  P  P0  1  0.59747659  0.71768219  0.50000003  1
  P  P1  1  0.00000128  -0.00000128  0.00000002  1
  P  P2  1  0.28231726  0.87979508  0.50000002  1
  P  P3  1  0.12020450  0.40252238  0.50000006  1
  P  P4  1  0.88246442  0.57293609  -0.00000002  1
  P  P5  1  0.42706197  0.30952597  -0.00000003  1
  P  P6  1  0.69047391  0.11753657  -0.00000002  1
  Ru  Ru0  1  0.55397529  0.94663617  0.50000001  1
  Ru  Ru1  1  0.39265850  0.44602416  0.50000004  1
  Ru  Ru2  1  0.91440071  0.12249893  0.49999993  1
  Ru  Ru3  1  0.20809858  0.08559749  0.50000001  1
  Ru  Ru4  1  0.87750186  0.79190417  0.50000015  1
  Ru  Ru5  1  0.72618196  0.89073945  -0.00000003  1
  Ru  Ru6  1  0.10925694  0.83544187  -0.00000001  1
  Ru  Ru7  1  0.16455729  0.27381684  -0.00000002  1
  Ru  Ru8  1  0.42705340  0.06845992  -0.00000002  1
  Ru  Ru9  1  0.93154305  0.35859539  0.00000003  1
  Ru  Ru10  1  0.64140534  0.57294806  0.00000008  1
  Ru  Ru11  1  0.05336378  0.60733996  0.50000005  1
loop_
_geom_bond_atom_site_label_1
_geom_bond_atom_site_label_2
_geom_bond_distance
_geom_bond_site_symmetry_2
P0 Ru1 2.278182 1_555
P0 Ru4 2.334913 1_555
P0 Ru0 2.355770 1_555
P0 Ru5 2.426190 1_556
P0 Ru5 2.426190 1_555
P0 Ru10 2.513506 1_555
P0 Ru10 2.513506 1_556
P0 Sc1 2.979750 1_556
P0 Sc1 2.979751 1_555
P1 Ru6 2.218392 1_545
P1 Ru7 2.218435 1_555
P1 Ru5 2.218447 1_445
P1 Ru4 2.574302 1_444
P1 Ru4 2.574303 1_445
P1 Ru3 2.574315 1_554
P1 Ru3 2.574315 1_555
P1 Ru2 2.574332 1_455
P1 Ru2 2.574333 1_454
P2 Ru0 2.278177 1_555
P2 Ru3 2.334883 1_565
P2 Ru11 2.355770 1_555
P2 Ru6 2.426204 1_556
P2 Ru6 2.426204 1_555
P2 Ru8 2.513518 1_566
P2 Ru8 2.513518 1_565
P2 Sc1 2.979774 1_556
P2 Sc1 2.979775 1_555
P3 Ru11 2.278181 1_555
P3 Ru2 2.334904 1_455
P3 Ru1 2.355757 1_555
P3 Ru7 2.426193 1_556
P3 Ru7 2.426194 1_555
P3 Ru9 2.513501 1_456
P3 Ru9 2.513501 1_455
P3 Sc1 2.979792 1_556
P3 Sc1 2.979793 1_555
P4 Ru10 2.240041 1_555
P4 Ru9 2.254600 1_555
P4 Ru6 2.291442 1_655
P4 Ru11 2.430991 1_654
P4 Ru11 2.430992 1_655
P4 Ru4 2.833605 1_554
P4 Ru4 2.833606 1_555
P4 Sc0 2.882163 1_555
P4 Sc0 2.882164 1_554
P5 Ru8 2.240011 1_555
P5 Ru10 2.254627 1_555
P5 Ru7 2.291444 1_555
P5 Ru1 2.431004 1_554
P5 Ru1 2.431005 1_555
P5 Ru3 2.833584 1_554
P5 Ru3 2.833584 1_555
P5 Sc0 2.882179 1_555
P5 Sc0 2.882179 1_554
P6 Ru9 2.240033 1_555
P6 Ru8 2.254617 1_555
P6 Ru5 2.291453 1_545
P6 Ru0 2.431002 1_544
P6 Ru0 2.431002 1_545
P6 Ru2 2.833579 1_555
P6 Ru2 2.833580 1_554
P6 Sc0 2.882147 1_555
P6 Sc0 2.882148 1_554
Ru0 Ru5 2.730359 1_556
Ru0 Ru5 2.730359 1_555
Ru0 Ru8 2.792999 1_566
Ru0 Ru8 2.792999 1_565
Ru0 Ru2 2.900749 1_565
Ru0 Sc1 3.070995 1_556
Ru0 Sc1 3.070996 1_555
Ru0 Sc0 3.200854 1_565
Ru1 Ru7 2.730352 1_556
Ru1 Ru7 2.730352 1_555
Ru1 Ru10 2.793007 1_555
Ru1 Ru10 2.793007 1_556
Ru1 Ru3 2.900760 1_555
Ru1 Sc1 3.071002 1_556
Ru1 Sc1 3.071003 1_555
Ru1 Sc0 3.200905 1_555
Ru2 Ru5 2.779132 1_545
Ru2 Ru5 2.779132 1_546
Ru2 Ru7 2.811641 1_655
Ru2 Ru7 2.811641 1_656
Ru2 Ru9 2.877899 1_555
Ru2 Ru9 2.877900 1_556
Ru3 Ru7 2.779137 1_556
Ru3 Ru7 2.779137 1_555
Ru3 Ru6 2.811633 1_546
Ru3 Ru6 2.811633 1_545
Ru3 Ru8 2.877885 1_556
Ru3 Ru8 2.877885 1_555
Ru4 Ru6 2.779108 1_656
Ru4 Ru6 2.779109 1_655
Ru4 Ru5 2.811634 1_556
Ru4 Ru5 2.811635 1_555
Ru5 Sc1 3.171785 1_555
Ru6 Ru8 2.648538 1_565
Ru6 Sc1 3.171844 1_555
Ru7 Ru9 2.648502 1_455
Ru7 Sc1 3.171836 1_555
Ru8 Sc0 3.054270 1_555
Ru8 Sc0 3.054270 1_554
Ru8 Sc1 3.383261 1_545
Ru9 Sc0 3.054271 1_555
Ru9 Sc0 3.054273 1_554
Ru9 Sc1 3.383272 1_655
Ru10 Ru5 2.648496 1_555
Ru10 Ru4 2.877906 1_554
Ru10 Ru4 2.877907 1_555
Ru10 Sc0 3.054301 1_555
Ru10 Sc0 3.054302 1_554
Ru10 Sc1 3.383232 1_555
Ru11 Ru6 2.730357 1_556
Ru11 Ru6 2.730358 1_555
Ru11 Ru9 2.792995 1_456
Ru11 Ru9 2.792995 1_455
Ru11 Ru4 2.900753 1_455
Ru11 Sc1 3.071030 1_556
Ru11 Sc1 3.071030 1_555
Ru11 Sc0 3.200866 1_455
