# generated using pymatgen
data_Na5Cu3(PO4)4
_symmetry_space_group_name_H-M   'P 1'
_cell_length_a   5.15331062
_cell_length_b   8.50180263
_cell_length_c   9.19285868
_cell_angle_alpha   116.13219970
_cell_angle_beta   89.51196678
_cell_angle_gamma   106.14480939
_symmetry_Int_Tables_number   1
_chemical_formula_structural   Na5Cu3(PO4)4
_chemical_formula_sum   'Na5 Cu3 P4 O16'
_cell_volume   344.28507114
_cell_formula_units_Z   1
loop_
 _symmetry_equiv_pos_site_id
 _symmetry_equiv_pos_as_xyz
  1  'x, y, z'
loop_
 _atom_site_type_symbol
 _atom_site_label
 _atom_site_symmetry_multiplicity
 _atom_site_fract_x
 _atom_site_fract_y
 _atom_site_fract_z
 _atom_site_occupancy
  Na  Na0  1  0.50000000  0.00000000  0.50000000  1
  Na  Na1  1  0.78774600  0.53638400  0.75567200  1
  Na  Na2  1  0.21225400  0.46361600  0.24432800  1
  Na  Na3  1  0.16445800  0.35253600  0.86441200  1
  Na  Na4  1  0.83554200  0.64746400  0.13558800  1
  Cu  Cu0  1  0.00000000  0.00000000  0.00000000  1
  Cu  Cu1  1  0.34805500  0.75034900  0.70726700  1
  Cu  Cu2  1  0.65194500  0.24965100  0.29273300  1
  P  P0  1  0.57072400  0.18341700  0.93118400  1
  P  P1  1  0.42927600  0.81658300  0.06881600  1
  P  P2  1  0.77780500  0.69418900  0.47656800  1
  P  P3  1  0.22219500  0.30581100  0.52343200  1
  O  O0  1  0.76276500  0.17429400  0.06162300  1
  O  O1  1  0.23723500  0.82570600  0.93837700  1
  O  O2  1  0.52758600  0.01010000  0.76595900  1
  O  O3  1  0.47241400  0.98990000  0.23404100  1
  O  O4  1  0.29756200  0.20098400  0.00277500  1
  O  O5  1  0.70243800  0.79901600  0.99722500  1
  O  O6  1  0.70296900  0.35581500  0.90905000  1
  O  O7  1  0.29703100  0.64418500  0.09095000  1
  O  O8  1  0.47171500  0.69493400  0.49585000  1
  O  O9  1  0.52828500  0.30506600  0.50415000  1
  O  O10  1  0.76145800  0.50047300  0.32488300  1
  O  O11  1  0.23854200  0.49952700  0.67511700  1
  O  O12  1  0.91767500  0.72717500  0.63688400  1
  O  O13  1  0.08232500  0.27282500  0.36311600  1
  O  O14  1  0.91293400  0.82570800  0.40711100  1
  O  O15  1  0.08706600  0.17429200  0.59288900  1
loop_
_geom_bond_atom_site_label_1
_geom_bond_atom_site_label_2
_geom_bond_distance
_geom_bond_site_symmetry_2
Na0 O2 2.412350 1_555
Na0 O3 2.412350 1_545
Na0 O9 2.540120 1_555
Na0 O8 2.540120 1_545
Na0 O14 2.839229 1_545
Na0 O15 2.839229 1_555
Na0 O15 2.917847 1_655
Na0 O14 2.917847 1_445
Na1 O12 2.283800 1_555
Na1 O9 2.363553 1_555
Na1 O6 2.461480 1_555
Na1 O11 2.492880 1_655
Na1 O5 2.504284 1_555
Na1 O1 2.737747 1_655
Na1 O11 2.827508 1_555
Na2 O13 2.283800 1_555
Na2 O8 2.363553 1_555
Na2 O7 2.461480 1_555
Na2 O10 2.492880 1_455
Na2 O4 2.504284 1_555
Na2 O0 2.737747 1_455
Na2 O10 2.827508 1_555
Na3 O15 2.243818 1_555
Na3 O7 2.342073 1_556
Na3 O4 2.387158 1_556
Na3 O6 2.415606 1_455
Na3 O11 2.524801 1_555
Na3 O6 2.799415 1_555
Na4 O14 2.243818 1_555
Na4 O6 2.342073 1_554
Na4 O5 2.387158 1_554
Na4 O7 2.415606 1_655
Na4 O10 2.524801 1_555
Na4 O7 2.799415 1_555
Cu0 O5 1.943422 1_444
Cu0 O4 1.943422 1_555
Cu0 O0 2.065801 1_455
Cu0 O1 2.065801 1_544
Cu1 O11 1.931718 1_555
Cu1 O8 1.935107 1_555
Cu1 O2 1.961264 1_565
Cu1 O1 2.057707 1_555
Cu1 O12 2.246240 1_455
Cu2 O10 1.931718 1_555
Cu2 O9 1.935107 1_555
Cu2 O3 1.961264 1_545
Cu2 O0 2.057707 1_555
Cu2 O13 2.246240 1_655
O0 P0 1.602531 1_554
O1 P1 1.602531 1_556
O2 P0 1.542641 1_555
O3 P1 1.542641 1_555
O4 P0 1.565751 1_554
O5 P1 1.565751 1_556
O6 P0 1.535886 1_555
O7 P1 1.535886 1_555
O8 P2 1.587256 1_555
O9 P3 1.587256 1_555
O10 P2 1.601801 1_555
O11 P3 1.601801 1_555
O12 P2 1.520451 1_555
O13 P3 1.520451 1_555
O14 P2 1.526819 1_555
O15 P3 1.526819 1_555
