# generated using pymatgen
data_La2Ni7
_symmetry_space_group_name_H-M   'P 1'
_cell_length_a   5.01598214
_cell_length_b   5.01598200
_cell_length_c   12.66106125
_cell_angle_alpha   78.57488871
_cell_angle_beta   78.57488993
_cell_angle_gamma   60.00000093
_symmetry_Int_Tables_number   1
_chemical_formula_structural   La2Ni7
_chemical_formula_sum   'La4 Ni14'
_cell_volume   268.56167196
_cell_formula_units_Z   2
loop_
 _symmetry_equiv_pos_site_id
 _symmetry_equiv_pos_as_xyz
  1  'x, y, z'
loop_
 _atom_site_type_symbol
 _atom_site_label
 _atom_site_symmetry_multiplicity
 _atom_site_fract_x
 _atom_site_fract_y
 _atom_site_fract_z
 _atom_site_occupancy
  La  La0  1  0.94941700  0.94941700  0.15174900  1
  La  La1  1  0.05058300  0.05058300  0.84825100  1
  La  La2  1  0.85312400  0.85312400  0.44062800  1
  La  La3  1  0.14687600  0.14687600  0.55937200  1
  Ni  Ni0  1  0.50000000  0.50000000  0.50000000  1
  Ni  Ni1  1  0.72152500  0.72152500  0.83542500  1
  Ni  Ni2  1  0.27847500  0.27847500  0.16457500  1
  Ni  Ni3  1  0.61235000  0.61235000  0.16295000  1
  Ni  Ni4  1  0.38765000  0.38765000  0.83705000  1
  Ni  Ni5  1  0.00000000  0.50000000  0.00000000  1
  Ni  Ni6  1  0.50000000  0.00000000  0.00000000  1
  Ni  Ni7  1  0.50000000  0.50000000  0.00000000  1
  Ni  Ni8  1  0.39205100  0.39205100  0.32551700  1
  Ni  Ni9  1  0.89038100  0.39205100  0.32551700  1
  Ni  Ni10  1  0.39205100  0.89038100  0.32551700  1
  Ni  Ni11  1  0.60794900  0.60794900  0.67448300  1
  Ni  Ni12  1  0.10961900  0.60794900  0.67448300  1
  Ni  Ni13  1  0.60794900  0.10961900  0.67448300  1
loop_
_geom_bond_atom_site_label_1
_geom_bond_atom_site_label_2
_geom_bond_distance
_geom_bond_site_symmetry_2
La0 Ni3 2.899267 1_555
La0 Ni3 2.899267 1_565
La0 Ni3 2.899268 1_655
La0 Ni2 2.900290 1_655
La0 Ni2 2.900290 1_665
La0 Ni2 2.900290 1_565
La0 Ni9 3.298058 1_555
La0 Ni9 3.298058 1_565
La0 Ni10 3.298058 1_655
La0 Ni8 3.298058 1_655
La0 Ni8 3.298058 1_565
La0 Ni10 3.298058 1_555
La0 La2 3.560553 1_555
La1 Ni4 2.899267 1_545
La1 Ni4 2.899267 1_555
La1 Ni4 2.899268 1_455
La1 Ni1 2.900290 1_445
La1 Ni1 2.900290 1_455
La1 Ni1 2.900290 1_545
La1 Ni12 3.298058 1_545
La1 Ni12 3.298058 1_555
La1 Ni13 3.298058 1_455
La1 Ni11 3.298058 1_455
La1 Ni11 3.298058 1_545
La1 Ni13 3.298058 1_555
La1 La3 3.560553 1_555
La2 Ni9 2.881494 1_555
La2 Ni9 2.881494 1_565
La2 Ni10 2.881494 1_555
La2 Ni8 2.881494 1_565
La2 Ni8 2.881494 1_655
La2 Ni10 2.881494 1_655
La2 Ni0 2.987005 1_555
La2 Ni0 2.987005 1_565
La2 Ni0 2.987005 1_655
La2 Ni12 3.227801 1_655
La2 Ni13 3.227801 1_565
La2 Ni11 3.227801 1_555
La2 La3 3.244800 1_655
La2 La3 3.244800 1_665
La2 La3 3.244800 1_565
La3 Ni12 2.881494 1_555
La3 Ni12 2.881494 1_545
La3 Ni13 2.881494 1_555
La3 Ni11 2.881494 1_545
La3 Ni11 2.881494 1_455
La3 Ni13 2.881494 1_455
La3 Ni0 2.987005 1_555
La3 Ni0 2.987005 1_545
La3 Ni0 2.987005 1_455
La3 Ni9 3.227801 1_455
La3 Ni8 3.227801 1_555
La3 Ni10 3.227801 1_545
Ni0 Ni11 2.589916 1_555
Ni0 Ni13 2.589916 1_555
Ni0 Ni8 2.589916 1_555
Ni0 Ni10 2.589916 1_555
Ni0 Ni12 2.589916 1_555
Ni0 Ni9 2.589916 1_555
Ni1 Ni13 2.458795 1_565
Ni1 Ni11 2.458795 1_555
Ni1 Ni12 2.458795 1_655
Ni1 Ni5 2.492248 1_656
Ni1 Ni7 2.492248 1_556
Ni1 Ni6 2.492248 1_566
Ni1 Ni4 2.896048 1_555
Ni1 Ni4 2.896048 1_565
Ni1 Ni4 2.896048 1_655
Ni2 Ni8 2.458795 1_555
Ni2 Ni9 2.458795 1_455
Ni2 Ni5 2.492248 1_555
Ni2 Ni6 2.492248 1_555
Ni2 Ni7 2.492248 1_555
Ni2 Ni3 2.896048 1_545
Ni2 Ni3 2.896048 1_555
Ni2 Ni3 2.896048 1_455
Ni3 Ni9 2.469317 1_555
Ni3 Ni8 2.469317 1_555
Ni3 Ni6 2.475974 1_565
Ni3 Ni7 2.475974 1_555
Ni3 Ni5 2.475974 1_655
Ni4 Ni7 2.475974 1_556
Ni4 Ni6 2.475974 1_556
Ni4 Ni5 2.475974 1_556
Ni5 Ni7 2.507991 1_455
Ni5 Ni6 2.507991 1_555
Ni5 Ni6 2.507991 1_465
Ni5 Ni7 2.507991 1_555
Ni6 Ni7 2.507991 1_555
Ni6 Ni7 2.507991 1_545
Ni8 Ni9 2.499614 1_555
Ni8 Ni9 2.516368 1_455
Ni10 Ni2 2.458795 1_565
Ni10 Ni3 2.469317 1_555
Ni10 Ni8 2.499614 1_555
Ni10 Ni9 2.499614 1_555
Ni10 Ni8 2.516368 1_565
Ni10 Ni9 2.516368 1_465
Ni11 Ni4 2.469317 1_555
Ni11 Ni13 2.499614 1_555
Ni11 Ni12 2.499614 1_555
Ni11 Ni13 2.516368 1_565
Ni11 Ni12 2.516368 1_655
Ni12 Ni4 2.469317 1_555
Ni12 Ni13 2.499614 1_555
Ni12 Ni13 2.516368 1_465
Ni13 Ni4 2.469317 1_555
