# generated using pymatgen
data_BrN2O5F3
_symmetry_space_group_name_H-M   'P 1'
_cell_length_a   8.39463358
_cell_length_b   8.39463358
_cell_length_c   10.24962772
_cell_angle_alpha   98.83471854
_cell_angle_beta   98.83471854
_cell_angle_gamma   105.79907590
_symmetry_Int_Tables_number   1
_chemical_formula_structural   BrN2O5F3
_chemical_formula_sum   'Br4 N8 O20 F12'
_cell_volume   672.09884590
_cell_formula_units_Z   4
loop_
 _symmetry_equiv_pos_site_id
 _symmetry_equiv_pos_as_xyz
  1  'x, y, z'
loop_
 _atom_site_type_symbol
 _atom_site_label
 _atom_site_symmetry_multiplicity
 _atom_site_fract_x
 _atom_site_fract_y
 _atom_site_fract_z
 _atom_site_occupancy
  Br  Br0  1  0.61440900  0.38559100  0.75000000  1
  Br  Br1  1  0.38559100  0.61440900  0.25000000  1
  Br  Br2  1  0.94760900  0.05239100  0.75000000  1
  Br  Br3  1  0.05239100  0.94760900  0.25000000  1
  N  N0  1  0.63792400  0.90687200  0.95800000  1
  N  N1  1  0.36207600  0.09312800  0.04200000  1
  N  N2  1  0.09312800  0.36207600  0.54200000  1
  N  N3  1  0.90687200  0.63792400  0.45800000  1
  N  N4  1  0.39477000  0.80505000  0.65541600  1
  N  N5  1  0.60523000  0.19495000  0.34458400  1
  N  N6  1  0.19495000  0.60523000  0.84458400  1
  N  N7  1  0.80505000  0.39477000  0.15541600  1
  O  O0  1  0.49277000  0.50723000  0.75000000  1
  O  O1  1  0.50723000  0.49277000  0.25000000  1
  O  O2  1  0.06984600  0.93015400  0.75000000  1
  O  O3  1  0.93015400  0.06984600  0.25000000  1
  O  O4  1  0.36327800  0.91451200  0.62187500  1
  O  O5  1  0.63672200  0.08548800  0.37812500  1
  O  O6  1  0.08548800  0.63672200  0.87812500  1
  O  O7  1  0.91451200  0.36327800  0.12187500  1
  O  O8  1  0.84996300  0.07016300  0.60521200  1
  O  O9  1  0.15003700  0.92983700  0.39478800  1
  O  O10  1  0.92983700  0.15003700  0.89478800  1
  O  O11  1  0.07016300  0.84996300  0.10521200  1
  O  O12  1  0.34407800  0.19386400  0.98747400  1
  O  O13  1  0.65592200  0.80613600  0.01252600  1
  O  O14  1  0.80613600  0.65592200  0.51252600  1
  O  O15  1  0.19386400  0.34407800  0.48747400  1
  O  O16  1  0.56446500  0.21190900  0.80872700  1
  O  O17  1  0.43553500  0.78809100  0.19127300  1
  O  O18  1  0.78809100  0.43553500  0.69127300  1
  O  O19  1  0.21190900  0.56446500  0.30872700  1
  F  F0  1  0.49097800  0.25915900  0.57146300  1
  F  F1  1  0.50902200  0.74084100  0.42853700  1
  F  F2  1  0.74084100  0.50902200  0.92853700  1
  F  F3  1  0.25915900  0.49097800  0.07146300  1
  F  F4  1  0.75337200  0.86228500  0.75316800  1
  F  F5  1  0.24662800  0.13771500  0.24683200  1
  F  F6  1  0.13771500  0.24662800  0.74683200  1
  F  F7  1  0.86228500  0.75337200  0.25316800  1
  F  F8  1  0.39658000  0.84603900  0.86745700  1
  F  F9  1  0.60342000  0.15396100  0.13254300  1
  F  F10  1  0.15396100  0.60342000  0.63254300  1
  F  F11  1  0.84603900  0.39658000  0.36745700  1
loop_
_geom_bond_atom_site_label_1
_geom_bond_atom_site_label_2
_geom_bond_distance
_geom_bond_site_symmetry_2
Br0 O0 1.628840 1_555
Br0 O16 1.636486 1_555
Br0 O18 1.636486 1_555
Br0 F2 1.941885 1_555
Br0 F0 1.941885 1_555
Br1 O1 1.628840 1_555
Br1 O19 1.636486 1_555
Br1 O17 1.636486 1_555
Br1 F3 1.941885 1_555
Br1 F1 1.941885 1_555
Br2 O10 1.630164 1_555
Br2 O8 1.630164 1_555
Br2 O2 1.636847 1_645
Br2 F4 1.954938 1_545
Br2 F6 1.954938 1_655
Br3 O9 1.630164 1_555
Br3 O11 1.630164 1_555
Br3 O3 1.636847 1_465
Br3 F7 1.954938 1_455
Br3 F5 1.954938 1_565
N0 O13 1.113139 1_556
N1 O12 1.113139 1_554
N2 O15 1.113139 1_555
N3 O14 1.113139 1_555
N4 O4 1.110782 1_555
N5 O5 1.110782 1_555
N6 O6 1.110782 1_555
N7 O7 1.110782 1_555
F8 N0 1.984992 1_555
F9 N1 1.984992 1_555
F10 N2 1.984992 1_555
F11 N3 1.984992 1_555
