# generated using pymatgen
data_MnH30C6(Se2N3)2
_symmetry_space_group_name_H-M   'P 1'
_cell_length_a   8.78150963
_cell_length_b   8.78150963
_cell_length_c   14.33574264
_cell_angle_alpha   78.66227320
_cell_angle_beta   78.66227320
_cell_angle_gamma   88.79203055
_symmetry_Int_Tables_number   1
_chemical_formula_structural   MnH30C6(Se2N3)2
_chemical_formula_sum   'Mn2 H60 C12 Se8 N12'
_cell_volume   1062.59636082
_cell_formula_units_Z   2
loop_
 _symmetry_equiv_pos_site_id
 _symmetry_equiv_pos_as_xyz
  1  'x, y, z'
loop_
 _atom_site_type_symbol
 _atom_site_label
 _atom_site_symmetry_multiplicity
 _atom_site_fract_x
 _atom_site_fract_y
 _atom_site_fract_z
 _atom_site_occupancy
  Mn  Mn0  1  0.33471200  0.66528800  0.75000000  1
  Mn  Mn1  1  0.66528800  0.33471200  0.25000000  1
  H  H0  1  0.48269400  0.38793300  0.82541400  1
  H  H1  1  0.61206700  0.51730600  0.67458600  1
  H  H2  1  0.51730600  0.61206700  0.17458600  1
  H  H3  1  0.38793300  0.48269400  0.32541400  1
  H  H4  1  0.42594300  0.48256900  0.91136300  1
  H  H5  1  0.51743100  0.57405700  0.58863700  1
  H  H6  1  0.57405700  0.51743100  0.08863700  1
  H  H7  1  0.48256900  0.42594300  0.41136300  1
  H  H8  1  0.15039400  0.37121400  0.91588900  1
  H  H9  1  0.62878600  0.84960600  0.58411100  1
  H  H10  1  0.84960600  0.62878600  0.08411100  1
  H  H11  1  0.37121400  0.15039400  0.41588900  1
  H  H12  1  0.28636100  0.25384400  0.97343500  1
  H  H13  1  0.74615600  0.71363900  0.52656500  1
  H  H14  1  0.71363900  0.74615600  0.02656500  1
  H  H15  1  0.25384400  0.28636100  0.47343500  1
  H  H16  1  0.26518100  0.23793400  0.85464100  1
  H  H17  1  0.76206600  0.73481900  0.64535900  1
  H  H18  1  0.73481900  0.76206600  0.14535900  1
  H  H19  1  0.23793400  0.26518100  0.35464100  1
  H  H20  1  0.09007900  0.46776400  0.74318800  1
  H  H21  1  0.53223600  0.90992100  0.75681200  1
  H  H22  1  0.90992100  0.53223600  0.25681200  1
  H  H23  1  0.46776400  0.09007900  0.24318800  1
  H  H24  1  0.25812000  0.39599200  0.69885100  1
  H  H25  1  0.60400800  0.74188000  0.80114900  1
  H  H26  1  0.74188000  0.60400800  0.30114900  1
  H  H27  1  0.39599200  0.25812000  0.19885100  1
  H  H28  1  0.09178100  0.43387400  0.58059000  1
  H  H29  1  0.56612600  0.90821900  0.91941000  1
  H  H30  1  0.90821900  0.56612600  0.41941000  1
  H  H31  1  0.43387400  0.09178100  0.08059000  1
  H  H32  1  0.26243500  0.55503800  0.54015600  1
  H  H33  1  0.44496200  0.73756500  0.95984400  1
  H  H34  1  0.73756500  0.44496200  0.45984400  1
  H  H35  1  0.55503800  0.26243500  0.04015600  1
  H  H36  1  0.08282000  0.63313100  0.58824300  1
  H  H37  1  0.36686900  0.91718000  0.91175700  1
  H  H38  1  0.91718000  0.36686900  0.41175700  1
  H  H39  1  0.63313100  0.08282000  0.08824300  1
  H  H40  1  0.04700000  0.61955900  0.87829100  1
  H  H41  1  0.38044100  0.95300000  0.62170900  1
  H  H42  1  0.95300000  0.38044100  0.12170900  1
  H  H43  1  0.61955900  0.04700000  0.37829100  1
  H  H44  1  0.17588000  0.66099300  0.93848500  1
  H  H45  1  0.33900700  0.82412000  0.56151500  1
  H  H46  1  0.82412000  0.33900700  0.06151500  1
  H  H47  1  0.66099300  0.17588000  0.43848500  1
  H  H48  1  0.15451000  0.94514700  0.84684100  1
  H  H49  1  0.05485300  0.84549000  0.65315900  1
  H  H50  1  0.84549000  0.05485300  0.15315900  1
  H  H51  1  0.94514700  0.15451000  0.34684100  1
  H  H52  1  0.97806200  0.86982000  0.83065000  1
  H  H53  1  0.13018000  0.02193800  0.66935000  1
  H  H54  1  0.02193800  0.13018000  0.16935000  1
  H  H55  1  0.86982000  0.97806200  0.33065000  1
  H  H56  1  0.00987100  0.86591900  0.94991200  1
  H  H57  1  0.13408100  0.99012900  0.55008800  1
  H  H58  1  0.99012900  0.13408100  0.05008800  1
  H  H59  1  0.86591900  0.00987100  0.44991200  1
  C  C0  1  0.15544900  0.52994900  0.59556000  1
  C  C1  1  0.47005100  0.84455100  0.90444000  1
  C  C2  1  0.84455100  0.47005100  0.40444000  1
  C  C3  1  0.52994900  0.15544900  0.09556000  1
  C  C4  1  0.06584300  0.85260900  0.87640100  1
  C  C5  1  0.14739100  0.93415700  0.62359900  1
  C  C6  1  0.93415700  0.14739100  0.12359900  1
  C  C7  1  0.85260900  0.06584300  0.37640100  1
  C  C8  1  0.26567600  0.31971300  0.90349200  1
  C  C9  1  0.68028700  0.73432400  0.59650800  1
  C  C10  1  0.73432400  0.68028700  0.09650800  1
  C  C11  1  0.31971300  0.26567600  0.40349200  1
  Se  Se0  1  0.80172000  0.48537300  0.86061100  1
  Se  Se1  1  0.51462700  0.19828000  0.63938900  1
  Se  Se2  1  0.19828000  0.51462700  0.13938900  1
  Se  Se3  1  0.48537300  0.80172000  0.36061100  1
  Se  Se4  1  0.78981500  0.22855600  0.83060800  1
  Se  Se5  1  0.77144400  0.21018500  0.66939200  1
  Se  Se6  1  0.21018500  0.77144400  0.16939200  1
  Se  Se7  1  0.22855600  0.78981500  0.33060800  1
  N  N0  1  0.19239900  0.49480100  0.69358400  1
  N  N1  1  0.50519900  0.80760100  0.80641600  1
  N  N2  1  0.80760100  0.50519900  0.30641600  1
  N  N3  1  0.49480100  0.19239900  0.19358400  1
  N  N4  1  0.13524400  0.69784700  0.87526700  1
  N  N5  1  0.30215300  0.86475600  0.62473300  1
  N  N6  1  0.86475600  0.30215300  0.12473300  1
  N  N7  1  0.69784700  0.13524400  0.37526700  1
  N  N8  1  0.38733500  0.44037600  0.85819600  1
  N  N9  1  0.55962400  0.61266500  0.64180400  1
  N  N10  1  0.61266500  0.55962400  0.14180400  1
  N  N11  1  0.44037600  0.38733500  0.35819600  1
loop_
_geom_bond_atom_site_label_1
_geom_bond_atom_site_label_2
_geom_bond_distance
_geom_bond_site_symmetry_2
Mn0 N5 2.306256 1_555
Mn0 N4 2.306256 1_555
Mn0 N0 2.325873 1_555
Mn0 N1 2.325873 1_555
Mn0 N9 2.357771 1_555
Mn0 N8 2.357771 1_555
Mn1 N6 2.306256 1_555
Mn1 N7 2.306256 1_555
Mn1 N3 2.325873 1_555
Mn1 N2 2.325873 1_555
Mn1 N11 2.357771 1_555
Mn1 N10 2.357771 1_555
H0 N8 1.023855 1_555
H1 N9 1.023855 1_555
H2 N10 1.023855 1_555
H3 N11 1.023855 1_555
H4 N8 1.025230 1_555
H5 N9 1.025230 1_555
H6 N10 1.025230 1_555
H7 N11 1.025230 1_555
H20 N0 1.029942 1_555
H21 N1 1.029942 1_555
H22 N2 1.029942 1_555
H23 N3 1.029942 1_555
H24 N0 1.030500 1_555
H25 N1 1.030500 1_555
H26 N2 1.030500 1_555
H27 N3 1.030500 1_555
H40 N4 1.035638 1_555
H41 N5 1.035638 1_555
H42 N6 1.035638 1_555
H43 N7 1.035638 1_555
H44 N4 1.029748 1_555
H45 N5 1.029748 1_555
H46 N6 1.029748 1_555
H47 N7 1.029748 1_555
C0 H36 1.096976 1_555
C0 H32 1.099351 1_555
C0 H28 1.099412 1_555
C0 N0 1.476411 1_555
C1 H37 1.096976 1_555
C1 H33 1.099351 1_555
C1 H29 1.099412 1_555
C1 N1 1.476411 1_555
C2 H38 1.096976 1_555
C2 H34 1.099351 1_555
C2 H30 1.099412 1_555
C2 N2 1.476411 1_555
C3 H39 1.096976 1_555
C3 H35 1.099351 1_555
C3 H31 1.099412 1_555
C3 N3 1.476411 1_555
C4 H52 1.096413 1_455
C4 H48 1.098975 1_555
C4 H56 1.099166 1_555
C4 N4 1.479378 1_555
C5 H53 1.096413 1_565
C5 H49 1.098975 1_555
C5 H57 1.099166 1_555
C5 N5 1.479378 1_555
C6 H54 1.096413 1_655
C6 H50 1.098975 1_555
C6 H58 1.099166 1_555
C6 N6 1.479378 1_555
C7 H55 1.096413 1_545
C7 H51 1.098975 1_555
C7 H59 1.099166 1_555
C7 N7 1.479378 1_555
C8 H8 1.096600 1_555
C8 H16 1.097844 1_555
C8 H12 1.100952 1_555
C8 N8 1.479939 1_555
C9 H9 1.096600 1_555
C9 H17 1.097844 1_555
C9 H13 1.100952 1_555
C9 N9 1.479939 1_555
C10 H10 1.096600 1_555
C10 H18 1.097844 1_555
C10 H14 1.100952 1_555
C10 N10 1.479939 1_555
C11 H11 1.096600 1_555
C11 H19 1.097844 1_555
C11 H15 1.100952 1_555
C11 N11 1.479939 1_555
Se0 Se4 2.385593 1_555
Se1 Se5 2.385593 1_555
Se2 Se6 2.385593 1_555
Se3 Se7 2.385593 1_555
Se4 Se5 2.384903 1_555
Se6 Se7 2.384903 1_555
