# generated using pymatgen
data_HoAl3(H3C)12
_symmetry_space_group_name_H-M   'P 1'
_cell_length_a   10.24034015
_cell_length_b   10.24034015
_cell_length_c   13.26206490
_cell_angle_alpha   83.52329959
_cell_angle_beta   83.52329959
_cell_angle_gamma   108.99753674
_symmetry_Int_Tables_number   1
_chemical_formula_structural   HoAl3(H3C)12
_chemical_formula_sum   'Ho2 Al6 H72 C24'
_cell_volume   1289.92679331
_cell_formula_units_Z   2
loop_
 _symmetry_equiv_pos_site_id
 _symmetry_equiv_pos_as_xyz
  1  'x, y, z'
loop_
 _atom_site_type_symbol
 _atom_site_label
 _atom_site_symmetry_multiplicity
 _atom_site_fract_x
 _atom_site_fract_y
 _atom_site_fract_z
 _atom_site_occupancy
  Ho  Ho0  1  0.72944700  0.27055300  0.25000000  1
  Ho  Ho1  1  0.27055300  0.72944700  0.75000000  1
  Al  Al0  1  0.54362700  0.45637300  0.25000000  1
  Al  Al1  1  0.45637300  0.54362700  0.75000000  1
  Al  Al2  1  0.86306000  0.22146100  0.44427200  1
  Al  Al3  1  0.77853900  0.13694000  0.05572800  1
  Al  Al4  1  0.13694000  0.77853900  0.55572800  1
  Al  Al5  1  0.22146100  0.86306000  0.94427200  1
  H  H0  1  0.61930600  0.03593800  0.38921600  1
  H  H1  1  0.96406200  0.38069400  0.11078400  1
  H  H2  1  0.38069400  0.96406200  0.61078400  1
  H  H3  1  0.03593800  0.61930600  0.88921600  1
  H  H4  1  0.72932500  0.43632000  0.08178400  1
  H  H5  1  0.56368000  0.27067500  0.41821600  1
  H  H6  1  0.27067500  0.56368000  0.91821600  1
  H  H7  1  0.43632000  0.72932500  0.58178400  1
  H  H8  1  0.75291500  0.99013000  0.43344900  1
  H  H9  1  0.00987000  0.24708500  0.06655100  1
  H  H10  1  0.24708500  0.00987000  0.56655100  1
  H  H11  1  0.99013000  0.75291500  0.93344900  1
  H  H12  1  0.83516000  0.53568000  0.16516500  1
  H  H13  1  0.46432000  0.16484000  0.33483500  1
  H  H14  1  0.16484000  0.46432000  0.83483500  1
  H  H15  1  0.53568000  0.83516000  0.66516500  1
  H  H16  1  0.94916100  0.46097000  0.41956000  1
  H  H17  1  0.53903000  0.05083900  0.08044000  1
  H  H18  1  0.05083900  0.53903000  0.58044000  1
  H  H19  1  0.46097000  0.94916100  0.91956000  1
  H  H20  1  0.64711500  0.17942200  0.58791600  1
  H  H21  1  0.82057800  0.35288500  0.91208400  1
  H  H22  1  0.35288500  0.82057800  0.41208400  1
  H  H23  1  0.17942200  0.64711500  0.08791600  1
  H  H24  1  0.76530900  0.03244400  0.30193100  1
  H  H25  1  0.96755600  0.23469100  0.19806900  1
  H  H26  1  0.23469100  0.96755600  0.69806900  1
  H  H27  1  0.03244400  0.76530900  0.80193100  1
  H  H28  1  0.71002500  0.58896800  0.11429800  1
  H  H29  1  0.41103200  0.28997500  0.38570200  1
  H  H30  1  0.28997500  0.41103200  0.88570200  1
  H  H31  1  0.58896800  0.71002500  0.61429800  1
  H  H32  1  0.80481800  0.46534200  0.36480300  1
  H  H33  1  0.53465800  0.19518200  0.13519700  1
  H  H34  1  0.19518200  0.53465800  0.63519700  1
  H  H35  1  0.46534200  0.80481800  0.86480300  1
  H  H36  1  0.08787200  0.17224600  0.36900800  1
  H  H37  1  0.82775400  0.91212800  0.13099200  1
  H  H38  1  0.91212800  0.82775400  0.63099200  1
  H  H39  1  0.17224600  0.08787200  0.86900800  1
  H  H40  1  0.96028600  0.46192400  0.28918900  1
  H  H41  1  0.53807600  0.03971400  0.21081100  1
  H  H42  1  0.03971400  0.53807600  0.71081100  1
  H  H43  1  0.46192400  0.96028600  0.78918900  1
  H  H44  1  0.80420900  0.28126900  0.62619000  1
  H  H45  1  0.71873100  0.19579100  0.87381000  1
  H  H46  1  0.19579100  0.71873100  0.37381000  1
  H  H47  1  0.28126900  0.80420900  0.12619000  1
  H  H48  1  0.76600700  0.09949800  0.62970800  1
  H  H49  1  0.90050200  0.23399300  0.87029200  1
  H  H50  1  0.23399300  0.90050200  0.37029200  1
  H  H51  1  0.09949800  0.76600700  0.12970800  1
  H  H52  1  0.41743900  0.51130500  0.10294900  1
  H  H53  1  0.48869500  0.58256100  0.39705100  1
  H  H54  1  0.58256100  0.48869500  0.89705100  1
  H  H55  1  0.51130500  0.41743900  0.60294900  1
  H  H56  1  0.29380100  0.42977600  0.21565000  1
  H  H57  1  0.57022400  0.70619900  0.28435000  1
  H  H58  1  0.70619900  0.57022400  0.78435000  1
  H  H59  1  0.42977600  0.29380100  0.71565000  1
  H  H60  1  0.35941200  0.32653600  0.13919000  1
  H  H61  1  0.67346400  0.64058800  0.36081000  1
  H  H62  1  0.64058800  0.67346400  0.86081000  1
  H  H63  1  0.32653600  0.35941200  0.63919000  1
  H  H64  1  0.06530500  0.15248000  0.50554500  1
  H  H65  1  0.84752000  0.93469500  0.99445500  1
  H  H66  1  0.93469500  0.84752000  0.49445500  1
  H  H67  1  0.15248000  0.06530500  0.00554500  1
  H  H68  1  0.13284800  0.32211300  0.43055600  1
  H  H69  1  0.67788700  0.86715200  0.06944400  1
  H  H70  1  0.86715200  0.67788700  0.56944400  1
  H  H71  1  0.32211300  0.13284800  0.93055600  1
  C  C0  1  0.72746000  0.49317300  0.14759700  1
  C  C1  1  0.50682700  0.27254000  0.35240300  1
  C  C2  1  0.27254000  0.50682700  0.85240300  1
  C  C3  1  0.49317300  0.72746000  0.64759700  1
  C  C4  1  0.38850800  0.42646900  0.16902800  1
  C  C5  1  0.57353100  0.61149200  0.33097200  1
  C  C6  1  0.61149200  0.57353100  0.83097200  1
  C  C7  1  0.42646900  0.38850800  0.66902800  1
  C  C8  1  0.88581800  0.41569000  0.36157500  1
  C  C9  1  0.58431000  0.11418200  0.13842500  1
  C  C10  1  0.11418200  0.58431000  0.63842500  1
  C  C11  1  0.41569000  0.88581800  0.86157500  1
  C  C12  1  0.73466200  0.06534600  0.37489900  1
  C  C13  1  0.93465400  0.26533800  0.12510100  1
  C  C14  1  0.26533800  0.93465400  0.62510100  1
  C  C15  1  0.06534600  0.73466200  0.87489900  1
  C  C16  1  0.75892500  0.19365700  0.58480700  1
  C  C17  1  0.80634300  0.24107500  0.91519300  1
  C  C18  1  0.24107500  0.80634300  0.41519300  1
  C  C19  1  0.19365700  0.75892500  0.08480700  1
  C  C20  1  0.05608200  0.21621200  0.43555900  1
  C  C21  1  0.78378800  0.94391800  0.06444100  1
  C  C22  1  0.94391800  0.78378800  0.56444100  1
  C  C23  1  0.21621200  0.05608200  0.93555900  1
loop_
_geom_bond_atom_site_label_1
_geom_bond_atom_site_label_2
_geom_bond_distance
_geom_bond_site_symmetry_2
Al0 C5 1.978004 1_555
Al0 C4 1.978004 1_555
Al0 C1 2.091924 1_555
Al0 C0 2.091924 1_555
Al1 C6 1.978004 1_555
Al1 C7 1.978004 1_555
Al1 C2 2.091924 1_555
Al1 C3 2.091924 1_555
Al2 C16 1.981452 1_555
Al2 C20 1.985517 1_655
Al2 C8 2.088440 1_555
Al2 C12 2.089787 1_555
Al3 C17 1.981452 1_554
Al3 C21 1.985517 1_545
Al3 C9 2.088440 1_555
Al3 C13 2.089787 1_555
Al4 C18 1.981452 1_555
Al4 C22 1.985517 1_455
Al4 C10 2.088440 1_555
Al4 C14 2.089787 1_555
Al5 C19 1.981452 1_556
Al5 C23 1.985517 1_565
Al5 C11 2.088440 1_555
Al5 C15 2.089787 1_555
H0 Ho0 2.686706 1_555
H1 Ho0 2.686706 1_555
H2 Ho1 2.686706 1_555
H3 Ho1 2.686706 1_555
H4 Ho0 2.646903 1_555
H5 Ho0 2.646903 1_555
H6 Ho1 2.646903 1_555
H7 Ho1 2.646903 1_555
H12 Ho0 2.632774 1_555
H13 Ho0 2.632774 1_555
H14 Ho1 2.632774 1_555
H15 Ho1 2.632774 1_555
H24 Ho0 2.610704 1_555
H25 Ho0 2.610704 1_555
H26 Ho1 2.610704 1_555
H27 Ho1 2.610704 1_555
H32 Ho0 2.615445 1_555
H33 Ho0 2.615445 1_555
H34 Ho1 2.615445 1_555
H35 Ho1 2.615445 1_555
H40 Ho0 2.681300 1_555
H41 Ho0 2.681300 1_555
H42 Ho1 2.681300 1_555
H43 Ho1 2.681300 1_555
C0 H4 1.104191 1_555
C0 H28 1.106025 1_555
C0 H12 1.108336 1_555
C0 Ho0 2.525829 1_555
C1 H5 1.104191 1_555
C1 H29 1.106025 1_555
C1 H13 1.108336 1_555
C1 Ho0 2.525829 1_555
C2 H6 1.104191 1_555
C2 H30 1.106025 1_555
C2 H14 1.108336 1_555
C2 Ho1 2.525829 1_555
C3 H7 1.104191 1_555
C3 H31 1.106025 1_555
C3 H15 1.108336 1_555
C3 Ho1 2.525829 1_555
C4 H60 1.100931 1_555
C4 H52 1.101174 1_555
C4 H56 1.102201 1_555
C5 H61 1.100931 1_555
C5 H53 1.101174 1_555
C5 H57 1.102201 1_555
C6 H62 1.100931 1_555
C6 H54 1.101174 1_555
C6 H58 1.102201 1_555
C7 H63 1.100931 1_555
C7 H55 1.101174 1_555
C7 H59 1.102201 1_555
C8 H32 1.104470 1_555
C8 H16 1.106468 1_555
C8 H40 1.106576 1_555
C8 Ho0 2.538477 1_555
C9 H33 1.104470 1_555
C9 H17 1.106468 1_555
C9 H41 1.106576 1_555
C9 Ho0 2.538477 1_555
C10 H34 1.104470 1_555
C10 H18 1.106468 1_555
C10 H42 1.106576 1_555
C10 Ho1 2.538477 1_555
C11 H35 1.104470 1_555
C11 H19 1.106468 1_555
C11 H43 1.106576 1_555
C11 Ho1 2.538477 1_555
C12 H24 1.105601 1_555
C12 H8 1.105756 1_545
C12 H0 1.107731 1_555
C12 Ho0 2.543653 1_555
C13 H25 1.105601 1_555
C13 H9 1.105756 1_655
C13 H1 1.107731 1_555
C13 Ho0 2.543653 1_555
C14 H26 1.105601 1_555
C14 H10 1.105756 1_565
C14 H2 1.107731 1_555
C14 Ho1 2.543653 1_555
C15 H27 1.105601 1_555
C15 H11 1.105756 1_455
C15 H3 1.107731 1_555
C15 Ho1 2.543653 1_555
C16 H20 1.101472 1_555
C16 H48 1.102412 1_555
C16 H44 1.103995 1_555
C17 H21 1.101472 1_555
C17 H49 1.102412 1_555
C17 H45 1.103995 1_555
C18 H22 1.101472 1_555
C18 H50 1.102412 1_555
C18 H46 1.103995 1_555
C19 H23 1.101472 1_555
C19 H51 1.102412 1_555
C19 H47 1.103995 1_555
C20 H36 1.099054 1_555
C20 H68 1.102452 1_555
C20 H64 1.104348 1_555
C21 H37 1.099054 1_555
C21 H69 1.102452 1_555
C21 H65 1.104348 1_554
C22 H38 1.099054 1_555
C22 H70 1.102452 1_555
C22 H66 1.104348 1_555
C23 H39 1.099054 1_555
C23 H71 1.102452 1_555
C23 H67 1.104348 1_556
