# generated using pymatgen
data_Li9Mn2Co5O16
_symmetry_space_group_name_H-M   'P 1'
_cell_length_a   5.06835900
_cell_length_b   5.83318700
_cell_length_c   9.83343432
_cell_angle_alpha   98.37548907
_cell_angle_beta   95.60907445
_cell_angle_gamma   89.30430302
_symmetry_Int_Tables_number   1
_chemical_formula_structural   Li9Mn2Co5O16
_chemical_formula_sum   'Li9 Mn2 Co5 O16'
_cell_volume   286.24396463
_cell_formula_units_Z   1
loop_
 _symmetry_equiv_pos_site_id
 _symmetry_equiv_pos_as_xyz
  1  'x, y, z'
loop_
 _atom_site_type_symbol
 _atom_site_label
 _atom_site_symmetry_multiplicity
 _atom_site_fract_x
 _atom_site_fract_y
 _atom_site_fract_z
 _atom_site_occupancy
  Li  Li0  1  0.12236400  0.18792000  0.75220600  1
  Li  Li1  1  0.37216100  0.05643500  0.24567500  1
  Li  Li2  1  0.62753200  0.93605800  0.75492800  1
  Li  Li3  1  0.62029700  0.44373600  0.75884100  1
  Li  Li4  1  0.88498300  0.31171500  0.24619700  1
  Li  Li5  1  0.12768000  0.68946700  0.75344400  1
  Li  Li6  1  0.37439600  0.56657800  0.24314700  1
  Li  Li7  1  0.86527900  0.80880600  0.24471000  1
  Li  Li8  1  0.49950000  0.75053500  0.00041400  1
  Mn  Mn0  1  0.00118100  0.99864200  0.99891400  1
  Mn  Mn1  1  0.24910700  0.37374600  0.50124400  1
  Co  Co0  1  0.26226600  0.86794500  0.49673400  1
  Co  Co1  1  0.74313800  0.62957000  0.49916800  1
  Co  Co2  1  0.99698600  0.50782400  0.00062900  1
  Co  Co3  1  0.50065100  0.24956100  0.00062500  1
  Co  Co4  1  0.75738100  0.12226400  0.50196900  1
  O  O0  1  0.81661700  0.21224900  0.88339600  1
  O  O1  1  0.07176100  0.10915500  0.38661900  1
  O  O2  1  0.30281400  0.98666800  0.89085700  1
  O  O3  1  0.31028400  0.45207400  0.89303000  1
  O  O4  1  0.55240700  0.33776000  0.39094700  1
  O  O5  1  0.83611500  0.73361800  0.88276200  1
  O  O6  1  0.07847200  0.58305200  0.38387400  1
  O  O7  1  0.55808100  0.84929800  0.37796700  1
  O  O8  1  0.43121800  0.16169500  0.61508300  1
  O  O9  1  0.69611500  0.04449300  0.10799000  1
  O  O10  1  0.93208000  0.91431900  0.61359500  1
  O  O11  1  0.95531100  0.40440700  0.61379500  1
  O  O12  1  0.18139800  0.26622500  0.11452300  1
  O  O13  1  0.41994800  0.64391500  0.61880900  1
  O  O14  1  0.69108200  0.50957300  0.11097800  1
  O  O15  1  0.16139300  0.79069700  0.11693100  1
loop_
_geom_bond_atom_site_label_1
_geom_bond_atom_site_label_2
_geom_bond_distance
_geom_bond_site_symmetry_2
Li0 O2 2.066386 1_545
Li0 O3 2.086920 1_555
Li0 O11 2.100835 1_455
Li0 O0 2.101868 1_455
Li0 O10 2.117014 1_445
Li0 O8 2.153761 1_555
Li1 O7 2.056888 1_545
Li1 O12 2.069518 1_555
Li1 O15 2.085871 1_545
Li1 O1 2.147218 1_555
Li1 O4 2.160227 1_555
Li1 O9 2.222191 1_555
Li2 O5 2.057810 1_555
Li2 O0 2.077932 1_565
Li2 O10 2.166431 1_555
Li2 O8 2.200319 1_565
Li2 O2 2.210356 1_555
Li2 O13 2.215029 1_555
Li3 O13 2.111161 1_555
Li3 O0 2.127082 1_555
Li3 O3 2.144095 1_555
Li3 O8 2.172408 1_555
Li3 O5 2.173649 1_555
Li3 O11 2.310564 1_555
Li4 O14 2.056686 1_555
Li4 O12 2.067472 1_655
Li4 O9 2.087546 1_555
Li4 O1 2.095608 1_655
Li4 O6 2.110365 1_655
Li4 O4 2.300047 1_555
Li5 O5 2.032204 1_455
Li5 O13 2.070994 1_555
Li5 O11 2.132949 1_455
Li5 O2 2.177087 1_555
Li5 O10 2.195828 1_455
Li5 O3 2.220909 1_555
Li6 O7 2.122058 1_555
Li6 O6 2.130083 1_555
Li6 O15 2.142778 1_555
Li6 O14 2.155210 1_555
Li6 O12 2.186405 1_555
Li6 O4 2.233250 1_555
Li7 O15 2.041696 1_655
Li7 O7 2.120570 1_555
Li7 O14 2.167330 1_555
Li7 O9 2.171908 1_565
Li7 O6 2.230640 1_655
Li7 O1 2.271300 1_665
Li8 O2 2.059283 1_554
Li8 O14 2.075146 1_555
Li8 O9 2.087897 1_565
Li8 O3 2.091119 1_554
Li8 O15 2.144787 1_555
Li8 O5 2.146493 1_554
Mn0 O15 1.918185 1_556
Mn0 O5 1.929927 1_455
Mn0 O2 1.940220 1_555
Mn0 O9 1.960420 1_466
Mn0 O12 1.969186 1_566
Mn0 O0 1.973385 1_465
Mn1 O11 1.931903 1_455
Mn1 O6 1.939176 1_555
Mn1 O1 1.946631 1_555
Mn1 O8 1.951598 1_555
Mn1 O4 1.958383 1_555
Mn1 O13 1.968897 1_555
Co0 O7 1.981162 1_555
Co0 O13 2.007872 1_555
Co0 O6 2.039443 1_555
Co0 O8 2.069690 1_565
Co0 O1 2.071458 1_565
Co0 O10 2.113928 1_455
Co1 O7 2.034762 1_555
Co1 O10 2.055619 1_555
Co1 O4 2.067743 1_555
Co1 O11 2.076548 1_555
Co1 O13 2.102143 1_555
Co1 O6 2.126841 1_655
Co2 O14 1.976530 1_555
Co2 O3 1.990568 1_654
Co2 O5 1.994197 1_554
Co2 O15 2.005568 1_655
Co2 O12 2.082601 1_655
Co2 O0 2.095372 1_554
Co3 O3 1.892799 1_554
Co3 O9 1.913547 1_555
Co3 O14 1.939285 1_555
Co3 O2 1.966142 1_544
Co3 O12 2.049587 1_555
Co3 O0 2.054295 1_554
Co4 O10 1.905781 1_545
Co4 O4 1.999407 1_555
Co4 O1 2.038731 1_655
Co4 O11 2.054612 1_555
Co4 O7 2.067649 1_545
Co4 O8 2.073299 1_555
