# generated using pymatgen
data_Sr2La2Tl2Cu3O10
_symmetry_space_group_name_H-M   'P 1'
_cell_length_a   3.96367600
_cell_length_b   3.96367600
_cell_length_c   17.95581634
_cell_angle_alpha   96.33682002
_cell_angle_beta   96.33682002
_cell_angle_gamma   90.00000000
_symmetry_Int_Tables_number   1
_chemical_formula_structural   Sr2La2Tl2Cu3O10
_chemical_formula_sum   'Sr2 La2 Tl2 Cu3 O10'
_cell_volume   278.64115701
_cell_formula_units_Z   1
loop_
 _symmetry_equiv_pos_site_id
 _symmetry_equiv_pos_as_xyz
  1  'x, y, z'
loop_
 _atom_site_type_symbol
 _atom_site_label
 _atom_site_symmetry_multiplicity
 _atom_site_fract_x
 _atom_site_fract_y
 _atom_site_fract_z
 _atom_site_occupancy
  Sr  Sr0  1  0.35323400  0.35323400  0.70646800  1
  Sr  Sr1  1  0.64676600  0.64676600  0.29353200  1
  La  La0  1  0.45075500  0.45075500  0.90151100  1
  La  La1  1  0.54924500  0.54924500  0.09848900  1
  Tl  Tl0  1  0.21858200  0.21858200  0.43716400  1
  Tl  Tl1  1  0.78141800  0.78141800  0.56283600  1
  Cu  Cu0  1  0.09556800  0.09556800  0.19113600  1
  Cu  Cu1  1  0.90443200  0.90443200  0.80886400  1
  Cu  Cu2  1  0.00000000  0.00000000  0.00000000  1
  O  O0  1  0.09114700  0.59114700  0.18229300  1
  O  O1  1  0.90885300  0.40885300  0.81770700  1
  O  O2  1  0.59114700  0.09114700  0.18229300  1
  O  O3  1  0.40885300  0.90885300  0.81770700  1
  O  O4  1  0.00000000  0.50000000  0.00000000  1
  O  O5  1  0.50000000  0.00000000  0.00000000  1
  O  O6  1  0.27979500  0.27979500  0.55958900  1
  O  O7  1  0.72020500  0.72020500  0.44041100  1
  O  O8  1  0.15840700  0.15840700  0.31681400  1
  O  O9  1  0.84159300  0.84159300  0.68318600  1
loop_
_geom_bond_atom_site_label_1
_geom_bond_atom_site_label_2
_geom_bond_distance
_geom_bond_site_symmetry_2
La0 O1 2.477265 1_455
La0 O1 2.477265 1_555
La0 O3 2.477265 1_545
La0 O3 2.477265 1_555
La0 O4 2.641759 1_556
La0 O5 2.641759 1_556
La0 O4 2.641762 1_656
La0 O5 2.641762 1_566
La1 O2 2.477265 1_555
La1 O2 2.477265 1_565
La1 O0 2.477265 1_555
La1 O0 2.477265 1_655
La1 O5 2.641759 1_565
La1 O4 2.641759 1_655
La1 O5 2.641762 1_555
La1 O4 2.641762 1_555
Cu0 O2 1.988032 1_455
Cu0 O0 1.988032 1_545
Cu0 O0 1.988036 1_555
Cu0 O2 1.988036 1_555
Cu0 O8 2.228991 1_555
Cu1 O1 1.988032 1_565
Cu1 O3 1.988032 1_655
Cu1 O1 1.988036 1_555
Cu1 O3 1.988036 1_555
Cu1 O9 2.228991 1_555
Cu2 O5 1.981838 1_555
Cu2 O4 1.981838 1_555
Cu2 O5 1.981838 1_455
Cu2 O4 1.981838 1_545
O0 Sr1 2.796431 1_555
O0 Sr1 2.796434 1_455
O1 Sr0 2.796431 1_555
O1 Sr0 2.796434 1_655
O2 Sr1 2.796431 1_555
O2 Sr1 2.796434 1_545
O3 Sr0 2.796431 1_555
O3 Sr0 2.796434 1_565
O6 Tl0 2.171296 1_555
O6 Sr0 2.605006 1_555
O6 Tl1 2.803331 1_555
O6 Tl1 2.803334 1_545
O6 Tl1 2.803334 1_455
O6 Tl1 2.803337 1_445
O7 Tl1 2.171296 1_555
O7 Sr1 2.605006 1_555
O7 Tl0 2.803331 1_555
O7 Tl0 2.803334 1_565
O7 Tl0 2.803334 1_655
O7 Tl0 2.803337 1_665
O8 Tl0 2.134495 1_555
O8 Sr1 2.832997 1_445
O8 Sr1 2.832997 1_545
O8 Sr1 2.832997 1_555
O8 Sr1 2.832997 1_455
O9 Tl1 2.134495 1_555
O9 Sr0 2.832997 1_665
O9 Sr0 2.832997 1_655
O9 Sr0 2.832997 1_565
O9 Sr0 2.832997 1_555
