# generated using pymatgen
data_CsTlAgF6
_symmetry_space_group_name_H-M   'P 1'
_cell_length_a   8.17581875
_cell_length_b   8.17581875
_cell_length_c   8.17581875
_cell_angle_alpha   122.48746602
_cell_angle_beta   118.87224224
_cell_angle_gamma   88.85553861
_symmetry_Int_Tables_number   1
_chemical_formula_structural   CsTlAgF6
_chemical_formula_sum   'Cs2 Tl2 Ag2 F12'
_cell_volume   381.89545924
_cell_formula_units_Z   2
loop_
 _symmetry_equiv_pos_site_id
 _symmetry_equiv_pos_as_xyz
  1  'x, y, z'
loop_
 _atom_site_type_symbol
 _atom_site_label
 _atom_site_symmetry_multiplicity
 _atom_site_fract_x
 _atom_site_fract_y
 _atom_site_fract_z
 _atom_site_occupancy
  Cs  Cs0  1  0.37399100  0.62399100  0.75000000  1
  Cs  Cs1  1  0.62600900  0.37600900  0.25000000  1
  Tl  Tl0  1  0.00000000  0.00000000  0.00000000  1
  Tl  Tl1  1  0.50000000  0.00000000  0.50000000  1
  Ag  Ag0  1  0.00000000  0.00000000  0.50000000  1
  Ag  Ag1  1  0.00000000  0.50000000  0.00000000  1
  F  F0  1  0.32537500  0.07537500  0.25000000  1
  F  F1  1  0.94633600  0.69633600  0.25000000  1
  F  F2  1  0.33638700  0.67256900  0.25142900  1
  F  F3  1  0.92114000  0.08495800  0.24857100  1
  F  F4  1  0.33638700  0.08495800  0.66381800  1
  F  F5  1  0.92114000  0.67256900  0.83618200  1
  F  F6  1  0.67462500  0.92462500  0.75000000  1
  F  F7  1  0.05366400  0.30366400  0.75000000  1
  F  F8  1  0.66361300  0.32743100  0.74857100  1
  F  F9  1  0.07886000  0.91504200  0.75142900  1
  F  F10  1  0.66361300  0.91504200  0.33618200  1
  F  F11  1  0.07886000  0.32743100  0.16381800  1
loop_
_geom_bond_atom_site_label_1
_geom_bond_atom_site_label_2
_geom_bond_distance
_geom_bond_site_symmetry_2
Cs0 F8 3.354520 1_555
Cs0 F10 3.354520 1_556
Cs0 F11 3.354520 1_555
Cs0 F9 3.354520 1_555
Cs0 F6 3.510579 1_555
Cs1 F3 3.354520 1_555
Cs1 F5 3.354520 1_555
Cs1 F2 3.354520 1_555
Cs1 F4 3.354520 1_554
Cs1 F0 3.510579 1_555
Ag0 F1 2.064055 1_445
Ag0 F7 2.064055 1_555
Ag0 F9 2.315133 1_545
Ag0 F10 2.315133 1_445
Ag0 F4 2.315133 1_555
Ag0 F3 2.315133 1_455
Ag1 F7 2.064055 1_554
Ag1 F1 2.064055 1_455
Ag1 F5 2.315133 1_454
Ag1 F2 2.315133 1_555
Ag1 F11 2.315133 1_555
Ag1 F8 2.315133 1_454
F0 Tl1 2.257362 1_555
F0 Tl0 2.257362 1_555
F2 Tl1 2.181600 1_565
F3 Tl0 2.181600 1_655
F4 Tl1 2.181600 1_555
F5 Tl0 2.181600 1_666
F6 Tl0 2.257362 1_666
F6 Tl1 2.257362 1_565
F8 Tl1 2.181600 1_555
F9 Tl0 2.181600 1_566
F10 Tl1 2.181600 1_565
F11 Tl0 2.181600 1_555
