# generated using pymatgen
data_Eu3Sb4Se9
_symmetry_space_group_name_H-M   'P 1'
_cell_length_a   4.20361616
_cell_length_b   17.31468182
_cell_length_c   25.30238341
_cell_angle_alpha   90.00000000
_cell_angle_beta   90.00000000
_cell_angle_gamma   90.00000000
_symmetry_Int_Tables_number   1
_chemical_formula_structural   Eu3Sb4Se9
_chemical_formula_sum   'Eu12 Sb16 Se36'
_cell_volume   1841.61566526
_cell_formula_units_Z   4
loop_
 _symmetry_equiv_pos_site_id
 _symmetry_equiv_pos_as_xyz
  1  'x, y, z'
loop_
 _atom_site_type_symbol
 _atom_site_label
 _atom_site_symmetry_multiplicity
 _atom_site_fract_x
 _atom_site_fract_y
 _atom_site_fract_z
 _atom_site_occupancy
  Eu  Eu0  1  0.75000000  0.37703533  0.05475974  1
  Eu  Eu1  1  0.75000000  0.87703533  0.44524026  1
  Eu  Eu2  1  0.25000000  0.62296467  0.94524026  1
  Eu  Eu3  1  0.25000000  0.12296467  0.55475974  1
  Eu  Eu4  1  0.75000000  0.17338457  0.17383665  1
  Eu  Eu5  1  0.75000000  0.67338457  0.32616335  1
  Eu  Eu6  1  0.25000000  0.82661543  0.82616335  1
  Eu  Eu7  1  0.25000000  0.32661543  0.67383665  1
  Eu  Eu8  1  0.75000000  0.44171170  0.23524835  1
  Eu  Eu9  1  0.75000000  0.94171170  0.26475165  1
  Eu  Eu10  1  0.25000000  0.55828830  0.76475165  1
  Eu  Eu11  1  0.25000000  0.05828830  0.73524835  1
  Sb  Sb0  1  0.75000000  0.33161522  0.50607636  1
  Sb  Sb1  1  0.75000000  0.83161522  0.99392364  1
  Sb  Sb2  1  0.25000000  0.66838478  0.49392364  1
  Sb  Sb3  1  0.25000000  0.16838478  0.00607636  1
  Sb  Sb4  1  0.75000000  0.02816004  0.89311019  1
  Sb  Sb5  1  0.75000000  0.52816004  0.60688981  1
  Sb  Sb6  1  0.25000000  0.97183996  0.10688981  1
  Sb  Sb7  1  0.25000000  0.47183996  0.39311019  1
  Sb  Sb8  1  0.75000000  0.40921407  0.89312338  1
  Sb  Sb9  1  0.75000000  0.90921407  0.60687662  1
  Sb  Sb10  1  0.25000000  0.59078593  0.10687662  1
  Sb  Sb11  1  0.25000000  0.09078593  0.39312338  1
  Sb  Sb12  1  0.75000000  0.24632365  0.82208578  1
  Sb  Sb13  1  0.75000000  0.74632365  0.67791422  1
  Sb  Sb14  1  0.25000000  0.75367635  0.17791422  1
  Sb  Sb15  1  0.25000000  0.25367635  0.32208578  1
  Se  Se0  1  0.75000000  0.24862598  0.59218419  1
  Se  Se1  1  0.75000000  0.74862598  0.90781581  1
  Se  Se2  1  0.25000000  0.75137402  0.40781581  1
  Se  Se3  1  0.25000000  0.25137402  0.09218419  1
  Se  Se4  1  0.75000000  0.05320933  0.63850530  1
  Se  Se5  1  0.75000000  0.55320933  0.86149470  1
  Se  Se6  1  0.25000000  0.94679067  0.36149470  1
  Se  Se7  1  0.25000000  0.44679067  0.13850530  1
  Se  Se8  1  0.75000000  0.45845743  0.69878055  1
  Se  Se9  1  0.75000000  0.95845743  0.80121945  1
  Se  Se10  1  0.25000000  0.54154257  0.30121945  1
  Se  Se11  1  0.25000000  0.04154257  0.19878055  1
  Se  Se12  1  0.75000000  0.20381441  0.72312683  1
  Se  Se13  1  0.75000000  0.70381441  0.77687317  1
  Se  Se14  1  0.25000000  0.79618559  0.27687317  1
  Se  Se15  1  0.25000000  0.29618559  0.22312683  1
  Se  Se16  1  0.75000000  0.06287582  0.06934917  1
  Se  Se17  1  0.75000000  0.56287582  0.43065083  1
  Se  Se18  1  0.25000000  0.93712418  0.93065083  1
  Se  Se19  1  0.25000000  0.43712418  0.56934917  1
  Se  Se20  1  0.75000000  0.05914604  0.46392259  1
  Se  Se21  1  0.75000000  0.55914604  0.03607741  1
  Se  Se22  1  0.25000000  0.94085396  0.53607741  1
  Se  Se23  1  0.25000000  0.44085396  0.96392259  1
  Se  Se24  1  0.75000000  0.24814496  0.96464451  1
  Se  Se25  1  0.75000000  0.74814496  0.53535549  1
  Se  Se26  1  0.25000000  0.75185504  0.03535549  1
  Se  Se27  1  0.25000000  0.25185504  0.46464451  1
  Se  Se28  1  0.75000000  0.13510876  0.30351072  1
  Se  Se29  1  0.75000000  0.63510876  0.19648928  1
  Se  Se30  1  0.25000000  0.86489124  0.69648928  1
  Se  Se31  1  0.25000000  0.36489124  0.80351072  1
  Se  Se32  1  0.75000000  0.36255536  0.34735385  1
  Se  Se33  1  0.75000000  0.86255536  0.15264615  1
  Se  Se34  1  0.25000000  0.63744464  0.65264615  1
  Se  Se35  1  0.25000000  0.13744464  0.84735385  1
loop_
_geom_bond_atom_site_label_1
_geom_bond_atom_site_label_2
_geom_bond_distance
_geom_bond_site_symmetry_2
Eu0 Se3 3.169907 1_555
Eu0 Se3 3.169907 1_655
Eu0 Se21 3.188425 1_555
Eu0 Se24 3.190526 1_554
Eu0 Se7 3.219683 1_655
Eu0 Se7 3.219683 1_555
Eu0 Se23 3.304731 1_554
Eu0 Se23 3.304731 1_654
Eu1 Se2 3.169907 1_655
Eu1 Se2 3.169907 1_555
Eu1 Se20 3.188425 1_565
Eu1 Se25 3.190526 1_555
Eu1 Se6 3.219683 1_655
Eu1 Se6 3.219683 1_555
Eu1 Se22 3.304731 1_655
Eu1 Se22 3.304731 1_555
Eu2 Se1 3.169907 1_455
Eu2 Se1 3.169907 1_555
Eu2 Se23 3.188425 1_555
Eu2 Se26 3.190526 1_556
Eu2 Se5 3.219683 1_455
Eu2 Se5 3.219683 1_555
Eu2 Se21 3.304731 1_556
Eu2 Se21 3.304731 1_456
Eu3 Se0 3.169907 1_555
Eu3 Se0 3.169907 1_455
Eu3 Se22 3.188425 1_545
Eu3 Se27 3.190526 1_555
Eu3 Se4 3.219683 1_455
Eu3 Se4 3.219683 1_555
Eu3 Se20 3.304731 1_455
Eu3 Se20 3.304731 1_555
Eu4 Se11 3.166563 1_655
Eu4 Se11 3.166563 1_555
Eu4 Se15 3.239442 1_555
Eu4 Se15 3.239442 1_655
Eu4 Se3 3.241827 1_655
Eu4 Se3 3.241827 1_555
Eu4 Se16 3.263553 1_555
Eu4 Se28 3.347326 1_555
Eu5 Se10 3.166563 1_655
Eu5 Se10 3.166563 1_555
Eu5 Se14 3.239442 1_555
Eu5 Se14 3.239442 1_655
Eu5 Se2 3.241827 1_555
Eu5 Se2 3.241827 1_655
Eu5 Se17 3.263553 1_555
Eu5 Se29 3.347326 1_555
Eu6 Se9 3.166563 1_455
Eu6 Se9 3.166563 1_555
Eu6 Se13 3.239442 1_455
Eu6 Se13 3.239442 1_555
Eu6 Se1 3.241827 1_455
Eu6 Se1 3.241827 1_555
Eu6 Se18 3.263553 1_555
Eu6 Se30 3.347326 1_555
Eu7 Se8 3.166563 1_555
Eu7 Se8 3.166563 1_455
Eu7 Se12 3.239442 1_455
Eu7 Se12 3.239442 1_555
Eu7 Se0 3.241827 1_455
Eu7 Se0 3.241827 1_555
Eu7 Se19 3.263553 1_555
Eu7 Se31 3.347326 1_555
Eu8 Se32 3.150300 1_555
Eu8 Se10 3.192454 1_655
Eu8 Se10 3.192454 1_555
Eu8 Se7 3.227569 1_655
Eu8 Se7 3.227569 1_555
Eu8 Se15 3.295564 1_655
Eu8 Se15 3.295564 1_555
Eu8 Se29 3.489261 1_555
Eu9 Se33 3.150300 1_555
Eu9 Se11 3.192454 1_565
Eu9 Se11 3.192454 1_665
Eu9 Se6 3.227569 1_555
Eu9 Se6 3.227569 1_655
Eu9 Se14 3.295564 1_655
Eu9 Se14 3.295564 1_555
Eu9 Se28 3.489261 1_565
Eu10 Se34 3.150300 1_555
Eu10 Se8 3.192454 1_555
Eu10 Se8 3.192454 1_455
Eu10 Se5 3.227569 1_555
Eu10 Se5 3.227569 1_455
Eu10 Se13 3.295564 1_455
Eu10 Se13 3.295564 1_555
Eu10 Se31 3.489261 1_555
Eu11 Se35 3.150300 1_555
Eu11 Se9 3.192454 1_445
Eu11 Se9 3.192454 1_545
Eu11 Se4 3.227569 1_455
Eu11 Se4 3.227569 1_555
Eu11 Se12 3.295564 1_455
Eu11 Se12 3.295564 1_555
Eu11 Se30 3.489261 1_545
Sb0 Se0 2.609914 1_555
Sb0 Se27 2.724666 1_555
Sb0 Se27 2.724666 1_655
Sb0 Se19 3.212171 1_555
Sb0 Se19 3.212171 1_655
Sb1 Se1 2.609914 1_555
Sb1 Se26 2.724666 1_556
Sb1 Se26 2.724666 1_656
Sb1 Se18 3.212171 1_555
Sb1 Se18 3.212171 1_655
Sb2 Se2 2.609914 1_555
Sb2 Se25 2.724666 1_455
Sb2 Se25 2.724666 1_555
Sb2 Se17 3.212171 1_555
Sb2 Se17 3.212171 1_455
Sb3 Se3 2.609914 1_555
Sb3 Se24 2.724666 1_554
Sb3 Se24 2.724666 1_454
Sb3 Se16 3.212171 1_455
Sb3 Se16 3.212171 1_555
Sb4 Se9 2.619625 1_545
Sb4 Se18 2.793641 1_645
Sb4 Se18 2.793641 1_545
Sb4 Se35 3.055895 1_655
Sb4 Se35 3.055895 1_555
Sb5 Se8 2.619625 1_555
Sb5 Se19 2.793641 1_655
Sb5 Se19 2.793641 1_555
Sb5 Se34 3.055895 1_655
Sb5 Se34 3.055895 1_555
Sb6 Se11 2.619625 1_565
Sb6 Se16 2.793641 1_565
Sb6 Se16 2.793641 1_465
Sb6 Se33 3.055895 1_455
Sb6 Se33 3.055895 1_555
Sb7 Se10 2.619625 1_555
Sb7 Se17 2.793641 1_455
Sb7 Se17 2.793641 1_555
Sb7 Se32 3.055895 1_555
Sb7 Se32 3.055895 1_455
Sb8 Se5 2.618522 1_555
Sb8 Se23 2.815456 1_555
Sb8 Se23 2.815456 1_655
Sb8 Se31 3.185549 1_555
Sb8 Se31 3.185549 1_655
Sb9 Se4 2.618522 1_565
Sb9 Se22 2.815456 1_555
Sb9 Se22 2.815456 1_655
Sb9 Se30 3.185549 1_555
Sb9 Se30 3.185549 1_655
Sb10 Se7 2.618522 1_555
Sb10 Se21 2.815456 1_555
Sb10 Se21 2.815456 1_455
Sb10 Se29 3.185549 1_555
Sb10 Se29 3.185549 1_455
Sb11 Se6 2.618522 1_545
Sb11 Se20 2.815456 1_555
Sb11 Se20 2.815456 1_455
Sb11 Se28 3.185549 1_555
Sb11 Se28 3.185549 1_455
Sb12 Se12 2.609837 1_555
Sb12 Se35 2.894884 1_555
Sb12 Se35 2.894884 1_655
Sb12 Se31 2.975422 1_555
Sb12 Se31 2.975422 1_655
Sb13 Se13 2.609837 1_555
Sb13 Se34 2.894884 1_655
Sb13 Se34 2.894884 1_555
Sb13 Se30 2.975422 1_555
Sb13 Se30 2.975422 1_655
Sb14 Se14 2.609837 1_555
Sb14 Se33 2.894884 1_455
Sb14 Se33 2.894884 1_555
Sb14 Se29 2.975422 1_455
Sb14 Se29 2.975422 1_555
Sb15 Se15 2.609837 1_555
Sb15 Se32 2.894884 1_455
Sb15 Se32 2.894884 1_555
Sb15 Se28 2.975422 1_555
Sb15 Se28 2.975422 1_455
