# generated using pymatgen
data_SrCaSi4
_symmetry_space_group_name_H-M   'P 1'
_cell_length_a   7.48901634
_cell_length_b   7.48901634
_cell_length_c   7.48901634
_cell_angle_alpha   146.13607071
_cell_angle_beta   146.13607071
_cell_angle_gamma   48.64469656
_symmetry_Int_Tables_number   1
_chemical_formula_structural   SrCaSi4
_chemical_formula_sum   'Sr1 Ca1 Si4'
_cell_volume   129.85489723
_cell_formula_units_Z   1
loop_
 _symmetry_equiv_pos_site_id
 _symmetry_equiv_pos_as_xyz
  1  'x, y, z'
loop_
 _atom_site_type_symbol
 _atom_site_label
 _atom_site_symmetry_multiplicity
 _atom_site_fract_x
 _atom_site_fract_y
 _atom_site_fract_z
 _atom_site_occupancy
  Sr  Sr0  1  -0.00000000  -0.00000000  0.00000000  1
  Ca  Ca0  1  0.25000000  0.75000000  0.50000000  1
  Si  Si0  1  0.66648424  0.16648424  0.50000000  1
  Si  Si1  1  0.58570711  0.58570711  0.00000000  1
  Si  Si2  1  0.83351576  0.33351576  0.50000000  1
  Si  Si3  1  0.41429289  0.41429289  0.00000000  1
loop_
_geom_bond_atom_site_label_1
_geom_bond_atom_site_label_2
_geom_bond_distance
_geom_bond_site_symmetry_2
Ca0 Si1 3.128146 1_556
Ca0 Si3 3.128146 1_555
Ca0 Si3 3.128146 1_566
Ca0 Si1 3.128146 1_455
Ca0 Si2 3.288382 1_454
Ca0 Si0 3.288382 1_454
Ca0 Si2 3.288382 1_566
Ca0 Si2 3.288382 1_555
Ca0 Si2 3.288382 1_465
Ca0 Si0 3.288382 1_555
Ca0 Si0 3.288382 1_465
Ca0 Si0 3.288382 1_566
Si0 Si2 2.279750 1_555
Si0 Si1 2.443884 1_545
Si0 Si1 2.443884 1_556
Si0 Sr0 3.149655 1_656
Si0 Sr0 3.149655 1_555
Si1 Si3 2.339568 1_555
Si1 Sr0 3.298869 1_565
Si1 Sr0 3.298869 1_655
Si1 Sr0 3.298869 1_666
Si1 Sr0 3.298869 1_554
Si2 Si3 2.443884 1_656
Si2 Si3 2.443884 1_555
Si2 Sr0 3.149655 1_666
Si2 Sr0 3.149655 1_655
Si3 Sr0 3.298869 1_565
Si3 Sr0 3.298869 1_666
Si3 Sr0 3.298869 1_655
Si3 Sr0 3.298869 1_554
