# generated using pymatgen
data_BaSrBiSbO6
_symmetry_space_group_name_H-M   'P 1'
_cell_length_a   8.58406049
_cell_length_b   8.58799446
_cell_length_c   8.57506111
_cell_angle_alpha   90.00000000
_cell_angle_beta   90.00000000
_cell_angle_gamma   90.00000000
_symmetry_Int_Tables_number   1
_chemical_formula_structural   BaSrBiSbO6
_chemical_formula_sum   'Ba4 Sr4 Bi4 Sb4 O24'
_cell_volume   632.15233824
_cell_formula_units_Z   4
loop_
 _symmetry_equiv_pos_site_id
 _symmetry_equiv_pos_as_xyz
  1  'x, y, z'
loop_
 _atom_site_type_symbol
 _atom_site_label
 _atom_site_symmetry_multiplicity
 _atom_site_fract_x
 _atom_site_fract_y
 _atom_site_fract_z
 _atom_site_occupancy
  Ba  Ba0  1  -0.00000000  0.00000000  -0.00000000  1
  Ba  Ba1  1  0.50000000  0.50000000  0.50000000  1
  Ba  Ba2  1  0.50000000  0.00000000  0.50000000  1
  Ba  Ba3  1  0.50000000  0.50000000  -0.00000000  1
  Sr  Sr0  1  -0.00000000  0.50000000  0.50000000  1
  Sr  Sr1  1  0.50000000  0.00000000  -0.00000000  1
  Sr  Sr2  1  -0.00000000  0.50000000  -0.00000000  1
  Sr  Sr3  1  -0.00000000  0.00000000  0.50000000  1
  Bi  Bi0  1  0.75335591  0.75047061  0.74988635  1
  Bi  Bi1  1  0.24664409  0.24952939  0.74988635  1
  Bi  Bi2  1  0.24664409  0.75047061  0.25011365  1
  Bi  Bi3  1  0.75335591  0.24952939  0.25011365  1
  Sb  Sb0  1  0.24715403  0.24979875  0.24999861  1
  Sb  Sb1  1  0.75284597  0.75020125  0.24999861  1
  Sb  Sb2  1  0.75284597  0.24979875  0.75000139  1
  Sb  Sb3  1  0.24715403  0.75020125  0.75000139  1
  O  O0  1  0.01704098  0.20803703  0.28600789  1
  O  O1  1  0.98295902  0.79196297  0.28600789  1
  O  O2  1  0.98295902  0.20803703  0.71399211  1
  O  O3  1  0.01704098  0.79196297  0.71399211  1
  O  O4  1  0.28297718  0.01924802  0.20900545  1
  O  O5  1  0.28297718  0.98075198  0.79099455  1
  O  O6  1  0.71702282  0.98075198  0.20900545  1
  O  O7  1  0.71702282  0.01924802  0.79099455  1
  O  O8  1  0.20820773  0.28643464  0.02020181  1
  O  O9  1  0.79179227  0.28643464  0.97979819  1
  O  O10  1  0.20820773  0.71356536  0.97979819  1
  O  O11  1  0.79179227  0.71356536  0.02020181  1
  O  O12  1  0.47966514  0.28023635  0.22422655  1
  O  O13  1  0.52033486  0.71976365  0.22422655  1
  O  O14  1  0.52033486  0.28023635  0.77577345  1
  O  O15  1  0.47966514  0.71976365  0.77577345  1
  O  O16  1  0.21304246  0.48132325  0.28764355  1
  O  O17  1  0.21304246  0.51867675  0.71235645  1
  O  O18  1  0.78695754  0.51867675  0.28764355  1
  O  O19  1  0.78695754  0.48132325  0.71235645  1
  O  O20  1  0.27782592  0.22153180  0.48295246  1
  O  O21  1  0.72217408  0.22153180  0.51704754  1
  O  O22  1  0.27782592  0.77846820  0.51704754  1
  O  O23  1  0.72217408  0.77846820  0.48295246  1
loop_
_geom_bond_atom_site_label_1
_geom_bond_atom_site_label_2
_geom_bond_distance
_geom_bond_site_symmetry_2
Ba0 O6 3.023231 1_445
Ba0 O7 3.023231 1_454
Ba0 O5 3.023231 1_544
Ba0 O4 3.023231 1_555
Ba0 O3 3.037818 1_544
Ba0 O2 3.037818 1_454
Ba0 O1 3.037818 1_445
Ba0 O0 3.037818 1_555
Ba0 O11 3.045561 1_445
Ba0 O10 3.045561 1_544
Ba0 O8 3.045561 1_555
Ba0 O9 3.045561 1_454
Ba1 O12 3.030617 1_555
Ba1 O13 3.030617 1_555
Ba1 O14 3.030617 1_555
Ba1 O15 3.030617 1_555
Ba1 O22 3.062320 1_555
Ba1 O23 3.062320 1_555
Ba1 O20 3.062320 1_555
Ba1 O21 3.062320 1_555
Ba1 O16 3.067460 1_555
Ba1 O17 3.067460 1_555
Ba1 O18 3.067460 1_555
Ba1 O19 3.067460 1_555
Ba2 O20 2.697809 1_555
Ba2 O21 2.697809 1_555
Ba2 O22 2.697809 1_545
Ba2 O23 2.697809 1_545
Ba2 O4 3.118391 1_555
Ba2 O5 3.118391 1_545
Ba2 O7 3.118391 1_555
Ba2 O6 3.118391 1_545
Ba3 O14 2.699902 1_554
Ba3 O15 2.699902 1_554
Ba3 O13 2.699902 1_555
Ba3 O12 2.699902 1_555
Ba3 O8 3.109302 1_555
Ba3 O9 3.109302 1_554
Ba3 O10 3.109302 1_554
Ba3 O11 3.109302 1_555
Bi0 O3 2.311946 1_655
Bi0 O23 2.317081 1_555
Bi0 O19 2.351489 1_555
Bi0 O7 2.355757 1_565
Bi0 O11 2.362690 1_556
Bi0 O15 2.374531 1_555
Bi1 O2 2.311946 1_455
Bi1 O20 2.317081 1_555
Bi1 O17 2.351489 1_555
Bi1 O5 2.355757 1_545
Bi1 O8 2.362690 1_556
Bi1 O14 2.374531 1_555
Bi2 O1 2.311946 1_455
Bi2 O22 2.317081 1_555
Bi2 O16 2.351489 1_555
Bi2 O4 2.355757 1_565
Bi2 O10 2.362690 1_554
Bi2 O13 2.374531 1_555
Bi3 O0 2.311946 1_655
Bi3 O21 2.317081 1_555
Bi3 O18 2.351489 1_555
Bi3 O6 2.355757 1_545
Bi3 O9 2.362690 1_554
Bi3 O12 2.374531 1_555
O0 Sb0 2.031207 1_555
O0 Sr3 2.565272 1_555
O0 Sr0 3.110553 1_555
O1 Sb1 2.031207 1_555
O1 Sr3 2.565272 1_665
O1 Sr0 3.110553 1_655
O2 Sb2 2.031207 1_555
O2 Sr3 2.565272 1_655
O2 Sr0 3.110553 1_655
O3 Sb3 2.031207 1_555
O3 Sr3 2.565272 1_565
O3 Sr0 3.110553 1_555
O4 Sb0 2.034306 1_555
O4 Sr1 2.590360 1_555
O5 Sb3 2.034306 1_555
O5 Sr1 2.590360 1_566
O6 Sb1 2.034306 1_555
O6 Sr1 2.590360 1_565
O7 Sb2 2.034306 1_555
O7 Sr1 2.590360 1_556
O8 Sb0 2.023293 1_555
O8 Sr2 2.566759 1_555
O9 Sb2 2.023293 1_555
O9 Sr2 2.566759 1_656
O10 Sb3 2.023293 1_555
O10 Sr2 2.566759 1_556
O11 Sb1 2.023293 1_555
O11 Sr2 2.566759 1_655
O12 Sb0 2.025029 1_555
O12 Sr1 3.085371 1_555
O13 Sb1 2.025029 1_555
O13 Sr1 3.085371 1_565
O14 Sb2 2.025029 1_555
O14 Sr1 3.085371 1_556
O15 Sb3 2.025029 1_555
O15 Sr1 3.085371 1_566
O16 Sb0 2.035536 1_555
O16 Sr0 2.585741 1_555
O16 Sr2 3.074743 1_555
O17 Sb3 2.035536 1_555
O17 Sr0 2.585741 1_555
O17 Sr2 3.074743 1_556
O18 Sb1 2.035536 1_555
O18 Sr0 2.585741 1_655
O18 Sr2 3.074743 1_655
O19 Sb2 2.035536 1_555
O19 Sr0 2.585741 1_655
O19 Sr2 3.074743 1_656
O20 Sb0 2.029441 1_555
O20 Sr3 3.054268 1_555
O21 Sb2 2.029441 1_555
O21 Sr3 3.054268 1_655
O22 Sb3 2.029441 1_555
O22 Sr3 3.054268 1_565
O23 Sb1 2.029441 1_555
O23 Sr3 3.054268 1_665
