# generated using pymatgen
data_Li4V3P8O29
_symmetry_space_group_name_H-M   'P 1'
_cell_length_a   9.77016100
_cell_length_b   9.77491024
_cell_length_c   14.18947616
_cell_angle_alpha   89.92762067
_cell_angle_beta   90.41976434
_cell_angle_gamma   119.97987232
_symmetry_Int_Tables_number   1
_chemical_formula_structural   Li4V3P8O29
_chemical_formula_sum   'Li8 V6 P16 O58'
_cell_volume   1173.77869273
_cell_formula_units_Z   2
loop_
 _symmetry_equiv_pos_site_id
 _symmetry_equiv_pos_as_xyz
  1  'x, y, z'
loop_
 _atom_site_type_symbol
 _atom_site_label
 _atom_site_symmetry_multiplicity
 _atom_site_fract_x
 _atom_site_fract_y
 _atom_site_fract_z
 _atom_site_occupancy
  Li  Li0  1  0.23323900  0.90753900  0.44069500  1
  Li  Li1  1  0.09523200  0.33233800  0.44000000  1
  Li  Li2  1  0.23284500  0.32027100  0.94109300  1
  Li  Li3  1  0.68231600  0.90621500  0.94360700  1
  Li  Li4  1  0.66419100  0.76571300  0.43904000  1
  Li  Li5  1  0.30794600  0.08083200  0.06191700  1
  Li  Li6  1  0.90589500  0.22352400  0.06268100  1
  Li  Li7  1  0.99472300  0.99783700  0.49211400  1
  V  V0  1  0.43891100  0.43507100  0.74502500  1
  V  V1  1  0.56894500  0.56848200  0.24982400  1
  V  V2  1  0.43030700  0.99531900  0.25463500  1
  V  V3  1  0.56547700  0.00303900  0.74678900  1
  V  V4  1  0.99951800  0.56750900  0.75255800  1
  V  V5  1  0.00188400  0.43916600  0.25030200  1
  P  P0  1  0.08266600  0.77094200  0.15502400  1
  P  P1  1  0.22165400  0.91231900  0.66055400  1
  P  P2  1  0.08516500  0.31210700  0.65846100  1
  P  P3  1  0.33638100  0.66554900  0.86838600  1
  P  P4  1  0.33679200  0.66493900  0.37243000  1
  P  P5  1  0.23162200  0.31917700  0.15706700  1
  P  P6  1  0.30729300  0.22489400  0.34019000  1
  P  P7  1  0.67771600  0.90997800  0.15831200  1
  P  P8  1  0.31921400  0.09158500  0.84202500  1
  P  P9  1  0.68879400  0.77551800  0.65580600  1
  P  P10  1  0.77607200  0.68837800  0.83793700  1
  P  P11  1  0.66891200  0.33434300  0.63225500  1
  P  P12  1  0.66023400  0.32837900  0.13290800  1
  P  P13  1  0.91783800  0.69668700  0.34011400  1
  P  P14  1  0.77882000  0.08583500  0.33876100  1
  P  P15  1  0.91216100  0.22697700  0.84044800  1
  O  O0  1  0.00468400  0.80457300  0.42129400  1
  O  O1  1  0.08340500  0.74091500  0.67034000  1
  O  O2  1  0.24819100  0.01309000  0.93199100  1
  O  O3  1  0.25367200  0.91610800  0.16576000  1
  O  O4  1  0.09405300  0.61920900  0.17940000  1
  O  O5  1  0.18468300  0.65869900  0.82270000  1
  O  O6  1  0.08223300  0.46710900  0.67298400  1
  O  O7  1  0.00118900  0.23578600  0.92904200  1
  O  O8  1  0.08219600  0.33484000  0.15905100  1
  O  O9  1  0.32032100  0.80857700  0.33594700  1
  O  O10  1  0.38097500  0.91219900  0.67468500  1
  O  O11  1  0.19190000  0.50955900  0.33457400  1
  O  O12  1  0.33506800  0.65947800  0.97282900  1
  O  O13  1  0.35376700  0.66772700  0.47747600  1
  O  O14  1  0.33892600  0.51817500  0.82518000  1
  O  O15  1  0.51722000  0.89580500  0.17792200  1
  O  O16  1  0.48249600  0.81930800  0.82858800  1
  O  O17  1  0.25769800  0.34466300  0.67023400  1
  O  O18  1  0.21389300  0.20162100  0.24084400  1
  O  O19  1  0.20015500  0.21105500  0.41904300  1
  O  O20  1  0.24651900  0.24854100  0.06627900  1
  O  O21  1  0.38084500  0.48057100  0.17870900  1
  O  O22  1  0.49156100  0.67804700  0.32675700  1
  O  O23  1  0.34219900  0.26101300  0.83649600  1
  O  O24  1  0.53075400  0.61740400  0.67079000  1
  O  O25  1  0.65567200  0.91370700  0.67180100  1
  O  O26  1  0.20746200  0.00294100  0.75134600  1
  O  O27  1  0.21377800  0.98562000  0.57039100  1
  O  O28  1  0.79624000  0.99476400  0.41830600  1
  O  O29  1  0.34029400  0.08534800  0.34285500  1
  O  O30  1  0.46206800  0.38521700  0.33072100  1
  O  O31  1  0.66173400  0.74403000  0.16712300  1
  O  O32  1  0.51710100  0.32934400  0.67638200  1
  O  O33  1  0.62144000  0.52807000  0.82003900  1
  O  O34  1  0.76953500  0.77726900  0.91968800  1
  O  O35  1  0.76530600  0.78753800  0.56390700  1
  O  O36  1  0.80239600  0.78920500  0.74123800  1
  O  O37  1  0.74249000  0.66231100  0.33897600  1
  O  O38  1  0.51044800  0.18246100  0.17425300  1
  O  O39  1  0.47835300  0.09796900  0.82021600  1
  O  O40  1  0.65988300  0.47560900  0.18327000  1
  O  O41  1  0.65276000  0.33479400  0.02842400  1
  O  O42  1  0.66423800  0.32981600  0.52834500  1
  O  O43  1  0.81324100  0.48176800  0.67795000  1
  O  O44  1  0.61915400  0.08134200  0.33140000  1
  O  O45  1  0.67024600  0.18526100  0.67702000  1
  O  O46  1  0.91691800  0.65724400  0.83559900  1
  O  O47  1  0.99124300  0.79138400  0.24388600  1
  O  O48  1  0.00466100  0.76532800  0.06513100  1
  O  O49  1  0.91966800  0.54127900  0.33360600  1
  O  O50  1  0.81238800  0.32851700  0.16937400  1
  O  O51  1  0.90450300  0.37913200  0.82373300  1
  O  O52  1  0.74338800  0.08097500  0.84020900  1
  O  O53  1  0.75065500  0.99249200  0.06728700  1
  O  O54  1  0.79939600  0.01349500  0.24057700  1
  O  O55  1  0.91751100  0.25924000  0.33776000  1
  O  O56  1  0.01436400  0.22760100  0.56843900  1
  O  O57  1  0.99584300  0.20288100  0.74918800  1
loop_
_geom_bond_atom_site_label_1
_geom_bond_atom_site_label_2
_geom_bond_distance
_geom_bond_site_symmetry_2
Li0 O0 1.954669 1_555
Li0 O27 2.039401 1_555
Li0 O29 2.059275 1_565
Li0 O9 2.171049 1_555
Li1 O19 1.940282 1_555
Li1 O56 2.049836 1_555
Li1 O55 2.087083 1_455
Li1 O11 2.123632 1_555
Li2 O20 1.936952 1_556
Li2 O7 1.990111 1_555
Li2 O23 2.079348 1_555
Li2 O14 2.352622 1_555
Li3 O34 1.873172 1_555
Li3 O53 1.913303 1_556
Li3 O52 2.101092 1_565
Li3 O16 2.344357 1_555
Li4 O28 1.970031 1_555
Li4 O35 1.981268 1_555
Li4 O37 2.101213 1_555
Li4 O22 2.153385 1_555
Li5 O2 1.943983 1_554
Li5 O20 2.008857 1_555
Li5 O3 2.048683 1_545
Li5 O38 2.331434 1_555
Li6 O53 1.995654 1_545
Li6 O8 2.029032 1_655
Li6 O7 2.095423 1_654
Li6 O50 2.267395 1_555
Li7 O28 2.184120 1_555
Li7 O0 2.185888 1_655
Li7 O19 2.300377 1_665
Li7 O35 2.389743 1_555
Li7 O56 2.413770 1_665
Li7 O27 2.459404 1_655
O0 P13 1.501148 1_455
O1 P1 1.546397 1_555
O1 V4 1.877899 1_455
O2 P8 1.475895 1_555
O3 P0 1.567046 1_555
O3 V2 1.950193 1_555
O4 P0 1.579516 1_555
O4 V5 1.829015 1_555
O5 P3 1.583742 1_555
O5 V4 1.849920 1_455
O6 P2 1.543748 1_555
O6 V4 1.923520 1_455
O7 P15 1.501234 1_455
O8 P5 1.542590 1_555
O8 V5 2.037172 1_555
O9 P4 1.577335 1_555
O9 V2 1.967351 1_555
O10 P1 1.568577 1_555
O10 V3 1.860177 1_565
O11 P4 1.562528 1_555
O11 V5 2.010669 1_555
O12 P3 1.482997 1_555
O13 P4 1.497312 1_555
O14 P3 1.577961 1_555
O14 V0 1.928579 1_555
O15 P7 1.531227 1_555
O15 V2 1.921947 1_555
O16 P3 1.575172 1_555
O16 V3 1.945070 1_565
O17 P2 1.559031 1_555
O17 V0 1.858221 1_555
O18 P5 1.601315 1_555
O18 P6 1.626692 1_555
O19 P6 1.497050 1_555
O20 P5 1.504292 1_555
O21 P5 1.550723 1_555
O21 V1 1.879048 1_555
O22 P4 1.594817 1_555
O22 V1 1.932508 1_555
O23 P8 1.558088 1_555
O23 V0 1.969245 1_555
O24 P9 1.561117 1_555
O24 V0 1.871387 1_555
O25 P9 1.555494 1_555
O25 V3 1.859123 1_565
O26 P1 1.609923 1_545
O26 P8 1.623335 1_555
O27 P1 1.485742 1_555
O28 P14 1.497156 1_565
O29 P6 1.550886 1_555
O29 V2 1.976671 1_545
O30 P6 1.547501 1_555
O30 V1 1.939081 1_555
O31 P7 1.554975 1_555
O31 V1 1.897176 1_555
O32 P11 1.592316 1_555
O32 V0 1.844670 1_555
O33 P10 1.559445 1_555
O33 V0 1.869253 1_555
O34 P10 1.470976 1_555
O35 P9 1.482951 1_555
O36 P9 1.597375 1_555
O36 P10 1.633589 1_555
O37 P13 1.572401 1_555
O37 V1 1.932289 1_555
O38 P12 1.563532 1_555
O38 V2 1.958745 1_545
O39 P8 1.557928 1_555
O39 V3 1.864401 1_555
O40 P12 1.609170 1_555
O40 V1 1.823711 1_555
O41 P12 1.486621 1_555
O42 P11 1.474836 1_555
O43 P11 1.563214 1_555
O43 V4 1.893415 1_555
O44 P14 1.541258 1_555
O44 V2 1.928771 1_545
O45 P11 1.594922 1_555
O45 V3 1.840864 1_555
O46 P10 1.551311 1_555
O46 V4 1.879646 1_555
O47 P13 1.607254 1_555
O47 P0 1.619617 1_655
O48 P0 1.467980 1_555
O49 P13 1.531023 1_555
O49 V5 1.963905 1_655
O50 P12 1.569826 1_555
O50 V5 1.971531 1_655
O51 P15 1.544013 1_555
O51 V4 1.890261 1_555
O52 P15 1.550437 1_555
O52 V3 2.001081 1_555
O53 P7 1.504338 1_555
O54 P7 1.606308 1_545
O54 P14 1.621738 1_555
O55 P14 1.553775 1_555
O55 V5 1.968084 1_655
O56 P2 1.486999 1_555
O57 P15 1.615398 1_555
O57 P2 1.625005 1_655
