# generated using pymatgen
data_Sm3In
_symmetry_space_group_name_H-M   'P 1'
_cell_length_a   7.02751847
_cell_length_b   7.02751847
_cell_length_c   5.60336814
_cell_angle_alpha   90.00000000
_cell_angle_beta   90.00000000
_cell_angle_gamma   120.00002059
_symmetry_Int_Tables_number   1
_chemical_formula_structural   Sm3In
_chemical_formula_sum   'Sm6 In2'
_cell_volume   239.65345208
_cell_formula_units_Z   2
loop_
 _symmetry_equiv_pos_site_id
 _symmetry_equiv_pos_as_xyz
  1  'x, y, z'
loop_
 _atom_site_type_symbol
 _atom_site_label
 _atom_site_symmetry_multiplicity
 _atom_site_fract_x
 _atom_site_fract_y
 _atom_site_fract_z
 _atom_site_occupancy
  Sm  Sm0  1  0.17466334  0.34932668  0.25000000  1
  Sm  Sm1  1  0.65067332  0.82533666  0.25000000  1
  Sm  Sm2  1  0.17466334  0.82533666  0.25000000  1
  Sm  Sm3  1  0.82533666  0.65067332  0.75000000  1
  Sm  Sm4  1  0.34932668  0.17466334  0.75000000  1
  Sm  Sm5  1  0.82533666  0.17466334  0.75000000  1
  In  In0  1  0.33333300  0.66666700  0.75000000  1
  In  In1  1  0.66666700  0.33333300  0.25000000  1
loop_
_geom_bond_atom_site_label_1
_geom_bond_atom_site_label_2
_geom_bond_distance
_geom_bond_site_symmetry_2
Sm0 Sm1 3.345168 1_555
Sm0 Sm2 3.345169 1_555
Sm0 Sm5 3.517006 1_454
Sm0 Sm5 3.517006 1_455
Sm0 Sm4 3.517006 1_554
Sm0 Sm4 3.517006 1_555
Sm0 Sm1 3.682348 1_445
Sm0 Sm2 3.682350 1_545
Sm1 Sm2 3.345169 1_555
Sm1 Sm5 3.517006 1_565
Sm1 Sm5 3.517006 1_564
Sm1 Sm3 3.517006 1_554
Sm1 Sm3 3.517006 1_555
Sm1 Sm2 3.682350 1_655
Sm2 Sm4 3.517006 1_565
Sm2 Sm3 3.517006 1_455
Sm2 Sm3 3.517006 1_454
Sm2 Sm4 3.517006 1_564
Sm3 Sm4 3.345168 1_555
Sm3 Sm5 3.345169 1_555
Sm3 Sm4 3.682348 1_665
Sm3 Sm5 3.682350 1_565
Sm4 Sm5 3.345169 1_555
Sm4 Sm5 3.682350 1_455
In0 Sm2 3.402862 1_555
In0 Sm2 3.402862 1_556
In0 Sm1 3.402865 1_555
In0 Sm0 3.402865 1_556
In0 Sm0 3.402865 1_555
In0 Sm1 3.402865 1_556
In0 Sm4 3.515104 1_565
In0 Sm3 3.515104 1_455
In0 Sm5 3.515106 1_455
In0 Sm5 3.515106 1_565
In0 Sm4 3.515111 1_555
In0 Sm3 3.515111 1_555
In1 Sm5 3.402862 1_554
In1 Sm5 3.402862 1_555
In1 Sm3 3.402865 1_554
In1 Sm3 3.402865 1_555
In1 Sm4 3.402865 1_555
In1 Sm4 3.402865 1_554
In1 Sm0 3.515104 1_655
In1 Sm1 3.515104 1_545
In1 Sm2 3.515106 1_655
In1 Sm2 3.515106 1_545
In1 Sm0 3.515111 1_555
In1 Sm1 3.515111 1_555
