# generated using pymatgen
data_Ge3W5
_symmetry_space_group_name_H-M   'P 1'
_cell_length_a   6.42448100
_cell_length_b   6.42448100
_cell_length_c   7.58110602
_cell_angle_alpha   115.06945983
_cell_angle_beta   115.06945983
_cell_angle_gamma   90.00000000
_symmetry_Int_Tables_number   1
_chemical_formula_structural   Ge3W5
_chemical_formula_sum   'Ge6 W10'
_cell_volume   250.50327894
_cell_formula_units_Z   2
loop_
 _symmetry_equiv_pos_site_id
 _symmetry_equiv_pos_as_xyz
  1  'x, y, z'
loop_
 _atom_site_type_symbol
 _atom_site_label
 _atom_site_symmetry_multiplicity
 _atom_site_fract_x
 _atom_site_fract_y
 _atom_site_fract_z
 _atom_site_occupancy
  Ge  Ge0  1  0.63743600  0.13743600  0.00000000  1
  Ge  Ge1  1  0.36256400  0.86256400  0.00000000  1
  Ge  Ge2  1  0.86256400  0.63743600  0.00000000  1
  Ge  Ge3  1  0.13743600  0.36256400  0.00000000  1
  Ge  Ge4  1  0.25000000  0.25000000  0.50000000  1
  Ge  Ge5  1  0.75000000  0.75000000  0.50000000  1
  W  W0  1  0.32238200  0.82238200  0.31865600  1
  W  W1  1  0.67761800  0.17761800  0.68134400  1
  W  W2  1  0.99627400  0.49627400  0.31865600  1
  W  W3  1  0.49627400  0.32238200  0.31865600  1
  W  W4  1  0.17761800  0.00372600  0.68134400  1
  W  W5  1  0.00372600  0.50372600  0.68134400  1
  W  W6  1  0.50372600  0.67761800  0.68134400  1
  W  W7  1  0.82238200  0.99627400  0.31865600  1
  W  W8  1  0.00000000  0.00000000  0.00000000  1
  W  W9  1  0.50000000  0.50000000  0.00000000  1
loop_
_geom_bond_atom_site_label_1
_geom_bond_atom_site_label_2
_geom_bond_distance
_geom_bond_site_symmetry_2
Ge0 W8 2.491020 1_655
Ge0 W9 2.491020 1_555
Ge0 Ge1 2.497374 1_545
Ge0 W2 2.650691 1_555
Ge0 W1 2.650691 1_554
Ge0 W4 2.737571 1_554
Ge0 W6 2.737571 1_544
Ge0 W7 2.737571 1_545
Ge0 W3 2.737571 1_555
Ge1 W8 2.491020 1_565
Ge1 W9 2.491020 1_555
Ge1 W5 2.650691 1_554
Ge1 W0 2.650691 1_555
Ge1 W3 2.737571 1_565
Ge1 W7 2.737571 1_555
Ge1 W6 2.737571 1_554
Ge1 W4 2.737571 1_564
Ge2 W8 2.491020 1_665
Ge2 W9 2.491020 1_555
Ge2 Ge3 2.497374 1_655
Ge2 W7 2.650691 1_555
Ge2 W6 2.650691 1_554
Ge2 W0 2.737571 1_655
Ge2 W1 2.737571 1_554
Ge2 W5 2.737571 1_654
Ge2 W2 2.737571 1_555
Ge3 W8 2.491020 1_555
Ge3 W9 2.491020 1_555
Ge3 W3 2.650691 1_555
Ge3 W4 2.650691 1_554
Ge3 W0 2.737571 1_555
Ge3 W1 2.737571 1_454
Ge3 W2 2.737571 1_455
Ge3 W5 2.737571 1_554
Ge4 W7 2.644741 1_445
Ge4 W6 2.644741 1_555
Ge4 W0 2.644741 1_545
Ge4 W1 2.644741 1_555
Ge4 W5 2.644741 1_555
Ge4 W2 2.644741 1_455
Ge4 W3 2.644741 1_555
Ge4 W4 2.644741 1_555
Ge4 W9 3.034641 1_556
Ge4 W8 3.034641 1_555
Ge5 W4 2.644741 1_665
Ge5 W3 2.644741 1_555
Ge5 W0 2.644741 1_555
Ge5 W1 2.644741 1_565
Ge5 W5 2.644741 1_655
Ge5 W2 2.644741 1_555
Ge5 W6 2.644741 1_555
Ge5 W7 2.644741 1_555
Ge5 W8 3.034641 1_666
Ge5 W9 3.034641 1_555
