# generated using pymatgen
data_Ba3Dy
_symmetry_space_group_name_H-M   'P 1'
_cell_length_a   8.41512609
_cell_length_b   8.41512609
_cell_length_c   6.71883000
_cell_angle_alpha   90.00000000
_cell_angle_beta   90.00000000
_cell_angle_gamma   120.00000074
_symmetry_Int_Tables_number   1
_chemical_formula_structural   Ba3Dy
_chemical_formula_sum   'Ba6 Dy2'
_cell_volume   412.04584293
_cell_formula_units_Z   2
loop_
 _symmetry_equiv_pos_site_id
 _symmetry_equiv_pos_as_xyz
  1  'x, y, z'
loop_
 _atom_site_type_symbol
 _atom_site_label
 _atom_site_symmetry_multiplicity
 _atom_site_fract_x
 _atom_site_fract_y
 _atom_site_fract_z
 _atom_site_occupancy
  Ba  Ba0  1  0.17245600  0.34491200  0.25000000  1
  Ba  Ba1  1  0.65508800  0.82754400  0.25000000  1
  Ba  Ba2  1  0.17245600  0.82754400  0.25000000  1
  Ba  Ba3  1  0.82754400  0.65508800  0.75000000  1
  Ba  Ba4  1  0.34491200  0.17245600  0.75000000  1
  Ba  Ba5  1  0.82754400  0.17245600  0.75000000  1
  Dy  Dy0  1  0.33333300  0.66666700  0.75000000  1
  Dy  Dy1  1  0.66666700  0.33333300  0.25000000  1
loop_
_geom_bond_atom_site_label_1
_geom_bond_atom_site_label_2
_geom_bond_distance
_geom_bond_site_symmetry_2
Ba0 Ba1 4.061409 1_555
Ba0 Ba2 4.061409 1_555
Ba0 Dy0 4.096832 1_554
Ba0 Dy0 4.096832 1_555
Ba0 Ba5 4.195706 1_455
Ba0 Ba5 4.195706 1_454
Ba0 Ba4 4.195706 1_555
Ba0 Ba4 4.195706 1_554
Ba0 Dy1 4.208405 1_455
Ba0 Dy1 4.208413 1_555
Ba0 Ba1 4.353717 1_445
Ba0 Ba2 4.353717 1_545
Ba1 Ba2 4.061409 1_555
Ba1 Dy0 4.096832 1_554
Ba1 Dy0 4.096832 1_555
Ba1 Ba5 4.195706 1_565
Ba1 Ba5 4.195706 1_564
Ba1 Ba3 4.195706 1_555
Ba1 Ba3 4.195706 1_554
Ba1 Dy1 4.208405 1_565
Ba1 Dy1 4.208413 1_555
Ba1 Ba2 4.353717 1_655
Ba2 Dy0 4.096827 1_555
Ba2 Dy0 4.096827 1_554
Ba2 Ba3 4.195706 1_455
Ba2 Ba3 4.195706 1_454
Ba2 Ba4 4.195706 1_565
Ba2 Ba4 4.195706 1_564
Ba2 Dy1 4.208409 1_455
Ba2 Dy1 4.208409 1_565
Ba3 Ba4 4.061409 1_555
Ba3 Ba5 4.061409 1_555
Ba3 Dy1 4.096832 1_555
Ba3 Dy1 4.096832 1_556
Ba3 Dy0 4.208405 1_655
Ba3 Dy0 4.208413 1_555
Ba3 Ba4 4.353717 1_665
Ba3 Ba5 4.353717 1_565
Ba4 Ba5 4.061409 1_555
Ba4 Dy1 4.096832 1_555
Ba4 Dy1 4.096832 1_556
Ba4 Dy0 4.208405 1_545
Ba4 Dy0 4.208413 1_555
Ba4 Ba5 4.353717 1_455
Ba5 Dy1 4.096827 1_555
Ba5 Dy1 4.096827 1_556
Ba5 Dy0 4.208409 1_545
Ba5 Dy0 4.208409 1_655
