# generated using pymatgen
data_Fe3N
_symmetry_space_group_name_H-M   'P 1'
_cell_length_a   4.68140678
_cell_length_b   4.68143369
_cell_length_c   4.29976725
_cell_angle_alpha   90.00064796
_cell_angle_beta   90.00067763
_cell_angle_gamma   119.99539841
_symmetry_Int_Tables_number   1
_chemical_formula_structural   Fe3N
_chemical_formula_sum   'Fe6 N2'
_cell_volume   81.61142697
_cell_formula_units_Z   2
loop_
 _symmetry_equiv_pos_site_id
 _symmetry_equiv_pos_as_xyz
  1  'x, y, z'
loop_
 _atom_site_type_symbol
 _atom_site_label
 _atom_site_symmetry_multiplicity
 _atom_site_fract_x
 _atom_site_fract_y
 _atom_site_fract_z
 _atom_site_occupancy
  Fe  Fe0  1  0.34511428  0.01168147  0.24984222  1
  Fe  Fe1  1  0.66657021  0.01165656  0.75012828  1
  Fe  Fe2  1  0.34508595  0.33345180  0.75012555  1
  Fe  Fe3  1  0.98833138  0.65488630  0.75014607  1
  Fe  Fe4  1  0.66654226  0.65489717  0.24986925  1
  Fe  Fe5  1  0.98834702  0.33343200  0.24986275  1
  N  N0  1  0.33334200  0.66666501  0.49991034  1
  N  N1  1  1.00000291  -0.00000531  0.00011455  1
loop_
_geom_bond_atom_site_label_1
_geom_bond_atom_site_label_2
_geom_bond_distance
_geom_bond_site_symmetry_2
Fe0 N1 1.917744 1_455
Fe0 N0 1.918068 1_545
Fe1 N1 1.918342 1_556
Fe1 N0 1.918403 1_545
Fe2 N0 1.918238 1_555
Fe2 N1 1.918499 1_456
Fe3 N1 1.918348 1_566
Fe3 N0 1.918431 1_655
Fe4 N0 1.917809 1_555
Fe4 N1 1.917971 1_565
Fe5 N1 1.917782 1_555
Fe5 N0 1.918007 1_655
