# generated using pymatgen
data_Sr4FeRh2O9
_symmetry_space_group_name_H-M   'P 1'
_cell_length_a   9.73710004
_cell_length_b   9.73710004
_cell_length_c   8.13220500
_cell_angle_alpha   90.00000000
_cell_angle_beta   90.00000000
_cell_angle_gamma   120.00000024
_symmetry_Int_Tables_number   1
_chemical_formula_structural   Sr4FeRh2O9
_chemical_formula_sum   'Sr12 Fe3 Rh6 O27'
_cell_volume   667.72588479
_cell_formula_units_Z   3
loop_
 _symmetry_equiv_pos_site_id
 _symmetry_equiv_pos_as_xyz
  1  'x, y, z'
loop_
 _atom_site_type_symbol
 _atom_site_label
 _atom_site_symmetry_multiplicity
 _atom_site_fract_x
 _atom_site_fract_y
 _atom_site_fract_z
 _atom_site_occupancy
  Sr  Sr0  1  0.67352500  0.67352500  0.50000000  1
  Sr  Sr1  1  0.32647500  0.00000000  0.50000000  1
  Sr  Sr2  1  0.00000000  0.32647500  0.50000000  1
  Sr  Sr3  1  0.69478600  0.02740200  0.24599800  1
  Sr  Sr4  1  0.97259800  0.66738400  0.24599800  1
  Sr  Sr5  1  0.30521400  0.33261600  0.75400200  1
  Sr  Sr6  1  0.33261600  0.30521400  0.24599800  1
  Sr  Sr7  1  0.02740200  0.69478600  0.75400200  1
  Sr  Sr8  1  0.66738400  0.97259800  0.75400200  1
  Sr  Sr9  1  0.63636000  0.63636000  0.00000000  1
  Sr  Sr10  1  0.36364000  0.00000000  0.00000000  1
  Sr  Sr11  1  0.00000000  0.36364000  0.00000000  1
  Fe  Fe0  1  0.66666700  0.33333300  0.76507600  1
  Fe  Fe1  1  0.33333300  0.66666700  0.23492400  1
  Fe  Fe2  1  0.00000000  0.00000000  0.00000000  1
  Rh  Rh0  1  0.66666700  0.33333300  0.42931800  1
  Rh  Rh1  1  0.33333300  0.66666700  0.57068200  1
  Rh  Rh2  1  0.00000000  0.00000000  0.33834000  1
  Rh  Rh3  1  0.00000000  0.00000000  0.66166000  1
  Rh  Rh4  1  0.66666700  0.33333300  0.10532300  1
  Rh  Rh5  1  0.33333300  0.66666700  0.89467700  1
  O  O0  1  0.84253400  0.34999700  0.26587600  1
  O  O1  1  0.65000300  0.49253700  0.26587600  1
  O  O2  1  0.15746600  0.50746300  0.73412400  1
  O  O3  1  0.50746300  0.15746600  0.26587600  1
  O  O4  1  0.34999700  0.84253400  0.73412400  1
  O  O5  1  0.49253700  0.65000300  0.73412400  1
  O  O6  1  0.16374500  0.16374500  0.50000000  1
  O  O7  1  0.83625500  0.00000000  0.50000000  1
  O  O8  1  0.00000000  0.83625500  0.50000000  1
  O  O9  1  0.00730600  0.16186100  0.17578100  1
  O  O10  1  0.83813900  0.84544600  0.17578100  1
  O  O11  1  0.99269400  0.15455400  0.82421900  1
  O  O12  1  0.15455400  0.99269400  0.17578100  1
  O  O13  1  0.16186100  0.00730600  0.82421900  1
  O  O14  1  0.84544600  0.83813900  0.82421900  1
  O  O15  1  0.31804100  0.50449800  0.40872500  1
  O  O16  1  0.49550200  0.81354300  0.40872500  1
  O  O17  1  0.68195900  0.18645700  0.59127500  1
  O  O18  1  0.18645700  0.68195900  0.40872500  1
  O  O19  1  0.50449800  0.31804100  0.59127500  1
  O  O20  1  0.81354300  0.49550200  0.59127500  1
  O  O21  1  0.31844000  0.49989000  0.05543800  1
  O  O22  1  0.50011000  0.81855000  0.05543800  1
  O  O23  1  0.68156000  0.18145000  0.94456200  1
  O  O24  1  0.18145000  0.68156000  0.05543800  1
  O  O25  1  0.49989000  0.31844000  0.94456200  1
  O  O26  1  0.81855000  0.50011000  0.94456200  1
loop_
_geom_bond_atom_site_label_1
_geom_bond_atom_site_label_2
_geom_bond_distance
_geom_bond_site_symmetry_2
Fe0 O17 2.068356 1_555
Fe0 O20 2.068360 1_555
Fe0 O19 2.068363 1_555
Fe0 O23 2.133804 1_555
Fe0 O26 2.133808 1_555
Fe0 O25 2.133811 1_555
Fe1 O18 2.068356 1_555
Fe1 O16 2.068360 1_555
Fe1 O15 2.068363 1_555
Fe1 O24 2.133804 1_555
Fe1 O22 2.133808 1_555
Fe1 O21 2.133811 1_555
Fe2 O12 2.102451 1_545
Fe2 O11 2.102451 1_454
Fe2 O10 2.102455 1_445
Fe2 O14 2.102455 1_444
Fe2 O13 2.102458 1_554
Fe2 O9 2.102458 1_555
O0 Rh4 2.094188 1_555
O0 Rh0 2.108916 1_555
O0 Sr2 2.525773 1_655
O0 Sr11 2.615298 1_655
O0 Sr4 2.695720 1_555
O0 Sr3 2.728297 1_555
O1 Rh4 2.094196 1_555
O1 Rh0 2.108923 1_555
O1 Sr0 2.525773 1_555
O1 Sr9 2.615298 1_555
O1 Sr6 2.695720 1_555
O1 Sr4 2.728297 1_555
O2 Rh5 2.094191 1_555
O2 Rh1 2.108919 1_555
O2 Sr2 2.525773 1_555
O2 Sr11 2.615298 1_556
O2 Sr7 2.695720 1_555
O2 Sr5 2.728297 1_555
O3 Rh4 2.094191 1_555
O3 Rh0 2.108919 1_555
O3 Sr1 2.525773 1_555
O3 Sr10 2.615298 1_555
O3 Sr3 2.695720 1_555
O3 Sr6 2.728297 1_555
O4 Rh5 2.094188 1_555
O4 Rh1 2.108916 1_555
O4 Sr1 2.525773 1_565
O4 Sr10 2.615298 1_566
O4 Sr8 2.695720 1_555
O4 Sr7 2.728297 1_555
O5 Rh5 2.094196 1_555
O5 Rh1 2.108923 1_555
O5 Sr0 2.525773 1_555
O5 Sr9 2.615298 1_556
O5 Sr5 2.695720 1_555
O5 Sr8 2.728297 1_555
O6 Rh2 2.066501 1_555
O6 Rh3 2.066501 1_555
O6 Sr5 2.569614 1_555
O6 Sr6 2.569614 1_555
O6 Sr1 2.753030 1_555
O6 Sr2 2.753030 1_555
O7 Rh3 2.066501 1_655
O7 Rh2 2.066501 1_655
O7 Sr8 2.569614 1_545
O7 Sr3 2.569614 1_555
O7 Sr2 2.753030 1_655
O7 Sr0 2.753030 1_545
O8 Rh2 2.066501 1_565
O8 Rh3 2.066501 1_565
O8 Sr4 2.569614 1_455
O8 Sr7 2.569614 1_555
O8 Sr1 2.753030 1_565
O8 Sr0 2.753030 1_455
O9 Rh2 2.030882 1_555
O9 Sr11 2.459365 1_555
O9 Sr3 2.704845 1_455
O9 Sr6 2.808298 1_555
O9 Sr2 3.104835 1_555
O10 Rh2 2.030879 1_665
O10 Sr9 2.459369 1_555
O10 Sr4 2.704854 1_555
O10 Sr3 2.808290 1_565
O10 Sr0 3.104837 1_555
O11 Rh3 2.030875 1_655
O11 Sr11 2.459373 1_656
O11 Sr5 2.704846 1_655
O11 Sr8 2.808298 1_545
O11 Sr2 3.104840 1_655
O12 Rh2 2.030875 1_565
O12 Sr10 2.459373 1_565
O12 Sr6 2.704846 1_565
O12 Sr4 2.808298 1_455
O12 Sr1 3.104840 1_565
O13 Rh3 2.030882 1_555
O13 Sr10 2.459365 1_556
O13 Sr7 2.704845 1_545
O13 Sr5 2.808298 1_555
O13 Sr1 3.104835 1_555
O14 Rh3 2.030879 1_665
O14 Sr9 2.459369 1_556
O14 Sr8 2.704854 1_555
O14 Sr7 2.808290 1_655
O14 Sr0 3.104837 1_555
O15 Rh1 2.003780 1_555
O15 Sr6 2.410823 1_555
O15 Sr2 2.788873 1_555
O15 Sr0 3.089343 1_555
O16 Rh1 2.003777 1_555
O16 Sr3 2.410823 1_565
O16 Sr0 2.788873 1_555
O16 Sr1 3.089343 1_565
O17 Rh0 2.003773 1_555
O17 Sr8 2.410823 1_545
O17 Sr2 2.788873 1_655
O17 Sr1 3.089343 1_555
O18 Rh1 2.003773 1_555
O18 Sr4 2.410823 1_455
O18 Sr1 2.788873 1_565
O18 Sr2 3.089343 1_555
O19 Rh0 2.003780 1_555
O19 Sr5 2.410823 1_555
O19 Sr1 2.788873 1_555
O19 Sr0 3.089343 1_555
O20 Rh0 2.003777 1_555
O20 Sr7 2.410823 1_655
O20 Sr0 2.788873 1_555
O20 Sr2 3.089343 1_655
O21 Rh5 2.032685 1_554
O21 Sr6 2.505078 1_555
O21 Sr9 2.727333 1_555
O21 Sr11 2.732023 1_555
O21 Sr5 2.910114 1_554
O22 Rh5 2.032682 1_554
O22 Sr3 2.505078 1_565
O22 Sr10 2.727334 1_565
O22 Sr9 2.732023 1_555
O22 Sr8 2.910114 1_554
O23 Rh4 2.032678 1_556
O23 Sr8 2.505078 1_545
O23 Sr10 2.727333 1_556
O23 Sr11 2.732023 1_656
O23 Sr3 2.910114 1_556
O24 Rh5 2.032678 1_554
O24 Sr4 2.505078 1_455
O24 Sr11 2.727333 1_555
O24 Sr10 2.732023 1_565
O24 Sr7 2.910114 1_554
O25 Rh4 2.032685 1_556
O25 Sr5 2.505078 1_555
O25 Sr9 2.727333 1_556
O25 Sr10 2.732023 1_556
O25 Sr6 2.910114 1_556
O26 Rh4 2.032682 1_556
O26 Sr7 2.505078 1_655
O26 Sr11 2.727334 1_656
O26 Sr9 2.732023 1_556
O26 Sr4 2.910114 1_556
