# generated using pymatgen
data_LaAl2Ag3
_symmetry_space_group_name_H-M   'P 1'
_cell_length_a   5.80820964
_cell_length_b   5.80820964
_cell_length_c   4.26529900
_cell_angle_alpha   90.00000000
_cell_angle_beta   90.00000000
_cell_angle_gamma   119.99999595
_symmetry_Int_Tables_number   1
_chemical_formula_structural   LaAl2Ag3
_chemical_formula_sum   'La1 Al2 Ag3'
_cell_volume   124.61338620
_cell_formula_units_Z   1
loop_
 _symmetry_equiv_pos_site_id
 _symmetry_equiv_pos_as_xyz
  1  'x, y, z'
loop_
 _atom_site_type_symbol
 _atom_site_label
 _atom_site_symmetry_multiplicity
 _atom_site_fract_x
 _atom_site_fract_y
 _atom_site_fract_z
 _atom_site_occupancy
  La  La0  1  0.00000000  0.00000000  0.00000000  1
  Al  Al0  1  0.33333300  0.66666700  0.00000000  1
  Al  Al1  1  0.66666700  0.33333300  0.00000000  1
  Ag  Ag0  1  0.50000000  0.00000000  0.50000000  1
  Ag  Ag1  1  0.50000000  0.50000000  0.50000000  1
  Ag  Ag2  1  0.00000000  0.50000000  0.50000000  1
loop_
_geom_bond_atom_site_label_1
_geom_bond_atom_site_label_2
_geom_bond_distance
_geom_bond_site_symmetry_2
Al0 La0 3.353368 1_565
Al0 La0 3.353373 1_665
Al0 La0 3.353373 1_555
Al1 La0 3.353368 1_655
Al1 La0 3.353373 1_665
Al1 La0 3.353373 1_555
Ag0 Al0 2.712833 1_545
Ag0 Al1 2.712833 1_556
Ag0 Al0 2.712833 1_546
Ag0 Al1 2.712833 1_555
Ag0 La0 3.603057 1_656
Ag0 La0 3.603057 1_555
Ag0 La0 3.603057 1_556
Ag0 La0 3.603057 1_655
Ag1 Al1 2.712836 1_556
Ag1 Al0 2.712836 1_555
Ag1 Al1 2.712836 1_555
Ag1 Al0 2.712836 1_556
Ag1 La0 3.603057 1_555
Ag1 La0 3.603057 1_556
Ag1 La0 3.603057 1_666
Ag1 La0 3.603057 1_665
Ag2 Al0 2.712833 1_556
Ag2 Al1 2.712833 1_455
Ag2 Al1 2.712833 1_456
Ag2 Al0 2.712833 1_555
Ag2 La0 3.603057 1_566
Ag2 La0 3.603057 1_555
Ag2 La0 3.603057 1_556
Ag2 La0 3.603057 1_565
