# generated using pymatgen
data_MgReO4
_symmetry_space_group_name_H-M   'P 1'
_cell_length_a   4.68525048
_cell_length_b   4.68525048
_cell_length_c   3.10356900
_cell_angle_alpha   90.00000000
_cell_angle_beta   90.00000000
_cell_angle_gamma   91.76480486
_symmetry_Int_Tables_number   1
_chemical_formula_structural   MgReO4
_chemical_formula_sum   'Mg1 Re1 O4'
_cell_volume   68.09590308
_cell_formula_units_Z   1
loop_
 _symmetry_equiv_pos_site_id
 _symmetry_equiv_pos_as_xyz
  1  'x, y, z'
loop_
 _atom_site_type_symbol
 _atom_site_label
 _atom_site_symmetry_multiplicity
 _atom_site_fract_x
 _atom_site_fract_y
 _atom_site_fract_z
 _atom_site_occupancy
  Mg  Mg0  1  0.00000000  0.00000000  0.00000000  1
  Re  Re0  1  0.50000000  0.50000000  0.50000000  1
  O  O0  1  0.21677300  0.21677300  0.50000000  1
  O  O1  1  0.68801600  0.31198400  0.00000000  1
  O  O2  1  0.31198400  0.68801600  0.00000000  1
  O  O3  1  0.78322700  0.78322700  0.50000000  1
loop_
_geom_bond_atom_site_label_1
_geom_bond_atom_site_label_2
_geom_bond_distance
_geom_bond_site_symmetry_2
Mg0 O1 2.098779 1_455
Mg0 O2 2.098779 1_545
Mg0 O0 2.099412 1_554
Mg0 O3 2.099412 1_444
Mg0 O3 2.099412 1_445
Mg0 O0 2.099412 1_555
O0 Re0 1.847523 1_555
O1 Re0 2.001951 1_554
O1 Re0 2.001951 1_555
O2 Re0 2.001951 1_555
O2 Re0 2.001951 1_554
O3 Re0 1.847523 1_555
