# generated using pymatgen
data_Mg2V9O13
_symmetry_space_group_name_H-M   'P 1'
_cell_length_a   5.30485660
_cell_length_b   5.30485660
_cell_length_c   17.29857430
_cell_angle_alpha   81.14259058
_cell_angle_beta   81.14259058
_cell_angle_gamma   32.20799354
_symmetry_Int_Tables_number   1
_chemical_formula_structural   Mg2V9O13
_chemical_formula_sum   'Mg2 V9 O13'
_cell_volume   256.11200350
_cell_formula_units_Z   1
loop_
 _symmetry_equiv_pos_site_id
 _symmetry_equiv_pos_as_xyz
  1  'x, y, z'
loop_
 _atom_site_type_symbol
 _atom_site_label
 _atom_site_symmetry_multiplicity
 _atom_site_fract_x
 _atom_site_fract_y
 _atom_site_fract_z
 _atom_site_occupancy
  Mg  Mg0  1  0.78746900  0.78746900  0.23038900  1
  Mg  Mg1  1  0.21253100  0.21253100  0.76961100  1
  V  V0  1  0.50000000  0.50000000  0.50000000  1
  V  V1  1  0.35384900  0.35384900  0.04340200  1
  V  V2  1  0.64615100  0.64615100  0.95659800  1
  V  V3  1  0.25139900  0.25139900  0.41581200  1
  V  V4  1  0.74860100  0.74860100  0.58418800  1
  V  V5  1  0.06815700  0.06815700  0.12754800  1
  V  V6  1  0.93184300  0.93184300  0.87245200  1
  V  V7  1  0.01142500  0.01142500  0.33001800  1
  V  V8  1  0.98857500  0.98857500  0.66998200  1
  O  O0  1  0.00000000  0.00000000  0.00000000  1
  O  O1  1  0.14764200  0.14764200  0.22909000  1
  O  O2  1  0.85235800  0.85235800  0.77091000  1
  O  O3  1  0.70348700  0.70348700  0.07296500  1
  O  O4  1  0.29651300  0.29651300  0.92703500  1
  O  O5  1  0.42446800  0.42446800  0.14995000  1
  O  O6  1  0.57553200  0.57553200  0.85005000  1
  O  O7  1  0.37764200  0.37764200  0.30873300  1
  O  O8  1  0.62235800  0.62235800  0.69126700  1
  O  O9  1  0.61703800  0.61703800  0.38570900  1
  O  O10  1  0.38296200  0.38296200  0.61429100  1
  O  O11  1  0.87198100  0.87198100  0.46151700  1
  O  O12  1  0.12801900  0.12801900  0.53848300  1
loop_
_geom_bond_atom_site_label_1
_geom_bond_atom_site_label_2
_geom_bond_distance
_geom_bond_site_symmetry_2
Mg0 O1 2.051220 1_565
Mg0 O1 2.051220 1_655
Mg0 O7 2.290426 1_655
Mg0 O7 2.290426 1_565
Mg0 O5 2.329970 1_565
Mg0 O5 2.329970 1_655
Mg1 O2 2.051220 1_545
Mg1 O2 2.051220 1_455
Mg1 O8 2.290426 1_545
Mg1 O8 2.290426 1_455
Mg1 O6 2.329970 1_455
Mg1 O6 2.329970 1_545
O0 V1 2.142387 1_545
O0 V1 2.142387 1_455
O0 V2 2.142387 1_544
O0 V2 2.142387 1_454
O0 V6 2.417067 1_444
O0 V5 2.417067 1_555
O1 V5 2.048910 1_555
O1 V7 2.049180 1_555
O2 V6 2.048910 1_555
O2 V8 2.049180 1_555
O3 V1 2.127129 1_655
O3 V1 2.127129 1_565
O3 V5 2.131244 1_655
O3 V5 2.131244 1_565
O3 V2 2.184211 1_554
O4 V2 2.127129 1_455
O4 V2 2.127129 1_545
O4 V6 2.131244 1_455
O4 V6 2.131244 1_545
O4 V1 2.184211 1_556
O5 V5 2.068513 1_565
O5 V5 2.068513 1_655
O5 V1 2.083404 1_555
O6 V6 2.068513 1_455
O6 V6 2.068513 1_545
O6 V2 2.083404 1_555
O7 V7 2.078803 1_565
O7 V7 2.078803 1_655
O7 V3 2.079184 1_555
O8 V8 2.078803 1_455
O8 V8 2.078803 1_545
O8 V4 2.079184 1_555
O9 V3 2.130911 1_565
O9 V3 2.130911 1_655
O9 V0 2.139175 1_555
O9 V7 2.141194 1_655
O9 V7 2.141194 1_565
O10 V4 2.130911 1_545
O10 V4 2.130911 1_455
O10 V0 2.139175 1_555
O10 V8 2.141194 1_455
O10 V8 2.141194 1_545
O11 V0 2.142362 1_655
O11 V0 2.142362 1_565
O11 V3 2.147695 1_655
O11 V3 2.147695 1_565
O11 V4 2.286768 1_555
O11 V7 2.481629 1_665
O12 V0 2.142362 1_545
O12 V0 2.142362 1_455
O12 V4 2.147695 1_545
O12 V4 2.147695 1_455
O12 V3 2.286768 1_555
O12 V8 2.481629 1_445
