# generated using pymatgen
data_Mg2FeB2Ir5
_symmetry_space_group_name_H-M   'P 1'
_cell_length_a   9.45946600
_cell_length_b   9.45946600
_cell_length_c   2.92291300
_cell_angle_alpha   90.00000000
_cell_angle_beta   90.00000000
_cell_angle_gamma   90.00000000
_symmetry_Int_Tables_number   1
_chemical_formula_structural   Mg2FeB2Ir5
_chemical_formula_sum   'Mg4 Fe2 B4 Ir10'
_cell_volume   261.54663086
_cell_formula_units_Z   2
loop_
 _symmetry_equiv_pos_site_id
 _symmetry_equiv_pos_as_xyz
  1  'x, y, z'
loop_
 _atom_site_type_symbol
 _atom_site_label
 _atom_site_symmetry_multiplicity
 _atom_site_fract_x
 _atom_site_fract_y
 _atom_site_fract_z
 _atom_site_occupancy
  Mg  Mg0  1  0.82375200  0.32375200  0.00000000  1
  Mg  Mg1  1  0.17624800  0.67624800  0.00000000  1
  Mg  Mg2  1  0.32375200  0.17624800  0.00000000  1
  Mg  Mg3  1  0.67624800  0.82375200  0.00000000  1
  Fe  Fe0  1  0.50000000  0.50000000  0.00000000  1
  Fe  Fe1  1  0.00000000  0.00000000  0.00000000  1
  B  B0  1  0.62601500  0.12601500  0.00000000  1
  B  B1  1  0.37398500  0.87398500  0.00000000  1
  B  B2  1  0.12601500  0.37398500  0.00000000  1
  B  B3  1  0.87398500  0.62601500  0.00000000  1
  Ir  Ir0  1  0.50000000  0.00000000  0.50000000  1
  Ir  Ir1  1  0.00000000  0.50000000  0.50000000  1
  Ir  Ir2  1  0.71396700  0.57068000  0.50000000  1
  Ir  Ir3  1  0.28603300  0.42932000  0.50000000  1
  Ir  Ir4  1  0.21396700  0.92932000  0.50000000  1
  Ir  Ir5  1  0.78603300  0.07068000  0.50000000  1
  Ir  Ir6  1  0.42932000  0.71396700  0.50000000  1
  Ir  Ir7  1  0.57068000  0.28603300  0.50000000  1
  Ir  Ir8  1  0.07068000  0.21396700  0.50000000  1
  Ir  Ir9  1  0.92932000  0.78603300  0.50000000  1
loop_
_geom_bond_atom_site_label_1
_geom_bond_atom_site_label_2
_geom_bond_distance
_geom_bond_site_symmetry_2
Fe0 Ir6 2.584474 1_555
Fe0 Ir6 2.584474 1_554
Fe0 Ir3 2.584474 1_554
Fe0 Ir3 2.584474 1_555
Fe0 Ir7 2.584474 1_554
Fe0 Ir2 2.584474 1_555
Fe0 Ir2 2.584474 1_554
Fe0 Ir7 2.584474 1_555
Fe1 Ir4 2.584474 1_545
Fe1 Ir4 2.584474 1_544
Fe1 Ir8 2.584474 1_555
Fe1 Ir8 2.584474 1_554
Fe1 Ir5 2.584474 1_455
Fe1 Ir9 2.584474 1_445
Fe1 Ir5 2.584474 1_454
Fe1 Ir9 2.584474 1_444
B0 Ir7 2.168199 1_554
B0 Ir7 2.168199 1_555
B0 Ir5 2.168199 1_554
B0 Ir5 2.168199 1_555
B0 Ir0 2.231087 1_554
B0 Ir0 2.231087 1_555
B0 Mg0 2.645267 1_555
B1 Ir4 2.168199 1_555
B1 Ir4 2.168199 1_554
B1 Ir6 2.168199 1_555
B1 Ir6 2.168199 1_554
B1 Ir0 2.231087 1_565
B1 Ir0 2.231087 1_564
B1 Mg1 2.645267 1_555
B2 Ir8 2.168199 1_555
B2 Ir8 2.168199 1_554
B2 Ir3 2.168199 1_555
B2 Ir3 2.168199 1_554
B2 Ir1 2.231087 1_554
B2 Ir1 2.231087 1_555
B2 Mg2 2.645267 1_555
B3 Ir2 2.168199 1_555
B3 Ir2 2.168199 1_554
B3 Ir9 2.168199 1_554
B3 Ir9 2.168199 1_555
B3 Ir1 2.231087 1_654
B3 Ir1 2.231087 1_655
B3 Mg3 2.645267 1_555
Ir0 Mg2 2.773995 1_556
Ir0 Mg2 2.773995 1_555
Ir0 Mg3 2.773995 1_546
Ir0 Mg3 2.773995 1_545
Ir1 Mg1 2.773995 1_556
Ir1 Mg1 2.773995 1_555
Ir1 Mg0 2.773995 1_456
Ir1 Mg0 2.773995 1_455
Ir2 Mg3 2.827374 1_556
Ir2 Mg3 2.827374 1_555
Ir2 Mg0 2.944545 1_555
Ir2 Mg0 2.944545 1_556
Ir3 Mg2 2.827374 1_556
Ir3 Mg2 2.827374 1_555
Ir3 Mg1 2.944545 1_556
Ir3 Mg1 2.944545 1_555
Ir4 Mg1 2.827374 1_555
Ir4 Mg1 2.827374 1_556
Ir4 Mg2 2.944545 1_565
Ir4 Mg2 2.944545 1_566
Ir5 Mg0 2.827374 1_555
Ir5 Mg0 2.827374 1_556
Ir5 Mg3 2.944545 1_545
Ir5 Mg3 2.944545 1_546
Ir6 Mg1 2.827374 1_555
Ir6 Mg1 2.827374 1_556
Ir6 Mg3 2.944545 1_555
Ir6 Mg3 2.944545 1_556
Ir7 Mg0 2.827374 1_555
Ir7 Mg0 2.827374 1_556
Ir7 Mg2 2.944545 1_556
Ir7 Mg2 2.944545 1_555
Ir8 Mg2 2.827374 1_555
Ir8 Mg2 2.827374 1_556
Ir8 Mg0 2.944545 1_456
Ir8 Mg0 2.944545 1_455
Ir9 Mg3 2.827374 1_556
Ir9 Mg3 2.827374 1_555
Ir9 Mg1 2.944545 1_656
Ir9 Mg1 2.944545 1_655
