# generated using pymatgen
data_Pr2MgS4
_symmetry_space_group_name_H-M   'P 1'
_cell_length_a   3.99393600
_cell_length_b   13.04243200
_cell_length_c   14.17993800
_cell_angle_alpha   90.00000000
_cell_angle_beta   90.00000000
_cell_angle_gamma   90.00000000
_symmetry_Int_Tables_number   1
_chemical_formula_structural   Pr2MgS4
_chemical_formula_sum   'Pr8 Mg4 S16'
_cell_volume   738.64202704
_cell_formula_units_Z   4
loop_
 _symmetry_equiv_pos_site_id
 _symmetry_equiv_pos_as_xyz
  1  'x, y, z'
loop_
 _atom_site_type_symbol
 _atom_site_label
 _atom_site_symmetry_multiplicity
 _atom_site_fract_x
 _atom_site_fract_y
 _atom_site_fract_z
 _atom_site_occupancy
  Pr  Pr0  1  0.25000000  0.12293300  0.07398500  1
  Pr  Pr1  1  0.75000000  0.87706700  0.92601500  1
  Pr  Pr2  1  0.75000000  0.37706700  0.57398500  1
  Pr  Pr3  1  0.25000000  0.62293300  0.42601500  1
  Pr  Pr4  1  0.25000000  0.13010700  0.70869700  1
  Pr  Pr5  1  0.75000000  0.86989300  0.29130300  1
  Pr  Pr6  1  0.75000000  0.36989300  0.20869700  1
  Pr  Pr7  1  0.25000000  0.63010700  0.79130300  1
  Mg  Mg0  1  0.75000000  0.10503800  0.46461200  1
  Mg  Mg1  1  0.25000000  0.89496200  0.53538800  1
  Mg  Mg2  1  0.25000000  0.39496200  0.96461200  1
  Mg  Mg3  1  0.75000000  0.60503800  0.03538800  1
  S  S0  1  0.75000000  0.99975400  0.61295900  1
  S  S1  1  0.25000000  0.00024600  0.38704100  1
  S  S2  1  0.25000000  0.50024600  0.11295900  1
  S  S3  1  0.75000000  0.49975400  0.88704100  1
  S  S4  1  0.25000000  0.02439600  0.88669200  1
  S  S5  1  0.75000000  0.97560400  0.11330800  1
  S  S6  1  0.75000000  0.47560400  0.38669200  1
  S  S7  1  0.25000000  0.52439600  0.61330800  1
  S  S8  1  0.25000000  0.23152600  0.24408500  1
  S  S9  1  0.75000000  0.76847400  0.75591500  1
  S  S10  1  0.75000000  0.26847400  0.74408500  1
  S  S11  1  0.25000000  0.73152600  0.25591500  1
  S  S12  1  0.75000000  0.27185600  0.01723500  1
  S  S13  1  0.25000000  0.72814400  0.98276500  1
  S  S14  1  0.25000000  0.22814400  0.51723500  1
  S  S15  1  0.75000000  0.77185600  0.48276500  1
loop_
_geom_bond_atom_site_label_1
_geom_bond_atom_site_label_2
_geom_bond_distance
_geom_bond_site_symmetry_2
Pr0 S8 2.797094 1_555
Pr0 S5 2.826848 1_445
Pr0 S5 2.826848 1_545
Pr0 S12 2.899662 1_455
Pr0 S12 2.899662 1_555
Pr0 S4 2.950412 1_554
Pr1 S9 2.797094 1_555
Pr1 S4 2.826848 1_565
Pr1 S4 2.826848 1_665
Pr1 S13 2.899662 1_555
Pr1 S13 2.899662 1_655
Pr1 S5 2.950412 1_556
Pr2 S10 2.797094 1_555
Pr2 S7 2.826848 1_655
Pr2 S7 2.826848 1_555
Pr2 S14 2.899662 1_555
Pr2 S14 2.899662 1_655
Pr2 S6 2.950412 1_555
Pr3 S11 2.797094 1_555
Pr3 S6 2.826848 1_455
Pr3 S6 2.826848 1_555
Pr3 S15 2.899662 1_555
Pr3 S15 2.899662 1_455
Pr3 S7 2.950412 1_555
Pr4 S10 2.737959 1_455
Pr4 S10 2.737959 1_555
Pr4 S4 2.875979 1_555
Pr4 S0 2.953177 1_445
Pr4 S0 2.953177 1_545
Pr4 S14 3.000951 1_555
Pr5 S11 2.737959 1_655
Pr5 S11 2.737959 1_555
Pr5 S5 2.875979 1_555
Pr5 S1 2.953177 1_565
Pr5 S1 2.953177 1_665
Pr5 S15 3.000951 1_555
Pr6 S8 2.737959 1_555
Pr6 S8 2.737959 1_655
Pr6 S6 2.875979 1_555
Pr6 S2 2.953177 1_555
Pr6 S2 2.953177 1_655
Pr6 S12 3.000951 1_555
Pr7 S9 2.737959 1_455
Pr7 S9 2.737959 1_555
Pr7 S7 2.875979 1_555
Pr7 S3 2.953177 1_455
Pr7 S3 2.953177 1_555
Pr7 S13 3.000951 1_555
Mg0 S0 2.512070 1_545
Mg0 S1 2.658150 1_555
Mg0 S1 2.658150 1_655
Mg0 S14 2.668827 1_555
Mg0 S14 2.668827 1_655
Mg1 S1 2.512070 1_565
Mg1 S0 2.658150 1_455
Mg1 S0 2.658150 1_555
Mg1 S15 2.668827 1_455
Mg1 S15 2.668827 1_555
Mg2 S2 2.512070 1_556
Mg2 S3 2.658150 1_455
Mg2 S3 2.658150 1_555
Mg2 S12 2.668827 1_556
Mg2 S12 2.668827 1_456
Mg3 S3 2.512070 1_554
Mg3 S2 2.658150 1_655
Mg3 S2 2.658150 1_555
Mg3 S13 2.668827 1_554
Mg3 S13 2.668827 1_654
