# generated using pymatgen
data_HfCrCuSe4
_symmetry_space_group_name_H-M   'P 1'
_cell_length_a   7.58106220
_cell_length_b   7.58106220
_cell_length_c   7.58106220
_cell_angle_alpha   120.44628554
_cell_angle_beta   119.41915702
_cell_angle_gamma   90.11886666
_symmetry_Int_Tables_number   1
_chemical_formula_structural   HfCrCuSe4
_chemical_formula_sum   'Hf2 Cr2 Cu2 Se8'
_cell_volume   308.36997144
_cell_formula_units_Z   2
loop_
 _symmetry_equiv_pos_site_id
 _symmetry_equiv_pos_as_xyz
  1  'x, y, z'
loop_
 _atom_site_type_symbol
 _atom_site_label
 _atom_site_symmetry_multiplicity
 _atom_site_fract_x
 _atom_site_fract_y
 _atom_site_fract_z
 _atom_site_occupancy
  Hf  Hf0  1  0.00000000  0.50000000  0.00000000  1
  Hf  Hf1  1  0.00000000  0.00000000  0.50000000  1
  Cr  Cr0  1  0.50000000  0.50000000  0.00000000  1
  Cr  Cr1  1  0.00000000  0.50000000  0.50000000  1
  Cu  Cu0  1  0.62702800  0.87702800  0.75000000  1
  Cu  Cu1  1  0.37297200  0.12297200  0.25000000  1
  Se  Se0  1  0.23910700  0.74104500  0.49806200  1
  Se  Se1  1  0.74298300  0.74104500  0.00193800  1
  Se  Se2  1  0.75040500  0.73161300  0.48120900  1
  Se  Se3  1  0.75040500  0.26919600  0.01879100  1
  Se  Se4  1  0.76089300  0.25895500  0.50193800  1
  Se  Se5  1  0.25701700  0.25895500  0.99806200  1
  Se  Se6  1  0.24959500  0.26838700  0.51879100  1
  Se  Se7  1  0.24959500  0.73080400  0.98120900  1
loop_
_geom_bond_atom_site_label_1
_geom_bond_atom_site_label_2
_geom_bond_distance
_geom_bond_site_symmetry_2
Hf0 Se5 2.674269 1_554
Hf0 Se4 2.674269 1_454
Hf0 Se1 2.674269 1_455
Hf0 Se0 2.674269 1_555
Hf0 Se7 2.676933 1_554
Hf0 Se3 2.676933 1_455
Hf1 Se4 2.674269 1_455
Hf1 Se1 2.674269 1_445
Hf1 Se0 2.674269 1_545
Hf1 Se5 2.674269 1_555
Hf1 Se6 2.676939 1_555
Hf1 Se2 2.676939 1_445
Cr0 Se1 2.581662 1_555
Cr0 Se5 2.581662 1_554
Cr0 Se3 2.585787 1_555
Cr0 Se7 2.585787 1_554
Cr0 Se2 2.585787 1_555
Cr0 Se6 2.585787 1_554
Cr1 Se0 2.581662 1_555
Cr1 Se4 2.581662 1_455
Cr1 Se2 2.585781 1_455
Cr1 Se6 2.585781 1_555
Cr1 Se7 2.585787 1_555
Cr1 Se3 2.585787 1_455
Cu0 Se1 2.415214 1_556
Cu0 Se0 2.415214 1_555
Cu0 Se3 2.417119 1_566
Cu0 Se2 2.417119 1_555
Cu1 Se5 2.415214 1_554
Cu1 Se4 2.415214 1_555
Cu1 Se7 2.417119 1_544
Cu1 Se6 2.417119 1_555
