# generated using pymatgen
data_CaTi4(PdO4)3
_symmetry_space_group_name_H-M   'P 1'
_cell_length_a   6.56050443
_cell_length_b   6.56050443
_cell_length_c   6.56050443
_cell_angle_alpha   109.47122063
_cell_angle_beta   109.47122063
_cell_angle_gamma   109.47122063
_symmetry_Int_Tables_number   1
_chemical_formula_structural   CaTi4(PdO4)3
_chemical_formula_sum   'Ca1 Ti4 Pd3 O12'
_cell_volume   217.36509682
_cell_formula_units_Z   1
loop_
 _symmetry_equiv_pos_site_id
 _symmetry_equiv_pos_as_xyz
  1  'x, y, z'
loop_
 _atom_site_type_symbol
 _atom_site_label
 _atom_site_symmetry_multiplicity
 _atom_site_fract_x
 _atom_site_fract_y
 _atom_site_fract_z
 _atom_site_occupancy
  Ca  Ca0  1  0.00000000  0.00000000  0.00000000  1
  Ti  Ti0  1  0.00000000  0.00000000  0.50000000  1
  Ti  Ti1  1  0.50000000  0.00000000  0.00000000  1
  Ti  Ti2  1  0.00000000  0.50000000  0.00000000  1
  Ti  Ti3  1  0.50000000  0.50000000  0.50000000  1
  Pd  Pd0  1  0.50000000  0.00000000  0.50000000  1
  Pd  Pd1  1  0.00000000  0.50000000  0.50000000  1
  Pd  Pd2  1  0.50000000  0.50000000  0.00000000  1
  O  O0  1  0.70585300  0.82115200  0.52700500  1
  O  O1  1  0.70585300  0.17884800  0.88470200  1
  O  O2  1  0.29414700  0.82115200  0.11529800  1
  O  O3  1  0.29414700  0.17884800  0.47299500  1
  O  O4  1  0.82115200  0.52700500  0.70585300  1
  O  O5  1  0.17884800  0.88470200  0.70585300  1
  O  O6  1  0.82115200  0.11529800  0.29414700  1
  O  O7  1  0.17884800  0.47299500  0.29414700  1
  O  O8  1  0.52700500  0.70585300  0.82115200  1
  O  O9  1  0.88470200  0.70585300  0.17884800  1
  O  O10  1  0.11529800  0.29414700  0.82115200  1
  O  O11  1  0.47299500  0.29414700  0.17884800  1
loop_
_geom_bond_atom_site_label_1
_geom_bond_atom_site_label_2
_geom_bond_distance
_geom_bond_site_symmetry_2
Ca0 O5 2.607847 1_544
Ca0 O9 2.607847 1_445
Ca0 O1 2.607847 1_454
Ca0 O2 2.607847 1_545
Ca0 O6 2.607847 1_455
Ca0 O10 2.607847 1_554
Ca0 O8 2.607849 1_444
Ca0 O4 2.607849 1_444
Ca0 O0 2.607849 1_444
Ca0 O11 2.607849 1_555
Ca0 O3 2.607849 1_555
Ca0 O7 2.607849 1_555
O0 Ti3 1.997262 1_555
O0 Ti0 1.997262 1_665
O0 Pd0 2.065772 1_565
O1 Ti1 1.997257 1_556
O1 Ti2 1.997264 1_656
O1 Pd0 2.065777 1_555
O2 Ti1 1.997257 1_565
O2 Ti2 1.997264 1_555
O2 Pd0 2.065777 1_565
O3 Ti0 1.997262 1_555
O3 Ti3 1.997262 1_555
O3 Pd0 2.065772 1_555
O4 Ti2 1.997262 1_656
O4 Ti3 1.997262 1_555
O4 Pd1 2.065772 1_655
O5 Ti0 1.997257 1_565
O5 Ti1 1.997264 1_566
O5 Pd1 2.065777 1_555
O6 Ti0 1.997257 1_655
O6 Ti1 1.997264 1_555
O6 Pd1 2.065777 1_655
O7 Ti2 1.997262 1_555
O7 Ti3 1.997262 1_555
O7 Pd1 2.065772 1_555
O8 Ti1 1.997262 1_566
O8 Ti3 1.997262 1_555
O8 Pd2 2.065772 1_556
O9 Ti2 1.997257 1_655
O9 Ti0 1.997264 1_665
O9 Pd2 2.065777 1_555
O10 Ti2 1.997257 1_556
O10 Ti0 1.997264 1_555
O10 Pd2 2.065777 1_556
O11 Ti1 1.997262 1_555
O11 Ti3 1.997262 1_555
O11 Pd2 2.065772 1_555
