# generated using pymatgen
data_BaSrCeBiO6
_symmetry_space_group_name_H-M   'P 1'
_cell_length_a   6.14417351
_cell_length_b   6.27917272
_cell_length_c   8.77637172
_cell_angle_alpha   89.71002306
_cell_angle_beta   90.21506363
_cell_angle_gamma   90.15398162
_symmetry_Int_Tables_number   1
_chemical_formula_structural   BaSrCeBiO6
_chemical_formula_sum   'Ba2 Sr2 Ce2 Bi2 O12'
_cell_volume   338.58736079
_cell_formula_units_Z   2
loop_
 _symmetry_equiv_pos_site_id
 _symmetry_equiv_pos_as_xyz
  1  'x, y, z'
loop_
 _atom_site_type_symbol
 _atom_site_label
 _atom_site_symmetry_multiplicity
 _atom_site_fract_x
 _atom_site_fract_y
 _atom_site_fract_z
 _atom_site_occupancy
  Ba  Ba0  1  0.99270040  0.03591563  0.25275046  1
  Ba  Ba1  1  0.00729960  0.96408437  0.74724954  1
  Sr  Sr0  1  0.51510560  0.54214785  0.25317528  1
  Sr  Sr1  1  0.48489440  0.45785215  0.74682472  1
  Ce  Ce0  1  0.50000000  -0.00000000  0.00000000  1
  Ce  Ce1  1  -0.00000000  0.50000000  0.50000000  1
  Bi  Bi0  1  -0.00000000  0.50000000  0.00000000  1
  Bi  Bi1  1  0.50000000  -0.00000000  0.50000000  1
  O  O0  1  0.20732072  0.22394816  0.95974529  1
  O  O1  1  0.29212648  0.69238781  0.55426436  1
  O  O2  1  0.79267928  0.77605184  0.04025471  1
  O  O3  1  0.70787352  0.30761219  0.44573564  1
  O  O4  1  0.28038953  0.70105166  0.94496205  1
  O  O5  1  0.19855014  0.21647406  0.54230952  1
  O  O6  1  0.71961047  0.29894834  0.05503795  1
  O  O7  1  0.80144986  0.78352594  0.45769048  1
  O  O8  1  0.42722363  0.95181312  0.23694440  1
  O  O9  1  0.09989717  0.48790058  0.23633729  1
  O  O10  1  0.57277637  0.04818688  0.76305560  1
  O  O11  1  0.90010283  0.51209942  0.76366271  1
loop_
_geom_bond_atom_site_label_1
_geom_bond_atom_site_label_2
_geom_bond_distance
_geom_bond_site_symmetry_2
Ba0 O7 2.665420 1_545
Ba0 O8 2.727084 1_645
Ba0 O2 2.766536 1_545
Ba0 O9 2.914763 1_655
Ba0 O6 2.918597 1_555
Ba0 O3 2.984849 1_555
Ba0 O5 3.056221 1_655
Ba0 O0 3.119613 1_654
Ba1 O5 2.665420 1_565
Ba1 O10 2.727084 1_465
Ba1 O0 2.766536 1_565
Ba1 O11 2.914763 1_455
Ba1 O4 2.918597 1_555
Ba1 O1 2.984849 1_555
Ba1 O7 3.056221 1_455
Ba1 O2 3.119613 1_456
Ce0 O8 2.148430 1_545
Ce0 O10 2.148430 1_554
Ce0 O0 2.310804 1_554
Ce0 O2 2.310804 1_545
Ce0 O6 2.359736 1_555
Ce0 O4 2.359736 1_544
Ce1 O5 2.190247 1_555
Ce1 O7 2.190247 1_455
Ce1 O3 2.212576 1_455
Ce1 O1 2.212576 1_555
Ce1 O9 2.397875 1_555
Ce1 O11 2.397875 1_455
Bi0 O9 2.161907 1_555
Bi0 O11 2.161907 1_454
Bi0 O0 2.184825 1_554
Bi0 O2 2.184825 1_455
Bi0 O4 2.187090 1_554
Bi0 O6 2.187090 1_455
Bi1 O7 2.332342 1_545
Bi1 O5 2.332342 1_555
Bi1 O1 2.360288 1_545
Bi1 O3 2.360288 1_555
Bi1 O10 2.370667 1_555
Bi1 O8 2.370667 1_545
O0 Sr1 2.922388 1_555
O1 Sr1 2.529192 1_555
O1 Sr0 3.131922 1_555
O2 Sr0 2.922388 1_555
O3 Sr0 2.529192 1_555
O3 Sr1 3.131922 1_555
O4 Sr1 2.643539 1_555
O4 Sr0 3.216124 1_556
O5 Sr1 2.933204 1_555
O6 Sr0 2.643539 1_555
O6 Sr1 3.216124 1_554
O7 Sr0 2.933204 1_555
O8 Sr0 2.632881 1_555
O9 Sr0 2.576635 1_555
O10 Sr1 2.632881 1_555
O11 Sr1 2.576635 1_555
