# generated using pymatgen
data_Sn3Pb
_symmetry_space_group_name_H-M   'P 1'
_cell_length_a   6.69284457
_cell_length_b   6.69284457
_cell_length_c   5.83383696
_cell_angle_alpha   90.00000000
_cell_angle_beta   90.00000000
_cell_angle_gamma   119.99999163
_symmetry_Int_Tables_number   1
_chemical_formula_structural   Sn3Pb
_chemical_formula_sum   'Sn6 Pb2'
_cell_volume   226.31140201
_cell_formula_units_Z   2
loop_
 _symmetry_equiv_pos_site_id
 _symmetry_equiv_pos_as_xyz
  1  'x, y, z'
loop_
 _atom_site_type_symbol
 _atom_site_label
 _atom_site_symmetry_multiplicity
 _atom_site_fract_x
 _atom_site_fract_y
 _atom_site_fract_z
 _atom_site_occupancy
  Sn  Sn0  1  0.16028450  0.32057100  0.25000000  1
  Sn  Sn1  1  0.67942900  0.83971550  0.25000000  1
  Sn  Sn2  1  0.16028450  0.83971550  0.25000000  1
  Sn  Sn3  1  0.83971550  0.67942900  0.75000000  1
  Sn  Sn4  1  0.32057100  0.16028450  0.75000000  1
  Sn  Sn5  1  0.83971550  0.16028450  0.75000000  1
  Pb  Pb0  1  0.33333300  0.66666700  0.75000000  1
  Pb  Pb1  1  0.66666700  0.33333300  0.25000000  1
loop_
_geom_bond_atom_site_label_1
_geom_bond_atom_site_label_2
_geom_bond_distance
_geom_bond_site_symmetry_2
Sn0 Sn2 3.218291 1_545
Sn0 Sn1 3.218292 1_445
Sn0 Sn5 3.458446 1_455
Sn0 Sn5 3.458446 1_454
Sn0 Sn4 3.458459 1_554
Sn0 Sn4 3.458459 1_555
Sn0 Sn2 3.474553 1_555
Sn0 Sn1 3.474554 1_555
Sn1 Sn2 3.218291 1_655
Sn1 Sn5 3.458446 1_565
Sn1 Sn5 3.458446 1_564
Sn1 Sn3 3.458459 1_555
Sn1 Sn3 3.458459 1_554
Sn1 Sn2 3.474553 1_555
Sn2 Sn4 3.458446 1_565
Sn2 Sn4 3.458446 1_564
Sn2 Sn3 3.458446 1_455
Sn2 Sn3 3.458446 1_454
Sn3 Sn5 3.218291 1_565
Sn3 Sn4 3.218292 1_665
Sn3 Sn5 3.474553 1_555
Sn3 Sn4 3.474554 1_555
Sn4 Sn5 3.218291 1_455
Sn4 Sn5 3.474553 1_555
Pb0 Sn4 3.347230 1_565
Pb0 Sn3 3.347230 1_455
Pb0 Sn5 3.347241 1_565
Pb0 Sn5 3.347241 1_455
Pb0 Sn4 3.347250 1_555
Pb0 Sn3 3.347250 1_555
Pb0 Sn1 3.540138 1_555
Pb0 Sn1 3.540138 1_556
Pb0 Sn0 3.540138 1_555
Pb0 Sn0 3.540138 1_556
Pb0 Sn2 3.540142 1_556
Pb0 Sn2 3.540142 1_555
Pb1 Sn0 3.347230 1_655
Pb1 Sn1 3.347230 1_545
Pb1 Sn2 3.347241 1_655
Pb1 Sn2 3.347241 1_545
Pb1 Sn0 3.347250 1_555
Pb1 Sn1 3.347250 1_555
Pb1 Sn3 3.540138 1_555
Pb1 Sn3 3.540138 1_554
Pb1 Sn4 3.540138 1_554
Pb1 Sn4 3.540138 1_555
Pb1 Sn5 3.540142 1_555
Pb1 Sn5 3.540142 1_554
