# generated using pymatgen
data_Li9Mn2Co5O16
_symmetry_space_group_name_H-M   'P 1'
_cell_length_a   5.78255600
_cell_length_b   5.85966527
_cell_length_c   8.81101595
_cell_angle_alpha   89.09776051
_cell_angle_beta   71.07564976
_cell_angle_gamma   89.44563768
_symmetry_Int_Tables_number   1
_chemical_formula_structural   Li9Mn2Co5O16
_chemical_formula_sum   'Li9 Mn2 Co5 O16'
_cell_volume   282.37537013
_cell_formula_units_Z   1
loop_
 _symmetry_equiv_pos_site_id
 _symmetry_equiv_pos_as_xyz
  1  'x, y, z'
loop_
 _atom_site_type_symbol
 _atom_site_label
 _atom_site_symmetry_multiplicity
 _atom_site_fract_x
 _atom_site_fract_y
 _atom_site_fract_z
 _atom_site_occupancy
  Li  Li0  1  0.62259100  0.25081000  0.24123700  1
  Li  Li1  1  0.37565300  0.74970000  0.76055000  1
  Li  Li2  1  0.24979200  0.00050900  0.49595900  1
  Li  Li3  1  0.00085100  0.49958200  0.00237300  1
  Li  Li4  1  0.86643800  0.74968400  0.75565600  1
  Li  Li5  1  0.49710200  0.49898800  0.99826300  1
  Li  Li6  1  0.13416900  0.24951600  0.24426000  1
  Li  Li7  1  0.75173800  0.00309400  0.50118300  1
  Li  Li8  1  0.49633100  0.00006000  0.00315900  1
  Mn  Mn0  1  0.00226300  0.99800500  0.00123300  1
  Mn  Mn1  1  0.62329400  0.75372900  0.24536800  1
  Co  Co0  1  0.75454500  0.49944800  0.50035300  1
  Co  Co1  1  0.25142900  0.49638300  0.50099700  1
  Co  Co2  1  0.37562700  0.24563900  0.75883300  1
  Co  Co3  1  0.12834200  0.75185900  0.24659000  1
  Co  Co4  1  0.86419400  0.24545700  0.75863200  1
  O  O0  1  0.76790000  0.23520100  0.99555000  1
  O  O1  1  0.51440000  0.74158000  0.48197700  1
  O  O2  1  0.37561500  0.97296100  0.25129600  1
  O  O3  1  0.12705500  0.47767300  0.74261400  1
  O  O4  1  0.01600900  0.73288400  0.48310900  1
  O  O5  1  0.62515600  0.49502500  0.74559200  1
  O  O6  1  0.23511800  0.23430800  0.99659700  1
  O  O7  1  0.87887700  0.97917700  0.23871100  1
  O  O8  1  0.49364100  0.27016400  0.50002900  1
  O  O9  1  0.22922700  0.76466100  0.01561800  1
  O  O10  1  0.11512500  0.99764900  0.77017800  1
  O  O11  1  0.87261700  0.52790200  0.25424100  1
  O  O12  1  0.75495000  0.76436900  0.01601500  1
  O  O13  1  0.37856000  0.52821700  0.24777900  1
  O  O14  1  0.99430700  0.26309200  0.50218000  1
  O  O15  1  0.62708700  0.02267600  0.74386700  1
loop_
_geom_bond_atom_site_label_1
_geom_bond_atom_site_label_2
_geom_bond_distance
_geom_bond_site_symmetry_2
Li0 O0 2.055592 1_554
Li0 O13 2.131357 1_555
Li0 O2 2.157901 1_545
Li0 O7 2.159699 1_545
Li0 O8 2.161463 1_555
Li0 O11 2.213247 1_555
Li1 O5 2.041353 1_555
Li1 O10 2.065511 1_555
Li1 O9 2.132116 1_556
Li1 O15 2.143140 1_565
Li1 O3 2.198158 1_555
Li1 O1 2.322968 1_555
Li2 O2 2.047906 1_545
Li2 O4 2.108430 1_545
Li2 O14 2.111674 1_455
Li2 O1 2.120641 1_545
Li2 O8 2.136343 1_555
Li2 O10 2.285392 1_545
Li3 O6 2.042287 1_554
Li3 O12 2.072684 1_455
Li3 O0 2.077012 1_454
Li3 O9 2.077408 1_555
Li3 O11 2.108108 1_455
Li3 O3 2.170582 1_554
Li4 O5 2.075075 1_555
Li4 O10 2.088343 1_655
Li4 O15 2.128484 1_565
Li4 O3 2.161436 1_655
Li4 O12 2.175187 1_556
Li4 O4 2.276648 1_655
Li5 O13 2.089174 1_556
Li5 O5 2.106468 1_555
Li5 O9 2.157190 1_556
Li5 O6 2.182031 1_555
Li5 O0 2.184462 1_555
Li5 O12 2.206710 1_556
Li6 O6 2.071086 1_554
Li6 O2 2.142062 1_545
Li6 O14 2.153401 1_455
Li6 O13 2.177104 1_555
Li6 O7 2.187588 1_445
Li6 O11 2.196971 1_455
Li7 O15 2.027660 1_555
Li7 O14 2.082877 1_555
Li7 O1 2.111844 1_545
Li7 O8 2.154235 1_555
Li7 O4 2.161220 1_645
Li7 O7 2.194048 1_545
Li8 O6 2.045236 1_554
Li8 O12 2.054661 1_545
Li8 O9 2.055913 1_545
Li8 O2 2.072159 1_545
Li8 O0 2.083187 1_554
Li8 O15 2.163494 1_554
Mn0 O9 1.917242 1_555
Mn0 O10 1.925832 1_554
Mn0 O6 1.931481 1_564
Mn0 O0 1.943268 1_464
Mn0 O12 1.961593 1_455
Mn0 O7 1.981251 1_455
Mn1 O2 1.903215 1_555
Mn1 O12 1.914753 1_555
Mn1 O13 1.940406 1_555
Mn1 O11 1.966891 1_555
Mn1 O1 1.972946 1_555
Mn1 O7 1.977873 1_555
Co0 O14 1.953770 1_555
Co0 O4 2.016065 1_655
Co0 O1 2.016948 1_555
Co0 O8 2.030607 1_555
Co0 O5 2.044383 1_555
Co0 O11 2.055919 1_555
Co1 O8 1.917179 1_555
Co1 O4 1.973407 1_555
Co1 O3 2.015562 1_555
Co1 O14 2.026891 1_455
Co1 O1 2.067403 1_555
Co1 O13 2.116302 1_555
Co2 O15 1.919100 1_555
Co2 O6 1.986438 1_555
Co2 O3 2.006094 1_555
Co2 O5 2.038948 1_555
Co2 O10 2.081071 1_545
Co2 O8 2.160657 1_555
Co3 O9 1.927054 1_555
Co3 O13 1.945164 1_555
Co3 O2 1.949559 1_555
Co3 O11 1.970659 1_455
Co3 O7 1.971006 1_455
Co3 O4 1.973143 1_555
Co4 O15 1.938196 1_555
Co4 O0 1.978387 1_555
Co4 O3 2.019083 1_655
Co4 O5 2.030023 1_555
Co4 O10 2.067524 1_645
Co4 O14 2.138684 1_555
