# generated using pymatgen
data_Ta2VFe
_symmetry_space_group_name_H-M   'P 1'
_cell_length_a   9.75690665
_cell_length_b   9.75690665
_cell_length_c   9.75690665
_cell_angle_alpha   126.94610088
_cell_angle_beta   117.73253860
_cell_angle_gamma   86.19228489
_symmetry_Int_Tables_number   1
_chemical_formula_structural   Ta2VFe
_chemical_formula_sum   'Ta2 V1 Fe1'
_cell_volume   626.47248710
_cell_formula_units_Z   1
loop_
 _symmetry_equiv_pos_site_id
 _symmetry_equiv_pos_as_xyz
  1  'x, y, z'
loop_
 _atom_site_type_symbol
 _atom_site_label
 _atom_site_symmetry_multiplicity
 _atom_site_fract_x
 _atom_site_fract_y
 _atom_site_fract_z
 _atom_site_occupancy
  Ta  Ta0  1  0.00000000  0.25550800  0.25550800  1
  Ta  Ta1  1  0.00000000  0.74449200  0.74449200  1
  V  V0  1  0.00000000  0.00000000  0.00000000  1
  Fe  Fe0  1  0.00000000  0.50000000  0.50000000  1
loop_
_geom_bond_atom_site_label_1
_geom_bond_atom_site_label_2
_geom_bond_distance
_geom_bond_site_symmetry_2
Ta0 V0 2.226812 1_555
Ta1 V0 2.226812 1_566
Fe0 Ta0 2.130805 1_555
Fe0 Ta1 2.130805 1_555
