# generated using pymatgen
data_La5Mg
_symmetry_space_group_name_H-M   'P 1'
_cell_length_a   6.43092685
_cell_length_b   6.43092685
_cell_length_c   5.82582609
_cell_angle_alpha   90.00000000
_cell_angle_beta   90.00000000
_cell_angle_gamma   120.00000006
_symmetry_Int_Tables_number   1
_chemical_formula_structural   La5Mg
_chemical_formula_sum   'La5 Mg1'
_cell_volume   208.65811815
_cell_formula_units_Z   1
loop_
 _symmetry_equiv_pos_site_id
 _symmetry_equiv_pos_as_xyz
  1  'x, y, z'
loop_
 _atom_site_type_symbol
 _atom_site_label
 _atom_site_symmetry_multiplicity
 _atom_site_fract_x
 _atom_site_fract_y
 _atom_site_fract_z
 _atom_site_occupancy
  La  La0  1  0.33333300  0.66666700  0.50000000  1
  La  La1  1  0.00000000  0.68848427  -0.00000000  1
  La  La2  1  0.68848427  0.00000000  0.00000000  1
  La  La3  1  0.31151573  0.31151573  0.00000000  1
  La  La4  1  0.66666700  0.33333300  0.50000000  1
  Mg  Mg0  1  -0.00000000  0.00000000  0.50000000  1
loop_
_geom_bond_atom_site_label_1
_geom_bond_atom_site_label_2
_geom_bond_distance
_geom_bond_site_symmetry_2
La0 La1 3.660697 1_556
La0 La1 3.660697 1_555
La0 La2 3.660699 1_566
La0 La2 3.660699 1_565
La0 La3 3.660701 1_555
La0 La3 3.660701 1_556
La0 La4 3.712894 1_455
La0 La4 3.712894 1_565
La0 Mg0 3.712894 1_565
La0 Mg0 3.712899 1_555
La0 Mg0 3.712899 1_665
La0 La4 3.712905 1_555
La1 La3 3.469878 1_565
La1 La2 3.469878 1_465
La1 Mg0 3.535309 1_564
La1 Mg0 3.535309 1_565
La1 La4 3.660699 1_454
La1 La4 3.660699 1_455
La1 La3 3.840179 1_455
La1 La2 3.840179 1_455
La1 La2 3.840179 1_565
La1 La3 3.840179 1_555
La2 La3 3.469878 1_655
La2 Mg0 3.535309 1_655
La2 Mg0 3.535309 1_654
La2 La4 3.660697 1_554
La2 La4 3.660697 1_555
La2 La3 3.840179 1_545
La2 La3 3.840179 1_555
La3 Mg0 3.535309 1_555
La3 Mg0 3.535309 1_554
La3 La4 3.660701 1_554
La3 La4 3.660701 1_555
La4 Mg0 3.712894 1_655
La4 Mg0 3.712899 1_665
La4 Mg0 3.712899 1_555
