# generated using pymatgen
data_Tm5Rh3
_symmetry_space_group_name_H-M   'P 1'
_cell_length_a   8.19616100
_cell_length_b   8.19616156
_cell_length_c   6.16810300
_cell_angle_alpha   90.00000000
_cell_angle_beta   90.00000000
_cell_angle_gamma   120.00000177
_symmetry_Int_Tables_number   1
_chemical_formula_structural   Tm5Rh3
_chemical_formula_sum   'Tm10 Rh6'
_cell_volume   358.84197036
_cell_formula_units_Z   2
loop_
 _symmetry_equiv_pos_site_id
 _symmetry_equiv_pos_as_xyz
  1  'x, y, z'
loop_
 _atom_site_type_symbol
 _atom_site_label
 _atom_site_symmetry_multiplicity
 _atom_site_fract_x
 _atom_site_fract_y
 _atom_site_fract_z
 _atom_site_occupancy
  Tm  Tm0  1  0.66666700  0.33333300  0.50000000  1
  Tm  Tm1  1  0.33333300  0.66666700  0.50000000  1
  Tm  Tm2  1  0.33333300  0.66666700  0.00000000  1
  Tm  Tm3  1  0.66666700  0.33333300  0.00000000  1
  Tm  Tm4  1  0.74542800  0.74542800  0.25000000  1
  Tm  Tm5  1  0.25457200  0.00000000  0.25000000  1
  Tm  Tm6  1  0.00000000  0.25457200  0.25000000  1
  Tm  Tm7  1  0.25457200  0.25457200  0.75000000  1
  Tm  Tm8  1  0.74542800  0.00000000  0.75000000  1
  Tm  Tm9  1  0.00000000  0.74542800  0.75000000  1
  Rh  Rh0  1  0.39422600  0.39422600  0.25000000  1
  Rh  Rh1  1  0.60577400  0.00000000  0.25000000  1
  Rh  Rh2  1  0.00000000  0.60577400  0.25000000  1
  Rh  Rh3  1  0.60577400  0.60577400  0.75000000  1
  Rh  Rh4  1  0.39422600  0.00000000  0.75000000  1
  Rh  Rh5  1  0.00000000  0.39422600  0.75000000  1
loop_
_geom_bond_atom_site_label_1
_geom_bond_atom_site_label_2
_geom_bond_distance
_geom_bond_site_symmetry_2
Rh0 Tm6 2.837602 1_555
Rh0 Tm5 2.837602 1_555
Rh0 Tm4 2.878508 1_555
Rh0 Tm3 2.954241 1_555
Rh0 Tm0 2.954241 1_555
Rh0 Tm2 2.954241 1_555
Rh0 Tm1 2.954241 1_555
Rh0 Tm7 3.289612 1_555
Rh0 Tm7 3.289612 1_554
Rh1 Tm6 2.837602 1_655
Rh1 Tm4 2.837602 1_545
Rh1 Tm5 2.878508 1_555
Rh1 Tm3 2.954234 1_555
Rh1 Tm0 2.954234 1_555
Rh1 Tm2 2.954237 1_545
Rh1 Tm1 2.954237 1_545
Rh1 Tm8 3.289612 1_554
Rh1 Tm8 3.289612 1_555
Rh2 Tm4 2.837602 1_455
Rh2 Tm5 2.837602 1_565
Rh2 Tm6 2.878508 1_555
Rh2 Tm1 2.954234 1_555
Rh2 Tm2 2.954234 1_555
Rh2 Tm3 2.954237 1_455
Rh2 Tm0 2.954237 1_455
Rh2 Tm9 3.289612 1_554
Rh2 Tm9 3.289612 1_555
Rh3 Tm9 2.837602 1_655
Rh3 Tm8 2.837602 1_565
Rh3 Tm7 2.878508 1_555
Rh3 Tm2 2.954241 1_556
Rh3 Tm1 2.954241 1_555
Rh3 Tm3 2.954241 1_556
Rh3 Tm0 2.954241 1_555
Rh3 Tm4 3.289612 1_555
Rh3 Tm4 3.289612 1_556
Rh4 Tm9 2.837602 1_545
Rh4 Tm7 2.837602 1_555
Rh4 Tm8 2.878508 1_555
Rh4 Tm2 2.954234 1_546
Rh4 Tm1 2.954234 1_545
Rh4 Tm3 2.954237 1_556
Rh4 Tm0 2.954237 1_555
Rh4 Tm5 3.289612 1_555
Rh4 Tm5 3.289612 1_556
Rh5 Tm7 2.837602 1_555
Rh5 Tm8 2.837602 1_455
Rh5 Tm9 2.878508 1_555
Rh5 Tm0 2.954234 1_455
Rh5 Tm3 2.954234 1_456
Rh5 Tm1 2.954237 1_555
Rh5 Tm2 2.954237 1_556
Rh5 Tm6 3.289612 1_556
Rh5 Tm6 3.289612 1_555
