# generated using pymatgen
data_Tm4MgS7
_symmetry_space_group_name_H-M   'P 1'
_cell_length_a   6.51634394
_cell_length_b   6.51634394
_cell_length_c   11.38441840
_cell_angle_alpha   75.83726133
_cell_angle_beta   75.83726133
_cell_angle_gamma   33.52582119
_symmetry_Int_Tables_number   1
_chemical_formula_structural   Tm4MgS7
_chemical_formula_sum   'Tm4 Mg1 S7'
_cell_volume   258.13113789
_cell_formula_units_Z   1
loop_
 _symmetry_equiv_pos_site_id
 _symmetry_equiv_pos_as_xyz
  1  'x, y, z'
loop_
 _atom_site_type_symbol
 _atom_site_label
 _atom_site_symmetry_multiplicity
 _atom_site_fract_x
 _atom_site_fract_y
 _atom_site_fract_z
 _atom_site_occupancy
  Tm  Tm0  1  0.69324100  0.69324100  0.20287400  1
  Tm  Tm1  1  0.30623400  0.30623400  0.80280600  1
  Tm  Tm2  1  0.99988600  0.99988600  0.00458100  1
  Tm  Tm3  1  0.11371900  0.11371900  0.56889400  1
  Mg  Mg0  1  0.88564300  0.88564300  0.42126900  1
  S  S0  1  0.74277800  0.74277800  0.64189900  1
  S  S1  1  0.26509500  0.26509500  0.35265700  1
  S  S2  1  0.33940300  0.33940300  0.05039900  1
  S  S3  1  0.65959000  0.65959000  0.94869200  1
  S  S4  1  0.03658200  0.03658200  0.22211800  1
  S  S5  1  0.96208200  0.96208200  0.78487600  1
  S  S6  1  0.49574700  0.49574700  0.49893400  1
loop_
_geom_bond_atom_site_label_1
_geom_bond_atom_site_label_2
_geom_bond_distance
_geom_bond_site_symmetry_2
Mg0 S4 2.550598 1_665
Mg0 S6 2.612000 1_565
Mg0 S6 2.612000 1_655
Mg0 S1 2.646827 1_565
Mg0 S1 2.646827 1_655
Mg0 S0 2.683036 1_555
S0 Tm3 2.738742 1_655
S0 Tm3 2.738742 1_565
S0 Tm1 2.873344 1_565
S0 Tm1 2.873344 1_655
S1 Tm3 2.692929 1_555
S1 Tm0 2.832879 1_455
S1 Tm0 2.832879 1_545
S2 Tm2 2.698319 1_455
S2 Tm2 2.698319 1_545
S2 Tm0 2.872964 1_455
S2 Tm0 2.872964 1_545
S2 Tm1 2.951723 1_554
S3 Tm2 2.694560 1_546
S3 Tm2 2.694560 1_456
S3 Tm1 2.843576 1_655
S3 Tm1 2.843576 1_565
S3 Tm0 3.028357 1_556
S4 Tm2 2.631064 1_445
S4 Tm0 2.680107 1_545
S4 Tm0 2.680107 1_455
S5 Tm2 2.661139 1_556
S5 Tm1 2.674542 1_565
S5 Tm1 2.674542 1_655
S5 Tm3 2.692324 1_665
S6 Tm3 2.633047 1_565
S6 Tm3 2.633047 1_655
