# generated using pymatgen
data_YSc3N4
_symmetry_space_group_name_H-M   'P 1'
_cell_length_a   5.66806302
_cell_length_b   5.66806302
_cell_length_c   5.66806302
_cell_angle_alpha   131.57033250
_cell_angle_beta   131.57033250
_cell_angle_gamma   70.90849243
_symmetry_Int_Tables_number   1
_chemical_formula_structural   YSc3N4
_chemical_formula_sum   'Y1 Sc3 N4'
_cell_volume   99.81643256
_cell_formula_units_Z   1
loop_
 _symmetry_equiv_pos_site_id
 _symmetry_equiv_pos_as_xyz
  1  'x, y, z'
loop_
 _atom_site_type_symbol
 _atom_site_label
 _atom_site_symmetry_multiplicity
 _atom_site_fract_x
 _atom_site_fract_y
 _atom_site_fract_z
 _atom_site_occupancy
  Y  Y0  1  0.00000000  0.00000000  0.00000000  1
  Sc  Sc0  1  0.25000000  0.75000000  0.50000000  1
  Sc  Sc1  1  0.50000000  0.50000000  0.00000000  1
  Sc  Sc2  1  0.75000000  0.25000000  0.50000000  1
  N  N0  1  0.00000000  0.50000000  0.50000000  1
  N  N1  1  0.25807800  0.25807800  0.00000000  1
  N  N2  1  0.50000000  0.00000000  0.50000000  1
  N  N3  1  0.74192200  0.74192200  0.00000000  1
loop_
_geom_bond_atom_site_label_1
_geom_bond_atom_site_label_2
_geom_bond_distance
_geom_bond_site_symmetry_2
N0 Sc2 2.308543 1_455
N0 Sc0 2.308543 1_555
N0 Y0 2.324808 1_566
N0 Y0 2.324808 1_555
N0 Sc1 2.324808 1_556
N0 Sc1 2.324808 1_455
N1 Sc1 2.233949 1_555
N1 Sc0 2.326004 1_555
N1 Sc2 2.326004 1_555
N1 Sc0 2.326004 1_544
N1 Sc2 2.326004 1_454
N1 Y0 2.383136 1_555
N2 Sc0 2.308543 1_545
N2 Sc2 2.308543 1_555
N2 Sc1 2.324808 1_556
N2 Y0 2.324808 1_656
N2 Sc1 2.324808 1_545
N2 Y0 2.324808 1_555
N3 Sc1 2.233949 1_555
N3 Sc0 2.326004 1_554
N3 Sc0 2.326004 1_655
N3 Sc2 2.326004 1_565
N3 Sc2 2.326004 1_554
N3 Y0 2.383136 1_665
