# generated using pymatgen
data_La2(CuNi)5
_symmetry_space_group_name_H-M   'P 1'
_cell_length_a   3.93799752
_cell_length_b   5.08101969
_cell_length_c   8.74413378
_cell_angle_alpha   90.00000000
_cell_angle_beta   90.00000000
_cell_angle_gamma   90.00000000
_symmetry_Int_Tables_number   1
_chemical_formula_structural   La2(CuNi)5
_chemical_formula_sum   'La2 Cu5 Ni5'
_cell_volume   174.96174826
_cell_formula_units_Z   1
loop_
 _symmetry_equiv_pos_site_id
 _symmetry_equiv_pos_as_xyz
  1  'x, y, z'
loop_
 _atom_site_type_symbol
 _atom_site_label
 _atom_site_symmetry_multiplicity
 _atom_site_fract_x
 _atom_site_fract_y
 _atom_site_fract_z
 _atom_site_occupancy
  La  La0  1  -0.00000000  0.50000000  0.00000000  1
  La  La1  1  -0.00000000  0.00000000  0.50000000  1
  Cu  Cu0  1  0.00000000  0.50000000  0.32953456  1
  Cu  Cu1  1  0.00000000  0.00000000  0.83353497  1
  Cu  Cu2  1  0.00000000  0.00000000  0.16646503  1
  Cu  Cu3  1  0.00000000  0.50000000  0.67046544  1
  Cu  Cu4  1  0.50000000  0.50000000  0.50000000  1
  Ni  Ni0  1  0.50000000  0.00000000  0.00000000  1
  Ni  Ni1  1  0.50000000  0.75106190  0.24906846  1
  Ni  Ni2  1  0.50000000  0.24893810  0.75093154  1
  Ni  Ni3  1  0.50000000  0.24893810  0.24906846  1
  Ni  Ni4  1  0.50000000  0.75106190  0.75093154  1
loop_
_geom_bond_atom_site_label_1
_geom_bond_atom_site_label_2
_geom_bond_distance
_geom_bond_site_symmetry_2
La0 Ni4 3.201162 1_554
La0 Ni2 3.201162 1_554
La0 Ni4 3.201162 1_454
La0 Ni2 3.201162 1_454
La0 Ni1 3.201162 1_455
La0 Ni3 3.201162 1_455
La0 Ni1 3.201162 1_555
La0 Ni3 3.201162 1_555
La0 Ni0 3.214210 1_455
La0 Ni0 3.214210 1_565
La0 Ni0 3.214210 1_555
La0 Ni0 3.214210 1_465
La1 Ni2 3.207997 1_555
La1 Ni4 3.207997 1_445
La1 Ni3 3.207997 1_555
La1 Ni4 3.207997 1_545
La1 Ni1 3.207997 1_545
La1 Ni2 3.207997 1_455
La1 Ni1 3.207997 1_445
La1 Ni3 3.207997 1_455
Cu0 Ni3 2.449347 1_555
Cu0 Ni1 2.449347 1_455
Cu0 Ni3 2.449347 1_455
Cu0 Ni1 2.449347 1_555
Cu0 Cu4 2.469567 1_555
Cu0 Cu4 2.469567 1_455
Cu0 La0 2.881494 1_555
Cu0 La1 2.945505 1_565
Cu0 La1 2.945505 1_555
Cu1 Ni0 2.448613 1_456
Cu1 Ni0 2.448613 1_556
Cu1 Ni4 2.449191 1_545
Cu1 Ni4 2.449191 1_445
Cu1 Ni2 2.449191 1_455
Cu1 Ni2 2.449191 1_555
Cu1 La1 2.916474 1_555
Cu1 La0 2.927958 1_546
Cu1 La0 2.927958 1_556
Cu2 Ni0 2.448613 1_455
Cu2 Ni0 2.448613 1_555
Cu2 Ni1 2.449191 1_445
Cu2 Ni3 2.449191 1_555
Cu2 Ni3 2.449191 1_455
Cu2 Ni1 2.449191 1_545
Cu2 La1 2.916474 1_555
Cu2 La0 2.927958 1_545
Cu2 La0 2.927958 1_555
Cu3 Ni4 2.449347 1_555
Cu3 Ni4 2.449347 1_455
Cu3 Ni2 2.449347 1_455
Cu3 Ni2 2.449347 1_555
Cu3 Cu4 2.469567 1_555
Cu3 Cu4 2.469567 1_455
Cu3 La0 2.881494 1_556
Cu3 La1 2.945505 1_565
Cu3 La1 2.945505 1_555
Cu4 Ni1 2.538051 1_555
Cu4 Ni2 2.538051 1_555
Cu4 Ni3 2.538051 1_555
Cu4 Ni4 2.538051 1_555
Cu4 La1 3.214210 1_555
Cu4 La1 3.214210 1_565
Cu4 La1 3.214210 1_655
Cu4 La1 3.214210 1_665
Ni0 Ni4 2.518544 1_544
Ni0 Ni2 2.518544 1_554
Ni0 Ni3 2.518544 1_555
Ni0 Ni1 2.518544 1_545
Ni1 Ni3 2.529719 1_565
Ni1 Ni3 2.551301 1_555
Ni2 Ni4 2.529719 1_545
Ni2 Ni4 2.551301 1_555
