# generated using pymatgen
data_RbCe(ClO)4
_symmetry_space_group_name_H-M   'P 1'
_cell_length_a   7.41360900
_cell_length_b   7.42755000
_cell_length_c   8.88631600
_cell_angle_alpha   90.00000000
_cell_angle_beta   90.00000000
_cell_angle_gamma   90.00000000
_symmetry_Int_Tables_number   1
_chemical_formula_structural   RbCe(ClO)4
_chemical_formula_sum   'Rb2 Ce2 Cl8 O8'
_cell_volume   489.32455980
_cell_formula_units_Z   2
loop_
 _symmetry_equiv_pos_site_id
 _symmetry_equiv_pos_as_xyz
  1  'x, y, z'
loop_
 _atom_site_type_symbol
 _atom_site_label
 _atom_site_symmetry_multiplicity
 _atom_site_fract_x
 _atom_site_fract_y
 _atom_site_fract_z
 _atom_site_occupancy
  Rb  Rb0  1  0.00000000  0.08633800  0.00000000  1
  Rb  Rb1  1  0.50000000  0.91366200  0.50000000  1
  Ce  Ce0  1  0.00000000  0.46385700  0.50000000  1
  Ce  Ce1  1  0.50000000  0.53614300  0.00000000  1
  Cl  Cl0  1  0.17375200  0.60084400  0.18326300  1
  Cl  Cl1  1  0.82624800  0.60084400  0.81673700  1
  Cl  Cl2  1  0.32624800  0.39915600  0.68326300  1
  Cl  Cl3  1  0.67375200  0.39915600  0.31673700  1
  Cl  Cl4  1  0.12765500  0.17701400  0.34268500  1
  Cl  Cl5  1  0.87234500  0.17701400  0.65731500  1
  Cl  Cl6  1  0.37234500  0.82298600  0.84268500  1
  Cl  Cl7  1  0.62765500  0.82298600  0.15731500  1
  O  O0  1  0.44222500  0.22380100  0.05572100  1
  O  O1  1  0.55777500  0.22380100  0.94427900  1
  O  O2  1  0.05777500  0.77619900  0.55572100  1
  O  O3  1  0.94222500  0.77619900  0.44427900  1
  O  O4  1  0.24390000  0.57577800  0.35893700  1
  O  O5  1  0.75610000  0.57577800  0.64106300  1
  O  O6  1  0.25610000  0.42422200  0.85893700  1
  O  O7  1  0.74390000  0.42422200  0.14106300  1
loop_
_geom_bond_atom_site_label_1
_geom_bond_atom_site_label_2
_geom_bond_distance
_geom_bond_site_symmetry_2
Ce0 O5 2.352001 1_455
Ce0 O4 2.352001 1_555
Ce0 O3 2.410547 1_455
Ce0 O2 2.410547 1_555
Ce0 Cl5 2.718292 1_455
Ce0 Cl4 2.718292 1_555
Ce0 Cl2 2.955174 1_555
Ce0 Cl3 2.955174 1_455
Ce1 O7 2.352001 1_555
Ce1 O6 2.352001 1_554
Ce1 O0 2.410547 1_555
Ce1 O1 2.410547 1_554
Ce1 Cl7 2.718292 1_555
Ce1 Cl6 2.718292 1_554
Ce1 Cl0 2.955174 1_555
Ce1 Cl1 2.955174 1_554
Cl0 O4 1.655938 1_555
Cl1 O5 1.655938 1_555
Cl2 O6 1.655938 1_555
Cl3 O7 1.655938 1_555
Cl4 Rb0 3.259223 1_555
Cl4 Rb1 3.660650 1_545
Cl5 Rb0 3.259223 1_656
Cl5 Rb1 3.660650 1_545
Cl6 Rb1 3.259223 1_555
Cl6 Rb0 3.660650 1_566
Cl7 Rb1 3.259223 1_555
Cl7 Rb0 3.660650 1_665
O0 O1 1.309407 1_554
O0 Rb0 3.469308 1_555
O1 Rb0 3.469308 1_656
O2 O3 1.309407 1_455
O2 Rb1 3.469308 1_555
O3 Rb1 3.469308 1_555
O4 Rb1 3.387397 1_555
O5 Rb1 3.387397 1_555
O6 Rb0 3.387397 1_556
O7 Rb0 3.387397 1_655
