# generated using pymatgen
data_NdRe2SiC
_symmetry_space_group_name_H-M   'P 1'
_cell_length_a   5.83444646
_cell_length_b   5.83444646
_cell_length_c   7.36551900
_cell_angle_alpha   90.00000000
_cell_angle_beta   90.00000000
_cell_angle_gamma   139.53115806
_symmetry_Int_Tables_number   1
_chemical_formula_structural   NdRe2SiC
_chemical_formula_sum   'Nd2 Re4 Si2 C2'
_cell_volume   162.73104414
_cell_formula_units_Z   2
loop_
 _symmetry_equiv_pos_site_id
 _symmetry_equiv_pos_as_xyz
  1  'x, y, z'
loop_
 _atom_site_type_symbol
 _atom_site_label
 _atom_site_symmetry_multiplicity
 _atom_site_fract_x
 _atom_site_fract_y
 _atom_site_fract_z
 _atom_site_occupancy
  Nd  Nd0  1  0.54371400  0.45628600  0.25000000  1
  Nd  Nd1  1  0.45628600  0.54371400  0.75000000  1
  Re  Re0  1  0.82520200  0.17479800  0.06143700  1
  Re  Re1  1  0.17479800  0.82520200  0.93856300  1
  Re  Re2  1  0.17479800  0.82520200  0.56143700  1
  Re  Re3  1  0.82520200  0.17479800  0.43856300  1
  Si  Si0  1  0.26633100  0.73366900  0.25000000  1
  Si  Si1  1  0.73366900  0.26633100  0.75000000  1
  C  C0  1  0.00000000  0.00000000  0.00000000  1
  C  C1  1  0.00000000  0.00000000  0.50000000  1
loop_
_geom_bond_atom_site_label_1
_geom_bond_atom_site_label_2
_geom_bond_distance
_geom_bond_site_symmetry_2
Nd0 Si0 3.036998 1_555
Nd0 Si0 3.164299 1_545
Nd0 Si0 3.164299 1_655
Nd1 Si1 3.036998 1_555
Nd1 Si1 3.164299 1_455
Nd1 Si1 3.164299 1_565
Re0 Si1 2.503259 1_554
Re0 Si0 2.533057 1_545
Re0 Si0 2.533057 1_655
Re1 Si0 2.503259 1_556
Re1 Si1 2.533057 1_455
Re1 Si1 2.533057 1_565
Re2 Si0 2.503259 1_555
Re2 Si1 2.533057 1_455
Re2 Si1 2.533057 1_565
Re3 Si1 2.503259 1_555
Re3 Si0 2.533057 1_545
Re3 Si0 2.533057 1_655
C0 Re0 1.966590 1_455
C0 Re1 1.966590 1_544
C0 Nd1 2.773396 1_554
C0 Nd0 2.773396 1_555
C0 Nd0 2.773396 1_445
C0 Nd1 2.773396 1_444
C1 Re3 1.966590 1_455
C1 Re2 1.966590 1_545
C1 Nd0 2.773396 1_555
C1 Nd1 2.773396 1_555
C1 Nd0 2.773396 1_445
C1 Nd1 2.773396 1_445
