# generated using pymatgen
data_La2MoO6
_symmetry_space_group_name_H-M   'P 1'
_cell_length_a   5.56653762
_cell_length_b   5.56653762
_cell_length_c   5.56653769
_cell_angle_alpha   64.21556641
_cell_angle_beta   64.21556641
_cell_angle_gamma   64.21557304
_symmetry_Int_Tables_number   1
_chemical_formula_structural   La2MoO6
_chemical_formula_sum   'La2 Mo1 O6'
_cell_volume   133.26986971
_cell_formula_units_Z   1
loop_
 _symmetry_equiv_pos_site_id
 _symmetry_equiv_pos_as_xyz
  1  'x, y, z'
loop_
 _atom_site_type_symbol
 _atom_site_label
 _atom_site_symmetry_multiplicity
 _atom_site_fract_x
 _atom_site_fract_y
 _atom_site_fract_z
 _atom_site_occupancy
  La  La0  1  0.74616400  0.74616400  0.74616400  1
  La  La1  1  0.25383600  0.25383600  0.25383600  1
  Mo  Mo0  1  0.00000000  0.00000000  0.00000000  1
  O  O0  1  0.79788700  0.33023800  0.12309200  1
  O  O1  1  0.12309200  0.79788700  0.33023800  1
  O  O2  1  0.33023800  0.12309200  0.79788700  1
  O  O3  1  0.20211300  0.66976200  0.87690800  1
  O  O4  1  0.66976200  0.87690800  0.20211300  1
  O  O5  1  0.87690800  0.20211300  0.66976200  1
loop_
_geom_bond_atom_site_label_1
_geom_bond_atom_site_label_2
_geom_bond_distance
_geom_bond_site_symmetry_2
La0 O1 2.359059 1_655
La0 O0 2.359059 1_556
La0 O2 2.359059 1_565
La0 O5 2.747897 1_565
La0 O4 2.747897 1_556
La0 O3 2.747897 1_655
La0 O3 2.969172 1_555
La0 O4 2.969172 1_555
La0 O5 2.969172 1_555
La1 O5 2.359059 1_455
La1 O3 2.359059 1_554
La1 O4 2.359059 1_545
La1 O1 2.747897 1_545
La1 O2 2.747897 1_554
La1 O0 2.747897 1_455
La1 O0 2.969172 1_555
La1 O2 2.969172 1_555
La1 O1 2.969172 1_555
Mo0 O2 1.934019 1_554
Mo0 O4 1.934019 1_445
Mo0 O1 1.934019 1_545
Mo0 O5 1.934019 1_454
Mo0 O0 1.934019 1_455
Mo0 O3 1.934019 1_544
