# generated using pymatgen
data_CeZn2
_symmetry_space_group_name_H-M   'P 1'
_cell_length_a   5.73569417
_cell_length_b   5.76178474
_cell_length_c   5.77398678
_cell_angle_alpha   133.07634486
_cell_angle_beta   100.90530411
_cell_angle_gamma   97.11056182
_symmetry_Int_Tables_number   1
_chemical_formula_structural   CeZn2
_chemical_formula_sum   'Ce2 Zn4'
_cell_volume   128.06796637
_cell_formula_units_Z   2
loop_
 _symmetry_equiv_pos_site_id
 _symmetry_equiv_pos_as_xyz
  1  'x, y, z'
loop_
 _atom_site_type_symbol
 _atom_site_label
 _atom_site_symmetry_multiplicity
 _atom_site_fract_x
 _atom_site_fract_y
 _atom_site_fract_z
 _atom_site_occupancy
  Ce  Ce0  1  0.28304825  0.53361269  0.74949580  1
  Ce  Ce1  1  0.71691867  0.46638053  0.25054285  1
  Zn  Zn0  1  0.10938863  0.16441976  0.94308181  1
  Zn  Zn1  1  0.89068328  0.83558444  0.05694837  1
  Zn  Zn2  1  0.28085664  0.83564973  0.44636753  1
  Zn  Zn3  1  0.71910453  0.16435285  0.55356363  1
loop_
_geom_bond_atom_site_label_1
_geom_bond_atom_site_label_2
_geom_bond_distance
_geom_bond_site_symmetry_2
Ce0 Zn1 3.083079 1_456
Ce0 Zn2 3.098521 1_545
Ce0 Zn1 3.101069 1_445
Ce0 Zn2 3.111074 1_556
Ce0 Zn3 3.145327 1_455
Ce0 Zn0 3.148188 1_555
Ce0 Zn2 3.201526 1_555
Ce0 Zn1 3.203764 1_556
Ce0 Zn3 3.340982 1_555
Ce0 Zn0 3.349613 1_565
Ce0 Zn3 3.365512 1_566
Ce0 Zn0 3.374732 1_554
Ce1 Zn0 3.083626 1_654
Ce1 Zn3 3.098778 1_565
Ce1 Zn0 3.101270 1_665
Ce1 Zn3 3.111647 1_554
Ce1 Zn2 3.145499 1_655
Ce1 Zn1 3.148467 1_555
Ce1 Zn3 3.200908 1_555
Ce1 Zn0 3.203209 1_554
Ce1 Zn2 3.341010 1_555
Ce1 Zn1 3.349837 1_545
Ce1 Zn2 3.365833 1_544
Ce1 Zn1 3.374640 1_556
Zn0 Zn2 2.624619 1_545
Zn0 Zn2 2.644755 1_556
Zn0 Zn1 2.649687 1_446
Zn0 Zn3 2.857107 1_455
Zn1 Zn3 2.624662 1_565
Zn1 Zn3 2.644767 1_554
Zn1 Zn2 2.856344 1_655
Zn2 Zn3 2.630590 1_565
