# generated using pymatgen
data_Sr4ZrTi3O12
_symmetry_space_group_name_H-M   'P 1'
_cell_length_a   4.02813100
_cell_length_b   4.02813100
_cell_length_c   15.99857600
_cell_angle_alpha   90.00000000
_cell_angle_beta   90.00000000
_cell_angle_gamma   90.00000000
_symmetry_Int_Tables_number   1
_chemical_formula_structural   Sr4ZrTi3O12
_chemical_formula_sum   'Sr4 Zr1 Ti3 O12'
_cell_volume   259.59032406
_cell_formula_units_Z   1
loop_
 _symmetry_equiv_pos_site_id
 _symmetry_equiv_pos_as_xyz
  1  'x, y, z'
loop_
 _atom_site_type_symbol
 _atom_site_label
 _atom_site_symmetry_multiplicity
 _atom_site_fract_x
 _atom_site_fract_y
 _atom_site_fract_z
 _atom_site_occupancy
  Sr  Sr0  1  0.50000000  0.50000000  0.86355600  1
  Sr  Sr1  1  0.50000000  0.50000000  0.62198300  1
  Sr  Sr2  1  0.50000000  0.50000000  0.37801700  1
  Sr  Sr3  1  0.50000000  0.50000000  0.13644400  1
  Zr  Zr0  1  0.00000000  0.00000000  0.00000000  1
  Ti  Ti0  1  0.00000000  0.00000000  0.74535900  1
  Ti  Ti1  1  0.00000000  0.00000000  0.50000000  1
  Ti  Ti2  1  0.00000000  0.00000000  0.25464100  1
  O  O0  1  0.50000000  0.00000000  0.00000000  1
  O  O1  1  0.50000000  0.00000000  0.74522500  1
  O  O2  1  0.50000000  0.00000000  0.50000000  1
  O  O3  1  0.50000000  0.00000000  0.25477500  1
  O  O4  1  0.00000000  0.50000000  0.74522500  1
  O  O5  1  0.00000000  0.50000000  0.50000000  1
  O  O6  1  0.00000000  0.50000000  0.25477500  1
  O  O7  1  0.00000000  0.50000000  0.00000000  1
  O  O8  1  0.00000000  0.00000000  0.86566800  1
  O  O9  1  0.00000000  0.00000000  0.62227400  1
  O  O10  1  0.00000000  0.00000000  0.37772600  1
  O  O11  1  0.00000000  0.00000000  0.13433200  1
loop_
_geom_bond_atom_site_label_1
_geom_bond_atom_site_label_2
_geom_bond_distance
_geom_bond_site_symmetry_2
O0 Zr0 2.014066 1_655
O0 Zr0 2.014066 1_555
O0 Sr3 2.970110 1_545
O0 Sr3 2.970110 1_555
O0 Sr0 2.970110 1_544
O0 Sr0 2.970110 1_554
O1 Ti0 2.014067 1_555
O1 Ti0 2.014067 1_655
O1 Sr0 2.764126 1_545
O1 Sr0 2.764126 1_555
O1 Sr1 2.818519 1_555
O1 Sr1 2.818519 1_545
O2 Ti1 2.014066 1_555
O2 Ti1 2.014066 1_655
O2 Sr1 2.804465 1_545
O2 Sr1 2.804465 1_555
O2 Sr2 2.804465 1_545
O2 Sr2 2.804465 1_555
O3 Ti2 2.014067 1_555
O3 Ti2 2.014067 1_655
O3 Sr3 2.764126 1_545
O3 Sr3 2.764126 1_555
O3 Sr2 2.818519 1_545
O3 Sr2 2.818519 1_555
O4 Ti0 2.014067 1_555
O4 Ti0 2.014067 1_565
O4 Sr0 2.764126 1_555
O4 Sr0 2.764126 1_455
O4 Sr1 2.818519 1_455
O4 Sr1 2.818519 1_555
O5 Ti1 2.014066 1_555
O5 Ti1 2.014066 1_565
O5 Sr1 2.804465 1_455
O5 Sr1 2.804465 1_555
O5 Sr2 2.804465 1_555
O5 Sr2 2.804465 1_455
O6 Ti2 2.014067 1_555
O6 Ti2 2.014067 1_565
O6 Sr3 2.764126 1_455
O6 Sr3 2.764126 1_555
O6 Sr2 2.818519 1_455
O6 Sr2 2.818519 1_555
O7 Zr0 2.014066 1_565
O7 Zr0 2.014066 1_555
O7 Sr3 2.970110 1_455
O7 Sr3 2.970110 1_555
O7 Sr0 2.970110 1_454
O7 Sr0 2.970110 1_554
O8 Ti0 1.924773 1_555
O8 Zr0 2.149121 1_556
O8 Sr0 2.848519 1_545
O8 Sr0 2.848519 1_455
O8 Sr0 2.848519 1_555
O8 Sr0 2.848519 1_445
O9 Ti1 1.956210 1_555
O9 Ti0 1.969185 1_555
O9 Sr1 2.848323 1_455
O9 Sr1 2.848323 1_555
O9 Sr1 2.848323 1_445
O9 Sr1 2.848323 1_545
O10 Ti1 1.956210 1_555
O10 Ti2 1.969185 1_555
O10 Sr2 2.848323 1_445
O10 Sr2 2.848323 1_455
O10 Sr2 2.848323 1_555
O10 Sr2 2.848323 1_545
O11 Ti2 1.924773 1_555
O11 Zr0 2.149121 1_555
O11 Sr3 2.848519 1_555
O11 Sr3 2.848519 1_455
O11 Sr3 2.848519 1_545
O11 Sr3 2.848519 1_445
