# generated using pymatgen
data_Pr2Mn17C2
_symmetry_space_group_name_H-M   'P 1'
_cell_length_a   6.50467110
_cell_length_b   6.48205970
_cell_length_c   6.50467110
_cell_angle_alpha   83.62653832
_cell_angle_beta   84.31488199
_cell_angle_gamma   83.62653832
_symmetry_Int_Tables_number   1
_chemical_formula_structural   Pr2Mn17C2
_chemical_formula_sum   'Pr2 Mn17 C2'
_cell_volume   269.83448875
_cell_formula_units_Z   1
loop_
 _symmetry_equiv_pos_site_id
 _symmetry_equiv_pos_as_xyz
  1  'x, y, z'
loop_
 _atom_site_type_symbol
 _atom_site_label
 _atom_site_symmetry_multiplicity
 _atom_site_fract_x
 _atom_site_fract_y
 _atom_site_fract_z
 _atom_site_occupancy
  Pr  Pr0  1  0.64128900  0.65883600  0.64128900  1
  Pr  Pr1  1  0.35871100  0.34116400  0.35871100  1
  Mn  Mn0  1  0.73406000  0.00000000  0.26594000  1
  Mn  Mn1  1  0.99236700  0.28058000  0.71840300  1
  Mn  Mn2  1  0.28159700  0.71942000  0.00763300  1
  Mn  Mn3  1  0.00763300  0.71942000  0.28159700  1
  Mn  Mn4  1  0.71840300  0.28058000  0.99236700  1
  Mn  Mn5  1  0.26594000  0.00000000  0.73406000  1
  Mn  Mn6  1  0.00000000  0.50000000  0.00000000  1
  Mn  Mn7  1  0.50000000  0.00000000  0.00000000  1
  Mn  Mn8  1  0.00000000  0.00000000  0.50000000  1
  Mn  Mn9  1  0.33504700  0.33613200  0.86932700  1
  Mn  Mn10  1  0.34263300  0.87179900  0.34263300  1
  Mn  Mn11  1  0.86932700  0.33613200  0.33504700  1
  Mn  Mn12  1  0.66495300  0.66386800  0.13067300  1
  Mn  Mn13  1  0.65736700  0.12820100  0.65736700  1
  Mn  Mn14  1  0.13067300  0.66386800  0.66495300  1
  Mn  Mn15  1  0.90595000  0.90598600  0.90595000  1
  Mn  Mn16  1  0.09405000  0.09401400  0.09405000  1
  C  C0  1  0.00000000  0.50000000  0.50000000  1
  C  C1  1  0.50000000  0.50000000  0.00000000  1
loop_
_geom_bond_atom_site_label_1
_geom_bond_atom_site_label_2
_geom_bond_distance
_geom_bond_site_symmetry_2
Mn0 Mn4 2.400216 1_554
Mn0 Mn3 2.400216 1_645
Mn0 Mn8 2.414981 1_655
Mn0 Mn7 2.414981 1_555
Mn0 Mn12 2.538692 1_545
Mn0 Mn11 2.538692 1_555
Mn0 Mn16 2.598363 1_655
Mn0 Mn15 2.598363 1_544
Mn0 Mn10 2.747389 1_545
Mn0 Mn13 2.747389 1_555
Mn0 Pr0 3.165645 1_545
Mn0 Pr1 3.165645 1_555
Mn1 Mn5 2.400216 1_655
Mn1 Mn8 2.422417 1_655
Mn1 Mn6 2.447977 1_656
Mn1 Mn13 2.572523 1_555
Mn1 Mn15 2.685068 1_545
Mn1 Mn16 2.712381 1_656
Mn2 Mn5 2.400216 1_564
Mn2 Mn7 2.422417 1_565
Mn2 Mn6 2.447977 1_555
Mn3 Mn8 2.422417 1_565
Mn3 Mn6 2.447977 1_555
Mn4 Mn7 2.422417 1_556
Mn4 Mn6 2.447977 1_656
Mn5 Mn7 2.414981 1_556
Mn5 Mn8 2.414981 1_555
Mn5 Mn9 2.538692 1_555
Mn5 Pr1 3.165645 1_555
Mn5 Pr0 3.165645 1_545
Mn6 Mn9 2.433082 1_554
Mn7 Mn9 2.423119 1_554
Mn7 Pr0 3.383625 1_544
Mn7 Pr1 3.383625 1_555
Mn8 Pr0 3.383625 1_445
Mn8 Pr1 3.383625 1_555
Mn10 Mn8 2.455853 1_565
Mn10 Mn7 2.455853 1_565
Mn10 Mn2 2.572523 1_555
Mn10 Mn3 2.572523 1_555
Mn10 Mn16 2.605312 1_565
Mn10 Mn12 2.706599 1_555
Mn10 Mn14 2.706599 1_555
Mn10 Mn5 2.747389 1_565
Mn10 Pr0 3.001730 1_555
Mn10 Pr1 3.069502 1_565
Mn10 Pr1 3.419827 1_555
Mn11 Mn8 2.423119 1_655
Mn11 Mn6 2.433082 1_655
Mn11 Mn16 2.576837 1_655
Mn11 Mn13 2.706599 1_555
Mn12 Mn7 2.423119 1_565
Mn12 Mn6 2.433082 1_655
Mn12 Mn15 2.576837 1_554
Mn13 Mn8 2.455853 1_655
Mn13 Mn7 2.455853 1_556
Mn13 Mn4 2.572523 1_555
Mn13 Mn15 2.605312 1_545
Mn13 Mn9 2.706599 1_555
Mn13 Mn5 2.747389 1_555
Mn13 Pr1 3.001730 1_555
Mn13 Pr0 3.069502 1_545
Mn13 Pr0 3.419827 1_555
Mn14 Mn8 2.423119 1_565
Mn14 Mn6 2.433082 1_556
Mn14 Mn5 2.538692 1_565
Mn14 Mn15 2.576837 1_455
Mn15 Mn16 2.332016 1_666
Mn15 Mn5 2.598363 1_665
Mn15 Mn6 2.652027 1_656
Mn15 Mn8 2.669027 1_665
Mn15 Mn7 2.669027 1_566
Mn15 Mn4 2.685068 1_565
Mn15 Mn2 2.712381 1_656
Mn15 Mn3 2.712381 1_656
Mn15 Pr0 3.210247 1_555
Mn16 Mn9 2.576837 1_554
Mn16 Mn5 2.598363 1_554
Mn16 Mn6 2.652027 1_555
Mn16 Mn8 2.669027 1_555
Mn16 Mn7 2.669027 1_555
Mn16 Mn2 2.685068 1_545
Mn16 Mn3 2.685068 1_545
Mn16 Mn4 2.712381 1_454
Mn16 Pr1 3.210247 1_555
C0 Mn3 1.896498 1_555
C0 Mn1 1.896498 1_455
C0 Mn14 1.906875 1_555
C0 Mn11 1.906875 1_455
C0 Pr1 2.569206 1_555
C0 Pr0 2.569206 1_455
C1 Mn2 1.896498 1_555
C1 Mn4 1.896498 1_554
C1 Mn12 1.906875 1_555
C1 Mn9 1.906875 1_554
C1 Pr1 2.569206 1_555
C1 Pr0 2.569206 1_554
