# generated using pymatgen
data_Li
_symmetry_space_group_name_H-M   'P 1'
_cell_length_a   5.77768600
_cell_length_b   9.89766424
_cell_length_c   9.89780252
_cell_angle_alpha   120.00045040
_cell_angle_beta   90.00000000
_cell_angle_gamma   90.00000000
_symmetry_Int_Tables_number   1
_chemical_formula_structural   Li
_chemical_formula_sum   Li24
_cell_volume   490.17831881
_cell_formula_units_Z   24
loop_
 _symmetry_equiv_pos_site_id
 _symmetry_equiv_pos_as_xyz
  1  'x, y, z'
loop_
 _atom_site_type_symbol
 _atom_site_label
 _atom_site_symmetry_multiplicity
 _atom_site_fract_x
 _atom_site_fract_y
 _atom_site_fract_z
 _atom_site_occupancy
  Li  Li0_0  1  0.00000000  0.00000000  0.00000000  1
  Li  Li0_1  1  0.00000000  0.00000000  0.50000000  1
  Li  Li0_2  1  0.00000000  0.50000000  0.00000000  1
  Li  Li0_3  1  0.00000000  0.50000000  0.50000000  1
  Li  Li0_4  1  0.50000000  0.00000000  0.00000000  1
  Li  Li0_5  1  0.50000000  0.00000000  0.50000000  1
  Li  Li0_6  1  0.50000000  0.50000000  0.00000000  1
  Li  Li0_7  1  0.50000000  0.50000000  0.50000000  1
  Li  Li1_0  1  0.25000000  0.16662100  0.33331000  1
  Li  Li1_1  1  0.25000000  0.16662100  0.83331000  1
  Li  Li1_2  1  0.25000000  0.66662100  0.33331000  1
  Li  Li1_3  1  0.25000000  0.66662100  0.83331000  1
  Li  Li1_4  1  0.75000000  0.16662100  0.33331000  1
  Li  Li1_5  1  0.75000000  0.16662100  0.83331000  1
  Li  Li1_6  1  0.75000000  0.66662100  0.33331000  1
  Li  Li1_7  1  0.75000000  0.66662100  0.83331000  1
  Li  Li2_0  1  0.25000000  0.33337900  0.16669000  1
  Li  Li2_1  1  0.25000000  0.33337900  0.66669000  1
  Li  Li2_2  1  0.25000000  0.83337900  0.16669000  1
  Li  Li2_3  1  0.25000000  0.83337900  0.66669000  1
  Li  Li2_4  1  0.75000000  0.33337900  0.16669000  1
  Li  Li2_5  1  0.75000000  0.33337900  0.66669000  1
  Li  Li2_6  1  0.75000000  0.83337900  0.16669000  1
  Li  Li2_7  1  0.75000000  0.83337900  0.66669000  1
loop_
_geom_bond_atom_site_label_1
_geom_bond_atom_site_label_2
_geom_bond_distance
_geom_bond_site_symmetry_2
Li0_0 Li0_4 2.888843 1_455
Li0_0 Li0_4 2.888843 1_555
Li0_0 Li1_0 3.201408 1_555
Li0_0 Li1_4 3.201408 1_455
Li0_0 Li2_3 3.201408 1_544
Li0_0 Li2_7 3.201408 1_444
Li0_0 Li2_6 3.201415 1_445
Li0_0 Li2_2 3.201415 1_545
Li0_0 Li1_1 3.201415 1_554
Li0_0 Li1_5 3.201415 1_454
Li0_0 Li2_4 3.201900 1_455
Li0_0 Li2_0 3.201900 1_555
Li0_0 Li1_3 3.201900 1_544
Li0_0 Li1_7 3.201900 1_444
Li0_1 Li0_5 2.888843 1_555
Li0_1 Li0_5 2.888843 1_455
Li0_1 Li1_1 3.201408 1_555
Li0_1 Li1_5 3.201408 1_455
Li0_1 Li2_2 3.201408 1_545
Li0_1 Li2_6 3.201408 1_445
Li0_1 Li2_7 3.201415 1_445
Li0_1 Li2_3 3.201415 1_545
Li0_1 Li1_4 3.201415 1_455
Li0_1 Li1_0 3.201415 1_555
Li0_1 Li1_2 3.201900 1_545
Li0_1 Li1_6 3.201900 1_445
Li0_1 Li2_1 3.201900 1_555
Li0_1 Li2_5 3.201900 1_455
Li0_2 Li0_6 2.888843 1_455
Li0_2 Li0_6 2.888843 1_555
Li0_2 Li1_2 3.201408 1_555
Li0_2 Li1_6 3.201408 1_455
Li0_2 Li2_5 3.201408 1_454
Li0_2 Li2_1 3.201408 1_554
Li0_2 Li1_7 3.201415 1_454
Li0_2 Li1_3 3.201415 1_554
Li0_2 Li2_0 3.201415 1_555
Li0_2 Li2_4 3.201415 1_455
Li0_2 Li2_6 3.201900 1_455
Li0_2 Li2_2 3.201900 1_555
Li0_2 Li1_1 3.201900 1_554
Li0_2 Li1_5 3.201900 1_454
Li0_3 Li0_7 2.888843 1_455
Li0_3 Li0_7 2.888843 1_555
Li0_3 Li1_7 3.201408 1_455
Li0_3 Li1_3 3.201408 1_555
Li0_3 Li2_4 3.201408 1_455
Li0_3 Li2_0 3.201408 1_555
Li0_3 Li2_1 3.201415 1_555
Li0_3 Li2_5 3.201415 1_455
Li0_3 Li1_2 3.201415 1_555
Li0_3 Li1_6 3.201415 1_455
Li0_3 Li2_7 3.201900 1_455
Li0_3 Li2_3 3.201900 1_555
Li0_3 Li1_4 3.201900 1_455
Li0_3 Li1_0 3.201900 1_555
Li0_4 Li1_0 3.201408 1_555
Li0_4 Li1_4 3.201408 1_555
Li0_4 Li2_3 3.201408 1_544
Li0_4 Li2_7 3.201408 1_544
Li0_4 Li2_2 3.201415 1_545
Li0_4 Li2_6 3.201415 1_545
Li0_4 Li1_1 3.201415 1_554
Li0_4 Li1_5 3.201415 1_554
Li0_4 Li2_4 3.201900 1_555
Li0_4 Li2_0 3.201900 1_555
Li0_4 Li1_3 3.201900 1_544
Li0_4 Li1_7 3.201900 1_544
Li0_5 Li1_1 3.201408 1_555
Li0_5 Li1_5 3.201408 1_555
Li0_5 Li2_2 3.201408 1_545
Li0_5 Li2_6 3.201408 1_545
Li0_5 Li2_7 3.201415 1_545
Li0_5 Li2_3 3.201415 1_545
Li0_5 Li1_4 3.201415 1_555
Li0_5 Li1_0 3.201415 1_555
Li0_5 Li1_2 3.201900 1_545
Li0_5 Li1_6 3.201900 1_545
Li0_5 Li2_1 3.201900 1_555
Li0_5 Li2_5 3.201900 1_555
Li0_6 Li1_2 3.201408 1_555
Li0_6 Li1_6 3.201408 1_555
Li0_6 Li2_5 3.201408 1_554
Li0_6 Li2_1 3.201408 1_554
Li0_6 Li2_0 3.201415 1_555
Li0_6 Li1_3 3.201415 1_554
Li0_6 Li1_7 3.201415 1_554
Li0_6 Li2_4 3.201415 1_555
Li0_6 Li2_2 3.201900 1_555
Li0_6 Li2_6 3.201900 1_555
Li0_6 Li1_1 3.201900 1_554
Li0_6 Li1_5 3.201900 1_554
Li0_7 Li1_3 3.201408 1_555
Li0_7 Li1_7 3.201408 1_555
Li0_7 Li2_4 3.201408 1_555
Li0_7 Li2_0 3.201408 1_555
Li0_7 Li2_1 3.201415 1_555
Li0_7 Li2_5 3.201415 1_555
Li0_7 Li1_2 3.201415 1_555
Li0_7 Li1_6 3.201415 1_555
Li0_7 Li2_3 3.201900 1_555
Li0_7 Li2_7 3.201900 1_555
Li0_7 Li1_4 3.201900 1_555
Li0_7 Li1_0 3.201900 1_555
Li1_0 Li2_2 2.856414 1_545
Li1_0 Li2_0 2.857619 1_555
Li1_0 Li2_1 2.857637 1_555
Li1_0 Li1_4 2.888843 1_555
Li1_0 Li1_4 2.888843 1_455
Li1_1 Li2_3 2.856414 1_545
Li1_1 Li2_1 2.857619 1_555
Li1_1 Li2_0 2.857637 1_556
Li1_1 Li1_5 2.888843 1_455
Li1_1 Li1_5 2.888843 1_555
Li1_2 Li2_0 2.856414 1_555
Li1_2 Li2_2 2.857619 1_555
Li1_2 Li2_3 2.857637 1_555
Li1_2 Li1_6 2.888843 1_555
Li1_2 Li1_6 2.888843 1_455
Li1_3 Li2_1 2.856414 1_555
Li1_3 Li2_3 2.857619 1_555
Li1_3 Li2_2 2.857637 1_556
Li1_3 Li1_7 2.888843 1_455
Li1_3 Li1_7 2.888843 1_555
Li1_4 Li2_6 2.856414 1_545
Li1_4 Li2_4 2.857619 1_555
Li1_4 Li2_5 2.857637 1_555
Li1_5 Li2_7 2.856414 1_545
Li1_5 Li2_5 2.857619 1_555
Li1_5 Li2_4 2.857637 1_556
Li1_6 Li2_4 2.856414 1_555
Li1_6 Li2_6 2.857619 1_555
Li1_6 Li2_7 2.857637 1_555
Li1_7 Li2_5 2.856414 1_555
Li1_7 Li2_7 2.857619 1_555
Li1_7 Li2_6 2.857637 1_556
Li2_0 Li2_4 2.888843 1_555
Li2_0 Li2_4 2.888843 1_455
Li2_1 Li2_5 2.888843 1_455
Li2_1 Li2_5 2.888843 1_555
Li2_2 Li2_6 2.888843 1_455
Li2_2 Li2_6 2.888843 1_555
Li2_3 Li2_7 2.888843 1_455
Li2_3 Li2_7 2.888843 1_555
