# generated using pymatgen
data_Sr10Ti(RuO5)4
_symmetry_space_group_name_H-M   'P 1'
_cell_length_a   3.91550606
_cell_length_b   3.91550606
_cell_length_c   32.25025005
_cell_angle_alpha   86.51971807
_cell_angle_beta   86.51971807
_cell_angle_gamma   90.00000000
_symmetry_Int_Tables_number   1
_chemical_formula_structural   Sr10Ti(RuO5)4
_chemical_formula_sum   'Sr10 Ti1 Ru4 O20'
_cell_volume   492.60922584
_cell_formula_units_Z   1
loop_
 _symmetry_equiv_pos_site_id
 _symmetry_equiv_pos_as_xyz
  1  'x, y, z'
loop_
 _atom_site_type_symbol
 _atom_site_label
 _atom_site_symmetry_multiplicity
 _atom_site_fract_x
 _atom_site_fract_y
 _atom_site_fract_z
 _atom_site_occupancy
  Sr  Sr0  1  0.47096781  0.47096781  0.05806438  1
  Sr  Sr1  1  0.87055131  0.87055131  0.25889737  1
  Sr  Sr2  1  0.27053761  0.27053761  0.45892477  1
  Sr  Sr3  1  0.67053659  0.67053659  0.65892683  1
  Sr  Sr4  1  0.07041407  0.07041407  0.85917185  1
  Sr  Sr5  1  0.92958593  0.92958593  0.14082815  1
  Sr  Sr6  1  0.32946341  0.32946341  0.34107317  1
  Sr  Sr7  1  0.72946239  0.72946239  0.54107523  1
  Sr  Sr8  1  0.12944869  0.12944869  0.74110263  1
  Sr  Sr9  1  0.52903219  0.52903219  0.94193562  1
  Ti  Ti0  1  0.00000000  0.00000000  -0.00000000  1
  Ru  Ru0  1  0.40002032  0.40002032  0.19995936  1
  Ru  Ru1  1  0.80000585  0.80000585  0.39998831  1
  Ru  Ru2  1  0.19999415  0.19999415  0.60001169  1
  Ru  Ru3  1  0.59997968  0.59997968  0.80004064  1
  O  O0  1  0.43265064  0.43265064  0.13469872  1
  O  O1  1  0.83260798  0.83260798  0.33478403  1
  O  O2  1  0.23261085  0.23261085  0.53477830  1
  O  O3  1  0.63260892  0.63260892  0.73478216  1
  O  O4  1  0.03148204  0.03148204  0.93703592  1
  O  O5  1  0.96851796  0.96851796  0.06296408  1
  O  O6  1  0.36739108  0.36739108  0.26521784  1
  O  O7  1  0.76738915  0.76738915  0.46522170  1
  O  O8  1  0.16739202  0.16739202  0.66521597  1
  O  O9  1  0.56734936  0.56734936  0.86530128  1
  O  O10  1  0.00000000  0.50000000  -0.00000000  1
  O  O11  1  0.40002366  0.90002366  0.19995269  1
  O  O12  1  0.79999668  0.29999668  0.40000665  1
  O  O13  1  0.20000332  0.70000332  0.59999335  1
  O  O14  1  0.59997634  0.09997634  0.80004731  1
  O  O15  1  0.50000000  0.00000000  -0.00000000  1
  O  O16  1  0.90002366  0.40002366  0.19995269  1
  O  O17  1  0.29999668  0.79999668  0.40000665  1
  O  O18  1  0.70000332  0.20000332  0.59999335  1
  O  O19  1  0.09997634  0.59997634  0.80004731  1
loop_
_geom_bond_atom_site_label_1
_geom_bond_atom_site_label_2
_geom_bond_distance
_geom_bond_site_symmetry_2
O0 Ru0 2.096902 1_555
O0 Sr0 2.462352 1_555
O0 Sr5 2.775677 1_445
O0 Sr5 2.775677 1_455
O0 Sr5 2.775677 1_545
O0 Sr5 2.775677 1_555
O1 Ru1 2.095091 1_555
O1 Sr1 2.438328 1_555
O1 Sr6 2.776046 1_665
O1 Sr6 2.776046 1_565
O1 Sr6 2.776046 1_655
O1 Sr6 2.776046 1_555
O2 Ru2 2.096026 1_555
O2 Sr2 2.437264 1_555
O2 Sr7 2.776064 1_445
O2 Sr7 2.776064 1_455
O2 Sr7 2.776064 1_545
O2 Sr7 2.776064 1_555
O3 Ru3 2.096832 1_555
O3 Sr3 2.437322 1_555
O3 Sr8 2.776119 1_555
O3 Sr8 2.776119 1_565
O3 Sr8 2.776119 1_655
O3 Sr8 2.776119 1_665
O4 Ti0 2.023110 1_556
O4 Sr4 2.501865 1_555
O4 Sr9 2.773153 1_555
O4 Sr9 2.773153 1_545
O4 Sr9 2.773153 1_455
O4 Sr9 2.773153 1_445
O5 Ti0 2.023110 1_665
O5 Sr5 2.501865 1_555
O5 Sr0 2.773153 1_555
O5 Sr0 2.773153 1_565
O5 Sr0 2.773153 1_655
O5 Sr0 2.773153 1_665
O6 Ru0 2.096832 1_555
O6 Sr6 2.437322 1_555
O6 Sr1 2.776119 1_555
O6 Sr1 2.776119 1_455
O6 Sr1 2.776119 1_545
O6 Sr1 2.776119 1_445
O7 Ru1 2.096026 1_555
O7 Sr7 2.437264 1_555
O7 Sr2 2.776064 1_665
O7 Sr2 2.776064 1_655
O7 Sr2 2.776064 1_565
O7 Sr2 2.776064 1_555
O8 Ru2 2.095091 1_555
O8 Sr8 2.438328 1_555
O8 Sr3 2.776046 1_445
O8 Sr3 2.776046 1_545
O8 Sr3 2.776046 1_455
O8 Sr3 2.776046 1_555
O9 Ru3 2.096902 1_555
O9 Sr9 2.462352 1_555
O9 Sr4 2.775677 1_665
O9 Sr4 2.775677 1_655
O9 Sr4 2.775677 1_565
O9 Sr4 2.775677 1_555
O10 Ti0 1.957753 1_565
O10 Ti0 1.957753 1_555
O10 Sr0 2.704357 1_555
O10 Sr9 2.704357 1_454
O10 Sr0 2.704357 1_455
O10 Sr9 2.704357 1_554
O11 Ru0 1.957753 1_565
O11 Ru0 1.957753 1_555
O11 Sr1 2.723948 1_555
O11 Sr1 2.723948 1_455
O11 Sr5 2.727969 1_455
O11 Sr5 2.727969 1_555
O12 Ru1 1.957753 1_545
O12 Ru1 1.957753 1_555
O12 Sr2 2.723354 1_655
O12 Sr2 2.723354 1_555
O12 Sr6 2.723697 1_655
O12 Sr6 2.723697 1_555
O13 Ru2 1.957753 1_565
O13 Ru2 1.957753 1_555
O13 Sr7 2.723354 1_455
O13 Sr7 2.723354 1_555
O13 Sr3 2.723697 1_455
O13 Sr3 2.723697 1_555
O14 Ru3 1.957753 1_545
O14 Ru3 1.957753 1_555
O14 Sr8 2.723948 1_555
O14 Sr8 2.723948 1_655
O14 Sr4 2.727969 1_655
O14 Sr4 2.727969 1_555
O15 Ti0 1.957753 1_655
O15 Ti0 1.957753 1_555
O15 Sr0 2.704357 1_555
O15 Sr9 2.704357 1_544
O15 Sr0 2.704357 1_545
O15 Sr9 2.704357 1_554
O16 Ru0 1.957753 1_655
O16 Ru0 1.957753 1_555
O16 Sr1 2.723948 1_555
O16 Sr1 2.723948 1_545
O16 Sr5 2.727969 1_545
O16 Sr5 2.727969 1_555
O17 Ru1 1.957753 1_455
O17 Ru1 1.957753 1_555
O17 Sr2 2.723354 1_565
O17 Sr2 2.723354 1_555
O17 Sr6 2.723697 1_565
O17 Sr6 2.723697 1_555
O18 Ru2 1.957753 1_655
O18 Ru2 1.957753 1_555
O18 Sr7 2.723354 1_545
O18 Sr7 2.723354 1_555
O18 Sr3 2.723697 1_545
O18 Sr3 2.723697 1_555
O19 Ru3 1.957753 1_455
O19 Ru3 1.957753 1_555
O19 Sr8 2.723948 1_555
O19 Sr8 2.723948 1_565
O19 Sr4 2.727969 1_565
O19 Sr4 2.727969 1_555
