# generated using pymatgen
data_AlZnCrS4
_symmetry_space_group_name_H-M   'P 1'
_cell_length_a   7.12068911
_cell_length_b   7.12068911
_cell_length_c   7.12068911
_cell_angle_alpha   120.02576373
_cell_angle_beta   119.99443553
_cell_angle_gamma   89.98250995
_symmetry_Int_Tables_number   1
_chemical_formula_structural   AlZnCrS4
_chemical_formula_sum   'Al2 Zn2 Cr2 S8'
_cell_volume   255.26114407
_cell_formula_units_Z   2
loop_
 _symmetry_equiv_pos_site_id
 _symmetry_equiv_pos_as_xyz
  1  'x, y, z'
loop_
 _atom_site_type_symbol
 _atom_site_label
 _atom_site_symmetry_multiplicity
 _atom_site_fract_x
 _atom_site_fract_y
 _atom_site_fract_z
 _atom_site_occupancy
  Al  Al0  1  0.50000000  0.00000000  0.00000000  1
  Al  Al1  1  0.50000000  0.50000000  0.50000000  1
  Zn  Zn0  1  0.87554700  0.62554700  0.25000000  1
  Zn  Zn1  1  0.12445300  0.37445300  0.75000000  1
  Cr  Cr0  1  0.50000000  0.00000000  0.50000000  1
  Cr  Cr1  1  0.00000000  0.00000000  0.00000000  1
  S  S0  1  0.73994300  0.76047900  0.52053600  1
  S  S1  1  0.73994300  0.21940700  0.97946400  1
  S  S2  1  0.74053700  0.76023000  0.98030700  1
  S  S3  1  0.27992300  0.76023000  0.51969300  1
  S  S4  1  0.26005700  0.23952100  0.47946400  1
  S  S5  1  0.26005700  0.78059300  0.02053600  1
  S  S6  1  0.25946300  0.23977000  0.01969300  1
  S  S7  1  0.72007700  0.23977000  0.48030700  1
loop_
_geom_bond_atom_site_label_1
_geom_bond_atom_site_label_2
_geom_bond_distance
_geom_bond_site_symmetry_2
Al0 S5 2.421054 1_545
Al0 S1 2.421054 1_554
Al0 S6 2.422196 1_555
Al0 S7 2.422196 1_555
Al0 S3 2.422196 1_544
Al0 S2 2.422196 1_544
Al1 S0 2.421054 1_555
Al1 S4 2.421054 1_555
Al1 S7 2.422196 1_555
Al1 S3 2.422196 1_555
Al1 S2 2.422196 1_555
Al1 S6 2.422196 1_555
Cr0 S0 2.418159 1_545
Cr0 S5 2.418159 1_545
Cr0 S4 2.418159 1_555
Cr0 S1 2.418159 1_555
Cr0 S7 2.418963 1_555
Cr0 S3 2.418963 1_545
Cr1 S1 2.418159 1_454
Cr1 S5 2.418159 1_545
Cr1 S4 2.418159 1_555
Cr1 S0 2.418159 1_444
Cr1 S6 2.418963 1_555
Cr1 S2 2.418963 1_444
S0 Zn0 2.360816 1_555
S1 Zn0 2.360816 1_556
S2 Zn0 2.351301 1_556
S3 Zn0 2.351301 1_455
S4 Zn1 2.360816 1_555
S5 Zn1 2.360816 1_554
S6 Zn1 2.351301 1_554
S7 Zn1 2.351301 1_655
