# generated using pymatgen
data_Ba3Ni3N5
_symmetry_space_group_name_H-M   'P 1'
_cell_length_a   6.28278084
_cell_length_b   7.40609894
_cell_length_c   9.40596296
_cell_angle_alpha   111.98268753
_cell_angle_beta   106.79836328
_cell_angle_gamma   95.55959338
_symmetry_Int_Tables_number   1
_chemical_formula_structural   Ba3Ni3N5
_chemical_formula_sum   'Ba6 Ni6 N10'
_cell_volume   378.02160441
_cell_formula_units_Z   2
loop_
 _symmetry_equiv_pos_site_id
 _symmetry_equiv_pos_as_xyz
  1  'x, y, z'
loop_
 _atom_site_type_symbol
 _atom_site_label
 _atom_site_symmetry_multiplicity
 _atom_site_fract_x
 _atom_site_fract_y
 _atom_site_fract_z
 _atom_site_occupancy
  Ba  Ba0  1  0.78840900  0.37576900  0.58807300  1
  Ba  Ba1  1  0.21159100  0.62423100  0.41192700  1
  Ba  Ba2  1  0.66099200  0.85721000  0.88661400  1
  Ba  Ba3  1  0.33900800  0.14279000  0.11338600  1
  Ba  Ba4  1  0.67225700  0.67915900  0.21550600  1
  Ba  Ba5  1  0.32774300  0.32084100  0.78449400  1
  Ni  Ni0  1  0.92179300  0.32735600  0.98256000  1
  Ni  Ni1  1  0.07820700  0.67264400  0.01744000  1
  Ni  Ni2  1  0.76802000  0.94056900  0.60909900  1
  Ni  Ni3  1  0.23198000  0.05943100  0.39090100  1
  Ni  Ni4  1  0.05319600  0.83978900  0.74872300  1
  Ni  Ni5  1  0.94680400  0.16021100  0.25127700  1
  N  N0  1  0.97128200  0.09047900  0.82569500  1
  N  N1  1  0.02871800  0.90952100  0.17430500  1
  N  N2  1  0.85796000  0.70369200  0.53174500  1
  N  N3  1  0.14204000  0.29630800  0.46825500  1
  N  N4  1  0.77691300  0.50589100  0.90546100  1
  N  N5  1  0.22308700  0.49410900  0.09453900  1
  N  N6  1  0.48205200  0.05151000  0.56735500  1
  N  N7  1  0.51794800  0.94849000  0.43264500  1
  N  N8  1  0.21290300  0.73659500  0.88030000  1
  N  N9  1  0.78709700  0.26340500  0.11970000  1
loop_
_geom_bond_atom_site_label_1
_geom_bond_atom_site_label_2
_geom_bond_distance
_geom_bond_site_symmetry_2
Ba0 N2 2.694700 1_555
Ba0 N3 2.785125 1_655
Ba0 N4 2.798295 1_555
Ba0 N6 2.836743 1_555
Ba0 N7 3.016177 1_545
Ba1 N3 2.694700 1_555
Ba1 N2 2.785125 1_455
Ba1 N5 2.798295 1_555
Ba1 N7 2.836743 1_555
Ba1 N6 3.016177 1_565
Ba2 N0 2.801368 1_565
Ba2 N4 2.823052 1_555
Ba2 N9 2.842674 1_566
Ba2 N8 2.846657 1_555
Ba2 N1 2.870257 1_656
Ba3 N1 2.801368 1_545
Ba3 N5 2.823052 1_555
Ba3 N8 2.842674 1_544
Ba3 N9 2.846657 1_555
Ba3 N0 2.870257 1_454
Ba4 N5 2.713669 1_555
Ba4 N7 2.749425 1_555
Ba4 N2 2.791140 1_555
Ba4 N1 2.886670 1_655
Ba4 N4 3.008965 1_554
Ba4 N9 3.089105 1_555
Ba5 N4 2.713669 1_555
Ba5 N6 2.749425 1_555
Ba5 N3 2.791140 1_555
Ba5 N0 2.886670 1_455
Ba5 N5 3.008965 1_556
Ba5 N8 3.089105 1_555
N0 Ni2 1.882060 1_545
N0 Ni4 1.905334 1_645
N0 Ni0 1.945346 1_555
N1 Ni3 1.882060 1_565
N1 Ni5 1.905334 1_465
N1 Ni1 1.945346 1_555
N2 Ni2 1.844045 1_555
N2 Ni4 1.859886 1_655
N3 Ni3 1.844045 1_555
N3 Ni5 1.859886 1_455
N4 Ni1 1.907524 1_656
N4 Ni0 1.916331 1_555
N5 Ni0 1.907524 1_454
N5 Ni1 1.916331 1_555
N6 N7 1.308905 1_545
N6 Ni3 1.951951 1_555
N6 Ni2 2.043796 1_545
N7 Ni2 1.951951 1_555
N7 Ni3 2.043796 1_565
N8 Ni4 1.805969 1_555
N8 Ni1 1.901345 1_556
N9 Ni5 1.805969 1_555
N9 Ni0 1.901345 1_554
