# generated using pymatgen
data_BaCaSbF7
_symmetry_space_group_name_H-M   'P 1'
_cell_length_a   10.70726100
_cell_length_b   6.05096400
_cell_length_c   10.13950335
_cell_angle_alpha   86.42661451
_cell_angle_beta   90.00000000
_cell_angle_gamma   90.00000000
_symmetry_Int_Tables_number   1
_chemical_formula_structural   BaCaSbF7
_chemical_formula_sum   'Ba4 Ca4 Sb4 F28'
_cell_volume   655.65361286
_cell_formula_units_Z   4
loop_
 _symmetry_equiv_pos_site_id
 _symmetry_equiv_pos_as_xyz
  1  'x, y, z'
loop_
 _atom_site_type_symbol
 _atom_site_label
 _atom_site_symmetry_multiplicity
 _atom_site_fract_x
 _atom_site_fract_y
 _atom_site_fract_z
 _atom_site_occupancy
  Ba  Ba0  1  0.32463500  0.73174600  0.49680600  1
  Ba  Ba1  1  0.82463500  0.26825400  0.00319400  1
  Ba  Ba2  1  0.67536500  0.26825400  0.50319400  1
  Ba  Ba3  1  0.17536500  0.73174600  0.99680600  1
  Ca  Ca0  1  0.40559800  0.31334800  0.82125800  1
  Ca  Ca1  1  0.90559800  0.68665200  0.67874200  1
  Ca  Ca2  1  0.09440200  0.31334800  0.32125800  1
  Ca  Ca3  1  0.59440200  0.68665200  0.17874200  1
  Sb  Sb0  1  0.60099600  0.78584800  0.80185500  1
  Sb  Sb1  1  0.39900400  0.21415200  0.19814500  1
  Sb  Sb2  1  0.89900400  0.78584800  0.30185500  1
  Sb  Sb3  1  0.10099600  0.21415200  0.69814500  1
  F  F0  1  0.43117200  0.91582500  0.11886300  1
  F  F1  1  0.07772600  0.64490400  0.41931300  1
  F  F2  1  0.74043900  0.48047600  0.76108800  1
  F  F3  1  0.25956100  0.51952400  0.23891200  1
  F  F4  1  0.48579700  0.02635900  0.36235500  1
  F  F5  1  0.78815800  0.75352200  0.48570500  1
  F  F6  1  0.76300600  0.95658200  0.73319500  1
  F  F7  1  0.98579700  0.97364100  0.13764500  1
  F  F8  1  0.42227400  0.64490400  0.91931300  1
  F  F9  1  0.24043900  0.51952400  0.73891200  1
  F  F10  1  0.06882800  0.91582500  0.61886300  1
  F  F11  1  0.56882800  0.08417500  0.88113700  1
  F  F12  1  0.26300600  0.04341800  0.76680500  1
  F  F13  1  0.99284100  0.52239500  0.85985100  1
  F  F14  1  0.51420300  0.97364100  0.63764500  1
  F  F15  1  0.01420300  0.02635900  0.86235500  1
  F  F16  1  0.23699400  0.04341800  0.26680500  1
  F  F17  1  0.93117200  0.08417500  0.38113700  1
  F  F18  1  0.49284100  0.47760500  0.64014900  1
  F  F19  1  0.92227400  0.35509600  0.58068700  1
  F  F20  1  0.00715900  0.47760500  0.14014900  1
  F  F21  1  0.73699400  0.95658200  0.23319500  1
  F  F22  1  0.50715900  0.52239500  0.35985100  1
  F  F23  1  0.28815800  0.24647800  0.01429500  1
  F  F24  1  0.21184200  0.24647800  0.51429500  1
  F  F25  1  0.71184200  0.75352200  0.98570500  1
  F  F26  1  0.57772600  0.35509600  0.08068700  1
  F  F27  1  0.75956100  0.48047600  0.26108800  1
loop_
_geom_bond_atom_site_label_1
_geom_bond_atom_site_label_2
_geom_bond_distance
_geom_bond_site_symmetry_2
Ba0 F18 2.728068 1_555
Ba0 F22 2.751687 1_555
Ba0 F4 2.776914 1_565
Ba0 F1 2.816777 1_555
Ba0 F9 2.845173 1_555
Ba0 F14 2.926116 1_555
Ba0 F16 3.054127 1_565
Ba0 F3 3.064455 1_555
Ba0 F24 3.169728 1_555
Ba0 F10 3.232064 1_555
Ba0 F24 3.355552 1_565
Ba1 F13 2.728068 1_554
Ba1 F20 2.751687 1_655
Ba1 F7 2.776914 1_545
Ba1 F26 2.816777 1_555
Ba1 F2 2.845173 1_554
Ba1 F15 2.926116 1_654
Ba1 F21 3.054127 1_545
Ba1 F27 3.064455 1_555
Ba1 F25 3.169728 1_554
Ba1 F11 3.232064 1_554
Ba1 F25 3.355552 1_544
Ba2 F22 2.728068 1_555
Ba2 F18 2.751687 1_555
Ba2 F14 2.776914 1_545
Ba2 F19 2.816777 1_555
Ba2 F27 2.845173 1_555
Ba2 F4 2.926116 1_555
Ba2 F6 3.054127 1_545
Ba2 F2 3.064455 1_555
Ba2 F5 3.169728 1_555
Ba2 F17 3.232064 1_555
Ba2 F5 3.355552 1_545
Ba3 F20 2.728068 1_556
Ba3 F13 2.751687 1_455
Ba3 F15 2.776914 1_565
Ba3 F8 2.816777 1_555
Ba3 F3 2.845173 1_556
Ba3 F7 2.926116 1_456
Ba3 F12 3.054127 1_565
Ba3 F9 3.064455 1_555
Ba3 F23 3.169728 1_556
Ba3 F0 3.232064 1_556
Ba3 F23 3.355552 1_566
Ca0 F18 2.237220 1_555
Ca0 F11 2.289383 1_555
Ca0 F9 2.291494 1_555
Ca0 F8 2.300867 1_555
Ca0 F12 2.327246 1_555
Ca0 F23 2.340348 1_556
Ca1 F13 2.237220 1_555
Ca1 F10 2.289383 1_655
Ca1 F2 2.291494 1_555
Ca1 F19 2.300867 1_555
Ca1 F6 2.327246 1_555
Ca1 F5 2.340348 1_555
Ca2 F20 2.237220 1_555
Ca2 F17 2.289383 1_455
Ca2 F3 2.291494 1_555
Ca2 F1 2.300867 1_555
Ca2 F16 2.327246 1_555
Ca2 F24 2.340348 1_555
Ca3 F22 2.237220 1_555
Ca3 F0 2.289383 1_555
Ca3 F27 2.291494 1_555
Ca3 F26 2.300867 1_555
Ca3 F21 2.327246 1_555
Ca3 F25 2.340348 1_554
F0 Sb1 2.050456 1_565
F1 Sb2 2.383503 1_455
F2 Sb0 2.430972 1_555
F3 Sb1 2.430972 1_555
F4 Sb1 2.165935 1_555
F5 Sb2 2.208276 1_555
F6 Sb0 2.114579 1_555
F7 Sb2 2.165935 1_555
F8 Sb0 2.383503 1_555
F9 Sb3 2.430972 1_555
F10 Sb3 2.050456 1_565
F11 Sb0 2.050456 1_545
F12 Sb3 2.114579 1_555
F14 Sb0 2.165935 1_555
F15 Sb3 2.165935 1_555
F16 Sb1 2.114579 1_555
F17 Sb2 2.050456 1_545
F19 Sb3 2.383503 1_655
F21 Sb2 2.114579 1_555
F23 Sb1 2.208276 1_555
F24 Sb3 2.208276 1_555
F25 Sb0 2.208276 1_555
F26 Sb1 2.383503 1_555
F27 Sb2 2.430972 1_555
