# generated using pymatgen
data_NaMg14Ga
_symmetry_space_group_name_H-M   'P 1'
_cell_length_a   6.33463261
_cell_length_b   6.33463211
_cell_length_c   10.49107184
_cell_angle_alpha   90.00000000
_cell_angle_beta   90.00000000
_cell_angle_gamma   120.00000268
_symmetry_Int_Tables_number   1
_chemical_formula_structural   NaMg14Ga
_chemical_formula_sum   'Na1 Mg14 Ga1'
_cell_volume   364.58039467
_cell_formula_units_Z   1
loop_
 _symmetry_equiv_pos_site_id
 _symmetry_equiv_pos_as_xyz
  1  'x, y, z'
loop_
 _atom_site_type_symbol
 _atom_site_label
 _atom_site_symmetry_multiplicity
 _atom_site_fract_x
 _atom_site_fract_y
 _atom_site_fract_z
 _atom_site_occupancy
  Na  Na0  1  0.16666700  0.33333300  0.12500000  1
  Mg  Mg0  1  0.16783948  0.83391924  0.12500000  1
  Mg  Mg1  1  0.16637239  0.83318569  0.62500000  1
  Mg  Mg2  1  0.66608076  0.33216052  0.12500000  1
  Mg  Mg3  1  0.66681431  0.33362761  0.62500000  1
  Mg  Mg4  1  0.66608076  0.83391924  0.12500000  1
  Mg  Mg5  1  0.66681431  0.83318569  0.62500000  1
  Mg  Mg6  1  0.33298959  0.16701041  0.37842986  1
  Mg  Mg7  1  0.33298959  0.16701041  0.87157014  1
  Mg  Mg8  1  0.33298959  0.66598017  0.37842986  1
  Mg  Mg9  1  0.33298959  0.66598017  0.87157014  1
  Mg  Mg10  1  0.83401983  0.16701041  0.37842986  1
  Mg  Mg11  1  0.83401983  0.16701041  0.87157014  1
  Mg  Mg12  1  0.83333300  0.66666700  0.37294284  1
  Mg  Mg13  1  0.83333300  0.66666700  0.87705716  1
  Ga  Ga0  1  0.16666700  0.33333300  0.62500000  1
loop_
_geom_bond_atom_site_label_1
_geom_bond_atom_site_label_2
_geom_bond_distance
_geom_bond_site_symmetry_2
Mg0 Mg2 3.156175 1_565
Mg0 Mg4 3.156175 1_555
Mg0 Na0 3.167323 1_555
Mg0 Na0 3.167323 1_565
Mg0 Mg2 3.178457 1_455
Mg0 Mg4 3.178457 1_455
Mg0 Mg12 3.183349 1_455
Mg0 Mg13 3.183349 1_454
Mg0 Mg8 3.226159 1_555
Mg0 Mg9 3.226159 1_554
Mg0 Mg6 3.226165 1_565
Mg0 Mg7 3.226165 1_564
Mg1 Mg3 3.164517 1_455
Mg1 Mg5 3.164517 1_455
Mg1 Mg8 3.169424 1_555
Mg1 Mg9 3.169424 1_555
Mg1 Mg6 3.169431 1_565
Mg1 Mg7 3.169431 1_565
Mg1 Mg3 3.170115 1_565
Mg1 Mg5 3.170116 1_555
Mg1 Mg12 3.214134 1_455
Mg1 Mg13 3.214134 1_455
Mg2 Mg4 3.156175 1_545
Mg2 Na0 3.167323 1_655
Mg2 Na0 3.167323 1_555
Mg2 Mg4 3.178457 1_555
Mg2 Mg7 3.226165 1_554
Mg2 Mg6 3.226165 1_555
Mg3 Mg5 3.164517 1_555
Mg3 Mg6 3.169431 1_555
Mg3 Mg7 3.169431 1_555
Mg3 Mg5 3.170115 1_545
Mg4 Na0 3.167323 1_555
Mg4 Na0 3.167323 1_665
Mg4 Mg8 3.226165 1_555
Mg4 Mg9 3.226165 1_554
Mg5 Mg8 3.169431 1_555
Mg5 Mg9 3.169431 1_555
Mg6 Mg8 3.160790 1_555
Mg6 Mg8 3.173842 1_545
Mg6 Na0 3.224768 1_555
Mg7 Mg9 3.160790 1_555
Mg7 Mg9 3.173842 1_545
Mg7 Na0 3.224768 1_556
Mg8 Na0 3.224774 1_555
Mg9 Na0 3.224774 1_556
Mg10 Mg8 3.160790 1_655
Mg10 Mg6 3.160790 1_655
Mg10 Mg12 3.167841 1_545
Mg10 Mg12 3.167841 1_555
Mg10 Mg3 3.169424 1_555
Mg10 Mg5 3.169431 1_545
Mg10 Mg8 3.173842 1_545
Mg10 Mg6 3.173842 1_555
Mg10 Na0 3.224774 1_655
Mg10 Mg2 3.226159 1_555
Mg10 Mg4 3.226165 1_545
Mg11 Mg9 3.160790 1_655
Mg11 Mg7 3.160790 1_655
Mg11 Mg13 3.167841 1_545
Mg11 Mg13 3.167841 1_555
Mg11 Mg3 3.169424 1_555
Mg11 Mg5 3.169431 1_545
Mg11 Mg9 3.173842 1_545
Mg11 Mg7 3.173842 1_555
Mg11 Na0 3.224774 1_656
Mg11 Mg2 3.226159 1_556
Mg11 Mg4 3.226165 1_546
Mg12 Mg6 3.167841 1_665
Mg12 Mg6 3.167841 1_555
Mg12 Mg8 3.167842 1_555
Mg12 Mg8 3.167842 1_655
Mg12 Mg4 3.183343 1_555
Mg12 Mg2 3.183349 1_555
Mg12 Mg5 3.214127 1_555
Mg12 Mg3 3.214134 1_555
Mg13 Mg7 3.167841 1_665
Mg13 Mg7 3.167841 1_555
Mg13 Mg9 3.167842 1_555
Mg13 Mg9 3.167842 1_655
Mg13 Mg4 3.183343 1_556
Mg13 Mg2 3.183349 1_556
Mg13 Mg5 3.214127 1_555
Mg13 Mg3 3.214134 1_555
Ga0 Mg7 3.165696 1_555
Ga0 Mg6 3.165696 1_555
Ga0 Mg9 3.165702 1_555
Ga0 Mg8 3.165702 1_555
Ga0 Mg10 3.165702 1_455
Ga0 Mg11 3.165702 1_455
Ga0 Mg1 3.167316 1_555
Ga0 Mg5 3.167316 1_445
Ga0 Mg5 3.167316 1_555
Ga0 Mg1 3.167316 1_545
Ga0 Mg3 3.167317 1_455
Ga0 Mg3 3.167317 1_555
