# generated using pymatgen
data_BaAlNi4O7
_symmetry_space_group_name_H-M   'P 1'
_cell_length_a   5.99217185
_cell_length_b   5.99217185
_cell_length_c   10.13387700
_cell_angle_alpha   90.00000000
_cell_angle_beta   90.00000000
_cell_angle_gamma   119.99999832
_symmetry_Int_Tables_number   1
_chemical_formula_structural   BaAlNi4O7
_chemical_formula_sum   'Ba2 Al2 Ni8 O14'
_cell_volume   315.11914361
_cell_formula_units_Z   2
loop_
 _symmetry_equiv_pos_site_id
 _symmetry_equiv_pos_as_xyz
  1  'x, y, z'
loop_
 _atom_site_type_symbol
 _atom_site_label
 _atom_site_symmetry_multiplicity
 _atom_site_fract_x
 _atom_site_fract_y
 _atom_site_fract_z
 _atom_site_occupancy
  Ba  Ba0  1  0.66666700  0.33333300  0.49270800  1
  Ba  Ba1  1  0.33333300  0.66666700  0.99270800  1
  Al  Al0  1  0.66666700  0.33333300  0.87249200  1
  Al  Al1  1  0.33333300  0.66666700  0.37249200  1
  Ni  Ni0  1  0.82477300  0.17522700  0.18972300  1
  Ni  Ni1  1  0.64954700  0.82477300  0.68972300  1
  Ni  Ni2  1  0.17522700  0.35045300  0.68972300  1
  Ni  Ni3  1  0.82477300  0.64954700  0.18972300  1
  Ni  Ni4  1  0.35045300  0.17522700  0.18972300  1
  Ni  Ni5  1  0.17522700  0.82477300  0.68972300  1
  Ni  Ni6  1  0.00000000  0.00000000  0.43734300  1
  Ni  Ni7  1  0.00000000  0.00000000  0.93734300  1
  O  O0  1  0.82590500  0.17409500  0.99411600  1
  O  O1  1  0.65181000  0.82590500  0.49411600  1
  O  O2  1  0.17409500  0.34819000  0.49411600  1
  O  O3  1  0.82590500  0.65181000  0.99411600  1
  O  O4  1  0.34819000  0.17409500  0.99411600  1
  O  O5  1  0.17409500  0.82590500  0.49411600  1
  O  O6  1  0.00000000  0.00000000  0.75392200  1
  O  O7  1  0.00000000  0.00000000  0.25392200  1
  O  O8  1  0.49015100  0.50984900  0.27533800  1
  O  O9  1  0.98030300  0.49015100  0.77533800  1
  O  O10  1  0.50984900  0.01969700  0.77533800  1
  O  O11  1  0.49015100  0.98030300  0.27533800  1
  O  O12  1  0.50984900  0.49015100  0.77533800  1
  O  O13  1  0.01969700  0.50984900  0.27533800  1
loop_
_geom_bond_atom_site_label_1
_geom_bond_atom_site_label_2
_geom_bond_distance
_geom_bond_site_symmetry_2
Ba0 O13 2.865060 1_655
Ba0 O11 2.865060 1_545
Ba0 O8 2.865067 1_555
Ba0 O2 2.997109 1_655
Ba0 O1 2.997109 1_545
Ba0 O5 2.997112 1_655
Ba0 O5 2.997112 1_545
Ba0 O1 2.997115 1_555
Ba0 O2 2.997115 1_555
Ba0 O12 3.294280 1_555
Ba0 O9 3.294280 1_555
Ba0 O10 3.294280 1_555
Ba1 O10 2.865060 1_565
Ba1 O9 2.865060 1_455
Ba1 O12 2.865067 1_555
Ba1 O4 2.997109 1_565
Ba1 O3 2.997109 1_455
Ba1 O0 2.997112 1_565
Ba1 O0 2.997112 1_455
Ba1 O3 2.997115 1_555
Ba1 O4 2.997115 1_555
Ba1 O8 3.294280 1_556
Ba1 O13 3.294280 1_556
Ba1 O11 3.294280 1_556
Al0 O12 1.902191 1_555
Al0 O10 1.902191 1_555
Al0 O9 1.902191 1_555
Al0 O0 2.061674 1_555
Al0 O3 2.061678 1_555
Al0 O4 2.061678 1_555
Al1 O8 1.902191 1_555
Al1 O13 1.902191 1_555
Al1 O11 1.902191 1_555
Al1 O5 2.061674 1_555
Al1 O1 2.061678 1_555
Al1 O2 2.061678 1_555
Ni0 O7 1.931502 1_655
Ni0 O11 1.948201 1_545
Ni0 O13 1.948201 1_655
Ni0 O0 1.982292 1_554
Ni1 O6 1.931497 1_665
Ni1 O10 1.948200 1_565
Ni1 O12 1.948201 1_555
Ni1 O1 1.982292 1_555
Ni2 O6 1.931497 1_555
Ni2 O9 1.948200 1_455
Ni2 O12 1.948201 1_555
Ni2 O2 1.982292 1_555
Ni3 O7 1.931497 1_665
Ni3 O13 1.948200 1_655
Ni3 O8 1.948201 1_555
Ni3 O3 1.982292 1_554
Ni4 O7 1.931497 1_555
Ni4 O11 1.948200 1_545
Ni4 O8 1.948201 1_555
Ni4 O4 1.982292 1_554
Ni5 O6 1.931502 1_565
Ni5 O10 1.948201 1_565
Ni5 O9 1.948201 1_455
Ni5 O5 1.982292 1_555
Ni6 O7 1.858766 1_555
Ni6 O5 1.896272 1_545
Ni6 O1 1.896272 1_445
Ni6 O2 1.896272 1_555
Ni7 O6 1.858766 1_555
Ni7 O0 1.896272 1_455
Ni7 O3 1.896272 1_445
Ni7 O4 1.896272 1_555
