# generated using pymatgen
data_CuSnPd2
_symmetry_space_group_name_H-M   'P 1'
_cell_length_a   3.96548700
_cell_length_b   7.94980700
_cell_length_c   8.05194000
_cell_angle_alpha   90.00000000
_cell_angle_beta   90.00000000
_cell_angle_gamma   90.00000000
_symmetry_Int_Tables_number   1
_chemical_formula_structural   CuSnPd2
_chemical_formula_sum   'Cu4 Sn4 Pd8'
_cell_volume   253.83625152
_cell_formula_units_Z   4
loop_
 _symmetry_equiv_pos_site_id
 _symmetry_equiv_pos_as_xyz
  1  'x, y, z'
loop_
 _atom_site_type_symbol
 _atom_site_label
 _atom_site_symmetry_multiplicity
 _atom_site_fract_x
 _atom_site_fract_y
 _atom_site_fract_z
 _atom_site_occupancy
  Cu  Cu0  1  0.00000000  0.00000000  0.00000000  1
  Cu  Cu1  1  0.00000000  0.50000000  0.50000000  1
  Cu  Cu2  1  0.50000000  0.24897700  0.50000000  1
  Cu  Cu3  1  0.50000000  0.75102300  0.50000000  1
  Sn  Sn0  1  0.00000000  0.24966200  0.75178000  1
  Sn  Sn1  1  0.00000000  0.75033800  0.24822000  1
  Sn  Sn2  1  0.00000000  0.24966200  0.24822000  1
  Sn  Sn3  1  0.00000000  0.75033800  0.75178000  1
  Pd  Pd0  1  0.00000000  0.50000000  0.00000000  1
  Pd  Pd1  1  0.50000000  0.00000000  0.74647700  1
  Pd  Pd2  1  0.50000000  0.00000000  0.25352300  1
  Pd  Pd3  1  0.50000000  0.24531900  0.00000000  1
  Pd  Pd4  1  0.50000000  0.75468100  0.00000000  1
  Pd  Pd5  1  0.00000000  0.00000000  0.50000000  1
  Pd  Pd6  1  0.50000000  0.50000000  0.72979200  1
  Pd  Pd7  1  0.50000000  0.50000000  0.27020800  1
loop_
_geom_bond_atom_site_label_1
_geom_bond_atom_site_label_2
_geom_bond_distance
_geom_bond_site_symmetry_2
Cu0 Pd3 2.781133 1_455
Cu0 Pd3 2.781133 1_555
Cu0 Pd4 2.781133 1_545
Cu0 Pd4 2.781133 1_445
Cu0 Sn3 2.816718 1_544
Cu0 Sn2 2.816718 1_555
Cu0 Sn0 2.816718 1_554
Cu0 Sn1 2.816718 1_545
Cu0 Pd2 2.845767 1_455
Cu0 Pd2 2.845767 1_555
Cu0 Pd1 2.845767 1_554
Cu0 Pd1 2.845767 1_454
Cu1 Pd7 2.711969 1_555
Cu1 Pd6 2.711969 1_455
Cu1 Pd7 2.711969 1_455
Cu1 Pd6 2.711969 1_555
Cu1 Cu3 2.813117 1_455
Cu1 Cu3 2.813117 1_555
Cu1 Cu2 2.813117 1_555
Cu1 Cu2 2.813117 1_455
Cu1 Sn1 2.840892 1_555
Cu1 Sn2 2.840892 1_555
Cu1 Sn0 2.840892 1_555
Cu1 Sn3 2.840892 1_555
Cu2 Pd7 2.721371 1_555
Cu2 Pd6 2.721371 1_555
Cu2 Pd5 2.801602 1_555
Cu2 Pd5 2.801602 1_655
Cu2 Pd1 2.802929 1_555
Cu2 Pd2 2.802929 1_555
Cu2 Sn0 2.835722 1_655
Cu2 Sn2 2.835722 1_555
Cu2 Sn2 2.835722 1_655
Cu2 Sn0 2.835722 1_555
Cu3 Pd6 2.721371 1_555
Cu3 Pd7 2.721371 1_555
Cu3 Pd5 2.801602 1_565
Cu3 Pd5 2.801602 1_665
Cu3 Pd1 2.802929 1_565
Cu3 Pd2 2.802929 1_565
Cu3 Sn3 2.835722 1_655
Cu3 Sn1 2.835722 1_555
Cu3 Sn1 2.835722 1_655
Cu3 Sn3 2.835722 1_555
Pd0 Sn3 2.820508 1_554
Pd0 Sn1 2.820508 1_555
Pd0 Sn0 2.820508 1_554
Pd0 Sn2 2.820508 1_555
Pd0 Pd4 2.833821 1_555
Pd0 Pd4 2.833821 1_455
Pd0 Pd3 2.833821 1_455
Pd0 Pd3 2.833821 1_555
Pd0 Pd6 2.943626 1_554
Pd0 Pd7 2.943626 1_455
Pd0 Pd7 2.943626 1_555
Pd0 Pd6 2.943626 1_454
Pd1 Pd5 2.805349 1_655
Pd1 Pd5 2.805349 1_555
Pd1 Sn0 2.805777 1_555
Pd1 Sn0 2.805777 1_655
Pd1 Sn3 2.805777 1_645
Pd1 Sn3 2.805777 1_545
Pd1 Pd3 2.823216 1_556
Pd1 Pd4 2.823216 1_546
Pd2 Pd5 2.805349 1_655
Pd2 Pd5 2.805349 1_555
Pd2 Sn2 2.805777 1_555
Pd2 Sn2 2.805777 1_655
Pd2 Sn1 2.805777 1_545
Pd2 Sn1 2.805777 1_645
Pd2 Pd3 2.823216 1_555
Pd2 Pd4 2.823216 1_545
Pd3 Sn2 2.815506 1_555
Pd3 Sn0 2.815506 1_554
Pd3 Sn2 2.815506 1_655
Pd3 Sn0 2.815506 1_654
Pd3 Pd7 2.972025 1_555
Pd3 Pd6 2.972025 1_554
Pd4 Sn3 2.815506 1_554
Pd4 Sn3 2.815506 1_654
Pd4 Sn1 2.815506 1_655
Pd4 Sn1 2.815506 1_555
Pd4 Pd7 2.972025 1_555
Pd4 Pd6 2.972025 1_554
Pd5 Sn2 2.837130 1_555
Pd5 Sn0 2.837130 1_555
Pd5 Sn3 2.837130 1_545
Pd5 Sn1 2.837130 1_545
Pd6 Sn3 2.814830 1_655
Pd6 Sn3 2.814830 1_555
Pd6 Sn0 2.814830 1_555
Pd6 Sn0 2.814830 1_655
Pd7 Sn1 2.814830 1_555
Pd7 Sn1 2.814830 1_655
Pd7 Sn2 2.814830 1_555
Pd7 Sn2 2.814830 1_655
