# generated using pymatgen
data_Li2V3O6
_symmetry_space_group_name_H-M   'P 1'
_cell_length_a   5.18333534
_cell_length_b   6.75161761
_cell_length_c   6.68450532
_cell_angle_alpha   96.85591769
_cell_angle_beta   82.37074124
_cell_angle_gamma   98.38076137
_symmetry_Int_Tables_number   1
_chemical_formula_structural   Li2V3O6
_chemical_formula_sum   'Li4 V6 O12'
_cell_volume   228.18703709
_cell_formula_units_Z   2
loop_
 _symmetry_equiv_pos_site_id
 _symmetry_equiv_pos_as_xyz
  1  'x, y, z'
loop_
 _atom_site_type_symbol
 _atom_site_label
 _atom_site_symmetry_multiplicity
 _atom_site_fract_x
 _atom_site_fract_y
 _atom_site_fract_z
 _atom_site_occupancy
  Li  Li0  1  0.00527000  0.67377800  0.67002700  1
  Li  Li1  1  0.49361900  0.16831700  0.17068400  1
  Li  Li2  1  0.00056000  0.32891100  0.32736500  1
  Li  Li3  1  0.49630900  0.82918100  0.82962000  1
  V  V0  1  0.74815200  0.58267800  0.08266600  1
  V  V1  1  0.25311400  0.08647600  0.58944600  1
  V  V2  1  0.24937300  0.41161100  0.90807500  1
  V  V3  1  0.75082900  0.91679600  0.41663000  1
  V  V4  1  0.24774500  0.75222000  0.24999300  1
  V  V5  1  0.75122500  0.24857100  0.75210000  1
  O  O0  1  0.38571900  0.14427300  0.86617800  1
  O  O1  1  0.90382300  0.64325500  0.35536300  1
  O  O2  1  0.59513900  0.85206500  0.14226400  1
  O  O3  1  0.12119200  0.37035100  0.64970600  1
  O  O4  1  0.87896500  0.31583900  0.03320100  1
  O  O5  1  0.37010800  0.80897800  0.52706600  1
  O  O6  1  0.35717200  0.46778600  0.18095700  1
  O  O7  1  0.87664100  0.97106600  0.69022600  1
  O  O8  1  0.61948600  0.52732700  0.81193900  1
  O  O9  1  0.13353900  0.02676300  0.30955600  1
  O  O10  1  0.13459600  0.68564500  0.96856700  1
  O  O11  1  0.62742500  0.18811400  0.46837000  1
loop_
_geom_bond_atom_site_label_1
_geom_bond_atom_site_label_2
_geom_bond_distance
_geom_bond_site_symmetry_2
Li0 O5 2.132569 1_555
Li0 O10 2.177047 1_555
Li0 O7 2.189292 1_455
Li0 O3 2.201603 1_555
Li0 O1 2.213990 1_455
Li0 O8 2.240546 1_455
Li1 O9 2.119062 1_555
Li1 O0 2.163149 1_554
Li1 O11 2.175881 1_555
Li1 O6 2.227959 1_555
Li1 O4 2.230997 1_555
Li1 O2 2.253055 1_545
Li2 O6 2.118299 1_555
Li2 O4 2.131419 1_455
Li2 O11 2.174089 1_455
Li2 O9 2.231802 1_555
Li2 O1 2.231860 1_455
Li2 O3 2.296683 1_555
Li3 O10 2.130694 1_555
Li3 O5 2.190003 1_555
Li3 O2 2.199535 1_556
Li3 O7 2.201618 1_555
Li3 O8 2.208353 1_555
Li3 O0 2.260137 1_565
O0 V5 2.005580 1_555
O0 V2 2.008581 1_555
O0 V1 2.033127 1_555
O1 V4 1.903483 1_655
O1 V0 2.063364 1_555
O1 V3 2.089869 1_555
O2 V4 1.906076 1_555
O2 V0 2.063827 1_555
O2 V3 2.074756 1_555
O3 V2 1.907268 1_555
O3 V5 2.036704 1_455
O3 V1 2.104240 1_555
O4 V0 1.992275 1_555
O4 V2 2.035860 1_654
O4 V5 2.052885 1_554
O5 V4 2.012708 1_555
O5 V1 2.032087 1_565
O5 V3 2.071694 1_555
O6 V2 1.956275 1_554
O6 V4 2.063735 1_555
O6 V0 2.109576 1_555
O7 V3 1.997816 1_555
O7 V1 2.049859 1_665
O7 V5 2.050051 1_565
O8 V0 1.986383 1_556
O8 V2 2.014770 1_555
O8 V5 2.071418 1_555
O9 V4 2.006463 1_545
O9 V1 2.025347 1_555
O9 V3 2.078265 1_445
O10 V2 2.004733 1_555
O10 V4 2.024631 1_556
O10 V0 2.095781 1_456
O11 V3 2.003982 1_545
O11 V1 2.053720 1_555
O11 V5 2.058503 1_555
