# generated using pymatgen
data_Sm(Mg4Al3)4
_symmetry_space_group_name_H-M   'P 1'
_cell_length_a   8.86701770
_cell_length_b   9.29335843
_cell_length_c   9.29335750
_cell_angle_alpha   110.38182376
_cell_angle_beta   108.54452314
_cell_angle_gamma   108.54451810
_symmetry_Int_Tables_number   1
_chemical_formula_structural   Sm(Mg4Al3)4
_chemical_formula_sum   'Sm1 Mg16 Al12'
_cell_volume   596.12936668
_cell_formula_units_Z   1
loop_
 _symmetry_equiv_pos_site_id
 _symmetry_equiv_pos_as_xyz
  1  'x, y, z'
loop_
 _atom_site_type_symbol
 _atom_site_label
 _atom_site_symmetry_multiplicity
 _atom_site_fract_x
 _atom_site_fract_y
 _atom_site_fract_z
 _atom_site_occupancy
  Sm  Sm0  1  0.37594400  0.00000000  0.00000000  1
  Mg  Mg0  1  0.99457700  0.33992400  0.00000000  1
  Mg  Mg1  1  0.99592400  0.00000100  0.00000000  1
  Mg  Mg2  1  0.61292400  0.33106900  0.00000000  1
  Mg  Mg3  1  0.31514900  0.59982500  0.00000100  1
  Mg  Mg4  1  0.68877600  0.68714100  0.29448400  1
  Mg  Mg5  1  0.00163600  0.60734400  0.31286000  1
  Mg  Mg6  1  0.61292400  0.00000100  0.33106900  1
  Mg  Mg7  1  0.99457800  0.00000000  0.33992400  1
  Mg  Mg8  1  0.39429200  0.70551600  0.39265800  1
  Mg  Mg9  1  0.71532600  0.40017600  0.40017600  1
  Mg  Mg10  1  0.31514900  0.00000100  0.59982500  1
  Mg  Mg11  1  0.00163600  0.31286000  0.60734400  1
  Mg  Mg12  1  0.65465300  0.66007500  0.66007600  1
  Mg  Mg13  1  0.28185500  0.66893200  0.66893100  1
  Mg  Mg14  1  0.68877600  0.29448400  0.68714100  1
  Mg  Mg15  1  0.39429200  0.39265700  0.70551700  1
  Al  Al0  1  0.63038800  0.81931500  0.00000000  1
  Al  Al1  1  0.81039800  0.63703300  0.00000000  1
  Al  Al2  1  0.36286100  0.36179000  0.17900100  1
  Al  Al3  1  0.81107200  0.18068600  0.18068500  1
  Al  Al4  1  0.18385900  0.82099800  0.18278800  1
  Al  Al5  1  0.17336600  0.36296800  0.36296900  1
  Al  Al6  1  0.36286100  0.17900100  0.36179000  1
  Al  Al7  1  0.00107100  0.81721200  0.63821100  1
  Al  Al8  1  0.81039800  0.00000000  0.63703300  1
  Al  Al9  1  0.00107100  0.63821200  0.81721200  1
  Al  Al10  1  0.63038800  0.00000000  0.81931500  1
  Al  Al11  1  0.18385900  0.18278800  0.82099800  1
loop_
_geom_bond_atom_site_label_1
_geom_bond_atom_site_label_2
_geom_bond_distance
_geom_bond_site_symmetry_2
Mg0 Mg14 3.063666 1_554
Mg0 Mg5 3.063672 1_655
Mg0 Mg3 3.089767 1_655
Mg0 Mg1 3.162845 1_555
Mg0 Mg2 3.358858 1_555
Mg1 Mg7 3.162855 1_555
Mg1 Mg12 3.162860 1_544
Mg1 Sm0 3.369647 1_655
Mg2 Mg5 3.118077 1_655
Mg2 Sm0 3.125611 1_555
Mg2 Mg4 3.161917 1_555
Mg2 Mg9 3.299269 1_555
Mg3 Mg4 3.178026 1_555
Mg3 Mg8 3.195192 1_555
Mg3 Mg6 3.299267 1_565
Mg3 Sm0 3.584153 1_565
Mg4 Mg5 3.061108 1_655
Mg4 Mg8 3.061111 1_555
Mg4 Mg7 3.063671 1_565
Mg4 Mg6 3.118077 1_565
Mg4 Mg9 3.195194 1_555
Mg5 Mg8 3.061099 1_555
Mg5 Mg9 3.178024 1_455
Mg6 Sm0 3.125606 1_555
Mg6 Mg8 3.161931 1_545
Mg6 Mg9 3.299260 1_555
Mg6 Mg7 3.358870 1_555
Mg9 Sm0 3.584158 1_555
Mg10 Mg7 3.089761 1_455
Mg10 Mg14 3.178026 1_555
Mg10 Mg8 3.178033 1_545
Mg10 Mg15 3.195182 1_555
Mg10 Mg5 3.195189 1_545
Mg10 Mg2 3.299262 1_556
Mg10 Mg13 3.299265 1_545
Mg10 Sm0 3.584152 1_556
Mg11 Mg15 3.061099 1_555
Mg11 Mg14 3.061108 1_455
Mg11 Mg7 3.063677 1_455
Mg11 Mg6 3.118074 1_455
Mg11 Mg13 3.161918 1_555
Mg11 Mg9 3.178024 1_455
Mg11 Mg3 3.195188 1_556
Mg12 Mg8 3.063667 1_555
Mg12 Mg15 3.063667 1_555
Mg12 Mg9 3.089768 1_555
Mg12 Mg13 3.358864 1_555
Mg13 Mg8 3.118057 1_555
Mg13 Mg15 3.118080 1_555
Mg13 Sm0 3.125605 1_566
Mg13 Mg5 3.161907 1_555
Mg13 Mg3 3.299279 1_556
Mg14 Mg15 3.061108 1_555
Mg14 Mg2 3.118068 1_556
Mg14 Mg6 3.161913 1_555
Mg14 Mg9 3.195194 1_555
Mg15 Mg2 3.161911 1_556
Mg15 Mg3 3.178030 1_556
Al0 Al1 2.671569 1_555
Al0 Al10 2.757395 1_564
Al0 Al3 2.757402 1_565
Al0 Mg3 2.889180 1_555
Al0 Mg13 3.029813 1_554
Al0 Mg6 3.029814 1_565
Al0 Mg12 3.097474 1_554
Al0 Mg7 3.097478 1_565
Al0 Mg1 3.140570 1_565
Al0 Sm0 3.212422 1_565
Al0 Mg15 3.333381 1_554
Al0 Mg4 3.333384 1_555
Al1 Al4 2.751770 1_655
Al1 Al9 2.751771 1_654
Al1 Mg2 2.825626 1_555
Al1 Mg14 3.020844 1_554
Al1 Mg5 3.020849 1_655
Al1 Mg12 3.133180 1_554
Al1 Mg7 3.133184 1_565
Al1 Mg15 3.190401 1_554
Al1 Mg4 3.190404 1_555
Al1 Mg1 3.248840 1_565
Al2 Al5 2.751786 1_555
Al2 Al6 2.789504 1_555
Al2 Mg9 2.968782 1_555
Al2 Mg4 2.975623 1_555
Al2 Mg8 2.981266 1_555
Al2 Mg0 3.059349 1_455
Al2 Mg2 3.191138 1_555
Al2 Mg1 3.218844 1_455
Al2 Mg3 3.248188 1_555
Al2 Sm0 3.249674 1_555
Al3 Al5 2.671583 1_655
Al3 Mg9 2.889160 1_555
Al3 Mg2 3.029799 1_555
Al3 Mg6 3.029807 1_555
Al3 Mg0 3.097474 1_555
Al3 Mg7 3.097491 1_555
Al3 Mg1 3.140576 1_555
Al3 Sm0 3.212413 1_555
Al3 Mg5 3.333382 1_655
Al3 Mg11 3.333392 1_655
Al4 Al6 2.731703 1_565
Al4 Al9 2.789487 1_554
Al4 Mg3 2.968762 1_555
Al4 Mg8 2.975631 1_555
Al4 Mg5 2.981259 1_555
Al4 Mg7 3.059343 1_465
Al4 Mg6 3.191144 1_565
Al4 Mg1 3.218856 1_465
Al4 Mg10 3.248200 1_565
Al4 Sm0 3.249676 1_565
Al5 Al6 2.751778 1_555
Al5 Mg13 2.825617 1_555
Al5 Mg15 3.020839 1_555
Al5 Mg8 3.020839 1_555
Al5 Mg7 3.133185 1_455
Al5 Mg0 3.133199 1_455
Al5 Mg11 3.190396 1_555
Al5 Mg5 3.190406 1_555
Al5 Mg1 3.248839 1_455
Al6 Mg9 2.968782 1_555
Al6 Mg14 2.975622 1_555
Al6 Mg15 2.981271 1_555
Al6 Mg7 3.059341 1_455
Al6 Mg6 3.191131 1_555
Al6 Mg1 3.218850 1_455
Al6 Mg10 3.248188 1_555
Al6 Sm0 3.249674 1_555
Al7 Al9 2.731688 1_555
Al7 Al8 2.751771 1_465
Al7 Mg10 2.968775 1_565
Al7 Mg5 2.975627 1_555
Al7 Mg4 2.981266 1_455
Al7 Mg12 3.059347 1_455
Al7 Mg13 3.191138 1_555
Al7 Mg1 3.218841 1_466
Al7 Mg9 3.248190 1_455
Al7 Sm0 3.249670 1_566
Al8 Mg6 2.825630 1_555
Al8 Mg4 3.020844 1_545
Al8 Mg11 3.020849 1_655
Al8 Mg0 3.133185 1_556
Al8 Mg12 3.133194 1_545
Al8 Mg8 3.190403 1_545
Al8 Mg14 3.190404 1_555
Al8 Mg1 3.248826 1_556
Al9 Mg3 2.968781 1_556
Al9 Mg11 2.975635 1_555
Al9 Mg14 2.981273 1_455
Al9 Mg12 3.059335 1_455
Al9 Mg13 3.191145 1_555
Al9 Mg1 3.218840 1_466
Al9 Mg9 3.248190 1_455
Al9 Sm0 3.249666 1_566
Al10 Al8 2.671569 1_555
Al10 Al3 2.757394 1_556
Al10 Mg10 2.889180 1_555
Al10 Mg13 3.029807 1_545
Al10 Mg2 3.029812 1_556
Al10 Mg0 3.097473 1_556
Al10 Mg12 3.097481 1_545
Al10 Mg1 3.140563 1_556
Al10 Sm0 3.212422 1_556
Al10 Mg8 3.333377 1_545
Al10 Mg14 3.333384 1_555
Al11 Al2 2.731702 1_556
Al11 Al8 2.751770 1_455
Al11 Al7 2.789488 1_545
Al11 Mg10 2.968762 1_555
Al11 Mg15 2.975619 1_555
Al11 Mg11 2.981259 1_555
Al11 Mg0 3.059351 1_456
Al11 Mg2 3.191144 1_556
Al11 Mg1 3.218843 1_456
Al11 Mg3 3.248200 1_556
Al11 Sm0 3.249676 1_556
