# generated using pymatgen
data_Sr3Fe3N5
_symmetry_space_group_name_H-M   'P 1'
_cell_length_a   5.72520353
_cell_length_b   7.18178729
_cell_length_c   8.68045784
_cell_angle_alpha   108.62102573
_cell_angle_beta   104.61396031
_cell_angle_gamma   95.70213866
_symmetry_Int_Tables_number   1
_chemical_formula_structural   Sr3Fe3N5
_chemical_formula_sum   'Sr6 Fe6 N10'
_cell_volume   320.92776075
_cell_formula_units_Z   2
loop_
 _symmetry_equiv_pos_site_id
 _symmetry_equiv_pos_as_xyz
  1  'x, y, z'
loop_
 _atom_site_type_symbol
 _atom_site_label
 _atom_site_symmetry_multiplicity
 _atom_site_fract_x
 _atom_site_fract_y
 _atom_site_fract_z
 _atom_site_occupancy
  Sr  Sr0  1  0.80525797  0.41782533  0.61047487  1
  Sr  Sr1  1  0.19474203  0.58217467  0.38952513  1
  Sr  Sr2  1  0.66824696  0.86668925  0.87891648  1
  Sr  Sr3  1  0.33175304  0.13331075  0.12108352  1
  Sr  Sr4  1  0.66098731  0.67153588  0.20715739  1
  Sr  Sr5  1  0.33901269  0.32846412  0.79284261  1
  Fe  Fe0  1  0.90967024  0.32705961  0.97609412  1
  Fe  Fe1  1  0.09032976  0.67294039  0.02390588  1
  Fe  Fe2  1  0.68976771  0.95961815  0.57341223  1
  Fe  Fe3  1  0.31023229  0.04038185  0.42658777  1
  Fe  Fe4  1  0.09531264  0.88157086  0.70449014  1
  Fe  Fe5  1  0.90468736  0.11842914  0.29550986  1
  N  N0  1  0.93191011  0.11598471  0.78042269  1
  N  N1  1  0.06808989  0.88401529  0.21957731  1
  N  N2  1  0.79579083  0.71437917  0.52116724  1
  N  N3  1  0.20420917  0.28562083  0.47883276  1
  N  N4  1  0.75758052  0.53348642  0.91134699  1
  N  N5  1  0.24241948  0.46651358  0.08865301  1
  N  N6  1  0.37573077  0.95190784  0.61710561  1
  N  N7  1  0.62426923  0.04809216  0.38289439  1
  N  N8  1  0.19230008  0.76885090  0.86992076  1
  N  N9  1  0.80769992  0.23114910  0.13007924  1
loop_
_geom_bond_atom_site_label_1
_geom_bond_atom_site_label_2
_geom_bond_distance
_geom_bond_site_symmetry_2
Fe0 N9 1.871839 1_556
Fe0 N5 1.908830 1_656
Fe0 N0 1.924139 1_555
Fe0 N4 1.952844 1_555
Fe1 N8 1.871839 1_554
Fe1 N4 1.908830 1_454
Fe1 N1 1.924139 1_555
Fe1 N5 1.952844 1_555
Fe2 N2 1.875474 1_555
Fe2 N0 1.885970 1_565
Fe2 N7 1.919590 1_565
Fe2 N6 1.928000 1_555
Fe3 N3 1.875474 1_555
Fe3 N1 1.885970 1_545
Fe3 N6 1.919590 1_545
Fe3 N7 1.928000 1_555
Fe4 N8 1.858803 1_555
Fe4 N2 1.976942 1_455
Fe4 N0 2.014776 1_465
Fe4 N6 2.026347 1_555
Fe5 N9 1.858803 1_555
Fe5 N3 1.976942 1_655
Fe5 N1 2.014776 1_645
Fe5 N7 2.026347 1_555
N0 Sr5 2.614191 1_655
N0 Sr2 2.703123 1_545
N0 Sr0 3.035794 1_555
N1 Sr4 2.614191 1_455
N1 Sr3 2.703123 1_565
N1 Sr1 3.035794 1_555
N2 Sr0 2.489186 1_555
N2 Sr4 2.544740 1_555
N2 Sr1 2.911942 1_655
N2 Sr1 3.274488 1_555
N3 Sr1 2.489186 1_555
N3 Sr5 2.544740 1_555
N3 Sr0 2.911942 1_455
N3 Sr0 3.274488 1_555
N4 Sr5 2.461001 1_555
N4 Sr0 2.569996 1_555
N4 Sr2 2.582247 1_555
N4 Sr4 2.661194 1_556
N5 Sr4 2.461001 1_555
N5 Sr1 2.569996 1_555
N5 Sr3 2.582247 1_555
N5 Sr5 2.661194 1_554
N6 Sr1 2.664120 1_555
N6 Sr5 2.706475 1_565
N6 Sr2 2.741440 1_555
N7 Sr0 2.664120 1_555
N7 Sr4 2.706475 1_545
N7 Sr3 2.741440 1_555
N8 Sr3 2.702581 1_566
N8 Sr2 2.720658 1_555
N8 Sr0 3.013889 1_455
N9 Sr2 2.702581 1_544
N9 Sr3 2.720658 1_555
N9 Sr1 3.013889 1_655
