# generated using pymatgen
data_Li9Mn2Co5O16
_symmetry_space_group_name_H-M   'P 1'
_cell_length_a   7.77417284
_cell_length_b   7.77417284
_cell_length_c   13.13118943
_cell_angle_alpha   86.77487278
_cell_angle_beta   86.77487278
_cell_angle_gamma   21.44145841
_symmetry_Int_Tables_number   1
_chemical_formula_structural   Li9Mn2Co5O16
_chemical_formula_sum   'Li9 Mn2 Co5 O16'
_cell_volume   289.63203568
_cell_formula_units_Z   1
loop_
 _symmetry_equiv_pos_site_id
 _symmetry_equiv_pos_as_xyz
  1  'x, y, z'
loop_
 _atom_site_type_symbol
 _atom_site_label
 _atom_site_symmetry_multiplicity
 _atom_site_fract_x
 _atom_site_fract_y
 _atom_site_fract_z
 _atom_site_occupancy
  Li  Li0  1  0.43631600  0.43631600  0.19402200  1
  Li  Li1  1  0.31415200  0.31415200  0.56999300  1
  Li  Li2  1  0.18613900  0.18613900  0.92737200  1
  Li  Li3  1  0.06411600  0.06411600  0.31549700  1
  Li  Li4  1  0.93175600  0.93175600  0.68758700  1
  Li  Li5  1  0.81129400  0.81129400  0.06158300  1
  Li  Li6  1  0.68659800  0.68659800  0.44072500  1
  Li  Li7  1  0.56506800  0.56506800  0.80541500  1
  Li  Li8  1  0.75079700  0.75079700  0.74720200  1
  Mn  Mn0  1  0.00035500  0.00035500  0.99718100  1
  Mn  Mn1  1  0.37018800  0.37018800  0.86492400  1
  Co  Co0  1  0.87589000  0.87589000  0.37830900  1
  Co  Co1  1  0.62557600  0.62557600  0.12876400  1
  Co  Co2  1  0.50300200  0.50300200  0.50033300  1
  Co  Co3  1  0.25076800  0.25076800  0.25371700  1
  Co  Co4  1  0.13067000  0.13067000  0.63686000  1
  O  O0  1  0.41202800  0.41202800  0.01833700  1
  O  O1  1  0.28785600  0.28785600  0.40248500  1
  O  O2  1  0.15204600  0.15204600  0.77159200  1
  O  O3  1  0.04138800  0.04138800  0.15357100  1
  O  O4  1  0.91119700  0.91119700  0.52829300  1
  O  O5  1  0.78984500  0.78984500  0.90409300  1
  O  O6  1  0.66427400  0.66427400  0.28069700  1
  O  O7  1  0.54301500  0.54301500  0.64840400  1
  O  O8  1  0.46374000  0.46374000  0.34945700  1
  O  O9  1  0.34551300  0.34551300  0.73003700  1
  O  O10  1  0.20927600  0.20927600  0.10131700  1
  O  O11  1  0.08704000  0.08704000  0.47281200  1
  O  O12  1  0.95627800  0.95627800  0.84270100  1
  O  O13  1  0.83980000  0.83980000  0.22262600  1
  O  O14  1  0.70859000  0.70859000  0.59544200  1
  O  O15  1  0.58542700  0.58542700  0.96865100  1
loop_
_geom_bond_atom_site_label_1
_geom_bond_atom_site_label_2
_geom_bond_distance
_geom_bond_site_symmetry_2
Li0 O13 2.084016 1_455
Li0 O13 2.084016 1_545
Li0 O8 2.106969 1_555
Li0 O3 2.202841 1_655
Li0 O3 2.202841 1_565
Li0 O0 2.357485 1_555
Li1 O4 2.120432 1_545
Li1 O4 2.120432 1_455
Li1 O14 2.177625 1_455
Li1 O14 2.177625 1_545
Li1 O9 2.182070 1_555
Li1 O1 2.258477 1_555
Li2 O2 2.139548 1_555
Li2 O5 2.153933 1_545
Li2 O5 2.153933 1_455
Li2 O15 2.157988 1_545
Li2 O15 2.157988 1_455
Li2 O10 2.331207 1_556
Li3 O11 2.114887 1_555
Li3 O6 2.135739 1_545
Li3 O6 2.135739 1_455
Li3 O8 2.136209 1_455
Li3 O8 2.136209 1_545
Li3 O3 2.173977 1_555
Li4 O9 2.013430 1_655
Li4 O9 2.013430 1_565
Li4 O12 2.091986 1_555
Li4 O4 2.132879 1_555
Li4 O7 2.268250 1_655
Li4 O7 2.268250 1_565
Li5 O5 2.112280 1_554
Li5 O0 2.163803 1_565
Li5 O0 2.163803 1_655
Li5 O10 2.167835 1_655
Li5 O10 2.167835 1_565
Li5 O13 2.183347 1_555
Li6 O14 2.078104 1_555
Li6 O11 2.123396 1_655
Li6 O11 2.123396 1_565
Li6 O6 2.148042 1_555
Li6 O1 2.155814 1_655
Li6 O1 2.155814 1_565
Li7 O2 1.996667 1_565
Li7 O2 1.996667 1_655
Li7 O7 2.108038 1_555
Li7 O15 2.183484 1_555
Li7 O12 2.236093 1_455
Li7 O12 2.236093 1_545
Li8 O9 2.049045 1_655
Li8 O9 2.049045 1_565
Li8 O2 2.101086 1_655
Li8 O2 2.101086 1_565
Li8 O14 2.129347 1_555
Li8 O5 2.177355 1_555
Mn0 O15 1.965976 1_455
Mn0 O15 1.965976 1_545
Mn0 O0 1.986565 1_456
Mn0 O0 1.986565 1_546
Mn0 O12 2.173632 1_445
Mn0 O3 2.181190 1_556
Mn1 O9 1.831885 1_555
Mn1 O5 1.946831 1_455
Mn1 O5 1.946831 1_545
Mn1 O12 1.965284 1_545
Mn1 O12 1.965284 1_455
Mn1 O0 2.148071 1_556
Co0 O1 1.987970 1_655
Co0 O1 1.987970 1_565
Co0 O8 1.994465 1_655
Co0 O8 1.994465 1_565
Co0 O4 2.071568 1_555
Co0 O13 2.147611 1_555
Co1 O10 1.950269 1_565
Co1 O10 1.950269 1_655
Co1 O3 1.950303 1_655
Co1 O3 1.950303 1_565
Co1 O6 2.113017 1_555
Co1 O15 2.223573 1_554
Co2 O11 1.953747 1_655
Co2 O11 1.953747 1_565
Co2 O4 2.033283 1_545
Co2 O4 2.033283 1_455
Co2 O7 2.071294 1_555
Co2 O8 2.102600 1_555
Co3 O6 1.977198 1_455
Co3 O6 1.977198 1_545
Co3 O13 2.011085 1_455
Co3 O13 2.011085 1_545
Co3 O1 2.064932 1_555
Co3 O10 2.133503 1_555
Co4 O2 1.817372 1_555
Co4 O14 1.931336 1_545
Co4 O14 1.931336 1_455
Co4 O7 1.970870 1_545
Co4 O7 1.970870 1_455
Co4 O11 2.291077 1_555
