# generated using pymatgen
data_Mn4ZnO8
_symmetry_space_group_name_H-M   'P 1'
_cell_length_a   6.07330506
_cell_length_b   6.07330506
_cell_length_c   6.07330529
_cell_angle_alpha   59.18445981
_cell_angle_beta   59.18445981
_cell_angle_gamma   59.18444951
_symmetry_Int_Tables_number   1
_chemical_formula_structural   Mn4ZnO8
_chemical_formula_sum   'Mn4 Zn1 O8'
_cell_volume   155.45832609
_cell_formula_units_Z   1
loop_
 _symmetry_equiv_pos_site_id
 _symmetry_equiv_pos_as_xyz
  1  'x, y, z'
loop_
 _atom_site_type_symbol
 _atom_site_label
 _atom_site_symmetry_multiplicity
 _atom_site_fract_x
 _atom_site_fract_y
 _atom_site_fract_z
 _atom_site_occupancy
  Mn  Mn0  1  0.00000000  0.50000000  0.50000000  1
  Mn  Mn1  1  0.50000000  0.00000000  0.50000000  1
  Mn  Mn2  1  0.50000000  0.50000000  0.00000000  1
  Mn  Mn3  1  0.00000000  0.00000000  0.00000000  1
  Zn  Zn0  1  0.50000000  0.50000000  0.50000000  1
  O  O0  1  0.29582400  0.74931000  0.74931000  1
  O  O1  1  0.25069000  0.25069000  0.70417600  1
  O  O2  1  0.70417600  0.25069000  0.25069000  1
  O  O3  1  0.25069000  0.70417600  0.25069000  1
  O  O4  1  0.26887600  0.26887600  0.26887600  1
  O  O5  1  0.73112400  0.73112400  0.73112400  1
  O  O6  1  0.74931000  0.29582400  0.74931000  1
  O  O7  1  0.74931000  0.74931000  0.29582400  1
loop_
_geom_bond_atom_site_label_1
_geom_bond_atom_site_label_2
_geom_bond_distance
_geom_bond_site_symmetry_2
Mn0 O1 1.948608 1_555
Mn0 O7 1.948608 1_455
Mn0 O3 1.948608 1_555
Mn0 O6 1.948608 1_455
Mn0 O4 1.982186 1_555
Mn0 O5 1.982186 1_455
Mn1 O1 1.948608 1_555
Mn1 O7 1.948608 1_545
Mn1 O2 1.948608 1_555
Mn1 O0 1.948608 1_545
Mn1 O4 1.982186 1_555
Mn1 O5 1.982186 1_545
Mn2 O2 1.948608 1_555
Mn2 O3 1.948608 1_555
Mn2 O0 1.948608 1_554
Mn2 O6 1.948608 1_554
Mn2 O4 1.982187 1_555
Mn2 O5 1.982187 1_554
Mn3 O6 2.152637 1_454
Mn3 O0 2.152637 1_544
Mn3 O3 2.152637 1_545
Mn3 O2 2.152637 1_455
Mn3 O7 2.152638 1_445
Mn3 O1 2.152638 1_554
O0 Zn0 2.150452 1_555
O1 Zn0 2.150452 1_555
O2 Zn0 2.150452 1_555
O3 Zn0 2.150452 1_555
O6 Zn0 2.150452 1_555
O7 Zn0 2.150452 1_555
