# generated using pymatgen
data_SrCa3Mn4O12
_symmetry_space_group_name_H-M   'P 1'
_cell_length_a   7.62199400
_cell_length_b   5.38807300
_cell_length_c   5.41459152
_cell_angle_alpha   89.83111524
_cell_angle_beta   90.00000000
_cell_angle_gamma   90.00000000
_symmetry_Int_Tables_number   1
_chemical_formula_structural   SrCa3Mn4O12
_chemical_formula_sum   'Sr1 Ca3 Mn4 O12'
_cell_volume   222.36472100
_cell_formula_units_Z   1
loop_
 _symmetry_equiv_pos_site_id
 _symmetry_equiv_pos_as_xyz
  1  'x, y, z'
loop_
 _atom_site_type_symbol
 _atom_site_label
 _atom_site_symmetry_multiplicity
 _atom_site_fract_x
 _atom_site_fract_y
 _atom_site_fract_z
 _atom_site_occupancy
  Sr  Sr0  1  0.00000000  0.50605100  0.47200000  1
  Ca  Ca0  1  0.50000000  0.00670600  0.03665200  1
  Ca  Ca1  1  0.50000000  0.49242500  0.53936400  1
  Ca  Ca2  1  0.00000000  0.99198600  0.96159400  1
  Mn  Mn0  1  0.25213700  0.50065200  0.00139600  1
  Mn  Mn1  1  0.25238900  0.99931500  0.50035500  1
  Mn  Mn2  1  0.74761100  0.99931500  0.50035500  1
  Mn  Mn3  1  0.74786300  0.50065200  0.00139600  1
  O  O0  1  0.29056600  0.28970700  0.28777200  1
  O  O1  1  0.21593900  0.79326200  0.20827900  1
  O  O2  1  0.71142100  0.21216800  0.78699600  1
  O  O3  1  0.77841500  0.71682400  0.71801500  1
  O  O4  1  0.22158500  0.71682400  0.71801500  1
  O  O5  1  0.28857900  0.21216800  0.78699600  1
  O  O6  1  0.78406100  0.79326200  0.20827900  1
  O  O7  1  0.70943400  0.28970700  0.28777200  1
  O  O8  1  0.50000000  0.92446300  0.47643600  1
  O  O9  1  0.00000000  0.42629600  0.00681800  1
  O  O10  1  0.50000000  0.57416800  0.97911700  1
  O  O11  1  0.00000000  0.05404700  0.52239200  1
loop_
_geom_bond_atom_site_label_1
_geom_bond_atom_site_label_2
_geom_bond_distance
_geom_bond_site_symmetry_2
Ca0 O10 2.352185 1_544
Ca0 O2 2.375041 1_554
Ca0 O5 2.375041 1_554
Ca0 O8 2.420847 1_545
Ca0 O0 2.595060 1_555
Ca0 O7 2.595060 1_555
Ca0 O1 2.620612 1_545
Ca0 O6 2.620612 1_545
Ca1 O8 2.351663 1_555
Ca1 O0 2.367650 1_555
Ca1 O7 2.367650 1_555
Ca1 O10 2.422751 1_555
Ca1 O2 2.581256 1_555
Ca1 O5 2.581256 1_555
Ca1 O3 2.628248 1_555
Ca1 O4 2.628248 1_555
Ca2 O9 2.353589 1_566
Ca2 O1 2.372990 1_556
Ca2 O6 2.372990 1_456
Ca2 O11 2.400518 1_565
Ca2 O4 2.607969 1_555
Ca2 O3 2.607969 1_455
Ca2 O5 2.670688 1_565
Ca2 O2 2.670688 1_465
Mn0 O10 1.933983 1_554
Mn0 O4 1.937704 1_554
Mn0 O0 1.942067 1_555
Mn0 O1 1.956280 1_555
Mn0 O5 1.962530 1_554
Mn0 O9 1.963305 1_555
Mn1 O8 1.934322 1_555
Mn1 O4 1.936554 1_555
Mn1 O11 1.949888 1_565
Mn1 O5 1.952108 1_565
Mn1 O1 1.954788 1_555
Mn1 O0 1.961405 1_565
Mn2 O8 1.934322 1_555
Mn2 O3 1.936554 1_555
Mn2 O11 1.949888 1_665
Mn2 O2 1.952108 1_565
Mn2 O6 1.954788 1_555
Mn2 O7 1.961405 1_565
Mn3 O10 1.933983 1_554
Mn3 O3 1.937704 1_554
Mn3 O7 1.942067 1_555
Mn3 O6 1.956280 1_555
Mn3 O2 1.962530 1_554
Mn3 O9 1.963305 1_655
O0 Sr0 2.695471 1_555
O1 Sr0 2.670155 1_555
O3 Sr0 2.434236 1_655
O4 Sr0 2.434236 1_555
O6 Sr0 2.670155 1_655
O7 Sr0 2.695471 1_655
O9 Sr0 2.556413 1_555
O11 Sr0 2.449868 1_555
