# generated using pymatgen
data_YMg14Mn
_symmetry_space_group_name_H-M   'P 1'
_cell_length_a   6.44458498
_cell_length_b   6.44458444
_cell_length_c   10.27680146
_cell_angle_alpha   90.00000000
_cell_angle_beta   90.00000000
_cell_angle_gamma   120.00000275
_symmetry_Int_Tables_number   1
_chemical_formula_structural   YMg14Mn
_chemical_formula_sum   'Y1 Mg14 Mn1'
_cell_volume   369.63957261
_cell_formula_units_Z   1
loop_
 _symmetry_equiv_pos_site_id
 _symmetry_equiv_pos_as_xyz
  1  'x, y, z'
loop_
 _atom_site_type_symbol
 _atom_site_label
 _atom_site_symmetry_multiplicity
 _atom_site_fract_x
 _atom_site_fract_y
 _atom_site_fract_z
 _atom_site_occupancy
  Y  Y0  1  0.16666700  0.33333300  0.62500000  1
  Mg  Mg0  1  0.16543328  0.83271614  0.12500000  1
  Mg  Mg1  1  0.17819571  0.83909736  0.62500000  1
  Mg  Mg2  1  0.66728386  0.33456672  0.12500000  1
  Mg  Mg3  1  0.66090264  0.32180429  0.62500000  1
  Mg  Mg4  1  0.66728386  0.83271614  0.12500000  1
  Mg  Mg5  1  0.66090264  0.83909736  0.62500000  1
  Mg  Mg6  1  0.33142975  0.16857025  0.36544667  1
  Mg  Mg7  1  0.33142975  0.16857025  0.88455333  1
  Mg  Mg8  1  0.33142975  0.66286050  0.36544667  1
  Mg  Mg9  1  0.33142975  0.66286050  0.88455333  1
  Mg  Mg10  1  0.83713950  0.16857025  0.36544667  1
  Mg  Mg11  1  0.83713950  0.16857025  0.88455333  1
  Mg  Mg12  1  0.83333300  0.66666700  0.37976951  1
  Mg  Mg13  1  0.83333300  0.66666700  0.87023049  1
  Mn  Mn0  1  0.16666700  0.33333300  0.12500000  1
loop_
_geom_bond_atom_site_label_1
_geom_bond_atom_site_label_2
_geom_bond_distance
_geom_bond_site_symmetry_2
Mg0 Mg8 3.101559 1_555
Mg0 Mg9 3.101559 1_554
Mg0 Mg6 3.101566 1_565
Mg0 Mg7 3.101566 1_564
Mg0 Mg12 3.207889 1_455
Mg0 Mg13 3.207889 1_454
Mg0 Mg2 3.210366 1_455
Mg0 Mg4 3.210366 1_455
Mg0 Mn0 3.222300 1_565
Mg0 Mn0 3.222300 1_555
Mg0 Mg2 3.234218 1_565
Mg0 Mg4 3.234219 1_555
Mg1 Mg3 3.110846 1_565
Mg1 Mg5 3.110846 1_555
Mg1 Mg12 3.171112 1_455
Mg1 Mg13 3.171112 1_455
Mg1 Y0 3.222935 1_565
Mg1 Y0 3.222935 1_555
Mg1 Mg8 3.240634 1_555
Mg1 Mg9 3.240634 1_555
Mg1 Mg6 3.240641 1_565
Mg1 Mg7 3.240641 1_565
Mg1 Mg3 3.333739 1_455
Mg1 Mg5 3.333739 1_455
Mg2 Mg7 3.101566 1_554
Mg2 Mg6 3.101566 1_555
Mg2 Mg4 3.210366 1_555
Mg2 Mn0 3.222300 1_555
Mg2 Mn0 3.222300 1_655
Mg2 Mg4 3.234218 1_545
Mg3 Mg5 3.110846 1_545
Mg3 Y0 3.222935 1_555
Mg3 Y0 3.222935 1_655
Mg3 Mg6 3.240641 1_555
Mg3 Mg7 3.240641 1_555
Mg3 Mg5 3.333739 1_555
Mg4 Mg8 3.101566 1_555
Mg4 Mg9 3.101566 1_554
Mg4 Mn0 3.222300 1_665
Mg4 Mn0 3.222300 1_555
Mg5 Y0 3.222935 1_555
Mg5 Y0 3.222935 1_665
Mg5 Mg8 3.240641 1_555
Mg5 Mg9 3.240641 1_555
Mg6 Mn0 3.080322 1_555
Mg6 Mg8 3.185495 1_555
Mg6 Y0 3.239960 1_555
Mg6 Mg8 3.259089 1_545
Mg7 Mn0 3.080322 1_556
Mg7 Mg9 3.185495 1_555
Mg7 Y0 3.239960 1_555
Mg7 Mg9 3.259089 1_545
Mg8 Mn0 3.080329 1_555
Mg8 Y0 3.239966 1_555
Mg9 Mn0 3.080329 1_556
Mg9 Y0 3.239966 1_555
Mg10 Mn0 3.080329 1_655
Mg10 Mg2 3.101559 1_555
Mg10 Mg4 3.101565 1_545
Mg10 Mg8 3.185495 1_655
Mg10 Mg6 3.185496 1_655
Mg10 Mg12 3.225722 1_545
Mg10 Mg12 3.225722 1_555
Mg10 Y0 3.239966 1_655
Mg10 Mg3 3.240634 1_555
Mg10 Mg5 3.240641 1_545
Mg10 Mg8 3.259089 1_545
Mg10 Mg6 3.259089 1_555
Mg11 Mn0 3.080329 1_656
Mg11 Mg2 3.101559 1_556
Mg11 Mg4 3.101565 1_546
Mg11 Mg9 3.185495 1_655
Mg11 Mg7 3.185496 1_655
Mg11 Mg13 3.225722 1_545
Mg11 Mg13 3.225722 1_555
Mg11 Y0 3.239966 1_655
Mg11 Mg3 3.240634 1_555
Mg11 Mg5 3.240641 1_545
Mg11 Mg9 3.259089 1_545
Mg11 Mg7 3.259089 1_555
Mg12 Mg5 3.171105 1_555
Mg12 Mg3 3.171112 1_555
Mg12 Mg4 3.207882 1_555
Mg12 Mg2 3.207889 1_555
Mg12 Mg6 3.225722 1_665
Mg12 Mg6 3.225722 1_555
Mg12 Mg8 3.225723 1_555
Mg12 Mg8 3.225723 1_655
Mg13 Mg5 3.171105 1_555
Mg13 Mg3 3.171112 1_555
Mg13 Mg4 3.207882 1_556
Mg13 Mg2 3.207889 1_556
Mg13 Mg7 3.225722 1_665
Mg13 Mg7 3.225722 1_555
Mg13 Mg9 3.225723 1_555
Mg13 Mg9 3.225723 1_655
