# generated using pymatgen
data_CsUTe6
_symmetry_space_group_name_H-M   'P 1'
_cell_length_a   8.28274300
_cell_length_b   9.50651000
_cell_length_c   31.60179800
_cell_angle_alpha   90.00000000
_cell_angle_beta   90.00000000
_cell_angle_gamma   90.00000000
_symmetry_Int_Tables_number   1
_chemical_formula_structural   CsUTe6
_chemical_formula_sum   'Cs8 U8 Te48'
_cell_volume   2488.32491584
_cell_formula_units_Z   8
loop_
 _symmetry_equiv_pos_site_id
 _symmetry_equiv_pos_as_xyz
  1  'x, y, z'
loop_
 _atom_site_type_symbol
 _atom_site_label
 _atom_site_symmetry_multiplicity
 _atom_site_fract_x
 _atom_site_fract_y
 _atom_site_fract_z
 _atom_site_occupancy
  Cs  Cs0  1  0.25000000  0.08627500  0.53858700  1
  Cs  Cs1  1  0.25000000  0.41372500  0.03858700  1
  Cs  Cs2  1  0.75000000  0.91372500  0.46141300  1
  Cs  Cs3  1  0.75000000  0.58627500  0.96141300  1
  Cs  Cs4  1  0.25000000  0.60380900  0.79379600  1
  Cs  Cs5  1  0.25000000  0.89619100  0.29379600  1
  Cs  Cs6  1  0.75000000  0.39619100  0.20620400  1
  Cs  Cs7  1  0.75000000  0.10380900  0.70620400  1
  U  U0  1  0.25000000  0.09920400  0.87612700  1
  U  U1  1  0.25000000  0.40079600  0.37612700  1
  U  U2  1  0.75000000  0.90079600  0.12387300  1
  U  U3  1  0.75000000  0.59920400  0.62387300  1
  U  U4  1  0.25000000  0.88087600  0.12378400  1
  U  U5  1  0.25000000  0.61912400  0.62378400  1
  U  U6  1  0.75000000  0.11912400  0.87621600  1
  U  U7  1  0.75000000  0.38087600  0.37621600  1
  Te  Te0  1  0.01284300  0.35478600  0.62146500  1
  Te  Te1  1  0.48715700  0.14521400  0.12146500  1
  Te  Te2  1  0.51284300  0.64521400  0.37853500  1
  Te  Te3  1  0.98715700  0.85478600  0.87853500  1
  Te  Te4  1  0.98715700  0.64521400  0.37853500  1
  Te  Te5  1  0.51284300  0.85478600  0.87853500  1
  Te  Te6  1  0.48715700  0.35478600  0.62146500  1
  Te  Te7  1  0.01284300  0.14521400  0.12146500  1
  Te  Te8  1  0.00319400  0.23392400  0.80981600  1
  Te  Te9  1  0.49680600  0.26607600  0.30981600  1
  Te  Te10  1  0.50319400  0.76607600  0.19018400  1
  Te  Te11  1  0.99680600  0.73392400  0.69018400  1
  Te  Te12  1  0.99680600  0.76607600  0.19018400  1
  Te  Te13  1  0.50319400  0.73392400  0.69018400  1
  Te  Te14  1  0.49680600  0.23392400  0.80981600  1
  Te  Te15  1  0.00319400  0.26607600  0.30981600  1
  Te  Te16  1  0.00692700  0.22763600  0.94176900  1
  Te  Te17  1  0.49307300  0.27236400  0.44176900  1
  Te  Te18  1  0.50692700  0.77236400  0.05823100  1
  Te  Te19  1  0.99307300  0.72763600  0.55823100  1
  Te  Te20  1  0.99307300  0.77236400  0.05823100  1
  Te  Te21  1  0.50692700  0.72763600  0.55823100  1
  Te  Te22  1  0.49307300  0.22763600  0.94176900  1
  Te  Te23  1  0.00692700  0.27236400  0.44176900  1
  Te  Te24  1  0.25000000  0.49910300  0.53118600  1
  Te  Te25  1  0.25000000  0.00089700  0.03118600  1
  Te  Te26  1  0.75000000  0.50089700  0.46881400  1
  Te  Te27  1  0.75000000  0.99910300  0.96881400  1
  Te  Te28  1  0.25000000  0.92606500  0.65184900  1
  Te  Te29  1  0.25000000  0.57393500  0.15184900  1
  Te  Te30  1  0.75000000  0.07393500  0.34815100  1
  Te  Te31  1  0.75000000  0.42606500  0.84815100  1
  Te  Te32  1  0.25000000  0.37061400  0.68974300  1
  Te  Te33  1  0.25000000  0.12938600  0.18974300  1
  Te  Te34  1  0.75000000  0.62938600  0.31025700  1
  Te  Te35  1  0.75000000  0.87061400  0.81025700  1
  Te  Te36  1  0.25000000  0.01939600  0.78241000  1
  Te  Te37  1  0.25000000  0.48060400  0.28241000  1
  Te  Te38  1  0.75000000  0.98060400  0.21759000  1
  Te  Te39  1  0.75000000  0.51939600  0.71759000  1
  Te  Te40  1  0.25000000  0.41969800  0.90625500  1
  Te  Te41  1  0.25000000  0.08030200  0.40625500  1
  Te  Te42  1  0.75000000  0.58030200  0.09374500  1
  Te  Te43  1  0.75000000  0.91969800  0.59374500  1
  Te  Te44  1  0.25000000  0.85745100  0.94773900  1
  Te  Te45  1  0.25000000  0.64254900  0.44773900  1
  Te  Te46  1  0.75000000  0.14254900  0.05226100  1
  Te  Te47  1  0.75000000  0.35745100  0.55226100  1
loop_
_geom_bond_atom_site_label_1
_geom_bond_atom_site_label_2
_geom_bond_distance
_geom_bond_site_symmetry_2
Cs0 Te28 3.889847 1_545
Cs0 Te24 3.931517 1_555
Cs0 Te21 4.066701 1_545
Cs0 Te19 4.066701 1_445
Cs0 Te23 4.067466 1_555
Cs0 Te17 4.067466 1_555
Cs0 Te6 4.151379 1_555
Cs0 Te0 4.151379 1_555
Cs0 Te41 4.182315 1_555
Cs1 Te29 3.889847 1_555
Cs1 Te25 3.931517 1_555
Cs1 Te20 4.066701 1_455
Cs1 Te18 4.066701 1_555
Cs1 Te22 4.067466 1_554
Cs1 Te16 4.067466 1_554
Cs1 Te1 4.151379 1_555
Cs1 Te7 4.151379 1_555
Cs1 Te40 4.182315 1_554
Cs2 Te30 3.889847 1_565
Cs2 Te26 3.931517 1_555
Cs2 Te23 4.066701 1_665
Cs2 Te17 4.066701 1_565
Cs2 Te21 4.067466 1_555
Cs2 Te19 4.067466 1_555
Cs2 Te4 4.151379 1_555
Cs2 Te2 4.151379 1_555
Cs2 Te43 4.182315 1_555
Cs3 Te31 3.889847 1_555
Cs3 Te27 3.931517 1_555
Cs3 Te16 4.066701 1_655
Cs3 Te22 4.066701 1_555
Cs3 Te18 4.067466 1_556
Cs3 Te20 4.067466 1_556
Cs3 Te3 4.151379 1_555
Cs3 Te5 4.151379 1_555
Cs3 Te42 4.182315 1_556
Cs4 Te40 3.961520 1_555
Cs4 Te32 3.965751 1_555
Cs4 Te36 3.967133 1_565
Cs4 Te13 4.080346 1_555
Cs4 Te11 4.080346 1_455
Cs4 Te8 4.098738 1_555
Cs4 Te14 4.098738 1_555
Cs4 Te3 4.195636 1_455
Cs4 Te5 4.195636 1_555
Cs5 Te41 3.961520 1_565
Cs5 Te33 3.965751 1_565
Cs5 Te37 3.967133 1_555
Cs5 Te10 4.080346 1_555
Cs5 Te12 4.080346 1_455
Cs5 Te9 4.098738 1_565
Cs5 Te15 4.098738 1_565
Cs5 Te4 4.195636 1_455
Cs5 Te2 4.195636 1_555
Cs6 Te42 3.961520 1_555
Cs6 Te34 3.965751 1_555
Cs6 Te38 3.967133 1_545
Cs6 Te9 4.080346 1_555
Cs6 Te15 4.080346 1_655
Cs6 Te12 4.098738 1_555
Cs6 Te10 4.098738 1_555
Cs6 Te1 4.195636 1_555
Cs6 Te7 4.195636 1_655
Cs7 Te43 3.961520 1_545
Cs7 Te35 3.965751 1_545
Cs7 Te39 3.967133 1_555
Cs7 Te14 4.080346 1_555
Cs7 Te8 4.080346 1_655
Cs7 Te11 4.098738 1_545
Cs7 Te13 4.098738 1_545
Cs7 Te0 4.195636 1_655
Cs7 Te6 4.195636 1_555
Te0 Te32 2.921790 1_555
Te0 Te47 3.085948 1_455
Te0 U3 3.185016 1_455
Te0 U5 3.190409 1_555
Te1 Te33 2.921790 1_555
Te1 Te46 3.085948 1_555
Te1 U2 3.185016 1_545
Te1 U4 3.190409 1_545
Te2 Te34 2.921790 1_555
Te2 Te45 3.085948 1_555
Te2 U1 3.185016 1_555
Te2 U7 3.190409 1_555
Te3 Te35 2.921790 1_555
Te3 Te44 3.085948 1_655
Te3 U0 3.185016 1_665
Te3 U6 3.190409 1_565
Te4 Te45 3.085948 1_655
Te4 U1 3.185016 1_655
Te4 U7 3.190409 1_555
Te5 U0 3.185016 1_565
Te5 U6 3.190409 1_565
Te6 U3 3.185016 1_555
Te6 U5 3.190409 1_555
Te7 U2 3.185016 1_445
Te7 U4 3.190409 1_545
Te8 U6 3.161036 1_455
Te8 U0 3.195377 1_555
Te9 U7 3.161036 1_555
Te9 U1 3.195377 1_555
Te10 Te38 3.014660 1_555
Te10 Te29 3.033489 1_555
Te10 U4 3.161036 1_555
Te10 U2 3.195377 1_555
Te11 Te39 3.014660 1_555
Te11 Te28 3.033489 1_655
Te11 U5 3.161036 1_655
Te11 U3 3.195377 1_555
Te12 Te38 3.014660 1_555
Te12 Te29 3.033489 1_655
Te12 U4 3.161036 1_655
Te12 U2 3.195377 1_555
Te13 Te39 3.014660 1_555
Te13 Te28 3.033489 1_555
Te13 U5 3.161036 1_555
Te13 U3 3.195377 1_555
Te14 Te36 3.014660 1_555
Te14 Te31 3.033489 1_555
Te14 U6 3.161036 1_555
Te14 U0 3.195377 1_555
Te15 Te37 3.014660 1_555
Te15 Te30 3.033489 1_455
Te15 U7 3.161036 1_455
Te15 U1 3.195377 1_555
Te16 Te40 2.940524 1_555
Te16 U0 3.138037 1_555
Te16 U6 3.143927 1_455
Te16 Te27 3.158968 1_445
Te17 Te41 2.940524 1_555
Te17 U1 3.138037 1_555
Te17 U7 3.143927 1_555
Te17 Te26 3.158968 1_555
Te18 Te42 2.940524 1_555
Te18 U2 3.138037 1_555
Te18 U4 3.143927 1_555
Te18 Te25 3.158968 1_565
Te19 Te43 2.940524 1_555
Te19 U3 3.138037 1_555
Te19 U5 3.143927 1_655
Te19 Te24 3.158968 1_655
Te20 Te42 2.940524 1_555
Te20 U2 3.138037 1_555
Te20 U4 3.143927 1_655
Te20 Te25 3.158968 1_665
Te21 Te43 2.940524 1_555
Te21 U3 3.138037 1_555
Te21 U5 3.143927 1_555
Te21 Te24 3.158968 1_555
Te22 Te40 2.940524 1_555
Te22 U0 3.138037 1_555
Te22 U6 3.143927 1_555
Te22 Te27 3.158968 1_545
Te23 Te41 2.940524 1_555
Te23 U1 3.138037 1_555
Te23 U7 3.143927 1_455
Te23 Te26 3.158968 1_455
Te24 Te45 2.968798 1_555
Te24 U5 3.140837 1_555
Te25 Te44 2.968798 1_544
Te25 U4 3.140837 1_545
Te26 Te47 2.968798 1_555
Te26 U7 3.140837 1_555
Te27 Te46 2.968798 1_566
Te27 U6 3.140837 1_565
Te28 U5 3.049748 1_555
Te29 U4 3.049748 1_555
Te30 Te9 3.033489 1_555
Te30 U7 3.049748 1_555
Te31 Te8 3.033489 1_655
Te31 U6 3.049748 1_555
Te32 Te6 2.921790 1_555
Te32 U5 3.150563 1_555
Te33 Te7 2.921790 1_555
Te33 U4 3.150563 1_545
Te34 Te4 2.921790 1_555
Te34 U7 3.150563 1_555
Te35 Te5 2.921790 1_555
Te35 U6 3.150563 1_565
Te36 Te8 3.014660 1_555
Te36 U0 3.057261 1_555
Te37 Te9 3.014660 1_555
Te37 U1 3.057261 1_555
Te38 U2 3.057261 1_555
Te39 U3 3.057261 1_555
Te40 U0 3.192077 1_555
Te41 U1 3.192077 1_555
Te42 U2 3.192077 1_555
Te43 U3 3.192077 1_555
Te44 Te5 3.085948 1_555
Te44 U0 3.225419 1_565
Te45 U1 3.225419 1_555
Te46 Te7 3.085948 1_655
Te46 U2 3.225419 1_545
Te47 Te6 3.085948 1_555
Te47 U3 3.225419 1_555
