# generated using pymatgen
data_ScCuGe
_symmetry_space_group_name_H-M   'P 1'
_cell_length_a   4.19814200
_cell_length_b   6.87859611
_cell_length_c   6.87859611
_cell_angle_alpha   120.00000101
_cell_angle_beta   90.00000000
_cell_angle_gamma   90.00000000
_symmetry_Int_Tables_number   1
_chemical_formula_structural   ScCuGe
_chemical_formula_sum   'Sc3 Cu3 Ge3'
_cell_volume   172.02333795
_cell_formula_units_Z   3
loop_
 _symmetry_equiv_pos_site_id
 _symmetry_equiv_pos_as_xyz
  1  'x, y, z'
loop_
 _atom_site_type_symbol
 _atom_site_label
 _atom_site_symmetry_multiplicity
 _atom_site_fract_x
 _atom_site_fract_y
 _atom_site_fract_z
 _atom_site_occupancy
  Sc  Sc0  1  0.50000000  0.66666700  0.33333300  1
  Sc  Sc1  1  0.50000000  0.33333300  0.66666700  1
  Sc  Sc2  1  0.00000000  0.00000000  0.00000000  1
  Cu  Cu0  1  0.00000000  0.40719400  0.40719400  1
  Cu  Cu1  1  0.00000000  0.00000000  0.59280600  1
  Cu  Cu2  1  0.00000000  0.59280600  0.00000000  1
  Ge  Ge0  1  0.50000000  0.75380800  0.75380800  1
  Ge  Ge1  1  0.50000000  0.00000000  0.24619200  1
  Ge  Ge2  1  0.50000000  0.24619200  0.00000000  1
loop_
_geom_bond_atom_site_label_1
_geom_bond_atom_site_label_2
_geom_bond_distance
_geom_bond_site_symmetry_2
Cu0 Sc2 2.800923 1_555
Cu0 Sc0 2.959149 1_555
Cu0 Sc1 2.959149 1_555
Cu0 Sc1 2.959149 1_455
Cu0 Sc0 2.959149 1_455
Cu1 Sc2 2.800923 1_556
Cu1 Sc1 2.959144 1_555
Cu1 Sc1 2.959144 1_455
Cu1 Sc0 2.959145 1_545
Cu1 Sc0 2.959145 1_445
Cu2 Sc2 2.800923 1_565
Cu2 Sc0 2.959144 1_455
Cu2 Sc0 2.959144 1_555
Cu2 Sc1 2.959145 1_554
Cu2 Sc1 2.959145 1_454
Ge0 Sc0 2.644032 1_555
Ge0 Sc1 2.644032 1_555
Ge0 Sc2 2.697015 1_666
Ge0 Sc2 2.697015 1_566
Ge1 Sc0 2.644025 1_545
Ge1 Sc1 2.644030 1_555
Ge1 Sc2 2.697015 1_555
Ge1 Sc2 2.697015 1_655
Ge2 Sc1 2.644025 1_554
Ge2 Sc0 2.644030 1_555
Ge2 Sc2 2.697015 1_655
Ge2 Sc2 2.697015 1_555
