# generated using pymatgen
data_Tb(CuSe)3
_symmetry_space_group_name_H-M   'P 1'
_cell_length_a   7.73699964
_cell_length_b   7.73699964
_cell_length_c   7.73699950
_cell_angle_alpha   53.75852111
_cell_angle_beta   53.75852111
_cell_angle_gamma   53.75851431
_symmetry_Int_Tables_number   1
_chemical_formula_structural   Tb(CuSe)3
_chemical_formula_sum   'Tb2 Cu6 Se6'
_cell_volume   279.70784379
_cell_formula_units_Z   2
loop_
 _symmetry_equiv_pos_site_id
 _symmetry_equiv_pos_as_xyz
  1  'x, y, z'
loop_
 _atom_site_type_symbol
 _atom_site_label
 _atom_site_symmetry_multiplicity
 _atom_site_fract_x
 _atom_site_fract_y
 _atom_site_fract_z
 _atom_site_occupancy
  Tb  Tb0  1  0.83358800  0.83358800  0.83358800  1
  Tb  Tb1  1  0.16641200  0.16641200  0.16641200  1
  Cu  Cu0  1  0.72126000  0.37482600  0.03202800  1
  Cu  Cu1  1  0.03202800  0.72126000  0.37482600  1
  Cu  Cu2  1  0.37482600  0.03202800  0.72126000  1
  Cu  Cu3  1  0.62517400  0.96797200  0.27874000  1
  Cu  Cu4  1  0.96797200  0.27874000  0.62517400  1
  Cu  Cu5  1  0.27874000  0.62517400  0.96797200  1
  Se  Se0  1  0.25567600  0.91122500  0.58189700  1
  Se  Se1  1  0.91122500  0.58189700  0.25567600  1
  Se  Se2  1  0.58189700  0.25567600  0.91122500  1
  Se  Se3  1  0.41810300  0.74432400  0.08877500  1
  Se  Se4  1  0.08877500  0.41810300  0.74432400  1
  Se  Se5  1  0.74432400  0.08877500  0.41810300  1
loop_
_geom_bond_atom_site_label_1
_geom_bond_atom_site_label_2
_geom_bond_distance
_geom_bond_site_symmetry_2
Cu0 Se4 2.431661 1_654
Cu0 Se5 2.489825 1_555
Cu0 Se3 2.491015 1_555
Cu0 Se2 2.504331 1_554
Cu1 Se5 2.431661 1_465
Cu1 Se3 2.489825 1_555
Cu1 Se4 2.491015 1_555
Cu1 Se1 2.504331 1_455
Cu2 Se3 2.431661 1_546
Cu2 Se4 2.489825 1_555
Cu2 Se5 2.491015 1_555
Cu2 Se0 2.504331 1_545
Cu3 Se2 2.431661 1_564
Cu3 Se1 2.489825 1_555
Cu3 Se0 2.491015 1_555
Cu3 Se5 2.504331 1_565
Cu4 Se0 2.431661 1_645
Cu4 Se2 2.489825 1_555
Cu4 Se1 2.491015 1_555
Cu4 Se4 2.504331 1_655
Cu5 Se1 2.431661 1_456
Cu5 Se0 2.489825 1_555
Cu5 Se2 2.491015 1_555
Cu5 Se3 2.504331 1_556
Se0 Tb1 2.866570 1_565
Se0 Tb0 2.869634 1_455
Se1 Tb1 2.866569 1_655
Se1 Tb0 2.869634 1_554
Se2 Tb1 2.866570 1_556
Se2 Tb0 2.869634 1_545
Se3 Tb0 2.866570 1_554
Se3 Tb1 2.869634 1_565
Se4 Tb0 2.866569 1_455
Se4 Tb1 2.869634 1_556
Se5 Tb0 2.866570 1_545
Se5 Tb1 2.869634 1_655
