# generated using pymatgen
data_Mn3Si
_symmetry_space_group_name_H-M   'P 1'
_cell_length_a   5.58240200
_cell_length_b   5.58240200
_cell_length_c   11.36866800
_cell_angle_alpha   90.00000000
_cell_angle_beta   90.00000000
_cell_angle_gamma   90.00000000
_symmetry_Int_Tables_number   1
_chemical_formula_structural   Mn3Si
_chemical_formula_sum   'Mn24 Si8'
_cell_volume   354.28421206
_cell_formula_units_Z   8
loop_
 _symmetry_equiv_pos_site_id
 _symmetry_equiv_pos_as_xyz
  1  'x, y, z'
loop_
 _atom_site_type_symbol
 _atom_site_label
 _atom_site_symmetry_multiplicity
 _atom_site_fract_x
 _atom_site_fract_y
 _atom_site_fract_z
 _atom_site_occupancy
  Mn  Mn0_0  1  0.00000000  0.00000000  0.37327550  1
  Mn  Mn0_1  1  0.00000000  0.00000000  0.87327550  1
  Mn  Mn0_2  1  0.00000000  0.50000000  0.37327550  1
  Mn  Mn0_3  1  0.00000000  0.50000000  0.87327550  1
  Mn  Mn0_4  1  0.50000000  0.00000000  0.37327550  1
  Mn  Mn0_5  1  0.50000000  0.00000000  0.87327550  1
  Mn  Mn0_6  1  0.50000000  0.50000000  0.37327550  1
  Mn  Mn0_7  1  0.50000000  0.50000000  0.87327550  1
  Mn  Mn1_0  1  0.00000000  0.00000000  0.12672450  1
  Mn  Mn1_1  1  0.00000000  0.00000000  0.62672450  1
  Mn  Mn1_2  1  0.00000000  0.50000000  0.12672450  1
  Mn  Mn1_3  1  0.00000000  0.50000000  0.62672450  1
  Mn  Mn1_4  1  0.50000000  0.00000000  0.12672450  1
  Mn  Mn1_5  1  0.50000000  0.00000000  0.62672450  1
  Mn  Mn1_6  1  0.50000000  0.50000000  0.12672450  1
  Mn  Mn1_7  1  0.50000000  0.50000000  0.62672450  1
  Mn  Mn2_0  1  0.25000000  0.25000000  0.00000000  1
  Mn  Mn2_1  1  0.25000000  0.25000000  0.50000000  1
  Mn  Mn2_2  1  0.25000000  0.75000000  0.00000000  1
  Mn  Mn2_3  1  0.25000000  0.75000000  0.50000000  1
  Mn  Mn2_4  1  0.75000000  0.25000000  0.00000000  1
  Mn  Mn2_5  1  0.75000000  0.25000000  0.50000000  1
  Mn  Mn2_6  1  0.75000000  0.75000000  0.00000000  1
  Mn  Mn2_7  1  0.75000000  0.75000000  0.50000000  1
  Si  Si0_0  1  0.25000000  0.25000000  0.25000000  1
  Si  Si0_1  1  0.25000000  0.25000000  0.75000000  1
  Si  Si0_2  1  0.25000000  0.75000000  0.25000000  1
  Si  Si0_3  1  0.25000000  0.75000000  0.75000000  1
  Si  Si0_4  1  0.75000000  0.25000000  0.25000000  1
  Si  Si0_5  1  0.75000000  0.25000000  0.75000000  1
  Si  Si0_6  1  0.75000000  0.75000000  0.25000000  1
  Si  Si0_7  1  0.75000000  0.75000000  0.75000000  1
loop_
_geom_bond_atom_site_label_1
_geom_bond_atom_site_label_2
_geom_bond_distance
_geom_bond_site_symmetry_2
Mn0_0 Si0_0 2.420649 1_555
Mn0_0 Si0_2 2.420649 1_545
Mn0_0 Si0_4 2.420649 1_455
Mn0_0 Si0_6 2.420649 1_445
Mn0_0 Mn2_1 2.443560 1_555
Mn0_0 Mn2_3 2.443560 1_545
Mn0_0 Mn2_5 2.443560 1_455
Mn0_0 Mn2_7 2.443560 1_445
Mn0_1 Si0_1 2.420649 1_555
Mn0_1 Si0_5 2.420649 1_455
Mn0_1 Si0_3 2.420649 1_545
Mn0_1 Si0_7 2.420649 1_445
Mn0_1 Mn2_0 2.443560 1_556
Mn0_1 Mn2_2 2.443560 1_546
Mn0_1 Mn2_4 2.443560 1_456
Mn0_1 Mn2_6 2.443560 1_446
Mn0_2 Si0_6 2.420649 1_455
Mn0_2 Si0_2 2.420649 1_555
Mn0_2 Si0_0 2.420649 1_555
Mn0_2 Si0_4 2.420649 1_455
Mn0_2 Mn2_3 2.443560 1_555
Mn0_2 Mn2_7 2.443560 1_455
Mn0_2 Mn2_1 2.443560 1_555
Mn0_2 Mn2_5 2.443560 1_455
Mn0_3 Si0_3 2.420649 1_555
Mn0_3 Si0_7 2.420649 1_455
Mn0_3 Si0_1 2.420649 1_555
Mn0_3 Si0_5 2.420649 1_455
Mn0_3 Mn2_2 2.443560 1_556
Mn0_3 Mn2_6 2.443560 1_456
Mn0_3 Mn2_0 2.443560 1_556
Mn0_3 Mn2_4 2.443560 1_456
Mn0_4 Si0_6 2.420649 1_545
Mn0_4 Si0_4 2.420649 1_555
Mn0_4 Si0_0 2.420649 1_555
Mn0_4 Si0_2 2.420649 1_545
Mn0_4 Mn2_5 2.443560 1_555
Mn0_4 Mn2_1 2.443560 1_555
Mn0_4 Mn2_7 2.443560 1_545
Mn0_4 Mn2_3 2.443560 1_545
Mn0_5 Si0_5 2.420649 1_555
Mn0_5 Si0_7 2.420649 1_545
Mn0_5 Si0_1 2.420649 1_555
Mn0_5 Si0_3 2.420649 1_545
Mn0_5 Mn2_4 2.443560 1_556
Mn0_5 Mn2_6 2.443560 1_546
Mn0_5 Mn2_0 2.443560 1_556
Mn0_5 Mn2_2 2.443560 1_546
Mn0_6 Si0_6 2.420649 1_555
Mn0_6 Si0_4 2.420649 1_555
Mn0_6 Si0_2 2.420649 1_555
Mn0_6 Si0_0 2.420649 1_555
Mn0_6 Mn2_7 2.443560 1_555
Mn0_6 Mn2_5 2.443560 1_555
Mn0_6 Mn2_3 2.443560 1_555
Mn0_6 Mn2_1 2.443560 1_555
Mn0_7 Si0_7 2.420649 1_555
Mn0_7 Si0_5 2.420649 1_555
Mn0_7 Si0_3 2.420649 1_555
Mn0_7 Si0_1 2.420649 1_555
Mn0_7 Mn2_6 2.443560 1_556
Mn0_7 Mn2_2 2.443560 1_556
Mn0_7 Mn2_4 2.443560 1_556
Mn0_7 Mn2_0 2.443560 1_556
Mn1_0 Si0_0 2.420649 1_555
Mn1_0 Si0_2 2.420649 1_545
Mn1_0 Si0_4 2.420649 1_455
Mn1_0 Si0_6 2.420649 1_445
Mn1_0 Mn2_0 2.443560 1_555
Mn1_0 Mn2_2 2.443560 1_545
Mn1_0 Mn2_4 2.443560 1_455
Mn1_0 Mn2_6 2.443560 1_445
Mn1_1 Si0_1 2.420649 1_555
Mn1_1 Si0_5 2.420649 1_455
Mn1_1 Si0_3 2.420649 1_545
Mn1_1 Si0_7 2.420649 1_445
Mn1_1 Mn2_1 2.443560 1_555
Mn1_1 Mn2_5 2.443560 1_455
Mn1_1 Mn2_3 2.443560 1_545
Mn1_1 Mn2_7 2.443560 1_445
Mn1_2 Si0_2 2.420649 1_555
Mn1_2 Si0_6 2.420649 1_455
Mn1_2 Si0_0 2.420649 1_555
Mn1_2 Si0_4 2.420649 1_455
Mn1_2 Mn2_2 2.443560 1_555
Mn1_2 Mn2_6 2.443560 1_455
Mn1_2 Mn2_0 2.443560 1_555
Mn1_2 Mn2_4 2.443560 1_455
Mn1_3 Si0_3 2.420649 1_555
Mn1_3 Si0_7 2.420649 1_455
Mn1_3 Si0_1 2.420649 1_555
Mn1_3 Si0_5 2.420649 1_455
Mn1_3 Mn2_3 2.443560 1_555
Mn1_3 Mn2_7 2.443560 1_455
Mn1_3 Mn2_1 2.443560 1_555
Mn1_3 Mn2_5 2.443560 1_455
Mn1_4 Si0_4 2.420649 1_555
Mn1_4 Si0_6 2.420649 1_545
Mn1_4 Si0_0 2.420649 1_555
Mn1_4 Si0_2 2.420649 1_545
Mn1_4 Mn2_4 2.443560 1_555
Mn1_4 Mn2_6 2.443560 1_545
Mn1_4 Mn2_0 2.443560 1_555
Mn1_4 Mn2_2 2.443560 1_545
Mn1_5 Si0_5 2.420649 1_555
Mn1_5 Si0_7 2.420649 1_545
Mn1_5 Si0_1 2.420649 1_555
Mn1_5 Si0_3 2.420649 1_545
Mn1_5 Mn2_5 2.443560 1_555
Mn1_5 Mn2_7 2.443560 1_545
Mn1_5 Mn2_1 2.443560 1_555
Mn1_5 Mn2_3 2.443560 1_545
Mn1_6 Si0_6 2.420649 1_555
Mn1_6 Si0_2 2.420649 1_555
Mn1_6 Si0_4 2.420649 1_555
Mn1_6 Si0_0 2.420649 1_555
Mn1_6 Mn2_6 2.443560 1_555
Mn1_6 Mn2_2 2.443560 1_555
Mn1_6 Mn2_4 2.443560 1_555
Mn1_6 Mn2_0 2.443560 1_555
Mn1_7 Si0_7 2.420649 1_555
Mn1_7 Si0_5 2.420649 1_555
Mn1_7 Si0_3 2.420649 1_555
Mn1_7 Si0_1 2.420649 1_555
Mn1_7 Mn2_7 2.443560 1_555
Mn1_7 Mn2_3 2.443560 1_555
Mn1_7 Mn2_5 2.443560 1_555
Mn1_7 Mn2_1 2.443560 1_555
Mn2_0 Mn2_2 2.791201 1_555
Mn2_0 Mn2_4 2.791201 1_555
Mn2_0 Mn2_2 2.791201 1_545
Mn2_0 Mn2_4 2.791201 1_455
Mn2_0 Si0_0 2.842167 1_555
Mn2_0 Si0_1 2.842167 1_554
Mn2_1 Mn2_5 2.791201 1_555
Mn2_1 Mn2_3 2.791201 1_555
Mn2_1 Mn2_3 2.791201 1_545
Mn2_1 Mn2_5 2.791201 1_455
Mn2_1 Si0_0 2.842167 1_555
Mn2_1 Si0_1 2.842167 1_555
Mn2_2 Mn2_6 2.791201 1_555
Mn2_2 Mn2_6 2.791201 1_455
Mn2_2 Si0_3 2.842167 1_554
Mn2_2 Si0_2 2.842167 1_555
Mn2_3 Mn2_7 2.791201 1_555
Mn2_3 Mn2_7 2.791201 1_455
Mn2_3 Si0_3 2.842167 1_555
Mn2_3 Si0_2 2.842167 1_555
Mn2_4 Mn2_6 2.791201 1_555
Mn2_4 Mn2_6 2.791201 1_545
Mn2_4 Si0_4 2.842167 1_555
Mn2_4 Si0_5 2.842167 1_554
Mn2_5 Mn2_7 2.791201 1_555
Mn2_5 Mn2_7 2.791201 1_545
Mn2_5 Si0_4 2.842167 1_555
Mn2_5 Si0_5 2.842167 1_555
Mn2_6 Si0_6 2.842167 1_555
Mn2_6 Si0_7 2.842167 1_554
Mn2_7 Si0_6 2.842167 1_555
Mn2_7 Si0_7 2.842167 1_555
