# generated using pymatgen
data_SrLiEu(CoO3)2
_symmetry_space_group_name_H-M   'P 1'
_cell_length_a   3.64766404
_cell_length_b   3.96210479
_cell_length_c   9.45037187
_cell_angle_alpha   78.02923584
_cell_angle_beta   98.01309671
_cell_angle_gamma   89.91769834
_symmetry_Int_Tables_number   1
_chemical_formula_structural   SrLiEu(CoO3)2
_chemical_formula_sum   'Sr1 Li1 Eu1 Co2 O6'
_cell_volume   132.24117089
_cell_formula_units_Z   1
loop_
 _symmetry_equiv_pos_site_id
 _symmetry_equiv_pos_as_xyz
  1  'x, y, z'
loop_
 _atom_site_type_symbol
 _atom_site_label
 _atom_site_symmetry_multiplicity
 _atom_site_fract_x
 _atom_site_fract_y
 _atom_site_fract_z
 _atom_site_occupancy
  Sr  Sr0  1  0.10255600  0.82929700  0.43605100  1
  Li  Li0  1  0.78885700  0.21206700  0.67231800  1
  Eu  Eu0  1  0.96531400  0.03054700  0.04008100  1
  Co  Co0  1  0.54313600  0.42708700  0.24544300  1
  Co  Co1  1  0.37681600  0.64385100  0.80942700  1
  O  O0  1  0.03356700  0.43557000  0.21651700  1
  O  O1  1  0.90654300  0.69547800  0.70532300  1
  O  O2  1  0.46807400  0.54315500  0.01306800  1
  O  O3  1  0.61703100  0.32334500  0.45446800  1
  O  O4  1  0.53619200  0.93533800  0.22911600  1
  O  O5  1  0.44762900  0.13855200  0.81985500  1
loop_
_geom_bond_atom_site_label_1
_geom_bond_atom_site_label_2
_geom_bond_distance
_geom_bond_site_symmetry_2
Li0 O5 1.973451 1_555
Li0 O3 2.022040 1_555
Li0 O1 2.040316 1_555
Li0 O1 2.041125 1_545
Li0 O5 2.588164 1_655
Eu0 O4 2.507111 1_545
Eu0 O4 2.520124 1_645
Eu0 O0 2.532337 1_655
Eu0 O5 2.571567 1_554
Eu0 O0 2.579024 1_645
Eu0 O2 2.669297 1_555
Eu0 O2 2.677596 1_545
Eu0 O2 2.734866 1_655
Eu0 O2 2.735388 1_645
Eu0 O5 2.874605 1_654
Co0 O0 1.839866 1_555
Co0 O0 1.846299 1_655
Co0 O3 1.912613 1_555
Co0 O4 1.986031 1_545
Co0 O4 1.987331 1_555
Co0 O2 2.126516 1_555
Co1 O1 1.843186 1_455
Co1 O2 1.864438 1_556
Co1 O5 1.998185 1_565
Co1 O5 1.998549 1_555
Co1 O1 2.278388 1_555
O0 Sr0 2.814810 1_545
O0 Sr0 2.828306 1_555
O1 Sr0 2.686371 1_655
O3 Sr0 2.671481 1_655
O3 Sr0 2.686232 1_645
O3 Sr0 2.706289 1_555
O3 Sr0 2.728470 1_545
O4 Sr0 2.607527 1_655
O4 Sr0 2.650733 1_555
