# generated using pymatgen
data_Al2W2O7
_symmetry_space_group_name_H-M   'P 1'
_cell_length_a   7.80050955
_cell_length_b   7.18547750
_cell_length_c   7.71829156
_cell_angle_alpha   49.80468698
_cell_angle_beta   57.25193547
_cell_angle_gamma   55.57331345
_symmetry_Int_Tables_number   1
_chemical_formula_structural   Al2W2O7
_chemical_formula_sum   'Al4 W4 O14'
_cell_volume   261.71337984
_cell_formula_units_Z   2
loop_
 _symmetry_equiv_pos_site_id
 _symmetry_equiv_pos_as_xyz
  1  'x, y, z'
loop_
 _atom_site_type_symbol
 _atom_site_label
 _atom_site_symmetry_multiplicity
 _atom_site_fract_x
 _atom_site_fract_y
 _atom_site_fract_z
 _atom_site_occupancy
  Al  Al0  1  0.44274900  0.03627600  0.59846000  1
  Al  Al1  1  0.11646300  0.44419900  0.37022000  1
  Al  Al2  1  0.54457300  0.48529400  0.98629700  1
  Al  Al3  1  0.48401000  0.60931200  0.52493000  1
  W  W0  1  0.98545000  0.50381300  0.01811200  1
  W  W1  1  0.50207600  0.99980300  0.98908900  1
  W  W2  1  0.96438800  0.97772200  0.46439500  1
  W  W3  1  0.96811100  0.02373500  0.00036700  1
  O  O0  1  0.53900000  0.70429100  0.65341500  1
  O  O1  1  0.40666300  0.30779000  0.29402600  1
  O  O2  1  0.39138000  0.83119200  0.95752500  1
  O  O3  1  0.98618600  0.63274100  0.70847200  1
  O  O4  1  0.80057900  0.33801000  0.06894500  1
  O  O5  1  0.98376600  0.77609700  0.33233900  1
  O  O6  1  0.33616600  0.38439300  0.81000300  1
  O  O7  1  0.30209400  0.87498900  0.34498400  1
  O  O8  1  0.98233200  0.28366600  0.39030300  1
  O  O9  1  0.68579200  0.66658800  0.21263700  1
  O  O10  1  0.14712000  0.19039300  0.67100000  1
  O  O11  1  0.67847600  0.17532100  0.95715300  1
  O  O12  1  0.63553600  0.09896600  0.61126000  1
  O  O13  1  0.11709200  0.65540700  0.03606900  1
loop_
_geom_bond_atom_site_label_1
_geom_bond_atom_site_label_2
_geom_bond_distance
_geom_bond_site_symmetry_2
Al0 O10 1.836750 1_555
Al0 O0 1.856736 1_545
Al0 O12 1.859659 1_555
Al0 O1 1.893151 1_555
Al0 O2 2.051173 1_545
Al1 O1 1.796078 1_555
Al1 O8 1.846000 1_455
Al1 O10 1.848004 1_555
Al1 O5 1.865635 1_455
Al1 O13 1.974164 1_555
Al2 O1 1.817180 1_556
Al2 O4 1.905779 1_556
Al2 O11 1.965828 1_555
Al2 O2 1.967518 1_555
Al2 O0 1.975882 1_555
Al3 O7 1.798286 1_555
Al3 O0 1.816047 1_555
Al3 O6 1.885551 1_555
Al3 O9 1.950413 1_555
O2 W1 2.016006 1_555
O3 W2 1.888061 1_555
O3 W0 1.924366 1_556
O4 W0 2.092860 1_555
O4 W3 2.131945 1_555
O5 W3 1.988488 1_565
O5 W2 2.156943 1_555
O6 W1 2.045285 1_545
O6 W0 2.274054 1_456
O7 W2 2.094400 1_455
O7 W1 2.132906 1_554
O8 W2 1.953965 1_545
O8 W0 2.203971 1_555
O9 W1 2.055829 1_554
O9 W0 2.112949 1_555
O10 W3 1.991771 1_456
O11 W3 1.991458 1_556
O11 W1 2.176864 1_545
O12 W2 2.055754 1_545
O12 W1 2.228851 1_545
O13 W0 1.968196 1_455
O13 W3 2.087682 1_465
