# generated using pymatgen
data_Li9Mn2Co5O16
_symmetry_space_group_name_H-M   'P 1'
_cell_length_a   5.91813300
_cell_length_b   7.68161809
_cell_length_c   7.75756449
_cell_angle_alpha   64.32356687
_cell_angle_beta   68.16461274
_cell_angle_gamma   68.81544637
_symmetry_Int_Tables_number   1
_chemical_formula_structural   Li9Mn2Co5O16
_chemical_formula_sum   'Li9 Mn2 Co5 O16'
_cell_volume   286.46470959
_cell_formula_units_Z   1
loop_
 _symmetry_equiv_pos_site_id
 _symmetry_equiv_pos_as_xyz
  1  'x, y, z'
loop_
 _atom_site_type_symbol
 _atom_site_label
 _atom_site_symmetry_multiplicity
 _atom_site_fract_x
 _atom_site_fract_y
 _atom_site_fract_z
 _atom_site_occupancy
  Li  Li0  1  0.37591500  0.62327800  0.12753100  1
  Li  Li1  1  0.25114900  0.24517500  0.25691400  1
  Li  Li2  1  0.63072000  0.37226800  0.87318500  1
  Li  Li3  1  0.50042200  0.99984600  0.00601200  1
  Li  Li4  1  0.87428700  0.12710700  0.62221400  1
  Li  Li5  1  0.75176200  0.75153600  0.73566700  1
  Li  Li6  1  0.11747700  0.87629700  0.37987200  1
  Li  Li7  1  0.99534600  0.50377700  0.50174900  1
  Li  Li8  1  0.62753800  0.87468900  0.37475500  1
  Mn  Mn0  1  0.99497700  0.00001300  0.00278100  1
  Mn  Mn1  1  0.86963700  0.62737400  0.12848200  1
  Co  Co0  1  0.74751600  0.23289300  0.26232400  1
  Co  Co1  1  0.50435300  0.50683900  0.49861200  1
  Co  Co2  1  0.37580600  0.12391100  0.62495100  1
  Co  Co3  1  0.25751100  0.75774700  0.73666600  1
  Co  Co4  1  0.12412200  0.37763400  0.87136900  1
  O  O0  1  0.00002200  0.75533400  0.22556700  1
  O  O1  1  0.87147700  0.39322000  0.36096700  1
  O  O2  1  0.22060400  0.51508600  0.99294200  1
  O  O3  1  0.11496800  0.12267400  0.11406700  1
  O  O4  1  0.47744100  0.25028800  0.74011000  1
  O  O5  1  0.34777600  0.89516900  0.86839200  1
  O  O6  1  0.75512700  0.01200700  0.48994900  1
  O  O7  1  0.60483700  0.61816200  0.62920500  1
  O  O8  1  0.76340600  0.49697500  0.01526700  1
  O  O9  1  0.65679900  0.12107600  0.11449100  1
  O  O10  1  0.99909000  0.23974000  0.77026300  1
  O  O11  1  0.88273100  0.86928900  0.89354300  1
  O  O12  1  0.25423700  0.99786000  0.51916000  1
  O  O13  1  0.13396200  0.61885300  0.62771200  1
  O  O14  1  0.52998000  0.73359000  0.24391500  1
  O  O15  1  0.38900600  0.36029700  0.39136100  1
loop_
_geom_bond_atom_site_label_1
_geom_bond_atom_site_label_2
_geom_bond_distance
_geom_bond_site_symmetry_2
Li0 O14 2.048972 1_555
Li0 O0 2.082120 1_555
Li0 O8 2.144099 1_555
Li0 O2 2.154900 1_554
Li0 O15 2.167423 1_555
Li0 O5 2.188679 1_554
Li1 O12 2.097994 1_545
Li1 O15 2.118765 1_555
Li1 O1 2.143150 1_455
Li1 O2 2.202287 1_554
Li1 O3 2.208877 1_555
Li1 O9 2.275602 1_555
Li2 O7 2.020410 1_555
Li2 O9 2.029972 1_556
Li2 O10 2.057196 1_555
Li2 O8 2.202649 1_556
Li2 O4 2.217150 1_555
Li2 O2 2.288879 1_555
Li3 O9 2.076824 1_565
Li3 O14 2.080948 1_555
Li3 O3 2.122254 1_565
Li3 O11 2.129788 1_554
Li3 O4 2.134287 1_564
Li3 O5 2.142138 1_554
Li4 O6 2.026543 1_555
Li4 O12 2.101922 1_645
Li4 O10 2.137090 1_555
Li4 O1 2.167175 1_555
Li4 O11 2.179322 1_545
Li4 O4 2.189432 1_555
Li5 O6 2.081522 1_565
Li5 O7 2.097408 1_555
Li5 O13 2.126206 1_655
Li5 O8 2.207133 1_556
Li5 O11 2.256500 1_555
Li5 O5 2.289175 1_555
Li6 O6 2.051357 1_465
Li6 O13 2.078967 1_555
Li6 O3 2.110583 1_565
Li6 O12 2.183069 1_555
Li6 O0 2.197525 1_555
Li6 O14 2.329418 1_555
Li7 O13 2.068376 1_655
Li7 O1 2.073797 1_555
Li7 O7 2.162442 1_555
Li7 O0 2.175303 1_655
Li7 O10 2.189491 1_555
Li7 O15 2.203117 1_655
Li8 O9 2.086597 1_565
Li8 O6 2.091849 1_565
Li8 O14 2.092821 1_555
Li8 O7 2.102565 1_555
Li8 O12 2.144208 1_555
Li8 O0 2.144854 1_655
Mn0 O9 1.919468 1_555
Mn0 O0 1.924409 1_645
Mn0 O10 1.940764 1_554
Mn0 O3 1.944716 1_655
Mn0 O11 1.950909 1_544
Mn0 O5 1.996978 1_644
Mn1 O14 1.901842 1_555
Mn1 O1 1.917646 1_555
Mn1 O0 1.936706 1_655
Mn1 O8 1.948902 1_555
Mn1 O11 1.960876 1_554
Mn1 O2 2.007549 1_654
Co0 O6 1.845712 1_555
Co0 O9 1.996529 1_555
Co0 O15 2.056641 1_555
Co0 O3 2.102674 1_655
Co0 O8 2.105189 1_555
Co0 O1 2.127872 1_555
Co1 O7 1.917729 1_555
Co1 O14 1.986576 1_555
Co1 O15 2.053016 1_555
Co1 O4 2.055324 1_555
Co1 O13 2.073370 1_555
Co1 O1 2.081773 1_555
Co2 O4 1.917176 1_555
Co2 O15 1.932045 1_555
Co2 O12 1.939081 1_545
Co2 O5 1.945113 1_545
Co2 O6 2.124087 1_555
Co2 O10 2.144487 1_455
Co3 O12 1.884404 1_555
Co3 O7 1.994187 1_555
Co3 O5 2.047526 1_555
Co3 O13 2.047530 1_555
Co3 O2 2.057818 1_555
Co3 O11 2.157975 1_455
Co4 O13 1.992639 1_555
Co4 O10 2.000726 1_455
Co4 O2 2.007378 1_555
Co4 O4 2.041319 1_555
Co4 O3 2.046664 1_556
Co4 O8 2.084090 1_456
