# generated using pymatgen
data_BaHfF6
_symmetry_space_group_name_H-M   'P 1'
_cell_length_a   6.86460262
_cell_length_b   6.86460262
_cell_length_c   5.46341565
_cell_angle_alpha   90.00000000
_cell_angle_beta   90.00000000
_cell_angle_gamma   113.32893432
_symmetry_Int_Tables_number   1
_chemical_formula_structural   BaHfF6
_chemical_formula_sum   'Ba2 Hf2 F12'
_cell_volume   236.40373548
_cell_formula_units_Z   2
loop_
 _symmetry_equiv_pos_site_id
 _symmetry_equiv_pos_as_xyz
  1  'x, y, z'
loop_
 _atom_site_type_symbol
 _atom_site_label
 _atom_site_symmetry_multiplicity
 _atom_site_fract_x
 _atom_site_fract_y
 _atom_site_fract_z
 _atom_site_occupancy
  Ba  Ba0  1  0.25000000  0.75000000  0.43638984  1
  Ba  Ba1  1  0.75000000  0.25000000  0.56361016  1
  Hf  Hf0  1  0.75000000  0.75000000  -0.00000000  1
  Hf  Hf1  1  0.25000000  0.25000000  -0.00000000  1
  F  F0  1  0.68171143  0.93259135  0.24626926  1
  F  F1  1  0.31828857  0.06740865  0.75373074  1
  F  F2  1  0.81828857  0.56740865  0.24626926  1
  F  F3  1  0.56740865  0.81828857  0.75373074  1
  F  F4  1  0.18171143  0.43259135  0.75373074  1
  F  F5  1  0.43259135  0.18171143  0.24626926  1
  F  F6  1  0.93259135  0.68171143  0.75373074  1
  F  F7  1  0.06740865  0.31828857  0.24626926  1
  F  F8  1  0.43496750  0.56503250  0.15625516  1
  F  F9  1  0.56503250  0.43496750  0.84374484  1
  F  F10  1  0.06503250  0.93496750  0.15625516  1
  F  F11  1  0.93496750  0.06503250  0.84374484  1
loop_
_geom_bond_atom_site_label_1
_geom_bond_atom_site_label_2
_geom_bond_distance
_geom_bond_site_symmetry_2
Ba0 F10 2.616052 1_555
Ba0 F8 2.616052 1_555
Ba0 F6 2.676613 1_455
Ba0 F3 2.676613 1_555
Ba0 F1 2.676613 1_565
Ba0 F4 2.676613 1_555
Ba0 F0 2.913843 1_555
Ba0 F7 2.913843 1_555
Ba0 F2 2.913843 1_455
Ba0 F5 2.913843 1_565
Ba1 F11 2.616052 1_555
Ba1 F9 2.616052 1_555
Ba1 F0 2.676613 1_545
Ba1 F2 2.676613 1_555
Ba1 F7 2.676613 1_655
Ba1 F5 2.676613 1_555
Ba1 F3 2.913843 1_545
Ba1 F6 2.913843 1_555
Ba1 F1 2.913843 1_555
Ba1 F4 2.913843 1_655
F0 Hf0 2.016547 1_555
F1 Hf1 2.016547 1_556
F2 Hf0 2.016547 1_555
F3 Hf0 2.016547 1_556
F4 Hf1 2.016547 1_556
F5 Hf1 2.016547 1_555
F6 Hf0 2.016547 1_556
F7 Hf1 2.016547 1_555
F8 Hf1 2.200665 1_555
F8 Hf0 2.200665 1_555
F9 Hf1 2.200665 1_556
F9 Hf0 2.200665 1_556
F10 Hf0 2.200665 1_455
F10 Hf1 2.200665 1_565
F11 Hf0 2.200665 1_546
F11 Hf1 2.200665 1_656
