# generated using pymatgen
data_CaLaCr2O6
_symmetry_space_group_name_H-M   'P 1'
_cell_length_a   5.47052990
_cell_length_b   5.53820200
_cell_length_c   7.68237442
_cell_angle_alpha   90.00066401
_cell_angle_beta   89.97108567
_cell_angle_gamma   89.99865750
_symmetry_Int_Tables_number   1
_chemical_formula_structural   CaLaCr2O6
_chemical_formula_sum   'Ca2 La2 Cr4 O12'
_cell_volume   232.75209711
_cell_formula_units_Z   2
loop_
 _symmetry_equiv_pos_site_id
 _symmetry_equiv_pos_as_xyz
  1  'x, y, z'
loop_
 _atom_site_type_symbol
 _atom_site_label
 _atom_site_symmetry_multiplicity
 _atom_site_fract_x
 _atom_site_fract_y
 _atom_site_fract_z
 _atom_site_occupancy
  Ca  Ca0  1  0.48961400  0.45762000  0.74943100  1
  Ca  Ca1  1  0.98962100  0.04237100  0.24940000  1
  La  La0  1  0.00782300  0.96766700  0.75029800  1
  La  La1  1  0.50782300  0.53233900  0.25029700  1
  Cr  Cr0  1  0.00024300  0.49961400  0.99951300  1
  Cr  Cr1  1  0.00042000  0.50021300  0.50079900  1
  Cr  Cr2  1  0.50024800  0.00040000  0.49951000  1
  Cr  Cr3  1  0.50040300  0.99978500  0.00079700  1
  O  O0  1  0.07209100  0.47920200  0.24475600  1
  O  O1  1  0.57212900  0.02083400  0.74476600  1
  O  O2  1  0.41912300  0.98251100  0.25581900  1
  O  O3  1  0.91914000  0.51743500  0.75583000  1
  O  O4  1  0.21275400  0.21828700  0.96145200  1
  O  O5  1  0.22135400  0.21382200  0.53839500  1
  O  O6  1  0.71277400  0.28170800  0.46146400  1
  O  O7  1  0.72132500  0.28617800  0.03840200  1
  O  O8  1  0.28290300  0.70822000  0.95811700  1
  O  O9  1  0.29365600  0.71474600  0.54140800  1
  O  O10  1  0.78289500  0.79178200  0.45813000  1
  O  O11  1  0.79365900  0.78526400  0.04141300  1
loop_
_geom_bond_atom_site_label_1
_geom_bond_atom_site_label_2
_geom_bond_distance
_geom_bond_site_symmetry_2
Ca0 O3 2.373512 1_555
Ca0 O9 2.394297 1_555
Ca0 O8 2.402759 1_555
Ca0 O1 2.461013 1_555
Ca0 O5 2.570524 1_555
Ca0 O4 2.588732 1_555
Ca0 O6 2.707546 1_555
Ca0 O7 2.727533 1_556
Ca1 O2 2.373405 1_645
Ca1 O11 2.394068 1_545
Ca1 O10 2.403040 1_545
Ca1 O0 2.461232 1_655
Ca1 O7 2.570462 1_555
Ca1 O6 2.588854 1_555
Ca1 O4 2.707407 1_654
Ca1 O5 2.727759 1_655
La0 O1 2.401987 1_465
La0 O4 2.411762 1_565
La0 O5 2.423079 1_565
La0 O3 2.540596 1_455
La0 O8 2.623060 1_555
La0 O9 2.641906 1_555
La0 O11 2.718876 1_456
La0 O10 2.739286 1_455
La1 O0 2.402187 1_555
La1 O6 2.411906 1_555
La1 O7 2.422928 1_555
La1 O2 2.540263 1_555
La1 O10 2.623107 1_555
La1 O11 2.641958 1_555
La1 O9 2.718827 1_555
La1 O8 2.739332 1_554
Cr0 O3 1.926669 1_455
Cr0 O0 1.928122 1_556
Cr0 O7 1.953021 1_456
Cr0 O8 1.956144 1_555
Cr0 O4 1.965727 1_555
Cr0 O11 1.970537 1_456
Cr1 O6 2.008089 1_455
Cr1 O0 2.008890 1_555
Cr1 O3 2.011108 1_455
Cr1 O5 2.014983 1_555
Cr1 O9 2.020613 1_555
Cr1 O10 2.032557 1_455
Cr2 O2 1.926775 1_545
Cr2 O1 1.928262 1_555
Cr2 O5 1.952819 1_555
Cr2 O10 1.956060 1_545
Cr2 O6 1.965724 1_555
Cr2 O9 1.970626 1_545
Cr3 O4 2.008063 1_564
Cr3 O1 2.008875 1_564
Cr3 O2 2.011058 1_555
Cr3 O7 2.015001 1_565
Cr3 O11 2.020629 1_555
Cr3 O8 2.032512 1_554
