# generated using pymatgen
data_MgCo6Ag2P6(HO6)4
_symmetry_space_group_name_H-M   'P 1'
_cell_length_a   6.50639977
_cell_length_b   8.92267987
_cell_length_c   9.04924871
_cell_angle_alpha   86.48569325
_cell_angle_beta   106.38983036
_cell_angle_gamma   105.57439839
_symmetry_Int_Tables_number   1
_chemical_formula_structural   MgCo6Ag2P6(HO6)4
_chemical_formula_sum   'Mg1 Co6 Ag2 P6 H4 O24'
_cell_volume   485.43666387
_cell_formula_units_Z   1
loop_
 _symmetry_equiv_pos_site_id
 _symmetry_equiv_pos_as_xyz
  1  'x, y, z'
loop_
 _atom_site_type_symbol
 _atom_site_label
 _atom_site_symmetry_multiplicity
 _atom_site_fract_x
 _atom_site_fract_y
 _atom_site_fract_z
 _atom_site_occupancy
  Mg  Mg0  1  0.83589324  0.05559076  0.67325582  1
  Co  Co0  1  0.25433565  0.77199654  0.21098105  1
  Co  Co1  1  0.61620694  0.54572800  0.87347361  1
  Co  Co2  1  0.08707571  0.84684163  0.50075402  1
  Co  Co3  1  0.39479804  0.45794066  0.14016461  1
  Co  Co4  1  0.87769316  0.09947595  0.39076787  1
  Co  Co5  1  0.74560574  0.31191629  0.82584959  1
  Ag  Ag0  1  0.22604226  0.43037801  0.53779084  1
  Ag  Ag1  1  0.77652819  0.48530810  0.50949626  1
  P  P0  1  0.23039773  0.21208120  0.84798159  1
  P  P1  1  0.74643981  0.81885238  0.16258043  1
  P  P2  1  0.39864895  0.15112502  0.38887148  1
  P  P3  1  0.14142781  0.64191805  0.84264215  1
  P  P4  1  0.57391779  0.78424084  0.57967479  1
  P  P5  1  0.90336996  0.40633062  0.17750049  1
  H  H0  1  0.32563103  0.11805939  0.13920085  1
  H  H1  1  0.18519215  0.89653719  0.89403281  1
  H  H2  1  0.67309548  0.83790767  0.89611572  1
  H  H3  1  0.82406015  0.15106361  0.10563094  1
  O  O0  1  0.32208908  0.55604057  0.91167984  1
  O  O1  1  0.20190590  0.79300989  0.95208441  1
  O  O2  1  0.59992213  0.88422832  0.72359829  1
  O  O3  1  0.87131854  0.26265646  0.06610500  1
  O  O4  1  0.40720336  0.32192613  0.34196792  1
  O  O5  1  0.12891049  0.68992432  0.67519589  1
  O  O6  1  0.57146260  0.61367481  0.62601686  1
  O  O7  1  0.90729912  0.33936015  0.33991913  1
  O  O8  1  0.20657649  0.08091106  0.46349280  1
  O  O9  1  0.34935834  0.04857589  0.23631615  1
  O  O10  1  0.74188702  0.78011684  0.99025813  1
  O  O11  1  0.74956847  0.99054085  0.17073171  1
  O  O12  1  0.29862606  0.23997056  0.02266596  1
  O  O13  1  0.14997221  0.03502562  0.80603247  1
  O  O14  1  0.54248694  0.71142557  0.20628502  1
  O  O15  1  0.96365396  0.78272668  0.26314578  1
  O  O16  1  0.42296516  0.30065094  0.77748382  1
  O  O17  1  0.78819682  0.86964888  0.52624101  1
  O  O18  1  0.91570360  0.54069885  0.85440177  1
  O  O19  1  0.62374809  0.14084232  0.49835413  1
  O  O20  1  0.12654715  0.52282999  0.17645467  1
  O  O21  1  0.36322974  0.79253035  0.45069285  1
  O  O22  1  0.70567768  0.47565112  0.11159970  1
  O  O23  1  0.01532826  0.26624192  0.76094775  1
loop_
_geom_bond_atom_site_label_1
_geom_bond_atom_site_label_2
_geom_bond_distance
_geom_bond_site_symmetry_2
Mg0 O2 1.987808 1_545
Mg0 O23 2.001801 1_655
Mg0 O19 2.042598 1_555
Mg0 O17 2.092831 1_545
Mg0 O13 2.107605 1_655
Co0 O21 2.086315 1_555
Co0 O14 2.097797 1_555
Co0 O15 2.101331 1_455
Co0 O20 2.162784 1_555
Co0 O1 2.273719 1_554
Co0 O9 2.386432 1_565
Co1 O18 2.016610 1_555
Co1 O0 2.064434 1_555
Co1 O22 2.166940 1_556
Co1 O10 2.241500 1_555
Co1 O6 2.242143 1_555
Co1 O16 2.292892 1_555
Co2 O5 2.053658 1_555
Co2 O8 2.066352 1_565
Co2 O17 2.085076 1_455
Co2 O15 2.127223 1_455
Co2 O21 2.149945 1_555
Co3 O22 2.074019 1_555
Co3 O20 2.092538 1_555
Co3 O4 2.124142 1_555
Co3 O12 2.128192 1_555
Co3 O0 2.171056 1_554
Co3 O14 2.251963 1_555
Co4 O8 2.102790 1_655
Co4 O11 2.114203 1_545
Co4 O7 2.130275 1_555
Co4 O19 2.256858 1_555
Co4 O17 2.345354 1_545
Co5 O16 1.995496 1_555
Co5 O18 2.036874 1_555
Co5 O23 2.141454 1_655
Co5 O3 2.159023 1_556
Ag0 O7 2.311907 1_455
Ag0 O6 2.353077 1_555
Ag0 O16 2.570295 1_555
Ag0 O4 2.732652 1_555
Ag1 O6 2.442643 1_555
Ag1 O7 2.520205 1_555
Ag1 O4 2.555732 1_555
Ag1 O5 2.643111 1_655
H0 O9 1.043344 1_555
H0 O12 1.477715 1_555
H1 O1 1.050380 1_555
H1 O13 1.463565 1_565
H2 O10 1.023172 1_555
H2 O2 1.562624 1_555
H3 O3 1.033400 1_555
H3 O11 1.522613 1_545
O0 P3 1.539378 1_555
O1 P3 1.616187 1_555
O2 P4 1.567753 1_555
O3 P5 1.612234 1_555
O4 P2 1.547358 1_555
O5 P3 1.534813 1_555
O6 P4 1.550741 1_555
O7 P5 1.548311 1_555
O8 P2 1.553766 1_555
O9 P2 1.610386 1_555
O10 P1 1.608270 1_556
O11 P1 1.532612 1_555
O12 P0 1.533196 1_554
O13 P0 1.559241 1_555
O14 P1 1.550100 1_555
O15 P1 1.553151 1_555
O16 P0 1.568092 1_555
O17 P4 1.588413 1_555
O18 P3 1.532351 1_655
O19 P2 1.541793 1_555
O20 P5 1.544404 1_455
O21 P4 1.545271 1_555
O22 P5 1.530291 1_555
O23 P0 1.583181 1_555
