# generated using pymatgen
data_Fe(RhS2)2
_symmetry_space_group_name_H-M   'P 1'
_cell_length_a   7.00998934
_cell_length_b   7.00998934
_cell_length_c   7.00998934
_cell_angle_alpha   60.00000000
_cell_angle_beta   60.00000000
_cell_angle_gamma   60.00000000
_symmetry_Int_Tables_number   1
_chemical_formula_structural   Fe(RhS2)2
_chemical_formula_sum   'Fe2 Rh4 S8'
_cell_volume   243.57744757
_cell_formula_units_Z   2
loop_
 _symmetry_equiv_pos_site_id
 _symmetry_equiv_pos_as_xyz
  1  'x, y, z'
loop_
 _atom_site_type_symbol
 _atom_site_label
 _atom_site_symmetry_multiplicity
 _atom_site_fract_x
 _atom_site_fract_y
 _atom_site_fract_z
 _atom_site_occupancy
  Fe  Fe0  1  0.50000000  0.50000000  0.50000000  1
  Fe  Fe1  1  0.75000000  0.75000000  0.75000000  1
  Rh  Rh0  1  0.62500000  0.12500000  0.12500000  1
  Rh  Rh1  1  0.12500000  0.12500000  0.12500000  1
  Rh  Rh2  1  0.12500000  0.62500000  0.12500000  1
  Rh  Rh3  1  0.12500000  0.12500000  0.62500000  1
  S  S0  1  0.36601000  0.36601000  0.36601000  1
  S  S1  1  0.34803100  0.88399000  0.88399000  1
  S  S2  1  0.88399000  0.88399000  0.34803100  1
  S  S3  1  0.88399000  0.34803100  0.88399000  1
  S  S4  1  0.36601000  0.36601000  0.90196900  1
  S  S5  1  0.36601000  0.90196900  0.36601000  1
  S  S6  1  0.88399000  0.88399000  0.88399000  1
  S  S7  1  0.90196900  0.36601000  0.36601000  1
loop_
_geom_bond_atom_site_label_1
_geom_bond_atom_site_label_2
_geom_bond_distance
_geom_bond_site_symmetry_2
Fe0 S5 2.300723 1_555
Fe0 S4 2.300723 1_555
Fe0 S7 2.300723 1_555
Fe0 S0 2.300728 1_555
Fe1 S1 2.300723 1_555
Fe1 S3 2.300723 1_555
Fe1 S2 2.300723 1_555
Fe1 S6 2.300728 1_555
Rh0 S6 2.392604 1_544
Rh0 S0 2.392604 1_555
Rh0 S3 2.392609 1_554
Rh0 S2 2.392609 1_545
Rh0 S5 2.392609 1_545
Rh0 S4 2.392609 1_554
Rh1 S2 2.392604 1_445
Rh1 S3 2.392604 1_454
Rh1 S1 2.392604 1_544
Rh1 S5 2.392604 1_545
Rh1 S7 2.392604 1_455
Rh1 S4 2.392604 1_554
Rh2 S6 2.392604 1_454
Rh2 S0 2.392604 1_555
Rh2 S1 2.392609 1_554
Rh2 S2 2.392609 1_455
Rh2 S7 2.392609 1_455
Rh2 S4 2.392609 1_554
Rh3 S6 2.392604 1_445
Rh3 S0 2.392604 1_555
Rh3 S1 2.392609 1_545
Rh3 S3 2.392609 1_455
Rh3 S5 2.392609 1_545
Rh3 S7 2.392609 1_455
