# generated using pymatgen
data_Mg2GeS4
_symmetry_space_group_name_H-M   'P 1'
_cell_length_a   6.02360911
_cell_length_b   7.45853306
_cell_length_c   12.82545248
_cell_angle_alpha   90.00000000
_cell_angle_beta   90.00000000
_cell_angle_gamma   90.00000000
_symmetry_Int_Tables_number   1
_chemical_formula_structural   Mg2GeS4
_chemical_formula_sum   'Mg8 Ge4 S16'
_cell_volume   576.21279329
_cell_formula_units_Z   4
loop_
 _symmetry_equiv_pos_site_id
 _symmetry_equiv_pos_as_xyz
  1  'x, y, z'
loop_
 _atom_site_type_symbol
 _atom_site_label
 _atom_site_symmetry_multiplicity
 _atom_site_fract_x
 _atom_site_fract_y
 _atom_site_fract_z
 _atom_site_occupancy
  Mg  Mg0  1  0.00000000  0.00000000  0.00000000  1
  Mg  Mg1  1  0.50000000  0.00000000  0.50000000  1
  Mg  Mg2  1  0.00000000  0.50000000  0.00000000  1
  Mg  Mg3  1  0.50000000  0.50000000  0.50000000  1
  Mg  Mg4  1  0.49629271  0.75000000  0.23038280  1
  Mg  Mg5  1  0.99629271  0.25000000  0.26961720  1
  Mg  Mg6  1  0.50370729  0.25000000  0.76961720  1
  Mg  Mg7  1  0.00370729  0.75000000  0.73038280  1
  Ge  Ge0  1  0.91321918  0.75000000  0.41051650  1
  Ge  Ge1  1  0.58678082  0.75000000  0.91051650  1
  Ge  Ge2  1  0.08678082  0.25000000  0.58948350  1
  Ge  Ge3  1  0.41321918  0.25000000  0.08948350  1
  S  S0  1  0.25613024  0.25000000  0.93172395  1
  S  S1  1  0.74386976  0.75000000  0.06827605  1
  S  S2  1  0.24386976  0.25000000  0.43172395  1
  S  S3  1  0.25043853  0.48226193  0.66715836  1
  S  S4  1  0.74956147  0.98226193  0.33284164  1
  S  S5  1  0.24956147  0.01773807  0.16715836  1
  S  S6  1  0.74956147  0.51773807  0.33284164  1
  S  S7  1  0.75043853  0.51773807  0.83284164  1
  S  S8  1  0.25043853  0.01773807  0.66715836  1
  S  S9  1  0.75043853  0.98226193  0.83284164  1
  S  S10  1  0.22373168  0.75000000  0.90714723  1
  S  S11  1  0.24956147  0.48226193  0.16715836  1
  S  S12  1  0.27626832  0.75000000  0.40714723  1
  S  S13  1  0.77626832  0.25000000  0.09285277  1
  S  S14  1  0.72373168  0.25000000  0.59285277  1
  S  S15  1  0.75613024  0.75000000  0.56827605  1
loop_
_geom_bond_atom_site_label_1
_geom_bond_atom_site_label_2
_geom_bond_distance
_geom_bond_site_symmetry_2
Mg0 S1 2.573709 1_445
Mg0 S0 2.573709 1_554
Mg0 S13 2.590612 1_455
Mg0 S10 2.590612 1_544
Mg0 S9 2.621741 1_444
Mg0 S5 2.621741 1_555
Mg1 S2 2.573709 1_555
Mg1 S15 2.573709 1_545
Mg1 S12 2.590612 1_545
Mg1 S14 2.590612 1_555
Mg1 S4 2.621741 1_545
Mg1 S8 2.621741 1_555
Mg2 S1 2.573709 1_455
Mg2 S0 2.573709 1_554
Mg2 S13 2.590612 1_455
Mg2 S10 2.590612 1_554
Mg2 S7 2.621741 1_454
Mg2 S11 2.621741 1_555
Mg3 S2 2.573709 1_555
Mg3 S15 2.573709 1_555
Mg3 S12 2.590612 1_555
Mg3 S14 2.590612 1_555
Mg3 S6 2.621741 1_555
Mg3 S3 2.621741 1_555
Mg4 S1 2.558637 1_555
Mg4 S11 2.618034 1_555
Mg4 S5 2.618034 1_565
Mg4 S12 2.626061 1_555
Mg4 S6 2.656166 1_555
Mg4 S4 2.656166 1_555
Mg5 S2 2.558637 1_655
Mg5 S4 2.618034 1_545
Mg5 S6 2.618034 1_555
Mg5 S13 2.626061 1_555
Mg5 S5 2.656166 1_655
Mg5 S11 2.656166 1_655
Mg6 S0 2.558637 1_555
Mg6 S9 2.618034 1_545
Mg6 S7 2.618034 1_555
Mg6 S14 2.626061 1_555
Mg6 S8 2.656166 1_555
Mg6 S3 2.656166 1_555
Mg7 S15 2.558637 1_455
Mg7 S8 2.618034 1_565
Mg7 S3 2.618034 1_555
Mg7 S10 2.626061 1_555
Mg7 S7 2.656166 1_455
Mg7 S9 2.656166 1_455
Ge0 S12 2.187293 1_655
Ge0 S6 2.228283 1_555
Ge0 S4 2.228283 1_555
Ge0 S15 2.233667 1_555
Ge1 S10 2.187293 1_555
Ge1 S7 2.228283 1_555
Ge1 S9 2.228283 1_555
Ge1 S1 2.233667 1_556
Ge2 S14 2.187293 1_455
Ge2 S8 2.228283 1_555
Ge2 S3 2.228283 1_555
Ge2 S2 2.233667 1_555
Ge3 S13 2.187293 1_555
Ge3 S5 2.228283 1_555
Ge3 S11 2.228283 1_555
Ge3 S0 2.233667 1_554
