# generated using pymatgen
data_CsHgCl3
_symmetry_space_group_name_H-M   'P 1'
_cell_length_a   15.31124920
_cell_length_b   9.35638265
_cell_length_c   10.77501116
_cell_angle_alpha   54.86690327
_cell_angle_beta   90.00000000
_cell_angle_gamma   90.00000000
_symmetry_Int_Tables_number   1
_chemical_formula_structural   CsHgCl3
_chemical_formula_sum   'Cs8 Hg8 Cl24'
_cell_volume   1262.38751705
_cell_formula_units_Z   8
loop_
 _symmetry_equiv_pos_site_id
 _symmetry_equiv_pos_as_xyz
  1  'x, y, z'
loop_
 _atom_site_type_symbol
 _atom_site_label
 _atom_site_symmetry_multiplicity
 _atom_site_fract_x
 _atom_site_fract_y
 _atom_site_fract_z
 _atom_site_occupancy
  Cs  Cs0  1  -0.00000000  0.50000000  0.00000000  1
  Cs  Cs1  1  0.50000000  0.50000000  0.50000000  1
  Cs  Cs2  1  0.74979748  0.01224171  0.24526166  1
  Cs  Cs3  1  0.75020252  0.01224171  0.74526166  1
  Cs  Cs4  1  0.25020252  0.98775829  0.75473834  1
  Cs  Cs5  1  0.24979748  0.98775829  0.25473834  1
  Cs  Cs6  1  0.50000000  0.50000000  0.00000000  1
  Cs  Cs7  1  -0.00000000  0.50000000  0.50000000  1
  Hg  Hg0  1  -0.00000000  0.00000000  0.00000000  1
  Hg  Hg1  1  0.50000000  0.00000000  0.50000000  1
  Hg  Hg2  1  -0.00000000  0.00000000  0.50000000  1
  Hg  Hg3  1  0.50000000  0.00000000  0.00000000  1
  Hg  Hg4  1  0.74775416  0.50007877  0.25079305  1
  Hg  Hg5  1  0.75224584  0.50007877  0.75079305  1
  Hg  Hg6  1  0.25224584  0.49992123  0.74920695  1
  Hg  Hg7  1  0.24775416  0.49992123  0.24920695  1
  Cl  Cl0  1  -0.00114698  0.99718351  0.27896667  1
  Cl  Cl1  1  0.50114698  0.99718351  0.77896667  1
  Cl  Cl2  1  0.00114698  0.00281649  0.72103333  1
  Cl  Cl3  1  0.49885302  0.00281649  0.22103333  1
  Cl  Cl4  1  0.11267331  0.22321487  0.89015384  1
  Cl  Cl5  1  0.38732669  0.22321487  0.39015384  1
  Cl  Cl6  1  0.88732669  0.77678513  0.10984616  1
  Cl  Cl7  1  0.61267331  0.77678513  0.60984616  1
  Cl  Cl8  1  0.85737505  0.75673175  0.62497947  1
  Cl  Cl9  1  0.64262495  0.75673175  0.12497947  1
  Cl  Cl10  1  0.14262495  0.24326825  0.37502053  1
  Cl  Cl11  1  0.35737505  0.24326825  0.87502053  1
  Cl  Cl12  1  0.87490986  0.28695673  0.35530766  1
  Cl  Cl13  1  0.62509014  0.28695673  0.85530766  1
  Cl  Cl14  1  0.12509014  0.71304327  0.64469234  1
  Cl  Cl15  1  0.37490986  0.71304327  0.14469234  1
  Cl  Cl16  1  0.12487312  0.74641292  0.12475106  1
  Cl  Cl17  1  0.37512688  0.74641292  0.62475106  1
  Cl  Cl18  1  0.87512688  0.25358708  0.87524894  1
  Cl  Cl19  1  0.62487312  0.25358708  0.37524894  1
  Cl  Cl20  1  0.24714033  0.48619569  0.50597388  1
  Cl  Cl21  1  0.25285967  0.48619569  0.00597388  1
  Cl  Cl22  1  0.75285967  0.51380431  0.49402612  1
  Cl  Cl23  1  0.74714033  0.51380431  0.99402612  1
loop_
_geom_bond_atom_site_label_1
_geom_bond_atom_site_label_2
_geom_bond_distance
_geom_bond_site_symmetry_2
Cl0 Hg2 2.396963 1_565
Cl0 Hg0 2.990833 1_565
Cl0 Cs7 3.815846 1_555
Cl0 Cs2 3.825507 1_465
Cl0 Cs5 3.855579 1_555
Cl0 Cs0 3.859060 1_565
Cl1 Hg3 2.396963 1_566
Cl1 Hg1 2.990833 1_565
Cl1 Cs6 3.815846 1_556
Cl1 Cs3 3.825507 1_565
Cl1 Cs4 3.855579 1_555
Cl1 Cs1 3.859060 1_565
Cl2 Hg2 2.396963 1_555
Cl2 Hg0 2.990833 1_556
Cl2 Cs7 3.815846 1_555
Cl2 Cs4 3.825507 1_545
Cl2 Cs3 3.855579 1_455
Cl2 Cs0 3.859060 1_546
Cl3 Hg3 2.396963 1_555
Cl3 Hg1 2.990833 1_555
Cl3 Cs6 3.815846 1_555
Cl3 Cs5 3.825507 1_545
Cl3 Cs2 3.855579 1_555
Cl3 Cs1 3.859060 1_545
Cl4 Hg0 2.427715 1_556
Cl4 Hg6 3.008439 1_555
Cl4 Cs0 3.822506 1_556
Cl4 Cs5 3.838352 1_546
Cl4 Cs7 3.850367 1_555
Cl4 Cs4 3.887945 1_545
Cl5 Hg1 2.427715 1_555
Cl5 Hg7 3.008439 1_555
Cl5 Cs1 3.822506 1_555
Cl5 Cs4 3.838352 1_545
Cl5 Cs6 3.850367 1_555
Cl5 Cs5 3.887945 1_545
Cl6 Hg0 2.427715 1_665
Cl6 Hg4 3.008439 1_555
Cl6 Cs0 3.822506 1_655
Cl6 Cs3 3.838352 1_564
Cl6 Cs7 3.850367 1_655
Cl6 Cs2 3.887945 1_565
Cl7 Hg1 2.427715 1_565
Cl7 Hg5 3.008439 1_555
Cl7 Cs1 3.822506 1_555
Cl7 Cs2 3.838352 1_565
Cl7 Cs6 3.850367 1_556
Cl7 Cs3 3.887945 1_565
Cl8 Hg5 2.539378 1_555
Cl8 Hg2 2.869697 1_665
Cl8 Cs3 3.695095 1_565
Cl8 Cs2 3.729689 1_565
Cl8 Cs0 3.961768 1_656
Cl8 Cs7 4.009412 1_655
Cl9 Hg4 2.539378 1_555
Cl9 Hg3 2.869697 1_565
Cl9 Cs2 3.695095 1_565
Cl9 Cs3 3.729689 1_564
Cl9 Cs1 3.961768 1_555
Cl9 Cs6 4.009412 1_555
Cl10 Hg7 2.539378 1_555
Cl10 Hg2 2.869697 1_555
Cl10 Cs5 3.695095 1_545
Cl10 Cs4 3.729689 1_545
Cl10 Cs0 3.961768 1_555
Cl10 Cs7 4.009412 1_555
Cl11 Hg6 2.539378 1_555
Cl11 Hg3 2.869697 1_556
Cl11 Cs4 3.695095 1_545
Cl11 Cs5 3.729689 1_546
Cl11 Cs1 3.961768 1_555
Cl11 Cs6 4.009412 1_556
Cl12 Hg4 2.539751 1_555
Cl12 Hg2 2.913724 1_655
Cl12 Cs0 3.676320 1_655
Cl12 Cs7 3.694472 1_655
Cl12 Cs2 3.897450 1_555
Cl12 Cs3 3.934090 1_555
Cl13 Hg5 2.539751 1_555
Cl13 Hg3 2.913724 1_556
Cl13 Cs1 3.676320 1_555
Cl13 Cs6 3.694472 1_556
Cl13 Cs3 3.897450 1_555
Cl13 Cs2 3.934090 1_556
Cl14 Hg6 2.539751 1_555
Cl14 Hg2 2.913724 1_565
Cl14 Cs0 3.676320 1_556
Cl14 Cs7 3.694472 1_555
Cl14 Cs4 3.897450 1_555
Cl14 Cs5 3.934090 1_555
Cl15 Hg7 2.539751 1_555
Cl15 Hg3 2.913724 1_565
Cl15 Cs1 3.676320 1_555
Cl15 Cs6 3.694472 1_555
Cl15 Cs5 3.897450 1_555
Cl15 Cs4 3.934090 1_554
Cl16 Hg7 2.664112 1_555
Cl16 Hg0 2.724190 1_565
Cl16 Cs4 3.783499 1_554
Cl16 Cs0 3.787460 1_555
Cl16 Cs5 3.789409 1_555
Cl16 Cs7 3.819720 1_555
Cl17 Hg6 2.664112 1_555
Cl17 Hg1 2.724190 1_565
Cl17 Cs5 3.783499 1_555
Cl17 Cs1 3.787460 1_555
Cl17 Cs4 3.789409 1_555
Cl17 Cs6 3.819720 1_556
Cl18 Hg5 2.664112 1_555
Cl18 Hg0 2.724190 1_656
Cl18 Cs2 3.783499 1_556
Cl18 Cs0 3.787460 1_656
Cl18 Cs3 3.789409 1_555
Cl18 Cs7 3.819720 1_655
Cl19 Hg4 2.664112 1_555
Cl19 Hg1 2.724190 1_555
Cl19 Cs3 3.783499 1_555
Cl19 Cs1 3.787460 1_555
Cl19 Cs2 3.789409 1_555
Cl19 Cs6 3.819720 1_555
Cl20 Hg7 2.694827 1_555
Cl20 Hg6 2.697921 1_555
Cl20 Cs7 3.785514 1_555
Cl20 Cs4 3.814239 1_545
Cl20 Cs5 3.838084 1_555
Cl20 Cs1 3.873051 1_555
Cl21 Hg6 2.694827 1_554
Cl21 Hg7 2.697921 1_555
Cl21 Cs6 3.785514 1_555
Cl21 Cs5 3.814239 1_545
Cl21 Cs4 3.838084 1_554
Cl21 Cs0 3.873051 1_555
Cl22 Hg5 2.694827 1_555
Cl22 Hg4 2.697921 1_555
Cl22 Cs7 3.785514 1_655
Cl22 Cs2 3.814239 1_565
Cl22 Cs3 3.838084 1_555
Cl22 Cs1 3.873051 1_555
Cl23 Hg4 2.694827 1_556
Cl23 Hg5 2.697921 1_555
Cl23 Cs6 3.785514 1_556
Cl23 Cs3 3.814239 1_565
Cl23 Cs2 3.838084 1_556
Cl23 Cs0 3.873051 1_656
