# generated using pymatgen
data_U2Te2N
_symmetry_space_group_name_H-M   'P 1'
_cell_length_a   6.29485200
_cell_length_b   6.29485200
_cell_length_c   28.57187600
_cell_angle_alpha   90.00000000
_cell_angle_beta   90.00000000
_cell_angle_gamma   90.00000000
_symmetry_Int_Tables_number   1
_chemical_formula_structural   U2Te2N
_chemical_formula_sum   'U16 Te16 N8'
_cell_volume   1132.16520663
_cell_formula_units_Z   8
loop_
 _symmetry_equiv_pos_site_id
 _symmetry_equiv_pos_as_xyz
  1  'x, y, z'
loop_
 _atom_site_type_symbol
 _atom_site_label
 _atom_site_symmetry_multiplicity
 _atom_site_fract_x
 _atom_site_fract_y
 _atom_site_fract_z
 _atom_site_occupancy
  U  U0_0  1  0.25000000  0.25000000  0.06935200  1
  U  U0_1  1  0.25000000  0.25000000  0.56935200  1
  U  U0_2  1  0.25000000  0.75000000  0.06935200  1
  U  U0_3  1  0.25000000  0.75000000  0.56935200  1
  U  U0_4  1  0.75000000  0.25000000  0.06935200  1
  U  U0_5  1  0.75000000  0.25000000  0.56935200  1
  U  U0_6  1  0.75000000  0.75000000  0.06935200  1
  U  U0_7  1  0.75000000  0.75000000  0.56935200  1
  U  U1_0  1  0.25000000  0.25000000  0.43064850  1
  U  U1_1  1  0.25000000  0.25000000  0.93064850  1
  U  U1_2  1  0.25000000  0.75000000  0.43064850  1
  U  U1_3  1  0.25000000  0.75000000  0.93064850  1
  U  U1_4  1  0.75000000  0.25000000  0.43064850  1
  U  U1_5  1  0.75000000  0.25000000  0.93064850  1
  U  U1_6  1  0.75000000  0.75000000  0.43064850  1
  U  U1_7  1  0.75000000  0.75000000  0.93064850  1
  Te  Te0_0  1  0.25000000  0.25000000  0.32087800  1
  Te  Te0_1  1  0.25000000  0.25000000  0.82087800  1
  Te  Te0_2  1  0.25000000  0.75000000  0.32087800  1
  Te  Te0_3  1  0.25000000  0.75000000  0.82087800  1
  Te  Te0_4  1  0.75000000  0.25000000  0.32087800  1
  Te  Te0_5  1  0.75000000  0.25000000  0.82087800  1
  Te  Te0_6  1  0.75000000  0.75000000  0.32087800  1
  Te  Te0_7  1  0.75000000  0.75000000  0.82087800  1
  Te  Te1_0  1  0.25000000  0.25000000  0.17912200  1
  Te  Te1_1  1  0.25000000  0.25000000  0.67912200  1
  Te  Te1_2  1  0.25000000  0.75000000  0.17912200  1
  Te  Te1_3  1  0.25000000  0.75000000  0.67912200  1
  Te  Te1_4  1  0.75000000  0.25000000  0.17912200  1
  Te  Te1_5  1  0.75000000  0.25000000  0.67912200  1
  Te  Te1_6  1  0.75000000  0.75000000  0.17912200  1
  Te  Te1_7  1  0.75000000  0.75000000  0.67912200  1
  N  N0_0  1  0.25000000  0.25000000  0.00000000  1
  N  N0_1  1  0.25000000  0.25000000  0.50000000  1
  N  N0_2  1  0.25000000  0.75000000  0.00000000  1
  N  N0_3  1  0.25000000  0.75000000  0.50000000  1
  N  N0_4  1  0.75000000  0.25000000  0.00000000  1
  N  N0_5  1  0.75000000  0.25000000  0.50000000  1
  N  N0_6  1  0.75000000  0.75000000  0.00000000  1
  N  N0_7  1  0.75000000  0.75000000  0.50000000  1
loop_
_geom_bond_atom_site_label_1
_geom_bond_atom_site_label_2
_geom_bond_distance
_geom_bond_site_symmetry_2
Te0_0 U1_0 3.136349 1_555
Te0_0 Te0_4 3.147426 1_455
Te0_0 Te0_2 3.147426 1_545
Te0_0 Te0_2 3.147426 1_555
Te0_0 Te0_4 3.147426 1_555
Te0_1 U1_1 3.136349 1_555
Te0_1 Te0_3 3.147426 1_545
Te0_1 Te0_5 3.147426 1_455
Te0_1 Te0_3 3.147426 1_555
Te0_1 Te0_5 3.147426 1_555
Te0_2 U1_2 3.136349 1_555
Te0_2 Te0_6 3.147426 1_455
Te0_2 Te0_6 3.147426 1_555
Te0_3 U1_3 3.136349 1_555
Te0_3 Te0_7 3.147426 1_455
Te0_3 Te0_7 3.147426 1_555
Te0_4 U1_4 3.136349 1_555
Te0_4 Te0_6 3.147426 1_545
Te0_4 Te0_6 3.147426 1_555
Te0_5 U1_5 3.136349 1_555
Te0_5 Te0_7 3.147426 1_545
Te0_5 Te0_7 3.147426 1_555
Te0_6 U1_6 3.136349 1_555
Te0_7 U1_7 3.136349 1_555
Te1_0 U0_0 3.136335 1_555
Te1_0 Te1_2 3.147426 1_545
Te1_0 Te1_4 3.147426 1_455
Te1_0 Te1_4 3.147426 1_555
Te1_0 Te1_2 3.147426 1_555
Te1_1 U0_1 3.136335 1_555
Te1_1 Te1_5 3.147426 1_455
Te1_1 Te1_3 3.147426 1_545
Te1_1 Te1_3 3.147426 1_555
Te1_1 Te1_5 3.147426 1_555
Te1_2 U0_2 3.136335 1_555
Te1_2 Te1_6 3.147426 1_455
Te1_2 Te1_6 3.147426 1_555
Te1_3 U0_3 3.136335 1_555
Te1_3 Te1_7 3.147426 1_455
Te1_3 Te1_7 3.147426 1_555
Te1_4 U0_4 3.136335 1_555
Te1_4 Te1_6 3.147426 1_545
Te1_4 Te1_6 3.147426 1_555
Te1_5 U0_5 3.136335 1_555
Te1_5 Te1_7 3.147426 1_545
Te1_5 Te1_7 3.147426 1_555
Te1_6 U0_6 3.136335 1_555
Te1_7 U0_7 3.136335 1_555
N0_0 U1_1 1.981502 1_554
N0_0 U0_0 1.981517 1_555
N0_1 U1_0 1.981502 1_555
N0_1 U0_1 1.981517 1_555
N0_2 U1_3 1.981502 1_554
N0_2 U0_2 1.981517 1_555
N0_3 U1_2 1.981502 1_555
N0_3 U0_3 1.981517 1_555
N0_4 U1_5 1.981502 1_554
N0_4 U0_4 1.981517 1_555
N0_5 U1_4 1.981502 1_555
N0_5 U0_5 1.981517 1_555
N0_6 U1_7 1.981502 1_554
N0_6 U0_6 1.981517 1_555
N0_7 U1_6 1.981502 1_555
N0_7 U0_7 1.981517 1_555
