# generated using pymatgen
data_YAl2Co
_symmetry_space_group_name_H-M   'P 1'
_cell_length_a   4.00299365
_cell_length_b   5.45136005
_cell_length_c   6.94082955
_cell_angle_alpha   90.00000000
_cell_angle_beta   90.00000000
_cell_angle_gamma   111.54029025
_symmetry_Int_Tables_number   1
_chemical_formula_structural   YAl2Co
_chemical_formula_sum   'Y2 Al4 Co2'
_cell_volume   140.88301176
_cell_formula_units_Z   2
loop_
 _symmetry_equiv_pos_site_id
 _symmetry_equiv_pos_as_xyz
  1  'x, y, z'
loop_
 _atom_site_type_symbol
 _atom_site_label
 _atom_site_symmetry_multiplicity
 _atom_site_fract_x
 _atom_site_fract_y
 _atom_site_fract_z
 _atom_site_occupancy
  Y  Y0  1  0.05793449  0.11586998  0.75000000  1
  Y  Y1  1  0.94206551  0.88413002  0.25000000  1
  Al  Al0  1  0.33503881  0.67007561  0.94344795  1
  Al  Al1  1  0.66496119  0.32992439  0.05655205  1
  Al  Al2  1  0.66496119  0.32992439  0.44344795  1
  Al  Al3  1  0.33503881  0.67007561  0.55655205  1
  Co  Co0  1  0.78476773  0.56953547  0.75000000  1
  Co  Co1  1  0.21523227  0.43046553  0.25000000  1
loop_
_geom_bond_atom_site_label_1
_geom_bond_atom_site_label_2
_geom_bond_distance
_geom_bond_site_symmetry_2
Al0 Co1 2.450180 1_556
Al0 Co0 2.463470 1_555
Al0 Co0 2.463477 1_455
Al0 Al3 2.685378 1_555
Al0 Al1 2.756286 1_556
Al0 Al1 2.756298 1_456
Al0 Y0 3.114465 1_555
Al0 Y1 3.116292 1_556
Al0 Y1 3.116294 1_456
Al0 Y0 3.304310 1_665
Al0 Y0 3.304317 1_565
Al1 Co0 2.450182 1_554
Al1 Co1 2.463473 1_555
Al1 Co1 2.463476 1_655
Al1 Al2 2.685378 1_555
Al1 Y1 3.114465 1_555
Al1 Y0 3.116292 1_554
Al1 Y0 3.116294 1_654
Al1 Y1 3.304310 1_445
Al1 Y1 3.304317 1_545
Al2 Co0 2.450182 1_555
Al2 Co1 2.463473 1_555
Al2 Co1 2.463476 1_655
Al2 Al3 2.756286 1_555
Al2 Al3 2.756298 1_655
Al2 Y1 3.114465 1_555
Al2 Y0 3.116292 1_555
Al2 Y0 3.116294 1_655
Al2 Y1 3.304310 1_445
Al2 Y1 3.304317 1_545
Al3 Co1 2.450180 1_555
Al3 Co0 2.463470 1_555
Al3 Co0 2.463477 1_455
Al3 Y0 3.114465 1_555
Al3 Y1 3.116292 1_555
Al3 Y1 3.116294 1_455
Al3 Y0 3.304310 1_665
Al3 Y0 3.304317 1_565
Co0 Y0 2.770263 1_665
Co0 Y0 3.049212 1_655
Co0 Y0 3.049215 1_555
Co1 Y1 2.770268 1_445
Co1 Y1 3.049207 1_455
Co1 Y1 3.049212 1_555
