# generated using pymatgen
data_Si2BPH29C9N
_symmetry_space_group_name_H-M   'P 1'
_cell_length_a   9.38810824
_cell_length_b   9.38810824
_cell_length_c   11.59802700
_cell_angle_alpha   90.00000000
_cell_angle_beta   90.00000000
_cell_angle_gamma   109.60100046
_symmetry_Int_Tables_number   1
_chemical_formula_structural   Si2BPH29C9N
_chemical_formula_sum   'Si4 B2 P2 H58 C18 N2'
_cell_volume   962.97493031
_cell_formula_units_Z   2
loop_
 _symmetry_equiv_pos_site_id
 _symmetry_equiv_pos_as_xyz
  1  'x, y, z'
loop_
 _atom_site_type_symbol
 _atom_site_label
 _atom_site_symmetry_multiplicity
 _atom_site_fract_x
 _atom_site_fract_y
 _atom_site_fract_z
 _atom_site_occupancy
  Si  Si0  1  0.21550900  0.97821100  0.83872800  1
  Si  Si1  1  0.97821100  0.21550900  0.83872800  1
  Si  Si2  1  0.78449100  0.02178900  0.33872800  1
  Si  Si3  1  0.02178900  0.78449100  0.33872800  1
  B  B0  1  0.34747800  0.34747800  0.91670400  1
  B  B1  1  0.65252200  0.65252200  0.41670400  1
  P  P0  1  0.16291400  0.16291400  0.93696000  1
  P  P1  1  0.83708600  0.83708600  0.43696000  1
  H  H0  1  0.37958500  0.82776100  0.88451200  1
  H  H1  1  0.82776100  0.37958500  0.88451200  1
  H  H2  1  0.62041500  0.17223900  0.38451200  1
  H  H3  1  0.17223900  0.62041500  0.38451200  1
  H  H4  1  0.30003600  0.87311400  0.01352300  1
  H  H5  1  0.87311400  0.30003600  0.01352300  1
  H  H6  1  0.69996400  0.12688600  0.51352300  1
  H  H7  1  0.12688600  0.69996400  0.51352300  1
  H  H8  1  0.45715000  0.01116100  0.94626500  1
  H  H9  1  0.01116100  0.45715000  0.94626500  1
  H  H10  1  0.54285000  0.98883900  0.44626500  1
  H  H11  1  0.98883900  0.54285000  0.44626500  1
  H  H12  1  0.96833500  0.82421400  0.75050600  1
  H  H13  1  0.82421400  0.96833500  0.75050600  1
  H  H14  1  0.03166500  0.17578600  0.25050600  1
  H  H15  1  0.17578600  0.03166500  0.25050600  1
  H  H16  1  0.97924900  0.76705800  0.89645400  1
  H  H17  1  0.76705800  0.97924900  0.89645400  1
  H  H18  1  0.02075100  0.23294200  0.39645400  1
  H  H19  1  0.23294200  0.02075100  0.39645400  1
  H  H20  1  0.08171600  0.71231200  0.78563400  1
  H  H21  1  0.71231200  0.08171600  0.78563400  1
  H  H22  1  0.91828400  0.28768800  0.28563400  1
  H  H23  1  0.28768800  0.91828400  0.28563400  1
  H  H24  1  0.33306700  0.93618200  0.65405300  1
  H  H25  1  0.93618200  0.33306700  0.65405300  1
  H  H26  1  0.66693300  0.06381800  0.15405300  1
  H  H27  1  0.06381800  0.66693300  0.15405300  1
  H  H28  1  0.40791600  0.12921500  0.69669000  1
  H  H29  1  0.12921500  0.40791600  0.69669000  1
  H  H30  1  0.59208400  0.87078500  0.19669000  1
  H  H31  1  0.87078500  0.59208400  0.19669000  1
  H  H32  1  0.22452700  0.05680400  0.63268000  1
  H  H33  1  0.05680400  0.22452700  0.63268000  1
  H  H34  1  0.77547300  0.94319600  0.13268000  1
  H  H35  1  0.94319600  0.77547300  0.13268000  1
  H  H36  1  0.52311100  0.63993000  0.96582500  1
  H  H37  1  0.63993000  0.52311100  0.96582500  1
  H  H38  1  0.47688900  0.36007000  0.46582500  1
  H  H39  1  0.36007000  0.47688900  0.46582500  1
  H  H40  1  0.60948600  0.60948600  0.09740600  1
  H  H41  1  0.39051400  0.39051400  0.59740600  1
  H  H42  1  0.21656700  0.37922900  0.13218000  1
  H  H43  1  0.37922900  0.21656700  0.13218000  1
  H  H44  1  0.78343300  0.62077100  0.63218000  1
  H  H45  1  0.62077100  0.78343300  0.63218000  1
  H  H46  1  0.28655100  0.55977800  0.06208900  1
  H  H47  1  0.55977800  0.28655100  0.06208900  1
  H  H48  1  0.71344900  0.44022200  0.56208900  1
  H  H49  1  0.44022200  0.71344900  0.56208900  1
  H  H50  1  0.37606100  0.52711300  0.19141900  1
  H  H51  1  0.52711300  0.37606100  0.19141900  1
  H  H52  1  0.62393900  0.47288700  0.69141900  1
  H  H53  1  0.47288700  0.62393900  0.69141900  1
  H  H54  1  0.44943300  0.31661100  0.86926100  1
  H  H55  1  0.31661100  0.44943300  0.86926100  1
  H  H56  1  0.55056700  0.68338900  0.36926100  1
  H  H57  1  0.68338900  0.55056700  0.36926100  1
  C  C0  1  0.35139200  0.91774200  0.93012500  1
  C  C1  1  0.91774200  0.35139200  0.93012500  1
  C  C2  1  0.64860800  0.08225800  0.43012500  1
  C  C3  1  0.08225800  0.64860800  0.43012500  1
  C  C4  1  0.04351000  0.80458100  0.81650900  1
  C  C5  1  0.80458100  0.04351000  0.81650900  1
  C  C6  1  0.95649000  0.19541900  0.31650900  1
  C  C7  1  0.19541900  0.95649000  0.31650900  1
  C  C8  1  0.30395700  0.03075700  0.69166800  1
  C  C9  1  0.03075700  0.30395700  0.69166800  1
  C  C10  1  0.69604300  0.96924300  0.19166800  1
  C  C11  1  0.96924300  0.69604300  0.19166800  1
  C  C12  1  0.55835800  0.55835800  0.01553500  1
  C  C13  1  0.44164200  0.44164200  0.51553500  1
  C  C14  1  0.31780500  0.47574600  0.11151300  1
  C  C15  1  0.47574600  0.31780500  0.11151300  1
  C  C16  1  0.68219500  0.52425400  0.61151300  1
  C  C17  1  0.52425400  0.68219500  0.61151300  1
  N  N0  1  0.42301400  0.42301400  0.04085400  1
  N  N1  1  0.57698600  0.57698600  0.54085400  1
loop_
_geom_bond_atom_site_label_1
_geom_bond_atom_site_label_2
_geom_bond_distance
_geom_bond_site_symmetry_2
B0 H55 1.220248 1_555
B0 H54 1.220248 1_555
B0 N0 1.655795 1_556
B0 P0 2.011319 1_555
B1 H57 1.220248 1_555
B1 H56 1.220248 1_555
B1 N1 1.655795 1_555
B1 P1 2.011319 1_555
P0 Si1 2.263417 1_455
P0 Si0 2.263417 1_545
P1 Si2 2.263417 1_565
P1 Si3 2.263417 1_655
C0 H8 1.098076 1_565
C0 H4 1.099109 1_556
C0 H0 1.101606 1_555
C0 Si0 1.886579 1_555
C1 H9 1.098076 1_655
C1 H5 1.099109 1_556
C1 H1 1.101606 1_555
C1 Si1 1.886579 1_555
C2 H10 1.098076 1_545
C2 H6 1.099109 1_555
C2 H2 1.101606 1_555
C2 Si2 1.886579 1_555
C3 H11 1.098076 1_455
C3 H7 1.099109 1_555
C3 H3 1.101606 1_555
C3 Si3 1.886579 1_555
C4 H16 1.097803 1_455
C4 H12 1.097876 1_455
C4 H20 1.102587 1_555
C4 Si0 1.888096 1_555
C5 H17 1.097803 1_545
C5 H13 1.097876 1_545
C5 H21 1.102587 1_555
C5 Si1 1.888096 1_555
C6 H18 1.097803 1_655
C6 H14 1.097876 1_655
C6 H22 1.102587 1_555
C6 Si2 1.888096 1_555
C7 H19 1.097803 1_565
C7 H15 1.097876 1_565
C7 H23 1.102587 1_555
C7 Si3 1.888096 1_555
C8 H28 1.097747 1_555
C8 H32 1.098297 1_555
C8 H24 1.102788 1_545
C8 Si0 1.888679 1_545
C9 H29 1.097747 1_555
C9 H33 1.098297 1_555
C9 H25 1.102788 1_455
C9 Si1 1.888679 1_455
C10 H30 1.097747 1_555
C10 H34 1.098297 1_555
C10 H26 1.102788 1_565
C10 Si2 1.888679 1_565
C11 H31 1.097747 1_555
C11 H35 1.098297 1_555
C11 H27 1.102788 1_655
C11 Si3 1.888679 1_655
C12 H37 1.094702 1_554
C12 H36 1.094702 1_554
C12 H40 1.099018 1_555
C12 N0 1.493983 1_555
C13 H38 1.094702 1_555
C13 H39 1.094702 1_555
C13 H41 1.099018 1_555
C13 N1 1.493983 1_555
C14 H46 1.091946 1_555
C14 H42 1.097273 1_555
C14 H50 1.101628 1_555
C14 N0 1.490071 1_555
C15 H47 1.091946 1_555
C15 H43 1.097273 1_555
C15 H51 1.101628 1_555
C15 N0 1.490071 1_555
C16 H48 1.091946 1_555
C16 H44 1.097273 1_555
C16 H52 1.101628 1_555
C16 N1 1.490071 1_555
C17 H49 1.091946 1_555
C17 H45 1.097273 1_555
C17 H53 1.101628 1_555
C17 N1 1.490071 1_555
