# generated using pymatgen
data_Sr4MgMn2Ga2O11
_symmetry_space_group_name_H-M   'P 1'
_cell_length_a   5.87472550
_cell_length_b   5.87454097
_cell_length_c   8.92468855
_cell_angle_alpha   69.88166309
_cell_angle_beta   69.81767815
_cell_angle_gamma   87.32584237
_symmetry_Int_Tables_number   1
_chemical_formula_structural   Sr4MgMn2Ga2O11
_chemical_formula_sum   'Sr4 Mg1 Mn2 Ga2 O11'
_cell_volume   270.54440786
_cell_formula_units_Z   1
loop_
 _symmetry_equiv_pos_site_id
 _symmetry_equiv_pos_as_xyz
  1  'x, y, z'
loop_
 _atom_site_type_symbol
 _atom_site_label
 _atom_site_symmetry_multiplicity
 _atom_site_fract_x
 _atom_site_fract_y
 _atom_site_fract_z
 _atom_site_occupancy
  Sr  Sr0  1  0.14121800  0.64164800  0.72881200  1
  Sr  Sr1  1  0.64058500  0.14077000  0.69919400  1
  Sr  Sr2  1  0.33995200  0.83974100  0.30078700  1
  Sr  Sr3  1  0.87049300  0.37001800  0.27117400  1
  Mg  Mg0  1  0.31265800  0.81267700  0.99998900  1
  Mn  Mn0  1  0.24753600  0.24752500  0.49998600  1
  Mn  Mn1  1  0.74728600  0.74728100  0.49999000  1
  Ga  Ga0  1  0.52893300  0.41257900  0.99936400  1
  Ga  Ga1  1  0.91189700  0.02830300  0.00066400  1
  O  O0  1  0.16337200  0.01306900  0.80660900  1
  O  O1  1  0.51695300  0.66310500  0.80369900  1
  O  O2  1  0.31971200  0.46995500  0.19344900  1
  O  O3  1  0.96676800  0.82068600  0.19634300  1
  O  O4  1  0.52094300  0.02195300  0.46105700  1
  O  O5  1  0.98309400  0.48207700  0.53889300  1
  O  O6  1  0.00083400  0.00086000  0.49997200  1
  O  O7  1  0.49529600  0.49527500  0.50002100  1
  O  O8  1  0.84523400  0.34521800  0.00000400  1
  O  O9  1  0.65372100  0.86512200  0.99980100  1
  O  O10  1  0.36494600  0.15356600  0.00019100  1
loop_
_geom_bond_atom_site_label_1
_geom_bond_atom_site_label_2
_geom_bond_distance
_geom_bond_site_symmetry_2
Mg0 O9 2.040703 1_555
Mg0 O10 2.040809 1_566
Mg0 O0 2.164252 1_565
Mg0 O2 2.164842 1_556
Mg0 O1 2.188860 1_555
Mg0 O3 2.189268 1_456
Mn0 O4 2.046847 1_555
Mn0 O5 2.046888 1_455
Mn0 O6 2.096767 1_555
Mn0 O7 2.105963 1_555
Mn0 O2 2.482670 1_555
Mn0 O0 2.483366 1_555
Mn1 O5 2.055534 1_555
Mn1 O4 2.055569 1_565
Mn1 O7 2.141747 1_555
Mn1 O6 2.155108 1_665
Mn1 O3 2.455458 1_555
Mn1 O1 2.456011 1_555
Ga0 O10 1.835079 1_556
Ga0 O2 1.875791 1_556
Ga0 O1 1.878163 1_555
Ga0 O8 1.883246 1_556
Ga1 O9 1.835273 1_544
Ga1 O0 1.875843 1_654
Ga1 O3 1.878243 1_545
Ga1 O8 1.882939 1_555
O0 Sr0 2.528009 1_545
O0 Sr1 2.681124 1_555
O1 Sr0 2.537083 1_555
O1 Sr1 2.682117 1_565
O2 Sr3 2.528167 1_455
O2 Sr2 2.680498 1_555
O3 Sr3 2.537276 1_555
O3 Sr2 2.681899 1_655
O4 Sr2 2.555609 1_545
O4 Sr3 2.622304 1_555
O4 Sr1 2.755926 1_555
O4 Sr0 2.965152 1_545
O5 Sr1 2.555863 1_555
O5 Sr0 2.622076 1_655
O5 Sr2 2.755171 1_655
O5 Sr3 2.965294 1_555
O6 Sr1 2.561702 1_455
O6 Sr2 2.561782 1_545
O6 Sr3 2.708600 1_455
O6 Sr0 2.709115 1_545
O7 Sr1 2.561193 1_555
O7 Sr2 2.561544 1_555
O7 Sr0 2.710301 1_555
O7 Sr3 2.710605 1_555
O8 Sr3 2.528345 1_555
O8 Sr0 2.528452 1_654
O9 Sr1 2.639755 1_565
O9 Sr2 2.639927 1_556
O10 Sr2 2.639788 1_545
O10 Sr1 2.640084 1_554
