# generated using pymatgen
data_PrZn(CoO3)2
_symmetry_space_group_name_H-M   'P 1'
_cell_length_a   5.32770700
_cell_length_b   5.37346400
_cell_length_c   7.71256100
_cell_angle_alpha   90.00000000
_cell_angle_beta   90.00000000
_cell_angle_gamma   90.00000000
_symmetry_Int_Tables_number   1
_chemical_formula_structural   PrZn(CoO3)2
_chemical_formula_sum   'Pr2 Zn2 Co4 O12'
_cell_volume   220.79706095
_cell_formula_units_Z   2
loop_
 _symmetry_equiv_pos_site_id
 _symmetry_equiv_pos_as_xyz
  1  'x, y, z'
loop_
 _atom_site_type_symbol
 _atom_site_label
 _atom_site_symmetry_multiplicity
 _atom_site_fract_x
 _atom_site_fract_y
 _atom_site_fract_z
 _atom_site_occupancy
  Pr  Pr0  1  0.00442200  0.71282500  0.00000000  1
  Pr  Pr1  1  0.50442200  0.28717500  0.50000000  1
  Zn  Zn0  1  0.48141700  0.20726500  0.00000000  1
  Zn  Zn1  1  0.98141700  0.79273500  0.50000000  1
  Co  Co0  1  0.99559200  0.24505800  0.75010900  1
  Co  Co1  1  0.99559200  0.24505800  0.24989100  1
  Co  Co2  1  0.49559200  0.75494200  0.25010900  1
  Co  Co3  1  0.49559200  0.75494200  0.74989100  1
  O  O0  1  0.07751400  0.18736900  0.50000000  1
  O  O1  1  0.21615700  0.99608600  0.80700200  1
  O  O2  1  0.21615700  0.99608600  0.19299800  1
  O  O3  1  0.32452000  0.46500500  0.19026200  1
  O  O4  1  0.32452000  0.46500500  0.80973800  1
  O  O5  1  0.36335500  0.72466500  0.50000000  1
  O  O6  1  0.57751400  0.81263100  0.00000000  1
  O  O7  1  0.71615700  0.00391400  0.69299800  1
  O  O8  1  0.71615700  0.00391400  0.30700200  1
  O  O9  1  0.82452000  0.53499500  0.69026200  1
  O  O10  1  0.82452000  0.53499500  0.30973800  1
  O  O11  1  0.86335500  0.27533500  0.00000000  1
loop_
_geom_bond_atom_site_label_1
_geom_bond_atom_site_label_2
_geom_bond_distance
_geom_bond_site_symmetry_2
Co0 O1 1.833912 1_645
Co0 O9 1.863061 1_555
Co0 O0 2.001888 1_655
Co0 O7 2.022233 1_555
Co0 O11 2.058471 1_556
Co0 O4 2.163181 1_655
Co1 O2 1.833912 1_645
Co1 O10 1.863061 1_555
Co1 O0 2.001888 1_655
Co1 O8 2.022233 1_555
Co1 O11 2.058471 1_555
Co1 O3 2.163181 1_655
Co2 O8 1.833912 1_565
Co2 O3 1.863061 1_555
Co2 O6 2.001888 1_555
Co2 O2 2.022233 1_555
Co2 O5 2.058471 1_555
Co2 O10 2.163181 1_555
Co3 O7 1.833912 1_565
Co3 O4 1.863061 1_555
Co3 O6 2.001888 1_556
Co3 O1 2.022233 1_555
Co3 O5 2.058471 1_555
Co3 O9 2.163181 1_555
O0 Zn1 2.181481 1_445
O0 Pr1 2.336815 1_555
O1 Zn0 2.345327 1_566
O1 Pr0 2.409346 1_556
O2 Zn0 2.345327 1_565
O2 Pr0 2.409346 1_555
O3 Zn0 2.184060 1_555
O3 Pr0 2.614370 1_555
O3 Pr1 2.745628 1_555
O4 Zn0 2.184060 1_556
O4 Pr0 2.614370 1_556
O4 Pr1 2.745628 1_555
O5 Zn1 2.067467 1_455
O5 Pr1 2.468052 1_555
O6 Zn0 2.181481 1_565
O6 Pr0 2.336815 1_655
O7 Zn1 2.345327 1_545
O7 Pr1 2.409346 1_555
O8 Zn1 2.345327 1_545
O8 Pr1 2.409346 1_555
O9 Zn1 2.184060 1_555
O9 Pr1 2.614370 1_555
O9 Pr0 2.745628 1_656
O10 Zn1 2.184060 1_555
O10 Pr1 2.614370 1_555
O10 Pr0 2.745628 1_655
O11 Zn0 2.067467 1_555
O11 Pr0 2.468052 1_655
