# generated using pymatgen
data_Gd5Pb3
_symmetry_space_group_name_H-M   'P 1'
_cell_length_a   9.19060646
_cell_length_b   9.19059255
_cell_length_c   6.64838489
_cell_angle_alpha   89.99995774
_cell_angle_beta   90.00005953
_cell_angle_gamma   119.99957927
_symmetry_Int_Tables_number   1
_chemical_formula_structural   Gd5Pb3
_chemical_formula_sum   'Gd10 Pb6'
_cell_volume   486.33587795
_cell_formula_units_Z   2
loop_
 _symmetry_equiv_pos_site_id
 _symmetry_equiv_pos_as_xyz
  1  'x, y, z'
loop_
 _atom_site_type_symbol
 _atom_site_label
 _atom_site_symmetry_multiplicity
 _atom_site_fract_x
 _atom_site_fract_y
 _atom_site_fract_z
 _atom_site_occupancy
  Gd  Gd0  1  0.66666578  0.33333310  0.00000089  1
  Gd  Gd1  1  0.33333293  0.66666608  -0.00000018  1
  Gd  Gd2  1  0.33333387  0.66666812  0.49999962  1
  Gd  Gd3  1  0.66666317  0.33333001  0.50000061  1
  Gd  Gd4  1  0.76069665  0.76069843  0.75000002  1
  Gd  Gd5  1  0.23930319  -0.00000035  0.75000004  1
  Gd  Gd6  1  0.00000073  0.23930254  0.74999893  1
  Gd  Gd7  1  0.23930286  0.23930251  0.24999939  1
  Gd  Gd8  1  0.76069765  -0.00000003  0.24999868  1
  Gd  Gd9  1  0.00000164  0.76069854  0.25000146  1
  Pb  Pb0  1  0.39127096  0.39127154  0.75000099  1
  Pb  Pb1  1  0.60873163  0.00000074  0.75000064  1
  Pb  Pb2  1  -0.00000315  0.60872886  0.74999973  1
  Pb  Pb3  1  0.60873327  0.60873161  0.25000001  1
  Pb  Pb4  1  0.39127066  0.99999886  0.24999832  1
  Pb  Pb5  1  -0.00000184  0.39126943  0.25000085  1
loop_
_geom_bond_atom_site_label_1
_geom_bond_atom_site_label_2
_geom_bond_distance
_geom_bond_site_symmetry_2
Gd0 Pb3 3.286335 1_555
Gd0 Pb0 3.286339 1_554
Gd0 Pb5 3.286345 1_655
Gd0 Pb1 3.286350 1_554
Gd0 Pb4 3.286353 1_545
Gd0 Pb2 3.286354 1_654
Gd0 Gd3 3.324191 1_555
Gd0 Gd3 3.324194 1_554
Gd0 Gd8 3.942343 1_555
Gd0 Gd7 3.942349 1_555
Gd0 Gd4 3.942366 1_554
Gd0 Gd5 3.942366 1_554
Gd0 Gd6 3.942369 1_654
Gd0 Gd9 3.942386 1_655
Gd1 Pb0 3.286331 1_554
Gd1 Pb4 3.286337 1_555
Gd1 Pb3 3.286363 1_555
Gd1 Pb2 3.286371 1_554
Gd1 Pb1 3.286371 1_564
Gd1 Pb5 3.286374 1_555
Gd1 Gd2 3.324191 1_555
Gd1 Gd2 3.324194 1_554
Gd1 Gd5 3.942341 1_564
Gd1 Gd9 3.942349 1_555
Gd1 Gd7 3.942350 1_555
Gd1 Gd4 3.942354 1_554
Gd1 Gd6 3.942367 1_554
Gd1 Gd8 3.942374 1_565
Gd2 Pb4 3.286331 1_555
Gd2 Pb0 3.286348 1_555
Gd2 Pb1 3.286364 1_565
Gd2 Pb3 3.286367 1_555
Gd2 Pb5 3.286376 1_555
Gd2 Pb2 3.286376 1_555
Gd2 Gd9 3.942332 1_555
Gd2 Gd5 3.942334 1_565
Gd2 Gd4 3.942351 1_555
Gd2 Gd7 3.942368 1_555
Gd2 Gd8 3.942371 1_565
Gd2 Gd6 3.942377 1_555
Gd3 Pb1 3.286330 1_555
Gd3 Pb0 3.286339 1_555
Gd3 Pb4 3.286347 1_545
Gd3 Pb3 3.286349 1_555
Gd3 Pb5 3.286358 1_655
Gd3 Pb2 3.286367 1_655
Gd3 Gd7 3.942340 1_555
Gd3 Gd5 3.942341 1_555
Gd3 Gd8 3.942347 1_555
Gd3 Gd6 3.942359 1_655
Gd3 Gd4 3.942382 1_555
Gd3 Gd9 3.942406 1_655
Gd4 Pb1 3.139959 1_565
Gd4 Pb2 3.139976 1_655
Gd4 Pb0 3.395271 1_555
Gd4 Pb3 3.605677 1_555
Gd4 Pb3 3.605678 1_556
Gd4 Gd6 3.809363 1_665
Gd4 Gd5 3.809389 1_665
Gd4 Gd8 3.985876 1_566
Gd4 Gd8 3.985888 1_565
Gd4 Gd9 3.985898 1_655
Gd4 Gd9 3.985910 1_656
Gd5 Pb0 3.140009 1_555
Gd5 Pb2 3.140010 1_545
Gd5 Pb1 3.395266 1_555
Gd5 Pb4 3.605673 1_546
Gd5 Pb4 3.605697 1_545
Gd5 Gd6 3.809352 1_555
Gd5 Gd9 3.985884 1_545
Gd5 Gd7 3.985890 1_556
Gd5 Gd7 3.985894 1_555
Gd5 Gd9 3.985901 1_546
Gd6 Pb1 3.139996 1_455
Gd6 Pb0 3.139999 1_555
Gd6 Pb2 3.395265 1_555
Gd6 Pb5 3.605672 1_555
Gd6 Pb5 3.605698 1_556
Gd6 Gd7 3.985889 1_555
Gd6 Gd7 3.985890 1_556
Gd6 Gd8 3.985899 1_456
Gd6 Gd8 3.985901 1_455
Gd7 Pb4 3.139991 1_545
Gd7 Pb5 3.139995 1_555
Gd7 Pb3 3.395303 1_555
Gd7 Pb0 3.605681 1_554
Gd7 Pb0 3.605700 1_555
Gd7 Gd9 3.809362 1_545
Gd7 Gd8 3.809378 1_455
Gd8 Pb3 3.139983 1_545
Gd8 Pb5 3.139993 1_655
Gd8 Pb4 3.395253 1_545
Gd8 Pb1 3.605666 1_554
Gd8 Pb1 3.605693 1_555
Gd8 Gd9 3.809353 1_645
Gd9 Pb3 3.139985 1_455
Gd9 Pb4 3.139994 1_555
Gd9 Pb5 3.395256 1_555
Gd9 Pb2 3.605670 1_555
Gd9 Pb2 3.605693 1_554
