# generated using pymatgen
data_Cr12Fe3S20
_symmetry_space_group_name_H-M   'P 1'
_cell_length_a   7.78621200
_cell_length_b   8.64657257
_cell_length_c   7.97618410
_cell_angle_alpha   78.53926077
_cell_angle_beta   88.62155139
_cell_angle_gamma   75.72391853
_symmetry_Int_Tables_number   1
_chemical_formula_structural   Cr12Fe3S20
_chemical_formula_sum   'Cr12 Fe3 S20'
_cell_volume   509.85389475
_cell_formula_units_Z   1
loop_
 _symmetry_equiv_pos_site_id
 _symmetry_equiv_pos_as_xyz
  1  'x, y, z'
loop_
 _atom_site_type_symbol
 _atom_site_label
 _atom_site_symmetry_multiplicity
 _atom_site_fract_x
 _atom_site_fract_y
 _atom_site_fract_z
 _atom_site_occupancy
  Cr  Cr0  1  0.20117700  0.20019800  0.20295500  1
  Cr  Cr1  1  0.59882300  0.59980200  0.59704500  1
  Cr  Cr2  1  0.84127000  0.63080000  0.32204600  1
  Cr  Cr3  1  0.24349400  0.03270300  0.72333700  1
  Cr  Cr4  1  0.64039600  0.43679600  0.11801600  1
  Cr  Cr5  1  0.03541600  0.82147300  0.51601200  1
  Cr  Cr6  1  0.43363400  0.23522800  0.91592400  1
  Cr  Cr7  1  0.76458400  0.97852700  0.28398800  1
  Cr  Cr8  1  0.15960400  0.36320400  0.68198400  1
  Cr  Cr9  1  0.55650600  0.76729700  0.07666300  1
  Cr  Cr10  1  0.95873000  0.16920000  0.47795400  1
  Cr  Cr11  1  0.36636600  0.56477200  0.88407600  1
  Fe  Fe0  1  0.99218000  0.99131600  0.99097600  1
  Fe  Fe1  1  0.40000000  0.40000000  0.40000000  1
  Fe  Fe2  1  0.80782000  0.80868400  0.80902400  1
  S  S0  1  0.89715700  0.19942500  0.17235100  1
  S  S1  1  0.69300400  0.99630100  0.98010300  1
  S  S2  1  0.50015500  0.79555300  0.77514100  1
  S  S3  1  0.29506500  0.59067400  0.57562200  1
  S  S4  1  0.09966100  0.39741000  0.37677400  1
  S  S5  1  0.29984500  0.00444700  0.02485900  1
  S  S6  1  0.10699600  0.80369900  0.81989700  1
  S  S7  1  0.90284300  0.60057500  0.62764900  1
  S  S8  1  0.70033900  0.40259000  0.42322600  1
  S  S9  1  0.50493500  0.20932600  0.22437800  1
  S  S10  1  0.37482700  0.59820200  0.15827400  1
  S  S11  1  0.17305200  0.40638600  0.95237300  1
  S  S12  1  0.97576200  0.19696500  0.75799600  1
  S  S13  1  0.77729000  0.99791200  0.56325600  1
  S  S14  1  0.57697600  0.80719800  0.35036200  1
  S  S15  1  0.82423800  0.60303500  0.04200400  1
  S  S16  1  0.62694800  0.39361400  0.84762700  1
  S  S17  1  0.42517300  0.20179800  0.64172600  1
  S  S18  1  0.22302400  0.99280200  0.44963800  1
  S  S19  1  0.02271000  0.80208800  0.23674400  1
loop_
_geom_bond_atom_site_label_1
_geom_bond_atom_site_label_2
_geom_bond_distance
_geom_bond_site_symmetry_2
Cr0 S18 2.362125 1_545
Cr0 S11 2.373528 1_554
Cr0 S4 2.382576 1_555
Cr0 S0 2.387331 1_455
Cr0 S5 2.394697 1_555
Cr0 S9 2.397104 1_555
Cr1 S14 2.362125 1_555
Cr1 S16 2.373528 1_555
Cr1 S8 2.382576 1_555
Cr1 S7 2.387331 1_555
Cr1 S2 2.394697 1_555
Cr1 S3 2.397104 1_555
Cr2 S14 2.275667 1_555
Cr2 S19 2.288552 1_655
Cr2 S15 2.303810 1_555
Cr2 S7 2.445619 1_555
Cr2 S4 2.449588 1_655
Cr2 S8 2.478206 1_555
Cr3 S12 2.259954 1_455
Cr3 S17 2.271571 1_555
Cr3 S18 2.292032 1_545
Cr3 S5 2.408444 1_556
Cr3 S6 2.456826 1_545
Cr3 S2 2.459903 1_545
Cr4 S10 2.247093 1_555
Cr4 S15 2.260393 1_555
Cr4 S16 2.269748 1_554
Cr4 S8 2.435596 1_555
Cr4 S9 2.453077 1_555
Cr4 S0 2.462046 1_555
Cr5 S19 2.273050 1_555
Cr5 S13 2.277858 1_455
Cr5 S18 2.308036 1_555
Cr5 S7 2.399755 1_455
Cr5 S3 2.444416 1_555
Cr5 S6 2.466572 1_555
Cr6 S11 2.247897 1_555
Cr6 S16 2.262424 1_555
Cr6 S17 2.266858 1_555
Cr6 S5 2.472778 1_556
Cr6 S1 2.486011 1_545
Cr6 S9 2.489337 1_556
Cr7 S13 2.273050 1_555
Cr7 S19 2.277858 1_655
Cr7 S14 2.308036 1_555
Cr7 S0 2.399755 1_565
Cr7 S9 2.444416 1_565
Cr7 S1 2.466572 1_554
Cr8 S17 2.247093 1_555
Cr8 S12 2.260393 1_455
Cr8 S11 2.269748 1_555
Cr8 S4 2.435596 1_555
Cr8 S3 2.453077 1_555
Cr8 S7 2.462046 1_455
Cr9 S15 2.259954 1_555
Cr9 S10 2.271571 1_555
Cr9 S14 2.292032 1_555
Cr9 S2 2.408444 1_554
Cr9 S1 2.456826 1_554
Cr9 S5 2.459903 1_565
Cr10 S18 2.275667 1_645
Cr10 S13 2.288552 1_545
Cr10 S12 2.303810 1_555
Cr10 S0 2.445619 1_555
Cr10 S8 2.449588 1_555
Cr10 S4 2.478206 1_655
Cr11 S16 2.247897 1_555
Cr11 S11 2.262424 1_555
Cr11 S10 2.266858 1_556
Cr11 S2 2.472778 1_555
Cr11 S6 2.486011 1_555
Cr11 S3 2.489337 1_555
Fe0 S19 2.265463 1_656
Fe0 S12 2.284216 1_565
Fe0 S1 2.322589 1_555
Fe0 S6 2.323498 1_655
Fe0 S5 2.449908 1_666
Fe0 S0 2.490909 1_566
Fe1 S10 2.287409 1_555
Fe1 S17 2.287409 1_555
Fe1 S3 2.355052 1_555
Fe1 S9 2.355052 1_555
Fe1 S4 2.356213 1_555
Fe1 S8 2.356213 1_555
Fe2 S13 2.265463 1_555
Fe2 S15 2.284216 1_556
Fe2 S6 2.322589 1_655
Fe2 S1 2.323498 1_555
Fe2 S2 2.449908 1_555
Fe2 S7 2.490909 1_555
