# generated using pymatgen
data_Yb2SnPd2
_symmetry_space_group_name_H-M   'P 1'
_cell_length_a   7.58340800
_cell_length_b   7.58340800
_cell_length_c   3.78540500
_cell_angle_alpha   90.00000000
_cell_angle_beta   90.00000000
_cell_angle_gamma   90.00000000
_symmetry_Int_Tables_number   1
_chemical_formula_structural   Yb2SnPd2
_chemical_formula_sum   'Yb4 Sn2 Pd4'
_cell_volume   217.69136182
_cell_formula_units_Z   2
loop_
 _symmetry_equiv_pos_site_id
 _symmetry_equiv_pos_as_xyz
  1  'x, y, z'
loop_
 _atom_site_type_symbol
 _atom_site_label
 _atom_site_symmetry_multiplicity
 _atom_site_fract_x
 _atom_site_fract_y
 _atom_site_fract_z
 _atom_site_occupancy
  Yb  Yb0  1  0.66676300  0.16676300  0.50000000  1
  Yb  Yb1  1  0.33323700  0.83323700  0.50000000  1
  Yb  Yb2  1  0.16676300  0.33323700  0.50000000  1
  Yb  Yb3  1  0.83323700  0.66676300  0.50000000  1
  Sn  Sn0  1  0.00000000  0.00000000  0.00000000  1
  Sn  Sn1  1  0.50000000  0.50000000  0.00000000  1
  Pd  Pd0  1  0.13516500  0.63516500  0.00000000  1
  Pd  Pd1  1  0.86483500  0.36483500  0.00000000  1
  Pd  Pd2  1  0.63516500  0.86483500  0.00000000  1
  Pd  Pd3  1  0.36483500  0.13516500  0.00000000  1
loop_
_geom_bond_atom_site_label_1
_geom_bond_atom_site_label_2
_geom_bond_distance
_geom_bond_site_symmetry_2
Sn0 Yb0 3.401134 1_454
Sn0 Yb2 3.401134 1_554
Sn0 Yb3 3.401134 1_445
Sn0 Yb0 3.401134 1_455
Sn0 Yb1 3.401134 1_545
Sn0 Yb3 3.401134 1_444
Sn0 Yb1 3.401134 1_544
Sn0 Yb2 3.401134 1_555
Sn1 Yb3 3.401134 1_555
Sn1 Yb0 3.401134 1_555
Sn1 Yb2 3.401134 1_554
Sn1 Yb0 3.401134 1_554
Sn1 Yb1 3.401134 1_555
Sn1 Yb1 3.401134 1_554
Sn1 Yb3 3.401134 1_554
Sn1 Yb2 3.401134 1_555
Pd0 Yb1 2.845118 1_555
Pd0 Yb1 2.845118 1_554
Pd0 Pd1 2.899170 1_455
Pd0 Sn0 2.950464 1_565
Pd0 Sn1 2.950464 1_555
Pd0 Yb3 2.980303 1_455
Pd0 Yb3 2.980303 1_454
Pd0 Yb2 2.980303 1_555
Pd0 Yb2 2.980303 1_554
Pd1 Yb0 2.845118 1_555
Pd1 Yb0 2.845118 1_554
Pd1 Sn0 2.950464 1_655
Pd1 Sn1 2.950464 1_555
Pd1 Yb2 2.980303 1_654
Pd1 Yb3 2.980303 1_554
Pd1 Yb3 2.980303 1_555
Pd1 Yb2 2.980303 1_655
Pd2 Yb3 2.845118 1_555
Pd2 Yb3 2.845118 1_554
Pd2 Pd3 2.899170 1_565
Pd2 Sn0 2.950464 1_665
Pd2 Sn1 2.950464 1_555
Pd2 Yb1 2.980303 1_555
Pd2 Yb0 2.980303 1_565
Pd2 Yb0 2.980303 1_564
Pd2 Yb1 2.980303 1_554
Pd3 Yb2 2.845118 1_555
Pd3 Yb2 2.845118 1_554
Pd3 Sn0 2.950464 1_555
Pd3 Sn1 2.950464 1_555
Pd3 Yb0 2.980303 1_554
Pd3 Yb1 2.980303 1_545
Pd3 Yb1 2.980303 1_544
Pd3 Yb0 2.980303 1_555
