# generated using pymatgen
data_Zn2Cl5O2
_symmetry_space_group_name_H-M   'P 1'
_cell_length_a   6.58652000
_cell_length_b   6.61426340
_cell_length_c   12.14716002
_cell_angle_alpha   105.33700971
_cell_angle_beta   105.62857183
_cell_angle_gamma   90.15878306
_symmetry_Int_Tables_number   1
_chemical_formula_structural   Zn2Cl5O2
_chemical_formula_sum   'Zn4 Cl10 O4'
_cell_volume   489.91256783
_cell_formula_units_Z   2
loop_
 _symmetry_equiv_pos_site_id
 _symmetry_equiv_pos_as_xyz
  1  'x, y, z'
loop_
 _atom_site_type_symbol
 _atom_site_label
 _atom_site_symmetry_multiplicity
 _atom_site_fract_x
 _atom_site_fract_y
 _atom_site_fract_z
 _atom_site_occupancy
  Zn  Zn0  1  0.84137100  0.34527400  0.66510500  1
  Zn  Zn1  1  0.65348500  0.16181100  0.33365700  1
  Zn  Zn2  1  0.07067900  0.07559100  0.16344000  1
  Zn  Zn3  1  0.92675100  0.92576500  0.83399400  1
  Cl  Cl0  1  0.97738400  0.67328500  0.67271500  1
  Cl  Cl1  1  0.32434700  0.02577700  0.32606400  1
  Cl  Cl2  1  0.74830700  0.95230600  0.17312100  1
  Cl  Cl3  1  0.05124000  0.24716400  0.82576900  1
  Cl  Cl4  1  0.50127000  0.35092400  0.66446400  1
  Cl  Cl5  1  0.64689000  0.50150700  0.33756800  1
  Cl  Cl6  1  0.06392900  0.41038900  0.15753600  1
  Cl  Cl7  1  0.58986300  0.92107900  0.83931300  1
  Cl  Cl8  1  0.89384400  0.10784900  0.49943600  1
  Cl  Cl9  1  0.14731800  0.85413700  0.00032600  1
  O  O0  1  0.34314300  0.78428200  0.53651100  1
  O  O1  1  0.22511000  0.64399800  0.46119700  1
  O  O2  1  0.51185600  0.43656400  0.03427800  1
  O  O3  1  0.55836500  0.50399400  0.95996000  1
loop_
_geom_bond_atom_site_label_1
_geom_bond_atom_site_label_2
_geom_bond_distance
_geom_bond_site_symmetry_2
Cl0 Zn0 2.314426 1_555
Cl0 Zn3 2.315701 1_555
Cl1 Zn1 2.314156 1_555
Cl1 Zn2 2.317632 1_555
Cl2 Zn1 2.311827 1_565
Cl2 Zn2 2.315789 1_665
Cl3 Zn3 2.312624 1_445
Cl3 Zn0 2.315608 1_455
Cl4 Zn0 2.238447 1_555
Cl5 Zn1 2.235535 1_555
Cl6 Zn2 2.234662 1_555
Cl7 Zn3 2.237557 1_555
Cl8 Zn0 2.311138 1_555
Cl8 Zn1 2.313977 1_555
Cl9 Zn2 2.309520 1_565
Cl9 Zn3 2.312124 1_454
O0 O1 1.210803 1_555
O2 O3 1.212002 1_554
