# generated using pymatgen
data_Mg2Co9O13
_symmetry_space_group_name_H-M   'P 1'
_cell_length_a   5.17446314
_cell_length_b   5.17446314
_cell_length_c   16.60028168
_cell_angle_alpha   81.83076560
_cell_angle_beta   81.83076560
_cell_angle_gamma   32.86604065
_symmetry_Int_Tables_number   1
_chemical_formula_structural   Mg2Co9O13
_chemical_formula_sum   'Mg2 Co9 O13'
_cell_volume   238.54381947
_cell_formula_units_Z   1
loop_
 _symmetry_equiv_pos_site_id
 _symmetry_equiv_pos_as_xyz
  1  'x, y, z'
loop_
 _atom_site_type_symbol
 _atom_site_label
 _atom_site_symmetry_multiplicity
 _atom_site_fract_x
 _atom_site_fract_y
 _atom_site_fract_z
 _atom_site_occupancy
  Mg  Mg0  1  0.79025900  0.79025900  0.22740000  1
  Mg  Mg1  1  0.20974100  0.20974100  0.77260000  1
  Co  Co0  1  0.50000000  0.50000000  0.50000000  1
  Co  Co1  1  0.35409900  0.35409900  0.03998200  1
  Co  Co2  1  0.64590100  0.64590100  0.96001800  1
  Co  Co3  1  0.24660400  0.24660400  0.41670400  1
  Co  Co4  1  0.75339600  0.75339600  0.58329600  1
  Co  Co5  1  0.06629300  0.06629300  0.12810600  1
  Co  Co6  1  0.93370700  0.93370700  0.87189400  1
  Co  Co7  1  0.00246500  0.00246500  0.32900300  1
  Co  Co8  1  0.99753500  0.99753500  0.67099700  1
  O  O0  1  0.00000000  0.00000000  0.00000000  1
  O  O1  1  0.13853700  0.13853700  0.22385900  1
  O  O2  1  0.86146300  0.86146300  0.77614100  1
  O  O3  1  0.69834500  0.69834500  0.07349200  1
  O  O4  1  0.30165500  0.30165500  0.92650800  1
  O  O5  1  0.42146900  0.42146900  0.14674700  1
  O  O6  1  0.57853100  0.57853100  0.85325300  1
  O  O7  1  0.36341300  0.36341300  0.30747700  1
  O  O8  1  0.63658700  0.63658700  0.69252300  1
  O  O9  1  0.60555600  0.60555600  0.39092500  1
  O  O10  1  0.39444400  0.39444400  0.60907500  1
  O  O11  1  0.87150600  0.87150600  0.46536600  1
  O  O12  1  0.12849400  0.12849400  0.53463400  1
loop_
_geom_bond_atom_site_label_1
_geom_bond_atom_site_label_2
_geom_bond_distance
_geom_bond_site_symmetry_2
Mg0 O1 2.107266 1_655
Mg0 O1 2.107266 1_565
Mg0 O7 2.173272 1_655
Mg0 O7 2.173272 1_565
Mg0 O5 2.261626 1_565
Mg0 O5 2.261626 1_655
Mg1 O2 2.107266 1_455
Mg1 O2 2.107266 1_545
Mg1 O8 2.173272 1_455
Mg1 O8 2.173272 1_545
Mg1 O6 2.261626 1_545
Mg1 O6 2.261626 1_455
Co0 O10 1.953007 1_555
Co0 O9 1.953007 1_555
Co0 O12 2.077835 1_565
Co0 O12 2.077835 1_655
Co0 O11 2.077835 1_545
Co0 O11 2.077835 1_455
Co1 O5 1.984822 1_555
Co1 O4 2.027281 1_554
Co1 O0 2.096639 1_655
Co1 O0 2.096639 1_565
Co1 O3 2.141881 1_545
Co1 O3 2.141881 1_455
Co2 O6 1.984822 1_555
Co2 O3 2.027281 1_556
Co2 O0 2.096639 1_566
Co2 O0 2.096639 1_656
Co2 O4 2.141881 1_655
Co2 O4 2.141881 1_565
Co3 O7 2.002282 1_555
Co3 O9 2.112732 1_455
Co3 O9 2.112732 1_545
Co3 O12 2.127654 1_555
Co3 O11 2.151554 1_545
Co3 O11 2.151554 1_455
Co4 O8 2.002282 1_555
Co4 O10 2.112732 1_655
Co4 O10 2.112732 1_565
Co4 O11 2.127654 1_555
Co4 O12 2.151554 1_655
Co4 O12 2.151554 1_565
Co5 O1 1.838091 1_555
Co5 O5 2.042862 1_545
Co5 O5 2.042862 1_455
Co5 O3 2.081043 1_455
Co5 O3 2.081043 1_545
Co5 O0 2.317338 1_555
Co6 O2 1.838091 1_555
Co6 O6 2.042862 1_655
Co6 O6 2.042862 1_565
Co6 O4 2.081043 1_655
Co6 O4 2.081043 1_565
Co6 O0 2.317338 1_666
Co7 O1 2.042619 1_555
Co7 O7 2.078875 1_545
Co7 O7 2.078875 1_455
Co7 O9 2.135000 1_545
Co7 O9 2.135000 1_455
Co7 O11 2.437641 1_445
Co8 O2 2.042619 1_555
Co8 O8 2.078875 1_565
Co8 O8 2.078875 1_655
Co8 O10 2.135000 1_655
Co8 O10 2.135000 1_565
Co8 O12 2.437641 1_665
