# generated using pymatgen
data_Mn3Cr3P2
_symmetry_space_group_name_H-M   'P 1'
_cell_length_a   6.73805547
_cell_length_b   6.73805547
_cell_length_c   8.99605149
_cell_angle_alpha   48.28549278
_cell_angle_beta   48.28549278
_cell_angle_gamma   38.35536571
_symmetry_Int_Tables_number   1
_chemical_formula_structural   Mn3Cr3P2
_chemical_formula_sum   'Mn6 Cr6 P4'
_cell_volume   179.86877110
_cell_formula_units_Z   2
loop_
 _symmetry_equiv_pos_site_id
 _symmetry_equiv_pos_as_xyz
  1  'x, y, z'
loop_
 _atom_site_type_symbol
 _atom_site_label
 _atom_site_symmetry_multiplicity
 _atom_site_fract_x
 _atom_site_fract_y
 _atom_site_fract_z
 _atom_site_occupancy
  Mn  Mn0  1  0.40638300  0.93232900  0.05254000  1
  Mn  Mn1  1  0.06767100  0.59361700  0.94746000  1
  Mn  Mn2  1  0.02219400  0.04700000  0.60979800  1
  Mn  Mn3  1  0.95300000  0.97780600  0.39020200  1
  Mn  Mn4  1  0.36219300  0.34239700  0.67536100  1
  Mn  Mn5  1  0.65760300  0.63780700  0.32463900  1
  Cr  Cr0  1  0.33525600  0.87049000  0.81987900  1
  Cr  Cr1  1  0.12951000  0.66474400  0.18012100  1
  Cr  Cr2  1  0.85256500  0.30252100  0.02781500  1
  Cr  Cr3  1  0.69747900  0.14743500  0.97218500  1
  Cr  Cr4  1  0.98321300  0.46102500  0.60665800  1
  Cr  Cr5  1  0.53897500  0.01678700  0.39334200  1
  P  P0  1  0.53403700  0.54484600  0.66557100  1
  P  P1  1  0.45515400  0.46596300  0.33442900  1
  P  P2  1  0.79674000  0.79197400  0.75341500  1
  P  P3  1  0.20802600  0.20326000  0.24658500  1
loop_
_geom_bond_atom_site_label_1
_geom_bond_atom_site_label_2
_geom_bond_distance
_geom_bond_site_symmetry_2
Mn0 P2 2.262713 1_554
Mn0 P1 2.301677 1_555
Mn0 P3 2.340002 1_565
Mn1 P3 2.262713 1_556
Mn1 P0 2.301677 1_555
Mn1 P2 2.340002 1_455
Mn2 P0 2.249949 1_455
Mn2 P0 2.310103 1_545
Mn2 P3 2.323173 1_555
Mn2 P2 2.336069 1_445
Mn3 P1 2.249949 1_565
Mn3 P1 2.310103 1_655
Mn3 P2 2.323173 1_555
Mn3 P3 2.336069 1_665
Mn4 P2 2.249538 1_545
Mn4 P2 2.314081 1_455
Mn4 P1 2.314108 1_555
Mn4 P0 2.321829 1_555
Mn5 P3 2.249538 1_655
Mn5 P3 2.314081 1_565
Mn5 P0 2.314108 1_555
Mn5 P1 2.321829 1_555
Cr0 P0 2.346372 1_555
Cr0 P2 2.381810 1_555
Cr1 P1 2.346372 1_555
Cr1 P3 2.381810 1_555
Cr2 P2 2.359512 1_554
Cr2 P1 2.362085 1_555
Cr2 Mn0 2.442216 1_645
Cr3 P3 2.359512 1_556
Cr3 P0 2.362085 1_555
Cr3 Mn1 2.442216 1_645
Cr4 P0 2.311439 1_555
Cr4 P2 2.368658 1_555
Cr4 P1 2.409181 1_655
Cr5 P1 2.311439 1_555
Cr5 P3 2.368658 1_555
Cr5 P0 2.409181 1_545
