# generated using pymatgen
data_Mg2AgWO6
_symmetry_space_group_name_H-M   'P 1'
_cell_length_a   5.37018200
_cell_length_b   5.23142300
_cell_length_c   9.91496476
_cell_angle_alpha   58.63714174
_cell_angle_beta   90.00000000
_cell_angle_gamma   90.00000000
_symmetry_Int_Tables_number   1
_chemical_formula_structural   Mg2AgWO6
_chemical_formula_sum   'Mg4 Ag2 W2 O12'
_cell_volume   237.84887984
_cell_formula_units_Z   2
loop_
 _symmetry_equiv_pos_site_id
 _symmetry_equiv_pos_as_xyz
  1  'x, y, z'
loop_
 _atom_site_type_symbol
 _atom_site_label
 _atom_site_symmetry_multiplicity
 _atom_site_fract_x
 _atom_site_fract_y
 _atom_site_fract_z
 _atom_site_occupancy
  Mg  Mg0  1  0.03099500  0.28574600  0.71652400  1
  Mg  Mg1  1  0.53099500  0.71425400  0.78347600  1
  Mg  Mg2  1  0.96900500  0.71425400  0.28347600  1
  Mg  Mg3  1  0.46900500  0.28574600  0.21652400  1
  Ag  Ag0  1  0.00000000  0.50000000  0.00000000  1
  Ag  Ag1  1  0.50000000  0.50000000  0.50000000  1
  W  W0  1  0.00000000  0.00000000  0.50000000  1
  W  W1  1  0.50000000  0.00000000  0.00000000  1
  O  O0  1  0.27422300  0.71763400  0.62475700  1
  O  O1  1  0.77422300  0.28236600  0.87524300  1
  O  O2  1  0.72577700  0.28236600  0.37524300  1
  O  O3  1  0.22577700  0.71763400  0.12475700  1
  O  O4  1  0.16684100  0.35381300  0.46623200  1
  O  O5  1  0.66684100  0.64618700  0.03376800  1
  O  O6  1  0.83315900  0.64618700  0.53376800  1
  O  O7  1  0.33315900  0.35381300  0.96623200  1
  O  O8  1  0.35569100  0.04644600  0.80809500  1
  O  O9  1  0.85569100  0.95355400  0.69190500  1
  O  O10  1  0.14430900  0.04644600  0.30809500  1
  O  O11  1  0.64430900  0.95355400  0.19190500  1
loop_
_geom_bond_atom_site_label_1
_geom_bond_atom_site_label_2
_geom_bond_distance
_geom_bond_site_symmetry_2
Mg0 O8 2.061267 1_555
Mg0 O1 2.085487 1_455
Mg0 O9 2.099399 1_445
Mg0 O6 2.100270 1_455
Mg0 O0 2.344984 1_555
Mg0 O4 2.428514 1_555
Mg1 O9 2.061267 1_555
Mg1 O0 2.085487 1_555
Mg1 O8 2.099399 1_565
Mg1 O7 2.100270 1_555
Mg1 O1 2.344984 1_555
Mg1 O5 2.428514 1_556
Mg2 O11 2.061267 1_555
Mg2 O3 2.085487 1_655
Mg2 O10 2.099399 1_665
Mg2 O4 2.100270 1_655
Mg2 O2 2.344984 1_555
Mg2 O6 2.428514 1_555
Mg3 O10 2.061267 1_555
Mg3 O2 2.085487 1_555
Mg3 O11 2.099399 1_545
Mg3 O5 2.100270 1_555
Mg3 O3 2.344984 1_555
Mg3 O7 2.428514 1_554
Ag0 O7 2.040700 1_554
Ag0 O5 2.040700 1_455
Ag0 O3 2.400489 1_555
Ag0 O1 2.400489 1_454
Ag1 O4 2.040700 1_555
Ag1 O6 2.040700 1_555
Ag1 O0 2.400489 1_555
Ag1 O2 2.400489 1_555
O0 W0 1.994690 1_565
O1 W1 1.994690 1_556
O2 W0 1.994690 1_655
O3 W1 1.994690 1_565
O4 W0 1.922443 1_555
O5 W1 1.922443 1_565
O6 W0 1.922443 1_665
O7 W1 1.922443 1_556
O8 W1 1.949040 1_556
O9 W0 1.949040 1_665
O10 W0 1.949040 1_555
O11 W1 1.949040 1_565
