# generated using pymatgen
data_La6Co(SiS7)2
_symmetry_space_group_name_H-M   'P 1'
_cell_length_a   10.30777611
_cell_length_b   10.30777611
_cell_length_c   5.81868600
_cell_angle_alpha   90.00000000
_cell_angle_beta   90.00000000
_cell_angle_gamma   120.00000071
_symmetry_Int_Tables_number   1
_chemical_formula_structural   La6Co(SiS7)2
_chemical_formula_sum   'La6 Co1 Si2 S14'
_cell_volume   535.40879870
_cell_formula_units_Z   1
loop_
 _symmetry_equiv_pos_site_id
 _symmetry_equiv_pos_as_xyz
  1  'x, y, z'
loop_
 _atom_site_type_symbol
 _atom_site_label
 _atom_site_symmetry_multiplicity
 _atom_site_fract_x
 _atom_site_fract_y
 _atom_site_fract_z
 _atom_site_occupancy
  La  La0  1  0.64375000  0.87093600  0.24893600  1
  La  La1  1  0.12906400  0.77281400  0.24893600  1
  La  La2  1  0.22718600  0.35625000  0.24893600  1
  La  La3  1  0.35644400  0.12959000  0.74805100  1
  La  La4  1  0.87041000  0.22685400  0.74805100  1
  La  La5  1  0.77314600  0.64355600  0.74805100  1
  Co  Co0  1  0.00000000  0.00000000  0.49295200  1
  Si  Si0  1  0.33333300  0.66666700  0.83199300  1
  Si  Si1  1  0.66666700  0.33333300  0.33393100  1
  S  S0  1  0.33333300  0.66666700  0.46922800  1
  S  S1  1  0.66666700  0.33333300  0.97075700  1
  S  S2  1  0.47434500  0.58724800  0.97012400  1
  S  S3  1  0.41275200  0.88709700  0.97012400  1
  S  S4  1  0.11290300  0.52565500  0.97012400  1
  S  S5  1  0.52647200  0.41341400  0.47233800  1
  S  S6  1  0.58658600  0.11305800  0.47233800  1
  S  S7  1  0.88694200  0.47352800  0.47233800  1
  S  S8  1  0.76212200  0.91296800  0.71479400  1
  S  S9  1  0.08703200  0.84915300  0.71479400  1
  S  S10  1  0.15084700  0.23787800  0.71479400  1
  S  S11  1  0.23889300  0.08513100  0.24485800  1
  S  S12  1  0.91486900  0.15376200  0.24485800  1
  S  S13  1  0.84623800  0.76110700  0.24485800  1
loop_
_geom_bond_atom_site_label_1
_geom_bond_atom_site_label_2
_geom_bond_distance
_geom_bond_site_symmetry_2
La0 S13 2.828694 1_555
La0 S12 2.856981 1_565
La0 S8 2.914728 1_555
La0 S3 2.953953 1_554
La0 S2 3.020895 1_554
La0 S0 3.094734 1_555
La0 S6 3.120295 1_565
La0 S8 3.287482 1_554
La1 S11 2.828694 1_565
La1 S13 2.856981 1_455
La1 S9 2.914724 1_555
La1 S4 2.953953 1_554
La1 S3 3.020895 1_554
La1 S0 3.094727 1_555
La1 S7 3.120295 1_455
La1 S9 3.287479 1_554
La2 S12 2.828694 1_455
La2 S11 2.856981 1_555
La2 S10 2.914727 1_555
La2 S2 2.953953 1_554
La2 S4 3.020895 1_554
La2 S0 3.094735 1_555
La2 S5 3.120295 1_555
La2 S10 3.287481 1_554
La3 S9 2.842164 1_545
La3 S10 2.853086 1_555
La3 S6 2.938470 1_555
La3 S5 3.012815 1_555
La3 S11 3.078869 1_556
La3 S1 3.098312 1_555
La3 S11 3.113784 1_555
La3 S3 3.115313 1_545
La4 S10 2.842169 1_655
La4 S8 2.853096 1_545
La4 S7 2.938470 1_555
La4 S6 3.012815 1_555
La4 S12 3.078869 1_556
La4 S1 3.098305 1_555
La4 S12 3.113784 1_555
La4 S4 3.115313 1_655
La5 S8 2.842159 1_555
La5 S9 2.853094 1_655
La5 S5 2.938470 1_555
La5 S7 3.012815 1_555
La5 S13 3.078869 1_556
La5 S1 3.098313 1_555
La5 S13 3.113784 1_555
La5 S2 3.115313 1_555
Co0 S8 2.506713 1_445
Co0 S10 2.506715 1_555
Co0 S9 2.506721 1_545
Co0 S13 2.599386 1_445
Co0 S11 2.599386 1_555
Co0 S12 2.599386 1_455
S0 Si0 2.110816 1_555
S1 Si1 2.113195 1_556
S2 Si0 2.149135 1_555
S3 Si0 2.149126 1_555
S4 Si0 2.149127 1_555
S5 Si1 2.147356 1_555
S6 Si1 2.147348 1_555
S7 Si1 2.147349 1_555
