# generated using pymatgen
data_ZrCrO4
_symmetry_space_group_name_H-M   'P 1'
_cell_length_a   4.79011462
_cell_length_b   11.77029718
_cell_length_c   4.93454853
_cell_angle_alpha   90.52583753
_cell_angle_beta   89.95744663
_cell_angle_gamma   89.36956114
_symmetry_Int_Tables_number   1
_chemical_formula_structural   ZrCrO4
_chemical_formula_sum   'Zr4 Cr4 O16'
_cell_volume   278.18648189
_cell_formula_units_Z   4
loop_
 _symmetry_equiv_pos_site_id
 _symmetry_equiv_pos_as_xyz
  1  'x, y, z'
loop_
 _atom_site_type_symbol
 _atom_site_label
 _atom_site_symmetry_multiplicity
 _atom_site_fract_x
 _atom_site_fract_y
 _atom_site_fract_z
 _atom_site_occupancy
  Zr  Zr0  1  0.98856900  0.16541600  0.25490900  1
  Zr  Zr1  1  0.99786000  0.83417000  0.73353200  1
  Zr  Zr2  1  0.50114200  0.66563700  0.27048500  1
  Zr  Zr3  1  0.51572200  0.33456100  0.75817000  1
  Cr  Cr0  1  0.00785800  0.57034300  0.76580300  1
  Cr  Cr1  1  0.49020200  0.06975800  0.75200400  1
  Cr  Cr2  1  0.00992300  0.42979700  0.26043300  1
  Cr  Cr3  1  0.50241700  0.93026400  0.23633500  1
  O  O0  1  0.21988800  0.31474100  0.40850100  1
  O  O1  1  0.21746100  0.68440200  0.91237400  1
  O  O2  1  0.28273600  0.18552100  0.90530700  1
  O  O3  1  0.27648900  0.81176200  0.40956500  1
  O  O4  1  0.71928000  0.18839000  0.58250700  1
  O  O5  1  0.71521400  0.81460700  0.08947800  1
  O  O6  1  0.77839800  0.68911900  0.59230900  1
  O  O7  1  0.78256200  0.31081400  0.08544600  1
  O  O8  1  0.27725500  0.05327100  0.42546000  1
  O  O9  1  0.26629700  0.94822100  0.93534100  1
  O  O10  1  0.22692200  0.44575600  0.93515900  1
  O  O11  1  0.22603100  0.55314900  0.43779000  1
  O  O12  1  0.77596500  0.45060500  0.56408200  1
  O  O13  1  0.77519300  0.55113400  0.06534200  1
  O  O14  1  0.72852100  0.05098700  0.05451700  1
  O  O15  1  0.71809900  0.94757200  0.56514800  1
loop_
_geom_bond_atom_site_label_1
_geom_bond_atom_site_label_2
_geom_bond_distance
_geom_bond_site_symmetry_2
Cr0 O1 1.829321 1_555
Cr0 O13 1.867403 1_456
Cr0 O11 1.933859 1_555
Cr0 O6 1.971060 1_455
Cr0 O10 1.984904 1_555
Cr0 O12 2.054581 1_455
Cr1 O2 1.834836 1_555
Cr1 O14 1.892985 1_556
Cr1 O8 1.917196 1_555
Cr1 O4 1.976658 1_555
Cr1 O15 2.012416 1_545
Cr1 O9 2.017736 1_545
Cr2 O0 1.835388 1_555
Cr2 O12 1.883020 1_455
Cr2 O10 1.923376 1_554
Cr2 O7 1.976303 1_455
Cr2 O11 1.989125 1_555
Cr2 O13 2.054796 1_455
Cr3 O5 1.835106 1_555
Cr3 O9 1.879614 1_554
Cr3 O15 1.934576 1_555
Cr3 O3 1.975123 1_555
Cr3 O14 2.013178 1_565
Cr3 O8 2.017368 1_565
O0 Zr0 2.216077 1_455
O0 Zr3 2.245721 1_555
O1 Zr1 2.232034 1_455
O1 Zr2 2.241009 1_556
O2 Zr3 2.217050 1_555
O2 Zr0 2.242506 1_456
O3 Zr1 2.094722 1_455
O3 Zr2 2.126901 1_555
O4 Zr0 2.081216 1_555
O4 Zr3 2.143973 1_555
O5 Zr1 2.232015 1_554
O5 Zr2 2.233994 1_555
O6 Zr2 2.089327 1_555
O6 Zr1 2.127052 1_555
O7 Zr3 2.079300 1_554
O7 Zr0 2.142938 1_555
O8 Zr0 2.084423 1_455
O9 Zr1 2.112466 1_455
O10 Zr3 2.080108 1_555
O11 Zr2 2.056227 1_555
O12 Zr3 2.096800 1_555
O13 Zr2 2.120953 1_555
O14 Zr0 2.087541 1_555
O15 Zr1 2.061674 1_555
