# generated using pymatgen
data_Cs2B2S3O13
_symmetry_space_group_name_H-M   'P 1'
_cell_length_a   6.84282100
_cell_length_b   12.71690900
_cell_length_c   15.42850907
_cell_angle_alpha   75.55693592
_cell_angle_beta   90.00000000
_cell_angle_gamma   90.00000000
_symmetry_Int_Tables_number   1
_chemical_formula_structural   Cs2B2S3O13
_chemical_formula_sum   'Cs8 B8 S12 O52'
_cell_volume   1300.15064718
_cell_formula_units_Z   4
loop_
 _symmetry_equiv_pos_site_id
 _symmetry_equiv_pos_as_xyz
  1  'x, y, z'
loop_
 _atom_site_type_symbol
 _atom_site_label
 _atom_site_symmetry_multiplicity
 _atom_site_fract_x
 _atom_site_fract_y
 _atom_site_fract_z
 _atom_site_occupancy
  Cs  Cs0  1  0.67226500  0.26569100  0.88159700  1
  Cs  Cs1  1  0.17226500  0.23430900  0.11840300  1
  Cs  Cs2  1  0.32773500  0.73430900  0.11840300  1
  Cs  Cs3  1  0.82773500  0.76569100  0.88159700  1
  Cs  Cs4  1  0.22494500  0.13350100  0.48813500  1
  Cs  Cs5  1  0.72494500  0.36649900  0.51186500  1
  Cs  Cs6  1  0.77505500  0.86649900  0.51186500  1
  Cs  Cs7  1  0.27505500  0.63350100  0.48813500  1
  B  B0  1  0.63687400  0.97910500  0.24909200  1
  B  B1  1  0.13687400  0.52089500  0.75090800  1
  B  B2  1  0.36312600  0.02089500  0.75090800  1
  B  B3  1  0.86312600  0.47910500  0.24909200  1
  B  B4  1  0.55202200  0.37403300  0.24410800  1
  B  B5  1  0.05202200  0.12596700  0.75589200  1
  B  B6  1  0.44797800  0.62596700  0.75589200  1
  B  B7  1  0.94797800  0.87403300  0.24410800  1
  S  S0  1  0.68863700  0.16444700  0.30690800  1
  S  S1  1  0.18863700  0.33555300  0.69309200  1
  S  S2  1  0.31136300  0.83555300  0.69309200  1
  S  S3  1  0.81136300  0.66444700  0.30690800  1
  S  S4  1  0.74345300  0.45799700  0.09027800  1
  S  S5  1  0.24345300  0.04200300  0.90972200  1
  S  S6  1  0.25654700  0.54200300  0.90972200  1
  S  S7  1  0.75654700  0.95799700  0.09027800  1
  S  S8  1  0.25817600  0.95094000  0.32066900  1
  S  S9  1  0.75817600  0.54906000  0.67933100  1
  S  S10  1  0.74182400  0.04906000  0.67933100  1
  S  S11  1  0.24182400  0.45094000  0.32066900  1
  O  O0  1  0.87913800  0.21093000  0.28345000  1
  O  O1  1  0.37913800  0.28907000  0.71655000  1
  O  O2  1  0.12086200  0.78907000  0.71655000  1
  O  O3  1  0.62086200  0.71093000  0.28345000  1
  O  O4  1  0.66234800  0.09831900  0.39766300  1
  O  O5  1  0.16234800  0.40168100  0.60233700  1
  O  O6  1  0.33765200  0.90168100  0.60233700  1
  O  O7  1  0.83765200  0.59831900  0.39766300  1
  O  O8  1  0.82211200  0.40411300  0.02621700  1
  O  O9  1  0.32211200  0.09588700  0.97378300  1
  O  O10  1  0.17788800  0.59588700  0.97378300  1
  O  O11  1  0.67788800  0.90411300  0.02621700  1
  O  O12  1  0.65703300  0.56400600  0.05708600  1
  O  O13  1  0.15703300  0.93599400  0.94291400  1
  O  O14  1  0.34296700  0.43599400  0.94291400  1
  O  O15  1  0.84296700  0.06400600  0.05708600  1
  O  O16  1  0.19562800  0.88436000  0.40693200  1
  O  O17  1  0.69562800  0.61564000  0.59306800  1
  O  O18  1  0.80437200  0.11564000  0.59306800  1
  O  O19  1  0.30437200  0.38436000  0.40693200  1
  O  O20  1  0.23047800  0.06663100  0.30664200  1
  O  O21  1  0.73047800  0.43336900  0.69335800  1
  O  O22  1  0.76952200  0.93336900  0.69335800  1
  O  O23  1  0.26952200  0.56663100  0.30664200  1
  O  O24  1  0.81642900  0.93273100  0.28372100  1
  O  O25  1  0.31642900  0.56726900  0.71627900  1
  O  O26  1  0.18357100  0.06726900  0.71627900  1
  O  O27  1  0.68357100  0.43273100  0.28372100  1
  O  O28  1  0.62479800  0.10032700  0.23808700  1
  O  O29  1  0.12479800  0.39967300  0.76191300  1
  O  O30  1  0.37520200  0.89967300  0.76191300  1
  O  O31  1  0.87520200  0.60032700  0.23808700  1
  O  O32  1  0.47533800  0.92300400  0.31121100  1
  O  O33  1  0.97533800  0.57699600  0.68878900  1
  O  O34  1  0.52466200  0.07699600  0.68878900  1
  O  O35  1  0.02466200  0.42300400  0.31121100  1
  O  O36  1  0.15920100  0.91265100  0.24337500  1
  O  O37  1  0.65920100  0.58734900  0.75662500  1
  O  O38  1  0.84079900  0.08734900  0.75662500  1
  O  O39  1  0.34079900  0.41265100  0.24337500  1
  O  O40  1  0.53026400  0.25462400  0.29219800  1
  O  O41  1  0.03026400  0.24537600  0.70780200  1
  O  O42  1  0.46973600  0.74537600  0.70780200  1
  O  O43  1  0.96973600  0.75462400  0.29219800  1
  O  O44  1  0.59222600  0.37787000  0.14800000  1
  O  O45  1  0.09222600  0.12213000  0.85200000  1
  O  O46  1  0.40777400  0.62213000  0.85200000  1
  O  O47  1  0.90777400  0.87787000  0.14800000  1
  O  O48  1  0.91031600  0.46332200  0.15814700  1
  O  O49  1  0.41031600  0.03667800  0.84185300  1
  O  O50  1  0.08968400  0.53667800  0.84185300  1
  O  O51  1  0.58968400  0.96332200  0.15814700  1
loop_
_geom_bond_atom_site_label_1
_geom_bond_atom_site_label_2
_geom_bond_distance
_geom_bond_site_symmetry_2
Cs0 O21 3.170332 1_555
Cs0 O1 3.196613 1_555
Cs0 O9 3.300722 1_555
Cs0 O8 3.329850 1_556
Cs0 O14 3.418314 1_555
Cs0 O15 3.436472 1_556
Cs0 O45 3.495088 1_655
Cs0 O38 3.517482 1_555
Cs0 O49 3.600207 1_555
Cs0 O41 3.688270 1_655
Cs0 O29 3.785802 1_655
Cs1 O20 3.170332 1_555
Cs1 O0 3.196613 1_455
Cs1 O8 3.300722 1_455
Cs1 O9 3.329850 1_554
Cs1 O15 3.418314 1_455
Cs1 O14 3.436472 1_554
Cs1 O44 3.495088 1_555
Cs1 O39 3.517482 1_555
Cs1 O48 3.600207 1_455
Cs1 O40 3.688270 1_555
Cs1 O28 3.785802 1_555
Cs2 O23 3.170332 1_555
Cs2 O3 3.196613 1_555
Cs2 O11 3.300722 1_555
Cs2 O10 3.329850 1_554
Cs2 O12 3.418314 1_555
Cs2 O13 3.436472 1_554
Cs2 O47 3.495088 1_455
Cs2 O36 3.517482 1_555
Cs2 O51 3.600207 1_555
Cs2 O43 3.688270 1_455
Cs2 O31 3.785802 1_455
Cs3 O22 3.170332 1_555
Cs3 O2 3.196613 1_655
Cs3 O10 3.300722 1_655
Cs3 O11 3.329850 1_556
Cs3 O13 3.418314 1_655
Cs3 O12 3.436472 1_556
Cs3 O46 3.495088 1_555
Cs3 O37 3.517482 1_555
Cs3 O50 3.600207 1_655
Cs3 O42 3.688270 1_555
Cs3 O30 3.785802 1_555
Cs4 O20 3.123034 1_555
Cs4 O6 3.130353 1_545
Cs4 O19 3.169913 1_555
Cs4 O18 3.282001 1_455
Cs4 O4 3.379136 1_555
Cs4 O26 3.420601 1_555
Cs5 O21 3.123034 1_555
Cs5 O7 3.130353 1_555
Cs5 O18 3.169913 1_555
Cs5 O19 3.282001 1_555
Cs5 O5 3.379136 1_655
Cs5 O27 3.420601 1_555
Cs6 O22 3.123034 1_555
Cs6 O4 3.130353 1_565
Cs6 O17 3.169913 1_555
Cs6 O16 3.282001 1_655
Cs6 O6 3.379136 1_555
Cs6 O24 3.420601 1_555
Cs7 O23 3.123034 1_555
Cs7 O5 3.130353 1_555
Cs7 O16 3.169913 1_555
Cs7 O17 3.282001 1_555
Cs7 O7 3.379136 1_455
Cs7 O25 3.420601 1_555
B0 O24 1.409139 1_555
B0 O51 1.501286 1_555
B0 O28 1.510472 1_565
B0 O32 1.519298 1_555
B1 O25 1.409139 1_555
B1 O50 1.501286 1_555
B1 O29 1.510472 1_555
B1 O33 1.519298 1_455
B2 O26 1.409139 1_555
B2 O49 1.501286 1_555
B2 O30 1.510472 1_545
B2 O34 1.519298 1_555
B3 O27 1.409139 1_555
B3 O48 1.501286 1_555
B3 O31 1.510472 1_555
B3 O35 1.519298 1_655
B4 O27 1.403068 1_555
B4 O44 1.496890 1_555
B4 O40 1.522014 1_555
B4 O39 1.525650 1_555
B5 O26 1.403068 1_555
B5 O45 1.496890 1_555
B5 O41 1.522014 1_555
B5 O38 1.525650 1_455
B6 O25 1.403068 1_555
B6 O46 1.496890 1_555
B6 O42 1.522014 1_555
B6 O37 1.525650 1_555
B7 O24 1.403068 1_555
B7 O47 1.496890 1_555
B7 O43 1.522014 1_555
B7 O36 1.525650 1_655
O0 S0 1.439781 1_555
O1 S1 1.439781 1_555
O2 S2 1.439781 1_555
O3 S3 1.439781 1_555
O4 S0 1.453536 1_555
O5 S1 1.453536 1_555
O6 S2 1.453536 1_555
O7 S3 1.453536 1_555
O8 S4 1.440130 1_555
O9 S5 1.440130 1_555
O10 S6 1.440130 1_555
O11 S7 1.440130 1_555
O12 S4 1.443940 1_555
O13 S5 1.443940 1_565
O14 S6 1.443940 1_555
O15 S7 1.443940 1_545
O16 S8 1.452333 1_555
O17 S9 1.452333 1_555
O18 S10 1.452333 1_555
O19 S11 1.452333 1_555
O20 S8 1.445148 1_545
O21 S9 1.445148 1_555
O22 S10 1.445148 1_565
O23 S11 1.445148 1_555
O28 S0 1.554041 1_555
O29 S1 1.554041 1_555
O30 S2 1.554041 1_555
O31 S3 1.554041 1_555
O32 S8 1.543231 1_555
O33 S9 1.543231 1_555
O34 S10 1.543231 1_555
O35 S11 1.543231 1_555
O36 S8 1.551634 1_555
O37 S9 1.551634 1_555
O38 S10 1.551634 1_555
O39 S11 1.551634 1_555
O40 S0 1.552808 1_555
O41 S1 1.552808 1_555
O42 S2 1.552808 1_555
O43 S3 1.552808 1_555
O44 S4 1.565113 1_555
O45 S5 1.565113 1_555
O46 S6 1.565113 1_555
O47 S7 1.565113 1_555
O48 S4 1.562098 1_555
O49 S5 1.562098 1_555
O50 S6 1.562098 1_555
O51 S7 1.562098 1_555
