# generated using pymatgen
data_MgGa
_symmetry_space_group_name_H-M   'P 1'
_cell_length_a   5.82796374
_cell_length_b   5.82796374
_cell_length_c   6.80903495
_cell_angle_alpha   75.75324344
_cell_angle_beta   75.75324344
_cell_angle_gamma   32.10542719
_symmetry_Int_Tables_number   1
_chemical_formula_structural   MgGa
_chemical_formula_sum   'Mg3 Ga3'
_cell_volume   118.81643854
_cell_formula_units_Z   3
loop_
 _symmetry_equiv_pos_site_id
 _symmetry_equiv_pos_as_xyz
  1  'x, y, z'
loop_
 _atom_site_type_symbol
 _atom_site_label
 _atom_site_symmetry_multiplicity
 _atom_site_fract_x
 _atom_site_fract_y
 _atom_site_fract_z
 _atom_site_occupancy
  Mg  Mg0  1  0.99235400  0.99235400  0.02384200  1
  Mg  Mg1  1  0.94920200  0.94920200  0.59106000  1
  Mg  Mg2  1  0.67050900  0.67050900  0.66580200  1
  Ga  Ga0  1  0.62096200  0.62096200  0.27183200  1
  Ga  Ga1  1  0.32629800  0.32629800  0.33107000  1
  Ga  Ga2  1  0.27400800  0.27400800  0.94972700  1
loop_
_geom_bond_atom_site_label_1
_geom_bond_atom_site_label_2
_geom_bond_distance
_geom_bond_site_symmetry_2
Ga0 Mg2 2.875178 1_555
Ga0 Ga2 2.901825 1_564
Ga0 Ga2 2.901825 1_654
Ga0 Ga1 2.919801 1_565
Ga0 Ga1 2.919801 1_655
Ga0 Mg0 2.961348 1_455
Ga0 Mg0 2.961348 1_545
Ga0 Mg1 2.980193 1_545
Ga0 Mg1 2.980193 1_455
Ga1 Ga2 2.804324 1_554
Ga1 Mg0 2.905205 1_545
Ga1 Mg0 2.905205 1_455
Ga1 Mg2 2.966488 1_545
Ga1 Mg2 2.966488 1_455
Ga1 Mg1 2.979018 1_545
Ga1 Mg1 2.979018 1_455
Ga2 Mg2 2.970956 1_545
Ga2 Mg2 2.970956 1_455
Ga2 Mg0 3.064769 1_446
Ga2 Mg0 3.076659 1_546
Ga2 Mg0 3.076659 1_456
Ga2 Mg1 3.155606 1_455
Ga2 Mg1 3.155606 1_545
