# generated using pymatgen
data_CsMg14Zr
_symmetry_space_group_name_H-M   'P 1'
_cell_length_a   6.57448105
_cell_length_b   6.67448385
_cell_length_c   10.55801521
_cell_angle_alpha   90.00000000
_cell_angle_beta   90.00000000
_cell_angle_gamma   120.50446202
_symmetry_Int_Tables_number   1
_chemical_formula_structural   CsMg14Zr
_chemical_formula_sum   'Cs1 Mg14 Zr1'
_cell_volume   399.17369342
_cell_formula_units_Z   1
loop_
 _symmetry_equiv_pos_site_id
 _symmetry_equiv_pos_as_xyz
  1  'x, y, z'
loop_
 _atom_site_type_symbol
 _atom_site_label
 _atom_site_symmetry_multiplicity
 _atom_site_fract_x
 _atom_site_fract_y
 _atom_site_fract_z
 _atom_site_occupancy
  Cs  Cs0  1  0.16292805  0.83146352  0.12500000  1
  Mg  Mg0  1  0.16480760  0.33240330  0.62500000  1
  Mg  Mg1  1  0.16843091  0.83421495  0.62500000  1
  Mg  Mg2  1  0.66563037  0.33160956  0.12500000  1
  Mg  Mg3  1  0.66785678  0.33036200  0.62500000  1
  Mg  Mg4  1  0.66563037  0.83401981  0.12500000  1
  Mg  Mg5  1  0.66785678  0.83749378  0.62500000  1
  Mg  Mg6  1  0.33574202  0.18240565  0.38721082  1
  Mg  Mg7  1  0.33574202  0.18240565  0.86278918  1
  Mg  Mg8  1  0.33574202  0.65333737  0.38721082  1
  Mg  Mg9  1  0.33574202  0.65333737  0.86278918  1
  Mg  Mg10  1  0.83777401  0.16888751  0.37069683  1
  Mg  Mg11  1  0.83777401  0.16888751  0.87930317  1
  Mg  Mg12  1  0.81593012  0.65796556  0.39209228  1
  Mg  Mg13  1  0.81593012  0.65796556  0.85790772  1
  Zr  Zr0  1  0.18648280  0.34324090  0.12500000  1
loop_
_geom_bond_atom_site_label_1
_geom_bond_atom_site_label_2
_geom_bond_distance
_geom_bond_site_symmetry_2
Cs0 Mg2 3.278168 1_455
Cs0 Mg4 3.278168 1_455
Cs0 Mg2 3.296379 1_565
Cs0 Mg4 3.296379 1_555
Cs0 Zr0 3.339908 1_555
Cs0 Zr0 3.339908 1_565
Cs0 Mg9 3.426348 1_554
Cs0 Mg8 3.426348 1_555
Cs0 Mg7 3.426355 1_564
Cs0 Mg6 3.426355 1_565
Cs0 Mg13 3.437393 1_454
Cs0 Mg12 3.437393 1_455
Mg0 Mg6 3.116166 1_555
Mg0 Mg7 3.116166 1_555
Mg0 Mg8 3.116173 1_555
Mg0 Mg9 3.116173 1_555
Mg0 Mg5 3.260299 1_445
Mg0 Mg3 3.260299 1_455
Mg0 Mg10 3.261990 1_455
Mg0 Mg11 3.261990 1_455
Mg0 Mg5 3.314224 1_555
Mg0 Mg3 3.314224 1_555
Mg0 Mg1 3.337305 1_555
Mg0 Mg1 3.337305 1_545
Mg1 Mg13 3.167629 1_455
Mg1 Mg12 3.167629 1_455
Mg1 Mg8 3.212265 1_555
Mg1 Mg9 3.212265 1_555
Mg1 Mg6 3.212272 1_565
Mg1 Mg7 3.212272 1_565
Mg1 Mg3 3.272411 1_565
Mg1 Mg5 3.272412 1_555
Mg1 Mg3 3.302177 1_455
Mg1 Mg5 3.302178 1_455
Mg2 Zr0 3.190255 1_555
Mg2 Mg4 3.321155 1_545
Mg2 Mg7 3.341719 1_554
Mg2 Mg6 3.341719 1_555
Mg2 Mg4 3.353329 1_555
Mg2 Zr0 3.385588 1_655
Mg3 Mg6 3.139551 1_555
Mg3 Mg7 3.139551 1_555
Mg3 Mg5 3.289641 1_545
Mg3 Mg5 3.384843 1_555
Mg4 Zr0 3.190255 1_555
Mg4 Mg9 3.341719 1_554
Mg4 Mg8 3.341719 1_555
Mg4 Zr0 3.385588 1_665
Mg5 Mg8 3.139550 1_555
Mg5 Mg9 3.139550 1_555
Mg6 Mg8 3.143226 1_555
Mg6 Zr0 3.293777 1_555
Mg6 Mg8 3.531258 1_545
Mg7 Mg9 3.143226 1_555
Mg7 Zr0 3.293777 1_556
Mg7 Mg9 3.531258 1_545
Mg8 Zr0 3.293783 1_555
Mg9 Zr0 3.293783 1_556
Mg10 Mg2 3.230717 1_555
Mg10 Mg4 3.230724 1_545
Mg10 Mg8 3.233721 1_655
Mg10 Mg6 3.233721 1_655
Mg10 Zr0 3.260501 1_655
Mg10 Mg3 3.292522 1_555
Mg10 Mg5 3.292528 1_545
Mg10 Mg12 3.347166 1_555
Mg10 Mg12 3.347166 1_545
Mg10 Mg8 3.351840 1_545
Mg10 Mg6 3.351840 1_555
Mg11 Mg2 3.230717 1_556
Mg11 Mg4 3.230724 1_546
Mg11 Mg9 3.233721 1_655
Mg11 Mg7 3.233721 1_655
Mg11 Zr0 3.260501 1_656
Mg11 Mg3 3.292522 1_555
Mg11 Mg5 3.292528 1_545
Mg11 Mg13 3.347166 1_555
Mg11 Mg13 3.347166 1_545
Mg11 Mg9 3.351840 1_545
Mg11 Mg7 3.351840 1_555
Mg12 Mg5 3.100755 1_555
Mg12 Mg3 3.100763 1_555
Mg12 Mg6 3.141842 1_555
Mg12 Mg8 3.141843 1_555
Mg12 Mg4 3.389427 1_555
Mg12 Mg2 3.389434 1_555
Mg12 Mg6 3.433663 1_665
Mg12 Mg8 3.433664 1_655
Mg13 Mg5 3.100755 1_555
Mg13 Mg3 3.100763 1_555
Mg13 Mg7 3.141842 1_555
Mg13 Mg9 3.141843 1_555
Mg13 Mg4 3.389427 1_556
Mg13 Mg2 3.389434 1_556
Mg13 Mg7 3.433663 1_665
Mg13 Mg9 3.433664 1_655
