# generated using pymatgen
data_Mg3Bi2(PO6)2
_symmetry_space_group_name_H-M   'P 1'
_cell_length_a   5.35509200
_cell_length_b   7.15706900
_cell_length_c   7.38422169
_cell_angle_alpha   65.63930352
_cell_angle_beta   90.00000000
_cell_angle_gamma   90.00000000
_symmetry_Int_Tables_number   1
_chemical_formula_structural   Mg3Bi2(PO6)2
_chemical_formula_sum   'Mg3 Bi2 P2 O12'
_cell_volume   257.81574077
_cell_formula_units_Z   1
loop_
 _symmetry_equiv_pos_site_id
 _symmetry_equiv_pos_as_xyz
  1  'x, y, z'
loop_
 _atom_site_type_symbol
 _atom_site_label
 _atom_site_symmetry_multiplicity
 _atom_site_fract_x
 _atom_site_fract_y
 _atom_site_fract_z
 _atom_site_occupancy
  Mg  Mg0  1  0.00000000  0.72189900  0.09415900  1
  Mg  Mg1  1  0.00000000  0.10110100  0.70218200  1
  Mg  Mg2  1  0.50000000  0.27524600  0.91187800  1
  Bi  Bi0  1  0.50000000  0.39768600  0.41216300  1
  Bi  Bi1  1  0.00000000  0.60566500  0.58880600  1
  P  P0  1  0.00000000  0.20415100  0.19365600  1
  P  P1  1  0.50000000  0.80045300  0.80608200  1
  O  O0  1  0.25078000  0.32808700  0.67609300  1
  O  O1  1  0.74245100  0.87688600  0.87508200  1
  O  O2  1  0.00000000  0.43952900  0.11282400  1
  O  O3  1  0.50000000  0.56424200  0.89704800  1
  O  O4  1  0.74922000  0.32808700  0.67609300  1
  O  O5  1  0.00000000  0.10889700  0.42402300  1
  O  O6  1  0.23764100  0.65604900  0.32868200  1
  O  O7  1  0.76235900  0.65604900  0.32868200  1
  O  O8  1  0.23136900  0.13275900  0.11299700  1
  O  O9  1  0.50000000  0.89243600  0.57803900  1
  O  O10  1  0.25754900  0.87688600  0.87508200  1
  O  O11  1  0.76863100  0.13275900  0.11299700  1
loop_
_geom_bond_atom_site_label_1
_geom_bond_atom_site_label_2
_geom_bond_distance
_geom_bond_site_symmetry_2
Mg0 O2 1.968100 1_555
Mg0 O6 2.041401 1_555
Mg0 O7 2.041401 1_455
Mg0 O10 2.066223 1_554
Mg0 O1 2.066223 1_454
Mg1 O5 2.031609 1_555
Mg1 O0 2.054658 1_555
Mg1 O4 2.054658 1_455
Mg1 O1 2.101711 1_445
Mg1 O10 2.101711 1_545
Mg2 O11 2.016314 1_556
Mg2 O8 2.016314 1_556
Mg2 O3 2.025652 1_555
Mg2 O0 2.100562 1_555
Mg2 O4 2.100562 1_555
Bi0 O7 2.198364 1_555
Bi0 O6 2.198364 1_555
Bi0 O4 2.242026 1_555
Bi0 O0 2.242026 1_555
Bi1 O7 2.206272 1_455
Bi1 O6 2.206272 1_555
Bi1 O4 2.260390 1_455
Bi1 O0 2.260390 1_555
O1 P1 1.573051 1_555
O2 P0 1.537755 1_555
O3 P1 1.540274 1_555
O5 P0 1.549756 1_555
O8 P0 1.549841 1_555
O9 P1 1.534424 1_555
O10 P1 1.573051 1_555
O11 P0 1.549841 1_655
