# generated using pymatgen
data_Cs8Na4YHo3Cl24
_symmetry_space_group_name_H-M   'P 1'
_cell_length_a   7.70937897
_cell_length_b   7.70937897
_cell_length_c   25.56824524
_cell_angle_alpha   90.00000000
_cell_angle_beta   81.32898055
_cell_angle_gamma   120.00000000
_symmetry_Int_Tables_number   1
_chemical_formula_structural   Cs8Na4YHo3Cl24
_chemical_formula_sum   'Cs8 Na4 Y1 Ho3 Cl24'
_cell_volume   1295.94897058
_cell_formula_units_Z   1
loop_
 _symmetry_equiv_pos_site_id
 _symmetry_equiv_pos_as_xyz
  1  'x, y, z'
loop_
 _atom_site_type_symbol
 _atom_site_label
 _atom_site_symmetry_multiplicity
 _atom_site_fract_x
 _atom_site_fract_y
 _atom_site_fract_z
 _atom_site_occupancy
  Cs  Cs0  1  0.62500347  0.81250174  0.56249479  1
  Cs  Cs1  1  0.12502661  0.06251330  0.81246009  1
  Cs  Cs2  1  0.62497010  0.31248505  0.06254484  1
  Cs  Cs3  1  0.12500473  0.56250237  0.31249290  1
  Cs  Cs4  1  0.87499527  0.43749763  0.68750710  1
  Cs  Cs5  1  0.37502990  0.68751495  0.93745516  1
  Cs  Cs6  1  0.87497339  0.93748670  0.18753991  1
  Cs  Cs7  1  0.37499653  0.18749826  0.43750521  1
  Na  Na0  1  0.25000021  0.12500011  0.62499968  1
  Na  Na1  1  0.75002131  0.37501066  0.87496803  1
  Na  Na2  1  0.24997869  0.62498934  0.12503197  1
  Na  Na3  1  0.74999979  0.87499989  0.37500032  1
  Y  Y0  1  0.00000000  0.00000000  0.00000000  1
  Ho  Ho0  1  0.49999660  0.24999830  0.25000509  1
  Ho  Ho1  1  0.00000000  0.50000000  0.50000000  1
  Ho  Ho2  1  0.50000340  0.75000170  0.74999491  1
  Cl  Cl0  1  0.12064276  0.80160564  0.56032012  1
  Cl  Cl1  1  0.62063026  0.05157137  0.81031086  1
  Cl  Cl2  1  0.12146851  0.30367355  0.06073653  1
  Cl  Cl3  1  0.62065009  0.55162162  0.31032144  1
  Cl  Cl4  1  0.37934991  0.93097153  0.68967856  1
  Cl  Cl5  1  0.87853149  0.18220504  0.93926347  1
  Cl  Cl6  1  0.37936974  0.43094111  0.18968914  1
  Cl  Cl7  1  0.87935724  0.68096288  0.43967988  1
  Cl  Cl8  1  0.63807424  0.31903712  0.56032012  1
  Cl  Cl9  1  0.13811777  0.56905889  0.81031086  1
  Cl  Cl10  1  0.63558992  0.81779496  0.06073653  1
  Cl  Cl11  1  0.13805694  0.06902847  0.31032144  1
  Cl  Cl12  1  0.37934991  0.44837838  0.68967856  1
  Cl  Cl13  1  0.87853149  0.69632645  0.93926347  1
  Cl  Cl14  1  0.37936974  0.94842863  0.18968914  1
  Cl  Cl15  1  0.87935724  0.19839436  0.43967988  1
  Cl  Cl16  1  0.12064276  0.31903712  0.56032012  1
  Cl  Cl17  1  0.62063026  0.56905889  0.81031086  1
  Cl  Cl18  1  0.12146851  0.81779496  0.06073653  1
  Cl  Cl19  1  0.62065009  0.06902847  0.31032144  1
  Cl  Cl20  1  0.86194306  0.93097153  0.68967856  1
  Cl  Cl21  1  0.36441008  0.18220504  0.93926347  1
  Cl  Cl22  1  0.86188223  0.43094111  0.18968914  1
  Cl  Cl23  1  0.36192576  0.68096288  0.43967988  1
loop_
_geom_bond_atom_site_label_1
_geom_bond_atom_site_label_2
_geom_bond_distance
_geom_bond_site_symmetry_2
Cl0 Ho1 2.630607 1_555
Cl0 Na0 2.820678 1_565
Cl0 Cs7 3.855649 1_565
Cl0 Cs0 3.855859 1_555
Cl0 Cs0 3.855859 1_455
Cl0 Cs4 3.855935 1_455
Cl1 Ho2 2.630343 1_545
Cl1 Na1 2.820557 1_555
Cl1 Cs5 3.854904 1_545
Cl1 Cs4 3.855573 1_555
Cl1 Cs1 3.855855 1_655
Cl1 Cs1 3.855855 1_555
Cl2 Y0 2.648690 1_555
Cl2 Na2 2.803065 1_555
Cl2 Cs2 3.855471 1_555
Cl2 Cs2 3.855471 1_455
Cl2 Cs6 3.856161 1_445
Cl2 Cs5 3.856313 1_554
Cl3 Ho0 2.630642 1_555
Cl3 Na3 2.820579 1_555
Cl3 Cs6 3.854910 1_555
Cl3 Cs3 3.855856 1_655
Cl3 Cs3 3.855856 1_555
Cl3 Cs7 3.855929 1_555
Cl4 Ho2 2.630642 1_555
Cl4 Na0 2.820579 1_565
Cl4 Cs1 3.854910 1_565
Cl4 Cs4 3.855856 1_565
Cl4 Cs4 3.855856 1_455
Cl4 Cs0 3.855929 1_555
Cl5 Y0 2.648690 1_656
Cl5 Na1 2.803065 1_555
Cl5 Cs5 3.855471 1_545
Cl5 Cs5 3.855471 1_655
Cl5 Cs1 3.856162 1_655
Cl5 Cs2 3.856313 1_556
Cl6 Ho0 2.630343 1_555
Cl6 Na2 2.820556 1_555
Cl6 Cs2 3.854904 1_555
Cl6 Cs3 3.855573 1_555
Cl6 Cs6 3.855855 1_445
Cl6 Cs6 3.855855 1_555
Cl7 Ho1 2.630607 1_655
Cl7 Na3 2.820678 1_555
Cl7 Cs0 3.855649 1_555
Cl7 Cs7 3.855859 1_665
Cl7 Cs7 3.855859 1_555
Cl7 Cs3 3.855935 1_655
Cl8 Ho1 2.630607 1_655
Cl8 Na0 2.820678 1_555
Cl8 Cs7 3.855649 1_555
Cl8 Cs0 3.855859 1_545
Cl8 Cs0 3.855859 1_555
Cl8 Cs4 3.855935 1_555
Cl9 Ho2 2.630343 1_555
Cl9 Na1 2.820557 1_455
Cl9 Cs5 3.854904 1_555
Cl9 Cs4 3.855573 1_455
Cl9 Cs1 3.855855 1_565
Cl9 Cs1 3.855855 1_555
Cl10 Y0 2.648690 1_665
Cl10 Na2 2.803065 1_555
Cl10 Cs2 3.855471 1_555
Cl10 Cs2 3.855471 1_565
Cl10 Cs6 3.856161 1_555
Cl10 Cs5 3.856313 1_554
Cl11 Ho0 2.630642 1_555
Cl11 Na3 2.820579 1_445
Cl11 Cs6 3.854910 1_445
Cl11 Cs3 3.855856 1_545
Cl11 Cs3 3.855856 1_555
Cl11 Cs7 3.855929 1_555
Cl12 Ho2 2.630642 1_555
Cl12 Na0 2.820579 1_555
Cl12 Cs1 3.854910 1_555
Cl12 Cs4 3.855856 1_455
Cl12 Cs4 3.855856 1_555
Cl12 Cs0 3.855929 1_555
Cl13 Y0 2.648690 1_666
Cl13 Na1 2.803065 1_555
Cl13 Cs5 3.855471 1_555
Cl13 Cs5 3.855471 1_655
Cl13 Cs1 3.856161 1_665
Cl13 Cs2 3.856313 1_556
Cl14 Ho0 2.630343 1_565
Cl14 Na2 2.820557 1_555
Cl14 Cs2 3.854904 1_565
Cl14 Cs3 3.855573 1_555
Cl14 Cs6 3.855855 1_455
Cl14 Cs6 3.855855 1_555
Cl15 Ho1 2.630607 1_655
Cl15 Na3 2.820678 1_545
Cl15 Cs0 3.855649 1_545
Cl15 Cs7 3.855859 1_555
Cl15 Cs7 3.855859 1_655
Cl15 Cs3 3.855935 1_655
Cl16 Ho1 2.630607 1_555
Cl16 Na0 2.820678 1_555
Cl16 Cs7 3.855649 1_555
Cl16 Cs0 3.855859 1_445
Cl16 Cs0 3.855859 1_555
Cl16 Cs4 3.855935 1_455
Cl17 Ho2 2.630343 1_555
Cl17 Na1 2.820556 1_555
Cl17 Cs5 3.854904 1_555
Cl17 Cs4 3.855573 1_555
Cl17 Cs1 3.855855 1_665
Cl17 Cs1 3.855855 1_555
Cl18 Y0 2.648690 1_565
Cl18 Na2 2.803065 1_555
Cl18 Cs2 3.855471 1_565
Cl18 Cs2 3.855471 1_455
Cl18 Cs6 3.856162 1_455
Cl18 Cs5 3.856313 1_554
Cl19 Ho0 2.630642 1_555
Cl19 Na3 2.820579 1_545
Cl19 Cs6 3.854910 1_545
Cl19 Cs3 3.855856 1_655
Cl19 Cs3 3.855856 1_545
Cl19 Cs7 3.855929 1_555
Cl20 Ho2 2.630642 1_555
Cl20 Na0 2.820579 1_665
Cl20 Cs1 3.854910 1_665
Cl20 Cs4 3.855856 1_565
Cl20 Cs4 3.855856 1_555
Cl20 Cs0 3.855929 1_555
Cl21 Y0 2.648690 1_556
Cl21 Na1 2.803065 1_555
Cl21 Cs5 3.855471 1_545
Cl21 Cs5 3.855471 1_555
Cl21 Cs1 3.856161 1_555
Cl21 Cs2 3.856313 1_556
Cl22 Ho0 2.630343 1_555
Cl22 Na2 2.820557 1_655
Cl22 Cs2 3.854904 1_555
Cl22 Cs3 3.855573 1_655
Cl22 Cs6 3.855855 1_545
Cl22 Cs6 3.855855 1_555
Cl23 Ho1 2.630607 1_555
Cl23 Na3 2.820678 1_555
Cl23 Cs0 3.855649 1_555
Cl23 Cs7 3.855859 1_565
Cl23 Cs7 3.855859 1_555
Cl23 Cs3 3.855935 1_555
