# generated using pymatgen
data_ThV2PbO8
_symmetry_space_group_name_H-M   'P 1'
_cell_length_a   7.04286395
_cell_length_b   7.04286395
_cell_length_c   7.04286395
_cell_angle_alpha   136.10480199
_cell_angle_beta   136.10480199
_cell_angle_gamma   63.81835127
_symmetry_Int_Tables_number   1
_chemical_formula_structural   ThV2PbO8
_chemical_formula_sum   'Th1 V2 Pb1 O8'
_cell_volume   165.70662243
_cell_formula_units_Z   1
loop_
 _symmetry_equiv_pos_site_id
 _symmetry_equiv_pos_as_xyz
  1  'x, y, z'
loop_
 _atom_site_type_symbol
 _atom_site_label
 _atom_site_symmetry_multiplicity
 _atom_site_fract_x
 _atom_site_fract_y
 _atom_site_fract_z
 _atom_site_occupancy
  Th  Th0  1  0.50000000  0.50000000  0.00000000  1
  V  V0  1  0.25000000  0.75000000  0.50000000  1
  V  V1  1  0.00000000  0.00000000  0.00000000  1
  Pb  Pb0  1  0.75000000  0.25000000  0.50000000  1
  O  O0  1  0.21631300  0.58643100  0.13501500  1
  O  O1  1  0.45141600  0.08129800  0.86498500  1
  O  O2  1  0.32410400  0.92858400  0.10900400  1
  O  O3  1  0.81958000  0.21510000  0.89099600  1
  O  O4  1  0.07141600  0.18042000  0.39552000  1
  O  O5  1  0.78490000  0.67589600  0.60448000  1
  O  O6  1  0.91870200  0.78368700  0.37011800  1
  O  O7  1  0.41356900  0.54858400  0.62988200  1
loop_
_geom_bond_atom_site_label_1
_geom_bond_atom_site_label_2
_geom_bond_distance
_geom_bond_site_symmetry_2
O0 V0 1.756553 1_555
O0 Th0 2.469266 1_555
O0 Pb0 2.612976 1_454
O1 V0 1.756553 1_545
O1 Th0 2.469266 1_556
O1 Pb0 2.612976 1_556
O2 V1 1.752294 1_565
O2 Th0 2.442615 1_555
O2 Pb0 2.609206 1_565
O3 V1 1.752294 1_656
O3 Th0 2.442615 1_556
O3 Pb0 2.609206 1_555
O4 V1 1.752294 1_555
O4 Th0 2.442615 1_556
O4 Pb0 2.609206 1_455
O5 V1 1.752294 1_666
O5 Th0 2.442615 1_555
O5 Pb0 2.609206 1_555
O6 V0 1.756553 1_655
O6 Th0 2.469266 1_555
O6 Pb0 2.612976 1_565
O7 V0 1.756553 1_555
O7 Th0 2.469266 1_556
O7 Pb0 2.612976 1_555
