# generated using pymatgen
data_Zn(SnO2)2
_symmetry_space_group_name_H-M   'P 1'
_cell_length_a   6.52024415
_cell_length_b   6.52024415
_cell_length_c   6.52024415
_cell_angle_alpha   121.54452726
_cell_angle_beta   113.37282684
_cell_angle_gamma   94.59582983
_symmetry_Int_Tables_number   1
_chemical_formula_structural   Zn(SnO2)2
_chemical_formula_sum   'Zn2 Sn4 O8'
_cell_volume   201.65948580
_cell_formula_units_Z   2
loop_
 _symmetry_equiv_pos_site_id
 _symmetry_equiv_pos_as_xyz
  1  'x, y, z'
loop_
 _atom_site_type_symbol
 _atom_site_label
 _atom_site_symmetry_multiplicity
 _atom_site_fract_x
 _atom_site_fract_y
 _atom_site_fract_z
 _atom_site_occupancy
  Zn  Zn0  1  0.50000000  0.50000000  0.00000000  1
  Zn  Zn1  1  0.00000000  0.50000000  0.50000000  1
  Sn  Sn0  1  0.61120600  0.86120600  0.75000000  1
  Sn  Sn1  1  0.38879400  0.13879400  0.25000000  1
  Sn  Sn2  1  0.00000000  0.00000000  0.50000000  1
  Sn  Sn3  1  0.00000000  0.50000000  0.00000000  1
  O  O0  1  0.23493800  0.25220500  0.51726700  1
  O  O1  1  0.21008100  0.26509400  0.94498700  1
  O  O2  1  0.23493800  0.71767200  0.98273300  1
  O  O3  1  0.82010700  0.26509400  0.55501300  1
  O  O4  1  0.17989300  0.73490600  0.44498700  1
  O  O5  1  0.78991900  0.73490600  0.05501300  1
  O  O6  1  0.76506200  0.28232800  0.01726700  1
  O  O7  1  0.76506200  0.74779500  0.48273300  1
loop_
_geom_bond_atom_site_label_1
_geom_bond_atom_site_label_2
_geom_bond_distance
_geom_bond_site_symmetry_2
O0 Sn2 2.080671 1_555
O0 Sn1 2.178900 1_555
O0 Zn1 2.328046 1_555
O0 Zn0 2.328046 1_556
O1 Zn0 2.114514 1_556
O1 Sn2 2.121815 1_555
O1 Sn3 2.121815 1_556
O1 Sn1 2.453538 1_556
O2 Sn3 2.080675 1_556
O2 Sn1 2.178895 1_566
O2 Zn1 2.328045 1_555
O2 Zn0 2.328051 1_556
O3 Zn1 2.114514 1_655
O3 Sn3 2.121815 1_656
O3 Sn2 2.121815 1_655
O3 Sn1 2.453538 1_555
O4 Zn1 2.114514 1_555
O4 Sn3 2.121815 1_555
O4 Sn2 2.121815 1_565
O4 Sn0 2.453538 1_555
O5 Zn0 2.114514 1_555
O5 Sn2 2.121815 1_665
O5 Sn3 2.121815 1_655
O5 Sn0 2.453538 1_554
O6 Sn3 2.080675 1_655
O6 Sn0 2.178895 1_544
O6 Zn1 2.328045 1_655
O6 Zn0 2.328051 1_555
O7 Sn2 2.080671 1_665
O7 Sn0 2.178900 1_555
O7 Zn0 2.328046 1_555
O7 Zn1 2.328046 1_655
