# generated using pymatgen
data_Sr2MgZn2Sn2(PO4)4
_symmetry_space_group_name_H-M   'P 1'
_cell_length_a   5.60780253
_cell_length_b   7.90435767
_cell_length_c   9.73694898
_cell_angle_alpha   107.01984426
_cell_angle_beta   103.16310866
_cell_angle_gamma   86.48006424
_symmetry_Int_Tables_number   1
_chemical_formula_structural   Sr2MgZn2Sn2(PO4)4
_chemical_formula_sum   'Sr2 Mg1 Zn2 Sn2 P4 O16'
_cell_volume   401.84836676
_cell_formula_units_Z   1
loop_
 _symmetry_equiv_pos_site_id
 _symmetry_equiv_pos_as_xyz
  1  'x, y, z'
loop_
 _atom_site_type_symbol
 _atom_site_label
 _atom_site_symmetry_multiplicity
 _atom_site_fract_x
 _atom_site_fract_y
 _atom_site_fract_z
 _atom_site_occupancy
  Sr  Sr0  1  0.12302073  0.74450034  0.98319533  1
  Sr  Sr1  1  0.87697927  0.25549966  0.01680467  1
  Mg  Mg0  1  0.00000000  0.00000000  0.50000000  1
  Zn  Zn0  1  0.03028034  0.43511074  0.60300637  1
  Zn  Zn1  1  0.96971966  0.56488926  0.39699363  1
  Sn  Sn0  1  0.59222306  0.81931286  0.57466893  1
  Sn  Sn1  1  0.40777694  0.18068714  0.42533107  1
  P  P0  1  0.40564361  0.47376460  0.24057274  1
  P  P1  1  0.59435639  0.52623540  0.75942726  1
  P  P2  1  0.73800534  0.93494645  0.22920410  1
  P  P3  1  0.26199466  0.06505355  0.77079590  1
  O  O0  1  0.76995777  0.49691104  0.89455681  1
  O  O1  1  0.67660151  0.45598334  0.22806686  1
  O  O2  1  0.69115317  0.70457612  0.74689991  1
  O  O3  1  0.08603133  0.18908404  0.69176209  1
  O  O4  1  0.32339849  0.54401666  0.77193314  1
  O  O5  1  0.24223154  0.88550077  0.63064390  1
  O  O6  1  0.75776846  0.11449923  0.36935610  1
  O  O7  1  0.15233192  0.02521799  0.88773801  1
  O  O8  1  0.30884683  0.29542388  0.25310009  1
  O  O9  1  0.84766808  0.97478201  0.11226199  1
  O  O10  1  0.23004223  0.50308796  0.10544319  1
  O  O11  1  0.37137172  0.61653385  0.38761431  1
  O  O12  1  0.62862828  0.38346615  0.61238569  1
  O  O13  1  0.46989722  0.88173192  0.18562641  1
  O  O14  1  0.91396867  0.81091596  0.30823791  1
  O  O15  1  0.53010278  0.11826808  0.81437359  1
loop_
_geom_bond_atom_site_label_1
_geom_bond_atom_site_label_2
_geom_bond_distance
_geom_bond_site_symmetry_2
Mg0 O14 1.999374 1_445
Mg0 O3 1.999374 1_555
Mg0 O5 2.004618 1_545
Mg0 O6 2.004618 1_455
O0 P1 1.521523 1_555
O0 Sr1 2.506387 1_556
O0 Sr0 2.683960 1_655
O1 P0 1.546423 1_555
O1 Zn1 2.064432 1_555
O1 Sr1 2.632709 1_555
O2 P1 1.587914 1_555
O2 Sn0 2.085057 1_555
O2 Sr0 2.896461 1_655
O3 P3 1.582429 1_555
O3 Zn0 2.326483 1_555
O4 P1 1.546423 1_555
O4 Zn0 2.064432 1_555
O4 Sr0 2.632709 1_555
O5 P3 1.644827 1_565
O5 Sn0 2.148739 1_555
O6 P2 1.644827 1_545
O6 Sn1 2.148739 1_555
O7 P3 1.525275 1_555
O7 Sr1 2.544886 1_456
O7 Sr0 2.671348 1_545
O8 P0 1.587914 1_555
O8 Sn1 2.085057 1_555
O8 Sr1 2.896461 1_455
O9 P2 1.525275 1_555
O9 Sr0 2.544886 1_654
O9 Sr1 2.671348 1_565
O10 P0 1.521520 1_555
O10 Sr0 2.506394 1_554
O10 Sr1 2.683954 1_455
O11 P0 1.585295 1_555
O11 Sn0 2.219829 1_555
O11 Zn1 2.340221 1_455
O12 P1 1.585295 1_555
O12 Sn1 2.219829 1_555
O12 Zn0 2.340221 1_655
O13 P2 1.516605 1_555
O13 Sr0 2.471191 1_554
O14 P2 1.582429 1_555
O14 Zn1 2.326483 1_555
O15 P3 1.516605 1_555
O15 Sr1 2.471191 1_556
