# generated using pymatgen
data_YMg6Nb
_symmetry_space_group_name_H-M   'P 1'
_cell_length_a   5.14902900
_cell_length_b   6.42735600
_cell_length_c   11.20750800
_cell_angle_alpha   90.00000000
_cell_angle_beta   90.00000000
_cell_angle_gamma   90.00000000
_symmetry_Int_Tables_number   1
_chemical_formula_structural   YMg6Nb
_chemical_formula_sum   'Y2 Mg12 Nb2'
_cell_volume   370.90846987
_cell_formula_units_Z   2
loop_
 _symmetry_equiv_pos_site_id
 _symmetry_equiv_pos_as_xyz
  1  'x, y, z'
loop_
 _atom_site_type_symbol
 _atom_site_label
 _atom_site_symmetry_multiplicity
 _atom_site_fract_x
 _atom_site_fract_y
 _atom_site_fract_z
 _atom_site_occupancy
  Y  Y0  1  0.50000000  0.00000000  0.16475700  1
  Y  Y1  1  0.50000000  0.50000000  0.66475700  1
  Mg  Mg0  1  0.50000000  0.24823300  0.41741900  1
  Mg  Mg1  1  0.50000000  0.75176700  0.41741900  1
  Mg  Mg2  1  0.00000000  0.73436000  0.08735100  1
  Mg  Mg3  1  0.00000000  0.26564000  0.08735100  1
  Mg  Mg4  1  0.00000000  0.00000000  0.33588500  1
  Mg  Mg5  1  0.00000000  0.50000000  0.32514200  1
  Mg  Mg6  1  0.50000000  0.74823300  0.91741900  1
  Mg  Mg7  1  0.50000000  0.25176700  0.91741900  1
  Mg  Mg8  1  0.00000000  0.23436000  0.58735100  1
  Mg  Mg9  1  0.00000000  0.76564000  0.58735100  1
  Mg  Mg10  1  0.00000000  0.50000000  0.83588500  1
  Mg  Mg11  1  0.00000000  0.00000000  0.82514200  1
  Nb  Nb0  1  0.50000000  0.50000000  0.16467100  1
  Nb  Nb1  1  0.50000000  0.00000000  0.66467100  1
loop_
_geom_bond_atom_site_label_1
_geom_bond_atom_site_label_2
_geom_bond_distance
_geom_bond_site_symmetry_2
Mg0 Mg4 3.163654 1_655
Mg0 Mg4 3.163654 1_555
Mg0 Mg1 3.190964 1_545
Mg0 Nb1 3.197568 1_555
Mg0 Mg8 3.203631 1_555
Mg0 Mg8 3.203631 1_655
Mg0 Y1 3.209794 1_555
Mg0 Mg5 3.211891 1_555
Mg0 Mg5 3.211891 1_655
Mg0 Mg1 3.236392 1_555
Mg0 Y0 3.250254 1_555
Mg0 Nb0 3.262301 1_555
Mg1 Mg4 3.163654 1_665
Mg1 Mg4 3.163654 1_565
Mg1 Nb1 3.197568 1_565
Mg1 Mg9 3.203631 1_555
Mg1 Mg9 3.203631 1_655
Mg1 Y1 3.209794 1_555
Mg1 Mg5 3.211891 1_655
Mg1 Mg5 3.211891 1_555
Mg1 Y0 3.250254 1_565
Mg1 Nb0 3.262301 1_555
Mg2 Mg3 3.012630 1_555
Mg2 Mg5 3.061282 1_555
Mg2 Nb0 3.106130 1_455
Mg2 Nb0 3.106130 1_555
Mg2 Mg6 3.203631 1_554
Mg2 Mg6 3.203631 1_454
Mg2 Y0 3.208710 1_465
Mg2 Y0 3.208710 1_565
Mg2 Mg4 3.267078 1_565
Mg2 Mg3 3.414726 1_565
Mg3 Mg5 3.061282 1_555
Mg3 Nb0 3.106130 1_555
Mg3 Nb0 3.106130 1_455
Mg3 Mg7 3.203631 1_554
Mg3 Mg7 3.203631 1_454
Mg3 Y0 3.208710 1_455
Mg3 Y0 3.208710 1_555
Mg3 Mg4 3.267078 1_555
Mg4 Mg9 3.195597 1_545
Mg4 Mg8 3.195597 1_555
Mg4 Y0 3.210379 1_455
Mg4 Y0 3.210379 1_555
Mg4 Mg5 3.215933 1_555
Mg4 Mg5 3.215933 1_545
Mg5 Nb0 3.140486 1_455
Mg5 Nb0 3.140486 1_555
Mg5 Mg8 3.398691 1_555
Mg5 Mg9 3.398691 1_555
Mg6 Mg7 3.190964 1_555
Mg6 Nb0 3.197568 1_556
Mg6 Y0 3.209794 1_566
Mg6 Mg7 3.236392 1_565
Mg6 Y1 3.250254 1_555
Mg6 Nb1 3.262301 1_565
Mg7 Nb0 3.197568 1_556
Mg7 Y0 3.209794 1_556
Mg7 Y1 3.250254 1_555
Mg7 Nb1 3.262301 1_555
Mg8 Mg9 3.012630 1_545
Mg8 Nb1 3.106130 1_455
Mg8 Nb1 3.106130 1_555
Mg8 Y1 3.208710 1_455
Mg8 Y1 3.208710 1_555
Mg8 Mg9 3.414726 1_555
Mg9 Nb1 3.106130 1_565
Mg9 Nb1 3.106130 1_465
Mg9 Y1 3.208710 1_555
Mg9 Y1 3.208710 1_455
Mg10 Mg6 3.163654 1_555
Mg10 Mg6 3.163654 1_455
Mg10 Mg7 3.163654 1_455
Mg10 Mg7 3.163654 1_555
Mg10 Mg3 3.195597 1_556
Mg10 Mg2 3.195597 1_556
Mg10 Y1 3.210379 1_555
Mg10 Y1 3.210379 1_455
Mg10 Mg11 3.215933 1_555
Mg10 Mg11 3.215933 1_565
Mg10 Mg8 3.267078 1_555
Mg10 Mg9 3.267078 1_555
Mg11 Mg9 3.061282 1_545
Mg11 Mg8 3.061282 1_555
Mg11 Nb1 3.140486 1_455
Mg11 Nb1 3.140486 1_555
Mg11 Mg7 3.211891 1_555
Mg11 Mg7 3.211891 1_455
Mg11 Mg6 3.211891 1_545
Mg11 Mg6 3.211891 1_445
Mg11 Mg3 3.398691 1_556
Mg11 Mg2 3.398691 1_546
Nb0 Y0 3.213678 1_555
Nb0 Y0 3.213678 1_565
Nb1 Y1 3.213678 1_545
Nb1 Y1 3.213678 1_555
