# generated using pymatgen
data_MgCd
_symmetry_space_group_name_H-M   'P 1'
_cell_length_a   12.17226527
_cell_length_b   12.17226527
_cell_length_c   14.68020040
_cell_angle_alpha   73.94567960
_cell_angle_beta   73.94567960
_cell_angle_gamma   29.54259126
_symmetry_Int_Tables_number   1
_chemical_formula_structural   MgCd
_chemical_formula_sum   'Mg24 Cd24'
_cell_volume   1027.66900550
_cell_formula_units_Z   24
loop_
 _symmetry_equiv_pos_site_id
 _symmetry_equiv_pos_as_xyz
  1  'x, y, z'
loop_
 _atom_site_type_symbol
 _atom_site_label
 _atom_site_symmetry_multiplicity
 _atom_site_fract_x
 _atom_site_fract_y
 _atom_site_fract_z
 _atom_site_occupancy
  Mg  Mg0_0  1  0.30489187  0.30489187  0.13675857  1
  Mg  Mg0_1  1  0.30489187  0.30489187  0.63675857  1
  Mg  Mg0_2  1  0.30489187  0.80489187  0.13675857  1
  Mg  Mg0_3  1  0.30489187  0.80489187  0.63675857  1
  Mg  Mg0_4  1  0.80489187  0.30489187  0.13675857  1
  Mg  Mg0_5  1  0.80489187  0.30489187  0.63675857  1
  Mg  Mg0_6  1  0.80489187  0.80489187  0.13675857  1
  Mg  Mg0_7  1  0.80489187  0.80489187  0.63675858  1
  Mg  Mg1_0  1  0.16768028  0.16768028  0.16599386  1
  Mg  Mg1_1  1  0.16768028  0.16768028  0.66599387  1
  Mg  Mg1_2  1  0.16768028  0.66768028  0.16599386  1
  Mg  Mg1_3  1  0.16768028  0.66768028  0.66599387  1
  Mg  Mg1_4  1  0.66768028  0.16768028  0.16599386  1
  Mg  Mg1_5  1  0.66768028  0.16768028  0.66599387  1
  Mg  Mg1_6  1  0.66768028  0.66768028  0.16599386  1
  Mg  Mg1_7  1  0.66768028  0.66768028  0.66599387  1
  Mg  Mg2_0  1  0.47096816  0.47096816  0.31101785  1
  Mg  Mg2_1  1  0.47096816  0.47096816  0.81101785  1
  Mg  Mg2_2  1  0.47096816  0.97096816  0.31101785  1
  Mg  Mg2_3  1  0.47096816  0.97096816  0.81101785  1
  Mg  Mg2_4  1  0.97096816  0.47096816  0.31101785  1
  Mg  Mg2_5  1  0.97096816  0.47096816  0.81101785  1
  Mg  Mg2_6  1  0.97096816  0.97096816  0.31101785  1
  Mg  Mg2_7  1  0.97096816  0.97096816  0.81101785  1
  Cd  Cd0_0  1  0.00143560  0.00143561  0.99960953  1
  Cd  Cd0_1  1  0.00143560  0.00143560  0.49960953  1
  Cd  Cd0_2  1  0.00143561  0.50143560  0.99960953  1
  Cd  Cd0_3  1  0.00143561  0.50143560  0.49960953  1
  Cd  Cd0_4  1  0.50143560  0.00143560  0.99960953  1
  Cd  Cd0_5  1  0.50143560  0.00143561  0.49960953  1
  Cd  Cd0_6  1  0.50143561  0.50143561  0.99960953  1
  Cd  Cd0_7  1  0.50143561  0.50143561  0.49960953  1
  Cd  Cd1_0  1  0.33392144  0.33392144  0.32740759  1
  Cd  Cd1_1  1  0.33392144  0.33392144  0.82740759  1
  Cd  Cd1_2  1  0.33392144  0.83392144  0.32740759  1
  Cd  Cd1_3  1  0.33392144  0.83392144  0.82740759  1
  Cd  Cd1_4  1  0.83392144  0.33392144  0.32740759  1
  Cd  Cd1_5  1  0.83392144  0.33392144  0.82740759  1
  Cd  Cd1_6  1  0.83392144  0.83392144  0.32740759  1
  Cd  Cd1_7  1  0.83392144  0.83392144  0.82740759  1
  Cd  Cd2_0  1  0.13776914  0.13776914  0.47587810  1
  Cd  Cd2_1  1  0.13776914  0.13776914  0.97587810  1
  Cd  Cd2_2  1  0.13776914  0.63776914  0.47587810  1
  Cd  Cd2_3  1  0.13776914  0.63776914  0.97587810  1
  Cd  Cd2_4  1  0.63776914  0.13776914  0.47587810  1
  Cd  Cd2_5  1  0.63776914  0.13776914  0.97587810  1
  Cd  Cd2_6  1  0.63776914  0.63776914  0.47587810  1
  Cd  Cd2_7  1  0.63776914  0.63776914  0.97587810  1
loop_
_geom_bond_atom_site_label_1
_geom_bond_atom_site_label_2
_geom_bond_distance
_geom_bond_site_symmetry_2
Mg0_0 Mg0_6 3.103457 1_545
Mg0_0 Mg0_6 3.103457 1_455
Mg0_0 Mg1_0 3.134309 1_555
Mg0_0 Mg2_4 3.156598 1_455
Mg0_0 Mg2_2 3.156598 1_545
Mg0_0 Mg1_4 3.208280 1_555
Mg0_0 Mg1_2 3.208280 1_555
Mg0_1 Mg0_7 3.103457 1_455
Mg0_1 Mg0_7 3.103457 1_545
Mg0_1 Mg1_1 3.134309 1_555
Mg0_1 Mg2_3 3.156598 1_545
Mg0_1 Mg2_5 3.156598 1_455
Mg0_1 Mg1_5 3.208280 1_555
Mg0_1 Mg1_3 3.208280 1_555
Mg0_2 Mg0_4 3.103457 1_555
Mg0_2 Mg0_4 3.103457 1_465
Mg0_2 Mg1_2 3.134309 1_555
Mg0_2 Mg2_6 3.156598 1_455
Mg0_2 Mg2_0 3.156598 1_555
Mg0_2 Mg1_0 3.208280 1_565
Mg0_2 Mg1_6 3.208280 1_555
Mg0_3 Mg0_5 3.103457 1_555
Mg0_3 Mg0_5 3.103457 1_465
Mg0_3 Mg1_3 3.134309 1_555
Mg0_3 Mg2_1 3.156598 1_555
Mg0_3 Mg2_7 3.156598 1_455
Mg0_3 Mg1_1 3.208280 1_565
Mg0_3 Mg1_7 3.208280 1_555
Mg0_4 Mg1_4 3.134309 1_555
Mg0_4 Mg2_0 3.156598 1_555
Mg0_4 Mg2_6 3.156598 1_545
Mg0_4 Mg1_0 3.208280 1_655
Mg0_4 Mg1_6 3.208280 1_555
Mg0_5 Mg1_5 3.134309 1_555
Mg0_5 Mg2_7 3.156598 1_545
Mg0_5 Mg2_1 3.156598 1_555
Mg0_5 Mg1_1 3.208280 1_655
Mg0_5 Mg1_7 3.208280 1_555
Mg0_6 Mg1_6 3.134309 1_555
Mg0_6 Mg2_4 3.156598 1_555
Mg0_6 Mg2_2 3.156598 1_555
Mg0_6 Mg1_4 3.208280 1_565
Mg0_6 Mg1_2 3.208280 1_655
Mg0_7 Mg1_7 3.134309 1_555
Mg0_7 Mg2_3 3.156598 1_555
Mg0_7 Mg2_5 3.156598 1_555
Mg0_7 Mg1_5 3.208280 1_565
Mg0_7 Mg1_3 3.208280 1_655
Mg1_0 Mg1_6 3.103457 1_545
Mg1_0 Mg1_6 3.103457 1_455
Mg1_0 Mg2_4 3.168834 1_455
Mg1_0 Mg2_2 3.168834 1_545
Mg1_1 Mg1_7 3.103457 1_455
Mg1_1 Mg1_7 3.103457 1_545
Mg1_1 Mg2_5 3.168834 1_455
Mg1_1 Mg2_3 3.168834 1_545
Mg1_2 Mg1_4 3.103457 1_465
Mg1_2 Mg1_4 3.103457 1_555
Mg1_2 Mg2_6 3.168834 1_455
Mg1_2 Mg2_0 3.168834 1_555
Mg1_3 Mg1_5 3.103457 1_555
Mg1_3 Mg1_5 3.103457 1_465
Mg1_3 Mg2_1 3.168834 1_555
Mg1_3 Mg2_7 3.168834 1_455
Mg1_4 Mg2_6 3.168834 1_545
Mg1_4 Mg2_0 3.168834 1_555
Mg1_5 Mg2_1 3.168834 1_555
Mg1_5 Mg2_7 3.168834 1_545
Mg1_6 Mg2_4 3.168834 1_555
Mg1_6 Mg2_2 3.168834 1_555
Mg1_7 Mg2_5 3.168834 1_555
Mg1_7 Mg2_3 3.168834 1_555
Mg2_0 Mg2_6 3.103457 1_455
Mg2_0 Mg2_6 3.103457 1_545
Mg2_1 Mg2_7 3.103457 1_455
Mg2_1 Mg2_7 3.103457 1_545
Mg2_2 Mg2_4 3.103457 1_555
Mg2_2 Mg2_4 3.103457 1_465
Mg2_3 Mg2_5 3.103457 1_555
Mg2_3 Mg2_5 3.103457 1_465
Cd0_0 Mg2_7 3.052065 1_445
Cd0_0 Mg0_4 3.081266 1_456
Cd0_0 Mg0_2 3.081266 1_546
Cd0_0 Mg1_4 3.083266 1_456
Cd0_0 Mg1_2 3.083266 1_546
Cd0_0 Cd0_6 3.103457 1_455
Cd0_0 Cd0_6 3.103457 1_545
Cd0_0 Cd1_5 3.124257 1_455
Cd0_0 Cd1_3 3.124257 1_545
Cd0_0 Cd2_1 3.127518 1_555
Cd0_0 Cd2_3 3.197160 1_545
Cd0_0 Cd2_5 3.197160 1_455
Cd0_1 Mg2_6 3.052065 1_445
Cd0_1 Mg0_5 3.081266 1_455
Cd0_1 Mg0_3 3.081266 1_545
Cd0_1 Mg1_3 3.083266 1_545
Cd0_1 Mg1_5 3.083266 1_455
Cd0_1 Cd0_7 3.103457 1_455
Cd0_1 Cd0_7 3.103457 1_545
Cd0_1 Cd1_2 3.124257 1_545
Cd0_1 Cd1_4 3.124257 1_455
Cd0_1 Cd2_0 3.127518 1_555
Cd0_1 Cd2_2 3.197160 1_545
Cd0_1 Cd2_4 3.197160 1_455
Cd0_2 Mg2_5 3.052065 1_455
Cd0_2 Mg0_6 3.081266 1_456
Cd0_2 Mg0_0 3.081266 1_556
Cd0_2 Mg1_6 3.083266 1_456
Cd0_2 Mg1_0 3.083266 1_556
Cd0_2 Cd0_4 3.103457 1_555
Cd0_2 Cd0_4 3.103457 1_465
Cd0_2 Cd1_1 3.124257 1_555
Cd0_2 Cd1_7 3.124257 1_455
Cd0_2 Cd2_3 3.127518 1_555
Cd0_2 Cd2_7 3.197160 1_455
Cd0_2 Cd2_1 3.197160 1_555
Cd0_3 Mg2_4 3.052065 1_455
Cd0_3 Mg0_1 3.081266 1_555
Cd0_3 Mg0_7 3.081266 1_455
Cd0_3 Mg1_7 3.083266 1_455
Cd0_3 Mg1_1 3.083266 1_555
Cd0_3 Cd0_5 3.103457 1_555
Cd0_3 Cd0_5 3.103457 1_465
Cd0_3 Cd1_0 3.124257 1_555
Cd0_3 Cd1_6 3.124257 1_455
Cd0_3 Cd2_2 3.127518 1_555
Cd0_3 Cd2_0 3.197160 1_555
Cd0_3 Cd2_6 3.197160 1_455
Cd0_4 Mg2_3 3.052065 1_545
Cd0_4 Mg0_6 3.081266 1_546
Cd0_4 Mg0_0 3.081266 1_556
Cd0_4 Mg1_6 3.083266 1_546
Cd0_4 Mg1_0 3.083266 1_556
Cd0_4 Cd1_1 3.124257 1_555
Cd0_4 Cd1_7 3.124257 1_545
Cd0_4 Cd2_5 3.127518 1_555
Cd0_4 Cd2_7 3.197160 1_545
Cd0_4 Cd2_1 3.197160 1_555
Cd0_5 Mg2_2 3.052065 1_545
Cd0_5 Mg0_1 3.081266 1_555
Cd0_5 Mg0_7 3.081266 1_545
Cd0_5 Mg1_7 3.083266 1_545
Cd0_5 Mg1_1 3.083266 1_555
Cd0_5 Cd1_0 3.124257 1_555
Cd0_5 Cd1_6 3.124257 1_545
Cd0_5 Cd2_4 3.127518 1_555
Cd0_5 Cd2_0 3.197160 1_555
Cd0_5 Cd2_6 3.197160 1_545
Cd0_6 Mg2_1 3.052065 1_555
Cd0_6 Mg0_4 3.081266 1_556
Cd0_6 Mg0_2 3.081266 1_556
Cd0_6 Mg1_2 3.083266 1_556
Cd0_6 Mg1_4 3.083266 1_556
Cd0_6 Cd1_5 3.124257 1_555
Cd0_6 Cd1_3 3.124257 1_555
Cd0_6 Cd2_7 3.127518 1_555
Cd0_6 Cd2_3 3.197160 1_555
Cd0_6 Cd2_5 3.197160 1_555
Cd0_7 Mg2_0 3.052065 1_555
Cd0_7 Mg0_5 3.081266 1_555
Cd0_7 Mg0_3 3.081266 1_555
Cd0_7 Mg1_3 3.083266 1_555
Cd0_7 Mg1_5 3.083266 1_555
Cd0_7 Cd1_4 3.124257 1_555
Cd0_7 Cd1_2 3.124257 1_555
Cd0_7 Cd2_6 3.127518 1_555
Cd0_7 Cd2_2 3.197160 1_555
Cd0_7 Cd2_4 3.197160 1_555
Cd1_0 Mg1_4 3.039391 1_555
Cd1_0 Mg1_2 3.039391 1_555
Cd1_0 Mg0_0 3.064971 1_555
Cd1_0 Cd1_6 3.103457 1_455
Cd1_0 Cd1_6 3.103457 1_545
Cd1_0 Mg2_4 3.146670 1_455
Cd1_0 Mg2_2 3.146670 1_545
Cd1_0 Mg2_0 3.165670 1_555
Cd1_0 Cd2_4 3.216437 1_555
Cd1_0 Cd2_2 3.216437 1_555
Cd1_1 Mg1_3 3.039391 1_555
Cd1_1 Mg1_5 3.039391 1_555
Cd1_1 Mg0_1 3.064971 1_555
Cd1_1 Cd1_7 3.103457 1_545
Cd1_1 Cd1_7 3.103457 1_455
Cd1_1 Mg2_3 3.146670 1_545
Cd1_1 Mg2_5 3.146670 1_455
Cd1_1 Mg2_1 3.165670 1_555
Cd1_1 Cd2_5 3.216437 1_555
Cd1_1 Cd2_3 3.216437 1_555
Cd1_2 Mg1_6 3.039391 1_555
Cd1_2 Mg1_0 3.039391 1_565
Cd1_2 Mg0_2 3.064971 1_555
Cd1_2 Cd1_4 3.103457 1_555
Cd1_2 Cd1_4 3.103457 1_465
Cd1_2 Mg2_0 3.146670 1_555
Cd1_2 Mg2_6 3.146670 1_455
Cd1_2 Mg2_2 3.165670 1_555
Cd1_2 Cd2_6 3.216437 1_555
Cd1_2 Cd2_0 3.216437 1_565
Cd1_3 Mg1_7 3.039391 1_555
Cd1_3 Mg1_1 3.039391 1_565
Cd1_3 Mg0_3 3.064971 1_555
Cd1_3 Cd1_5 3.103457 1_555
Cd1_3 Cd1_5 3.103457 1_465
Cd1_3 Mg2_7 3.146670 1_455
Cd1_3 Mg2_1 3.146670 1_555
Cd1_3 Mg2_3 3.165670 1_555
Cd1_3 Cd2_1 3.216437 1_565
Cd1_3 Cd2_7 3.216437 1_555
Cd1_4 Mg1_0 3.039391 1_655
Cd1_4 Mg1_6 3.039391 1_555
Cd1_4 Mg0_4 3.064971 1_555
Cd1_4 Mg2_0 3.146670 1_555
Cd1_4 Mg2_6 3.146670 1_545
Cd1_4 Mg2_4 3.165670 1_555
Cd1_4 Cd2_6 3.216437 1_555
Cd1_4 Cd2_0 3.216437 1_655
Cd1_5 Mg1_7 3.039391 1_555
Cd1_5 Mg1_1 3.039391 1_655
Cd1_5 Mg0_5 3.064971 1_555
Cd1_5 Mg2_7 3.146670 1_545
Cd1_5 Mg2_1 3.146670 1_555
Cd1_5 Mg2_5 3.165670 1_555
Cd1_5 Cd2_1 3.216437 1_655
Cd1_5 Cd2_7 3.216437 1_555
Cd1_6 Mg1_4 3.039391 1_565
Cd1_6 Mg1_2 3.039391 1_655
Cd1_6 Mg0_6 3.064971 1_555
Cd1_6 Mg2_4 3.146670 1_555
Cd1_6 Mg2_2 3.146670 1_555
Cd1_6 Mg2_6 3.165670 1_555
Cd1_6 Cd2_4 3.216437 1_565
Cd1_6 Cd2_2 3.216437 1_655
Cd1_7 Mg1_5 3.039391 1_565
Cd1_7 Mg1_3 3.039391 1_655
Cd1_7 Mg0_7 3.064971 1_555
Cd1_7 Mg2_3 3.146670 1_555
Cd1_7 Mg2_5 3.146670 1_555
Cd1_7 Mg2_7 3.165670 1_555
Cd1_7 Cd2_3 3.216437 1_655
Cd1_7 Cd2_5 3.216437 1_565
Cd2_0 Mg0_5 3.025941 1_455
Cd2_0 Mg0_3 3.025941 1_545
Cd2_0 Mg2_2 3.064250 1_545
Cd2_0 Mg2_4 3.064250 1_455
Cd2_0 Mg1_1 3.067434 1_555
Cd2_0 Cd2_6 3.103457 1_455
Cd2_0 Cd2_6 3.103457 1_545
Cd2_1 Mg0_2 3.025941 1_546
Cd2_1 Mg0_4 3.025941 1_456
Cd2_1 Mg2_5 3.064250 1_455
Cd2_1 Mg2_3 3.064250 1_545
Cd2_1 Mg1_0 3.067434 1_556
Cd2_1 Cd2_7 3.103457 1_545
Cd2_1 Cd2_7 3.103457 1_455
Cd2_2 Mg0_1 3.025941 1_555
Cd2_2 Mg0_7 3.025941 1_455
Cd2_2 Mg2_0 3.064250 1_555
Cd2_2 Mg2_6 3.064250 1_455
Cd2_2 Mg1_3 3.067434 1_555
Cd2_2 Cd2_4 3.103457 1_555
Cd2_2 Cd2_4 3.103457 1_465
Cd2_3 Mg0_0 3.025941 1_556
Cd2_3 Mg0_6 3.025941 1_456
Cd2_3 Mg2_1 3.064250 1_555
Cd2_3 Mg2_7 3.064250 1_455
Cd2_3 Mg1_2 3.067434 1_556
Cd2_3 Cd2_5 3.103457 1_555
Cd2_3 Cd2_5 3.103457 1_465
Cd2_4 Mg0_1 3.025941 1_555
Cd2_4 Mg0_7 3.025941 1_545
Cd2_4 Mg2_0 3.064250 1_555
Cd2_4 Mg2_6 3.064250 1_545
Cd2_4 Mg1_5 3.067434 1_555
Cd2_5 Mg0_0 3.025941 1_556
Cd2_5 Mg0_6 3.025941 1_546
Cd2_5 Mg2_1 3.064250 1_555
Cd2_5 Mg2_7 3.064250 1_545
Cd2_5 Mg1_4 3.067434 1_556
Cd2_6 Mg0_3 3.025941 1_555
Cd2_6 Mg0_5 3.025941 1_555
Cd2_6 Mg2_2 3.064250 1_555
Cd2_6 Mg2_4 3.064250 1_555
Cd2_6 Mg1_7 3.067434 1_555
Cd2_7 Mg0_2 3.025941 1_556
Cd2_7 Mg0_4 3.025941 1_556
Cd2_7 Mg2_5 3.064250 1_555
Cd2_7 Mg2_3 3.064250 1_555
Cd2_7 Mg1_6 3.067434 1_556
