# generated using pymatgen
data_Gd(AlCu)6
_symmetry_space_group_name_H-M   'P 1'
_cell_length_a   6.59744023
_cell_length_b   6.59744023
_cell_length_c   6.59744023
_cell_angle_alpha   135.59443891
_cell_angle_beta   98.97689159
_cell_angle_gamma   97.44411702
_symmetry_Int_Tables_number   1
_chemical_formula_structural   Gd(AlCu)6
_chemical_formula_sum   'Gd1 Al6 Cu6'
_cell_volume   186.01520215
_cell_formula_units_Z   1
loop_
 _symmetry_equiv_pos_site_id
 _symmetry_equiv_pos_as_xyz
  1  'x, y, z'
loop_
 _atom_site_type_symbol
 _atom_site_label
 _atom_site_symmetry_multiplicity
 _atom_site_fract_x
 _atom_site_fract_y
 _atom_site_fract_z
 _atom_site_occupancy
  Gd  Gd0  1  -0.00000000  -0.00000000  0.00000000  1
  Al  Al0  1  0.34936735  0.34936735  -0.00000000  1
  Al  Al1  1  0.65063265  0.65063265  0.00000000  1
  Al  Al2  1  0.65318773  -0.00000000  0.65318773  1
  Al  Al3  1  0.34681227  0.00000000  0.34681227  1
  Al  Al4  1  0.79623084  0.29623084  0.50000000  1
  Al  Al5  1  0.20376916  0.70376916  0.50000000  1
  Cu  Cu0  1  0.50000000  -0.00000000  0.00000000  1
  Cu  Cu1  1  0.50000000  0.50000000  0.50000000  1
  Cu  Cu2  1  -0.00000000  -0.00000000  0.50000000  1
  Cu  Cu3  1  -0.00000000  0.50000000  0.00000000  1
  Cu  Cu4  1  0.23083807  0.50000000  0.73083807  1
  Cu  Cu5  1  0.76916193  0.50000000  0.26916193  1
loop_
_geom_bond_atom_site_label_1
_geom_bond_atom_site_label_2
_geom_bond_distance
_geom_bond_site_symmetry_2
Al0 Al1 2.622462 1_555
Al0 Cu1 2.625617 1_555
Al0 Cu0 2.625617 1_555
Al0 Cu3 2.625617 1_555
Al0 Cu2 2.625617 1_554
Al0 Cu4 2.653682 1_554
Al0 Cu5 2.653682 1_555
Al0 Al5 2.796741 1_555
Al0 Al5 2.796741 1_544
Al0 Gd0 3.041182 1_555
Al1 Cu2 2.625617 1_665
Al1 Cu1 2.625617 1_554
Al1 Cu0 2.625617 1_565
Al1 Cu3 2.625617 1_655
Al1 Cu5 2.653682 1_555
Al1 Cu4 2.653682 1_554
Al1 Al4 2.796741 1_554
Al1 Al4 2.796741 1_565
Al1 Gd0 3.041182 1_665
Al2 Al3 2.626070 1_555
Al2 Cu3 2.641653 1_656
Al2 Cu2 2.641653 1_655
Al2 Cu1 2.641653 1_545
Al2 Cu0 2.641653 1_556
Al2 Cu5 2.683952 1_545
Al2 Cu5 2.683952 1_556
Al2 Al5 2.893689 1_545
Al2 Al4 2.893689 1_555
Al2 Gd0 2.972671 1_656
Al3 Cu1 2.641653 1_555
Al3 Cu0 2.641653 1_555
Al3 Cu2 2.641653 1_555
Al3 Cu3 2.641653 1_545
Al3 Cu4 2.683952 1_544
Al3 Cu4 2.683952 1_555
Al3 Al4 2.893689 1_555
Al3 Al5 2.893689 1_545
Al3 Gd0 2.972671 1_555
Al4 Cu1 2.511500 1_555
Al4 Cu2 2.511500 1_655
Al4 Cu0 2.511500 1_555
Al4 Cu3 2.511500 1_656
Al4 Cu4 2.657286 1_655
Al4 Cu5 2.657286 1_555
Al4 Gd0 3.059693 1_666
Al4 Gd0 3.059693 1_655
Al5 Cu0 2.511500 1_566
Al5 Cu1 2.511500 1_555
Al5 Cu2 2.511500 1_565
Al5 Cu3 2.511500 1_555
Al5 Cu5 2.657286 1_455
Al5 Cu4 2.657286 1_555
Al5 Gd0 3.059693 1_555
Al5 Gd0 3.059693 1_566
Cu0 Cu1 2.493078 1_544
Cu0 Cu1 2.493078 1_555
Cu0 Cu5 2.513307 1_555
Cu0 Cu4 2.513307 1_544
Cu0 Gd0 3.298720 1_555
Cu0 Gd0 3.298720 1_655
Cu1 Cu4 2.513307 1_555
Cu1 Cu5 2.513307 1_555
Cu1 Gd0 3.298720 1_666
Cu1 Gd0 3.298720 1_555
Cu2 Cu3 2.493078 1_545
Cu2 Cu3 2.493078 1_556
Cu2 Cu5 2.513307 1_445
Cu2 Cu4 2.513307 1_555
Cu2 Gd0 3.298720 1_555
Cu2 Gd0 3.298720 1_556
Cu3 Cu4 2.513307 1_554
Cu3 Cu5 2.513307 1_455
Cu3 Gd0 3.298720 1_555
Cu3 Gd0 3.298720 1_565
Cu4 Gd0 3.182818 1_555
Cu4 Gd0 3.182818 1_566
Cu5 Gd0 3.182818 1_655
Cu5 Gd0 3.182818 1_666
