# generated using pymatgen
data_TbGdAl6
_symmetry_space_group_name_H-M   'P 1'
_cell_length_a   6.29455043
_cell_length_b   6.29455043
_cell_length_c   4.59386811
_cell_angle_alpha   90.00000000
_cell_angle_beta   90.00000000
_cell_angle_gamma   119.99999732
_symmetry_Int_Tables_number   1
_chemical_formula_structural   TbGdAl6
_chemical_formula_sum   'Tb1 Gd1 Al6'
_cell_volume   157.62989993
_cell_formula_units_Z   1
loop_
 _symmetry_equiv_pos_site_id
 _symmetry_equiv_pos_as_xyz
  1  'x, y, z'
loop_
 _atom_site_type_symbol
 _atom_site_label
 _atom_site_symmetry_multiplicity
 _atom_site_fract_x
 _atom_site_fract_y
 _atom_site_fract_z
 _atom_site_occupancy
  Tb  Tb0  1  0.00000000  0.00000000  0.50000000  1
  Gd  Gd0  1  0.33333300  0.66666700  -0.00000000  1
  Al  Al0  1  0.37703248  0.18851574  -0.00000000  1
  Al  Al1  1  0.81148426  0.18851574  0.00000000  1
  Al  Al2  1  0.81148426  0.62296752  -0.00000000  1
  Al  Al3  1  0.95614502  0.47807201  0.50000000  1
  Al  Al4  1  0.52192799  0.47807201  0.50000000  1
  Al  Al5  1  0.52192799  0.04385498  0.50000000  1
loop_
_geom_bond_atom_site_label_1
_geom_bond_atom_site_label_2
_geom_bond_distance
_geom_bond_site_symmetry_2
Al0 Al1 2.734679 1_555
Al0 Al2 2.734679 1_555
Al0 Al5 2.787002 1_555
Al0 Al5 2.787002 1_554
Al0 Al4 2.787002 1_554
Al0 Al4 2.787002 1_555
Al0 Tb0 3.082230 1_554
Al0 Tb0 3.082230 1_555
Al0 Gd0 3.156271 1_545
Al0 Gd0 3.156284 1_555
Al1 Al2 2.734679 1_555
Al1 Al3 2.787002 1_554
Al1 Al5 2.787002 1_555
Al1 Al5 2.787002 1_554
Al1 Al3 2.787002 1_555
Al1 Tb0 3.082226 1_655
Al1 Tb0 3.082226 1_654
Al1 Gd0 3.156277 1_655
Al1 Gd0 3.156277 1_545
Al2 Al3 2.787002 1_554
Al2 Al3 2.787002 1_555
Al2 Al4 2.787002 1_554
Al2 Al4 2.787002 1_555
Al2 Tb0 3.082230 1_665
Al2 Tb0 3.082230 1_664
Al2 Gd0 3.156271 1_655
Al2 Gd0 3.156284 1_555
Al3 Al4 2.733201 1_555
Al3 Al5 2.733201 1_555
Al3 Gd0 3.082795 1_656
Al3 Gd0 3.082795 1_655
Al3 Tb0 3.156339 1_655
Al3 Tb0 3.156345 1_665
Al4 Al5 2.733201 1_555
Al4 Gd0 3.082803 1_556
Al4 Gd0 3.082803 1_555
Al4 Tb0 3.156342 1_555
Al4 Tb0 3.156342 1_665
Al5 Gd0 3.082795 1_546
Al5 Gd0 3.082795 1_545
Al5 Tb0 3.156339 1_655
Al5 Tb0 3.156345 1_555
