# generated using pymatgen
data_Nd2MgS4
_symmetry_space_group_name_H-M   'P 1'
_cell_length_a   8.23210600
_cell_length_b   7.23798600
_cell_length_c   11.72657800
_cell_angle_alpha   90.00000000
_cell_angle_beta   90.00000000
_cell_angle_gamma   90.00000000
_symmetry_Int_Tables_number   1
_chemical_formula_structural   Nd2MgS4
_chemical_formula_sum   'Nd8 Mg4 S16'
_cell_volume   698.71487539
_cell_formula_units_Z   4
loop_
 _symmetry_equiv_pos_site_id
 _symmetry_equiv_pos_as_xyz
  1  'x, y, z'
loop_
 _atom_site_type_symbol
 _atom_site_label
 _atom_site_symmetry_multiplicity
 _atom_site_fract_x
 _atom_site_fract_y
 _atom_site_fract_z
 _atom_site_occupancy
  Nd  Nd0  1  0.03145700  0.75000000  0.31409100  1
  Nd  Nd1  1  0.96854300  0.25000000  0.68590900  1
  Nd  Nd2  1  0.46854300  0.25000000  0.81409100  1
  Nd  Nd3  1  0.53145700  0.75000000  0.18590900  1
  Nd  Nd4  1  0.08631900  0.25000000  0.03535900  1
  Nd  Nd5  1  0.91368100  0.75000000  0.96464100  1
  Nd  Nd6  1  0.41368100  0.75000000  0.53535900  1
  Nd  Nd7  1  0.58631900  0.25000000  0.46464100  1
  Mg  Mg0  1  0.19209900  0.25000000  0.41507300  1
  Mg  Mg1  1  0.80790100  0.75000000  0.58492700  1
  Mg  Mg2  1  0.30790100  0.75000000  0.91507300  1
  Mg  Mg3  1  0.69209900  0.25000000  0.08492700  1
  S  S0  1  0.14289600  0.49478900  0.84611200  1
  S  S1  1  0.85710400  0.50521100  0.15388800  1
  S  S2  1  0.35710400  0.50521100  0.34611200  1
  S  S3  1  0.64289600  0.49478900  0.65388800  1
  S  S4  1  0.64289600  0.00521100  0.65388800  1
  S  S5  1  0.35710400  0.99478900  0.34611200  1
  S  S6  1  0.85710400  0.99478900  0.15388800  1
  S  S7  1  0.14289600  0.00521100  0.84611200  1
  S  S8  1  0.91209700  0.25000000  0.44425400  1
  S  S9  1  0.08790300  0.75000000  0.55574600  1
  S  S10  1  0.58790300  0.75000000  0.94425400  1
  S  S11  1  0.41209700  0.25000000  0.05574600  1
  S  S12  1  0.20576700  0.75000000  0.10886600  1
  S  S13  1  0.79423300  0.25000000  0.89113400  1
  S  S14  1  0.29423300  0.25000000  0.60886600  1
  S  S15  1  0.70576700  0.75000000  0.39113400  1
loop_
_geom_bond_atom_site_label_1
_geom_bond_atom_site_label_2
_geom_bond_distance
_geom_bond_site_symmetry_2
Nd0 S12 2.801912 1_555
Nd0 S15 2.829240 1_455
Nd0 S9 2.871631 1_555
Nd0 S6 2.954408 1_455
Nd0 S1 2.954408 1_455
Nd0 S5 3.235224 1_555
Nd0 S2 3.235224 1_555
Nd1 S13 2.801912 1_555
Nd1 S14 2.829240 1_655
Nd1 S8 2.871631 1_555
Nd1 S0 2.954408 1_655
Nd1 S7 2.954408 1_655
Nd1 S3 3.235224 1_555
Nd1 S4 3.235224 1_555
Nd2 S14 2.801912 1_555
Nd2 S13 2.829240 1_555
Nd2 S11 2.871631 1_556
Nd2 S3 2.954408 1_555
Nd2 S4 2.954408 1_555
Nd2 S0 3.235224 1_555
Nd2 S7 3.235224 1_555
Nd3 S15 2.801912 1_555
Nd3 S12 2.829240 1_555
Nd3 S10 2.871631 1_554
Nd3 S5 2.954408 1_555
Nd3 S2 2.954408 1_555
Nd3 S6 3.235224 1_555
Nd3 S1 3.235224 1_555
Nd4 S11 2.692474 1_555
Nd4 S0 2.877683 1_554
Nd4 S7 2.877683 1_554
Nd4 S13 2.939714 1_454
Nd4 S1 2.984059 1_455
Nd4 S6 2.984059 1_445
Nd5 S10 2.692474 1_555
Nd5 S6 2.877683 1_556
Nd5 S1 2.877683 1_556
Nd5 S12 2.939714 1_656
Nd5 S7 2.984059 1_665
Nd5 S0 2.984059 1_655
Nd6 S9 2.692474 1_555
Nd6 S5 2.877683 1_555
Nd6 S2 2.877683 1_555
Nd6 S15 2.939714 1_555
Nd6 S4 2.984059 1_565
Nd6 S3 2.984059 1_555
Nd7 S8 2.692474 1_555
Nd7 S3 2.877683 1_555
Nd7 S4 2.877683 1_555
Nd7 S14 2.939714 1_555
Nd7 S2 2.984059 1_555
Nd7 S5 2.984059 1_545
Mg0 S8 2.330268 1_455
Mg0 S14 2.423075 1_555
Mg0 S2 2.431304 1_555
Mg0 S5 2.431304 1_545
Mg1 S9 2.330268 1_655
Mg1 S15 2.423075 1_555
Mg1 S4 2.431304 1_565
Mg1 S3 2.431304 1_555
Mg2 S10 2.330268 1_555
Mg2 S12 2.423075 1_556
Mg2 S7 2.431304 1_565
Mg2 S0 2.431304 1_555
Mg3 S11 2.330268 1_555
Mg3 S13 2.423075 1_554
Mg3 S1 2.431304 1_555
Mg3 S6 2.431304 1_545
