# generated using pymatgen
data_RbYbBeF6
_symmetry_space_group_name_H-M   'P 1'
_cell_length_a   6.09499100
_cell_length_b   6.47975000
_cell_length_c   7.30612532
_cell_angle_alpha   67.41836195
_cell_angle_beta   90.00000000
_cell_angle_gamma   90.00000000
_symmetry_Int_Tables_number   1
_chemical_formula_structural   RbYbBeF6
_chemical_formula_sum   'Rb2 Yb2 Be2 F12'
_cell_volume   266.42621054
_cell_formula_units_Z   2
loop_
 _symmetry_equiv_pos_site_id
 _symmetry_equiv_pos_as_xyz
  1  'x, y, z'
loop_
 _atom_site_type_symbol
 _atom_site_label
 _atom_site_symmetry_multiplicity
 _atom_site_fract_x
 _atom_site_fract_y
 _atom_site_fract_z
 _atom_site_occupancy
  Rb  Rb0  1  0.25000000  0.08213200  0.77061700  1
  Rb  Rb1  1  0.75000000  0.91786800  0.22938300  1
  Yb  Yb0  1  0.25000000  0.35658100  0.22251300  1
  Yb  Yb1  1  0.75000000  0.64341900  0.77748700  1
  Be  Be0  1  0.25000000  0.76797800  0.46138500  1
  Be  Be1  1  0.75000000  0.23202200  0.53861500  1
  F  F0  1  0.45755900  0.77242300  0.58387000  1
  F  F1  1  0.54244100  0.22757700  0.41613000  1
  F  F2  1  0.95755900  0.22757700  0.41613000  1
  F  F3  1  0.04244100  0.77242300  0.58387000  1
  F  F4  1  0.25000000  0.56137600  0.40467400  1
  F  F5  1  0.75000000  0.43862400  0.59532600  1
  F  F6  1  0.49742900  0.63772500  0.02732700  1
  F  F7  1  0.50257100  0.36227500  0.97267300  1
  F  F8  1  0.99742900  0.36227500  0.97267300  1
  F  F9  1  0.00257100  0.63772500  0.02732700  1
  F  F10  1  0.25000000  0.98566500  0.25857500  1
  F  F11  1  0.75000000  0.01433500  0.74142500  1
loop_
_geom_bond_atom_site_label_1
_geom_bond_atom_site_label_2
_geom_bond_distance
_geom_bond_site_symmetry_2
Be0 F4 1.545920 1_555
Be0 F3 1.556232 1_555
Be0 F0 1.556232 1_555
Be0 F10 1.606261 1_555
Be1 F5 1.545920 1_555
Be1 F1 1.556232 1_555
Be1 F2 1.556232 1_555
Be1 F11 1.606261 1_555
F0 Yb1 2.229062 1_555
F0 Rb1 2.983015 1_555
F0 Rb0 3.097136 1_565
F1 Yb0 2.229062 1_555
F1 Rb0 2.983015 1_555
F1 Rb1 3.097136 1_545
F2 Yb0 2.229062 1_655
F2 Rb0 2.983015 1_655
F2 Rb1 3.097136 1_545
F3 Yb1 2.229062 1_455
F3 Rb1 2.983015 1_455
F3 Rb0 3.097136 1_565
F4 Yb0 2.211025 1_555
F4 Rb0 3.227268 1_555
F5 Yb1 2.211025 1_555
F5 Rb1 3.227268 1_555
F6 Yb0 2.373075 1_555
F6 Yb1 2.377266 1_554
F6 Rb1 3.146796 1_555
F6 Rb0 3.152214 1_564
F7 Yb1 2.373075 1_555
F7 Yb0 2.377266 1_556
F7 Rb0 3.146796 1_555
F7 Rb1 3.152214 1_546
F8 Yb1 2.373075 1_555
F8 Yb0 2.377266 1_656
F8 Rb0 3.146796 1_655
F8 Rb1 3.152214 1_546
F9 Yb0 2.373075 1_555
F9 Yb1 2.377266 1_454
F9 Rb1 3.146796 1_455
F9 Rb0 3.152214 1_564
F10 Yb0 2.315087 1_565
F10 Rb1 3.098010 1_555
F10 Rb1 3.098010 1_455
F10 Rb0 3.374771 1_564
F11 Yb1 2.315087 1_545
F11 Rb0 3.098010 1_555
F11 Rb0 3.098010 1_655
F11 Rb1 3.374771 1_546
