# generated using pymatgen
data_LiMn2(BO3)2
_symmetry_space_group_name_H-M   'P 1'
_cell_length_a   5.30893000
_cell_length_b   6.13714583
_cell_length_c   15.53622810
_cell_angle_alpha   80.94070387
_cell_angle_beta   87.42292415
_cell_angle_gamma   86.99428227
_symmetry_Int_Tables_number   1
_chemical_formula_structural   LiMn2(BO3)2
_chemical_formula_sum   'Li4 Mn8 B8 O24'
_cell_volume   498.84842668
_cell_formula_units_Z   4
loop_
 _symmetry_equiv_pos_site_id
 _symmetry_equiv_pos_as_xyz
  1  'x, y, z'
loop_
 _atom_site_type_symbol
 _atom_site_label
 _atom_site_symmetry_multiplicity
 _atom_site_fract_x
 _atom_site_fract_y
 _atom_site_fract_z
 _atom_site_occupancy
  Li  Li0  1  0.41044100  0.14225600  0.59925600  1
  Li  Li1  1  0.90618200  0.64187500  0.84910900  1
  Li  Li2  1  0.90900100  0.63855400  0.34967900  1
  Li  Li3  1  0.09654400  0.36745300  0.14818300  1
  Mn  Mn0  1  0.09352100  0.07249800  0.84033900  1
  Mn  Mn1  1  0.41045100  0.43359500  0.90899100  1
  Mn  Mn2  1  0.40990000  0.43312900  0.41000100  1
  Mn  Mn3  1  0.91080700  0.93661500  0.65952700  1
  Mn  Mn4  1  0.08843800  0.07145300  0.33985300  1
  Mn  Mn5  1  0.59145500  0.57553600  0.59024200  1
  Mn  Mn6  1  0.58546300  0.57285500  0.08636400  1
  Mn  Mn7  1  0.90786000  0.93635500  0.15745700  1
  B  B0  1  0.58016100  0.23561200  0.75300800  1
  B  B1  1  0.42356500  0.75873200  0.74803400  1
  B  B2  1  0.92624300  0.27580400  0.99640100  1
  B  B3  1  0.92362600  0.25681200  0.49821500  1
  B  B4  1  0.07764500  0.73510500  0.50307700  1
  B  B5  1  0.07305600  0.72826300  0.00172600  1
  B  B6  1  0.57666600  0.25397400  0.25174700  1
  B  B7  1  0.42167800  0.74852000  0.24810900  1
  O  O0  1  0.32223400  0.64647700  0.99010900  1
  O  O1  1  0.47225400  0.19982100  0.83874200  1
  O  O2  1  0.94070200  0.83741900  0.93555400  1
  O  O3  1  0.04661400  0.34465600  0.91417400  1
  O  O4  1  0.16525800  0.80212000  0.75927700  1
  O  O5  1  0.82582800  0.14293300  0.74226900  1
  O  O6  1  0.06849600  0.14456800  0.56348300  1
  O  O7  1  0.56753900  0.64378900  0.81255900  1
  O  O8  1  0.04308100  0.34156800  0.41755900  1
  O  O9  1  0.54258500  0.84690800  0.66763300  1
  O  O10  1  0.66584800  0.30006700  0.50915300  1
  O  O11  1  0.56451200  0.64443900  0.31652000  1
  O  O12  1  0.44723100  0.33548500  0.68470200  1
  O  O13  1  0.32215300  0.64012600  0.49286800  1
  O  O14  1  0.46625600  0.20073900  0.33662000  1
  O  O15  1  0.96751100  0.70349100  0.58844000  1
  O  O16  1  0.43099100  0.35689000  0.18641300  1
  O  O17  1  0.94498100  0.83427800  0.43440500  1
  O  O18  1  0.16475600  0.80194100  0.25965100  1
  O  O19  1  0.83170400  0.18802000  0.23695500  1
  O  O20  1  0.96374600  0.67158500  0.08701900  1
  O  O21  1  0.05822700  0.16576600  0.06421700  1
  O  O22  1  0.54826400  0.80976800  0.16749600  1
  O  O23  1  0.67431600  0.34490200  0.00497400  1
loop_
_geom_bond_atom_site_label_1
_geom_bond_atom_site_label_2
_geom_bond_distance
_geom_bond_site_symmetry_2
Li0 O6 1.920983 1_555
Li0 O12 1.936514 1_555
Li0 O9 2.057539 1_545
Li0 O10 2.067913 1_555
Li1 O7 1.908476 1_555
Li1 O2 1.957107 1_555
Li1 O3 2.061414 1_655
Li1 O4 2.084173 1_655
Li2 O11 1.919218 1_555
Li2 O17 1.938205 1_555
Li2 O8 2.065682 1_655
Li2 O18 2.082241 1_655
Li3 O16 1.892146 1_555
Li3 O21 1.958062 1_555
Li3 O20 2.060962 1_455
Li3 O19 2.145087 1_455
Mn0 O2 2.066557 1_445
Mn0 O5 2.109721 1_455
Mn0 O3 2.168356 1_555
Mn0 O1 2.192751 1_555
Mn0 O4 2.243493 1_545
Mn1 O1 1.941322 1_555
Mn1 O0 1.978836 1_555
Mn1 O7 1.999000 1_555
Mn1 O3 2.029329 1_555
Mn1 O23 2.081978 1_556
Mn2 O14 1.964677 1_555
Mn2 O11 1.968794 1_555
Mn2 O13 1.971651 1_555
Mn2 O8 2.048266 1_555
Mn2 O10 2.135867 1_555
Mn3 O15 1.944185 1_555
Mn3 O5 1.964647 1_565
Mn3 O6 1.989013 1_665
Mn3 O9 2.051670 1_555
Mn3 O4 2.139235 1_655
Mn4 O17 2.049134 1_445
Mn4 O19 2.158405 1_455
Mn4 O14 2.191037 1_555
Mn4 O8 2.196765 1_555
Mn4 O18 2.232924 1_545
Mn5 O12 2.060767 1_555
Mn5 O13 2.106193 1_555
Mn5 O15 2.180767 1_555
Mn5 O9 2.200898 1_555
Mn5 O10 2.270942 1_555
Mn6 O16 2.048396 1_555
Mn6 O23 2.052521 1_555
Mn6 O22 2.065550 1_555
Mn6 O0 2.074205 1_554
Mn6 O20 2.128806 1_555
Mn7 O21 2.022268 1_665
Mn7 O22 2.088785 1_555
Mn7 O20 2.099106 1_555
Mn7 O19 2.136532 1_565
Mn7 O18 2.173860 1_655
B0 O12 1.347982 1_555
B0 O5 1.408860 1_555
B0 O1 1.415291 1_555
B1 O7 1.369842 1_555
B1 O4 1.391684 1_555
B1 O9 1.415780 1_555
B2 O21 1.360077 1_656
B2 O23 1.388764 1_556
B2 O3 1.415569 1_655
B3 O6 1.374366 1_655
B3 O10 1.388310 1_555
B3 O8 1.414515 1_655
B4 O17 1.350147 1_455
B4 O13 1.407544 1_555
B4 O15 1.414037 1_455
B5 O2 1.340944 1_454
B5 O0 1.404249 1_554
B5 O20 1.421478 1_455
B6 O16 1.358246 1_555
B6 O19 1.412001 1_555
B6 O14 1.415612 1_555
B7 O11 1.385842 1_555
B7 O18 1.396320 1_555
B7 O22 1.401441 1_555
