# generated using pymatgen
data_Sr2LiPr2Fe2(RuO6)2
_symmetry_space_group_name_H-M   'P 1'
_cell_length_a   5.66545569
_cell_length_b   5.64900316
_cell_length_c   8.13795783
_cell_angle_alpha   90.43340346
_cell_angle_beta   92.32130847
_cell_angle_gamma   90.49064332
_symmetry_Int_Tables_number   1
_chemical_formula_structural   Sr2LiPr2Fe2(RuO6)2
_chemical_formula_sum   'Sr2 Li1 Pr2 Fe2 Ru2 O12'
_cell_volume   260.21722102
_cell_formula_units_Z   1
loop_
 _symmetry_equiv_pos_site_id
 _symmetry_equiv_pos_as_xyz
  1  'x, y, z'
loop_
 _atom_site_type_symbol
 _atom_site_label
 _atom_site_symmetry_multiplicity
 _atom_site_fract_x
 _atom_site_fract_y
 _atom_site_fract_z
 _atom_site_occupancy
  Sr  Sr0  1  0.47237800  0.49140500  0.76039000  1
  Sr  Sr1  1  0.99135700  0.01053300  0.24697100  1
  Li  Li0  1  0.18188800  0.96035800  0.57110200  1
  Pr  Pr0  1  0.92545900  0.01887300  0.82219000  1
  Pr  Pr1  1  0.47608200  0.49291600  0.25327900  1
  Fe  Fe0  1  0.98991300  0.50870100  0.01426500  1
  Fe  Fe1  1  0.56215000  0.00547200  0.48993600  1
  Ru  Ru0  1  0.02866100  0.50411000  0.50014300  1
  Ru  Ru1  1  0.48304400  0.99475300  0.00196500  1
  O  O0  1  0.00331000  0.42140100  0.73735800  1
  O  O1  1  0.48081900  0.04575600  0.74029500  1
  O  O2  1  0.02910900  0.57035800  0.25468700  1
  O  O3  1  0.52504700  0.92221200  0.24935600  1
  O  O4  1  0.24772100  0.22465800  0.44548600  1
  O  O5  1  0.74338700  0.24978100  0.03287600  1
  O  O6  1  0.71975600  0.72706500  0.97604500  1
  O  O7  1  0.34343100  0.69693700  0.50680800  1
  O  O8  1  0.86592700  0.83728900  0.54758900  1
  O  O9  1  0.21012300  0.76635700  0.96144200  1
  O  O10  1  0.23983900  0.25669500  0.03489300  1
  O  O11  1  0.73059600  0.30627600  0.45292700  1
loop_
_geom_bond_atom_site_label_1
_geom_bond_atom_site_label_2
_geom_bond_distance
_geom_bond_site_symmetry_2
Li0 O7 1.837405 1_555
Li0 O4 1.859490 1_565
Li0 O8 1.916558 1_455
Li0 O1 2.187193 1_565
Fe0 O9 1.970167 1_654
Fe0 O2 1.987929 1_655
Fe0 O6 1.990115 1_554
Fe0 O10 2.019542 1_655
Fe0 O5 2.024469 1_555
Fe0 O0 2.307536 1_654
Fe1 O11 1.972846 1_555
Fe1 O3 2.012346 1_545
Fe1 O8 2.013468 1_545
Fe1 O1 2.118012 1_555
Fe1 O7 2.138339 1_545
Fe1 O4 2.197641 1_555
O0 Ru0 2.000126 1_555
O0 Pr0 2.423408 1_455
O0 Sr0 2.682213 1_555
O0 Sr0 3.050300 1_455
O1 Ru1 2.150567 1_546
O1 Sr0 2.522532 1_555
O1 Pr0 2.585559 1_555
O1 Sr0 3.137089 1_545
O2 Ru0 2.035144 1_555
O2 Sr1 2.498600 1_465
O2 Pr1 2.573972 1_555
O3 Ru1 2.062304 1_555
O3 Pr1 2.439144 1_555
O3 Sr1 2.685227 1_565
O4 Ru0 2.073118 1_555
O4 Sr1 2.435728 1_455
O4 Pr1 2.565754 1_555
O4 Sr0 3.178428 1_555
O5 Ru1 2.059695 1_545
O5 Pr0 2.416127 1_554
O5 Sr1 2.589534 1_555
O5 Pr1 2.759591 1_555
O5 Sr0 2.990579 1_554
O6 Ru1 2.045110 1_556
O6 Pr0 2.399928 1_565
O6 Sr0 2.559275 1_555
O7 Ru0 2.080310 1_555
O7 Sr0 2.463532 1_555
O7 Pr1 2.500876 1_555
O8 Ru0 2.142212 1_655
O8 Pr0 2.461329 1_565
O8 Sr1 2.759137 1_565
O9 Ru1 2.020467 1_556
O9 Pr0 2.415735 1_465
O9 Sr0 2.737705 1_555
O10 Ru1 2.053947 1_545
O10 Pr1 2.543891 1_555
O10 Sr1 2.663409 1_455
O10 Pr0 2.765422 1_454
O10 Sr0 2.955872 1_554
O11 Ru0 2.038831 1_655
O11 Pr1 2.385939 1_555
O11 Sr1 2.825466 1_555
O11 Sr0 3.126911 1_555
