# generated using pymatgen
data_ErSc(BO3)2
_symmetry_space_group_name_H-M   'P 1'
_cell_length_a   6.04066723
_cell_length_b   6.04066723
_cell_length_c   6.04066673
_cell_angle_alpha   47.79282523
_cell_angle_beta   47.79282523
_cell_angle_gamma   47.79283113
_symmetry_Int_Tables_number   1
_chemical_formula_structural   ErSc(BO3)2
_chemical_formula_sum   'Er1 Sc1 B2 O6'
_cell_volume   110.74391120
_cell_formula_units_Z   1
loop_
 _symmetry_equiv_pos_site_id
 _symmetry_equiv_pos_as_xyz
  1  'x, y, z'
loop_
 _atom_site_type_symbol
 _atom_site_label
 _atom_site_symmetry_multiplicity
 _atom_site_fract_x
 _atom_site_fract_y
 _atom_site_fract_z
 _atom_site_occupancy
  Er  Er0  1  0.00000000  0.00000000  0.00000000  1
  Sc  Sc0  1  0.50000000  0.50000000  0.50000000  1
  B  B0  1  0.24582200  0.24582200  0.24582200  1
  B  B1  1  0.75417800  0.75417800  0.75417800  1
  O  O0  1  0.52249000  0.95517600  0.26349600  1
  O  O1  1  0.26349600  0.52249000  0.95517600  1
  O  O2  1  0.95517600  0.26349600  0.52249000  1
  O  O3  1  0.73650400  0.47751000  0.04482400  1
  O  O4  1  0.04482400  0.73650400  0.47751000  1
  O  O5  1  0.47751000  0.04482400  0.73650400  1
loop_
_geom_bond_atom_site_label_1
_geom_bond_atom_site_label_2
_geom_bond_distance
_geom_bond_site_symmetry_2
Er0 O4 2.286588 1_545
Er0 O2 2.286588 1_454
Er0 O5 2.286588 1_554
Er0 O0 2.286588 1_445
Er0 O3 2.286588 1_455
Er0 O1 2.286588 1_544
B0 O1 1.390094 1_554
B0 O2 1.390094 1_455
B0 O0 1.390094 1_545
B1 O3 1.390094 1_556
B1 O4 1.390094 1_655
B1 O5 1.390094 1_565
O0 Sc0 2.140735 1_555
O1 Sc0 2.140735 1_555
O2 Sc0 2.140736 1_555
O3 Sc0 2.140735 1_555
O4 Sc0 2.140736 1_555
O5 Sc0 2.140735 1_555
