# generated using pymatgen
data_Nb4Ag2O11
_symmetry_space_group_name_H-M   'P 1'
_cell_length_a   6.33082154
_cell_length_b   6.33082154
_cell_length_c   13.07966799
_cell_angle_alpha   76.15885988
_cell_angle_beta   76.15885988
_cell_angle_gamma   59.04815687
_symmetry_Int_Tables_number   1
_chemical_formula_structural   Nb4Ag2O11
_chemical_formula_sum   'Nb8 Ag4 O22'
_cell_volume   432.24960786
_cell_formula_units_Z   2
loop_
 _symmetry_equiv_pos_site_id
 _symmetry_equiv_pos_as_xyz
  1  'x, y, z'
loop_
 _atom_site_type_symbol
 _atom_site_label
 _atom_site_symmetry_multiplicity
 _atom_site_fract_x
 _atom_site_fract_y
 _atom_site_fract_z
 _atom_site_occupancy
  Nb  Nb0  1  0.75363100  0.60791200  0.24934600  1
  Nb  Nb1  1  0.60791200  0.75363100  0.74934600  1
  Nb  Nb2  1  0.39361000  0.24472400  0.24947500  1
  Nb  Nb3  1  0.24472400  0.39361000  0.74947500  1
  Nb  Nb4  1  0.12575500  0.88216900  0.24217500  1
  Nb  Nb5  1  0.88216900  0.12575500  0.74217500  1
  Nb  Nb6  1  0.51589500  0.00026100  0.99299200  1
  Nb  Nb7  1  0.00026100  0.51589500  0.49299200  1
  Ag  Ag0  1  0.32269200  0.83508400  0.51106800  1
  Ag  Ag1  1  0.83508400  0.32269200  0.01106800  1
  Ag  Ag2  1  0.17798800  0.66422000  0.98619400  1
  Ag  Ag3  1  0.66422000  0.17798800  0.48619400  1
  O  O0  1  0.74306400  0.71948900  0.09604600  1
  O  O1  1  0.71948900  0.74306400  0.59604600  1
  O  O2  1  0.27399100  0.25444700  0.40856800  1
  O  O3  1  0.25444700  0.27399100  0.90856800  1
  O  O4  1  0.74994000  0.56988200  0.40931500  1
  O  O5  1  0.56988200  0.74994000  0.90931500  1
  O  O6  1  0.43564700  0.23896300  0.09576900  1
  O  O7  1  0.23896300  0.43564700  0.59576900  1
  O  O8  1  0.22120600  0.93819600  0.09293500  1
  O  O9  1  0.93819600  0.22120600  0.59293500  1
  O  O10  1  0.05890400  0.77781300  0.40891000  1
  O  O11  1  0.77781300  0.05890400  0.90891000  1
  O  O12  1  0.99312300  0.24819200  0.25366300  1
  O  O13  1  0.24819200  0.99312300  0.75366300  1
  O  O14  1  0.75287500  0.00351800  0.25007700  1
  O  O15  1  0.00351800  0.75287500  0.75007700  1
  O  O16  1  0.40670200  0.90506100  0.28122700  1
  O  O17  1  0.90506100  0.40670200  0.78122700  1
  O  O18  1  0.09436700  0.59053900  0.22011000  1
  O  O19  1  0.59053900  0.09436700  0.72011000  1
  O  O20  1  0.49368100  0.50390100  0.25188000  1
  O  O21  1  0.50390100  0.49368100  0.75188000  1
loop_
_geom_bond_atom_site_label_1
_geom_bond_atom_site_label_2
_geom_bond_distance
_geom_bond_site_symmetry_2
Nb0 O0 1.965150 1_555
Nb0 O12 1.978870 1_555
Nb0 O4 2.043960 1_555
Nb0 O18 2.047675 1_655
Nb0 O20 2.054543 1_555
Nb0 O16 2.055182 1_555
Nb0 O14 2.504355 1_565
Nb1 O1 1.965150 1_555
Nb1 O13 1.978870 1_555
Nb1 O5 2.043960 1_555
Nb1 O19 2.047675 1_565
Nb1 O21 2.054543 1_555
Nb1 O17 2.055182 1_555
Nb1 O15 2.504355 1_655
Nb2 O6 1.970549 1_555
Nb2 O14 1.983732 1_555
Nb2 O2 2.041253 1_555
Nb2 O20 2.048923 1_555
Nb2 O18 2.051590 1_555
Nb2 O16 2.051630 1_545
Nb2 O12 2.511705 1_455
Nb3 O7 1.970549 1_555
Nb3 O15 1.983732 1_555
Nb3 O3 2.041253 1_555
Nb3 O21 2.048923 1_555
Nb3 O19 2.051590 1_555
Nb3 O17 2.051630 1_455
Nb3 O13 2.511705 1_545
Nb4 O8 1.904241 1_555
Nb4 O16 2.044667 1_555
Nb4 O18 2.047243 1_555
Nb4 O12 2.049870 1_465
Nb4 O14 2.056519 1_465
Nb4 O10 2.127976 1_555
Nb4 O20 2.331248 1_555
Nb5 O9 1.904241 1_555
Nb5 O17 2.044667 1_555
Nb5 O19 2.047243 1_555
Nb5 O13 2.049870 1_645
Nb5 O15 2.056519 1_645
Nb5 O11 2.127976 1_555
Nb5 O21 2.331248 1_555
Nb6 O11 1.913677 1_555
Nb6 O5 1.979851 1_545
Nb6 O3 1.992610 1_555
Nb6 O0 2.048496 1_546
Nb6 O6 2.050457 1_556
Nb6 O8 2.164529 1_546
Nb7 O10 1.913677 1_555
Nb7 O4 1.979851 1_455
Nb7 O2 1.992610 1_555
Nb7 O1 2.048496 1_455
Nb7 O7 2.050457 1_555
Nb7 O9 2.164529 1_455
Ag0 O4 2.565479 1_555
Ag0 O2 2.567834 1_565
Ag0 O10 2.574498 1_555
Ag0 O9 2.632843 1_465
Ag0 O1 2.721388 1_555
Ag0 O7 2.767743 1_555
Ag1 O5 2.565479 1_554
Ag1 O3 2.567834 1_654
Ag1 O11 2.574498 1_554
Ag1 O8 2.632843 1_645
Ag1 O0 2.721388 1_555
Ag1 O6 2.767743 1_555
Ag2 O6 2.591924 1_556
Ag2 O8 2.619558 1_556
Ag2 O3 2.665206 1_555
Ag2 O0 2.669252 1_456
Ag2 O11 2.681194 1_465
Ag2 O5 2.718684 1_555
Ag3 O7 2.591924 1_555
Ag3 O9 2.619558 1_555
Ag3 O2 2.665206 1_555
Ag3 O1 2.669252 1_545
Ag3 O10 2.681194 1_645
Ag3 O4 2.718684 1_555
