# generated using pymatgen
data_CuAs2
_symmetry_space_group_name_H-M   'P 1'
_cell_length_a   5.29405979
_cell_length_b   5.10578225
_cell_length_c   5.10578178
_cell_angle_alpha   74.40846253
_cell_angle_beta   58.77248401
_cell_angle_gamma   58.77248530
_symmetry_Int_Tables_number   1
_chemical_formula_structural   CuAs2
_chemical_formula_sum   'Cu2 As4'
_cell_volume   100.91664947
_cell_formula_units_Z   2
loop_
 _symmetry_equiv_pos_site_id
 _symmetry_equiv_pos_as_xyz
  1  'x, y, z'
loop_
 _atom_site_type_symbol
 _atom_site_label
 _atom_site_symmetry_multiplicity
 _atom_site_fract_x
 _atom_site_fract_y
 _atom_site_fract_z
 _atom_site_occupancy
  Cu  Cu0  1  0.25000000  0.00000000  0.00000000  1
  Cu  Cu1  1  0.75000000  0.00000000  0.00000000  1
  As  As0  1  0.14782600  0.50000000  0.20434800  1
  As  As1  1  0.35217400  0.79565200  0.50000000  1
  As  As2  1  0.64782600  0.20434800  0.50000000  1
  As  As3  1  0.85217400  0.50000000  0.79565200  1
loop_
_geom_bond_atom_site_label_1
_geom_bond_atom_site_label_2
_geom_bond_distance
_geom_bond_site_symmetry_2
Cu0 Cu1 2.647030 1_555
Cu0 Cu1 2.647030 1_455
As0 As3 2.581653 1_455
As0 Cu1 2.704303 1_555
As0 Cu0 2.704303 1_555
As0 Cu1 2.704303 1_465
As0 Cu0 2.704303 1_565
As1 As2 2.581653 1_555
As1 Cu1 2.704303 1_466
As1 Cu0 2.704303 1_566
As1 Cu0 2.704303 1_565
As1 Cu1 2.704303 1_565
As2 Cu0 2.704303 1_655
As2 Cu1 2.704303 1_555
As2 Cu1 2.704303 1_556
As2 Cu0 2.704303 1_556
As3 Cu0 2.704303 1_566
As3 Cu1 2.704303 1_566
As3 Cu0 2.704303 1_656
As3 Cu1 2.704303 1_556
