# generated using pymatgen
data_Pr2Ga12Pd
_symmetry_space_group_name_H-M   'P 1'
_cell_length_a   6.12641100
_cell_length_b   6.12641100
_cell_length_c   15.71921500
_cell_angle_alpha   90.00000000
_cell_angle_beta   90.00000000
_cell_angle_gamma   90.00000000
_symmetry_Int_Tables_number   1
_chemical_formula_structural   Pr2Ga12Pd
_chemical_formula_sum   'Pr4 Ga24 Pd2'
_cell_volume   589.98790923
_cell_formula_units_Z   2
loop_
 _symmetry_equiv_pos_site_id
 _symmetry_equiv_pos_as_xyz
  1  'x, y, z'
loop_
 _atom_site_type_symbol
 _atom_site_label
 _atom_site_symmetry_multiplicity
 _atom_site_fract_x
 _atom_site_fract_y
 _atom_site_fract_z
 _atom_site_occupancy
  Pr  Pr0  1  0.75000000  0.25000000  0.24907700  1
  Pr  Pr1  1  0.25000000  0.75000000  0.24907700  1
  Pr  Pr2  1  0.25000000  0.75000000  0.75092300  1
  Pr  Pr3  1  0.75000000  0.25000000  0.75092300  1
  Ga  Ga0  1  0.25000000  0.25000000  0.18527900  1
  Ga  Ga1  1  0.75000000  0.75000000  0.18527900  1
  Ga  Ga2  1  0.75000000  0.75000000  0.81472100  1
  Ga  Ga3  1  0.25000000  0.25000000  0.81472100  1
  Ga  Ga4  1  0.25000000  0.25000000  0.34215200  1
  Ga  Ga5  1  0.75000000  0.75000000  0.34215200  1
  Ga  Ga6  1  0.75000000  0.75000000  0.65784800  1
  Ga  Ga7  1  0.25000000  0.25000000  0.65784800  1
  Ga  Ga8  1  0.50066400  0.00066400  0.91219100  1
  Ga  Ga9  1  0.00066400  0.99933600  0.91219100  1
  Ga  Ga10  1  0.49933600  0.50066400  0.91219100  1
  Ga  Ga11  1  0.99933600  0.49933600  0.91219100  1
  Ga  Ga12  1  0.49933600  0.99933600  0.08780900  1
  Ga  Ga13  1  0.99933600  0.00066400  0.08780900  1
  Ga  Ga14  1  0.50066400  0.49933600  0.08780900  1
  Ga  Ga15  1  0.00066400  0.50066400  0.08780900  1
  Ga  Ga16  1  0.57383900  0.07383900  0.42872400  1
  Ga  Ga17  1  0.07383900  0.92616100  0.42872400  1
  Ga  Ga18  1  0.42616100  0.57383900  0.42872400  1
  Ga  Ga19  1  0.92616100  0.42616100  0.42872400  1
  Ga  Ga20  1  0.42616100  0.92616100  0.57127600  1
  Ga  Ga21  1  0.92616100  0.07383900  0.57127600  1
  Ga  Ga22  1  0.57383900  0.42616100  0.57127600  1
  Ga  Ga23  1  0.07383900  0.57383900  0.57127600  1
  Pd  Pd0  1  0.75000000  0.25000000  0.00000000  1
  Pd  Pd1  1  0.25000000  0.75000000  0.00000000  1
loop_
_geom_bond_atom_site_label_1
_geom_bond_atom_site_label_2
_geom_bond_distance
_geom_bond_site_symmetry_2
Ga0 Ga4 2.465920 1_555
Ga0 Ga14 2.653137 1_555
Ga0 Ga13 2.653137 1_455
Ga0 Ga15 2.653137 1_555
Ga0 Ga12 2.653137 1_545
Ga0 Pr1 3.223189 1_545
Ga0 Pr1 3.223189 1_555
Ga0 Pr0 3.223189 1_555
Ga0 Pr0 3.223189 1_455
Ga1 Ga5 2.465920 1_555
Ga1 Ga12 2.653137 1_555
Ga1 Ga15 2.653137 1_655
Ga1 Ga13 2.653137 1_565
Ga1 Ga14 2.653137 1_555
Ga1 Pr1 3.223189 1_655
Ga1 Pr1 3.223189 1_555
Ga1 Pr0 3.223189 1_555
Ga1 Pr0 3.223189 1_565
Ga2 Ga6 2.465920 1_555
Ga2 Ga9 2.653137 1_655
Ga2 Ga8 2.653137 1_565
Ga2 Pr3 3.223189 1_565
Ga2 Pr2 3.223189 1_655
Ga2 Pr3 3.223189 1_555
Ga2 Pr2 3.223189 1_555
Ga3 Ga7 2.465920 1_555
Ga3 Ga8 2.653137 1_555
Ga3 Ga9 2.653137 1_545
Ga3 Pr3 3.223189 1_455
Ga3 Pr3 3.223189 1_555
Ga3 Pr2 3.223189 1_545
Ga3 Pr2 3.223189 1_555
Ga4 Pr0 3.394671 1_455
Ga4 Pr1 3.394671 1_545
Ga4 Pr1 3.394671 1_555
Ga4 Pr0 3.394671 1_555
Ga5 Pr1 3.394671 1_655
Ga5 Pr1 3.394671 1_555
Ga5 Pr0 3.394671 1_555
Ga5 Pr0 3.394671 1_565
Ga6 Pr2 3.394671 1_655
Ga6 Pr3 3.394671 1_555
Ga6 Pr3 3.394671 1_565
Ga6 Pr2 3.394671 1_555
Ga7 Pr3 3.394671 1_455
Ga7 Pr3 3.394671 1_555
Ga7 Pr2 3.394671 1_545
Ga7 Pr2 3.394671 1_555
Ga8 Pd0 2.563576 1_556
Ga8 Pd1 2.573279 1_546
Ga8 Ga9 3.063216 1_645
Ga8 Ga9 3.063216 1_545
Ga8 Pr3 3.330613 1_555
Ga8 Pr2 3.338087 1_545
Ga9 Pd1 2.563576 1_556
Ga9 Pd0 2.573279 1_466
Ga9 Pr2 3.330613 1_555
Ga9 Pr3 3.338087 1_465
Ga10 Pd1 2.563576 1_556
Ga10 Pd0 2.573279 1_556
Ga10 Ga2 2.653137 1_555
Ga10 Ga3 2.653137 1_555
Ga10 Ga14 2.760601 1_556
Ga10 Ga8 3.063216 1_565
Ga10 Ga11 3.063216 1_555
Ga10 Ga8 3.063216 1_555
Ga10 Ga11 3.063216 1_455
Ga10 Pr2 3.330613 1_555
Ga10 Pr3 3.338087 1_555
Ga11 Pd0 2.563576 1_556
Ga11 Pd1 2.573279 1_656
Ga11 Ga3 2.653137 1_655
Ga11 Ga2 2.653137 1_555
Ga11 Ga15 2.760601 1_656
Ga11 Ga9 3.063216 1_645
Ga11 Ga9 3.063216 1_655
Ga11 Pr3 3.330613 1_555
Ga11 Pr2 3.338087 1_655
Ga12 Pd1 2.563576 1_555
Ga12 Pd0 2.573279 1_565
Ga12 Ga8 2.760601 1_564
Ga12 Ga13 3.063216 1_565
Ga12 Ga14 3.063216 1_565
Ga12 Ga13 3.063216 1_465
Ga12 Ga14 3.063216 1_555
Ga12 Pr1 3.330613 1_555
Ga12 Pr0 3.338087 1_565
Ga13 Pd0 2.563576 1_555
Ga13 Pd1 2.573279 1_645
Ga13 Ga9 2.760601 1_644
Ga13 Ga15 3.063216 1_645
Ga13 Ga15 3.063216 1_655
Ga13 Pr0 3.330613 1_555
Ga13 Pr1 3.338087 1_645
Ga14 Pd0 2.563576 1_555
Ga14 Pd1 2.573279 1_555
Ga14 Ga15 3.063216 1_655
Ga14 Ga15 3.063216 1_555
Ga14 Pr0 3.330613 1_555
Ga14 Pr1 3.338087 1_555
Ga15 Pd1 2.563576 1_555
Ga15 Pd0 2.573279 1_455
Ga15 Pr1 3.330613 1_555
Ga15 Pr0 3.338087 1_455
Ga16 Ga20 2.580369 1_545
Ga16 Ga5 2.636813 1_545
Ga16 Ga4 2.636813 1_555
Ga16 Pr0 3.209978 1_555
Ga17 Ga21 2.580369 1_465
Ga17 Ga5 2.636813 1_455
Ga17 Ga4 2.636813 1_565
Ga17 Pr1 3.209978 1_555
Ga18 Ga22 2.580369 1_555
Ga18 Ga4 2.636813 1_555
Ga18 Ga5 2.636813 1_555
Ga18 Pr1 3.209978 1_555
Ga19 Ga23 2.580369 1_655
Ga19 Ga4 2.636813 1_655
Ga19 Ga5 2.636813 1_555
Ga19 Pr0 3.209978 1_555
Ga20 Ga7 2.636813 1_565
Ga20 Ga6 2.636813 1_555
Ga20 Pr2 3.209978 1_555
Ga21 Ga7 2.636813 1_655
Ga21 Ga6 2.636813 1_545
Ga21 Pr3 3.209978 1_555
Ga22 Ga7 2.636813 1_555
Ga22 Ga6 2.636813 1_555
Ga22 Pr3 3.209978 1_555
Ga23 Ga6 2.636813 1_455
Ga23 Ga7 2.636813 1_555
Ga23 Pr2 3.209978 1_555
