# generated using pymatgen
data_Mg5Cu
_symmetry_space_group_name_H-M   'P 1'
_cell_length_a   5.31263983
_cell_length_b   5.31263983
_cell_length_c   4.88236500
_cell_angle_alpha   90.00000000
_cell_angle_beta   90.00000000
_cell_angle_gamma   119.99999783
_symmetry_Int_Tables_number   1
_chemical_formula_structural   Mg5Cu
_chemical_formula_sum   'Mg5 Cu1'
_cell_volume   119.33879053
_cell_formula_units_Z   1
loop_
 _symmetry_equiv_pos_site_id
 _symmetry_equiv_pos_as_xyz
  1  'x, y, z'
loop_
 _atom_site_type_symbol
 _atom_site_label
 _atom_site_symmetry_multiplicity
 _atom_site_fract_x
 _atom_site_fract_y
 _atom_site_fract_z
 _atom_site_occupancy
  Mg  Mg0  1  0.66666700  0.33333300  0.50000000  1
  Mg  Mg1  1  0.31656000  0.00000000  0.00000000  1
  Mg  Mg2  1  0.68344000  0.68344000  0.00000000  1
  Mg  Mg3  1  0.00000000  0.31656000  0.00000000  1
  Mg  Mg4  1  0.33333300  0.66666700  0.50000000  1
  Cu  Cu0  1  0.00000000  0.00000000  0.50000000  1
loop_
_geom_bond_atom_site_label_1
_geom_bond_atom_site_label_2
_geom_bond_distance
_geom_bond_site_symmetry_2
Mg0 Mg3 3.043209 1_655
Mg0 Mg3 3.043209 1_656
Mg0 Mg1 3.043211 1_556
Mg0 Mg1 3.043211 1_555
Mg0 Mg2 3.043212 1_556
Mg0 Mg2 3.043212 1_555
Mg0 Mg4 3.067251 1_545
Mg0 Mg4 3.067251 1_655
Mg0 Mg4 3.067260 1_555
Mg1 Mg3 2.912910 1_555
Mg1 Mg2 2.912910 1_445
Mg1 Mg4 3.043209 1_544
Mg1 Mg4 3.043209 1_545
Mg1 Mg2 3.147266 1_545
Mg1 Mg3 3.147266 1_545
Mg1 Mg3 3.147266 1_655
Mg1 Mg2 3.147266 1_555
Mg2 Mg3 2.912910 1_665
Mg2 Mg4 3.043212 1_554
Mg2 Mg4 3.043212 1_555
Mg2 Mg3 3.147266 1_655
Mg2 Mg3 3.147266 1_555
Mg3 Mg4 3.043211 1_555
Mg3 Mg4 3.043211 1_554
Cu0 Mg3 2.964409 1_555
Cu0 Mg1 2.964409 1_556
Cu0 Mg1 2.964409 1_555
Cu0 Mg3 2.964409 1_556
Cu0 Mg2 2.964409 1_446
Cu0 Mg2 2.964409 1_445
Cu0 Mg0 3.067251 1_455
Cu0 Mg4 3.067251 1_545
Cu0 Mg0 3.067256 1_445
Cu0 Mg4 3.067256 1_555
Cu0 Mg4 3.067256 1_445
Cu0 Mg0 3.067256 1_555
