# generated using pymatgen
data_Fe4CuNiO8
_symmetry_space_group_name_H-M   'P 1'
_cell_length_a   6.03083745
_cell_length_b   5.91334086
_cell_length_c   5.96172334
_cell_angle_alpha   90.00000000
_cell_angle_beta   60.37838678
_cell_angle_gamma   119.18235805
_symmetry_Int_Tables_number   1
_chemical_formula_structural   Fe4CuNiO8
_chemical_formula_sum   'Fe4 Cu1 Ni1 O8'
_cell_volume   153.01264456
_cell_formula_units_Z   1
loop_
 _symmetry_equiv_pos_site_id
 _symmetry_equiv_pos_as_xyz
  1  'x, y, z'
loop_
 _atom_site_type_symbol
 _atom_site_label
 _atom_site_symmetry_multiplicity
 _atom_site_fract_x
 _atom_site_fract_y
 _atom_site_fract_z
 _atom_site_occupancy
  Fe  Fe0  1  0.26797900  0.13547600  0.11601000  1
  Fe  Fe1  1  0.73202100  0.86452400  0.88399000  1
  Fe  Fe2  1  0.00000000  0.50000000  0.00000000  1
  Fe  Fe3  1  0.00000000  0.50000000  0.50000000  1
  Cu  Cu0  1  0.50000000  0.50000000  0.50000000  1
  Ni  Ni0  1  0.50000000  0.00000000  0.50000000  1
  O  O0  1  0.02322000  0.74487100  0.23839000  1
  O  O1  1  0.99104200  0.25933000  0.25447900  1
  O  O2  1  0.52482400  0.27153900  0.72332000  1
  O  O3  1  0.52482400  0.27153900  0.25185600  1
  O  O4  1  0.97678000  0.25512900  0.76161000  1
  O  O5  1  0.00895800  0.74067000  0.74552100  1
  O  O6  1  0.47517600  0.72846100  0.27668000  1
  O  O7  1  0.47517600  0.72846100  0.74814400  1
loop_
_geom_bond_atom_site_label_1
_geom_bond_atom_site_label_2
_geom_bond_distance
_geom_bond_site_symmetry_2
Fe0 O0 1.912277 1_545
Fe0 O2 1.930637 1_554
Fe0 O3 1.930642 1_555
Fe0 O1 1.958883 1_455
Fe1 O4 1.912277 1_565
Fe1 O6 1.930637 1_556
Fe1 O7 1.930642 1_555
Fe1 O5 1.958883 1_655
Fe2 O4 2.033515 1_454
Fe2 O0 2.033515 1_555
Fe2 O1 2.043039 1_455
Fe2 O5 2.043039 1_554
Fe2 O3 2.064693 1_455
Fe2 O7 2.064693 1_554
Fe3 O4 2.033515 1_455
Fe3 O0 2.033515 1_555
Fe3 O5 2.043039 1_555
Fe3 O1 2.043039 1_455
Fe3 O2 2.064693 1_455
Fe3 O6 2.064693 1_555
Cu0 O2 2.003583 1_555
Cu0 O6 2.003583 1_555
Cu0 O3 2.003583 1_555
Cu0 O7 2.003583 1_555
Cu0 O4 2.272752 1_455
Cu0 O0 2.272752 1_655
Ni0 O6 2.082272 1_545
Ni0 O2 2.082272 1_555
Ni0 O7 2.082272 1_545
Ni0 O3 2.082272 1_555
Ni0 O5 2.133164 1_545
Ni0 O1 2.133164 1_555
