# generated using pymatgen
data_ZrGeIr
_symmetry_space_group_name_H-M   'P 1'
_cell_length_a   4.04428165
_cell_length_b   6.60731830
_cell_length_c   7.54252264
_cell_angle_alpha   90.00000000
_cell_angle_beta   90.00000000
_cell_angle_gamma   90.00000000
_symmetry_Int_Tables_number   1
_chemical_formula_structural   ZrGeIr
_chemical_formula_sum   'Zr4 Ge4 Ir4'
_cell_volume   201.55020504
_cell_formula_units_Z   4
loop_
 _symmetry_equiv_pos_site_id
 _symmetry_equiv_pos_as_xyz
  1  'x, y, z'
loop_
 _atom_site_type_symbol
 _atom_site_label
 _atom_site_symmetry_multiplicity
 _atom_site_fract_x
 _atom_site_fract_y
 _atom_site_fract_z
 _atom_site_occupancy
  Zr  Zr0  1  0.25000000  0.01942374  0.81283109  1
  Zr  Zr1  1  0.25000000  0.51942374  0.68716891  1
  Zr  Zr2  1  0.75000000  0.98057626  0.18716891  1
  Zr  Zr3  1  0.75000000  0.48057626  0.31283109  1
  Ge  Ge0  1  0.25000000  0.77088695  0.38288272  1
  Ge  Ge1  1  0.25000000  0.27088695  0.11711728  1
  Ge  Ge2  1  0.75000000  0.22911305  0.61711728  1
  Ge  Ge3  1  0.75000000  0.72911305  0.88288272  1
  Ir  Ir0  1  0.25000000  0.15113653  0.43419973  1
  Ir  Ir1  1  0.25000000  0.65113653  0.06580027  1
  Ir  Ir2  1  0.75000000  0.84886347  0.56580027  1
  Ir  Ir3  1  0.75000000  0.34886347  0.93419973  1
loop_
_geom_bond_atom_site_label_1
_geom_bond_atom_site_label_2
_geom_bond_distance
_geom_bond_site_symmetry_2
Ge0 Ir2 2.501592 1_555
Ge0 Ir2 2.501592 1_455
Ge0 Ir1 2.519087 1_555
Ge0 Ir0 2.542070 1_565
Ge0 Zr1 2.833371 1_555
Ge0 Zr3 2.836833 1_555
Ge0 Zr3 2.836833 1_455
Ge0 Zr2 2.861418 1_555
Ge0 Zr2 2.861418 1_455
Ge1 Ir3 2.501592 1_554
Ge1 Ir3 2.501592 1_454
Ge1 Ir0 2.519087 1_555
Ge1 Ir1 2.542070 1_555
Ge1 Zr0 2.833371 1_554
Ge1 Zr2 2.836833 1_445
Ge1 Zr2 2.836833 1_545
Ge1 Zr3 2.861418 1_455
Ge1 Zr3 2.861418 1_555
Ge2 Ir0 2.501592 1_655
Ge2 Ir0 2.501592 1_555
Ge2 Ir3 2.519087 1_555
Ge2 Ir2 2.542070 1_545
Ge2 Zr3 2.833371 1_555
Ge2 Zr1 2.836833 1_655
Ge2 Zr1 2.836833 1_555
Ge2 Zr0 2.861418 1_655
Ge2 Zr0 2.861418 1_555
Ge3 Ir1 2.501592 1_656
Ge3 Ir1 2.501592 1_556
Ge3 Ir2 2.519087 1_555
Ge3 Ir3 2.542070 1_555
Ge3 Zr2 2.833371 1_556
Ge3 Zr0 2.836833 1_565
Ge3 Zr0 2.836833 1_665
Ge3 Zr1 2.861418 1_655
Ge3 Zr1 2.861418 1_555
Ir0 Zr2 2.971651 1_445
Ir0 Zr2 2.971651 1_545
Ir0 Zr0 2.985492 1_555
Ir0 Zr1 3.092241 1_555
Ir0 Zr3 3.108880 1_455
Ir0 Zr3 3.108880 1_555
Ir1 Zr3 2.971651 1_455
Ir1 Zr3 2.971651 1_555
Ir1 Zr1 2.985492 1_554
Ir1 Zr0 3.092241 1_564
Ir1 Zr2 3.108880 1_455
Ir1 Zr2 3.108880 1_555
Ir2 Zr0 2.971651 1_665
Ir2 Zr0 2.971651 1_565
Ir2 Zr2 2.985492 1_555
Ir2 Zr3 3.092241 1_555
Ir2 Zr1 3.108880 1_655
Ir2 Zr1 3.108880 1_555
Ir3 Zr1 2.971651 1_555
Ir3 Zr1 2.971651 1_655
Ir3 Zr3 2.985492 1_556
Ir3 Zr2 3.092241 1_546
Ir3 Zr0 3.108880 1_555
Ir3 Zr0 3.108880 1_655
