# generated using pymatgen
data_Sr2SnO4
_symmetry_space_group_name_H-M   'P 1'
_cell_length_a   5.73507297
_cell_length_b   5.80299040
_cell_length_c   12.55271303
_cell_angle_alpha   90.00000000
_cell_angle_beta   90.00000000
_cell_angle_gamma   90.00000000
_symmetry_Int_Tables_number   1
_chemical_formula_structural   Sr2SnO4
_chemical_formula_sum   'Sr8 Sn4 O16'
_cell_volume   417.76148722
_cell_formula_units_Z   4
loop_
 _symmetry_equiv_pos_site_id
 _symmetry_equiv_pos_as_xyz
  1  'x, y, z'
loop_
 _atom_site_type_symbol
 _atom_site_label
 _atom_site_symmetry_multiplicity
 _atom_site_fract_x
 _atom_site_fract_y
 _atom_site_fract_z
 _atom_site_occupancy
  Sr  Sr0  1  0.00661684  0.01249484  0.35320471  1
  Sr  Sr1  1  0.49338316  0.48750516  0.35320471  1
  Sr  Sr2  1  0.99338316  0.51249484  0.14679529  1
  Sr  Sr3  1  0.50661684  0.98750516  0.14679529  1
  Sr  Sr4  1  0.99338316  0.98750516  0.64679529  1
  Sr  Sr5  1  0.50661684  0.51249484  0.64679529  1
  Sr  Sr6  1  0.00661684  0.48750516  0.85320471  1
  Sr  Sr7  1  0.49338316  0.01249484  0.85320471  1
  Sn  Sn0  1  0.00000000  -0.00000000  -0.00000000  1
  Sn  Sn1  1  0.50000000  0.50000000  -0.00000000  1
  Sn  Sn2  1  0.00000000  0.50000000  0.50000000  1
  Sn  Sn3  1  0.50000000  -0.00000000  0.50000000  1
  O  O0  1  0.98243660  0.95631410  0.16292178  1
  O  O1  1  0.51756340  0.54368590  0.16292178  1
  O  O2  1  0.01756340  0.45631410  0.33707822  1
  O  O3  1  0.48243660  0.04368590  0.33707822  1
  O  O4  1  0.01756340  0.04368590  0.83707822  1
  O  O5  1  0.48243660  0.45631410  0.83707822  1
  O  O6  1  0.98243660  0.54368590  0.66292178  1
  O  O7  1  0.51756340  0.95631410  0.66292178  1
  O  O8  1  0.25000000  0.25000000  0.02097709  1
  O  O9  1  0.75000000  0.75000000  0.47902291  1
  O  O10  1  0.75000000  0.75000000  0.97902291  1
  O  O11  1  0.25000000  0.25000000  0.52097709  1
  O  O12  1  0.75000000  0.25000000  0.00975340  1
  O  O13  1  0.25000000  0.75000000  0.49024660  1
  O  O14  1  0.25000000  0.75000000  0.99024660  1
  O  O15  1  0.75000000  0.25000000  0.50975340  1
loop_
_geom_bond_atom_site_label_1
_geom_bond_atom_site_label_2
_geom_bond_distance
_geom_bond_site_symmetry_2
O0 Sn0 2.063223 1_665
O0 Sr0 2.414699 1_665
O0 Sr2 2.584185 1_555
O0 Sr3 2.742339 1_555
O0 Sr3 3.018452 1_655
O0 Sr2 3.234463 1_565
O1 Sn1 2.063223 1_555
O1 Sr1 2.414699 1_555
O1 Sr3 2.584185 1_555
O1 Sr2 2.742339 1_555
O1 Sr2 3.018452 1_455
O1 Sr3 3.234463 1_545
O2 Sn2 2.063223 1_555
O2 Sr2 2.414699 1_455
O2 Sr0 2.584185 1_555
O2 Sr1 2.742339 1_555
O2 Sr1 3.018452 1_455
O2 Sr0 3.234463 1_565
O3 Sn3 2.063223 1_555
O3 Sr3 2.414699 1_545
O3 Sr1 2.584185 1_555
O3 Sr0 2.742339 1_555
O3 Sr0 3.018452 1_655
O3 Sr1 3.234463 1_545
O4 Sn0 2.063223 1_556
O4 Sr4 2.414699 1_445
O4 Sr6 2.584185 1_555
O4 Sr7 2.742339 1_555
O4 Sr7 3.018452 1_455
O4 Sr6 3.234463 1_545
O5 Sn1 2.063223 1_556
O5 Sr5 2.414699 1_555
O5 Sr7 2.584185 1_555
O5 Sr6 2.742339 1_555
O5 Sr6 3.018452 1_655
O5 Sr7 3.234463 1_565
O6 Sn2 2.063223 1_655
O6 Sr6 2.414699 1_655
O6 Sr4 2.584185 1_555
O6 Sr5 2.742339 1_555
O6 Sr5 3.018452 1_655
O6 Sr4 3.234463 1_545
O7 Sn3 2.063223 1_565
O7 Sr7 2.414699 1_565
O7 Sr5 2.584185 1_555
O7 Sr4 2.742339 1_555
O7 Sr4 3.018452 1_455
O7 Sr5 3.234463 1_565
O8 Sn0 2.056623 1_555
O8 Sn1 2.056623 1_555
O8 Sr3 2.642089 1_545
O8 Sr2 2.642089 1_455
O8 Sr6 2.878036 1_554
O8 Sr7 2.878036 1_554
O9 Sn2 2.056623 1_655
O9 Sn3 2.056623 1_565
O9 Sr0 2.642089 1_665
O9 Sr1 2.642089 1_555
O9 Sr4 2.878036 1_555
O9 Sr5 2.878036 1_555
O10 Sn0 2.056623 1_666
O10 Sn1 2.056623 1_556
O10 Sr6 2.642089 1_655
O10 Sr7 2.642089 1_565
O10 Sr2 2.878036 1_556
O10 Sr3 2.878036 1_556
O11 Sn2 2.056623 1_555
O11 Sn3 2.056623 1_555
O11 Sr4 2.642089 1_445
O11 Sr5 2.642089 1_555
O11 Sr1 2.878036 1_555
O11 Sr0 2.878036 1_555
O12 Sn0 2.043367 1_655
O12 Sn1 2.043367 1_555
O12 Sr2 2.688470 1_555
O12 Sr3 2.688470 1_545
O12 Sr6 2.815520 1_654
O12 Sr7 2.815520 1_554
O13 Sn2 2.043367 1_555
O13 Sn3 2.043367 1_565
O13 Sr1 2.688470 1_555
O13 Sr0 2.688470 1_565
O13 Sr5 2.815520 1_555
O13 Sr4 2.815520 1_455
O14 Sn1 2.043367 1_556
O14 Sn0 2.043367 1_566
O14 Sr7 2.688470 1_565
O14 Sr6 2.688470 1_555
O14 Sr2 2.815520 1_456
O14 Sr3 2.815520 1_556
O15 Sn2 2.043367 1_655
O15 Sn3 2.043367 1_555
O15 Sr5 2.688470 1_555
O15 Sr4 2.688470 1_545
O15 Sr0 2.815520 1_655
O15 Sr1 2.815520 1_555
