# generated using pymatgen
data_FeSiMo
_symmetry_space_group_name_H-M   'P 1'
_cell_length_a   4.69587537
_cell_length_b   4.69587537
_cell_length_c   7.65718900
_cell_angle_alpha   90.00000000
_cell_angle_beta   90.00000000
_cell_angle_gamma   117.15986449
_symmetry_Int_Tables_number   1
_chemical_formula_structural   FeSiMo
_chemical_formula_sum   'Fe4 Si4 Mo4'
_cell_volume   150.23247582
_cell_formula_units_Z   4
loop_
 _symmetry_equiv_pos_site_id
 _symmetry_equiv_pos_as_xyz
  1  'x, y, z'
loop_
 _atom_site_type_symbol
 _atom_site_label
 _atom_site_symmetry_multiplicity
 _atom_site_fract_x
 _atom_site_fract_y
 _atom_site_fract_z
 _atom_site_occupancy
  Fe  Fe0  1  0.82820500  0.17179500  0.00000000  1
  Fe  Fe1  1  0.82627200  0.65245600  0.00000000  1
  Fe  Fe2  1  0.34754400  0.17372800  0.00000000  1
  Fe  Fe3  1  0.15082400  0.84917600  0.50000000  1
  Si  Si0  1  0.16654800  0.35501100  0.50000000  1
  Si  Si1  1  0.64498900  0.83345200  0.50000000  1
  Si  Si2  1  0.01060900  0.98939100  0.23790500  1
  Si  Si3  1  0.01060900  0.98939100  0.76209500  1
  Mo  Mo0  1  0.66986500  0.33013500  0.68900100  1
  Mo  Mo1  1  0.33732100  0.66267900  0.81816400  1
  Mo  Mo2  1  0.33732100  0.66267900  0.18183600  1
  Mo  Mo3  1  0.66986500  0.33013500  0.31099900  1
loop_
_geom_bond_atom_site_label_1
_geom_bond_atom_site_label_2
_geom_bond_distance
_geom_bond_site_symmetry_2
Fe0 Fe1 2.261282 1_555
Fe0 Fe2 2.261282 1_555
Fe0 Si2 2.335740 1_645
Fe0 Si3 2.335740 1_644
Fe0 Fe2 2.434621 1_655
Fe0 Fe1 2.434621 1_545
Fe0 Mo3 2.698409 1_555
Fe0 Mo0 2.698409 1_554
Fe0 Mo1 2.817213 1_544
Fe0 Mo2 2.817213 1_655
Fe0 Mo1 2.817213 1_654
Fe0 Mo2 2.817213 1_545
Fe1 Si2 2.306694 1_655
Fe1 Si3 2.306694 1_654
Fe1 Fe2 2.343852 1_555
Fe1 Fe2 2.552148 1_665
Fe1 Mo1 2.704337 1_554
Fe1 Mo2 2.704337 1_555
Fe1 Mo3 2.736133 1_555
Fe1 Mo0 2.736133 1_554
Fe1 Mo2 2.755888 1_655
Fe1 Mo1 2.755888 1_654
Fe2 Si2 2.306694 1_545
Fe2 Si3 2.306694 1_544
Fe2 Mo2 2.704337 1_555
Fe2 Mo1 2.704337 1_554
Fe2 Mo3 2.736133 1_555
Fe2 Mo0 2.736133 1_554
Fe2 Mo1 2.755888 1_544
Fe2 Mo2 2.755888 1_545
Fe3 Si3 2.300120 1_555
Fe3 Si2 2.300120 1_555
Fe3 Si0 2.342554 1_565
Fe3 Si1 2.342554 1_455
Fe3 Si1 2.355159 1_555
Fe3 Si0 2.355159 1_555
Fe3 Mo0 2.847881 1_455
Fe3 Mo3 2.847881 1_455
Fe3 Mo0 2.847881 1_565
Fe3 Mo3 2.847881 1_565
Fe3 Mo1 2.858218 1_555
Fe3 Mo2 2.858218 1_555
Si0 Si1 2.342447 1_555
Si0 Si3 2.522673 1_545
Si0 Si2 2.522673 1_545
Si0 Si1 2.553553 1_445
Si1 Si3 2.522673 1_655
Si1 Si2 2.522673 1_655
Mo0 Si1 2.701713 1_545
Mo0 Si0 2.701713 1_655
Mo0 Si3 2.787698 1_645
Mo0 Si3 2.816931 1_655
Mo0 Si3 2.816931 1_545
Mo0 Si0 2.818925 1_555
Mo0 Si1 2.818925 1_555
Mo0 Mo1 2.842805 1_555
Mo0 Mo3 2.894433 1_555
Mo0 Mo1 2.961773 1_545
Mo0 Mo1 2.961773 1_655
Mo1 Si3 2.653437 1_555
Mo1 Si1 2.758257 1_555
Mo1 Si0 2.758257 1_555
Mo1 Mo2 2.784705 1_556
Mo1 Si3 2.847086 1_655
Mo1 Si3 2.847086 1_545
Mo2 Si2 2.653437 1_555
Mo2 Si1 2.758257 1_555
Mo2 Si0 2.758257 1_555
Mo2 Mo3 2.842805 1_555
Mo2 Si2 2.847086 1_655
Mo2 Si2 2.847086 1_545
Mo2 Mo3 2.961773 1_565
Mo2 Mo3 2.961773 1_455
Mo3 Si1 2.701713 1_545
Mo3 Si0 2.701713 1_655
Mo3 Si2 2.787698 1_645
Mo3 Si2 2.816931 1_545
Mo3 Si2 2.816931 1_655
Mo3 Si0 2.818925 1_555
Mo3 Si1 2.818925 1_555
