# generated using pymatgen
data_Sr3Mg
_symmetry_space_group_name_H-M   'P 1'
_cell_length_a   8.41567049
_cell_length_b   8.41567049
_cell_length_c   24.74669600
_cell_angle_alpha   90.00000000
_cell_angle_beta   90.00000000
_cell_angle_gamma   119.99998814
_symmetry_Int_Tables_number   1
_chemical_formula_structural   Sr3Mg
_chemical_formula_sum   'Sr24 Mg8'
_cell_volume   1517.83775826
_cell_formula_units_Z   8
loop_
 _symmetry_equiv_pos_site_id
 _symmetry_equiv_pos_as_xyz
  1  'x, y, z'
loop_
 _atom_site_type_symbol
 _atom_site_label
 _atom_site_symmetry_multiplicity
 _atom_site_fract_x
 _atom_site_fract_y
 _atom_site_fract_z
 _atom_site_occupancy
  Sr  Sr0_0  1  0.33333350  0.16666650  0.00000000  1
  Sr  Sr0_1  1  0.33333350  0.16666650  0.50000000  1
  Sr  Sr0_2  1  0.33333350  0.66666650  0.00000000  1
  Sr  Sr0_3  1  0.33333350  0.66666650  0.50000000  1
  Sr  Sr0_4  1  0.83333350  0.16666650  0.00000000  1
  Sr  Sr0_5  1  0.83333350  0.16666650  0.50000000  1
  Sr  Sr0_6  1  0.83333350  0.66666650  0.00000000  1
  Sr  Sr0_7  1  0.83333350  0.66666650  0.50000000  1
  Sr  Sr1_0  1  0.00000000  0.00000000  0.14236500  1
  Sr  Sr1_1  1  0.00000000  0.00000000  0.64236500  1
  Sr  Sr1_2  1  0.00000000  0.50000000  0.14236500  1
  Sr  Sr1_3  1  0.00000000  0.50000000  0.64236500  1
  Sr  Sr1_4  1  0.50000000  0.00000000  0.14236500  1
  Sr  Sr1_5  1  0.50000000  0.00000000  0.64236500  1
  Sr  Sr1_6  1  0.50000000  0.50000000  0.14236500  1
  Sr  Sr1_7  1  0.50000000  0.50000000  0.64236500  1
  Sr  Sr2_0  1  0.00000000  0.00000000  0.35763500  1
  Sr  Sr2_1  1  0.00000000  0.00000000  0.85763500  1
  Sr  Sr2_2  1  0.00000000  0.50000000  0.35763500  1
  Sr  Sr2_3  1  0.00000000  0.50000000  0.85763500  1
  Sr  Sr2_4  1  0.50000000  0.00000000  0.35763500  1
  Sr  Sr2_5  1  0.50000000  0.00000000  0.85763500  1
  Sr  Sr2_6  1  0.50000000  0.50000000  0.35763500  1
  Sr  Sr2_7  1  0.50000000  0.50000000  0.85763500  1
  Mg  Mg0_0  1  0.33333350  0.16666650  0.25000000  1
  Mg  Mg0_1  1  0.33333350  0.16666650  0.75000000  1
  Mg  Mg0_2  1  0.33333350  0.66666650  0.25000000  1
  Mg  Mg0_3  1  0.33333350  0.66666650  0.75000000  1
  Mg  Mg0_4  1  0.83333350  0.16666650  0.25000000  1
  Mg  Mg0_5  1  0.83333350  0.16666650  0.75000000  1
  Mg  Mg0_6  1  0.83333350  0.66666650  0.25000000  1
  Mg  Mg0_7  1  0.83333350  0.66666650  0.75000000  1
loop_
_geom_bond_atom_site_label_1
_geom_bond_atom_site_label_2
_geom_bond_distance
_geom_bond_site_symmetry_2
Sr0_0 Sr0_2 4.207835 1_545
Sr0_0 Sr0_2 4.207835 1_555
Sr0_0 Sr0_4 4.207835 1_455
Sr0_0 Sr0_4 4.207835 1_555
Sr0_0 Sr0_6 4.207836 1_555
Sr0_0 Sr0_6 4.207836 1_445
Sr0_0 Sr2_5 4.279477 1_554
Sr0_0 Sr1_4 4.279477 1_555
Sr0_0 Sr1_0 4.279479 1_555
Sr0_0 Sr2_1 4.279479 1_554
Sr0_0 Sr2_7 4.279479 1_554
Sr0_0 Sr1_6 4.279479 1_555
Sr0_1 Sr0_5 4.207835 1_455
Sr0_1 Sr0_5 4.207835 1_555
Sr0_1 Sr0_3 4.207835 1_555
Sr0_1 Sr0_3 4.207835 1_545
Sr0_1 Sr0_7 4.207836 1_555
Sr0_1 Sr0_7 4.207836 1_445
Sr0_1 Sr1_5 4.279477 1_555
Sr0_1 Sr2_4 4.279477 1_555
Sr0_1 Sr1_7 4.279479 1_555
Sr0_1 Sr1_1 4.279479 1_555
Sr0_1 Sr2_0 4.279479 1_555
Sr0_1 Sr2_6 4.279479 1_555
Sr0_2 Sr0_6 4.207835 1_455
Sr0_2 Sr0_6 4.207835 1_555
Sr0_2 Sr0_4 4.207836 1_565
Sr0_2 Sr0_4 4.207836 1_455
Sr0_2 Sr2_7 4.279477 1_554
Sr0_2 Sr1_6 4.279477 1_555
Sr0_2 Sr2_5 4.279479 1_564
Sr0_2 Sr2_3 4.279479 1_554
Sr0_2 Sr1_4 4.279479 1_565
Sr0_2 Sr1_2 4.279479 1_555
Sr0_3 Sr0_7 4.207835 1_455
Sr0_3 Sr0_7 4.207835 1_555
Sr0_3 Sr0_5 4.207836 1_455
Sr0_3 Sr0_5 4.207836 1_565
Sr0_3 Sr1_7 4.279477 1_555
Sr0_3 Sr2_6 4.279477 1_555
Sr0_3 Sr1_5 4.279479 1_565
Sr0_3 Sr2_4 4.279479 1_565
Sr0_3 Sr1_3 4.279479 1_555
Sr0_3 Sr2_2 4.279479 1_555
Sr0_4 Sr0_6 4.207835 1_555
Sr0_4 Sr0_6 4.207835 1_545
Sr0_4 Sr2_1 4.279477 1_654
Sr0_4 Sr1_0 4.279477 1_655
Sr0_4 Sr2_5 4.279479 1_554
Sr0_4 Sr2_3 4.279479 1_654
Sr0_4 Sr1_4 4.279479 1_555
Sr0_4 Sr1_2 4.279479 1_655
Sr0_5 Sr0_7 4.207835 1_545
Sr0_5 Sr0_7 4.207835 1_555
Sr0_5 Sr1_1 4.279477 1_655
Sr0_5 Sr2_0 4.279477 1_655
Sr0_5 Sr1_3 4.279479 1_655
Sr0_5 Sr1_5 4.279479 1_555
Sr0_5 Sr2_2 4.279479 1_655
Sr0_5 Sr2_4 4.279479 1_555
Sr0_6 Sr2_3 4.279477 1_654
Sr0_6 Sr1_2 4.279477 1_655
Sr0_6 Sr2_1 4.279479 1_664
Sr0_6 Sr2_7 4.279479 1_554
Sr0_6 Sr1_0 4.279479 1_665
Sr0_6 Sr1_6 4.279479 1_555
Sr0_7 Sr1_3 4.279477 1_655
Sr0_7 Sr2_2 4.279477 1_655
Sr0_7 Sr1_7 4.279479 1_555
Sr0_7 Sr1_1 4.279479 1_665
Sr0_7 Sr2_0 4.279479 1_665
Sr0_7 Sr2_6 4.279479 1_555
Mg0_0 Sr2_4 3.605103 1_555
Mg0_0 Sr1_4 3.605103 1_555
Mg0_0 Sr2_6 3.605106 1_555
Mg0_0 Sr2_0 3.605106 1_555
Mg0_0 Sr1_0 3.605106 1_555
Mg0_0 Sr1_6 3.605106 1_555
Mg0_1 Sr2_5 3.605103 1_555
Mg0_1 Sr1_5 3.605103 1_555
Mg0_1 Sr1_7 3.605106 1_555
Mg0_1 Sr1_1 3.605106 1_555
Mg0_1 Sr2_7 3.605106 1_555
Mg0_1 Sr2_1 3.605106 1_555
Mg0_2 Sr2_6 3.605103 1_555
Mg0_2 Sr1_6 3.605103 1_555
Mg0_2 Sr2_4 3.605106 1_565
Mg0_2 Sr2_2 3.605106 1_555
Mg0_2 Sr1_4 3.605106 1_565
Mg0_2 Sr1_2 3.605106 1_555
Mg0_3 Sr2_7 3.605103 1_555
Mg0_3 Sr1_7 3.605103 1_555
Mg0_3 Sr2_5 3.605106 1_565
Mg0_3 Sr1_5 3.605106 1_565
Mg0_3 Sr1_3 3.605106 1_555
Mg0_3 Sr2_3 3.605106 1_555
Mg0_4 Sr2_0 3.605103 1_655
Mg0_4 Sr1_0 3.605103 1_655
Mg0_4 Sr2_2 3.605106 1_655
Mg0_4 Sr2_4 3.605106 1_555
Mg0_4 Sr1_4 3.605106 1_555
Mg0_4 Sr1_2 3.605106 1_655
Mg0_5 Sr1_1 3.605103 1_655
Mg0_5 Sr2_1 3.605103 1_655
Mg0_5 Sr2_5 3.605106 1_555
Mg0_5 Sr1_5 3.605106 1_555
Mg0_5 Sr2_3 3.605106 1_655
Mg0_5 Sr1_3 3.605106 1_655
Mg0_6 Sr2_2 3.605103 1_655
Mg0_6 Sr1_2 3.605103 1_655
Mg0_6 Sr2_6 3.605106 1_555
Mg0_6 Sr2_0 3.605106 1_665
Mg0_6 Sr1_0 3.605106 1_665
Mg0_6 Sr1_6 3.605106 1_555
Mg0_7 Sr2_3 3.605103 1_655
Mg0_7 Sr1_3 3.605103 1_655
Mg0_7 Sr2_1 3.605106 1_665
Mg0_7 Sr2_7 3.605106 1_555
Mg0_7 Sr1_1 3.605106 1_665
Mg0_7 Sr1_7 3.605106 1_555
