# generated using pymatgen
data_ScB4Os3
_symmetry_space_group_name_H-M   'P 1'
_cell_length_a   6.10783494
_cell_length_b   6.10783494
_cell_length_c   9.87022100
_cell_angle_alpha   90.00000000
_cell_angle_beta   90.00000000
_cell_angle_gamma   151.95279913
_symmetry_Int_Tables_number   1
_chemical_formula_structural   ScB4Os3
_chemical_formula_sum   'Sc2 B8 Os6'
_cell_volume   173.13423960
_cell_formula_units_Z   2
loop_
 _symmetry_equiv_pos_site_id
 _symmetry_equiv_pos_as_xyz
  1  'x, y, z'
loop_
 _atom_site_type_symbol
 _atom_site_label
 _atom_site_symmetry_multiplicity
 _atom_site_fract_x
 _atom_site_fract_y
 _atom_site_fract_z
 _atom_site_occupancy
  Sc  Sc0  1  0.50000000  0.50000000  0.00000000  1
  Sc  Sc1  1  0.50000000  0.50000000  0.50000000  1
  B  B0  1  0.37085100  0.62914900  0.25000000  1
  B  B1  1  0.62914900  0.37085100  0.75000000  1
  B  B2  1  0.64952600  0.35047400  0.25000000  1
  B  B3  1  0.35047400  0.64952600  0.75000000  1
  B  B4  1  0.84368500  0.15631500  0.89126300  1
  B  B5  1  0.15631500  0.84368500  0.39126300  1
  B  B6  1  0.15631500  0.84368500  0.10873700  1
  B  B7  1  0.84368500  0.15631500  0.60873700  1
  Os  Os0  1  0.79824200  0.20175800  0.10830800  1
  Os  Os1  1  0.98886000  0.01114000  0.75000000  1
  Os  Os2  1  0.01114000  0.98886000  0.25000000  1
  Os  Os3  1  0.20175800  0.79824200  0.89169200  1
  Os  Os4  1  0.20175800  0.79824200  0.60830800  1
  Os  Os5  1  0.79824200  0.20175800  0.39169200  1
loop_
_geom_bond_atom_site_label_1
_geom_bond_atom_site_label_2
_geom_bond_distance
_geom_bond_site_symmetry_2
B0 Os0 2.210652 1_565
B0 Os5 2.210652 1_565
B0 Os0 2.210652 1_455
B0 Os5 2.210652 1_455
B0 Os2 2.225978 1_655
B0 Os2 2.225978 1_545
B0 Sc0 2.903727 1_555
B0 Sc1 2.903727 1_555
B1 Os3 2.210652 1_655
B1 Os3 2.210652 1_545
B1 Os4 2.210652 1_655
B1 Os4 2.210652 1_545
B1 Os1 2.225978 1_565
B1 Os1 2.225978 1_455
B1 Sc0 2.903727 1_556
B1 Sc1 2.903727 1_555
B2 B5 2.034973 1_655
B2 B5 2.034973 1_545
B2 B6 2.034973 1_655
B2 B6 2.034973 1_545
B2 Os2 2.209183 1_545
B2 Os2 2.209183 1_655
B2 Os5 2.249972 1_555
B2 Os0 2.249972 1_555
B3 B4 2.034973 1_565
B3 B4 2.034973 1_455
B3 B7 2.034973 1_565
B3 B7 2.034973 1_455
B3 Os1 2.209183 1_455
B3 Os1 2.209183 1_565
B3 Os3 2.249972 1_555
B3 Os4 2.249972 1_555
B4 Os0 2.208944 1_556
B4 Os1 2.214582 1_555
B4 Os3 2.240519 1_545
B4 Os3 2.240519 1_655
B4 Sc0 2.602791 1_546
B4 Sc0 2.602791 1_656
B5 Os4 2.208944 1_555
B5 Os2 2.214582 1_555
B5 Os5 2.240519 1_455
B5 Os5 2.240519 1_565
B5 Sc1 2.602791 1_455
B5 Sc1 2.602791 1_565
B6 Os3 2.208944 1_554
B6 Os2 2.214582 1_555
B6 Os0 2.240519 1_455
B6 Os0 2.240519 1_565
B6 Sc0 2.602791 1_455
B6 Sc0 2.602791 1_565
B7 Os5 2.208944 1_555
B7 Os1 2.214582 1_555
B7 Os4 2.240519 1_545
B7 Os4 2.240519 1_655
B7 Sc1 2.602791 1_545
B7 Sc1 2.602791 1_655
Os1 Sc0 2.880423 1_656
Os1 Sc1 2.880423 1_655
Os1 Sc0 2.880423 1_546
Os1 Sc1 2.880423 1_545
Os2 Sc0 2.880423 1_455
Os2 Sc1 2.880423 1_565
Os2 Sc1 2.880423 1_455
Os2 Sc0 2.880423 1_565
