# generated using pymatgen
data_Sm11In9Ni4
_symmetry_space_group_name_H-M   'P 1'
_cell_length_a   13.19461795
_cell_length_b   13.19461795
_cell_length_c   3.70538593
_cell_angle_alpha   90.00000000
_cell_angle_beta   90.00000000
_cell_angle_gamma   112.60804400
_symmetry_Int_Tables_number   1
_chemical_formula_structural   Sm11In9Ni4
_chemical_formula_sum   'Sm11 In9 Ni4'
_cell_volume   595.52816321
_cell_formula_units_Z   1
loop_
 _symmetry_equiv_pos_site_id
 _symmetry_equiv_pos_as_xyz
  1  'x, y, z'
loop_
 _atom_site_type_symbol
 _atom_site_label
 _atom_site_symmetry_multiplicity
 _atom_site_fract_x
 _atom_site_fract_y
 _atom_site_fract_z
 _atom_site_occupancy
  Sm  Sm0  1  0.41665653  0.07916034  0.00000000  1
  Sm  Sm1  1  0.58334347  0.92083966  -0.00000000  1
  Sm  Sm2  1  0.07916034  0.41665653  -0.00000000  1
  Sm  Sm3  1  0.92083966  0.58334347  0.00000000  1
  Sm  Sm4  1  0.16127799  0.83872201  0.00000000  1
  Sm  Sm5  1  0.83872201  0.16127799  -0.00000000  1
  Sm  Sm6  1  0.37484704  0.62515296  -0.00000000  1
  Sm  Sm7  1  0.62515296  0.37484704  0.00000000  1
  Sm  Sm8  1  0.31320386  0.31320386  0.00000000  1
  Sm  Sm9  1  0.68679614  0.68679614  -0.00000000  1
  Sm  Sm10  1  -0.00000000  0.00000000  -0.00000000  1
  In  In0  1  0.36729323  0.83847774  0.50000000  1
  In  In1  1  0.63270677  0.16152226  0.50000000  1
  In  In2  1  0.83847774  0.36729323  0.50000000  1
  In  In3  1  0.16152226  0.63270677  0.50000000  1
  In  In4  1  0.22016868  0.08038862  0.50000000  1
  In  In5  1  0.77983132  0.91961138  0.50000000  1
  In  In6  1  0.08038862  0.22016868  0.50000000  1
  In  In7  1  0.91961138  0.77983132  0.50000000  1
  In  In8  1  0.50000000  0.50000000  0.50000000  1
  Ni  Ni0  1  0.44885615  0.24541429  0.50000000  1
  Ni  Ni1  1  0.55114385  0.75458571  0.50000000  1
  Ni  Ni2  1  0.24541429  0.44885615  0.50000000  1
  Ni  Ni3  1  0.75458571  0.55114385  0.50000000  1
loop_
_geom_bond_atom_site_label_1
_geom_bond_atom_site_label_2
_geom_bond_distance
_geom_bond_site_symmetry_2
In0 In3 3.012565 1_555
In0 Ni1 3.028944 1_555
In0 Sm1 3.218399 1_555
In0 Sm1 3.218399 1_556
In0 Sm4 3.290643 1_556
In0 Sm4 3.290643 1_555
In0 Sm6 3.403066 1_555
In0 Sm6 3.403066 1_556
In0 Sm0 3.514477 1_565
In0 Sm0 3.514477 1_566
In1 In2 3.012565 1_555
In1 Ni0 3.028944 1_555
In1 Sm0 3.218399 1_556
In1 Sm0 3.218399 1_555
In1 Sm5 3.290643 1_556
In1 Sm5 3.290643 1_555
In1 Sm7 3.403066 1_555
In1 Sm7 3.403066 1_556
In1 Sm1 3.514477 1_545
In1 Sm1 3.514477 1_546
In2 Ni3 3.028944 1_555
In2 Sm3 3.218399 1_556
In2 Sm3 3.218399 1_555
In2 Sm5 3.290643 1_556
In2 Sm5 3.290643 1_555
In2 Sm7 3.403066 1_556
In2 Sm7 3.403066 1_555
In2 Sm2 3.514477 1_656
In2 Sm2 3.514477 1_655
In3 Ni2 3.028944 1_555
In3 Sm2 3.218399 1_555
In3 Sm2 3.218399 1_556
In3 Sm4 3.290643 1_556
In3 Sm4 3.290643 1_555
In3 Sm6 3.403066 1_555
In3 Sm6 3.403066 1_556
In3 Sm3 3.514477 1_456
In3 Sm3 3.514477 1_455
In4 Ni0 2.965579 1_555
In4 In6 3.068964 1_555
In4 Sm0 3.191633 1_556
In4 Sm0 3.191633 1_555
In4 Sm10 3.260016 1_556
In4 Sm10 3.260016 1_555
In4 Sm8 3.387728 1_555
In4 Sm8 3.387728 1_556
In4 Sm4 3.507000 1_545
In4 Sm4 3.507000 1_546
In5 Ni1 2.965579 1_555
In5 In7 3.068964 1_555
In5 Sm1 3.191633 1_556
In5 Sm1 3.191633 1_555
In5 Sm10 3.260016 1_666
In5 Sm10 3.260016 1_665
In5 Sm9 3.387728 1_556
In5 Sm9 3.387728 1_555
In5 Sm5 3.507000 1_566
In5 Sm5 3.507000 1_565
In6 Ni2 2.965579 1_555
In6 Sm2 3.191633 1_555
In6 Sm2 3.191633 1_556
In6 Sm10 3.260016 1_556
In6 Sm10 3.260016 1_555
In6 Sm8 3.387728 1_555
In6 Sm8 3.387728 1_556
In6 Sm5 3.507000 1_456
In6 Sm5 3.507000 1_455
In7 Ni3 2.965579 1_555
In7 Sm3 3.191633 1_556
In7 Sm3 3.191633 1_555
In7 Sm10 3.260016 1_666
In7 Sm10 3.260016 1_665
In7 Sm9 3.387728 1_556
In7 Sm9 3.387728 1_555
In7 Sm4 3.507000 1_655
In7 Sm4 3.507000 1_656
In8 Ni1 3.161723 1_555
In8 Ni2 3.161723 1_555
In8 Ni0 3.161723 1_555
In8 Ni3 3.161723 1_555
In8 Sm9 3.303244 1_556
In8 Sm9 3.303244 1_555
In8 Sm8 3.303244 1_555
In8 Sm8 3.303244 1_556
In8 Sm7 3.314056 1_555
In8 Sm6 3.314056 1_555
In8 Sm6 3.314056 1_556
In8 Sm7 3.314056 1_556
Ni0 Sm0 2.776426 1_555
Ni0 Sm0 2.776426 1_556
Ni0 Sm8 2.943994 1_555
Ni0 Sm8 2.943994 1_556
Ni0 Sm7 2.950556 1_556
Ni0 Sm7 2.950556 1_555
Ni1 Sm1 2.776426 1_555
Ni1 Sm1 2.776426 1_556
Ni1 Sm9 2.943994 1_556
Ni1 Sm9 2.943994 1_555
Ni1 Sm6 2.950556 1_556
Ni1 Sm6 2.950556 1_555
Ni2 Sm2 2.776426 1_555
Ni2 Sm2 2.776426 1_556
Ni2 Sm8 2.943994 1_555
Ni2 Sm8 2.943994 1_556
Ni2 Sm6 2.950556 1_555
Ni2 Sm6 2.950556 1_556
Ni3 Sm3 2.776426 1_556
Ni3 Sm3 2.776426 1_555
Ni3 Sm9 2.943994 1_556
Ni3 Sm9 2.943994 1_555
Ni3 Sm7 2.950556 1_555
Ni3 Sm7 2.950556 1_556
