# generated using pymatgen
data_Ca2Cr2O5
_symmetry_space_group_name_H-M   'P 1'
_cell_length_a   5.44002800
_cell_length_b   5.63051400
_cell_length_c   8.49430698
_cell_angle_alpha   109.35551387
_cell_angle_beta   108.67599525
_cell_angle_gamma   90.00000000
_symmetry_Int_Tables_number   1
_chemical_formula_structural   Ca2Cr2O5
_chemical_formula_sum   'Ca4 Cr4 O10'
_cell_volume   230.90565957
_cell_formula_units_Z   2
loop_
 _symmetry_equiv_pos_site_id
 _symmetry_equiv_pos_as_xyz
  1  'x, y, z'
loop_
 _atom_site_type_symbol
 _atom_site_label
 _atom_site_symmetry_multiplicity
 _atom_site_fract_x
 _atom_site_fract_y
 _atom_site_fract_z
 _atom_site_occupancy
  Ca  Ca0  1  0.88833600  0.41790700  0.79148100  1
  Ca  Ca1  1  0.09685500  0.58209300  0.20851900  1
  Ca  Ca2  1  0.59685500  0.12642600  0.20851900  1
  Ca  Ca3  1  0.38833600  0.87357400  0.79148100  1
  Cr  Cr0  1  0.48383100  0.50000000  0.00000000  1
  Cr  Cr1  1  0.98383100  0.00000000  0.00000000  1
  Cr  Cr2  1  0.28236700  0.18344100  0.50000000  1
  Cr  Cr3  1  0.78236700  0.81655900  0.50000000  1
  O  O0  1  0.25454100  0.77075900  0.03136600  1
  O  O1  1  0.22317500  0.22924100  0.96863400  1
  O  O2  1  0.72317500  0.23939400  0.96863400  1
  O  O3  1  0.75454100  0.76060600  0.03136600  1
  O  O4  1  0.32875100  0.42663800  0.72833900  1
  O  O5  1  0.60041300  0.57336200  0.27166100  1
  O  O6  1  0.10041300  0.19829900  0.27166100  1
  O  O7  1  0.82875100  0.80170100  0.72833900  1
  O  O8  1  0.63973100  0.13355500  0.50000000  1
  O  O9  1  0.13973100  0.86644500  0.50000000  1
loop_
_geom_bond_atom_site_label_1
_geom_bond_atom_site_label_2
_geom_bond_distance
_geom_bond_site_symmetry_2
Ca0 O7 2.391527 1_555
Ca0 O8 2.398023 1_555
Ca0 O2 2.439341 1_555
Ca0 O1 2.452546 1_655
Ca0 O3 2.597818 1_556
Ca0 O0 2.604749 1_656
Ca0 O4 2.621206 1_655
Ca0 O4 2.920413 1_555
Ca1 O6 2.391527 1_555
Ca1 O9 2.398023 1_555
Ca1 O3 2.439341 1_455
Ca1 O0 2.452546 1_555
Ca1 O2 2.597818 1_454
Ca1 O1 2.604749 1_554
Ca1 O5 2.621212 1_555
Ca1 O5 2.920407 1_455
Ca2 O5 2.391527 1_555
Ca2 O8 2.398023 1_555
Ca2 O0 2.439344 1_545
Ca2 O3 2.452550 1_545
Ca2 O1 2.597821 1_554
Ca2 O2 2.604752 1_554
Ca2 O6 2.621212 1_655
Ca2 O6 2.920407 1_555
Ca3 O4 2.391527 1_555
Ca3 O9 2.398023 1_555
Ca3 O1 2.439344 1_565
Ca3 O2 2.452550 1_565
Ca3 O0 2.597821 1_556
Ca3 O3 2.604752 1_556
Ca3 O7 2.621206 1_555
Ca3 O7 2.920413 1_455
Cr0 O2 1.970385 1_554
Cr0 O3 1.970385 1_555
Cr0 O0 1.973471 1_555
Cr0 O1 1.973471 1_554
Cr0 O5 2.080541 1_555
Cr0 O4 2.080541 1_554
Cr1 O1 1.970389 1_654
Cr1 O0 1.970389 1_645
Cr1 O2 1.973475 1_554
Cr1 O3 1.973475 1_545
Cr1 O6 2.080541 1_655
Cr1 O7 2.080541 1_544
Cr2 O6 1.904406 1_555
Cr2 O4 1.904407 1_555
Cr2 O9 1.946222 1_545
Cr2 O8 1.964257 1_555
Cr3 O5 1.904406 1_555
Cr3 O7 1.904407 1_555
Cr3 O8 1.946222 1_565
Cr3 O9 1.964257 1_655
