# generated using pymatgen
data_NaCaMgAl(SiO3)4
_symmetry_space_group_name_H-M   'P 1'
_cell_length_a   9.37112938
_cell_length_b   7.84401200
_cell_length_c   7.64754359
_cell_angle_alpha   90.00000000
_cell_angle_beta   106.74562552
_cell_angle_gamma   90.00000000
_symmetry_Int_Tables_number   1
_chemical_formula_structural   NaCaMgAl(SiO3)4
_chemical_formula_sum   'Na2 Ca2 Mg2 Al2 Si8 O24'
_cell_volume   538.31102084
_cell_formula_units_Z   2
loop_
 _symmetry_equiv_pos_site_id
 _symmetry_equiv_pos_as_xyz
  1  'x, y, z'
loop_
 _atom_site_type_symbol
 _atom_site_label
 _atom_site_symmetry_multiplicity
 _atom_site_fract_x
 _atom_site_fract_y
 _atom_site_fract_z
 _atom_site_occupancy
  Na  Na0  1  0.06789600  0.79255800  0.38770000  1
  Na  Na1  1  0.06789600  0.20744200  0.88770000  1
  Ca  Ca0  1  0.20107100  0.84867500  0.99606200  1
  Ca  Ca1  1  0.20107100  0.15132500  0.49606200  1
  Mg  Mg0  1  0.78718900  0.87506800  0.57959600  1
  Mg  Mg1  1  0.78718900  0.12493200  0.07959600  1
  Al  Al0  1  0.43105000  0.88823400  0.44158200  1
  Al  Al1  1  0.43105000  0.11176600  0.94158200  1
  Si  Si0  1  0.83608400  0.78777700  0.98907500  1
  Si  Si1  1  0.55910300  0.62158800  0.75923500  1
  Si  Si2  1  0.83608400  0.21222300  0.48907500  1
  Si  Si3  1  0.55910300  0.37841200  0.25923500  1
  Si  Si4  1  0.00703800  0.54731600  0.68988700  1
  Si  Si5  1  0.00703800  0.45268400  0.18988700  1
  Si  Si6  1  0.57769600  0.22433700  0.65635900  1
  Si  Si7  1  0.57769600  0.77566300  0.15635900  1
  O  O0  1  0.44366300  0.07985300  0.57209100  1
  O  O1  1  0.44366300  0.92014700  0.07209100  1
  O  O2  1  0.73429400  0.28252300  0.28734500  1
  O  O3  1  0.94166500  0.63688900  0.11736800  1
  O  O4  1  0.24580000  0.91398800  0.30110800  1
  O  O5  1  0.73429400  0.71747700  0.78734500  1
  O  O6  1  0.74326800  0.14010100  0.62777400  1
  O  O7  1  0.94166500  0.36311100  0.61736800  1
  O  O8  1  0.24580000  0.08601200  0.80110800  1
  O  O9  1  0.94395500  0.29088300  0.07431300  1
  O  O10  1  0.74326800  0.85989900  0.12777400  1
  O  O11  1  0.94395500  0.70911700  0.57431300  1
  O  O12  1  0.44364100  0.29387700  0.08424100  1
  O  O13  1  0.60288400  0.86877400  0.37585700  1
  O  O14  1  0.93958000  0.06056000  0.45453400  1
  O  O15  1  0.44364100  0.70612300  0.58424100  1
  O  O16  1  0.60288400  0.13122600  0.87585700  1
  O  O17  1  0.12102300  0.55437100  0.88523000  1
  O  O18  1  0.59292300  0.58133400  0.25823100  1
  O  O19  1  0.93958000  0.93944000  0.95453400  1
  O  O20  1  0.12102300  0.44562900  0.38523000  1
  O  O21  1  0.59292300  0.41866600  0.75823100  1
  O  O22  1  0.52728100  0.67022200  0.94731300  1
  O  O23  1  0.52728100  0.32977800  0.44731300  1
loop_
_geom_bond_atom_site_label_1
_geom_bond_atom_site_label_2
_geom_bond_distance
_geom_bond_site_symmetry_2
Na0 O4 2.182063 1_555
Na0 O11 2.183864 1_455
Na0 O3 2.398985 1_455
Na0 O14 2.545705 1_465
Na0 O20 2.767525 1_555
Na1 O8 2.182063 1_555
Na1 O9 2.183864 1_456
Na1 O7 2.398985 1_455
Na1 O19 2.545705 1_445
Na1 O17 2.767525 1_555
Ca0 O1 2.249189 1_556
Ca0 O4 2.305838 1_556
Ca0 O19 2.482756 1_455
Ca0 O8 2.494892 1_565
Ca0 O17 2.498804 1_555
Ca1 O0 2.249189 1_555
Ca1 O8 2.305838 1_555
Ca1 O14 2.482756 1_455
Ca1 O4 2.494892 1_545
Ca1 O20 2.498804 1_555
Mg0 O13 1.965308 1_555
Mg0 O11 1.971926 1_555
Mg0 O6 2.171281 1_565
Mg0 O5 2.179853 1_555
Mg0 O14 2.420376 1_565
Mg1 O16 1.965308 1_554
Mg1 O9 1.971926 1_555
Mg1 O10 2.171281 1_545
Mg1 O2 2.179853 1_555
Mg1 O19 2.420376 1_544
Al0 O4 1.770288 1_555
Al0 O15 1.780607 1_555
Al0 O0 1.789228 1_565
Al0 O13 1.826292 1_555
Al1 O8 1.770288 1_555
Al1 O12 1.780607 1_556
Al1 O1 1.789228 1_546
Al1 O16 1.826292 1_555
O0 Si6 1.676589 1_555
O1 Si7 1.676589 1_555
O2 Si2 1.657112 1_555
O2 Si3 1.761783 1_555
O3 Si5 1.604633 1_655
O3 Si0 1.668231 1_554
O5 Si0 1.657112 1_555
O5 Si1 1.761783 1_555
O6 Si2 1.653276 1_555
O6 Si6 1.757067 1_555
O7 Si4 1.604633 1_655
O7 Si2 1.668231 1_555
O9 Si5 1.562170 1_655
O10 Si0 1.653276 1_554
O10 Si7 1.757067 1_555
O11 Si4 1.562170 1_655
O12 Si3 1.602185 1_555
O13 Si7 1.782861 1_555
O14 Si2 1.604158 1_555
O15 Si1 1.602185 1_555
O16 Si6 1.782861 1_555
O17 Si4 1.567237 1_555
O18 Si3 1.623419 1_555
O18 Si7 1.699059 1_555
O19 Si0 1.604158 1_555
O20 Si5 1.567237 1_555
O21 Si1 1.623419 1_555
O21 Si6 1.699059 1_555
O22 Si1 1.597007 1_555
O22 Si7 1.740068 1_556
O23 Si3 1.597007 1_555
O23 Si6 1.740068 1_555
