# generated using pymatgen
data_Zn3WN4
_symmetry_space_group_name_H-M   'P 1'
_cell_length_a   6.52296927
_cell_length_b   5.64332032
_cell_length_c   5.32210519
_cell_angle_alpha   90.00000000
_cell_angle_beta   90.00000000
_cell_angle_gamma   90.00000000
_symmetry_Int_Tables_number   1
_chemical_formula_structural   Zn3WN4
_chemical_formula_sum   'Zn6 W2 N8'
_cell_volume   195.91310533
_cell_formula_units_Z   2
loop_
 _symmetry_equiv_pos_site_id
 _symmetry_equiv_pos_as_xyz
  1  'x, y, z'
loop_
 _atom_site_type_symbol
 _atom_site_label
 _atom_site_symmetry_multiplicity
 _atom_site_fract_x
 _atom_site_fract_y
 _atom_site_fract_z
 _atom_site_occupancy
  Zn  Zn0  1  0.25140535  0.83246480  0.73070163  1
  Zn  Zn1  1  0.24859465  0.16753520  0.23070163  1
  Zn  Zn2  1  0.74859465  0.83246480  0.73070163  1
  Zn  Zn3  1  0.75140535  0.16753520  0.23070163  1
  Zn  Zn4  1  0.00000000  0.33322920  0.72970907  1
  Zn  Zn5  1  0.50000000  0.66677080  0.22970907  1
  W  W0  1  0.00000000  0.67020420  0.22928573  1
  W  W1  1  0.50000000  0.32979580  0.72928573  1
  N  N0  1  0.76290229  0.82682105  0.11319528  1
  N  N1  1  0.73709771  0.17317895  0.61319528  1
  N  N2  1  0.23709771  0.82682105  0.11319528  1
  N  N3  1  0.26290229  0.17317895  0.61319528  1
  N  N4  1  0.00000000  0.35649686  0.11271362  1
  N  N5  1  0.50000000  0.64350314  0.61271362  1
  N  N6  1  0.00000000  0.67108122  0.57975875  1
  N  N7  1  0.50000000  0.32891878  0.07975875  1
loop_
_geom_bond_atom_site_label_1
_geom_bond_atom_site_label_2
_geom_bond_distance
_geom_bond_site_symmetry_2
N0 W0 1.885422 1_655
N0 Zn3 2.023296 1_565
N0 Zn5 2.034997 1_555
N0 Zn2 2.038059 1_554
N1 W1 1.885422 1_555
N1 Zn2 2.023296 1_545
N1 Zn4 2.034997 1_655
N1 Zn3 2.038059 1_555
N2 W0 1.885422 1_555
N2 Zn1 2.023296 1_565
N2 Zn5 2.034997 1_555
N2 Zn0 2.038059 1_554
N3 W1 1.885422 1_555
N3 Zn0 2.023296 1_545
N3 Zn4 2.034997 1_555
N3 Zn1 2.038059 1_555
N4 W0 1.875913 1_555
N4 Zn1 2.039845 1_555
N4 Zn3 2.039845 1_455
N4 Zn4 2.042615 1_554
N5 W1 1.875913 1_555
N5 Zn0 2.039845 1_555
N5 Zn2 2.039845 1_555
N5 Zn5 2.042615 1_555
N6 W0 1.865261 1_555
N6 Zn2 2.040611 1_455
N6 Zn0 2.040611 1_555
N6 Zn4 2.066891 1_555
N7 W1 1.865261 1_554
N7 Zn3 2.040611 1_555
N7 Zn1 2.040611 1_555
N7 Zn5 2.066891 1_555
