# generated using pymatgen
data_Li2CoNiO4
_symmetry_space_group_name_H-M   'P 1'
_cell_length_a   5.15659061
_cell_length_b   5.15659061
_cell_length_c   5.00970618
_cell_angle_alpha   78.87381522
_cell_angle_beta   78.87381522
_cell_angle_gamma   33.52817040
_symmetry_Int_Tables_number   1
_chemical_formula_structural   Li2CoNiO4
_chemical_formula_sum   'Li2 Co1 Ni1 O4'
_cell_volume   72.06851855
_cell_formula_units_Z   1
loop_
 _symmetry_equiv_pos_site_id
 _symmetry_equiv_pos_as_xyz
  1  'x, y, z'
loop_
 _atom_site_type_symbol
 _atom_site_label
 _atom_site_symmetry_multiplicity
 _atom_site_fract_x
 _atom_site_fract_y
 _atom_site_fract_z
 _atom_site_occupancy
  Li  Li0  1  0.75250800  0.75250800  0.74959800  1
  Li  Li1  1  0.24749200  0.24749200  0.25040200  1
  Co  Co0  1  0.50000000  0.50000000  0.50000000  1
  Ni  Ni0  1  0.00000000  0.00000000  0.00000000  1
  O  O0  1  0.61400600  0.61400600  0.15286400  1
  O  O1  1  0.11461500  0.11461500  0.61740200  1
  O  O2  1  0.88538500  0.88538500  0.38259800  1
  O  O3  1  0.38599400  0.38599400  0.84713600  1
loop_
_geom_bond_atom_site_label_1
_geom_bond_atom_site_label_2
_geom_bond_distance
_geom_bond_site_symmetry_2
Li0 O2 2.032152 1_555
Li0 O3 2.109042 1_565
Li0 O3 2.109042 1_655
Li0 O0 2.199602 1_556
Li0 O1 2.206439 1_655
Li0 O1 2.206439 1_565
Li1 O1 2.032152 1_555
Li1 O0 2.109042 1_545
Li1 O0 2.109042 1_455
Li1 O3 2.199602 1_554
Li1 O2 2.206439 1_545
Li1 O2 2.206439 1_455
Co0 O3 1.871515 1_555
Co0 O0 1.871515 1_555
Co0 O1 2.026662 1_565
Co0 O1 2.026662 1_655
Co0 O2 2.026662 1_545
Co0 O2 2.026662 1_455
Ni0 O2 2.019986 1_445
Ni0 O1 2.019986 1_554
Ni0 O0 2.100835 1_545
Ni0 O3 2.100835 1_544
Ni0 O3 2.100835 1_454
Ni0 O0 2.100835 1_455
