# generated using pymatgen
data_Dy2(NiB2)3
_symmetry_space_group_name_H-M   'P 1'
_cell_length_a   3.47193800
_cell_length_b   5.78104576
_cell_length_c   5.78104576
_cell_angle_alpha   96.75537609
_cell_angle_beta   90.00000000
_cell_angle_gamma   90.00000000
_symmetry_Int_Tables_number   1
_chemical_formula_structural   Dy2(NiB2)3
_chemical_formula_sum   'Dy2 Ni3 B6'
_cell_volume   115.22829570
_cell_formula_units_Z   1
loop_
 _symmetry_equiv_pos_site_id
 _symmetry_equiv_pos_as_xyz
  1  'x, y, z'
loop_
 _atom_site_type_symbol
 _atom_site_label
 _atom_site_symmetry_multiplicity
 _atom_site_fract_x
 _atom_site_fract_y
 _atom_site_fract_z
 _atom_site_occupancy
  Dy  Dy0  1  0.00000000  0.27655100  0.72344900  1
  Dy  Dy1  1  0.00000000  0.72344900  0.27655100  1
  Ni  Ni0  1  0.50000000  0.00000000  0.00000000  1
  Ni  Ni1  1  0.00000000  0.77400900  0.77400900  1
  Ni  Ni2  1  0.00000000  0.22599100  0.22599100  1
  B  B0  1  0.50000000  0.91525100  0.61521700  1
  B  B1  1  0.50000000  0.08474900  0.38478300  1
  B  B2  1  0.50000000  0.61521700  0.91525100  1
  B  B3  1  0.50000000  0.38478300  0.08474900  1
  B  B4  1  0.50000000  0.61349600  0.61349600  1
  B  B5  1  0.50000000  0.38650400  0.38650400  1
loop_
_geom_bond_atom_site_label_1
_geom_bond_atom_site_label_2
_geom_bond_distance
_geom_bond_site_symmetry_2
Dy0 Ni1 2.856232 1_555
Dy0 Ni2 2.856232 1_555
Dy0 Ni1 2.953896 1_545
Dy0 Ni2 2.953896 1_556
Dy0 Ni0 2.954141 1_556
Dy0 Ni0 2.954141 1_456
Dy1 Ni1 2.856232 1_555
Dy1 Ni2 2.856232 1_555
Dy1 Ni1 2.953896 1_554
Dy1 Ni2 2.953896 1_565
Dy1 Ni0 2.954141 1_565
Dy1 Ni0 2.954141 1_465
Ni0 Ni2 2.454736 1_555
Ni0 Ni2 2.454736 1_655
Ni0 Ni1 2.454736 1_644
Ni0 Ni1 2.454736 1_544
B0 B4 1.743317 1_555
B0 B1 1.744097 1_565
B0 Ni1 2.167796 1_655
B0 Ni1 2.167796 1_555
B0 Ni0 2.220768 1_566
B0 Dy0 2.731347 1_565
B0 Dy0 2.731347 1_665
B0 Dy1 2.750543 1_555
B0 Dy1 2.750543 1_655
B1 B5 1.743317 1_555
B1 Ni2 2.167796 1_555
B1 Ni2 2.167796 1_655
B1 Ni0 2.220768 1_555
B1 Dy1 2.731347 1_545
B1 Dy1 2.731347 1_645
B1 Dy0 2.750543 1_655
B1 Dy0 2.750543 1_555
B2 B4 1.743317 1_555
B2 B3 1.744097 1_556
B2 Ni1 2.167796 1_655
B2 Ni1 2.167796 1_555
B2 Ni0 2.220768 1_566
B2 Dy1 2.731347 1_556
B2 Dy1 2.731347 1_656
B2 Dy0 2.750543 1_555
B2 Dy0 2.750543 1_655
B3 B5 1.743317 1_555
B3 Ni2 2.167796 1_555
B3 Ni2 2.167796 1_655
B3 Ni0 2.220768 1_555
B3 Dy0 2.731347 1_654
B3 Dy0 2.731347 1_554
B3 Dy1 2.750543 1_655
B3 Dy1 2.750543 1_555
B4 B5 1.743240 1_555
B4 Ni1 2.129116 1_655
B4 Ni1 2.129116 1_555
B4 Dy0 2.739200 1_655
B4 Dy1 2.739200 1_655
B4 Dy0 2.739200 1_555
B4 Dy1 2.739200 1_555
B5 Ni2 2.129116 1_655
B5 Ni2 2.129116 1_555
B5 Dy0 2.739200 1_655
B5 Dy1 2.739200 1_655
B5 Dy0 2.739200 1_555
B5 Dy1 2.739200 1_555
