# generated using pymatgen
data_Ce2(Ga3Ir)3
_symmetry_space_group_name_H-M   'P 1'
_cell_length_a   7.59518510
_cell_length_b   7.59518510
_cell_length_c   9.47061950
_cell_angle_alpha   90.00000000
_cell_angle_beta   90.00000000
_cell_angle_gamma   119.71757028
_symmetry_Int_Tables_number   1
_chemical_formula_structural   Ce2(Ga3Ir)3
_chemical_formula_sum   'Ce4 Ga18 Ir6'
_cell_volume   474.47649468
_cell_formula_units_Z   2
loop_
 _symmetry_equiv_pos_site_id
 _symmetry_equiv_pos_as_xyz
  1  'x, y, z'
loop_
 _atom_site_type_symbol
 _atom_site_label
 _atom_site_symmetry_multiplicity
 _atom_site_fract_x
 _atom_site_fract_y
 _atom_site_fract_z
 _atom_site_occupancy
  Ce  Ce0  1  0.99947455  0.66818652  0.25000000  1
  Ce  Ce1  1  0.00052545  0.33181348  0.75000000  1
  Ce  Ce2  1  0.66818652  0.99947455  0.25000000  1
  Ce  Ce3  1  0.33181348  0.00052545  0.75000000  1
  Ga  Ga0  1  0.13046922  0.13046922  0.25000000  1
  Ga  Ga1  1  0.86953078  0.86953078  0.75000000  1
  Ga  Ga2  1  0.00325154  0.33452906  0.07771141  1
  Ga  Ga3  1  0.99674846  0.66547094  0.92228859  1
  Ga  Ga4  1  0.99674846  0.66547094  0.57771141  1
  Ga  Ga5  1  0.33452906  0.00325154  0.42228859  1
  Ga  Ga6  1  0.00325154  0.33452906  0.42228859  1
  Ga  Ga7  1  0.66547094  0.99674846  0.57771141  1
  Ga  Ga8  1  0.66547094  0.99674846  0.92228859  1
  Ga  Ga9  1  0.33452906  0.00325154  0.07771141  1
  Ga  Ga10  1  0.33484310  0.33484310  0.56446920  1
  Ga  Ga11  1  0.66515690  0.66515690  0.43553080  1
  Ga  Ga12  1  0.66515690  0.66515690  0.06446920  1
  Ga  Ga13  1  0.33484310  0.33484310  0.93553080  1
  Ga  Ga14  1  0.33916566  0.54285206  0.25000000  1
  Ga  Ga15  1  0.66083434  0.45714794  0.75000000  1
  Ga  Ga16  1  0.54285206  0.33916566  0.25000000  1
  Ga  Ga17  1  0.45714794  0.66083434  0.75000000  1
  Ir  Ir0  1  0.67087625  0.32912375  -0.00000000  1
  Ir  Ir1  1  0.32912375  0.67087625  -0.00000000  1
  Ir  Ir2  1  0.32912375  0.67087625  0.50000000  1
  Ir  Ir3  1  0.67087625  0.32912375  0.50000000  1
  Ir  Ir4  1  0.00000000  0.00000000  -0.00000000  1
  Ir  Ir5  1  0.00000000  0.00000000  0.50000000  1
loop_
_geom_bond_atom_site_label_1
_geom_bond_atom_site_label_2
_geom_bond_distance
_geom_bond_site_symmetry_2
Ce0 Ga2 3.026119 1_655
Ce0 Ga6 3.026119 1_655
Ce0 Ga5 3.032155 1_665
Ce0 Ga9 3.032155 1_665
Ce0 Ga11 3.078560 1_555
Ce0 Ga12 3.078560 1_555
Ce0 Ga4 3.103699 1_555
Ce0 Ga3 3.103699 1_554
Ce0 Ga16 3.111293 1_555
Ce0 Ga0 3.139174 1_665
Ce0 Ga14 3.161913 1_655
Ce1 Ga4 3.026119 1_455
Ce1 Ga3 3.026119 1_455
Ce1 Ga7 3.032155 1_445
Ce1 Ga8 3.032155 1_445
Ce1 Ga10 3.078560 1_555
Ce1 Ga13 3.078560 1_555
Ce1 Ga6 3.103699 1_555
Ce1 Ga2 3.103699 1_556
Ce1 Ga17 3.111293 1_555
Ce1 Ga1 3.139174 1_445
Ce1 Ga15 3.161913 1_455
Ce2 Ga9 3.026119 1_565
Ce2 Ga5 3.026119 1_565
Ce2 Ga2 3.032155 1_665
Ce2 Ga6 3.032155 1_665
Ce2 Ga12 3.078560 1_555
Ce2 Ga11 3.078560 1_555
Ce2 Ga8 3.103699 1_554
Ce2 Ga7 3.103699 1_555
Ce2 Ga14 3.111293 1_555
Ce2 Ga0 3.139174 1_665
Ce2 Ga16 3.161913 1_565
Ce3 Ga7 3.026119 1_545
Ce3 Ga8 3.026119 1_545
Ce3 Ga3 3.032155 1_445
Ce3 Ga4 3.032155 1_445
Ce3 Ga13 3.078560 1_555
Ce3 Ga10 3.078560 1_555
Ce3 Ga5 3.103699 1_555
Ce3 Ga9 3.103699 1_556
Ce3 Ga15 3.111293 1_555
Ce3 Ga1 3.139174 1_445
Ce3 Ga17 3.161913 1_545
Ga0 Ir5 2.568296 1_555
Ga0 Ir4 2.568296 1_555
Ga0 Ga16 2.720379 1_555
Ga0 Ga14 2.720379 1_555
Ga0 Ga2 2.735480 1_555
Ga0 Ga5 2.735480 1_555
Ga0 Ga6 2.735480 1_555
Ga0 Ga9 2.735480 1_555
Ga1 Ir5 2.568296 1_665
Ga1 Ir4 2.568296 1_666
Ga1 Ga17 2.720379 1_555
Ga1 Ga15 2.720379 1_555
Ga1 Ga3 2.735480 1_555
Ga1 Ga7 2.735480 1_555
Ga1 Ga8 2.735480 1_555
Ga1 Ga4 2.735480 1_555
Ga2 Ir0 2.610258 1_455
Ga2 Ir1 2.631517 1_555
Ga2 Ir4 2.633586 1_555
Ga2 Ga3 2.934310 1_454
Ga2 Ga8 2.967277 1_444
Ga3 Ir1 2.610258 1_656
Ga3 Ir0 2.631517 1_556
Ga3 Ir4 2.633586 1_666
Ga3 Ga9 2.967277 1_666
Ga4 Ir2 2.610258 1_655
Ga4 Ir3 2.631517 1_555
Ga4 Ir5 2.633586 1_665
Ga4 Ga6 2.934310 1_655
Ga4 Ga5 2.967277 1_665
Ga5 Ir2 2.610258 1_545
Ga5 Ir3 2.631517 1_555
Ga5 Ir5 2.633586 1_555
Ga5 Ga7 2.934310 1_545
Ga6 Ir3 2.610258 1_455
Ga6 Ir2 2.631517 1_555
Ga6 Ir5 2.633586 1_555
Ga6 Ga7 2.967277 1_445
Ga7 Ir3 2.610258 1_565
Ga7 Ir2 2.631517 1_555
Ga7 Ir5 2.633586 1_665
Ga8 Ir0 2.610258 1_566
Ga8 Ir1 2.631517 1_556
Ga8 Ir4 2.633586 1_666
Ga8 Ga9 2.934310 1_566
Ga9 Ir1 2.610258 1_545
Ga9 Ir0 2.631517 1_555
Ga9 Ir4 2.633586 1_555
Ga10 Ir5 2.626010 1_555
Ga10 Ir3 2.645466 1_555
Ga10 Ir2 2.645466 1_555
Ga10 Ga17 2.792910 1_555
Ga10 Ga15 2.792910 1_555
Ga10 Ga11 2.799824 1_555
Ga10 Ga6 2.854830 1_555
Ga10 Ga5 2.854830 1_555
Ga11 Ir5 2.626010 1_665
Ga11 Ir3 2.645466 1_555
Ga11 Ir2 2.645466 1_555
Ga11 Ga14 2.792910 1_555
Ga11 Ga16 2.792910 1_555
Ga11 Ga7 2.854830 1_555
Ga11 Ga4 2.854830 1_555
Ga12 Ir4 2.626010 1_665
Ga12 Ir0 2.645466 1_555
Ga12 Ir1 2.645466 1_555
Ga12 Ga14 2.792910 1_555
Ga12 Ga16 2.792910 1_555
Ga12 Ga13 2.799824 1_554
Ga12 Ga8 2.854830 1_554
Ga12 Ga3 2.854830 1_554
Ga13 Ir4 2.626010 1_556
Ga13 Ir1 2.645466 1_556
Ga13 Ir0 2.645466 1_556
Ga13 Ga17 2.792910 1_555
Ga13 Ga15 2.792910 1_555
Ga13 Ga2 2.854830 1_556
Ga13 Ga9 2.854830 1_556
Ga14 Ir2 2.575002 1_555
Ga14 Ir1 2.575002 1_555
Ga14 Ga16 2.675724 1_555
Ga14 Ga2 2.769991 1_555
Ga14 Ga6 2.769991 1_555
Ga15 Ir0 2.575002 1_556
Ga15 Ir3 2.575002 1_555
Ga15 Ga17 2.675724 1_555
Ga15 Ga4 2.769991 1_555
Ga15 Ga3 2.769991 1_555
Ga16 Ir3 2.575002 1_555
Ga16 Ir0 2.575002 1_555
Ga16 Ga5 2.769991 1_555
Ga16 Ga9 2.769991 1_555
Ga17 Ir2 2.575002 1_555
Ga17 Ir1 2.575002 1_556
Ga17 Ga8 2.769991 1_555
Ga17 Ga7 2.769991 1_555
