# generated using pymatgen
data_Mn3Al2F15
_symmetry_space_group_name_H-M   'P 1'
_cell_length_a   9.71946700
_cell_length_b   5.33247800
_cell_length_c   9.84901682
_cell_angle_alpha   80.39244900
_cell_angle_beta   90.00000000
_cell_angle_gamma   90.00000000
_symmetry_Int_Tables_number   1
_chemical_formula_structural   Mn3Al2F15
_chemical_formula_sum   'Mn6 Al4 F30'
_cell_volume   503.30342499
_cell_formula_units_Z   2
loop_
 _symmetry_equiv_pos_site_id
 _symmetry_equiv_pos_as_xyz
  1  'x, y, z'
loop_
 _atom_site_type_symbol
 _atom_site_label
 _atom_site_symmetry_multiplicity
 _atom_site_fract_x
 _atom_site_fract_y
 _atom_site_fract_z
 _atom_site_occupancy
  Mn  Mn0  1  0.49053400  0.81102100  0.16554800  1
  Mn  Mn1  1  0.50000000  0.50000000  0.50000000  1
  Mn  Mn2  1  0.50946600  0.18897900  0.83445200  1
  Mn  Mn3  1  0.00946600  0.81102100  0.16554800  1
  Mn  Mn4  1  0.00000000  0.50000000  0.50000000  1
  Mn  Mn5  1  0.99053400  0.18897900  0.83445200  1
  Al  Al0  1  0.25000000  0.97927800  0.59251300  1
  Al  Al1  1  0.25000000  0.64456500  0.93932800  1
  Al  Al2  1  0.75000000  0.35543500  0.06067200  1
  Al  Al3  1  0.75000000  0.02072200  0.40748700  1
  F  F0  1  0.25000000  0.54873600  0.11341200  1
  F  F1  1  0.25000000  0.16824900  0.43670500  1
  F  F2  1  0.25000000  0.79270900  0.76453900  1
  F  F3  1  0.75000000  0.20729100  0.23546100  1
  F  F4  1  0.75000000  0.83175100  0.56329500  1
  F  F5  1  0.75000000  0.45126400  0.88658800  1
  F  F6  1  0.60754700  0.11690800  0.03213200  1
  F  F7  1  0.61798100  0.82060200  0.34172600  1
  F  F8  1  0.58142000  0.44799600  0.67547600  1
  F  F9  1  0.41858000  0.55200400  0.32452400  1
  F  F10  1  0.38201900  0.17939800  0.65827400  1
  F  F11  1  0.39245300  0.88309200  0.96786800  1
  F  F12  1  0.88669900  0.57195400  0.10257100  1
  F  F13  1  0.88541900  0.24603000  0.44833300  1
  F  F14  1  0.89239500  0.94319300  0.78695500  1
  F  F15  1  0.10760500  0.05680700  0.21304500  1
  F  F16  1  0.11458100  0.75397000  0.55166700  1
  F  F17  1  0.11330100  0.42804600  0.89742900  1
  F  F18  1  0.39239500  0.05680700  0.21304500  1
  F  F19  1  0.38541900  0.75397000  0.55166700  1
  F  F20  1  0.38669900  0.42804600  0.89742900  1
  F  F21  1  0.61330100  0.57195400  0.10257100  1
  F  F22  1  0.61458100  0.24603000  0.44833300  1
  F  F23  1  0.60760500  0.94319300  0.78695500  1
  F  F24  1  0.89245300  0.11690800  0.03213200  1
  F  F25  1  0.88201900  0.82060200  0.34172600  1
  F  F26  1  0.91858000  0.44799600  0.67547600  1
  F  F27  1  0.08142000  0.55200400  0.32452400  1
  F  F28  1  0.11798100  0.17939800  0.65827400  1
  F  F29  1  0.10754700  0.88309200  0.96786800  1
loop_
_geom_bond_atom_site_label_1
_geom_bond_atom_site_label_2
_geom_bond_distance
_geom_bond_site_symmetry_2
Al0 F1 1.689414 1_565
Al0 F2 1.815967 1_555
Al0 F28 1.853500 1_565
Al0 F10 1.853500 1_565
Al0 F19 1.870572 1_555
Al0 F16 1.870572 1_555
Al1 F0 1.705396 1_556
Al1 F2 1.770219 1_555
Al1 F20 1.851400 1_555
Al1 F17 1.851400 1_555
Al1 F29 1.932152 1_555
Al1 F11 1.932152 1_555
Al2 F5 1.705396 1_554
Al2 F3 1.770219 1_555
Al2 F12 1.851400 1_555
Al2 F21 1.851400 1_555
Al2 F24 1.932152 1_555
Al2 F6 1.932152 1_555
Al3 F4 1.689414 1_545
Al3 F3 1.815967 1_555
Al3 F25 1.853500 1_545
Al3 F7 1.853500 1_545
Al3 F13 1.870572 1_555
Al3 F22 1.870572 1_555
F6 Mn2 2.144140 1_554
F6 Mn0 2.228287 1_545
F7 Mn0 2.139503 1_555
F7 Mn1 2.403771 1_555
F8 Mn1 1.878850 1_555
F8 Mn2 2.031387 1_555
F9 Mn1 1.878850 1_555
F9 Mn0 2.031387 1_555
F10 Mn2 2.139503 1_555
F10 Mn1 2.403771 1_555
F11 Mn0 2.144140 1_556
F11 Mn2 2.228287 1_565
F12 Mn3 1.922922 1_655
F13 Mn4 1.887681 1_655
F14 Mn5 1.746751 1_565
F15 Mn3 1.746751 1_545
F16 Mn4 1.887681 1_555
F17 Mn5 1.922922 1_455
F18 Mn0 1.746751 1_545
F19 Mn1 1.887681 1_555
F20 Mn2 1.922922 1_555
F21 Mn0 1.922922 1_555
F22 Mn1 1.887681 1_555
F23 Mn2 1.746751 1_565
F24 Mn5 2.144140 1_554
F24 Mn3 2.228287 1_645
F25 Mn3 2.139503 1_655
F25 Mn4 2.403771 1_655
F26 Mn4 1.878850 1_655
F26 Mn5 2.031387 1_555
F27 Mn4 1.878850 1_555
F27 Mn3 2.031387 1_555
F28 Mn5 2.139503 1_455
F28 Mn4 2.403771 1_555
F29 Mn3 2.144140 1_556
F29 Mn5 2.228287 1_465
