# generated using pymatgen
data_PrMgMn2O6
_symmetry_space_group_name_H-M   'P 1'
_cell_length_a   5.30300900
_cell_length_b   5.47095400
_cell_length_c   7.65307300
_cell_angle_alpha   90.00000000
_cell_angle_beta   90.00000000
_cell_angle_gamma   90.00000000
_symmetry_Int_Tables_number   1
_chemical_formula_structural   PrMgMn2O6
_chemical_formula_sum   'Pr2 Mg2 Mn4 O12'
_cell_volume   222.03492047
_cell_formula_units_Z   2
loop_
 _symmetry_equiv_pos_site_id
 _symmetry_equiv_pos_as_xyz
  1  'x, y, z'
loop_
 _atom_site_type_symbol
 _atom_site_label
 _atom_site_symmetry_multiplicity
 _atom_site_fract_x
 _atom_site_fract_y
 _atom_site_fract_z
 _atom_site_occupancy
  Pr  Pr0  1  0.01043500  0.70732000  0.00000000  1
  Pr  Pr1  1  0.51043500  0.29268000  0.50000000  1
  Mg  Mg0  1  0.47677900  0.19036900  0.00000000  1
  Mg  Mg1  1  0.97677900  0.80963100  0.50000000  1
  Mn  Mn0  1  0.99986600  0.24774400  0.75141000  1
  Mn  Mn1  1  0.99986600  0.24774400  0.24859000  1
  Mn  Mn2  1  0.49986600  0.75225600  0.25141000  1
  Mn  Mn3  1  0.49986600  0.75225600  0.74859000  1
  O  O0  1  0.07786300  0.20361900  0.50000000  1
  O  O1  1  0.22311700  0.97422800  0.80328300  1
  O  O2  1  0.22311700  0.97422800  0.19671700  1
  O  O3  1  0.30699100  0.44625800  0.19261300  1
  O  O4  1  0.30699100  0.44625800  0.80738700  1
  O  O5  1  0.37474000  0.72865900  0.50000000  1
  O  O6  1  0.57786300  0.79638100  0.00000000  1
  O  O7  1  0.72311700  0.02577200  0.69671700  1
  O  O8  1  0.72311700  0.02577200  0.30328300  1
  O  O9  1  0.80699100  0.55374200  0.69261300  1
  O  O10  1  0.80699100  0.55374200  0.30738700  1
  O  O11  1  0.87474000  0.27134100  0.00000000  1
loop_
_geom_bond_atom_site_label_1
_geom_bond_atom_site_label_2
_geom_bond_distance
_geom_bond_site_symmetry_2
Mg0 O11 2.156384 1_555
Mg0 O6 2.221145 1_545
Mg0 O3 2.223397 1_555
Mg0 O4 2.223397 1_554
Mg0 O2 2.339719 1_545
Mg0 O1 2.339719 1_544
Mg1 O5 2.156384 1_655
Mg1 O0 2.221145 1_665
Mg1 O9 2.223397 1_555
Mg1 O10 2.223397 1_555
Mg1 O7 2.339719 1_565
Mg1 O8 2.339719 1_565
Mn0 O1 1.948953 1_645
Mn0 O7 1.950339 1_555
Mn0 O0 1.982766 1_655
Mn0 O4 2.003914 1_655
Mn0 O9 2.012772 1_555
Mn0 O11 2.019004 1_556
Mn1 O2 1.948953 1_645
Mn1 O8 1.950339 1_555
Mn1 O0 1.982766 1_655
Mn1 O3 2.003914 1_655
Mn1 O10 2.012772 1_555
Mn1 O11 2.019004 1_555
Mn2 O8 1.948953 1_565
Mn2 O2 1.950339 1_555
Mn2 O6 1.982766 1_555
Mn2 O10 2.003914 1_555
Mn2 O3 2.012772 1_555
Mn2 O5 2.019004 1_555
Mn3 O7 1.948953 1_565
Mn3 O1 1.950339 1_555
Mn3 O6 1.982766 1_556
Mn3 O9 2.003914 1_555
Mn3 O4 2.012772 1_555
Mn3 O5 2.019004 1_555
O0 Pr1 2.345110 1_555
O1 Pr0 2.381357 1_556
O2 Pr0 2.381357 1_555
O3 Pr0 2.585736 1_555
O3 Pr1 2.721022 1_555
O4 Pr0 2.585736 1_556
O4 Pr1 2.721022 1_555
O5 Pr1 2.491404 1_555
O6 Pr0 2.345110 1_655
O7 Pr1 2.381357 1_555
O8 Pr1 2.381357 1_555
O9 Pr1 2.585736 1_555
O9 Pr0 2.721022 1_656
O10 Pr1 2.585736 1_555
O10 Pr0 2.721022 1_655
O11 Pr0 2.491404 1_655
