# generated using pymatgen
data_Sr2NbFeO6
_symmetry_space_group_name_H-M   'P 1'
_cell_length_a   4.04567300
_cell_length_b   5.69721400
_cell_length_c   5.69721400
_cell_angle_alpha   90.00000000
_cell_angle_beta   90.00000000
_cell_angle_gamma   90.00000000
_symmetry_Int_Tables_number   1
_chemical_formula_structural   Sr2NbFeO6
_chemical_formula_sum   'Sr2 Nb1 Fe1 O6'
_cell_volume   131.31545498
_cell_formula_units_Z   1
loop_
 _symmetry_equiv_pos_site_id
 _symmetry_equiv_pos_as_xyz
  1  'x, y, z'
loop_
 _atom_site_type_symbol
 _atom_site_label
 _atom_site_symmetry_multiplicity
 _atom_site_fract_x
 _atom_site_fract_y
 _atom_site_fract_z
 _atom_site_occupancy
  Sr  Sr0  1  0.50000000  0.50000000  0.00000000  1
  Sr  Sr1  1  0.50000000  0.00000000  0.50000000  1
  Nb  Nb0  1  0.00000000  0.50000000  0.50000000  1
  Fe  Fe0  1  0.00000000  0.00000000  0.00000000  1
  O  O0  1  0.50000000  0.00000000  0.00000000  1
  O  O1  1  0.50000000  0.50000000  0.50000000  1
  O  O2  1  0.00000000  0.74619200  0.74619200  1
  O  O3  1  0.00000000  0.25380800  0.25380800  1
  O  O4  1  0.00000000  0.25380800  0.74619200  1
  O  O5  1  0.00000000  0.74619200  0.25380800  1
loop_
_geom_bond_atom_site_label_1
_geom_bond_atom_site_label_2
_geom_bond_distance
_geom_bond_site_symmetry_2
Nb0 O2 1.983588 1_555
Nb0 O5 1.983588 1_555
Nb0 O4 1.983588 1_555
Nb0 O3 1.983588 1_555
Nb0 O1 2.022836 1_455
Nb0 O1 2.022836 1_555
Fe0 O0 2.022836 1_455
Fe0 O0 2.022836 1_555
Fe0 O3 2.044951 1_555
Fe0 O2 2.044951 1_544
Fe0 O5 2.044951 1_545
Fe0 O4 2.044951 1_554
O0 Sr0 2.848607 1_555
O0 Sr1 2.848607 1_554
O0 Sr1 2.848607 1_555
O0 Sr0 2.848607 1_545
O1 Sr0 2.848607 1_555
O1 Sr0 2.848607 1_556
O1 Sr1 2.848607 1_555
O1 Sr1 2.848607 1_565
O2 Sr1 2.854836 1_565
O2 Sr1 2.854836 1_465
O2 Sr0 2.854836 1_456
O2 Sr0 2.854836 1_556
O3 Sr0 2.854836 1_555
O3 Sr0 2.854836 1_455
O3 Sr1 2.854836 1_455
O3 Sr1 2.854836 1_555
O4 Sr0 2.854836 1_456
O4 Sr0 2.854836 1_556
O4 Sr1 2.854836 1_455
O4 Sr1 2.854836 1_555
O5 Sr1 2.854836 1_565
O5 Sr1 2.854836 1_465
O5 Sr0 2.854836 1_555
O5 Sr0 2.854836 1_455
