# generated using pymatgen
data_CaTi2(PO4)2
_symmetry_space_group_name_H-M   'P 1'
_cell_length_a   9.13108959
_cell_length_b   9.13108959
_cell_length_c   17.03203469
_cell_angle_alpha   62.90435315
_cell_angle_beta   62.90435315
_cell_angle_gamma   32.03079366
_symmetry_Int_Tables_number   1
_chemical_formula_structural   CaTi2(PO4)2
_chemical_formula_sum   'Ca4 Ti8 P8 O32'
_cell_volume   663.24055840
_cell_formula_units_Z   4
loop_
 _symmetry_equiv_pos_site_id
 _symmetry_equiv_pos_as_xyz
  1  'x, y, z'
loop_
 _atom_site_type_symbol
 _atom_site_label
 _atom_site_symmetry_multiplicity
 _atom_site_fract_x
 _atom_site_fract_y
 _atom_site_fract_z
 _atom_site_occupancy
  Ca  Ca0  1  0.47453500  0.83109300  0.85912800  1
  Ca  Ca1  1  0.16890700  0.52546500  0.64087200  1
  Ca  Ca2  1  0.83109300  0.47453500  0.35912800  1
  Ca  Ca3  1  0.52546500  0.16890700  0.14087200  1
  Ti  Ti0  1  0.19324900  0.61675800  0.95564600  1
  Ti  Ti1  1  0.38324200  0.80675100  0.54435400  1
  Ti  Ti2  1  0.80675100  0.38324200  0.04435400  1
  Ti  Ti3  1  0.50000000  0.00000000  0.00000000  1
  Ti  Ti4  1  0.61675800  0.19324900  0.45564600  1
  Ti  Ti5  1  0.67805800  0.32194200  0.25000000  1
  Ti  Ti6  1  0.32194200  0.67805800  0.75000000  1
  Ti  Ti7  1  0.00000000  0.50000000  0.50000000  1
  P  P0  1  0.04225800  0.51990600  0.86348400  1
  P  P1  1  0.76667900  0.19948500  0.61185300  1
  P  P2  1  0.95774200  0.48009400  0.13651600  1
  P  P3  1  0.19948500  0.76667900  0.11185300  1
  P  P4  1  0.51990600  0.04225800  0.36348400  1
  P  P5  1  0.48009400  0.95774200  0.63651600  1
  P  P6  1  0.23332100  0.80051500  0.38814700  1
  P  P7  1  0.80051500  0.23332100  0.88814700  1
  O  O0  1  0.70025400  0.80046000  0.10968600  1
  O  O1  1  0.81877600  0.33578600  0.93080100  1
  O  O2  1  0.80046000  0.70025400  0.60968600  1
  O  O3  1  0.80250900  0.35777100  0.54108300  1
  O  O4  1  0.20243800  0.35540200  0.05594400  1
  O  O5  1  0.55204400  0.34805300  0.69350000  1
  O  O6  1  0.64222900  0.19749100  0.95891700  1
  O  O7  1  0.89357200  0.06138700  0.13767500  1
  O  O8  1  0.19749100  0.64222900  0.45891700  1
  O  O9  1  0.66421400  0.18122400  0.56919900  1
  O  O10  1  0.89273000  0.35796900  0.14876900  1
  O  O11  1  0.61106900  0.93709400  0.28287700  1
  O  O12  1  0.18122400  0.66421400  0.06919900  1
  O  O13  1  0.06138700  0.89357200  0.63767500  1
  O  O14  1  0.29974600  0.19954000  0.89031400  1
  O  O15  1  0.10727000  0.64203100  0.85123100  1
  O  O16  1  0.93709400  0.61106900  0.78287700  1
  O  O17  1  0.35777100  0.80250900  0.04108300  1
  O  O18  1  0.35796900  0.89273000  0.64876900  1
  O  O19  1  0.38893100  0.06290600  0.71712300  1
  O  O20  1  0.93861300  0.10642800  0.36232500  1
  O  O21  1  0.35540200  0.20243800  0.55594400  1
  O  O22  1  0.10642800  0.93861300  0.86232500  1
  O  O23  1  0.34805300  0.55204400  0.19350000  1
  O  O24  1  0.33578600  0.81877600  0.43080100  1
  O  O25  1  0.19954000  0.29974600  0.39031400  1
  O  O26  1  0.06290600  0.38893100  0.21712300  1
  O  O27  1  0.64459800  0.79756200  0.44405600  1
  O  O28  1  0.79756200  0.64459800  0.94405600  1
  O  O29  1  0.65194700  0.44795600  0.80650000  1
  O  O30  1  0.44795600  0.65194700  0.30650000  1
  O  O31  1  0.64203100  0.10727000  0.35123100  1
loop_
_geom_bond_atom_site_label_1
_geom_bond_atom_site_label_2
_geom_bond_distance
_geom_bond_site_symmetry_2
Ca0 O19 2.279132 1_565
Ca0 O14 2.428897 1_565
Ca0 O1 2.487457 1_555
Ca0 O22 2.559578 1_555
Ca0 O16 2.560225 1_555
Ca0 O28 2.611256 1_555
Ca0 O17 2.744832 1_556
Ca0 O29 2.755294 1_555
Ca1 O16 2.279132 1_455
Ca1 O2 2.428897 1_455
Ca1 O9 2.487457 1_555
Ca1 O13 2.559578 1_555
Ca1 O19 2.560225 1_555
Ca1 O21 2.611256 1_555
Ca1 O8 2.744832 1_555
Ca1 O5 2.755294 1_555
Ca2 O26 2.279132 1_655
Ca2 O25 2.428897 1_655
Ca2 O24 2.487457 1_555
Ca2 O20 2.559578 1_555
Ca2 O11 2.560225 1_555
Ca2 O27 2.611256 1_555
Ca2 O3 2.744832 1_555
Ca2 O30 2.755294 1_555
Ca3 O11 2.279132 1_545
Ca3 O0 2.428897 1_545
Ca3 O12 2.487457 1_555
Ca3 O7 2.559578 1_555
Ca3 O26 2.560225 1_555
Ca3 O4 2.611256 1_555
Ca3 O6 2.744832 1_554
Ca3 O23 2.755294 1_555
O0 P2 1.547115 1_555
O0 Ti3 2.124997 1_565
O1 P7 1.557245 1_555
O1 Ti2 2.104674 1_556
O2 P5 1.547115 1_555
O2 Ti7 2.124997 1_655
O3 P1 1.582528 1_555
O3 Ti1 2.206630 1_555
O3 Ti7 2.724290 1_655
O4 P2 1.577552 1_455
O4 Ti3 2.080851 1_555
O4 Ti0 2.167442 1_554
O5 P1 1.530698 1_555
O5 Ti6 2.117912 1_555
O6 P7 1.582528 1_555
O6 Ti0 2.206630 1_555
O6 Ti3 2.724290 1_556
O7 P3 1.565752 1_645
O7 Ti2 2.175809 1_555
O7 Ti5 2.443655 1_555
O8 P6 1.582528 1_555
O8 Ti4 2.206630 1_555
O8 Ti7 2.724290 1_555
O9 P1 1.557245 1_555
O9 Ti4 2.104674 1_555
O10 P2 1.561096 1_555
O10 Ti5 2.102669 1_555
O10 Ti2 2.103126 1_555
O11 P4 1.518048 1_565
O12 P3 1.557245 1_555
O12 Ti0 2.104674 1_554
O13 P1 1.565752 1_465
O13 Ti1 2.175809 1_555
O13 Ti6 2.443655 1_555
O14 P0 1.547115 1_555
O14 Ti3 2.124997 1_556
O15 P0 1.561096 1_555
O15 Ti6 2.102669 1_555
O15 Ti0 2.103126 1_555
O16 P0 1.518048 1_655
O17 P3 1.582528 1_555
O17 Ti2 2.206630 1_555
O17 Ti3 2.724290 1_565
O18 P5 1.561096 1_555
O18 Ti6 2.102669 1_555
O18 Ti1 2.103126 1_555
O19 P5 1.518048 1_545
O20 P6 1.565752 1_645
O20 Ti4 2.175809 1_555
O20 Ti5 2.443655 1_555
O21 P5 1.577552 1_545
O21 Ti7 2.080851 1_555
O21 Ti4 2.167442 1_555
O22 P7 1.565752 1_465
O22 Ti0 2.175809 1_555
O22 Ti6 2.443655 1_555
O23 P3 1.530698 1_555
O23 Ti5 2.117912 1_555
O24 P6 1.557245 1_555
O24 Ti1 2.104674 1_555
O25 P4 1.547115 1_555
O25 Ti7 2.124997 1_555
O26 P2 1.518048 1_455
O27 P4 1.577552 1_565
O27 Ti7 2.080851 1_655
O27 Ti1 2.167442 1_555
O28 P0 1.577552 1_655
O28 Ti3 2.080851 1_566
O28 Ti2 2.167442 1_556
O29 P7 1.530698 1_555
O29 Ti6 2.117912 1_555
O30 P6 1.530698 1_555
O30 Ti5 2.117912 1_555
O31 P4 1.561096 1_555
O31 Ti5 2.102669 1_555
O31 Ti4 2.103126 1_555
