# generated using pymatgen
data_KDyTiO4
_symmetry_space_group_name_H-M   'P 1'
_cell_length_a   5.39346700
_cell_length_b   5.51555100
_cell_length_c   12.92454600
_cell_angle_alpha   90.00000000
_cell_angle_beta   90.00000000
_cell_angle_gamma   90.00000000
_symmetry_Int_Tables_number   1
_chemical_formula_structural   KDyTiO4
_chemical_formula_sum   'K4 Dy4 Ti4 O16'
_cell_volume   384.47864873
_cell_formula_units_Z   4
loop_
 _symmetry_equiv_pos_site_id
 _symmetry_equiv_pos_as_xyz
  1  'x, y, z'
loop_
 _atom_site_type_symbol
 _atom_site_label
 _atom_site_symmetry_multiplicity
 _atom_site_fract_x
 _atom_site_fract_y
 _atom_site_fract_z
 _atom_site_occupancy
  K  K0  1  0.25000000  0.47771100  0.59508600  1
  K  K1  1  0.75000000  0.52228900  0.40491400  1
  K  K2  1  0.25000000  0.97771100  0.40491400  1
  K  K3  1  0.75000000  0.02228900  0.59508600  1
  Dy  Dy0  1  0.25000000  0.97215700  0.10168200  1
  Dy  Dy1  1  0.75000000  0.02784300  0.89831800  1
  Dy  Dy2  1  0.25000000  0.47215700  0.89831800  1
  Dy  Dy3  1  0.75000000  0.52784300  0.10168200  1
  Ti  Ti0  1  0.25000000  0.49159800  0.24495600  1
  Ti  Ti1  1  0.75000000  0.50840200  0.75504400  1
  Ti  Ti2  1  0.25000000  0.99159800  0.75504400  1
  Ti  Ti3  1  0.75000000  0.00840200  0.24495600  1
  O  O0  1  0.25000000  0.96043100  0.61959000  1
  O  O1  1  0.75000000  0.03956900  0.38041000  1
  O  O2  1  0.25000000  0.46043100  0.38041000  1
  O  O3  1  0.75000000  0.53956900  0.61959000  1
  O  O4  1  0.00000000  0.75000000  0.80127700  1
  O  O5  1  0.00000000  0.25000000  0.19872300  1
  O  O6  1  0.50000000  0.25000000  0.19872300  1
  O  O7  1  0.50000000  0.75000000  0.80127700  1
  O  O8  1  0.00000000  0.75000000  0.22860200  1
  O  O9  1  0.00000000  0.25000000  0.77139800  1
  O  O10  1  0.50000000  0.25000000  0.77139800  1
  O  O11  1  0.50000000  0.75000000  0.22860200  1
  O  O12  1  0.25000000  0.57174700  0.06058600  1
  O  O13  1  0.75000000  0.42825300  0.93941400  1
  O  O14  1  0.25000000  0.07174700  0.93941400  1
  O  O15  1  0.75000000  0.92825300  0.06058600  1
loop_
_geom_bond_atom_site_label_1
_geom_bond_atom_site_label_2
_geom_bond_distance
_geom_bond_site_symmetry_2
K0 O0 2.681237 1_555
K0 O3 2.736618 1_455
K0 O3 2.736618 1_555
K0 O2 2.776226 1_555
K0 O0 2.870608 1_545
K0 O9 2.930567 1_555
K0 O10 2.930567 1_555
K1 O1 2.681237 1_555
K1 O2 2.736618 1_555
K1 O2 2.736618 1_655
K1 O3 2.776226 1_555
K1 O1 2.870608 1_565
K1 O8 2.930567 1_655
K1 O11 2.930567 1_555
K2 O2 2.681237 1_565
K2 O1 2.736618 1_565
K2 O1 2.736618 1_465
K2 O0 2.776226 1_555
K2 O2 2.870608 1_555
K2 O8 2.930567 1_555
K2 O11 2.930567 1_555
K3 O3 2.681237 1_545
K3 O0 2.736618 1_545
K3 O0 2.736618 1_645
K3 O1 2.776226 1_555
K3 O3 2.870608 1_555
K3 O9 2.930567 1_655
K3 O10 2.930567 1_555
Dy0 O14 2.167981 1_564
Dy0 O12 2.271455 1_555
Dy0 O5 2.395739 1_565
Dy0 O6 2.395739 1_565
Dy0 O11 2.451603 1_555
Dy0 O8 2.451603 1_555
Dy0 O15 2.759190 1_455
Dy0 O15 2.759190 1_555
Dy1 O15 2.167981 1_546
Dy1 O13 2.271455 1_555
Dy1 O7 2.395739 1_545
Dy1 O4 2.395739 1_645
Dy1 O9 2.451603 1_655
Dy1 O10 2.451603 1_555
Dy1 O14 2.759190 1_555
Dy1 O14 2.759190 1_655
Dy2 O12 2.167981 1_556
Dy2 O14 2.271455 1_555
Dy2 O4 2.395739 1_555
Dy2 O7 2.395739 1_555
Dy2 O9 2.451603 1_555
Dy2 O10 2.451603 1_555
Dy2 O13 2.759190 1_555
Dy2 O13 2.759190 1_455
Dy3 O13 2.167981 1_554
Dy3 O15 2.271455 1_555
Dy3 O5 2.395739 1_655
Dy3 O6 2.395739 1_555
Dy3 O11 2.451603 1_555
Dy3 O8 2.451603 1_655
Dy3 O12 2.759190 1_555
Dy3 O12 2.759190 1_655
O0 Ti2 1.759101 1_555
O1 Ti3 1.759101 1_555
O2 Ti0 1.759101 1_555
O3 Ti1 1.759101 1_555
O4 Ti1 1.987669 1_455
O4 Ti2 1.987669 1_555
O5 Ti0 1.987669 1_555
O5 Ti3 1.987669 1_455
O6 Ti0 1.987669 1_555
O6 Ti3 1.987669 1_555
O7 Ti2 1.987669 1_555
O7 Ti1 1.987669 1_555
O8 Ti0 1.973334 1_555
O8 Ti3 1.973334 1_465
O9 Ti2 1.973334 1_545
O9 Ti1 1.973334 1_455
O10 Ti2 1.973334 1_545
O10 Ti1 1.973334 1_555
O11 Ti3 1.973334 1_565
O11 Ti0 1.973334 1_555
O12 Ti0 2.423557 1_555
O13 Ti1 2.423557 1_555
O14 Ti2 2.423557 1_545
O15 Ti3 2.423557 1_565
