# generated using pymatgen
data_Li3Mn3CoO8
_symmetry_space_group_name_H-M   'P 1'
_cell_length_a   5.83127536
_cell_length_b   6.01565526
_cell_length_c   10.44969262
_cell_angle_alpha   106.53694266
_cell_angle_beta   108.38768157
_cell_angle_gamma   59.04239789
_symmetry_Int_Tables_number   1
_chemical_formula_structural   Li3Mn3CoO8
_chemical_formula_sum   'Li6 Mn6 Co2 O16'
_cell_volume   294.90532792
_cell_formula_units_Z   2
loop_
 _symmetry_equiv_pos_site_id
 _symmetry_equiv_pos_as_xyz
  1  'x, y, z'
loop_
 _atom_site_type_symbol
 _atom_site_label
 _atom_site_symmetry_multiplicity
 _atom_site_fract_x
 _atom_site_fract_y
 _atom_site_fract_z
 _atom_site_occupancy
  Li  Li0  1  0.76099400  0.24249400  0.24334600  1
  Li  Li1  1  0.23900600  0.75751900  0.75658600  1
  Li  Li2  1  0.24485800  0.24694000  0.25271500  1
  Li  Li3  1  0.75515100  0.75298400  0.74727600  1
  Li  Li4  1  0.25329600  0.75694400  0.24770100  1
  Li  Li5  1  0.74672200  0.24309600  0.75228900  1
  Mn  Mn0  1  0.00013300  0.50000000  0.49999400  1
  Mn  Mn1  1  0.99990300  0.99979000  0.50002400  1
  Mn  Mn2  1  0.99987900  0.50026100  0.99994800  1
  Mn  Mn3  1  0.50005400  0.99995700  0.99994000  1
  Mn  Mn4  1  0.49979500  0.50037700  0.00004100  1
  Mn  Mn5  1  0.49982900  0.99991800  0.50005700  1
  Co  Co0  1  0.99997500  0.00013600  0.99999000  1
  Co  Co1  1  0.50008500  0.49979800  0.49995200  1
  O  O0  1  0.36399400  0.40053100  0.11427600  1
  O  O1  1  0.85135800  0.88624100  0.62252900  1
  O  O2  1  0.14893200  0.11330100  0.37752200  1
  O  O3  1  0.63557700  0.59976400  0.88565300  1
  O  O4  1  0.86624600  0.34457700  0.10975300  1
  O  O5  1  0.37278800  0.87608400  0.60627900  1
  O  O6  1  0.37460300  0.85701300  0.10242600  1
  O  O7  1  0.86657000  0.36909000  0.60394100  1
  O  O8  1  0.87395800  0.87441300  0.10201800  1
  O  O9  1  0.37308700  0.35420400  0.60477600  1
  O  O10  1  0.62728500  0.64545800  0.39530400  1
  O  O11  1  0.12625500  0.12570900  0.89796000  1
  O  O12  1  0.13354800  0.63064000  0.39599900  1
  O  O13  1  0.62540500  0.14338800  0.89764100  1
  O  O14  1  0.62713000  0.12372900  0.39387000  1
  O  O15  1  0.13358300  0.65564500  0.89019800  1
loop_
_geom_bond_atom_site_label_1
_geom_bond_atom_site_label_2
_geom_bond_distance
_geom_bond_site_symmetry_2
Li0 O4 2.029525 1_555
Li0 O2 2.120807 1_655
Li0 O0 2.139632 1_555
Li0 O8 2.183908 1_545
Li0 O14 2.362624 1_555
Li0 O10 2.377176 1_555
Li1 O15 2.029549 1_555
Li1 O1 2.119126 1_455
Li1 O3 2.137868 1_555
Li1 O11 2.184586 1_565
Li1 O5 2.359554 1_555
Li1 O9 2.377859 1_555
Li2 O2 2.044475 1_555
Li2 O4 2.129709 1_455
Li2 O14 2.131261 1_555
Li2 O12 2.257281 1_555
Li2 O6 2.316828 1_545
Li2 O0 2.341883 1_555
Li3 O1 2.043417 1_555
Li3 O15 2.128916 1_655
Li3 O5 2.130840 1_555
Li3 O7 2.258309 1_555
Li3 O13 2.319089 1_565
Li3 O3 2.341511 1_555
Li4 O2 2.080717 1_565
Li4 O0 2.097566 1_555
Li4 O10 2.132329 1_555
Li4 O8 2.142353 1_455
Li4 O6 2.191603 1_555
Li4 O12 2.316286 1_555
Li5 O1 2.082459 1_545
Li5 O3 2.098280 1_555
Li5 O9 2.130575 1_555
Li5 O11 2.143019 1_655
Li5 O13 2.190961 1_555
Li5 O7 2.315876 1_555
Mn0 O10 1.943350 1_455
Mn0 O9 1.944186 1_555
Mn0 O12 2.013055 1_555
Mn0 O7 2.014528 1_455
Mn0 O1 2.173522 1_455
Mn0 O2 2.175175 1_555
Mn1 O14 1.947746 1_565
Mn1 O5 1.948615 1_655
Mn1 O12 2.024893 1_655
Mn1 O7 2.025195 1_565
Mn1 O1 2.159106 1_555
Mn1 O2 2.161043 1_665
Mn2 O0 1.947457 1_656
Mn2 O3 1.948247 1_555
Mn2 O8 2.042043 1_556
Mn2 O11 2.043505 1_655
Mn2 O15 2.172794 1_655
Mn2 O4 2.174305 1_556
Mn3 O11 1.938073 1_565
Mn3 O8 1.938887 1_556
Mn3 O6 2.021680 1_556
Mn3 O13 2.021984 1_565
Mn3 O3 2.201792 1_555
Mn3 O0 2.203597 1_566
Mn4 O15 1.939598 1_554
Mn4 O4 1.940275 1_555
Mn4 O6 1.963446 1_555
Mn4 O13 1.965042 1_554
Mn4 O3 1.975884 1_554
Mn4 O0 1.976541 1_555
Mn5 O2 1.923539 1_565
Mn5 O1 1.925725 1_555
Mn5 O9 1.961636 1_565
Mn5 O10 1.962513 1_555
Mn5 O5 1.973084 1_555
Mn5 O14 1.973828 1_565
Co0 O4 1.940633 1_556
Co0 O15 1.940939 1_645
Co0 O13 1.942085 1_555
Co0 O6 1.942606 1_646
Co0 O8 1.942618 1_546
Co0 O11 1.943119 1_655
Co1 O7 1.912771 1_555
Co1 O12 1.912865 1_555
Co1 O10 2.059045 1_555
Co1 O9 2.059272 1_555
Co1 O14 2.064434 1_555
Co1 O5 2.066240 1_555
