# generated using pymatgen
data_CeSbPd
_symmetry_space_group_name_H-M   'P 1'
_cell_length_a   5.18712041
_cell_length_b   5.18463500
_cell_length_c   5.74334708
_cell_angle_alpha   90.00000000
_cell_angle_beta   90.00954349
_cell_angle_gamma   60.01584250
_symmetry_Int_Tables_number   1
_chemical_formula_structural   CeSbPd
_chemical_formula_sum   'Ce2 Sb2 Pd2'
_cell_volume   133.78564309
_cell_formula_units_Z   2
loop_
 _symmetry_equiv_pos_site_id
 _symmetry_equiv_pos_as_xyz
  1  'x, y, z'
loop_
 _atom_site_type_symbol
 _atom_site_label
 _atom_site_symmetry_multiplicity
 _atom_site_fract_x
 _atom_site_fract_y
 _atom_site_fract_z
 _atom_site_occupancy
  Ce  Ce0  1  0.99981000  0.00009500  0.74102100  1
  Ce  Ce1  1  0.00019000  0.99990500  0.25897900  1
  Sb  Sb0  1  0.66680400  0.66659800  0.00413800  1
  Sb  Sb1  1  0.33319600  0.33340200  0.99586200  1
  Pd  Pd0  1  0.33273700  0.33363200  0.49871100  1
  Pd  Pd1  1  0.66726300  0.66636800  0.50128900  1
loop_
_geom_bond_atom_site_label_1
_geom_bond_atom_site_label_2
_geom_bond_distance
_geom_bond_site_symmetry_2
Ce0 Ce1 2.768535 1_645
Ce0 Ce1 2.974813 1_646
Ce0 Pd1 3.293538 1_555
Ce0 Pd1 3.293542 1_545
Ce0 Pd1 3.300018 1_645
Ce0 Pd0 3.300769 1_645
Ce0 Pd0 3.300774 1_655
Ce0 Pd0 3.304192 1_555
Ce0 Sb1 3.332434 1_645
Ce0 Sb1 3.332435 1_655
Ce0 Sb1 3.333784 1_555
Ce0 Sb0 3.353076 1_556
Ce0 Sb0 3.353076 1_546
Ce0 Sb0 3.355937 1_646
Ce1 Pd0 3.293538 1_555
Ce1 Pd0 3.293542 1_565
Ce1 Pd0 3.300018 1_465
Ce1 Pd1 3.300769 1_465
Ce1 Pd1 3.300774 1_455
Ce1 Pd1 3.304192 1_555
Ce1 Sb0 3.332434 1_465
Ce1 Sb0 3.332435 1_455
Ce1 Sb0 3.333784 1_555
Ce1 Sb1 3.353076 1_554
Ce1 Sb1 3.353076 1_564
Ce1 Sb1 3.355937 1_464
Sb0 Sb1 2.994416 1_654
Sb0 Sb1 2.994819 1_564
Sb0 Sb1 2.994819 1_554
Pd0 Sb1 2.855311 1_555
Pd0 Sb1 2.888037 1_554
Pd0 Pd1 2.989944 1_455
Pd0 Pd1 2.996544 1_555
Pd0 Pd1 2.996552 1_545
Pd1 Sb0 2.855311 1_555
Pd1 Sb0 2.888037 1_556
