# generated using pymatgen
data_Zr2Al3Ni
_symmetry_space_group_name_H-M   'P 1'
_cell_length_a   5.12401385
_cell_length_b   5.12401385
_cell_length_c   5.12401453
_cell_angle_alpha   61.92414907
_cell_angle_beta   61.92414907
_cell_angle_gamma   61.92414226
_symmetry_Int_Tables_number   1
_chemical_formula_structural   Zr2Al3Ni
_chemical_formula_sum   'Zr2 Al3 Ni1'
_cell_volume   99.22614306
_cell_formula_units_Z   1
loop_
 _symmetry_equiv_pos_site_id
 _symmetry_equiv_pos_as_xyz
  1  'x, y, z'
loop_
 _atom_site_type_symbol
 _atom_site_label
 _atom_site_symmetry_multiplicity
 _atom_site_fract_x
 _atom_site_fract_y
 _atom_site_fract_z
 _atom_site_occupancy
  Zr  Zr0  1  0.62641094  0.62641094  0.62641094  1
  Zr  Zr1  1  0.37358906  0.37358906  0.37358906  1
  Al  Al0  1  0.00000000  0.50000000  -0.00000000  1
  Al  Al1  1  0.50000000  0.00000000  -0.00000000  1
  Al  Al2  1  0.00000000  0.00000000  0.50000000  1
  Ni  Ni0  1  0.00000000  0.00000000  -0.00000000  1
loop_
_geom_bond_atom_site_label_1
_geom_bond_atom_site_label_2
_geom_bond_distance
_geom_bond_site_symmetry_2
Zr0 Zr1 3.126293 1_555
Zr0 Zr1 3.202641 1_565
Zr0 Zr1 3.202641 1_655
Zr0 Zr1 3.202642 1_556
Al0 Ni0 2.562007 1_555
Al0 Ni0 2.562007 1_565
Al0 Al1 2.636154 1_555
Al0 Al1 2.636154 1_465
Al0 Al2 2.636155 1_555
Al0 Al2 2.636155 1_564
Al0 Zr1 2.977159 1_555
Al0 Zr0 2.977159 1_454
Al0 Zr0 3.064757 1_554
Al0 Zr1 3.064757 1_455
Al0 Zr1 3.064758 1_554
Al0 Zr0 3.064758 1_455
Al1 Ni0 2.562007 1_555
Al1 Ni0 2.562007 1_655
Al1 Al2 2.636155 1_555
Al1 Al2 2.636155 1_654
Al1 Zr1 2.977159 1_555
Al1 Zr0 2.977159 1_544
Al1 Zr0 3.064757 1_554
Al1 Zr1 3.064757 1_545
Al1 Zr1 3.064758 1_554
Al1 Zr0 3.064758 1_545
Al2 Ni0 2.562007 1_556
Al2 Ni0 2.562007 1_555
Al2 Zr1 2.977159 1_555
Al2 Zr0 2.977159 1_445
Al2 Zr0 3.064757 1_545
Al2 Zr0 3.064757 1_455
Al2 Zr1 3.064757 1_455
Al2 Zr1 3.064757 1_545
Ni0 Zr1 3.084402 1_455
Ni0 Zr1 3.084402 1_545
Ni0 Zr0 3.084402 1_544
Ni0 Zr0 3.084402 1_454
Ni0 Zr1 3.084403 1_554
Ni0 Zr0 3.084403 1_445
