# generated using pymatgen
data_Mg5Si9
_symmetry_space_group_name_H-M   'P 1'
_cell_length_a   5.71584500
_cell_length_b   6.71580760
_cell_length_c   13.75459306
_cell_angle_alpha   82.95182021
_cell_angle_beta   82.65531800
_cell_angle_gamma   74.96592093
_symmetry_Int_Tables_number   1
_chemical_formula_structural   Mg5Si9
_chemical_formula_sum   'Mg10 Si18'
_cell_volume   503.52008557
_cell_formula_units_Z   2
loop_
 _symmetry_equiv_pos_site_id
 _symmetry_equiv_pos_as_xyz
  1  'x, y, z'
loop_
 _atom_site_type_symbol
 _atom_site_label
 _atom_site_symmetry_multiplicity
 _atom_site_fract_x
 _atom_site_fract_y
 _atom_site_fract_z
 _atom_site_occupancy
  Mg  Mg0  1  0.01715100  0.52642700  0.69929900  1
  Mg  Mg1  1  0.03781200  0.13822000  0.39923800  1
  Mg  Mg2  1  0.59854100  0.86391200  0.53649200  1
  Mg  Mg3  1  0.49810600  0.24980600  0.37361600  1
  Mg  Mg4  1  0.63983300  0.33006700  0.59710100  1
  Mg  Mg5  1  0.15813700  0.63759900  0.46616000  1
  Mg  Mg6  1  0.94444600  0.40103300  0.01135600  1
  Mg  Mg7  1  0.15056500  0.73620000  0.87810800  1
  Mg  Mg8  1  0.48339800  0.18704100  0.15840700  1
  Mg  Mg9  1  0.39644900  0.00276100  0.98197800  1
  Si  Si0  1  0.24534800  0.63175900  0.09702900  1
  Si  Si1  1  0.68861200  0.69522900  0.87047400  1
  Si  Si2  1  0.90945000  0.86065200  0.30495900  1
  Si  Si3  1  0.30145300  0.99348900  0.70976600  1
  Si  Si4  1  0.47921200  0.85196500  0.31529700  1
  Si  Si5  1  0.72012300  0.04296500  0.77594300  1
  Si  Si6  1  0.80102600  0.39202500  0.22546600  1
  Si  Si7  1  0.37136300  0.32972200  0.82336200  1
  Si  Si8  1  0.04282700  0.07456500  0.16088300  1
  Si  Si9  1  0.98190800  0.95146100  0.61412400  1
  Si  Si10  1  0.03059100  0.15666400  0.84997500  1
  Si  Si11  1  0.88451100  0.89627200  0.04953500  1
  Si  Si12  1  0.12977200  0.50595800  0.26914000  1
  Si  Si13  1  0.52291400  0.63274800  0.72396000  1
  Si  Si14  1  0.58465000  0.72351700  0.15338400  1
  Si  Si15  1  0.47741300  0.40277100  0.97598000  1
  Si  Si16  1  0.21382600  0.22723000  0.55827400  1
  Si  Si17  1  0.69050000  0.55804500  0.42052700  1
loop_
_geom_bond_atom_site_label_1
_geom_bond_atom_site_label_2
_geom_bond_distance
_geom_bond_site_symmetry_2
Mg0 Si13 2.715401 1_455
Mg0 Si7 2.774656 1_555
Mg0 Si16 2.879401 1_555
Mg0 Si9 2.915875 1_455
Mg0 Si1 2.962285 1_455
Mg0 Si10 3.024304 1_555
Mg0 Si13 3.219162 1_555
Mg0 Mg7 3.240718 1_555
Mg1 Si2 2.690871 1_445
Mg1 Si16 2.711113 1_555
Mg1 Si4 2.945823 1_545
Mg1 Si12 2.987648 1_555
Mg1 Si6 3.013384 1_455
Mg1 Si17 3.020980 1_455
Mg1 Si9 3.076994 1_445
Mg2 Si17 2.658863 1_555
Mg2 Si9 2.776372 1_555
Mg2 Si3 2.833483 1_555
Mg2 Si16 2.847130 1_565
Mg2 Si13 2.885593 1_555
Mg3 Si6 2.746043 1_555
Mg3 Si17 2.757004 1_555
Mg3 Si12 2.782942 1_555
Mg3 Si16 2.844726 1_555
Mg3 Si4 2.914028 1_545
Mg3 Mg8 3.055360 1_555
Mg4 Si17 2.732079 1_555
Mg4 Si13 2.736946 1_555
Mg4 Si9 2.781126 1_545
Mg4 Si16 2.826092 1_555
Mg4 Si5 2.940235 1_555
Mg4 Si16 3.161206 1_655
Mg5 Si2 2.840205 1_455
Mg5 Si16 2.844819 1_555
Mg5 Si17 2.947751 1_555
Mg5 Si12 2.987680 1_555
Mg5 Si9 3.004449 1_455
Mg5 Si17 3.012661 1_455
Mg5 Si4 3.067627 1_555
Mg6 Si15 2.770850 1_554
Mg6 Si8 2.811169 1_655
Mg6 Si10 2.838714 1_654
Mg6 Si1 2.843064 1_554
Mg6 Si6 2.951852 1_555
Mg6 Si0 3.016050 1_655
Mg6 Si15 3.025765 1_654
Mg6 Mg7 3.102418 1_654
Mg6 Si14 3.230565 1_555
Mg7 Si10 2.718217 1_565
Mg7 Si1 2.741097 1_455
Mg7 Si11 2.808050 1_456
Mg7 Si13 2.819291 1_555
Mg7 Si15 2.837186 1_555
Mg7 Si7 2.843574 1_555
Mg7 Si3 2.893368 1_555
Mg7 Si1 3.005047 1_555
Mg7 Si0 3.090997 1_556
Mg7 Mg9 3.109245 1_565
Mg7 Si5 3.133081 1_465
Mg8 Si15 2.738689 1_554
Mg8 Si8 2.805680 1_555
Mg8 Si6 2.842240 1_555
Mg8 Si4 2.923054 1_545
Mg8 Si12 2.959749 1_555
Mg8 Si11 2.971422 1_545
Mg8 Mg9 3.005330 1_554
Mg8 Si0 3.008457 1_555
Mg8 Si14 3.022915 1_545
Mg8 Si8 3.092719 1_655
Mg9 Si1 2.782041 1_545
Mg9 Si15 2.831690 1_555
Mg9 Si10 2.850763 1_555
Mg9 Si7 2.888413 1_555
Mg9 Si11 2.936311 1_546
Mg9 Si14 2.957923 1_546
Mg9 Si8 2.981143 1_556
Mg9 Si0 3.042606 1_546
Mg9 Si5 3.202760 1_555
Si0 Si14 2.421453 1_555
Si0 Si15 2.429406 1_554
Si0 Si11 2.448512 1_455
Si0 Si12 2.480575 1_555
Si1 Si13 2.456819 1_555
Si1 Si5 2.567094 1_565
Si1 Si15 2.739264 1_555
Si2 Si4 2.460518 1_555
Si2 Si8 2.460778 1_665
Si3 Si9 2.473689 1_455
Si3 Si5 2.776562 1_565
Si5 Si7 2.468237 1_555
Si5 Si9 2.564705 1_545
Si6 Si8 2.422171 1_655
Si10 Si5 2.474856 1_455
Si10 Si7 2.483224 1_555
Si10 Si3 2.488391 1_545
Si11 Si8 2.442278 1_665
Si11 Si14 2.514557 1_555
Si12 Si6 2.371601 1_455
Si12 Si2 2.464944 1_455
Si13 Si3 2.421967 1_555
Si13 Si7 2.586523 1_555
Si14 Si6 2.410843 1_555
Si14 Si4 2.434271 1_555
Si15 Si7 2.397307 1_555
Si16 Si3 2.472468 1_545
Si16 Si9 2.538000 1_445
Si17 Si4 2.441076 1_555
