# generated using pymatgen
data_YMg14Sn
_symmetry_space_group_name_H-M   'P 1'
_cell_length_a   6.51695670
_cell_length_b   6.35832401
_cell_length_c   10.43319118
_cell_angle_alpha   90.00000000
_cell_angle_beta   90.00000000
_cell_angle_gamma   119.19800864
_symmetry_Int_Tables_number   1
_chemical_formula_structural   YMg14Sn
_chemical_formula_sum   'Y1 Mg14 Sn1'
_cell_volume   377.38841925
_cell_formula_units_Z   1
loop_
 _symmetry_equiv_pos_site_id
 _symmetry_equiv_pos_as_xyz
  1  'x, y, z'
loop_
 _atom_site_type_symbol
 _atom_site_label
 _atom_site_symmetry_multiplicity
 _atom_site_fract_x
 _atom_site_fract_y
 _atom_site_fract_z
 _atom_site_occupancy
  Y  Y0  1  0.16285670  0.33142785  0.12500000  1
  Mg  Mg0  1  0.16543681  0.33271790  0.62500000  1
  Mg  Mg1  1  0.16430910  0.83215405  0.62500000  1
  Mg  Mg2  1  0.66442192  0.32865566  0.12500000  1
  Mg  Mg3  1  0.66675041  0.33442384  0.62500000  1
  Mg  Mg4  1  0.66442192  0.83576527  0.12500000  1
  Mg  Mg5  1  0.66675041  0.83232557  0.62500000  1
  Mg  Mg6  1  0.33578243  0.16761407  0.38138145  1
  Mg  Mg7  1  0.33578243  0.16761407  0.86861855  1
  Mg  Mg8  1  0.33578243  0.66816936  0.38138145  1
  Mg  Mg9  1  0.33578243  0.66816936  0.86861855  1
  Mg  Mg10  1  0.83234073  0.16617087  0.38101227  1
  Mg  Mg11  1  0.83234073  0.16617087  0.86898773  1
  Mg  Mg12  1  0.83238910  0.66619505  0.37425801  1
  Mg  Mg13  1  0.83238910  0.66619505  0.87574199  1
  Sn  Sn0  1  0.17246334  0.83623117  0.12500000  1
loop_
_geom_bond_atom_site_label_1
_geom_bond_atom_site_label_2
_geom_bond_distance
_geom_bond_site_symmetry_2
Mg0 Mg6 3.151478 1_555
Mg0 Mg7 3.151478 1_555
Mg0 Mg8 3.151485 1_555
Mg0 Mg9 3.151485 1_555
Mg0 Mg11 3.173448 1_455
Mg0 Mg10 3.173448 1_455
Mg0 Mg1 3.179168 1_545
Mg0 Mg1 3.179169 1_555
Mg0 Mg5 3.255223 1_445
Mg0 Mg3 3.255223 1_455
Mg0 Mg5 3.261761 1_555
Mg0 Mg3 3.261761 1_555
Mg1 Mg9 3.151677 1_555
Mg1 Mg8 3.151677 1_555
Mg1 Mg6 3.151683 1_565
Mg1 Mg7 3.151683 1_565
Mg1 Mg13 3.226328 1_455
Mg1 Mg12 3.226328 1_455
Mg1 Mg3 3.243100 1_455
Mg1 Mg5 3.243101 1_455
Mg1 Mg3 3.273856 1_565
Mg1 Mg5 3.273856 1_555
Mg2 Mg4 3.133957 1_545
Mg2 Sn0 3.207519 1_545
Mg2 Mg4 3.224367 1_555
Mg2 Y0 3.239716 1_655
Mg2 Mg7 3.263556 1_554
Mg2 Mg6 3.263556 1_555
Mg2 Y0 3.277314 1_555
Mg2 Sn0 3.309440 1_655
Mg3 Mg6 3.163149 1_555
Mg3 Mg7 3.163149 1_555
Mg3 Mg5 3.165821 1_555
Mg3 Mg5 3.192503 1_545
Mg4 Sn0 3.207519 1_555
Mg4 Y0 3.239715 1_665
Mg4 Mg9 3.263556 1_554
Mg4 Mg8 3.263556 1_555
Mg4 Y0 3.277313 1_555
Mg4 Sn0 3.309440 1_655
Mg5 Mg8 3.163149 1_555
Mg5 Mg9 3.163149 1_555
Mg6 Mg8 3.175631 1_545
Mg6 Mg8 3.182693 1_555
Mg6 Sn0 3.246442 1_545
Mg6 Y0 3.264216 1_555
Mg7 Mg9 3.175631 1_545
Mg7 Mg9 3.182693 1_555
Mg7 Sn0 3.246442 1_546
Mg7 Y0 3.264216 1_556
Mg8 Sn0 3.246436 1_555
Mg8 Y0 3.264223 1_555
Mg9 Sn0 3.246436 1_556
Mg9 Y0 3.264223 1_556
Mg10 Mg3 3.148864 1_555
Mg10 Mg5 3.148871 1_545
Mg10 Mg12 3.179943 1_555
Mg10 Mg12 3.179943 1_545
Mg10 Mg8 3.240537 1_545
Mg10 Mg6 3.240538 1_555
Mg10 Mg2 3.240729 1_555
Mg10 Mg4 3.240735 1_545
Mg10 Y0 3.266467 1_655
Mg10 Mg8 3.276443 1_655
Mg10 Mg6 3.276443 1_655
Mg11 Mg3 3.148864 1_555
Mg11 Mg5 3.148871 1_545
Mg11 Mg13 3.179943 1_555
Mg11 Mg13 3.179943 1_545
Mg11 Mg9 3.240537 1_545
Mg11 Mg7 3.240538 1_555
Mg11 Mg2 3.240729 1_556
Mg11 Mg4 3.240735 1_546
Mg11 Y0 3.266467 1_656
Mg11 Mg9 3.276443 1_655
Mg11 Mg7 3.276443 1_655
Mg12 Mg5 3.199559 1_555
Mg12 Mg3 3.199566 1_555
Mg12 Mg4 3.205477 1_555
Mg12 Mg2 3.205484 1_555
Mg12 Sn0 3.241260 1_655
Mg12 Mg6 3.243358 1_555
Mg12 Mg8 3.243358 1_555
Mg12 Mg6 3.275330 1_665
Mg12 Mg8 3.275330 1_655
Mg13 Mg5 3.199559 1_555
Mg13 Mg3 3.199566 1_555
Mg13 Mg4 3.205477 1_556
Mg13 Mg2 3.205484 1_556
Mg13 Sn0 3.241260 1_656
Mg13 Mg7 3.243358 1_555
Mg13 Mg9 3.243358 1_555
Mg13 Mg7 3.275330 1_665
Mg13 Mg9 3.275330 1_655
Sn0 Y0 3.179632 1_555
Sn0 Y0 3.179632 1_565
