# generated using pymatgen
data_CaCoSn2O7
_symmetry_space_group_name_H-M   'P 1'
_cell_length_a   15.19226800
_cell_length_b   7.58155000
_cell_length_c   10.91183588
_cell_angle_alpha   72.19564326
_cell_angle_beta   90.00000000
_cell_angle_gamma   90.00000000
_symmetry_Int_Tables_number   1
_chemical_formula_structural   CaCoSn2O7
_chemical_formula_sum   'Ca8 Co8 Sn16 O56'
_cell_volume   1196.64081089
_cell_formula_units_Z   8
loop_
 _symmetry_equiv_pos_site_id
 _symmetry_equiv_pos_as_xyz
  1  'x, y, z'
loop_
 _atom_site_type_symbol
 _atom_site_label
 _atom_site_symmetry_multiplicity
 _atom_site_fract_x
 _atom_site_fract_y
 _atom_site_fract_z
 _atom_site_occupancy
  Ca  Ca0  1  0.52840700  0.92297600  0.77001800  1
  Ca  Ca1  1  0.88390400  0.69878400  0.95325300  1
  Ca  Ca2  1  0.38390400  0.30121600  0.54674700  1
  Ca  Ca3  1  0.11609600  0.30121600  0.04674700  1
  Ca  Ca4  1  0.61609600  0.69878400  0.45325300  1
  Ca  Ca5  1  0.97159300  0.92297600  0.27001800  1
  Ca  Ca6  1  0.47159300  0.07702400  0.22998200  1
  Ca  Ca7  1  0.02840700  0.07702400  0.72998200  1
  Co  Co0  1  0.65717400  0.36234000  0.09884200  1
  Co  Co1  1  0.15717400  0.63766000  0.40115800  1
  Co  Co2  1  0.34282600  0.63766000  0.90115800  1
  Co  Co3  1  0.84282600  0.36234000  0.59884200  1
  Co  Co4  1  0.75133000  0.02505100  0.25095800  1
  Co  Co5  1  0.25133000  0.97494900  0.24904200  1
  Co  Co6  1  0.24867000  0.97494900  0.74904200  1
  Co  Co7  1  0.74867000  0.02505100  0.75095800  1
  Sn  Sn0  1  0.87270700  0.17948400  0.96092500  1
  Sn  Sn1  1  0.02146200  0.59920500  0.68503300  1
  Sn  Sn2  1  0.47853800  0.59920500  0.18503300  1
  Sn  Sn3  1  0.97853800  0.40079500  0.31496700  1
  Sn  Sn4  1  0.72411100  0.52100900  0.77143800  1
  Sn  Sn5  1  0.22411100  0.47899100  0.72856200  1
  Sn  Sn6  1  0.27588900  0.47899100  0.22856200  1
  Sn  Sn7  1  0.77588900  0.52100900  0.27143800  1
  Sn  Sn8  1  0.52146200  0.40079500  0.81496700  1
  Sn  Sn9  1  0.15480400  0.14409600  0.43654700  1
  Sn  Sn10  1  0.65480400  0.85590400  0.06345300  1
  Sn  Sn11  1  0.84519600  0.85590400  0.56345300  1
  Sn  Sn12  1  0.37270700  0.82051600  0.53907500  1
  Sn  Sn13  1  0.62729300  0.17948400  0.46092500  1
  Sn  Sn14  1  0.12729300  0.82051600  0.03907500  1
  Sn  Sn15  1  0.34519600  0.14409600  0.93654700  1
  O  O0  1  0.00263100  0.15292700  0.94367600  1
  O  O1  1  0.50263100  0.84707300  0.55632400  1
  O  O2  1  0.99736900  0.84707300  0.05632400  1
  O  O3  1  0.49736900  0.15292700  0.44367600  1
  O  O4  1  0.83392500  0.99482900  0.87770600  1
  O  O5  1  0.33392500  0.00517100  0.62229400  1
  O  O6  1  0.16607500  0.00517100  0.12229400  1
  O  O7  1  0.66607500  0.99482900  0.37770600  1
  O  O8  1  0.84344900  0.02282700  0.13811600  1
  O  O9  1  0.34344900  0.97717300  0.36188400  1
  O  O10  1  0.15655100  0.97717300  0.86188400  1
  O  O11  1  0.65655100  0.02282700  0.63811600  1
  O  O12  1  0.28422600  0.39636800  0.91548200  1
  O  O13  1  0.78422600  0.60363200  0.58451800  1
  O  O14  1  0.71577400  0.60363200  0.08451800  1
  O  O15  1  0.21577400  0.39636800  0.41548200  1
  O  O16  1  0.33991200  0.03299900  0.12832800  1
  O  O17  1  0.83991200  0.96700100  0.37167200  1
  O  O18  1  0.66008800  0.96700100  0.87167200  1
  O  O19  1  0.16008800  0.03299900  0.62832800  1
  O  O20  1  0.33483300  0.90510100  0.88437500  1
  O  O21  1  0.44259400  0.62528700  0.81277000  1
  O  O22  1  0.83483300  0.09489900  0.61562500  1
  O  O23  1  0.16516700  0.90510100  0.38437500  1
  O  O24  1  0.48346600  0.23758300  0.71248900  1
  O  O25  1  0.98346600  0.76241700  0.78751100  1
  O  O26  1  0.51653400  0.76241700  0.28751100  1
  O  O27  1  0.01653400  0.23758300  0.21248900  1
  O  O28  1  0.46669500  0.21662700  0.97443800  1
  O  O29  1  0.96669500  0.78337300  0.52556200  1
  O  O30  1  0.53330500  0.78337300  0.02556200  1
  O  O31  1  0.03330500  0.21662700  0.47443800  1
  O  O32  1  0.89428200  0.56155100  0.17703200  1
  O  O33  1  0.39428200  0.43844900  0.32296800  1
  O  O34  1  0.10571800  0.43844900  0.82296800  1
  O  O35  1  0.60571800  0.56155100  0.67703200  1
  O  O36  1  0.74987500  0.27923000  0.22154200  1
  O  O37  1  0.24987500  0.72077000  0.27845800  1
  O  O38  1  0.25012500  0.72077000  0.77845800  1
  O  O39  1  0.75012500  0.27923000  0.72154200  1
  O  O40  1  0.67678100  0.43387600  0.41189800  1
  O  O41  1  0.17678100  0.56612400  0.08810200  1
  O  O42  1  0.32321900  0.56612400  0.58810200  1
  O  O43  1  0.82321900  0.43387600  0.91189800  1
  O  O44  1  0.71944600  0.77981400  0.25383500  1
  O  O45  1  0.21944600  0.22018600  0.24616500  1
  O  O46  1  0.28055400  0.22018600  0.74616500  1
  O  O47  1  0.78055400  0.77981400  0.75383500  1
  O  O48  1  0.86740800  0.43228300  0.41888300  1
  O  O49  1  0.36740800  0.56771700  0.08111700  1
  O  O50  1  0.13259200  0.56771700  0.58111700  1
  O  O51  1  0.63259200  0.43228300  0.91888300  1
  O  O52  1  0.05740600  0.62528700  0.31277000  1
  O  O53  1  0.55740600  0.37471300  0.18723000  1
  O  O54  1  0.94259400  0.37471300  0.68723000  1
  O  O55  1  0.66516700  0.09489900  0.11562500  1
loop_
_geom_bond_atom_site_label_1
_geom_bond_atom_site_label_2
_geom_bond_distance
_geom_bond_site_symmetry_2
Ca0 O18 2.360158 1_555
Ca0 O24 2.373560 1_565
Ca0 O11 2.401740 1_565
Ca0 O21 2.523326 1_555
Ca0 O1 2.596606 1_555
Ca0 O30 2.663907 1_556
Ca1 O4 2.272067 1_555
Ca1 O25 2.293011 1_555
Ca1 O32 2.348679 1_556
Ca1 O43 2.375201 1_555
Ca1 O2 2.504717 1_556
Ca1 O47 2.600045 1_555
Ca1 O14 2.909373 1_556
Ca2 O5 2.272067 1_555
Ca2 O24 2.293011 1_555
Ca2 O33 2.348679 1_555
Ca2 O42 2.375201 1_555
Ca2 O3 2.504717 1_555
Ca2 O46 2.600045 1_555
Ca2 O15 2.909373 1_555
Ca3 O6 2.272067 1_555
Ca3 O27 2.293011 1_555
Ca3 O34 2.348679 1_554
Ca3 O41 2.375201 1_555
Ca3 O0 2.504717 1_554
Ca3 O45 2.600045 1_555
Ca3 O12 2.909373 1_554
Ca4 O7 2.272067 1_555
Ca4 O26 2.293011 1_555
Ca4 O35 2.348679 1_555
Ca4 O40 2.375201 1_555
Ca4 O1 2.504717 1_555
Ca4 O44 2.600045 1_555
Ca4 O13 2.909373 1_555
Ca5 O17 2.360158 1_555
Ca5 O27 2.373560 1_665
Ca5 O8 2.401740 1_565
Ca5 O52 2.523326 1_655
Ca5 O2 2.596606 1_555
Ca5 O29 2.663907 1_555
Ca6 O16 2.360158 1_555
Ca6 O26 2.373560 1_545
Ca6 O9 2.401740 1_545
Ca6 O53 2.523326 1_555
Ca6 O3 2.596606 1_555
Ca6 O28 2.663907 1_554
Ca7 O19 2.360158 1_555
Ca7 O25 2.373560 1_445
Ca7 O10 2.401740 1_545
Ca7 O54 2.523326 1_455
Ca7 O0 2.596606 1_555
Ca7 O31 2.663907 1_555
Co0 O53 1.814303 1_555
Co0 O51 1.907859 1_554
Co0 O36 1.912365 1_555
Co0 O55 1.983037 1_555
Co0 O14 1.997181 1_555
Co1 O52 1.814303 1_555
Co1 O50 1.907859 1_555
Co1 O37 1.912365 1_555
Co1 O23 1.983037 1_555
Co1 O15 1.997181 1_555
Co2 O21 1.814303 1_555
Co2 O49 1.907859 1_556
Co2 O38 1.912365 1_555
Co2 O20 1.983037 1_555
Co2 O12 1.997181 1_555
Co3 O54 1.814303 1_555
Co3 O48 1.907859 1_555
Co3 O39 1.912365 1_555
Co3 O22 1.983037 1_555
Co3 O13 1.997181 1_555
Co4 O17 1.839918 1_545
Co4 O36 1.854414 1_555
Co4 O7 1.857183 1_545
Co4 O8 1.867540 1_555
Co4 O44 1.912285 1_545
Co4 O55 1.922615 1_555
Co5 O16 1.839918 1_565
Co5 O37 1.854414 1_555
Co5 O6 1.857183 1_565
Co5 O9 1.867540 1_555
Co5 O45 1.912285 1_565
Co5 O23 1.922615 1_555
Co6 O19 1.839918 1_565
Co6 O38 1.854414 1_555
Co6 O5 1.857183 1_565
Co6 O10 1.867540 1_555
Co6 O46 1.912285 1_565
Co6 O20 1.922615 1_555
Co7 O18 1.839918 1_545
Co7 O39 1.854414 1_555
Co7 O4 1.857183 1_545
Co7 O11 1.867540 1_555
Co7 O47 1.912285 1_545
Co7 O22 1.922615 1_555
O0 Sn0 1.998796 1_455
O1 Sn12 1.998796 1_555
O2 Sn14 1.998796 1_655
O3 Sn13 1.998796 1_555
O4 Sn0 1.977140 1_565
O5 Sn12 1.977140 1_545
O6 Sn14 1.977140 1_545
O7 Sn13 1.977140 1_565
O8 Sn0 1.985504 1_554
O9 Sn12 1.985504 1_555
O10 Sn14 1.985504 1_556
O11 Sn13 1.985504 1_555
O12 Sn15 2.073657 1_555
O12 Sn5 2.145992 1_555
O13 Sn11 2.073657 1_555
O13 Sn4 2.145992 1_555
O14 Sn10 2.073657 1_555
O14 Sn7 2.145992 1_555
O15 Sn9 2.073657 1_555
O15 Sn6 2.145992 1_555
O16 Sn15 2.004319 1_554
O17 Sn11 2.004319 1_555
O18 Sn10 2.004319 1_556
O19 Sn9 2.004319 1_555
O20 Sn15 2.064672 1_565
O21 Sn8 2.075587 1_555
O22 Sn11 2.064672 1_545
O23 Sn9 2.064672 1_565
O24 Sn8 1.990218 1_555
O25 Sn1 1.990218 1_655
O26 Sn2 1.990218 1_555
O27 Sn3 1.990218 1_455
O28 Sn15 2.004874 1_555
O28 Sn8 2.045496 1_555
O29 Sn11 2.004874 1_555
O29 Sn1 2.045496 1_655
O30 Sn10 2.004874 1_555
O30 Sn2 2.045496 1_555
O31 Sn9 2.004874 1_555
O31 Sn3 2.045496 1_455
O32 Sn7 2.048709 1_555
O32 Sn3 2.065796 1_555
O33 Sn6 2.048709 1_555
O33 Sn2 2.065796 1_555
O34 Sn5 2.048709 1_555
O34 Sn1 2.065796 1_555
O35 Sn4 2.048709 1_555
O35 Sn8 2.065796 1_555
O36 Sn7 2.103107 1_555
O37 Sn6 2.103107 1_555
O38 Sn5 2.103107 1_555
O39 Sn4 2.103107 1_555
O40 Sn13 1.985019 1_555
O40 Sn7 2.105559 1_555
O41 Sn14 1.985019 1_555
O41 Sn6 2.105559 1_555
O42 Sn12 1.985019 1_555
O42 Sn5 2.105559 1_555
O43 Sn0 1.985019 1_555
O43 Sn4 2.105559 1_555
O44 Sn7 2.095643 1_555
O44 Sn10 2.209076 1_555
O45 Sn6 2.095643 1_555
O45 Sn9 2.209076 1_555
O46 Sn5 2.095643 1_555
O46 Sn15 2.209076 1_555
O47 Sn4 2.095643 1_555
O47 Sn11 2.209076 1_555
O48 Sn7 2.076621 1_555
O48 Sn3 2.087752 1_555
O49 Sn6 2.076621 1_555
O49 Sn2 2.087752 1_555
O50 Sn5 2.076621 1_555
O50 Sn1 2.087752 1_555
O51 Sn4 2.076621 1_555
O51 Sn8 2.087752 1_555
O52 Sn3 2.075587 1_455
O53 Sn2 2.075587 1_555
O54 Sn1 2.075587 1_655
O55 Sn10 2.064672 1_545
