# generated using pymatgen
data_Dy2Si5Rh3
_symmetry_space_group_name_H-M   'P 1'
_cell_length_a   8.07138742
_cell_length_b   8.07138742
_cell_length_c   5.65296131
_cell_angle_alpha   71.17156047
_cell_angle_beta   71.17156047
_cell_angle_gamma   93.52343496
_symmetry_Int_Tables_number   1
_chemical_formula_structural   Dy2Si5Rh3
_chemical_formula_sum   'Dy4 Si10 Rh6'
_cell_volume   324.22942857
_cell_formula_units_Z   2
loop_
 _symmetry_equiv_pos_site_id
 _symmetry_equiv_pos_as_xyz
  1  'x, y, z'
loop_
 _atom_site_type_symbol
 _atom_site_label
 _atom_site_symmetry_multiplicity
 _atom_site_fract_x
 _atom_site_fract_y
 _atom_site_fract_z
 _atom_site_occupancy
  Dy  Dy0  1  0.86633190  0.59866678  0.76141295  1
  Dy  Dy1  1  0.40133322  0.13366810  0.73858705  1
  Dy  Dy2  1  0.13366810  0.40133322  0.23858705  1
  Dy  Dy3  1  0.59866678  0.86633190  0.26141295  1
  Si  Si0  1  0.05710328  0.26596092  0.83905488  1
  Si  Si1  1  0.73403908  0.94289672  0.66094512  1
  Si  Si2  1  0.94289672  0.73403908  0.16094512  1
  Si  Si3  1  0.26596092  0.05710328  0.33905488  1
  Si  Si4  1  0.21069439  0.78930561  0.75000000  1
  Si  Si5  1  0.78930561  0.21069439  0.25000000  1
  Si  Si6  1  0.51172373  0.48827627  0.75000000  1
  Si  Si7  1  0.48827627  0.51172373  0.25000000  1
  Si  Si8  1  0.77608657  0.22391343  0.75000000  1
  Si  Si9  1  0.22391343  0.77608657  0.25000000  1
  Rh  Rh0  1  0.25958601  0.53881441  0.62667179  1
  Rh  Rh1  1  0.46118559  0.74041399  0.87332821  1
  Rh  Rh2  1  0.74041399  0.46118559  0.37332821  1
  Rh  Rh3  1  0.53881441  0.25958601  0.12667179  1
  Rh  Rh4  1  0.00223700  0.99776300  0.75000000  1
  Rh  Rh5  1  0.99776300  0.00223700  0.25000000  1
loop_
_geom_bond_atom_site_label_1
_geom_bond_atom_site_label_2
_geom_bond_distance
_geom_bond_site_symmetry_2
Dy0 Si6 2.972031 1_555
Dy0 Si1 2.986614 1_555
Dy0 Si2 3.014559 1_556
Dy0 Si2 3.044156 1_555
Dy0 Rh2 3.056862 1_556
Dy0 Si4 3.064611 1_655
Dy0 Si8 3.093463 1_555
Dy0 Rh0 3.123130 1_655
Dy0 Rh2 3.154214 1_555
Dy0 Si0 3.155732 1_655
Dy0 Si9 3.189447 1_655
Dy0 Si7 3.236957 1_556
Dy0 Rh3 3.268317 1_556
Dy0 Si5 3.300114 1_556
Dy0 Rh4 3.312071 1_655
Dy0 Rh5 3.407486 1_565
Dy0 Rh1 3.463293 1_555
Dy1 Si6 2.972031 1_555
Dy1 Si0 2.986614 1_555
Dy1 Si3 3.014559 1_555
Dy1 Si3 3.044156 1_556
Dy1 Rh3 3.056862 1_555
Dy1 Si4 3.064611 1_545
Dy1 Si8 3.093463 1_555
Dy1 Rh1 3.123130 1_545
Dy1 Rh3 3.154214 1_556
Dy1 Si1 3.155732 1_545
Dy1 Si9 3.189447 1_546
Dy1 Si7 3.236957 1_555
Dy1 Rh2 3.268317 1_555
Dy1 Si5 3.300114 1_555
Dy1 Rh4 3.312071 1_545
Dy1 Rh5 3.407486 1_456
Dy1 Rh0 3.463293 1_555
Dy2 Si7 2.972031 1_555
Dy2 Si3 2.986614 1_555
Dy2 Si0 3.014559 1_554
Dy2 Si0 3.044156 1_555
Dy2 Rh0 3.056862 1_554
Dy2 Si5 3.064611 1_455
Dy2 Si9 3.093463 1_555
Dy2 Rh2 3.123130 1_455
Dy2 Rh0 3.154214 1_555
Dy2 Si2 3.155732 1_455
Dy2 Si8 3.189447 1_455
Dy2 Si6 3.236957 1_554
Dy2 Rh1 3.268317 1_554
Dy2 Si4 3.300114 1_554
Dy2 Rh5 3.312071 1_455
Dy2 Rh4 3.407486 1_545
Dy2 Rh3 3.463293 1_555
Dy3 Si7 2.972031 1_555
Dy3 Si2 2.986614 1_555
Dy3 Si1 3.014559 1_555
Dy3 Si1 3.044156 1_554
Dy3 Rh1 3.056862 1_555
Dy3 Si5 3.064611 1_565
Dy3 Si9 3.093463 1_555
Dy3 Rh3 3.123130 1_565
Dy3 Rh1 3.154214 1_554
Dy3 Si3 3.155732 1_565
Dy3 Si8 3.189447 1_564
Dy3 Si6 3.236957 1_555
Dy3 Rh0 3.268317 1_555
Dy3 Si4 3.300114 1_555
Dy3 Rh5 3.312071 1_565
Dy3 Rh4 3.407486 1_654
Dy3 Rh2 3.463293 1_555
Si0 Si5 2.497833 1_456
Si0 Si8 2.503203 1_455
Si1 Si5 2.497833 1_565
Si1 Si8 2.503203 1_565
Si2 Si4 2.497833 1_654
Si2 Si9 2.503203 1_655
Si3 Si4 2.497833 1_545
Si3 Si9 2.503203 1_545
Si4 Si9 2.830753 1_555
Si4 Si9 2.830753 1_556
Si5 Si8 2.830753 1_554
Si5 Si8 2.830753 1_555
Rh0 Si0 2.355204 1_555
Rh0 Si4 2.357923 1_555
Rh0 Si6 2.372415 1_555
Rh0 Si7 2.408759 1_555
Rh0 Si9 2.473032 1_555
Rh1 Si1 2.355204 1_555
Rh1 Si4 2.357923 1_555
Rh1 Si6 2.372415 1_555
Rh1 Si7 2.408759 1_556
Rh1 Si9 2.473032 1_556
Rh2 Si2 2.355204 1_555
Rh2 Si5 2.357923 1_555
Rh2 Si7 2.372415 1_555
Rh2 Si6 2.408759 1_555
Rh2 Si8 2.473032 1_555
Rh3 Si3 2.355204 1_555
Rh3 Si5 2.357923 1_555
Rh3 Si7 2.372415 1_555
Rh3 Si6 2.408759 1_554
Rh3 Si8 2.473032 1_554
Rh4 Si1 2.421795 1_455
Rh4 Si0 2.421795 1_565
Rh4 Si4 2.451499 1_555
Rh4 Si2 2.474212 1_456
Rh4 Si3 2.474212 1_565
Rh4 Si8 2.659572 1_465
Rh5 Si2 2.421795 1_545
Rh5 Si3 2.421795 1_655
Rh5 Si5 2.451499 1_555
Rh5 Si1 2.474212 1_545
Rh5 Si0 2.474212 1_654
Rh5 Si9 2.659572 1_645
