# generated using pymatgen
data_Fe3P6H14(NO8)3
_symmetry_space_group_name_H-M   'P 1'
_cell_length_a   7.44618522
_cell_length_b   9.03160824
_cell_length_c   9.59949673
_cell_angle_alpha   64.38606321
_cell_angle_beta   70.06714259
_cell_angle_gamma   68.72725783
_symmetry_Int_Tables_number   1
_chemical_formula_structural   Fe3P6H14(NO8)3
_chemical_formula_sum   'Fe3 P6 H14 N3 O24'
_cell_volume   529.29322703
_cell_formula_units_Z   1
loop_
 _symmetry_equiv_pos_site_id
 _symmetry_equiv_pos_as_xyz
  1  'x, y, z'
loop_
 _atom_site_type_symbol
 _atom_site_label
 _atom_site_symmetry_multiplicity
 _atom_site_fract_x
 _atom_site_fract_y
 _atom_site_fract_z
 _atom_site_occupancy
  Fe  Fe0  1  0.29610500  0.28795000  0.55283000  1
  Fe  Fe1  1  0.70389500  0.71205000  0.44717000  1
  Fe  Fe2  1  0.50000000  0.50000000  0.00000000  1
  P  P0  1  0.05924500  0.45173700  0.27535100  1
  P  P1  1  0.94075500  0.54826300  0.72464900  1
  P  P2  1  0.41675200  0.65572500  0.27753800  1
  P  P3  1  0.58324800  0.34427500  0.72246200  1
  P  P4  1  0.57978300  0.12125800  0.27112400  1
  P  P5  1  0.42021700  0.87874200  0.72887600  1
  H  H0  1  0.16236400  0.03322300  0.08268600  1
  H  H1  1  0.83763600  0.96677700  0.91731400  1
  H  H2  1  0.18675800  0.21573800  0.07122100  1
  H  H3  1  0.81324200  0.78426200  0.92877900  1
  H  H4  1  0.14947700  0.20716700  0.91078000  1
  H  H5  1  0.85052300  0.79283300  0.08922000  1
  H  H6  1  0.96619700  0.20529400  0.07140700  1
  H  H7  1  0.03380300  0.79470600  0.92859300  1
  H  H8  1  0.58624000  0.03338600  0.72269700  1
  H  H9  1  0.41376000  0.96661400  0.27730300  1
  H  H10  1  0.79554600  0.44504600  0.21855800  1
  H  H11  1  0.20445400  0.55495400  0.78144200  1
  H  H12  1  0.11539400  0.74756400  0.24345500  1
  H  H13  1  0.88460600  0.25243600  0.75654500  1
  N  N0  1  0.11739200  0.16437100  0.03359400  1
  N  N1  1  0.88260800  0.83562900  0.96640600  1
  N  N2  1  0.00000000  0.00000000  0.50000000  1
  O  O0  1  0.34018000  0.51934600  0.42653100  1
  O  O1  1  0.65982000  0.48065400  0.57346900  1
  O  O2  1  0.51899500  0.18437900  0.40986200  1
  O  O3  1  0.48100500  0.81562100  0.59013800  1
  O  O4  1  0.06987200  0.62350500  0.76713600  1
  O  O5  1  0.93012800  0.37649500  0.23286400  1
  O  O6  1  0.24307000  0.46864800  0.14099000  1
  O  O7  1  0.75693000  0.53135200  0.85901000  1
  O  O8  1  0.10553600  0.32575300  0.43453600  1
  O  O9  1  0.89446400  0.67424700  0.56546400  1
  O  O10  1  0.65519300  0.25901300  0.11795800  1
  O  O11  1  0.34480700  0.74098700  0.88204200  1
  O  O12  1  0.55847100  0.58373000  0.14740400  1
  O  O13  1  0.44152900  0.41627000  0.85259600  1
  O  O14  1  0.26011600  0.04797200  0.70075000  1
  O  O15  1  0.73988400  0.95202800  0.29925000  1
  O  O16  1  0.06085700  0.36850900  0.71882200  1
  O  O17  1  0.93914300  0.63149100  0.28117800  1
  O  O18  1  0.48249300  0.24241400  0.69283200  1
  O  O19  1  0.51750700  0.75758600  0.30716800  1
  O  O20  1  0.22957500  0.79696600  0.21127500  1
  O  O21  1  0.77042400  0.20303400  0.78872500  1
  O  O22  1  0.39674900  0.09153700  0.24544300  1
  O  O23  1  0.60325100  0.90846300  0.75455700  1
loop_
_geom_bond_atom_site_label_1
_geom_bond_atom_site_label_2
_geom_bond_distance
_geom_bond_site_symmetry_2
Fe0 O8 1.957448 1_555
Fe0 O2 1.985815 1_555
Fe0 O0 1.995213 1_555
Fe0 O18 2.069126 1_555
Fe0 O14 2.070443 1_555
Fe0 O16 2.076367 1_555
Fe1 O9 1.957448 1_555
Fe1 O3 1.985815 1_555
Fe1 O1 1.995213 1_555
Fe1 O19 2.069126 1_555
Fe1 O15 2.070443 1_555
Fe1 O17 2.076367 1_555
Fe2 O7 1.966809 1_554
Fe2 O6 1.966809 1_555
Fe2 O11 2.071484 1_554
Fe2 O10 2.071484 1_555
Fe2 O12 2.085139 1_555
Fe2 O13 2.085139 1_554
H0 N0 1.036521 1_555
H1 N1 1.036521 1_555
H2 N0 1.028806 1_555
H3 N1 1.028806 1_555
H4 N0 1.037964 1_556
H5 N1 1.037964 1_554
H6 N0 1.035022 1_655
H7 N1 1.035022 1_455
H8 O23 1.003449 1_545
H8 O18 1.693458 1_555
H9 O22 1.003449 1_565
H9 O19 1.693458 1_555
H10 O5 0.988204 1_555
H11 O4 0.988204 1_555
H12 O20 0.997185 1_555
H13 O21 0.997192 1_555
O0 P2 1.522585 1_555
O1 P3 1.522585 1_555
O2 P4 1.536811 1_555
O3 P5 1.536811 1_555
O4 P1 1.591717 1_455
O5 P0 1.591717 1_655
O6 P0 1.529090 1_555
O7 P1 1.529090 1_555
O8 P0 1.523087 1_555
O9 P1 1.523087 1_555
O10 P4 1.545123 1_555
O11 P5 1.545123 1_555
O12 P2 1.550004 1_555
O13 P3 1.550004 1_555
O14 P5 1.539706 1_545
O15 P4 1.539706 1_565
O16 P1 1.558672 1_455
O17 P0 1.558672 1_655
O18 P3 1.537096 1_555
O19 P2 1.537096 1_555
O20 P2 1.608491 1_555
O21 P3 1.608486 1_555
O22 P4 1.594398 1_555
O23 P5 1.594398 1_555
