# generated using pymatgen
data_BaMgAgF7
_symmetry_space_group_name_H-M   'P 1'
_cell_length_a   10.18911700
_cell_length_b   5.76187800
_cell_length_c   9.90964176
_cell_angle_alpha   86.87490262
_cell_angle_beta   90.00000000
_cell_angle_gamma   90.00000000
_symmetry_Int_Tables_number   1
_chemical_formula_structural   BaMgAgF7
_chemical_formula_sum   'Ba4 Mg4 Ag4 F28'
_cell_volume   580.91452636
_cell_formula_units_Z   4
loop_
 _symmetry_equiv_pos_site_id
 _symmetry_equiv_pos_as_xyz
  1  'x, y, z'
loop_
 _atom_site_type_symbol
 _atom_site_label
 _atom_site_symmetry_multiplicity
 _atom_site_fract_x
 _atom_site_fract_y
 _atom_site_fract_z
 _atom_site_occupancy
  Ba  Ba0  1  0.32382300  0.72787900  0.49789700  1
  Ba  Ba1  1  0.82382300  0.27212100  0.00210300  1
  Ba  Ba2  1  0.67617700  0.27212100  0.50210300  1
  Ba  Ba3  1  0.17617700  0.72787900  0.99789700  1
  Mg  Mg0  1  0.39427800  0.30717200  0.80808800  1
  Mg  Mg1  1  0.89427800  0.69282800  0.69191200  1
  Mg  Mg2  1  0.10572200  0.30717200  0.30808800  1
  Mg  Mg3  1  0.60572200  0.69282800  0.19191200  1
  Ag  Ag0  1  0.61054500  0.80735400  0.81503800  1
  Ag  Ag1  1  0.38945500  0.19264600  0.18496200  1
  Ag  Ag2  1  0.88945500  0.80735400  0.31503800  1
  Ag  Ag3  1  0.11054500  0.19264600  0.68496200  1
  F  F0  1  0.44838300  0.86307500  0.12208200  1
  F  F1  1  0.06091600  0.62385300  0.37534700  1
  F  F2  1  0.72069000  0.51618300  0.74976300  1
  F  F3  1  0.27931000  0.48381700  0.25023700  1
  F  F4  1  0.45992400  0.10113900  0.37788300  1
  F  F5  1  0.80267100  0.73984800  0.50928600  1
  F  F6  1  0.78824500  0.97751000  0.74926700  1
  F  F7  1  0.95992400  0.89886100  0.12211700  1
  F  F8  1  0.43908400  0.62385300  0.87534700  1
  F  F9  1  0.22069000  0.48381700  0.75023700  1
  F  F10  1  0.05161700  0.86307500  0.62208200  1
  F  F11  1  0.55161700  0.13692500  0.87791800  1
  F  F12  1  0.28824500  0.02249000  0.75073300  1
  F  F13  1  0.96129300  0.60545800  0.86924700  1
  F  F14  1  0.54007600  0.89886100  0.62211700  1
  F  F15  1  0.04007600  0.10113900  0.87788300  1
  F  F16  1  0.21175500  0.02249000  0.25073300  1
  F  F17  1  0.94838300  0.13692500  0.37791800  1
  F  F18  1  0.46129300  0.39454200  0.63075300  1
  F  F19  1  0.93908400  0.37614700  0.62465300  1
  F  F20  1  0.03870700  0.39454200  0.13075300  1
  F  F21  1  0.71175500  0.97751000  0.24926700  1
  F  F22  1  0.53870700  0.60545800  0.36924700  1
  F  F23  1  0.30267100  0.26015200  0.99071400  1
  F  F24  1  0.19732900  0.26015200  0.49071400  1
  F  F25  1  0.69732900  0.73984800  0.00928600  1
  F  F26  1  0.56091600  0.37614700  0.12465300  1
  F  F27  1  0.77931000  0.51618300  0.24976300  1
loop_
_geom_bond_atom_site_label_1
_geom_bond_atom_site_label_2
_geom_bond_distance
_geom_bond_site_symmetry_2
Ba0 F22 2.648533 1_555
Ba0 F18 2.666169 1_555
Ba0 F14 2.733714 1_555
Ba0 F4 2.772009 1_565
Ba0 F3 2.929636 1_555
Ba0 F24 2.991671 1_555
Ba0 F9 2.991888 1_555
Ba0 F1 3.014859 1_555
Ba0 F16 3.119487 1_565
Ba0 F12 3.123186 1_565
Ba0 F10 3.149334 1_555
Ba0 F24 3.323892 1_565
Ba1 F20 2.648533 1_655
Ba1 F13 2.666169 1_554
Ba1 F15 2.733714 1_654
Ba1 F7 2.772009 1_545
Ba1 F27 2.929636 1_555
Ba1 F25 2.991671 1_555
Ba1 F2 2.991888 1_554
Ba1 F26 3.014859 1_555
Ba1 F21 3.119487 1_545
Ba1 F6 3.123186 1_544
Ba1 F11 3.149334 1_554
Ba1 F25 3.323892 1_545
Ba2 F18 2.648533 1_555
Ba2 F22 2.666169 1_555
Ba2 F4 2.733714 1_555
Ba2 F14 2.772009 1_545
Ba2 F2 2.929636 1_555
Ba2 F5 2.991671 1_555
Ba2 F27 2.991888 1_555
Ba2 F19 3.014859 1_555
Ba2 F6 3.119487 1_545
Ba2 F21 3.123186 1_545
Ba2 F17 3.149334 1_555
Ba2 F5 3.323892 1_545
Ba3 F13 2.648533 1_455
Ba3 F20 2.666169 1_556
Ba3 F7 2.733714 1_456
Ba3 F15 2.772009 1_565
Ba3 F9 2.929636 1_555
Ba3 F23 2.991671 1_555
Ba3 F3 2.991888 1_556
Ba3 F8 3.014859 1_555
Ba3 F12 3.119487 1_565
Ba3 F16 3.123186 1_566
Ba3 F0 3.149334 1_556
Ba3 F23 3.323892 1_565
Ag0 F14 2.082915 1_555
Ag0 F8 2.111473 1_555
Ag0 F11 2.117499 1_565
Ag0 F25 2.134691 1_556
Ag0 F6 2.143512 1_555
Ag0 F2 2.147302 1_555
Ag1 F4 2.082915 1_555
Ag1 F26 2.111473 1_555
Ag1 F0 2.117499 1_545
Ag1 F23 2.134691 1_554
Ag1 F16 2.143512 1_555
Ag1 F3 2.147302 1_555
Ag2 F7 2.082915 1_555
Ag2 F1 2.111473 1_655
Ag2 F17 2.117499 1_565
Ag2 F5 2.134691 1_555
Ag2 F21 2.143512 1_555
Ag2 F27 2.147302 1_555
Ag3 F15 2.082915 1_555
Ag3 F19 2.111473 1_455
Ag3 F10 2.117499 1_545
Ag3 F24 2.134691 1_555
Ag3 F12 2.143512 1_555
Ag3 F9 2.147302 1_555
F0 Mg3 1.984228 1_555
F1 Mg2 2.028475 1_555
F2 Mg1 2.104589 1_555
F3 Mg2 2.104589 1_555
F5 Mg1 2.041174 1_555
F6 Mg1 2.069423 1_555
F8 Mg0 2.028475 1_555
F9 Mg0 2.104589 1_555
F10 Mg1 1.984228 1_455
F11 Mg0 1.984228 1_555
F12 Mg0 2.069423 1_555
F13 Mg1 1.926503 1_555
F16 Mg2 2.069423 1_555
F17 Mg2 1.984228 1_655
F18 Mg0 1.926503 1_555
F19 Mg1 2.028475 1_555
F20 Mg2 1.926503 1_555
F21 Mg3 2.069423 1_555
F22 Mg3 1.926503 1_555
F23 Mg0 2.041174 1_555
F24 Mg2 2.041174 1_555
F25 Mg3 2.041174 1_555
F26 Mg3 2.028475 1_555
F27 Mg3 2.104589 1_555
