# generated using pymatgen
data_EuV(SeO4)2
_symmetry_space_group_name_H-M   'P 1'
_cell_length_a   7.10712400
_cell_length_b   6.91163200
_cell_length_c   13.78421823
_cell_angle_alpha   88.79502295
_cell_angle_beta   90.00000000
_cell_angle_gamma   90.00000000
_symmetry_Int_Tables_number   1
_chemical_formula_structural   EuV(SeO4)2
_chemical_formula_sum   'Eu4 V4 Se8 O32'
_cell_volume   676.95623022
_cell_formula_units_Z   4
loop_
 _symmetry_equiv_pos_site_id
 _symmetry_equiv_pos_as_xyz
  1  'x, y, z'
loop_
 _atom_site_type_symbol
 _atom_site_label
 _atom_site_symmetry_multiplicity
 _atom_site_fract_x
 _atom_site_fract_y
 _atom_site_fract_z
 _atom_site_occupancy
  Eu  Eu0  1  0.75000000  0.37754100  0.86314800  1
  Eu  Eu1  1  0.25000000  0.62245900  0.13685200  1
  Eu  Eu2  1  0.75000000  0.92488000  0.06944400  1
  Eu  Eu3  1  0.25000000  0.07512000  0.93055600  1
  V  V0  1  0.49163300  0.37390100  0.38702000  1
  V  V1  1  0.99163300  0.62609900  0.61298000  1
  V  V2  1  0.50836700  0.62609900  0.61298000  1
  V  V3  1  0.00836700  0.37390100  0.38702000  1
  Se  Se0  1  0.75000000  0.96803500  0.35228100  1
  Se  Se1  1  0.25000000  0.03196500  0.64771900  1
  Se  Se2  1  0.75000000  0.44925800  0.13842700  1
  Se  Se3  1  0.25000000  0.55074200  0.86157300  1
  Se  Se4  1  0.75000000  0.21034300  0.59171700  1
  Se  Se5  1  0.25000000  0.78965700  0.40828300  1
  Se  Se6  1  0.75000000  0.89585200  0.83982300  1
  Se  Se7  1  0.25000000  0.10414800  0.16017700  1
  O  O0  1  0.55529100  0.09788500  0.39550800  1
  O  O1  1  0.05529100  0.90211500  0.60449200  1
  O  O2  1  0.44470900  0.90211500  0.60449200  1
  O  O3  1  0.94470900  0.09788500  0.39550800  1
  O  O4  1  0.75000000  0.02057400  0.23212400  1
  O  O5  1  0.25000000  0.97942600  0.76787600  1
  O  O6  1  0.92447500  0.61570000  0.10780300  1
  O  O7  1  0.42447500  0.38430000  0.89219700  1
  O  O8  1  0.07552500  0.38430000  0.89219700  1
  O  O9  1  0.57552500  0.61570000  0.10780300  1
  O  O10  1  0.75000000  0.29062300  0.04368200  1
  O  O11  1  0.25000000  0.70937700  0.95631800  1
  O  O12  1  0.94468200  0.36279800  0.56260800  1
  O  O13  1  0.44468200  0.63720200  0.43739200  1
  O  O14  1  0.05531800  0.63720200  0.43739200  1
  O  O15  1  0.55531800  0.36279800  0.56260800  1
  O  O16  1  0.75000000  0.20911800  0.71401800  1
  O  O17  1  0.25000000  0.79088200  0.28598200  1
  O  O18  1  0.42244500  0.97028600  0.10125900  1
  O  O19  1  0.92244500  0.02971400  0.89874100  1
  O  O20  1  0.57755500  0.02971400  0.89874100  1
  O  O21  1  0.07755500  0.97028600  0.10125900  1
  O  O22  1  0.75000000  0.69832200  0.91834000  1
  O  O23  1  0.25000000  0.30167800  0.08166000  1
  O  O24  1  0.55972000  0.58852200  0.72923500  1
  O  O25  1  0.05972000  0.41147800  0.27076500  1
  O  O26  1  0.44028000  0.41147800  0.27076500  1
  O  O27  1  0.94028000  0.58852200  0.72923500  1
  O  O28  1  0.25000000  0.30457600  0.42741300  1
  O  O29  1  0.75000000  0.69542400  0.57258700  1
  O  O30  1  0.75000000  0.42268200  0.38405000  1
  O  O31  1  0.25000000  0.57731800  0.61595000  1
loop_
_geom_bond_atom_site_label_1
_geom_bond_atom_site_label_2
_geom_bond_distance
_geom_bond_site_symmetry_2
Eu0 O7 2.348574 1_555
Eu0 O8 2.348574 1_655
Eu0 O22 2.359099 1_555
Eu0 O16 2.383564 1_555
Eu0 O10 2.547695 1_556
Eu0 O27 2.692459 1_555
Eu0 O24 2.692459 1_555
Eu0 O20 2.733612 1_555
Eu0 O19 2.733612 1_555
Eu1 O9 2.348574 1_555
Eu1 O6 2.348574 1_455
Eu1 O23 2.359099 1_555
Eu1 O17 2.383564 1_555
Eu1 O11 2.547695 1_554
Eu1 O25 2.692459 1_555
Eu1 O26 2.692459 1_555
Eu1 O21 2.733612 1_555
Eu1 O18 2.733612 1_555
Eu2 O4 2.351226 1_565
Eu2 O18 2.390829 1_555
Eu2 O21 2.390829 1_655
Eu2 O9 2.517180 1_555
Eu2 O6 2.517180 1_555
Eu2 O10 2.545296 1_565
Eu2 O22 2.632003 1_554
Eu2 O20 2.737154 1_564
Eu2 O19 2.737154 1_564
Eu3 O5 2.351226 1_545
Eu3 O20 2.390829 1_555
Eu3 O19 2.390829 1_455
Eu3 O8 2.517180 1_555
Eu3 O7 2.517180 1_555
Eu3 O11 2.545296 1_545
Eu3 O23 2.632003 1_556
Eu3 O21 2.737154 1_546
Eu3 O18 2.737154 1_546
O0 Se0 1.760100 1_545
O0 V0 1.961731 1_555
O1 Se1 1.760100 1_565
O1 V1 1.961731 1_455
O2 Se1 1.760100 1_565
O2 V2 1.961731 1_555
O3 Se0 1.760100 1_545
O3 V3 1.961731 1_655
O4 Se0 1.688135 1_545
O5 Se1 1.688135 1_565
O6 Se2 1.737468 1_555
O7 Se3 1.737468 1_555
O8 Se3 1.737468 1_555
O9 Se2 1.737468 1_555
O10 Se2 1.722781 1_555
O11 Se3 1.722781 1_555
O12 Se4 1.779875 1_555
O12 V1 1.989576 1_555
O12 V3 2.461910 1_655
O13 Se5 1.779875 1_555
O13 V0 1.989576 1_555
O13 V2 2.461910 1_555
O14 Se5 1.779875 1_555
O14 V3 1.989576 1_555
O14 V1 2.461910 1_455
O15 Se4 1.779875 1_555
O15 V2 1.989576 1_555
O15 V0 2.461910 1_555
O16 Se4 1.685667 1_555
O17 Se5 1.685667 1_555
O18 Se7 1.746208 1_565
O19 Se6 1.746208 1_545
O20 Se6 1.746208 1_545
O21 Se7 1.746208 1_565
O22 Se6 1.724279 1_555
O23 Se7 1.724279 1_555
O24 V2 1.658647 1_555
O25 V3 1.658647 1_555
O26 V0 1.658647 1_555
O27 V1 1.658647 1_555
O28 V3 1.864818 1_555
O28 V0 1.864818 1_555
O29 V1 1.864818 1_555
O29 V2 1.864818 1_555
O30 V0 1.867236 1_555
O30 V3 1.867236 1_655
O31 V2 1.867236 1_555
O31 V1 1.867236 1_455
