# generated using pymatgen
data_MgCr(SiO3)2
_symmetry_space_group_name_H-M   'P 1'
_cell_length_a   5.31841600
_cell_length_b   9.09821400
_cell_length_c   18.60551700
_cell_angle_alpha   90.00000000
_cell_angle_beta   90.00000000
_cell_angle_gamma   90.00000000
_symmetry_Int_Tables_number   1
_chemical_formula_structural   MgCr(SiO3)2
_chemical_formula_sum   'Mg8 Cr8 Si16 O48'
_cell_volume   900.28537358
_cell_formula_units_Z   8
loop_
 _symmetry_equiv_pos_site_id
 _symmetry_equiv_pos_as_xyz
  1  'x, y, z'
loop_
 _atom_site_type_symbol
 _atom_site_label
 _atom_site_symmetry_multiplicity
 _atom_site_fract_x
 _atom_site_fract_y
 _atom_site_fract_z
 _atom_site_occupancy
  Mg  Mg0  1  0.61729400  0.15223500  0.37536700  1
  Mg  Mg1  1  0.38270600  0.84776500  0.62463300  1
  Mg  Mg2  1  0.61729400  0.65223500  0.12463300  1
  Mg  Mg3  1  0.11729400  0.84776500  0.12463300  1
  Mg  Mg4  1  0.88270600  0.15223500  0.87536700  1
  Mg  Mg5  1  0.38270600  0.34776500  0.87536700  1
  Mg  Mg6  1  0.11729400  0.34776500  0.37536700  1
  Mg  Mg7  1  0.88270600  0.65223500  0.62463300  1
  Cr  Cr0  1  0.37599800  0.98115500  0.87631900  1
  Cr  Cr1  1  0.62400200  0.01884500  0.12368100  1
  Cr  Cr2  1  0.87599800  0.01884500  0.62368100  1
  Cr  Cr3  1  0.12400200  0.98115500  0.37631900  1
  Cr  Cr4  1  0.37599800  0.48115500  0.62368100  1
  Cr  Cr5  1  0.62400200  0.51884500  0.37631900  1
  Cr  Cr6  1  0.87599800  0.51884500  0.87631900  1
  Cr  Cr7  1  0.12400200  0.48115500  0.12368100  1
  Si  Si0  1  0.56358600  0.66176000  0.77173400  1
  Si  Si1  1  0.71382700  0.83676600  0.47573600  1
  Si  Si2  1  0.78617300  0.83676600  0.97573600  1
  Si  Si3  1  0.93641400  0.16176000  0.22826600  1
  Si  Si4  1  0.06358600  0.33824000  0.72826600  1
  Si  Si5  1  0.43641400  0.83824000  0.27173400  1
  Si  Si6  1  0.21382700  0.66323400  0.47573600  1
  Si  Si7  1  0.71382700  0.33676600  0.02426400  1
  Si  Si8  1  0.78617300  0.33676600  0.52426400  1
  Si  Si9  1  0.93641400  0.66176000  0.27173400  1
  Si  Si10  1  0.43641400  0.33824000  0.22826600  1
  Si  Si11  1  0.56358600  0.16176000  0.72826600  1
  Si  Si12  1  0.28617300  0.16323400  0.52426400  1
  Si  Si13  1  0.06358600  0.83824000  0.77173400  1
  Si  Si14  1  0.28617300  0.66323400  0.97573600  1
  Si  Si15  1  0.21382700  0.16323400  0.02426400  1
  O  O0  1  0.93703200  0.50320900  0.31169300  1
  O  O1  1  0.29383100  0.01405900  0.06601000  1
  O  O2  1  0.06296800  0.49679100  0.68830700  1
  O  O3  1  0.71110300  0.33767800  0.93613100  1
  O  O4  1  0.21110300  0.16232200  0.93613100  1
  O  O5  1  0.92432000  0.21047000  0.05094900  1
  O  O6  1  0.94083200  0.66707400  0.18454300  1
  O  O7  1  0.05916800  0.83292600  0.68454300  1
  O  O8  1  0.71110300  0.83767800  0.56386900  1
  O  O9  1  0.94083200  0.16707400  0.31545700  1
  O  O10  1  0.43703200  0.49679100  0.18830700  1
  O  O11  1  0.78889700  0.33767800  0.43613100  1
  O  O12  1  0.70616900  0.98594100  0.93399000  1
  O  O13  1  0.44083200  0.83292600  0.18454300  1
  O  O14  1  0.56296800  0.00320900  0.68830700  1
  O  O15  1  0.29383100  0.51405900  0.43399000  1
  O  O16  1  0.43703200  0.99679100  0.31169300  1
  O  O17  1  0.16483400  0.76896100  0.30337000  1
  O  O18  1  0.33516600  0.76896100  0.80337000  1
  O  O19  1  0.57568000  0.71047000  0.94905100  1
  O  O20  1  0.78889700  0.83767800  0.06386900  1
  O  O21  1  0.55916800  0.66707400  0.68454300  1
  O  O22  1  0.79383100  0.48594100  0.06601000  1
  O  O23  1  0.16483400  0.26896100  0.19663000  1
  O  O24  1  0.28889700  0.16232200  0.43613100  1
  O  O25  1  0.55916800  0.16707400  0.81545700  1
  O  O26  1  0.70616900  0.48594100  0.56601000  1
  O  O27  1  0.21110300  0.66232200  0.56386900  1
  O  O28  1  0.20616900  0.51405900  0.93399000  1
  O  O29  1  0.66483400  0.73103900  0.30337000  1
  O  O30  1  0.06296800  0.99679100  0.81169300  1
  O  O31  1  0.83516600  0.73103900  0.80337000  1
  O  O32  1  0.83516600  0.23103900  0.69663000  1
  O  O33  1  0.79383100  0.98594100  0.43399000  1
  O  O34  1  0.28889700  0.66232200  0.06386900  1
  O  O35  1  0.20616900  0.01405900  0.56601000  1
  O  O36  1  0.33516600  0.26896100  0.69663000  1
  O  O37  1  0.07568000  0.78953000  0.94905100  1
  O  O38  1  0.42432000  0.78953000  0.44905100  1
  O  O39  1  0.66483400  0.23103900  0.19663000  1
  O  O40  1  0.42432000  0.28953000  0.05094900  1
  O  O41  1  0.57568000  0.21047000  0.55094900  1
  O  O42  1  0.07568000  0.28953000  0.55094900  1
  O  O43  1  0.44083200  0.33292600  0.31545700  1
  O  O44  1  0.56296800  0.50320900  0.81169300  1
  O  O45  1  0.92432000  0.71047000  0.44905100  1
  O  O46  1  0.05916800  0.33292600  0.81545700  1
  O  O47  1  0.93703200  0.00320900  0.18830700  1
loop_
_geom_bond_atom_site_label_1
_geom_bond_atom_site_label_2
_geom_bond_distance
_geom_bond_site_symmetry_2
Mg0 O9 2.054636 1_555
Mg0 O16 2.079121 1_545
Mg0 O24 2.082546 1_555
Mg0 O33 2.088129 1_545
Mg0 O43 2.196784 1_555
Mg0 O11 2.226594 1_555
Mg1 O7 2.054636 1_555
Mg1 O14 2.079121 1_565
Mg1 O8 2.082546 1_555
Mg1 O35 2.088129 1_565
Mg1 O21 2.196784 1_555
Mg1 O27 2.226594 1_555
Mg2 O6 2.054636 1_555
Mg2 O10 2.079121 1_555
Mg2 O34 2.082546 1_555
Mg2 O22 2.088129 1_555
Mg2 O13 2.196784 1_555
Mg2 O20 2.226594 1_555
Mg3 O13 2.054636 1_555
Mg3 O47 2.079121 1_465
Mg3 O20 2.082546 1_455
Mg3 O1 2.088129 1_565
Mg3 O6 2.196784 1_455
Mg3 O34 2.226594 1_555
Mg4 O25 2.054636 1_555
Mg4 O30 2.079121 1_645
Mg4 O4 2.082546 1_655
Mg4 O12 2.088129 1_545
Mg4 O46 2.196784 1_655
Mg4 O3 2.226594 1_555
Mg5 O46 2.054636 1_555
Mg5 O44 2.079121 1_555
Mg5 O3 2.082546 1_555
Mg5 O28 2.088129 1_555
Mg5 O25 2.196784 1_555
Mg5 O4 2.226594 1_555
Mg6 O43 2.054636 1_555
Mg6 O0 2.079121 1_455
Mg6 O11 2.082546 1_455
Mg6 O15 2.088129 1_555
Mg6 O9 2.196784 1_455
Mg6 O24 2.226594 1_555
Mg7 O21 2.054636 1_555
Mg7 O2 2.079121 1_655
Mg7 O27 2.082546 1_655
Mg7 O26 2.088129 1_555
Mg7 O7 2.196784 1_655
Mg7 O8 2.226594 1_555
Cr0 O12 2.058327 1_555
Cr0 O30 2.058553 1_555
Cr0 O4 2.173562 1_565
Cr0 O25 2.256668 1_565
Cr0 O18 2.369907 1_555
Cr0 O37 2.724316 1_555
Cr1 O1 2.058327 1_555
Cr1 O47 2.058553 1_555
Cr1 O20 2.173562 1_545
Cr1 O13 2.256668 1_545
Cr1 O39 2.369907 1_555
Cr1 O5 2.724316 1_555
Cr2 O35 2.058327 1_655
Cr2 O14 2.058553 1_555
Cr2 O8 2.173562 1_545
Cr2 O7 2.256668 1_645
Cr2 O32 2.369907 1_555
Cr2 O41 2.724316 1_555
Cr3 O33 2.058327 1_455
Cr3 O16 2.058553 1_555
Cr3 O24 2.173562 1_565
Cr3 O9 2.256668 1_465
Cr3 O17 2.369907 1_555
Cr3 O38 2.724316 1_555
Cr4 O26 2.058327 1_555
Cr4 O2 2.058553 1_555
Cr4 O27 2.173562 1_555
Cr4 O21 2.256668 1_555
Cr4 O36 2.369907 1_555
Cr4 O42 2.724316 1_555
Cr5 O15 2.058327 1_555
Cr5 O0 2.058553 1_555
Cr5 O11 2.173562 1_555
Cr5 O43 2.256668 1_555
Cr5 O29 2.369907 1_555
Cr5 O45 2.724316 1_555
Cr6 O28 2.058327 1_655
Cr6 O44 2.058553 1_555
Cr6 O3 2.173562 1_555
Cr6 O46 2.256668 1_655
Cr6 O31 2.369907 1_555
Cr6 O19 2.724316 1_555
Cr7 O22 2.058327 1_455
Cr7 O10 2.058553 1_555
Cr7 O34 2.173562 1_555
Cr7 O6 2.256668 1_455
Cr7 O23 2.369907 1_555
Cr7 O40 2.724316 1_555
O0 Si9 1.622848 1_555
O1 Si15 1.620611 1_555
O2 Si4 1.622848 1_555
O3 Si7 1.639845 1_556
O4 Si15 1.639845 1_556
O5 Si15 1.673897 1_655
O5 Si7 1.679320 1_555
O6 Si9 1.623124 1_555
O7 Si13 1.623124 1_555
O8 Si1 1.639845 1_555
O9 Si3 1.623124 1_555
O10 Si10 1.622848 1_555
O11 Si8 1.639845 1_555
O12 Si2 1.620611 1_555
O13 Si5 1.623124 1_555
O14 Si11 1.622848 1_555
O15 Si6 1.620611 1_555
O16 Si5 1.622848 1_555
O17 Si9 1.665400 1_455
O17 Si5 1.682252 1_555
O18 Si0 1.665400 1_555
O18 Si13 1.682252 1_555
O19 Si14 1.673897 1_555
O19 Si2 1.679320 1_555
O20 Si2 1.639845 1_554
O21 Si0 1.623124 1_555
O22 Si7 1.620611 1_555
O23 Si3 1.665400 1_455
O23 Si10 1.682252 1_555
O24 Si12 1.639845 1_555
O25 Si11 1.623124 1_555
O26 Si8 1.620611 1_555
O27 Si6 1.639845 1_555
O28 Si14 1.620611 1_555
O29 Si5 1.665400 1_555
O29 Si9 1.682252 1_555
O30 Si13 1.622848 1_555
O31 Si13 1.665400 1_655
O31 Si0 1.682252 1_555
O32 Si4 1.665400 1_655
O32 Si11 1.682252 1_555
O33 Si1 1.620611 1_555
O34 Si14 1.639845 1_554
O35 Si12 1.620611 1_555
O36 Si11 1.665400 1_555
O36 Si4 1.682252 1_555
O37 Si2 1.673897 1_455
O37 Si14 1.679320 1_555
O38 Si1 1.673897 1_555
O38 Si6 1.679320 1_555
O39 Si10 1.665400 1_555
O39 Si3 1.682252 1_555
O40 Si7 1.673897 1_555
O40 Si15 1.679320 1_555
O41 Si12 1.673897 1_555
O41 Si8 1.679320 1_555
O42 Si8 1.673897 1_455
O42 Si12 1.679320 1_555
O43 Si10 1.623124 1_555
O44 Si0 1.622848 1_555
O45 Si6 1.673897 1_655
O45 Si1 1.679320 1_555
O46 Si4 1.623124 1_555
O47 Si3 1.622848 1_555
