# generated using pymatgen
data_CaGa3Co2
_symmetry_space_group_name_H-M   'P 1'
_cell_length_a   5.28478000
_cell_length_b   6.24559278
_cell_length_c   6.24559278
_cell_angle_alpha   75.58806827
_cell_angle_beta   90.00000000
_cell_angle_gamma   90.00000000
_symmetry_Int_Tables_number   1
_chemical_formula_structural   CaGa3Co2
_chemical_formula_sum   'Ca2 Ga6 Co4'
_cell_volume   199.65855568
_cell_formula_units_Z   2
loop_
 _symmetry_equiv_pos_site_id
 _symmetry_equiv_pos_as_xyz
  1  'x, y, z'
loop_
 _atom_site_type_symbol
 _atom_site_label
 _atom_site_symmetry_multiplicity
 _atom_site_fract_x
 _atom_site_fract_y
 _atom_site_fract_z
 _atom_site_occupancy
  Ca  Ca0  1  0.75000000  0.33853700  0.66146300  1
  Ca  Ca1  1  0.25000000  0.66146300  0.33853700  1
  Ga  Ga0  1  0.75000000  0.94565700  0.05434300  1
  Ga  Ga1  1  0.25000000  0.05434300  0.94565700  1
  Ga  Ga2  1  0.75000000  0.52502600  0.08584400  1
  Ga  Ga3  1  0.25000000  0.08584400  0.52502600  1
  Ga  Ga4  1  0.25000000  0.47497400  0.91415600  1
  Ga  Ga5  1  0.75000000  0.91415600  0.47497400  1
  Co  Co0  1  0.50000000  0.20118800  0.20118800  1
  Co  Co1  1  0.00000000  0.20118800  0.20118800  1
  Co  Co2  1  0.50000000  0.79881200  0.79881200  1
  Co  Co3  1  0.00000000  0.79881200  0.79881200  1
loop_
_geom_bond_atom_site_label_1
_geom_bond_atom_site_label_2
_geom_bond_distance
_geom_bond_site_symmetry_2
Ca0 Ga0 3.007460 1_546
Ca0 Ga2 3.149372 1_556
Ca0 Ga5 3.149372 1_545
Ca0 Ga4 3.296750 1_655
Ca0 Ga4 3.296750 1_555
Ca0 Ga3 3.296750 1_555
Ca0 Ga3 3.296750 1_655
Ca0 Ga1 3.422708 1_555
Ca0 Ga1 3.422708 1_655
Ca0 Co3 3.460172 1_655
Ca0 Co2 3.460172 1_555
Ca0 Co0 3.460172 1_555
Ca0 Co1 3.460172 1_655
Ca0 Ga5 3.492398 1_555
Ca0 Ga2 3.492398 1_555
Ca0 Co1 3.522072 1_656
Ca0 Co0 3.522072 1_556
Ca0 Co3 3.522072 1_645
Ca0 Co2 3.522072 1_545
Ca0 Ca1 3.618405 1_555
Ca0 Ca1 3.618405 1_655
Ca1 Ga1 3.007460 1_564
Ca1 Ga3 3.149372 1_565
Ca1 Ga4 3.149372 1_554
Ca1 Ga5 3.296750 1_455
Ca1 Ga5 3.296750 1_555
Ca1 Ga2 3.296750 1_455
Ca1 Ga2 3.296750 1_555
Ca1 Ga0 3.422708 1_555
Ca1 Ga0 3.422708 1_455
Ca1 Co2 3.460172 1_555
Ca1 Co3 3.460172 1_555
Ca1 Co1 3.460172 1_555
Ca1 Co0 3.460172 1_555
Ca1 Ga4 3.492398 1_555
Ca1 Ga3 3.492398 1_555
Ca1 Co0 3.522072 1_565
Ca1 Co1 3.522072 1_565
Ca1 Co3 3.522072 1_554
Ca1 Co2 3.522072 1_554
Ga0 Ga2 2.585155 1_555
Ga0 Ga5 2.585155 1_555
Ga0 Ga1 2.770274 1_664
Ga0 Ga1 2.770274 1_564
Ga1 Ga3 2.585155 1_555
Ga1 Ga4 2.585155 1_555
Co0 Ga3 2.372758 1_555
Co0 Ga2 2.372758 1_555
Co0 Ga0 2.421224 1_545
Co0 Ga1 2.421224 1_554
Co0 Ga4 2.521371 1_554
Co0 Ga5 2.521371 1_545
Co0 Co1 2.642390 1_655
Co0 Co1 2.642390 1_555
Co1 Ga2 2.372758 1_455
Co1 Ga3 2.372758 1_555
Co1 Ga1 2.421224 1_554
Co1 Ga0 2.421224 1_445
Co1 Ga4 2.521371 1_554
Co1 Ga5 2.521371 1_445
Co2 Ga5 2.372758 1_555
Co2 Ga4 2.372758 1_555
Co2 Ga1 2.421224 1_565
Co2 Ga0 2.421224 1_556
Co2 Ga3 2.521371 1_565
Co2 Ga2 2.521371 1_556
Co2 Co3 2.642390 1_555
Co2 Co3 2.642390 1_655
Co3 Ga4 2.372758 1_555
Co3 Ga5 2.372758 1_455
Co3 Ga0 2.421224 1_456
Co3 Ga1 2.421224 1_565
Co3 Ga3 2.521371 1_565
Co3 Ga2 2.521371 1_456
