# generated using pymatgen
data_EuAg3
_symmetry_space_group_name_H-M   'P 1'
_cell_length_a   5.14267269
_cell_length_b   5.14267269
_cell_length_c   5.14267269
_cell_angle_alpha   121.66343708
_cell_angle_beta   121.66343708
_cell_angle_gamma   87.14220753
_symmetry_Int_Tables_number   1
_chemical_formula_structural   EuAg3
_chemical_formula_sum   'Eu1 Ag3'
_cell_volume   93.62797931
_cell_formula_units_Z   1
loop_
 _symmetry_equiv_pos_site_id
 _symmetry_equiv_pos_as_xyz
  1  'x, y, z'
loop_
 _atom_site_type_symbol
 _atom_site_label
 _atom_site_symmetry_multiplicity
 _atom_site_fract_x
 _atom_site_fract_y
 _atom_site_fract_z
 _atom_site_occupancy
  Eu  Eu0  1  0.00000000  0.00000000  0.00000000  1
  Ag  Ag0  1  0.75000000  0.25000000  0.50000000  1
  Ag  Ag1  1  0.25000000  0.75000000  0.50000000  1
  Ag  Ag2  1  0.50000000  0.50000000  0.00000000  1
loop_
_geom_bond_atom_site_label_1
_geom_bond_atom_site_label_2
_geom_bond_distance
_geom_bond_site_symmetry_2
Ag0 Ag2 3.122953 1_545
Ag0 Ag2 3.122953 1_656
Ag0 Ag2 3.122953 1_555
Ag0 Ag2 3.122953 1_556
Ag0 Eu0 3.122953 1_655
Ag0 Eu0 3.122953 1_666
Ag0 Eu0 3.122953 1_656
Ag0 Eu0 3.122953 1_555
Ag1 Eu0 3.122953 1_566
Ag1 Ag2 3.122953 1_455
Ag1 Ag2 3.122953 1_555
Ag1 Ag2 3.122953 1_556
Ag1 Ag2 3.122953 1_566
Ag1 Eu0 3.122953 1_666
Ag1 Eu0 3.122953 1_565
Ag1 Eu0 3.122953 1_555
Ag2 Eu0 3.544609 1_655
Ag2 Eu0 3.544609 1_666
Ag2 Eu0 3.544609 1_554
Ag2 Eu0 3.544609 1_565
Ag2 Eu0 3.725967 1_665
Ag2 Eu0 3.725967 1_555
