# generated using pymatgen
data_Ce6Al3Fe11
_symmetry_space_group_name_H-M   'P 1'
_cell_length_a   8.13512800
_cell_length_b   8.13512800
_cell_length_c   12.41183719
_cell_angle_alpha   70.86976443
_cell_angle_beta   70.86976443
_cell_angle_gamma   90.00000000
_symmetry_Int_Tables_number   1
_chemical_formula_structural   Ce6Al3Fe11
_chemical_formula_sum   'Ce12 Al6 Fe22'
_cell_volume   727.87372257
_cell_formula_units_Z   2
loop_
 _symmetry_equiv_pos_site_id
 _symmetry_equiv_pos_as_xyz
  1  'x, y, z'
loop_
 _atom_site_type_symbol
 _atom_site_label
 _atom_site_symmetry_multiplicity
 _atom_site_fract_x
 _atom_site_fract_y
 _atom_site_fract_z
 _atom_site_occupancy
  Ce  Ce0  1  0.35497900  0.85497900  0.62188900  1
  Ce  Ce1  1  0.02313200  0.52313200  0.62188900  1
  Ce  Ce2  1  0.52313200  0.35497900  0.62188900  1
  Ce  Ce3  1  0.85497900  0.02313200  0.62188900  1
  Ce  Ce4  1  0.63069700  0.13069700  0.38972100  1
  Ce  Ce5  1  0.97958200  0.47958200  0.38972100  1
  Ce  Ce6  1  0.47958200  0.63069700  0.38972100  1
  Ce  Ce7  1  0.13069700  0.97958200  0.38972100  1
  Ce  Ce8  1  0.39341700  0.39341700  0.21316600  1
  Ce  Ce9  1  0.89341700  0.89341700  0.21316600  1
  Ce  Ce10  1  0.60654100  0.60654100  0.78691900  1
  Ce  Ce11  1  0.10654100  0.10654100  0.78691900  1
  Al  Al0  1  0.75015400  0.75015400  0.49969300  1
  Al  Al1  1  0.25015400  0.25015400  0.49969300  1
  Al  Al2  1  0.52070600  0.02070600  0.19700300  1
  Al  Al3  1  0.28229200  0.78229200  0.19700300  1
  Al  Al4  1  0.78229200  0.52070600  0.19700300  1
  Al  Al5  1  0.02070600  0.28229200  0.19700300  1
  Fe  Fe0  1  0.24137100  0.74137100  0.87380500  1
  Fe  Fe1  1  0.88482500  0.38482500  0.87380500  1
  Fe  Fe2  1  0.38482500  0.24137100  0.87380500  1
  Fe  Fe3  1  0.74137100  0.88482500  0.87380500  1
  Fe  Fe4  1  0.76242200  0.26242200  0.12363400  1
  Fe  Fe5  1  0.11394400  0.61394400  0.12363400  1
  Fe  Fe6  1  0.61394400  0.76242200  0.12363400  1
  Fe  Fe7  1  0.26242200  0.11394400  0.12363400  1
  Fe  Fe8  1  0.71326100  0.56942500  0.99770200  1
  Fe  Fe9  1  0.28903800  0.43287300  0.99770200  1
  Fe  Fe10  1  0.78903800  0.06942500  0.99770200  1
  Fe  Fe11  1  0.21326100  0.93287300  0.99770200  1
  Fe  Fe12  1  0.56942500  0.28903800  0.99770200  1
  Fe  Fe13  1  0.43287300  0.71326100  0.99770200  1
  Fe  Fe14  1  0.06942500  0.21326100  0.99770200  1
  Fe  Fe15  1  0.93287300  0.78903800  0.99770200  1
  Fe  Fe16  1  0.00079300  0.50079300  0.99841300  1
  Fe  Fe17  1  0.50079300  0.00079300  0.99841300  1
  Fe  Fe18  1  0.48564300  0.98564300  0.79944900  1
  Fe  Fe19  1  0.71490800  0.21490800  0.79944900  1
  Fe  Fe20  1  0.21490800  0.48564300  0.79944900  1
  Fe  Fe21  1  0.98564300  0.71490800  0.79944900  1
loop_
_geom_bond_atom_site_label_1
_geom_bond_atom_site_label_2
_geom_bond_distance
_geom_bond_site_symmetry_2
Ce0 Fe0 2.774299 1_555
Ce0 Fe21 3.032648 1_455
Ce0 Fe20 3.032648 1_555
Ce0 Ce4 3.145333 1_565
Ce0 Fe18 3.191802 1_555
Ce1 Fe1 2.774299 1_455
Ce1 Fe21 3.032648 1_455
Ce1 Fe20 3.032648 1_555
Ce1 Ce5 3.145333 1_455
Ce1 Fe19 3.191802 1_455
Ce2 Fe2 2.774299 1_555
Ce2 Fe19 3.032648 1_555
Ce2 Fe18 3.032648 1_545
Ce2 Ce6 3.145333 1_555
Ce2 Fe20 3.191802 1_555
Ce3 Fe3 2.774299 1_545
Ce3 Fe19 3.032648 1_555
Ce3 Fe18 3.032648 1_545
Ce3 Ce7 3.145333 1_645
Ce3 Fe21 3.191802 1_545
Ce4 Fe4 2.926555 1_555
Ce5 Fe5 2.926555 1_655
Ce6 Fe6 2.926555 1_555
Ce7 Fe7 2.926555 1_565
Ce8 Fe9 2.983577 1_554
Ce8 Fe12 2.983577 1_554
Ce8 Fe8 2.983582 1_554
Ce8 Fe13 2.983582 1_554
Ce8 Fe6 3.157796 1_555
Ce8 Fe4 3.157796 1_555
Ce8 Fe5 3.157796 1_555
Ce8 Fe7 3.157796 1_555
Ce9 Fe10 2.983577 1_564
Ce9 Fe15 2.983577 1_554
Ce9 Fe11 2.983582 1_654
Ce9 Fe14 2.983582 1_664
Ce9 Fe4 3.157796 1_565
Ce9 Fe7 3.157796 1_665
Ce9 Fe5 3.157796 1_655
Ce9 Fe6 3.157796 1_555
Ce10 Fe8 2.942853 1_555
Ce10 Fe12 2.942853 1_555
Ce10 Fe13 2.942855 1_555
Ce10 Fe9 2.942855 1_555
Ce10 Fe3 3.141127 1_555
Ce10 Fe0 3.141127 1_555
Ce10 Fe1 3.141127 1_555
Ce10 Fe2 3.141127 1_555
Ce10 Fe21 3.273671 1_555
Ce10 Fe18 3.273673 1_555
Ce10 Fe19 3.273679 1_555
Ce10 Fe20 3.273681 1_555
Ce11 Fe14 2.942853 1_555
Ce11 Fe10 2.942853 1_455
Ce11 Fe11 2.942855 1_545
Ce11 Fe15 2.942855 1_445
Ce11 Fe1 3.141127 1_455
Ce11 Fe3 3.141127 1_445
Ce11 Fe0 3.141127 1_545
Ce11 Fe2 3.141127 1_555
Ce11 Fe20 3.273671 1_555
Ce11 Fe18 3.273673 1_545
Ce11 Fe19 3.273679 1_455
Ce11 Fe21 3.273681 1_445
Al0 Ce9 3.151322 1_555
Al0 Ce10 3.159010 1_555
Al0 Ce7 3.238990 1_655
Al0 Ce4 3.238994 1_565
Al0 Ce5 3.238997 1_555
Al0 Ce6 3.239000 1_555
Al0 Ce3 3.318788 1_565
Al0 Ce1 3.318791 1_655
Al0 Ce0 3.318795 1_555
Al0 Ce2 3.318798 1_555
Al1 Ce8 3.151322 1_555
Al1 Ce11 3.159010 1_555
Al1 Ce6 3.238990 1_555
Al1 Ce4 3.238994 1_555
Al1 Ce5 3.238997 1_455
Al1 Ce7 3.239000 1_545
Al1 Ce2 3.318788 1_555
Al1 Ce1 3.318791 1_555
Al1 Ce0 3.318795 1_545
Al1 Ce3 3.318798 1_455
Al2 Fe4 2.493053 1_555
Al2 Fe6 2.573116 1_545
Al2 Fe7 2.573116 1_555
Al2 Fe17 2.579046 1_554
Al2 Fe10 2.619067 1_554
Al2 Fe12 2.619067 1_554
Al2 Al3 2.742907 1_545
Al2 Ce4 3.182542 1_555
Al2 Ce7 3.225100 1_545
Al2 Ce6 3.225100 1_545
Al2 Ce8 3.250906 1_555
Al2 Ce9 3.250906 1_545
Al3 Fe5 2.493064 1_555
Al3 Fe6 2.573109 1_555
Al3 Fe7 2.573109 1_565
Al3 Fe17 2.579033 1_564
Al3 Fe13 2.619065 1_554
Al3 Fe11 2.619065 1_554
Al3 Ce5 3.182550 1_455
Al3 Ce7 3.225096 1_555
Al3 Ce6 3.225096 1_555
Al3 Ce9 3.250911 1_455
Al3 Ce8 3.250911 1_555
Al4 Fe6 2.493058 1_555
Al4 Fe5 2.573108 1_655
Al4 Fe4 2.573117 1_555
Al4 Fe16 2.579039 1_654
Al4 Fe15 2.619065 1_554
Al4 Fe8 2.619067 1_554
Al4 Al5 2.742907 1_655
Al4 Ce6 3.182546 1_555
Al4 Ce5 3.225094 1_555
Al4 Ce4 3.225102 1_555
Al4 Ce9 3.250904 1_555
Al4 Ce8 3.250914 1_555
Al5 Fe7 2.493058 1_555
Al5 Fe5 2.573108 1_555
Al5 Fe4 2.573117 1_455
Al5 Fe16 2.579039 1_554
Al5 Fe9 2.619065 1_554
Al5 Fe14 2.619067 1_554
Al5 Ce7 3.182546 1_545
Al5 Ce5 3.225094 1_455
Al5 Ce4 3.225102 1_455
Al5 Ce8 3.250904 1_555
Al5 Ce9 3.250914 1_445
Fe0 Fe16 2.466750 1_555
Fe0 Fe11 2.486737 1_555
Fe0 Fe13 2.486737 1_555
Fe0 Fe18 2.519019 1_555
Fe0 Fe21 2.571905 1_455
Fe0 Fe20 2.571905 1_555
Fe0 Fe9 2.583587 1_555
Fe0 Fe15 2.583587 1_455
Fe0 Fe5 2.747857 1_556
Fe1 Fe16 2.466731 1_655
Fe1 Fe10 2.486744 1_555
Fe1 Fe12 2.486744 1_555
Fe1 Fe19 2.519030 1_555
Fe1 Fe20 2.571896 1_655
Fe1 Fe21 2.571896 1_555
Fe1 Fe8 2.583580 1_555
Fe1 Fe14 2.583580 1_655
Fe1 Fe4 2.747857 1_556
Fe2 Fe9 2.486737 1_555
Fe2 Fe20 2.519025 1_555
Fe2 Fe7 2.747857 1_556
Fe3 Fe8 2.486744 1_555
Fe3 Fe6 2.747857 1_556
Fe4 Fe8 2.586832 1_554
Fe5 Fe9 2.586835 1_554
Fe6 Fe8 2.518280 1_554
Fe7 Fe9 2.518279 1_554
Fe10 Fe17 2.406994 1_555
Fe10 Fe4 2.518279 1_556
Fe10 Fe12 2.526605 1_555
Fe10 Fe15 2.563603 1_545
Fe10 Fe14 2.563607 1_655
Fe10 Fe3 2.583580 1_545
Fe10 Fe6 2.586835 1_546
Fe10 Fe19 2.623583 1_555
Fe11 Fe17 2.406976 1_565
Fe11 Fe5 2.518280 1_556
Fe11 Fe13 2.526594 1_555
Fe11 Fe15 2.563610 1_455
Fe11 Fe14 2.563614 1_565
Fe11 Fe2 2.583587 1_565
Fe11 Fe7 2.586832 1_566
Fe11 Fe18 2.623578 1_555
Fe12 Fe17 2.406994 1_555
Fe12 Fe4 2.518279 1_556
Fe12 Fe9 2.563603 1_555
Fe12 Fe8 2.563607 1_555
Fe12 Fe2 2.583580 1_555
Fe12 Fe7 2.586835 1_556
Fe12 Fe19 2.623583 1_555
Fe13 Fe17 2.406976 1_565
Fe13 Fe5 2.518280 1_556
Fe13 Fe9 2.563610 1_555
Fe13 Fe8 2.563614 1_555
Fe13 Fe3 2.583587 1_555
Fe13 Fe6 2.586832 1_556
Fe13 Fe18 2.623578 1_555
Fe14 Fe16 2.406978 1_555
Fe14 Fe2 2.486744 1_555
Fe14 Fe7 2.518280 1_556
Fe14 Fe9 2.526600 1_555
Fe14 Fe4 2.586832 1_456
Fe14 Fe20 2.623578 1_555
Fe15 Fe16 2.406992 1_655
Fe15 Fe3 2.486737 1_555
Fe15 Fe6 2.518279 1_556
Fe15 Fe8 2.526600 1_555
Fe15 Fe5 2.586835 1_656
Fe15 Fe21 2.623583 1_555
Fe16 Fe8 2.406978 1_455
Fe16 Fe9 2.406992 1_555
Fe16 Fe4 2.446548 1_456
Fe16 Fe5 2.446557 1_556
Fe16 Fe21 2.554965 1_455
Fe16 Fe20 2.554965 1_555
Fe17 Fe6 2.446553 1_546
Fe17 Fe7 2.446553 1_556
Fe17 Fe3 2.466740 1_545
Fe17 Fe2 2.466740 1_555
Fe17 Fe18 2.554962 1_545
Fe17 Fe19 2.554967 1_555
Fe18 Fe2 2.571903 1_565
Fe18 Fe3 2.571903 1_555
Fe18 Fe19 2.637650 1_565
Fe19 Fe2 2.571897 1_555
Fe19 Fe3 2.571897 1_545
Fe20 Fe9 2.623583 1_555
Fe20 Fe21 2.637650 1_455
Fe21 Fe3 2.519025 1_555
Fe21 Fe8 2.623578 1_555
