# generated using pymatgen
data_BaMg30MnO32
_symmetry_space_group_name_H-M   'P 1'
_cell_length_a   8.66647900
_cell_length_b   8.66647900
_cell_length_c   8.66623300
_cell_angle_alpha   90.00000000
_cell_angle_beta   90.00000000
_cell_angle_gamma   90.00000000
_symmetry_Int_Tables_number   1
_chemical_formula_structural   BaMg30MnO32
_chemical_formula_sum   'Ba1 Mg30 Mn1 O32'
_cell_volume   650.90219979
_cell_formula_units_Z   1
loop_
 _symmetry_equiv_pos_site_id
 _symmetry_equiv_pos_as_xyz
  1  'x, y, z'
loop_
 _atom_site_type_symbol
 _atom_site_label
 _atom_site_symmetry_multiplicity
 _atom_site_fract_x
 _atom_site_fract_y
 _atom_site_fract_z
 _atom_site_occupancy
  Ba  Ba0  1  0.50000000  0.50000000  0.00000000  1
  Mg  Mg0  1  0.50000000  0.00000000  0.00000000  1
  Mg  Mg1  1  0.00000000  0.50000000  0.00000000  1
  Mg  Mg2  1  0.00000000  0.00000000  0.50000000  1
  Mg  Mg3  1  0.50000000  0.00000000  0.50000000  1
  Mg  Mg4  1  0.00000000  0.50000000  0.50000000  1
  Mg  Mg5  1  0.50000000  0.50000000  0.50000000  1
  Mg  Mg6  1  0.24338200  0.24338200  0.00000000  1
  Mg  Mg7  1  0.75661800  0.24338200  0.00000000  1
  Mg  Mg8  1  0.24338200  0.75661800  0.00000000  1
  Mg  Mg9  1  0.75661800  0.75661800  0.00000000  1
  Mg  Mg10  1  0.24936500  0.24936500  0.50000000  1
  Mg  Mg11  1  0.75063500  0.24936500  0.50000000  1
  Mg  Mg12  1  0.24936500  0.75063500  0.50000000  1
  Mg  Mg13  1  0.75063500  0.75063500  0.50000000  1
  Mg  Mg14  1  0.25019800  0.00000000  0.25151800  1
  Mg  Mg15  1  0.74980200  0.00000000  0.25151800  1
  Mg  Mg16  1  0.24247000  0.50000000  0.25738700  1
  Mg  Mg17  1  0.75753000  0.50000000  0.25738700  1
  Mg  Mg18  1  0.25019800  0.00000000  0.74848200  1
  Mg  Mg19  1  0.74980200  0.00000000  0.74848200  1
  Mg  Mg20  1  0.24247000  0.50000000  0.74261300  1
  Mg  Mg21  1  0.75753000  0.50000000  0.74261300  1
  Mg  Mg22  1  0.00000000  0.25019800  0.25151800  1
  Mg  Mg23  1  0.50000000  0.24247000  0.25738700  1
  Mg  Mg24  1  0.00000000  0.74980200  0.25151800  1
  Mg  Mg25  1  0.50000000  0.75753000  0.25738700  1
  Mg  Mg26  1  0.00000000  0.25019800  0.74848200  1
  Mg  Mg27  1  0.50000000  0.24247000  0.74261300  1
  Mg  Mg28  1  0.00000000  0.74980200  0.74848200  1
  Mg  Mg29  1  0.50000000  0.75753000  0.74261300  1
  Mn  Mn0  1  0.00000000  0.00000000  0.00000000  1
  O  O0  1  0.00000000  0.00000000  0.25775800  1
  O  O1  1  0.50000000  0.00000000  0.25639800  1
  O  O2  1  0.00000000  0.50000000  0.25639800  1
  O  O3  1  0.50000000  0.50000000  0.27899600  1
  O  O4  1  0.00000000  0.00000000  0.74224200  1
  O  O5  1  0.50000000  0.00000000  0.74360200  1
  O  O6  1  0.00000000  0.50000000  0.74360200  1
  O  O7  1  0.50000000  0.50000000  0.72100400  1
  O  O8  1  0.25031500  0.25031500  0.24916000  1
  O  O9  1  0.74968500  0.25031500  0.24916000  1
  O  O10  1  0.25031500  0.74968500  0.24916000  1
  O  O11  1  0.74968500  0.74968500  0.24916000  1
  O  O12  1  0.25031500  0.25031500  0.75084000  1
  O  O13  1  0.74968500  0.25031500  0.75084000  1
  O  O14  1  0.25031500  0.74968500  0.75084000  1
  O  O15  1  0.74968500  0.74968500  0.75084000  1
  O  O16  1  0.25097400  0.00000000  0.00000000  1
  O  O17  1  0.74902600  0.00000000  0.00000000  1
  O  O18  1  0.22142300  0.50000000  0.00000000  1
  O  O19  1  0.77857700  0.50000000  0.00000000  1
  O  O20  1  0.24936100  0.00000000  0.50000000  1
  O  O21  1  0.75063900  0.00000000  0.50000000  1
  O  O22  1  0.24445900  0.50000000  0.50000000  1
  O  O23  1  0.75554100  0.50000000  0.50000000  1
  O  O24  1  0.00000000  0.25097400  0.00000000  1
  O  O25  1  0.50000000  0.22142300  0.00000000  1
  O  O26  1  0.00000000  0.74902600  0.00000000  1
  O  O27  1  0.50000000  0.77857700  0.00000000  1
  O  O28  1  0.00000000  0.24936100  0.50000000  1
  O  O29  1  0.50000000  0.24445900  0.50000000  1
  O  O30  1  0.00000000  0.75063900  0.50000000  1
  O  O31  1  0.50000000  0.75554100  0.50000000  1
loop_
_geom_bond_atom_site_label_1
_geom_bond_atom_site_label_2
_geom_bond_distance
_geom_bond_site_symmetry_2
Ba0 O19 2.414282 1_555
Ba0 O27 2.414282 1_555
Ba0 O25 2.414282 1_555
Ba0 O18 2.414282 1_555
Ba0 O3 2.417844 1_555
Ba0 O7 2.417844 1_554
Mg0 O25 1.918958 1_555
Mg0 O27 1.918958 1_545
Mg0 O17 2.158179 1_555
Mg0 O16 2.158179 1_555
Mg0 O1 2.222005 1_555
Mg0 O5 2.222005 1_554
Mg1 O18 1.918958 1_555
Mg1 O19 1.918958 1_455
Mg1 O26 2.158179 1_555
Mg1 O24 2.158179 1_555
Mg1 O6 2.222005 1_554
Mg1 O2 2.222005 1_555
Mg2 O4 2.099326 1_555
Mg2 O0 2.099326 1_555
Mg2 O20 2.161082 1_555
Mg2 O28 2.161082 1_555
Mg2 O30 2.161082 1_545
Mg2 O21 2.161082 1_455
Mg3 O5 2.111112 1_555
Mg3 O1 2.111112 1_555
Mg3 O29 2.118599 1_555
Mg3 O31 2.118599 1_545
Mg3 O21 2.172158 1_555
Mg3 O20 2.172158 1_555
Mg4 O2 2.111112 1_555
Mg4 O6 2.111112 1_555
Mg4 O22 2.118599 1_555
Mg4 O23 2.118599 1_455
Mg4 O30 2.172158 1_555
Mg4 O28 2.172158 1_555
Mg5 O7 1.915272 1_555
Mg5 O3 1.915272 1_555
Mg5 O31 2.214641 1_555
Mg5 O23 2.214641 1_555
Mg5 O22 2.214641 1_555
Mg5 O29 2.214641 1_555
Mg6 O24 2.110291 1_555
Mg6 O16 2.110291 1_555
Mg6 O12 2.160950 1_554
Mg6 O8 2.160950 1_555
Mg6 O18 2.232102 1_555
Mg6 O25 2.232102 1_555
Mg7 O17 2.110291 1_555
Mg7 O24 2.110291 1_655
Mg7 O13 2.160950 1_554
Mg7 O9 2.160950 1_555
Mg7 O19 2.232102 1_555
Mg7 O25 2.232102 1_555
Mg8 O16 2.110291 1_565
Mg8 O26 2.110291 1_555
Mg8 O14 2.160950 1_554
Mg8 O10 2.160950 1_555
Mg8 O27 2.232102 1_555
Mg8 O18 2.232102 1_555
Mg9 O17 2.110291 1_565
Mg9 O26 2.110291 1_655
Mg9 O15 2.160950 1_554
Mg9 O11 2.160950 1_555
Mg9 O19 2.232102 1_555
Mg9 O27 2.232102 1_555
Mg10 O20 2.161117 1_555
Mg10 O28 2.161117 1_555
Mg10 O22 2.172539 1_555
Mg10 O29 2.172539 1_555
Mg10 O8 2.173869 1_555
Mg10 O12 2.173869 1_555
Mg11 O21 2.161117 1_555
Mg11 O28 2.161117 1_655
Mg11 O29 2.172539 1_555
Mg11 O23 2.172539 1_555
Mg11 O9 2.173869 1_555
Mg11 O13 2.173869 1_555
Mg12 O30 2.161117 1_555
Mg12 O20 2.161117 1_565
Mg12 O22 2.172539 1_555
Mg12 O31 2.172539 1_555
Mg12 O10 2.173869 1_555
Mg12 O14 2.173869 1_555
Mg13 O21 2.161117 1_565
Mg13 O30 2.161117 1_655
Mg13 O31 2.172539 1_555
Mg13 O23 2.172539 1_555
Mg13 O11 2.173869 1_555
Mg13 O15 2.173869 1_555
Mg14 O20 2.153415 1_555
Mg14 O1 2.165317 1_555
Mg14 O0 2.169010 1_555
Mg14 O8 2.169446 1_555
Mg14 O10 2.169446 1_545
Mg14 O16 2.179724 1_555
Mg15 O21 2.153415 1_555
Mg15 O1 2.165317 1_555
Mg15 O0 2.169010 1_655
Mg15 O9 2.169446 1_555
Mg15 O11 2.169446 1_545
Mg15 O17 2.179724 1_555
Mg16 O2 2.101379 1_555
Mg16 O22 2.102611 1_555
Mg16 O10 2.166131 1_555
Mg16 O8 2.166131 1_555
Mg16 O18 2.238021 1_555
Mg16 O3 2.239721 1_555
Mg17 O2 2.101379 1_655
Mg17 O23 2.102611 1_555
Mg17 O11 2.166131 1_555
Mg17 O9 2.166131 1_555
Mg17 O19 2.238021 1_555
Mg17 O3 2.239721 1_555
Mg18 O20 2.153415 1_555
Mg18 O5 2.165317 1_555
Mg18 O4 2.169010 1_555
Mg18 O12 2.169446 1_555
Mg18 O14 2.169446 1_545
Mg18 O16 2.179724 1_556
Mg19 O21 2.153415 1_555
Mg19 O5 2.165317 1_555
Mg19 O4 2.169010 1_655
Mg19 O13 2.169446 1_555
Mg19 O15 2.169446 1_545
Mg19 O17 2.179724 1_556
Mg20 O6 2.101379 1_555
Mg20 O22 2.102611 1_555
Mg20 O14 2.166131 1_555
Mg20 O12 2.166131 1_555
Mg20 O18 2.238021 1_556
Mg20 O7 2.239721 1_555
Mg21 O6 2.101379 1_655
Mg21 O23 2.102611 1_555
Mg21 O15 2.166131 1_555
Mg21 O13 2.166131 1_555
Mg21 O19 2.238021 1_556
Mg21 O7 2.239721 1_555
Mg22 O28 2.153415 1_555
Mg22 O2 2.165317 1_555
Mg22 O0 2.169010 1_555
Mg22 O8 2.169446 1_555
Mg22 O9 2.169446 1_455
Mg22 O24 2.179724 1_555
Mg23 O1 2.101379 1_555
Mg23 O29 2.102611 1_555
Mg23 O9 2.166131 1_555
Mg23 O8 2.166131 1_555
Mg23 O25 2.238021 1_555
Mg23 O3 2.239721 1_555
Mg24 O30 2.153415 1_555
Mg24 O2 2.165317 1_555
Mg24 O0 2.169010 1_565
Mg24 O10 2.169446 1_555
Mg24 O11 2.169446 1_455
Mg24 O26 2.179724 1_555
Mg25 O1 2.101379 1_565
Mg25 O31 2.102611 1_555
Mg25 O11 2.166131 1_555
Mg25 O10 2.166131 1_555
Mg25 O27 2.238021 1_555
Mg25 O3 2.239721 1_555
Mg26 O28 2.153415 1_555
Mg26 O6 2.165317 1_555
Mg26 O4 2.169010 1_555
Mg26 O12 2.169446 1_555
Mg26 O13 2.169446 1_455
Mg26 O24 2.179724 1_556
Mg27 O5 2.101379 1_555
Mg27 O29 2.102611 1_555
Mg27 O13 2.166131 1_555
Mg27 O12 2.166131 1_555
Mg27 O25 2.238021 1_556
Mg27 O7 2.239721 1_555
Mg28 O30 2.153415 1_555
Mg28 O6 2.165317 1_555
Mg28 O4 2.169010 1_565
Mg28 O14 2.169446 1_555
Mg28 O15 2.169446 1_455
Mg28 O26 2.179724 1_556
Mg29 O5 2.101379 1_565
Mg29 O31 2.102611 1_555
Mg29 O15 2.166131 1_555
Mg29 O14 2.166131 1_555
Mg29 O27 2.238021 1_556
Mg29 O7 2.239721 1_555
Mn0 O24 2.175061 1_555
Mn0 O16 2.175061 1_555
Mn0 O17 2.175061 1_455
Mn0 O26 2.175061 1_545
Mn0 O0 2.233791 1_555
Mn0 O4 2.233791 1_554
