# generated using pymatgen
data_KH2AuC4N4O
_symmetry_space_group_name_H-M   'P 1'
_cell_length_a   6.82344400
_cell_length_b   7.50578000
_cell_length_c   17.51149300
_cell_angle_alpha   90.00000000
_cell_angle_beta   90.00000000
_cell_angle_gamma   90.00000000
_symmetry_Int_Tables_number   1
_chemical_formula_structural   KH2AuC4N4O
_chemical_formula_sum   'K4 H8 Au4 C16 N16 O4'
_cell_volume   896.85583345
_cell_formula_units_Z   4
loop_
 _symmetry_equiv_pos_site_id
 _symmetry_equiv_pos_as_xyz
  1  'x, y, z'
loop_
 _atom_site_type_symbol
 _atom_site_label
 _atom_site_symmetry_multiplicity
 _atom_site_fract_x
 _atom_site_fract_y
 _atom_site_fract_z
 _atom_site_occupancy
  K  K0  1  0.73991900  0.46794400  0.98265600  1
  K  K1  1  0.76008100  0.53205600  0.48265600  1
  K  K2  1  0.23991900  0.03205600  0.01734400  1
  K  K3  1  0.26008100  0.96794400  0.51734400  1
  H  H0  1  0.31469800  0.68761100  0.93035700  1
  H  H1  1  0.18530200  0.31238900  0.43035700  1
  H  H2  1  0.81469800  0.81238900  0.06964300  1
  H  H3  1  0.68530200  0.18761100  0.56964300  1
  H  H4  1  0.27701300  0.59263100  0.00808900  1
  H  H5  1  0.22298700  0.40736900  0.50808900  1
  H  H6  1  0.77701300  0.90736900  0.99191100  1
  H  H7  1  0.72298700  0.09263100  0.49191100  1
  Au  Au0  1  0.24222900  0.42816200  0.73902100  1
  Au  Au1  1  0.25777100  0.57183800  0.23902100  1
  Au  Au2  1  0.74222900  0.07183800  0.26097900  1
  Au  Au3  1  0.75777100  0.92816200  0.76097900  1
  C  C0  1  0.34880000  0.52414000  0.64025700  1
  C  C1  1  0.15120000  0.47586000  0.14025700  1
  C  C2  1  0.84880000  0.97586000  0.35974300  1
  C  C3  1  0.65120000  0.02414000  0.85974300  1
  C  C4  1  0.99820500  0.35282100  0.68355900  1
  C  C5  1  0.50179500  0.64717900  0.18355900  1
  C  C6  1  0.49820500  0.14717900  0.31644100  1
  C  C7  1  0.00179500  0.85282100  0.81644100  1
  C  C8  1  0.13509000  0.33639900  0.83866200  1
  C  C9  1  0.36491000  0.66360100  0.33866200  1
  C  C10  1  0.63509000  0.16360100  0.16133800  1
  C  C11  1  0.86491000  0.83639900  0.66133800  1
  C  C12  1  0.48868400  0.50038600  0.79388400  1
  C  C13  1  0.01131600  0.49961400  0.29388400  1
  C  C14  1  0.98868400  0.99961400  0.20611600  1
  C  C15  1  0.51131600  0.00038600  0.70611600  1
  N  N0  1  0.41180700  0.57756100  0.58267400  1
  N  N1  1  0.08819300  0.42243900  0.08267400  1
  N  N2  1  0.91180700  0.92243900  0.41732600  1
  N  N3  1  0.58819300  0.07756100  0.91732600  1
  N  N4  1  0.85970800  0.30476000  0.65042700  1
  N  N5  1  0.64029200  0.69524000  0.15042700  1
  N  N6  1  0.35970800  0.19524000  0.34957300  1
  N  N7  1  0.14029200  0.80476000  0.84957300  1
  N  N8  1  0.08015200  0.28680000  0.89809600  1
  N  N9  1  0.41984800  0.71320000  0.39809600  1
  N  N10  1  0.58015200  0.21320000  0.10190400  1
  N  N11  1  0.91984800  0.78680000  0.60190400  1
  N  N12  1  0.62915100  0.54229600  0.82738100  1
  N  N13  1  0.87084900  0.45770400  0.32738100  1
  N  N14  1  0.12915100  0.95770400  0.17261900  1
  N  N15  1  0.37084900  0.04229600  0.67261900  1
  O  O0  1  0.37408700  0.66378000  0.98052500  1
  O  O1  1  0.12591300  0.33622000  0.48052500  1
  O  O2  1  0.87408700  0.83622000  0.01947500  1
  O  O3  1  0.62591300  0.16378000  0.51947500  1
loop_
_geom_bond_atom_site_label_1
_geom_bond_atom_site_label_2
_geom_bond_distance
_geom_bond_site_symmetry_2
K0 N12 2.876837 1_555
K0 O0 2.897100 1_555
K0 N1 2.971817 1_656
K0 O2 2.982385 1_556
K0 N10 3.033977 1_556
K0 N8 3.070980 1_655
K0 N3 3.311538 1_555
K1 N13 2.876837 1_555
K1 O1 2.897100 1_655
K1 N0 2.971817 1_555
K1 O3 2.982385 1_555
K1 N11 3.033977 1_555
K1 N9 3.070980 1_555
K1 N2 3.311538 1_555
K2 N14 2.876837 1_545
K2 O2 2.897100 1_445
K2 N3 2.971817 1_554
K2 O0 2.982385 1_544
K2 N8 3.033977 1_554
K2 N10 3.070980 1_555
K2 N1 3.311538 1_555
K3 N15 2.876837 1_565
K3 O3 2.897100 1_565
K3 N2 2.971817 1_455
K3 O1 2.982385 1_565
K3 N9 3.033977 1_555
K3 N11 3.070980 1_455
K3 N0 3.311538 1_555
H0 O0 0.983872 1_555
H1 O1 0.983872 1_555
H2 O2 0.983872 1_555
H3 O3 0.983872 1_555
H4 O0 0.978222 1_554
H5 O1 0.978222 1_555
H6 O2 0.978222 1_556
H7 O3 0.978222 1_555
Au0 C4 2.008870 1_455
Au0 C0 2.009712 1_555
Au0 C12 2.011193 1_555
Au0 C8 2.013298 1_555
Au1 C5 2.008870 1_555
Au1 C1 2.009712 1_555
Au1 C13 2.011193 1_555
Au1 C9 2.013298 1_555
Au2 C6 2.008870 1_555
Au2 C2 2.009712 1_545
Au2 C14 2.011193 1_545
Au2 C10 2.013298 1_555
Au3 C7 2.008870 1_655
Au3 C3 2.009712 1_565
Au3 C15 2.011193 1_565
Au3 C11 2.013298 1_555
C0 N0 1.167222 1_555
C1 N1 1.167222 1_555
C2 N2 1.167222 1_555
C3 N3 1.167222 1_555
C4 N4 1.166116 1_555
C5 N5 1.166116 1_555
C6 N6 1.166116 1_555
C7 N7 1.166116 1_555
C8 N8 1.167191 1_555
C9 N9 1.167191 1_555
C10 N10 1.167191 1_555
C11 N11 1.167191 1_555
C12 N12 1.166916 1_555
C13 N13 1.166916 1_455
C14 N14 1.166916 1_655
C15 N15 1.166916 1_555
