# generated using pymatgen
data_YbAlO3
_symmetry_space_group_name_H-M   'P 1'
_cell_length_a   5.23042900
_cell_length_b   5.26619100
_cell_length_c   7.41470500
_cell_angle_alpha   90.00000000
_cell_angle_beta   90.00000000
_cell_angle_gamma   90.00000000
_symmetry_Int_Tables_number   1
_chemical_formula_structural   YbAlO3
_chemical_formula_sum   'Yb4 Al4 O12'
_cell_volume   204.23388309
_cell_formula_units_Z   4
loop_
 _symmetry_equiv_pos_site_id
 _symmetry_equiv_pos_as_xyz
  1  'x, y, z'
loop_
 _atom_site_type_symbol
 _atom_site_label
 _atom_site_symmetry_multiplicity
 _atom_site_fract_x
 _atom_site_fract_y
 _atom_site_fract_z
 _atom_site_occupancy
  Yb  Yb0  1  0.50556700  0.52505700  0.25000000  1
  Yb  Yb1  1  0.99443300  0.02505700  0.25000000  1
  Yb  Yb2  1  0.49443300  0.47494300  0.75000000  1
  Yb  Yb3  1  0.00556700  0.97494300  0.75000000  1
  Al  Al0  1  0.00000000  0.50000000  0.00000000  1
  Al  Al1  1  0.50000000  0.00000000  0.50000000  1
  Al  Al2  1  0.00000000  0.50000000  0.50000000  1
  Al  Al3  1  0.50000000  0.00000000  0.00000000  1
  O  O0  1  0.45603400  0.99286000  0.25000000  1
  O  O1  1  0.04396600  0.49286000  0.25000000  1
  O  O2  1  0.54396600  0.00714000  0.75000000  1
  O  O3  1  0.95603400  0.50714000  0.75000000  1
  O  O4  1  0.77808900  0.77637200  0.02333400  1
  O  O5  1  0.72191100  0.27637200  0.47666600  1
  O  O6  1  0.22191100  0.22362800  0.52333400  1
  O  O7  1  0.27808900  0.72362800  0.97666600  1
  O  O8  1  0.22191100  0.22362800  0.97666600  1
  O  O9  1  0.27808900  0.72362800  0.52333400  1
  O  O10  1  0.77808900  0.77637200  0.47666600  1
  O  O11  1  0.72191100  0.27637200  0.02333400  1
loop_
_geom_bond_atom_site_label_1
_geom_bond_atom_site_label_2
_geom_bond_distance
_geom_bond_site_symmetry_2
Al0 O1 1.868264 1_555
Al0 O3 1.868264 1_454
Al0 O4 1.869600 1_455
Al0 O8 1.869600 1_554
Al0 O7 1.879489 1_554
Al0 O11 1.879489 1_455
Al1 O2 1.868264 1_555
Al1 O0 1.868264 1_545
Al1 O5 1.869600 1_555
Al1 O9 1.869600 1_545
Al1 O6 1.879489 1_555
Al1 O10 1.879489 1_545
Al2 O3 1.868264 1_455
Al2 O1 1.868264 1_555
Al2 O10 1.869600 1_455
Al2 O6 1.869600 1_555
Al2 O9 1.879489 1_555
Al2 O5 1.879489 1_455
Al3 O2 1.868264 1_554
Al3 O0 1.868264 1_545
Al3 O11 1.869600 1_555
Al3 O7 1.869600 1_544
Al3 O8 1.879489 1_554
Al3 O4 1.879489 1_545
O0 Yb1 2.420318 1_465
O0 Yb0 2.477126 1_555
O0 Yb0 2.814600 1_565
O0 Yb1 2.821158 1_565
O1 Yb0 2.420318 1_555
O1 Yb1 2.477126 1_455
O1 Yb1 2.814600 1_465
O1 Yb0 2.821158 1_455
O2 Yb3 2.420318 1_645
O2 Yb2 2.477126 1_555
O2 Yb2 2.814600 1_545
O2 Yb3 2.821158 1_545
O3 Yb2 2.420318 1_555
O3 Yb3 2.477126 1_655
O3 Yb3 2.814600 1_645
O3 Yb2 2.821158 1_655
O4 Yb1 2.412507 1_565
O4 Yb0 2.570601 1_555
O4 Yb3 2.572282 1_654
O4 Yb2 2.971272 1_554
O5 Yb0 2.412507 1_555
O5 Yb1 2.570601 1_555
O5 Yb2 2.572282 1_555
O5 Yb3 2.971272 1_645
O6 Yb3 2.412507 1_545
O6 Yb2 2.570601 1_555
O6 Yb1 2.572282 1_455
O6 Yb0 2.971272 1_555
O7 Yb2 2.412507 1_555
O7 Yb3 2.570601 1_555
O7 Yb0 2.572282 1_556
O7 Yb1 2.971272 1_466
O8 Yb3 2.412507 1_545
O8 Yb2 2.570601 1_555
O8 Yb1 2.572282 1_456
O8 Yb0 2.971272 1_556
O9 Yb2 2.412507 1_555
O9 Yb3 2.570601 1_555
O9 Yb0 2.572282 1_555
O9 Yb1 2.971272 1_465
O10 Yb1 2.412507 1_565
O10 Yb0 2.570601 1_555
O10 Yb3 2.572282 1_655
O10 Yb2 2.971272 1_555
O11 Yb0 2.412507 1_555
O11 Yb1 2.570601 1_555
O11 Yb2 2.572282 1_554
O11 Yb3 2.971272 1_644
