# generated using pymatgen
data_KNiPO10
_symmetry_space_group_name_H-M   'P 1'
_cell_length_a   9.62785700
_cell_length_b   6.43331600
_cell_length_c   7.31217705
_cell_angle_alpha   87.08690178
_cell_angle_beta   90.00000000
_cell_angle_gamma   90.00000000
_symmetry_Int_Tables_number   1
_chemical_formula_structural   KNiPO10
_chemical_formula_sum   'K2 Ni2 P2 O20'
_cell_volume   452.32400905
_cell_formula_units_Z   2
loop_
 _symmetry_equiv_pos_site_id
 _symmetry_equiv_pos_as_xyz
  1  'x, y, z'
loop_
 _atom_site_type_symbol
 _atom_site_label
 _atom_site_symmetry_multiplicity
 _atom_site_fract_x
 _atom_site_fract_y
 _atom_site_fract_z
 _atom_site_occupancy
  K  K0  1  0.17008100  0.14641000  0.16811500  1
  K  K1  1  0.67008100  0.85359000  0.83188500  1
  Ni  Ni0  1  0.80824500  0.14241000  0.43449300  1
  Ni  Ni1  1  0.30824500  0.85759000  0.56550700  1
  P  P0  1  0.54402200  0.94997000  0.27801400  1
  P  P1  1  0.04402200  0.05003000  0.72198600  1
  O  O0  1  0.38750200  0.94653700  0.32683900  1
  O  O1  1  0.88750200  0.05346300  0.67316100  1
  O  O2  1  0.59538300  0.74780500  0.19315000  1
  O  O3  1  0.09538300  0.25219500  0.80685000  1
  O  O4  1  0.62957900  0.99729000  0.45199000  1
  O  O5  1  0.12957900  0.00271000  0.54801000  1
  O  O6  1  0.07502600  0.89975500  0.88858800  1
  O  O7  1  0.57502600  0.10024500  0.11141200  1
  O  O8  1  0.82776300  0.53751500  0.46172300  1
  O  O9  1  0.32776300  0.46248500  0.53827700  1
  O  O10  1  0.91255300  0.00896300  0.27960200  1
  O  O11  1  0.41255300  0.99103700  0.72039800  1
  O  O12  1  0.71665600  0.41862400  0.50213100  1
  O  O13  1  0.21665600  0.58137600  0.49786900  1
  O  O14  1  0.31861500  0.60629400  0.98795500  1
  O  O15  1  0.81861500  0.39370600  0.01204500  1
  O  O16  1  0.93260000  0.42032700  0.40658500  1
  O  O17  1  0.43260000  0.57967300  0.59341500  1
  O  O18  1  0.39057600  0.46095100  0.05114700  1
  O  O19  1  0.89057600  0.53904900  0.94885300  1
loop_
_geom_bond_atom_site_label_1
_geom_bond_atom_site_label_2
_geom_bond_distance
_geom_bond_site_symmetry_2
K0 O0 2.688986 1_545
K0 O10 2.742411 1_455
K0 O3 2.788524 1_554
K0 O6 2.804088 1_544
K0 O5 2.908983 1_555
K0 O18 3.026055 1_555
K1 O1 2.688986 1_565
K1 O11 2.742411 1_555
K1 O2 2.788524 1_556
K1 O7 2.804088 1_566
K1 O4 2.908983 1_555
K1 O19 3.026055 1_555
Ni0 O10 1.768380 1_555
Ni0 O4 1.958272 1_545
Ni0 O1 1.963131 1_555
Ni0 O12 2.066192 1_555
Ni0 O16 2.152837 1_555
Ni1 O11 1.768380 1_555
Ni1 O5 1.958272 1_565
Ni1 O0 1.963131 1_555
Ni1 O13 2.066192 1_555
Ni1 O17 2.152837 1_555
O0 P0 1.548565 1_555
O1 P1 1.548565 1_655
O2 P0 1.550215 1_555
O3 P1 1.550215 1_555
O4 P0 1.558499 1_555
O5 P1 1.558499 1_555
O6 P1 1.545348 1_565
O7 P0 1.545348 1_545
O12 O8 1.339274 1_555
O13 O9 1.339274 1_555
O14 O18 1.234465 1_556
O15 O19 1.234465 1_554
O16 O8 1.334400 1_555
O17 O9 1.334400 1_555
