# generated using pymatgen
data_Mg14ZrZn
_symmetry_space_group_name_H-M   'P 1'
_cell_length_a   6.40334854
_cell_length_b   6.24499124
_cell_length_c   10.10931841
_cell_angle_alpha   90.00000000
_cell_angle_beta   90.00000000
_cell_angle_gamma   119.18524771
_symmetry_Int_Tables_number   1
_chemical_formula_structural   Mg14ZrZn
_chemical_formula_sum   'Mg14 Zr1 Zn1'
_cell_volume   352.93831133
_cell_formula_units_Z   1
loop_
 _symmetry_equiv_pos_site_id
 _symmetry_equiv_pos_as_xyz
  1  'x, y, z'
loop_
 _atom_site_type_symbol
 _atom_site_label
 _atom_site_symmetry_multiplicity
 _atom_site_fract_x
 _atom_site_fract_y
 _atom_site_fract_z
 _atom_site_occupancy
  Mg  Mg0  1  0.16519698  0.33259799  0.62500000  1
  Mg  Mg1  1  0.16764944  0.83382422  0.62500000  1
  Mg  Mg2  1  0.65461630  0.33394258  0.12500000  1
  Mg  Mg3  1  0.66523588  0.33055490  0.62500000  1
  Mg  Mg4  1  0.65461630  0.82067272  0.12500000  1
  Mg  Mg5  1  0.66523588  0.83467998  0.62500000  1
  Mg  Mg6  1  0.33115829  0.16497432  0.36921629  1
  Mg  Mg7  1  0.33115829  0.16497432  0.88078371  1
  Mg  Mg8  1  0.33115829  0.66618497  0.36921629  1
  Mg  Mg9  1  0.33115829  0.66618497  0.88078371  1
  Mg  Mg10  1  0.84248008  0.17124054  0.36223083  1
  Mg  Mg11  1  0.84248008  0.17124054  0.88776917  1
  Mg  Mg12  1  0.84022508  0.67011304  0.37695478  1
  Mg  Mg13  1  0.84022508  0.67011304  0.87304522  1
  Zr  Zr0  1  0.15392319  0.82696109  0.12500000  1
  Zn  Zn0  1  0.18348254  0.34174077  0.12500000  1
loop_
_geom_bond_atom_site_label_1
_geom_bond_atom_site_label_2
_geom_bond_distance
_geom_bond_site_symmetry_2
Mg0 Mg1 3.122526 1_555
Mg0 Mg1 3.122526 1_545
Mg0 Mg7 3.161717 1_555
Mg0 Mg6 3.161717 1_555
Mg0 Mg8 3.161723 1_555
Mg0 Mg9 3.161723 1_555
Mg0 Mg5 3.195223 1_445
Mg0 Mg3 3.195223 1_455
Mg0 Mg5 3.208164 1_555
Mg0 Mg3 3.208164 1_555
Mg0 Mg11 3.211140 1_455
Mg0 Mg10 3.211140 1_455
Mg1 Mg12 3.104580 1_455
Mg1 Mg13 3.104580 1_455
Mg1 Mg8 3.153980 1_555
Mg1 Mg9 3.153980 1_555
Mg1 Mg6 3.153987 1_565
Mg1 Mg7 3.153987 1_565
Mg1 Mg3 3.183617 1_565
Mg1 Mg5 3.183617 1_555
Mg1 Mg3 3.219738 1_455
Mg1 Mg5 3.219739 1_455
Mg2 Mg4 3.039625 1_555
Mg2 Zn0 3.040879 1_555
Mg2 Mg7 3.060580 1_554
Mg2 Mg6 3.060580 1_555
Mg2 Zr0 3.178271 1_655
Mg2 Mg4 3.205366 1_545
Mg2 Zr0 3.225444 1_545
Mg3 Mg5 3.096735 1_545
Mg3 Mg5 3.148257 1_555
Mg3 Mg7 3.189750 1_555
Mg3 Mg6 3.189750 1_555
Mg4 Zn0 3.040878 1_555
Mg4 Mg9 3.060580 1_554
Mg4 Mg8 3.060580 1_555
Mg4 Zr0 3.178271 1_655
Mg4 Zr0 3.225445 1_555
Mg5 Mg8 3.189750 1_555
Mg5 Mg9 3.189750 1_555
Mg6 Zn0 3.037455 1_555
Mg6 Zr0 3.082648 1_545
Mg6 Mg8 3.114935 1_545
Mg6 Mg8 3.130056 1_555
Mg7 Zn0 3.037455 1_556
Mg7 Zr0 3.082648 1_546
Mg7 Mg9 3.114935 1_545
Mg7 Mg9 3.130056 1_555
Mg8 Zn0 3.037461 1_555
Mg8 Zr0 3.082642 1_555
Mg9 Zn0 3.037461 1_556
Mg9 Zr0 3.082642 1_556
Mg10 Zn0 3.063615 1_655
Mg10 Mg2 3.069713 1_555
Mg10 Mg4 3.069720 1_545
Mg10 Mg12 3.126067 1_545
Mg10 Mg12 3.126067 1_555
Mg10 Mg8 3.149236 1_655
Mg10 Mg6 3.149237 1_655
Mg10 Mg3 3.230449 1_555
Mg10 Mg5 3.230455 1_545
Mg10 Mg8 3.256034 1_545
Mg10 Mg6 3.256034 1_555
Mg11 Zn0 3.063615 1_656
Mg11 Mg2 3.069713 1_556
Mg11 Mg4 3.069720 1_546
Mg11 Mg13 3.126067 1_545
Mg11 Mg13 3.126067 1_555
Mg11 Mg9 3.149236 1_655
Mg11 Mg7 3.149237 1_655
Mg11 Mg3 3.230449 1_555
Mg11 Mg5 3.230455 1_545
Mg11 Mg9 3.256034 1_545
Mg11 Mg7 3.256034 1_555
Mg12 Zr0 3.092436 1_655
Mg12 Mg5 3.118134 1_555
Mg12 Mg3 3.118140 1_555
Mg12 Mg4 3.142319 1_555
Mg12 Mg2 3.142325 1_555
Mg12 Mg6 3.156620 1_665
Mg12 Mg8 3.156621 1_655
Mg12 Mg6 3.248782 1_555
Mg12 Mg8 3.248783 1_555
Mg13 Zr0 3.092436 1_656
Mg13 Mg5 3.118134 1_555
Mg13 Mg3 3.118140 1_555
Mg13 Mg4 3.142319 1_556
Mg13 Mg2 3.142325 1_556
Mg13 Mg7 3.156620 1_665
Mg13 Mg9 3.156621 1_655
Mg13 Mg7 3.248782 1_555
Mg13 Mg9 3.248783 1_555
Zn0 Zr0 3.126865 1_555
Zn0 Zr0 3.126865 1_545
