# generated using pymatgen
data_AgSbS(OF3)2
_symmetry_space_group_name_H-M   'P 1'
_cell_length_a   8.40833800
_cell_length_b   7.83621400
_cell_length_c   13.73955915
_cell_angle_alpha   56.08404127
_cell_angle_beta   90.00000000
_cell_angle_gamma   90.00000000
_symmetry_Int_Tables_number   1
_chemical_formula_structural   AgSbS(OF3)2
_chemical_formula_sum   'Ag4 Sb4 S4 O8 F24'
_cell_volume   751.26379151
_cell_formula_units_Z   4
loop_
 _symmetry_equiv_pos_site_id
 _symmetry_equiv_pos_as_xyz
  1  'x, y, z'
loop_
 _atom_site_type_symbol
 _atom_site_label
 _atom_site_symmetry_multiplicity
 _atom_site_fract_x
 _atom_site_fract_y
 _atom_site_fract_z
 _atom_site_occupancy
  Ag  Ag0  1  0.26056500  0.70916600  0.53324400  1
  Ag  Ag1  1  0.23943500  0.70916600  0.03324400  1
  Ag  Ag2  1  0.73943500  0.29083400  0.46675600  1
  Ag  Ag3  1  0.76056500  0.29083400  0.96675600  1
  Sb  Sb0  1  0.23974600  0.36767700  0.37647400  1
  Sb  Sb1  1  0.26025400  0.36767700  0.87647400  1
  Sb  Sb2  1  0.76025400  0.63232300  0.62352600  1
  Sb  Sb3  1  0.73974600  0.63232300  0.12352600  1
  S  S0  1  0.43027800  0.00040900  0.22701100  1
  S  S1  1  0.06972200  0.00040900  0.72701100  1
  S  S2  1  0.56972200  0.99959100  0.77298900  1
  S  S3  1  0.93027800  0.99959100  0.27298900  1
  O  O0  1  0.45753500  0.87175500  0.35270500  1
  O  O1  1  0.04246500  0.87175500  0.85270500  1
  O  O2  1  0.54246500  0.12824500  0.64729500  1
  O  O3  1  0.95753500  0.12824500  0.14729500  1
  O  O4  1  0.57141200  0.07896900  0.15363700  1
  O  O5  1  0.92858800  0.07896900  0.65363700  1
  O  O6  1  0.42858800  0.92103100  0.84636300  1
  O  O7  1  0.07141200  0.92103100  0.34636300  1
  F  F0  1  0.27524500  0.07983200  0.49273700  1
  F  F1  1  0.22475500  0.07983200  0.99273700  1
  F  F2  1  0.72475500  0.92016800  0.50726300  1
  F  F3  1  0.77524500  0.92016800  0.00726300  1
  F  F4  1  0.20457800  0.65293400  0.25589800  1
  F  F5  1  0.29542200  0.65293400  0.75589800  1
  F  F6  1  0.79542200  0.34706600  0.74410200  1
  F  F7  1  0.70457800  0.34706600  0.24410200  1
  F  F8  1  0.46141100  0.42126600  0.38266900  1
  F  F9  1  0.03858900  0.42126600  0.88266900  1
  F  F10  1  0.53858900  0.57873400  0.61733100  1
  F  F11  1  0.96141100  0.57873400  0.11733100  1
  F  F12  1  0.27920400  0.32583500  0.25330600  1
  F  F13  1  0.22079600  0.32583500  0.75330600  1
  F  F14  1  0.72079600  0.67416500  0.74669400  1
  F  F15  1  0.77920400  0.67416500  0.24669400  1
  F  F16  1  0.01735400  0.30689800  0.37839400  1
  F  F17  1  0.48264600  0.30689800  0.87839400  1
  F  F18  1  0.98264600  0.69310200  0.62160600  1
  F  F19  1  0.51735400  0.69310200  0.12160600  1
  F  F20  1  0.19870300  0.42273100  0.49454300  1
  F  F21  1  0.30129700  0.42273100  0.99454300  1
  F  F22  1  0.80129700  0.57726900  0.50545700  1
  F  F23  1  0.69870300  0.57726900  0.00545700  1
loop_
_geom_bond_atom_site_label_1
_geom_bond_atom_site_label_2
_geom_bond_distance
_geom_bond_site_symmetry_2
Ag0 F10 2.554722 1_555
Ag0 F18 2.603850 1_455
Ag0 F20 2.631214 1_555
Ag0 F0 2.637761 1_565
Ag0 O0 2.644317 1_555
Ag0 O7 2.668635 1_555
Ag1 F11 2.554722 1_455
Ag1 F19 2.603850 1_555
Ag1 F21 2.631214 1_554
Ag1 F1 2.637761 1_564
Ag1 O1 2.644317 1_554
Ag1 O6 2.668635 1_554
Ag2 F8 2.554722 1_555
Ag2 F16 2.603850 1_655
Ag2 F22 2.631214 1_555
Ag2 F2 2.637761 1_545
Ag2 O2 2.644317 1_555
Ag2 O5 2.668635 1_555
Ag3 F9 2.554722 1_655
Ag3 F17 2.603850 1_555
Ag3 F23 2.631214 1_556
Ag3 F3 2.637761 1_546
Ag3 O3 2.644317 1_556
Ag3 O4 2.668635 1_556
O0 S0 1.452040 1_565
O1 S1 1.452040 1_565
O2 S2 1.452040 1_545
O3 S3 1.452040 1_545
O4 S0 1.452922 1_555
O5 S1 1.452922 1_655
O6 S2 1.452922 1_555
O7 S3 1.452922 1_455
F0 Sb0 1.925532 1_555
F1 Sb1 1.925532 1_555
F2 Sb2 1.925532 1_555
F3 Sb3 1.925532 1_555
F4 Sb0 1.922525 1_555
F5 Sb1 1.922525 1_555
F6 Sb2 1.922525 1_555
F7 Sb3 1.922525 1_555
F8 Sb0 1.922851 1_555
F9 Sb1 1.922851 1_555
F10 Sb2 1.922851 1_555
F11 Sb3 1.922851 1_555
F12 Sb0 1.923689 1_555
F13 Sb1 1.923689 1_555
F14 Sb2 1.923689 1_555
F15 Sb3 1.923689 1_555
F16 Sb0 1.926192 1_555
F17 Sb1 1.926192 1_555
F18 Sb2 1.926192 1_555
F19 Sb3 1.926192 1_555
F20 Sb0 1.928159 1_555
F21 Sb1 1.928159 1_555
F22 Sb2 1.928159 1_555
F23 Sb3 1.928159 1_555
