# generated using pymatgen
data_KLiMg6O7
_symmetry_space_group_name_H-M   'P 1'
_cell_length_a   8.49841759
_cell_length_b   4.51021660
_cell_length_c   4.51021660
_cell_angle_alpha   90.00000000
_cell_angle_beta   90.00000000
_cell_angle_gamma   90.00000000
_symmetry_Int_Tables_number   1
_chemical_formula_structural   KLiMg6O7
_chemical_formula_sum   'K1 Li1 Mg6 O7'
_cell_volume   172.87526765
_cell_formula_units_Z   1
loop_
 _symmetry_equiv_pos_site_id
 _symmetry_equiv_pos_as_xyz
  1  'x, y, z'
loop_
 _atom_site_type_symbol
 _atom_site_label
 _atom_site_symmetry_multiplicity
 _atom_site_fract_x
 _atom_site_fract_y
 _atom_site_fract_z
 _atom_site_occupancy
  K  K0  1  0.02002518  -0.00000000  -0.00000000  1
  Li  Li0  1  0.00235189  0.50000000  0.50000000  1
  Mg  Mg0  1  0.51246851  -0.00000000  0.00000000  1
  Mg  Mg1  1  0.49759458  0.50000000  0.50000000  1
  Mg  Mg2  1  0.23921889  0.00000000  0.50000000  1
  Mg  Mg3  1  0.76948392  -0.00000000  0.50000000  1
  Mg  Mg4  1  0.23921889  0.50000000  -0.00000000  1
  Mg  Mg5  1  0.76948392  0.50000000  0.00000000  1
  O  O0  1  0.73568915  -0.00000000  0.00000000  1
  O  O1  1  0.25468980  0.50000000  0.50000000  1
  O  O2  1  0.73724059  0.50000000  0.50000000  1
  O  O3  1  0.00999914  0.00000000  0.50000000  1
  O  O4  1  0.47626821  0.00000000  0.50000000  1
  O  O5  1  0.00999914  0.50000000  -0.00000000  1
  O  O6  1  0.47626821  0.50000000  0.00000000  1
loop_
_geom_bond_atom_site_label_1
_geom_bond_atom_site_label_2
_geom_bond_distance
_geom_bond_site_symmetry_2
K0 O5 2.256717 1_555
K0 O3 2.256717 1_555
K0 O3 2.256717 1_554
K0 O5 2.256717 1_545
K0 O0 2.416406 1_455
Li0 O1 2.144473 1_555
Li0 O2 2.253027 1_455
Li0 O5 2.256045 1_556
Li0 O5 2.256045 1_555
Li0 O3 2.256045 1_555
Li0 O3 2.256045 1_565
Mg0 O0 1.897022 1_555
Mg0 O6 2.275996 1_555
Mg0 O4 2.275996 1_555
Mg0 O4 2.275996 1_554
Mg0 O6 2.275996 1_545
Mg1 O2 2.036612 1_555
Mg1 O1 2.064306 1_555
Mg1 O4 2.262380 1_555
Mg1 O4 2.262380 1_565
Mg1 O6 2.262380 1_556
Mg1 O6 2.262380 1_555
Mg2 O3 1.948005 1_555
Mg2 O4 2.014544 1_555
Mg2 O1 2.258938 1_555
Mg2 O1 2.258938 1_545
Mg3 O3 2.043999 1_655
Mg3 O2 2.271695 1_555
Mg3 O2 2.271695 1_545
Mg3 O0 2.273323 1_555
Mg3 O0 2.273323 1_556
Mg3 O4 2.491870 1_555
Mg4 O5 1.948005 1_555
Mg4 O6 2.014544 1_555
Mg4 O1 2.258938 1_555
Mg4 O1 2.258938 1_554
Mg5 O5 2.043999 1_655
Mg5 O2 2.271695 1_555
Mg5 O2 2.271695 1_554
Mg5 O0 2.273323 1_565
Mg5 O0 2.273323 1_555
Mg5 O6 2.491870 1_555
