# generated using pymatgen
data_Ba2MgAl2(Fe4O7)2
_symmetry_space_group_name_H-M   'P 1'
_cell_length_a   5.97288555
_cell_length_b   6.50925663
_cell_length_c   10.98571382
_cell_angle_alpha   91.31141776
_cell_angle_beta   96.48138193
_cell_angle_gamma   121.81206829
_symmetry_Int_Tables_number   1
_chemical_formula_structural   Ba2MgAl2(Fe4O7)2
_chemical_formula_sum   'Ba2 Mg1 Al2 Fe8 O14'
_cell_volume   358.91294229
_cell_formula_units_Z   1
loop_
 _symmetry_equiv_pos_site_id
 _symmetry_equiv_pos_as_xyz
  1  'x, y, z'
loop_
 _atom_site_type_symbol
 _atom_site_label
 _atom_site_symmetry_multiplicity
 _atom_site_fract_x
 _atom_site_fract_y
 _atom_site_fract_z
 _atom_site_occupancy
  Ba  Ba0  1  0.72328725  0.35052998  0.43863107  1
  Ba  Ba1  1  0.37465219  0.69454709  0.97298841  1
  Mg  Mg0  1  0.27478634  0.10444874  0.68774224  1
  Al  Al0  1  0.67841553  0.32338313  0.90341362  1
  Al  Al1  1  0.43291810  0.71857236  0.31360050  1
  Fe  Fe0  1  0.92490350  0.21127058  0.18297125  1
  Fe  Fe1  1  0.53928426  0.89164200  0.64377777  1
  Fe  Fe2  1  0.13428204  0.40100932  0.68205112  1
  Fe  Fe3  1  0.89042948  0.68627199  0.17393198  1
  Fe  Fe4  1  0.37999435  0.17654540  0.17257161  1
  Fe  Fe5  1  0.83075084  0.64977978  0.71515907  1
  Fe  Fe6  1  0.98525338  0.95747598  0.44590025  1
  Fe  Fe7  1  0.01367994  0.01995729  0.92432315  1
  O  O0  1  0.87928262  0.21980320  0.00458520  1
  O  O1  1  0.60492457  0.85866685  0.46755564  1
  O  O2  1  0.22798032  0.28310136  0.54432503  1
  O  O3  1  0.88302923  0.67636394  0.99572300  1
  O  O4  1  0.40284402  0.21587281  0.99987863  1
  O  O5  1  0.10989926  0.77005309  0.57945086  1
  O  O6  1  0.91116106  0.99090651  0.73312438  1
  O  O7  1  0.08109262  0.02214528  0.27683478  1
  O  O8  1  0.55257959  0.53472537  0.26072836  1
  O  O9  1  0.95674026  0.46236576  0.79849467  1
  O  O10  1  0.48271823  0.01455801  0.79683519  1
  O  O11  1  0.53942098  0.97378208  0.22405881  1
  O  O12  1  0.49241252  0.44466884  0.78570209  1
  O  O13  1  0.07869854  0.53505727  0.28114032  1
loop_
_geom_bond_atom_site_label_1
_geom_bond_atom_site_label_2
_geom_bond_distance
_geom_bond_site_symmetry_2
Ba0 O13 2.679303 1_655
Ba0 O8 2.691285 1_555
Ba0 O5 2.744956 1_655
Ba0 O1 2.926157 1_545
Ba0 O11 3.014667 1_545
Ba0 O2 3.118163 1_555
Ba1 O9 2.645638 1_455
Ba1 O10 2.747644 1_565
Ba1 O3 2.915371 1_455
Ba1 O12 2.958574 1_555
Ba1 O0 3.010955 1_456
Ba1 O11 3.025176 1_556
Ba1 O3 3.083119 1_555
Ba1 O0 3.120890 1_566
Ba1 O4 3.226136 1_555
Ba1 O4 3.312331 1_565
Mg0 O10 1.945079 1_555
Mg0 O6 2.020129 1_445
Mg0 O2 2.059123 1_555
Mg0 O12 2.071800 1_555
Mg0 O5 2.116608 1_545
Al0 O4 1.880244 1_555
Al0 O0 1.927529 1_556
Al0 O9 1.950714 1_555
Al0 O10 1.970840 1_555
Al0 O12 2.043734 1_555
Al0 O3 2.110515 1_555
Al1 O13 1.782146 1_555
Al1 O11 1.798310 1_555
Al1 O8 1.801097 1_555
Al1 O1 1.815765 1_555
Fe0 O0 1.954005 1_555
Fe0 O13 2.019927 1_655
Fe0 O11 2.099721 1_545
Fe0 O7 2.121515 1_655
Fe1 O10 1.983235 1_565
Fe1 O1 2.046618 1_555
Fe1 O6 2.068874 1_555
Fe1 O5 2.264635 1_555
Fe2 O9 1.910445 1_455
Fe2 O2 1.944821 1_555
Fe2 O12 2.178850 1_555
Fe2 O6 2.388230 1_445
Fe2 O5 2.741883 1_555
Fe3 O3 1.952073 1_554
Fe3 O7 2.079909 1_665
Fe3 O8 2.081631 1_555
Fe3 O13 2.131070 1_655
Fe4 O4 1.930598 1_554
Fe4 O7 2.032743 1_555
Fe4 O11 2.050912 1_545
Fe4 O8 2.138651 1_555
Fe5 O9 1.938060 1_555
Fe5 O12 2.005839 1_555
Fe5 O6 2.008574 1_555
Fe5 O5 2.203169 1_655
Fe6 O7 1.994049 1_665
Fe6 O2 2.016214 1_665
Fe6 O1 2.054107 1_555
Fe6 O5 2.233396 1_655
Fe7 O4 2.027086 1_555
Fe7 O0 2.079005 1_456
Fe7 O6 2.095709 1_445
Fe7 O3 2.145874 1_445
