# generated using pymatgen
data_SrCaEuSbO6
_symmetry_space_group_name_H-M   'P 1'
_cell_length_a   5.97052976
_cell_length_b   5.97052976
_cell_length_c   5.97052976
_cell_angle_alpha   60.00000000
_cell_angle_beta   60.00000000
_cell_angle_gamma   60.00000000
_symmetry_Int_Tables_number   1
_chemical_formula_structural   SrCaEuSbO6
_chemical_formula_sum   'Sr1 Ca1 Eu1 Sb1 O6'
_cell_volume   150.49553121
_cell_formula_units_Z   1
loop_
 _symmetry_equiv_pos_site_id
 _symmetry_equiv_pos_as_xyz
  1  'x, y, z'
loop_
 _atom_site_type_symbol
 _atom_site_label
 _atom_site_symmetry_multiplicity
 _atom_site_fract_x
 _atom_site_fract_y
 _atom_site_fract_z
 _atom_site_occupancy
  Sr  Sr0  1  0.25000000  0.25000000  0.25000000  1
  Ca  Ca0  1  0.75000000  0.75000000  0.75000000  1
  Eu  Eu0  1  0.00000000  0.00000000  0.00000000  1
  Sb  Sb0  1  0.50000000  0.50000000  0.50000000  1
  O  O0  1  0.73528729  0.26471271  0.26471271  1
  O  O1  1  0.26471271  0.73528729  0.73528729  1
  O  O2  1  0.73528729  0.26471271  0.73528729  1
  O  O3  1  0.26471271  0.73528729  0.26471271  1
  O  O4  1  0.73528729  0.73528729  0.26471271  1
  O  O5  1  0.26471271  0.26471271  0.73528729  1
loop_
_geom_bond_atom_site_label_1
_geom_bond_atom_site_label_2
_geom_bond_distance
_geom_bond_site_symmetry_2
Ca0 O4 2.987849 1_555
Ca0 O0 2.987849 1_556
Ca0 O2 2.987849 1_555
Ca0 O0 2.987849 1_565
Ca0 O3 2.987849 1_655
Ca0 O4 2.987849 1_556
Ca0 O1 2.987849 1_655
Ca0 O5 2.987849 1_655
Ca0 O5 2.987849 1_565
Ca0 O2 2.987849 1_565
Ca0 O3 2.987849 1_556
Ca0 O1 2.987849 1_555
Eu0 O2 2.235129 1_454
Eu0 O4 2.235129 1_445
Eu0 O1 2.235129 1_544
Eu0 O3 2.235129 1_545
Eu0 O5 2.235129 1_554
Eu0 O0 2.235129 1_455
O0 Sb0 1.986673 1_555
O0 Sr0 2.987849 1_655
O0 Sr0 2.987849 1_555
O1 Sb0 1.986673 1_555
O1 Sr0 2.987849 1_565
O1 Sr0 2.987849 1_556
O2 Sb0 1.986673 1_555
O2 Sr0 2.987849 1_556
O2 Sr0 2.987849 1_655
O3 Sb0 1.986673 1_555
O3 Sr0 2.987849 1_565
O3 Sr0 2.987849 1_555
O4 Sb0 1.986673 1_555
O4 Sr0 2.987849 1_565
O4 Sr0 2.987849 1_655
O5 Sb0 1.986673 1_555
O5 Sr0 2.987849 1_556
O5 Sr0 2.987849 1_555
