# generated using pymatgen
data_RuSeS
_symmetry_space_group_name_H-M   'P 1'
_cell_length_a   5.83632500
_cell_length_b   5.83632500
_cell_length_c   5.83632500
_cell_angle_alpha   90.00000000
_cell_angle_beta   90.00000000
_cell_angle_gamma   90.00000000
_symmetry_Int_Tables_number   1
_chemical_formula_structural   RuSeS
_chemical_formula_sum   'Ru4 Se4 S4'
_cell_volume   198.80092633
_cell_formula_units_Z   4
loop_
 _symmetry_equiv_pos_site_id
 _symmetry_equiv_pos_as_xyz
  1  'x, y, z'
loop_
 _atom_site_type_symbol
 _atom_site_label
 _atom_site_symmetry_multiplicity
 _atom_site_fract_x
 _atom_site_fract_y
 _atom_site_fract_z
 _atom_site_occupancy
  Ru  Ru0  1  0.50826300  0.49173700  0.99173700  1
  Ru  Ru1  1  0.49173700  0.99173700  0.50826300  1
  Ru  Ru2  1  0.99173700  0.50826300  0.49173700  1
  Ru  Ru3  1  0.00826300  0.00826300  0.00826300  1
  Se  Se0  1  0.88123000  0.11877000  0.61877000  1
  Se  Se1  1  0.11877000  0.61877000  0.88123000  1
  Se  Se2  1  0.61877000  0.88123000  0.11877000  1
  Se  Se3  1  0.38123000  0.38123000  0.38123000  1
  S  S0  1  0.11635200  0.88364800  0.38364800  1
  S  S1  1  0.88364800  0.38364800  0.11635200  1
  S  S2  1  0.38364800  0.11635200  0.88364800  1
  S  S3  1  0.61635200  0.61635200  0.61635200  1
loop_
_geom_bond_atom_site_label_1
_geom_bond_atom_site_label_2
_geom_bond_distance
_geom_bond_site_symmetry_2
Ru0 S3 2.393078 1_555
Ru0 S1 2.393078 1_556
Ru0 S2 2.393078 1_555
Ru0 Se3 2.476514 1_556
Ru0 Se1 2.476514 1_555
Ru0 Se2 2.476514 1_556
Ru1 S3 2.393078 1_555
Ru1 S0 2.393078 1_555
Ru1 S2 2.393078 1_565
Ru1 Se2 2.476514 1_555
Ru1 Se3 2.476514 1_565
Ru1 Se0 2.476514 1_565
Ru2 S3 2.393078 1_555
Ru2 S0 2.393078 1_655
Ru2 S1 2.393078 1_555
Ru2 Se0 2.476514 1_555
Ru2 Se3 2.476514 1_655
Ru2 Se1 2.476514 1_655
Ru3 S0 2.393078 1_545
Ru3 S2 2.393078 1_554
Ru3 S1 2.393078 1_455
Ru3 Se2 2.476514 1_445
Ru3 Se0 2.476514 1_454
Ru3 Se1 2.476514 1_544
S0 Se0 2.376804 1_465
S1 Se1 2.376804 1_654
S2 Se2 2.376804 1_546
S3 Se3 2.376804 1_555
