# generated using pymatgen
data_TiH3CO5
_symmetry_space_group_name_H-M   'P 1'
_cell_length_a   9.68387710
_cell_length_b   9.68387710
_cell_length_c   9.45715700
_cell_angle_alpha   90.00000000
_cell_angle_beta   90.00000000
_cell_angle_gamma   111.13242470
_symmetry_Int_Tables_number   1
_chemical_formula_structural   TiH3CO5
_chemical_formula_sum   'Ti8 H24 C8 O40'
_cell_volume   827.22611251
_cell_formula_units_Z   8
loop_
 _symmetry_equiv_pos_site_id
 _symmetry_equiv_pos_as_xyz
  1  'x, y, z'
loop_
 _atom_site_type_symbol
 _atom_site_label
 _atom_site_symmetry_multiplicity
 _atom_site_fract_x
 _atom_site_fract_y
 _atom_site_fract_z
 _atom_site_occupancy
  Ti  Ti0  1  0.67200800  0.04041600  0.09933300  1
  Ti  Ti1  1  0.95958400  0.32799200  0.90066700  1
  Ti  Ti2  1  0.45958400  0.82799200  0.59933300  1
  Ti  Ti3  1  0.17200800  0.54041600  0.40066700  1
  Ti  Ti4  1  0.32799200  0.95958400  0.90066700  1
  Ti  Ti5  1  0.04041600  0.67200800  0.09933300  1
  Ti  Ti6  1  0.54041600  0.17200800  0.40066700  1
  Ti  Ti7  1  0.82799200  0.45958400  0.59933300  1
  H  H0  1  0.57162500  0.79008900  0.28578300  1
  H  H1  1  0.20991100  0.42837500  0.71421700  1
  H  H2  1  0.70991100  0.92837500  0.78578300  1
  H  H3  1  0.07162500  0.29008900  0.21421700  1
  H  H4  1  0.42837500  0.20991100  0.71421700  1
  H  H5  1  0.79008900  0.57162500  0.28578300  1
  H  H6  1  0.29008900  0.07162500  0.21421700  1
  H  H7  1  0.92837500  0.70991100  0.78578300  1
  H  H8  1  0.48358500  0.75067700  0.13367700  1
  H  H9  1  0.24932300  0.51641500  0.86632300  1
  H  H10  1  0.74932300  0.01641500  0.63367700  1
  H  H11  1  0.98358500  0.25067700  0.36632300  1
  H  H12  1  0.51641500  0.24932300  0.86632300  1
  H  H13  1  0.75067700  0.48358500  0.13367700  1
  H  H14  1  0.25067700  0.98358500  0.36632300  1
  H  H15  1  0.01641500  0.74932300  0.63367700  1
  H  H16  1  0.88680200  0.03018600  0.42893700  1
  H  H17  1  0.96981400  0.11319800  0.57106300  1
  H  H18  1  0.46981400  0.61319800  0.92893700  1
  H  H19  1  0.38680200  0.53018600  0.07106300  1
  H  H20  1  0.11319800  0.96981400  0.57106300  1
  H  H21  1  0.03018600  0.88680200  0.42893700  1
  H  H22  1  0.53018600  0.38680200  0.07106300  1
  H  H23  1  0.61319800  0.46981400  0.92893700  1
  C  C0  1  0.89532000  0.89532000  0.16287800  1
  C  C1  1  0.10468000  0.10468000  0.83712200  1
  C  C2  1  0.60468000  0.60468000  0.66287800  1
  C  C3  1  0.39532000  0.39532000  0.33712200  1
  C  C4  1  0.83665700  0.83665700  0.01466500  1
  C  C5  1  0.16334300  0.16334300  0.98533500  1
  C  C6  1  0.66334300  0.66334300  0.51466500  1
  C  C7  1  0.33665700  0.33665700  0.48533500  1
  O  O0  1  0.84738600  0.98861600  0.21793500  1
  O  O1  1  0.01138400  0.15261400  0.78206500  1
  O  O2  1  0.51138400  0.65261400  0.71793500  1
  O  O3  1  0.34738600  0.48861600  0.28206500  1
  O  O4  1  0.15261400  0.01138400  0.78206500  1
  O  O5  1  0.98861600  0.84738600  0.21793500  1
  O  O6  1  0.48861600  0.34738600  0.28206500  1
  O  O7  1  0.65261400  0.51138400  0.71793500  1
  O  O8  1  0.74492100  0.88708900  0.96031400  1
  O  O9  1  0.11291100  0.25507900  0.03968600  1
  O  O10  1  0.61291100  0.75507900  0.46031400  1
  O  O11  1  0.24492100  0.38708900  0.53968600  1
  O  O12  1  0.25507900  0.11291100  0.03968600  1
  O  O13  1  0.88708900  0.74492100  0.96031400  1
  O  O14  1  0.38708900  0.24492100  0.53968600  1
  O  O15  1  0.75507900  0.61291100  0.46031400  1
  O  O16  1  0.64404300  0.14404300  0.25000000  1
  O  O17  1  0.85595700  0.35595700  0.75000000  1
  O  O18  1  0.35595700  0.85595700  0.75000000  1
  O  O19  1  0.14404300  0.64404300  0.25000000  1
  O  O20  1  0.50000000  0.00000000  0.00000000  1
  O  O21  1  0.00000000  0.50000000  0.00000000  1
  O  O22  1  0.50000000  0.00000000  0.50000000  1
  O  O23  1  0.00000000  0.50000000  0.50000000  1
  O  O24  1  0.81200500  0.18799500  0.00000000  1
  O  O25  1  0.31200500  0.68799500  0.50000000  1
  O  O26  1  0.18799500  0.81200500  0.00000000  1
  O  O27  1  0.68799500  0.31200500  0.50000000  1
  O  O28  1  0.55416200  0.82823800  0.19351300  1
  O  O29  1  0.17176200  0.44583800  0.80648700  1
  O  O30  1  0.67176200  0.94583800  0.69351300  1
  O  O31  1  0.05416200  0.32823800  0.30648700  1
  O  O32  1  0.44583800  0.17176200  0.80648700  1
  O  O33  1  0.82823800  0.55416200  0.19351300  1
  O  O34  1  0.32823800  0.05416200  0.30648700  1
  O  O35  1  0.94583800  0.67176200  0.69351300  1
  O  O36  1  0.89368100  0.10631900  0.50000000  1
  O  O37  1  0.39368100  0.60631900  0.00000000  1
  O  O38  1  0.10631900  0.89368100  0.50000000  1
  O  O39  1  0.60631900  0.39368100  0.00000000  1
loop_
_geom_bond_atom_site_label_1
_geom_bond_atom_site_label_2
_geom_bond_distance
_geom_bond_site_symmetry_2
H0 O28 0.985685 1_555
H1 O29 0.985685 1_555
H2 O30 0.985685 1_555
H3 O31 0.985685 1_555
H4 O32 0.985685 1_555
H5 O33 0.985685 1_555
H6 O34 0.985685 1_555
H7 O35 0.985685 1_555
H8 O28 0.990621 1_555
H9 O29 0.990621 1_555
H10 O30 0.990621 1_545
H11 O31 0.990621 1_655
H12 O32 0.990621 1_555
H13 O33 0.990621 1_555
H14 O34 0.990621 1_565
H15 O35 0.990621 1_455
H16 O36 0.981956 1_555
H17 O36 0.981956 1_555
H18 O37 0.981956 1_556
H19 O37 0.981956 1_555
H20 O38 0.981956 1_555
H21 O38 0.981956 1_555
H22 O39 0.981956 1_555
H23 O39 0.981956 1_556
C0 O5 1.266975 1_555
C0 O0 1.266975 1_555
C1 O1 1.266975 1_555
C1 O4 1.266975 1_555
C2 O7 1.266975 1_555
C2 O2 1.266975 1_555
C3 O6 1.266975 1_555
C3 O3 1.266975 1_555
C4 O8 1.266779 1_554
C4 O13 1.266779 1_554
C5 O9 1.266779 1_556
C5 O12 1.266779 1_556
C6 O15 1.266779 1_555
C6 O10 1.266779 1_555
C7 O11 1.266779 1_555
C7 O14 1.266779 1_555
O0 Ti0 2.237931 1_565
O1 Ti1 2.237931 1_455
O2 Ti2 2.237931 1_555
O3 Ti3 2.237931 1_555
O4 Ti4 2.237931 1_545
O5 Ti5 2.237931 1_655
O6 Ti6 2.237931 1_555
O7 Ti7 2.237931 1_555
O8 Ti0 2.277635 1_566
O9 Ti1 2.277635 1_454
O10 Ti2 2.277635 1_555
O11 Ti3 2.277635 1_555
O12 Ti4 2.277635 1_544
O13 Ti5 2.277635 1_656
O14 Ti6 2.277635 1_555
O15 Ti7 2.277635 1_555
O16 Ti6 1.818409 1_555
O16 Ti0 1.818409 1_555
O17 Ti1 1.818409 1_555
O17 Ti7 1.818409 1_555
O18 Ti4 1.818409 1_555
O18 Ti2 1.818409 1_555
O19 Ti3 1.818409 1_555
O19 Ti5 1.818409 1_555
O20 Ti0 1.827612 1_555
O20 Ti4 1.827612 1_544
O21 Ti5 1.827612 1_555
O21 Ti1 1.827612 1_454
O22 Ti6 1.827612 1_555
O22 Ti2 1.827612 1_545
O23 Ti3 1.827612 1_555
O23 Ti7 1.827612 1_455
O24 Ti0 1.834624 1_555
O24 Ti1 1.834624 1_554
O25 Ti2 1.834624 1_555
O25 Ti3 1.834624 1_555
O26 Ti5 1.834624 1_555
O26 Ti4 1.834624 1_554
O27 Ti7 1.834624 1_555
O27 Ti6 1.834624 1_555
O28 Ti0 2.150981 1_565
O29 Ti1 2.150981 1_455
O30 Ti2 2.150981 1_555
O31 Ti3 2.150981 1_555
O32 Ti4 2.150981 1_545
O33 Ti5 2.150981 1_655
O34 Ti6 2.150981 1_555
O35 Ti7 2.150981 1_555
