# generated using pymatgen
data_Sm2Fe15Co2
_symmetry_space_group_name_H-M   'P 1'
_cell_length_a   6.44235510
_cell_length_b   6.44235510
_cell_length_c   6.42450134
_cell_angle_alpha   82.42831635
_cell_angle_beta   82.42831635
_cell_angle_gamma   82.65704623
_symmetry_Int_Tables_number   1
_chemical_formula_structural   Sm2Fe15Co2
_chemical_formula_sum   'Sm2 Fe15 Co2'
_cell_volume   260.35228178
_cell_formula_units_Z   1
loop_
 _symmetry_equiv_pos_site_id
 _symmetry_equiv_pos_as_xyz
  1  'x, y, z'
loop_
 _atom_site_type_symbol
 _atom_site_label
 _atom_site_symmetry_multiplicity
 _atom_site_fract_x
 _atom_site_fract_y
 _atom_site_fract_z
 _atom_site_occupancy
  Sm  Sm0  1  0.34134400  0.34134400  0.34228100  1
  Sm  Sm1  1  0.65879600  0.65879600  0.65837300  1
  Fe  Fe0  1  0.99895000  0.70568800  0.29346200  1
  Fe  Fe1  1  0.71070000  0.29040600  0.99998800  1
  Fe  Fe2  1  0.29231500  0.00105700  0.70680900  1
  Fe  Fe3  1  0.29040600  0.71070000  0.99998800  1
  Fe  Fe4  1  0.70568800  0.99895000  0.29346200  1
  Fe  Fe5  1  0.00105700  0.29231500  0.70680900  1
  Fe  Fe6  1  0.49897200  0.00141100  0.00008700  1
  Fe  Fe7  1  0.99959500  0.99959500  0.50036300  1
  Fe  Fe8  1  0.00141100  0.49897200  0.00008700  1
  Fe  Fe9  1  0.09558900  0.09558900  0.09648800  1
  Fe  Fe10  1  0.90361700  0.90361700  0.90525500  1
  Fe  Fe11  1  0.65813700  0.65813700  0.15396500  1
  Fe  Fe12  1  0.34128000  0.84124200  0.34230100  1
  Fe  Fe13  1  0.84124200  0.34128000  0.34230100  1
  Fe  Fe14  1  0.34366500  0.34366500  0.83898200  1
  Co  Co0  1  0.66106500  0.15617100  0.65949800  1
  Co  Co1  1  0.15617100  0.66106500  0.65949800  1
loop_
_geom_bond_atom_site_label_1
_geom_bond_atom_site_label_2
_geom_bond_distance
_geom_bond_site_symmetry_2
Fe0 Fe8 2.444261 1_655
Fe0 Fe7 2.453322 1_555
Fe0 Fe3 2.479512 1_654
Fe0 Fe4 2.495292 1_555
Fe0 Fe12 2.543972 1_655
Fe0 Fe11 2.545719 1_555
Fe0 Fe13 2.640784 1_555
Fe0 Fe10 2.754772 1_554
Fe0 Fe9 2.766401 1_665
Fe0 Sm1 3.003038 1_555
Fe0 Sm0 3.022973 1_655
Fe1 Fe8 2.440661 1_656
Fe1 Fe6 2.444486 1_556
Fe1 Fe5 2.473496 1_655
Fe1 Fe4 2.479512 1_546
Fe1 Fe13 2.529614 1_556
Fe1 Fe11 2.651397 1_556
Fe1 Fe14 2.668805 1_555
Fe1 Fe9 2.740897 1_656
Fe1 Fe10 2.744628 1_545
Fe1 Sm1 3.029683 1_555
Fe1 Sm0 3.035996 1_556
Fe2 Fe7 2.445901 1_445
Fe2 Fe6 2.446544 1_556
Fe2 Fe3 2.473496 1_545
Fe2 Fe5 2.478241 1_555
Fe2 Fe9 2.759160 1_556
Fe2 Sm0 3.003222 1_555
Fe2 Sm1 3.031422 1_545
Fe3 Fe6 2.440661 1_566
Fe3 Fe8 2.444486 1_556
Fe3 Fe9 2.740897 1_566
Fe3 Sm1 3.029683 1_555
Fe3 Sm0 3.035996 1_556
Fe4 Fe6 2.444261 1_565
Fe4 Fe7 2.453322 1_555
Fe4 Fe9 2.766401 1_665
Fe4 Sm1 3.003038 1_555
Fe4 Sm0 3.022973 1_565
Fe5 Fe7 2.445901 1_445
Fe5 Fe8 2.446544 1_556
Fe5 Fe9 2.759160 1_556
Fe5 Sm0 3.003222 1_555
Fe5 Sm1 3.031422 1_455
Fe6 Fe9 2.603259 1_555
Fe6 Sm0 3.282110 1_555
Fe6 Sm1 3.294237 1_544
Fe7 Fe9 2.597954 1_665
Fe7 Sm1 3.275489 1_555
Fe7 Sm0 3.284305 1_665
Fe8 Fe9 2.603259 1_555
Fe8 Sm0 3.282110 1_555
Fe8 Sm1 3.294237 1_454
Fe9 Sm0 3.076574 1_555
Fe10 Fe9 2.400070 1_666
Fe10 Fe7 2.604042 1_555
Fe10 Fe6 2.612786 1_566
Fe10 Fe8 2.612786 1_656
Fe10 Fe11 2.619661 1_556
Fe10 Fe3 2.744628 1_655
Fe10 Fe4 2.754772 1_556
Fe10 Fe5 2.764002 1_665
Fe10 Fe2 2.764002 1_665
Fe10 Sm1 3.073331 1_555
Fe11 Fe6 2.455767 1_565
Fe11 Fe8 2.455767 1_655
Fe11 Fe13 2.476325 1_555
Fe11 Fe12 2.476325 1_555
Fe11 Fe4 2.545719 1_555
Fe11 Fe3 2.651397 1_554
Fe11 Sm0 3.091520 1_555
Fe11 Sm1 3.182819 1_554
Fe11 Sm1 3.241695 1_555
Fe12 Fe6 2.451928 1_565
Fe12 Fe7 2.455066 1_455
Fe12 Fe3 2.529614 1_554
Fe12 Fe4 2.640784 1_555
Fe12 Fe9 2.645395 1_565
Fe12 Fe2 2.645977 1_565
Fe12 Sm1 3.088727 1_555
Fe12 Sm0 3.220485 1_555
Fe12 Sm0 3.221870 1_565
Fe13 Fe8 2.451928 1_655
Fe13 Fe7 2.455066 1_545
Fe13 Fe4 2.543972 1_545
Fe13 Fe9 2.645395 1_655
Fe13 Fe5 2.645977 1_655
Fe13 Sm1 3.088727 1_555
Fe13 Sm0 3.220485 1_555
Fe13 Sm0 3.221870 1_655
Fe14 Fe6 2.457967 1_556
Fe14 Fe8 2.457967 1_556
Fe14 Fe5 2.541029 1_555
Fe14 Fe2 2.541029 1_555
Fe14 Fe9 2.665458 1_556
Fe14 Fe3 2.668805 1_555
Fe14 Sm1 3.066207 1_555
Fe14 Sm0 3.195073 1_555
Fe14 Sm0 3.229580 1_556
Co0 Fe7 2.437423 1_545
Co0 Fe6 2.441602 1_556
Co0 Fe13 2.452002 1_555
Co0 Fe14 2.466619 1_555
Co0 Fe1 2.527592 1_555
Co0 Fe5 2.529046 1_655
Co0 Fe10 2.627761 1_545
Co0 Fe4 2.648337 1_545
Co0 Fe2 2.659142 1_555
Co0 Sm0 3.107483 1_555
Co0 Sm1 3.207132 1_545
Co0 Sm1 3.235312 1_555
Co1 Fe7 2.437423 1_455
Co1 Fe8 2.441602 1_556
Co1 Fe12 2.452002 1_555
Co1 Fe14 2.466619 1_555
Co1 Fe3 2.527592 1_555
Co1 Fe2 2.529046 1_565
Co1 Fe10 2.627761 1_455
Co1 Fe0 2.648337 1_455
Co1 Fe5 2.659142 1_555
Co1 Sm0 3.107483 1_555
Co1 Sm1 3.207132 1_455
Co1 Sm1 3.235312 1_555
