# generated using pymatgen
data_Mg16UAl12
_symmetry_space_group_name_H-M   'P 1'
_cell_length_a   9.26167437
_cell_length_b   9.26167437
_cell_length_c   9.26167374
_cell_angle_alpha   110.46558398
_cell_angle_beta   110.46558398
_cell_angle_gamma   110.46559418
_symmetry_Int_Tables_number   1
_chemical_formula_structural   Mg16UAl12
_chemical_formula_sum   'Mg16 U1 Al12'
_cell_volume   587.97961634
_cell_formula_units_Z   1
loop_
 _symmetry_equiv_pos_site_id
 _symmetry_equiv_pos_as_xyz
  1  'x, y, z'
loop_
 _atom_site_type_symbol
 _atom_site_label
 _atom_site_symmetry_multiplicity
 _atom_site_fract_x
 _atom_site_fract_y
 _atom_site_fract_z
 _atom_site_occupancy
  Mg  Mg0  1  0.72124100  0.31720500  0.31720500  1
  Mg  Mg1  1  0.27466300  0.60817500  0.60817500  1
  Mg  Mg2  1  0.99856700  0.99856700  0.99856700  1
  Mg  Mg3  1  0.65540500  0.99648600  0.99648600  1
  Mg  Mg4  1  0.00286700  0.69191900  0.39086400  1
  Mg  Mg5  1  0.39086400  0.00286700  0.69191900  1
  Mg  Mg6  1  0.60817500  0.60817500  0.27466300  1
  Mg  Mg7  1  0.99648600  0.99648600  0.65540500  1
  Mg  Mg8  1  0.69191900  0.39086400  0.00286700  1
  Mg  Mg9  1  0.31720500  0.72124100  0.31720500  1
  Mg  Mg10  1  0.31720500  0.31720500  0.72124100  1
  Mg  Mg11  1  0.69191900  0.00286700  0.39086400  1
  Mg  Mg12  1  0.99648600  0.65540500  0.99648600  1
  Mg  Mg13  1  0.60817500  0.27466300  0.60817500  1
  Mg  Mg14  1  0.39086400  0.69191900  0.00286700  1
  Mg  Mg15  1  0.00286700  0.39086400  0.69191900  1
  U  U0  1  0.37210800  0.37210800  0.37210800  1
  Al  Al0  1  0.80555700  0.62580500  0.62580500  1
  Al  Al1  1  0.16928400  0.80836800  0.80836800  1
  Al  Al2  1  0.00666600  0.36572200  0.18751200  1
  Al  Al3  1  0.62580500  0.80555700  0.62580500  1
  Al  Al4  1  0.36572200  0.18751200  0.00666600  1
  Al  Al5  1  0.18751200  0.36572200  0.00666600  1
  Al  Al6  1  0.80836800  0.16928400  0.80836800  1
  Al  Al7  1  0.80836800  0.80836800  0.16928400  1
  Al  Al8  1  0.18751200  0.00666600  0.36572200  1
  Al  Al9  1  0.36572200  0.00666600  0.18751200  1
  Al  Al10  1  0.62580500  0.62580500  0.80555700  1
  Al  Al11  1  0.00666600  0.18751200  0.36572200  1
loop_
_geom_bond_atom_site_label_1
_geom_bond_atom_site_label_2
_geom_bond_distance
_geom_bond_site_symmetry_2
Mg0 Mg13 3.307800 1_555
Mg0 Mg6 3.307800 1_555
Mg1 U0 3.129203 1_555
Mg1 Mg14 3.131309 1_556
Mg1 Mg5 3.131309 1_565
Mg1 Mg15 3.146924 1_555
Mg1 Mg4 3.146925 1_555
Mg1 Mg9 3.307800 1_555
Mg1 Mg10 3.307800 1_555
Mg1 Mg3 3.394349 1_555
Mg2 Mg7 3.164824 1_555
Mg2 Mg3 3.164825 1_555
Mg2 U0 3.285963 1_666
Mg4 Mg6 3.131309 1_455
Mg6 U0 3.129203 1_555
Mg6 Mg8 3.146924 1_555
Mg6 Mg9 3.307800 1_555
Mg6 Mg7 3.394349 1_555
Mg10 Mg13 3.307800 1_555
Mg11 Mg6 3.131309 1_545
Mg11 Mg13 3.146925 1_555
Mg12 Mg2 3.164825 1_555
Mg12 Mg13 3.394349 1_555
Mg13 U0 3.129203 1_555
Mg13 Mg8 3.131309 1_556
Mg13 Mg15 3.131309 1_655
Mg13 Mg5 3.146924 1_555
Mg14 Mg6 3.146924 1_555
Al0 Al1 2.664709 1_655
Al0 Al10 2.735193 1_555
Al0 Al3 2.735193 1_555
Al0 Mg0 2.848474 1_555
Al0 Mg13 3.034404 1_555
Al0 Mg6 3.034405 1_555
Al0 Mg7 3.121862 1_555
Al0 Mg12 3.121862 1_555
Al0 Mg2 3.172921 1_555
Al0 U0 3.178796 1_555
Al1 Al9 2.774851 1_566
Al1 Al4 2.774851 1_566
Al1 Mg1 2.820453 1_555
Al1 Mg5 2.990137 1_565
Al1 Mg14 2.990138 1_556
Al1 Mg12 3.113566 1_455
Al1 Mg7 3.113567 1_455
Al1 Mg4 3.200689 1_555
Al1 Mg15 3.200689 1_555
Al1 Mg2 3.229796 1_455
Al2 Al5 2.751840 1_555
Al2 Al6 2.774851 1_454
Al2 Mg8 2.956947 1_455
Al2 Mg9 2.958498 1_555
Al2 Mg4 2.969402 1_555
Al2 Mg3 3.061513 1_444
Al2 Mg1 3.099121 1_555
Al2 U0 3.181956 1_555
Al2 Mg2 3.193706 1_444
Al2 Mg0 3.224926 1_455
Al3 Al6 2.664709 1_565
Al3 Mg9 2.848474 1_555
Al3 Mg1 3.034404 1_555
Al3 Mg6 3.034405 1_555
Al3 Mg7 3.121862 1_555
Al3 Mg3 3.121862 1_555
Al3 Mg2 3.172921 1_555
Al3 U0 3.178796 1_555
Al4 Al5 2.711729 1_555
Al4 Al9 2.751840 1_555
Al4 Mg5 2.956947 1_554
Al4 Mg0 2.958499 1_555
Al4 Mg8 2.969402 1_555
Al4 Mg7 3.061513 1_444
Al4 Mg6 3.099121 1_555
Al4 U0 3.181956 1_555
Al4 Mg2 3.193706 1_444
Al4 Mg10 3.224926 1_554
Al5 Al6 2.774851 1_454
Al5 Mg15 2.956947 1_554
Al5 Mg9 2.958499 1_555
Al5 Mg14 2.969402 1_555
Al5 Mg7 3.061513 1_444
Al5 Mg6 3.099121 1_555
Al5 U0 3.181956 1_555
Al5 Mg2 3.193706 1_444
Al5 Mg10 3.224926 1_554
Al6 Mg13 2.820453 1_555
Al6 Mg15 2.990137 1_655
Al6 Mg8 2.990138 1_556
Al6 Mg3 3.113566 1_545
Al6 Mg7 3.113567 1_545
Al6 Mg11 3.200689 1_555
Al6 Mg5 3.200689 1_555
Al6 Mg2 3.229796 1_545
Al7 Al8 2.774851 1_665
Al7 Mg6 2.820453 1_555
Al7 Mg11 2.990138 1_565
Al7 Mg4 2.990138 1_655
Al7 Mg12 3.113567 1_554
Al7 Mg3 3.113567 1_554
Al7 Mg14 3.200689 1_555
Al7 Mg8 3.200689 1_555
Al7 Mg2 3.229795 1_554
Al8 Al9 2.711729 1_555
Al8 Mg4 2.956947 1_545
Al8 Mg10 2.958499 1_555
Al8 Mg5 2.969402 1_555
Al8 Mg12 3.061513 1_444
Al8 Mg13 3.099121 1_555
Al8 U0 3.181955 1_555
Al8 Mg2 3.193706 1_444
Al8 Mg9 3.224926 1_545
Al9 Mg14 2.956947 1_545
Al9 Mg0 2.958498 1_555
Al9 Mg11 2.969402 1_555
Al9 Mg12 3.061513 1_444
Al9 Mg13 3.099121 1_555
Al9 U0 3.181956 1_555
Al9 Mg2 3.193706 1_444
Al9 Mg9 3.224926 1_545
Al10 Al7 2.664709 1_556
Al10 Al3 2.735193 1_555
Al10 Mg10 2.848474 1_555
Al10 Mg13 3.034405 1_555
Al10 Mg1 3.034405 1_555
Al10 Mg3 3.121863 1_555
Al10 Mg12 3.121863 1_555
Al10 Mg2 3.172921 1_555
Al10 U0 3.178796 1_555
Al11 Al2 2.711729 1_555
Al11 Al8 2.751840 1_555
Al11 Al7 2.774851 1_445
Al11 Mg11 2.956947 1_455
Al11 Mg10 2.958499 1_555
Al11 Mg15 2.969402 1_555
Al11 Mg3 3.061513 1_444
Al11 Mg1 3.099121 1_555
Al11 U0 3.181955 1_555
Al11 Mg2 3.193706 1_444
Al11 Mg0 3.224926 1_455
