# generated using pymatgen
data_LiMnVF6
_symmetry_space_group_name_H-M   'P 1'
_cell_length_a   4.69152827
_cell_length_b   4.69152827
_cell_length_c   9.35334719
_cell_angle_alpha   90.00000000
_cell_angle_beta   90.00000000
_cell_angle_gamma   89.99972766
_symmetry_Int_Tables_number   1
_chemical_formula_structural   LiMnVF6
_chemical_formula_sum   'Li2 Mn2 V2 F12'
_cell_volume   205.87126382
_cell_formula_units_Z   2
loop_
 _symmetry_equiv_pos_site_id
 _symmetry_equiv_pos_as_xyz
  1  'x, y, z'
loop_
 _atom_site_type_symbol
 _atom_site_label
 _atom_site_symmetry_multiplicity
 _atom_site_fract_x
 _atom_site_fract_y
 _atom_site_fract_z
 _atom_site_occupancy
  Li  Li0  1  0.50000000  0.50000000  0.83418591  1
  Li  Li1  1  -0.00000000  0.00000000  0.33417621  1
  Mn  Mn0  1  0.50000000  0.50000000  0.50000407  1
  Mn  Mn1  1  -0.00000000  0.00000000  -0.00000596  1
  V  V0  1  0.50000000  0.50000000  0.16657781  1
  V  V1  1  -0.00000000  0.00000000  0.66650509  1
  F  F0  1  0.18914039  0.81085961  0.50594415  1
  F  F1  1  0.81085961  0.18914039  0.50594415  1
  F  F2  1  0.68914604  0.68914604  0.00593399  1
  F  F3  1  0.31085396  0.31085396  0.00593399  1
  F  F4  1  0.19783156  0.80216844  0.82230387  1
  F  F5  1  0.80216844  0.19783156  0.82230387  1
  F  F6  1  0.69781191  0.69781191  0.32230697  1
  F  F7  1  0.30218809  0.30218809  0.32230697  1
  F  F8  1  0.79086458  0.20913542  0.16943524  1
  F  F9  1  0.20913542  0.79086458  0.16943524  1
  F  F10  1  0.29085979  0.29085979  0.66945523  1
  F  F11  1  0.70914021  0.70914021  0.66945523  1
loop_
_geom_bond_atom_site_label_1
_geom_bond_atom_site_label_2
_geom_bond_distance
_geom_bond_site_symmetry_2
F0 V1 1.957077 1_565
F0 Li1 2.038622 1_565
F0 Mn0 2.063242 1_555
F1 V1 1.957077 1_655
F1 Li1 2.038622 1_655
F1 Mn0 2.063242 1_555
F2 V0 1.957699 1_555
F2 Li0 2.038502 1_554
F2 Mn1 2.063214 1_665
F3 V0 1.957699 1_555
F3 Li0 2.038502 1_554
F3 Mn1 2.063214 1_555
F4 V1 1.961224 1_565
F4 Li0 2.007907 1_555
F4 Mn1 2.117803 1_566
F5 V1 1.961224 1_655
F5 Li0 2.007907 1_555
F5 Mn1 2.117803 1_656
F6 V0 1.960657 1_555
F6 Li1 2.008040 1_665
F6 Mn0 2.117777 1_555
F7 V0 1.960657 1_555
F7 Li1 2.008040 1_555
F7 Mn0 2.117777 1_555
F8 V0 1.930015 1_555
F8 Li1 2.073564 1_655
F8 Mn1 2.106439 1_655
F9 V0 1.930015 1_555
F9 Li1 2.073564 1_565
F9 Mn1 2.106439 1_565
F10 V1 1.930005 1_555
F10 Li0 2.073518 1_555
F10 Mn0 2.106534 1_555
F11 V1 1.930005 1_665
F11 Li0 2.073518 1_555
F11 Mn0 2.106534 1_555
