# generated using pymatgen
data_Ba4Bi(PbO4)3
_symmetry_space_group_name_H-M   'P 1'
_cell_length_a   6.15624300
_cell_length_b   6.22388000
_cell_length_c   8.71292470
_cell_angle_alpha   89.97702362
_cell_angle_beta   90.00000000
_cell_angle_gamma   90.00000000
_symmetry_Int_Tables_number   1
_chemical_formula_structural   Ba4Bi(PbO4)3
_chemical_formula_sum   'Ba4 Bi1 Pb3 O12'
_cell_volume   333.84193618
_cell_formula_units_Z   1
loop_
 _symmetry_equiv_pos_site_id
 _symmetry_equiv_pos_as_xyz
  1  'x, y, z'
loop_
 _atom_site_type_symbol
 _atom_site_label
 _atom_site_symmetry_multiplicity
 _atom_site_fract_x
 _atom_site_fract_y
 _atom_site_fract_z
 _atom_site_occupancy
  Ba  Ba0  1  0.00000000  0.50477300  0.75254500  1
  Ba  Ba1  1  0.50000000  0.00616000  0.24718400  1
  Ba  Ba2  1  0.50000000  0.99384000  0.75281600  1
  Ba  Ba3  1  0.00000000  0.49522700  0.24745500  1
  Bi  Bi0  1  0.50000000  0.50000000  0.50000000  1
  Pb  Pb0  1  0.00000000  0.00000000  0.50000000  1
  Pb  Pb1  1  0.50000000  0.50000000  0.00000000  1
  Pb  Pb2  1  0.00000000  0.00000000  0.00000000  1
  O  O0  1  0.00000000  0.06542300  0.75164500  1
  O  O1  1  0.50000000  0.56547500  0.25100900  1
  O  O2  1  0.50000000  0.43452500  0.74899100  1
  O  O3  1  0.00000000  0.93457700  0.24835500  1
  O  O4  1  0.25139300  0.25244400  0.46472200  1
  O  O5  1  0.74936700  0.74944000  0.96220500  1
  O  O6  1  0.25139300  0.74755600  0.53527800  1
  O  O7  1  0.74936700  0.25056000  0.03779500  1
  O  O8  1  0.25063300  0.74944000  0.96220500  1
  O  O9  1  0.74860700  0.25244400  0.46472200  1
  O  O10  1  0.25063300  0.25056000  0.03779500  1
  O  O11  1  0.74860700  0.74755600  0.53527800  1
loop_
_geom_bond_atom_site_label_1
_geom_bond_atom_site_label_2
_geom_bond_distance
_geom_bond_site_symmetry_2
Ba0 O0 2.734476 1_555
Ba0 O8 2.835282 1_555
Ba0 O5 2.835282 1_455
Ba0 O6 2.873975 1_555
Ba0 O11 2.873975 1_455
Ba0 O2 3.109173 1_555
Ba0 O2 3.109173 1_455
Ba0 O10 3.325345 1_556
Ba0 O7 3.325345 1_456
Ba0 O4 3.339710 1_555
Ba0 O9 3.339710 1_455
Ba1 O1 2.742960 1_545
Ba1 O7 2.827843 1_555
Ba1 O10 2.827843 1_555
Ba1 O9 2.878686 1_555
Ba1 O4 2.878686 1_555
Ba1 O3 3.110213 1_645
Ba1 O3 3.110213 1_545
Ba1 O5 3.328385 1_544
Ba1 O8 3.328385 1_544
Ba1 O11 3.351195 1_545
Ba1 O6 3.351195 1_545
Ba2 O2 2.742960 1_565
Ba2 O5 2.827843 1_555
Ba2 O8 2.827843 1_555
Ba2 O11 2.878686 1_555
Ba2 O6 2.878686 1_555
Ba2 O0 3.110213 1_565
Ba2 O0 3.110213 1_665
Ba2 O10 3.328385 1_566
Ba2 O7 3.328385 1_566
Ba2 O9 3.351195 1_565
Ba2 O4 3.351195 1_565
Ba3 O3 2.734476 1_555
Ba3 O10 2.835282 1_555
Ba3 O7 2.835282 1_455
Ba3 O4 2.873975 1_555
Ba3 O9 2.873975 1_455
Ba3 O1 3.109173 1_455
Ba3 O1 3.109173 1_555
Ba3 O8 3.325345 1_554
Ba3 O5 3.325345 1_454
Ba3 O6 3.339710 1_555
Ba3 O11 3.339710 1_455
Bi0 O11 2.193441 1_555
Bi0 O9 2.193441 1_555
Bi0 O6 2.193441 1_555
Bi0 O4 2.193441 1_555
Bi0 O2 2.207221 1_555
Bi0 O1 2.207221 1_555
O0 Pb2 2.201715 1_556
O0 Pb0 2.230213 1_555
O1 Pb1 2.224825 1_555
O2 Pb1 2.224825 1_556
O3 Pb2 2.201715 1_565
O3 Pb0 2.230213 1_565
O4 Pb0 2.226630 1_555
O5 Pb1 2.207933 1_556
O5 Pb2 2.218439 1_666
O6 Pb0 2.226630 1_565
O7 Pb1 2.207933 1_555
O7 Pb2 2.218439 1_655
O8 Pb1 2.207933 1_556
O8 Pb2 2.218439 1_566
O9 Pb0 2.226630 1_655
O10 Pb1 2.207933 1_555
O10 Pb2 2.218439 1_555
O11 Pb0 2.226630 1_665
