# generated using pymatgen
data_CsMg6Cd
_symmetry_space_group_name_H-M   'P 1'
_cell_length_a   5.44321200
_cell_length_b   6.95763400
_cell_length_c   12.19194000
_cell_angle_alpha   90.00000000
_cell_angle_beta   90.00000000
_cell_angle_gamma   90.00000000
_symmetry_Int_Tables_number   1
_chemical_formula_structural   CsMg6Cd
_chemical_formula_sum   'Cs2 Mg12 Cd2'
_cell_volume   461.73165061
_cell_formula_units_Z   2
loop_
 _symmetry_equiv_pos_site_id
 _symmetry_equiv_pos_as_xyz
  1  'x, y, z'
loop_
 _atom_site_type_symbol
 _atom_site_label
 _atom_site_symmetry_multiplicity
 _atom_site_fract_x
 _atom_site_fract_y
 _atom_site_fract_z
 _atom_site_occupancy
  Cs  Cs0  1  0.50000000  0.00000000  0.16694100  1
  Cs  Cs1  1  0.50000000  0.50000000  0.66694100  1
  Mg  Mg0  1  0.50000000  0.24365600  0.41782100  1
  Mg  Mg1  1  0.50000000  0.75634400  0.41782100  1
  Mg  Mg2  1  0.00000000  0.72449100  0.07526800  1
  Mg  Mg3  1  0.00000000  0.27550900  0.07526800  1
  Mg  Mg4  1  0.00000000  0.00000000  0.35091700  1
  Mg  Mg5  1  0.00000000  0.50000000  0.33368900  1
  Mg  Mg6  1  0.50000000  0.74365600  0.91782100  1
  Mg  Mg7  1  0.50000000  0.25634400  0.91782100  1
  Mg  Mg8  1  0.00000000  0.22449100  0.57526800  1
  Mg  Mg9  1  0.00000000  0.77550900  0.57526800  1
  Mg  Mg10  1  0.00000000  0.50000000  0.85091700  1
  Mg  Mg11  1  0.00000000  0.00000000  0.83368900  1
  Cd  Cd0  1  0.50000000  0.50000000  0.16227100  1
  Cd  Cd1  1  0.50000000  0.00000000  0.66227100  1
loop_
_geom_bond_atom_site_label_1
_geom_bond_atom_site_label_2
_geom_bond_distance
_geom_bond_site_symmetry_2
Cs0 Mg0 3.497094 1_555
Cs0 Mg1 3.497094 1_545
Cs0 Mg2 3.511524 1_645
Cs0 Mg3 3.511524 1_655
Cs0 Mg2 3.511524 1_545
Cs0 Mg3 3.511524 1_555
Cs0 Mg7 3.522211 1_554
Cs0 Mg6 3.522211 1_544
Cs0 Mg4 3.526797 1_655
Cs0 Mg4 3.526797 1_555
Cs1 Mg6 3.497094 1_555
Cs1 Mg7 3.497094 1_555
Cs1 Mg9 3.511524 1_655
Cs1 Mg8 3.511524 1_555
Cs1 Mg8 3.511524 1_655
Cs1 Mg9 3.511524 1_555
Cs1 Mg1 3.522211 1_555
Cs1 Mg0 3.522211 1_555
Cs1 Mg10 3.526797 1_555
Cs1 Mg10 3.526797 1_655
Mg0 Mg4 3.308538 1_655
Mg0 Mg4 3.308538 1_555
Mg0 Mg8 3.333125 1_555
Mg0 Mg8 3.333125 1_655
Mg1 Mg4 3.308538 1_565
Mg1 Mg4 3.308538 1_665
Mg1 Mg9 3.333125 1_555
Mg1 Mg9 3.333125 1_655
Mg2 Mg3 3.123852 1_555
Mg2 Mg6 3.333125 1_454
Mg2 Mg6 3.333125 1_554
Mg2 Mg5 3.516565 1_555
Mg3 Mg7 3.333125 1_554
Mg3 Mg7 3.333125 1_454
Mg3 Mg5 3.516565 1_555
Mg4 Mg8 3.149815 1_555
Mg4 Mg9 3.149815 1_545
Mg4 Mg5 3.485152 1_545
Mg4 Mg5 3.485152 1_555
Mg5 Mg8 3.514166 1_555
Mg5 Mg9 3.514166 1_555
Mg8 Mg9 3.123852 1_545
Mg10 Mg3 3.149815 1_556
Mg10 Mg2 3.149815 1_556
Mg10 Mg6 3.308538 1_555
Mg10 Mg6 3.308538 1_455
Mg10 Mg7 3.308538 1_455
Mg10 Mg7 3.308538 1_555
Mg10 Mg11 3.485152 1_565
Mg10 Mg11 3.485152 1_555
Mg11 Mg2 3.514166 1_546
Mg11 Mg3 3.514166 1_556
Mg11 Mg9 3.516565 1_545
Mg11 Mg8 3.516565 1_555
Cd0 Mg2 3.312388 1_655
Cd0 Mg3 3.312388 1_555
Cd0 Mg2 3.312388 1_555
Cd0 Mg3 3.312388 1_655
Cd0 Mg6 3.428738 1_554
Cd0 Mg7 3.428738 1_554
Cd0 Mg5 3.431457 1_555
Cd0 Mg5 3.431457 1_655
Cd0 Cs0 3.479283 1_555
Cd0 Cs0 3.479283 1_565
Cd0 Mg1 3.590031 1_555
Cd0 Mg0 3.590031 1_555
Cd1 Mg8 3.312388 1_555
Cd1 Mg8 3.312388 1_655
Cd1 Mg9 3.312388 1_645
Cd1 Mg9 3.312388 1_545
Cd1 Mg0 3.428738 1_555
Cd1 Mg1 3.428738 1_545
Cd1 Mg11 3.431457 1_555
Cd1 Mg11 3.431457 1_655
Cd1 Cs1 3.479283 1_555
Cd1 Cs1 3.479283 1_545
Cd1 Mg7 3.590031 1_555
Cd1 Mg6 3.590031 1_545
