# generated using pymatgen
data_Ho2FeSbO7
_symmetry_space_group_name_H-M   'P 1'
_cell_length_a   7.28413075
_cell_length_b   7.28413075
_cell_length_c   7.28413075
_cell_angle_alpha   120.43348702
_cell_angle_beta   119.43469242
_cell_angle_gamma   90.11636997
_symmetry_Int_Tables_number   1
_chemical_formula_structural   Ho2FeSbO7
_chemical_formula_sum   'Ho4 Fe2 Sb2 O14'
_cell_volume   273.53224629
_cell_formula_units_Z   2
loop_
 _symmetry_equiv_pos_site_id
 _symmetry_equiv_pos_as_xyz
  1  'x, y, z'
loop_
 _atom_site_type_symbol
 _atom_site_label
 _atom_site_symmetry_multiplicity
 _atom_site_fract_x
 _atom_site_fract_y
 _atom_site_fract_z
 _atom_site_occupancy
  Ho  Ho0  1  0.50000000  0.00000000  0.00000000  1
  Ho  Ho1  1  0.50000000  0.50000000  0.50000000  1
  Ho  Ho2  1  0.50000000  0.00000000  0.50000000  1
  Ho  Ho3  1  0.00000000  0.00000000  0.00000000  1
  Fe  Fe0  1  0.00000000  0.50000000  0.00000000  1
  Fe  Fe1  1  0.00000000  0.00000000  0.50000000  1
  Sb  Sb0  1  0.00000000  0.50000000  0.50000000  1
  Sb  Sb1  1  0.50000000  0.50000000  0.00000000  1
  O  O0  1  0.91048300  0.16048300  0.75000000  1
  O  O1  1  0.33332900  0.58332900  0.75000000  1
  O  O2  1  0.90964000  0.58148900  0.74181700  1
  O  O3  1  0.33967200  0.16782400  0.75818300  1
  O  O4  1  0.90964000  0.16782400  0.32815200  1
  O  O5  1  0.33967200  0.58148900  0.17184800  1
  O  O6  1  0.08951700  0.83951700  0.25000000  1
  O  O7  1  0.66667100  0.41667100  0.25000000  1
  O  O8  1  0.09036000  0.41851100  0.25818300  1
  O  O9  1  0.66032800  0.83217600  0.24181700  1
  O  O10  1  0.09036000  0.83217600  0.67184800  1
  O  O11  1  0.66032800  0.41851100  0.82815200  1
  O  O12  1  0.62301600  0.87301600  0.75000000  1
  O  O13  1  0.37698400  0.12698400  0.25000000  1
loop_
_geom_bond_atom_site_label_1
_geom_bond_atom_site_label_2
_geom_bond_distance
_geom_bond_site_symmetry_2
Ho0 O12 2.208031 1_544
Ho0 O13 2.208031 1_555
Ho0 O10 2.475125 1_544
Ho0 O4 2.475125 1_555
Ho0 O9 2.475131 1_545
Ho0 O3 2.475131 1_554
Ho0 O7 2.492923 1_555
Ho0 O1 2.492923 1_544
Ho1 O12 2.208031 1_555
Ho1 O13 2.208031 1_555
Ho1 O8 2.475124 1_555
Ho1 O2 2.475124 1_555
Ho1 O5 2.475131 1_555
Ho1 O11 2.475131 1_555
Ho1 O7 2.492923 1_555
Ho1 O1 2.492923 1_555
Ho2 O13 2.254029 1_555
Ho2 O12 2.254029 1_545
Ho2 O0 2.469912 1_555
Ho2 O6 2.469912 1_545
Ho2 O11 2.496092 1_555
Ho2 O3 2.496092 1_555
Ho2 O9 2.496092 1_545
Ho2 O5 2.496092 1_545
Ho3 O13 2.254029 1_555
Ho3 O12 2.254029 1_444
Ho3 O0 2.469912 1_454
Ho3 O6 2.469912 1_545
Ho3 O8 2.496092 1_555
Ho3 O2 2.496092 1_444
Ho3 O4 2.496098 1_455
Ho3 O10 2.496098 1_544
Fe0 O0 2.030128 1_454
Fe0 O6 2.030128 1_555
Fe0 O2 2.058696 1_454
Fe0 O8 2.058696 1_555
Fe0 O5 2.058697 1_555
Fe0 O11 2.058697 1_454
Fe1 O6 2.030128 1_545
Fe1 O0 2.030128 1_455
Fe1 O3 2.058697 1_555
Fe1 O9 2.058697 1_445
Fe1 O4 2.058697 1_455
Fe1 O10 2.058697 1_545
O1 Sb0 2.026905 1_555
O1 Sb1 2.026905 1_556
O2 Sb0 1.992497 1_655
O3 Sb1 1.992491 1_556
O4 Sb0 1.992491 1_655
O5 Sb1 1.992491 1_555
O7 Sb0 2.026905 1_655
O7 Sb1 2.026905 1_555
O8 Sb0 1.992497 1_555
O9 Sb1 1.992491 1_555
O10 Sb0 1.992491 1_555
O11 Sb1 1.992491 1_556
