# generated using pymatgen
data_BaCaBiSbO6
_symmetry_space_group_name_H-M   'P 1'
_cell_length_a   8.49777029
_cell_length_b   8.51761626
_cell_length_c   8.48739642
_cell_angle_alpha   90.00000000
_cell_angle_beta   90.00000000
_cell_angle_gamma   90.00000000
_symmetry_Int_Tables_number   1
_chemical_formula_structural   BaCaBiSbO6
_chemical_formula_sum   'Ba4 Ca4 Bi4 Sb4 O24'
_cell_volume   614.32408784
_cell_formula_units_Z   4
loop_
 _symmetry_equiv_pos_site_id
 _symmetry_equiv_pos_as_xyz
  1  'x, y, z'
loop_
 _atom_site_type_symbol
 _atom_site_label
 _atom_site_symmetry_multiplicity
 _atom_site_fract_x
 _atom_site_fract_y
 _atom_site_fract_z
 _atom_site_occupancy
  Ba  Ba0  1  0.00000000  -0.00000000  0.00000000  1
  Ba  Ba1  1  0.50000000  0.50000000  0.50000000  1
  Ba  Ba2  1  0.50000000  -0.00000000  0.00000000  1
  Ba  Ba3  1  0.00000000  -0.00000000  0.50000000  1
  Ca  Ca0  1  -0.00000000  0.50000000  0.50000000  1
  Ca  Ca1  1  0.50000000  -0.00000000  0.50000000  1
  Ca  Ca2  1  0.50000000  0.50000000  0.00000000  1
  Ca  Ca3  1  -0.00000000  0.50000000  0.00000000  1
  Bi  Bi0  1  0.74906584  0.74157925  0.74904956  1
  Bi  Bi1  1  0.25093416  0.25842075  0.74904956  1
  Bi  Bi2  1  0.25093416  0.74157925  0.25095044  1
  Bi  Bi3  1  0.74906584  0.25842075  0.25095044  1
  Sb  Sb0  1  0.24827176  0.25982871  0.25042788  1
  Sb  Sb1  1  0.75172824  0.74017129  0.25042788  1
  Sb  Sb2  1  0.75172824  0.25982871  0.74957212  1
  Sb  Sb3  1  0.24827176  0.74017129  0.74957212  1
  O  O0  1  0.01507267  0.23311777  0.29040875  1
  O  O1  1  0.98492733  0.76688223  0.29040875  1
  O  O2  1  0.98492733  0.23311777  0.70959125  1
  O  O3  1  0.01507267  0.76688223  0.70959125  1
  O  O4  1  0.26859150  0.02762682  0.21135563  1
  O  O5  1  0.26859150  0.97237318  0.78864437  1
  O  O6  1  0.73140850  0.97237318  0.21135563  1
  O  O7  1  0.73140850  0.02762682  0.78864437  1
  O  O8  1  0.20029222  0.30733773  0.02084438  1
  O  O9  1  0.79970778  0.30733773  0.97915562  1
  O  O10  1  0.20029222  0.69266227  0.97915562  1
  O  O11  1  0.79970778  0.69266227  0.02084438  1
  O  O12  1  0.47680104  0.30655872  0.20095198  1
  O  O13  1  0.52319896  0.69344128  0.20095198  1
  O  O14  1  0.52319896  0.30655872  0.79904802  1
  O  O15  1  0.47680104  0.69344128  0.79904802  1
  O  O16  1  0.21107278  0.48734260  0.31331655  1
  O  O17  1  0.21107278  0.51265740  0.68668345  1
  O  O18  1  0.78892722  0.51265740  0.31331655  1
  O  O19  1  0.78892722  0.48734260  0.68668345  1
  O  O20  1  0.30732951  0.20933314  0.47992575  1
  O  O21  1  0.69267049  0.20933314  0.52007425  1
  O  O22  1  0.30732951  0.79066686  0.52007425  1
  O  O23  1  0.69267049  0.79066686  0.47992575  1
loop_
_geom_bond_atom_site_label_1
_geom_bond_atom_site_label_2
_geom_bond_distance
_geom_bond_site_symmetry_2
Ba0 O4 2.912522 1_555
Ba0 O5 2.912522 1_544
Ba0 O7 2.912522 1_454
Ba0 O6 2.912522 1_445
Ba0 O9 3.127463 1_454
Ba0 O8 3.127463 1_555
Ba0 O11 3.127463 1_445
Ba0 O10 3.127463 1_544
Ba0 O0 3.167705 1_555
Ba0 O2 3.167705 1_454
Ba0 O3 3.167705 1_544
Ba0 O1 3.167705 1_445
Ba1 O19 2.924092 1_555
Ba1 O16 2.924092 1_555
Ba1 O17 2.924092 1_555
Ba1 O18 2.924092 1_555
Ba1 O21 2.973081 1_555
Ba1 O22 2.973081 1_555
Ba1 O20 2.973081 1_555
Ba1 O23 2.973081 1_555
Ba1 O14 3.032457 1_555
Ba1 O12 3.032457 1_555
Ba1 O15 3.032457 1_555
Ba1 O13 3.032457 1_555
Ba2 O4 2.672125 1_555
Ba2 O6 2.672125 1_545
Ba2 O7 2.672125 1_554
Ba2 O5 2.672125 1_544
Ba2 O14 3.125044 1_554
Ba2 O13 3.125044 1_545
Ba2 O15 3.125044 1_544
Ba2 O12 3.125044 1_555
Ba3 O2 2.668983 1_455
Ba3 O3 2.668983 1_545
Ba3 O1 2.668983 1_445
Ba3 O0 2.668983 1_555
Ba3 O20 3.166816 1_555
Ba3 O22 3.166816 1_545
Ba3 O23 3.166816 1_445
Ba3 O21 3.166816 1_455
Ca0 O19 2.395683 1_455
Ca0 O16 2.395683 1_555
Ca0 O18 2.395683 1_455
Ca0 O17 2.395683 1_555
Ca0 O1 2.889338 1_455
Ca0 O0 2.889338 1_555
Ca0 O3 2.889338 1_555
Ca0 O2 2.889338 1_455
Ca1 O23 2.426693 1_545
Ca1 O21 2.426693 1_555
Ca1 O20 2.426693 1_555
Ca1 O22 2.426693 1_545
Ca2 O13 2.379617 1_555
Ca2 O12 2.379617 1_555
Ca2 O14 2.379617 1_554
Ca2 O15 2.379617 1_554
Ca3 O10 2.370904 1_554
Ca3 O8 2.370904 1_555
Ca3 O9 2.370904 1_454
Ca3 O11 2.370904 1_455
Bi0 O19 2.254833 1_555
Bi0 O3 2.295279 1_655
Bi0 O23 2.371048 1_555
Bi0 O11 2.383331 1_556
Bi0 O15 2.387707 1_555
Bi0 O7 2.464083 1_565
Bi1 O17 2.254833 1_555
Bi1 O2 2.295279 1_455
Bi1 O20 2.371048 1_555
Bi1 O8 2.383331 1_556
Bi1 O14 2.387707 1_555
Bi1 O5 2.464083 1_545
Bi2 O16 2.254833 1_555
Bi2 O1 2.295279 1_455
Bi2 O22 2.371048 1_555
Bi2 O10 2.383331 1_554
Bi2 O13 2.387707 1_555
Bi2 O4 2.464083 1_565
Bi3 O18 2.254833 1_555
Bi3 O0 2.295279 1_655
Bi3 O21 2.371048 1_555
Bi3 O9 2.383331 1_554
Bi3 O12 2.387707 1_555
Bi3 O6 2.464083 1_545
O0 Sb0 2.023347 1_555
O1 Sb1 2.023347 1_555
O2 Sb2 2.023347 1_555
O3 Sb3 2.023347 1_555
O4 Sb0 2.012836 1_555
O5 Sb3 2.012836 1_555
O6 Sb1 2.012836 1_555
O7 Sb2 2.012836 1_555
O8 Sb0 2.031477 1_555
O9 Sb2 2.031477 1_555
O10 Sb3 2.031477 1_555
O11 Sb1 2.031477 1_555
O12 Sb0 2.026347 1_555
O13 Sb1 2.026347 1_555
O14 Sb2 2.026347 1_555
O15 Sb3 2.026347 1_555
O16 Sb0 2.034745 1_555
O17 Sb3 2.034745 1_555
O18 Sb1 2.034745 1_555
O19 Sb2 2.034745 1_555
O20 Sb0 2.056922 1_555
O21 Sb2 2.056922 1_555
O22 Sb3 2.056922 1_555
O23 Sb1 2.056922 1_555
