# generated using pymatgen
data_ErVO3
_symmetry_space_group_name_H-M   'P 1'
_cell_length_a   5.20978186
_cell_length_b   5.64494742
_cell_length_c   7.49784195
_cell_angle_alpha   90.00000000
_cell_angle_beta   90.00000000
_cell_angle_gamma   90.00000000
_symmetry_Int_Tables_number   1
_chemical_formula_structural   ErVO3
_chemical_formula_sum   'Er4 V4 O12'
_cell_volume   220.50361905
_cell_formula_units_Z   4
loop_
 _symmetry_equiv_pos_site_id
 _symmetry_equiv_pos_as_xyz
  1  'x, y, z'
loop_
 _atom_site_type_symbol
 _atom_site_label
 _atom_site_symmetry_multiplicity
 _atom_site_fract_x
 _atom_site_fract_y
 _atom_site_fract_z
 _atom_site_occupancy
  Er  Er0  1  0.47916617  0.42735213  0.75000000  1
  Er  Er1  1  0.97916617  0.07264787  0.25000000  1
  Er  Er2  1  0.02083383  0.92735213  0.75000000  1
  Er  Er3  1  0.52083383  0.57264787  0.25000000  1
  V  V0  1  0.00000000  0.50000000  0.50000000  1
  V  V1  1  0.50000000  0.00000000  0.50000000  1
  V  V2  1  0.50000000  0.00000000  -0.00000000  1
  V  V3  1  0.00000000  0.50000000  -0.00000000  1
  O  O0  1  0.69192296  0.31161186  0.44047179  1
  O  O1  1  0.19192296  0.18838814  0.55952821  1
  O  O2  1  0.80807704  0.81161186  0.05952821  1
  O  O3  1  0.30807704  0.68838814  0.94047179  1
  O  O4  1  0.30807704  0.68838814  0.55952821  1
  O  O5  1  0.80807704  0.81161186  0.44047179  1
  O  O6  1  0.19192296  0.18838814  0.94047179  1
  O  O7  1  0.69192296  0.31161186  0.05952821  1
  O  O8  1  0.12095833  0.45177867  0.25000000  1
  O  O9  1  0.62095833  0.04822133  0.75000000  1
  O  O10  1  0.37904167  0.95177867  0.25000000  1
  O  O11  1  0.87904167  0.54822133  0.75000000  1
loop_
_geom_bond_atom_site_label_1
_geom_bond_atom_site_label_2
_geom_bond_distance
_geom_bond_site_symmetry_2
Er0 O11 2.192150 1_555
Er0 O4 2.237260 1_555
Er0 O3 2.237260 1_555
Er0 O9 2.264074 1_555
Er0 O1 2.469539 1_555
Er0 O6 2.469539 1_555
Er0 O0 2.653589 1_555
Er0 O7 2.653589 1_556
Er1 O10 2.192150 1_645
Er1 O2 2.237260 1_545
Er1 O5 2.237260 1_545
Er1 O8 2.264074 1_655
Er1 O0 2.469539 1_555
Er1 O7 2.469539 1_555
Er1 O1 2.653589 1_655
Er1 O6 2.653589 1_654
Er2 O9 2.192150 1_465
Er2 O6 2.237260 1_565
Er2 O1 2.237260 1_565
Er2 O11 2.264074 1_455
Er2 O3 2.469539 1_555
Er2 O4 2.469539 1_555
Er2 O5 2.653589 1_455
Er2 O2 2.653589 1_456
Er3 O8 2.192150 1_555
Er3 O0 2.237260 1_555
Er3 O7 2.237260 1_555
Er3 O10 2.264074 1_555
Er3 O5 2.469539 1_555
Er3 O2 2.469539 1_555
Er3 O4 2.653589 1_555
Er3 O3 2.653589 1_554
O0 V0 1.976409 1_655
O0 V1 2.071995 1_555
O1 V1 1.976409 1_555
O1 V0 2.071995 1_555
O2 V2 1.976409 1_565
O2 V3 2.071995 1_655
O3 V3 1.976409 1_556
O3 V2 2.071995 1_566
O4 V0 1.976409 1_555
O4 V1 2.071995 1_565
O5 V1 1.976409 1_565
O5 V0 2.071995 1_655
O6 V2 1.976409 1_556
O6 V3 2.071995 1_556
O7 V3 1.976409 1_655
O7 V2 2.071995 1_555
O8 V3 1.996199 1_555
O8 V0 1.996199 1_555
O9 V1 1.996199 1_555
O9 V2 1.996199 1_556
O10 V2 1.996199 1_565
O10 V1 1.996199 1_565
O11 V3 1.996199 1_656
O11 V0 1.996199 1_655
