# generated using pymatgen
data_SmTl2P2S7
_symmetry_space_group_name_H-M   'P 1'
_cell_length_a   12.03435269
_cell_length_b   12.03435269
_cell_length_c   18.97839738
_cell_angle_alpha   60.20706985
_cell_angle_beta   60.20706985
_cell_angle_gamma   32.77887164
_symmetry_Int_Tables_number   1
_chemical_formula_structural   SmTl2P2S7
_chemical_formula_sum   'Sm4 Tl8 P8 S28'
_cell_volume   1272.94127891
_cell_formula_units_Z   4
loop_
 _symmetry_equiv_pos_site_id
 _symmetry_equiv_pos_as_xyz
  1  'x, y, z'
loop_
 _atom_site_type_symbol
 _atom_site_label
 _atom_site_symmetry_multiplicity
 _atom_site_fract_x
 _atom_site_fract_y
 _atom_site_fract_z
 _atom_site_occupancy
  Sm  Sm0  1  0.88326800  0.80711200  0.23517600  1
  Sm  Sm1  1  0.19288800  0.11673200  0.26482400  1
  Sm  Sm2  1  0.11673200  0.19288800  0.76482400  1
  Sm  Sm3  1  0.80711200  0.88326800  0.73517600  1
  Tl  Tl0  1  0.81887400  0.81643200  0.02606700  1
  Tl  Tl1  1  0.18356800  0.18112600  0.47393300  1
  Tl  Tl2  1  0.18112600  0.18356800  0.97393300  1
  Tl  Tl3  1  0.81643200  0.81887400  0.52606700  1
  Tl  Tl4  1  0.53564800  0.48647300  0.11930000  1
  Tl  Tl5  1  0.51352700  0.46435200  0.38070000  1
  Tl  Tl6  1  0.46435200  0.51352700  0.88070000  1
  Tl  Tl7  1  0.48647300  0.53564800  0.61930000  1
  P  P0  1  0.33098000  0.33526800  0.13745700  1
  P  P1  1  0.66473200  0.66902000  0.36254300  1
  P  P2  1  0.66902000  0.66473200  0.86254300  1
  P  P3  1  0.33526800  0.33098000  0.63745700  1
  P  P4  1  0.97373500  0.92957500  0.31073200  1
  P  P5  1  0.07042500  0.02626500  0.18926800  1
  P  P6  1  0.02626500  0.07042500  0.68926800  1
  P  P7  1  0.92957500  0.97373500  0.81073200  1
  S  S0  1  0.00091400  0.96236400  0.39346800  1
  S  S1  1  0.03763600  0.99908600  0.10653200  1
  S  S2  1  0.99908600  0.03763600  0.60653200  1
  S  S3  1  0.96236400  0.00091400  0.89346800  1
  S  S4  1  0.16334600  0.63355700  0.08446000  1
  S  S5  1  0.36644300  0.83665400  0.41554000  1
  S  S6  1  0.83665400  0.36644300  0.91554000  1
  S  S7  1  0.63355700  0.16334600  0.58446000  1
  S  S8  1  0.16944500  0.63145900  0.31272900  1
  S  S9  1  0.36854100  0.83055500  0.18727100  1
  S  S10  1  0.83055500  0.36854100  0.68727100  1
  S  S11  1  0.63145900  0.16944500  0.81272900  1
  S  S12  1  0.22090100  0.33839000  0.26265600  1
  S  S13  1  0.66161000  0.77909900  0.23734400  1
  S  S14  1  0.77909900  0.66161000  0.73734400  1
  S  S15  1  0.33839000  0.22090100  0.76265600  1
  S  S16  1  0.74780300  0.72081000  0.40150000  1
  S  S17  1  0.27919000  0.25219700  0.09850000  1
  S  S18  1  0.25219700  0.27919000  0.59850000  1
  S  S19  1  0.72081000  0.74780300  0.90150000  1
  S  S20  1  0.85535600  0.36075700  0.39514700  1
  S  S21  1  0.63924300  0.14464400  0.10485300  1
  S  S22  1  0.14464400  0.63924300  0.60485300  1
  S  S23  1  0.36075700  0.85535600  0.89514700  1
  S  S24  1  0.88261100  0.31970700  0.18915600  1
  S  S25  1  0.68029300  0.11738900  0.31084400  1
  S  S26  1  0.11738900  0.68029300  0.81084400  1
  S  S27  1  0.31970700  0.88261100  0.68915600  1
loop_
_geom_bond_atom_site_label_1
_geom_bond_atom_site_label_2
_geom_bond_distance
_geom_bond_site_symmetry_2
P0 S17 2.043188 1_555
P0 S4 2.053928 1_555
P0 S21 2.055930 1_555
P0 S12 2.068609 1_555
P1 S16 2.043188 1_555
P1 S5 2.053928 1_555
P1 S20 2.055930 1_555
P1 S13 2.068609 1_555
P2 S19 2.043188 1_555
P2 S6 2.053928 1_555
P2 S23 2.055930 1_555
P2 S14 2.068609 1_555
P3 S18 2.043188 1_555
P3 S7 2.053928 1_555
P3 S22 2.055930 1_555
P3 S15 2.068609 1_555
P4 S0 2.017747 1_655
P4 S25 2.038404 1_565
P4 S8 2.040778 1_655
P5 S1 2.017747 1_545
P5 S24 2.038404 1_455
P5 S9 2.040778 1_545
P6 S2 2.017747 1_455
P6 S27 2.038404 1_545
P6 S10 2.040778 1_455
P7 S3 2.017747 1_565
P7 S26 2.038404 1_655
P7 S11 2.040778 1_565
S0 Sm1 3.442950 1_565
S1 Sm0 3.442950 1_455
S2 Sm3 3.442950 1_545
S3 Sm2 3.442950 1_655
S4 Sm0 2.902257 1_455
S4 Tl0 3.171303 1_455
S5 Sm1 2.902257 1_565
S5 Tl1 3.171303 1_565
S6 Sm2 2.902257 1_655
S6 Tl2 3.171303 1_655
S7 Sm3 2.902257 1_545
S7 Tl3 3.171303 1_545
S8 Sm0 2.863437 1_455
S9 Sm1 2.863437 1_565
S10 Sm2 2.863437 1_655
S11 Sm3 2.863437 1_545
S12 Sm1 2.936026 1_555
S12 Sm0 3.040108 1_455
S13 Sm0 2.936026 1_555
S13 Sm1 3.040108 1_565
S14 Sm3 2.936026 1_555
S14 Sm2 3.040108 1_655
S15 Sm2 2.936026 1_555
S15 Sm3 3.040108 1_545
S16 Sm0 2.859331 1_555
S17 Sm1 2.859331 1_555
S18 Sm2 2.859331 1_555
S19 Sm3 2.859331 1_555
S20 Sm1 2.901163 1_655
S21 Sm0 2.901163 1_545
S22 Sm3 2.901163 1_455
S23 Sm2 2.901163 1_565
S24 Sm1 2.911568 1_655
S25 Sm0 2.911568 1_545
S26 Sm3 2.911568 1_455
S27 Sm2 2.911568 1_565
