# generated using pymatgen
data_Pm3Zr
_symmetry_space_group_name_H-M   'P 1'
_cell_length_a   7.10348931
_cell_length_b   7.10348931
_cell_length_c   5.74510300
_cell_angle_alpha   90.00000000
_cell_angle_beta   90.00000000
_cell_angle_gamma   119.99999358
_symmetry_Int_Tables_number   1
_chemical_formula_structural   Pm3Zr
_chemical_formula_sum   'Pm6 Zr2'
_cell_volume   251.05677264
_cell_formula_units_Z   2
loop_
 _symmetry_equiv_pos_site_id
 _symmetry_equiv_pos_as_xyz
  1  'x, y, z'
loop_
 _atom_site_type_symbol
 _atom_site_label
 _atom_site_symmetry_multiplicity
 _atom_site_fract_x
 _atom_site_fract_y
 _atom_site_fract_z
 _atom_site_occupancy
  Pm  Pm0  1  0.17189800  0.34379600  0.25000000  1
  Pm  Pm1  1  0.65620400  0.82810200  0.25000000  1
  Pm  Pm2  1  0.17189800  0.82810200  0.25000000  1
  Pm  Pm3  1  0.82810200  0.65620400  0.75000000  1
  Pm  Pm4  1  0.34379600  0.17189800  0.75000000  1
  Pm  Pm5  1  0.82810200  0.17189800  0.75000000  1
  Zr  Zr0  1  0.33333300  0.66666700  0.75000000  1
  Zr  Zr1  1  0.66666700  0.33333300  0.25000000  1
loop_
_geom_bond_atom_site_label_1
_geom_bond_atom_site_label_2
_geom_bond_distance
_geom_bond_site_symmetry_2
Pm0 Pm2 3.440262 1_555
Pm0 Pm1 3.440263 1_555
Pm0 Zr0 3.492377 1_554
Pm0 Zr0 3.492377 1_555
Pm0 Zr1 3.552324 1_455
Pm0 Zr1 3.552331 1_555
Pm0 Pm4 3.567160 1_555
Pm0 Pm4 3.567160 1_554
Pm0 Pm5 3.567160 1_454
Pm0 Pm5 3.567160 1_455
Pm0 Pm2 3.663227 1_545
Pm0 Pm1 3.663227 1_445
Pm1 Pm2 3.440262 1_555
Pm1 Zr0 3.492377 1_554
Pm1 Zr0 3.492377 1_555
Pm1 Zr1 3.552324 1_565
Pm1 Zr1 3.552331 1_555
Pm1 Pm3 3.567160 1_554
Pm1 Pm3 3.567160 1_555
Pm1 Pm5 3.567160 1_565
Pm1 Pm5 3.567160 1_564
Pm1 Pm2 3.663227 1_655
Pm2 Zr0 3.492373 1_554
Pm2 Zr0 3.492373 1_555
Pm2 Zr1 3.552328 1_455
Pm2 Zr1 3.552328 1_565
Pm2 Pm3 3.567160 1_455
Pm2 Pm3 3.567160 1_454
Pm2 Pm4 3.567160 1_565
Pm2 Pm4 3.567160 1_564
Pm3 Pm5 3.440262 1_555
Pm3 Pm4 3.440263 1_555
Pm3 Zr1 3.492377 1_555
Pm3 Zr1 3.492377 1_556
Pm3 Zr0 3.552324 1_655
Pm3 Zr0 3.552331 1_555
Pm3 Pm5 3.663227 1_565
Pm3 Pm4 3.663227 1_665
Pm4 Pm5 3.440262 1_555
Pm4 Zr1 3.492377 1_555
Pm4 Zr1 3.492377 1_556
Pm4 Zr0 3.552324 1_545
Pm4 Zr0 3.552331 1_555
Pm4 Pm5 3.663227 1_455
Pm5 Zr1 3.492373 1_555
Pm5 Zr1 3.492373 1_556
Pm5 Zr0 3.552328 1_545
Pm5 Zr0 3.552328 1_655
