# generated using pymatgen
data_Sm2Ga2Co15
_symmetry_space_group_name_H-M   'P 1'
_cell_length_a   6.35695278
_cell_length_b   6.35695278
_cell_length_c   6.35695322
_cell_angle_alpha   82.78723530
_cell_angle_beta   82.78723530
_cell_angle_gamma   82.78723277
_symmetry_Int_Tables_number   1
_chemical_formula_structural   Sm2Ga2Co15
_chemical_formula_sum   'Sm2 Ga2 Co15'
_cell_volume   251.26230591
_cell_formula_units_Z   1
loop_
 _symmetry_equiv_pos_site_id
 _symmetry_equiv_pos_as_xyz
  1  'x, y, z'
loop_
 _atom_site_type_symbol
 _atom_site_label
 _atom_site_symmetry_multiplicity
 _atom_site_fract_x
 _atom_site_fract_y
 _atom_site_fract_z
 _atom_site_occupancy
  Sm  Sm0  1  0.64954000  0.64954000  0.64954000  1
  Sm  Sm1  1  0.35046000  0.35046000  0.35046000  1
  Ga  Ga0  1  0.89347800  0.89347800  0.89347800  1
  Ga  Ga1  1  0.10652200  0.10652200  0.10652200  1
  Co  Co0  1  0.00000000  0.00000000  0.50000000  1
  Co  Co1  1  0.50000000  0.00000000  0.00000000  1
  Co  Co2  1  0.00000000  0.50000000  0.00000000  1
  Co  Co3  1  0.71144600  0.28855400  0.00000000  1
  Co  Co4  1  0.00000000  0.71144600  0.28855400  1
  Co  Co5  1  0.28855400  0.00000000  0.71144600  1
  Co  Co6  1  0.00000000  0.28855400  0.71144600  1
  Co  Co7  1  0.71144600  0.00000000  0.28855400  1
  Co  Co8  1  0.28855400  0.71144600  0.00000000  1
  Co  Co9  1  0.34918400  0.34918400  0.84886500  1
  Co  Co10  1  0.84886500  0.34918400  0.34918400  1
  Co  Co11  1  0.34918400  0.84886500  0.34918400  1
  Co  Co12  1  0.65081600  0.65081600  0.15113500  1
  Co  Co13  1  0.15113500  0.65081600  0.65081600  1
  Co  Co14  1  0.65081600  0.15113500  0.65081600  1
loop_
_geom_bond_atom_site_label_1
_geom_bond_atom_site_label_2
_geom_bond_distance
_geom_bond_site_symmetry_2
Sm0 Sm1 3.683363 1_555
Ga0 Ga1 2.623774 1_666
Ga0 Sm0 3.004254 1_555
Ga1 Sm1 3.004254 1_555
Co0 Co6 2.406372 1_555
Co0 Co7 2.406372 1_455
Co0 Co4 2.406372 1_545
Co0 Co5 2.406372 1_555
Co0 Co10 2.435338 1_455
Co0 Co13 2.435338 1_545
Co0 Co14 2.435338 1_455
Co0 Co11 2.435338 1_545
Co0 Ga0 2.537358 1_445
Co0 Ga1 2.537358 1_555
Co0 Sm0 3.318599 1_445
Co0 Sm1 3.318599 1_555
Co1 Co8 2.406372 1_545
Co1 Co3 2.406372 1_555
Co1 Co7 2.406372 1_555
Co1 Co5 2.406372 1_554
Co1 Co9 2.435338 1_554
Co1 Co12 2.435338 1_545
Co1 Co11 2.435339 1_545
Co1 Co14 2.435339 1_554
Co1 Ga0 2.537357 1_544
Co1 Ga1 2.537357 1_555
Co1 Sm0 3.318599 1_544
Co1 Sm1 3.318599 1_555
Co2 Co8 2.406372 1_555
Co2 Co3 2.406372 1_455
Co2 Co6 2.406372 1_554
Co2 Co4 2.406372 1_555
Co2 Co9 2.435338 1_554
Co2 Ga0 2.537357 1_454
Co2 Ga1 2.537357 1_555
Co2 Sm0 3.318599 1_454
Co2 Sm1 3.318599 1_555
Co3 Co7 2.425814 1_555
Co3 Co6 2.425814 1_654
Co3 Co9 2.571885 1_554
Co3 Ga1 2.757829 1_655
Co3 Ga0 2.757829 1_544
Co3 Sm1 3.015594 1_555
Co3 Sm0 3.015594 1_554
Co4 Co7 2.425814 1_465
Co4 Co8 2.425814 1_555
Co4 Ga1 2.757829 1_565
Co4 Ga0 2.757829 1_454
Co4 Sm1 3.015594 1_555
Co4 Sm0 3.015594 1_455
Co5 Co6 2.425814 1_555
Co5 Co8 2.425814 1_546
Co5 Co9 2.573955 1_555
Co5 Ga0 2.757829 1_445
Co5 Ga1 2.757829 1_556
Co5 Sm0 3.015594 1_545
Co5 Sm1 3.015594 1_555
Co6 Co9 2.573955 1_555
Co6 Ga0 2.757829 1_445
Co6 Ga1 2.757829 1_556
Co6 Sm0 3.015594 1_455
Co6 Sm1 3.015594 1_555
Co7 Ga1 2.757829 1_655
Co7 Ga0 2.757829 1_544
Co7 Sm1 3.015594 1_555
Co7 Sm0 3.015594 1_545
Co8 Co9 2.571885 1_554
Co8 Ga1 2.757829 1_565
Co8 Ga0 2.757829 1_454
Co8 Sm1 3.015594 1_555
Co8 Sm0 3.015594 1_554
Co9 Ga1 2.602028 1_556
Co9 Sm0 2.932095 1_555
Co9 Sm1 3.166323 1_555
Co9 Sm1 3.190675 1_556
Co10 Co2 2.435339 1_655
Co10 Co12 2.456093 1_555
Co10 Co14 2.456093 1_555
Co10 Co4 2.571885 1_655
Co10 Co6 2.571885 1_655
Co10 Co7 2.573955 1_555
Co10 Co3 2.573955 1_555
Co10 Ga1 2.602028 1_655
Co10 Sm0 2.932095 1_555
Co10 Sm1 3.166323 1_555
Co10 Sm1 3.190675 1_655
Co11 Co12 2.456093 1_555
Co11 Co13 2.456093 1_555
Co11 Co7 2.571885 1_565
Co11 Co5 2.571885 1_565
Co11 Co4 2.573955 1_555
Co11 Co8 2.573955 1_555
Co11 Ga1 2.602028 1_565
Co11 Sm0 2.932095 1_555
Co11 Sm1 3.166323 1_555
Co11 Sm1 3.190675 1_565
Co12 Co2 2.435338 1_655
Co12 Co3 2.571885 1_555
Co12 Co8 2.571885 1_555
Co12 Co7 2.573955 1_565
Co12 Co4 2.573955 1_655
Co12 Ga0 2.602028 1_554
Co12 Sm1 2.932095 1_555
Co12 Sm0 3.166323 1_555
Co12 Sm0 3.190675 1_554
Co13 Co2 2.435339 1_556
Co13 Co9 2.456093 1_555
Co13 Co6 2.571885 1_555
Co13 Co4 2.571885 1_555
Co13 Co5 2.573955 1_565
Co13 Co8 2.573955 1_556
Co13 Ga0 2.602028 1_455
Co13 Sm1 2.932095 1_555
Co13 Sm0 3.166323 1_555
Co13 Sm0 3.190675 1_455
Co14 Co9 2.456093 1_555
Co14 Co5 2.571885 1_555
Co14 Co7 2.571885 1_555
Co14 Co6 2.573955 1_655
Co14 Co3 2.573955 1_556
Co14 Ga0 2.602028 1_545
Co14 Sm1 2.932095 1_555
Co14 Sm0 3.166323 1_555
Co14 Sm0 3.190675 1_545
