# generated using pymatgen
data_Fe4Se3N2
_symmetry_space_group_name_H-M   'P 1'
_cell_length_a   6.41458697
_cell_length_b   3.29482505
_cell_length_c   8.74650509
_cell_angle_alpha   90.00000125
_cell_angle_beta   48.68040386
_cell_angle_gamma   75.11837946
_symmetry_Int_Tables_number   1
_chemical_formula_structural   Fe4Se3N2
_chemical_formula_sum   'Fe4 Se3 N2'
_cell_volume   130.46504589
_cell_formula_units_Z   1
loop_
 _symmetry_equiv_pos_site_id
 _symmetry_equiv_pos_as_xyz
  1  'x, y, z'
loop_
 _atom_site_type_symbol
 _atom_site_label
 _atom_site_symmetry_multiplicity
 _atom_site_fract_x
 _atom_site_fract_y
 _atom_site_fract_z
 _atom_site_occupancy
  Fe  Fe0  1  0.39045000  0.80477500  0.63492500  1
  Fe  Fe1  1  0.60955000  0.19522500  0.36507500  1
  Fe  Fe2  1  0.55926000  0.72037000  0.15169900  1
  Fe  Fe3  1  0.44074000  0.27963000  0.84830100  1
  Se  Se0  1  0.00000000  0.00000000  0.00000000  1
  Se  Se1  1  0.75798500  0.62100800  0.79578800  1
  Se  Se2  1  0.24201500  0.37899200  0.20421200  1
  N  N0  1  0.43285700  0.78357100  0.40817700  1
  N  N1  1  0.56714300  0.21642900  0.59182300  1
loop_
_geom_bond_atom_site_label_1
_geom_bond_atom_site_label_2
_geom_bond_distance
_geom_bond_site_symmetry_2
Fe0 N0 1.813836 1_555
Fe0 N1 1.868619 1_555
Fe0 N1 1.868622 1_565
Fe0 Se0 2.344031 1_566
Fe1 N1 1.813836 1_555
Fe1 N0 1.868619 1_555
Fe1 N0 1.868622 1_545
Fe1 Se0 2.344031 1_655
Fe2 N0 1.801251 1_555
Fe2 Se2 2.357694 1_565
Fe2 Se2 2.357696 1_555
Fe2 Se1 2.443008 1_554
Fe2 Se0 2.643223 1_665
Fe2 Se0 2.643223 1_655
Fe3 N1 1.801251 1_555
Fe3 Se1 2.357694 1_545
Fe3 Se1 2.357696 1_555
Fe3 Se2 2.443008 1_556
Fe3 Se0 2.643223 1_556
Fe3 Se0 2.643223 1_566
