# generated using pymatgen
data_TaSe2
_symmetry_space_group_name_H-M   'P 1'
_cell_length_a   3.47408152
_cell_length_b   3.47412034
_cell_length_c   13.42058964
_cell_angle_alpha   90.00000000
_cell_angle_beta   90.00000000
_cell_angle_gamma   119.99965033
_symmetry_Int_Tables_number   1
_chemical_formula_structural   TaSe2
_chemical_formula_sum   'Ta2 Se4'
_cell_volume   140.27769525
_cell_formula_units_Z   2
loop_
 _symmetry_equiv_pos_site_id
 _symmetry_equiv_pos_as_xyz
  1  'x, y, z'
loop_
 _atom_site_type_symbol
 _atom_site_label
 _atom_site_symmetry_multiplicity
 _atom_site_fract_x
 _atom_site_fract_y
 _atom_site_fract_z
 _atom_site_occupancy
  Ta  Ta0  1  0.33335303  0.66670606  0.25000000  1
  Ta  Ta1  1  0.66664697  0.33329394  0.75000000  1
  Se  Se0  1  0.33331915  0.66663731  0.87410761  1
  Se  Se1  1  0.66668085  0.33336269  0.12589239  1
  Se  Se2  1  0.66668085  0.33336269  0.37410761  1
  Se  Se3  1  0.33331915  0.66663731  0.62589239  1
loop_
_geom_bond_atom_site_label_1
_geom_bond_atom_site_label_2
_geom_bond_distance
_geom_bond_site_symmetry_2
Se0 Ta1 2.607162 1_565
Se0 Ta1 2.607179 1_555
Se0 Ta1 2.607180 1_455
Se1 Ta0 2.607162 1_545
Se1 Ta0 2.607179 1_555
Se1 Ta0 2.607180 1_655
Se2 Ta0 2.607162 1_545
Se2 Ta0 2.607179 1_555
Se2 Ta0 2.607180 1_655
Se3 Ta1 2.607162 1_565
Se3 Ta1 2.607179 1_555
Se3 Ta1 2.607180 1_455
