# generated using pymatgen
data_NdTa2O6F
_symmetry_space_group_name_H-M   'P 1'
_cell_length_a   7.43920465
_cell_length_b   7.43920465
_cell_length_c   7.43920465
_cell_angle_alpha   120.52175285
_cell_angle_beta   118.64881499
_cell_angle_gamma   90.72738020
_symmetry_Int_Tables_number   1
_chemical_formula_structural   NdTa2O6F
_chemical_formula_sum   'Nd2 Ta4 O12 F2'
_cell_volume   292.81792870
_cell_formula_units_Z   2
loop_
 _symmetry_equiv_pos_site_id
 _symmetry_equiv_pos_as_xyz
  1  'x, y, z'
loop_
 _atom_site_type_symbol
 _atom_site_label
 _atom_site_symmetry_multiplicity
 _atom_site_fract_x
 _atom_site_fract_y
 _atom_site_fract_z
 _atom_site_occupancy
  Nd  Nd0  1  0.50000000  0.50000000  0.00000000  1
  Nd  Nd1  1  0.00000000  0.50000000  0.50000000  1
  Ta  Ta0  1  0.00000000  0.00000000  0.00000000  1
  Ta  Ta1  1  0.50000000  0.00000000  0.50000000  1
  Ta  Ta2  1  0.50000000  0.00000000  0.00000000  1
  Ta  Ta3  1  0.50000000  0.50000000  0.50000000  1
  O  O0  1  0.19696200  0.94696200  0.25000000  1
  O  O1  1  0.57628200  0.32628200  0.25000000  1
  O  O2  1  0.18580700  0.91907900  0.86353300  1
  O  O3  1  0.55554700  0.32227400  0.63646700  1
  O  O4  1  0.55554700  0.91907900  0.23327300  1
  O  O5  1  0.18580700  0.32227400  0.26672700  1
  O  O6  1  0.80303800  0.05303800  0.75000000  1
  O  O7  1  0.42371800  0.67371800  0.75000000  1
  O  O8  1  0.81419300  0.08092100  0.13646700  1
  O  O9  1  0.44445300  0.67772600  0.36353300  1
  O  O10  1  0.44445300  0.08092100  0.76672700  1
  O  O11  1  0.81419300  0.67772600  0.73327300  1
  F  F0  1  0.86541500  0.61541500  0.25000000  1
  F  F1  1  0.13458500  0.38458500  0.75000000  1
loop_
_geom_bond_atom_site_label_1
_geom_bond_atom_site_label_2
_geom_bond_distance
_geom_bond_site_symmetry_2
Nd0 O10 2.585758 1_554
Nd0 O4 2.585758 1_555
Nd0 O3 2.585764 1_554
Nd0 O9 2.585764 1_555
Nd0 O1 2.626574 1_555
Nd0 O7 2.626574 1_554
Nd1 O8 2.585759 1_455
Nd1 O2 2.585759 1_555
Nd1 O11 2.585764 1_455
Nd1 O5 2.585764 1_555
Nd1 O7 2.626574 1_555
Nd1 O1 2.626574 1_455
O0 Ta1 1.976991 1_565
O0 Ta0 1.976991 1_565
O1 Ta3 2.010058 1_555
O1 Ta2 2.010058 1_555
O2 Ta2 1.981016 1_566
O2 Ta0 2.012364 1_566
O3 Ta3 1.981016 1_555
O3 Ta1 2.012363 1_555
O4 Ta2 1.981022 1_565
O4 Ta1 2.012362 1_565
O5 Ta3 1.981016 1_555
O5 Ta0 2.012363 1_555
O6 Ta0 1.976991 1_656
O6 Ta1 1.976991 1_555
O7 Ta2 2.010058 1_566
O7 Ta3 2.010058 1_555
O8 Ta2 1.981016 1_555
O8 Ta0 2.012364 1_655
O9 Ta3 1.981016 1_555
O9 Ta1 2.012363 1_565
O10 Ta2 1.981022 1_556
O10 Ta1 2.012362 1_555
O11 Ta3 1.981016 1_555
O11 Ta0 2.012363 1_666
F0 Nd0 2.248721 1_555
F0 Nd1 2.248721 1_655
F1 Nd0 2.248721 1_556
F1 Nd1 2.248721 1_555
