# generated using pymatgen
data_UH6C3SeN2O7
_symmetry_space_group_name_H-M   'P 1'
_cell_length_a   10.88135400
_cell_length_b   9.14188000
_cell_length_c   13.61589561
_cell_angle_alpha   48.77498999
_cell_angle_beta   90.00000000
_cell_angle_gamma   90.00000000
_symmetry_Int_Tables_number   1
_chemical_formula_structural   UH6C3SeN2O7
_chemical_formula_sum   'U4 H24 C12 Se4 N8 O28'
_cell_volume   1018.72280810
_cell_formula_units_Z   4
loop_
 _symmetry_equiv_pos_site_id
 _symmetry_equiv_pos_as_xyz
  1  'x, y, z'
loop_
 _atom_site_type_symbol
 _atom_site_label
 _atom_site_symmetry_multiplicity
 _atom_site_fract_x
 _atom_site_fract_y
 _atom_site_fract_z
 _atom_site_occupancy
  U  U0  1  0.70395300  0.07087000  0.31113500  1
  U  U1  1  0.79604700  0.07087000  0.81113500  1
  U  U2  1  0.29604700  0.92913000  0.68886500  1
  U  U3  1  0.20395300  0.92913000  0.18886500  1
  H  H0  1  0.51418800  0.72913700  0.02773700  1
  H  H1  1  0.98581200  0.72913700  0.52773700  1
  H  H2  1  0.48581200  0.27086300  0.97226300  1
  H  H3  1  0.01418800  0.27086300  0.47226300  1
  H  H4  1  0.36078600  0.79804700  0.02393100  1
  H  H5  1  0.13921400  0.79804700  0.52393100  1
  H  H6  1  0.63921400  0.20195300  0.97606900  1
  H  H7  1  0.86078600  0.20195300  0.47606900  1
  H  H8  1  0.67509300  0.60987100  0.49193000  1
  H  H9  1  0.82490700  0.60987100  0.99193000  1
  H  H10  1  0.32490700  0.39012900  0.50807000  1
  H  H11  1  0.17509300  0.39012900  0.00807000  1
  H  H12  1  0.64141100  0.41768300  0.49784600  1
  H  H13  1  0.85858900  0.41768300  0.99784600  1
  H  H14  1  0.35858900  0.58231700  0.50215400  1
  H  H15  1  0.14141100  0.58231700  0.00215400  1
  H  H16  1  0.65328600  0.67157600  0.17366000  1
  H  H17  1  0.84671400  0.67157600  0.67366000  1
  H  H18  1  0.34671400  0.32842400  0.82634000  1
  H  H19  1  0.15328600  0.32842400  0.32634000  1
  H  H20  1  0.58286400  0.46293900  0.31628800  1
  H  H21  1  0.91713600  0.46293900  0.81628800  1
  H  H22  1  0.41713600  0.53706100  0.68371200  1
  H  H23  1  0.08286400  0.53706100  0.18371200  1
  C  C0  1  0.62164100  0.69581100  0.31781700  1
  C  C1  1  0.87835900  0.69581100  0.81781700  1
  C  C2  1  0.37835900  0.30418900  0.68218300  1
  C  C3  1  0.12164100  0.30418900  0.18218300  1
  C  C4  1  0.58405200  0.62304800  0.24879300  1
  C  C5  1  0.91594800  0.62304800  0.74879300  1
  C  C6  1  0.41594800  0.37695200  0.75120700  1
  C  C7  1  0.08405200  0.37695200  0.25120700  1
  C  C8  1  0.45923500  0.70022400  0.18345900  1
  C  C9  1  0.04076500  0.70022400  0.68345900  1
  C  C10  1  0.54076500  0.29977600  0.81654100  1
  C  C11  1  0.95923500  0.29977600  0.31654100  1
  Se  Se0  1  0.88107900  0.00917000  0.10214300  1
  Se  Se1  1  0.61892100  0.00917000  0.60214300  1
  Se  Se2  1  0.11892100  0.99083000  0.89785700  1
  Se  Se3  1  0.38107900  0.99083000  0.39785700  1
  N  N0  1  0.44390800  0.74399500  0.07014000  1
  N  N1  1  0.05609200  0.74399500  0.57014000  1
  N  N2  1  0.55609200  0.25600500  0.92986000  1
  N  N3  1  0.94390800  0.25600500  0.42986000  1
  N  N4  1  0.64501000  0.56503800  0.44443000  1
  N  N5  1  0.85499000  0.56503800  0.94443000  1
  N  N6  1  0.35499000  0.43496200  0.55557000  1
  N  N7  1  0.14501000  0.43496200  0.05557000  1
  O  O0  1  0.79691200  0.85764000  0.43705800  1
  O  O1  1  0.70308800  0.85764000  0.93705800  1
  O  O2  1  0.20308800  0.14236000  0.56294200  1
  O  O3  1  0.29691200  0.14236000  0.06294200  1
  O  O4  1  0.60679300  0.27646500  0.18841800  1
  O  O5  1  0.89320700  0.27646500  0.68841800  1
  O  O6  1  0.39320700  0.72353500  0.81158200  1
  O  O7  1  0.10679300  0.72353500  0.31158200  1
  O  O8  1  0.81649000  0.14286200  0.94870900  1
  O  O9  1  0.68351000  0.14286200  0.44870900  1
  O  O10  1  0.18351000  0.85713800  0.05129100  1
  O  O11  1  0.31649000  0.85713800  0.55129100  1
  O  O12  1  0.03116000  0.09622300  0.06420700  1
  O  O13  1  0.46884000  0.09622300  0.56420700  1
  O  O14  1  0.96884000  0.90377700  0.93579300  1
  O  O15  1  0.53116000  0.90377700  0.43579300  1
  O  O16  1  0.82090700  0.14221500  0.13918100  1
  O  O17  1  0.67909300  0.14221500  0.63918100  1
  O  O18  1  0.17909300  0.85778500  0.86081900  1
  O  O19  1  0.32090700  0.85778500  0.36081900  1
  O  O20  1  0.63224600  0.87757500  0.25134800  1
  O  O21  1  0.86775400  0.87757500  0.75134800  1
  O  O22  1  0.36775400  0.12242500  0.74865200  1
  O  O23  1  0.13224600  0.12242500  0.24865200  1
  O  O24  1  0.37388800  0.71636900  0.23908300  1
  O  O25  1  0.12611200  0.71636900  0.73908300  1
  O  O26  1  0.62611200  0.28363100  0.76091700  1
  O  O27  1  0.87388800  0.28363100  0.26091700  1
loop_
_geom_bond_atom_site_label_1
_geom_bond_atom_site_label_2
_geom_bond_distance
_geom_bond_site_symmetry_2
H0 N0 1.019795 1_555
H1 N1 1.019795 1_655
H2 N2 1.019795 1_555
H3 N3 1.019795 1_455
H4 N0 1.023886 1_555
H5 N1 1.023886 1_555
H6 N2 1.023886 1_555
H7 N3 1.023886 1_555
H8 N4 1.021181 1_555
H9 N5 1.021181 1_555
H10 N6 1.021181 1_555
H11 N7 1.021181 1_555
H12 N4 1.026566 1_555
H13 N5 1.026566 1_555
H14 N6 1.026566 1_555
H15 N7 1.026566 1_555
C0 O20 1.269404 1_555
C0 N4 1.322663 1_555
C0 C4 1.522179 1_555
C1 O21 1.269404 1_555
C1 N5 1.322663 1_555
C1 C5 1.522179 1_555
C2 O22 1.269404 1_555
C2 N6 1.322663 1_555
C2 C6 1.522179 1_555
C3 O23 1.269404 1_555
C3 N7 1.322663 1_555
C3 C7 1.522179 1_555
C4 H16 1.101236 1_555
C4 H20 1.101906 1_555
C4 C8 1.518730 1_555
C5 H17 1.101236 1_555
C5 H21 1.101906 1_555
C5 C9 1.518730 1_655
C6 H18 1.101236 1_555
C6 H22 1.101906 1_555
C7 H19 1.101236 1_555
C7 H23 1.101906 1_555
C8 O24 1.266964 1_555
C8 N0 1.324701 1_555
C9 O25 1.266964 1_555
C9 N1 1.324701 1_555
C10 O26 1.266964 1_555
C10 N2 1.324701 1_555
C10 C6 1.518730 1_555
C11 O27 1.266964 1_555
C11 N3 1.324701 1_555
C11 C7 1.518730 1_655
O0 U0 1.832366 1_565
O1 U1 1.832366 1_565
O2 U2 1.832366 1_545
O3 U3 1.832366 1_545
O4 U0 1.817409 1_555
O5 U1 1.817409 1_555
O6 U2 1.817409 1_555
O7 U3 1.817409 1_555
O8 Se0 1.728245 1_556
O8 U1 2.369894 1_555
O9 Se1 1.728245 1_555
O9 U0 2.369894 1_555
O10 Se2 1.728245 1_554
O10 U3 2.369894 1_555
O11 Se3 1.728245 1_555
O11 U2 2.369894 1_555
O12 Se0 1.739341 1_455
O12 U3 2.309161 1_545
O13 Se1 1.739341 1_555
O13 U2 2.309161 1_545
O14 Se2 1.739341 1_655
O14 U1 2.309161 1_565
O15 Se3 1.739341 1_555
O15 U0 2.309161 1_565
O16 Se0 1.723606 1_555
O16 U0 2.348181 1_555
O17 Se1 1.723606 1_555
O17 U1 2.348181 1_555
O18 Se2 1.723606 1_555
O18 U2 2.348181 1_555
O19 Se3 1.723606 1_555
O19 U3 2.348181 1_555
O20 U0 2.508000 1_565
O21 U1 2.508000 1_565
O22 U2 2.508000 1_545
O23 U3 2.508000 1_545
O24 U3 2.432496 1_555
O25 U2 2.432496 1_555
O26 U1 2.432496 1_555
O27 U0 2.432496 1_555
