# generated using pymatgen
data_Al5(BiS4)3
_symmetry_space_group_name_H-M   'P 1'
_cell_length_a   7.59775500
_cell_length_b   7.59775500
_cell_length_c   36.18337600
_cell_angle_alpha   90.00000000
_cell_angle_beta   90.00000000
_cell_angle_gamma   90.00000000
_symmetry_Int_Tables_number   1
_chemical_formula_structural   Al5(BiS4)3
_chemical_formula_sum   'Al20 Bi12 S48'
_cell_volume   2088.71725860
_cell_formula_units_Z   4
loop_
 _symmetry_equiv_pos_site_id
 _symmetry_equiv_pos_as_xyz
  1  'x, y, z'
loop_
 _atom_site_type_symbol
 _atom_site_label
 _atom_site_symmetry_multiplicity
 _atom_site_fract_x
 _atom_site_fract_y
 _atom_site_fract_z
 _atom_site_occupancy
  Al  Al0  1  0.00000000  0.00000000  0.83331400  1
  Al  Al1  1  0.00000000  0.00000000  0.16668600  1
  Al  Al2  1  0.00000000  0.00000000  0.91769700  1
  Al  Al3  1  0.00000000  0.00000000  0.25000000  1
  Al  Al4  1  0.00000000  0.00000000  0.58230300  1
  Al  Al5  1  0.00000000  0.00000000  0.33331400  1
  Al  Al6  1  0.00000000  0.00000000  0.66668600  1
  Al  Al7  1  0.50000000  0.50000000  0.08309600  1
  Al  Al8  1  0.50000000  0.50000000  0.41690400  1
  Al  Al9  1  0.50000000  0.50000000  0.00000000  1
  Al  Al10  1  0.50000000  0.50000000  0.33267600  1
  Al  Al11  1  0.50000000  0.50000000  0.66732400  1
  Al  Al12  1  0.50000000  0.50000000  0.83267600  1
  Al  Al13  1  0.50000000  0.50000000  0.16732400  1
  Al  Al14  1  0.50000000  0.50000000  0.50000000  1
  Al  Al15  1  0.00000000  0.00000000  0.08230300  1
  Al  Al16  1  0.00000000  0.00000000  0.41769700  1
  Al  Al17  1  0.00000000  0.00000000  0.75000000  1
  Al  Al18  1  0.50000000  0.50000000  0.91690400  1
  Al  Al19  1  0.50000000  0.50000000  0.58309600  1
  Bi  Bi0  1  0.50000000  0.00000000  0.12696700  1
  Bi  Bi1  1  0.50000000  0.00000000  0.46149900  1
  Bi  Bi2  1  0.50000000  0.00000000  0.79277200  1
  Bi  Bi3  1  0.00000000  0.50000000  0.87303300  1
  Bi  Bi4  1  0.00000000  0.50000000  0.20722800  1
  Bi  Bi5  1  0.00000000  0.50000000  0.53850100  1
  Bi  Bi6  1  0.50000000  0.00000000  0.03850100  1
  Bi  Bi7  1  0.50000000  0.00000000  0.37303300  1
  Bi  Bi8  1  0.50000000  0.00000000  0.70722800  1
  Bi  Bi9  1  0.00000000  0.50000000  0.96149900  1
  Bi  Bi10  1  0.00000000  0.50000000  0.29277200  1
  Bi  Bi11  1  0.00000000  0.50000000  0.62696700  1
  S  S0  1  0.84112100  0.83975400  0.87479500  1
  S  S1  1  0.84109700  0.83865500  0.20832200  1
  S  S2  1  0.84629600  0.83331700  0.54280800  1
  S  S3  1  0.65902800  0.33893400  0.04158700  1
  S  S4  1  0.65786400  0.33897000  0.37524200  1
  S  S5  1  0.65021800  0.33003000  0.70671700  1
  S  S6  1  0.33893400  0.34097200  0.95841300  1
  S  S7  1  0.33003000  0.34978200  0.29328300  1
  S  S8  1  0.33897000  0.34213600  0.62475800  1
  S  S9  1  0.83975400  0.15887900  0.12520500  1
  S  S10  1  0.83331700  0.15370400  0.45719200  1
  S  S11  1  0.83865500  0.15890300  0.79167800  1
  S  S12  1  0.34097200  0.66106600  0.04158700  1
  S  S13  1  0.34213600  0.66103000  0.37524200  1
  S  S14  1  0.34978200  0.66997000  0.70671700  1
  S  S15  1  0.15887900  0.16024600  0.87479500  1
  S  S16  1  0.15890300  0.16134500  0.20832200  1
  S  S17  1  0.15370400  0.16668300  0.54280800  1
  S  S18  1  0.83331700  0.84629600  0.04280800  1
  S  S19  1  0.83975400  0.84112100  0.37479500  1
  S  S20  1  0.83865500  0.84109700  0.70832200  1
  S  S21  1  0.66106600  0.65902800  0.95841300  1
  S  S22  1  0.66997000  0.65021800  0.29328300  1
  S  S23  1  0.66103000  0.65786400  0.62475800  1
  S  S24  1  0.65786400  0.66103000  0.12475800  1
  S  S25  1  0.65902800  0.66106600  0.45841300  1
  S  S26  1  0.65021800  0.66997000  0.79328300  1
  S  S27  1  0.16024600  0.84112100  0.12520500  1
  S  S28  1  0.16668300  0.84629600  0.45719200  1
  S  S29  1  0.16134500  0.84109700  0.79167800  1
  S  S30  1  0.66103000  0.34213600  0.87524200  1
  S  S31  1  0.66997000  0.34978200  0.20671700  1
  S  S32  1  0.66106600  0.34097200  0.54158700  1
  S  S33  1  0.33897000  0.65786400  0.87524200  1
  S  S34  1  0.33003000  0.65021800  0.20671700  1
  S  S35  1  0.33893400  0.65902800  0.54158700  1
  S  S36  1  0.16668300  0.15370400  0.04280800  1
  S  S37  1  0.16024600  0.15887900  0.37479500  1
  S  S38  1  0.16134500  0.15890300  0.70832200  1
  S  S39  1  0.15370400  0.83331700  0.95719200  1
  S  S40  1  0.15890300  0.83865500  0.29167800  1
  S  S41  1  0.15887900  0.83975400  0.62520500  1
  S  S42  1  0.84629600  0.16668300  0.95719200  1
  S  S43  1  0.84109700  0.16134500  0.29167800  1
  S  S44  1  0.84112100  0.16024600  0.62520500  1
  S  S45  1  0.34213600  0.33897000  0.12475800  1
  S  S46  1  0.34097200  0.33893400  0.45841300  1
  S  S47  1  0.34978200  0.33003000  0.79328300  1
loop_
_geom_bond_atom_site_label_1
_geom_bond_atom_site_label_2
_geom_bond_distance
_geom_bond_site_symmetry_2
Al0 S15 2.278650 1_555
Al0 S0 2.278650 1_445
Al0 S29 2.286910 1_545
Al0 S11 2.286910 1_455
Al1 S27 2.278650 1_545
Al1 S9 2.278650 1_455
Al1 S16 2.286910 1_555
Al1 S1 2.286910 1_445
Al2 S39 2.238258 1_545
Al2 S42 2.238258 1_455
Al2 S0 2.312841 1_445
Al2 S15 2.312841 1_555
Al3 S43 2.287911 1_455
Al3 S40 2.287911 1_545
Al3 S16 2.287911 1_555
Al3 S1 2.287911 1_445
Al4 S17 2.238258 1_555
Al4 S2 2.238258 1_445
Al4 S41 2.312841 1_545
Al4 S44 2.312841 1_455
Al5 S19 2.278650 1_445
Al5 S37 2.278650 1_555
Al5 S43 2.286910 1_455
Al5 S40 2.286910 1_545
Al6 S44 2.278650 1_455
Al6 S41 2.278650 1_545
Al6 S38 2.286910 1_555
Al6 S20 2.286910 1_445
Al7 S45 2.282089 1_555
Al7 S24 2.282089 1_555
Al7 S12 2.283250 1_555
Al7 S3 2.283250 1_555
Al8 S4 2.282089 1_555
Al8 S13 2.282089 1_555
Al8 S25 2.283250 1_555
Al8 S46 2.283250 1_555
Al9 S12 2.285108 1_555
Al9 S21 2.285108 1_554
Al9 S3 2.285108 1_555
Al9 S6 2.285108 1_554
Al10 S7 2.236512 1_555
Al10 S22 2.236512 1_555
Al10 S4 2.303827 1_555
Al10 S13 2.303827 1_555
Al11 S5 2.236512 1_555
Al11 S14 2.236512 1_555
Al11 S8 2.303827 1_555
Al11 S23 2.303827 1_555
Al12 S47 2.236512 1_555
Al12 S26 2.236512 1_555
Al12 S33 2.303827 1_555
Al12 S30 2.303827 1_555
Al13 S34 2.236512 1_555
Al13 S31 2.236512 1_555
Al13 S24 2.303827 1_555
Al13 S45 2.303827 1_555
Al14 S32 2.285108 1_555
Al14 S35 2.285108 1_555
Al14 S25 2.285108 1_555
Al14 S46 2.285108 1_555
Al15 S36 2.238258 1_555
Al15 S18 2.238258 1_445
Al15 S27 2.312841 1_545
Al15 S9 2.312841 1_455
Al16 S10 2.238258 1_455
Al16 S28 2.238258 1_545
Al16 S37 2.312841 1_555
Al16 S19 2.312841 1_445
Al17 S38 2.287911 1_555
Al17 S29 2.287911 1_545
Al17 S11 2.287911 1_455
Al17 S20 2.287911 1_445
Al18 S33 2.282089 1_555
Al18 S30 2.282089 1_555
Al18 S21 2.283250 1_555
Al18 S6 2.283250 1_555
Al19 S23 2.282089 1_555
Al19 S8 2.282089 1_555
Al19 S32 2.283250 1_555
Al19 S35 2.283250 1_555
Bi0 S24 2.842133 1_545
Bi0 S45 2.842133 1_555
Bi0 S27 2.850381 1_545
Bi0 S9 2.850381 1_555
Bi1 S10 2.793101 1_555
Bi1 S28 2.793101 1_545
Bi1 S46 2.846697 1_555
Bi1 S25 2.846697 1_545
Bi2 S26 2.755076 1_545
Bi2 S47 2.755076 1_555
Bi2 S11 2.842459 1_555
Bi2 S29 2.842459 1_545
Bi3 S30 2.842133 1_455
Bi3 S33 2.842133 1_555
Bi3 S0 2.850381 1_455
Bi3 S15 2.850381 1_555
Bi4 S31 2.755076 1_455
Bi4 S34 2.755076 1_555
Bi4 S1 2.842459 1_455
Bi4 S16 2.842459 1_555
Bi5 S17 2.793101 1_555
Bi5 S2 2.793101 1_455
Bi5 S35 2.846697 1_555
Bi5 S32 2.846697 1_455
Bi6 S36 2.793101 1_555
Bi6 S18 2.793101 1_545
Bi6 S3 2.846697 1_555
Bi6 S12 2.846697 1_545
Bi7 S13 2.842133 1_545
Bi7 S4 2.842133 1_555
Bi7 S19 2.850381 1_545
Bi7 S37 2.850381 1_555
Bi8 S14 2.755076 1_545
Bi8 S5 2.755076 1_555
Bi8 S20 2.842459 1_545
Bi8 S38 2.842459 1_555
Bi9 S39 2.793101 1_555
Bi9 S42 2.793101 1_455
Bi9 S6 2.846697 1_555
Bi9 S21 2.846697 1_455
Bi10 S22 2.755076 1_455
Bi10 S7 2.755076 1_555
Bi10 S40 2.842459 1_555
Bi10 S43 2.842459 1_455
Bi11 S23 2.842133 1_455
Bi11 S8 2.842133 1_555
Bi11 S41 2.850381 1_555
Bi11 S44 2.850381 1_455
