# generated using pymatgen
data_CuAu4
_symmetry_space_group_name_H-M   'P 1'
_cell_length_a   23.14116357
_cell_length_b   23.14116357
_cell_length_c   23.14116258
_cell_angle_alpha   14.55001430
_cell_angle_beta   14.55001430
_cell_angle_gamma   14.55001389
_symmetry_Int_Tables_number   1
_chemical_formula_structural   CuAu4
_chemical_formula_sum   'Cu8 Au32'
_cell_volume   680.98797230
_cell_formula_units_Z   8
loop_
 _symmetry_equiv_pos_site_id
 _symmetry_equiv_pos_as_xyz
  1  'x, y, z'
loop_
 _atom_site_type_symbol
 _atom_site_label
 _atom_site_symmetry_multiplicity
 _atom_site_fract_x
 _atom_site_fract_y
 _atom_site_fract_z
 _atom_site_occupancy
  Cu  Cu0_0  1  0.00000000  0.00000000  0.00000000  1
  Cu  Cu0_1  1  0.00000000  0.00000000  0.50000000  1
  Cu  Cu0_2  1  0.00000000  0.50000000  0.00000000  1
  Cu  Cu0_3  1  1.00000000  0.50000000  0.50000000  1
  Cu  Cu0_4  1  0.50000000  0.00000000  0.00000000  1
  Cu  Cu0_5  1  0.50000000  1.00000000  0.50000000  1
  Cu  Cu0_6  1  0.50000000  0.50000000  0.00000000  1
  Cu  Cu0_7  1  0.50000000  0.50000000  0.50000000  1
  Au  Au0_0  1  0.30311250  0.30311250  0.30311250  1
  Au  Au0_1  1  0.30311250  0.30311250  0.80311250  1
  Au  Au0_2  1  0.30311250  0.80311250  0.30311250  1
  Au  Au0_3  1  0.30311250  0.80311250  0.80311250  1
  Au  Au0_4  1  0.80311250  0.30311250  0.30311250  1
  Au  Au0_5  1  0.80311250  0.30311250  0.80311250  1
  Au  Au0_6  1  0.80311250  0.80311250  0.30311250  1
  Au  Au0_7  1  0.80311250  0.80311250  0.80311250  1
  Au  Au1_0  1  0.10094850  0.10094850  0.10094850  1
  Au  Au1_1  1  0.10094850  0.10094850  0.60094850  1
  Au  Au1_2  1  0.10094850  0.60094850  0.10094850  1
  Au  Au1_3  1  0.10094850  0.60094850  0.60094850  1
  Au  Au1_4  1  0.60094850  0.10094850  0.10094850  1
  Au  Au1_5  1  0.60094850  0.10094850  0.60094850  1
  Au  Au1_6  1  0.60094850  0.60094850  0.10094850  1
  Au  Au1_7  1  0.60094850  0.60094850  0.60094850  1
  Au  Au2_0  1  0.39905150  0.39905150  0.39905150  1
  Au  Au2_1  1  0.39905150  0.39905150  0.89905150  1
  Au  Au2_2  1  0.39905150  0.89905150  0.39905150  1
  Au  Au2_3  1  0.39905150  0.89905150  0.89905150  1
  Au  Au2_4  1  0.89905150  0.39905150  0.39905150  1
  Au  Au2_5  1  0.89905150  0.39905150  0.89905150  1
  Au  Au2_6  1  0.89905150  0.89905150  0.39905150  1
  Au  Au2_7  1  0.89905150  0.89905150  0.89905150  1
  Au  Au3_0  1  0.19688750  0.19688750  0.19688750  1
  Au  Au3_1  1  0.19688750  0.19688750  0.69688750  1
  Au  Au3_2  1  0.19688750  0.69688750  0.19688750  1
  Au  Au3_3  1  0.19688750  0.69688750  0.69688750  1
  Au  Au3_4  1  0.69688750  0.19688750  0.19688750  1
  Au  Au3_5  1  0.69688750  0.19688750  0.69688750  1
  Au  Au3_6  1  0.69688750  0.69688750  0.19688750  1
  Au  Au3_7  1  0.69688750  0.69688750  0.69688750  1
loop_
_geom_bond_atom_site_label_1
_geom_bond_atom_site_label_2
_geom_bond_distance
_geom_bond_site_symmetry_2
Cu0_0 Cu0_6 2.930410 1_545
Cu0_0 Cu0_6 2.930410 1_455
Cu0_0 Cu0_3 2.930410 1_454
Cu0_0 Cu0_5 2.930410 1_445
Cu0_0 Cu0_5 2.930410 1_544
Cu0_0 Cu0_3 2.930410 1_445
Cu0_1 Cu0_7 2.930410 1_545
Cu0_1 Cu0_7 2.930410 1_455
Cu0_1 Cu0_4 2.930410 1_555
Cu0_1 Cu0_2 2.930410 1_555
Cu0_1 Cu0_4 2.930410 1_456
Cu0_1 Cu0_2 2.930410 1_546
Cu0_2 Cu0_4 2.930410 1_555
Cu0_2 Cu0_4 2.930410 1_465
Cu0_2 Cu0_7 2.930410 1_455
Cu0_2 Cu0_7 2.930410 1_554
Cu0_3 Cu0_5 2.930410 1_555
Cu0_3 Cu0_5 2.930410 1_645
Cu0_3 Cu0_6 2.930410 1_556
Cu0_3 Cu0_6 2.930410 1_655
Cu0_4 Cu0_7 2.930410 1_545
Cu0_4 Cu0_7 2.930410 1_554
Cu0_5 Cu0_6 2.930410 1_556
Cu0_5 Cu0_6 2.930410 1_565
Au0_0 Cu0_5 2.677699 1_545
Au0_0 Cu0_3 2.677699 1_455
Au0_0 Cu0_6 2.677700 1_555
Au0_0 Au0_6 2.930410 1_455
Au0_0 Au0_6 2.930410 1_545
Au0_0 Au0_3 2.930410 1_545
Au0_0 Au0_5 2.930410 1_554
Au0_0 Au0_5 2.930410 1_455
Au0_0 Au0_3 2.930410 1_554
Au0_0 Au1_4 2.967423 1_555
Au0_0 Au1_2 2.967423 1_555
Au0_0 Au1_1 2.967424 1_555
Au0_1 Cu0_2 2.677699 1_556
Au0_1 Cu0_4 2.677699 1_556
Au0_1 Cu0_7 2.677700 1_555
Au0_1 Au0_7 2.930410 1_545
Au0_1 Au0_7 2.930410 1_455
Au0_1 Au0_4 2.930410 1_555
Au0_1 Au0_2 2.930410 1_555
Au0_1 Au0_2 2.930410 1_546
Au0_1 Au0_4 2.930410 1_456
Au0_1 Au1_5 2.967423 1_555
Au0_1 Au1_3 2.967423 1_555
Au0_1 Au1_0 2.967424 1_556
Au0_2 Cu0_7 2.677699 1_555
Au0_2 Cu0_1 2.677699 1_565
Au0_2 Cu0_4 2.677700 1_565
Au0_2 Au0_4 2.930410 1_555
Au0_2 Au0_4 2.930410 1_465
Au0_2 Au0_7 2.930410 1_455
Au0_2 Au0_7 2.930410 1_554
Au0_2 Au1_0 2.967423 1_565
Au0_2 Au1_6 2.967423 1_555
Au0_2 Au1_3 2.967424 1_555
Au0_3 Cu0_6 2.677699 1_556
Au0_3 Cu0_0 2.677699 1_566
Au0_3 Cu0_5 2.677700 1_555
Au0_3 Au0_5 2.930410 1_465
Au0_3 Au0_5 2.930410 1_555
Au0_3 Au0_6 2.930410 1_555
Au0_3 Au0_6 2.930410 1_456
Au0_3 Au1_1 2.967423 1_565
Au0_3 Au1_7 2.967423 1_555
Au0_3 Au1_2 2.967424 1_556
Au0_4 Cu0_7 2.677699 1_555
Au0_4 Cu0_1 2.677699 1_655
Au0_4 Cu0_2 2.677700 1_655
Au0_4 Au0_7 2.930410 1_545
Au0_4 Au0_7 2.930410 1_554
Au0_4 Au1_0 2.967423 1_655
Au0_4 Au1_6 2.967423 1_555
Au0_4 Au1_5 2.967424 1_555
Au0_5 Cu0_6 2.677699 1_556
Au0_5 Cu0_0 2.677699 1_656
Au0_5 Cu0_3 2.677700 1_555
Au0_5 Au0_6 2.930410 1_555
Au0_5 Au0_6 2.930410 1_546
Au0_5 Au1_1 2.967423 1_655
Au0_5 Au1_7 2.967423 1_555
Au0_5 Au1_4 2.967424 1_556
Au0_6 Cu0_5 2.677699 1_555
Au0_6 Cu0_3 2.677699 1_555
Au0_6 Cu0_0 2.677700 1_665
Au0_6 Au1_4 2.967423 1_565
Au0_6 Au1_2 2.967423 1_655
Au0_6 Au1_7 2.967424 1_555
Au0_7 Cu0_4 2.677699 1_566
Au0_7 Cu0_2 2.677699 1_656
Au0_7 Cu0_1 2.677700 1_665
Au0_7 Au1_5 2.967423 1_565
Au0_7 Au1_3 2.967423 1_655
Au0_7 Au1_6 2.967424 1_556
Au1_0 Au1_6 2.930410 1_545
Au1_0 Au1_6 2.930410 1_455
Au1_0 Au1_5 2.930410 1_554
Au1_0 Au1_5 2.930410 1_455
Au1_0 Au1_3 2.930410 1_545
Au1_0 Au1_3 2.930410 1_554
Au1_0 Au2_3 2.952377 1_544
Au1_0 Au2_5 2.952377 1_454
Au1_0 Au2_6 2.952378 1_445
Au1_1 Au1_7 2.930410 1_455
Au1_1 Au1_7 2.930410 1_545
Au1_1 Au1_2 2.930410 1_555
Au1_1 Au1_4 2.930410 1_456
Au1_1 Au1_4 2.930410 1_555
Au1_1 Au1_2 2.930410 1_546
Au1_1 Au2_2 2.952377 1_545
Au1_1 Au2_4 2.952377 1_455
Au1_1 Au2_7 2.952378 1_445
Au1_2 Au1_4 2.930410 1_555
Au1_2 Au1_4 2.930410 1_465
Au1_2 Au1_7 2.930410 1_554
Au1_2 Au1_7 2.930410 1_455
Au1_2 Au2_1 2.952377 1_554
Au1_2 Au2_7 2.952377 1_454
Au1_2 Au2_4 2.952378 1_455
Au1_3 Au1_5 2.930410 1_555
Au1_3 Au1_5 2.930410 1_465
Au1_3 Au1_6 2.930410 1_555
Au1_3 Au1_6 2.930410 1_456
Au1_3 Au2_6 2.952377 1_455
Au1_3 Au2_0 2.952377 1_555
Au1_3 Au2_5 2.952378 1_455
Au1_4 Au1_7 2.930410 1_554
Au1_4 Au1_7 2.930410 1_545
Au1_4 Au2_1 2.952377 1_554
Au1_4 Au2_7 2.952377 1_544
Au1_4 Au2_2 2.952378 1_545
Au1_5 Au1_6 2.930410 1_555
Au1_5 Au1_6 2.930410 1_546
Au1_5 Au2_6 2.952377 1_545
Au1_5 Au2_0 2.952377 1_555
Au1_5 Au2_3 2.952378 1_545
Au1_6 Au2_3 2.952377 1_554
Au1_6 Au2_5 2.952377 1_554
Au1_6 Au2_0 2.952378 1_555
Au1_7 Au2_2 2.952377 1_555
Au1_7 Au2_4 2.952377 1_555
Au1_7 Au2_1 2.952378 1_555
Au2_0 Au2_6 2.930410 1_545
Au2_0 Au2_6 2.930410 1_455
Au2_0 Au2_5 2.930410 1_554
Au2_0 Au2_3 2.930410 1_554
Au2_0 Au2_3 2.930410 1_545
Au2_0 Au2_5 2.930410 1_455
Au2_0 Au3_2 2.967423 1_555
Au2_0 Au3_4 2.967423 1_555
Au2_0 Au3_1 2.967424 1_555
Au2_1 Au2_7 2.930410 1_545
Au2_1 Au2_7 2.930410 1_455
Au2_1 Au2_2 2.930410 1_546
Au2_1 Au2_4 2.930410 1_555
Au2_1 Au2_4 2.930410 1_456
Au2_1 Au2_2 2.930410 1_555
Au2_1 Au3_5 2.967423 1_555
Au2_1 Au3_3 2.967423 1_555
Au2_1 Au3_0 2.967424 1_556
Au2_2 Au2_4 2.930410 1_465
Au2_2 Au2_4 2.930410 1_555
Au2_2 Au2_7 2.930410 1_554
Au2_2 Au2_7 2.930410 1_455
Au2_2 Au3_0 2.967423 1_565
Au2_2 Au3_6 2.967423 1_555
Au2_2 Au3_3 2.967424 1_555
Au2_3 Au2_5 2.930410 1_465
Au2_3 Au2_5 2.930410 1_555
Au2_3 Au2_6 2.930410 1_456
Au2_3 Au2_6 2.930410 1_555
Au2_3 Au3_1 2.967423 1_565
Au2_3 Au3_7 2.967423 1_555
Au2_3 Au3_2 2.967424 1_556
Au2_4 Au2_7 2.930410 1_554
Au2_4 Au2_7 2.930410 1_545
Au2_4 Au3_6 2.967423 1_555
Au2_4 Au3_0 2.967423 1_655
Au2_4 Au3_5 2.967424 1_555
Au2_5 Au2_6 2.930410 1_546
Au2_5 Au2_6 2.930410 1_555
Au2_5 Au3_1 2.967423 1_655
Au2_5 Au3_7 2.967423 1_555
Au2_5 Au3_4 2.967424 1_556
Au2_6 Au3_4 2.967423 1_565
Au2_6 Au3_2 2.967423 1_655
Au2_6 Au3_7 2.967424 1_555
Au2_7 Au3_5 2.967423 1_565
Au2_7 Au3_3 2.967423 1_655
Au2_7 Au3_6 2.967424 1_556
Au3_0 Cu0_2 2.677699 1_555
Au3_0 Cu0_4 2.677699 1_555
Au3_0 Cu0_1 2.677700 1_555
Au3_0 Au3_6 2.930410 1_545
Au3_0 Au3_6 2.930410 1_455
Au3_0 Au3_5 2.930410 1_455
Au3_0 Au3_3 2.930410 1_545
Au3_0 Au3_3 2.930410 1_554
Au3_0 Au3_5 2.930410 1_554
Au3_1 Cu0_3 2.677699 1_455
Au3_1 Cu0_5 2.677699 1_545
Au3_1 Cu0_0 2.677700 1_556
Au3_1 Au3_7 2.930410 1_545
Au3_1 Au3_7 2.930410 1_455
Au3_1 Au3_4 2.930410 1_555
Au3_1 Au3_2 2.930410 1_546
Au3_1 Au3_2 2.930410 1_555
Au3_1 Au3_4 2.930410 1_456
Au3_2 Cu0_0 2.677699 1_565
Au3_2 Cu0_6 2.677699 1_555
Au3_2 Cu0_3 2.677700 1_455
Au3_2 Au3_4 2.930410 1_555
Au3_2 Au3_4 2.930410 1_465
Au3_2 Au3_7 2.930410 1_554
Au3_2 Au3_7 2.930410 1_455
Au3_3 Cu0_1 2.677699 1_565
Au3_3 Cu0_7 2.677699 1_555
Au3_3 Cu0_2 2.677700 1_556
Au3_3 Au3_5 2.930410 1_465
Au3_3 Au3_5 2.930410 1_555
Au3_3 Au3_6 2.930410 1_555
Au3_3 Au3_6 2.930410 1_456
Au3_4 Cu0_0 2.677699 1_655
Au3_4 Cu0_6 2.677699 1_555
Au3_4 Cu0_5 2.677700 1_545
Au3_4 Au3_7 2.930410 1_545
Au3_4 Au3_7 2.930410 1_554
Au3_5 Cu0_1 2.677699 1_655
Au3_5 Cu0_7 2.677699 1_555
Au3_5 Cu0_4 2.677700 1_556
Au3_5 Au3_6 2.930410 1_555
Au3_5 Au3_6 2.930410 1_546
Au3_6 Cu0_2 2.677699 1_655
Au3_6 Cu0_4 2.677699 1_565
Au3_6 Cu0_7 2.677700 1_555
Au3_7 Cu0_5 2.677699 1_555
Au3_7 Cu0_3 2.677699 1_555
Au3_7 Cu0_6 2.677700 1_556
