# generated using pymatgen
data_CeZn2Ni3
_symmetry_space_group_name_H-M   'P 1'
_cell_length_a   5.14884307
_cell_length_b   5.14883976
_cell_length_c   3.86938259
_cell_angle_alpha   90.00000000
_cell_angle_beta   90.00000000
_cell_angle_gamma   120.00000304
_symmetry_Int_Tables_number   1
_chemical_formula_structural   CeZn2Ni3
_chemical_formula_sum   'Ce1 Zn2 Ni3'
_cell_volume   88.83647617
_cell_formula_units_Z   1
loop_
 _symmetry_equiv_pos_site_id
 _symmetry_equiv_pos_as_xyz
  1  'x, y, z'
loop_
 _atom_site_type_symbol
 _atom_site_label
 _atom_site_symmetry_multiplicity
 _atom_site_fract_x
 _atom_site_fract_y
 _atom_site_fract_z
 _atom_site_occupancy
  Ce  Ce0  1  -0.00000000  -0.00000000  -0.00000000  1
  Zn  Zn0  1  0.66666500  0.33333200  0.00000000  1
  Zn  Zn1  1  0.33333500  0.66666800  -0.00000000  1
  Ni  Ni0  1  0.50000000  0.50000000  0.50000000  1
  Ni  Ni1  1  0.50000000  -0.00000000  0.50000000  1
  Ni  Ni2  1  -0.00000000  0.50000000  0.50000000  1
loop_
_geom_bond_atom_site_label_1
_geom_bond_atom_site_label_2
_geom_bond_distance
_geom_bond_site_symmetry_2
Ce0 Zn0 2.972678 1_555
Ce0 Zn1 2.972678 1_445
Ce0 Zn1 2.972687 1_545
Ce0 Zn0 2.972687 1_455
Ce0 Zn1 2.972690 1_555
Ce0 Zn0 2.972690 1_445
Ce0 Ni2 3.220352 1_544
Ce0 Ni2 3.220352 1_555
Ce0 Ni2 3.220352 1_545
Ce0 Ni2 3.220352 1_554
Ce0 Ni0 3.220353 1_555
Ce0 Ni0 3.220353 1_444
Ce0 Ni0 3.220353 1_554
Ce0 Ni0 3.220353 1_445
Ce0 Ni1 3.220353 1_455
Ce0 Ni1 3.220353 1_555
Ce0 Ni1 3.220353 1_454
Ce0 Ni1 3.220353 1_554
Ni0 Zn0 2.439721 1_555
Ni0 Zn0 2.439721 1_556
Ni0 Zn1 2.439721 1_555
Ni0 Zn1 2.439721 1_556
Ni1 Zn1 2.439718 1_546
Ni1 Zn0 2.439718 1_555
Ni1 Zn0 2.439718 1_556
Ni1 Zn1 2.439718 1_545
Ni2 Zn0 2.439727 1_455
Ni2 Zn1 2.439727 1_556
Ni2 Zn1 2.439727 1_555
Ni2 Zn0 2.439727 1_456
