# generated using pymatgen
data_ZrZn2Ge
_symmetry_space_group_name_H-M   'P 1'
_cell_length_a   9.02814510
_cell_length_b   9.02814510
_cell_length_c   9.02814510
_cell_angle_alpha   154.38341692
_cell_angle_beta   154.38341692
_cell_angle_gamma   36.54255390
_symmetry_Int_Tables_number   1
_chemical_formula_structural   ZrZn2Ge
_chemical_formula_sum   'Zr2 Zn4 Ge2'
_cell_volume   137.36595196
_cell_formula_units_Z   2
loop_
 _symmetry_equiv_pos_site_id
 _symmetry_equiv_pos_as_xyz
  1  'x, y, z'
loop_
 _atom_site_type_symbol
 _atom_site_label
 _atom_site_symmetry_multiplicity
 _atom_site_fract_x
 _atom_site_fract_y
 _atom_site_fract_z
 _atom_site_occupancy
  Zr  Zr0  1  0.12610400  0.12610400  0.00000000  1
  Zr  Zr1  1  0.87389600  0.87389600  0.00000000  1
  Zn  Zn0  1  0.39473500  0.39473500  0.00000000  1
  Zn  Zn1  1  0.60526500  0.60526500  0.00000000  1
  Zn  Zn2  1  0.50000000  0.00000000  0.50000000  1
  Zn  Zn3  1  0.00000000  0.50000000  0.50000000  1
  Ge  Ge0  1  0.75000000  0.25000000  0.50000000  1
  Ge  Ge1  1  0.25000000  0.75000000  0.50000000  1
loop_
_geom_bond_atom_site_label_1
_geom_bond_atom_site_label_2
_geom_bond_distance
_geom_bond_site_symmetry_2
Zn0 Zn3 2.695057 1_655
Zn0 Zn2 2.695057 1_565
Zn0 Zn2 2.695057 1_554
Zn0 Zn3 2.695057 1_554
Zn0 Zr1 2.852935 1_455
Zn0 Zr1 2.852935 1_545
Zn0 Zr1 2.852935 1_556
Zn0 Zr1 2.852935 1_444
Zn1 Zn3 2.695057 1_554
Zn1 Zn2 2.695057 1_565
Zn1 Zn2 2.695057 1_554
Zn1 Zn3 2.695057 1_655
Zn1 Zr0 2.852935 1_565
Zn1 Zr0 2.852935 1_655
Zn1 Zr0 2.852935 1_666
Zn1 Zr0 2.852935 1_554
Zn2 Zn3 2.830472 1_656
Zn2 Zn3 2.830472 1_645
Zn2 Zn3 2.830472 1_555
Zn2 Zn3 2.830472 1_544
Zn2 Zr1 2.946315 1_546
Zn2 Zr0 2.946315 1_555
Zn2 Zr1 2.946315 1_445
Zn2 Zr0 2.946315 1_656
Zn3 Zr0 2.946315 1_566
Zn3 Zr1 2.946315 1_445
Zn3 Zr0 2.946315 1_555
Zn3 Zr1 2.946315 1_456
Ge0 Zr1 2.918646 1_545
Ge0 Zr0 2.918646 1_555
Ge0 Zr1 2.918646 1_556
Ge0 Zr0 2.918646 1_656
Ge1 Zr0 2.918646 1_566
Ge1 Zr0 2.918646 1_555
Ge1 Zr1 2.918646 1_455
Ge1 Zr1 2.918646 1_556
