# generated using pymatgen
data_Na10YbSn12
_symmetry_space_group_name_H-M   'P 1'
_cell_length_a   9.77902896
_cell_length_b   9.77902896
_cell_length_c   9.77902896
_cell_angle_alpha   109.47122063
_cell_angle_beta   109.47122063
_cell_angle_gamma   109.47122063
_symmetry_Int_Tables_number   1
_chemical_formula_structural   Na10YbSn12
_chemical_formula_sum   'Na10 Yb1 Sn12'
_cell_volume   719.88861534
_cell_formula_units_Z   1
loop_
 _symmetry_equiv_pos_site_id
 _symmetry_equiv_pos_as_xyz
  1  'x, y, z'
loop_
 _atom_site_type_symbol
 _atom_site_label
 _atom_site_symmetry_multiplicity
 _atom_site_fract_x
 _atom_site_fract_y
 _atom_site_fract_z
 _atom_site_occupancy
  Na  Na0  1  0.50000000  0.25000000  0.75000000  1
  Na  Na1  1  0.75000000  0.25000000  0.50000000  1
  Na  Na2  1  0.25000000  0.75000000  0.50000000  1
  Na  Na3  1  0.50000000  0.75000000  0.25000000  1
  Na  Na4  1  0.61521900  0.00000000  0.00000000  1
  Na  Na5  1  0.38478100  0.38478100  0.38478100  1
  Na  Na6  1  0.00000000  0.61521900  0.00000000  1
  Na  Na7  1  0.00000000  0.00000000  0.61521900  1
  Na  Na8  1  0.75000000  0.50000000  0.25000000  1
  Na  Na9  1  0.25000000  0.50000000  0.75000000  1
  Yb  Yb0  1  0.00000000  0.00000000  0.00000000  1
  Sn  Sn0  1  0.00000000  0.18798900  0.37041300  1
  Sn  Sn1  1  0.81201100  0.18242400  0.81201100  1
  Sn  Sn2  1  0.62958700  0.62958700  0.81757600  1
  Sn  Sn3  1  0.37041300  0.18798900  0.00000000  1
  Sn  Sn4  1  0.18798900  0.37041300  0.00000000  1
  Sn  Sn5  1  0.37041300  0.00000000  0.18798900  1
  Sn  Sn6  1  0.62958700  0.81757600  0.62958700  1
  Sn  Sn7  1  0.81757600  0.62958700  0.62958700  1
  Sn  Sn8  1  0.00000000  0.37041300  0.18798900  1
  Sn  Sn9  1  0.81201100  0.81201100  0.18242400  1
  Sn  Sn10  1  0.18242400  0.81201100  0.81201100  1
  Sn  Sn11  1  0.18798900  0.00000000  0.37041300  1
loop_
_geom_bond_atom_site_label_1
_geom_bond_atom_site_label_2
_geom_bond_distance
_geom_bond_site_symmetry_2
Na0 Sn3 3.239117 1_556
Na0 Sn1 3.239117 1_555
Na0 Sn11 3.239117 1_555
Na0 Sn2 3.239117 1_555
Na1 Sn1 3.239117 1_555
Na1 Sn7 3.239117 1_555
Na1 Sn5 3.239117 1_555
Na1 Sn0 3.239117 1_655
Na2 Sn10 3.239117 1_555
Na2 Sn6 3.239117 1_555
Na2 Sn11 3.239117 1_565
Na2 Sn8 3.239117 1_555
Na3 Sn6 3.239117 1_555
Na3 Sn5 3.239117 1_565
Na3 Sn4 3.239117 1_555
Na3 Sn9 3.239117 1_555
Na4 Sn10 3.470528 1_544
Na4 Sn3 3.470528 1_555
Na4 Sn5 3.470528 1_555
Na4 Sn0 3.538577 1_655
Na4 Sn1 3.538577 1_554
Na4 Sn6 3.538577 1_544
Na4 Sn2 3.538577 1_544
Na4 Sn9 3.538577 1_545
Na4 Sn8 3.538577 1_655
Na4 Yb0 3.762785 1_655
Na5 Sn2 3.470528 1_555
Na5 Sn6 3.470528 1_555
Na5 Sn7 3.470528 1_555
Na5 Sn0 3.538577 1_555
Na5 Sn3 3.538577 1_555
Na5 Sn8 3.538577 1_555
Na5 Sn5 3.538577 1_555
Na5 Sn11 3.538577 1_555
Na5 Sn4 3.538577 1_555
Na5 Yb0 3.762785 1_555
Na6 Sn1 3.470528 1_454
Na6 Sn4 3.470528 1_555
Na6 Sn8 3.470528 1_555
Na6 Sn9 3.538577 1_455
Na6 Sn2 3.538577 1_454
Na6 Sn11 3.538577 1_565
Na6 Sn10 3.538577 1_554
Na6 Sn7 3.538577 1_454
Na6 Sn5 3.538577 1_565
Na6 Yb0 3.762785 1_565
Na7 Sn9 3.470528 1_445
Na7 Sn0 3.470528 1_555
Na7 Sn11 3.470528 1_555
Na7 Sn3 3.538577 1_556
Na7 Sn1 3.538577 1_455
Na7 Sn6 3.538577 1_445
Na7 Sn4 3.538577 1_556
Na7 Sn10 3.538577 1_545
Na7 Sn7 3.538577 1_445
Na7 Yb0 3.762785 1_556
Na8 Sn3 3.239117 1_555
Na8 Sn7 3.239117 1_555
Na8 Sn8 3.239117 1_655
Na8 Sn9 3.239117 1_555
Na9 Sn4 3.239117 1_556
Na9 Sn10 3.239117 1_555
Na9 Sn0 3.239117 1_555
Na9 Sn2 3.239117 1_555
Sn0 Sn8 2.913145 1_555
Sn0 Sn9 3.002013 1_445
Sn0 Sn11 3.002013 1_555
Sn0 Yb0 3.472909 1_555
Sn1 Sn6 2.913145 1_545
Sn1 Sn8 3.002013 1_656
Sn1 Sn4 3.002013 1_656
Sn1 Yb0 3.472909 1_656
Sn2 Sn9 2.913145 1_556
Sn2 Sn7 3.002013 1_555
Sn2 Sn6 3.002013 1_555
Sn2 Yb0 3.472909 1_666
Sn3 Sn4 2.913145 1_555
Sn3 Sn5 3.002013 1_555
Sn3 Yb0 3.472909 1_555
Sn4 Sn8 3.002013 1_555
Sn4 Yb0 3.472909 1_555
Sn5 Yb0 3.472909 1_555
Sn6 Sn7 3.002013 1_555
Sn6 Yb0 3.472909 1_666
Sn7 Yb0 3.472909 1_666
Sn8 Yb0 3.472909 1_555
Sn9 Yb0 3.472909 1_665
Sn10 Sn7 2.913145 1_455
Sn10 Sn3 3.002013 1_566
Sn10 Sn5 3.002013 1_566
Sn10 Yb0 3.472909 1_566
Sn11 Sn5 2.913145 1_555
Sn11 Sn9 3.002013 1_445
Sn11 Yb0 3.472909 1_555
