# generated using pymatgen
data_LaCO4
_symmetry_space_group_name_H-M   'P 1'
_cell_length_a   12.79148975
_cell_length_b   12.79148975
_cell_length_c   10.07917400
_cell_angle_alpha   90.00000000
_cell_angle_beta   90.00000000
_cell_angle_gamma   119.99999869
_symmetry_Int_Tables_number   1
_chemical_formula_structural   LaCO4
_chemical_formula_sum   'La18 C18 O72'
_cell_volume   1428.22895741
_cell_formula_units_Z   18
loop_
 _symmetry_equiv_pos_site_id
 _symmetry_equiv_pos_as_xyz
  1  'x, y, z'
loop_
 _atom_site_type_symbol
 _atom_site_label
 _atom_site_symmetry_multiplicity
 _atom_site_fract_x
 _atom_site_fract_y
 _atom_site_fract_z
 _atom_site_occupancy
  La  La0  1  0.89566100  0.45111900  0.25984400  1
  La  La1  1  0.55545900  0.10433900  0.25984400  1
  La  La2  1  0.54888100  0.44454100  0.25984400  1
  La  La3  1  0.89566100  0.45111900  0.74015600  1
  La  La4  1  0.55545900  0.10433900  0.74015600  1
  La  La5  1  0.54888100  0.44454100  0.74015600  1
  La  La6  1  0.22797300  0.11733600  0.24364300  1
  La  La7  1  0.88936300  0.77202700  0.24364300  1
  La  La8  1  0.88266400  0.11063700  0.24364300  1
  La  La9  1  0.22797300  0.11733600  0.75635700  1
  La  La10  1  0.88936300  0.77202700  0.75635700  1
  La  La11  1  0.88266400  0.11063700  0.75635700  1
  La  La12  1  0.21319300  0.43756500  0.24433300  1
  La  La13  1  0.22437100  0.78680700  0.24433300  1
  La  La14  1  0.56243500  0.77562900  0.24433300  1
  La  La15  1  0.21319300  0.43756500  0.75566700  1
  La  La16  1  0.22437100  0.78680700  0.75566700  1
  La  La17  1  0.56243500  0.77562900  0.75566700  1
  C  C0  1  0.17409400  0.97689200  0.50000000  1
  C  C1  1  0.80279800  0.82590600  0.50000000  1
  C  C2  1  0.02310800  0.19720200  0.50000000  1
  C  C3  1  0.77899700  0.53466000  0.50000000  1
  C  C4  1  0.75566300  0.22100300  0.50000000  1
  C  C5  1  0.46534000  0.24433700  0.50000000  1
  C  C6  1  0.13399600  0.49847600  0.50000000  1
  C  C7  1  0.36448100  0.86600400  0.50000000  1
  C  C8  1  0.50152400  0.63551900  0.50000000  1
  C  C9  1  0.08688300  0.20220600  0.00000000  1
  C  C10  1  0.11532300  0.91311700  0.00000000  1
  C  C11  1  0.79779400  0.88467700  0.00000000  1
  C  C12  1  0.44246600  0.57256600  0.00000000  1
  C  C13  1  0.13010000  0.55753400  0.00000000  1
  C  C14  1  0.42743400  0.86990000  0.00000000  1
  C  C15  1  0.84574200  0.53621400  0.00000000  1
  C  C16  1  0.69047200  0.15425800  0.00000000  1
  C  C17  1  0.46378600  0.30952800  0.00000000  1
  O  O0  1  0.17914400  0.08130700  0.50000000  1
  O  O1  1  0.90216300  0.82085600  0.50000000  1
  O  O2  1  0.91869300  0.09783700  0.50000000  1
  O  O3  1  0.17308800  0.92787800  0.38722700  1
  O  O4  1  0.75479000  0.82691200  0.38722700  1
  O  O5  1  0.07212200  0.24521000  0.38722700  1
  O  O6  1  0.17308800  0.92787800  0.61277300  1
  O  O7  1  0.75479000  0.82691200  0.61277300  1
  O  O8  1  0.07212200  0.24521000  0.61277300  1
  O  O9  1  0.83444300  0.47273200  0.50000000  1
  O  O10  1  0.63828900  0.16555700  0.50000000  1
  O  O11  1  0.52726800  0.36171100  0.50000000  1
  O  O12  1  0.81249200  0.24795900  0.38751700  1
  O  O13  1  0.43546600  0.18750800  0.38751700  1
  O  O14  1  0.75204100  0.56453400  0.38751700  1
  O  O15  1  0.81249200  0.24795900  0.61248300  1
  O  O16  1  0.43546600  0.18750800  0.61248300  1
  O  O17  1  0.75204100  0.56453400  0.61248300  1
  O  O18  1  0.23343200  0.49441800  0.50000000  1
  O  O19  1  0.26098600  0.76656800  0.50000000  1
  O  O20  1  0.50558200  0.73901400  0.50000000  1
  O  O21  1  0.08480600  0.49849800  0.38777800  1
  O  O22  1  0.41369300  0.91519400  0.38777800  1
  O  O23  1  0.50150200  0.58630700  0.38777800  1
  O  O24  1  0.08480600  0.49849800  0.61222200  1
  O  O25  1  0.41369300  0.91519400  0.61222200  1
  O  O26  1  0.50150200  0.58630700  0.61222200  1
  O  O27  1  0.16693800  0.02976200  0.00000000  1
  O  O28  1  0.86282500  0.83306200  0.00000000  1
  O  O29  1  0.97023800  0.13717500  0.00000000  1
  O  O30  1  0.14483800  0.23470300  0.11192500  1
  O  O31  1  0.08986500  0.85516200  0.11192500  1
  O  O32  1  0.76529700  0.91013500  0.11192500  1
  O  O33  1  0.14483800  0.23470300  0.88807500  1
  O  O34  1  0.08986500  0.85516200  0.88807500  1
  O  O35  1  0.76529700  0.91013500  0.88807500  1
  O  O36  1  0.18547100  0.49553300  0.00000000  1
  O  O37  1  0.31006200  0.81452900  0.00000000  1
  O  O38  1  0.50446700  0.68993800  0.00000000  1
  O  O39  1  0.41221000  0.51540400  0.11240600  1
  O  O40  1  0.10319400  0.58779000  0.11240600  1
  O  O41  1  0.48459600  0.89680600  0.11240600  1
  O  O42  1  0.41221000  0.51540400  0.88759400  1
  O  O43  1  0.10319400  0.58779000  0.88759400  1
  O  O44  1  0.48459600  0.89680600  0.88759400  1
  O  O45  1  0.84894800  0.43622200  0.00000000  1
  O  O46  1  0.58727400  0.15105200  0.00000000  1
  O  O47  1  0.56377800  0.41272600  0.00000000  1
  O  O48  1  0.84531400  0.58534200  0.11207900  1
  O  O49  1  0.74002800  0.15468600  0.11207900  1
  O  O50  1  0.41465800  0.25997200  0.11207900  1
  O  O51  1  0.84531400  0.58534200  0.88792100  1
  O  O52  1  0.74002800  0.15468600  0.88792100  1
  O  O53  1  0.41465800  0.25997200  0.88792100  1
  O  O54  1  0.66666700  0.33333300  0.23761600  1
  O  O55  1  0.66666700  0.33333300  0.76238400  1
  O  O56  1  0.00000000  0.00000000  0.25548800  1
  O  O57  1  0.00000000  0.00000000  0.74451200  1
  O  O58  1  0.33333300  0.66666700  0.25963200  1
  O  O59  1  0.33333300  0.66666700  0.74036800  1
  O  O60  1  0.34052600  0.01011000  0.19362000  1
  O  O61  1  0.66958400  0.65947400  0.19362000  1
  O  O62  1  0.98989000  0.33041600  0.19362000  1
  O  O63  1  0.34052600  0.01011000  0.80638000  1
  O  O64  1  0.66958400  0.65947400  0.80638000  1
  O  O65  1  0.98989000  0.33041600  0.80638000  1
  O  O66  1  0.32649700  0.33500700  0.30450800  1
  O  O67  1  0.00851100  0.67350300  0.30450800  1
  O  O68  1  0.66499300  0.99148900  0.30450800  1
  O  O69  1  0.32649700  0.33500700  0.69549200  1
  O  O70  1  0.00851100  0.67350300  0.69549200  1
  O  O71  1  0.66499300  0.99148900  0.69549200  1
loop_
_geom_bond_atom_site_label_1
_geom_bond_atom_site_label_2
_geom_bond_distance
_geom_bond_site_symmetry_2
La0 O62 2.478547 1_555
La0 O67 2.504400 1_655
La0 O21 2.533268 1_655
La0 O54 2.546961 1_555
La0 O48 2.585810 1_555
La0 O9 2.601019 1_555
La0 O12 2.603156 1_555
La0 O45 2.671838 1_555
La0 O40 2.769641 1_655
La1 O60 2.478558 1_555
La1 O68 2.504400 1_545
La1 O22 2.533268 1_545
La1 O54 2.546961 1_555
La1 O49 2.585800 1_555
La1 O10 2.601015 1_555
La1 O13 2.603176 1_555
La1 O46 2.671838 1_555
La1 O41 2.769639 1_545
La2 O61 2.478557 1_555
La2 O66 2.504400 1_555
La2 O23 2.533268 1_555
La2 O54 2.546961 1_555
La2 O50 2.585803 1_555
La2 O11 2.601014 1_555
La2 O14 2.603158 1_555
La2 O47 2.671836 1_555
La2 O39 2.769649 1_555
La3 O65 2.478547 1_555
La3 O70 2.504400 1_655
La3 O24 2.533268 1_655
La3 O55 2.546961 1_555
La3 O51 2.585810 1_555
La3 O9 2.601019 1_555
La3 O15 2.603156 1_555
La3 O45 2.671838 1_556
La3 O43 2.769641 1_655
La4 O63 2.478558 1_555
La4 O71 2.504400 1_545
La4 O25 2.533268 1_545
La4 O55 2.546961 1_555
La4 O52 2.585800 1_555
La4 O10 2.601015 1_555
La4 O16 2.603176 1_555
La4 O46 2.671838 1_556
La4 O44 2.769639 1_545
La5 O64 2.478557 1_555
La5 O69 2.504400 1_555
La5 O26 2.533268 1_555
La5 O55 2.546961 1_555
La5 O53 2.585803 1_555
La5 O11 2.601014 1_555
La5 O17 2.603158 1_555
La5 O47 2.671836 1_556
La5 O42 2.769649 1_555
La6 O60 2.486549 1_555
La6 O66 2.491614 1_555
La6 O56 2.528613 1_555
La6 O50 2.536304 1_555
La6 O30 2.596886 1_555
La6 O3 2.599808 1_545
La6 O0 2.644056 1_555
La6 O27 2.649599 1_555
La6 O13 2.751488 1_555
La7 O61 2.486549 1_555
La7 O67 2.491625 1_655
La7 O56 2.528613 1_665
La7 O48 2.536304 1_555
La7 O31 2.596886 1_655
La7 O4 2.599808 1_555
La7 O1 2.644056 1_555
La7 O28 2.649596 1_555
La7 O14 2.751490 1_555
La8 O62 2.486549 1_555
La8 O68 2.491614 1_545
La8 O56 2.528612 1_655
La8 O49 2.536304 1_555
La8 O32 2.596886 1_545
La8 O5 2.599808 1_655
La8 O2 2.644056 1_555
La8 O29 2.649601 1_555
La8 O12 2.751498 1_555
La9 O63 2.486549 1_555
La9 O69 2.491614 1_555
La9 O57 2.528613 1_555
La9 O53 2.536304 1_555
La9 O33 2.596886 1_555
La9 O6 2.599808 1_545
La9 O0 2.644056 1_555
La9 O27 2.649599 1_556
La9 O16 2.751488 1_555
La10 O64 2.486549 1_555
La10 O70 2.491625 1_655
La10 O57 2.528613 1_665
La10 O51 2.536304 1_555
La10 O34 2.596886 1_655
La10 O7 2.599808 1_555
La10 O1 2.644056 1_555
La10 O28 2.649596 1_556
La10 O17 2.751490 1_555
La11 O65 2.486549 1_555
La11 O71 2.491614 1_545
La11 O57 2.528612 1_655
La11 O52 2.536304 1_555
La11 O35 2.596886 1_545
La11 O8 2.599808 1_655
La11 O2 2.644056 1_555
La11 O29 2.649601 1_556
La11 O15 2.751498 1_555
La12 O66 2.467942 1_555
La12 O62 2.526610 1_455
La12 O58 2.543621 1_555
La12 O21 2.583582 1_555
La12 O39 2.589499 1_555
La12 O5 2.635274 1_555
La12 O36 2.646369 1_555
La12 O30 2.647683 1_555
La12 O18 2.654825 1_555
La13 O67 2.467921 1_555
La13 O60 2.526610 1_565
La13 O58 2.543621 1_555
La13 O22 2.583598 1_555
La13 O40 2.589498 1_555
La13 O3 2.635267 1_555
La13 O37 2.646374 1_555
La13 O31 2.647672 1_555
La13 O19 2.654828 1_555
La14 O68 2.467920 1_555
La14 O61 2.526621 1_555
La14 O58 2.543621 1_555
La14 O23 2.583603 1_555
La14 O41 2.589489 1_555
La14 O4 2.635277 1_555
La14 O38 2.646373 1_555
La14 O32 2.647681 1_555
La14 O20 2.654826 1_555
La15 O69 2.467942 1_555
La15 O65 2.526610 1_455
La15 O59 2.543621 1_555
La15 O24 2.583582 1_555
La15 O42 2.589499 1_555
La15 O8 2.635274 1_555
La15 O36 2.646369 1_556
La15 O33 2.647683 1_555
La15 O18 2.654825 1_555
La16 O70 2.467921 1_555
La16 O63 2.526610 1_565
La16 O59 2.543621 1_555
La16 O25 2.583598 1_555
La16 O43 2.589498 1_555
La16 O6 2.635267 1_555
La16 O37 2.646374 1_556
La16 O34 2.647672 1_555
La16 O19 2.654828 1_555
La17 O71 2.467920 1_555
La17 O64 2.526621 1_555
La17 O59 2.543621 1_555
La17 O26 2.583603 1_555
La17 O44 2.589489 1_555
La17 O7 2.635277 1_555
La17 O38 2.646373 1_556
La17 O35 2.647681 1_555
La17 O20 2.654826 1_555
C0 O3 1.295057 1_555
C0 O6 1.295057 1_555
C0 O0 1.304525 1_565
C1 O4 1.295057 1_555
C1 O7 1.295057 1_555
C1 O1 1.304525 1_555
C2 O5 1.295057 1_555
C2 O8 1.295057 1_555
C2 O2 1.304525 1_455
C3 O14 1.296934 1_555
C3 O17 1.296934 1_555
C3 O9 1.300901 1_555
C4 O12 1.296928 1_555
C4 O15 1.296928 1_555
C4 O10 1.300901 1_555
C5 O13 1.296928 1_555
C5 O16 1.296928 1_555
C5 O11 1.300901 1_555
C6 O21 1.294405 1_555
C6 O24 1.294405 1_555
C6 O18 1.298667 1_555
C7 O22 1.294405 1_555
C7 O25 1.294405 1_555
C7 O19 1.298674 1_555
C8 O23 1.294405 1_555
C8 O26 1.294405 1_555
C8 O20 1.298680 1_555
C9 O29 1.295011 1_455
C9 O30 1.298784 1_555
C9 O33 1.298784 1_554
C10 O27 1.295010 1_565
C10 O31 1.298784 1_555
C10 O34 1.298784 1_554
C11 O28 1.295022 1_555
C11 O32 1.298784 1_555
C11 O35 1.298784 1_554
C12 O39 1.298088 1_555
C12 O42 1.298088 1_554
C12 O38 1.300910 1_555
C13 O40 1.298088 1_555
C13 O43 1.298088 1_554
C13 O36 1.300910 1_555
C14 O41 1.298088 1_555
C14 O44 1.298088 1_554
C14 O37 1.300910 1_555
C15 O48 1.294033 1_555
C15 O51 1.294033 1_554
C15 O45 1.300037 1_555
C16 O49 1.294033 1_555
C16 O52 1.294033 1_554
C16 O46 1.300037 1_555
C17 O50 1.294033 1_555
C17 O53 1.294033 1_554
C17 O47 1.300037 1_555
