# generated using pymatgen
data_CsB5(H2O3)4
_symmetry_space_group_name_H-M   'P 1'
_cell_length_a   7.26113598
_cell_length_b   7.26113598
_cell_length_c   11.94602918
_cell_angle_alpha   91.78228200
_cell_angle_beta   91.78228200
_cell_angle_gamma   106.38020720
_symmetry_Int_Tables_number   1
_chemical_formula_structural   CsB5(H2O3)4
_chemical_formula_sum   'Cs2 B10 H16 O24'
_cell_volume   603.46448357
_cell_formula_units_Z   2
loop_
 _symmetry_equiv_pos_site_id
 _symmetry_equiv_pos_as_xyz
  1  'x, y, z'
loop_
 _atom_site_type_symbol
 _atom_site_label
 _atom_site_symmetry_multiplicity
 _atom_site_fract_x
 _atom_site_fract_y
 _atom_site_fract_z
 _atom_site_occupancy
  Cs  Cs0  1  0.71935900  0.28064100  0.75000000  1
  Cs  Cs1  1  0.28064100  0.71935900  0.25000000  1
  B  B0  1  0.78304700  0.21695300  0.25000000  1
  B  B1  1  0.21695300  0.78304700  0.75000000  1
  B  B2  1  0.99009300  0.25525900  0.42556400  1
  B  B3  1  0.74474100  0.00990700  0.07443600  1
  B  B4  1  0.00990700  0.74474100  0.57443600  1
  B  B5  1  0.25525900  0.99009300  0.92556400  1
  B  B6  1  0.65316300  0.22677200  0.44152800  1
  B  B7  1  0.77322800  0.34683700  0.05847200  1
  B  B8  1  0.34683700  0.77322800  0.55847200  1
  B  B9  1  0.22677200  0.65316300  0.94152800  1
  H  H0  1  0.20165400  0.39548400  0.74933100  1
  H  H1  1  0.60451600  0.79834600  0.75066900  1
  H  H2  1  0.79834600  0.60451600  0.25066900  1
  H  H3  1  0.39548400  0.20165400  0.24933100  1
  H  H4  1  0.19582200  0.17329700  0.74361400  1
  H  H5  1  0.82670300  0.80417800  0.75638600  1
  H  H6  1  0.80417800  0.82670300  0.25638600  1
  H  H7  1  0.17329700  0.19582200  0.24361400  1
  H  H8  1  0.16001000  0.27611200  0.56206300  1
  H  H9  1  0.72388800  0.83999000  0.93793700  1
  H  H10  1  0.83999000  0.72388800  0.43793700  1
  H  H11  1  0.27611200  0.16001000  0.06206300  1
  H  H12  1  0.38709400  0.23655000  0.48003400  1
  H  H13  1  0.76345000  0.61290600  0.01996600  1
  H  H14  1  0.61290600  0.76345000  0.51996600  1
  H  H15  1  0.23655000  0.38709400  0.98003400  1
  O  O0  1  0.83317300  0.24051800  0.49161600  1
  O  O1  1  0.75948200  0.16682700  0.00838400  1
  O  O2  1  0.16682700  0.75948200  0.50838400  1
  O  O3  1  0.24051800  0.83317300  0.99161600  1
  O  O4  1  0.62666000  0.21129900  0.32714300  1
  O  O5  1  0.78870100  0.37334000  0.17285700  1
  O  O6  1  0.37334000  0.78870100  0.67285700  1
  O  O7  1  0.21129900  0.62666000  0.82714300  1
  O  O8  1  0.97366800  0.25488600  0.31105200  1
  O  O9  1  0.74511400  0.02633200  0.18894800  1
  O  O10  1  0.02633200  0.74511400  0.68894800  1
  O  O11  1  0.25488600  0.97366800  0.81105200  1
  O  O12  1  0.16593900  0.27479900  0.47814100  1
  O  O13  1  0.72520100  0.83406100  0.02185900  1
  O  O14  1  0.83406100  0.72520100  0.52185900  1
  O  O15  1  0.27479900  0.16593900  0.97814100  1
  O  O16  1  0.51271000  0.23221900  0.51333600  1
  O  O17  1  0.76778100  0.48729000  0.98666400  1
  O  O18  1  0.48729000  0.76778100  0.48666400  1
  O  O19  1  0.23221900  0.51271000  0.01333600  1
  O  O20  1  0.15338900  0.27340200  0.70449900  1
  O  O21  1  0.72659800  0.84661100  0.79550100  1
  O  O22  1  0.84661100  0.72659800  0.29550100  1
  O  O23  1  0.27340200  0.15338900  0.20449900  1
loop_
_geom_bond_atom_site_label_1
_geom_bond_atom_site_label_2
_geom_bond_distance
_geom_bond_site_symmetry_2
Cs0 O16 3.121682 1_555
Cs0 O17 3.121682 1_555
Cs0 O20 3.229350 1_655
Cs0 O21 3.229350 1_545
Cs0 O1 3.245592 1_556
Cs0 O0 3.245592 1_555
Cs1 O18 3.121682 1_555
Cs1 O19 3.121682 1_555
Cs1 O22 3.229350 1_455
Cs1 O23 3.229350 1_565
Cs1 O2 3.245592 1_555
Cs1 O3 3.245592 1_554
B0 O4 1.477012 1_555
B0 O5 1.477012 1_555
B0 O9 1.494414 1_555
B0 O8 1.494414 1_555
B1 O7 1.477012 1_555
B1 O6 1.477012 1_555
B1 O10 1.494414 1_555
B1 O11 1.494414 1_555
B2 O8 1.369305 1_555
B2 O12 1.373805 1_655
B2 O0 1.387348 1_555
B3 O9 1.369305 1_555
B3 O13 1.373805 1_545
B3 O1 1.387348 1_555
B4 O10 1.369305 1_555
B4 O14 1.373805 1_455
B4 O2 1.387348 1_555
B5 O11 1.369305 1_555
B5 O15 1.373805 1_565
B5 O3 1.387348 1_555
B6 O16 1.361091 1_555
B6 O4 1.370668 1_555
B6 O0 1.396600 1_555
B7 O17 1.361091 1_554
B7 O5 1.370668 1_555
B7 O1 1.396600 1_555
B8 O18 1.361091 1_555
B8 O6 1.370668 1_555
B8 O2 1.396600 1_555
B9 O19 1.361091 1_556
B9 O7 1.370668 1_555
B9 O3 1.396600 1_555
H0 O20 0.989456 1_555
H1 O21 0.989456 1_555
H2 O22 0.989456 1_555
H3 O23 0.989456 1_555
H4 O20 0.990006 1_555
H5 O21 0.990006 1_555
H6 O22 0.990006 1_555
H7 O23 0.990006 1_555
H8 O12 1.004660 1_555
H9 O13 1.004660 1_556
H10 O14 1.004660 1_555
H11 O15 1.004660 1_554
H12 O16 0.992771 1_555
H13 O17 0.992771 1_554
H14 O18 0.992771 1_555
H15 O19 0.992771 1_556
