# generated using pymatgen
data_CsHg5Cl11
_symmetry_space_group_name_H-M   'P 1'
_cell_length_a   7.21828696
_cell_length_b   9.83583038
_cell_length_c   9.83583049
_cell_angle_alpha   105.51863130
_cell_angle_beta   106.51865522
_cell_angle_gamma   106.51865824
_symmetry_Int_Tables_number   1
_chemical_formula_structural   CsHg5Cl11
_chemical_formula_sum   'Cs1 Hg5 Cl11'
_cell_volume   593.97386096
_cell_formula_units_Z   1
loop_
 _symmetry_equiv_pos_site_id
 _symmetry_equiv_pos_as_xyz
  1  'x, y, z'
loop_
 _atom_site_type_symbol
 _atom_site_label
 _atom_site_symmetry_multiplicity
 _atom_site_fract_x
 _atom_site_fract_y
 _atom_site_fract_z
 _atom_site_occupancy
  Cs  Cs0  1  0.00000000  0.00000000  0.00000000  1
  Hg  Hg0  1  0.66072600  0.03155400  0.33887700  1
  Hg  Hg1  1  0.00000000  0.50000000  0.50000000  1
  Hg  Hg2  1  0.33927400  0.96844600  0.66112300  1
  Hg  Hg3  1  0.33927400  0.66112300  0.96844600  1
  Hg  Hg4  1  0.66072600  0.33887700  0.03155400  1
  Cl  Cl0  1  0.98012800  0.83333900  0.58550900  1
  Cl  Cl1  1  0.68644600  0.11710700  0.71068800  1
  Cl  Cl2  1  0.68644600  0.71068800  0.11710700  1
  Cl  Cl3  1  0.50000000  0.00000000  0.00000000  1
  Cl  Cl4  1  0.31355400  0.88289300  0.28931200  1
  Cl  Cl5  1  0.98012800  0.58550900  0.83333900  1
  Cl  Cl6  1  0.36558700  0.63055600  0.63055600  1
  Cl  Cl7  1  0.63441300  0.36944400  0.36944400  1
  Cl  Cl8  1  0.01987200  0.41449100  0.16666100  1
  Cl  Cl9  1  0.31355400  0.28931200  0.88289300  1
  Cl  Cl10  1  0.01987200  0.16666100  0.41449100  1
loop_
_geom_bond_atom_site_label_1
_geom_bond_atom_site_label_2
_geom_bond_distance
_geom_bond_site_symmetry_2
Cl0 Hg2 2.335684 1_655
Cl0 Cs0 3.909754 1_666
Cl1 Hg2 2.344314 1_545
Cl1 Cs0 3.757777 1_656
Cl2 Hg3 2.344314 1_554
Cl2 Cs0 3.757777 1_665
Cl3 Hg3 3.097551 1_544
Cl3 Hg4 3.097551 1_555
Cl3 Hg2 3.097551 1_544
Cl3 Hg0 3.097551 1_555
Cl3 Cs0 3.609143 1_555
Cl3 Cs0 3.609143 1_655
Cl4 Hg0 2.344314 1_565
Cl4 Cs0 3.757777 1_565
Cl5 Hg3 2.335684 1_655
Cl5 Cs0 3.909754 1_666
Cl6 Hg1 2.350626 1_555
Cl7 Hg1 2.350626 1_655
Cl8 Hg4 2.335684 1_455
Cl8 Cs0 3.909754 1_555
Cl9 Hg4 2.344314 1_556
Cl9 Cs0 3.757777 1_556
Cl10 Hg0 2.335684 1_455
Cl10 Cs0 3.909754 1_555
