# generated using pymatgen
data_Dy2NiB10
_symmetry_space_group_name_H-M   'P 1'
_cell_length_a   4.13451728
_cell_length_b   5.52921844
_cell_length_c   11.04721177
_cell_angle_alpha   90.00000000
_cell_angle_beta   90.00000000
_cell_angle_gamma   90.00000000
_symmetry_Int_Tables_number   1
_chemical_formula_structural   Dy2NiB10
_chemical_formula_sum   'Dy4 Ni2 B20'
_cell_volume   252.54643275
_cell_formula_units_Z   2
loop_
 _symmetry_equiv_pos_site_id
 _symmetry_equiv_pos_as_xyz
  1  'x, y, z'
loop_
 _atom_site_type_symbol
 _atom_site_label
 _atom_site_symmetry_multiplicity
 _atom_site_fract_x
 _atom_site_fract_y
 _atom_site_fract_z
 _atom_site_occupancy
  Dy  Dy0  1  0.50000000  0.18479567  0.36243359  1
  Dy  Dy1  1  0.50000000  0.81520433  0.63756641  1
  Dy  Dy2  1  0.50000000  0.31520433  0.86243359  1
  Dy  Dy3  1  0.50000000  0.68479567  0.13756641  1
  Ni  Ni0  1  0.00000000  0.00000000  0.00000000  1
  Ni  Ni1  1  0.00000000  0.50000000  0.50000000  1
  B  B0  1  0.00000000  0.37344920  0.04088624  1
  B  B1  1  0.00000000  0.62655080  0.95911376  1
  B  B2  1  0.00000000  0.12655080  0.54088624  1
  B  B3  1  0.00000000  0.87344920  0.45911376  1
  B  B4  1  0.00000000  0.33888153  0.19869685  1
  B  B5  1  0.00000000  0.66111847  0.80130315  1
  B  B6  1  0.00000000  0.16111847  0.69869685  1
  B  B7  1  0.00000000  0.83888153  0.30130315  1
  B  B8  1  0.00000000  0.02695263  0.18579621  1
  B  B9  1  0.00000000  0.97304737  0.81420379  1
  B  B10  1  0.00000000  0.47304737  0.68579621  1
  B  B11  1  0.00000000  0.52695263  0.31420379  1
  B  B12  1  0.30145992  0.19965350  0.11438620  1
  B  B13  1  0.69854008  0.80034650  0.88561380  1
  B  B14  1  0.30145992  0.80034650  0.88561380  1
  B  B15  1  0.69854008  0.30034650  0.61438620  1
  B  B16  1  0.69854008  0.19965350  0.11438620  1
  B  B17  1  0.30145992  0.69965350  0.38561380  1
  B  B18  1  0.69854008  0.69965350  0.38561380  1
  B  B19  1  0.30145992  0.30034650  0.61438620  1
loop_
_geom_bond_atom_site_label_1
_geom_bond_atom_site_label_2
_geom_bond_distance
_geom_bond_site_symmetry_2
Dy0 Ni1 3.101708 1_655
Dy0 Ni1 3.101708 1_555
Dy1 Ni1 3.101708 1_655
Dy1 Ni1 3.101708 1_555
Dy2 Ni0 3.101708 1_556
Dy2 Ni0 3.101708 1_656
Dy3 Ni0 3.101708 1_665
Dy3 Ni0 3.101708 1_565
B0 B1 1.665691 1_554
B0 B4 1.753813 1_555
B0 B12 1.770937 1_555
B0 B16 1.770937 1_455
B0 Ni0 2.113706 1_555
B0 Dy2 2.874667 1_554
B0 Dy2 2.874667 1_454
B0 Dy3 2.894452 1_455
B0 Dy3 2.894452 1_555
B1 B5 1.753813 1_555
B1 B14 1.770937 1_555
B1 B13 1.770937 1_455
B1 Ni0 2.113706 1_566
B1 Dy3 2.874667 1_556
B1 Dy3 2.874667 1_456
B1 Dy2 2.894452 1_555
B1 Dy2 2.894452 1_455
B2 B3 1.665691 1_545
B2 B6 1.753813 1_555
B2 Ni1 2.113706 1_555
B2 Dy0 2.874667 1_455
B2 Dy0 2.874667 1_555
B2 Dy1 2.894452 1_545
B2 Dy1 2.894452 1_445
B3 B7 1.753813 1_555
B3 Ni1 2.113706 1_555
B3 Dy1 2.874667 1_455
B3 Dy1 2.874667 1_555
B3 Dy0 2.894452 1_565
B3 Dy0 2.894452 1_465
B4 B8 1.730601 1_555
B4 Dy0 2.875987 1_455
B4 Dy0 2.875987 1_555
B4 Dy3 2.896168 1_455
B4 Dy3 2.896168 1_555
B5 B9 1.730601 1_555
B5 Dy1 2.875987 1_455
B5 Dy1 2.875987 1_555
B5 Dy2 2.896168 1_455
B5 Dy2 2.896168 1_555
B6 B9 1.646091 1_545
B6 Dy2 2.875987 1_455
B6 Dy2 2.875987 1_555
B6 Dy1 2.896168 1_545
B6 Dy1 2.896168 1_445
B7 B8 1.646091 1_565
B7 Dy3 2.875987 1_555
B7 Dy3 2.875987 1_455
B7 Dy0 2.896168 1_565
B7 Dy0 2.896168 1_465
B8 Ni0 2.057933 1_555
B8 Dy3 2.852468 1_445
B8 Dy3 2.852468 1_545
B8 Dy0 2.973721 1_555
B8 Dy0 2.973721 1_455
B9 Ni0 2.057933 1_566
B9 Dy2 2.852468 1_465
B9 Dy2 2.852468 1_565
B9 Dy1 2.973721 1_455
B9 Dy1 2.973721 1_555
B10 B5 1.646091 1_555
B10 B6 1.730601 1_555
B10 B15 1.757174 1_455
B10 B19 1.757174 1_555
B10 Ni1 2.057933 1_555
B10 Dy1 2.852468 1_455
B10 Dy1 2.852468 1_555
B10 Dy2 2.973721 1_555
B10 Dy2 2.973721 1_455
B11 B4 1.646091 1_555
B11 B7 1.730601 1_555
B11 B18 1.757174 1_455
B11 B17 1.757174 1_555
B11 Ni1 2.057933 1_555
B11 Dy0 2.852468 1_455
B11 Dy0 2.852468 1_555
B11 Dy3 2.973721 1_555
B11 Dy3 2.973721 1_455
B12 B16 1.641735 1_555
B12 B4 1.735978 1_555
B12 B8 1.757174 1_555
B12 Ni0 2.090205 1_555
B12 Dy3 2.816909 1_555
B12 Dy0 2.861720 1_555
B12 Dy2 2.971396 1_554
B12 Dy3 2.973794 1_545
B13 B14 1.641735 1_555
B13 B5 1.735978 1_655
B13 B9 1.757174 1_655
B13 Ni0 2.090205 1_666
B13 Dy2 2.816909 1_555
B13 Dy1 2.861720 1_555
B13 Dy3 2.971396 1_556
B13 Dy2 2.973794 1_565
B14 B5 1.735978 1_555
B14 B9 1.757174 1_555
B14 Ni0 2.090205 1_566
B14 Dy2 2.816909 1_555
B14 Dy1 2.861720 1_555
B14 Dy3 2.971396 1_556
B14 Dy2 2.973794 1_565
B15 B19 1.641735 1_555
B15 B6 1.735978 1_655
B15 B2 1.770937 1_655
B15 Ni1 2.090205 1_655
B15 Dy1 2.816909 1_545
B15 Dy2 2.861720 1_555
B15 Dy0 2.971396 1_555
B15 Dy1 2.973794 1_555
B16 B4 1.735978 1_655
B16 B8 1.757174 1_655
B16 Ni0 2.090205 1_655
B16 Dy3 2.816909 1_555
B16 Dy0 2.861720 1_555
B16 Dy2 2.971396 1_554
B16 Dy3 2.973794 1_545
B17 B18 1.641735 1_555
B17 B7 1.735978 1_555
B17 B3 1.770937 1_555
B17 Ni1 2.090205 1_555
B17 Dy0 2.816909 1_565
B17 Dy3 2.861720 1_555
B17 Dy1 2.971396 1_555
B17 Dy0 2.973794 1_555
B18 B7 1.735978 1_655
B18 B3 1.770937 1_655
B18 Ni1 2.090205 1_655
B18 Dy0 2.816909 1_565
B18 Dy3 2.861720 1_555
B18 Dy1 2.971396 1_555
B18 Dy0 2.973794 1_555
B19 B6 1.735978 1_555
B19 B2 1.770937 1_555
B19 Ni1 2.090205 1_555
B19 Dy1 2.816909 1_545
B19 Dy2 2.861720 1_555
B19 Dy0 2.971396 1_555
B19 Dy1 2.973794 1_555
