# generated using pymatgen
data_Mn12HO24
_symmetry_space_group_name_H-M   'P 1'
_cell_length_a   5.91434200
_cell_length_b   9.14116600
_cell_length_c   16.44910355
_cell_angle_alpha   58.35204711
_cell_angle_beta   90.00000000
_cell_angle_gamma   90.00000000
_symmetry_Int_Tables_number   1
_chemical_formula_structural   Mn12HO24
_chemical_formula_sum   'Mn24 H2 O48'
_cell_volume   757.05393925
_cell_formula_units_Z   2
loop_
 _symmetry_equiv_pos_site_id
 _symmetry_equiv_pos_as_xyz
  1  'x, y, z'
loop_
 _atom_site_type_symbol
 _atom_site_label
 _atom_site_symmetry_multiplicity
 _atom_site_fract_x
 _atom_site_fract_y
 _atom_site_fract_z
 _atom_site_occupancy
  Mn  Mn0  1  0.87484900  0.00111900  0.50110800  1
  Mn  Mn1  1  0.87638900  0.49939500  0.50051500  1
  Mn  Mn2  1  0.37508600  0.00001800  0.49979600  1
  Mn  Mn3  1  0.37347100  0.49991200  0.50112400  1
  Mn  Mn4  1  0.87496900  0.60293400  0.15867400  1
  Mn  Mn5  1  0.87460700  0.10083600  0.15963000  1
  Mn  Mn6  1  0.37489100  0.59925100  0.15791700  1
  Mn  Mn7  1  0.37498800  0.10689100  0.15505700  1
  Mn  Mn8  1  0.88008600  0.89801900  0.84365500  1
  Mn  Mn9  1  0.87482100  0.39757800  0.84218800  1
  Mn  Mn10  1  0.37033000  0.89704300  0.84401200  1
  Mn  Mn11  1  0.37505400  0.39779200  0.84208500  1
  Mn  Mn12  1  0.62491400  0.00001800  0.99979600  1
  Mn  Mn13  1  0.62652900  0.49991200  0.00112400  1
  Mn  Mn14  1  0.12515100  0.00111900  0.00110800  1
  Mn  Mn15  1  0.12361100  0.49939500  0.00051500  1
  Mn  Mn16  1  0.62501200  0.10689100  0.65505700  1
  Mn  Mn17  1  0.62510900  0.59925100  0.65791700  1
  Mn  Mn18  1  0.12539300  0.10083600  0.65963000  1
  Mn  Mn19  1  0.12503100  0.60293400  0.65867400  1
  Mn  Mn20  1  0.62494600  0.39779200  0.34208500  1
  Mn  Mn21  1  0.62967000  0.89704300  0.34401200  1
  Mn  Mn22  1  0.12517900  0.39757800  0.34218800  1
  Mn  Mn23  1  0.11991400  0.89801900  0.34365500  1
  H  H0  1  0.37492000  0.76117700  0.26642400  1
  H  H1  1  0.62508000  0.76117700  0.76642400  1
  O  O0  1  0.87671500  0.65612800  0.93863000  1
  O  O1  1  0.87413200  0.15638100  0.93800700  1
  O  O2  1  0.37404600  0.65531200  0.93927100  1
  O  O3  1  0.37574500  0.15637100  0.93842500  1
  O  O4  1  0.87469300  0.84443900  0.06228900  1
  O  O5  1  0.87418800  0.34322500  0.06193900  1
  O  O6  1  0.37517200  0.84339700  0.06244100  1
  O  O7  1  0.37504000  0.34362800  0.06220500  1
  O  O8  1  0.12586800  0.15638100  0.43800700  1
  O  O9  1  0.12328500  0.65612800  0.43863000  1
  O  O10  1  0.62425500  0.15637100  0.43842500  1
  O  O11  1  0.62595400  0.65531200  0.43927100  1
  O  O12  1  0.62496000  0.34362800  0.56220500  1
  O  O13  1  0.62482800  0.84339700  0.56244100  1
  O  O14  1  0.12581200  0.34322500  0.56193900  1
  O  O15  1  0.12530700  0.84443900  0.56228900  1
  O  O16  1  0.12538500  0.94859500  0.89919900  1
  O  O17  1  0.12490000  0.44799900  0.89873600  1
  O  O18  1  0.62505700  0.94641700  0.89850600  1
  O  O19  1  0.62503100  0.45402300  0.89643700  1
  O  O20  1  0.12314000  0.55051000  0.10238200  1
  O  O21  1  0.12509000  0.05349900  0.10204300  1
  O  O22  1  0.62685800  0.55141300  0.10222700  1
  O  O23  1  0.62444800  0.05229600  0.10133400  1
  O  O24  1  0.87510000  0.44799900  0.39873600  1
  O  O25  1  0.87461500  0.94859500  0.39919900  1
  O  O26  1  0.37496900  0.45402300  0.39643700  1
  O  O27  1  0.37494300  0.94641700  0.39850600  1
  O  O28  1  0.87491000  0.05349900  0.60204300  1
  O  O29  1  0.87686000  0.55051000  0.60238200  1
  O  O30  1  0.37555200  0.05229600  0.60133400  1
  O  O31  1  0.37314200  0.55141300  0.60222700  1
  O  O32  1  0.12505500  0.86976500  0.77401400  1
  O  O33  1  0.12514900  0.37237700  0.77277400  1
  O  O34  1  0.62482000  0.86240200  0.77242300  1
  O  O35  1  0.62493200  0.36996000  0.77312300  1
  O  O36  1  0.12912200  0.62942200  0.22787100  1
  O  O37  1  0.12701400  0.12678000  0.22798100  1
  O  O38  1  0.62066400  0.62931600  0.22798600  1
  O  O39  1  0.62297300  0.12567700  0.22847700  1
  O  O40  1  0.87485100  0.37237700  0.27277400  1
  O  O41  1  0.87494500  0.86976500  0.27401400  1
  O  O42  1  0.37506800  0.36996000  0.27312300  1
  O  O43  1  0.37518000  0.86240200  0.27242300  1
  O  O44  1  0.87298600  0.12678000  0.72798100  1
  O  O45  1  0.87087800  0.62942200  0.72787100  1
  O  O46  1  0.37702700  0.12567700  0.72847700  1
  O  O47  1  0.37933600  0.62931600  0.72798600  1
loop_
_geom_bond_atom_site_label_1
_geom_bond_atom_site_label_2
_geom_bond_distance
_geom_bond_site_symmetry_2
Mn0 O10 1.933456 1_555
Mn0 O15 1.935397 1_645
Mn0 O8 1.936454 1_655
Mn0 O13 1.938216 1_545
Mn0 O28 1.954499 1_555
Mn0 O25 1.971079 1_545
Mn1 O9 1.921119 1_655
Mn1 O14 1.929074 1_655
Mn1 O11 1.932183 1_555
Mn1 O12 1.937058 1_555
Mn1 O29 1.961542 1_555
Mn1 O24 1.961901 1_555
Mn2 O10 1.928587 1_555
Mn2 O8 1.929788 1_555
Mn2 O15 1.930667 1_545
Mn2 O13 1.935233 1_545
Mn2 O30 1.963560 1_555
Mn2 O27 1.967931 1_545
Mn3 O14 1.921997 1_555
Mn3 O9 1.935179 1_555
Mn3 O12 1.938166 1_555
Mn3 O11 1.940684 1_555
Mn3 O31 1.951663 1_555
Mn3 O26 1.974684 1_555
Mn4 O22 1.922528 1_555
Mn4 O20 1.925365 1_655
Mn4 O4 1.927257 1_555
Mn4 O40 1.952792 1_555
Mn4 O36 1.975566 1_655
Mn4 O38 1.977050 1_555
Mn5 O21 1.925966 1_655
Mn5 O23 1.936982 1_555
Mn5 O5 1.937848 1_555
Mn5 O39 1.954175 1_555
Mn5 O37 1.956694 1_655
Mn5 O41 1.957339 1_545
Mn6 O22 1.916116 1_555
Mn6 O20 1.917566 1_555
Mn6 O6 1.941433 1_555
Mn6 O42 1.953496 1_555
Mn6 O36 1.961123 1_555
Mn6 O38 1.961956 1_555
Mn7 O7 1.883446 1_555
Mn7 O21 1.905181 1_555
Mn7 O23 1.915611 1_555
Mn7 O37 1.962580 1_555
Mn7 O39 1.963865 1_555
Mn7 O43 2.047962 1_545
Mn8 O16 1.896453 1_655
Mn8 O18 1.924507 1_555
Mn8 O0 1.924902 1_555
Mn8 O32 1.946416 1_655
Mn8 O44 1.954380 1_565
Mn8 O34 2.039241 1_555
Mn9 O1 1.923201 1_555
Mn9 O17 1.927468 1_655
Mn9 O19 1.930862 1_555
Mn9 O33 1.955697 1_655
Mn9 O35 1.959493 1_555
Mn9 O45 1.961114 1_555
Mn10 O16 1.895718 1_555
Mn10 O18 1.923907 1_555
Mn10 O2 1.924851 1_555
Mn10 O32 1.947705 1_555
Mn10 O46 1.952739 1_565
Mn10 O34 2.035612 1_555
Mn11 O3 1.926549 1_555
Mn11 O17 1.927876 1_555
Mn11 O19 1.931732 1_555
Mn11 O33 1.953540 1_555
Mn11 O47 1.958045 1_555
Mn11 O35 1.959195 1_555
Mn12 O3 1.928587 1_555
Mn12 O1 1.929788 1_555
Mn12 O4 1.930667 1_546
Mn12 O6 1.935233 1_546
Mn12 O23 1.963560 1_556
Mn12 O18 1.967931 1_545
Mn13 O5 1.921997 1_555
Mn13 O0 1.935179 1_554
Mn13 O7 1.938166 1_555
Mn13 O2 1.940684 1_554
Mn13 O22 1.951663 1_555
Mn13 O19 1.974684 1_554
Mn14 O3 1.933456 1_554
Mn14 O4 1.935397 1_445
Mn14 O1 1.936454 1_454
Mn14 O6 1.938216 1_545
Mn14 O21 1.954499 1_555
Mn14 O16 1.971079 1_544
Mn15 O0 1.921119 1_454
Mn15 O5 1.929074 1_455
Mn15 O2 1.932183 1_554
Mn15 O7 1.937058 1_555
Mn15 O20 1.961542 1_555
Mn15 O17 1.961901 1_554
Mn16 O12 1.883446 1_555
Mn16 O28 1.905181 1_555
Mn16 O30 1.915611 1_555
Mn16 O44 1.962580 1_555
Mn16 O46 1.963865 1_555
Mn16 O34 2.047962 1_545
Mn17 O31 1.916116 1_555
Mn17 O29 1.917566 1_555
Mn17 O13 1.941433 1_555
Mn17 O35 1.953496 1_555
Mn17 O45 1.961123 1_555
Mn17 O47 1.961956 1_555
Mn18 O28 1.925966 1_455
Mn18 O30 1.936982 1_555
Mn18 O14 1.937848 1_555
Mn18 O46 1.954175 1_555
Mn18 O44 1.956694 1_455
Mn18 O32 1.957339 1_545
Mn19 O31 1.922528 1_555
Mn19 O29 1.925365 1_455
Mn19 O15 1.927257 1_555
Mn19 O33 1.952792 1_555
Mn19 O45 1.975566 1_455
Mn19 O47 1.977050 1_555
Mn20 O10 1.926549 1_555
Mn20 O24 1.927876 1_555
Mn20 O26 1.931732 1_555
Mn20 O40 1.953540 1_555
Mn20 O38 1.958045 1_555
Mn20 O42 1.959195 1_555
Mn21 O25 1.895718 1_555
Mn21 O27 1.923907 1_555
Mn21 O11 1.924851 1_555
Mn21 O41 1.947705 1_555
Mn21 O39 1.952739 1_565
Mn21 O43 2.035612 1_555
Mn22 O8 1.923201 1_555
Mn22 O24 1.927468 1_455
Mn22 O26 1.930862 1_555
Mn22 O40 1.955697 1_455
Mn22 O42 1.959493 1_555
Mn22 O36 1.961114 1_555
Mn23 O25 1.896453 1_455
Mn23 O27 1.924507 1_555
Mn23 O9 1.924902 1_555
Mn23 O41 1.946416 1_455
Mn23 O37 1.954380 1_565
Mn23 O43 2.039241 1_555
H0 O43 0.980696 1_555
H1 O34 0.980696 1_555
