# generated using pymatgen
data_DyAlCu
_symmetry_space_group_name_H-M   'P 1'
_cell_length_a   5.36337838
_cell_length_b   5.36337838
_cell_length_c   5.36337838
_cell_angle_alpha   119.19818052
_cell_angle_beta   119.07148273
_cell_angle_gamma   91.50519778
_symmetry_Int_Tables_number   1
_chemical_formula_structural   DyAlCu
_chemical_formula_sum   'Dy2 Al2 Cu2'
_cell_volume   110.47906224
_cell_formula_units_Z   2
loop_
 _symmetry_equiv_pos_site_id
 _symmetry_equiv_pos_as_xyz
  1  'x, y, z'
loop_
 _atom_site_type_symbol
 _atom_site_label
 _atom_site_symmetry_multiplicity
 _atom_site_fract_x
 _atom_site_fract_y
 _atom_site_fract_z
 _atom_site_occupancy
  Dy  Dy0  1  0.12277200  0.87277200  0.25000000  1
  Dy  Dy1  1  0.87722800  0.12722800  0.75000000  1
  Al  Al0  1  0.50000000  0.50000000  0.50000000  1
  Al  Al1  1  0.50000000  0.00000000  0.00000000  1
  Cu  Cu0  1  0.50000000  0.50000000  0.00000000  1
  Cu  Cu1  1  0.00000000  0.50000000  0.50000000  1
loop_
_geom_bond_atom_site_label_1
_geom_bond_atom_site_label_2
_geom_bond_distance
_geom_bond_site_symmetry_2
Dy0 Dy1 3.277811 1_465
Dy0 Dy1 3.277811 1_454
Dy0 Dy1 3.319857 1_464
Dy0 Dy1 3.319857 1_565
Al0 Cu0 2.681689 1_556
Al0 Cu0 2.681689 1_555
Al0 Cu1 2.681689 1_655
Al0 Cu1 2.681689 1_555
Al0 Al1 2.714124 1_555
Al0 Al1 2.714124 1_566
Al0 Dy1 3.132631 1_565
Al0 Dy0 3.132631 1_545
Al0 Dy0 3.174943 1_656
Al0 Dy1 3.174943 1_454
Al0 Dy1 3.174943 1_555
Al0 Dy0 3.174943 1_555
Al1 Cu1 2.681689 1_544
Al1 Cu0 2.681689 1_555
Al1 Cu1 2.681689 1_655
Al1 Cu0 2.681689 1_545
Al1 Dy1 3.132631 1_554
Al1 Dy0 3.132631 1_545
Al1 Dy0 3.174943 1_645
Al1 Dy0 3.174943 1_544
Al1 Dy1 3.174943 1_454
Al1 Dy1 3.174943 1_555
Cu0 Cu1 2.719237 1_554
Cu0 Cu1 2.719237 1_655
Cu0 Dy0 3.103724 1_655
Cu0 Dy1 3.103724 1_454
Cu0 Dy0 3.181483 1_544
Cu0 Dy1 3.181483 1_565
Cu0 Dy1 3.181483 1_554
Cu0 Dy0 3.181483 1_555
Cu1 Dy0 3.103724 1_555
Cu1 Dy1 3.103724 1_455
Cu1 Dy0 3.181483 1_545
Cu1 Dy1 3.181483 1_454
Cu1 Dy1 3.181483 1_465
Cu1 Dy0 3.181483 1_556
