# generated using pymatgen
data_Ho15C19
_symmetry_space_group_name_H-M   'P 1'
_cell_length_a   8.12961300
_cell_length_b   8.12961300
_cell_length_c   15.39385500
_cell_angle_alpha   90.00000000
_cell_angle_beta   90.00000000
_cell_angle_gamma   90.00000000
_symmetry_Int_Tables_number   1
_chemical_formula_structural   Ho15C19
_chemical_formula_sum   'Ho30 C38'
_cell_volume   1017.38922918
_cell_formula_units_Z   2
loop_
 _symmetry_equiv_pos_site_id
 _symmetry_equiv_pos_as_xyz
  1  'x, y, z'
loop_
 _atom_site_type_symbol
 _atom_site_label
 _atom_site_symmetry_multiplicity
 _atom_site_fract_x
 _atom_site_fract_y
 _atom_site_fract_z
 _atom_site_occupancy
  Ho  Ho0  1  0.70248600  0.90698700  0.49927900  1
  Ho  Ho1  1  0.20248600  0.59301300  0.00072100  1
  Ho  Ho2  1  0.29751400  0.09301300  0.49927900  1
  Ho  Ho3  1  0.79751400  0.40698700  0.00072100  1
  Ho  Ho4  1  0.90698700  0.29751400  0.50072100  1
  Ho  Ho5  1  0.59301300  0.79751400  0.99927900  1
  Ho  Ho6  1  0.09301300  0.70248600  0.50072100  1
  Ho  Ho7  1  0.40698700  0.20248600  0.99927900  1
  Ho  Ho8  1  0.78370100  0.59893800  0.65011300  1
  Ho  Ho9  1  0.28370100  0.90106200  0.84988700  1
  Ho  Ho10  1  0.21629900  0.40106200  0.65011300  1
  Ho  Ho11  1  0.71629900  0.09893800  0.84988700  1
  Ho  Ho12  1  0.59893800  0.21629900  0.34988700  1
  Ho  Ho13  1  0.90106200  0.71629900  0.15011300  1
  Ho  Ho14  1  0.40106200  0.78370100  0.34988700  1
  Ho  Ho15  1  0.09893800  0.28370100  0.15011300  1
  Ho  Ho16  1  0.59737900  0.21484400  0.65000800  1
  Ho  Ho17  1  0.09737900  0.28515600  0.84999200  1
  Ho  Ho18  1  0.40262100  0.78515600  0.65000800  1
  Ho  Ho19  1  0.90262100  0.71484400  0.84999200  1
  Ho  Ho20  1  0.21484400  0.40262100  0.34999200  1
  Ho  Ho21  1  0.28515600  0.90262100  0.15000800  1
  Ho  Ho22  1  0.78515600  0.59737900  0.34999200  1
  Ho  Ho23  1  0.71484400  0.09737900  0.15000800  1
  Ho  Ho24  1  0.00000000  0.00000000  0.33072800  1
  Ho  Ho25  1  0.50000000  0.50000000  0.16927200  1
  Ho  Ho26  1  0.00000000  0.00000000  0.66927200  1
  Ho  Ho27  1  0.50000000  0.50000000  0.83072800  1
  Ho  Ho28  1  0.50000000  0.50000000  0.50000000  1
  Ho  Ho29  1  0.00000000  0.00000000  0.00000000  1
  C  C0  1  0.60134200  0.19635500  0.49983200  1
  C  C1  1  0.10134200  0.30364500  0.00016800  1
  C  C2  1  0.39865800  0.80364500  0.49983200  1
  C  C3  1  0.89865800  0.69635500  0.00016800  1
  C  C4  1  0.19635500  0.39865800  0.50016800  1
  C  C5  1  0.30364500  0.89865800  0.99983200  1
  C  C6  1  0.80364500  0.60134200  0.50016800  1
  C  C7  1  0.69635500  0.10134200  0.99983200  1
  C  C8  1  0.69721400  0.90485300  0.66748700  1
  C  C9  1  0.19721400  0.59514700  0.83251300  1
  C  C10  1  0.30278600  0.09514700  0.66748700  1
  C  C11  1  0.80278600  0.40485300  0.83251300  1
  C  C12  1  0.90485300  0.30278600  0.33251300  1
  C  C13  1  0.59514700  0.80278600  0.16748700  1
  C  C14  1  0.09514700  0.69721400  0.33251300  1
  C  C15  1  0.40485300  0.19721400  0.16748700  1
  C  C16  1  0.65355800  0.85144000  0.74698600  1
  C  C17  1  0.15355800  0.64856000  0.75301400  1
  C  C18  1  0.34644200  0.14856000  0.74698600  1
  C  C19  1  0.84644200  0.35144000  0.75301400  1
  C  C20  1  0.85144000  0.34644200  0.25301400  1
  C  C21  1  0.64856000  0.84644200  0.24698600  1
  C  C22  1  0.14856000  0.65355800  0.25301400  1
  C  C23  1  0.35144000  0.15355800  0.24698600  1
  C  C24  1  0.90280300  0.30250900  0.67516800  1
  C  C25  1  0.40280300  0.19749100  0.82483200  1
  C  C26  1  0.09719700  0.69749100  0.67516800  1
  C  C27  1  0.59719700  0.80250900  0.82483200  1
  C  C28  1  0.30250900  0.09719700  0.32483200  1
  C  C29  1  0.19749100  0.59719700  0.17516800  1
  C  C30  1  0.69749100  0.90280300  0.32483200  1
  C  C31  1  0.80250900  0.40280300  0.17516800  1
  C  C32  1  0.50000000  0.50000000  0.66285800  1
  C  C33  1  0.00000000  0.00000000  0.83714200  1
  C  C34  1  0.50000000  0.50000000  0.33714200  1
  C  C35  1  0.00000000  0.00000000  0.16285800  1
  C  C36  1  0.50000000  0.50000000  0.00000000  1
  C  C37  1  0.00000000  0.00000000  0.50000000  1
loop_
_geom_bond_atom_site_label_1
_geom_bond_atom_site_label_2
_geom_bond_distance
_geom_bond_site_symmetry_2
C0 Ho12 2.314002 1_555
C0 Ho16 2.316893 1_555
C0 Ho0 2.492029 1_545
C0 Ho28 2.602373 1_555
C0 Ho2 2.608987 1_555
C0 Ho4 2.617367 1_555
C1 Ho15 2.314002 1_555
C1 Ho17 2.316893 1_554
C1 Ho1 2.492029 1_555
C1 Ho29 2.602373 1_555
C1 Ho3 2.608987 1_455
C1 Ho7 2.617367 1_554
C2 Ho14 2.314002 1_555
C2 Ho18 2.316893 1_555
C2 Ho2 2.492029 1_565
C2 Ho28 2.602373 1_555
C2 Ho0 2.608987 1_555
C2 Ho6 2.617367 1_555
C3 Ho13 2.314002 1_555
C3 Ho19 2.316893 1_554
C3 Ho3 2.492029 1_555
C3 Ho29 2.602373 1_665
C3 Ho1 2.608987 1_655
C3 Ho5 2.617367 1_554
C4 Ho10 2.314002 1_555
C4 Ho20 2.316893 1_555
C4 Ho4 2.492029 1_455
C4 Ho28 2.602373 1_555
C4 Ho6 2.608987 1_555
C4 Ho2 2.617367 1_555
C5 Ho9 2.314002 1_555
C5 Ho21 2.316893 1_556
C5 Ho5 2.492029 1_555
C5 Ho29 2.602373 1_566
C5 Ho7 2.608987 1_565
C5 Ho1 2.617367 1_556
C6 Ho8 2.314002 1_555
C6 Ho22 2.316893 1_555
C6 Ho6 2.492029 1_655
C6 Ho28 2.602373 1_555
C6 Ho4 2.608987 1_555
C6 Ho0 2.617367 1_555
C7 Ho11 2.314002 1_555
C7 Ho23 2.316893 1_556
C7 Ho7 2.492029 1_555
C7 Ho29 2.602373 1_656
C7 Ho5 2.608987 1_545
C7 Ho3 2.617367 1_556
C8 Ho26 2.580352 1_665
C8 Ho0 2.589782 1_555
C8 Ho8 2.598252 1_555
C8 Ho18 2.599034 1_555
C8 Ho16 2.661215 1_565
C9 Ho27 2.580352 1_555
C9 Ho1 2.589782 1_556
C9 Ho9 2.598252 1_555
C9 Ho19 2.599034 1_455
C9 Ho17 2.661215 1_555
C10 C18 1.346176 1_555
C10 Ho26 2.580352 1_555
C10 Ho2 2.589782 1_555
C10 Ho10 2.598252 1_555
C10 Ho16 2.599034 1_555
C10 Ho18 2.661215 1_545
C11 C19 1.346176 1_555
C11 Ho27 2.580352 1_555
C11 Ho3 2.589782 1_556
C11 Ho11 2.598252 1_555
C11 Ho17 2.599034 1_655
C11 Ho19 2.661215 1_555
C12 C20 1.346176 1_555
C12 Ho24 2.580352 1_655
C12 Ho4 2.589782 1_555
C12 Ho12 2.598252 1_555
C12 Ho22 2.599034 1_555
C12 Ho20 2.661215 1_655
C13 C21 1.346176 1_555
C13 Ho25 2.580352 1_555
C13 Ho5 2.589782 1_554
C13 Ho13 2.598252 1_555
C13 Ho23 2.599034 1_565
C13 Ho21 2.661215 1_555
C14 C22 1.346176 1_555
C14 Ho24 2.580352 1_565
C14 Ho6 2.589782 1_555
C14 Ho14 2.598252 1_555
C14 Ho20 2.599034 1_555
C14 Ho22 2.661215 1_455
C15 C23 1.346176 1_555
C15 Ho25 2.580352 1_555
C15 Ho7 2.589782 1_554
C15 Ho15 2.598252 1_555
C15 Ho21 2.599034 1_545
C15 Ho23 2.661215 1_555
C16 C27 1.343213 1_555
C16 C8 1.346176 1_555
C16 Ho18 2.584706 1_555
C16 Ho11 2.611082 1_565
C16 Ho8 2.748994 1_555
C16 Ho19 2.801289 1_555
C17 C26 1.343213 1_555
C17 C9 1.346176 1_555
C17 Ho19 2.584706 1_455
C17 Ho10 2.611082 1_555
C17 Ho9 2.748994 1_555
C17 Ho18 2.801289 1_555
C18 C25 1.343213 1_555
C18 Ho16 2.584706 1_555
C18 Ho9 2.611082 1_545
C18 Ho10 2.748994 1_555
C18 Ho17 2.801289 1_555
C19 C24 1.343213 1_555
C19 Ho17 2.584706 1_655
C19 Ho8 2.611082 1_555
C19 Ho11 2.748994 1_555
C19 Ho16 2.801289 1_555
C20 C31 1.343213 1_555
C20 Ho22 2.584706 1_555
C20 Ho15 2.611082 1_655
C20 Ho12 2.748994 1_555
C20 Ho23 2.801289 1_555
C21 C30 1.343213 1_555
C21 Ho23 2.584706 1_565
C21 Ho14 2.611082 1_555
C21 Ho13 2.748994 1_555
C21 Ho22 2.801289 1_555
C22 C29 1.343213 1_555
C22 Ho20 2.584706 1_555
C22 Ho13 2.611082 1_455
C22 Ho14 2.748994 1_555
C22 Ho21 2.801289 1_555
C23 C28 1.343213 1_555
C23 Ho21 2.584706 1_545
C23 Ho12 2.611082 1_555
C23 Ho15 2.748994 1_555
C23 Ho20 2.801289 1_555
C24 Ho26 2.584700 1_655
C24 Ho16 2.612108 1_555
C24 Ho8 2.625579 1_555
C24 Ho4 2.685934 1_555
C24 Ho10 2.699267 1_655
C25 Ho27 2.584700 1_555
C25 Ho17 2.612108 1_555
C25 Ho9 2.625579 1_545
C25 Ho7 2.685934 1_555
C25 Ho11 2.699267 1_555
C26 Ho26 2.584700 1_565
C26 Ho18 2.612108 1_555
C26 Ho10 2.625579 1_555
C26 Ho6 2.685934 1_555
C26 Ho8 2.699267 1_455
C27 Ho27 2.584700 1_555
C27 Ho19 2.612108 1_555
C27 Ho11 2.625579 1_565
C27 Ho5 2.685934 1_555
C27 Ho9 2.699267 1_555
C28 Ho24 2.584700 1_555
C28 Ho20 2.612108 1_555
C28 Ho12 2.625579 1_555
C28 Ho2 2.685934 1_555
C28 Ho14 2.699267 1_545
C29 Ho25 2.584700 1_555
C29 Ho21 2.612108 1_555
C29 Ho13 2.625579 1_455
C29 Ho1 2.685934 1_555
C29 Ho15 2.699267 1_555
C30 Ho24 2.584700 1_665
C30 Ho22 2.612108 1_555
C30 Ho14 2.625579 1_555
C30 Ho0 2.685934 1_555
C30 Ho12 2.699267 1_565
C31 Ho25 2.584700 1_555
C31 Ho23 2.612108 1_555
C31 Ho15 2.625579 1_655
C31 Ho3 2.685934 1_555
C31 Ho13 2.699267 1_555
C32 Ho10 2.450474 1_555
C32 Ho8 2.450474 1_555
C32 Ho18 2.457627 1_555
C32 Ho16 2.457627 1_555
C32 Ho28 2.507012 1_555
C32 Ho27 2.584166 1_555
C33 Ho11 2.450474 1_455
C33 Ho9 2.450474 1_545
C33 Ho17 2.457627 1_555
C33 Ho19 2.457627 1_445
C33 Ho29 2.507012 1_556
C33 Ho26 2.584166 1_555
C34 Ho14 2.450474 1_555
C34 Ho12 2.450474 1_555
C34 Ho22 2.457627 1_555
C34 Ho20 2.457627 1_555
C34 Ho28 2.507012 1_555
C34 Ho25 2.584166 1_555
C35 Ho15 2.450474 1_555
C35 Ho13 2.450474 1_445
C35 Ho21 2.457627 1_545
C35 Ho23 2.457627 1_455
C35 Ho29 2.507012 1_555
C35 Ho24 2.584166 1_555
C36 Ho5 2.534143 1_554
C36 Ho3 2.534143 1_555
C36 Ho1 2.534143 1_555
C36 Ho7 2.534143 1_554
C36 Ho25 2.605749 1_555
C36 Ho27 2.605749 1_554
C37 Ho4 2.534143 1_455
C37 Ho2 2.534143 1_555
C37 Ho6 2.534143 1_545
C37 Ho0 2.534143 1_445
C37 Ho26 2.605749 1_555
C37 Ho24 2.605749 1_555
