# generated using pymatgen
data_Gd2MgSe4
_symmetry_space_group_name_H-M   'P 1'
_cell_length_a   7.56869380
_cell_length_b   7.56869380
_cell_length_c   7.56869380
_cell_angle_alpha   110.66268186
_cell_angle_beta   110.66268186
_cell_angle_gamma   107.11370963
_symmetry_Int_Tables_number   1
_chemical_formula_structural   Gd2MgSe4
_chemical_formula_sum   'Gd4 Mg2 Se8'
_cell_volume   333.34347305
_cell_formula_units_Z   2
loop_
 _symmetry_equiv_pos_site_id
 _symmetry_equiv_pos_as_xyz
  1  'x, y, z'
loop_
 _atom_site_type_symbol
 _atom_site_label
 _atom_site_symmetry_multiplicity
 _atom_site_fract_x
 _atom_site_fract_y
 _atom_site_fract_z
 _atom_site_occupancy
  Gd  Gd0  1  0.87500000  0.75713000  0.38213000  1
  Gd  Gd1  1  0.50713000  0.12500000  0.88213000  1
  Gd  Gd2  1  0.37500000  0.49287000  0.61787000  1
  Gd  Gd3  1  0.24287000  0.62500000  0.11787000  1
  Mg  Mg0  1  0.00000000  0.00000000  0.00000000  1
  Mg  Mg1  1  0.75000000  0.25000000  0.50000000  1
  Se  Se0  1  0.50674700  0.37797200  0.26327700  1
  Se  Se1  1  0.75652900  0.49325300  0.87122500  1
  Se  Se2  1  0.11469500  0.24347000  0.73672300  1
  Se  Se3  1  0.62202800  0.88530500  0.12877500  1
  Se  Se4  1  0.24325300  0.00652900  0.37122500  1
  Se  Se5  1  0.99347000  0.36469500  0.23672300  1
  Se  Se6  1  0.63530500  0.87202800  0.62877500  1
  Se  Se7  1  0.12797200  0.75674700  0.76327700  1
loop_
_geom_bond_atom_site_label_1
_geom_bond_atom_site_label_2
_geom_bond_distance
_geom_bond_site_symmetry_2
Gd0 Se3 2.845887 1_555
Gd0 Se7 2.845887 1_655
Gd0 Se4 2.917926 1_665
Gd0 Se0 2.917928 1_555
Gd0 Se6 3.115328 1_555
Gd0 Se2 3.115328 1_665
Gd0 Se1 3.285473 1_554
Gd0 Se5 3.285475 1_555
Gd1 Se0 2.845887 1_556
Gd1 Se6 2.845887 1_545
Gd1 Se1 2.917926 1_555
Gd1 Se7 2.917928 1_545
Gd1 Se5 3.115328 1_556
Gd1 Se3 3.115328 1_546
Gd1 Se4 3.285473 1_555
Gd1 Se2 3.285475 1_555
Gd2 Se1 2.845882 1_555
Gd2 Se5 2.845887 1_455
Gd2 Se6 2.917928 1_555
Gd2 Se2 2.917928 1_555
Gd2 Se0 3.115328 1_555
Gd2 Se4 3.115335 1_555
Gd2 Se7 3.285475 1_555
Gd2 Se3 3.285475 1_556
Gd3 Se4 2.845882 1_565
Gd3 Se2 2.845887 1_554
Gd3 Se5 2.917928 1_455
Gd3 Se3 2.917928 1_555
Gd3 Se7 3.115328 1_554
Gd3 Se1 3.115335 1_454
Gd3 Se0 3.285475 1_555
Gd3 Se6 3.285475 1_555
Mg0 Se6 2.735729 1_444
Mg0 Se5 2.735729 1_455
Mg0 Se7 2.735729 1_544
Mg0 Se4 2.735733 1_555
Mg0 Se2 3.315231 1_554
Mg0 Se3 3.315231 1_445
Mg0 Se0 3.315231 1_555
Mg0 Se1 3.315232 1_444
Mg1 Se2 2.735729 1_655
Mg1 Se0 2.735729 1_555
Mg1 Se3 2.735729 1_545
Mg1 Se1 2.735733 1_555
Mg1 Se7 3.315231 1_655
Mg1 Se5 3.315231 1_555
Mg1 Se6 3.315231 1_545
Mg1 Se4 3.315232 1_555
