# generated using pymatgen
data_Sm2MnSbO7
_symmetry_space_group_name_H-M   'P 1'
_cell_length_a   7.41728919
_cell_length_b   7.41728919
_cell_length_c   7.41728919
_cell_angle_alpha   121.56023117
_cell_angle_beta   118.61666340
_cell_angle_gamma   89.86582571
_symmetry_Int_Tables_number   1
_chemical_formula_structural   Sm2MnSbO7
_chemical_formula_sum   'Sm4 Mn2 Sb2 O14'
_cell_volume   287.92468813
_cell_formula_units_Z   2
loop_
 _symmetry_equiv_pos_site_id
 _symmetry_equiv_pos_as_xyz
  1  'x, y, z'
loop_
 _atom_site_type_symbol
 _atom_site_label
 _atom_site_symmetry_multiplicity
 _atom_site_fract_x
 _atom_site_fract_y
 _atom_site_fract_z
 _atom_site_occupancy
  Sm  Sm0  1  0.50000000  0.50000000  0.50000000  1
  Sm  Sm1  1  0.50000000  0.00000000  0.00000000  1
  Sm  Sm2  1  0.50000000  0.50000000  0.00000000  1
  Sm  Sm3  1  0.00000000  0.50000000  0.50000000  1
  Mn  Mn0  1  0.00000000  0.00000000  0.50000000  1
  Mn  Mn1  1  0.00000000  0.50000000  0.00000000  1
  Sb  Sb0  1  0.00000000  0.00000000  0.00000000  1
  Sb  Sb1  1  0.50000000  0.00000000  0.50000000  1
  O  O0  1  0.37230900  0.62230900  0.75000000  1
  O  O1  1  0.62769100  0.37769100  0.25000000  1
  O  O2  1  0.32550400  0.07550400  0.25000000  1
  O  O3  1  0.92111200  0.67111200  0.25000000  1
  O  O4  1  0.34082600  0.67054200  0.26149300  1
  O  O5  1  0.90904900  0.07933300  0.23850700  1
  O  O6  1  0.34082600  0.07933300  0.67028400  1
  O  O7  1  0.90904900  0.67054200  0.82971600  1
  O  O8  1  0.67449600  0.92449600  0.75000000  1
  O  O9  1  0.07888800  0.32888800  0.75000000  1
  O  O10  1  0.65917400  0.32945800  0.73850700  1
  O  O11  1  0.09095100  0.92066700  0.76149300  1
  O  O12  1  0.65917400  0.92066700  0.32971600  1
  O  O13  1  0.09095100  0.32945800  0.17028400  1
loop_
_geom_bond_atom_site_label_1
_geom_bond_atom_site_label_2
_geom_bond_distance
_geom_bond_site_symmetry_2
Mn0 O9 1.990979 1_555
Mn0 O3 1.990979 1_445
Mn0 O6 2.121975 1_555
Mn0 O5 2.121975 1_455
Mn0 O11 2.121975 1_545
Mn0 O12 2.121975 1_445
Mn1 O9 1.990979 1_554
Mn1 O3 1.990979 1_455
Mn1 O4 2.121975 1_555
Mn1 O13 2.121975 1_555
Mn1 O7 2.121975 1_454
Mn1 O10 2.121975 1_454
O0 Sm0 2.252977 1_555
O0 Sm1 2.252977 1_566
O0 Sm3 2.287613 1_555
O0 Sm2 2.287613 1_556
O1 Sm0 2.252977 1_555
O1 Sm1 2.252977 1_555
O1 Sm2 2.287613 1_555
O1 Sm3 2.287613 1_655
O2 Sb0 2.052325 1_555
O2 Sb1 2.052325 1_555
O2 Sm0 2.576011 1_555
O2 Sm1 2.576011 1_555
O3 Sm2 2.610078 1_555
O3 Sm3 2.610078 1_655
O4 Sb1 1.995649 1_565
O4 Sm2 2.524719 1_555
O4 Sm0 2.541354 1_555
O5 Sb0 1.995649 1_655
O5 Sm3 2.524719 1_655
O5 Sm1 2.541354 1_555
O6 Sb1 1.995649 1_555
O6 Sm2 2.524719 1_556
O6 Sm1 2.541354 1_556
O7 Sb0 1.995649 1_666
O7 Sm3 2.524719 1_655
O7 Sm0 2.541354 1_555
O8 Sb0 2.052325 1_666
O8 Sb1 2.052325 1_565
O8 Sm0 2.576011 1_555
O8 Sm1 2.576011 1_566
O9 Sm2 2.610078 1_556
O9 Sm3 2.610078 1_555
O10 Sb1 1.995649 1_555
O10 Sm2 2.524719 1_556
O10 Sm0 2.541354 1_555
O11 Sb0 1.995649 1_566
O11 Sm3 2.524719 1_555
O11 Sm1 2.541354 1_566
O12 Sb1 1.995649 1_565
O12 Sm2 2.524719 1_555
O12 Sm1 2.541354 1_565
O13 Sb0 1.995649 1_555
O13 Sm3 2.524719 1_555
O13 Sm0 2.541354 1_555
