# generated using pymatgen
data_LaVO3
_symmetry_space_group_name_H-M   'P 1'
_cell_length_a   5.62405784
_cell_length_b   7.70670868
_cell_length_c   5.57144366
_cell_angle_alpha   90.01129201
_cell_angle_beta   90.00250722
_cell_angle_gamma   89.83997778
_symmetry_Int_Tables_number   1
_chemical_formula_structural   LaVO3
_chemical_formula_sum   'La4 V4 O12'
_cell_volume   241.48199885
_cell_formula_units_Z   4
loop_
 _symmetry_equiv_pos_site_id
 _symmetry_equiv_pos_as_xyz
  1  'x, y, z'
loop_
 _atom_site_type_symbol
 _atom_site_label
 _atom_site_symmetry_multiplicity
 _atom_site_fract_x
 _atom_site_fract_y
 _atom_site_fract_z
 _atom_site_occupancy
  La  La0  1  0.96436068  0.74974283  0.00847536  1
  La  La1  1  0.53559315  0.25017043  0.50836341  1
  La  La2  1  0.46439329  0.74983753  0.49163055  1
  La  La3  1  0.03564817  0.25025137  0.99152735  1
  V  V0  1  0.50000682  0.50000272  0.00000063  1
  V  V1  1  0.49999895  -0.00000098  0.00000086  1
  V  V2  1  0.00000241  0.50000031  0.49999893  1
  V  V3  1  -0.00000483  0.00000076  0.49999909  1
  O  O0  1  0.48875340  0.24999860  0.06864887  1
  O  O1  1  0.01125215  0.74999164  0.56871463  1
  O  O2  1  0.98874490  0.25000723  0.43128466  1
  O  O3  1  0.51124553  0.75000175  0.93135140  1
  O  O4  1  0.20835504  0.96192501  0.21613850  1
  O  O5  1  0.29163626  0.03804867  0.71608355  1
  O  O6  1  0.71692608  0.53801119  0.29126762  1
  O  O7  1  0.78304057  0.46203178  0.79128590  1
  O  O8  1  0.79164417  0.03807486  0.78386060  1
  O  O9  1  0.70836237  0.96195472  0.28391537  1
  O  O10  1  0.28307230  0.46198902  0.70874194  1
  O  O11  1  0.21696760  0.53796055  0.20871180  1
loop_
_geom_bond_atom_site_label_1
_geom_bond_atom_site_label_2
_geom_bond_distance
_geom_bond_site_symmetry_2
La0 O4 2.430486 1_655
La0 O11 2.431958 1_655
La0 O1 2.464267 1_654
La0 O3 2.584295 1_554
La0 O9 2.662449 1_555
La0 O6 2.663722 1_555
La0 O7 2.726179 1_554
La0 O8 2.726949 1_564
La1 O5 2.430568 1_555
La1 O10 2.431988 1_555
La1 O0 2.463956 1_555
La1 O2 2.584495 1_555
La1 O8 2.662542 1_555
La1 O7 2.664351 1_555
La1 O9 2.725535 1_545
La1 O6 2.727216 1_555
La2 O9 2.430570 1_555
La2 O6 2.432028 1_555
La2 O3 2.463999 1_555
La2 O1 2.584441 1_555
La2 O4 2.662449 1_555
La2 O11 2.664348 1_555
La2 O5 2.725495 1_565
La2 O10 2.727278 1_555
La3 O8 2.430497 1_455
La3 O7 2.431963 1_455
La3 O2 2.464256 1_456
La3 O0 2.584238 1_556
La3 O5 2.662387 1_555
La3 O10 2.663697 1_555
La3 O11 2.726153 1_556
La3 O4 2.726885 1_546
O0 V1 1.965041 1_555
O0 V0 1.965571 1_555
O1 V3 1.965335 1_565
O1 V2 1.965398 1_555
O2 V3 1.965313 1_655
O2 V2 1.965411 1_655
O3 V1 1.965025 1_566
O3 V0 1.965531 1_556
O4 V3 1.989605 1_565
O4 V1 2.056580 1_565
O5 V1 1.989847 1_556
O5 V3 2.056213 1_555
O6 V2 1.992531 1_655
O6 V0 2.051625 1_555
O7 V0 1.992256 1_556
O7 V2 2.051986 1_655
O8 V3 1.989578 1_655
O8 V1 2.056597 1_556
O9 V1 1.989831 1_565
O9 V3 2.056172 1_665
O10 V2 1.992541 1_555
O10 V0 2.051645 1_556
O11 V0 1.992254 1_555
O11 V2 2.051989 1_555
