# generated using pymatgen
data_Ce4CdPd
_symmetry_space_group_name_H-M   'P 1'
_cell_length_a   9.85754795
_cell_length_b   9.85754795
_cell_length_c   9.85754795
_cell_angle_alpha   60.00000000
_cell_angle_beta   60.00000000
_cell_angle_gamma   60.00000000
_symmetry_Int_Tables_number   1
_chemical_formula_structural   Ce4CdPd
_chemical_formula_sum   'Ce16 Cd4 Pd4'
_cell_volume   677.31656436
_cell_formula_units_Z   4
loop_
 _symmetry_equiv_pos_site_id
 _symmetry_equiv_pos_as_xyz
  1  'x, y, z'
loop_
 _atom_site_type_symbol
 _atom_site_label
 _atom_site_symmetry_multiplicity
 _atom_site_fract_x
 _atom_site_fract_y
 _atom_site_fract_z
 _atom_site_occupancy
  Ce  Ce0  1  0.35433000  0.35433000  0.35433000  1
  Ce  Ce1  1  0.35433000  0.35433000  0.93701100  1
  Ce  Ce2  1  0.35433000  0.93701100  0.35433000  1
  Ce  Ce3  1  0.93701100  0.35433000  0.35433000  1
  Ce  Ce4  1  0.80342700  0.19657300  0.19657300  1
  Ce  Ce5  1  0.19657300  0.80342700  0.80342700  1
  Ce  Ce6  1  0.19657300  0.80342700  0.19657300  1
  Ce  Ce7  1  0.80342700  0.19657300  0.80342700  1
  Ce  Ce8  1  0.19657300  0.19657300  0.80342700  1
  Ce  Ce9  1  0.80342700  0.80342700  0.19657300  1
  Ce  Ce10  1  0.93528500  0.56471500  0.56471500  1
  Ce  Ce11  1  0.56471500  0.93528500  0.93528500  1
  Ce  Ce12  1  0.56471500  0.93528500  0.56471500  1
  Ce  Ce13  1  0.93528500  0.56471500  0.93528500  1
  Ce  Ce14  1  0.56471500  0.56471500  0.93528500  1
  Ce  Ce15  1  0.93528500  0.93528500  0.56471500  1
  Cd  Cd0  1  0.57967600  0.57967600  0.57967600  1
  Cd  Cd1  1  0.57967600  0.57967600  0.26097200  1
  Cd  Cd2  1  0.57967600  0.26097200  0.57967600  1
  Cd  Cd3  1  0.26097200  0.57967600  0.57967600  1
  Pd  Pd0  1  0.14332800  0.14332800  0.14332800  1
  Pd  Pd1  1  0.14332800  0.14332800  0.57001500  1
  Pd  Pd2  1  0.14332800  0.57001500  0.14332800  1
  Pd  Pd3  1  0.57001500  0.14332800  0.14332800  1
loop_
_geom_bond_atom_site_label_1
_geom_bond_atom_site_label_2
_geom_bond_distance
_geom_bond_site_symmetry_2
Ce0 Pd3 2.941873 1_555
Ce0 Pd1 2.941873 1_555
Ce0 Pd2 2.941873 1_555
Ce1 Pd3 2.941859 1_556
Ce1 Pd2 2.941859 1_556
Ce1 Pd0 2.941873 1_556
Ce2 Pd1 2.941859 1_565
Ce2 Pd3 2.941859 1_565
Ce2 Pd0 2.941873 1_565
Ce3 Pd1 2.941859 1_655
Ce3 Pd2 2.941859 1_655
Ce3 Pd0 2.941873 1_655
Ce4 Pd0 2.921590 1_655
Ce4 Pd3 2.921600 1_555
Ce5 Pd1 2.921593 1_565
Ce5 Pd2 2.921593 1_556
Ce6 Pd0 2.921590 1_565
Ce6 Pd2 2.921600 1_555
Ce7 Pd3 2.921593 1_556
Ce7 Pd1 2.921593 1_655
Ce8 Pd0 2.921590 1_556
Ce8 Pd1 2.921600 1_555
Ce9 Pd2 2.921593 1_655
Ce9 Pd3 2.921593 1_565
Ce10 Pd2 3.582505 1_655
Ce10 Pd1 3.582505 1_655
Ce11 Pd3 3.582497 1_566
Ce11 Pd0 3.582503 1_566
Ce12 Pd3 3.582505 1_565
Ce12 Pd1 3.582505 1_565
Ce13 Pd2 3.582497 1_656
Ce13 Pd0 3.582503 1_656
Ce14 Pd2 3.582505 1_556
Ce14 Pd3 3.582505 1_556
Ce15 Pd1 3.582497 1_665
Ce15 Pd0 3.582503 1_665
Cd0 Cd2 3.141640 1_555
Cd0 Cd3 3.141640 1_555
Cd0 Cd1 3.141640 1_555
Cd0 Ce10 3.364425 1_555
Cd0 Ce14 3.364425 1_555
Cd0 Ce12 3.364425 1_555
Cd0 Ce3 3.400250 1_555
Cd0 Ce2 3.400250 1_555
Cd0 Ce1 3.400250 1_555
Cd0 Ce5 3.492440 1_555
Cd0 Ce7 3.492440 1_555
Cd0 Ce9 3.492440 1_555
Cd1 Cd2 3.141640 1_555
Cd1 Cd3 3.141640 1_555
Cd1 Ce13 3.364425 1_554
Cd1 Ce11 3.364425 1_554
Cd1 Ce14 3.364425 1_554
Cd1 Ce0 3.400246 1_555
Cd1 Ce2 3.400255 1_555
Cd1 Ce3 3.400255 1_555
Cd1 Ce6 3.492440 1_555
Cd1 Ce4 3.492440 1_555
Cd1 Ce9 3.492440 1_555
Cd2 Cd3 3.141640 1_555
Cd2 Ce15 3.364425 1_545
Cd2 Ce11 3.364425 1_545
Cd2 Ce12 3.364425 1_545
Cd2 Ce0 3.400246 1_555
Cd2 Ce3 3.400255 1_555
Cd2 Ce1 3.400255 1_555
Cd2 Ce4 3.492440 1_555
Cd2 Ce8 3.492440 1_555
Cd2 Ce7 3.492440 1_555
Cd3 Ce13 3.364425 1_455
Cd3 Ce15 3.364425 1_455
Cd3 Ce10 3.364425 1_455
Cd3 Ce0 3.400246 1_555
Cd3 Ce2 3.400255 1_555
Cd3 Ce1 3.400255 1_555
Cd3 Ce6 3.492440 1_555
Cd3 Ce8 3.492440 1_555
Cd3 Ce5 3.492440 1_555
