# generated using pymatgen
data_Te2Mo3W(SeS2)2
_symmetry_space_group_name_H-M   'P 1'
_cell_length_a   3.31171447
_cell_length_b   3.31171447
_cell_length_c   39.12188100
_cell_angle_alpha   90.00000000
_cell_angle_beta   90.00000000
_cell_angle_gamma   120.00000945
_symmetry_Int_Tables_number   1
_chemical_formula_structural   Te2Mo3W(SeS2)2
_chemical_formula_sum   'Te2 Mo3 W1 Se2 S4'
_cell_volume   371.58321680
_cell_formula_units_Z   1
loop_
 _symmetry_equiv_pos_site_id
 _symmetry_equiv_pos_as_xyz
  1  'x, y, z'
loop_
 _atom_site_type_symbol
 _atom_site_label
 _atom_site_symmetry_multiplicity
 _atom_site_fract_x
 _atom_site_fract_y
 _atom_site_fract_z
 _atom_site_occupancy
  Te  Te0  1  0.00000000  0.00000000  0.70849300  1
  Te  Te1  1  0.00000000  0.00000000  0.61025000  1
  Mo  Mo0  1  0.00000000  0.00000000  0.09371100  1
  Mo  Mo1  1  0.00000000  0.00000000  0.46816700  1
  Mo  Mo2  1  0.33333300  0.66666700  0.28165700  1
  W  W0  1  0.33333300  0.66666700  0.65938800  1
  Se  Se0  1  0.33333300  0.66666700  0.42527400  1
  Se  Se1  1  0.33333300  0.66666700  0.51107900  1
  S  S0  1  0.00000000  0.00000000  0.32071700  1
  S  S1  1  0.33333300  0.66666700  0.05466000  1
  S  S2  1  0.33333300  0.66666700  0.13276000  1
  S  S3  1  0.00000000  0.00000000  0.24259300  1
loop_
_geom_bond_atom_site_label_1
_geom_bond_atom_site_label_2
_geom_bond_distance
_geom_bond_site_symmetry_2
Te0 W0 2.710417 1_545
Te0 W0 2.710419 1_555
Te0 W0 2.710419 1_445
Te1 W0 2.711332 1_545
Te1 W0 2.711334 1_555
Te1 W0 2.711334 1_445
Mo0 S2 2.447363 1_545
Mo0 S2 2.447365 1_555
Mo0 S2 2.447365 1_445
Mo0 S1 2.447412 1_545
Mo0 S1 2.447414 1_445
Mo0 S1 2.447414 1_555
Mo1 Se0 2.543949 1_545
Mo1 Se0 2.543951 1_555
Mo1 Se0 2.543951 1_445
Mo1 Se1 2.544440 1_545
Mo1 Se1 2.544442 1_445
Mo1 Se1 2.544442 1_555
Mo2 S0 2.447632 1_565
Mo2 S0 2.447634 1_555
Mo2 S0 2.447634 1_665
Mo2 S3 2.447730 1_565
Mo2 S3 2.447732 1_555
Mo2 S3 2.447732 1_665
