# generated using pymatgen
data_Lu2NiGe6
_symmetry_space_group_name_H-M   'P 1'
_cell_length_a   4.00239400
_cell_length_b   3.98273800
_cell_length_c   10.76081990
_cell_angle_alpha   100.66447705
_cell_angle_beta   90.00000000
_cell_angle_gamma   90.00000000
_symmetry_Int_Tables_number   1
_chemical_formula_structural   Lu2NiGe6
_chemical_formula_sum   'Lu2 Ni1 Ge6'
_cell_volume   168.56994520
_cell_formula_units_Z   1
loop_
 _symmetry_equiv_pos_site_id
 _symmetry_equiv_pos_as_xyz
  1  'x, y, z'
loop_
 _atom_site_type_symbol
 _atom_site_label
 _atom_site_symmetry_multiplicity
 _atom_site_fract_x
 _atom_site_fract_y
 _atom_site_fract_z
 _atom_site_occupancy
  Lu  Lu0  1  0.50000000  0.22333400  0.44666900  1
  Lu  Lu1  1  0.50000000  0.88615300  0.77230500  1
  Ni  Ni0  1  0.00000000  0.44320600  0.88641300  1
  Ge  Ge0  1  0.50000000  0.50182700  0.00365400  1
  Ge  Ge1  1  0.50000000  0.61991000  0.23982100  1
  Ge  Ge2  1  0.00000000  0.00186200  0.00372400  1
  Ge  Ge3  1  0.00000000  0.12084000  0.24168000  1
  Ge  Ge4  1  0.00000000  0.33583500  0.67167000  1
  Ge  Ge5  1  0.00000000  0.76003200  0.52006400  1
loop_
_geom_bond_atom_site_label_1
_geom_bond_atom_site_label_2
_geom_bond_distance
_geom_bond_site_symmetry_2
Lu1 Ni0 3.070247 1_665
Lu1 Ni0 3.070247 1_565
Lu1 Ni0 3.070252 1_655
Lu1 Ni0 3.070252 1_555
Ge0 Ni0 2.354132 1_654
Ge0 Ni0 2.354132 1_554
Ge0 Ge1 2.497456 1_555
Ge0 Ge2 2.823179 1_665
Ge0 Ge2 2.823179 1_565
Ge0 Ge2 2.823179 1_555
Ge0 Ge2 2.823179 1_655
Ge0 Lu1 3.154510 1_544
Ge0 Lu1 3.154512 1_554
Ge1 Ge3 2.823246 1_555
Ge1 Ge3 2.823246 1_655
Ge1 Ge3 2.823249 1_565
Ge1 Ge3 2.823249 1_665
Ge1 Lu0 2.958092 1_565
Ge1 Lu0 2.958092 1_555
Ge2 Ni0 2.346173 1_554
Ge2 Ni0 2.346177 1_544
Ge2 Ge3 2.516374 1_555
Ge2 Lu1 3.161297 1_544
Ge2 Lu1 3.161297 1_444
Ge3 Lu0 2.950242 1_455
Ge3 Lu0 2.950242 1_555
Ge4 Ni0 2.270898 1_555
Ge4 Ge5 2.556538 1_555
Ge4 Ge5 2.556538 1_545
Ge4 Lu1 3.017097 1_545
Ge4 Lu1 3.017097 1_445
Ge4 Lu1 3.017100 1_555
Ge4 Lu1 3.017100 1_455
Ge4 Lu0 3.109054 1_455
Ge4 Lu0 3.109054 1_555
Ge5 Lu0 2.927924 1_465
Ge5 Lu0 2.927924 1_565
Ge5 Lu0 2.927927 1_455
Ge5 Lu0 2.927927 1_555
Ge5 Lu1 3.334668 1_455
Ge5 Lu1 3.334668 1_555
