# generated using pymatgen
data_SrIn5
_symmetry_space_group_name_H-M   'P 1'
_cell_length_a   6.40854098
_cell_length_b   6.40854098
_cell_length_c   5.17179300
_cell_angle_alpha   90.00000000
_cell_angle_beta   90.00000000
_cell_angle_gamma   119.99998951
_symmetry_Int_Tables_number   1
_chemical_formula_structural   SrIn5
_chemical_formula_sum   'Sr1 In5'
_cell_volume   183.94591335
_cell_formula_units_Z   1
loop_
 _symmetry_equiv_pos_site_id
 _symmetry_equiv_pos_as_xyz
  1  'x, y, z'
loop_
 _atom_site_type_symbol
 _atom_site_label
 _atom_site_symmetry_multiplicity
 _atom_site_fract_x
 _atom_site_fract_y
 _atom_site_fract_z
 _atom_site_occupancy
  Sr  Sr0  1  0.00000000  0.00000000  0.00000000  1
  In  In0  1  0.50000000  0.00000000  0.50000000  1
  In  In1  1  0.00000000  0.50000000  0.50000000  1
  In  In2  1  0.50000000  0.50000000  0.50000000  1
  In  In3  1  0.33333300  0.66666700  0.00000000  1
  In  In4  1  0.66666700  0.33333300  0.00000000  1
loop_
_geom_bond_atom_site_label_1
_geom_bond_atom_site_label_2
_geom_bond_distance
_geom_bond_site_symmetry_2
In0 In3 3.179513 1_545
In0 In4 3.179513 1_556
In0 In4 3.179513 1_555
In0 In3 3.179513 1_546
In0 In2 3.204270 1_555
In0 In2 3.204270 1_545
In0 In1 3.204271 1_545
In0 In1 3.204271 1_655
In1 In3 3.179513 1_555
In1 In3 3.179513 1_556
In1 In4 3.179513 1_455
In1 In4 3.179513 1_456
In1 In2 3.204270 1_455
In1 In2 3.204270 1_555
In2 In3 3.179516 1_555
In2 In3 3.179516 1_556
In2 In4 3.179516 1_556
In2 In4 3.179516 1_555
In3 Sr0 3.699969 1_565
In3 Sr0 3.699975 1_665
In3 Sr0 3.699975 1_555
In4 Sr0 3.699969 1_655
In4 Sr0 3.699975 1_665
In4 Sr0 3.699975 1_555
