# generated using pymatgen
data_MoW11O36
_symmetry_space_group_name_H-M   'P 1'
_cell_length_a   3.86144700
_cell_length_b   7.50697000
_cell_length_c   25.99736700
_cell_angle_alpha   90.00000000
_cell_angle_beta   90.00000000
_cell_angle_gamma   90.00000000
_symmetry_Int_Tables_number   1
_chemical_formula_structural   MoW11O36
_chemical_formula_sum   'Mo1 W11 O36'
_cell_volume   753.60561164
_cell_formula_units_Z   1
loop_
 _symmetry_equiv_pos_site_id
 _symmetry_equiv_pos_as_xyz
  1  'x, y, z'
loop_
 _atom_site_type_symbol
 _atom_site_label
 _atom_site_symmetry_multiplicity
 _atom_site_fract_x
 _atom_site_fract_y
 _atom_site_fract_z
 _atom_site_occupancy
  Mo  Mo0  1  0.00000000  0.00000000  0.50000000  1
  W  W0  1  0.00000000  0.50000000  0.24898700  1
  W  W1  1  0.00000000  0.50000000  0.75101300  1
  W  W2  1  0.00000000  0.25055100  0.12408300  1
  W  W3  1  0.00000000  0.74944900  0.87591700  1
  W  W4  1  0.00000000  0.74944900  0.12408300  1
  W  W5  1  0.00000000  0.25055100  0.87591700  1
  W  W6  1  0.00000000  0.00000000  0.00000000  1
  W  W7  1  0.00000000  0.24988400  0.37426400  1
  W  W8  1  0.00000000  0.75011600  0.62573600  1
  W  W9  1  0.00000000  0.75011600  0.37426400  1
  W  W10  1  0.00000000  0.24988400  0.62573600  1
  O  O0  1  0.00000000  0.50000000  0.10549300  1
  O  O1  1  0.00000000  0.50000000  0.89450700  1
  O  O2  1  0.00000000  0.00000000  0.14161900  1
  O  O3  1  0.00000000  0.00000000  0.85838100  1
  O  O4  1  0.00000000  0.32076900  0.19570000  1
  O  O5  1  0.00000000  0.67923100  0.80430000  1
  O  O6  1  0.00000000  0.67923100  0.19570000  1
  O  O7  1  0.00000000  0.32076900  0.80430000  1
  O  O8  1  0.00000000  0.17707800  0.44584900  1
  O  O9  1  0.00000000  0.82292200  0.55415100  1
  O  O10  1  0.00000000  0.82292200  0.44584900  1
  O  O11  1  0.00000000  0.17707800  0.55415100  1
  O  O12  1  0.50000000  0.00000000  0.00000000  1
  O  O13  1  0.00000000  0.50000000  0.39306000  1
  O  O14  1  0.00000000  0.50000000  0.60694000  1
  O  O15  1  0.00000000  0.00000000  0.35592300  1
  O  O16  1  0.00000000  0.00000000  0.64407700  1
  O  O17  1  0.00000000  0.32058900  0.30253000  1
  O  O18  1  0.00000000  0.67941100  0.69747000  1
  O  O19  1  0.00000000  0.67941100  0.30253000  1
  O  O20  1  0.00000000  0.32058900  0.69747000  1
  O  O21  1  0.00000000  0.18067800  0.05280500  1
  O  O22  1  0.00000000  0.81932200  0.94719500  1
  O  O23  1  0.00000000  0.81932200  0.05280500  1
  O  O24  1  0.00000000  0.18067800  0.94719500  1
  O  O25  1  0.50000000  0.24901100  0.37359700  1
  O  O26  1  0.50000000  0.75098900  0.62640300  1
  O  O27  1  0.50000000  0.75098900  0.37359700  1
  O  O28  1  0.50000000  0.24901100  0.62640300  1
  O  O29  1  0.50000000  0.50000000  0.24844900  1
  O  O30  1  0.50000000  0.50000000  0.75155100  1
  O  O31  1  0.50000000  0.25127000  0.12430700  1
  O  O32  1  0.50000000  0.74873000  0.87569300  1
  O  O33  1  0.50000000  0.74873000  0.12430700  1
  O  O34  1  0.50000000  0.25127000  0.87569300  1
  O  O35  1  0.50000000  0.00000000  0.50000000  1
loop_
_geom_bond_atom_site_label_1
_geom_bond_atom_site_label_2
_geom_bond_distance
_geom_bond_site_symmetry_2
Mo0 O35 1.930724 1_455
Mo0 O35 1.930724 1_555
Mo0 O11 1.936219 1_555
Mo0 O8 1.936219 1_555
Mo0 O9 1.936219 1_545
Mo0 O10 1.936219 1_545
O0 W4 1.933966 1_555
O0 W2 1.933966 1_555
O1 W3 1.933966 1_555
O1 W5 1.933966 1_555
O2 W2 1.935340 1_555
O2 W4 1.935340 1_545
O3 W5 1.935340 1_555
O3 W3 1.935340 1_545
O4 W0 1.931175 1_555
O4 W2 1.935034 1_555
O5 W1 1.931175 1_555
O5 W3 1.935034 1_555
O6 W0 1.931175 1_555
O6 W4 1.935034 1_555
O7 W1 1.931175 1_555
O7 W5 1.935034 1_555
O8 W7 1.939619 1_555
O9 W8 1.939619 1_555
O10 W9 1.939619 1_555
O11 W10 1.939619 1_555
O12 W6 1.930724 1_655
O12 W6 1.930724 1_555
O13 W9 1.940156 1_555
O13 W7 1.940156 1_555
O14 W8 1.940156 1_555
O14 W10 1.940156 1_555
O15 W9 1.935523 1_545
O15 W7 1.935523 1_555
O16 W10 1.935523 1_555
O16 W8 1.935523 1_545
O17 W0 1.936894 1_555
O17 W7 1.938959 1_555
O18 W1 1.936894 1_555
O18 W8 1.938959 1_555
O19 W0 1.936894 1_555
O19 W9 1.938959 1_555
O20 W1 1.936894 1_555
O20 W10 1.938959 1_555
O21 W2 1.925849 1_555
O21 W6 1.929825 1_555
O22 W3 1.925849 1_555
O22 W6 1.929825 1_566
O23 W4 1.925849 1_555
O23 W6 1.929825 1_565
O24 W5 1.925849 1_555
O24 W6 1.929825 1_556
O25 W7 1.930812 1_555
O25 W7 1.930812 1_655
O26 W8 1.930812 1_655
O26 W8 1.930812 1_555
O27 W9 1.930812 1_555
O27 W9 1.930812 1_655
O28 W10 1.930812 1_655
O28 W10 1.930812 1_555
O29 W0 1.930774 1_555
O29 W0 1.930774 1_655
O30 W1 1.930774 1_655
O30 W1 1.930774 1_555
O31 W2 1.930740 1_555
O31 W2 1.930740 1_655
O32 W3 1.930740 1_655
O32 W3 1.930740 1_555
O33 W4 1.930740 1_555
O33 W4 1.930740 1_655
O34 W5 1.930740 1_555
O34 W5 1.930740 1_655
