# generated using pymatgen
data_BaBe2Si2O7
_symmetry_space_group_name_H-M   'P 1'
_cell_length_a   4.67121500
_cell_length_b   4.91484483
_cell_length_c   11.65117595
_cell_angle_alpha   90.00000000
_cell_angle_beta   90.00000000
_cell_angle_gamma   90.00000000
_symmetry_Int_Tables_number   1
_chemical_formula_structural   BaBe2Si2O7
_chemical_formula_sum   'Ba2 Be4 Si4 O14'
_cell_volume   267.49115661
_cell_formula_units_Z   2
loop_
 _symmetry_equiv_pos_site_id
 _symmetry_equiv_pos_as_xyz
  1  'x, y, z'
loop_
 _atom_site_type_symbol
 _atom_site_label
 _atom_site_symmetry_multiplicity
 _atom_site_fract_x
 _atom_site_fract_y
 _atom_site_fract_z
 _atom_site_occupancy
  Ba  Ba0  1  0.01083423  0.20458697  -0.00000000  1
  Ba  Ba1  1  0.51083423  0.79541303  0.50000000  1
  Be  Be0  1  0.51716065  0.16835545  0.74867879  1
  Be  Be1  1  0.01716065  0.83164455  0.75132121  1
  Be  Be2  1  0.51716065  0.16835545  0.25132121  1
  Be  Be3  1  0.01716065  0.83164455  0.24867879  1
  Si  Si0  1  0.03110991  0.32491803  0.62846839  1
  Si  Si1  1  0.53110991  0.67508197  0.87153161  1
  Si  Si2  1  0.53110991  0.67508197  0.12846839  1
  Si  Si3  1  0.03110991  0.32491803  0.37153161  1
  O  O0  1  0.41899554  0.77262965  -0.00000000  1
  O  O1  1  0.91899554  0.22737035  0.50000000  1
  O  O2  1  0.37017384  0.26853856  0.36725213  1
  O  O3  1  0.87017384  0.73146144  0.13274787  1
  O  O4  1  0.37017384  0.26853856  0.63274787  1
  O  O5  1  0.87017384  0.73146144  0.86725213  1
  O  O6  1  0.96388864  0.64449278  0.35994607  1
  O  O7  1  0.46388864  0.35550722  0.14005393  1
  O  O8  1  0.46388864  0.35550722  0.85994607  1
  O  O9  1  0.96388864  0.64449278  0.64005393  1
  O  O10  1  0.36795308  0.86681895  0.22260585  1
  O  O11  1  0.86795308  0.13318105  0.27739415  1
  O  O12  1  0.86795308  0.13318105  0.72260585  1
  O  O13  1  0.36795308  0.86681895  0.77739415  1
loop_
_geom_bond_atom_site_label_1
_geom_bond_atom_site_label_2
_geom_bond_distance
_geom_bond_site_symmetry_2
Ba0 O8 2.773396 1_554
Ba0 O7 2.773396 1_555
Ba0 O0 2.853472 1_545
Ba0 O3 2.868990 1_445
Ba0 O5 2.868990 1_444
Ba0 O5 3.086980 1_454
Ba0 O3 3.086980 1_455
Ba0 O8 3.120971 1_454
Ba0 O7 3.120971 1_455
Ba1 O6 2.773396 1_555
Ba1 O9 2.773396 1_555
Ba1 O1 2.853472 1_565
Ba1 O2 2.868990 1_565
Ba1 O4 2.868990 1_565
Ba1 O4 3.086980 1_555
Ba1 O2 3.086980 1_555
Ba1 O9 3.120971 1_455
Ba1 O6 3.120971 1_455
Be0 O4 1.593219 1_555
Be0 O8 1.608924 1_555
Be0 O13 1.671543 1_545
Be0 O12 1.675490 1_555
Be1 O5 1.593219 1_455
Be1 O9 1.608924 1_455
Be1 O12 1.671543 1_465
Be1 O13 1.675490 1_555
Be2 O2 1.593219 1_555
Be2 O7 1.608924 1_555
Be2 O10 1.671543 1_545
Be2 O11 1.675490 1_555
Be3 O3 1.593219 1_455
Be3 O6 1.608924 1_455
Be3 O11 1.671543 1_465
Be3 O10 1.675490 1_555
O0 Si1 1.656672 1_554
O0 Si2 1.656672 1_555
O1 Si0 1.656672 1_655
O1 Si3 1.656672 1_655
O2 Si3 1.608670 1_555
O3 Si2 1.608670 1_555
O4 Si0 1.608670 1_555
O5 Si1 1.608670 1_555
O6 Si3 1.607418 1_655
O7 Si2 1.607418 1_555
O8 Si1 1.607418 1_555
O9 Si0 1.607418 1_655
O10 Si2 1.634593 1_555
O11 Si3 1.634593 1_655
O12 Si0 1.634593 1_655
O13 Si1 1.634593 1_555
