# generated using pymatgen
data_Ba3(MnN2)2
_symmetry_space_group_name_H-M   'P 1'
_cell_length_a   7.66442658
_cell_length_b   8.91688756
_cell_length_c   5.70231345
_cell_angle_alpha   89.99999665
_cell_angle_beta   92.22752865
_cell_angle_gamma   125.57063247
_symmetry_Int_Tables_number   1
_chemical_formula_structural   Ba3(MnN2)2
_chemical_formula_sum   'Ba6 Mn4 N8'
_cell_volume   316.62944664
_cell_formula_units_Z   2
loop_
 _symmetry_equiv_pos_site_id
 _symmetry_equiv_pos_as_xyz
  1  'x, y, z'
loop_
 _atom_site_type_symbol
 _atom_site_label
 _atom_site_symmetry_multiplicity
 _atom_site_fract_x
 _atom_site_fract_y
 _atom_site_fract_z
 _atom_site_occupancy
  Ba  Ba0  1  0.25817300  0.99585600  0.05718100  1
  Ba  Ba1  1  0.74182700  0.73768300  0.44281900  1
  Ba  Ba2  1  0.74182700  0.00414400  0.94281900  1
  Ba  Ba3  1  0.25817300  0.26231700  0.55718100  1
  Ba  Ba4  1  0.00000000  0.59558500  0.75000000  1
  Ba  Ba5  1  0.00000000  0.40441500  0.25000000  1
  Mn  Mn0  1  0.57201600  0.16150200  0.56219500  1
  Mn  Mn1  1  0.42798400  0.58948500  0.93780500  1
  Mn  Mn2  1  0.42798400  0.83849800  0.43780500  1
  Mn  Mn3  1  0.57201600  0.41051500  0.06219500  1
  N  N0  1  0.28831500  0.94674800  0.53764300  1
  N  N1  1  0.71168500  0.65843200  0.96235700  1
  N  N2  1  0.71168500  0.05325200  0.46235700  1
  N  N3  1  0.28831500  0.34156800  0.03764300  1
  N  N4  1  0.61943300  0.27022300  0.86167500  1
  N  N5  1  0.38056700  0.65079100  0.63832500  1
  N  N6  1  0.38056700  0.72977700  0.13832500  1
  N  N7  1  0.61943300  0.34920900  0.36167500  1
loop_
_geom_bond_atom_site_label_1
_geom_bond_atom_site_label_2
_geom_bond_distance
_geom_bond_site_symmetry_2
Ba0 N4 2.693282 1_564
Ba0 N0 2.796393 1_555
Ba0 N3 2.956709 1_565
Ba0 N0 3.031968 1_554
Ba0 N6 3.046138 1_555
Ba1 N5 2.693284 1_555
Ba1 N1 2.796395 1_554
Ba1 N2 2.956700 1_565
Ba1 N1 3.031969 1_555
Ba1 N7 3.046146 1_555
Ba2 N6 2.693282 1_546
Ba2 N2 2.796393 1_555
Ba2 N1 2.956709 1_545
Ba2 N2 3.031968 1_556
Ba2 N4 3.046138 1_555
Ba3 N7 2.693284 1_555
Ba3 N3 2.796395 1_556
Ba3 N0 2.956700 1_545
Ba3 N3 3.031969 1_555
Ba3 N5 3.046146 1_555
Ba4 N5 2.762179 1_555
Ba4 N4 2.762183 1_455
Ba4 N1 2.883088 1_455
Ba4 N0 2.883094 1_555
Ba4 N6 3.206305 1_556
Ba4 N7 3.206307 1_455
Ba5 N7 2.762179 1_455
Ba5 N6 2.762183 1_555
Ba5 N3 2.883088 1_555
Ba5 N2 2.883094 1_455
Ba5 N4 3.206305 1_454
Ba5 N5 3.206307 1_555
Mn0 N4 1.878859 1_555
Mn0 N0 1.883265 1_545
Mn0 N7 1.888280 1_555
Mn0 N2 1.910830 1_555
Mn1 N5 1.878866 1_555
Mn1 N1 1.883265 1_555
Mn1 N6 1.888294 1_556
Mn1 N3 1.910815 1_556
Mn2 N6 1.878859 1_555
Mn2 N2 1.883265 1_565
Mn2 N5 1.888280 1_555
Mn2 N0 1.910830 1_555
Mn3 N7 1.878866 1_555
Mn3 N3 1.883265 1_555
Mn3 N4 1.888294 1_554
Mn3 N1 1.910815 1_554
