# generated using pymatgen
data_U8VSe17
_symmetry_space_group_name_H-M   'P 1'
_cell_length_a   8.29185627
_cell_length_b   8.29185627
_cell_length_c   10.90873755
_cell_angle_alpha   80.69267763
_cell_angle_beta   80.69267763
_cell_angle_gamma   64.41152661
_symmetry_Int_Tables_number   1
_chemical_formula_structural   U8VSe17
_chemical_formula_sum   'U8 V1 Se17'
_cell_volume   663.99372158
_cell_formula_units_Z   1
loop_
 _symmetry_equiv_pos_site_id
 _symmetry_equiv_pos_as_xyz
  1  'x, y, z'
loop_
 _atom_site_type_symbol
 _atom_site_label
 _atom_site_symmetry_multiplicity
 _atom_site_fract_x
 _atom_site_fract_y
 _atom_site_fract_z
 _atom_site_occupancy
  U  U0  1  0.81745300  0.29935218  0.29658903  1
  U  U1  1  0.29935218  0.81745300  0.29658903  1
  U  U2  1  0.18254700  0.70064782  0.70341097  1
  U  U3  1  0.70064782  0.18254700  0.70341097  1
  U  U4  1  0.20255515  0.20255515  0.54045636  1
  U  U5  1  0.79744485  0.79744485  0.45954364  1
  U  U6  1  0.67841522  0.67841522  0.98381938  1
  U  U7  1  0.32158478  0.32158478  0.01618062  1
  V  V0  1  0.00000000  -0.00000000  0.00000000  1
  Se  Se0  1  0.82253970  0.43291487  0.53465685  1
  Se  Se1  1  0.43291487  0.82253970  0.53465685  1
  Se  Se2  1  0.17746030  0.56708513  0.46534315  1
  Se  Se3  1  0.56708513  0.17746030  0.46534315  1
  Se  Se4  1  0.94428696  0.32440390  0.02637162  1
  Se  Se5  1  0.32440390  0.94428696  0.02637162  1
  Se  Se6  1  0.05571304  0.67559610  0.97362838  1
  Se  Se7  1  0.67559610  0.05571304  0.97362838  1
  Se  Se8  1  0.21016709  0.21016709  0.27582642  1
  Se  Se9  1  0.78983291  0.78983291  0.72417358  1
  Se  Se10  1  0.06036034  0.06036034  0.77283707  1
  Se  Se11  1  0.93963966  0.93963966  0.22716293  1
  Se  Se12  1  0.30338284  0.30338284  0.75351463  1
  Se  Se13  1  0.69661716  0.69661716  0.24648537  1
  Se  Se14  1  0.52122978  0.52122978  0.83120463  1
  Se  Se15  1  0.47877022  0.47877022  0.16879537  1
  Se  Se16  1  0.00000000  -0.00000000  0.50000000  1
loop_
_geom_bond_atom_site_label_1
_geom_bond_atom_site_label_2
_geom_bond_distance
_geom_bond_site_symmetry_2
Se0 U4 2.899624 1_655
Se0 U5 2.926043 1_555
Se0 U3 2.948685 1_555
Se0 U0 2.996483 1_555
Se1 U4 2.899624 1_565
Se1 U5 2.926043 1_555
Se1 U2 2.948685 1_555
Se1 U1 2.996483 1_555
Se2 U5 2.899624 1_455
Se2 U4 2.926043 1_555
Se2 U1 2.948685 1_555
Se2 U2 2.996483 1_555
Se3 U5 2.899624 1_545
Se3 U4 2.926043 1_555
Se3 U0 2.948685 1_555
Se3 U3 2.996483 1_555
Se4 V0 2.581802 1_655
Se4 U6 2.827106 1_554
Se4 U0 2.970894 1_555
Se4 U7 3.102513 1_655
Se5 V0 2.581802 1_565
Se5 U6 2.827106 1_554
Se5 U1 2.970894 1_555
Se5 U7 3.102513 1_565
Se6 V0 2.581802 1_566
Se6 U7 2.827106 1_556
Se6 U2 2.970894 1_555
Se6 U6 3.102513 1_455
Se7 V0 2.581802 1_656
Se7 U7 2.827106 1_556
Se7 U3 2.970894 1_555
Se7 U6 3.102513 1_545
Se8 U4 2.868279 1_555
Se8 U7 2.962097 1_555
Se8 U0 2.989538 1_455
Se8 U1 2.989538 1_545
Se9 U5 2.868279 1_555
Se9 U6 2.962097 1_555
Se9 U3 2.989538 1_565
Se9 U2 2.989538 1_655
Se10 V0 2.460856 1_556
Se10 U3 2.892852 1_455
Se10 U2 2.892852 1_545
Se10 U4 2.910973 1_555
Se11 V0 2.460856 1_665
Se11 U0 2.892852 1_565
Se11 U1 2.892852 1_655
Se11 U5 2.910973 1_555
Se12 U7 2.924937 1_556
Se12 U4 2.942904 1_555
Se12 U2 2.982830 1_555
Se12 U3 2.982830 1_555
Se13 U6 2.924937 1_554
Se13 U5 2.942904 1_555
Se13 U0 2.982830 1_555
Se13 U1 2.982830 1_555
Se14 U2 3.004970 1_555
Se14 U3 3.004970 1_555
Se14 U6 3.006707 1_555
Se14 U7 3.123917 1_556
Se15 U1 3.004970 1_555
Se15 U0 3.004970 1_555
Se15 U7 3.006707 1_555
Se15 U6 3.123917 1_554
Se16 U5 2.958522 1_445
Se16 U4 2.958522 1_555
Se16 U0 3.071731 1_455
Se16 U3 3.071731 1_455
Se16 U1 3.071731 1_545
Se16 U2 3.071731 1_545
