# generated using pymatgen
data_Ba2Sr2La2Cu6O13
_symmetry_space_group_name_H-M   'P 1'
_cell_length_a   12.49761463
_cell_length_b   12.47039520
_cell_length_c   5.55453485
_cell_angle_alpha   77.41996831
_cell_angle_beta   76.87249381
_cell_angle_gamma   25.70753787
_symmetry_Int_Tables_number   1
_chemical_formula_structural   Ba2Sr2La2Cu6O13
_chemical_formula_sum   'Ba2 Sr2 La2 Cu6 O13'
_cell_volume   365.51977821
_cell_formula_units_Z   1
loop_
 _symmetry_equiv_pos_site_id
 _symmetry_equiv_pos_as_xyz
  1  'x, y, z'
loop_
 _atom_site_type_symbol
 _atom_site_label
 _atom_site_symmetry_multiplicity
 _atom_site_fract_x
 _atom_site_fract_y
 _atom_site_fract_z
 _atom_site_occupancy
  Ba  Ba0  1  0.40053900  0.91424900  0.59946100  1
  Ba  Ba1  1  0.91424900  0.40053900  0.08575100  1
  Sr  Sr0  1  0.10073100  0.59301600  0.89926900  1
  Sr  Sr1  1  0.59301600  0.10073100  0.40698400  1
  La  La0  1  0.74875000  0.24845500  0.25125000  1
  La  La1  1  0.24845500  0.74875000  0.75154500  1
  Cu  Cu0  1  0.32470500  0.82197500  0.17802500  1
  Cu  Cu1  1  0.82197500  0.32470500  0.67529500  1
  Cu  Cu2  1  0.17064300  0.67337400  0.32662600  1
  Cu  Cu3  1  0.67337400  0.17064300  0.82935700  1
  Cu  Cu4  1  0.01291700  0.49252800  0.50747200  1
  Cu  Cu5  1  0.49252800  0.01291700  0.98708300  1
  O  O0  1  0.44689000  0.90546400  0.09453600  1
  O  O1  1  0.90546400  0.44689000  0.55311000  1
  O  O2  1  0.04698700  0.60934600  0.39065400  1
  O  O3  1  0.60934600  0.04698700  0.95301300  1
  O  O4  1  0.06452400  0.06452400  0.43547600  1
  O  O5  1  0.56452400  0.56452400  0.93547600  1
  O  O6  1  0.06632400  0.06632400  0.93367600  1
  O  O7  1  0.56419400  0.56419400  0.43580600  1
  O  O8  1  0.93112700  0.93112700  0.56887300  1
  O  O9  1  0.43112700  0.43112700  0.06887300  1
  O  O10  1  0.93218000  0.93218000  0.06782000  1
  O  O11  1  0.42750400  0.42750400  0.57249600  1
  O  O12  1  0.25792400  0.25792400  0.74207600  1
loop_
_geom_bond_atom_site_label_1
_geom_bond_atom_site_label_2
_geom_bond_distance
_geom_bond_site_symmetry_2
Ba0 O1 2.737696 1_555
Ba0 O0 2.737696 1_555
Ba0 O6 2.868139 1_565
Ba0 O0 2.896130 1_556
Ba0 O1 2.896130 1_465
Ba0 O5 2.964614 1_555
Ba0 O4 2.964614 1_565
Ba0 O7 2.976636 1_555
Ba0 O12 3.040447 1_565
Ba1 O0 2.737696 1_555
Ba1 O1 2.737696 1_555
Ba1 O6 2.868139 1_654
Ba1 O0 2.896130 1_645
Ba1 O1 2.896130 1_554
Ba1 O5 2.964614 1_554
Ba1 O4 2.964614 1_655
Ba1 O7 2.976636 1_555
Ba1 O12 3.040447 1_654
La0 O7 2.488506 1_555
La0 O10 2.499076 1_545
La0 O6 2.518583 1_654
La0 O4 2.526360 1_655
La0 O5 2.526360 1_554
La0 O9 2.549300 1_555
La0 O8 2.549300 1_545
La0 O11 2.572058 1_555
La1 O7 2.488506 1_555
La1 O10 2.499076 1_456
La1 O6 2.518583 1_565
La1 O4 2.526360 1_565
La1 O5 2.526360 1_555
La1 O9 2.549300 1_556
La1 O8 2.549300 1_455
La1 O11 2.572058 1_555
Cu0 O5 1.953312 1_554
Cu0 O4 1.953312 1_565
Cu0 O7 1.986359 1_555
Cu0 O6 2.003089 1_564
Cu0 O0 2.442089 1_555
Cu1 O4 1.953312 1_655
Cu1 O5 1.953312 1_555
Cu1 O7 1.986359 1_555
Cu1 O6 2.003089 1_655
Cu1 O1 2.442089 1_555
Cu2 O9 1.954092 1_555
Cu2 O8 1.954092 1_455
Cu2 O10 1.989154 1_455
Cu2 O11 2.000424 1_555
Cu2 O2 2.236635 1_555
Cu3 O9 1.954092 1_556
Cu3 O8 1.954092 1_545
Cu3 O10 1.989154 1_546
Cu3 O11 2.000424 1_555
Cu3 O3 2.236635 1_555
Cu4 O2 1.817971 1_555
Cu4 O1 1.830668 1_455
Cu4 O12 1.908364 1_555
Cu5 O3 1.817971 1_555
Cu5 O0 1.830668 1_546
Cu5 O12 1.908364 1_555
O2 Sr0 2.665561 1_554
O2 Sr1 2.665561 1_465
O2 Sr1 2.973006 1_555
O2 Sr0 2.973006 1_555
O3 Sr1 2.665561 1_556
O3 Sr0 2.665561 1_645
O3 Sr0 2.973006 1_555
O3 Sr1 2.973006 1_555
O8 Sr1 2.815980 1_565
O8 Sr0 2.815980 1_655
O9 Sr1 2.815980 1_555
O9 Sr0 2.815980 1_554
O10 Sr1 2.824274 1_565
O10 Sr0 2.824274 1_654
O11 Sr0 2.703314 1_555
O11 Sr1 2.703314 1_555
O12 Sr0 2.846104 1_555
O12 Sr1 2.846104 1_555
