# generated using pymatgen
data_Li5Fe3(CuO5)2
_symmetry_space_group_name_H-M   'P 1'
_cell_length_a   5.11735500
_cell_length_b   5.13252734
_cell_length_c   7.90227963
_cell_angle_alpha   108.75993853
_cell_angle_beta   102.21008405
_cell_angle_gamma   100.00627970
_symmetry_Int_Tables_number   1
_chemical_formula_structural   Li5Fe3(CuO5)2
_chemical_formula_sum   'Li5 Fe3 Cu2 O10'
_cell_volume   185.41030646
_cell_formula_units_Z   1
loop_
 _symmetry_equiv_pos_site_id
 _symmetry_equiv_pos_as_xyz
  1  'x, y, z'
loop_
 _atom_site_type_symbol
 _atom_site_label
 _atom_site_symmetry_multiplicity
 _atom_site_fract_x
 _atom_site_fract_y
 _atom_site_fract_z
 _atom_site_occupancy
  Li  Li0  1  0.79830400  0.48819800  0.41448000  1
  Li  Li1  1  0.60681200  0.50869900  0.77637700  1
  Li  Li2  1  0.00000000  0.00000000  0.50000000  1
  Li  Li3  1  0.39318800  0.49130100  0.22362300  1
  Li  Li4  1  0.20169600  0.51180200  0.58552000  1
  Fe  Fe0  1  0.00000000  0.50000000  0.00000000  1
  Fe  Fe1  1  0.80181600  0.00504200  0.88566500  1
  Fe  Fe2  1  0.19818400  0.99495800  0.11433500  1
  Cu  Cu0  1  0.40720400  0.00638800  0.68952400  1
  Cu  Cu1  1  0.59279600  0.99361200  0.31047600  1
  O  O0  1  0.18665600  0.24489200  0.86177600  1
  O  O1  1  0.38986100  0.76664200  0.94546100  1
  O  O2  1  0.59118600  0.76836100  0.54457400  1
  O  O3  1  0.99980300  0.24910300  0.23270800  1
  O  O4  1  0.78643500  0.23504600  0.66191800  1
  O  O5  1  0.21356500  0.76495400  0.33808200  1
  O  O6  1  0.00019700  0.75089700  0.76729200  1
  O  O7  1  0.40881400  0.23163900  0.45542600  1
  O  O8  1  0.61013900  0.23335800  0.05453900  1
  O  O9  1  0.81334400  0.75510800  0.13822400  1
loop_
_geom_bond_atom_site_label_1
_geom_bond_atom_site_label_2
_geom_bond_distance
_geom_bond_site_symmetry_2
Li0 O2 2.070660 1_555
Li0 O3 2.136568 1_555
Li0 O7 2.333689 1_555
Li1 O4 1.902350 1_555
Li1 O1 2.184273 1_555
Li1 O6 2.202694 1_655
Li1 O7 2.360891 1_555
Li1 O2 2.585195 1_555
Li2 O5 2.084169 1_545
Li2 O4 2.084169 1_455
Li2 O7 2.372955 1_555
Li2 O2 2.372955 1_445
Li3 O5 1.902350 1_555
Li3 O8 2.184273 1_555
Li3 O3 2.202694 1_455
Li3 O2 2.360891 1_555
Li3 O7 2.585195 1_555
Li4 O7 2.070660 1_555
Li4 O6 2.136568 1_555
Li4 O2 2.333689 1_555
Fe0 O0 1.943168 1_554
Fe0 O9 1.943168 1_455
Fe1 O6 1.919409 1_645
Fe1 O8 2.015805 1_556
Fe1 O0 2.212175 1_655
Fe1 O2 2.472377 1_545
Fe2 O3 1.919409 1_465
Fe2 O1 2.015805 1_554
Fe2 O9 2.212175 1_455
Fe2 O7 2.472377 1_565
Cu0 O2 1.909648 1_545
Cu0 O0 2.164091 1_555
Cu0 O4 2.177923 1_555
Cu0 Fe1 2.273339 1_555
Cu0 Li2 2.282744 1_555
Cu0 Li4 2.364332 1_545
Cu0 Li1 2.410672 1_555
Cu0 O7 2.477412 1_555
Cu0 O5 2.534943 1_545
Cu0 O6 2.558494 1_545
Cu0 O8 2.628081 1_556
Cu0 O1 2.692800 1_545
Cu1 O7 1.909648 1_565
Cu1 O9 2.164091 1_555
Cu1 O5 2.177923 1_555
Cu1 Fe2 2.273339 1_555
Cu1 Li2 2.282744 1_665
Cu1 Li0 2.364332 1_565
Cu1 Li3 2.410672 1_555
Cu1 O2 2.477412 1_555
Cu1 O4 2.534943 1_565
Cu1 O3 2.558494 1_565
Cu1 O1 2.628081 1_554
Cu1 O8 2.692800 1_565
