# generated using pymatgen
data_Ta3MoS8
_symmetry_space_group_name_H-M   'P 1'
_cell_length_a   12.75413566
_cell_length_b   12.75413566
_cell_length_c   5.73543910
_cell_angle_alpha   85.67397375
_cell_angle_beta   85.67397375
_cell_angle_gamma   14.90884675
_symmetry_Int_Tables_number   1
_chemical_formula_structural   Ta3MoS8
_chemical_formula_sum   'Ta3 Mo1 S8'
_cell_volume   239.34137819
_cell_formula_units_Z   1
loop_
 _symmetry_equiv_pos_site_id
 _symmetry_equiv_pos_as_xyz
  1  'x, y, z'
loop_
 _atom_site_type_symbol
 _atom_site_label
 _atom_site_symmetry_multiplicity
 _atom_site_fract_x
 _atom_site_fract_y
 _atom_site_fract_z
 _atom_site_occupancy
  Ta  Ta0  1  0.37512518  0.37512518  0.54154409  1
  Ta  Ta1  1  0.62499376  0.62499376  0.78776342  1
  Ta  Ta2  1  0.87503636  0.87503636  0.04171722  1
  Mo  Mo0  1  0.12493718  0.12493718  0.29398736  1
  S  S0  1  0.68486028  0.68486028  0.10889659  1
  S  S1  1  0.93708934  0.93708934  0.35419214  1
  S  S2  1  0.18598284  0.18598284  0.60125879  1
  S  S3  1  0.43700786  0.43700786  0.85437276  1
  S  S4  1  0.81302617  0.81302617  0.39593331  1
  S  S5  1  0.06385645  0.06385645  0.64232433  1
  S  S6  1  0.31300197  0.31300197  0.89572135  1
  S  S7  1  0.56498260  0.56498260  0.14898763  1
loop_
_geom_bond_atom_site_label_1
_geom_bond_atom_site_label_2
_geom_bond_distance
_geom_bond_site_symmetry_2
Mo0 S2 2.429774 1_555
Mo0 S5 2.430753 1_555
Mo0 S0 2.432537 1_545
Mo0 S0 2.432537 1_455
Mo0 S7 2.433311 1_545
Mo0 S7 2.433311 1_455
S0 Ta1 2.471732 1_554
S1 Ta0 2.468331 1_655
S1 Ta0 2.468331 1_565
S1 Ta2 2.470459 1_555
S2 Ta1 2.451676 1_545
S2 Ta1 2.451676 1_455
S3 Ta2 2.468426 1_456
S3 Ta2 2.468426 1_546
S3 Ta0 2.469058 1_555
S4 Ta0 2.470219 1_655
S4 Ta0 2.470219 1_565
S4 Ta2 2.470309 1_555
S5 Ta1 2.453813 1_455
S5 Ta1 2.453813 1_545
S6 Ta2 2.469992 1_456
S6 Ta2 2.469992 1_546
S6 Ta0 2.471774 1_555
S7 Ta1 2.473391 1_554
