# generated using pymatgen
data_Li3Mn2CoO6
_symmetry_space_group_name_H-M   'P 1'
_cell_length_a   3.07618200
_cell_length_b   5.09806779
_cell_length_c   7.65069950
_cell_angle_alpha   106.68763382
_cell_angle_beta   98.04538866
_cell_angle_gamma   87.72456044
_symmetry_Int_Tables_number   1
_chemical_formula_structural   Li3Mn2CoO6
_chemical_formula_sum   'Li3 Mn2 Co1 O6'
_cell_volume   113.79839796
_cell_formula_units_Z   1
loop_
 _symmetry_equiv_pos_site_id
 _symmetry_equiv_pos_as_xyz
  1  'x, y, z'
loop_
 _atom_site_type_symbol
 _atom_site_label
 _atom_site_symmetry_multiplicity
 _atom_site_fract_x
 _atom_site_fract_y
 _atom_site_fract_z
 _atom_site_occupancy
  Li  Li0  1  0.17175500  0.50254300  0.33467800  1
  Li  Li1  1  0.82824500  0.49745700  0.66532200  1
  Li  Li2  1  0.50000000  0.50000000  0.00000000  1
  Mn  Mn0  1  0.65339900  0.99848500  0.33067600  1
  Mn  Mn1  1  0.34660100  0.00151500  0.66932400  1
  Co  Co0  1  0.00000000  0.00000000  0.00000000  1
  O  O0  1  0.55444300  0.22375600  0.16219600  1
  O  O1  1  0.27972100  0.23339400  0.50239500  1
  O  O2  1  0.96214800  0.23404000  0.83782500  1
  O  O3  1  0.72027900  0.76660600  0.49760500  1
  O  O4  1  0.44555700  0.77624400  0.83780400  1
  O  O5  1  0.03785200  0.76596000  0.16217500  1
loop_
_geom_bond_atom_site_label_1
_geom_bond_atom_site_label_2
_geom_bond_distance
_geom_bond_site_symmetry_2
Li0 O0 2.090952 1_555
Li0 O1 2.120198 1_555
Li0 O5 2.129944 1_555
Li0 O3 2.160390 1_455
Li0 O3 2.200261 1_555
Li0 O0 2.408984 1_455
Li1 O4 2.090952 1_555
Li1 O3 2.120198 1_555
Li1 O2 2.129944 1_555
Li1 O1 2.160390 1_655
Li1 O1 2.200261 1_555
Li1 O4 2.408984 1_655
Li2 O4 2.116130 1_554
Li2 O0 2.116130 1_555
Li2 O5 2.180069 1_655
Li2 O2 2.180069 1_454
Li2 O5 2.184832 1_555
Li2 O2 2.184832 1_554
Mn0 O0 1.945678 1_565
Mn0 O3 1.960869 1_555
Mn0 O1 1.972656 1_565
Mn0 O5 1.975750 1_655
Mn0 O5 2.295631 1_555
Mn0 O1 2.333110 1_665
Mn1 O4 1.945678 1_545
Mn1 O1 1.960869 1_555
Mn1 O3 1.972656 1_545
Mn1 O2 1.975750 1_455
Mn1 O2 2.295631 1_555
Mn1 O3 2.333110 1_445
Co0 O5 1.943032 1_545
Co0 O2 1.943032 1_454
Co0 O0 2.063656 1_455
Co0 O4 2.063656 1_544
Co0 O0 2.121128 1_555
Co0 O4 2.121128 1_444
