# generated using pymatgen
data_Dy4FeS7
_symmetry_space_group_name_H-M   'P 1'
_cell_length_a   3.76165000
_cell_length_b   6.32297994
_cell_length_c   11.28423670
_cell_angle_alpha   103.60247712
_cell_angle_beta   90.00000000
_cell_angle_gamma   72.69496373
_symmetry_Int_Tables_number   1
_chemical_formula_structural   Dy4FeS7
_chemical_formula_sum   'Dy4 Fe1 S7'
_cell_volume   248.34858142
_cell_formula_units_Z   1
loop_
 _symmetry_equiv_pos_site_id
 _symmetry_equiv_pos_as_xyz
  1  'x, y, z'
loop_
 _atom_site_type_symbol
 _atom_site_label
 _atom_site_symmetry_multiplicity
 _atom_site_fract_x
 _atom_site_fract_y
 _atom_site_fract_z
 _atom_site_occupancy
  Dy  Dy0  1  0.69821500  0.60357000  0.21816400  1
  Dy  Dy1  1  0.30522100  0.38955800  0.79323500  1
  Dy  Dy2  1  0.99920900  0.00158200  0.01243800  1
  Dy  Dy3  1  0.10447400  0.79105300  0.55563700  1
  Fe  Fe0  1  0.88826600  0.22346700  0.42752400  1
  S  S0  1  0.74911800  0.50176300  0.62286800  1
  S  S1  1  0.28547000  0.42906000  0.36090600  1
  S  S2  1  0.33384600  0.33230800  0.05699200  1
  S  S3  1  0.66087000  0.67826000  0.94382000  1
  S  S4  1  0.02992400  0.94015200  0.24027400  1
  S  S5  1  0.96747500  0.06505100  0.78361000  1
  S  S6  1  0.47791200  0.04417600  0.48453200  1
loop_
_geom_bond_atom_site_label_1
_geom_bond_atom_site_label_2
_geom_bond_distance
_geom_bond_site_symmetry_2
Dy0 S4 2.734681 1_555
Dy0 S4 2.734682 1_655
Dy0 S2 2.838920 1_655
Dy0 S2 2.838920 1_555
Dy0 S1 2.842143 1_655
Dy0 S1 2.842143 1_555
Dy0 S3 3.236469 1_554
Dy0 S6 3.488626 1_565
Dy1 S5 2.698527 1_455
Dy1 S5 2.698529 1_555
Dy1 S3 2.829015 1_455
Dy1 S3 2.829015 1_555
Dy1 S0 2.886817 1_555
Dy1 S0 2.886820 1_455
Dy1 S2 3.079700 1_556
Dy2 S3 2.683668 1_644
Dy2 S3 2.683669 1_544
Dy2 S4 2.686456 1_645
Dy2 S2 2.698485 1_555
Dy2 S2 2.698485 1_655
Dy2 S5 2.702169 1_554
Dy3 S6 2.668379 1_565
Dy3 S6 2.668381 1_465
Dy3 S1 2.690387 1_555
Dy3 S5 2.693945 1_465
Dy3 S0 2.795640 1_555
Dy3 S0 2.795645 1_455
Fe0 S6 2.337905 1_555
Fe0 S6 2.337908 1_655
Fe0 S4 2.368413 1_645
Fe0 S0 2.420108 1_555
Fe0 S1 2.470349 1_555
Fe0 S1 2.470352 1_655
