# generated using pymatgen
data_Li9Mn2Co5O16
_symmetry_space_group_name_H-M   'P 1'
_cell_length_a   2.91407500
_cell_length_b   5.11175770
_cell_length_c   19.46862679
_cell_angle_alpha   92.72000400
_cell_angle_beta   92.31809963
_cell_angle_gamma   92.42762917
_symmetry_Int_Tables_number   1
_chemical_formula_structural   Li9Mn2Co5O16
_chemical_formula_sum   'Li9 Mn2 Co5 O16'
_cell_volume   289.15680003
_cell_formula_units_Z   1
loop_
 _symmetry_equiv_pos_site_id
 _symmetry_equiv_pos_as_xyz
  1  'x, y, z'
loop_
 _atom_site_type_symbol
 _atom_site_label
 _atom_site_symmetry_multiplicity
 _atom_site_fract_x
 _atom_site_fract_y
 _atom_site_fract_z
 _atom_site_occupancy
  Li  Li0  1  0.06347700  0.66957400  0.11828300  1
  Li  Li1  1  0.68682900  0.55869900  0.37087000  1
  Li  Li2  1  0.31610600  0.43380300  0.62750200  1
  Li  Li3  1  0.93636700  0.33102200  0.88175700  1
  Li  Li4  1  0.54954200  0.18418300  0.12139600  1
  Li  Li5  1  0.18360800  0.06665300  0.37256200  1
  Li  Li6  1  0.81385900  0.94157700  0.62912300  1
  Li  Li7  1  0.45066600  0.81525900  0.87850500  1
  Li  Li8  1  0.49993100  0.49988800  0.00005000  1
  Mn  Mn0  1  0.99995400  0.99943200  0.99984300  1
  Mn  Mn1  1  0.24989000  0.75039300  0.50010000  1
  Co  Co0  1  0.62213300  0.87399500  0.24940600  1
  Co  Co1  1  0.87729000  0.62551000  0.75067300  1
  Co  Co2  1  0.12318200  0.37414300  0.24888600  1
  Co  Co3  1  0.75011000  0.25023100  0.49997400  1
  Co  Co4  1  0.37714900  0.12617500  0.75100100  1
  O  O0  1  0.50863600  0.85851800  0.05534300  1
  O  O1  1  0.16774600  0.72501900  0.30884800  1
  O  O2  1  0.79949300  0.57842200  0.55631700  1
  O  O3  1  0.41652500  0.47549500  0.80733900  1
  O  O4  1  0.03319500  0.31251400  0.05816900  1
  O  O5  1  0.66551000  0.22648100  0.30806200  1
  O  O6  1  0.31073800  0.08397600  0.55689400  1
  O  O7  1  0.91640900  0.97635800  0.80599400  1
  O  O8  1  0.58233600  0.52415700  0.19252700  1
  O  O9  1  0.18912200  0.41612900  0.44329300  1
  O  O10  1  0.83352400  0.27578800  0.69167400  1
  O  O11  1  0.49147900  0.14156500  0.94453100  1
  O  O12  1  0.08366300  0.02201700  0.19401600  1
  O  O13  1  0.70026400  0.92184700  0.44378200  1
  O  O14  1  0.33447200  0.77407900  0.69150100  1
  O  O15  1  0.96679600  0.68710000  0.94177800  1
loop_
_geom_bond_atom_site_label_1
_geom_bond_atom_site_label_2
_geom_bond_distance
_geom_bond_site_symmetry_2
Li0 O0 2.062015 1_555
Li0 O4 2.117571 1_555
Li0 O8 2.187526 1_455
Li0 O8 2.224485 1_555
Li0 O0 2.265586 1_455
Li0 O12 2.270470 1_565
Li1 O5 2.042263 1_555
Li1 O1 2.068387 1_655
Li1 O1 2.127807 1_555
Li1 O9 2.163926 1_655
Li1 O9 2.190000 1_555
Li1 O13 2.280723 1_555
Li2 O10 2.081487 1_455
Li2 O14 2.088511 1_555
Li2 O10 2.129154 1_555
Li2 O2 2.149027 1_555
Li2 O2 2.180887 1_455
Li2 O6 2.202325 1_555
Li3 O11 2.060676 1_555
Li3 O15 2.112455 1_555
Li3 O3 2.186384 1_655
Li3 O3 2.226667 1_555
Li3 O11 2.265695 1_655
Li3 O7 2.279507 1_545
Li4 O4 2.017579 1_655
Li4 O0 2.051050 1_545
Li4 O4 2.054270 1_555
Li4 O8 2.166530 1_555
Li4 O12 2.168015 1_555
Li4 O12 2.269613 1_655
Li5 O5 2.087875 1_555
Li5 O1 2.091281 1_545
Li5 O5 2.138286 1_455
Li5 O13 2.149744 1_445
Li5 O13 2.181778 1_545
Li5 O9 2.202303 1_555
Li6 O10 2.047811 1_565
Li6 O14 2.072201 1_555
Li6 O14 2.137567 1_655
Li6 O6 2.162769 1_565
Li6 O6 2.185488 1_665
Li6 O2 2.279435 1_555
Li7 O15 2.018328 1_455
Li7 O11 2.053298 1_565
Li7 O15 2.054004 1_555
Li7 O7 2.164182 1_555
Li7 O3 2.166054 1_555
Li7 O7 2.266275 1_455
Li8 O4 2.040726 1_555
Li8 O15 2.042390 1_554
Li8 O0 2.080080 1_555
Li8 O11 2.080867 1_554
Li8 O4 2.167770 1_655
Li8 O15 2.168622 1_454
Mn0 O15 1.908681 1_555
Mn0 O4 1.914568 1_666
Mn0 O0 1.961601 1_556
Mn0 O11 1.962128 1_665
Mn0 O0 1.979505 1_656
Mn0 O11 1.979746 1_565
Mn1 O13 1.950108 1_555
Mn1 O2 1.950138 1_455
Mn1 O6 1.985267 1_565
Mn1 O9 1.988275 1_555
Mn1 O13 2.145611 1_455
Mn1 O2 2.145808 1_555
Co0 O12 1.911230 1_665
Co0 O1 1.947981 1_555
Co0 O8 2.054690 1_555
Co0 O12 2.058822 1_565
Co0 O5 2.083348 1_565
Co0 O1 2.117663 1_655
Co1 O3 1.928954 1_555
Co1 O14 1.949426 1_655
Co1 O7 2.044226 1_555
Co1 O10 2.074949 1_555
Co1 O3 2.077609 1_655
Co1 O14 2.107934 1_555
Co2 O8 1.921958 1_555
Co2 O5 1.948666 1_455
Co2 O12 2.045565 1_555
Co2 O8 2.078049 1_455
Co2 O1 2.089472 1_555
Co2 O5 2.104979 1_555
Co3 O9 1.919538 1_655
Co3 O6 1.923946 1_555
Co3 O13 1.956490 1_545
Co3 O2 1.957171 1_555
Co3 O9 2.160936 1_555
Co3 O6 2.163291 1_655
Co4 O7 1.908511 1_445
Co4 O10 1.951808 1_555
Co4 O3 2.047260 1_555
Co4 O7 2.060549 1_545
Co4 O14 2.090026 1_545
Co4 O10 2.113526 1_455
