# generated using pymatgen
data_MnFeNiO4
_symmetry_space_group_name_H-M   'P 1'
_cell_length_a   5.97102436
_cell_length_b   5.97102436
_cell_length_c   5.97102436
_cell_angle_alpha   118.96740994
_cell_angle_beta   118.08975707
_cell_angle_gamma   92.56964726
_symmetry_Int_Tables_number   1
_chemical_formula_structural   MnFeNiO4
_chemical_formula_sum   'Mn2 Fe2 Ni2 O8'
_cell_volume   153.70294310
_cell_formula_units_Z   2
loop_
 _symmetry_equiv_pos_site_id
 _symmetry_equiv_pos_as_xyz
  1  'x, y, z'
loop_
 _atom_site_type_symbol
 _atom_site_label
 _atom_site_symmetry_multiplicity
 _atom_site_fract_x
 _atom_site_fract_y
 _atom_site_fract_z
 _atom_site_occupancy
  Mn  Mn0  1  0.50000000  0.50000000  0.00000000  1
  Mn  Mn1  1  0.00000000  0.50000000  0.50000000  1
  Fe  Fe0  1  0.38228400  0.13228400  0.25000000  1
  Fe  Fe1  1  0.61771600  0.86771600  0.75000000  1
  Ni  Ni0  1  0.00000000  0.50000000  0.00000000  1
  Ni  Ni1  1  0.00000000  0.00000000  0.50000000  1
  O  O0  1  0.74943000  0.74024900  0.49081900  1
  O  O1  1  0.74943000  0.25861100  0.00918100  1
  O  O2  1  0.22384400  0.73526400  0.48857900  1
  O  O3  1  0.74668500  0.73526400  0.01142100  1
  O  O4  1  0.25057000  0.25975100  0.50918100  1
  O  O5  1  0.25057000  0.74138900  0.99081900  1
  O  O6  1  0.77615600  0.26473600  0.51142100  1
  O  O7  1  0.25331500  0.26473600  0.98857900  1
loop_
_geom_bond_atom_site_label_1
_geom_bond_atom_site_label_2
_geom_bond_distance
_geom_bond_site_symmetry_2
Mn0 O3 1.942863 1_555
Mn0 O7 1.942863 1_554
Mn0 O5 2.119144 1_554
Mn0 O4 2.119144 1_554
Mn0 O1 2.119144 1_555
Mn0 O0 2.119144 1_555
Mn1 O2 1.942867 1_555
Mn1 O6 1.942867 1_455
Mn1 O0 2.119144 1_455
Mn1 O1 2.119144 1_455
Mn1 O5 2.119144 1_555
Mn1 O4 2.119144 1_555
Fe0 O4 1.910952 1_555
Fe0 O5 1.910952 1_544
Fe0 O6 1.942539 1_555
Fe0 O7 1.942544 1_554
Fe1 O1 1.910952 1_566
Fe1 O0 1.910952 1_555
Fe1 O2 1.942539 1_555
Fe1 O3 1.942544 1_556
Ni0 O5 2.068663 1_554
Ni0 O1 2.068663 1_455
Ni0 O6 2.112036 1_454
Ni0 O2 2.112036 1_555
Ni0 O3 2.112036 1_455
Ni0 O7 2.112036 1_554
Ni1 O4 2.068663 1_555
Ni1 O0 2.068663 1_445
Ni1 O7 2.112036 1_555
Ni1 O3 2.112036 1_445
Ni1 O6 2.112040 1_455
Ni1 O2 2.112040 1_545
