# generated using pymatgen
data_Ba(SiIr)2
_symmetry_space_group_name_H-M   'P 1'
_cell_length_a   6.73428917
_cell_length_b   7.75552859
_cell_length_c   7.93040773
_cell_angle_alpha   91.80778161
_cell_angle_beta   90.00000000
_cell_angle_gamma   90.00000000
_symmetry_Int_Tables_number   1
_chemical_formula_structural   Ba(SiIr)2
_chemical_formula_sum   'Ba4 Si8 Ir8'
_cell_volume   413.98296601
_cell_formula_units_Z   4
loop_
 _symmetry_equiv_pos_site_id
 _symmetry_equiv_pos_as_xyz
  1  'x, y, z'
loop_
 _atom_site_type_symbol
 _atom_site_label
 _atom_site_symmetry_multiplicity
 _atom_site_fract_x
 _atom_site_fract_y
 _atom_site_fract_z
 _atom_site_occupancy
  Ba  Ba0  1  0.61857977  0.99810699  0.23509726  1
  Ba  Ba1  1  0.11857977  0.50189301  0.76490274  1
  Ba  Ba2  1  0.88142023  0.49810699  0.23509726  1
  Ba  Ba3  1  0.38142023  0.00189301  0.76490274  1
  Si  Si0  1  0.58095362  0.62824441  0.92616705  1
  Si  Si1  1  0.85192875  0.81372680  0.56390168  1
  Si  Si2  1  0.35192875  0.68627320  0.43609832  1
  Si  Si3  1  0.14807125  0.18627320  0.43609832  1
  Si  Si4  1  0.08095362  0.87175559  0.07383295  1
  Si  Si5  1  0.41904638  0.37175559  0.07383295  1
  Si  Si6  1  0.91904638  0.12824441  0.92616705  1
  Si  Si7  1  0.64807125  0.31372680  0.56390168  1
  Ir  Ir0  1  0.60530507  0.61412434  0.62100876  1
  Ir  Ir1  1  0.39469493  0.38587566  0.37899124  1
  Ir  Ir2  1  0.89469493  0.11412434  0.62100876  1
  Ir  Ir3  1  0.83351487  0.82981898  0.86280146  1
  Ir  Ir4  1  0.33351487  0.67018102  0.13719854  1
  Ir  Ir5  1  0.16648513  0.17018102  0.13719854  1
  Ir  Ir6  1  0.66648513  0.32981898  0.86280146  1
  Ir  Ir7  1  0.10530507  0.88587566  0.37899124  1
loop_
_geom_bond_atom_site_label_1
_geom_bond_atom_site_label_2
_geom_bond_distance
_geom_bond_site_symmetry_2
Ba0 Ir4 3.260603 1_555
Ba0 Si6 3.357253 1_564
Ba0 Si1 3.398355 1_555
Ba0 Ir5 3.423199 1_565
Ba0 Si2 3.443474 1_555
Ba0 Si5 3.474543 1_565
Ba0 Si4 3.494601 1_655
Ba0 Ir3 3.503198 1_554
Ba0 Ir1 3.521790 1_565
Ba0 Si7 3.525307 1_565
Ba0 Ir7 3.586938 1_655
Ba0 Ir2 3.668738 1_565
Ba0 Si0 3.721721 1_554
Ba0 Ir7 3.751020 1_555
Ba0 Si3 3.816205 1_565
Ba1 Ir3 3.260603 1_455
Ba1 Si5 3.357253 1_556
Ba1 Si2 3.398355 1_555
Ba1 Ir6 3.423199 1_455
Ba1 Si1 3.443474 1_455
Ba1 Si6 3.474543 1_455
Ba1 Si0 3.494601 1_555
Ba1 Ir4 3.503198 1_556
Ba1 Ir2 3.521790 1_455
Ba1 Si3 3.525307 1_555
Ba1 Ir0 3.586938 1_555
Ba1 Ir1 3.668738 1_555
Ba1 Si4 3.721721 1_556
Ba1 Ir0 3.751020 1_455
Ba1 Si7 3.816205 1_455
Ba2 Ir5 3.260603 1_655
Ba2 Si0 3.357253 1_554
Ba2 Si7 3.398355 1_555
Ba2 Ir4 3.423199 1_655
Ba2 Si3 3.443474 1_655
Ba2 Si4 3.474543 1_655
Ba2 Si5 3.494601 1_555
Ba2 Ir6 3.503198 1_554
Ba2 Ir7 3.521790 1_655
Ba2 Si1 3.525307 1_555
Ba2 Ir1 3.586938 1_555
Ba2 Ir0 3.668738 1_555
Ba2 Si6 3.721721 1_554
Ba2 Ir1 3.751020 1_655
Ba2 Si2 3.816205 1_655
Ba3 Ir6 3.260603 1_555
Ba3 Si4 3.357253 1_546
Ba3 Si3 3.398355 1_555
Ba3 Ir3 3.423199 1_545
Ba3 Si7 3.443474 1_555
Ba3 Si0 3.474543 1_545
Ba3 Si6 3.494601 1_455
Ba3 Ir5 3.503198 1_556
Ba3 Ir0 3.521790 1_545
Ba3 Si2 3.525307 1_545
Ba3 Ir2 3.586938 1_455
Ba3 Ir7 3.668738 1_545
Ba3 Si5 3.721721 1_556
Ba3 Ir2 3.751020 1_555
Ba3 Si1 3.816205 1_545
Ir0 Si1 2.324668 1_555
Ir0 Si2 2.329535 1_555
Ir0 Si7 2.376799 1_555
Ir0 Si0 2.424605 1_555
Ir1 Si3 2.324668 1_555
Ir1 Si7 2.329535 1_555
Ir1 Si2 2.376799 1_555
Ir1 Si5 2.424605 1_555
Ir2 Si7 2.324668 1_555
Ir2 Si3 2.329535 1_655
Ir2 Si1 2.376799 1_545
Ir2 Si6 2.424605 1_555
Ir3 Si1 2.372988 1_555
Ir3 Si0 2.374624 1_555
Ir3 Si4 2.376741 1_656
Ir3 Si6 2.422308 1_565
Ir4 Si2 2.372988 1_555
Ir4 Si4 2.374624 1_555
Ir4 Si0 2.376741 1_554
Ir4 Si5 2.422308 1_555
Ir5 Si3 2.372988 1_555
Ir5 Si5 2.374624 1_555
Ir5 Si6 2.376741 1_454
Ir5 Si4 2.422308 1_545
Ir6 Si7 2.372988 1_555
Ir6 Si6 2.374624 1_555
Ir6 Si5 2.376741 1_556
Ir6 Si0 2.422308 1_555
Ir7 Si2 2.324668 1_555
Ir7 Si1 2.329535 1_455
Ir7 Si3 2.376799 1_565
Ir7 Si4 2.424605 1_555
