# generated using pymatgen
data_AgH2CS2N
_symmetry_space_group_name_H-M   'P 1'
_cell_length_a   8.06013900
_cell_length_b   8.06013900
_cell_length_c   8.49656848
_cell_angle_alpha   118.31490559
_cell_angle_beta   118.31490559
_cell_angle_gamma   90.00000000
_symmetry_Int_Tables_number   1
_chemical_formula_structural   AgH2CS2N
_chemical_formula_sum   'Ag4 H8 C4 S8 N4'
_cell_volume   409.38153054
_cell_formula_units_Z   4
loop_
 _symmetry_equiv_pos_site_id
 _symmetry_equiv_pos_as_xyz
  1  'x, y, z'
loop_
 _atom_site_type_symbol
 _atom_site_label
 _atom_site_symmetry_multiplicity
 _atom_site_fract_x
 _atom_site_fract_y
 _atom_site_fract_z
 _atom_site_occupancy
  Ag  Ag0  1  0.09601200  0.59601200  0.19202500  1
  Ag  Ag1  1  0.65398800  0.65398800  0.30797500  1
  Ag  Ag2  1  0.40398800  0.90398800  0.80797500  1
  Ag  Ag3  1  0.34601200  0.34601200  0.69202500  1
  H  H0  1  0.00817300  0.57490200  0.82946800  1
  H  H1  1  0.74182700  0.99543400  0.67053200  1
  H  H2  1  0.82129500  0.25456600  0.82946800  1
  H  H3  1  0.92870500  0.67509800  0.67053200  1
  H  H4  1  0.74543400  0.99182700  0.17053200  1
  H  H5  1  0.00456600  0.07129500  0.32946800  1
  H  H6  1  0.42509800  0.17870500  0.17053200  1
  H  H7  1  0.32490200  0.25817300  0.32946800  1
  C  C0  1  0.73841500  0.62500000  0.75000000  1
  C  C1  1  0.01158500  0.12500000  0.75000000  1
  C  C2  1  0.87500000  0.26158500  0.25000000  1
  C  C3  1  0.37500000  0.98841500  0.25000000  1
  S  S0  1  0.71179500  0.55254200  0.90042900  1
  S  S1  1  0.03820500  0.90211300  0.59957100  1
  S  S2  1  0.18863300  0.34788700  0.90042900  1
  S  S3  1  0.56136700  0.69745800  0.59957100  1
  S  S4  1  0.65211300  0.28820500  0.09957100  1
  S  S5  1  0.09788700  0.43863300  0.40042900  1
  S  S6  1  0.44745800  0.81136700  0.09957100  1
  S  S7  1  0.30254200  0.96179500  0.40042900  1
  N  N0  1  0.90333000  0.62500000  0.75000000  1
  N  N1  1  0.84667000  0.12500000  0.75000000  1
  N  N2  1  0.87500000  0.09667000  0.25000000  1
  N  N3  1  0.37500000  0.15333000  0.25000000  1
loop_
_geom_bond_atom_site_label_1
_geom_bond_atom_site_label_2
_geom_bond_distance
_geom_bond_site_symmetry_2
Ag0 S5 2.617279 1_555
Ag0 S7 2.617281 1_555
Ag0 S2 2.783793 1_554
Ag0 S0 2.783796 1_454
Ag1 S4 2.617279 1_555
Ag1 S6 2.617281 1_555
Ag1 S1 2.783793 1_655
Ag1 S3 2.783795 1_555
Ag2 S1 2.617279 1_555
Ag2 S3 2.617281 1_555
Ag2 S4 2.783793 1_566
Ag2 S6 2.783795 1_556
Ag3 S2 2.617279 1_555
Ag3 S0 2.617281 1_555
Ag3 S5 2.783793 1_555
Ag3 S7 2.783796 1_545
H0 N0 1.024905 1_455
H1 N1 1.024905 1_565
H2 N1 1.024905 1_555
H3 N0 1.024905 1_555
H4 N2 1.024905 1_565
H5 N2 1.024905 1_455
H6 N3 1.024905 1_555
H7 N3 1.024905 1_555
C0 N0 1.329238 1_555
C0 S3 1.728868 1_555
C0 S0 1.728872 1_555
C1 N1 1.329238 1_455
C1 S2 1.728868 1_555
C1 S1 1.728872 1_545
C2 N2 1.329238 1_555
C2 S5 1.728868 1_655
C2 S4 1.728872 1_555
C3 N3 1.329238 1_565
C3 S6 1.728868 1_555
C3 S7 1.728872 1_555
