# generated using pymatgen
data_NaTiPO5
_symmetry_space_group_name_H-M   'P 1'
_cell_length_a   6.32698008
_cell_length_b   10.68973363
_cell_length_c   12.72727491
_cell_angle_alpha   90.00000000
_cell_angle_beta   90.00000000
_cell_angle_gamma   90.00000000
_symmetry_Int_Tables_number   1
_chemical_formula_structural   NaTiPO5
_chemical_formula_sum   'Na8 Ti8 P8 O40'
_cell_volume   860.79309701
_cell_formula_units_Z   8
loop_
 _symmetry_equiv_pos_site_id
 _symmetry_equiv_pos_as_xyz
  1  'x, y, z'
loop_
 _atom_site_type_symbol
 _atom_site_label
 _atom_site_symmetry_multiplicity
 _atom_site_fract_x
 _atom_site_fract_y
 _atom_site_fract_z
 _atom_site_occupancy
  Na  Na0  1  0.70155072  0.27637984  0.84293641  1
  Na  Na1  1  0.29844928  0.77637984  0.15706359  1
  Na  Na2  1  0.20155072  0.77637984  0.65706359  1
  Na  Na3  1  0.79844928  0.27637984  0.34293641  1
  Na  Na4  1  0.74354671  0.07564675  0.59984355  1
  Na  Na5  1  0.25645329  0.57564675  0.40015645  1
  Na  Na6  1  0.24354671  0.57564675  0.90015645  1
  Na  Na7  1  0.75645329  0.07564675  0.09984355  1
  Ti  Ti0  1  0.21339184  0.23888993  0.72842724  1
  Ti  Ti1  1  0.78660816  0.73888993  0.27157276  1
  Ti  Ti2  1  0.71339184  0.73888993  0.77157276  1
  Ti  Ti3  1  0.28660816  0.23888993  0.22842724  1
  Ti  Ti4  1  0.98020518  0.00126845  0.87087358  1
  Ti  Ti5  1  0.01979482  0.50126845  0.12912642  1
  Ti  Ti6  1  0.48020518  0.50126845  0.62912642  1
  Ti  Ti7  1  0.51979482  0.00126845  0.37087358  1
  P  P0  1  0.15775853  0.26921055  0.98152134  1
  P  P1  1  0.84224147  0.76921055  0.01847866  1
  P  P2  1  0.65775853  0.76921055  0.51847866  1
  P  P3  1  0.34224147  0.26921055  0.48152134  1
  P  P4  1  0.97589702  0.50648540  0.68382032  1
  P  P5  1  0.02410298  0.00648540  0.31617968  1
  P  P6  1  0.47589702  0.00648540  0.81617968  1
  P  P7  1  0.52410298  0.50648540  0.18382032  1
  O  O0  1  0.29740932  0.27094996  0.88130739  1
  O  O1  1  0.70259068  0.77094996  0.11869261  1
  O  O2  1  0.79740932  0.77094996  0.61869261  1
  O  O3  1  0.20259068  0.27094996  0.38130739  1
  O  O4  1  0.00697330  0.38005504  0.74129174  1
  O  O5  1  0.99302670  0.88005504  0.25870826  1
  O  O6  1  0.50697330  0.88005504  0.75870826  1
  O  O7  1  0.49302670  0.38005504  0.24129174  1
  O  O8  1  0.00755389  0.12686886  0.75749660  1
  O  O9  1  0.99244611  0.62686886  0.24250340  1
  O  O10  1  0.50755389  0.62686886  0.74250340  1
  O  O11  1  0.49244611  0.12686886  0.25749660  1
  O  O12  1  0.30548075  0.23539061  0.07600434  1
  O  O13  1  0.69451925  0.73539061  0.92399566  1
  O  O14  1  0.80548075  0.73539061  0.42399566  1
  O  O15  1  0.19451925  0.23539061  0.57600434  1
  O  O16  1  0.95091669  0.87034751  0.79004596  1
  O  O17  1  0.04908331  0.37034751  0.20995404  1
  O  O18  1  0.45091669  0.37034751  0.70995404  1
  O  O19  1  0.54908331  0.87034751  0.29004596  1
  O  O20  1  0.94523475  0.60890788  0.76999053  1
  O  O21  1  0.05476525  0.10890788  0.23000947  1
  O  O22  1  0.44523475  0.10890788  0.73000947  1
  O  O23  1  0.55476525  0.60890788  0.26999053  1
  O  O24  1  0.06847236  0.40454235  0.99468118  1
  O  O25  1  0.93152764  0.90454235  0.00531882  1
  O  O26  1  0.56847236  0.90454235  0.50531882  1
  O  O27  1  0.43152764  0.40454235  0.49468118  1
  O  O28  1  0.78532847  0.49646195  0.60945365  1
  O  O29  1  0.21467153  0.99646195  0.39054635  1
  O  O30  1  0.28532847  0.99646195  0.89054635  1
  O  O31  1  0.71467153  0.49646195  0.10945365  1
  O  O32  1  0.16962118  0.54490235  0.61793441  1
  O  O33  1  0.83037882  0.04490235  0.38206559  1
  O  O34  1  0.66962118  0.04490235  0.88206559  1
  O  O35  1  0.33037882  0.54490235  0.11793441  1
  O  O36  1  0.97393267  0.17539256  0.97330545  1
  O  O37  1  0.02606733  0.67539256  0.02669455  1
  O  O38  1  0.47393267  0.67539256  0.52669455  1
  O  O39  1  0.52606733  0.17539256  0.47330545  1
loop_
_geom_bond_atom_site_label_1
_geom_bond_atom_site_label_2
_geom_bond_distance
_geom_bond_site_symmetry_2
Na0 O18 2.527487 1_555
Na0 O34 2.532122 1_555
Na0 O4 2.576039 1_655
Na0 O0 2.603859 1_555
Na0 O36 2.624580 1_555
Na0 O8 2.735911 1_655
Na0 O22 2.810792 1_555
Na1 O19 2.527487 1_555
Na1 O35 2.532122 1_555
Na1 O5 2.576039 1_455
Na1 O1 2.603859 1_555
Na1 O37 2.624580 1_555
Na1 O9 2.735911 1_455
Na1 O23 2.810792 1_555
Na2 O16 2.527487 1_455
Na2 O32 2.532122 1_555
Na2 O6 2.576039 1_555
Na2 O2 2.603859 1_455
Na2 O38 2.624580 1_555
Na2 O10 2.735911 1_555
Na2 O20 2.810792 1_455
Na3 O17 2.527487 1_655
Na3 O33 2.532122 1_555
Na3 O7 2.576039 1_555
Na3 O3 2.603859 1_655
Na3 O39 2.624580 1_555
Na3 O11 2.735911 1_555
Na3 O21 2.810792 1_655
Na4 O39 2.371478 1_555
Na4 O26 2.453519 1_545
Na4 O22 2.536388 1_555
Na4 O8 2.667575 1_655
Na4 O33 2.844691 1_555
Na5 O38 2.371478 1_555
Na5 O27 2.453519 1_555
Na5 O23 2.536388 1_555
Na5 O9 2.667575 1_455
Na5 O32 2.844691 1_555
Na6 O37 2.371478 1_556
Na6 O24 2.453519 1_555
Na6 O20 2.536388 1_455
Na6 O10 2.667575 1_555
Na6 O35 2.844691 1_556
Na7 O36 2.371478 1_554
Na7 O25 2.453519 1_545
Na7 O21 2.536388 1_655
Na7 O11 2.667575 1_555
Na7 O34 2.844691 1_554
O0 P0 1.551713 1_555
O0 Ti0 2.045962 1_555
O1 P1 1.551713 1_555
O1 Ti1 2.045962 1_555
O2 P2 1.551713 1_555
O2 Ti2 2.045962 1_555
O3 P3 1.551713 1_555
O3 Ti3 2.045962 1_555
O4 P4 1.549276 1_455
O4 Ti0 2.002397 1_555
O5 P5 1.549276 1_665
O5 Ti1 2.002397 1_555
O6 P6 1.549276 1_565
O6 Ti2 2.002397 1_555
O7 P7 1.549276 1_555
O7 Ti3 2.002397 1_555
O8 Ti0 1.807456 1_555
O8 Ti4 1.978586 1_455
O9 Ti1 1.807456 1_555
O9 Ti5 1.978586 1_655
O10 Ti2 1.807456 1_555
O10 Ti6 1.978586 1_555
O11 Ti3 1.807456 1_555
O11 Ti7 1.978586 1_555
O12 P0 1.565336 1_554
O12 Ti3 1.943959 1_555
O13 P1 1.565336 1_556
O13 Ti2 1.943959 1_555
O14 P2 1.565336 1_555
O14 Ti1 1.943959 1_555
O15 P3 1.565336 1_555
O15 Ti0 1.943959 1_555
O16 Ti4 1.746775 1_565
O16 Ti2 2.070857 1_555
O17 Ti5 1.746775 1_555
O17 Ti3 2.070857 1_555
O18 Ti6 1.746775 1_555
O18 Ti0 2.070857 1_555
O19 Ti7 1.746775 1_565
O19 Ti1 2.070857 1_555
O20 P4 1.561778 1_555
O20 Ti2 2.020578 1_555
O21 P5 1.561778 1_555
O21 Ti3 2.020578 1_555
O22 P6 1.561778 1_555
O22 Ti0 2.020578 1_555
O23 P7 1.561778 1_555
O23 Ti1 2.020578 1_555
O24 P0 1.562052 1_555
O24 Ti5 2.022844 1_556
O25 P1 1.562052 1_555
O25 Ti4 2.022844 1_564
O26 P2 1.562052 1_555
O26 Ti7 2.022844 1_565
O27 P3 1.562052 1_555
O27 Ti6 2.022844 1_555
O28 P4 1.536582 1_555
O28 Ti6 1.947356 1_555
O29 P5 1.536582 1_565
O29 Ti7 1.947356 1_565
O30 P6 1.536582 1_565
O30 Ti4 1.947356 1_465
O31 P7 1.536582 1_555
O31 Ti5 1.947356 1_655
O32 P4 1.540819 1_455
O32 Ti6 2.024675 1_555
O33 P5 1.540819 1_655
O33 Ti7 2.024675 1_555
O34 P6 1.540819 1_555
O34 Ti4 2.024675 1_555
O35 P7 1.540819 1_555
O35 Ti5 2.024675 1_555
O36 P0 1.539297 1_655
O36 Ti4 2.272827 1_555
O37 P1 1.539297 1_455
O37 Ti5 2.272827 1_555
O38 P2 1.539297 1_555
O38 Ti6 2.272827 1_555
O39 P3 1.539297 1_555
O39 Ti7 2.272827 1_555
