# generated using pymatgen
data_Nd3Ni3Bi4
_symmetry_space_group_name_H-M   'P 1'
_cell_length_a   8.51812507
_cell_length_b   8.51812507
_cell_length_c   8.51812507
_cell_angle_alpha   109.47122063
_cell_angle_beta   109.47122063
_cell_angle_gamma   109.47122063
_symmetry_Int_Tables_number   1
_chemical_formula_structural   Nd3Ni3Bi4
_chemical_formula_sum   'Nd6 Ni6 Bi8'
_cell_volume   475.78434272
_cell_formula_units_Z   2
loop_
 _symmetry_equiv_pos_site_id
 _symmetry_equiv_pos_as_xyz
  1  'x, y, z'
loop_
 _atom_site_type_symbol
 _atom_site_label
 _atom_site_symmetry_multiplicity
 _atom_site_fract_x
 _atom_site_fract_y
 _atom_site_fract_z
 _atom_site_occupancy
  Nd  Nd0  1  0.12500000  0.87500000  0.25000000  1
  Nd  Nd1  1  0.37500000  0.62500000  0.75000000  1
  Nd  Nd2  1  0.87500000  0.25000000  0.12500000  1
  Nd  Nd3  1  0.62500000  0.75000000  0.37500000  1
  Nd  Nd4  1  0.25000000  0.12500000  0.87500000  1
  Nd  Nd5  1  0.75000000  0.37500000  0.62500000  1
  Ni  Ni0  1  0.62500000  0.37500000  0.25000000  1
  Ni  Ni1  1  0.87500000  0.12500000  0.75000000  1
  Ni  Ni2  1  0.37500000  0.25000000  0.62500000  1
  Ni  Ni3  1  0.12500000  0.75000000  0.87500000  1
  Ni  Ni4  1  0.25000000  0.62500000  0.37500000  1
  Ni  Ni5  1  0.75000000  0.87500000  0.12500000  1
  Bi  Bi0  1  0.35125115  0.35125115  0.35125115  1
  Bi  Bi1  1  0.14874885  0.50000000  0.00000000  1
  Bi  Bi2  1  -0.00000000  0.14874885  0.50000000  1
  Bi  Bi3  1  0.85125115  0.85125115  0.85125115  1
  Bi  Bi4  1  0.50000000  0.00000000  0.14874885  1
  Bi  Bi5  1  0.64874885  0.50000000  -0.00000000  1
  Bi  Bi6  1  0.50000000  -0.00000000  0.64874885  1
  Bi  Bi7  1  -0.00000000  0.64874885  0.50000000  1
loop_
_geom_bond_atom_site_label_1
_geom_bond_atom_site_label_2
_geom_bond_distance
_geom_bond_site_symmetry_2
Nd0 Ni5 3.011612 1_455
Nd0 Ni4 3.011612 1_555
Nd0 Ni3 3.011612 1_554
Nd0 Ni2 3.011612 1_565
Nd1 Ni2 3.011612 1_555
Nd1 Ni3 3.011612 1_555
Nd1 Ni4 3.011612 1_555
Nd1 Ni5 3.011612 1_556
Nd2 Ni4 3.011612 1_655
Nd2 Ni0 3.011612 1_555
Nd2 Ni5 3.011612 1_545
Nd2 Ni1 3.011612 1_554
Nd3 Ni0 3.011612 1_555
Nd3 Ni4 3.011612 1_555
Nd3 Ni1 3.011612 1_565
Nd3 Ni5 3.011612 1_555
Nd4 Ni1 3.011612 1_455
Nd4 Ni2 3.011612 1_555
Nd4 Ni3 3.011612 1_545
Nd4 Ni0 3.011612 1_556
Nd5 Ni2 3.011612 1_555
Nd5 Ni1 3.011612 1_555
Nd5 Ni3 3.011612 1_655
Nd5 Ni0 3.011612 1_555
Bi0 Ni2 2.713814 1_555
Bi0 Ni0 2.713814 1_555
Bi0 Ni4 2.713814 1_555
Bi0 Nd1 3.310959 1_555
Bi0 Nd5 3.310959 1_555
Bi0 Nd3 3.310959 1_555
Bi0 Nd4 3.501791 1_554
Bi0 Nd0 3.501791 1_545
Bi0 Nd2 3.501791 1_455
Bi1 Ni3 2.713814 1_554
Bi1 Ni1 2.713814 1_454
Bi1 Ni4 2.713814 1_555
Bi1 Nd0 3.310959 1_555
Bi1 Nd2 3.310959 1_455
Bi1 Nd5 3.310959 1_454
Bi1 Nd4 3.501791 1_554
Bi1 Nd1 3.501791 1_554
Bi1 Nd3 3.501791 1_555
Bi2 Ni2 2.713814 1_555
Bi2 Ni5 2.713814 1_445
Bi2 Ni1 2.713814 1_455
Bi2 Nd0 3.310959 1_545
Bi2 Nd3 3.310959 1_445
Bi2 Nd4 3.310959 1_555
Bi2 Nd1 3.501791 1_555
Bi2 Nd2 3.501791 1_455
Bi2 Nd5 3.501791 1_455
Bi3 Ni5 2.713814 1_556
Bi3 Ni3 2.713814 1_655
Bi3 Ni1 2.713814 1_565
Bi3 Nd4 3.310959 1_665
Bi3 Nd2 3.310959 1_566
Bi3 Nd0 3.310959 1_656
Bi3 Nd5 3.501791 1_555
Bi3 Nd3 3.501791 1_555
Bi3 Nd1 3.501791 1_555
Bi4 Ni3 2.713814 1_544
Bi4 Ni5 2.713814 1_545
Bi4 Ni0 2.713814 1_555
Bi4 Nd2 3.310959 1_555
Bi4 Nd1 3.310959 1_544
Bi4 Nd4 3.310959 1_554
Bi4 Nd0 3.501791 1_545
Bi4 Nd5 3.501791 1_555
Bi4 Nd3 3.501791 1_545
Bi5 Ni2 2.713814 1_554
Bi5 Ni5 2.713814 1_555
Bi5 Ni0 2.713814 1_555
Bi5 Nd1 3.310959 1_554
Bi5 Nd4 3.310959 1_554
Bi5 Nd3 3.310959 1_555
Bi5 Nd5 3.501791 1_554
Bi5 Nd0 3.501791 1_655
Bi5 Nd2 3.501791 1_555
Bi6 Ni2 2.713814 1_555
Bi6 Ni1 2.713814 1_555
Bi6 Ni4 2.713814 1_545
Bi6 Nd3 3.310959 1_545
Bi6 Nd0 3.310959 1_545
Bi6 Nd5 3.310959 1_555
Bi6 Nd4 3.501791 1_555
Bi6 Nd2 3.501791 1_556
Bi6 Nd1 3.501791 1_545
Bi7 Ni0 2.713814 1_455
Bi7 Ni3 2.713814 1_555
Bi7 Ni4 2.713814 1_555
Bi7 Nd1 3.310959 1_555
Bi7 Nd5 3.310959 1_455
Bi7 Nd2 3.310959 1_455
Bi7 Nd3 3.501791 1_455
Bi7 Nd4 3.501791 1_565
Bi7 Nd0 3.501791 1_555
