# generated using pymatgen
data_Ba6Sr2CoCu7O24
_symmetry_space_group_name_H-M   'P 1'
_cell_length_a   7.98715232
_cell_length_b   7.98715232
_cell_length_c   7.96963300
_cell_angle_alpha   90.00000000
_cell_angle_beta   90.00000000
_cell_angle_gamma   90.12877876
_symmetry_Int_Tables_number   1
_chemical_formula_structural   Ba6Sr2CoCu7O24
_chemical_formula_sum   'Ba6 Sr2 Co1 Cu7 O24'
_cell_volume   508.41828231
_cell_formula_units_Z   1
loop_
 _symmetry_equiv_pos_site_id
 _symmetry_equiv_pos_as_xyz
  1  'x, y, z'
loop_
 _atom_site_type_symbol
 _atom_site_label
 _atom_site_symmetry_multiplicity
 _atom_site_fract_x
 _atom_site_fract_y
 _atom_site_fract_z
 _atom_site_occupancy
  Ba  Ba0  1  0.75186600  0.24772300  0.24984500  1
  Ba  Ba1  1  0.24802100  0.24802100  0.24969800  1
  Ba  Ba2  1  0.24772300  0.75186600  0.24984500  1
  Ba  Ba3  1  0.75186600  0.24772300  0.75015500  1
  Ba  Ba4  1  0.24802100  0.24802100  0.75030200  1
  Ba  Ba5  1  0.24772300  0.75186600  0.75015500  1
  Sr  Sr0  1  0.75311200  0.75311200  0.25142000  1
  Sr  Sr1  1  0.75311200  0.75311200  0.74858000  1
  Co  Co0  1  0.50356700  0.50356700  0.00000000  1
  Cu  Cu0  1  0.99978000  0.99978000  0.00000000  1
  Cu  Cu1  1  0.00036400  0.50064500  0.00000000  1
  Cu  Cu2  1  0.50064500  0.00036400  0.00000000  1
  Cu  Cu3  1  0.99957000  0.99957000  0.50000000  1
  Cu  Cu4  1  0.99990500  0.50002500  0.50000000  1
  Cu  Cu5  1  0.50002500  0.99990500  0.50000000  1
  Cu  Cu6  1  0.50051600  0.50051600  0.50000000  1
  O  O0  1  0.99240900  0.99240900  0.25075400  1
  O  O1  1  0.99258600  0.50758700  0.24892700  1
  O  O2  1  0.50758700  0.99258600  0.24892700  1
  O  O3  1  0.50536300  0.50536300  0.24335600  1
  O  O4  1  0.99240900  0.99240900  0.74924600  1
  O  O5  1  0.99258600  0.50758700  0.75107300  1
  O  O6  1  0.50758700  0.99258600  0.75107300  1
  O  O7  1  0.50536300  0.50536300  0.75664400  1
  O  O8  1  0.74833600  0.98744000  0.00000000  1
  O  O9  1  0.74337700  0.50830500  0.00000000  1
  O  O10  1  0.25172500  0.99852600  0.00000000  1
  O  O11  1  0.25861100  0.50187900  0.00000000  1
  O  O12  1  0.75014500  0.98767100  0.50000000  1
  O  O13  1  0.74793700  0.51241900  0.50000000  1
  O  O14  1  0.24975300  0.99806300  0.50000000  1
  O  O15  1  0.25216400  0.50194400  0.50000000  1
  O  O16  1  0.99852600  0.25172500  0.00000000  1
  O  O17  1  0.98744000  0.74833600  0.00000000  1
  O  O18  1  0.50187900  0.25861100  0.00000000  1
  O  O19  1  0.50830500  0.74337700  0.00000000  1
  O  O20  1  0.99806300  0.24975300  0.50000000  1
  O  O21  1  0.98767100  0.75014500  0.50000000  1
  O  O22  1  0.50194400  0.25216400  0.50000000  1
  O  O23  1  0.51241900  0.74793700  0.50000000  1
loop_
_geom_bond_atom_site_label_1
_geom_bond_atom_site_label_2
_geom_bond_distance
_geom_bond_site_symmetry_2
Ba0 O20 2.800270 1_555
Ba0 O16 2.801222 1_555
Ba0 O0 2.804879 1_545
Ba0 O2 2.818093 1_545
Ba0 O18 2.821323 1_555
Ba0 O22 2.821501 1_555
Ba0 O1 2.826087 1_555
Ba0 O3 2.851643 1_555
Ba0 O8 2.878751 1_545
Ba0 O12 2.879048 1_545
Ba0 O9 2.881292 1_555
Ba0 O13 2.906132 1_555
Ba1 O10 2.816437 1_545
Ba1 O16 2.816437 1_455
Ba1 O14 2.822309 1_545
Ba1 O20 2.822309 1_455
Ba1 O11 2.842123 1_555
Ba1 O18 2.842123 1_555
Ba1 O15 2.844883 1_555
Ba1 O22 2.844883 1_555
Ba1 O0 2.884041 1_445
Ba1 O3 2.903988 1_555
Ba1 O1 2.911974 1_455
Ba1 O2 2.911974 1_545
Ba2 O14 2.800270 1_555
Ba2 O10 2.801222 1_555
Ba2 O0 2.804879 1_455
Ba2 O1 2.818093 1_455
Ba2 O11 2.821323 1_555
Ba2 O15 2.821501 1_555
Ba2 O2 2.826087 1_555
Ba2 O3 2.851643 1_555
Ba2 O17 2.878751 1_455
Ba2 O21 2.879048 1_455
Ba2 O19 2.881292 1_555
Ba2 O23 2.906132 1_555
Ba3 O20 2.800270 1_555
Ba3 O16 2.801222 1_556
Ba3 O4 2.804879 1_545
Ba3 O6 2.818093 1_545
Ba3 O18 2.821323 1_556
Ba3 O22 2.821501 1_555
Ba3 O5 2.826087 1_555
Ba3 O7 2.851643 1_555
Ba3 O8 2.878751 1_546
Ba3 O12 2.879048 1_545
Ba3 O9 2.881292 1_556
Ba3 O13 2.906132 1_555
Ba4 O10 2.816437 1_546
Ba4 O16 2.816437 1_456
Ba4 O14 2.822309 1_545
Ba4 O20 2.822309 1_455
Ba4 O18 2.842123 1_556
Ba4 O11 2.842123 1_556
Ba4 O15 2.844883 1_555
Ba4 O22 2.844883 1_555
Ba4 O4 2.884041 1_445
Ba4 O7 2.903988 1_555
Ba4 O5 2.911974 1_455
Ba4 O6 2.911974 1_545
Ba5 O14 2.800270 1_555
Ba5 O10 2.801222 1_556
Ba5 O4 2.804879 1_455
Ba5 O5 2.818093 1_455
Ba5 O11 2.821323 1_556
Ba5 O15 2.821501 1_555
Ba5 O6 2.826087 1_555
Ba5 O7 2.851643 1_555
Ba5 O17 2.878751 1_456
Ba5 O21 2.879048 1_455
Ba5 O19 2.881292 1_556
Ba5 O23 2.906132 1_555
Co0 O19 1.915688 1_555
Co0 O9 1.915688 1_555
Co0 O3 1.939564 1_555
Co0 O7 1.939564 1_554
Co0 O11 1.956517 1_555
Co0 O18 1.956517 1_555
Cu0 O0 2.000147 1_555
Cu0 O4 2.000147 1_554
Cu0 O17 2.010517 1_555
Cu0 O8 2.010517 1_555
Cu0 O10 2.012371 1_655
Cu0 O16 2.012371 1_565
Cu1 O17 1.981269 1_455
Cu1 O5 1.985608 1_454
Cu1 O1 1.985608 1_455
Cu1 O16 1.988183 1_455
Cu1 O9 2.053643 1_455
Cu1 O11 2.062660 1_555
Cu2 O8 1.981269 1_545
Cu2 O2 1.985608 1_545
Cu2 O6 1.985608 1_544
Cu2 O10 1.988183 1_545
Cu2 O19 2.053643 1_545
Cu2 O18 2.062660 1_555
Cu3 O4 1.988042 1_555
Cu3 O0 1.988042 1_555
Cu3 O21 1.994248 1_555
Cu3 O12 1.994248 1_555
Cu3 O20 1.998313 1_565
Cu3 O14 1.998313 1_655
Cu4 O20 1.998982 1_555
Cu4 O21 2.000354 1_555
Cu4 O1 2.002728 1_555
Cu4 O5 2.002728 1_555
Cu4 O15 2.014855 1_655
Cu4 O13 2.015162 1_555
Cu5 O14 1.998982 1_555
Cu5 O12 2.000354 1_555
Cu5 O6 2.002728 1_555
Cu5 O2 2.002728 1_555
Cu5 O22 2.014855 1_565
Cu5 O23 2.015162 1_555
Cu6 O13 1.978261 1_555
Cu6 O23 1.978261 1_555
Cu6 O15 1.983684 1_555
Cu6 O22 1.983684 1_555
Cu6 O3 2.046089 1_555
Cu6 O7 2.046089 1_555
O0 Sr0 2.699955 1_555
O1 Sr0 2.742524 1_555
O2 Sr0 2.742524 1_555
O3 Sr0 2.796051 1_555
O4 Sr1 2.699955 1_555
O5 Sr1 2.742524 1_555
O6 Sr1 2.742524 1_555
O7 Sr1 2.796051 1_555
O8 Sr0 2.742194 1_555
O8 Sr1 2.742194 1_554
O9 Sr0 2.800628 1_555
O9 Sr1 2.800628 1_554
O12 Sr0 2.726780 1_555
O12 Sr1 2.726780 1_555
O13 Sr0 2.760778 1_555
O13 Sr1 2.760778 1_555
O17 Sr0 2.742194 1_555
O17 Sr1 2.742194 1_554
O19 Sr0 2.800628 1_555
O19 Sr1 2.800628 1_554
O21 Sr0 2.726780 1_555
O21 Sr1 2.726780 1_555
O23 Sr0 2.760778 1_555
O23 Sr1 2.760778 1_555
