# generated using pymatgen
data_Zr2Si7Ni3
_symmetry_space_group_name_H-M   'P 1'
_cell_length_a   3.91162700
_cell_length_b   3.91162700
_cell_length_c   11.96157929
_cell_angle_alpha   80.58942743
_cell_angle_beta   80.58942743
_cell_angle_gamma   90.00000000
_symmetry_Int_Tables_number   1
_chemical_formula_structural   Zr2Si7Ni3
_chemical_formula_sum   'Zr2 Si7 Ni3'
_cell_volume   178.06175351
_cell_formula_units_Z   1
loop_
 _symmetry_equiv_pos_site_id
 _symmetry_equiv_pos_as_xyz
  1  'x, y, z'
loop_
 _atom_site_type_symbol
 _atom_site_label
 _atom_site_symmetry_multiplicity
 _atom_site_fract_x
 _atom_site_fract_y
 _atom_site_fract_z
 _atom_site_occupancy
  Zr  Zr0  1  0.14187500  0.14187500  0.71625100  1
  Zr  Zr1  1  0.84979500  0.84979500  0.30041000  1
  Si  Si0  1  0.54813500  0.04813500  0.90372900  1
  Si  Si1  1  0.04813500  0.54813500  0.90372900  1
  Si  Si2  1  0.44622600  0.94622600  0.10754800  1
  Si  Si3  1  0.94622600  0.44622600  0.10754800  1
  Si  Si4  1  0.60587100  0.60587100  0.78825800  1
  Si  Si5  1  0.30425100  0.30425100  0.39149700  1
  Si  Si6  1  0.70479100  0.70479100  0.59041800  1
  Ni  Ni0  1  0.75176100  0.25176100  0.49647700  1
  Ni  Ni1  1  0.25176100  0.75176100  0.49647700  1
  Ni  Ni2  1  0.40117100  0.40117100  0.19765700  1
loop_
_geom_bond_atom_site_label_1
_geom_bond_atom_site_label_2
_geom_bond_distance
_geom_bond_site_symmetry_2
Si0 Si2 2.371922 1_546
Si0 Si4 2.372962 1_545
Si0 Si4 2.372965 1_555
Si0 Si1 2.765938 1_555
Si0 Si1 2.765938 1_545
Si0 Si1 2.765938 1_655
Si0 Si1 2.765938 1_645
Si0 Zr0 2.930060 1_555
Si0 Zr0 2.930065 1_655
Si1 Si3 2.371922 1_456
Si1 Si4 2.372962 1_455
Si1 Si4 2.372965 1_555
Si1 Zr0 2.930060 1_555
Si1 Zr0 2.930065 1_565
Si2 Si3 2.765938 1_465
Si2 Si3 2.765938 1_565
Si2 Si3 2.765938 1_455
Si2 Si3 2.765938 1_555
Si2 Zr1 2.977010 1_455
Si2 Zr1 2.977010 1_555
Si3 Zr1 2.977010 1_545
Si3 Zr1 2.977010 1_555
Si4 Si6 2.302342 1_555
Si4 Zr0 2.890086 1_555
Si4 Zr0 2.890089 1_655
Si4 Zr0 2.890089 1_565
Si4 Zr0 2.890091 1_665
Si5 Zr1 2.962099 1_445
Si5 Zr1 2.962102 1_455
Si5 Zr1 2.962102 1_545
Si5 Zr1 2.962104 1_555
Si6 Zr0 3.129660 1_555
Si6 Zr0 3.129663 1_565
Si6 Zr0 3.129663 1_655
Si6 Zr0 3.129665 1_665
Ni0 Si6 2.240613 1_545
Ni0 Si6 2.240617 1_555
Ni0 Si5 2.306023 1_655
Ni0 Si5 2.306023 1_555
Ni0 Ni1 2.765938 1_555
Ni0 Ni1 2.765938 1_545
Ni0 Ni1 2.765938 1_645
Ni0 Ni1 2.765938 1_655
Ni0 Zr1 3.005228 1_545
Ni0 Zr1 3.005230 1_555
Ni0 Zr0 3.219704 1_555
Ni0 Zr0 3.219709 1_655
Ni1 Si6 2.240613 1_455
Ni1 Si6 2.240617 1_555
Ni1 Si5 2.306023 1_565
Ni1 Si5 2.306023 1_555
Ni1 Zr1 3.005228 1_455
Ni1 Zr1 3.005230 1_555
Ni1 Zr0 3.219704 1_555
Ni1 Zr0 3.219709 1_565
Ni2 Si3 2.219196 1_455
Ni2 Si2 2.219196 1_545
Ni2 Si3 2.219200 1_555
Ni2 Si2 2.219200 1_555
Ni2 Si5 2.255793 1_555
Ni2 Zr1 3.013350 1_445
Ni2 Zr1 3.013353 1_545
Ni2 Zr1 3.013353 1_455
Ni2 Zr1 3.013356 1_555
