# generated using pymatgen
data_Ba2MgV2(Si2O7)2
_symmetry_space_group_name_H-M   'P 1'
_cell_length_a   5.61188653
_cell_length_b   7.40584546
_cell_length_c   8.36145628
_cell_angle_alpha   92.51761685
_cell_angle_beta   111.83282786
_cell_angle_gamma   85.77692186
_symmetry_Int_Tables_number   1
_chemical_formula_structural   Ba2MgV2(Si2O7)2
_chemical_formula_sum   'Ba2 Mg1 V2 Si4 O14'
_cell_volume   321.65553992
_cell_formula_units_Z   1
loop_
 _symmetry_equiv_pos_site_id
 _symmetry_equiv_pos_as_xyz
  1  'x, y, z'
loop_
 _atom_site_type_symbol
 _atom_site_label
 _atom_site_symmetry_multiplicity
 _atom_site_fract_x
 _atom_site_fract_y
 _atom_site_fract_z
 _atom_site_occupancy
  Ba  Ba0  1  0.80713100  0.73859300  0.62870500  1
  Ba  Ba1  1  0.23661100  0.25330400  0.45685200  1
  Mg  Mg0  1  0.02141800  0.64658800  0.19159200  1
  V  V0  1  0.15525500  0.96665100  0.10165500  1
  V  V1  1  0.90718200  0.24843600  0.79863200  1
  Si  Si0  1  0.42217600  0.52744900  0.82578700  1
  Si  Si1  1  0.60911000  0.46553900  0.23479000  1
  Si  Si2  1  0.39565000  0.96806800  0.79981700  1
  Si  Si3  1  0.66673100  0.02766300  0.21502500  1
  O  O0  1  0.14804100  0.43415200  0.75475500  1
  O  O1  1  0.37040400  0.51892300  0.29385300  1
  O  O2  1  0.10031500  0.05381600  0.70532900  1
  O  O3  1  0.48422400  0.95756400  0.31046400  1
  O  O4  1  0.57242000  0.52168600  0.03645200  1
  O  O5  1  0.47357000  0.99933500  0.01011500  1
  O  O6  1  0.02358500  0.75868100  0.98387600  1
  O  O7  1  0.02399700  0.20441800  0.03075900  1
  O  O8  1  0.38078200  0.74436600  0.76167000  1
  O  O9  1  0.69186900  0.24448900  0.26278000  1
  O  O10  1  0.61304500  0.43767100  0.73056200  1
  O  O11  1  0.87760200  0.55343600  0.35222400  1
  O  O12  1  0.59471500  0.05103400  0.72837800  1
  O  O13  1  0.95016700  0.92813900  0.26248700  1
loop_
_geom_bond_atom_site_label_1
_geom_bond_atom_site_label_2
_geom_bond_distance
_geom_bond_site_symmetry_2
Ba0 O6 2.760739 1_655
Ba0 O12 2.762778 1_565
Ba0 O11 2.775376 1_555
Ba0 O0 2.815685 1_655
Ba0 O10 2.844727 1_555
Ba0 O2 2.866642 1_665
Ba0 O8 2.986946 1_555
Ba0 O8 2.992574 1_655
Ba0 O3 3.058429 1_555
Ba0 O1 3.402291 1_555
Ba1 O1 2.739542 1_555
Ba1 O12 2.810490 1_555
Ba1 O11 2.822281 1_455
Ba1 O10 2.849379 1_555
Ba1 O9 2.883268 1_455
Ba1 O2 2.949968 1_555
Ba1 O0 2.962299 1_555
Ba1 O3 2.967739 1_545
Ba1 O13 3.050808 1_445
Ba1 O7 3.322108 1_555
Mg0 O6 1.962053 1_554
Mg0 O11 1.975081 1_455
Mg0 O1 2.003341 1_555
Mg0 O13 2.191788 1_455
Mg0 O4 2.587288 1_455
O0 Si0 1.624117 1_555
O0 V1 2.130793 1_455
O1 Si1 1.609849 1_555
O2 Si2 1.639971 1_545
O2 V1 2.039810 1_455
O3 Si3 1.636449 1_565
O3 V0 2.013864 1_555
O4 Si0 1.646850 1_554
O4 Si1 1.661193 1_555
O5 Si2 1.656509 1_554
O5 Si3 1.665864 1_565
O5 V0 2.220905 1_555
O6 V0 1.838788 1_556
O7 V1 1.838725 1_454
O7 V0 1.889584 1_545
O8 Si2 1.675560 1_555
O8 Si0 1.688236 1_555
O9 Si3 1.641038 1_555
O9 Si1 1.670712 1_555
O10 Si0 1.645090 1_555
O10 V1 2.010786 1_555
O11 Si1 1.626664 1_555
O12 Si2 1.616165 1_545
O12 V1 2.256793 1_555
O13 Si3 1.616882 1_565
O13 V0 2.108960 1_655
