# generated using pymatgen
data_Sm12(OsC3)5
_symmetry_space_group_name_H-M   'P 1'
_cell_length_a   5.23843487
_cell_length_b   10.85609891
_cell_length_c   10.85611639
_cell_angle_alpha   119.99995093
_cell_angle_beta   89.99999904
_cell_angle_gamma   90.00000059
_symmetry_Int_Tables_number   1
_chemical_formula_structural   Sm12(OsC3)5
_chemical_formula_sum   'Sm12 Os5 C15'
_cell_volume   534.66367266
_cell_formula_units_Z   1
loop_
 _symmetry_equiv_pos_site_id
 _symmetry_equiv_pos_as_xyz
  1  'x, y, z'
loop_
 _atom_site_type_symbol
 _atom_site_label
 _atom_site_symmetry_multiplicity
 _atom_site_fract_x
 _atom_site_fract_y
 _atom_site_fract_z
 _atom_site_occupancy
  Sm  Sm0  1  0.50000001  0.20630341  0.20631313  1
  Sm  Sm1  1  0.50000001  0.00000796  0.79369864  1
  Sm  Sm2  1  0.50000003  0.79367476  -0.00000894  1
  Sm  Sm3  1  -0.00000002  0.72727573  0.18408708  1
  Sm  Sm4  1  -0.00000007  0.45683266  0.27272043  1
  Sm  Sm5  1  0.00000003  0.54317789  0.81590331  1
  Sm  Sm6  1  -0.00000001  0.81589673  0.54317075  1
  Sm  Sm7  1  0.00000005  0.18412377  0.72727850  1
  Sm  Sm8  1  -0.00000001  0.27272888  0.45683697  1
  Sm  Sm9  1  0.49999993  0.56925930  0.56927907  1
  Sm  Sm10  1  0.50000002  0.00000306  0.43072509  1
  Sm  Sm11  1  0.49999992  0.43073352  -0.00000858  1
  Os  Os0  1  0.00000016  0.83907374  0.83908986  1
  Os  Os1  1  0.00000006  -0.00001344  0.16091103  1
  Os  Os2  1  0.00000019  0.16091287  0.00000367  1
  Os  Os3  1  0.50000000  0.66666719  0.33332468  1
  Os  Os4  1  0.49999988  0.33334406  0.66667347  1
  C  C0  1  0.00000000  0.66689520  0.66690119  1
  C  C1  1  -0.00000000  0.00000265  0.33310208  1
  C  C2  1  0.00000002  0.33310542  -0.00000279  1
  C  C3  1  0.00000001  0.20291586  0.20292148  1
  C  C4  1  0.00000006  0.00000289  0.79708416  1
  C  C5  1  0.00000009  0.79707450  -0.00000401  1
  C  C6  1  -0.00000007  0.54431700  0.54432879  1
  C  C7  1  -0.00000006  0.00000921  0.45568088  1
  C  C8  1  -0.00000001  0.45567146  -0.00000920  1
  C  C9  1  0.49999994  0.71390737  0.18600662  1
  C  C10  1  0.49999996  0.47210092  0.28609192  1
  C  C11  1  0.49999996  0.52790012  0.81399073  1
  C  C12  1  0.49999998  0.81399292  0.52790080  1
  C  C13  1  0.49999998  0.18601118  0.71391076  1
  C  C14  1  0.49999996  0.28608821  0.47209741  1
loop_
_geom_bond_atom_site_label_1
_geom_bond_atom_site_label_2
_geom_bond_distance
_geom_bond_site_symmetry_2
C0 C6 1.330692 1_555
C0 Os0 1.869245 1_555
C0 Sm5 2.567687 1_555
C0 Sm6 2.567800 1_555
C0 Sm9 2.825531 1_555
C0 Sm9 2.825532 1_455
C1 C7 1.330694 1_555
C1 Os1 1.869239 1_555
C1 Sm8 2.567742 1_555
C1 Sm3 2.567762 1_545
C1 Sm10 2.825506 1_455
C1 Sm10 2.825506 1_555
C2 C8 1.330624 1_555
C2 Os2 1.869374 1_555
C2 Sm7 2.567672 1_554
C2 Sm4 2.567722 1_555
C2 Sm11 2.825538 1_555
C2 Sm11 2.825539 1_455
C3 Os2 2.014000 1_555
C3 Os1 2.014093 1_555
C3 Sm8 2.466522 1_555
C3 Sm4 2.466570 1_555
C3 Sm0 2.619476 1_455
C3 Sm0 2.619476 1_555
C4 Os2 2.013995 1_556
C4 Os0 2.014168 1_545
C4 Sm6 2.466516 1_545
C4 Sm7 2.466653 1_555
C4 Sm1 2.619475 1_555
C4 Sm1 2.619476 1_455
C5 Os0 2.013879 1_554
C5 Os1 2.013958 1_565
C5 Sm3 2.466291 1_555
C5 Sm5 2.466347 1_554
C5 Sm2 2.619477 1_555
C5 Sm2 2.619477 1_455
C6 Sm8 2.606667 1_555
C6 Sm4 2.606897 1_555
C6 Sm9 2.633181 1_455
C6 Sm9 2.633181 1_555
C7 Sm7 2.606789 1_555
C7 Sm6 2.606818 1_545
C7 Sm10 2.633188 1_455
C7 Sm10 2.633189 1_555
C8 Sm5 2.606697 1_554
C8 Sm3 2.606800 1_555
C8 Sm11 2.633172 1_555
C8 Sm11 2.633173 1_455
C9 Os3 1.908132 1_555
C9 Sm2 2.564493 1_555
C9 Sm3 2.623894 1_555
C9 Sm3 2.623894 1_655
C9 Sm11 2.705643 1_555
C9 Sm10 2.907432 1_565
C10 Os3 1.908238 1_555
C10 Sm0 2.564614 1_555
C10 Sm4 2.623887 1_655
C10 Sm4 2.623888 1_555
C10 Sm9 2.705782 1_555
C10 Sm11 2.907526 1_555
C11 Os4 1.908113 1_555
C11 Sm2 2.564389 1_556
C11 Sm5 2.623889 1_555
C11 Sm5 2.623890 1_655
C11 Sm11 2.705561 1_556
C11 Sm9 2.907239 1_555
C12 Os3 1.908291 1_555
C12 Sm1 2.564612 1_565
C12 Sm6 2.623887 1_555
C12 Sm6 2.623887 1_655
C12 Sm10 2.705731 1_565
C12 Sm9 2.907598 1_555
C13 Os4 1.908265 1_555
C13 Sm1 2.564525 1_555
C13 Sm7 2.623881 1_555
C13 Sm7 2.623882 1_655
C13 Sm10 2.705730 1_555
C13 Sm11 2.907350 1_556
C14 Os4 1.908273 1_555
C14 Sm0 2.564466 1_555
C14 Sm8 2.623881 1_555
C14 Sm8 2.623881 1_655
C14 Sm9 2.705568 1_555
C14 Sm10 2.907335 1_555
