# generated using pymatgen
data_KRbMg30O31
_symmetry_space_group_name_H-M   'P 1'
_cell_length_a   8.54488400
_cell_length_b   8.71697000
_cell_length_c   8.73772400
_cell_angle_alpha   90.00000000
_cell_angle_beta   90.00000000
_cell_angle_gamma   90.00000000
_symmetry_Int_Tables_number   1
_chemical_formula_structural   KRbMg30O31
_chemical_formula_sum   'K1 Rb1 Mg30 O31'
_cell_volume   650.83371900
_cell_formula_units_Z   1
loop_
 _symmetry_equiv_pos_site_id
 _symmetry_equiv_pos_as_xyz
  1  'x, y, z'
loop_
 _atom_site_type_symbol
 _atom_site_label
 _atom_site_symmetry_multiplicity
 _atom_site_fract_x
 _atom_site_fract_y
 _atom_site_fract_z
 _atom_site_occupancy
  K  K0  1  0.99294800  0.00000000  0.00000000  1
  Rb  Rb0  1  0.12023900  0.00000000  0.50000000  1
  Mg  Mg0  1  0.99280500  0.50000000  0.00000000  1
  Mg  Mg1  1  0.98974900  0.50000000  0.50000000  1
  Mg  Mg2  1  0.49999100  0.00000000  0.00000000  1
  Mg  Mg3  1  0.51738100  0.00000000  0.50000000  1
  Mg  Mg4  1  0.50049300  0.50000000  0.00000000  1
  Mg  Mg5  1  0.50525800  0.50000000  0.50000000  1
  Mg  Mg6  1  0.99644100  0.25195400  0.25115600  1
  Mg  Mg7  1  0.99644100  0.25195400  0.74884400  1
  Mg  Mg8  1  0.99644100  0.74804600  0.25115600  1
  Mg  Mg9  1  0.99644100  0.74804600  0.74884400  1
  Mg  Mg10  1  0.49820100  0.24807600  0.25200400  1
  Mg  Mg11  1  0.49820100  0.24807600  0.74799600  1
  Mg  Mg12  1  0.49820100  0.75192400  0.25200400  1
  Mg  Mg13  1  0.49820100  0.75192400  0.74799600  1
  Mg  Mg14  1  0.24752600  0.00000000  0.21867600  1
  Mg  Mg15  1  0.24752600  0.00000000  0.78132400  1
  Mg  Mg16  1  0.24706200  0.50000000  0.24478700  1
  Mg  Mg17  1  0.24706200  0.50000000  0.75521300  1
  Mg  Mg18  1  0.75698200  0.00000000  0.25734300  1
  Mg  Mg19  1  0.75698200  0.00000000  0.74265700  1
  Mg  Mg20  1  0.74751100  0.50000000  0.25008100  1
  Mg  Mg21  1  0.74751100  0.50000000  0.74991900  1
  Mg  Mg22  1  0.24778600  0.25860400  0.00000000  1
  Mg  Mg23  1  0.24954200  0.28188900  0.50000000  1
  Mg  Mg24  1  0.24778600  0.74139600  0.00000000  1
  Mg  Mg25  1  0.24954200  0.71811100  0.50000000  1
  Mg  Mg26  1  0.74604100  0.24959000  0.00000000  1
  Mg  Mg27  1  0.75894900  0.24314600  0.50000000  1
  Mg  Mg28  1  0.74604100  0.75041000  0.00000000  1
  Mg  Mg29  1  0.75894900  0.75685400  0.50000000  1
  O  O0  1  0.27339500  0.00000000  0.00000000  1
  O  O1  1  0.25410300  0.50000000  0.00000000  1
  O  O2  1  0.25738500  0.50000000  0.50000000  1
  O  O3  1  0.72195800  0.00000000  0.00000000  1
  O  O4  1  0.74376200  0.00000000  0.50000000  1
  O  O5  1  0.74244700  0.50000000  0.00000000  1
  O  O6  1  0.74356600  0.50000000  0.50000000  1
  O  O7  1  0.24722900  0.24616500  0.25454400  1
  O  O8  1  0.24722900  0.24616500  0.74545600  1
  O  O9  1  0.24722900  0.75383500  0.25454400  1
  O  O10  1  0.24722900  0.75383500  0.74545600  1
  O  O11  1  0.74679100  0.24907500  0.25183000  1
  O  O12  1  0.74679100  0.24907500  0.74817000  1
  O  O13  1  0.74679100  0.75092500  0.25183000  1
  O  O14  1  0.74679100  0.75092500  0.74817000  1
  O  O15  1  0.99872200  0.00000000  0.26095900  1
  O  O16  1  0.99872200  0.00000000  0.73904100  1
  O  O17  1  0.99888300  0.50000000  0.25166000  1
  O  O18  1  0.99888300  0.50000000  0.74834000  1
  O  O19  1  0.48637900  0.00000000  0.26291300  1
  O  O20  1  0.48637900  0.00000000  0.73708700  1
  O  O21  1  0.49633300  0.50000000  0.25269900  1
  O  O22  1  0.49633300  0.50000000  0.74730100  1
  O  O23  1  0.00012700  0.27448100  0.00000000  1
  O  O24  1  0.00320400  0.27133400  0.50000000  1
  O  O25  1  0.00012700  0.72551900  0.00000000  1
  O  O26  1  0.00320400  0.72866600  0.50000000  1
  O  O27  1  0.49536200  0.25362900  0.00000000  1
  O  O28  1  0.48952400  0.24442100  0.50000000  1
  O  O29  1  0.49536200  0.74637100  0.00000000  1
  O  O30  1  0.48952400  0.75557900  0.50000000  1
loop_
_geom_bond_atom_site_label_1
_geom_bond_atom_site_label_2
_geom_bond_distance
_geom_bond_site_symmetry_2
K0 O15 2.280721 1_555
K0 O16 2.280721 1_554
K0 O3 2.315578 1_555
K0 O23 2.393429 1_655
K0 O25 2.393429 1_645
K0 O0 2.396387 1_655
Mg0 O25 1.966838 1_655
Mg0 O23 1.966838 1_655
Mg0 O5 2.139280 1_555
Mg0 O18 2.199549 1_554
Mg0 O17 2.199549 1_555
Mg0 O1 2.232761 1_655
Mg1 O26 1.996588 1_655
Mg1 O24 1.996588 1_655
Mg1 O6 2.103605 1_555
Mg1 O17 2.171330 1_555
Mg1 O18 2.171330 1_555
Mg1 O2 2.286919 1_655
Mg2 O3 1.896682 1_555
Mg2 O0 1.936237 1_555
Mg2 O27 2.211230 1_555
Mg2 O29 2.211230 1_545
Mg2 O19 2.300204 1_555
Mg2 O20 2.300204 1_554
Mg3 O4 1.934399 1_555
Mg3 O20 2.088470 1_555
Mg3 O19 2.088470 1_555
Mg3 O28 2.143866 1_555
Mg3 O30 2.143866 1_545
Mg4 O5 2.067469 1_555
Mg4 O1 2.105374 1_555
Mg4 O29 2.148056 1_555
Mg4 O27 2.148056 1_555
Mg4 O22 2.208300 1_554
Mg4 O21 2.208300 1_555
Mg5 O6 2.036314 1_555
Mg5 O2 2.118046 1_555
Mg5 O21 2.162193 1_555
Mg5 O22 2.162193 1_555
Mg5 O28 2.231927 1_555
Mg5 O30 2.231927 1_555
Mg6 O11 2.133386 1_555
Mg6 O7 2.143753 1_655
Mg6 O17 2.162315 1_555
Mg6 O24 2.181649 1_655
Mg6 O15 2.198032 1_555
Mg6 O23 2.203525 1_655
Mg7 O12 2.133386 1_555
Mg7 O8 2.143753 1_655
Mg7 O18 2.162315 1_555
Mg7 O24 2.181649 1_655
Mg7 O16 2.198032 1_555
Mg7 O23 2.203525 1_656
Mg8 O13 2.133386 1_555
Mg8 O9 2.143753 1_655
Mg8 O17 2.162315 1_555
Mg8 O26 2.181649 1_655
Mg8 O15 2.198032 1_565
Mg8 O25 2.203525 1_655
Mg9 O14 2.133386 1_555
Mg9 O10 2.143753 1_655
Mg9 O18 2.162315 1_555
Mg9 O26 2.181649 1_655
Mg9 O16 2.198032 1_565
Mg9 O25 2.203525 1_656
Mg10 O11 2.124191 1_555
Mg10 O7 2.144706 1_555
Mg10 O19 2.166927 1_555
Mg10 O28 2.168423 1_555
Mg10 O21 2.196080 1_555
Mg10 O27 2.202607 1_555
Mg11 O12 2.124191 1_555
Mg11 O8 2.144706 1_555
Mg11 O20 2.166927 1_555
Mg11 O28 2.168423 1_555
Mg11 O22 2.196080 1_555
Mg11 O27 2.202607 1_556
Mg12 O13 2.124191 1_555
Mg12 O9 2.144706 1_555
Mg12 O19 2.166927 1_565
Mg12 O30 2.168423 1_555
Mg12 O21 2.196080 1_555
Mg12 O29 2.202607 1_555
Mg13 O14 2.124191 1_555
Mg13 O10 2.144706 1_555
Mg13 O20 2.166927 1_565
Mg13 O30 2.168423 1_555
Mg13 O22 2.196080 1_555
Mg13 O29 2.202607 1_556
Mg14 O0 1.923474 1_555
Mg14 O19 2.077250 1_555
Mg14 O15 2.157865 1_455
Mg14 O7 2.168581 1_555
Mg14 O9 2.168581 1_545
Mg15 O0 1.923474 1_556
Mg15 O20 2.077250 1_555
Mg15 O16 2.157865 1_455
Mg15 O8 2.168581 1_555
Mg15 O10 2.168581 1_545
Mg16 O17 2.121511 1_455
Mg16 O21 2.131113 1_555
Mg16 O1 2.139727 1_555
Mg16 O9 2.214314 1_555
Mg16 O7 2.214314 1_555
Mg16 O2 2.231725 1_555
Mg17 O18 2.121511 1_455
Mg17 O22 2.131113 1_555
Mg17 O1 2.139727 1_556
Mg17 O10 2.214314 1_555
Mg17 O8 2.214314 1_555
Mg17 O2 2.231725 1_555
Mg18 O15 2.065882 1_555
Mg18 O4 2.123277 1_555
Mg18 O11 2.173459 1_555
Mg18 O13 2.173459 1_545
Mg18 O3 2.268421 1_555
Mg18 O19 2.312783 1_555
Mg19 O16 2.065882 1_555
Mg19 O4 2.123277 1_555
Mg19 O12 2.173459 1_555
Mg19 O14 2.173459 1_545
Mg19 O3 2.268421 1_556
Mg19 O20 2.312783 1_555
Mg20 O21 2.146409 1_555
Mg20 O17 2.147989 1_555
Mg20 O6 2.183983 1_555
Mg20 O5 2.185567 1_555
Mg20 O13 2.187368 1_555
Mg20 O11 2.187368 1_555
Mg21 O22 2.146409 1_555
Mg21 O18 2.147989 1_555
Mg21 O6 2.183983 1_555
Mg21 O5 2.185567 1_556
Mg21 O14 2.187368 1_555
Mg21 O12 2.187368 1_555
Mg22 O1 2.104934 1_555
Mg22 O27 2.115953 1_555
Mg22 O23 2.120738 1_555
Mg22 O7 2.226782 1_555
Mg22 O8 2.226782 1_554
Mg22 O0 2.264839 1_555
Mg23 O2 1.902448 1_555
Mg23 O28 2.076465 1_555
Mg23 O24 2.106940 1_555
Mg23 O8 2.167306 1_555
Mg23 O7 2.167306 1_555
Mg24 O1 2.104934 1_555
Mg24 O29 2.115953 1_555
Mg24 O25 2.120738 1_555
Mg24 O10 2.226782 1_554
Mg24 O9 2.226782 1_555
Mg24 O0 2.264839 1_565
Mg25 O2 1.902448 1_555
Mg25 O30 2.076465 1_555
Mg25 O26 2.106940 1_555
Mg25 O9 2.167306 1_555
Mg25 O10 2.167306 1_555
Mg26 O27 2.142312 1_555
Mg26 O23 2.181950 1_655
Mg26 O5 2.183032 1_555
Mg26 O3 2.185379 1_555
Mg26 O12 2.200435 1_554
Mg26 O11 2.200435 1_555
Mg27 O24 2.101545 1_655
Mg27 O4 2.123465 1_555
Mg27 O11 2.171543 1_555
Mg27 O12 2.171543 1_555
Mg27 O6 2.242844 1_555
Mg27 O28 2.302232 1_555
Mg28 O29 2.142312 1_555
Mg28 O25 2.181950 1_655
Mg28 O5 2.183032 1_555
Mg28 O3 2.185379 1_565
Mg28 O14 2.200435 1_554
Mg28 O13 2.200435 1_555
Mg29 O26 2.101545 1_655
Mg29 O4 2.123465 1_565
Mg29 O13 2.171543 1_555
Mg29 O14 2.171543 1_555
Mg29 O6 2.242844 1_555
Mg29 O30 2.302232 1_555
O15 Rb0 2.332537 1_655
O16 Rb0 2.332537 1_655
O24 Rb0 2.567941 1_555
O26 Rb0 2.567941 1_565
