# generated using pymatgen
data_Li9Mn2Co5O16
_symmetry_space_group_name_H-M   'P 1'
_cell_length_a   2.90833200
_cell_length_b   9.90639819
_cell_length_c   10.30178286
_cell_angle_alpha   80.49584008
_cell_angle_beta   88.84537254
_cell_angle_gamma   88.78530003
_symmetry_Int_Tables_number   1
_chemical_formula_structural   Li9Mn2Co5O16
_chemical_formula_sum   'Li9 Mn2 Co5 O16'
_cell_volume   292.62406432
_cell_formula_units_Z   1
loop_
 _symmetry_equiv_pos_site_id
 _symmetry_equiv_pos_as_xyz
  1  'x, y, z'
loop_
 _atom_site_type_symbol
 _atom_site_label
 _atom_site_symmetry_multiplicity
 _atom_site_fract_x
 _atom_site_fract_y
 _atom_site_fract_z
 _atom_site_occupancy
  Li  Li0  1  0.00304100  0.24512400  0.13392100  1
  Li  Li1  1  0.51356100  0.76073500  0.13029000  1
  Li  Li2  1  0.49294200  0.22920200  0.38915300  1
  Li  Li3  1  0.01431200  0.75646000  0.37528600  1
  Li  Li4  1  0.98568800  0.24354000  0.62471400  1
  Li  Li5  1  0.50705800  0.77079800  0.61084700  1
  Li  Li6  1  0.48643900  0.23926500  0.86971000  1
  Li  Li7  1  0.99695900  0.75487600  0.86607900  1
  Li  Li8  1  0.00000000  0.00000000  0.50000000  1
  Mn  Mn0  1  0.00000000  0.00000000  0.00000000  1
  Mn  Mn1  1  0.50000000  0.50000000  0.00000000  1
  Co  Co0  1  0.49878200  0.99426000  0.27065400  1
  Co  Co1  1  0.99101500  0.49903400  0.25330300  1
  Co  Co2  1  0.50000000  0.50000000  0.50000000  1
  Co  Co3  1  0.50121800  0.00574000  0.72934600  1
  Co  Co4  1  0.00898500  0.50096600  0.74669700  1
  O  O0  1  0.49175600  0.11096400  0.05404500  1
  O  O1  1  0.99136600  0.61020700  0.05474500  1
  O  O2  1  0.99166200  0.11938600  0.30430700  1
  O  O3  1  0.51328100  0.61562700  0.30916800  1
  O  O4  1  0.49552000  0.12130400  0.57533800  1
  O  O5  1  0.01920600  0.61371500  0.56344300  1
  O  O6  1  0.99624000  0.10822900  0.82420000  1
  O  O7  1  0.52031300  0.60908600  0.82472600  1
  O  O8  1  0.47968700  0.39091400  0.17527400  1
  O  O9  1  0.00376000  0.89177100  0.17580000  1
  O  O10  1  0.98079400  0.38628500  0.43655700  1
  O  O11  1  0.50448000  0.87869600  0.42466200  1
  O  O12  1  0.48671900  0.38437300  0.69083200  1
  O  O13  1  0.00833800  0.88061400  0.69569300  1
  O  O14  1  0.00863400  0.38979300  0.94525500  1
  O  O15  1  0.50824400  0.88903600  0.94595500  1
loop_
_geom_bond_atom_site_label_1
_geom_bond_atom_site_label_2
_geom_bond_distance
_geom_bond_site_symmetry_2
Li0 O2 1.977631 1_455
Li0 O8 2.121532 1_555
Li0 O8 2.160544 1_455
Li0 O0 2.167398 1_555
Li0 O14 2.216212 1_554
Li0 O0 2.269107 1_455
Li1 O9 2.048056 1_555
Li1 O9 2.060036 1_655
Li1 O15 2.103590 1_554
Li1 O3 2.141815 1_555
Li1 O1 2.238785 1_555
Li1 O1 2.379646 1_455
Li2 O4 2.035836 1_555
Li2 O2 2.060894 1_555
Li2 O2 2.122623 1_455
Li2 O10 2.236511 1_455
Li2 O10 2.246241 1_555
Li2 O8 2.501536 1_555
Li3 O11 2.005125 1_455
Li3 O11 2.015722 1_555
Li3 O3 2.168966 1_555
Li3 O5 2.202756 1_555
Li3 O3 2.230184 1_455
Li3 O9 2.260996 1_555
Li4 O4 2.005125 1_655
Li4 O4 2.015722 1_555
Li4 O12 2.168966 1_555
Li4 O10 2.202756 1_555
Li4 O12 2.230184 1_655
Li4 O6 2.260996 1_555
Li5 O11 2.035836 1_555
Li5 O13 2.060894 1_555
Li5 O13 2.122623 1_655
Li5 O5 2.236511 1_655
Li5 O5 2.246241 1_555
Li5 O7 2.501536 1_555
Li6 O6 2.048056 1_555
Li6 O6 2.060036 1_455
Li6 O0 2.103590 1_556
Li6 O12 2.141815 1_555
Li6 O14 2.238785 1_555
Li6 O14 2.379646 1_655
Li7 O13 1.977631 1_655
Li7 O7 2.121532 1_555
Li7 O7 2.160544 1_655
Li7 O15 2.167398 1_555
Li7 O1 2.216212 1_556
Li7 O15 2.269107 1_655
Li8 O4 2.094378 1_455
Li8 O11 2.094378 1_545
Li8 O4 2.133020 1_555
Li8 O11 2.133020 1_445
Li8 O2 2.162616 1_455
Li8 O13 2.162616 1_545
Mn0 O6 1.946439 1_454
Mn0 O9 1.946439 1_545
Mn0 O0 1.950205 1_455
Mn0 O15 1.950205 1_544
Mn0 O15 1.965869 1_444
Mn0 O0 1.965869 1_555
Mn1 O8 1.945671 1_555
Mn1 O7 1.945671 1_554
Mn1 O14 1.949228 1_654
Mn1 O1 1.949228 1_455
Mn1 O14 1.963200 1_554
Mn1 O1 1.963200 1_555
Co0 O11 1.796800 1_555
Co0 O2 1.968685 1_465
Co0 O2 1.987146 1_565
Co0 O9 2.085467 1_655
Co0 O9 2.122425 1_555
Co0 O0 2.337800 1_565
Co1 O3 1.927429 1_555
Co1 O8 1.996742 1_655
Co1 O10 2.028592 1_555
Co1 O3 2.074013 1_655
Co1 O8 2.098786 1_555
Co1 O1 2.157083 1_555
Co2 O5 1.947041 1_555
Co2 O10 1.947041 1_555
Co2 O10 2.081198 1_455
Co2 O5 2.081198 1_655
Co2 O12 2.105591 1_555
Co2 O3 2.105591 1_555
Co3 O4 1.796800 1_555
Co3 O13 1.968685 1_645
Co3 O13 1.987146 1_545
Co3 O6 2.085467 1_455
Co3 O6 2.122425 1_555
Co3 O15 2.337800 1_545
Co4 O12 1.927429 1_555
Co4 O7 1.996742 1_455
Co4 O5 2.028592 1_555
Co4 O12 2.074013 1_455
Co4 O7 2.098786 1_555
Co4 O14 2.157083 1_555
